drugbank_target|P08185 Corticosteroid-binding globulin (DB01593; DB09130; DB14487; DB14533; DB14548)
 OpenBabel12092119273D

  0  0  0     0  0            999 V3000
M  V30 BEGIN CTAB
M  V30 COUNTS 6343 6414 0 0 0
M  V30 BEGIN ATOM
M  V30 1 H -0.908 1.98254 -0.117106 0
M  V30 2 N 0 1.576 0 0
M  V30 3 C 0.933 2.03868 1.02534 0
M  V30 4 C 1.911 0.928543 1.3348 0
M  V30 5 O 3.095 1.19667 1.45644 0
M  V30 6 C 0.222 2.43627 2.35294 0
M  V30 7 C -0.732 3.65373 2.2001 0
M  V30 8 S 0.101 5.13292 1.52614 0
M  V30 9 C 1.257 5.56322 2.86805 0
M  V30 10 H 1.49 2.90518 0.631377 0
M  V30 11 H -0.977 1.52953 0.210867 0
M  V30 12 H 0.981 2.67203 3.11629 0
M  V30 13 H -0.358 1.57376 2.7183 0
M  V30 14 H -1.165 3.90944 3.18086 0
M  V30 15 H -1.563 3.418 1.51819 0
M  V30 16 H 0.729 5.58782 3.83104 0
M  V30 17 H 1.672 6.56266 2.65933 0
M  V30 18 H 2.08 4.83886 2.90714 0
M  V30 19 N 1.4781 -0.272755 1.55222 0
M  V30 20 C 2.8891 -0.84378 1.66545 0
M  V30 21 C 3.2401 -1.87035 0.592641 0
M  V30 22 O 2.3651 -2.14761 -0.265818 0
M  V30 23 C 2.9601 -1.53723 3.01918 0
M  V30 24 C 1.5191 -2.05628 3.15268 0
M  V30 25 C 0.6661 -0.898424 2.62343 0
M  V30 26 H 3.6171 -0.0490998 1.58624 0
M  V30 27 H 3.6381 -2.40421 2.94921 0
M  V30 28 H 3.1501 -0.78983 3.79978 0
M  V30 29 H 1.2511 -2.83329 2.41983 0
M  V30 30 H 1.3641 -2.27142 4.21833 0
M  V30 31 H -0.2719 -1.29186 2.19506 0
M  V30 32 H 0.5111 -0.164528 3.42906 0
M  V30 33 N 2.9562 -1.48159 -0.537278 0
M  V30 34 C 3.8862 -1.65029 -1.6519 0
M  V30 35 C 4.8672 -0.499281 -1.62607 0
M  V30 36 O 6.0522 -0.730972 -1.79918 0
M  V30 37 C 3.1822 -1.68303 -3.03795 0
M  V30 38 C 2.1362 -2.8283 -3.21234 0
M  V30 39 C 1.4622 -2.71189 -4.60826 0
M  V30 40 C 2.7622 -4.24211 -3.04701 0
M  V30 41 H 4.4562 -2.58341 -1.51328 0
M  V30 42 H 2.0022 -1.24325 -0.726585 0
M  V30 43 H 3.9552 -1.78693 -3.81637 0
M  V30 44 H 2.6792 -0.715635 -3.18663 0
M  V30 45 H 1.3382 -2.71983 -2.45807 0
M  V30 46 H 0.9862 -1.72435 -4.7252 0
M  V30 47 H 0.6862 -3.48035 -4.7344 0
M  V30 48 H 2.2102 -2.83537 -5.40777 0
M  V30 49 H 3.6242 -4.3593 -3.72341 0
M  V30 50 H 2.0212 -5.01998 -3.28813 0
M  V30 51 H 3.0912 -4.41184 -2.01209 0
M  V30 52 N 4.4343 0.785586 -1.36625 0
M  V30 53 C 5.3643 1.91259 -1.33949 0
M  V30 54 C 6.3453 1.68795 -0.210325 0
M  V30 55 O 7.5303 1.89854 -0.408561 0
M  V30 56 C 4.6603 3.28339 -1.13186 0
M  V30 57 C 3.6143 3.65335 -2.22967 0
M  V30 58 C 2.9403 5.00806 -1.87342 0
M  V30 59 C 4.2403 3.7352 -3.65075 0
M  V30 60 H 5.9343 1.93755 -2.28253 0
M  V30 61 H 3.4803 0.930788 -1.09874 0
M  V30 62 H 5.4333 4.06804 -1.09948 0
M  V30 63 H 4.1573 3.2624 -0.153332 0
M  V30 64 H 2.8163 2.89169 -2.25337 0
M  V30 65 H 2.4643 4.95233 -0.880545 0
M  V30 66 H 2.1643 5.26529 -2.60846 0
M  V30 67 H 3.6883 5.81687 -1.85667 0
M  V30 68 H 5.1023 4.42168 -3.64911 0
M  V30 69 H 3.4993 4.10731 -4.37516 0
M  V30 70 H 4.5693 2.74527 -3.99703 0
M  V30 71 N 5.9124 1.20967 1.01018 0
M  V30 72 C 6.8424 0.988272 2.11555 0
M  V30 73 C 7.8234 -0.0849778 1.69888 0
M  V30 74 O 9.0084 0.0738202 1.9406 0
M  V30 75 C 6.1384 0.546528 3.42973 0
M  V30 76 C 5.0924 1.56375 3.9841 0
M  V30 77 C 4.4184 0.97842 5.25672 0
M  V30 78 C 5.7184 2.94922 4.31066 0
M  V30 79 H 7.4124 1.91276 2.30334 0
M  V30 80 H 4.9584 0.921073 1.1069 0
M  V30 81 H 6.9114 0.378839 4.19694 0
M  V30 82 H 5.6354 -0.413598 3.23971 0
M  V30 83 H 4.2944 1.71891 3.23804 0
M  V30 84 H 3.9424 0.0101688 5.02999 0
M  V30 85 H 3.6424 1.65784 5.63728 0
M  V30 86 H 5.1664 0.821939 6.05043 0
M  V30 87 H 6.5804 2.8288 4.9865 0
M  V30 88 H 4.9774 3.5983 4.80253 0
M  V30 89 H 6.0474 3.4616 3.39561 0
M  V30 90 N 7.3905 -1.2043 1.01659 0
M  V30 91 C 8.6205 -1.93496 0.724081 0
M  V30 92 C 9.0285 -1.74998 -0.71918 0
M  V30 93 O 8.3715 -1.06118 -1.49949 0
M  V30 94 C 8.4335 -3.45886 0.97994 0
M  V30 95 C 8.0975 -3.88145 2.41232 0
M  V30 96 C 9.0945 -3.93907 3.39313 0
M  V30 97 C 6.7795 -4.20134 2.75305 0
M  V30 98 C 8.7735 -4.31069 4.6953 0
M  V30 99 C 6.4605 -4.56971 4.05735 0
M  V30 100 C 7.4585 -4.62411 5.02658 0
M  V30 101 O 7.1465 -4.98403 6.30754 0
M  V30 102 H 6.8785 -0.621824 0.265162 0
M  V30 103 H 9.4325 -1.53867 1.36066 0
M  V30 104 H 7.6625 -3.85639 0.286198 0
M  V30 105 H 9.3515 -4.0018 0.679021 0
M  V30 106 H 10.1175 -3.69357 3.14325 0
M  V30 107 H 5.9965 -4.1509 2.00551 0
M  V30 108 H 9.5405 -4.3523 5.45179 0
M  V30 109 H 5.4375 -4.80977 4.30502 0
M  V30 110 H 6.2055 -5.16395 6.35042 0
M  V30 111 N 8.8686 -0.792821 -1.36206 0
M  V30 112 C 10.0966 -0.378825 -2.03402 0
M  V30 113 C 10.5116 1.00586 -1.59774 0
M  V30 114 O 9.8686 1.64574 -0.788764 0
M  V30 115 C 9.9196 -0.43683 -3.58851 0
M  V30 116 O 9.6406 -1.76691 -4.00889 0
M  V30 117 C 11.1416 -0.0138943 -4.43298 0
M  V30 118 H 8.3616 -0.155673 -0.652692 0
M  V30 119 H 10.9056 -1.07261 -1.74113 0
M  V30 120 H 9.0606 0.208575 -3.86838 0
M  V30 121 H 9.4746 -1.72011 -4.95492 0
M  V30 122 H 10.9486 -0.105615 -5.51899 0
M  V30 123 H 11.4256 1.03915 -4.2673 0
M  V30 124 H 12.0316 -0.63192 -4.20579 0
M  V30 125 N 10.3467 1.47872 -0.545128 0
M  V30 126 C 11.5867 2.04391 -0.0187854 0
M  V30 127 C 11.9507 1.41162 1.30144 0
M  V30 128 O 13.1517 1.88656 1.91474 0
M  V30 129 C 11.4227 3.57299 0.0850867 0
M  V30 130 S 12.9817 4.35221 0.559302 0
M  V30 131 H 9.7997 0.710737 -0.0193301 0
M  V30 132 H 12.4017 1.81395 -0.729125 0
M  V30 133 H 11.1057 4.00847 -0.880351 0
M  V30 134 H 10.6367 3.84773 0.819348 0
M  V30 135 H 12.6517 4.61571 1.82118 0
M  V30 136 N 11.8248 0.280983 1.55075 0
M  V30 137 C 12.7548 -0.597469 2.25727 0
M  V30 138 C 13.7358 -1.15417 1.24952 0
M  V30 139 O 14.9208 -1.18722 1.53684 0
M  V30 140 C 12.0508 -1.7789 2.98283 0
M  V30 141 C 11.0048 -1.35347 4.06036 0
M  V30 142 C 10.3308 -2.61846 4.66198 0
M  V30 143 C 11.6308 -0.499354 5.19907 0
M  V30 144 H 13.3248 -0.00824265 2.99399 0
M  V30 145 H 10.8708 -0.0025244 1.44 0
M  V30 146 H 12.8238 -2.39937 3.46422 0
M  V30 147 H 11.5478 -2.39405 2.22155 0
M  V30 148 H 10.2068 -0.756156 3.58717 0
M  V30 149 H 9.8548 -3.21632 3.86732 0
M  V30 150 H 9.5548 -2.3409 5.38958 0
M  V30 151 H 11.0788 -3.24732 5.1709 0
M  V30 152 H 12.4928 -1.02498 5.64063 0
M  V30 153 H 10.8898 -0.316424 5.99265 0
M  V30 154 H 11.9598 0.480459 4.82514 0
M  V30 155 N 13.3029 -1.57598 0.00835791 0
M  V30 156 C 14.2329 -2.1198 -0.979113 0
M  V30 157 C 15.2139 -1.03091 -1.35301 0
M  V30 158 O 16.3989 -1.30818 -1.43528 0
M  V30 159 C 13.5289 -2.62995 -2.26828 0
M  V30 160 C 12.4829 -3.76485 -2.03576 0
M  V30 161 C 11.8089 -4.13846 -3.38579 0
M  V30 162 C 13.1089 -5.0342 -1.39161 0
M  V30 163 H 14.8029 -2.94738 -0.526281 0
M  V30 164 H 12.3489 -1.41783 -0.251704 0
M  V30 165 H 14.3019 -2.99669 -2.96271 0
M  V30 166 H 13.0259 -1.7737 -2.7424 0
M  V30 167 H 11.6849 -3.40217 -1.36557 0
M  V30 168 H 11.3329 -3.25232 -3.83709 0
M  V30 169 H 11.0329 -4.90312 -3.23834 0
M  V30 170 H 12.5569 -4.53086 -4.09323 0
M  V30 171 H 13.9709 -5.37812 -1.98573 0
M  V30 172 H 12.3679 -5.84746 -1.34878 0
M  V30 173 H 13.4379 -4.83548 -0.361868 0
M  V30 174 N 14.781 0.264519 -1.55364 0
M  V30 175 C 16.027 0.992314 -1.77552 0
M  V30 176 C 16.382 1.83626 -0.574379 0
M  V30 177 O 15.675 1.86648 0.432782 0
M  V30 178 C 15.869 1.9004 -3.02687 0
M  V30 179 C 15.698 1.14583 -4.34857 0
M  V30 180 C 14.468 0.858068 -4.97961 0
M  V30 181 C 16.666 0.532069 -5.1154 0
M  V30 182 N 14.648 0.0775974 -6.13851 0
M  V30 183 C 16.019 -0.113823 -6.19896 0
M  V30 184 C 18.074 0.440763 -4.95945 0
M  V30 185 C 16.777 -0.842231 -7.14352 0
M  V30 186 C 18.803 -0.274072 -5.90765 0
M  V30 187 C 18.165 -0.90867 -6.98515 0
M  V30 188 H 14.264 0.344811 -0.701875 0
M  V30 189 H 16.848 0.267141 -1.92859 0
M  V30 190 H 15.019 2.59775 -2.88741 0
M  V30 191 H 16.751 2.56243 -3.13243 0
M  V30 192 H 13.506 1.16547 -4.59036 0
M  V30 193 H 13.93 -0.300216 -6.76334 0
M  V30 194 H 18.572 0.917064 -4.12735 0
M  V30 195 H 16.29 -1.33019 -7.97077 0
M  V30 196 H 19.876 -0.345151 -5.80775 0
M  V30 197 H 18.756 -1.45299 -7.70622 0
M  V30 198 N 16.2591 1.48442 0.529413 0
M  V30 199 C 17.1891 1.65902 1.64313 0
M  V30 200 C 18.1701 0.507897 1.6234 0
M  V30 201 O 19.3551 0.740503 1.79528 0
M  V30 202 C 16.4851 1.69911 3.02898 0
M  V30 203 C 15.4391 2.8453 3.19729 0
M  V30 204 C 14.7651 2.73629 4.59381 0
M  V30 205 C 16.0651 4.25821 3.02447 0
M  V30 206 H 17.7591 2.5914 1.49955 0
M  V30 207 H 15.3051 1.24709 0.719982 0
M  V30 208 H 17.2581 1.80715 3.80684 0
M  V30 209 H 15.9821 0.732524 3.18279 0
M  V30 210 H 14.6411 2.73283 2.44361 0
M  V30 211 H 14.2891 1.74938 4.71599 0
M  V30 212 H 13.9891 3.50541 4.71588 0
M  V30 213 H 15.5131 2.86401 5.39265 0
M  V30 214 H 16.9271 4.37898 3.70024 0
M  V30 215 H 15.3241 5.03735 3.26146 0
M  V30 216 H 16.3941 4.42244 1.98867 0
M  V30 217 N 17.7372 -0.778329 1.37039 0
M  V30 218 C 19.1482 -1.35421 1.28523 0
M  V30 219 C 19.4992 -1.96075 -0.0700901 0
M  V30 220 O 18.6242 -1.93352 -0.971801 0
M  V30 221 C 19.2192 -2.46211 2.32735 0
M  V30 222 C 17.7782 -2.99585 2.27873 0
M  V30 223 C 16.9252 -1.72748 2.16918 0
M  V30 224 H 19.8762 -0.5791 1.47757 0
M  V30 225 H 19.8972 -3.2552 1.9702 0
M  V30 226 H 19.4092 -2.02036 3.31365 0
M  V30 227 H 17.5102 -3.48152 1.32745 0
M  V30 228 H 17.6232 -3.55646 3.21018 0
M  V30 229 H 15.9872 -1.95416 1.63354 0
M  V30 230 H 16.7702 -1.30686 3.17452 0
M  V30 231 N 19.2153 -1.21501 -1.00376 0
M  V30 232 C 20.4433 -1.059 -1.77744 0
M  V30 233 C 20.8583 0.391125 -1.84704 0
M  V30 234 O 20.2153 1.27133 -1.30933 0
M  V30 235 C 20.2663 -1.65111 -3.21591 0
M  V30 236 O 19.9873 -3.0445 -3.15027 0
M  V30 237 C 21.4883 -1.54637 -4.15454 0
M  V30 238 H 18.7083 -0.371825 -0.558558 0
M  V30 239 H 21.2523 -1.60865 -1.26264 0
M  V30 240 H 19.4073 -1.14235 -3.70175 0
M  V30 241 H 19.8213 -3.3278 -4.0541 0
M  V30 242 H 21.2953 -2.00808 -5.14179 0
M  V30 243 H 21.7723 -0.501022 -4.36333 0
M  V30 244 H 22.3783 -2.04767 -3.72761 0
M  V30 245 N 20.6934 1.19889 -1.02296 0
M  V30 246 C 21.9184 1.9393 -0.735237 0
M  V30 247 C 22.3434 1.74639 0.698782 0
M  V30 248 O 21.7014 1.04481 1.48167 0
M  V30 249 C 21.7494 3.43916 -1.08417 0
M  V30 250 O 20.8534 4.11917 -0.199446 0
M  V30 251 H 20.1944 0.605645 -0.272196 0
M  V30 252 H 22.7244 1.52137 -1.36804 0
M  V30 253 H 22.7344 3.9456 -1.03856 0
M  V30 254 H 21.4094 3.5728 -2.12894 0
M  V30 255 H 19.9864 3.71666 -0.303136 0
M  V30 256 N 22.1715 0.800033 1.35784 0
M  V30 257 C 23.4195 0.376597 1.9856 0
M  V30 258 C 23.7405 -1.05812 1.63795 0
M  V30 259 O 23.0105 -1.73103 0.917171 0
M  V30 260 H 21.5905 0.136261 0.734467 0
M  V30 261 H 24.2525 1.02442 1.65806 0
M  V30 262 H 23.3485 0.477002 3.08433 0
M  V30 263 N 23.6496 -1.47581 0.552962 0
M  V30 264 C 24.5796 -2.32762 -0.185451 0
M  V30 265 C 25.5606 -1.43527 -0.912905 0
M  V30 266 O 26.7456 -1.72388 -0.894201 0
M  V30 267 C 23.8756 -3.25219 -1.21859 0
M  V30 268 C 22.8296 -4.23661 -0.607864 0
M  V30 269 C 22.1556 -5.05413 -1.74533 0
M  V30 270 C 23.4556 -5.20481 0.435582 0
M  V30 271 H 25.1496 -2.94749 0.525684 0
M  V30 272 H 22.6956 -1.41738 0.254251 0
M  V30 273 H 24.6486 -3.8365 -1.7433 0
M  V30 274 H 23.3726 -2.61279 -1.95961 0
M  V30 275 H 22.0316 -3.66451 -0.104489 0
M  V30 276 H 21.6796 -4.3788 -2.47529 0
M  V30 277 H 21.3796 -5.72059 -1.34249 0
M  V30 278 H 22.9036 -5.66701 -2.27338 0
M  V30 279 H 24.3176 -5.733 -0.00290157 0
M  V30 280 H 22.7146 -5.95305 0.757067 0
M  V30 281 H 23.7846 -4.66217 1.33303 0
M  V30 282 N 25.1277 -0.289203 -1.54924 0
M  V30 283 C 26.3737 0.316922 -2.00916 0
M  V30 284 C 26.7287 1.52424 -1.17408 0
M  V30 285 O 26.0217 1.90097 -0.239536 0
M  V30 286 C 26.2157 0.736119 -3.49737 0
M  V30 287 C 26.0447 -0.429036 -4.47649 0
M  V30 288 C 24.8147 -0.917311 -4.96904 0
M  V30 289 C 27.0127 -1.27016 -4.98369 0
M  V30 290 N 24.9947 -2.05046 -5.78644 0
M  V30 291 C 26.3657 -2.25097 -5.77695 0
M  V30 292 C 28.4207 -1.30188 -4.80578 0
M  V30 293 C 27.1237 -3.26114 -6.41126 0
M  V30 294 C 29.1497 -2.30057 -5.44819 0
M  V30 295 C 28.5117 -3.2687 -6.23968 0
M  V30 296 H 24.6107 0.0807535 -0.777819 0
M  V30 297 H 27.1947 -0.416434 -1.90194 0
M  V30 298 H 25.3657 1.43867 -3.60773 0
M  V30 299 H 27.0977 1.32078 -3.82541 0
M  V30 300 H 23.8527 -0.494248 -4.71014 0
M  V30 301 H 24.2767 -2.62108 -6.24202 0
M  V30 302 H 28.9187 -0.567163 -4.18979 0
M  V30 303 H 26.6367 -4.00512 -7.01866 0
M  V30 304 H 30.2227 -2.33271 -5.32988 0
M  V30 305 H 29.1027 -4.02883 -6.72796 0
M  V30 306 N 26.6058 1.57591 -0.0167156 0
M  V30 307 C 27.8338 1.95575 0.675128 0
M  V30 308 C 28.2488 0.892542 1.6637 0
M  V30 309 O 27.6058 -0.126912 1.82058 0
M  V30 310 C 27.6568 3.33608 1.39239 0
M  V30 311 O 27.3778 4.3585 0.443444 0
M  V30 312 C 28.8788 3.86151 2.17721 0
M  V30 313 H 26.0988 0.644423 0.186978 0
M  V30 314 H 28.6428 2.0437 -0.0728 0
M  V30 315 H 26.7978 3.2607 2.09182 0
M  V30 316 H 27.2118 5.158 0.951358 0
M  V30 317 H 28.6858 4.85114 2.63379 0
M  V30 318 H 29.1628 3.19738 3.01105 0
M  V30 319 H 29.7688 3.96918 1.52761 0
M  V30 320 N 28.0839 -0.256276 1.55502 0
M  V30 321 C 29.3299 -0.987079 1.77157 0
M  V30 322 C 29.6629 -1.85327 0.580315 0
M  V30 323 O 28.9379 -1.89874 -0.421686 0
M  V30 324 C 29.2209 -1.85553 3.08613 0
M  V30 325 C 29.0739 -1.01816 4.38125 0
M  V30 326 C 30.3929 -2.8397 3.36228 0
M  V30 327 H 27.5119 -0.357428 0.644526 0
M  V30 328 H 30.1539 -0.258239 1.88237 0
M  V30 329 H 28.3039 -2.47695 2.99298 0
M  V30 330 H 29.9759 -0.416159 4.59419 0
M  V30 331 H 28.2189 -0.322178 4.32602 0
M  V30 332 H 28.8899 -1.65939 5.26468 0
M  V30 333 H 31.3659 -2.31964 3.45445 0
M  V30 334 H 30.2419 -3.41864 4.29442 0
M  V30 335 H 30.5029 -3.59955 2.56681 0
M  V30 336 N 29.562 -1.4872 -0.521534 0
M  V30 337 C 30.494 -1.59968 -1.64143 0
M  V30 338 C 31.507 -0.483463 -1.55456 0
M  V30 339 O 32.696 -0.75467 -1.61762 0
M  V30 340 C 29.796 -1.52127 -3.02838 0
M  V30 341 C 28.969 -2.78932 -3.36921 0
M  V30 342 C 28.028 -2.64428 -4.54933 0
M  V30 343 O 27.054 -3.38331 -4.57735 0
M  V30 344 N 28.256 -1.74606 -5.53618 0
M  V30 345 H 31.021 -2.56548 -1.54929 0
M  V30 346 H 28.582 -1.45551 -0.708988 0
M  V30 347 H 30.574 -1.40106 -3.79674 0
M  V30 348 H 29.144 -0.634868 -3.06085 0
M  V30 349 H 28.364 -3.05455 -2.4918 0
M  V30 350 H 29.652 -3.63041 -3.56481 0
M  V30 351 H 29.05 -1.13782 -5.54139 0
M  V30 352 H 27.607 -1.6852 -6.29638 0
M  V30 353 N 31.0401 0.771051 -1.3745 0
M  V30 354 C 32.0031 1.86598 -1.33093 0
M  V30 355 C 33.0031 1.59076 -0.234845 0
M  V30 356 O 34.1931 1.67145 -0.490732 0
M  V30 357 C 31.3251 3.23747 -1.06773 0
M  V30 358 H 32.5181 1.91873 -2.30488 0
M  V30 359 H 30.0711 0.970876 -1.2249 0
M  V30 360 H 30.8061 3.24148 -0.099129 0
M  V30 361 H 30.5911 3.45115 -1.86112 0
M  V30 362 H 32.0811 4.03824 -1.06377 0
M  V30 363 N 32.5182 1.22032 0.997298 0
M  V30 364 C 33.4512 0.929735 2.08401 0
M  V30 365 C 34.4292 -0.125681 1.62114 0
M  V30 366 O 35.6132 0.00495409 1.88499 0
M  V30 367 C 32.7402 0.397488 3.3636 0
M  V30 368 C 31.7862 1.4369 4.01566 0
M  V30 369 S 32.6192 3.00874 4.42984 0
M  V30 370 C 33.7752 2.49276 5.74119 0
M  V30 371 H 34.0082 1.84998 2.32729 0
M  V30 372 H 31.5412 1.0509 1.13117 0
M  V30 373 H 33.4992 0.0969846 4.10385 0
M  V30 374 H 32.1602 -0.501571 3.10069 0
M  V30 375 H 31.3532 1.01427 4.93689 0
M  V30 376 H 30.9552 1.68588 3.33847 0
M  V30 377 H 33.2472 1.90242 6.50242 0
M  V30 378 H 34.1902 3.39872 6.21203 0
M  V30 379 H 34.5982 1.90714 5.31308 0
M  V30 380 N 33.9963 -1.19345 1.0293 0
M  V30 381 C 35.2733 -1.84811 0.640642 0
M  V30 382 C 35.6533 -1.91855 -0.88062 0
M  V30 383 O 35.0013 -1.43587 -1.7775 0
M  V30 384 C 35.2113 -3.23755 1.30321 0
M  V30 385 C 36.5593 -3.99912 1.42673 0
M  V30 386 O 37.5833 -3.33155 1.26041 0
M  V30 387 O 36.4423 -5.19494 1.6967 0
M  V30 388 H 33.5363 -0.796443 0.222726 0
M  V30 389 H 36.0823 -1.26831 1.12748 0
M  V30 390 H 34.8543 -3.13466 2.34211 0
M  V30 391 H 34.4773 -3.89381 0.804261 0
M  V30 392 N 35.4744 -0.807222 -1.35358 0
M  V30 393 C 36.8854 -0.44876 -1.81226 0
M  V30 394 C 37.2364 1.02929 -1.67033 0
M  V30 395 O 36.3614 1.79991 -1.20133 0
M  V30 396 C 36.9564 -0.807774 -3.2903 0
M  V30 397 C 35.5154 -0.501901 -3.73039 0
M  V30 398 C 34.6624 -1.03304 -2.57339 0
M  V30 399 H 37.6134 -0.998808 -1.23327 0
M  V30 400 H 37.6344 -0.10554 -3.80354 0
M  V30 401 H 37.1464 -1.88357 -3.39328 0
M  V30 402 H 35.2474 0.565128 -3.68289 0
M  V30 403 H 35.3604 -1.03497 -4.67787 0
M  V30 404 H 33.7244 -0.455339 -2.50597 0
M  V30 405 H 34.5074 -2.11496 -2.70415 0
M  V30 406 N 36.9525 1.47285 -0.560781 0
M  V30 407 C 37.9005 2.31756 0.197942 0
M  V30 408 C 38.8945 1.43146 0.905854 0
M  V30 409 O 40.1005 1.59891 0.826733 0
M  V30 410 H 36.4755 0.747438 0.0827049 0
M  V30 411 H 38.4465 2.9359 -0.533629 0
M  V30 412 C 37.1955 3.25874 1.21249 0
M  V30 413 H 36.5185 3.94023 0.67719 0
M  V30 414 H 37.9585 3.87803 1.71419 0
M  V30 415 C 36.4175 2.49651 2.26221 0
M  V30 416 O 36.9475 2.24355 3.33208 0
M  V30 417 N 35.1535 2.10597 2.00243 0
M  V30 418 H 34.7005 2.31369 1.13252 0
M  V30 419 H 34.6585 1.59913 2.70694 0
M  V30 420 N 38.4306 0.297415 1.54768 0
M  V30 421 C 39.3936 -0.567375 2.22066 0
M  V30 422 C 40.3936 -1.06409 1.20556 0
M  V30 423 O 41.5836 -0.960691 1.45315 0
M  V30 424 C 38.7156 -1.78517 2.90421 0
M  V30 425 H 39.9086 0.0205534 2.99893 0
M  V30 426 H 37.4616 0.0482163 1.56226 0
M  V30 427 H 38.1966 -2.41303 2.16664 0
M  V30 428 H 37.9816 -1.43669 3.64831 0
M  V30 429 H 39.4716 -2.39964 3.41771 0
M  V30 430 N 39.9087 -1.5758 0.0250728 0
M  V30 431 C 40.8717 -2.08896 -0.943139 0
M  V30 432 C 41.8717 -1.00321 -1.25668 0
M  V30 433 O 43.0617 -1.26495 -1.19769 0
M  V30 434 C 40.1937 -2.55143 -2.26086 0
M  V30 435 H 41.3867 -2.95723 -0.498775 0
M  V30 436 H 38.9397 -1.54703 -0.222888 0
M  V30 437 H 39.6747 -1.71633 -2.75159 0
M  V30 438 H 39.4597 -3.34461 -2.04641 0
M  V30 439 H 40.9497 -2.95083 -2.95492 0
M  V30 440 N 41.3868 0.248026 -1.55636 0
M  V30 441 C 42.6168 0.992367 -1.81206 0
M  V30 442 C 43.0248 1.7949 -0.598324 0
M  V30 443 O 42.3678 1.78292 0.442434 0
M  V30 444 C 42.4298 1.97926 -3.00109 0
M  V30 445 C 42.0938 1.36377 -4.36177 0
M  V30 446 C 43.0908 0.76682 -5.14214 0
M  V30 447 C 40.7758 1.38347 -4.82872 0
M  V30 448 C 42.7698 0.197778 -6.37093 0
M  V30 449 C 40.4568 0.810574 -6.057 0
M  V30 450 C 41.4548 0.218754 -6.8265 0
M  V30 451 O 41.1428 -0.345298 -8.03158 0
M  V30 452 H 40.8748 0.297704 -0.606917 0
M  V30 453 H 43.4288 0.276517 -2.0353 0
M  V30 454 H 41.6588 2.73339 -2.73538 0
M  V30 455 H 43.3478 2.58694 -3.12781 0
M  V30 456 H 44.1138 0.744114 -4.79258 0
M  V30 457 H 39.9928 1.8335 -4.2297 0
M  V30 458 H 43.5368 -0.264788 -6.97097 0
M  V30 459 H 39.4338 0.830604 -6.40134 0
M  V30 460 H 40.2018 -0.237055 -8.18157 0
M  V30 461 N 42.8649 1.48995 0.513639 0
M  V30 462 C 44.1109 1.58076 1.27042 0
M  V30 463 C 44.4439 0.261026 1.92438 0
M  V30 464 O 43.7189 -0.734393 1.80103 0
M  V30 465 C 44.0019 2.73091 2.34719 0
M  V30 466 C 43.8549 4.14821 1.73907 0
M  V30 467 C 45.1739 2.83796 3.36375 0
M  V30 468 H 42.2929 0.575391 0.460536 0
M  V30 469 H 44.9349 1.81232 0.570516 0
M  V30 470 H 43.0849 2.53479 2.94416 0
M  V30 471 H 44.7569 4.45917 1.18135 0
M  V30 472 H 42.9999 4.21058 1.0437 0
M  V30 473 H 43.6709 4.91147 2.51949 0
M  V30 474 H 46.1469 3.01611 2.86653 0
M  V30 475 H 45.0229 3.65971 4.09093 0
M  V30 476 H 45.2839 1.92624 3.9793 0
M  V30 477 N 44.343 -0.763751 1.37857 0
M  V30 478 C 45.291 -1.89864 1.34367 0
M  V30 479 C 46.285 -1.67816 0.231143 0
M  V30 480 O 47.491 -1.75508 0.399617 0
M  V30 481 H 43.866 -0.624501 0.41893 0
M  V30 482 H 45.837 -1.89925 2.30155 0
M  V30 483 C 44.586 -3.27227 1.1755 0
M  V30 484 H 43.909 -3.44773 2.02414 0
M  V30 485 H 45.349 -4.06911 1.1916 0
M  V30 486 C 43.808 -3.36692 -0.118311 0
M  V30 487 O 44.338 -3.86374 -1.09902 0
M  V30 488 N 42.544 -2.90092 -0.171717 0
M  V30 489 H 42.091 -2.49853 0.627012 0
M  V30 490 H 42.049 -2.96806 -1.03699 0
M  V30 491 N 45.8211 -1.22559 -0.990812 0
M  V30 492 C 46.7541 -0.940773 -2.07905 0
M  V30 493 C 47.7321 0.117082 -1.62178 0
M  V30 494 O 48.9161 -0.0149506 -1.88494 0
M  V30 495 C 46.0431 -0.415321 -3.36144 0
M  V30 496 C 45.0891 -1.45818 -4.00799 0
M  V30 497 S 45.9221 -3.03219 -4.41382 0
M  V30 498 C 47.0781 -2.52317 -5.72789 0
M  V30 499 H 47.3111 -1.8623 -2.31745 0
M  V30 500 H 44.8441 -1.05688 -1.12558 0
M  V30 501 H 46.8021 -0.118747 -4.10328 0
M  V30 502 H 45.4631 0.485121 -3.10331 0
M  V30 503 H 44.6561 -1.04044 -4.93144 0
M  V30 504 H 44.2581 -1.70356 -3.32949 0
M  V30 505 H 46.5501 -1.93688 -6.49224 0
M  V30 506 H 47.4931 -3.43161 -6.19392 0
M  V30 507 H 47.9011 -1.93529 -5.30289 0
M  V30 508 N 47.2992 1.18797 -1.03562 0
M  V30 509 C 48.5242 1.9314 -0.755764 0
M  V30 510 C 48.9492 1.7537 0.68022 0
M  V30 511 O 48.3072 1.06046 1.47051 0
M  V30 512 C 48.3552 3.42747 -1.12058 0
M  V30 513 O 47.4592 4.11683 -0.243124 0
M  V30 514 H 46.8002 0.602724 -0.278604 0
M  V30 515 H 49.3302 1.50678 -1.3841 0
M  V30 516 H 49.3402 3.93437 -1.08035 0
M  V30 517 H 48.0152 3.55002 -2.16672 0
M  V30 518 H 46.5922 3.71323 -0.342539 0
M  V30 519 N 48.7773 0.814389 1.34928 0
M  V30 520 C 49.7253 0.218424 2.31572 0
M  V30 521 C 50.7193 -0.636128 1.57002 0
M  V30 522 O 51.9253 -0.52842 1.72069 0
M  V30 523 H 48.3003 0.0518799 0.750208 0
M  V30 524 H 50.2713 1.04852 2.79372 0
M  V30 525 C 49.0203 -0.61207 3.4227 0
M  V30 526 H 48.3433 0.0361578 3.99784 0
M  V30 527 H 49.7833 -0.995317 4.12152 0
M  V30 528 C 48.2423 -1.78087 2.85984 0
M  V30 529 O 48.7723 -2.8787 2.80168 0
M  V30 530 N 46.9783 -1.59488 2.42924 0
M  V30 531 H 46.5253 -0.701874 2.47854 0
M  V30 532 H 46.4833 -2.37846 2.05613 0
M  V30 533 N 50.2554 -1.46986 0.568584 0
M  V30 534 C 51.2054 -2.27179 -0.193339 0
M  V30 535 C 52.1894 -1.35035 -0.874895 0
M  V30 536 O 53.3814 -1.5931 -0.771322 0
M  V30 537 C 50.5104 -3.21063 -1.21546 0
M  V30 538 C 49.5964 -4.2069 -0.536738 0
M  V30 539 N 49.9874 -5.04218 0.399673 0
M  V30 540 C 48.2854 -4.38961 -0.789254 0
M  V30 541 C 48.9864 -5.76242 0.795017 0
M  V30 542 N 47.9624 -5.434 0.1473 0
M  V30 543 H 51.7644 -2.89146 0.526458 0
M  V30 544 H 49.2784 -1.57664 0.389342 0
M  V30 545 H 51.2754 -3.77209 -1.77536 0
M  V30 546 H 49.9354 -2.60654 -1.93623 0
M  V30 547 H 50.9464 -5.12077 0.774454 0
M  V30 548 H 47.6234 -3.89713 -1.49767 0
M  V30 549 H 49.0134 -6.53417 1.56513 0
M  V30 550 N 51.7335 -0.305618 -1.54608 0
M  V30 551 C 52.6835 0.583595 -2.20405 0
M  V30 552 C 53.6675 1.09539 -1.17856 0
M  V30 553 O 54.8595 1.0354 -1.43557 0
M  V30 554 C 51.9885 1.75277 -2.95183 0
M  V30 555 C 51.0745 1.25672 -4.05052 0
M  V30 556 N 51.4655 0.478998 -5.03527 0
M  V30 557 C 49.7635 1.53704 -4.18678 0
M  V30 558 C 50.4645 0.214269 -5.81305 0
M  V30 559 N 49.4405 0.795374 -5.3775 0
M  V30 560 H 53.2425 -0.0180946 -2.93894 0
M  V30 561 H 50.7565 -0.110601 -1.62023 0
M  V30 562 H 52.7535 2.4014 -3.40791 0
M  V30 563 H 51.4135 2.35812 -2.23211 0
M  V30 564 H 52.4245 0.123473 -5.17753 0
M  V30 565 H 49.1015 2.14954 -3.57912 0
M  V30 566 H 50.4915 -0.410656 -6.70644 0
M  V30 567 N 53.2116 1.57565 -0.0334293 0
M  V30 568 C 54.6276 1.56297 0.322997 0
M  V30 569 C 54.8276 1.03945 1.7262 0
M  V30 570 O 53.8836 0.688109 2.42943 0
M  V30 571 C 55.1966 3.00232 0.167664 0
M  V30 572 C 56.7446 3.12078 0.240107 0
M  V30 573 C 57.2196 4.57859 0.113513 0
M  V30 574 N 58.7106 4.62887 0.170359 0
M  V30 575 C 59.4456 5.73319 0.0962517 0
M  V30 576 N 58.9416 6.92794 -0.0291881 0
M  V30 577 N 60.7346 5.61898 0.150551 0
M  V30 578 H 52.8856 1.89923 -0.950956 0
M  V30 579 H 55.1486 0.873824 -0.367608 0
M  V30 580 H 54.8546 3.42501 -0.799102 0
M  V30 581 H 54.7286 3.654 0.936083 0
M  V30 582 H 57.1156 2.69718 1.19733 0
M  V30 583 H 57.1966 2.49623 -0.558763 0
M  V30 584 H 56.8406 5.009 -0.840314 0
M  V30 585 H 56.7706 5.18299 0.931302 0
M  V30 586 H 59.2616 3.76954 0.26728 0
M  V30 587 H 59.5746 7.7276 -0.0789252 0
M  V30 588 H 57.9196 6.94971 -0.0640299 0
M  V30 589 H 61.1106 4.67448 0.246981 0
M  V30 590 H 61.2836 6.47938 0.0893365 0
M  V30 591 N 54.6897 -0.239769 1.55765 0
M  V30 592 C 55.9377 -0.964892 1.77579 0
M  V30 593 C 56.2587 -1.85582 0.598699 0
M  V30 594 O 55.5287 -1.92075 -0.385226 0
M  V30 595 H 54.1087 -0.359265 0.654933 0
M  V30 596 H 56.7707 -0.256001 1.93211 0
M  V30 597 H 55.8667 -1.58243 2.69009 0
M  V30 598 N 56.1678 -1.49265 -0.50573 0
M  V30 599 C 57.0978 -1.68495 -1.61653 0
M  V30 600 C 58.0788 -0.53366 -1.61512 0
M  V30 601 O 59.2638 -0.76897 -1.78327 0
M  V30 602 C 56.3938 -1.74709 -3.00157 0
M  V30 603 C 55.3478 -2.89581 -3.15162 0
M  V30 604 C 54.6738 -2.80903 -4.5497 0
M  V30 605 C 55.9738 -4.30578 -2.95634 0
M  V30 606 H 57.6678 -2.61493 -1.45814 0
M  V30 607 H 55.2138 -1.25838 -0.70005 0
M  V30 608 H 57.1668 -1.86748 -3.77761 0
M  V30 609 H 55.8908 -0.783067 -3.17074 0
M  V30 610 H 54.5498 -2.77136 -2.39982 0
M  V30 611 H 54.1978 -1.82419 -4.68756 0
M  V30 612 H 53.8978 -3.57999 -4.65951 0
M  V30 613 H 55.4218 -2.94944 -5.34641 0
M  V30 614 H 56.8358 -4.4373 -3.63011 0
M  V30 615 H 55.2328 -5.0886 -3.18091 0
M  V30 616 H 56.3028 -4.45352 -1.91806 0
M  V30 617 N 57.6459 0.756429 -1.3826 0
M  V30 618 C 58.6089 1.85176 -1.35065 0
M  V30 619 C 59.6089 1.58818 -0.251703 0
M  V30 620 O 60.7989 1.66615 -0.508433 0
M  V30 621 C 57.9309 3.22596 -1.10201 0
M  V30 622 H 59.1239 1.89417 -2.3251 0
M  V30 623 H 56.6769 0.95783 -1.23512 0
M  V30 624 H 57.4119 3.24025 -0.133504 0
M  V30 625 H 57.1969 3.43122 -1.89762 0
M  V30 626 H 58.6869 4.02673 -1.10654 0
M  V30 627 N 59.124 1.23083 0.984299 0
M  V30 628 C 60.349 1.088 1.76571 0
M  V30 629 C 60.774 -0.356657 1.84688 0
M  V30 630 O 60.132 -1.25788 1.30565 0
M  V30 631 C 60.18 1.71371 3.17277 0
M  V30 632 O 59.284 0.973213 4.00752 0
M  V30 633 H 58.625 0.381599 0.543395 0
M  V30 634 H 61.155 1.63057 1.23587 0
M  V30 635 H 61.165 1.76449 3.67872 0
M  V30 636 H 59.84 2.76493 3.10684 0
M  V30 637 H 58.417 0.999078 3.59267 0
M  V30 638 N 60.6021 -1.18246 1.0419 0
M  V30 639 C 61.5651 -2.20128 0.638452 0
M  V30 640 C 62.5651 -1.57885 -0.304805 0
M  V30 641 O 63.7551 -1.73967 -0.0900369 0
M  V30 642 C 60.8871 -3.4084 -0.0637751 0
M  V30 643 H 62.0801 -2.57336 1.54007 0
M  V30 644 H 59.6331 -1.32152 0.834598 0
M  V30 645 H 60.3681 -3.09166 -0.979136 0
M  V30 646 H 60.1531 -3.8726 0.614198 0
M  V30 647 H 61.6431 -4.16274 -0.332512 0
M  V30 648 N 62.0802 -0.821533 -1.34494 0
M  V30 649 C 63.0282 -0.230702 -2.31453 0
M  V30 650 C 64.0222 0.627793 -1.57338 0
M  V30 651 O 65.2282 0.519288 -1.72347 0
M  V30 652 H 61.6032 -0.0558577 -0.749923 0
M  V30 653 H 63.5742 -1.06332 -2.78812 0
M  V30 654 C 62.3232 0.59391 -3.4259 0
M  V30 655 H 61.6462 -0.0573588 -3.99759 0
M  V30 656 H 63.0862 0.973446 -4.12674 0
M  V30 657 C 61.5452 1.76568 -2.86924 0
M  V30 658 O 62.0752 2.8638 -2.81691 0
M  V30 659 N 60.2812 1.58198 -2.43766 0
M  V30 660 H 59.8282 0.68872 -2.48222 0
M  V30 661 H 59.7862 2.36752 -2.06871 0
M  V30 662 N 63.5583 1.46682 -0.576371 0
M  V30 663 C 64.8043 2.02712 -0.0596221 0
M  V30 664 C 65.1373 1.44765 1.29448 0
M  V30 665 O 64.4123 0.610355 1.84675 0
M  V30 666 C 64.6953 3.60098 0.0129503 0
M  V30 667 C 64.5483 4.28441 -1.3696 0
M  V30 668 C 65.8673 4.34224 0.71678 0
M  V30 669 H 62.9863 0.736637 -0.0231407 0
M  V30 670 H 65.6283 1.74898 -0.742351 0
M  V30 671 H 63.7783 3.83926 0.594378 0
M  V30 672 H 65.4503 4.15896 -1.9957 0
M  V30 673 H 63.6933 3.8805 -1.93907 0
M  V30 674 H 64.3643 5.3716 -1.27135 0
M  V30 675 H 66.8403 4.15503 0.222908 0
M  V30 676 H 65.7163 5.43936 0.73657 0
M  V30 677 H 65.9773 4.04823 1.77682 0
M  V30 678 N 65.0364 0.313813 1.54444 0
M  V30 679 C 66.3134 -0.345447 1.92525 0
M  V30 680 C 66.6934 -1.70667 1.24242 0
M  V30 681 O 66.0414 -2.25273 0.382654 0
M  V30 682 C 66.2514 -0.44737 3.46121 0
M  V30 683 C 67.5994 -0.712238 4.18584 0
M  V30 684 O 68.6234 -0.530678 3.52225 0
M  V30 685 O 67.4824 -1.06183 5.36085 0
M  V30 686 H 64.5764 -0.195407 0.803583 0
M  V30 687 H 67.1224 0.362813 1.65776 0
M  V30 688 H 65.8944 0.509043 3.87975 0
M  V30 689 H 65.5174 -1.20359 3.78945 0
M  V30 690 N 66.5145 -1.57545 0.0417849 0
M  V30 691 C 67.7615 -1.92317 -0.634082 0
M  V30 692 C 68.0895 -0.919334 -1.71402 0
M  V30 693 O 67.3445 0.0698253 -1.95575 0
M  V30 694 C 67.6435 -3.33794 -1.27735 0
M  V30 695 C 67.3095 -4.49716 -0.326543 0
M  V30 696 C 65.9715 -4.81156 -0.0648814 0
M  V30 697 C 68.3235 -5.20182 0.325623 0
M  V30 698 C 65.6515 -5.80414 0.856539 0
M  V30 699 C 68.0035 -6.20424 1.23518 0
M  V30 700 C 66.6675 -6.50298 1.5056 0
M  V30 701 H 65.9375 -0.703736 -0.232027 0
M  V30 702 H 68.5845 -1.91205 0.106259 0
M  V30 703 H 66.8895 -3.31228 -2.09274 0
M  V30 704 H 68.5865 -3.57975 -1.80707 0
M  V30 705 H 65.1765 -4.25176 -0.540665 0
M  V30 706 H 69.3605 -4.96112 0.136546 0
M  V30 707 H 64.6165 -6.019 1.07363 0
M  V30 708 H 68.7905 -6.74141 1.74664 0
M  V30 709 H 66.4175 -7.27025 2.22123 0
M  V30 710 N 67.9926 0.231505 -1.5589 0
M  V30 711 C 68.9556 1.27028 -1.90779 0
M  V30 712 C 69.9556 1.40308 -0.785507 0
M  V30 713 O 71.1456 1.38744 -1.05336 0
M  V30 714 C 68.2776 2.64566 -2.14983 0
M  V30 715 H 69.4706 0.973017 -2.83677 0
M  V30 716 H 67.0236 0.471486 -1.49019 0
M  V30 717 H 67.7586 2.99406 -1.24604 0
M  V30 718 H 67.5436 2.56305 -2.96732 0
M  V30 719 H 69.0336 3.39543 -2.43105 0
M  V30 720 N 69.4707 1.49531 0.497807 0
M  V30 721 C 70.7177 1.59179 1.25173 0
M  V30 722 C 71.0457 0.279932 1.92475 0
M  V30 723 O 70.3007 -0.732383 1.81479 0
M  V30 724 C 70.5997 2.70252 2.33878 0
M  V30 725 C 70.2657 4.11644 1.84012 0
M  V30 726 C 68.9277 4.50121 1.70132 0
M  V30 727 C 71.2797 5.00121 1.46725 0
M  V30 728 C 68.6077 5.74845 1.17348 0
M  V30 729 C 70.9597 6.25366 0.95392 0
M  V30 730 C 69.6237 6.6267 0.801538 0
M  V30 731 H 68.8937 0.582478 0.45804 0
M  V30 732 H 71.5407 1.83373 0.551948 0
M  V30 733 H 69.8457 2.40041 3.09657 0
M  V30 734 H 71.5427 2.74925 2.9192 0
M  V30 735 H 68.1327 3.81274 1.95775 0
M  V30 736 H 72.3167 4.71048 1.56294 0
M  V30 737 H 67.5727 6.02444 1.04264 0
M  V30 738 H 71.7467 6.93301 0.656225 0
M  V30 739 H 69.3737 7.59197 0.390351 0
M  V30 740 N 70.9488 -0.749086 1.3866 0
M  V30 741 C 72.1738 -1.54344 1.38538 0
M  V30 742 C 72.5988 -1.88088 -0.0216655 0
M  V30 743 O 71.9568 -1.50899 -1.00494 0
M  V30 744 C 72.0048 -2.8164 2.25192 0
M  V30 745 O 71.1088 -3.7698 1.67212 0
M  V30 746 H 70.4498 -0.466654 0.472367 0
M  V30 747 H 72.9798 -0.925355 1.82478 0
M  V30 748 H 72.9898 -3.30519 2.3921 0
M  V30 749 H 71.6648 -2.56411 3.27454 0
M  V30 750 H 70.2418 -3.35699 1.6236 0
M  V30 751 N 72.4269 -1.23603 -0.977757 0
M  V30 752 C 73.3569 -1.04401 -2.0886 0
M  V30 753 C 74.3379 0.0399052 -1.70053 0
M  V30 754 O 75.5229 -0.125246 -1.93796 0
M  V30 755 C 72.6529 -0.637269 -3.41403 0
M  V30 756 C 71.6069 -1.66883 -3.94124 0
M  V30 757 C 70.9329 -1.11745 -5.22893 0
M  V30 758 C 72.2329 -3.06247 -4.23096 0
M  V30 759 H 73.9269 -1.97316 -2.25182 0
M  V30 760 H 71.4729 -0.950096 -1.08209 0
M  V30 761 H 73.4259 -0.48998 -4.18542 0
M  V30 762 H 72.1499 0.327557 -3.24953 0
M  V30 763 H 70.8089 -1.80416 -3.19133 0
M  V30 764 H 70.4569 -0.143527 -5.02795 0
M  V30 765 H 70.1569 -1.80672 -5.59134 0
M  V30 766 H 71.6809 -0.982067 -6.02651 0
M  V30 767 H 73.0949 -2.96001 -4.90975 0
M  V30 768 H 71.4919 -3.72436 -4.70544 0
M  V30 769 H 72.5619 -3.55041 -3.30263 0
M  V30 770 N 73.905 1.17692 -1.04816 0
M  V30 771 C 75.135 1.91508 -0.775128 0
M  V30 772 C 75.543 1.76844 0.67253 0
M  V30 773 O 74.886 1.10057 1.47082 0
M  V30 774 C 74.948 3.43167 -1.0713 0
M  V30 775 C 74.612 3.81612 -2.51438 0
M  V30 776 C 75.609 3.84772 -3.49638 0
M  V30 777 C 73.294 4.12687 -2.86348 0
M  V30 778 C 75.288 4.18469 -4.80794 0
M  V30 779 C 72.975 4.46053 -4.17708 0
M  V30 780 C 73.973 4.48921 -5.14741 0
M  V30 781 O 73.661 4.81504 -6.43746 0
M  V30 782 H 73.393 0.614575 -0.281555 0
M  V30 783 H 75.947 1.50206 -1.40098 0
M  V30 784 H 74.177 3.84745 -0.388342 0
M  V30 785 H 75.866 3.98239 -0.784883 0
M  V30 786 H 76.632 3.60893 -3.24008 0
M  V30 787 H 72.511 4.09627 -2.11486 0
M  V30 788 H 76.055 4.20623 -5.56527 0
M  V30 789 H 71.952 4.69393 -4.43103 0
M  V30 790 H 72.72 4.99377 -6.4851 0
M  V30 791 N 75.3831 0.828654 1.34056 0
M  V30 792 C 76.3301 0.252567 2.29414 0
M  V30 793 C 77.3001 -0.62588 1.53857 0
M  V30 794 O 78.4851 -0.566312 1.82202 0
M  V30 795 C 75.6251 -0.574831 3.40279 0
M  V30 796 C 74.7381 0.326499 4.30764 0
M  V30 797 C 73.8731 -0.511016 5.28736 0
M  V30 798 C 72.9121 0.389342 6.1086 0
M  V30 799 N 72.0491 -0.409439 7.00905 0
M  V30 800 H 76.8891 1.07108 2.78086 0
M  V30 801 H 74.4261 0.539677 1.36843 0
M  V30 802 H 76.3841 -1.06992 4.03248 0
M  V30 803 H 75.0141 -1.35841 2.92826 0
M  V30 804 H 74.0661 0.939837 3.68607 0
M  V30 805 H 75.3781 1.01857 4.88289 0
M  V30 806 H 74.5321 -1.07035 5.97184 0
M  V30 807 H 73.2711 -1.23657 4.71763 0
M  V30 808 H 72.2761 0.960769 5.4134 0
M  V30 809 H 73.5011 1.1131 6.69916 0
M  V30 810 H 71.4471 -1.11856 6.46393 0
M  V30 811 H 71.3641 0.224126 7.55668 0
M  V30 812 H 72.6321 -0.951336 7.73673 0
M  V30 813 N 76.8612 -1.46375 0.584142 0
M  V30 814 C 77.8112 -2.27371 -0.169232 0
M  V30 815 C 78.7952 -1.35955 -0.860523 0
M  V30 816 O 79.9872 -1.60119 -0.754382 0
M  V30 817 C 77.1162 -3.22334 -1.18134 0
M  V30 818 C 76.2022 -4.21235 -0.492088 0
M  V30 819 N 76.5932 -5.03766 0.453129 0
M  V30 820 C 74.8912 -4.39773 -0.742652 0
M  V30 821 C 75.5922 -5.75366 0.85609 0
M  V30 822 N 74.5682 -5.43214 0.204926 0
M  V30 823 H 78.3702 -2.88572 0.557097 0
M  V30 824 H 75.8842 -1.57242 0.406042 0
M  V30 825 H 77.8812 -3.79071 -1.73525 0
M  V30 826 H 76.5412 -2.62693 -1.90847 0
M  V30 827 H 77.5522 -5.11227 0.828723 0
M  V30 828 H 74.2292 -3.91279 -1.45625 0
M  V30 829 H 75.6192 -6.5172 1.63434 0
M  V30 830 N 78.3393 -0.321999 -1.54275 0
M  V30 831 C 79.2693 0.537411 -2.27231 0
M  V30 832 C 80.2503 1.12064 -1.27968 0
M  V30 833 O 81.4353 1.14606 -1.56777 0
M  V30 834 C 78.5653 1.69919 -3.02894 0
M  V30 835 C 77.5193 1.24534 -4.09482 0
M  V30 836 C 76.8453 2.49394 -4.72977 0
M  V30 837 C 78.1453 0.361335 -5.21049 0
M  V30 838 H 79.8393 -0.0711406 -2.99315 0
M  V30 839 H 77.3853 -0.0356555 -1.43956 0
M  V30 840 H 79.3383 2.30668 -3.52662 0
M  V30 841 H 78.0623 2.33431 -2.28424 0
M  V30 842 H 76.7213 0.660782 -3.60596 0
M  V30 843 H 76.3693 3.11265 -3.95124 0
M  V30 844 H 76.0693 2.19718 -5.44975 0
M  V30 845 H 77.5933 3.10908 -5.25517 0
M  V30 846 H 79.0073 0.875072 -5.66582 0
M  V30 847 H 77.4043 0.157428 -5.99893 0
M  V30 848 H 78.4743 -0.60822 -4.8107 0
M  V30 849 N 79.8174 1.5752 -0.0501392 0
M  V30 850 C 81.0634 1.92936 0.624798 0
M  V30 851 C 81.3964 0.928685 1.70555 0
M  V30 852 O 80.6714 -0.0454779 1.94447 0
M  V30 853 C 80.9544 3.38737 1.22185 0
M  V30 854 C 80.8074 4.49552 0.149218 0
M  V30 855 C 82.1264 3.84913 2.13378 0
M  V30 856 H 79.2454 0.701604 0.225657 0
M  V30 857 H 81.8874 1.89671 -0.111693 0
M  V30 858 H 80.0374 3.4165 1.84953 0
M  V30 859 H 81.7094 4.58768 -0.482648 0
M  V30 860 H 79.9524 4.30638 -0.522841 0
M  V30 861 H 80.6234 5.48653 0.606966 0
M  V30 862 H 83.0994 3.8387 1.60572 0
M  V30 863 H 81.9754 4.87584 2.52097 0
M  V30 864 H 82.2364 3.21611 3.03346 0
M  V30 865 N 81.2955 -0.223234 1.56011 0
M  V30 866 C 82.2585 -1.26014 1.9145 0
M  V30 867 C 83.2585 -1.3989 0.792937 0
M  V30 868 O 84.4485 -1.38184 1.0607 0
M  V30 869 C 81.5805 -2.63422 2.16383 0
M  V30 870 H 82.7735 -0.95796 2.84189 0
M  V30 871 H 80.3265 -0.463576 1.49267 0
M  V30 872 H 81.0615 -2.98741 1.2619 0
M  V30 873 H 80.8465 -2.54728 2.98088 0
M  V30 874 H 82.3365 -3.38249 2.44903 0
M  V30 875 N 82.7736 -1.49793 -0.48987 0
M  V30 876 C 83.7036 -1.70201 -1.59856 0
M  V30 877 C 84.6846 -0.55076 -1.60937 0
M  V30 878 O 85.8696 -0.787841 -1.77501 0
M  V30 879 C 82.9996 -1.77882 -2.98287 0
M  V30 880 C 81.9536 -2.92907 -3.12073 0
M  V30 881 C 81.2796 -2.85712 -4.51965 0
M  V30 882 C 82.5796 -4.3369 -2.91051 0
M  V30 883 H 84.2736 -2.63025 -1.43032 0
M  V30 884 H 81.8196 -1.26574 -0.686664 0
M  V30 885 H 83.7726 -1.90744 -3.75759 0
M  V30 886 H 82.4966 -0.816653 -3.16225 0
M  V30 887 H 81.1556 -2.79665 -2.37029 0
M  V30 888 H 80.8036 -1.8738 -4.66795 0
M  V30 889 H 80.5036 -3.62921 -4.62128 0
M  V30 890 H 82.0276 -3.00598 -5.31482 0
M  V30 891 H 83.4416 -4.47555 -3.58284 0
M  V30 892 H 81.8386 -5.12205 -3.12675 0
M  V30 893 H 82.9086 -4.47362 -1.87071 0
M  V30 894 N 84.2517 0.741722 -1.39055 0
M  V30 895 C 85.4767 1.53607 -1.39354 0
M  V30 896 C 85.9017 1.88096 0.0116905 0
M  V30 897 O 85.2597 1.5143 0.996924 0
M  V30 898 C 85.3077 2.80441 -2.26682 0
M  V30 899 O 84.4117 3.76088 -1.69208 0
M  V30 900 H 83.7527 0.464142 -0.474835 0
M  V30 901 H 86.2827 0.915665 -1.82967 0
M  V30 902 H 86.2927 3.29246 -2.40959 0
M  V30 903 H 84.9677 2.5467 -3.2881 0
M  V30 904 H 83.5447 3.34833 -1.64138 0
M  V30 905 N 85.7298 1.2412 0.971189 0
M  V30 906 C 87.1408 1.07236 1.52831 0
M  V30 907 C 87.4918 -0.357352 1.92918 0
M  V30 908 O 86.6168 -1.24528 1.76979 0
M  V30 909 C 87.2118 1.94043 2.77728 0
M  V30 910 C 85.7708 1.81394 3.29808 0
M  V30 911 C 84.9178 1.89189 2.02738 0
M  V30 912 H 87.8688 1.37648 0.789864 0
M  V30 913 H 87.8898 1.47066 3.5093 0
M  V30 914 H 87.4018 2.98093 2.4852 0
M  V30 915 H 85.5028 0.801634 3.63874 0
M  V30 916 H 85.6158 2.65294 3.98944 0
M  V30 917 H 83.9798 1.32877 2.17292 0
M  V30 918 H 84.7628 2.94812 1.759 0
M  V30 919 N 87.2079 -1.17134 1.05439 0
M  V30 920 C 88.1549 -2.21235 0.657539 0
M  V30 921 C 89.1249 -1.62551 -0.341543 0
M  V30 922 O 90.3099 -1.89379 -0.232393 0
M  V30 923 C 87.4499 -3.45076 0.0410575 0
M  V30 924 C 86.5629 -4.18042 1.08927 0
M  V30 925 C 85.6979 -5.29376 0.439848 0
M  V30 926 C 84.7369 -5.94132 1.4722 0
M  V30 927 N 83.8739 -6.96975 0.846756 0
M  V30 928 H 88.7139 -2.54534 1.54972 0
M  V30 929 H 86.2509 -1.25028 0.775006 0
M  V30 930 H 88.2089 -4.15862 -0.33383 0
M  V30 931 H 86.8389 -3.12353 -0.814568 0
M  V30 932 H 85.8909 -3.45945 1.58196 0
M  V30 933 H 87.2029 -4.62306 1.87282 0
M  V30 934 H 86.3569 -6.06699 0.0115125 0
M  V30 935 H 85.0959 -4.86251 -0.375656 0
M  V30 936 H 84.1009 -5.15538 1.91052 0
M  V30 937 H 85.3259 -6.39337 2.28965 0
M  V30 938 H 83.2719 -6.5598 0.0518075 0
M  V30 939 H 83.1889 -7.39565 1.5678 0
M  V30 940 H 84.4569 -7.78239 0.443277 0
M  V30 941 N 88.686 -0.835752 -1.33615 0
M  V30 942 C 89.633 -0.26473 -2.29277 0
M  V30 943 C 90.603 0.617712 -1.54187 0
M  V30 944 O 91.788 0.556641 -1.825 0
M  V30 945 C 88.928 0.556777 -3.40579 0
M  V30 946 C 88.041 -0.349339 -4.30585 0
M  V30 947 C 87.176 0.482969 -5.29 0
M  V30 948 C 86.215 -0.421732 -6.10645 0
M  V30 949 N 85.352 0.372262 -7.01112 0
M  V30 950 H 90.192 -1.08582 -2.77514 0
M  V30 951 H 87.729 -0.546927 -1.36554 0
M  V30 952 H 89.687 1.04852 -4.03809 0
M  V30 953 H 88.317 1.34286 -2.93542 0
M  V30 954 H 87.369 -0.959372 -3.68104 0
M  V30 955 H 88.681 -1.04445 -4.87742 0
M  V30 956 H 87.835 1.03866 -5.97743 0
M  V30 957 H 86.574 1.21153 -4.72412 0
M  V30 958 H 85.579 -0.989464 -5.40823 0
M  V30 959 H 86.804 -1.14861 -6.69316 0
M  V30 960 H 84.75 1.08426 -6.46977 0
M  V30 961 H 84.667 -0.264198 -7.55538 0
M  V30 962 H 85.935 0.910293 -7.74167 0
M  V30 963 N 90.1641 1.46063 -0.591896 0
M  V30 964 C 91.1121 2.32124 0.148739 0
M  V30 965 C 92.1061 1.45035 0.875286 0
M  V30 966 O 93.3121 1.61609 0.792632 0
M  V30 967 H 89.6871 0.749024 0.066832 0
M  V30 968 H 91.6581 2.92392 -0.595783 0
M  V30 969 C 90.4071 3.28373 1.1431 0
M  V30 970 H 89.7301 3.95371 0.59346 0
M  V30 971 H 91.1701 3.91352 1.63155 0
M  V30 972 C 89.6291 2.54393 2.20875 0
M  V30 973 O 90.1591 2.31373 3.28374 0
M  V30 974 N 88.3651 2.14797 1.95731 0
M  V30 975 H 87.9121 2.33719 1.08319 0
M  V30 976 H 87.8701 1.65619 2.67241 0
M  V30 977 N 91.6422 0.330177 1.54103 0
M  V30 978 C 92.8912 -0.271336 1.99867 0
M  V30 979 C 93.2042 -1.52723 1.22209 0
M  V30 980 O 94.4102 -2.20515 1.58383 0
M  V30 981 C 92.8662 -0.534032 3.55916 0
M  V30 982 C 92.4742 0.705193 4.42415 0
M  V30 983 C 94.2182 -1.09514 4.1013 0
M  V30 984 C 92.1252 0.414035 5.89949 0
M  V30 985 H 91.0552 -0.105166 0.74663 0
M  V30 986 H 93.7062 0.443429 1.78062 0
M  V30 987 H 92.0882 -1.30915 3.73734 0
M  V30 988 H 93.2622 1.4804 4.36372 0
M  V30 989 H 91.5772 1.18698 3.99124 0
M  V30 990 H 94.1742 -1.3277 5.17954 0
M  V30 991 H 94.5172 -2.04656 3.62521 0
M  V30 992 H 95.0502 -0.381038 3.95971 0
M  V30 993 H 91.7892 1.33481 6.41766 0
M  V30 994 H 91.3092 -0.323336 5.98928 0
M  V30 995 H 92.9882 0.0263105 6.46995 0
M  V30 996 N 93.1203 -1.57491 0.0584922 0
M  V30 997 C 94.3673 -1.92978 -0.613648 0
M  V30 998 C 94.6953 -0.937461 -1.70417 0
M  V30 999 O 93.9503 0.049078 -1.95638 0
M  V30 1000 C 94.2493 -3.3513 -1.24188 0
M  V30 1001 C 93.9153 -4.50037 -0.278826 0
M  V30 1002 C 92.5773 -4.81198 -0.0138447 0
M  V30 1003 C 94.9293 -5.19807 0.380777 0
M  V30 1004 C 92.2573 -5.79473 0.918052 0
M  V30 1005 C 94.6093 -6.19079 1.30091 0
M  V30 1006 C 93.2733 -6.48665 1.57449 0
M  V30 1007 H 92.5433 -0.706157 -0.22455 0
M  V30 1008 H 95.1903 -1.91082 0.126533 0
M  V30 1009 H 93.4953 -3.33429 -2.05749 0
M  V30 1010 H 95.1923 -3.59871 -1.769 0
M  V30 1011 H 91.7823 -4.25726 -0.495539 0
M  V30 1012 H 95.9663 -4.95939 0.189158 0
M  V30 1013 H 91.2223 -6.00727 1.1374 0
M  V30 1014 H 95.3963 -6.7225 1.81804 0
M  V30 1015 H 93.0233 -7.24628 2.29822 0
M  V30 1016 N 94.5984 0.214957 -1.56127 0
M  V30 1017 C 95.8474 0.936451 -1.78643 0
M  V30 1018 C 96.1604 1.85237 -0.628229 0
M  V30 1019 O 97.3664 2.613 -0.737186 0
M  V30 1020 C 95.8224 1.7154 -3.16389 0
M  V30 1021 C 95.4304 0.845299 -4.39953 0
M  V30 1022 C 97.1744 2.42772 -3.48227 0
M  V30 1023 C 95.0814 1.62198 -5.68723 0
M  V30 1024 H 94.0114 0.353401 -0.666051 0
M  V30 1025 H 96.6624 0.190169 -1.82512 0
M  V30 1026 H 95.0444 2.50484 -3.06715 0
M  V30 1027 H 96.2184 0.0959353 -4.607 0
M  V30 1028 H 94.5334 0.244789 -4.1568 0
M  V30 1029 H 97.1304 3.01394 -4.41663 0
M  V30 1030 H 97.4734 3.15984 -2.71035 0
M  V30 1031 H 98.0064 1.70813 -3.5926 0
M  V30 1032 H 94.7454 0.933011 -6.48826 0
M  V30 1033 H 94.2654 2.34579 -5.52026 0
M  V30 1034 H 95.9444 2.18095 -6.09133 0
M  V30 1035 N 96.0765 1.50051 0.48192 0
M  V30 1036 C 97.3015 1.64508 1.26301 0
M  V30 1037 C 97.7265 0.323851 1.85291 0
M  V30 1038 O 97.0845 -0.710969 1.66778 0
M  V30 1039 C 97.1325 2.7305 2.35533 0
M  V30 1040 O 96.2365 2.3355 3.39895 0
M  V30 1041 H 95.5775 0.549978 0.372048 0
M  V30 1042 H 98.1075 1.9636 0.574786 0
M  V30 1043 H 98.1175 2.95799 2.8101 0
M  V30 1044 H 96.7925 3.68946 1.91967 0
M  V30 1045 H 95.3695 2.21205 3.00204 0
M  V30 1046 N 97.5546 -0.734337 1.39446 0
M  V30 1047 C 98.9656 -1.31264 1.32766 0
M  V30 1048 C 99.3166 -1.96198 -0.00767497 0
M  V30 1049 O 98.4416 -1.96346 -0.909796 0
M  V30 1050 C 99.0366 -2.38682 2.4045 0
M  V30 1051 C 97.5956 -2.92184 2.37288 0
M  V30 1052 C 96.7426 -1.6576 2.22304 0
M  V30 1053 H 99.6936 -0.531799 1.49525 0
M  V30 1054 H 99.7146 -3.19087 2.07276 0
M  V30 1055 H 99.2266 -1.91392 3.37625 0
M  V30 1056 H 97.3276 -3.43752 1.43754 0
M  V30 1057 H 97.4406 -3.45253 3.3217 0
M  V30 1058 H 95.8046 -1.9012 1.69489 0
M  V30 1059 H 96.5876 -1.20521 3.21449 0
M  V30 1060 N 99.0327 -1.24633 -0.964593 0
M  V30 1061 C 100.279 -1.08949 -1.71049 0
M  V30 1062 C 100.612 0.370302 -1.90637 0
M  V30 1063 O 99.8867 1.27349 -1.47011 0
M  V30 1064 C 100.17 -1.83329 -3.0994 0
M  V30 1065 C 100.023 -3.37077 -2.97824 0
M  V30 1066 C 101.342 -1.60846 -4.09654 0
M  V30 1067 H 98.4607 -0.397178 -0.620821 0
M  V30 1068 H 101.103 -1.5334 -1.12191 0
M  V30 1069 H 99.2527 -1.45597 -3.60186 0
M  V30 1070 H 100.925 -3.84425 -2.5498 0
M  V30 1071 H 99.1677 -3.65298 -2.33965 0
M  V30 1072 H 99.8387 -3.84324 -3.96231 0
M  V30 1073 H 102.315 -1.93674 -3.68279 0
M  V30 1074 H 101.191 -2.1534 -5.04896 0
M  V30 1075 H 101.452 -0.547434 -4.38698 0
M  V30 1076 N 100.511 1.16574 -1.06058 0
M  V30 1077 C 101.736 1.91493 -0.796562 0
M  V30 1078 C 102.161 1.76773 0.642868 0
M  V30 1079 O 101.519 1.09142 1.44768 0
M  V30 1080 C 101.567 3.40293 -1.19303 0
M  V30 1081 O 100.671 4.11074 -0.330394 0
M  V30 1082 H 100.012 0.596678 -0.291326 0
M  V30 1083 H 102.542 1.47708 -1.41575 0
M  V30 1084 H 102.552 3.91057 -1.16356 0
M  V30 1085 H 101.227 3.50326 -2.24153 0
M  V30 1086 H 99.8038 3.70513 -0.421225 0
M  V30 1087 N 101.989 0.842826 1.3317 0
M  V30 1088 C 103.238 0.436738 1.96915 0
M  V30 1089 C 103.551 -1.01025 1.67491 0
M  V30 1090 O 104.757 -1.5212 2.24881 0
M  V30 1091 C 103.213 0.730021 3.52418 0
M  V30 1092 C 102.821 2.19195 3.90714 0
M  V30 1093 C 104.565 0.391076 4.22695 0
M  V30 1094 C 102.472 2.42907 5.39212 0
M  V30 1095 H 101.402 0.15958 0.736919 0
M  V30 1096 H 104.053 1.03196 1.51733 0
M  V30 1097 H 102.435 0.0643755 3.95948 0
M  V30 1098 H 103.609 2.8984 3.58231 0
M  V30 1099 H 101.924 2.49425 3.33431 0
M  V30 1100 H 104.521 0.545817 5.31907 0
M  V30 1101 H 104.864 -0.666294 4.10933 0
M  V30 1102 H 105.397 1.01212 3.84709 0
M  V30 1103 H 102.136 3.47224 5.55982 0
M  V30 1104 H 101.656 1.76827 5.73142 0
M  V30 1105 H 103.335 2.2626 6.06148 0
M  V30 1106 N 103.467 -1.45747 0.599634 0
M  V30 1107 C 104.692 -2.07178 0.0960198 0
M  V30 1108 C 105.117 -1.44268 -1.207 0
M  V30 1109 O 104.475 -0.532503 -1.73303 0
M  V30 1110 C 104.523 -3.60579 -0.0385348 0
M  V30 1111 O 103.627 -3.97713 -1.0908 0
M  V30 1112 H 102.968 -0.660251 0.0704593 0
M  V30 1113 H 105.498 -1.87124 0.827385 0
M  V30 1114 H 105.508 -4.07298 -0.239304 0
M  V30 1115 H 104.183 -4.05756 0.912947 0
M  V30 1116 H 102.76 -3.62678 -0.867135 0
M  V30 1117 N 104.945 -0.338344 -1.53925 0
M  V30 1118 C 105.878 0.563758 -2.21127 0
M  V30 1119 C 106.856 1.10433 -1.19345 0
M  V30 1120 O 108.04 1.16557 -1.48144 0
M  V30 1121 C 105.167 1.77505 -2.88461 0
M  V30 1122 C 104.213 1.3644 -4.04087 0
M  V30 1123 S 105.046 0.388593 -5.34088 0
M  V30 1124 C 106.202 1.60683 -6.04923 0
M  V30 1125 H 106.435 -0.00704546 -2.97299 0
M  V30 1126 H 103.968 -0.122418 -1.53914 0
M  V30 1127 H 105.926 2.46999 -3.27875 0
M  V30 1128 H 104.587 2.31706 -2.12064 0
M  V30 1129 H 103.78 2.26739 -4.50117 0
M  V30 1130 H 103.382 0.748998 -3.66423 0
M  V30 1131 H 105.674 2.54209 -6.28 0
M  V30 1132 H 106.617 1.18842 -6.98056 0
M  V30 1133 H 107.025 1.80052 -5.35015 0
M  V30 1134 N 106.423 1.57458 -0.0668435 0
M  V30 1135 C 107.386 2.11323 0.887422 0
M  V30 1136 C 108.386 1.03618 1.22964 0
M  V30 1137 O 109.576 1.29626 1.16373 0
M  V30 1138 C 106.708 2.61048 2.19242 0
M  V30 1139 H 107.901 2.96942 0.420194 0
M  V30 1140 H 105.454 1.55239 0.181793 0
M  V30 1141 H 106.189 1.78868 2.70512 0
M  V30 1142 H 105.974 3.39769 1.95702 0
M  V30 1143 H 107.464 3.02814 2.87565 0
M  V30 1144 N 107.901 -0.206675 1.56239 0
M  V30 1145 C 108.831 -1.25909 1.96645 0
M  V30 1146 C 109.812 -1.48097 0.836734 0
M  V30 1147 O 110.997 -1.6003 1.10019 0
M  V30 1148 C 108.127 -2.6058 2.29599 0
M  V30 1149 C 107.081 -2.53024 3.452 0
M  V30 1150 C 106.407 -3.91861 3.63798 0
M  V30 1151 C 107.707 -2.06524 4.79734 0
M  V30 1152 H 109.401 -0.923369 2.84806 0
M  V30 1153 H 106.947 -0.442735 1.37025 0
M  V30 1154 H 108.9 -3.34375 2.56459 0
M  V30 1155 H 107.624 -2.95869 1.38307 0
M  V30 1156 H 106.283 -1.81684 3.18412 0
M  V30 1157 H 105.931 -4.24483 2.69857 0
M  V30 1158 H 105.631 -3.87683 4.4156 0
M  V30 1159 H 107.155 -4.67296 3.93022 0
M  V30 1160 H 108.569 -2.70072 5.05702 0
M  V30 1161 H 106.966 -2.13374 5.60885 0
M  V30 1162 H 108.036 -1.01802 4.74093 0
M  V30 1163 N 109.379 -1.50304 -0.473955 0
M  V30 1164 C 110.342 -1.6841 -1.55469 0
M  V30 1165 C 111.342 -0.554905 -1.50922 0
M  V30 1166 O 112.532 -0.821882 -1.53593 0
M  V30 1167 C 109.664 -1.70667 -2.95102 0
M  V30 1168 H 110.857 -2.64828 -1.40733 0
M  V30 1169 H 108.41 -1.39742 -0.700132 0
M  V30 1170 H 109.145 -0.75932 -3.15285 0
M  V30 1171 H 108.93 -2.52698 -2.9981 0
M  V30 1172 H 110.42 -1.8664 -3.73571 0
M  V30 1173 N 110.857 0.726932 -1.39834 0
M  V30 1174 C 111.79 1.8501 -1.33592 0
M  V30 1175 C 112.768 1.61262 -0.208191 0
M  V30 1176 O 113.952 1.84422 -0.389981 0
M  V30 1177 C 111.079 3.21143 -1.07633 0
M  V30 1178 C 110.125 3.63737 -2.22705 0
M  V30 1179 S 110.958 3.72167 -3.85035 0
M  V30 1180 C 112.114 5.11077 -3.61318 0
M  V30 1181 H 112.347 1.90022 -2.28646 0
M  V30 1182 H 109.88 0.892595 -1.25985 0
M  V30 1183 H 111.838 3.99747 -0.933415 0
M  V30 1184 H 110.499 3.13776 -0.142526 0
M  V30 1185 H 109.692 4.62551 -2.00155 0
M  V30 1186 H 109.294 2.9236 -2.33242 0
M  V30 1187 H 111.586 5.97656 -3.19083 0
M  V30 1188 H 112.529 5.38658 -4.59623 0
M  V30 1189 H 112.937 4.81135 -2.95245 0
M  V30 1190 N 112.336 1.25143 0.95797 0
M  V30 1191 C 113.266 1.07711 2.07173 0
M  V30 1192 C 114.247 -0.0128462 1.70095 0
M  V30 1193 O 115.432 0.156061 1.93572 0
M  V30 1194 C 112.562 0.691503 3.40346 0
M  V30 1195 C 111.516 1.73132 3.9142 0
M  V30 1196 C 110.842 1.20049 5.21049 0
M  V30 1197 C 112.142 3.1294 4.1817 0
M  V30 1198 H 113.836 2.00873 2.22014 0
M  V30 1199 H 111.382 0.967191 1.06684 0
M  V30 1200 H 113.335 0.556505 4.17709 0
M  V30 1201 H 112.059 -0.275819 3.25433 0
M  V30 1202 H 110.718 1.8547 3.16222 0
M  V30 1203 H 110.366 0.223499 5.02503 0
M  V30 1204 H 110.066 1.89545 5.56189 0
M  V30 1205 H 111.59 1.07782 6.01012 0
M  V30 1206 H 113.004 3.03775 4.86203 0
M  V30 1207 H 111.401 3.79875 4.64559 0
M  V30 1208 H 112.471 3.6025 3.24573 0
M  V30 1209 N 113.814 -1.1601 1.06675 0
M  V30 1210 C 115.039 -1.91068 0.806706 0
M  V30 1211 C 115.464 -1.77112 -0.633485 0
M  V30 1212 O 114.822 -1.09908 -1.44187 0
M  V30 1213 C 114.87 -3.39655 1.21106 0
M  V30 1214 O 113.974 -4.10893 0.352189 0
M  V30 1215 H 113.315 -0.595125 0.294486 0
M  V30 1216 H 115.845 -1.46955 1.42356 0
M  V30 1217 H 115.855 -3.90434 1.18428 0
M  V30 1218 H 114.53 -3.49132 2.26008 0
M  V30 1219 H 113.107 -3.70285 0.440868 0
M  V30 1220 N 115.292 -0.849877 -1.32721 0
M  V30 1221 C 116.222 -0.306308 -2.31482 0
M  V30 1222 C 117.203 0.591952 -1.59468 0
M  V30 1223 O 118.388 0.513199 -1.87296 0
M  V30 1224 C 115.518 0.510204 -3.43532 0
M  V30 1225 C 114.472 -0.293209 -4.26994 0
M  V30 1226 C 113.798 0.647743 -5.30762 0
M  V30 1227 C 115.098 -1.51634 -4.99804 0
M  V30 1228 H 116.792 -1.13153 -2.77195 0
M  V30 1229 H 114.338 -0.545553 -1.33266 0
M  V30 1230 H 116.291 0.900856 -4.11658 0
M  V30 1231 H 115.015 1.36874 -2.96535 0
M  V30 1232 H 113.674 -0.665555 -3.60508 0
M  V30 1233 H 113.322 1.50299 -4.8002 0
M  V30 1234 H 113.022 0.11422 -5.87489 0
M  V30 1235 H 114.546 1.03567 -6.01753 0
M  V30 1236 H 115.96 -1.19824 -5.60638 0
M  V30 1237 H 114.357 -1.98745 -5.66234 0
M  V30 1238 H 115.427 -2.28018 -4.27943 0
M  V30 1239 N 116.77 1.45427 -0.607355 0
M  V30 1240 C 118.018 2.01841 -0.102253 0
M  V30 1241 C 118.339 1.47832 1.27164 0
M  V30 1242 O 117.609 0.672497 1.83995 0
M  V30 1243 H 116.189 0.746188 -0.0348101 0
M  V30 1244 H 118.851 1.78229 -0.7887 0
M  V30 1245 H 117.947 3.12057 -0.0518585 0
M  V30 1246 N 118.248 0.346503 1.53744 0
M  V30 1247 C 119.476 -0.25041 2.05379 0
M  V30 1248 C 119.891 -1.43979 1.22129 0
M  V30 1249 O 119.248 -1.80677 0.257321 0
M  V30 1250 C 119.299 -0.662575 3.55376 0
M  V30 1251 O 119.02 0.479515 4.35468 0
M  V30 1252 C 120.521 -1.31989 4.23195 0
M  V30 1253 H 117.741 -0.0478198 0.669294 0
M  V30 1254 H 120.285 0.499346 1.9831 0
M  V30 1255 H 118.44 -1.36227 3.62658 0
M  V30 1256 H 118.854 0.15037 5.24284 0
M  V30 1257 H 120.328 -1.55902 5.29527 0
M  V30 1258 H 120.805 -2.27436 3.75725 0
M  V30 1259 H 121.411 -0.662154 4.20114 0
M  V30 1260 N 119.726 -1.57421 0.075193 0
M  V30 1261 C 120.966 -1.95495 -0.596757 0
M  V30 1262 C 121.33 -0.954886 -1.66571 0
M  V30 1263 O 122.531 -1.22341 -2.39345 0
M  V30 1264 C 120.802 -3.382 -1.15566 0
M  V30 1265 S 122.361 -3.98254 -1.84226 0
M  V30 1266 H 119.179 -0.683649 -0.195307 0
M  V30 1267 H 121.781 -1.94925 0.149859 0
M  V30 1268 H 120.485 -4.08766 -0.36588 0
M  V30 1269 H 120.016 -3.42321 -1.93856 0
M  V30 1270 H 122.031 -3.85435 -3.12497 0
M  V30 1271 N 121.204 0.198386 -1.56346 0
M  V30 1272 C 122.452 0.91747 -1.80075 0
M  V30 1273 C 122.773 1.83929 -0.647692 0
M  V30 1274 O 122.043 1.93029 0.334166 0
M  V30 1275 H 120.623 0.341774 -0.664228 0
M  V30 1276 H 123.285 0.204684 -1.93822 0
M  V30 1277 H 122.381 1.51055 -2.7311 0
M  V30 1278 N 122.682 1.50554 0.465978 0
M  V30 1279 C 123.632 1.66177 1.56106 0
M  V30 1280 C 124.616 0.516265 1.52393 0
M  V30 1281 O 125.808 0.770906 1.5933 0
M  V30 1282 C 122.937 1.76396 2.94515 0
M  V30 1283 C 122.023 2.9664 3.03093 0
M  V30 1284 N 122.414 4.20245 2.81474 0
M  V30 1285 C 120.712 2.95304 3.34233 0
M  V30 1286 C 121.413 5.01259 2.95151 0
M  V30 1287 N 120.389 4.35318 3.25576 0
M  V30 1288 H 124.191 2.59434 1.38099 0
M  V30 1289 H 121.705 1.47808 0.6728 0
M  V30 1290 H 123.702 1.85694 3.73261 0
M  V30 1291 H 122.362 0.843017 3.13565 0
M  V30 1292 H 123.373 4.4966 2.56956 0
M  V30 1293 H 120.05 2.12729 3.59239 0
M  V30 1294 H 121.44 6.09564 2.82632 0
M  V30 1295 N 124.16 -0.719506 1.40217 0
M  V30 1296 C 125.388 -1.50864 1.41589 0
M  V30 1297 C 125.803 -1.88794 0.0145275 0
M  V30 1298 O 125.16 -1.55174 -0.960594 0
M  V30 1299 C 125.211 -2.78646 2.30302 0
M  V30 1300 O 124.932 -2.42321 3.64983 0
M  V30 1301 C 126.433 -3.72569 2.40224 0
M  V30 1302 H 123.653 -0.465709 0.48307 0
M  V30 1303 H 126.197 -0.88785 1.84221 0
M  V30 1304 H 124.352 -3.37019 1.91042 0
M  V30 1305 H 124.766 -3.24514 4.12057 0
M  V30 1306 H 126.24 -4.5908 3.06512 0
M  V30 1307 H 126.717 -4.15403 1.42608 0
M  V30 1308 H 127.323 -3.20109 2.80019 0
M  V30 1309 N 125.638 -1.25649 -0.95132 0
M  V30 1310 C 127.054 -1.02542 -1.223 0
M  V30 1311 C 127.254 0.255715 -1.99871 0
M  V30 1312 O 126.31 0.967558 -2.33226 0
M  V30 1313 C 127.623 -2.25065 -1.99415 0
M  V30 1314 C 129.171 -2.29861 -2.12446 0
M  V30 1315 C 129.646 -3.52048 -2.92961 0
M  V30 1316 N 131.137 -3.52465 -3.00538 0
M  V30 1317 C 131.872 -4.43672 -3.63239 0
M  V30 1318 N 131.368 -5.45157 -4.27523 0
M  V30 1319 N 133.161 -4.31346 -3.60412 0
M  V30 1320 H 125.312 -2.07951 -0.432471 0
M  V30 1321 H 127.575 -0.91339 -0.253816 0
M  V30 1322 H 127.281 -3.18194 -1.49817 0
M  V30 1323 H 127.155 -2.28502 -3.00111 0
M  V30 1324 H 129.542 -1.37252 -2.61239 0
M  V30 1325 H 129.623 -2.3044 -1.11044 0
M  V30 1326 H 129.267 -4.44981 -2.44856 0
M  V30 1327 H 129.197 -3.48715 -3.94596 0
M  V30 1328 H 131.688 -2.79056 -2.54826 0
M  V30 1329 H 132.001 -6.10958 -4.73234 0
M  V30 1330 H 130.346 -5.49025 -4.26141 0
M  V30 1331 H 133.537 -3.51288 -3.09377 0
M  V30 1332 H 133.71 -5.02624 -4.0899 0
M  V30 1333 N 127.117 1.15442 -1.07289 0
M  V30 1334 C 128.08 2.18358 -0.696591 0
M  V30 1335 C 129.08 1.58637 0.262837 0
M  V30 1336 O 130.27 1.74145 0.0438809 0
M  V30 1337 C 127.402 3.4089 -0.0266151 0
M  V30 1338 H 128.595 2.53162 -1.60776 0
M  V30 1339 H 126.148 1.29893 -0.869342 0
M  V30 1340 H 126.883 3.11653 0.896822 0
M  V30 1341 H 126.668 3.85495 -0.716657 0
M  V30 1342 H 128.158 4.17009 0.222028 0
M  V30 1343 N 128.595 0.856903 1.32268 0
M  V30 1344 C 129.527 0.260412 2.27716 0
M  V30 1345 C 130.54 -0.569137 1.52528 0
M  V30 1346 O 131.729 -0.39326 1.74114 0
M  V30 1347 C 128.829 -0.650477 3.32599 0
M  V30 1348 C 128.002 0.14372 4.37164 0
M  V30 1349 C 127.061 -0.69328 5.21613 0
M  V30 1350 O 126.087 -0.12599 5.69061 0
M  V30 1351 N 127.289 -2.00761 5.44679 0
M  V30 1352 H 130.054 1.08059 2.79541 0
M  V30 1353 H 127.615 0.717103 1.45152 0
M  V30 1354 H 129.607 -1.21581 3.86005 0
M  V30 1355 H 128.177 -1.37133 2.80915 0
M  V30 1356 H 127.397 0.890486 3.8401 0
M  V30 1357 H 128.685 0.68915 5.04111 0
M  V30 1358 H 128.083 -2.49181 5.07863 0
M  V30 1359 H 126.64 -2.52103 6.01072 0
M  V30 1360 N 130.073 -1.45103 0.615059 0
M  V30 1361 C 131.003 -2.33339 -0.0865619 0
M  V30 1362 C 131.984 -1.4727 -0.851209 0
M  V30 1363 O 133.169 -1.76026 -0.820281 0
M  V30 1364 C 130.299 -3.30095 -1.07956 0
M  V30 1365 C 129.253 -4.25858 -0.427628 0
M  V30 1366 C 128.579 -5.12361 -1.5294 0
M  V30 1367 C 129.879 -5.18165 0.655944 0
M  V30 1368 H 131.573 -2.92254 0.650224 0
M  V30 1369 H 129.119 -1.40532 0.314138 0
M  V30 1370 H 131.072 -3.90698 -1.57901 0
M  V30 1371 H 129.796 -2.69355 -1.84703 0
M  V30 1372 H 128.455 -3.66564 0.0510292 0
M  V30 1373 H 128.103 -4.47984 -2.28734 0
M  V30 1374 H 127.803 -5.77238 -1.09865 0
M  V30 1375 H 129.327 -5.75833 -2.03098 0
M  V30 1376 H 130.741 -5.72796 0.240257 0
M  V30 1377 H 129.138 -5.91559 1.00888 0
M  V30 1378 H 130.208 -4.60144 1.52957 0
M  V30 1379 N 131.551 -0.354651 -1.53558 0
M  V30 1380 C 132.481 0.489091 -2.2832 0
M  V30 1381 C 133.462 1.09324 -1.30316 0
M  V30 1382 O 134.647 1.11255 -1.59173 0
M  V30 1383 C 131.777 1.63456 -3.0643 0
M  V30 1384 C 130.731 1.1582 -4.12031 0
M  V30 1385 C 130.057 2.39305 -4.7816 0
M  V30 1386 C 131.357 0.250731 -5.21698 0
M  V30 1387 H 133.051 -0.134614 -2.99097 0
M  V30 1388 H 130.597 -0.0661826 -1.43848 0
M  V30 1389 H 132.55 2.23136 -3.57475 0
M  V30 1390 H 131.274 2.28533 -2.33325 0
M  V30 1391 H 129.933 0.584146 -3.61916 0
M  V30 1392 H 129.581 3.02814 -4.01637 0
M  V30 1393 H 129.281 2.08109 -5.49513 0
M  V30 1394 H 130.805 2.99691 -5.31994 0
M  V30 1395 H 132.219 0.754695 -5.68311 0
M  V30 1396 H 130.616 0.0301468 -6.00092 0
M  V30 1397 H 131.686 -0.710125 -4.79672 0
M  V30 1398 N 133.029 1.57378 -0.0835403 0
M  V30 1399 C 133.961 2.10389 0.909338 0
M  V30 1400 C 134.974 1.03858 1.25369 0
M  V30 1401 O 136.163 1.31338 1.20882 0
M  V30 1402 C 133.263 2.55908 2.2218 0
M  V30 1403 C 132.436 3.86145 2.05453 0
M  V30 1404 C 131.495 4.17633 3.20108 0
M  V30 1405 O 130.521 4.87043 2.94581 0
M  V30 1406 N 131.723 3.72113 4.45547 0
M  V30 1407 H 134.488 2.962 0.456657 0
M  V30 1408 H 132.049 1.61579 0.101877 0
M  V30 1409 H 134.041 2.74027 2.97811 0
M  V30 1410 H 132.611 1.75171 2.58909 0
M  V30 1411 H 131.831 3.7729 1.1422 0
M  V30 1412 H 133.119 4.7137 1.91541 0
M  V30 1413 H 132.517 3.16062 4.69171 0
M  V30 1414 H 131.074 3.95409 5.18165 0
M  V30 1415 N 134.507 -0.190092 1.56449 0
M  V30 1416 C 135.755 -0.907908 1.80559 0
M  V30 1417 C 136.076 -1.83583 0.657438 0
M  V30 1418 O 135.346 -1.93203 -0.323924 0
M  V30 1419 H 133.926 -0.338247 0.666032 0
M  V30 1420 H 136.588 -0.194403 1.93928 0
M  V30 1421 H 135.684 -1.49604 2.73907 0
M  V30 1422 N 135.985 -1.50799 -0.457987 0
M  V30 1423 C 136.915 -1.73553 -1.5621 0
M  V30 1424 C 137.896 -0.584774 -1.59732 0
M  V30 1425 O 139.081 -0.825314 -1.7579 0
M  V30 1426 C 136.211 -1.84169 -2.94447 0
M  V30 1427 C 135.165 -2.99461 -3.0579 0
M  V30 1428 C 134.491 -2.95235 -4.45803 0
M  V30 1429 C 135.791 -4.39766 -2.81786 0
M  V30 1430 H 137.485 -2.66 -1.37421 0
M  V30 1431 H 135.031 -1.28002 -0.659662 0
M  V30 1432 H 136.984 -1.98672 -3.71628 0
M  V30 1433 H 135.708 -0.883545 -3.14422 0
M  V30 1434 H 134.367 -2.8463 -2.31044 0
M  V30 1435 H 134.015 -1.97239 -4.62715 0
M  V30 1436 H 133.715 -3.72642 -4.54326 0
M  V30 1437 H 135.239 -3.11803 -5.24987 0
M  V30 1438 H 136.653 -4.55054 -3.4871 0
M  V30 1439 H 135.05 -5.18722 -3.0174 0
M  V30 1440 H 136.12 -4.51229 -1.7754 0
M  V30 1441 N 137.463 0.71206 -1.40597 0
M  V30 1442 C 138.711 1.46907 -1.38791 0
M  V30 1443 C 139.032 1.94998 0.00780391 0
M  V30 1444 O 138.302 1.70587 0.963174 0
M  V30 1445 H 136.882 0.545043 -0.51082 0
M  V30 1446 H 139.544 0.843882 -1.75683 0
M  V30 1447 H 138.64 2.34021 -2.06496 0
M  V30 1448 N 138.941 1.26152 0.944643 0
M  V30 1449 C 140.188 1.11492 1.69044 0
M  V30 1450 C 140.516 -0.342366 1.91463 0
M  V30 1451 O 139.771 -1.26812 1.49054 0
M  V30 1452 C 140.07 1.82541 3.07268 0
M  V30 1453 C 139.736 3.32445 3.04616 0
M  V30 1454 C 138.398 3.73337 3.036 0
M  V30 1455 C 140.75 4.28171 2.97185 0
M  V30 1456 C 138.078 5.08348 2.92915 0
M  V30 1457 C 140.43 5.63218 2.88041 0
M  V30 1458 C 139.094 6.03426 2.85366 0
M  V30 1459 H 138.364 0.407977 0.618576 0
M  V30 1460 H 141.011 1.56551 1.10291 0
M  V30 1461 H 139.316 1.29941 3.69625 0
M  V30 1462 H 141.013 1.68642 3.63815 0
M  V30 1463 H 137.603 2.99915 3.06185 0
M  V30 1464 H 141.787 3.97563 2.97081 0
M  V30 1465 H 137.043 5.38667 2.89219 0
M  V30 1466 H 141.217 6.37078 2.81254 0
M  V30 1467 H 138.844 7.07999 2.76842 0
M  V30 1468 N 140.419 -1.14872 1.07899 0
M  V30 1469 C 141.367 -2.21857 0.698727 0
M  V30 1470 C 142.361 -1.66845 -0.293086 0
M  V30 1471 O 143.567 -1.79321 -0.156204 0
M  V30 1472 H 139.942 -0.722691 0.207899 0
M  V30 1473 H 141.913 -2.51205 1.61054 0
M  V30 1474 C 140.662 -3.47498 0.11858 0
M  V30 1475 H 139.985 -3.90154 0.872914 0
M  V30 1476 H 141.425 -4.23858 -0.109759 0
M  V30 1477 C 139.884 -3.16947 -1.1422 0
M  V30 1478 O 140.414 -3.3426 -2.22785 0
M  V30 1479 N 138.62 -2.70946 -1.05055 0
M  V30 1480 H 138.167 -2.57058 -0.167038 0
M  V30 1481 H 138.125 -2.50879 -1.89491 0
M  V30 1482 N 141.898 -0.863906 -1.31812 0
M  V30 1483 C 142.828 -0.330843 -2.31144 0
M  V30 1484 C 143.809 0.575005 -1.60087 0
M  V30 1485 O 144.994 0.493304 -1.8783 0
M  V30 1486 C 142.124 0.47374 -3.44054 0
M  V30 1487 C 141.078 -0.338481 -4.26659 0
M  V30 1488 C 140.404 0.591412 -5.31419 0
M  V30 1489 C 141.704 -1.56926 -4.98168 0
M  V30 1490 H 143.398 -1.16086 -2.75979 0
M  V30 1491 H 140.944 -0.559657 -1.32679 0
M  V30 1492 H 142.897 0.857143 -4.12591 0
M  V30 1493 H 141.621 1.33721 -2.9797 0
M  V30 1494 H 140.28 -0.703754 -3.59782 0
M  V30 1495 H 139.928 1.45199 -4.81587 0
M  V30 1496 H 139.628 0.0519022 -5.87577 0
M  V30 1497 H 141.152 0.97179 -6.02817 0
M  V30 1498 H 142.566 -1.25764 -5.59336 0
M  V30 1499 H 140.963 -2.04739 -5.64094 0
M  V30 1500 H 142.033 -2.32544 -4.25501 0
M  V30 1501 N 143.376 1.44774 -0.622745 0
M  V30 1502 C 144.604 2.06487 -0.130722 0
M  V30 1503 C 145.019 1.46476 1.19123 0
M  V30 1504 O 144.376 0.584502 1.72887 0
M  V30 1505 C 144.427 3.615 -0.000807207 0
M  V30 1506 O 144.148 4.19274 -1.27048 0
M  V30 1507 C 145.649 4.40229 0.520898 0
M  V30 1508 H 142.869 0.666704 -0.0758106 0
M  V30 1509 H 145.413 1.85779 -0.854774 0
M  V30 1510 H 143.568 3.81498 0.673643 0
M  V30 1511 H 143.982 5.12622 -1.1099 0
M  V30 1512 H 145.456 5.49144 0.560838 0
M  V30 1513 H 145.933 4.1108 1.54627 0
M  V30 1514 H 146.539 4.25131 -0.120018 0
M  V30 1515 N 144.854 0.36279 1.53368 0
M  V30 1516 C 145.764 -0.492994 2.29362 0
M  V30 1517 C 146.78 -1.09507 1.35219 0
M  V30 1518 O 147.956 -1.10662 1.68273 0
M  V30 1519 C 145.021 -1.61855 3.066 0
M  V30 1520 C 144.082 -1.04429 4.16405 0
M  V30 1521 C 143.315 -2.11621 4.89951 0
M  V30 1522 O 143.538 -3.32684 4.63333 0
M  V30 1523 O 142.472 -1.74835 5.75948 0
M  V30 1524 H 146.298 0.125331 3.03441 0
M  V30 1525 H 143.883 0.127253 1.48857 0
M  V30 1526 H 145.765 -2.27302 3.54841 0
M  V30 1527 H 144.44 -2.22233 2.3536 0
M  V30 1528 H 143.347 -0.353819 3.72423 0
M  V30 1529 H 144.68 -0.485113 4.89804 0
M  V30 1530 N 146.332 -1.57332 0.0918853 0
M  V30 1531 C 147.748 -1.57389 -0.264766 0
M  V30 1532 C 147.948 -1.10281 -1.68643 0
M  V30 1533 O 147.004 -0.777801 -2.40222 0
M  V30 1534 C 148.317 -3.00648 -0.0561195 0
M  V30 1535 C 149.865 -3.12754 -0.124116 0
M  V30 1536 C 150.34 -4.57965 0.0564972 0
M  V30 1537 N 151.831 -4.632 0.00155611 0
M  V30 1538 C 152.566 -5.73281 0.116598 0
M  V30 1539 N 152.062 -6.92208 0.286294 0
M  V30 1540 N 153.855 -5.6207 0.0580973 0
M  V30 1541 H 146.006 -1.86262 1.02079 0
M  V30 1542 H 148.269 -0.859579 0.399786 0
M  V30 1543 H 147.975 -3.393 0.925669 0
M  V30 1544 H 147.849 -3.68623 -0.799823 0
M  V30 1545 H 150.236 -2.73976 -1.09641 0
M  V30 1546 H 150.317 -2.47377 0.651024 0
M  V30 1547 H 149.961 -4.97436 1.02564 0
M  V30 1548 H 149.891 -5.21399 -0.738297 0
M  V30 1549 H 152.382 -3.77686 -0.127192 0
M  V30 1550 H 152.695 -7.71934 0.365676 0
M  V30 1551 H 151.04 -6.94254 0.32192 0
M  V30 1552 H 154.231 -4.68043 -0.0733204 0
M  V30 1553 H 154.404 -6.47824 0.151203 0
M  V30 1554 N 147.81 0.181792 -1.56548 0
M  V30 1555 C 149.035 0.920019 -1.85877 0
M  V30 1556 C 149.46 1.75494 -0.677021 0
M  V30 1557 O 148.818 1.77399 0.374056 0
M  V30 1558 C 148.866 1.78112 -3.13542 0
M  V30 1559 O 147.97 2.88152 -2.95029 0
M  V30 1560 H 147.311 0.258334 -0.611686 0
M  V30 1561 H 149.841 0.183092 -2.03779 0
M  V30 1562 H 149.851 2.18314 -3.44678 0
M  V30 1563 H 148.526 1.16777 -3.99169 0
M  V30 1564 H 147.103 2.51609 -2.75222 0
M  V30 1565 N 149.288 1.51039 0.449983 0
M  V30 1566 C 150.198 1.74261 1.57067 0
M  V30 1567 C 151.214 0.626363 1.62335 0
M  V30 1568 O 152.39 0.907162 1.79812 0
M  V30 1569 C 149.455 1.85114 2.93144 0
M  V30 1570 C 148.516 3.0893 2.98095 0
M  V30 1571 C 147.749 3.19256 4.27681 0
M  V30 1572 O 147.972 2.35835 5.19363 0
M  V30 1573 O 146.906 4.12144 4.38658 0
M  V30 1574 H 150.732 2.69303 1.40391 0
M  V30 1575 H 148.317 1.35389 0.631688 0
M  V30 1576 H 150.199 1.94311 3.73926 0
M  V30 1577 H 148.874 0.932588 3.09975 0
M  V30 1578 H 147.781 3.0522 2.16314 0
M  V30 1579 H 149.114 4.00433 2.86206 0
M  V30 1580 N 150.766 -0.704594 1.40972 0
M  V30 1581 C 151.994 -1.49354 1.43182 0
M  V30 1582 C 152.409 -1.88768 0.0345508 0
M  V30 1583 O 151.766 -1.56184 -0.944081 0
M  V30 1584 C 151.817 -2.76187 2.33244 0
M  V30 1585 O 151.538 -2.38436 3.67532 0
M  V30 1586 C 153.039 -3.7 2.44162 0
M  V30 1587 H 150.259 -0.460559 0.487982 0
M  V30 1588 H 152.803 -0.868261 1.85153 0
M  V30 1589 H 150.958 -3.34974 1.94606 0
M  V30 1590 H 151.372 -3.20126 4.15475 0
M  V30 1591 H 152.846 -4.55803 3.11364 0
M  V30 1592 H 153.323 -4.13867 1.47006 0
M  V30 1593 H 153.929 -3.17121 2.83398 0
M  V30 1594 N 152.244 -1.26651 -0.937939 0
M  V30 1595 C 153.154 -1.10276 -2.07066 0
M  V30 1596 C 154.17 -0.0354197 -1.73964 0
M  V30 1597 O 155.346 -0.239816 -1.99967 0
M  V30 1598 C 152.411 -0.740887 -3.38691 0
M  V30 1599 C 151.472 -1.88799 -3.85556 0
M  V30 1600 C 150.705 -1.54329 -5.10899 0
M  V30 1601 O 150.928 -0.446494 -5.6865 0
M  V30 1602 O 149.862 -2.37911 -5.52885 0
M  V30 1603 H 153.688 -2.05309 -2.23789 0
M  V30 1604 H 151.273 -1.05743 -1.0554 0
M  V30 1605 H 153.155 -0.55195 -4.1777 0
M  V30 1606 H 151.83 0.180022 -3.23199 0
M  V30 1607 H 150.737 -2.13191 -3.07409 0
M  V30 1608 H 152.07 -2.78874 -4.05574 0
M  V30 1609 N 153.722 1.14298 -1.08507 0
M  V30 1610 C 154.971 1.84708 -0.810305 0
M  V30 1611 C 155.284 1.83903 0.666271 0
M  V30 1612 O 156.49 2.50112 1.05624 0
M  V30 1613 C 154.946 3.31572 -1.39957 0
M  V30 1614 C 154.554 3.40791 -2.90801 0
M  V30 1615 C 156.298 4.07087 -1.20334 0
M  V30 1616 C 154.205 4.81872 -3.4286 0
M  V30 1617 H 153.135 0.691985 -0.299454 0
M  V30 1618 H 155.786 1.28841 -1.30661 0
M  V30 1619 H 154.168 3.87183 -0.830976 0
M  V30 1620 H 155.342 2.95225 -3.53806 0
M  V30 1621 H 153.657 2.78732 -3.0935 0
M  V30 1622 H 156.254 5.11225 -1.56693 0
M  V30 1623 H 156.597 4.16054 -0.143237 0
M  V30 1624 H 157.13 3.57779 -1.73893 0
M  V30 1625 H 153.869 4.78094 -4.48449 0
M  V30 1626 H 153.389 5.27972 -2.84615 0
M  V30 1627 H 155.068 5.50765 -3.39509 0
M  V30 1628 N 155.201 0.870884 1.31352 0
M  V30 1629 C 156.151 0.298889 2.26032 0
M  V30 1630 C 157.135 -0.564595 1.50669 0
M  V30 1631 O 158.327 -0.411323 1.72154 0
M  V30 1632 C 155.456 -0.497842 3.39671 0
M  V30 1633 C 154.542 0.378937 4.22404 0
M  V30 1634 N 154.933 1.47284 4.83881 0
M  V30 1635 C 153.231 0.171535 4.4567 0
M  V30 1636 C 153.932 2.01359 5.45738 0
M  V30 1637 N 152.908 1.31047 5.27568 0
M  V30 1638 H 156.71 1.13494 2.71102 0
M  V30 1639 H 154.224 0.718745 1.45629 0
M  V30 1640 H 156.221 -0.924155 4.06528 0
M  V30 1641 H 154.881 -1.33149 2.96144 0
M  V30 1642 H 155.892 1.85575 4.8351 0
M  V30 1643 H 152.569 -0.626091 4.12779 0
M  V30 1644 H 153.959 2.93143 6.0458 0
M  V30 1645 N 156.679 -1.44442 0.630414 0
M  V30 1646 C 157.611 -2.2892 -0.113347 0
M  V30 1647 C 158.624 -1.41243 -0.80959 0
M  V30 1648 O 159.813 -1.65402 -0.671156 0
M  V30 1649 C 156.913 -3.17594 -1.18266 0
M  V30 1650 C 156.086 -4.33682 -0.569073 0
M  V30 1651 C 155.145 -5.03397 -1.53226 0
M  V30 1652 O 154.171 -5.59438 -1.04967 0
M  V30 1653 N 155.373 -5.04783 -2.86661 0
M  V30 1654 H 158.138 -2.93392 0.611636 0
M  V30 1655 H 155.699 -1.54881 0.471523 0
M  V30 1656 H 157.691 -3.61097 -1.82732 0
M  V30 1657 H 156.261 -2.54876 -1.80988 0
M  V30 1658 H 155.481 -3.9338 0.254187 0
M  V30 1659 H 156.769 -5.08608 -0.139767 0
M  V30 1660 H 156.167 -4.60584 -3.28449 0
M  V30 1661 H 154.724 -5.52077 -3.46489 0
M  V30 1662 N 158.157 -0.370918 -1.53173 0
M  V30 1663 C 159.405 0.216673 -2.00935 0
M  V30 1664 C 159.726 1.48845 -1.25977 0
M  V30 1665 O 158.996 1.92286 -0.374551 0
M  V30 1666 H 157.576 0.0830565 -0.742368 0
M  V30 1667 H 160.238 -0.49838 -1.8842 0
M  V30 1668 H 159.334 0.439893 -3.08984 0
M  V30 1669 N 159.635 1.57281 -0.100228 0
M  V30 1670 C 160.882 1.94537 0.562268 0
M  V30 1671 C 161.21 0.982315 1.67871 0
M  V30 1672 O 160.465 0.00280936 1.957 0
M  V30 1673 C 160.764 3.38305 1.15259 0
M  V30 1674 C 160.43 4.50618 0.159409 0
M  V30 1675 C 159.092 4.81066 -0.113741 0
M  V30 1676 C 161.444 5.18615 -0.518461 0
M  V30 1677 C 158.772 5.76835 -1.07137 0
M  V30 1678 C 161.124 6.15412 -1.46459 0
M  V30 1679 C 159.788 6.44262 -1.74592 0
M  V30 1680 H 159.058 0.711863 0.205748 0
M  V30 1681 H 161.705 1.90679 -0.17715 0
M  V30 1682 H 160.01 3.38766 1.96836 0
M  V30 1683 H 161.707 3.64435 1.67297 0
M  V30 1684 H 158.297 4.2689 0.382491 0
M  V30 1685 H 162.481 4.95264 -0.320581 0
M  V30 1686 H 157.737 5.975 -1.29628 0
M  V30 1687 H 161.911 6.67194 -1.99564 0
M  V30 1688 H 159.538 7.1828 -2.48953 0
M  V30 1689 N 161.113 -0.173488 1.56642 0
M  V30 1690 C 162.045 -1.23935 1.92802 0
M  V30 1691 C 163.058 -1.40589 0.820889 0
M  V30 1692 O 164.247 -1.40631 1.09933 0
M  V30 1693 C 161.347 -2.60837 2.16373 0
M  V30 1694 C 160.52 -2.6551 3.47596 0
M  V30 1695 C 159.579 -3.8376 3.60021 0
M  V30 1696 O 158.605 -3.69859 4.32658 0
M  V30 1697 N 159.807 -5.00127 2.94709 0
M  V30 1698 H 162.572 -0.932236 2.84832 0
M  V30 1699 H 160.133 -0.363268 1.57772 0
M  V30 1700 H 162.125 -3.38407 2.21952 0
M  V30 1701 H 160.695 -2.83948 1.30738 0
M  V30 1702 H 159.915 -1.74052 3.53694 0
M  V30 1703 H 161.203 -2.65641 4.33949 0
M  V30 1704 H 160.601 -5.14322 2.35563 0
M  V30 1705 H 159.158 -5.75567 3.05886 0
M  V30 1706 N 162.591 -1.51276 -0.441967 0
M  V30 1707 C 163.541 -1.6864 -1.53442 0
M  V30 1708 C 164.525 -0.540444 -1.51552 0
M  V30 1709 O 165.717 -0.796157 -1.58083 0
M  V30 1710 C 162.846 -1.8106 -2.91672 0
M  V30 1711 C 161.932 -3.01424 -2.98336 0
M  V30 1712 N 162.323 -4.2467 -2.74752 0
M  V30 1713 C 160.621 -3.00584 -3.29493 0
M  V30 1714 C 161.322 -5.05891 -2.87139 0
M  V30 1715 N 160.298 -4.40442 -3.18609 0
M  V30 1716 H 164.1 -2.61598 -1.33954 0
M  V30 1717 H 161.614 -1.4886 -0.6492 0
M  V30 1718 H 163.611 -1.91609 -3.70259 0
M  V30 1719 H 162.271 -0.892795 -3.12185 0
M  V30 1720 H 163.282 -4.53691 -2.49769 0
M  V30 1721 H 159.959 -2.18417 -3.55809 0
M  V30 1722 H 161.349 -6.13983 -2.72899 0
M  V30 1723 N 164.069 0.697108 -1.41344 0
M  V30 1724 C 164.999 1.82353 -1.45841 0
M  V30 1725 C 165.98 1.67115 -0.317247 0
M  V30 1726 O 167.165 1.86871 -0.528474 0
M  V30 1727 C 164.295 3.20476 -1.33838 0
M  V30 1728 C 163.249 3.50415 -2.4575 0
M  V30 1729 C 162.575 4.87878 -2.18813 0
M  V30 1730 C 163.875 3.49546 -3.88091 0
M  V30 1731 H 165.569 1.78846 -2.40113 0
M  V30 1732 H 163.115 0.859028 -1.15571 0
M  V30 1733 H 165.068 3.98988 -1.35596 0
M  V30 1734 H 163.792 3.24604 -0.360498 0
M  V30 1735 H 162.451 2.74253 -2.43271 0
M  V30 1736 H 162.099 4.8863 -1.19371 0
M  V30 1737 H 161.799 5.08875 -2.93803 0
M  V30 1738 H 163.323 5.68702 -2.22284 0
M  V30 1739 H 164.737 4.18066 -3.92293 0
M  V30 1740 H 163.134 3.82075 -4.62751 0
M  V30 1741 H 164.204 2.48552 -4.16353 0
M  V30 1742 N 165.547 1.27147 0.931209 0
M  V30 1743 C 166.497 1.06227 2.01742 0
M  V30 1744 C 167.481 -0.00859065 1.60898 0
M  V30 1745 O 168.673 0.209537 1.75755 0
M  V30 1746 C 165.802 0.707787 3.35924 0
M  V30 1747 C 164.888 1.81661 3.83223 0
M  V30 1748 N 165.279 3.05564 4.03069 0
M  V30 1749 C 163.577 1.70249 4.12227 0
M  V30 1750 C 164.278 3.77697 4.42403 0
M  V30 1751 N 163.254 3.0544 4.49675 0
M  V30 1752 H 167.056 2.00261 2.15111 0
M  V30 1753 H 164.57 1.1781 1.11779 0
M  V30 1754 H 166.567 0.539043 4.134 0
M  V30 1755 H 165.227 -0.224964 3.2392 0
M  V30 1756 H 166.238 3.41363 3.89476 0
M  V30 1757 H 162.915 0.840329 4.08956 0
M  V30 1758 H 164.305 4.84168 4.65866 0
M  V30 1759 N 167.025 -1.13721 1.09112 0
M  V30 1760 C 167.957 -2.1871 0.685467 0
M  V30 1761 C 168.97 -1.60527 -0.271068 0
M  V30 1762 O 170.159 -1.78407 -0.0576148 0
M  V30 1763 C 167.259 -3.38898 -0.0111255 0
M  V30 1764 C 166.432 -4.26597 0.966131 0
M  V30 1765 C 165.491 -5.25324 0.303539 0
M  V30 1766 O 164.517 -5.61213 0.950177 0
M  V30 1767 N 165.719 -5.72779 -0.943651 0
M  V30 1768 H 168.484 -2.54126 1.58871 0
M  V30 1769 H 166.045 -1.29012 0.978143 0
M  V30 1770 H 168.037 -4.02014 -0.465517 0
M  V30 1771 H 166.607 -3.01747 -0.816565 0
M  V30 1772 H 165.827 -3.60306 1.59917 0
M  V30 1773 H 167.115 -4.82048 1.6281 0
M  V30 1774 H 166.513 -5.45762 -1.48862 0
M  V30 1775 H 165.07 -6.37847 -1.34142 0
M  V30 1776 N 168.503 -0.877838 -1.30888 0
M  V30 1777 C 169.433 -0.35534 -2.3078 0
M  V30 1778 C 170.414 0.557994 -1.60687 0
M  V30 1779 O 171.599 0.473355 -1.88343 0
M  V30 1780 C 168.729 0.437221 -3.44537 0
M  V30 1781 C 167.683 -0.383715 -4.26276 0
M  V30 1782 C 167.009 0.535014 -5.32017 0
M  V30 1783 C 168.309 -1.62201 -4.96476 0
M  V30 1784 H 170.003 -1.19007 -2.74732 0
M  V30 1785 H 167.549 -0.573698 -1.32078 0
M  V30 1786 H 169.502 0.813334 -4.13477 0
M  V30 1787 H 168.226 1.30553 -2.99372 0
M  V30 1788 H 166.885 -0.741874 -3.59015 0
M  V30 1789 H 166.533 1.40083 -4.831 0
M  V30 1790 H 166.233 -0.0104211 -5.87599 0
M  V30 1791 H 167.757 0.907799 -6.03814 0
M  V30 1792 H 169.171 -1.31689 -5.5797 0
M  V30 1793 H 167.568 -2.10711 -5.61891 0
M  V30 1794 H 168.638 -2.37044 -4.23011 0
M  V30 1795 N 169.982 1.44106 -0.638065 0
M  V30 1796 C 171.229 2.01978 -0.14533 0
M  V30 1797 C 171.557 1.50234 1.23532 0
M  V30 1798 O 170.812 0.679548 1.83523 0
M  V30 1799 C 171.111 3.5729 -0.0887327 0
M  V30 1800 C 170.777 4.28317 -1.40909 0
M  V30 1801 C 169.439 4.47437 -1.77069 0
M  V30 1802 C 171.791 4.6867 -2.28031 0
M  V30 1803 C 169.119 5.04171 -3.00047 0
M  V30 1804 C 171.471 5.26766 -3.50286 0
M  V30 1805 C 170.135 5.44104 -3.86661 0
M  V30 1806 H 169.405 0.739089 -0.0531801 0
M  V30 1807 H 172.052 1.72781 -0.825761 0
M  V30 1808 H 170.357 3.8594 0.675095 0
M  V30 1809 H 172.054 3.99807 0.309145 0
M  V30 1810 H 168.644 4.1377 -1.1177 0
M  V30 1811 H 172.828 4.53604 -2.01388 0
M  V30 1812 H 168.084 5.15782 -3.28298 0
M  V30 1813 H 172.258 5.56983 -4.18023 0
M  V30 1814 H 169.885 5.87832 -4.82034 0
M  V30 1815 N 171.46 0.379036 1.52974 0
M  V30 1816 C 172.423 -0.448865 2.24762 0
M  V30 1817 C 173.423 -0.998689 1.26027 0
M  V30 1818 O 174.613 -0.882313 1.50203 0
M  V30 1819 C 171.745 -1.62872 2.99476 0
M  V30 1820 H 172.938 0.179491 2.99362 0
M  V30 1821 H 170.491 0.13096 1.5575 0
M  V30 1822 H 171.226 -2.29479 2.29151 0
M  V30 1823 H 171.011 -1.24128 3.71934 0
M  V30 1824 H 172.501 -2.2151 3.5401 0
M  V30 1825 N 172.938 -1.57226 0.108567 0
M  V30 1826 C 173.885 -2.14756 -0.845481 0
M  V30 1827 C 174.855 -1.06971 -1.27068 0
M  V30 1828 O 176.04 -1.34827 -1.35005 0
M  V30 1829 C 173.18 -2.74298 -2.09415 0
M  V30 1830 C 172.293 -3.96358 -1.71826 0
M  V30 1831 C 171.428 -4.44021 -2.9158 0
M  V30 1832 C 170.467 -5.58637 -2.50181 0
M  V30 1833 N 169.604 -6.01091 -3.62814 0
M  V30 1834 H 174.444 -2.95961 -0.348035 0
M  V30 1835 H 171.981 -1.46226 -0.160106 0
M  V30 1836 H 173.939 -3.06945 -2.82561 0
M  V30 1837 H 172.569 -1.95801 -2.56636 0
M  V30 1838 H 171.621 -3.69939 -0.885947 0
M  V30 1839 H 172.933 -4.79504 -1.37394 0
M  V30 1840 H 172.087 -4.78522 -3.72963 0
M  V30 1841 H 170.826 -3.59803 -3.29231 0
M  V30 1842 H 169.831 -5.23751 -1.67228 0
M  V30 1843 H 171.056 -6.44613 -2.13659 0
M  V30 1844 H 169.002 -5.19817 -4.00158 0
M  V30 1845 H 168.919 -6.79066 -3.32273 0
M  V30 1846 H 170.187 -6.40227 -4.44668 0
M  V30 1847 N 174.416 0.165178 -1.56732 0
M  V30 1848 C 175.641 0.900253 -1.86843 0
M  V30 1849 C 176.066 1.74766 -0.695596 0
M  V30 1850 O 175.424 1.77786 0.35522 0
M  V30 1851 C 175.472 1.74777 -3.15413 0
M  V30 1852 O 174.576 2.85007 -2.98068 0
M  V30 1853 H 173.917 0.251832 -0.614391 0
M  V30 1854 H 176.447 0.161468 -2.03962 0
M  V30 1855 H 176.457 2.14646 -3.46974 0
M  V30 1856 H 175.132 1.12537 -4.00385 0
M  V30 1857 H 173.709 2.48676 -2.77875 0
M  V30 1858 N 175.894 1.51508 0.433938 0
M  V30 1859 C 177.171 1.54888 1.19453 0
M  V30 1860 C 177.551 0.315154 2.08734 0
M  V30 1861 O 176.899 -0.699558 2.17528 0
M  V30 1862 C 177.109 2.86467 1.99342 0
M  V30 1863 C 178.457 3.38545 2.56267 0
M  V30 1864 O 179.481 2.88041 2.0955 0
M  V30 1865 O 178.34 4.26675 3.41483 0
M  V30 1866 H 175.434 0.622863 0.544032 0
M  V30 1867 H 177.98 1.63823 0.442732 0
M  V30 1868 H 176.752 3.67718 1.33788 0
M  V30 1869 H 176.375 2.8071 2.8158 0
M  V30 1870 N 177.372 -0.689602 1.41712 0
M  V30 1871 C 178.6 -1.47827 1.44758 0
M  V30 1872 C 179.015 -1.88721 0.0545703 0
M  V30 1873 O 178.372 -1.57176 -0.927463 0
M  V30 1874 C 178.423 -2.73698 2.3616 0
M  V30 1875 O 178.144 -2.34524 3.7004 0
M  V30 1876 C 179.645 -3.67389 2.48072 0
M  V30 1877 H 176.865 -0.455357 0.49284 0
M  V30 1878 H 179.409 -0.848574 1.86063 0
M  V30 1879 H 177.564 -3.32891 1.98148 0
M  V30 1880 H 177.978 -3.15701 4.18847 0
M  V30 1881 H 179.452 -4.52475 3.16181 0
M  V30 1882 H 179.929 -4.12284 1.51388 0
M  V30 1883 H 180.535 -3.14097 2.86746 0
M  V30 1884 N 178.85 -1.27639 -0.924453 0
M  V30 1885 C 180.075 -1.17101 -1.71179 0
M  V30 1886 C 180.5 0.268134 -1.86179 0
M  V30 1887 O 179.858 1.19415 -1.36418 0
M  V30 1888 C 179.906 -1.86313 -3.08739 0
M  V30 1889 O 179.01 -1.16331 -3.95652 0
M  V30 1890 H 178.351 -0.407091 -0.524569 0
M  V30 1891 H 180.881 -1.68767 -1.15666 0
M  V30 1892 H 180.891 -1.938 -3.59034 0
M  V30 1893 H 179.566 -2.91001 -2.97138 0
M  V30 1894 H 178.143 -1.16935 -3.54091 0
M  V30 1895 N 180.328 1.1314 -1.09713 0
M  V30 1896 C 181.258 2.20748 -0.761102 0
M  V30 1897 C 182.239 1.68061 0.262566 0
M  V30 1898 O 183.424 1.93765 0.129977 0
M  V30 1899 C 180.554 3.46812 -0.184054 0
M  V30 1900 C 179.508 4.12606 -1.13757 0
M  V30 1901 C 178.834 5.33031 -0.422083 0
M  V30 1902 C 180.134 4.59603 -2.48118 0
M  V30 1903 H 181.828 2.49113 -1.66082 0
M  V30 1904 H 179.374 1.19734 -0.799987 0
M  V30 1905 H 181.327 4.21353 0.0631215 0
M  V30 1906 H 180.051 3.17851 0.750868 0
M  V30 1907 H 178.71 3.40036 -1.37007 0
M  V30 1908 H 178.358 5.00335 0.517072 0
M  V30 1909 H 178.058 5.77999 -1.05788 0
M  V30 1910 H 179.582 6.10325 -0.183277 0
M  V30 1911 H 180.996 5.25552 -2.29059 0
M  V30 1912 H 179.393 5.15321 -3.07514 0
M  V30 1913 H 180.463 3.73971 -3.08665 0
M  V30 1914 N 181.806 0.884767 1.30421 0
M  V30 1915 C 182.716 0.355398 2.31892 0
M  V30 1916 C 183.732 -0.542261 1.65335 0
M  V30 1917 O 184.908 -0.435432 1.96637 0
M  V30 1918 C 181.973 -0.421661 3.44126 0
M  V30 1919 C 181.034 0.505727 4.26311 0
M  V30 1920 C 180.267 -0.234343 5.33185 0
M  V30 1921 O 180.49 -1.46045 5.51386 0
M  V30 1922 O 179.424 0.415443 6.00465 0
M  V30 1923 H 183.25 1.19685 2.79122 0
M  V30 1924 H 180.835 0.648596 1.34587 0
M  V30 1925 H 182.717 -0.861641 4.12497 0
M  V30 1926 H 181.392 -1.23942 2.99032 0
M  V30 1927 H 180.299 0.994513 3.60639 0
M  V30 1928 H 181.632 1.28948 4.75009 0
M  V30 1929 N 183.284 -1.43765 0.645699 0
M  V30 1930 C 184.217 -2.2798 -0.100072 0
M  V30 1931 C 185.195 -1.39391 -0.837194 0
M  V30 1932 O 186.379 -1.68833 -0.838306 0
M  V30 1933 C 183.506 -3.18643 -1.14823 0
M  V30 1934 C 182.552 -4.2344 -0.510009 0
M  V30 1935 S 183.385 -5.30761 0.710824 0
M  V30 1936 C 184.541 -6.24992 -0.33699 0
M  V30 1937 H 184.774 -2.90884 0.614322 0
M  V30 1938 H 182.307 -1.48166 0.434304 0
M  V30 1939 H 184.265 -3.71424 -1.74799 0
M  V30 1940 H 182.926 -2.54932 -1.8349 0
M  V30 1941 H 182.119 -4.86948 -1.29991 0
M  V30 1942 H 181.721 -3.73997 0.0154577 0
M  V30 1943 H 184.013 -6.66691 -1.20537 0
M  V30 1944 H 184.956 -7.07612 0.262879 0
M  V30 1945 H 185.364 -5.60517 -0.669425 0
M  V30 1946 N 184.763 -0.387143 -1.52771 0
M  V30 1947 C 185.991 0.195869 -2.05971 0
M  V30 1948 C 186.406 1.40691 -1.25903 0
M  V30 1949 O 185.763 1.79931 -0.305134 0
M  V30 1950 C 185.814 0.56812 -3.57008 0
M  V30 1951 O 185.535 -0.594803 -4.34043 0
M  V30 1952 C 187.036 1.20723 -4.26545 0
M  V30 1953 H 184.256 0.0300578 -0.670326 0
M  V30 1954 H 186.8 -0.551749 -1.96916 0
M  V30 1955 H 184.955 1.26564 -3.66143 0
M  V30 1956 H 185.369 -0.289322 -5.23701 0
M  V30 1957 H 186.843 1.41807 -5.33474 0
M  V30 1958 H 187.32 2.17395 -3.81623 0
M  V30 1959 H 187.926 0.550535 -4.21722 0
M  V30 1960 N 186.241 1.57166 -0.116904 0
M  V30 1961 C 187.174 2.10912 0.871291 0
M  V30 1962 C 188.152 1.025 1.26224 0
M  V30 1963 O 189.336 1.3014 1.36366 0
M  V30 1964 C 186.463 2.6041 2.16574 0
M  V30 1965 C 185.509 3.80687 1.92302 0
M  V30 1966 S 186.342 5.23199 1.14119 0
M  V30 1967 C 187.498 5.76064 2.44748 0
M  V30 1968 H 187.731 2.94401 0.414138 0
M  V30 1969 H 185.264 1.54096 0.096829 0
M  V30 1970 H 187.222 2.89583 2.9095 0
M  V30 1971 H 185.883 1.77106 2.59408 0
M  V30 1972 H 185.076 4.13462 2.8821 0
M  V30 1973 H 184.678 3.5212 1.26047 0
M  V30 1974 H 186.97 5.8566 3.406 0
M  V30 1975 H 187.913 6.74184 2.16521 0
M  V30 1976 H 188.321 5.04117 2.54019 0
M  V30 1977 N 187.719 -0.156864 1.56817 0
M  V30 1978 C 188.967 -0.869404 1.82444 0
M  V30 1979 C 189.288 -1.82147 0.69623 0
M  V30 1980 O 188.558 -1.93847 -0.28287 0
M  V30 1981 H 187.138 -0.324043 0.673056 0
M  V30 1982 H 189.8 -0.153224 1.94297 0
M  V30 1983 H 188.896 -1.43761 2.77019 0
M  V30 1984 N 189.197 -1.51736 -0.425897 0
M  V30 1985 C 190.145 -1.74464 -1.53834 0
M  V30 1986 C 191.139 -0.611241 -1.57988 0
M  V30 1987 O 192.345 -0.792899 -1.61596 0
M  V30 1988 H 188.72 -0.551437 -0.511293 0
M  V30 1989 H 190.691 -2.67694 -1.31843 0
M  V30 1990 C 189.44 -1.8972 -2.91379 0
M  V30 1991 H 188.763 -2.76344 -2.88919 0
M  V30 1992 H 190.203 -2.09629 -3.68553 0
M  V30 1993 C 188.662 -0.65992 -3.30374 0
M  V30 1994 O 189.192 0.180083 -4.01296 0
M  V30 1995 N 187.398 -0.500677 -2.86254 0
M  V30 1996 H 186.945 -1.18532 -2.28709 0
M  V30 1997 H 186.903 0.325903 -3.12706 0
M  V30 1998 N 190.675 0.682077 -1.42076 0
M  V30 1999 C 191.638 1.77756 -1.44691 0
M  V30 2000 C 192.638 1.5726 -0.335535 0
M  V30 2001 O 193.828 1.63686 -0.596037 0
M  V30 2002 C 190.96 3.16301 -1.27146 0
M  V30 2003 H 192.153 1.76826 -2.42224 0
M  V30 2004 H 189.706 0.891012 -1.28416 0
M  V30 2005 H 190.441 3.22862 -0.305075 0
M  V30 2006 H 190.226 3.32581 -2.07683 0
M  V30 2007 H 191.716 3.96241 -1.31843 0
M  V30 2008 N 192.153 1.28127 0.917671 0
M  V30 2009 C 193.083 1.14248 2.03641 0
M  V30 2010 C 194.064 0.0412748 1.7005 0
M  V30 2011 O 195.249 0.217566 1.92977 0
M  V30 2012 C 192.379 0.799431 3.37974 0
M  V30 2013 C 191.333 1.85497 3.85713 0
M  V30 2014 C 190.659 1.36565 5.16966 0
M  V30 2015 C 191.959 3.26085 4.08002 0
M  V30 2016 H 193.653 2.07835 2.15511 0
M  V30 2017 H 191.199 1.00064 1.03553 0
M  V30 2018 H 193.152 0.689114 4.15727 0
M  V30 2019 H 191.876 -0.172145 3.26146 0
M  V30 2020 H 190.535 1.95437 3.10161 0
M  V30 2021 H 190.183 0.383253 5.01538 0
M  V30 2022 H 189.883 2.07143 5.49878 0
M  V30 2023 H 191.407 1.26848 5.97279 0
M  V30 2024 H 192.821 3.19089 4.76293 0
M  V30 2025 H 191.218 3.94462 4.52238 0
M  V30 2026 H 192.288 3.70394 3.12948 0
M  V30 2027 N 193.631 -1.12557 1.10312 0
M  V30 2028 C 194.878 -1.84038 0.844759 0
M  V30 2029 C 195.206 -1.84026 -0.629668 0
M  V30 2030 O 194.461 -1.28026 -1.48013 0
M  V30 2031 C 194.76 -3.31462 1.33669 0
M  V30 2032 C 194.426 -3.51647 2.82232 0
M  V30 2033 C 193.088 -3.56864 3.22802 0
M  V30 2034 C 195.44 -3.58867 3.77974 0
M  V30 2035 C 192.768 -3.66844 4.57867 0
M  V30 2036 C 195.12 -3.70375 5.1284 0
M  V30 2037 C 193.784 -3.73848 5.52986 0
M  V30 2038 H 193.054 -0.673444 0.309119 0
M  V30 2039 H 195.701 -1.32824 1.37949 0
M  V30 2040 H 194.006 -3.85091 0.721949 0
M  V30 2041 H 195.703 -3.85236 1.11329 0
M  V30 2042 H 192.293 -3.48249 2.49842 0
M  V30 2043 H 196.477 -3.54107 3.47738 0
M  V30 2044 H 191.733 -3.67804 4.88396 0
M  V30 2045 H 195.907 -3.74904 5.86873 0
M  V30 2046 H 193.534 -3.81333 6.57639 0
M  V30 2047 N 195.109 -0.891671 -1.2995 0
M  V30 2048 C 196.039 -0.379797 -2.30391 0
M  V30 2049 C 197.02 0.540919 -1.6127 0
M  V30 2050 O 198.205 0.453352 -1.88834 0
M  V30 2051 C 195.335 0.400654 -3.44981 0
M  V30 2052 C 194.289 -0.428905 -4.25846 0
M  V30 2053 C 193.615 0.478557 -5.32554 0
M  V30 2054 C 194.915 -1.67458 -4.94727 0
M  V30 2055 H 196.609 -1.21914 -2.73454 0
M  V30 2056 H 194.155 -0.587675 -1.31462 0
M  V30 2057 H 196.108 0.769434 -4.14316 0
M  V30 2058 H 194.832 1.27371 -3.0074 0
M  V30 2059 H 193.491 -0.779911 -3.58208 0
M  V30 2060 H 193.139 1.34951 -4.84559 0
M  V30 2061 H 192.839 -0.0727433 -5.87555 0
M  V30 2062 H 194.363 0.843705 -6.04743 0
M  V30 2063 H 195.777 -1.376 -5.56542 0
M  V30 2064 H 194.174 -2.16659 -5.59624 0
M  V30 2065 H 195.244 -2.41518 -4.20473 0
M  V30 2066 N 196.587 1.43421 -0.653314 0
M  V30 2067 C 197.864 1.95361 -0.0966581 0
M  V30 2068 C 198.244 1.59461 1.38331 0
M  V30 2069 O 197.592 0.879777 2.10884 0
M  V30 2070 C 197.802 3.47311 -0.342988 0
M  V30 2071 C 199.15 4.23875 -0.24798 0
M  V30 2072 O 200.174 3.55133 -0.275553 0
M  V30 2073 O 199.033 5.4623 -0.171771 0
M  V30 2074 H 196.127 0.826945 0.00956291 0
M  V30 2075 H 198.673 1.5336 -0.726558 0
M  V30 2076 H 197.445 3.66569 -1.36906 0
M  V30 2077 H 197.068 3.9631 0.319975 0
M  V30 2078 N 198.065 0.39524 1.52563 0
M  V30 2079 C 199.313 -0.184678 2.01254 0
M  V30 2080 C 199.634 -1.46822 1.28329 0
M  V30 2081 O 198.904 -1.91666 0.405094 0
M  V30 2082 H 197.484 -0.0712355 0.743596 0
M  V30 2083 H 200.146 0.528293 1.87603 0
M  V30 2084 H 199.242 -0.390681 3.09645 0
M  V30 2085 N 199.544 -1.57102 0.125237 0
M  V30 2086 C 200.769 -2.0019 -0.542101 0
M  V30 2087 C 201.194 -1.00449 -1.59034 0
M  V30 2088 O 200.552 0.0229423 -1.81285 0
M  V30 2089 C 200.6 -3.42129 -1.13929 0
M  V30 2090 O 199.704 -3.45307 -2.2547 0
M  V30 2091 H 199.045 -0.650171 -0.134812 0
M  V30 2092 H 201.575 -2.03461 0.215553 0
M  V30 2093 H 201.585 -3.80471 -1.4733 0
M  V30 2094 H 200.26 -4.14237 -0.371531 0
M  V30 2095 H 198.837 -3.1879 -1.93462 0
M  V30 2096 N 201.022 0.148545 -1.56898 0
M  V30 2097 C 201.952 1.18524 -2.01182 0
M  V30 2098 C 202.933 1.4489 -0.891123 0
M  V30 2099 O 204.118 1.55836 -1.15882 0
M  V30 2100 C 201.248 2.51879 -2.39112 0
M  V30 2101 C 200.202 2.40038 -3.54353 0
M  V30 2102 C 199.528 3.78089 -3.78091 0
M  V30 2103 C 200.828 1.88577 -4.87069 0
M  V30 2104 H 202.522 0.817029 -2.88036 0
M  V30 2105 H 200.068 0.391575 -1.38574 0
M  V30 2106 H 202.021 3.24627 -2.68692 0
M  V30 2107 H 200.745 2.90532 -1.49193 0
M  V30 2108 H 199.404 1.69742 -3.24936 0
M  V30 2109 H 199.052 4.14175 -2.85426 0
M  V30 2110 H 198.752 3.71028 -4.55645 0
M  V30 2111 H 200.276 4.52387 -4.10095 0
M  V30 2112 H 201.69 2.51117 -5.15377 0
M  V30 2113 H 200.087 1.9241 -5.68417 0
M  V30 2114 H 201.157 0.84136 -4.77545 0
M  V30 2115 N 202.5 1.5196 0.417844 0
M  V30 2116 C 203.41 1.77554 1.53336 0
M  V30 2117 C 204.426 0.660655 1.6097 0
M  V30 2118 O 205.602 0.945099 1.77848 0
M  V30 2119 C 202.667 1.91291 2.89152 0
M  V30 2120 C 201.728 3.15183 2.91475 0
M  V30 2121 C 200.961 3.28256 4.20813 0
M  V30 2122 O 201.184 2.46798 5.14244 0
M  V30 2123 O 200.118 4.21356 4.29817 0
M  V30 2124 H 203.944 2.7222 1.34647 0
M  V30 2125 H 201.529 1.36698 0.602828 0
M  V30 2126 H 203.411 2.02199 3.69721 0
M  V30 2127 H 202.086 0.998129 3.07927 0
M  V30 2128 H 200.993 3.09739 2.09791 0
M  V30 2129 H 202.326 4.06414 2.77648 0
M  V30 2130 N 203.978 -0.674533 1.42435 0
M  V30 2131 C 204.908 -1.80009 1.48724 0
M  V30 2132 C 205.889 -1.6659 0.343793 0
M  V30 2133 O 207.074 -1.86007 0.558137 0
M  V30 2134 C 204.204 -3.18306 1.38919 0
M  V30 2135 C 203.158 -3.46461 2.51294 0
M  V30 2136 C 202.484 -4.84335 2.26547 0
M  V30 2137 C 203.784 -3.43328 3.93603 0
M  V30 2138 H 205.478 -1.75004 2.42928 0
M  V30 2139 H 203.024 -0.840533 1.16923 0
M  V30 2140 H 204.977 -3.9678 1.41927 0
M  V30 2141 H 203.701 -3.2399 0.412094 0
M  V30 2142 H 202.36 -2.70348 2.47604 0
M  V30 2143 H 202.008 -4.86669 1.2713 0
M  V30 2144 H 201.708 -5.04136 3.01861 0
M  V30 2145 H 203.232 -5.65094 2.31304 0
M  V30 2146 H 204.646 -4.11772 3.98894 0
M  V30 2147 H 203.043 -3.74664 4.68771 0
M  V30 2148 H 204.113 -2.41897 4.20255 0
M  V30 2149 N 205.456 -1.28612 -0.910864 0
M  V30 2150 C 206.386 -1.15326 -2.03032 0
M  V30 2151 C 207.367 -0.0502924 -1.70026 0
M  V30 2152 O 208.552 -0.227797 -1.92859 0
M  V30 2153 C 205.682 -0.817343 -3.37545 0
M  V30 2154 C 204.636 -1.8754 -3.84724 0
M  V30 2155 C 203.962 -1.39305 -5.16235 0
M  V30 2156 C 205.262 -3.28244 -4.06267 0
M  V30 2157 H 206.956 -2.08975 -2.14406 0
M  V30 2158 H 204.502 -1.00612 -1.03021 0
M  V30 2159 H 206.455 -0.711151 -4.15356 0
M  V30 2160 H 205.179 0.154846 -3.26233 0
M  V30 2161 H 203.838 -1.97079 -3.09121 0
M  V30 2162 H 203.486 -0.409846 -5.01328 0
M  V30 2163 H 203.186 -2.10057 -5.48771 0
M  V30 2164 H 204.71 -1.30014 -5.96598 0
M  V30 2165 H 206.124 -3.21611 -4.74594 0
M  V30 2166 H 204.521 -3.96855 -4.5014 0
M  V30 2167 H 205.591 -3.72048 -3.10979 0
M  V30 2168 N 206.934 1.1197 -1.10907 0
M  V30 2169 C 207.844 2.21433 -0.774896 0
M  V30 2170 C 208.86 1.72478 0.229657 0
M  V30 2171 O 210.036 2.01288 0.0672008 0
M  V30 2172 C 207.101 3.4602 -0.216986 0
M  V30 2173 C 206.162 4.09791 -1.27944 0
M  V30 2174 C 205.395 5.28431 -0.748055 0
M  V30 2175 O 205.618 5.68823 0.423833 0
M  V30 2176 O 204.552 5.82644 -1.51027 0
M  V30 2177 H 208.378 2.5242 -1.68873 0
M  V30 2178 H 205.963 1.20399 -0.884555 0
M  V30 2179 H 207.845 4.21304 0.090059 0
M  V30 2180 H 206.52 3.16698 0.669633 0
M  V30 2181 H 205.427 3.36265 -1.63941 0
M  V30 2182 H 206.76 4.4328 -2.13925 0
M  V30 2183 N 208.412 0.89855 1.29475 0
M  V30 2184 C 209.637 0.538561 2.00285 0
M  V30 2185 C 210.062 -0.869135 1.66816 0
M  V30 2186 O 209.42 -1.57831 0.892145 0
M  V30 2187 C 209.468 0.736475 3.52999 0
M  V30 2188 O 208.572 -0.211537 4.11857 0
M  V30 2189 H 207.913 0.210563 0.62973 0
M  V30 2190 H 210.443 1.20982 1.64998 0
M  V30 2191 H 210.453 0.640685 4.02938 0
M  V30 2192 H 209.128 1.76276 3.76696 0
M  V30 2193 H 207.705 -0.0682991 3.72837 0
M  V30 2194 N 209.89 -1.43072 0.660911 0
M  V30 2195 C 211.137 -2.01721 0.177445 0
M  V30 2196 C 211.465 -1.5218 -1.21126 0
M  V30 2197 O 210.72 -0.708659 -1.82419 0
M  V30 2198 C 211.019 -3.57103 0.145563 0
M  V30 2199 C 210.685 -4.26021 1.47705 0
M  V30 2200 C 209.347 -4.44563 1.84165 0
M  V30 2201 C 211.699 -4.64983 2.35458 0
M  V30 2202 C 209.027 -4.99334 3.0803 0
M  V30 2203 C 211.379 -5.21127 3.58622 0
M  V30 2204 C 210.043 -5.37884 3.95268 0
M  V30 2205 H 209.313 -0.73815 0.0649317 0
M  V30 2206 H 211.96 -1.71446 0.853144 0
M  V30 2207 H 210.265 -3.86965 -0.61361 0
M  V30 2208 H 211.962 -4.00248 -0.2455 0
M  V30 2209 H 208.552 -4.11939 1.18339 0
M  V30 2210 H 212.736 -4.50343 2.08579 0
M  V30 2211 H 207.992 -5.10493 3.36462 0
M  V30 2212 H 212.166 -5.50262 4.26831 0
M  V30 2213 H 209.793 -5.80089 4.91325 0
M  V30 2214 N 211.368 -0.403325 -1.52352 0
M  V30 2215 C 212.593 0.176499 -2.06648 0
M  V30 2216 C 213.018 1.38577 -1.27193 0
M  V30 2217 O 212.376 1.7879 -0.300637 0
M  V30 2218 C 212.424 0.511061 -3.5696 0
M  V30 2219 O 211.528 1.60294 -3.79973 0
M  V30 2220 H 210.869 0.0167337 -0.663789 0
M  V30 2221 H 213.399 -0.574848 -1.96359 0
M  V30 2222 H 213.409 0.771362 -4.00642 0
M  V30 2223 H 212.084 -0.37296 -4.14224 0
M  V30 2224 H 210.661 1.33526 -3.48174 0
M  V30 2225 N 212.846 1.57033 -0.133567 0
M  V30 2226 C 213.809 2.14897 0.796995 0
M  V30 2227 C 214.809 1.0874 1.18458 0
M  V30 2228 O 215.999 1.34446 1.1077 0
M  V30 2229 C 213.131 2.70112 2.07973 0
M  V30 2230 H 214.324 2.98457 0.293873 0
M  V30 2231 H 211.877 1.55871 0.115787 0
M  V30 2232 H 212.612 1.9018 2.62682 0
M  V30 2233 H 212.397 3.47764 1.81115 0
M  V30 2234 H 213.887 3.14738 2.74462 0
M  V30 2235 N 214.325 -0.140222 1.56975 0
M  V30 2236 C 215.602 -0.880769 1.74648 0
M  V30 2237 C 215.982 -1.99036 0.703404 0
M  V30 2238 O 215.33 -2.26821 -0.27648 0
M  V30 2239 C 215.54 -1.417 3.18939 0
M  V30 2240 C 216.888 -1.87774 3.80823 0
M  V30 2241 O 217.912 -1.51427 3.2241 0
M  V30 2242 O 216.771 -2.54827 4.83452 0
M  V30 2243 H 213.865 -0.416713 0.714338 0
M  V30 2244 H 216.411 -0.125618 1.69234 0
M  V30 2245 H 215.183 -0.619902 3.86359 0
M  V30 2246 H 214.806 -2.23546 3.28805 0
M  V30 2247 N 215.803 -1.52179 -0.40978 0
M  V30 2248 C 217.052 -1.65434 -1.15388 0
M  V30 2249 C 217.365 -0.390056 -1.91671 0
M  V30 2250 O 218.571 -0.402399 -2.68501 0
M  V30 2251 C 217.027 -2.92279 -2.10003 0
M  V30 2252 C 216.635 -4.25813 -1.39239 0
M  V30 2253 C 218.379 -3.14897 -2.84675 0
M  V30 2254 C 216.286 -5.43782 -2.32498 0
M  V30 2255 H 215.216 -0.616267 -0.434432 0
M  V30 2256 H 217.867 -1.78666 -0.418401 0
M  V30 2257 H 216.249 -2.72744 -2.871 0
M  V30 2258 H 217.423 -4.55828 -0.675099 0
M  V30 2259 H 215.738 -4.09292 -0.766097 0
M  V30 2260 H 218.335 -4.0021 -3.54593 0
M  V30 2261 H 218.678 -2.29103 -3.47588 0
M  V30 2262 H 219.211 -3.34901 -2.14677 0
M  V30 2263 H 215.95 -6.3192 -1.74233 0
M  V30 2264 H 215.47 -5.18106 -3.02201 0
M  V30 2265 H 217.149 -5.76834 -2.93038 0
M  V30 2266 N 217.281 0.66697 -1.42791 0
M  V30 2267 C 218.228 1.7803 -1.4688 0
M  V30 2268 C 219.198 1.6299 -0.319919 0
M  V30 2269 O 220.383 1.83432 -0.525118 0
M  V30 2270 C 217.523 3.1611 -1.38451 0
M  V30 2271 C 216.636 3.42381 -2.63437 0
M  V30 2272 C 215.771 4.70232 -2.47094 0
M  V30 2273 C 214.81 4.89564 -3.67415 0
M  V30 2274 N 213.947 6.08661 -3.49966 0
M  V30 2275 H 218.787 1.7387 -2.42019 0
M  V30 2276 H 216.324 0.84868 -1.20149 0
M  V30 2277 H 218.282 3.95914 -1.31561 0
M  V30 2278 H 216.912 3.19374 -0.469033 0
M  V30 2279 H 215.964 2.56774 -2.80662 0
M  V30 2280 H 217.276 3.52557 -3.52853 0
M  V30 2281 H 216.43 5.5814 -2.37834 0
M  V30 2282 H 215.169 4.62353 -1.5518 0
M  V30 2283 H 214.174 4.00096 -3.77099 0
M  V30 2284 H 215.399 4.99282 -4.6032 0
M  V30 2285 H 213.345 6.0194 -2.60776 0
M  V30 2286 H 213.262 6.19733 -4.32975 0
M  V30 2287 H 214.53 6.99226 -3.44532 0
M  V30 2288 N 218.759 1.29093 0.90403 0
M  V30 2289 C 219.709 1.10482 1.99443 0
M  V30 2290 C 220.693 0.0255401 1.6088 0
M  V30 2291 O 221.885 0.24677 1.75271 0
M  V30 2292 C 219.014 0.778882 3.34348 0
M  V30 2293 C 218.1 1.89749 3.79284 0
M  V30 2294 N 218.491 3.14045 3.96497 0
M  V30 2295 C 216.789 1.78955 4.08523 0
M  V30 2296 C 217.49 3.86996 4.34292 0
M  V30 2297 N 216.466 3.14909 4.43095 0
M  V30 2298 H 220.268 2.04778 2.10815 0
M  V30 2299 H 217.782 1.20155 1.09255 0
M  V30 2300 H 219.779 0.62661 4.12164 0
M  V30 2301 H 218.439 -0.156205 3.24324 0
M  V30 2302 H 219.45 3.49548 3.82148 0
M  V30 2303 H 216.127 0.926886 4.07081 0
M  V30 2304 H 217.517 4.93941 4.55491 0
M  V30 2305 N 220.237 -1.11381 1.11499 0
M  V30 2306 C 221.467 -1.86663 0.885464 0
M  V30 2307 C 221.875 -1.80464 -0.568281 0
M  V30 2308 O 221.218 -1.18445 -1.40415 0
M  V30 2309 C 221.28 -3.36337 1.26956 0
M  V30 2310 C 220.944 -3.66304 2.73259 0
M  V30 2311 C 221.941 -3.63733 3.71476 0
M  V30 2312 C 219.626 -3.9529 3.09921 0
M  V30 2313 C 221.62 -3.89725 5.04374 0
M  V30 2314 C 219.307 -4.20941 4.43004 0
M  V30 2315 C 220.305 -4.18147 5.40039 0
M  V30 2316 O 219.993 -4.43153 6.70724 0
M  V30 2317 H 219.725 -0.597114 0.316908 0
M  V30 2318 H 222.279 -1.41782 1.48617 0
M  V30 2319 H 220.509 -3.81826 0.611999 0
M  V30 2320 H 222.198 -3.92986 1.01573 0
M  V30 2321 H 222.964 -3.41389 3.44498 0
M  V30 2322 H 218.843 -3.966 2.35009 0
M  V30 2323 H 222.387 -3.8746 5.80104 0
M  V30 2324 H 218.284 -4.42761 4.69716 0
M  V30 2325 H 219.052 -4.60717 6.76522 0
M  V30 2326 N 221.715 -0.905404 -1.28997 0
M  V30 2327 C 222.945 -0.549049 -1.99171 0
M  V30 2328 C 223.353 0.87203 -1.67906 0
M  V30 2329 O 222.696 1.58796 -0.923561 0
M  V30 2330 C 222.758 -0.668306 -3.53234 0
M  V30 2331 C 222.422 -2.0574 -4.08069 0
M  V30 2332 C 223.419 -3.0292 -4.22534 0
M  V30 2333 C 221.104 -2.36833 -4.42962 0
M  V30 2334 C 223.098 -4.29314 -4.71135 0
M  V30 2335 C 220.785 -3.63467 -4.91258 0
M  V30 2336 C 221.783 -4.59522 -5.053 0
M  V30 2337 O 221.471 -5.83907 -5.52546 0
M  V30 2338 H 221.203 -0.208784 -0.64295 0
M  V30 2339 H 223.757 -1.21836 -1.65363 0
M  V30 2340 H 221.987 0.0580547 -3.86656 0
M  V30 2341 H 223.676 -0.320273 -4.04634 0
M  V30 2342 H 224.442 -2.80216 -3.95859 0
M  V30 2343 H 220.321 -1.62824 -4.31288 0
M  V30 2344 H 223.865 -5.04293 -4.8201 0
M  V30 2345 H 219.762 -3.86 -5.17372 0
M  V30 2346 H 220.53 -5.86578 -5.70849 0
M  V30 2347 N 223.193 1.4272 -0.668489 0
M  V30 2348 C 224.103 2.34596 0.0139753 0
M  V30 2349 C 225.119 1.5474 0.795703 0
M  V30 2350 O 226.295 1.87334 0.739466 0
M  V30 2351 C 223.36 3.33202 0.957982 0
M  V30 2352 C 222.421 4.28957 0.17149 0
M  V30 2353 C 221.654 5.22853 1.07053 0
M  V30 2354 O 221.877 5.21531 2.31001 0
M  V30 2355 O 220.811 5.9952 0.534727 0
M  V30 2356 H 224.637 2.9448 -0.742661 0
M  V30 2357 H 222.222 1.43117 -0.428705 0
M  V30 2358 H 224.104 3.93796 1.50008 0
M  V30 2359 H 222.779 2.758 1.69458 0
M  V30 2360 H 221.686 3.71796 -0.414558 0
M  V30 2361 H 223.019 4.89383 -0.52586 0
M  V30 2362 N 224.671 0.411399 1.52136 0
M  V30 2363 C 225.896 -0.165538 2.06738 0
M  V30 2364 C 226.321 -1.379 1.27926 0
M  V30 2365 O 225.679 -1.78628 0.310114 0
M  V30 2366 C 225.727 -0.492124 3.57226 0
M  V30 2367 O 224.831 -1.58276 3.80818 0
M  V30 2368 H 224.172 -0.0132132 0.663869 0
M  V30 2369 H 226.702 0.585253 1.96051 0
M  V30 2370 H 226.712 -0.750104 4.01045 0
M  V30 2371 H 225.387 0.394922 4.14021 0
M  V30 2372 H 223.964 -1.31677 3.48877 0
M  V30 2373 N 226.149 -1.5696 0.141893 0
M  V30 2374 C 227.059 -2.20066 -0.812905 0
M  V30 2375 C 228.075 -1.18344 -1.27557 0
M  V30 2376 O 229.251 -1.50902 -1.33381 0
M  V30 2377 C 226.316 -2.80583 -2.03652 0
M  V30 2378 C 225.377 -3.97414 -1.62359 0
M  V30 2379 C 224.61 -4.55036 -2.78887 0
M  V30 2380 O 224.833 -4.11538 -3.94959 0
M  V30 2381 O 223.767 -5.45376 -2.54653 0
M  V30 2382 H 227.593 -3.02157 -0.305746 0
M  V30 2383 H 225.178 -1.49159 -0.0848799 0
M  V30 2384 H 227.06 -3.19067 -2.75272 0
M  V30 2385 H 225.735 -2.01508 -2.5333 0
M  V30 2386 H 224.642 -3.63656 -0.877775 0
M  V30 2387 H 225.975 -4.77994 -1.17401 0
M  V30 2388 N 227.627 0.131896 -1.57047 0
M  V30 2389 C 228.873 0.843179 -1.84441 0
M  V30 2390 C 229.206 1.80129 -0.725749 0
M  V30 2391 O 228.481 1.92624 0.269469 0
M  V30 2392 C 228.764 1.60442 -3.22382 0
M  V30 2393 C 228.617 0.666782 -4.4483 0
M  V30 2394 C 229.936 2.56354 -3.5773 0
M  V30 2395 H 227.055 0.305081 -0.670891 0
M  V30 2396 H 229.697 0.107839 -1.89694 0
M  V30 2397 H 227.847 2.23128 -3.18035 0
M  V30 2398 H 229.519 0.0497646 -4.61273 0
M  V30 2399 H 227.762 -0.022609 -4.33794 0
M  V30 2400 H 228.433 1.23579 -5.37989 0
M  V30 2401 H 230.909 2.0378 -3.62785 0
M  V30 2402 H 229.785 3.06657 -4.5525 0
M  V30 2403 H 230.046 3.38419 -2.84473 0
M  V30 2404 N 229.106 1.52395 0.401703 0
M  V30 2405 C 230.036 1.79231 1.49661 0
M  V30 2406 C 231.017 0.643654 1.57452 0
M  V30 2407 O 232.202 0.889989 1.72606 0
M  V30 2408 C 229.332 1.94971 2.87409 0
M  V30 2409 C 228.286 3.10604 2.94465 0
M  V30 2410 C 227.612 3.11577 4.34538 0
M  V30 2411 C 228.912 4.49921 2.6527 0
M  V30 2412 H 230.606 2.70917 1.27454 0
M  V30 2413 H 228.152 1.30362 0.6117 0
M  V30 2414 H 230.105 2.12328 3.63999 0
M  V30 2415 H 228.829 0.999632 3.10926 0
M  V30 2416 H 227.488 2.93009 2.20321 0
M  V30 2417 H 227.136 2.14277 4.55076 0
M  V30 2418 H 226.836 3.89247 4.40183 0
M  V30 2419 H 228.36 3.31073 5.13053 0
M  V30 2420 H 229.774 4.67683 3.31581 0
M  V30 2421 H 228.171 5.29564 2.82281 0
M  V30 2422 H 229.241 4.57507 1.60671 0
M  V30 2423 N 230.584 -0.659388 1.43143 0
M  V30 2424 C 231.547 -1.75432 1.47501 0
M  V30 2425 C 232.547 -1.56707 0.360512 0
M  V30 2426 O 233.737 -1.62717 0.622002 0
M  V30 2427 C 230.869 -3.14239 1.32162 0
M  V30 2428 H 232.062 -1.7295 2.45006 0
M  V30 2429 H 229.615 -0.870469 1.29817 0
M  V30 2430 H 230.35 -3.22336 0.356401 0
M  V30 2431 H 230.135 -3.29235 2.12948 0
M  V30 2432 H 231.625 -3.94094 1.3813 0
M  V30 2433 N 232.062 -1.29571 -0.897171 0
M  V30 2434 C 232.995 -1.0924 -2.00354 0
M  V30 2435 C 233.973 -0.00354011 -1.626 0
M  V30 2436 O 235.157 -0.15473 -1.87864 0
M  V30 2437 C 232.284 -0.66352 -3.32137 0
M  V30 2438 C 231.33 -1.75146 -3.88878 0
M  V30 2439 S 232.163 -3.35124 -4.17674 0
M  V30 2440 C 233.319 -2.9411 -5.52494 0
M  V30 2441 H 233.552 -2.02907 -2.17292 0
M  V30 2442 H 231.085 -1.13746 -1.04408 0
M  V30 2443 H 233.043 -0.422791 -4.08317 0
M  V30 2444 H 231.704 0.253588 -3.13075 0
M  V30 2445 H 230.897 -1.40337 -4.84068 0
M  V30 2446 H 230.499 -1.94584 -3.19395 0
M  V30 2447 H 232.791 -2.41312 -6.33068 0
M  V30 2448 H 233.734 -3.88161 -5.9223 0
M  V30 2449 H 234.142 -2.32332 -5.14473 0
M  V30 2450 N 233.54 1.10788 -1.12088 0
M  V30 2451 C 234.488 2.19111 -0.780587 0
M  V30 2452 C 235.482 1.67818 0.230961 0
M  V30 2453 O 236.688 1.79777 0.0895427 0
M  V30 2454 H 233.063 0.714477 -0.234578 0
M  V30 2455 H 235.034 2.45055 -1.70266 0
M  V30 2456 C 233.783 3.46818 -0.24747 0
M  V30 2457 H 233.106 3.86646 -1.01712 0
M  V30 2458 H 234.546 4.23973 -0.0476291 0
M  V30 2459 C 233.005 3.20968 1.02378 0
M  V30 2460 O 233.535 3.42298 2.10226 0
M  V30 2461 N 231.741 2.74658 0.949271 0
M  V30 2462 H 231.288 2.57501 0.0715173 0
M  V30 2463 H 231.246 2.57739 1.80049 0
M  V30 2464 N 235.018 0.912232 1.28515 0
M  V30 2465 C 236.265 0.544599 1.95039 0
M  V30 2466 C 236.593 -0.911435 1.71823 0
M  V30 2467 O 235.848 -1.66317 1.03137 0
M  V30 2468 C 236.147 0.798392 3.48368 0
M  V30 2469 C 235.813 2.23374 3.91682 0
M  V30 2470 C 234.475 2.62617 4.03219 0
M  V30 2471 C 236.827 3.16786 4.13879 0
M  V30 2472 C 234.155 3.94429 4.3433 0
M  V30 2473 C 236.507 4.48161 4.46469 0
M  V30 2474 C 235.171 4.8726 4.56217 0
M  V30 2475 H 234.441 0.199283 0.7137 0
M  V30 2476 H 237.088 1.15327 1.52879 0
M  V30 2477 H 235.393 0.106908 3.91654 0
M  V30 2478 H 237.09 0.493141 3.97956 0
M  V30 2479 H 233.68 1.91922 3.83228 0
M  V30 2480 H 237.864 2.87677 4.0442 0
M  V30 2481 H 233.12 4.24426 4.40082 0
M  V30 2482 H 237.294 5.20559 4.62592 0
M  V30 2483 H 234.921 5.89431 4.80078 0
M  V30 2484 N 236.496 -1.42363 0.676048 0
M  V30 2485 C 237.428 -2.29164 -0.0404605 0
M  V30 2486 C 238.441 -1.43747 -0.764245 0
M  V30 2487 O 239.63 -1.67453 -0.618195 0
M  V30 2488 C 236.73 -3.21196 -1.08103 0
M  V30 2489 C 235.903 -4.35273 -0.430812 0
M  V30 2490 C 234.962 -5.08017 -1.37133 0
M  V30 2491 O 233.988 -5.62494 -0.87116 0
M  V30 2492 N 235.19 -5.13647 -2.70456 0
M  V30 2493 H 237.955 -2.91298 0.704667 0
M  V30 2494 H 235.516 -1.53303 0.520559 0
M  V30 2495 H 237.508 -3.66728 -1.71152 0
M  V30 2496 H 236.078 -2.60505 -1.72788 0
M  V30 2497 H 235.298 -3.92372 0.379209 0
M  V30 2498 H 236.586 -5.08795 0.0221132 0
M  V30 2499 H 235.984 -4.708 -3.1363 0
M  V30 2500 H 234.541 -5.62821 -3.28749 0
M  V30 2501 N 237.974 -0.419461 -1.51915 0
M  V30 2502 C 239.251 0.211999 -1.94448 0
M  V30 2503 C 239.631 1.61703 -1.35703 0
M  V30 2504 O 238.979 2.22102 -0.536931 0
M  V30 2505 C 239.189 0.207872 -3.4838 0
M  V30 2506 C 240.537 0.422192 -4.22496 0
M  V30 2507 O 241.561 0.286778 -3.55044 0
M  V30 2508 O 240.42 0.690009 -5.42126 0
M  V30 2509 H 237.514 0.139586 -0.815135 0
M  V30 2510 H 240.06 -0.476151 -1.62883 0
M  V30 2511 H 238.832 -0.775102 -3.83546 0
M  V30 2512 H 238.455 0.939688 -3.86336 0
M  V30 2513 N 239.452 1.56882 -0.150215 0
M  V30 2514 C 240.698 1.97299 0.494427 0
M  V30 2515 C 241.053 1.0338 1.62266 0
M  V30 2516 O 240.346 0.0694497 1.91474 0
M  V30 2517 C 240.54 3.41801 1.04437 0
M  V30 2518 C 240.369 4.49691 -0.0290451 0
M  V30 2519 C 239.139 5.03095 -0.47156 0
M  V30 2520 C 241.337 5.07693 -0.821703 0
M  V30 2521 N 239.319 5.94593 -1.52749 0
M  V30 2522 C 240.69 5.95431 -1.72805 0
M  V30 2523 C 242.745 4.90256 -0.869134 0
M  V30 2524 C 241.448 6.67599 -2.67777 0
M  V30 2525 C 243.474 5.63127 -1.8067 0
M  V30 2526 C 242.836 6.50576 -2.70057 0
M  V30 2527 H 238.935 0.76755 0.149639 0
M  V30 2528 H 241.519 1.93145 -0.24556 0
M  V30 2529 H 239.69 3.46541 1.75396 0
M  V30 2530 H 241.422 3.69272 1.6559 0
M  V30 2531 H 238.177 4.73543 -0.0732101 0
M  V30 2532 H 238.601 6.45047 -2.05531 0
M  V30 2533 H 243.243 4.22363 -0.192134 0
M  V30 2534 H 240.961 7.34717 -3.36476 0
M  V30 2535 H 244.547 5.51629 -1.84924 0
M  V30 2536 H 243.427 7.05974 -3.41424 0
M  V30 2537 N 240.93 -0.123565 1.57115 0
M  V30 2538 C 241.893 -1.13583 1.99076 0
M  V30 2539 C 242.893 -1.34564 0.880296 0
M  V30 2540 O 244.083 -1.31158 1.14644 0
M  V30 2541 C 241.215 -2.49128 2.32698 0
M  V30 2542 H 242.408 -0.775287 2.89706 0
M  V30 2543 H 239.961 -0.36771 1.51913 0
M  V30 2544 H 240.696 -2.90111 1.44934 0
M  V30 2545 H 240.481 -2.35255 3.13684 0
M  V30 2546 H 241.971 -3.2199 2.65918 0
M  V30 2547 N 242.408 -1.52605 -0.393616 0
M  V30 2548 C 243.636 -1.71294 -1.16043 0
M  V30 2549 C 244.051 -0.429259 -1.83855 0
M  V30 2550 O 243.408 0.595921 -1.72496 0
M  V30 2551 C 243.459 -2.8593 -2.21193 0
M  V30 2552 O 243.18 -4.09329 -1.56146 0
M  V30 2553 C 244.681 -3.16259 -3.10636 0
M  V30 2554 H 241.901 -0.573641 -0.348104 0
M  V30 2555 H 244.445 -1.99234 -0.461092 0
M  V30 2556 H 242.6 -2.60465 -2.86769 0
M  V30 2557 H 243.014 -4.73323 -2.25978 0
M  V30 2558 H 244.488 -3.99946 -3.80456 0
M  V30 2559 H 244.965 -2.3045 -3.73884 0
M  V30 2560 H 245.571 -3.43547 -2.50711 0
M  V30 2561 N 243.887 0.651787 -1.4349 0
M  V30 2562 C 244.85 1.74647 -1.48429 0
M  V30 2563 C 245.85 1.56513 -0.368817 0
M  V30 2564 O 247.04 1.62385 -0.630623 0
M  V30 2565 C 244.172 3.13533 -1.33827 0
M  V30 2566 H 245.365 1.71649 -2.4592 0
M  V30 2567 H 242.918 0.863573 -1.30277 0
M  V30 2568 H 243.653 3.22142 -0.37349 0
M  V30 2569 H 243.438 3.28101 -2.14691 0
M  V30 2570 H 244.928 3.93356 -1.40218 0
M  V30 2571 N 245.365 1.30045 0.890287 0
M  V30 2572 C 246.59 1.21598 1.68014 0
M  V30 2573 C 247.015 -0.218678 1.86825 0
M  V30 2574 O 246.373 -1.15756 1.39536 0
M  V30 2575 C 246.421 1.94434 3.03691 0
M  V30 2576 O 245.525 1.2678 3.92429 0
M  V30 2577 H 244.866 0.420856 0.513592 0
M  V30 2578 H 247.396 1.71775 1.11151 0
M  V30 2579 H 247.406 2.03251 3.5377 0
M  V30 2580 H 246.081 2.98777 2.89318 0
M  V30 2581 H 244.658 1.26282 3.50866 0
M  V30 2582 N 246.843 -1.10192 1.12674 0
M  V30 2583 C 248.259 -1.34235 0.863317 0
M  V30 2584 C 248.459 -1.95062 -0.505277 0
M  V30 2585 O 247.515 -2.19192 -1.25345 0
M  V30 2586 C 248.828 -2.2616 1.98172 0
M  V30 2587 C 250.376 -2.3969 2.0129 0
M  V30 2588 C 250.851 -3.34946 3.1237 0
M  V30 2589 N 252.342 -3.42515 3.11829 0
M  V30 2590 C 253.077 -4.16199 3.94419 0
M  V30 2591 N 252.573 -4.92747 4.87004 0
M  V30 2592 N 254.366 -4.11843 3.82547 0
M  V30 2593 H 246.517 -0.690798 2.00853 0
M  V30 2594 H 248.78 -0.366774 0.874174 0
M  V30 2595 H 248.486 -1.8868 2.96804 0
M  V30 2596 H 248.36 -3.26488 1.88906 0
M  V30 2597 H 250.747 -2.76438 1.03276 0
M  V30 2598 H 250.828 -1.39169 2.14629 0
M  V30 2599 H 250.472 -2.98923 4.10619 0
M  V30 2600 H 250.402 -4.35353 2.96269 0
M  V30 2601 H 252.893 -2.87926 2.44759 0
M  V30 2602 H 253.206 -5.46376 5.46528 0
M  V30 2603 H 251.551 -4.91862 4.91016 0
M  V30 2604 H 254.742 -3.51136 3.0955 0
M  V30 2605 H 254.915 -4.69007 4.47142 0
M  V30 2606 N 248.321 -0.919034 -1.28029 0
M  V30 2607 C 249.253 -0.368762 -2.26214 0
M  V30 2608 C 250.266 0.495716 -1.55069 0
M  V30 2609 O 251.455 0.30974 -1.75792 0
M  V30 2610 C 248.555 0.491049 -3.35324 0
M  V30 2611 C 247.728 -0.352133 -4.3598 0
M  V30 2612 C 246.787 0.443622 -5.24327 0
M  V30 2613 O 245.813 -0.14566 -5.69014 0
M  V30 2614 N 247.015 1.74545 -5.53637 0
M  V30 2615 H 249.78 -1.21273 -2.74068 0
M  V30 2616 H 247.341 -0.785541 -1.41566 0
M  V30 2617 H 249.333 1.03026 -3.91366 0
M  V30 2618 H 247.903 1.23574 -2.87138 0
M  V30 2619 H 247.123 -1.07269 -3.79324 0
M  V30 2620 H 248.411 -0.928883 -5.00249 0
M  V30 2621 H 247.809 2.24666 -5.19174 0
M  V30 2622 H 246.366 2.23138 -6.12416 0
M  V30 2623 N 249.799 1.42003 -0.683588 0
M  V30 2624 C 251.048 2.00638 -0.206681 0
M  V30 2625 C 251.361 1.5472 1.19671 0
M  V30 2626 O 252.567 2.05833 1.77045 0
M  V30 2627 C 251.023 3.58487 -0.318632 0
M  V30 2628 C 250.631 4.1339 -1.72663 0
M  V30 2629 C 252.375 4.24384 0.0991141 0
M  V30 2630 C 250.282 5.63633 -1.79087 0
M  V30 2631 H 249.212 0.750408 -0.0735107 0
M  V30 2632 H 251.863 1.62624 -0.850048 0
M  V30 2633 H 250.245 3.94047 0.392781 0
M  V30 2634 H 251.419 3.89273 -2.46583 0
M  V30 2635 H 249.734 3.59976 -2.09299 0
M  V30 2636 H 252.331 5.34652 0.0713833 0
M  V30 2637 H 252.674 4.00505 1.13586 0
M  V30 2638 H 253.207 3.93816 -0.561599 0
M  V30 2639 H 249.946 5.92323 -2.80774 0
M  V30 2640 H 249.466 5.89714 -1.09535 0
M  V30 2641 H 251.145 6.28201 -1.5483 0
M  V30 2642 N 251.277 0.427512 1.51691 0
M  V30 2643 C 252.225 -0.403359 2.29076 0
M  V30 2644 C 253.219 -1.02962 1.34518 0
M  V30 2645 O 254.425 -0.965715 1.51901 0
M  V30 2646 H 250.8 -0.148879 0.737115 0
M  V30 2647 H 252.771 0.270295 2.97173 0
M  V30 2648 C 251.52 -1.49763 3.13794 0
M  V30 2649 H 250.843 -1.02508 3.86435 0
M  V30 2650 H 252.283 -2.05244 3.71014 0
M  V30 2651 C 250.742 -2.47536 2.28533 0
M  V30 2652 O 251.272 -3.51848 1.93819 0
M  V30 2653 N 249.478 -2.18187 1.91945 0
M  V30 2654 H 249.025 -1.33389 2.20375 0
M  V30 2655 H 248.983 -2.83848 1.35195 0
M  V30 2656 N 252.755 -1.56801 0.158532 0
M  V30 2657 C 253.98 -2.01295 -0.499516 0
M  V30 2658 C 254.405 -1.03799 -1.56867 0
M  V30 2659 O 253.763 -0.0155162 -1.81293 0
M  V30 2660 C 253.811 -3.44469 -1.06647 0
M  V30 2661 O 252.915 -3.50012 -2.18095 0
M  V30 2662 H 252.256 -0.652884 -0.12099 0
M  V30 2663 H 254.786 -2.02958 0.258661 0
M  V30 2664 H 254.796 -3.8351 -1.39227 0
M  V30 2665 H 253.471 -4.14932 -0.283581 0
M  V30 2666 H 252.048 -3.22822 -1.86656 0
M  V30 2667 N 254.233 0.115231 -1.57178 0
M  V30 2668 C 255.463 0.835224 -1.88964 0
M  V30 2669 C 255.871 1.73774 -0.74829 0
M  V30 2670 O 255.214 1.81401 0.289739 0
M  V30 2671 C 255.276 1.7178 -3.15804 0
M  V30 2672 C 254.94 0.989198 -4.46166 0
M  V30 2673 C 255.937 0.328263 -5.18863 0
M  V30 2674 C 253.622 0.969256 -4.9286 0
M  V30 2675 C 255.616 -0.342873 -6.36477 0
M  V30 2676 C 253.303 0.294324 -6.10391 0
M  V30 2677 C 254.301 -0.360582 -6.82048 0
M  V30 2678 O 253.989 -1.02474 -7.97342 0
M  V30 2679 H 253.721 0.245197 -0.629964 0
M  V30 2680 H 256.275 0.10303 -2.05141 0
M  V30 2681 H 254.505 2.49173 -2.95719 0
M  V30 2682 H 256.194 2.31255 -3.33581 0
M  V30 2683 H 256.96 0.335263 -4.8384 0
M  V30 2684 H 252.839 1.46844 -4.36987 0
M  V30 2685 H 256.383 -0.854629 -6.92345 0
M  V30 2686 H 252.28 0.285099 -6.4487 0
M  V30 2687 H 253.048 -0.929594 -8.13204 0
M  V30 2688 N 255.711 1.52812 0.385517 0
M  V30 2689 C 256.957 1.68275 1.13188 0
M  V30 2690 C 257.29 0.423179 1.89533 0
M  V30 2691 O 256.565 -0.579113 1.85679 0
M  V30 2692 C 256.848 2.92001 2.1073 0
M  V30 2693 C 256.701 4.28067 1.38125 0
M  V30 2694 C 258.02 3.11283 3.11113 0
M  V30 2695 H 255.139 0.612352 0.410115 0
M  V30 2696 H 257.781 1.85415 0.414869 0
M  V30 2697 H 255.931 2.77519 2.71874 0
M  V30 2698 H 257.603 4.54324 0.799187 0
M  V30 2699 H 255.846 4.28388 0.683092 0
M  V30 2700 H 256.517 5.10733 2.09417 0
M  V30 2701 H 258.993 3.2482 2.6006 0
M  V30 2702 H 257.869 3.99325 3.76605 0
M  V30 2703 H 258.13 2.25656 3.80173 0
M  V30 2704 N 257.189 -0.644168 1.43834 0
M  V30 2705 C 258.136 -1.75671 1.49694 0
M  V30 2706 C 259.106 -1.6246 0.345809 0
M  V30 2707 O 260.291 -1.82573 0.554234 0
M  V30 2708 C 257.431 -3.13867 1.43463 0
M  V30 2709 C 256.544 -3.38147 2.6885 0
M  V30 2710 C 255.679 -4.66241 2.54544 0
M  V30 2711 C 254.718 -4.83657 3.75157 0
M  V30 2712 N 253.855 -6.03016 3.59605 0
M  V30 2713 H 258.695 -1.69998 2.44754 0
M  V30 2714 H 256.232 -0.829458 1.21484 0
M  V30 2715 H 258.19 -3.9377 1.37843 0
M  V30 2716 H 256.82 -3.18588 0.519783 0
M  V30 2717 H 255.872 -2.52276 2.84712 0
M  V30 2718 H 257.184 -3.46899 3.58417 0
M  V30 2719 H 256.338 -5.54285 2.46683 0
M  V30 2720 H 255.077 -4.59826 1.62516 0
M  V30 2721 H 254.082 -3.94046 3.83416 0
M  V30 2722 H 255.307 -4.91896 4.68204 0
M  V30 2723 H 253.253 -5.97715 2.7032 0
M  V30 2724 H 253.17 -6.12766 4.42779 0
M  V30 2725 H 254.438 -6.93657 3.55613 0
M  V30 2726 N 258.668 -1.30515 -0.883378 0
M  V30 2727 C 259.616 -1.16941 -2.01066 0
M  V30 2728 C 260.61 -0.0809148 -1.69207 0
M  V30 2729 O 261.816 -0.241877 -1.78367 0
M  V30 2730 H 258.191 -0.361705 -0.659298 0
M  V30 2731 H 260.162 -2.12344 -2.09649 0
M  V30 2732 C 258.911 -0.879694 -3.36388 0
M  V30 2733 H 258.234 -1.70936 -3.61415 0
M  V30 2734 H 259.674 -0.82483 -4.159 0
M  V30 2735 C 258.133 0.417409 -3.34304 0
M  V30 2736 O 258.663 1.43843 -3.75063 0
M  V30 2737 N 256.869 0.429141 -2.87414 0
M  V30 2738 H 256.416 -0.402222 -2.5444 0
M  V30 2739 H 256.374 1.29696 -2.86403 0
M  V30 2740 N 260.146 1.09593 -1.13257 0
M  V30 2741 C 261.093 2.1618 -0.808381 0
M  V30 2742 C 262.063 1.64517 0.228754 0
M  V30 2743 O 263.248 1.9053 0.101381 0
M  V30 2744 C 260.388 3.43973 -0.278675 0
M  V30 2745 C 259.501 4.09545 -1.37466 0
M  V30 2746 C 258.636 5.25088 -0.803479 0
M  V30 2747 C 257.675 5.82579 -1.87799 0
M  V30 2748 N 256.812 6.89486 -1.32488 0
M  V30 2749 H 261.652 2.43254 -1.72138 0
M  V30 2750 H 259.189 1.19392 -0.859294 0
M  V30 2751 H 261.147 4.17174 0.0465583 0
M  V30 2752 H 259.777 3.17223 0.597459 0
M  V30 2753 H 258.829 3.34226 -1.81652 0
M  V30 2754 H 260.141 4.48307 -2.18684 0
M  V30 2755 H 259.295 6.05178 -0.429427 0
M  V30 2756 H 258.034 4.87684 0.0397956 0
M  V30 2757 H 257.039 5.01152 -2.26113 0
M  V30 2758 H 258.264 6.22045 -2.72463 0
M  V30 2759 H 256.21 6.54064 -0.503575 0
M  V30 2760 H 256.127 7.27007 -2.07355 0
M  V30 2761 H 257.395 7.73336 -0.978336 0
M  V30 2762 N 261.624 0.925811 1.2754 0
M  V30 2763 C 262.852 0.581509 1.9856 0
M  V30 2764 C 263.267 -0.840041 1.69082 0
M  V30 2765 O 262.624 -1.55805 0.950312 0
M  V30 2766 C 262.675 0.795589 3.52637 0
M  V30 2767 O 262.396 2.16121 3.81082 0
M  V30 2768 C 263.897 0.459744 4.4091 0
M  V30 2769 H 261.117 0.220538 0.633722 0
M  V30 2770 H 263.661 1.24232 1.6244 0
M  V30 2771 H 261.816 0.18161 3.86974 0
M  V30 2772 H 262.23 2.2098 4.75676 0
M  V30 2773 H 263.704 0.660244 5.48037 0
M  V30 2774 H 264.181 -0.604625 4.35018 0
M  V30 2775 H 264.787 1.05178 4.12089 0
M  V30 2776 N 263.102 -1.41638 0.69111 0
M  V30 2777 C 264.034 -2.29194 -0.0161523 0
M  V30 2778 C 265.047 -1.44549 -0.748955 0
M  V30 2779 O 266.236 -1.681 -0.6004 0
M  V30 2780 C 263.336 -3.22325 -1.0469 0
M  V30 2781 C 262.509 -4.35706 -0.384621 0
M  V30 2782 C 261.568 -5.09443 -1.31737 0
M  V30 2783 O 260.594 -5.63386 -0.811451 0
M  V30 2784 N 261.796 -5.16487 -2.64993 0
M  V30 2785 H 264.561 -2.90534 0.735523 0
M  V30 2786 H 262.122 -1.52742 0.53679 0
M  V30 2787 H 264.114 -3.68522 -1.67252 0
M  V30 2788 H 262.684 -2.62323 -1.70015 0
M  V30 2789 H 261.904 -3.91948 0.420804 0
M  V30 2790 H 263.192 -5.08743 0.0760765 0
M  V30 2791 H 262.59 -4.741 -3.08619 0
M  V30 2792 H 261.147 -5.66276 -3.22761 0
M  V30 2793 N 264.58 -0.43555 -1.51462 0
M  V30 2794 C 265.828 0.131254 -2.01673 0
M  V30 2795 C 266.149 1.43368 -1.32177 0
M  V30 2796 O 265.419 1.90524 -0.455769 0
M  V30 2797 H 263.999 0.0514954 -0.745223 0
M  V30 2798 H 266.661 -0.577847 -1.86137 0
M  V30 2799 H 265.757 0.308446 -3.10572 0
M  V30 2800 N 266.058 1.56714 -0.166846 0
M  V30 2801 C 267.005 2.17746 0.765193 0
M  V30 2802 C 267.975 1.11614 1.23011 0
M  V30 2803 O 269.16 1.39745 1.29908 0
M  V30 2804 C 266.3 2.81882 1.9909 0
M  V30 2805 C 265.413 4.02462 1.56997 0
M  V30 2806 C 264.548 4.54537 2.749 0
M  V30 2807 C 263.587 5.67538 2.29275 0
M  V30 2808 N 262.724 6.14142 3.40255 0
M  V30 2809 H 267.564 2.97048 0.237952 0
M  V30 2810 H 265.101 1.4672 0.105725 0
M  V30 2811 H 267.059 3.17221 2.70974 0
M  V30 2812 H 265.689 2.05191 2.49192 0
M  V30 2813 H 264.741 3.72973 0.748037 0
M  V30 2814 H 266.053 4.84273 1.19503 0
M  V30 2815 H 265.207 4.92035 3.54946 0
M  V30 2816 H 263.946 3.71774 3.1565 0
M  V30 2817 H 262.951 5.29597 1.47674 0
M  V30 2818 H 264.176 6.52099 1.89588 0
M  V30 2819 H 262.122 5.3431 3.8059 0
M  V30 2820 H 262.039 6.9093 3.06841 0
M  V30 2821 H 263.307 6.56289 4.206 0
M  V30 2822 N 267.536 -0.106894 1.57237 0
M  V30 2823 C 268.785 -0.811163 1.8467 0
M  V30 2824 C 269.098 -1.80469 0.754342 0
M  V30 2825 O 270.304 -2.55601 0.915439 0
M  V30 2826 C 268.76 -1.49337 3.27454 0
M  V30 2827 C 268.368 -0.540217 4.44731 0
M  V30 2828 C 270.112 -2.18206 3.64124 0
M  V30 2829 C 268.019 -1.22634 5.78545 0
M  V30 2830 H 266.949 -0.306679 0.688813 0
M  V30 2831 H 269.6 -0.0639887 1.83388 0
M  V30 2832 H 267.982 -2.2876 3.23241 0
M  V30 2833 H 269.156 0.221659 4.60267 0
M  V30 2834 H 267.471 0.042146 4.16379 0
M  V30 2835 H 270.068 -2.70253 4.61376 0
M  V30 2836 H 270.411 -2.96562 2.92158 0
M  V30 2837 H 270.944 -1.45658 3.70174 0
M  V30 2838 H 267.683 -0.483832 6.53712 0
M  V30 2839 H 267.203 -1.95993 5.66874 0
M  V30 2840 H 268.882 -1.75615 6.2271 0
M  V30 2841 N 269.014 -1.53014 -0.377408 0
M  V30 2842 C 270.26 -1.68872 -1.12294 0
M  V30 2843 C 270.593 -0.433224 -1.89306 0
M  V30 2844 O 269.868 0.569258 -1.85983 0
M  V30 2845 C 270.151 -2.93115 -2.09179 0
M  V30 2846 C 270.004 -4.28794 -1.35853 0
M  V30 2847 C 271.323 -3.12928 -3.09458 0
M  V30 2848 H 268.442 -0.614518 -0.406862 0
M  V30 2849 H 271.084 -1.85633 -0.40503 0
M  V30 2850 H 269.234 -2.78956 -2.70399 0
M  V30 2851 H 270.906 -4.54742 -0.775082 0
M  V30 2852 H 269.149 -4.28744 -0.660364 0
M  V30 2853 H 269.82 -5.11837 -2.06706 0
M  V30 2854 H 272.296 -3.26194 -2.58334 0
M  V30 2855 H 271.172 -4.01316 -3.74482 0
M  V30 2856 H 271.433 -2.27669 -3.78971 0
M  V30 2857 N 270.492 0.636531 -1.44174 0
M  V30 2858 C 271.769 1.39463 -1.37148 0
M  V30 2859 C 272.149 2.11082 -0.027507 0
M  V30 2860 O 271.497 2.05954 0.989716 0
M  V30 2861 C 271.707 2.36552 -2.56601 0
M  V30 2862 C 273.055 3.00048 -3.00427 0
M  V30 2863 O 274.079 2.46878 -2.56767 0
M  V30 2864 O 272.938 3.96488 -3.76111 0
M  V30 2865 H 270.032 0.623903 -0.542839 0
M  V30 2866 H 272.578 0.662039 -1.56253 0
M  V30 2867 H 271.35 1.82692 -3.46034 0
M  V30 2868 H 270.973 3.17236 -2.39681 0
M  V30 2869 N 271.97 1.30982 0.876444 0
M  V30 2870 C 272.9 1.20668 1.99903 0
M  V30 2871 C 273.881 0.095354 1.69833 0
M  V30 2872 O 275.066 0.27885 1.92188 0
M  V30 2873 C 272.196 0.90655 3.3526 0
M  V30 2874 C 271.15 1.97675 3.79617 0
M  V30 2875 C 270.476 1.52943 5.1236 0
M  V30 2876 C 271.776 3.389 3.97422 0
M  V30 2877 H 273.47 2.14586 2.0879 0
M  V30 2878 H 271.016 1.03308 1.00317 0
M  V30 2879 H 272.969 0.821025 4.13324 0
M  V30 2880 H 271.693 -0.0682969 3.26529 0
M  V30 2881 H 270.352 2.05205 3.03787 0
M  V30 2882 H 270 0.54262 5.00065 0
M  V30 2883 H 269.7 2.24532 5.43009 0
M  V30 2884 H 271.224 1.45786 5.92941 0
M  V30 2885 H 272.638 3.34081 4.659 0
M  V30 2886 H 271.035 4.0865 4.3946 0
M  V30 2887 H 272.105 3.80163 3.01006 0
M  V30 2888 N 273.449 -1.08991 1.13837 0
M  V30 2889 C 274.696 -1.81258 0.902882 0
M  V30 2890 C 275.024 -1.85936 -0.570803 0
M  V30 2891 O 274.279 -1.3267 -1.43865 0
M  V30 2892 C 274.578 -3.27042 1.44147 0
M  V30 2893 C 274.244 -3.4249 2.93276 0
M  V30 2894 C 272.906 -3.46414 3.33992 0
M  V30 2895 C 275.258 -3.4666 3.892 0
M  V30 2896 C 272.586 -3.52091 4.69307 0
M  V30 2897 C 274.938 -3.53872 5.24364 0
M  V30 2898 C 273.602 -3.56066 5.646 0
M  V30 2899 H 272.872 -0.663268 0.330388 0
M  V30 2900 H 275.519 -1.28368 1.42105 0
M  V30 2901 H 273.824 -3.82599 0.844097 0
M  V30 2902 H 275.521 -3.81499 1.23528 0
M  V30 2903 H 272.111 -3.40124 2.60794 0
M  V30 2904 H 276.295 -3.42865 3.58828 0
M  V30 2905 H 271.551 -3.52079 4.9985 0
M  V30 2906 H 275.725 -3.56043 5.98503 0
M  V30 2907 H 273.352 -3.60218 6.69438 0
M  V30 2908 N 274.927 -0.932562 -1.27047 0
M  V30 2909 C 276.152 -0.591474 -1.98787 0
M  V30 2910 C 276.577 0.824601 -1.69062 0
M  V30 2911 O 275.935 1.5541 -0.933677 0
M  V30 2912 C 275.983 -0.829808 -3.50922 0
M  V30 2913 O 275.087 0.102266 -4.12273 0
M  V30 2914 H 274.428 -0.227185 -0.623926 0
M  V30 2915 H 276.958 -1.25314 -1.61733 0
M  V30 2916 H 276.968 -0.747292 -4.01098 0
M  V30 2917 H 275.643 -1.86201 -3.7189 0
M  V30 2918 H 274.22 -0.0305761 -3.72887 0
M  V30 2919 N 276.405 1.4127 -0.698611 0
M  V30 2920 C 277.653 2.00782 -0.230409 0
M  V30 2921 C 277.974 1.5562 1.17505 0
M  V30 2922 O 277.244 0.78815 1.79346 0
M  V30 2923 H 275.824 0.742464 -0.0821944 0
M  V30 2924 H 278.486 1.72852 -0.90045 0
M  V30 2925 H 277.582 3.11095 -0.25021 0
M  V30 2926 N 277.883 0.443576 1.51229 0
M  V30 2927 C 278.813 -0.355142 2.30783 0
M  V30 2928 C 279.794 -1.0154 1.36468 0
M  V30 2929 O 280.979 -1.01785 1.65389 0
M  V30 2930 C 278.109 -1.45312 3.15439 0
M  V30 2931 C 277.063 -0.916002 4.18083 0
M  V30 2932 C 276.389 -2.1102 4.91299 0
M  V30 2933 C 277.689 0.0538602 5.22272 0
M  V30 2934 H 279.383 0.308767 2.97804 0
M  V30 2935 H 276.929 0.149937 1.43217 0
M  V30 2936 H 278.882 -2.01914 3.69876 0
M  V30 2937 H 277.606 -2.14541 2.46252 0
M  V30 2938 H 276.265 -0.372145 3.64706 0
M  V30 2939 H 275.913 -2.78882 4.18609 0
M  V30 2940 H 275.613 -1.75717 5.60712 0
M  V30 2941 H 277.137 -2.68164 5.48562 0
M  V30 2942 H 278.551 -0.422069 5.71744 0
M  V30 2943 H 276.948 0.319776 5.99247 0
M  V30 2944 H 278.018 0.98858 4.74716 0
M  V30 2945 N 279.361 -1.56624 0.175154 0
M  V30 2946 C 280.638 -1.88688 -0.515373 0
M  V30 2947 C 281.018 -1.08564 -1.81044 0
M  V30 2948 O 280.366 -0.180703 -2.27784 0
M  V30 2949 C 280.576 -3.40768 -0.753552 0
M  V30 2950 C 281.924 -4.10587 -1.08184 0
M  V30 2951 O 282.948 -3.46106 -0.841961 0
M  V30 2952 O 281.807 -5.24512 -1.53459 0
M  V30 2953 H 278.901 -0.78301 -0.26613 0
M  V30 2954 H 281.447 -1.68347 0.213877 0
M  V30 2955 H 280.219 -3.90965 0.161829 0
M  V30 2956 H 279.842 -3.66733 -1.53598 0
M  V30 2957 N 280.839 0.0985539 -1.57292 0
M  V30 2958 C 282.064 0.820196 -1.90493 0
M  V30 2959 C 282.489 1.71658 -0.769094 0
M  V30 2960 O 281.847 1.79133 0.279495 0
M  V30 2961 C 281.895 1.61242 -3.22542 0
M  V30 2962 O 280.999 2.72108 -3.09888 0
M  V30 2963 H 280.34 0.225547 -0.62452 0
M  V30 2964 H 282.87 0.0748159 -2.04463 0
M  V30 2965 H 282.88 1.99737 -3.55766 0
M  V30 2966 H 281.555 0.954535 -4.04798 0
M  V30 2967 H 280.132 2.36667 -2.88172 0
M  V30 2968 N 282.317 1.53212 0.369288 0
M  V30 2969 C 283.728 1.60943 0.946276 0
M  V30 2970 C 284.079 0.47452 1.90375 0
M  V30 2971 O 283.204 -0.399597 2.12679 0
M  V30 2972 C 283.799 2.91715 1.72302 0
M  V30 2973 C 282.358 3.01792 2.24941 0
M  V30 2974 C 281.505 2.56211 1.06072 0
M  V30 2975 H 284.456 1.58007 0.148198 0
M  V30 2976 H 284.477 2.79309 2.58393 0
M  V30 2977 H 283.989 3.74295 1.0259 0
M  V30 2978 H 282.09 2.23791 2.97906 0
M  V30 2979 H 282.203 4.06803 2.53077 0
M  V30 2980 H 280.567 2.10998 1.4266 0
M  V30 2981 H 281.35 3.41206 0.378639 0
M  V30 2982 N 283.795 -0.628877 1.44509 0
M  V30 2983 C 284.758 -1.72263 1.51188 0
M  V30 2984 C 285.758 -1.55907 0.39367 0
M  V30 2985 O 286.948 -1.61361 0.656377 0
M  V30 2986 C 284.08 -3.11365 1.38798 0
M  V30 2987 H 285.273 -1.67714 2.4862 0
M  V30 2988 H 282.826 -0.842737 1.31634 0
M  V30 2989 H 283.561 -3.21507 0.424693 0
M  V30 2990 H 283.346 -3.24644 2.19884 0
M  V30 2991 H 284.836 -3.91075 1.46458 0
M  V30 2992 N 285.273 -1.31445 -0.869486 0
M  V30 2993 C 286.522 -1.20517 -1.61736 0
M  V30 2994 C 286.835 0.235341 -1.94179 0
M  V30 2995 O 288.041 0.466312 -2.67465 0
M  V30 2996 C 286.497 -2.10982 -2.91573 0
M  V30 2997 C 286.105 -3.60032 -2.66611 0
M  V30 2998 C 287.849 -2.08856 -3.69567 0
M  V30 2999 C 285.756 -4.42503 -3.92358 0
M  V30 3000 H 284.686 -0.447493 -0.606849 0
M  V30 3001 H 287.337 -1.56303 -0.96133 0
M  V30 3002 H 285.719 -1.68095 -3.58553 0
M  V30 3003 H 286.893 -4.11167 -2.08035 0
M  V30 3004 H 285.208 -3.64139 -2.0197 0
M  V30 3005 H 287.805 -2.67716 -4.62852 0
M  V30 3006 H 288.148 -1.07582 -4.02159 0
M  V30 3007 H 288.681 -2.49945 -3.09471 0
M  V30 3008 H 285.42 -5.44533 -3.64916 0
M  V30 3009 H 284.94 -3.96125 -4.50383 0
M  V30 3010 H 286.619 -4.54741 -4.60238 0
M  V30 3011 N 286.751 1.08385 -1.14413 0
M  V30 3012 C 287.681 2.17321 -0.854044 0
M  V30 3013 C 288.662 1.69024 0.191049 0
M  V30 3014 O 289.847 1.94141 0.0476779 0
M  V30 3015 C 286.977 3.45719 -0.330983 0
M  V30 3016 C 285.931 4.07409 -1.31155 0
M  V30 3017 C 285.257 5.30762 -0.64778 0
M  V30 3018 C 286.557 4.48665 -2.67388 0
M  V30 3019 H 288.251 2.41845 -1.76498 0
M  V30 3020 H 285.797 1.16233 -0.850051 0
M  V30 3021 H 287.75 4.21241 -0.115645 0
M  V30 3022 H 286.474 3.2075 0.615381 0
M  V30 3023 H 285.133 3.33919 -1.51306 0
M  V30 3024 H 284.781 5.02078 0.304398 0
M  V30 3025 H 284.481 5.72992 -1.30207 0
M  V30 3026 H 286.005 6.08998 -0.441972 0
M  V30 3027 H 287.419 5.15364 -2.51143 0
M  V30 3028 H 285.816 5.01814 -3.29093 0
M  V30 3029 H 286.886 3.60543 -3.24248 0
M  V30 3030 N 288.23 0.939286 1.26551 0
M  V30 3031 C 289.476 0.586715 1.94128 0
M  V30 3032 C 289.809 -0.8717 1.73537 0
M  V30 3033 O 289.084 -1.62339 1.07127 0
M  V30 3034 C 289.367 0.927497 3.4795 0
M  V30 3035 C 289.22 2.44052 3.77834 0
M  V30 3036 C 290.539 0.441569 4.37879 0
M  V30 3037 H 287.658 0.21463 0.705055 0
M  V30 3038 H 290.3 1.17316 1.49455 0
M  V30 3039 H 288.45 0.428431 3.8613 0
M  V30 3040 H 290.122 3.01216 3.4938 0
M  V30 3041 H 288.365 2.8848 3.23978 0
M  V30 3042 H 289.036 2.62947 4.85348 0
M  V30 3043 H 291.512 0.869448 4.06915 0
M  V30 3044 H 290.388 0.708856 5.44304 0
M  V30 3045 H 290.649 -0.658467 4.37169 0
M  V30 3046 N 289.708 -1.40897 0.706093 0
M  V30 3047 C 290.638 -2.33418 0.0620085 0
M  V30 3048 C 291.619 -1.52385 -0.755827 0
M  V30 3049 O 292.804 -1.80886 -0.706674 0
M  V30 3050 C 289.934 -3.36293 -0.867445 0
M  V30 3051 C 288.888 -4.27716 -0.155932 0
M  V30 3052 C 288.214 -5.2105 -1.20046 0
M  V30 3053 C 289.514 -5.12944 0.984149 0
M  V30 3054 H 291.208 -2.87527 0.83477 0
M  V30 3055 H 288.754 -1.38249 0.402875 0
M  V30 3056 H 290.707 -3.99949 -1.32735 0
M  V30 3057 H 289.431 -2.80556 -1.67199 0
M  V30 3058 H 288.09 -3.65498 0.284047 0
M  V30 3059 H 287.738 -4.61624 -1.99781 0
M  V30 3060 H 287.438 -5.83056 -0.729328 0
M  V30 3061 H 288.962 -5.87584 -1.66066 0
M  V30 3062 H 290.376 -5.70109 0.604048 0
M  V30 3063 H 288.773 -5.83945 1.38304 0
M  V30 3064 H 289.843 -4.49485 1.81911 0
M  V30 3065 N 291.186 -0.45159 -1.50991 0
M  V30 3066 C 292.432 0.110237 -2.025 0
M  V30 3067 C 292.765 1.41109 -1.33424 0
M  V30 3068 O 292.04 1.89135 -0.453659 0
M  V30 3069 C 292.323 0.314271 -3.58726 0
M  V30 3070 C 292.176 -1.00623 -4.38401 0
M  V30 3071 C 293.495 1.07767 -4.26702 0
M  V30 3072 H 290.614 0.0385897 -0.735989 0
M  V30 3073 H 293.256 -0.593374 -1.80497 0
M  V30 3074 H 291.406 0.913601 -3.77605 0
M  V30 3075 H 293.078 -1.64064 -4.31139 0
M  V30 3076 H 291.321 -1.6075 -4.02917 0
M  V30 3077 H 291.992 -0.817341 -5.45915 0
M  V30 3078 H 294.468 0.56986 -4.12179 0
M  V30 3079 H 293.344 1.18921 -5.35863 0
M  V30 3080 H 293.605 2.10939 -3.88532 0
M  V30 3081 N 292.664 1.56529 -0.183458 0
M  V30 3082 C 293.612 2.19873 0.758845 0
M  V30 3083 C 294.606 1.16638 1.22849 0
M  V30 3084 O 295.812 1.3481 1.19274 0
M  V30 3085 H 292.187 0.7045 0.263029 0
M  V30 3086 H 294.158 2.97724 0.200755 0
M  V30 3087 C 292.907 2.86314 1.9728 0
M  V30 3088 H 292.23 3.65487 1.62047 0
M  V30 3089 H 293.67 3.3409 2.61075 0
M  V30 3090 C 292.129 1.86729 2.80418 0
M  V30 3091 O 292.659 1.36031 3.77966 0
M  V30 3092 N 290.865 1.55216 2.45675 0
M  V30 3093 H 290.412 1.96636 1.66409 0
M  V30 3094 H 290.37 0.888388 3.01588 0
M  V30 3095 N 294.142 -0.090211 1.57342 0
M  V30 3096 C 295.372 -0.805055 1.90269 0
M  V30 3097 C 295.78 -1.72561 0.775842 0
M  V30 3098 O 295.123 -1.81839 -0.260843 0
M  V30 3099 C 295.185 -1.66734 3.18497 0
M  V30 3100 C 294.849 -0.918092 4.47683 0
M  V30 3101 C 295.846 -0.245674 5.19319 0
M  V30 3102 C 293.531 -0.890724 4.94339 0
M  V30 3103 C 295.525 0.444088 6.35851 0
M  V30 3104 C 293.212 -0.197179 6.10782 0
M  V30 3105 C 294.21 0.469044 6.81388 0
M  V30 3106 O 293.898 1.15146 7.95611 0
M  V30 3107 H 293.63 -0.235143 0.633785 0
M  V30 3108 H 296.184 -0.0703805 2.05279 0
M  V30 3109 H 294.414 -2.44437 2.99646 0
M  V30 3110 H 296.103 -2.25919 3.37217 0
M  V30 3111 H 296.869 -0.258246 4.84312 0
M  V30 3112 H 292.748 -1.39873 4.39268 0
M  V30 3113 H 296.292 0.964667 6.90898 0
M  V30 3114 H 292.189 -0.18247 6.45242 0
M  V30 3115 H 292.957 1.05885 8.11622 0
M  V30 3116 N 295.62 -1.53406 -0.361157 0
M  V30 3117 C 296.869 -1.69022 -1.10066 0
M  V30 3118 C 297.182 -0.450838 -1.90333 0
M  V30 3119 O 298.388 -0.487617 -2.67085 0
M  V30 3120 C 296.844 -2.98812 -2.00598 0
M  V30 3121 C 296.452 -4.30027 -1.25621 0
M  V30 3122 C 298.196 -3.23795 -2.74513 0
M  V30 3123 C 296.103 -5.50903 -2.1508 0
M  V30 3124 H 295.033 -0.629776 -0.414606 0
M  V30 3125 H 297.684 -1.79907 -0.361348 0
M  V30 3126 H 296.066 -2.8174 -2.78278 0
M  V30 3127 H 297.24 -4.57745 -0.529739 0
M  V30 3128 H 295.555 -4.11522 -0.635496 0
M  V30 3129 H 298.152 -4.11289 -3.41681 0
M  V30 3130 H 298.495 -2.40045 -3.40123 0
M  V30 3131 H 299.028 -3.41561 -2.03914 0
M  V30 3132 H 295.767 -6.37143 -1.54041 0
M  V30 3133 H 295.287 -5.27459 -2.85565 0
M  V30 3134 H 296.966 -5.85865 -2.74538 0
M  V30 3135 N 297.098 0.621204 -1.44841 0
M  V30 3136 C 298.345 1.38055 -1.48145 0
M  V30 3137 C 298.673 1.94143 -0.117867 0
M  V30 3138 O 297.928 1.74713 0.881694 0
M  V30 3139 C 298.227 2.55675 -2.4973 0
M  V30 3140 C 297.893 2.17817 -3.94799 0
M  V30 3141 C 296.555 2.07205 -4.34303 0
M  V30 3142 C 298.907 1.88065 -4.86087 0
M  V30 3143 C 296.235 1.65045 -5.63007 0
M  V30 3144 C 298.587 1.47394 -6.15189 0
M  V30 3145 C 297.251 1.35331 -6.53637 0
M  V30 3146 H 296.521 0.505181 -0.542101 0
M  V30 3147 H 299.168 0.703477 -1.78111 0
M  V30 3148 H 297.473 3.2866 -2.13284 0
M  V30 3149 H 299.17 3.13904 -2.4953 0
M  V30 3150 H 295.76 2.26998 -3.63552 0
M  V30 3151 H 299.944 1.95168 -4.56315 0
M  V30 3152 H 295.2 1.54317 -5.91605 0
M  V30 3153 H 299.374 1.23415 -6.85377 0
M  V30 3154 H 297.001 1.02435 -7.53267 0
M  V30 3155 N 298.576 1.31904 0.862503 0
M  V30 3156 C 299.823 1.22017 1.61611 0
M  V30 3157 C 300.151 -0.21991 1.93253 0
M  V30 3158 O 299.406 -1.17076 1.56817 0
M  V30 3159 C 299.705 2.01713 2.95037 0
M  V30 3160 C 299.371 3.51145 2.82857 0
M  V30 3161 C 298.033 3.91889 2.79243 0
M  V30 3162 C 300.385 4.46204 2.69353 0
M  V30 3163 C 297.713 5.25947 2.59993 0
M  V30 3164 C 300.065 5.80397 2.5164 0
M  V30 3165 C 298.729 6.20352 2.46413 0
M  V30 3166 H 297.999 0.44649 0.591378 0
M  V30 3167 H 300.646 1.63248 1.00111 0
M  V30 3168 H 298.951 1.53185 3.60613 0
M  V30 3169 H 300.648 1.91437 3.52353 0
M  V30 3170 H 297.238 3.1878 2.86491 0
M  V30 3171 H 301.422 4.15652 2.71196 0
M  V30 3172 H 296.678 5.5597 2.54376 0
M  V30 3173 H 300.852 6.53676 2.40169 0
M  V30 3174 H 298.479 7.24172 2.31256 0
M  V30 3175 N 300.054 -1.07777 1.14986 0
M  V30 3176 C 301.001 -2.14867 0.842672 0
M  V30 3177 C 301.971 -1.6486 -0.202552 0
M  V30 3178 O 303.156 -1.90668 -0.0710568 0
M  V30 3179 C 300.296 -3.43486 0.333363 0
M  V30 3180 C 299.409 -4.07306 1.43965 0
M  V30 3181 C 298.544 -5.23744 0.886914 0
M  V30 3182 C 297.583 -5.79517 1.97043 0
M  V30 3183 N 296.72 -6.87291 1.4344 0
M  V30 3184 H 301.56 -2.40485 1.75986 0
M  V30 3185 H 299.097 -1.1801 0.878179 0
M  V30 3186 H 301.055 -4.17195 0.0198163 0
M  V30 3187 H 299.685 -3.18133 -0.546916 0
M  V30 3188 H 298.737 -3.31293 1.86946 0
M  V30 3189 H 300.049 -4.44771 2.25788 0
M  V30 3190 H 299.203 -6.04419 0.525651 0
M  V30 3191 H 297.942 -4.87685 0.0377957 0
M  V30 3192 H 296.947 -4.97491 2.34057 0
M  V30 3193 H 298.172 -6.17632 2.82325 0
M  V30 3194 H 296.118 -6.5318 0.607567 0
M  V30 3195 H 296.035 -7.23617 2.18895 0
M  V30 3196 H 297.303 -7.71682 1.10124 0
M  V30 3197 N 301.532 -0.945985 -1.26051 0
M  V30 3198 C 302.78 -0.594941 -1.93145 0
M  V30 3199 C 303.101 0.86953 -1.7454 0
M  V30 3200 O 302.371 1.61838 -1.10387 0
M  V30 3201 H 300.951 -0.217044 -0.714773 0
M  V30 3202 H 303.613 -1.20235 -1.53393 0
M  V30 3203 H 302.709 -0.816835 -3.01221 0
M  V30 3204 N 303.011 1.40521 -0.713556 0
M  V30 3205 C 304.239 2.05237 -0.261775 0
M  V30 3206 C 304.654 1.53755 1.09567 0
M  V30 3207 O 304.011 0.693268 1.6882 0
M  V30 3208 C 304.062 3.60763 -0.230706 0
M  V30 3209 O 303.783 4.10345 -1.53455 0
M  V30 3210 C 305.284 4.42651 0.239874 0
M  V30 3211 H 302.504 0.660533 -0.118057 0
M  V30 3212 H 305.048 1.79967 -0.971192 0
M  V30 3213 H 303.203 3.8501 0.429661 0
M  V30 3214 H 303.617 5.04526 -1.43366 0
M  V30 3215 H 305.091 5.51599 0.210468 0
M  V30 3216 H 305.568 4.20082 1.28171 0
M  V30 3217 H 306.174 4.23507 -0.390142 0
M  V30 3218 N 304.489 0.459591 1.5075 0
M  V30 3219 C 305.735 -0.091664 2.03193 0
M  V30 3220 C 306.09 -1.38432 1.3362 0
M  V30 3221 O 305.383 -1.86257 0.449322 0
M  V30 3222 C 305.577 -0.342866 3.55752 0
M  V30 3223 C 305.406 0.923888 4.40107 0
M  V30 3224 C 304.176 1.46388 4.83631 0
M  V30 3225 C 306.374 1.81617 4.81165 0
M  V30 3226 N 304.356 2.68086 5.52271 0
M  V30 3227 C 305.727 2.87907 5.49099 0
M  V30 3228 C 307.782 1.82793 4.63132 0
M  V30 3229 C 306.485 3.95347 6.0091 0
M  V30 3230 C 308.511 2.89182 5.15876 0
M  V30 3231 C 307.873 3.94191 5.83774 0
M  V30 3232 H 303.972 0.00619247 0.781975 0
M  V30 3233 H 306.556 0.625233 1.84388 0
M  V30 3234 H 304.727 -1.0288 3.74527 0
M  V30 3235 H 306.459 -0.887445 3.9485 0
M  V30 3236 H 303.214 1.01466 4.62603 0
M  V30 3237 H 303.638 3.29857 5.91205 0
M  V30 3238 H 308.28 1.0293 4.1008 0
M  V30 3239 H 305.998 4.76035 6.53006 0
M  V30 3240 H 309.584 2.91061 5.0376 0
M  V30 3241 H 308.464 4.75161 6.23853 0
M  V30 3242 N 305.967 -1.56429 0.191757 0
M  V30 3243 C 307.195 -2.01867 -0.453586 0
M  V30 3244 C 307.61 -1.07191 -1.5542 0
M  V30 3245 O 306.967 -0.0762108 -1.82341 0
M  V30 3246 C 307.018 -3.47017 -1.013 0
M  V30 3247 O 306.739 -4.38078 0.0437005 0
M  V30 3248 C 308.24 -4.07956 -1.73456 0
M  V30 3249 H 305.46 -0.661211 -0.114199 0
M  V30 3250 H 308.004 -2.02295 0.299483 0
M  V30 3251 H 306.159 -3.47298 -1.71647 0
M  V30 3252 H 306.573 -5.23178 -0.372212 0
M  V30 3253 H 308.047 -5.1138 -2.07833 0
M  V30 3254 H 308.524 -3.51222 -2.63704 0
M  V30 3255 H 309.13 -4.11437 -1.07702 0
M  V30 3256 N 307.445 0.0818655 -1.57387 0
M  V30 3257 C 308.377 1.12484 -1.997 0
M  V30 3258 C 309.39 1.35564 -0.90146 0
M  V30 3259 O 310.579 1.33982 -1.17945 0
M  V30 3260 C 307.679 2.47778 -2.31213 0
M  V30 3261 C 306.852 2.44793 -3.62485 0
M  V30 3262 C 305.911 3.62117 -3.81782 0
M  V30 3263 O 304.937 3.44005 -4.53486 0
M  V30 3264 N 306.139 4.82094 -3.23367 0
M  V30 3265 H 308.904 0.764585 -2.89783 0
M  V30 3266 H 306.465 0.270664 -1.59621 0
M  V30 3267 H 308.457 3.24891 -2.41304 0
M  V30 3268 H 307.027 2.75843 -1.4707 0
M  V30 3269 H 306.247 1.53134 -3.6324 0
M  V30 3270 H 307.535 2.39889 -4.48699 0
M  V30 3271 H 306.933 4.99713 -2.65148 0
M  V30 3272 H 305.49 5.56753 -3.38923 0
M  V30 3273 N 308.923 1.53595 0.353017 0
M  V30 3274 C 310.334 1.61937 0.929153 0
M  V30 3275 C 310.685 0.494686 1.89861 0
M  V30 3276 O 309.81 -0.377017 2.1309 0
M  V30 3277 C 310.405 2.93526 1.69199 0
M  V30 3278 C 308.964 3.04161 2.21727 0
M  V30 3279 C 308.111 2.57322 1.03348 0
M  V30 3280 H 311.062 1.58155 0.131431 0
M  V30 3281 H 311.083 2.82034 2.55416 0
M  V30 3282 H 310.595 3.75362 0.986144 0
M  V30 3283 H 308.696 2.26938 2.95516 0
M  V30 3284 H 308.809 4.09465 2.48748 0
M  V30 3285 H 307.173 2.12499 1.40414 0
M  V30 3286 H 307.956 3.41588 0.342428 0
M  V30 3287 N 310.401 -0.613514 1.45168 0
M  V30 3288 C 311.648 -1.37268 1.48875 0
M  V30 3289 C 311.976 -1.94077 0.128161 0
M  V30 3290 O 311.231 -1.75178 -0.872416 0
M  V30 3291 C 311.53 -2.54347 2.51083 0
M  V30 3292 C 311.196 -2.1572 3.95949 0
M  V30 3293 C 309.858 -2.04899 4.35396 0
M  V30 3294 C 312.21 -1.85485 4.87078 0
M  V30 3295 C 309.538 -1.62057 5.63875 0
M  V30 3296 C 311.89 -1.4413 6.15962 0
M  V30 3297 C 310.554 -1.31863 6.54346 0
M  V30 3298 H 309.824 -0.502299 0.544773 0
M  V30 3299 H 312.471 -0.694021 1.78481 0
M  V30 3300 H 310.776 -3.27524 2.15024 0
M  V30 3301 H 312.473 -3.12577 2.51191 0
M  V30 3302 H 309.063 -2.25066 3.64751 0
M  V30 3303 H 313.247 -1.92745 4.57343 0
M  V30 3304 H 308.503 -1.51177 5.92415 0
M  V30 3305 H 312.677 -1.19778 6.86022 0
M  V30 3306 H 310.304 -0.984392 7.538 0
M  V30 3307 N 311.879 -1.3236 -0.855495 0
M  V30 3308 C 313.156 -1.13491 -1.59309 0
M  V30 3309 C 313.536 0.30503 -2.08885 0
M  V30 3310 O 312.884 1.30151 -1.87811 0
M  V30 3311 C 313.094 -2.16176 -2.73987 0
M  V30 3312 C 314.442 -2.49463 -3.43589 0
M  V30 3313 O 315.466 -2.14715 -2.84211 0
M  V30 3314 O 314.325 -3.09027 -4.50738 0
M  V30 3315 H 311.419 -0.437887 -0.701559 0
M  V30 3316 H 313.965 -1.43887 -0.899696 0
M  V30 3317 H 312.737 -3.1297 -2.34873 0
M  V30 3318 H 312.36 -1.86769 -3.51003 0
M  V30 3319 N 313.357 1.07166 -1.15556 0
M  V30 3320 C 314.287 2.16403 -0.877046 0
M  V30 3321 C 315.268 1.69217 0.173111 0
M  V30 3322 O 316.453 1.94181 0.027084 0
M  V30 3323 C 313.583 3.45349 -0.367632 0
M  V30 3324 C 312.537 4.05995 -1.35468 0
M  V30 3325 C 311.863 5.30045 -0.704038 0
M  V30 3326 C 313.163 4.45804 -2.72132 0
M  V30 3327 H 314.857 2.39959 -1.79053 0
M  V30 3328 H 312.403 1.15325 -0.862331 0
M  V30 3329 H 314.356 4.21095 -0.160317 0
M  V30 3330 H 313.08 3.21385 0.581326 0
M  V30 3331 H 311.739 3.32296 -1.54839 0
M  V30 3332 H 311.387 5.02373 0.251128 0
M  V30 3333 H 311.087 5.71579 -1.36277 0
M  V30 3334 H 312.611 6.08495 -0.50654 0
M  V30 3335 H 314.025 5.12671 -2.56595 0
M  V30 3336 H 312.422 4.98296 -3.34397 0
M  V30 3337 H 313.492 3.57083 -3.28054 0
M  V30 3338 N 314.835 0.952656 1.25548 0
M  V30 3339 C 315.798 0.475794 2.24207 0
M  V30 3340 C 316.798 -0.419428 1.55234 0
M  V30 3341 O 317.988 -0.216994 1.72843 0
M  V30 3342 C 315.12 -0.312814 3.39462 0
M  V30 3343 H 316.313 1.34779 2.67908 0
M  V30 3344 H 313.866 0.735739 1.37901 0
M  V30 3345 H 314.601 -1.20257 3.01179 0
M  V30 3346 H 314.386 0.329404 3.90714 0
M  V30 3347 H 315.876 -0.635986 4.12729 0
M  V30 3348 N 316.313 -1.40141 0.720998 0
M  V30 3349 C 317.538 -2.05618 0.271258 0
M  V30 3350 C 317.963 -1.53978 -1.08039 0
M  V30 3351 O 317.321 -0.677463 -1.68167 0
M  V30 3352 C 317.369 -3.59609 0.267197 0
M  V30 3353 O 316.473 -4.05526 -0.749814 0
M  V30 3354 H 315.814 -0.651904 0.126162 0
M  V30 3355 H 318.344 -1.79439 0.982997 0
M  V30 3356 H 318.354 -4.0786 0.106744 0
M  V30 3357 H 317.029 -3.96559 1.25354 0
M  V30 3358 H 315.606 -3.68722 -0.556644 0
M  V30 3359 N 317.792 -0.46758 -1.50504 0
M  V30 3360 C 319.02 0.0864133 -2.06719 0
M  V30 3361 C 319.435 1.33819 -1.33184 0
M  V30 3362 O 318.792 1.78061 -0.400083 0
M  V30 3363 C 318.843 0.378079 -3.59517 0
M  V30 3364 O 318.564 -0.824044 -4.3028 0
M  V30 3365 C 320.065 0.979426 -4.32345 0
M  V30 3366 H 317.285 -0.00551697 -0.670977 0
M  V30 3367 H 319.829 -0.655354 -1.93715 0
M  V30 3368 H 317.984 1.06977 -3.72337 0
M  V30 3369 H 318.398 -0.566518 -5.21432 0
M  V30 3370 H 319.872 1.1333 -5.40241 0
M  V30 3371 H 320.349 1.9686 -3.9261 0
M  V30 3372 H 320.955 0.326216 -4.24047 0
M  V30 3373 N 319.27 1.56325 -0.20005 0
M  V30 3374 C 320.686 1.58839 0.155716 0
M  V30 3375 C 320.886 1.21636 1.60645 0
M  V30 3376 O 319.942 0.941437 2.34293 0
M  V30 3377 C 321.255 3.0032 -0.151124 0
M  V30 3378 C 322.803 3.12866 -0.0916284 0
M  V30 3379 C 323.278 4.56488 -0.371845 0
M  V30 3380 N 324.769 4.62089 -0.320641 0
M  V30 3381 C 325.504 5.71116 -0.511243 0
M  V30 3382 N 325 6.88592 -0.762461 0
M  V30 3383 N 326.793 5.60335 -0.445157 0
M  V30 3384 H 318.944 1.78788 -1.14668 0
M  V30 3385 H 321.207 0.829996 -0.458051 0
M  V30 3386 H 320.913 3.32117 -1.15721 0
M  V30 3387 H 320.787 3.73257 0.543986 0
M  V30 3388 H 323.174 2.80878 0.905065 0
M  V30 3389 H 323.255 2.42304 -0.81989 0
M  V30 3390 H 322.899 4.89189 -1.36588 0
M  V30 3391 H 322.829 5.25246 0.377362 0
M  V30 3392 H 325.32 3.77665 -0.13329 0
M  V30 3393 H 325.633 7.67581 -0.896576 0
M  V30 3394 H 323.978 6.90387 -0.799412 0
M  V30 3395 H 327.169 4.67436 -0.249278 0
M  V30 3396 H 327.342 6.45243 -0.597116 0
M  V30 3397 N 320.748 -0.0735177 1.57428 0
M  V30 3398 C 321.658 -1.10547 2.06922 0
M  V30 3399 C 322.674 -1.42506 0.998402 0
M  V30 3400 O 323.85 -1.52717 1.31299 0
M  V30 3401 C 320.915 -2.40019 2.50184 0
M  V30 3402 C 319.976 -2.15046 3.71556 0
M  V30 3403 C 319.209 -3.38345 4.12745 0
M  V30 3404 O 319.432 -4.47399 3.53822 0
M  V30 3405 O 318.366 -3.2666 5.05546 0
M  V30 3406 H 322.192 -0.715013 2.95163 0
M  V30 3407 H 319.777 -0.287531 1.46607 0
M  V30 3408 H 321.659 -3.16218 2.78539 0
M  V30 3409 H 320.334 -2.78447 1.65072 0
M  V30 3410 H 319.241 -1.36558 3.48285 0
M  V30 3411 H 320.574 -1.81499 4.57514 0
M  V30 3412 N 322.226 -1.5378 -0.344866 0
M  V30 3413 C 323.136 -1.84667 -1.4469 0
M  V30 3414 C 324.152 -0.736704 -1.57635 0
M  V30 3415 O 325.328 -1.02888 -1.73136 0
M  V30 3416 C 322.393 -2.04869 -2.79696 0
M  V30 3417 C 321.454 -3.28731 -2.76106 0
M  V30 3418 C 320.687 -3.4796 -4.04673 0
M  V30 3419 O 320.91 -2.71052 -5.01883 0
M  V30 3420 O 319.844 -4.41383 -4.09224 0
M  V30 3421 H 323.67 -2.78334 -1.21506 0
M  V30 3422 H 321.255 -1.39418 -0.536921 0
M  V30 3423 H 323.137 -2.19609 -3.59652 0
M  V30 3424 H 321.812 -1.14391 -3.02814 0
M  V30 3425 H 320.719 -3.19396 -1.94774 0
M  V30 3426 H 322.052 -4.19198 -2.57941 0
M  V30 3427 N 323.704 0.605807 -1.45491 0
M  V30 3428 C 324.652 1.73754 -1.54636 0
M  V30 3429 C 325.646 1.64207 -0.416219 0
M  V30 3430 O 326.852 1.69979 -0.592199 0
M  V30 3431 H 323.227 0.574073 -0.485741 0
M  V30 3432 H 325.198 1.63169 -2.49837 0
M  V30 3433 C 323.947 3.12135 -1.53189 0
M  V30 3434 H 323.27 3.20141 -2.39478 0
M  V30 3435 H 324.71 3.91147 -1.63645 0
M  V30 3436 C 323.169 3.35921 -0.256616 0
M  V30 3437 O 323.699 3.96194 0.662798 0
M  V30 3438 N 321.905 2.90204 -0.151751 0
M  V30 3439 H 321.452 2.41336 -0.90081 0
M  V30 3440 H 321.41 3.06492 0.700699 0
M  V30 3441 N 325.182 1.32811 0.848464 0
M  V30 3442 C 326.429 1.23724 1.60308 0
M  V30 3443 C 326.757 -0.1994 1.93475 0
M  V30 3444 O 326.012 -1.15406 1.5805 0
M  V30 3445 C 326.311 2.04831 2.92881 0
M  V30 3446 C 325.977 3.54125 2.79117 0
M  V30 3447 C 324.639 3.94829 2.7507 0
M  V30 3448 C 326.991 4.49036 2.64606 0
M  V30 3449 C 324.319 5.28675 2.544 0
M  V30 3450 C 326.671 5.83033 2.4547 0
M  V30 3451 C 325.335 6.22931 2.39819 0
M  V30 3452 H 324.605 0.452737 0.586609 0
M  V30 3453 H 327.252 1.64301 0.983743 0
M  V30 3454 H 325.557 1.57001 3.58968 0
M  V30 3455 H 327.254 1.95164 3.50303 0
M  V30 3456 H 323.844 3.21801 2.83094 0
M  V30 3457 H 328.028 4.18505 2.66772 0
M  V30 3458 H 323.284 5.58637 2.48465 0
M  V30 3459 H 327.458 6.56186 2.33222 0
M  V30 3460 H 325.085 7.26584 2.23562 0
M  V30 3461 N 326.66 -1.06551 1.16123 0
M  V30 3462 C 327.89 -1.8274 0.963838 0
M  V30 3463 C 328.298 -1.82712 -0.491228 0
M  V30 3464 O 327.641 -1.24294 -1.35265 0
M  V30 3465 C 327.703 -3.3065 1.41106 0
M  V30 3466 C 327.367 -3.54384 2.88549 0
M  V30 3467 C 328.364 -3.4765 3.86569 0
M  V30 3468 C 326.049 -3.81789 3.26408 0
M  V30 3469 C 328.043 -3.67982 5.2045 0
M  V30 3470 C 325.73 -4.01772 4.60459 0
M  V30 3471 C 326.728 -3.94866 5.57288 0
M  V30 3472 O 326.416 -4.14306 6.88916 0
M  V30 3473 H 326.148 -0.583136 0.341948 0
M  V30 3474 H 328.702 -1.35351 1.54497 0
M  V30 3475 H 326.932 -3.78887 0.773394 0
M  V30 3476 H 328.621 -3.88324 1.1815 0
M  V30 3477 H 329.387 -3.2647 3.58667 0
M  V30 3478 H 325.266 -3.86276 2.51619 0
M  V30 3479 H 328.81 -3.62507 5.96015 0
M  V30 3480 H 324.707 -4.2244 4.88072 0
M  V30 3481 H 325.475 -4.31609 6.95454 0
M  V30 3482 N 328.138 -0.959301 -1.25041 0
M  V30 3483 C 329.384 -0.617525 -1.9317 0
M  V30 3484 C 329.717 0.843981 -1.74902 0
M  V30 3485 O 328.992 1.60615 -1.09696 0
M  V30 3486 C 329.275 -0.982736 -3.46431 0
M  V30 3487 C 329.128 -2.50032 -3.73904 0
M  V30 3488 C 330.447 -0.511176 -4.37121 0
M  V30 3489 H 327.566 -0.22582 -0.701552 0
M  V30 3490 H 330.208 -1.19679 -1.4757 0
M  V30 3491 H 328.358 -0.489806 -3.854 0
M  V30 3492 H 330.03 -3.06737 -3.44544 0
M  V30 3493 H 328.273 -2.93598 -3.19348 0
M  V30 3494 H 328.944 -2.70635 -4.81103 0
M  V30 3495 H 331.42 -0.934075 -4.0548 0
M  V30 3496 H 330.296 -0.795361 -5.43107 0
M  V30 3497 H 330.557 0.588834 -4.38161 0
M  V30 3498 N 329.616 1.39756 -0.72842 0
M  V30 3499 C 330.893 1.94574 -0.200079 0
M  V30 3500 C 331.273 1.66569 1.29684 0
M  V30 3501 O 330.621 0.990326 2.05924 0
M  V30 3502 C 330.831 3.45004 -0.526608 0
M  V30 3503 C 332.179 4.21965 -0.472318 0
M  V30 3504 O 333.203 3.53173 -0.463413 0
M  V30 3505 O 332.062 5.44552 -0.461075 0
M  V30 3506 H 329.156 0.826289 -0.0342851 0
M  V30 3507 H 331.702 1.49293 -0.806829 0
M  V30 3508 H 330.474 3.58796 -1.56144 0
M  V30 3509 H 330.097 3.97449 0.109449 0
M  V30 3510 N 331.094 0.475555 1.50254 0
M  V30 3511 C 332.004 -0.321501 2.32387 0
M  V30 3512 C 333.02 -0.991755 1.42969 0
M  V30 3513 O 334.196 -0.978747 1.76018 0
M  V30 3514 C 331.261 -1.38667 3.17762 0
M  V30 3515 C 330.322 -0.732538 4.23004 0
M  V30 3516 C 329.555 -1.74695 5.04299 0
M  V30 3517 O 329.778 -2.97399 4.86734 0
M  V30 3518 O 328.712 -1.31631 5.8733 0
M  V30 3519 H 332.538 0.350071 3.01676 0
M  V30 3520 H 330.123 0.237321 1.47503 0
M  V30 3521 H 332.005 -2.00354 3.70724 0
M  V30 3522 H 330.68 -2.04163 2.51196 0
M  V30 3523 H 329.587 -0.0765902 3.74022 0
M  V30 3524 H 330.92 -0.120452 4.92053 0
M  V30 3525 N 332.573 -1.56217 0.208337 0
M  V30 3526 C 333.801 -2.02337 -0.43215 0
M  V30 3527 C 334.216 -1.08834 -1.54275 0
M  V30 3528 O 333.573 -0.0955462 -1.8225 0
M  V30 3529 C 333.624 -3.48072 -0.976138 0
M  V30 3530 O 333.345 -4.38007 0.0901621 0
M  V30 3531 C 334.846 -4.09773 -1.69119 0
M  V30 3532 H 332.066 -0.662385 -0.10718 0
M  V30 3533 H 334.61 -2.01966 0.320923 0
M  V30 3534 H 332.765 -3.49099 -1.67954 0
M  V30 3535 H 333.179 -5.23543 -0.316701 0
M  V30 3536 H 334.653 -5.13556 -2.02397 0
M  V30 3537 H 335.13 -3.53999 -2.59964 0
M  V30 3538 H 335.736 -4.12556 -1.03332 0
M  V30 3539 N 334.051 0.0651679 -1.57465 0
M  V30 3540 C 335.279 0.775808 -1.91804 0
M  V30 3541 C 335.694 1.70782 -0.804916 0
M  V30 3542 O 335.051 1.81153 0.221311 0
M  V30 3543 C 335.102 1.56381 -3.25925 0
M  V30 3544 O 334.823 0.669248 -4.32958 0
M  V30 3545 C 336.324 2.37485 -3.7432 0
M  V30 3546 H 333.544 0.2202 -0.63384 0
M  V30 3547 H 336.088 0.0334587 -2.04473 0
M  V30 3548 H 334.243 2.25837 -3.14764 0
M  V30 3549 H 334.657 1.21801 -5.10162 0
M  V30 3550 H 336.131 2.88223 -4.70778 0
M  V30 3551 H 336.608 3.17307 -3.03666 0
M  V30 3552 H 337.214 1.73173 -3.88447 0
M  V30 3553 N 335.529 1.53961 0.336706 0
M  V30 3554 C 336.775 1.7179 1.07777 0
M  V30 3555 C 337.108 0.483263 1.88091 0
M  V30 3556 O 336.383 -0.519747 1.87427 0
M  V30 3557 C 336.666 2.98558 2.01334 0
M  V30 3558 C 336.519 4.32245 1.24437 0
M  V30 3559 C 337.838 3.21023 3.01052 0
M  V30 3560 H 334.957 0.625089 0.390426 0
M  V30 3561 H 337.599 1.86641 0.35567 0
M  V30 3562 H 335.749 2.86028 2.62908 0
M  V30 3563 H 337.421 4.56637 0.654243 0
M  V30 3564 H 335.664 4.30344 0.546458 0
M  V30 3565 H 336.335 5.17137 1.93063 0
M  V30 3566 H 338.811 3.32929 2.49595 0
M  V30 3567 H 337.687 4.11104 3.6371 0
M  V30 3568 H 337.948 2.37637 3.72802 0
M  V30 3569 N 337.007 -0.598083 1.45811 0
M  V30 3570 C 338.253 -1.35882 1.50545 0
M  V30 3571 C 338.586 -1.93616 0.150445 0
M  V30 3572 O 337.861 -1.75604 -0.83628 0
M  V30 3573 C 338.144 -2.49966 2.59208 0
M  V30 3574 C 337.997 -1.97367 4.04186 0
M  V30 3575 C 339.316 -3.52068 2.64076 0
M  V30 3576 H 336.435 -0.492717 0.548087 0
M  V30 3577 H 339.077 -0.673319 1.77669 0
M  V30 3578 H 337.227 -3.08443 2.3621 0
M  V30 3579 H 338.899 -1.43466 4.38423 0
M  V30 3580 H 337.142 -1.283 4.14393 0
M  V30 3581 H 337.813 -2.79649 4.75921 0
M  V30 3582 H 340.289 -3.03448 2.84708 0
M  V30 3583 H 339.165 -4.2937 3.41954 0
M  V30 3584 H 339.426 -4.08304 1.69531 0
M  V30 3585 N 338.485 -1.33259 -0.841409 0
M  V30 3586 C 339.432 -1.23302 -1.95103 0
M  V30 3587 C 340.402 -0.112204 -1.65721 0
M  V30 3588 O 341.587 -0.290038 -1.88583 0
M  V30 3589 C 338.727 -0.975583 -3.31023 0
M  V30 3590 C 337.84 -2.18243 -3.72819 0
M  V30 3591 C 336.975 -1.85936 -4.97595 0
M  V30 3592 C 336.014 -3.02866 -5.3192 0
M  V30 3593 N 335.151 -2.70565 -6.47873 0
M  V30 3594 H 339.991 -2.18207 -2.02952 0
M  V30 3595 H 337.528 -1.0851 -0.993173 0
M  V30 3596 H 339.486 -0.80677 -4.09325 0
M  V30 3597 H 338.116 -0.0632755 -3.22738 0
M  V30 3598 H 337.168 -2.46107 -2.90061 0
M  V30 3599 H 338.48 -3.05666 -3.94169 0
M  V30 3600 H 337.634 -1.65684 -5.83638 0
M  V30 3601 H 336.373 -0.957452 -4.78209 0
M  V30 3602 H 335.378 -3.23736 -4.44382 0
M  V30 3603 H 336.603 -3.93809 -5.53255 0
M  V30 3604 H 334.549 -1.8293 -6.29978 0
M  V30 3605 H 334.466 -3.51519 -6.69306 0
M  V30 3606 H 335.734 -2.53774 -7.37034 0
M  V30 3607 N 339.963 1.05934 -1.16686 0
M  V30 3608 C 341.209 1.79065 -0.95203 0
M  V30 3609 C 341.542 1.87147 0.518629 0
M  V30 3610 O 340.817 1.36574 1.38484 0
M  V30 3611 C 341.1 3.23359 -1.58464 0
M  V30 3612 C 340.953 3.23336 -3.12689 0
M  V30 3613 C 342.272 4.21004 -1.28232 0
M  V30 3614 H 339.391 0.65005 -0.34728 0
M  V30 3615 H 342.033 1.23868 -1.44072 0
M  V30 3616 H 340.183 3.70493 -1.16908 0
M  V30 3617 H 341.855 2.84336 -3.6325 0
M  V30 3618 H 340.098 2.61886 -3.4583 0
M  V30 3619 H 340.769 4.25144 -3.52075 0
M  V30 3620 H 343.245 3.8233 -1.64203 0
M  V30 3621 H 342.121 5.20225 -1.75092 0
M  V30 3622 H 342.382 4.41639 -0.201791 0
M  V30 3623 N 341.441 0.965919 1.2453 0
M  V30 3624 C 342.852 0.665929 1.7442 0
M  V30 3625 C 343.203 -0.818407 1.78316 0
M  V30 3626 O 342.328 -1.64037 1.41141 0
M  V30 3627 C 342.923 1.20211 3.16757 0
M  V30 3628 C 341.482 0.952059 3.6416 0
M  V30 3629 C 340.629 1.33848 2.42858 0
M  V30 3630 H 343.58 1.14144 1.10258 0
M  V30 3631 H 343.601 0.567544 3.76244 0
M  V30 3632 H 343.113 2.28244 3.13889 0
M  V30 3633 H 341.214 -0.112821 3.72429 0
M  V30 3634 H 341.327 1.59645 4.51719 0
M  V30 3635 H 339.691 0.756864 2.43195 0
M  V30 3636 H 340.474 2.42827 2.42673 0
M  V30 3637 N 342.919 -1.39368 0.735821 0
M  V30 3638 C 343.852 -2.28155 0.0451175 0
M  V30 3639 C 344.83 -1.44433 -0.746852 0
M  V30 3640 O 346.014 -1.73823 -0.729237 0
M  V30 3641 C 343.141 -3.253 -0.943266 0
M  V30 3642 C 342.187 -4.25826 -0.239685 0
M  V30 3643 S 343.02 -5.25166 1.04693 0
M  V30 3644 C 344.176 -6.2587 0.0611639 0
M  V30 3645 H 344.409 -2.86388 0.79807 0
M  V30 3646 H 341.942 -1.45104 0.527653 0
M  V30 3647 H 343.9 -3.81789 -1.50824 0
M  V30 3648 H 342.561 -2.66085 -1.66906 0
M  V30 3649 H 341.754 -4.94229 -0.987596 0
M  V30 3650 H 341.356 -3.73141 0.253274 0
M  V30 3651 H 343.648 -6.73007 -0.778941 0
M  V30 3652 H 344.591 -7.04508 0.712362 0
M  V30 3653 H 344.999 -5.63639 -0.311602 0
M  V30 3654 N 344.397 -0.483516 -1.5 0
M  V30 3655 C 345.33 0.350427 -2.25493 0
M  V30 3656 C 346.308 0.985549 -1.29328 0
M  V30 3657 O 347.492 1.01906 -1.58579 0
M  V30 3658 C 344.619 1.49202 -3.04066 0
M  V30 3659 C 343.665 0.973036 -4.15252 0
M  V30 3660 S 344.498 -0.122237 -5.3536 0
M  V30 3661 C 345.654 1.02294 -6.17484 0
M  V30 3662 H 345.887 -0.290381 -2.95878 0
M  V30 3663 H 343.42 -0.268562 -1.52046 0
M  V30 3664 H 345.378 2.14623 -3.49925 0
M  V30 3665 H 344.039 2.10438 -2.33183 0
M  V30 3666 H 343.232 1.82804 -4.69679 0
M  V30 3667 H 342.834 0.396335 -3.71894 0
M  V30 3668 H 345.126 1.93195 -6.49371 0
M  V30 3669 H 346.069 0.517664 -7.06205 0
M  V30 3670 H 346.477 1.28238 -5.49741 0
M  V30 3671 N 345.875 1.56104 -0.216619 0
M  V30 3672 C 346.805 2.23063 0.690296 0
M  V30 3673 C 347.786 1.20072 1.20485 0
M  V30 3674 O 348.971 1.48643 1.24976 0
M  V30 3675 C 346.101 2.90672 1.90072 0
M  V30 3676 C 345.055 4.00092 1.5202 0
M  V30 3677 C 344.381 4.54972 2.80899 0
M  V30 3678 C 345.681 5.17398 0.71391 0
M  V30 3679 H 347.375 2.99109 0.132038 0
M  V30 3680 H 344.921 1.43866 0.0620664 0
M  V30 3681 H 346.874 3.36204 2.54057 0
M  V30 3682 H 345.598 2.12066 2.48386 0
M  V30 3683 H 344.257 3.55283 0.903839 0
M  V30 3684 H 343.905 3.73102 3.37348 0
M  V30 3685 H 343.605 5.28817 2.56176 0
M  V30 3686 H 345.129 5.0322 3.45836 0
M  V30 3687 H 346.543 5.59342 1.25735 0
M  V30 3688 H 344.94 5.97444 0.563951 0
M  V30 3689 H 346.01 4.84088 -0.280527 0
M  V30 3690 N 347.353 -0.0568162 1.57498 0
M  V30 3691 C 348.285 -1.09292 2.01464 0
M  V30 3692 C 349.298 -1.34112 0.922913 0
M  V30 3693 O 350.487 -1.32089 1.20062 0
M  V30 3694 C 347.587 -2.44068 2.35125 0
M  V30 3695 C 346.76 -2.38995 3.66333 0
M  V30 3696 C 345.819 -3.55997 3.87495 0
M  V30 3697 O 344.845 -3.36746 4.58901 0
M  V30 3698 N 346.047 -4.76888 3.30996 0
M  V30 3699 H 348.812 -0.718386 2.90963 0
M  V30 3700 H 346.373 -0.245235 1.60032 0
M  V30 3701 H 348.365 -3.21011 2.46443 0
M  V30 3702 H 346.935 -2.73468 1.5144 0
M  V30 3703 H 346.155 -1.47336 3.65631 0
M  V30 3704 H 347.443 -2.3272 4.52458 0
M  V30 3705 H 346.841 -4.95431 2.73065 0
M  V30 3706 H 345.398 -5.51291 3.47738 0
M  V30 3707 N 348.832 -1.54138 -0.328536 0
M  V30 3708 C 350.057 -1.76378 -1.09112 0
M  V30 3709 C 350.482 -0.508596 -1.81094 0
M  V30 3710 O 349.84 0.539598 -1.73084 0
M  V30 3711 C 349.888 -2.95358 -2.06872 0
M  V30 3712 O 348.992 -2.66556 -3.14677 0
M  V30 3713 H 348.333 -0.584614 -0.314838 0
M  V30 3714 H 350.863 -2.01146 -0.374348 0
M  V30 3715 H 350.873 -3.22566 -2.4983 0
M  V30 3716 H 349.548 -3.86385 -1.5388 0
M  V30 3717 H 348.125 -2.50282 -2.7643 0
M  V30 3718 N 350.31 0.590341 -1.46126 0
M  V30 3719 C 351.535 1.37991 -1.54833 0
M  V30 3720 C 351.96 1.87163 -0.187506 0
M  V30 3721 O 351.318 1.61133 0.831008 0
M  V30 3722 C 351.366 2.54867 -2.55098 0
M  V30 3723 O 350.47 3.56061 -2.08073 0
M  V30 3724 H 349.811 0.411265 -0.521303 0
M  V30 3725 H 352.341 0.716819 -1.91632 0
M  V30 3726 H 352.351 3.01886 -2.74461 0
M  V30 3727 H 351.026 2.18429 -3.53923 0
M  V30 3728 H 349.603 3.15574 -1.98664 0
M  V30 3729 N 351.788 1.33704 0.83433 0
M  V30 3730 C 353.016 1.28467 1.62185 0
M  V30 3731 C 353.431 -0.143526 1.88254 0
M  V30 3732 O 352.788 -1.08709 1.4659 0
M  V30 3733 C 352.839 2.06174 2.96942 0
M  V30 3734 O 352.56 3.43422 2.72016 0
M  V30 3735 C 354.061 2.08201 3.91366 0
M  V30 3736 H 351.281 0.4424 0.504503 0
M  V30 3737 H 353.825 1.76145 1.03891 0
M  V30 3738 H 351.98 1.62167 3.51825 0
M  V30 3739 H 352.394 3.83453 3.57861 0
M  V30 3740 H 353.868 2.67017 4.83121 0
M  V30 3741 H 354.345 1.07343 4.2588 0
M  V30 3742 H 354.951 2.52246 3.42421 0
M  V30 3743 N 353.266 -1.05314 1.17247 0
M  V30 3744 C 354.515 -1.77685 0.954521 0
M  V30 3745 C 354.828 -1.88616 -0.518025 0
M  V30 3746 O 356.034 -2.57714 -0.854144 0
M  V30 3747 C 354.49 -3.19402 1.65863 0
M  V30 3748 C 354.098 -3.16605 3.16963 0
M  V30 3749 C 355.842 -3.96237 1.52303 0
M  V30 3750 C 353.749 -4.53103 3.80068 0
M  V30 3751 H 352.679 -0.666 0.353496 0
M  V30 3752 H 355.33 -1.1805 1.40486 0
M  V30 3753 H 353.712 -3.79355 1.13602 0
M  V30 3754 H 354.886 -2.66176 3.76148 0
M  V30 3755 H 353.201 -2.53268 3.30521 0
M  V30 3756 H 355.798 -4.97157 1.96822 0
M  V30 3757 H 356.141 -4.136 0.473401 0
M  V30 3758 H 356.674 -3.42829 2.01775 0
M  V30 3759 H 353.413 -4.40946 4.85023 0
M  V30 3760 H 352.933 -5.03686 3.2567 0
M  V30 3761 H 354.612 -5.22045 3.82202 0
M  V30 3762 N 354.744 -0.972509 -1.24016 0
M  V30 3763 C 355.969 -0.654417 -1.96805 0
M  V30 3764 C 356.394 0.770398 -1.716 0
M  V30 3765 O 355.752 1.52361 -0.982647 0
M  V30 3766 C 355.8 -0.941031 -3.48105 0
M  V30 3767 O 354.904 -0.0289472 -4.1239 0
M  V30 3768 H 354.245 -0.24692 -0.616382 0
M  V30 3769 H 356.775 -1.30396 -1.57664 0
M  V30 3770 H 356.785 -0.87452 -3.98517 0
M  V30 3771 H 355.46 -1.97939 -3.65777 0
M  V30 3772 H 354.037 -0.149192 -3.72601 0
M  V30 3773 N 356.222 1.38976 -0.743202 0
M  V30 3774 C 357.452 2.04339 -0.304807 0
M  V30 3775 C 357.86 1.56162 1.06819 0
M  V30 3776 O 357.203 0.725284 1.68776 0
M  V30 3777 C 357.265 3.58716 -0.237369 0
M  V30 3778 C 356.929 4.29905 -1.55018 0
M  V30 3779 C 357.926 4.55987 -2.49744 0
M  V30 3780 C 355.611 4.68294 -1.81675 0
M  V30 3781 C 357.605 5.19478 -3.69353 0
M  V30 3782 C 355.292 5.31512 -3.0156 0
M  V30 3783 C 356.29 5.57037 -3.9522 0
M  V30 3784 O 355.978 6.18941 -5.12998 0
M  V30 3785 H 355.71 0.663439 -0.12971 0
M  V30 3786 H 358.264 1.78852 -1.01001 0
M  V30 3787 H 356.494 3.83133 0.524003 0
M  V30 3788 H 358.183 4.05543 0.170121 0
M  V30 3789 H 358.949 4.26767 -2.30423 0
M  V30 3790 H 354.828 4.47779 -1.09615 0
M  V30 3791 H 358.372 5.39318 -4.42473 0
M  V30 3792 H 354.269 5.60153 -3.20778 0
M  V30 3793 H 355.037 6.37433 -5.13441 0
M  V30 3794 N 357.7 0.491464 1.49741 0
M  V30 3795 C 358.63 -0.28154 2.31796 0
M  V30 3796 C 359.611 -0.971473 1.3963 0
M  V30 3797 O 360.796 -0.964719 1.68543 0
M  V30 3798 C 357.926 -1.35203 3.19902 0
M  V30 3799 C 356.88 -0.782529 4.20786 0
M  V30 3800 C 356.206 -1.95283 4.97764 0
M  V30 3801 C 357.506 0.21999 5.21837 0
M  V30 3802 H 359.2 0.403355 2.96671 0
M  V30 3803 H 356.746 0.195425 1.42668 0
M  V30 3804 H 358.699 -1.90045 3.76113 0
M  V30 3805 H 357.423 -2.06598 2.52953 0
M  V30 3806 H 356.082 -0.255928 3.65706 0
M  V30 3807 H 355.73 -2.65423 4.2727 0
M  V30 3808 H 355.43 -1.57789 5.66018 0
M  V30 3809 H 356.954 -2.50577 5.56816 0
M  V30 3810 H 358.368 -0.23996 5.72798 0
M  V30 3811 H 356.765 0.51026 5.97927 0
M  V30 3812 H 357.835 1.13911 4.7133 0
M  V30 3813 N 359.178 -1.55987 0.224894 0
M  V30 3814 C 360.128 -2.17076 -0.697296 0
M  V30 3815 C 361.112 -1.12006 -1.15514 0
M  V30 3816 O 362.304 -1.37985 -1.10857 0
M  V30 3817 C 359.433 -2.85679 -1.90374 0
M  V30 3818 C 358.519 -3.97977 -1.46543 0
M  V30 3819 N 358.91 -5.00359 -0.739909 0
M  V30 3820 C 357.208 -4.10128 -1.75245 0
M  V30 3821 C 357.909 -5.79407 -0.515939 0
M  V30 3822 N 356.885 -5.32892 -1.07364 0
M  V30 3823 H 360.687 -2.93592 -0.134594 0
M  V30 3824 H 358.201 -1.62379 0.0262885 0
M  V30 3825 H 360.198 -3.27857 -2.57518 0
M  V30 3826 H 358.858 -2.1066 -2.47088 0
M  V30 3827 H 359.869 -5.16412 -0.392253 0
M  V30 3828 H 356.546 -3.46263 -2.33255 0
M  V30 3829 H 357.936 -6.71872 0.0617349 0
M  V30 3830 N 360.656 0.0484629 -1.57525 0
M  V30 3831 C 361.933 0.777447 -1.79486 0
M  V30 3832 C 362.313 1.94597 -0.818251 0
M  V30 3833 O 361.661 2.28047 0.143767 0
M  V30 3834 C 361.871 1.22864 -3.26658 0
M  V30 3835 C 363.219 1.65251 -3.91123 0
M  V30 3836 O 364.243 1.32372 -3.3069 0
M  V30 3837 O 363.102 2.26207 -4.97486 0
M  V30 3838 H 360.196 0.374357 -0.737419 0
M  V30 3839 H 362.742 0.0267359 -1.69679 0
M  V30 3840 H 361.514 0.393589 -3.89316 0
M  V30 3841 H 361.137 2.03996 -3.41279 0
M  V30 3842 N 362.134 1.5431 0.320358 0
M  V30 3843 C 363.359 1.76954 1.08175 0
M  V30 3844 C 363.784 0.518193 1.80821 0
M  V30 3845 O 363.142 -0.530411 1.73368 0
M  V30 3846 C 363.19 2.96451 2.05303 0
M  V30 3847 O 362.294 2.68221 3.13259 0
M  V30 3848 H 361.635 0.586275 0.311733 0
M  V30 3849 H 364.165 2.01342 0.363676 0
M  V30 3850 H 364.175 3.23887 2.48116 0
M  V30 3851 H 362.85 3.87196 1.51829 0
M  V30 3852 H 361.427 2.51744 2.75099 0
M  V30 3853 N 363.613 -0.582584 1.46437 0
M  V30 3854 C 364.523 -1.71949 1.59595 0
M  V30 3855 C 365.539 -1.67264 0.479443 0
M  V30 3856 O 366.715 -1.87171 0.743579 0
M  V30 3857 C 363.78 -3.08452 1.58298 0
M  V30 3858 C 362.841 -3.244 2.81182 0
M  V30 3859 C 362.074 -4.54391 2.79937 0
M  V30 3860 O 362.297 -5.38287 1.8869 0
M  V30 3861 O 361.231 -4.73588 3.71481 0
M  V30 3862 H 365.057 -1.63795 2.55744 0
M  V30 3863 H 362.642 -0.749643 1.29231 0
M  V30 3864 H 364.524 -3.89732 1.60271 0
M  V30 3865 H 363.199 -3.17043 0.653094 0
M  V30 3866 H 362.106 -2.42613 2.84763 0
M  V30 3867 H 363.439 -3.20699 3.7338 0
M  V30 3868 N 365.091 -1.34144 -0.827227 0
M  V30 3869 C 366.021 -1.28005 -1.95287 0
M  V30 3870 C 367.002 -0.158321 -1.69362 0
M  V30 3871 O 368.187 -0.349987 -1.9102 0
M  V30 3872 C 365.317 -1.03036 -3.31664 0
M  V30 3873 C 364.271 -2.11628 -3.72019 0
M  V30 3874 C 363.597 -1.71854 -5.0633 0
M  V30 3875 C 364.897 -3.53417 -3.8457 0
M  V30 3876 H 366.591 -2.22187 -2.00682 0
M  V30 3877 H 364.137 -1.0696 -0.964135 0
M  V30 3878 H 366.09 -0.973863 -4.09993 0
M  V30 3879 H 364.814 -0.0529391 -3.26557 0
M  V30 3880 H 363.473 -2.16339 -2.95961 0
M  V30 3881 H 363.121 -0.727841 -4.97706 0
M  V30 3882 H 362.821 -2.44531 -5.34302 0
M  V30 3883 H 364.345 -1.67692 -5.87122 0
M  V30 3884 H 365.759 -3.51142 -4.5318 0
M  V30 3885 H 364.156 -4.24679 -4.2399 0
M  V30 3886 H 365.226 -3.91072 -2.86689 0
M  V30 3887 N 366.569 1.04691 -1.17803 0
M  V30 3888 C 367.98 1.59238 -0.974689 0
M  V30 3889 C 368.331 1.90306 0.477292 0
M  V30 3890 O 367.456 1.68846 1.35352 0
M  V30 3891 C 368.051 2.89318 -1.76296 0
M  V30 3892 C 366.61 3.40506 -1.60414 0
M  V30 3893 C 365.757 2.14172 -1.76141 0
M  V30 3894 H 368.708 0.874395 -1.32439 0
M  V30 3895 H 368.729 3.5944 -1.24833 0
M  V30 3896 H 368.241 2.66675 -2.81968 0
M  V30 3897 H 366.342 3.68175 -0.572519 0
M  V30 3898 H 366.455 4.14753 -2.39827 0
M  V30 3899 H 364.819 2.25176 -1.19028 0
M  V30 3900 H 365.602 1.93992 -2.83235 0
M  V30 3901 N 368.047 0.979072 1.23499 0
M  V30 3902 C 369.287 0.655228 1.93613 0
M  V30 3903 C 369.651 -0.796336 1.74707 0
M  V30 3904 O 370.852 -1.23094 2.38959 0
M  V30 3905 C 369.123 1.03337 3.42135 0
M  V30 3906 S 370.682 0.825793 4.3096 0
M  V30 3907 H 367.5 0.240004 0.669267 0
M  V30 3908 H 370.102 1.25843 1.49612 0
M  V30 3909 H 368.806 2.08646 3.53405 0
M  V30 3910 H 368.337 0.421397 3.91137 0
M  V30 3911 H 370.352 -0.290991 4.95346 0
M  V30 3912 N 369.525 -1.3858 0.750561 0
M  V30 3913 C 370.457 -2.29057 0.0810714 0
M  V30 3914 C 371.47 -1.47596 -0.686973 0
M  V30 3915 O 372.659 -1.70495 -0.528563 0
M  V30 3916 C 369.759 -3.26475 -0.909247 0
M  V30 3917 C 368.932 -4.36945 -0.199478 0
M  V30 3918 C 367.991 -5.14572 -1.10011 0
M  V30 3919 O 367.017 -5.66321 -0.57177 0
M  V30 3920 N 368.219 -5.27262 -2.42849 0
M  V30 3921 H 370.984 -2.87153 0.858087 0
M  V30 3922 H 368.545 -1.50328 0.60109 0
M  V30 3923 H 370.537 -3.75285 -1.51471 0
M  V30 3924 H 369.107 -2.69298 -1.58736 0
M  V30 3925 H 368.327 -3.8981 0.586664 0
M  V30 3926 H 369.615 -5.07963 0.291783 0
M  V30 3927 H 369.013 -4.86763 -2.88233 0
M  V30 3928 H 367.57 -5.79456 -2.98453 0
M  V30 3929 N 371.003 -0.499398 -1.49478 0
M  V30 3930 C 371.933 0.269244 -2.31943 0
M  V30 3931 C 372.914 0.964054 -1.40143 0
M  V30 3932 O 374.099 0.955767 -1.69052 0
M  V30 3933 C 371.229 1.33504 -3.20615 0
M  V30 3934 C 370.183 0.760202 -4.21195 0
M  V30 3935 C 369.509 1.9264 -4.98792 0
M  V30 3936 C 370.809 -0.247661 -5.21712 0
M  V30 3937 H 372.503 -0.419082 -2.96452 0
M  V30 3938 H 370.049 -0.202988 -1.42562 0
M  V30 3939 H 372.002 1.88048 -3.77115 0
M  V30 3940 H 370.726 2.05253 -2.54045 0
M  V30 3941 H 369.385 0.23653 -3.65836 0
M  V30 3942 H 369.033 2.63154 -4.28671 0
M  V30 3943 H 368.733 1.54785 -5.66847 0
M  V30 3944 H 370.257 2.4762 -5.58137 0
M  V30 3945 H 371.671 0.209579 -5.72917 0
M  V30 3946 H 370.068 -0.541962 -5.97648 0
M  V30 3947 H 371.138 -1.16409 -4.7072 0
M  V30 3948 N 372.481 1.55866 -0.233164 0
M  V30 3949 C 373.727 1.98897 0.395959 0
M  V30 3950 C 374.06 1.12091 1.58585 0
M  V30 3951 O 373.335 0.181182 1.93654 0
M  V30 3952 C 373.618 3.50658 0.819224 0
M  V30 3953 C 373.471 4.48233 -0.375109 0
M  V30 3954 C 374.79 4.07135 1.67121 0
M  V30 3955 H 371.909 0.723102 0.142451 0
M  V30 3956 H 374.551 1.87082 -0.331725 0
M  V30 3957 H 372.701 3.60857 1.43925 0
M  V30 3958 H 374.373 4.50031 -1.01341 0
M  V30 3959 H 372.616 4.21624 -1.02058 0
M  V30 3960 H 373.287 5.51988 -0.0358328 0
M  V30 3961 H 375.763 3.99952 1.14795 0
M  V30 3962 H 374.639 5.13615 1.93625 0
M  V30 3963 H 374.9 3.54736 2.63846 0
M  V30 3964 N 373.959 -0.0401083 1.57549 0
M  V30 3965 C 374.891 -1.07149 2.02612 0
M  V30 3966 C 375.904 -1.33126 0.937085 0
M  V30 3967 O 377.093 -1.30808 1.21456 0
M  V30 3968 C 374.193 -2.41561 2.37701 0
M  V30 3969 C 373.366 -2.35096 3.68848 0
M  V30 3970 C 372.425 -3.51867 3.91249 0
M  V30 3971 O 371.451 -3.3186 4.62447 0
M  V30 3972 N 372.653 -4.73351 3.36035 0
M  V30 3973 H 375.418 -0.687485 2.91708 0
M  V30 3974 H 372.979 -0.228248 1.60283 0
M  V30 3975 H 374.971 -3.18379 2.49833 0
M  V30 3976 H 373.541 -2.71846 1.54332 0
M  V30 3977 H 372.761 -1.4345 3.67173 0
M  V30 3978 H 374.049 -2.27908 4.54901 0
M  V30 3979 H 373.447 -4.92507 2.78304 0
M  V30 3980 H 372.004 -5.47572 3.53565 0
M  V30 3981 N 375.437 -1.54477 -0.31217 0
M  V30 3982 C 376.37 -1.79519 -1.40884 0
M  V30 3983 C 377.348 -0.645753 -1.49227 0
M  V30 3984 O 378.532 -0.884468 -1.66461 0
M  V30 3985 C 375.659 -1.92194 -2.78889 0
M  V30 3986 C 374.705 -3.14555 -2.88023 0
M  V30 3987 S 375.538 -4.72893 -2.51262 0
M  V30 3988 C 376.694 -4.8849 -3.91317 0
M  V30 3989 H 376.927 -2.72256 -1.19432 0
M  V30 3990 H 374.46 -1.45746 -0.509654 0
M  V30 3991 H 376.418 -2.00182 -3.58382 0
M  V30 3992 H 375.079 -1.00414 -2.97617 0
M  V30 3993 H 374.272 -3.20193 -3.89221 0
M  V30 3994 H 373.874 -3.04955 -2.16514 0
M  V30 3995 H 376.166 -4.71826 -4.86196 0
M  V30 3996 H 377.109 -5.90588 -3.90656 0
M  V30 3997 H 377.517 -4.16715 -3.80801 0
M  V30 3998 N 376.915 0.57481 -1.46744 0
M  V30 3999 C 377.863 1.70435 -1.58286 0
M  V30 4000 C 378.857 1.63287 -0.450956 0
M  V30 4001 O 380.063 1.68685 -0.628121 0
M  V30 4002 H 376.438 0.56364 -0.497809 0
M  V30 4003 H 378.409 1.57833 -2.53242 0
M  V30 4004 C 377.158 3.08815 -1.59776 0
M  V30 4005 H 376.481 3.1499 -2.46214 0
M  V30 4006 H 377.921 3.87588 -1.71905 0
M  V30 4007 C 376.38 3.35301 -0.327812 0
M  V30 4008 O 376.91 3.97511 0.57861 0
M  V30 4009 N 375.116 2.89816 -0.213274 0
M  V30 4010 H 374.663 2.39371 -0.951798 0
M  V30 4011 H 374.621 3.0791 0.63553 0
M  V30 4012 N 378.394 1.34581 0.820102 0
M  V30 4013 C 379.624 1.29991 1.6058 0
M  V30 4014 C 380.032 -0.127588 1.88769 0
M  V30 4015 O 379.375 -1.08595 1.48165 0
M  V30 4016 C 379.437 2.02548 2.9701 0
M  V30 4017 C 379.101 3.51794 2.91701 0
M  V30 4018 C 380.098 4.46647 2.66087 0
M  V30 4019 C 377.783 3.94249 3.11245 0
M  V30 4020 C 379.777 5.81929 2.60071 0
M  V30 4021 C 377.464 5.2963 3.04853 0
M  V30 4022 C 378.462 6.23282 2.793 0
M  V30 4023 O 378.15 7.56181 2.72847 0
M  V30 4024 H 377.882 0.448539 0.505756 0
M  V30 4025 H 380.436 1.77811 1.02822 0
M  V30 4026 H 378.666 1.49345 3.56697 0
M  V30 4027 H 380.355 1.91211 3.58041 0
M  V30 4028 H 381.121 4.15168 2.5072 0
M  V30 4029 H 377 3.21749 3.30149 0
M  V30 4030 H 380.544 6.54999 2.40046 0
M  V30 4031 H 376.441 5.60727 3.19774 0
M  V30 4032 H 377.209 7.6595 2.88553 0
M  V30 4033 N 379.872 -1.04064 1.18357 0
M  V30 4034 C 381.118 -1.77528 0.980397 0
M  V30 4035 C 381.451 -1.87948 -0.48879 0
M  V30 4036 O 380.726 -1.3876 -1.36293 0
M  V30 4037 C 381.009 -3.20797 1.63588 0
M  V30 4038 C 380.862 -3.1832 3.17793 0
M  V30 4039 C 382.181 -4.18911 1.34914 0
M  V30 4040 H 379.3 -0.644443 0.357578 0
M  V30 4041 H 381.942 -1.2156 1.46024 0
M  V30 4042 H 380.092 -3.68586 1.22788 0
M  V30 4043 H 381.764 -2.78521 3.67728 0
M  V30 4044 H 380.007 -2.56351 3.49952 0
M  V30 4045 H 380.678 -4.19489 3.58794 0
M  V30 4046 H 383.154 -3.7967 1.70265 0
M  V30 4047 H 382.03 -5.17374 1.83346 0
M  V30 4048 H 382.291 -4.41262 0.272027 0
M  V30 4049 N 381.35 -0.985608 -1.22978 0
M  V30 4050 C 382.598 -0.656087 -1.91154 0
M  V30 4051 C 382.919 0.813561 -1.77218 0
M  V30 4052 O 382.189 1.58244 -1.1548 0
M  V30 4053 H 380.769 -0.239674 -0.707506 0
M  V30 4054 H 383.431 -1.25054 -1.49491 0
M  V30 4055 H 382.527 -0.912253 -2.9847 0
M  V30 4056 N 382.828 1.3818 -0.7579 0
M  V30 4057 C 383.776 2.32277 -0.122482 0
M  V30 4058 C 384.77 1.54238 0.700505 0
M  V30 4059 O 385.976 1.69737 0.599119 0
M  V30 4060 H 382.351 0.751712 -0.0208143 0
M  V30 4061 H 384.322 2.83469 -0.932099 0
M  V30 4062 C 383.071 3.39447 0.753076 0
M  V30 4063 H 382.394 3.99591 0.129184 0
M  V30 4064 H 383.834 4.07684 1.16489 0
M  V30 4065 C 382.293 2.78375 1.8976 0
M  V30 4066 O 382.823 2.68025 2.99208 0
M  V30 4067 N 381.029 2.36121 1.69397 0
M  V30 4068 H 380.576 2.4474 0.803762 0
M  V30 4069 H 380.534 1.95602 2.46145 0
M  V30 4070 N 384.306 0.507319 1.49211 0
M  V30 4071 C 385.554 -0.0348839 2.0207 0
M  V30 4072 C 385.875 -1.36898 1.38866 0
M  V30 4073 O 385.145 -1.88133 0.546151 0
M  V30 4074 H 383.725 -0.0158812 0.746831 0
M  V30 4075 H 386.387 0.665998 1.83168 0
M  V30 4076 H 385.483 -0.159917 3.1169 0
M  V30 4077 N 385.784 -1.5574 0.241426 0
M  V30 4078 C 387.012 -2.03208 -0.389134 0
M  V30 4079 C 387.427 -1.12082 -1.51931 0
M  V30 4080 O 386.784 -0.134183 -1.82006 0
M  V30 4081 C 386.835 -3.50064 -0.902087 0
M  V30 4082 O 386.556 -4.37717 0.18305 0
M  V30 4083 C 388.057 -4.13268 -1.60389 0
M  V30 4084 H 385.277 -0.664509 -0.0931053 0
M  V30 4085 H 387.821 -2.0124 0.36369 0
M  V30 4086 H 385.976 -3.52583 -1.60511 0
M  V30 4087 H 386.39 -5.24097 -0.205579 0
M  V30 4088 H 387.864 -5.17733 -1.91458 0
M  V30 4089 H 388.341 -3.59434 -2.52397 0
M  V30 4090 H 388.947 -4.14655 -0.945576 0
M  V30 4091 N 387.262 0.0317525 -1.57568 0
M  V30 4092 C 388.508 0.724175 -1.8943 0
M  V30 4093 C 388.841 1.75149 -0.838836 0
M  V30 4094 O 388.116 1.93948 0.146422 0
M  V30 4095 C 388.399 1.39615 -3.31933 0
M  V30 4096 C 388.252 0.382537 -4.4817 0
M  V30 4097 C 389.571 2.33084 -3.73309 0
M  V30 4098 H 386.69 0.261797 -0.688935 0
M  V30 4099 H 389.332 -0.013017 -1.89996 0
M  V30 4100 H 387.482 2.02451 -3.31581 0
M  V30 4101 H 389.154 -0.243689 -4.60656 0
M  V30 4102 H 387.397 -0.29844 -4.32772 0
M  V30 4103 H 388.068 0.891145 -5.44759 0
M  V30 4104 H 390.544 1.80295 -3.7501 0
M  V30 4105 H 389.42 2.77084 -4.73831 0
M  V30 4106 H 389.681 3.19643 -3.05419 0
M  V30 4107 N 388.74 1.54641 0.303973 0
M  V30 4108 C 389.987 1.7378 1.03955 0
M  V30 4109 C 390.315 0.521986 1.87365 0
M  V30 4110 O 389.57 -0.496099 1.89308 0
M  V30 4111 C 389.869 2.97753 1.97681 0
M  V30 4112 C 389.535 4.31671 1.30271 0
M  V30 4113 C 388.197 4.68075 1.11619 0
M  V30 4114 C 390.549 5.147 0.82055 0
M  V30 4115 C 387.877 5.8509 0.434304 0
M  V30 4116 C 390.229 6.32416 0.152395 0
M  V30 4117 C 388.893 6.67484 -0.0461067 0
M  V30 4118 H 388.163 0.635908 0.380398 0
M  V30 4119 H 390.81 1.88896 0.314718 0
M  V30 4120 H 389.115 2.77406 2.76682 0
M  V30 4121 H 390.812 3.09756 2.54661 0
M  V30 4122 H 387.402 4.03041 1.45795 0
M  V30 4123 H 391.586 4.87077 0.952374 0
M  V30 4124 H 386.842 6.10806 0.269495 0
M  V30 4125 H 391.016 6.96023 -0.229126 0
M  V30 4126 H 388.643 7.58011 -0.576494 0
M  V30 4127 N 390.218 -0.567019 1.47046 0
M  V30 4128 C 391.465 -1.32462 1.53167 0
M  V30 4129 C 391.793 -1.93571 0.189841 0
M  V30 4130 O 391.048 -1.77865 -0.816243 0
M  V30 4131 C 391.347 -2.4623 2.59047 0
M  V30 4132 C 391.013 -2.03014 4.02612 0
M  V30 4133 C 389.675 -1.90944 4.41694 0
M  V30 4134 C 392.027 -1.69895 4.92732 0
M  V30 4135 C 389.355 -1.44035 5.68745 0
M  V30 4136 C 391.707 -1.2446 6.20236 0
M  V30 4137 C 390.371 -1.10979 6.5821 0
M  V30 4138 H 389.641 -0.484713 0.560477 0
M  V30 4139 H 392.288 -0.636888 1.80599 0
M  V30 4140 H 390.593 -3.20517 2.25335 0
M  V30 4141 H 392.29 -3.04427 2.61008 0
M  V30 4142 H 388.88 -2.13348 3.71726 0
M  V30 4143 H 393.064 -1.78098 4.63244 0
M  V30 4144 H 388.32 -1.32254 5.96925 0
M  V30 4145 H 392.494 -0.978924 6.89485 0
M  V30 4146 H 390.121 -0.744078 7.5655 0
M  V30 4147 N 391.696 -1.35014 -0.812953 0
M  V30 4148 C 392.945 -1.27269 -1.56479 0
M  V30 4149 C 393.258 0.152771 -1.95002 0
M  V30 4150 O 394.464 0.352451 -2.69203 0
M  V30 4151 C 392.92 -2.23159 -2.82362 0
M  V30 4152 C 392.528 -3.71016 -2.511 0
M  V30 4153 C 394.272 -2.24342 -3.60376 0
M  V30 4154 C 392.179 -4.58746 -3.73237 0
M  V30 4155 H 391.109 -0.472829 -0.587324 0
M  V30 4156 H 393.76 -1.6024 -0.894171 0
M  V30 4157 H 392.142 -1.83151 -3.51101 0
M  V30 4158 H 393.316 -4.1962 -1.90409 0
M  V30 4159 H 391.631 -3.72378 -1.86343 0
M  V30 4160 H 394.228 -2.87107 -4.51081 0
M  V30 4161 H 394.571 -1.24542 -3.97234 0
M  V30 4162 H 395.104 -2.62846 -2.98591 0
M  V30 4163 H 391.843 -5.59521 -3.41492 0
M  V30 4164 H 391.363 -4.14871 -4.33176 0
M  V30 4165 H 393.042 -4.73852 -4.40537 0
M  V30 4166 N 393.175 1.03435 -1.18907 0
M  V30 4167 C 394.105 2.13503 -0.945448 0
M  V30 4168 C 395.086 1.69682 0.119189 0
M  V30 4169 O 396.271 1.94169 -0.034707 0
M  V30 4170 C 393.401 3.44004 -0.477316 0
M  V30 4171 C 392.355 4.0148 -1.48316 0
M  V30 4172 C 391.681 5.27537 -0.872311 0
M  V30 4173 C 392.981 4.36921 -2.86177 0
M  V30 4174 H 394.675 2.34141 -1.86597 0
M  V30 4175 H 392.221 1.12523 -0.898584 0
M  V30 4176 H 394.174 4.20372 -0.294204 0
M  V30 4177 H 392.898 3.23072 0.478786 0
M  V30 4178 H 391.557 3.27201 -1.65332 0
M  V30 4179 H 391.205 5.02917 0.0911752 0
M  V30 4180 H 390.905 5.66954 -1.54393 0
M  V30 4181 H 392.429 6.06576 -0.699871 0
M  V30 4182 H 393.843 5.04248 -2.72776 0
M  V30 4183 H 392.24 4.87405 -3.50081 0
M  V30 4184 H 393.31 3.46466 -3.39248 0
M  V30 4185 N 394.653 0.992116 1.22453 0
M  V30 4186 C 396.064 0.702776 1.72968 0
M  V30 4187 C 396.415 -0.780399 1.80012 0
M  V30 4188 O 395.54 -1.61007 1.44589 0
M  V30 4189 C 396.135 1.26903 3.14135 0
M  V30 4190 C 394.694 1.02909 3.62059 0
M  V30 4191 C 393.841 1.38969 2.39964 0
M  V30 4192 H 396.792 1.16457 1.07812 0
M  V30 4193 H 396.813 0.647223 3.74955 0
M  V30 4194 H 396.325 2.34851 3.08977 0
M  V30 4195 H 394.426 -0.0337979 3.72585 0
M  V30 4196 H 394.539 1.69191 4.48231 0
M  V30 4197 H 392.903 0.808279 2.41535 0
M  V30 4198 H 393.686 2.4792 2.37467 0
M  V30 4199 N 396.131 -1.37776 0.765217 0
M  V30 4200 C 397.408 -1.93975 0.251596 0
M  V30 4201 C 397.788 -1.69949 -1.25222 0
M  V30 4202 O 397.136 -1.04457 -2.03226 0
M  V30 4203 C 397.346 -3.43487 0.617895 0
M  V30 4204 C 398.694 -4.20564 0.584029 0
M  V30 4205 O 399.718 -3.5182 0.556888 0
M  V30 4206 O 398.577 -5.43138 0.605291 0
M  V30 4207 H 395.671 -0.82509 0.0561806 0
M  V30 4208 H 398.217 -1.47101 0.846128 0
M  V30 4209 H 396.989 -3.5453 1.65602 0
M  V30 4210 H 396.612 -3.976 -0.00403411 0
M  V30 4211 N 397.609 -0.515225 -1.4894 0
M  V30 4212 C 398.556 0.255567 -2.29381 0
M  V30 4213 C 399.526 0.947387 -1.36432 0
M  V30 4214 O 400.711 0.951288 -1.65394 0
M  V30 4215 C 397.851 1.30551 -3.19453 0
M  V30 4216 C 396.964 0.624029 -4.27469 0
M  V30 4217 C 396.099 1.65563 -5.0474 0
M  V30 4218 C 395.138 0.956802 -6.04576 0
M  V30 4219 N 394.275 1.93326 -6.74959 0
M  V30 4220 H 399.115 -0.436607 -2.94784 0
M  V30 4221 H 396.652 -0.227154 -1.45336 0
M  V30 4222 H 398.61 1.92639 -3.70062 0
M  V30 4223 H 397.24 1.96626 -2.56004 0
M  V30 4224 H 396.292 -0.110459 -3.8024 0
M  V30 4225 H 397.604 0.0746092 -4.98744 0
M  V30 4226 H 396.758 2.35119 -5.59289 0
M  V30 4227 H 395.497 2.23893 -4.3327 0
M  V30 4228 H 394.502 0.247097 -5.49244 0
M  V30 4229 H 395.727 0.379814 -6.78037 0
M  V30 4230 H 393.673 2.50591 -6.06251 0
M  V30 4231 H 393.59 1.43489 -7.42258 0
M  V30 4232 H 394.858 2.62126 -7.34105 0
M  V30 4233 N 399.087 1.5561 -0.249682 0
M  V30 4234 C 400.335 1.98618 0.373548 0
M  V30 4235 C 400.656 1.13919 1.58264 0
M  V30 4236 O 399.926 0.222637 1.94631 0
M  V30 4237 H 398.506 0.733571 0.141006 0
M  V30 4238 H 401.168 1.91748 -0.349117 0
M  V30 4239 H 400.264 3.04584 0.680796 0
M  V30 4240 N 400.565 -0.0233959 1.57583 0
M  V30 4241 C 401.512 -1.02224 2.06927 0
M  V30 4242 C 402.482 -1.35575 0.959617 0
M  V30 4243 O 403.667 -1.45815 1.23055 0
M  V30 4244 C 400.807 -2.31636 2.5581 0
M  V30 4245 C 399.92 -2.04394 3.80588 0
M  V30 4246 C 399.055 -3.27717 4.18061 0
M  V30 4247 C 398.094 -2.96056 5.3574 0
M  V30 4248 N 397.231 -4.11847 5.68618 0
M  V30 4249 H 402.071 -0.594504 2.9201 0
M  V30 4250 H 399.608 -0.281921 1.44373 0
M  V30 4251 H 401.566 -3.07258 2.82221 0
M  V30 4252 H 400.196 -2.72122 1.73636 0
M  V30 4253 H 399.248 -1.19244 3.61227 0
M  V30 4254 H 400.56 -1.77042 4.66323 0
M  V30 4255 H 399.714 -4.11702 4.4563 0
M  V30 4256 H 398.453 -3.58188 3.30988 0
M  V30 4257 H 397.458 -2.10474 5.07918 0
M  V30 4258 H 398.683 -2.66857 6.24471 0
M  V30 4259 H 396.629 -4.42258 4.84504 0
M  V30 4260 H 396.546 -3.87938 6.48876 0
M  V30 4261 H 397.814 -4.96689 6.00766 0
M  V30 4262 N 402.043 -1.548 -0.295768 0
M  V30 4263 C 402.976 -1.81003 -1.38972 0
M  V30 4264 C 403.954 -0.661544 -1.48534 0
M  V30 4265 O 405.138 -0.902074 -1.65514 0
M  V30 4266 C 402.265 -1.95141 -2.76835 0
M  V30 4267 C 401.311 -3.17592 -2.84671 0
M  V30 4268 S 402.144 -4.75531 -2.46232 0
M  V30 4269 C 403.3 -4.92613 -3.86114 0
M  V30 4270 H 403.533 -2.73507 -1.16537 0
M  V30 4271 H 401.066 -1.46278 -0.494168 0
M  V30 4272 H 403.024 -2.03972 -3.56238 0
M  V30 4273 H 401.685 -1.03565 -2.96535 0
M  V30 4274 H 400.878 -3.24303 -3.85803 0
M  V30 4275 H 400.48 -3.07235 -2.13267 0
M  V30 4276 H 402.772 -4.76957 -4.81164 0
M  V30 4277 H 403.715 -5.94698 -3.8437 0
M  V30 4278 H 404.123 -4.2073 -3.76359 0
M  V30 4279 N 403.521 0.559213 -1.47345 0
M  V30 4280 C 404.469 1.68747 -1.60085 0
M  V30 4281 C 405.463 1.628 -0.46825 0
M  V30 4282 O 406.669 1.68009 -0.645977 0
M  V30 4283 H 403.044 0.558329 -0.503759 0
M  V30 4284 H 405.015 1.55138 -2.54902 0
M  V30 4285 C 403.764 3.07103 -1.63042 0
M  V30 4286 H 403.087 3.12361 -2.49541 0
M  V30 4287 H 404.527 3.85743 -1.76006 0
M  V30 4288 C 402.986 3.34935 -0.363357 0
M  V30 4289 O 403.516 3.98102 0.536416 0
M  V30 4290 N 401.722 2.89574 -0.244 0
M  V30 4291 H 401.269 2.38348 -0.977133 0
M  V30 4292 H 401.227 3.08566 0.602836 0
M  V30 4293 N 404.999 1.35443 0.805782 0
M  V30 4294 C 406.227 1.31878 1.59423 0
M  V30 4295 C 406.642 -0.103562 1.88516 0
M  V30 4296 O 405.999 -1.05575 1.48863 0
M  V30 4297 C 406.05 2.12426 2.92502 0
M  V30 4298 O 405.771 3.49115 2.6467 0
M  V30 4299 C 407.272 2.16455 3.86862 0
M  V30 4300 H 404.492 0.453002 0.495005 0
M  V30 4301 H 407.036 1.78309 1.00131 0
M  V30 4302 H 405.191 1.69593 3.48306 0
M  V30 4303 H 405.605 3.90957 3.49647 0
M  V30 4304 H 407.079 2.77204 4.77349 0
M  V30 4305 H 407.556 1.16352 4.23508 0
M  V30 4306 H 408.162 2.59453 3.36993 0
M  V30 4307 N 406.477 -1.02803 1.19454 0
M  V30 4308 C 407.723 -1.76478 0.999171 0
M  V30 4309 C 408.056 -1.88456 -0.468828 0
M  V30 4310 O 407.331 -1.40198 -1.34814 0
M  V30 4311 C 407.614 -3.19044 1.66981 0
M  V30 4312 C 407.467 -3.14932 3.21151 0
M  V30 4313 C 408.786 -4.17456 1.39349 0
M  V30 4314 H 405.905 -0.640614 0.364393 0
M  V30 4315 H 408.547 -1.20005 1.47305 0
M  V30 4316 H 406.697 -3.67263 1.2669 0
M  V30 4317 H 408.369 -2.74605 3.70661 0
M  V30 4318 H 406.612 -2.52625 3.52652 0
M  V30 4319 H 407.283 -4.1566 3.63223 0
M  V30 4320 H 409.759 -3.77842 1.74283 0
M  V30 4321 H 408.635 -5.154 1.88823 0
M  V30 4322 H 408.896 -4.40949 0.318813 0
M  V30 4323 N 407.956 -0.998596 -1.21925 0
M  V30 4324 C 409.205 -0.673085 -1.90138 0
M  V30 4325 C 409.518 0.79895 -1.78539 0
M  V30 4326 O 410.724 1.23628 -2.4172 0
M  V30 4327 C 409.18 -1.15339 -3.40918 0
M  V30 4328 C 408.788 -2.65106 -3.61141 0
M  V30 4329 C 410.532 -0.902476 -4.14796 0
M  V30 4330 C 408.439 -3.0671 -5.05651 0
M  V30 4331 H 407.369 -0.248057 -0.712028 0
M  V30 4332 H 410.02 -1.20891 -1.38049 0
M  V30 4333 H 408.402 -0.545658 -3.92223 0
M  V30 4334 H 409.576 -3.31274 -3.20304 0
M  V30 4335 H 407.891 -2.88142 -3.00605 0
M  V30 4336 H 410.488 -1.18895 -5.21314 0
M  V30 4337 H 410.831 0.161349 -4.15987 0
M  V30 4338 H 411.364 -1.47269 -3.69536 0
M  V30 4339 H 408.103 -4.12292 -5.09603 0
M  V30 4340 H 407.623 -2.45249 -5.47369 0
M  V30 4341 H 409.302 -2.9833 -5.74115 0
M  V30 4342 N 409.434 1.37368 -0.772513 0
M  V30 4343 C 410.397 2.28601 -0.165541 0
M  V30 4344 C 411.397 1.48062 0.627238 0
M  V30 4345 O 412.587 1.68268 0.450715 0
M  V30 4346 C 409.719 3.32023 0.772897 0
M  V30 4347 H 410.912 2.83787 -0.969787 0
M  V30 4348 H 408.465 1.46647 -0.540775 0
M  V30 4349 H 409.2 2.81962 1.60212 0
M  V30 4350 H 408.985 3.91555 0.206585 0
M  V30 4351 H 410.475 4.00197 1.19298 0
M  V30 4352 N 410.912 0.523116 1.48665 0
M  V30 4353 C 411.875 -0.232592 2.28017 0
M  V30 4354 C 412.875 -0.874021 1.34972 0
M  V30 4355 O 414.065 -0.735132 1.57929 0
M  V30 4356 C 411.197 -1.33586 3.13636 0
M  V30 4357 H 412.39 0.464008 2.96289 0
M  V30 4358 H 409.943 0.278816 1.53793 0
M  V30 4359 H 410.678 -2.06593 2.4998 0
M  V30 4360 H 410.463 -0.881125 3.82071 0
M  V30 4361 H 411.953 -1.86759 3.73511 0
M  V30 4362 N 412.39 -1.55475 0.257931 0
M  V30 4363 C 413.32 -2.24815 -0.630912 0
M  V30 4364 C 414.301 -1.23224 -1.17259 0
M  V30 4365 O 415.486 -1.51904 -1.20991 0
M  V30 4366 C 412.616 -2.95609 -1.82298 0
M  V30 4367 C 411.57 -4.03982 -1.41359 0
M  V30 4368 C 410.896 -4.6226 -2.68738 0
M  V30 4369 C 412.196 -5.19109 -0.57648 0
M  V30 4370 H 413.89 -2.99354 -0.0526878 0
M  V30 4371 H 411.436 -1.4398 -0.023901 0
M  V30 4372 H 413.389 -3.42822 -2.45054 0
M  V30 4373 H 412.113 -2.18577 -2.42676 0
M  V30 4374 H 410.772 -3.57555 -0.809324 0
M  V30 4375 H 410.42 -3.81915 -3.27338 0
M  V30 4376 H 410.12 -5.35424 -2.42065 0
M  V30 4377 H 411.644 -5.12212 -3.32372 0
M  V30 4378 H 413.058 -5.62479 -1.10861 0
M  V30 4379 H 411.455 -5.98729 -0.405351 0
M  V30 4380 H 412.525 -4.83174 0.408776 0
M  V30 4381 N 413.868 0.0150385 -1.57593 0
M  V30 4382 C 415.093 0.718067 -1.94573 0
M  V30 4383 C 415.518 1.6734 -0.859005 0
M  V30 4384 O 414.876 1.80362 0.184147 0
M  V30 4385 C 414.924 1.43918 -3.30636 0
M  V30 4386 O 414.028 2.55299 -3.23876 0
M  V30 4387 H 413.369 0.192125 -0.635597 0
M  V30 4388 H 415.899 -0.0336708 -2.04572 0
M  V30 4389 H 415.909 1.80598 -3.65853 0
M  V30 4390 H 414.584 0.738619 -4.09289 0
M  V30 4391 H 413.161 2.21058 -3.00312 0
M  V30 4392 N 415.346 1.54954 0.287554 0
M  V30 4393 C 416.762 1.46469 0.633964 0
M  V30 4394 C 416.962 0.666865 1.90145 0
M  V30 4395 O 416.018 0.179906 2.51858 0
M  V30 4396 C 417.331 2.90556 0.774454 0
M  V30 4397 C 418.879 3.00681 0.869462 0
M  V30 4398 C 419.354 4.45993 1.04184 0
M  V30 4399 N 420.845 4.4976 1.10772 0
M  V30 4400 C 421.58 5.59393 1.25964 0
M  V30 4401 N 421.076 6.78923 1.37968 0
M  V30 4402 N 422.869 5.47107 1.28959 0
M  V30 4403 H 415.02 2.05288 -0.545041 0
M  V30 4404 H 417.283 0.930305 -0.182308 0
M  V30 4405 H 416.989 3.51594 -0.086207 0
M  V30 4406 H 416.863 3.38743 1.6593 0
M  V30 4407 H 419.25 2.39749 1.7206 0
M  V30 4408 H 419.331 2.55769 -0.0396831 0
M  V30 4409 H 418.975 5.07524 0.195422 0
M  V30 4410 H 418.905 4.88548 1.96542 0
M  V30 4411 H 421.396 3.63651 1.02794 0
M  V30 4412 H 421.709 7.58231 1.49353 0
M  V30 4413 H 420.054 6.81763 1.34999 0
M  V30 4414 H 423.245 4.52668 1.19202 0
M  V30 4415 H 423.418 6.32595 1.40455 0
M  V30 4416 N 416.824 -0.551391 1.4764 0
M  V30 4417 C 418.101 -1.31229 1.45046 0
M  V30 4418 C 418.481 -2.10563 0.150527 0
M  V30 4419 O 417.829 -2.11374 -0.867956 0
M  V30 4420 C 418.039 -2.21189 2.69956 0
M  V30 4421 C 419.387 -2.82021 3.1741 0
M  V30 4422 O 420.411 -2.31488 2.70724 0
M  V30 4423 O 419.27 -3.73885 3.98588 0
M  V30 4424 H 416.364 -0.591193 0.578291 0
M  V30 4425 H 418.91 -0.569813 1.59847 0
M  V30 4426 H 417.682 -1.62207 3.56096 0
M  V30 4427 H 417.305 -3.02722 2.57769 0
M  V30 4428 N 418.302 -1.35869 -0.798587 0
M  V30 4429 C 419.53 -1.32722 -1.58722 0
M  V30 4430 C 419.945 0.0935631 -1.88568 0
M  V30 4431 O 419.302 1.04784 -1.49421 0
M  V30 4432 C 419.353 -2.13974 -2.91371 0
M  V30 4433 O 419.074 -3.50514 -2.62815 0
M  V30 4434 C 420.575 -2.18504 -3.85708 0
M  V30 4435 H 417.795 -0.45562 -0.492596 0
M  V30 4436 H 420.339 -1.78837 -0.991843 0
M  V30 4437 H 418.494 -1.71438 -3.47402 0
M  V30 4438 H 418.908 -3.92806 -3.47568 0
M  V30 4439 H 420.382 -2.79732 -4.75872 0
M  V30 4440 H 420.859 -1.18597 -4.22885 0
M  V30 4441 H 421.465 -2.61236 -3.35612 0
M  V30 4442 N 419.78 1.02168 -1.19998 0
M  V30 4443 C 421.029 1.75091 -1.0013 0
M  V30 4444 C 421.342 1.89923 0.467835 0
M  V30 4445 O 422.548 2.59888 0.785515 0
M  V30 4446 C 421.004 3.14892 -1.74273 0
M  V30 4447 C 420.612 3.0809 -3.25245 0
M  V30 4448 C 422.356 3.9206 -1.62755 0
M  V30 4449 C 420.263 4.42867 -3.91948 0
M  V30 4450 H 419.193 0.656394 -0.37103 0
M  V30 4451 H 421.844 1.14284 -1.43567 0
M  V30 4452 H 420.226 3.7621 -1.2362 0
M  V30 4453 H 421.4 2.5611 -3.83072 0
M  V30 4454 H 419.715 2.44416 -3.3712 0
M  V30 4455 H 422.312 4.91764 -2.09934 0
M  V30 4456 H 422.655 4.12199 -0.582894 0
M  V30 4457 H 423.188 3.37359 -2.10793 0
M  V30 4458 H 419.927 4.27931 -4.96543 0
M  V30 4459 H 419.447 4.94874 -3.3891 0
M  V30 4460 H 421.126 5.11728 -3.95909 0
M  V30 4461 N 421.258 1.00505 1.21394 0
M  V30 4462 C 422.206 0.558623 2.25792 0
M  V30 4463 C 423.2 -0.396848 1.64686 0
M  V30 4464 O 424.406 -0.268035 1.77993 0
M  V30 4465 H 420.781 0.1623 0.734277 0
M  V30 4466 H 422.752 1.4503 2.60785 0
M  V30 4467 C 421.501 -0.0989574 3.47559 0
M  V30 4468 H 420.824 0.627225 3.94849 0
M  V30 4469 H 422.264 -0.3746 4.22342 0
M  V30 4470 C 420.723 -1.33817 3.09184 0
M  V30 4471 O 421.253 -2.43252 3.19674 0
M  V30 4472 N 419.459 -1.21793 2.63846 0
M  V30 4473 H 419.006 -0.32746 2.5551 0
M  V30 4474 H 418.964 -2.04809 2.38539 0
M  V30 4475 N 422.737 -1.36956 0.779787 0
M  V30 4476 C 424.153 -1.52817 0.460342 0
M  V30 4477 C 424.353 -1.7361 -1.02283 0
M  V30 4478 O 423.409 -1.76207 -1.80852 0
M  V30 4479 C 424.722 -2.71983 1.28241 0
M  V30 4480 C 426.27 -2.85849 1.27512 0
M  V30 4481 C 426.745 -4.08008 2.08072 0
M  V30 4482 N 428.236 -4.15135 2.05467 0
M  V30 4483 C 428.971 -5.08711 2.64577 0
M  V30 4484 N 428.467 -6.07792 3.32506 0
M  V30 4485 N 430.26 -5.01254 2.54363 0
M  V30 4486 H 422.411 -1.21713 1.74068 0
M  V30 4487 H 424.674 -0.593294 0.739396 0
M  V30 4488 H 424.38 -2.63109 2.33381 0
M  V30 4489 H 424.254 -3.65882 0.917088 0
M  V30 4490 H 426.641 -2.94189 0.231686 0
M  V30 4491 H 426.722 -1.92886 1.68014 0
M  V30 4492 H 426.366 -4.00429 3.12441 0
M  V30 4493 H 426.296 -5.001 1.64947 0
M  V30 4494 H 428.787 -3.44189 1.5602 0
M  V30 4495 H 429.1 -6.75739 3.74963 0
M  V30 4496 H 427.445 -6.08047 3.36606 0
M  V30 4497 H 430.636 -4.22795 2.00902 0
M  V30 4498 H 430.809 -5.73995 3.00722 0
M  V30 4499 N 424.215 -0.530993 -1.48385 0
M  V30 4500 C 425.461 -0.00538653 -2.03399 0
M  V30 4501 C 425.816 1.31899 -1.40073 0
M  V30 4502 O 425.109 1.83901 -0.537676 0
M  V30 4503 C 425.303 0.172742 -3.56982 0
M  V30 4504 C 425.132 -1.13282 -4.35198 0
M  V30 4505 C 423.902 -1.69296 -4.76096 0
M  V30 4506 C 426.1 -2.04367 -4.71952 0
M  V30 4507 N 424.082 -2.9413 -5.38851 0
M  V30 4508 C 425.453 -3.13777 -5.34737 0
M  V30 4509 C 427.508 -2.04681 -4.53883 0
M  V30 4510 C 426.211 -4.23567 -5.81363 0
M  V30 4511 C 428.237 -3.13466 -5.01491 0
M  V30 4512 C 427.599 -4.21595 -5.64302 0
M  V30 4513 H 423.698 -0.0434945 -0.780789 0
M  V30 4514 H 426.282 -0.712495 -1.81195 0
M  V30 4515 H 424.453 0.848937 -3.79009 0
M  V30 4516 H 426.185 0.698046 -3.98634 0
M  V30 4517 H 422.94 -1.23422 -4.57235 0
M  V30 4518 H 423.364 -3.57689 -5.74794 0
M  V30 4519 H 428.006 -1.22378 -4.04702 0
M  V30 4520 H 425.724 -5.06648 -6.2955 0
M  V30 4521 H 429.31 -3.14765 -4.893 0
M  V30 4522 H 428.19 -5.04384 -6.00472 0
M  V30 4523 N 425.693 1.55336 -0.266172 0
M  V30 4524 C 426.918 2.04258 0.359661 0
M  V30 4525 C 427.343 1.14359 1.49344 0
M  V30 4526 O 426.701 0.140369 1.80756 0
M  V30 4527 C 426.749 3.50997 0.826635 0
M  V30 4528 O 425.853 3.64204 1.93466 0
M  V30 4529 H 425.194 0.659668 0.075727 0
M  V30 4530 H 427.724 2.00694 -0.39786 0
M  V30 4531 H 427.734 3.9219 1.12477 0
M  V30 4532 H 426.409 4.159 -0.00293032 0
M  V30 4533 H 424.986 3.34913 1.63974 0
M  V30 4534 N 427.171 -0.0066808 1.57599 0
M  V30 4535 C 428.134 -0.985035 2.06953 0
M  V30 4536 C 429.134 -1.27663 0.977687 0
M  V30 4537 O 430.324 -1.22293 1.24057 0
M  V30 4538 C 427.456 -2.3118 2.50536 0
M  V30 4539 H 428.649 -0.558255 2.94658 0
M  V30 4540 H 426.202 -0.254011 1.54222 0
M  V30 4541 H 426.937 -2.78561 1.66054 0
M  V30 4542 H 426.722 -2.11338 3.3027 0
M  V30 4543 H 428.212 -3.01377 2.8907 0
M  V30 4544 N 428.649 -1.55105 -0.279332 0
M  V30 4545 C 429.897 -1.75066 -1.00977 0
M  V30 4546 C 430.218 -0.551276 -1.87045 0
M  V30 4547 O 429.488 0.433984 -1.91032 0
M  V30 4548 H 428.068 -0.645578 -0.375816 0
M  V30 4549 H 430.73 -1.92497 -0.305089 0
M  V30 4550 H 429.826 -2.64894 -1.65038 0
M  V30 4551 N 430.127 0.543554 -1.4793 0
M  V30 4552 C 431.057 1.65888 -1.64327 0
M  V30 4553 C 432.038 1.62818 -0.492383 0
M  V30 4554 O 433.223 1.80226 -0.723338 0
M  V30 4555 C 430.353 3.04506 -1.67013 0
M  V30 4556 C 429.307 3.2243 -2.81466 0
M  V30 4557 C 428.633 4.61972 -2.69233 0
M  V30 4558 C 429.933 3.06496 -4.22915 0
M  V30 4559 H 431.627 1.52421 -2.57698 0
M  V30 4560 H 429.173 0.731849 -1.24016 0
M  V30 4561 H 431.126 3.82391 -1.77074 0
M  V30 4562 H 429.85 3.18964 -0.70212 0
M  V30 4563 H 428.509 2.46957 -2.70938 0
M  V30 4564 H 428.157 4.73247 -1.7043 0
M  V30 4565 H 427.857 4.74911 -3.46025 0
M  V30 4566 H 429.381 5.41974 -2.81242 0
M  V30 4567 H 430.795 3.74186 -4.34348 0
M  V30 4568 H 429.192 3.30938 -5.006 0
M  V30 4569 H 430.262 2.03077 -4.40327 0
M  V30 4570 N 431.605 1.3629 0.791371 0
M  V30 4571 C 432.833 1.33562 1.58016 0
M  V30 4572 C 433.248 -0.0835616 1.88615 0
M  V30 4573 O 432.605 -1.0399 1.49974 0
M  V30 4574 C 432.656 2.15517 2.90232 0
M  V30 4575 O 432.377 3.51902 2.60953 0
M  V30 4576 C 433.878 2.20546 3.84544 0
M  V30 4577 H 431.098 0.458226 0.490173 0
M  V30 4578 H 433.642 1.79361 0.982345 0
M  V30 4579 H 431.797 1.73278 3.46487 0
M  V30 4580 H 432.211 3.94644 3.4548 0
M  V30 4581 H 433.685 2.82252 4.74382 0
M  V30 4582 H 434.162 1.20838 4.2225 0
M  V30 4583 H 434.768 2.63013 3.34222 0
M  V30 4584 N 433.083 -1.0153 1.20538 0
M  V30 4585 C 434.308 -1.79283 1.04271 0
M  V30 4586 C 434.733 -1.8372 -0.403544 0
M  V30 4587 O 434.091 -1.27321 -1.2907 0
M  V30 4588 C 434.139 -3.21535 1.63241 0
M  V30 4589 O 433.243 -4.03099 0.870908 0
M  V30 4590 H 432.584 -0.55293 0.367647 0
M  V30 4591 H 435.114 -1.27696 1.59859 0
M  V30 4592 H 435.124 -3.72243 1.6703 0
M  V30 4593 H 433.799 -3.1762 2.68497 0
M  V30 4594 H 432.376 -3.61693 0.907323 0
M  V30 4595 N 434.561 -1.01147 -1.20859 0
M  V30 4596 C 435.786 -0.716698 -1.94623 0
M  V30 4597 C 436.211 0.715415 -1.73964 0
M  V30 4598 O 435.569 1.49157 -1.03062 0
M  V30 4599 C 435.617 -1.0513 -3.44935 0
M  V30 4600 O 434.721 -0.160131 -4.12089 0
M  V30 4601 H 434.062 -0.266404 -0.608214 0
M  V30 4602 H 436.592 -1.35346 -1.53436 0
M  V30 4603 H 436.602 -1.00086 -3.95533 0
M  V30 4604 H 435.277 -2.09475 -3.59295 0
M  V30 4605 H 433.854 -0.267657 -3.71938 0
M  V30 4606 N 436.039 1.36541 -0.78704 0
M  V30 4607 C 436.971 2.28761 -0.141773 0
M  V30 4608 C 437.984 1.49365 0.647599 0
M  V30 4609 O 439.173 1.71836 0.483173 0
M  V30 4610 C 436.273 3.28771 0.822368 0
M  V30 4611 C 435.446 4.3732 0.0835594 0
M  V30 4612 C 434.505 5.17307 0.963296 0
M  V30 4613 O 433.531 5.67638 0.421419 0
M  V30 4614 N 434.733 5.33515 2.28784 0
M  V30 4615 H 437.498 2.84777 -0.933919 0
M  V30 4616 H 435.059 1.48682 -0.640735 0
M  V30 4617 H 437.051 3.79169 1.41468 0
M  V30 4618 H 435.621 2.73412 1.5154 0
M  V30 4619 H 434.841 3.88118 -0.689809 0
M  V30 4620 H 436.129 5.0701 -0.426358 0
M  V30 4621 H 435.527 4.94234 2.75226 0
M  V30 4622 H 434.084 5.87165 2.82985 0
M  V30 4623 N 437.518 0.538854 1.48102 0
M  V30 4624 C 438.764 0.00801365 2.02798 0
M  V30 4625 C 439.097 -1.3309 1.41424 0
M  V30 4626 O 438.372 -1.86169 0.563158 0
M  V30 4627 C 438.655 -0.104589 3.59948 0
M  V30 4628 C 438.508 1.26012 4.31788 0
M  V30 4629 C 439.827 -0.827055 4.32259 0
M  V30 4630 H 436.946 0.00438624 0.736987 0
M  V30 4631 H 439.588 0.6976 1.7673 0
M  V30 4632 H 437.738 -0.691893 3.82289 0
M  V30 4633 H 439.41 1.88922 4.2084 0
M  V30 4634 H 437.653 1.83968 3.92859 0
M  V30 4635 H 438.324 1.13424 5.40221 0
M  V30 4636 H 440.8 -0.328578 4.14801 0
M  V30 4637 H 439.676 -0.87476 5.41885 0
M  V30 4638 H 439.937 -1.87927 4.0017 0
M  V30 4639 N 438.996 -1.55193 0.274407 0
M  V30 4640 C 440.273 -1.91584 -0.394331 0
M  V30 4641 C 440.653 -1.19858 -1.73774 0
M  V30 4642 O 440.001 -0.3252 -2.26174 0
M  V30 4643 C 440.211 -3.4487 -0.535311 0
M  V30 4644 C 441.559 -4.16636 -0.818534 0
M  V30 4645 O 442.583 -3.5076 -0.620146 0
M  V30 4646 O 441.442 -5.33209 -1.19792 0
M  V30 4647 H 438.536 -0.798349 -0.215794 0
M  V30 4648 H 441.082 -1.66646 0.320507 0
M  V30 4649 H 439.854 -3.89145 0.410141 0
M  V30 4650 H 439.477 -3.75759 -1.29964 0
M  V30 4651 N 440.474 -0.00167713 -1.576 0
M  V30 4652 C 441.404 0.988091 -2.11563 0
M  V30 4653 C 442.385 1.35736 -1.02517 0
M  V30 4654 O 443.57 1.44082 -1.30208 0
M  V30 4655 C 440.7 2.27941 -2.62031 0
M  V30 4656 C 439.654 2.0517 -3.75619 0
M  V30 4657 C 438.98 3.4033 -4.12407 0
M  V30 4658 C 440.28 1.41294 -5.02825 0
M  V30 4659 H 441.974 0.538771 -2.94513 0
M  V30 4660 H 439.52 0.257712 -1.41675 0
M  V30 4661 H 441.473 2.97539 -2.9841 0
M  V30 4662 H 440.197 2.74989 -1.76205 0
M  V30 4663 H 438.856 1.37998 -3.39635 0
M  V30 4664 H 438.504 3.85085 -3.23603 0
M  V30 4665 H 438.204 3.25909 -4.88935 0
M  V30 4666 H 439.728 4.1124 -4.51347 0
M  V30 4667 H 441.142 2.00851 -5.36965 0
M  V30 4668 H 439.539 1.37356 -5.84169 0
M  V30 4669 H 440.609 0.382362 -4.8339 0
M  V30 4670 N 441.952 1.55251 0.271103 0
M  V30 4671 C 443.182 1.79713 1.01916 0
M  V30 4672 C 443.59 0.571613 1.80359 0
M  V30 4673 O 442.933 -0.468853 1.77616 0
M  V30 4674 C 442.995 2.97138 2.02359 0
M  V30 4675 C 442.659 4.34104 1.42837 0
M  V30 4676 C 443.656 5.13019 0.843071 0
M  V30 4677 C 441.341 4.80765 1.455 0
M  V30 4678 C 443.335 6.36729 0.292333 0
M  V30 4679 C 441.022 6.0443 0.900402 0
M  V30 4680 C 442.02 6.8225 0.32007 0
M  V30 4681 O 441.708 8.03582 -0.226031 0
M  V30 4682 H 441.44 0.602431 0.306681 0
M  V30 4683 H 443.994 2.03097 0.306701 0
M  V30 4684 H 442.224 2.6945 2.77369 0
M  V30 4685 H 443.913 3.08907 2.63309 0
M  V30 4686 H 444.679 4.781 0.815178 0
M  V30 4687 H 440.558 4.20202 1.89609 0
M  V30 4688 H 444.102 6.97414 -0.161274 0
M  V30 4689 H 439.999 6.3883 0.925541 0
M  V30 4690 H 440.767 8.18418 -0.115572 0
M  V30 4691 N 443.43 -0.535701 1.48216 0
M  V30 4692 C 444.679 -1.28828 1.55197 0
M  V30 4693 C 444.992 -1.94263 0.228278 0
M  V30 4694 O 446.198 -2.70927 0.176278 0
M  V30 4695 C 444.654 -2.33727 2.73678 0
M  V30 4696 C 444.262 -1.74386 4.12666 0
M  V30 4697 C 446.006 -3.1003 2.89968 0
M  V30 4698 C 443.913 -2.77192 5.22416 0
M  V30 4699 H 442.843 -0.484484 0.577747 0
M  V30 4700 H 445.494 -0.56646 1.74538 0
M  V30 4701 H 443.876 -3.08919 2.4776 0
M  V30 4702 H 445.05 -1.05421 4.48579 0
M  V30 4703 H 443.365 -1.10595 4.01445 0
M  V30 4704 H 445.962 -3.86842 3.6913 0
M  V30 4705 H 446.305 -3.65542 1.9921 0
M  V30 4706 H 446.838 -2.41952 3.15759 0
M  V30 4707 H 443.577 -2.26507 6.15122 0
M  V30 4708 H 443.097 -3.44502 4.90998 0
M  V30 4709 H 444.776 -3.40285 5.50286 0
M  V30 4710 N 444.908 -1.36708 -0.784132 0
M  V30 4711 C 446.319 -1.27947 -1.35965 0
M  V30 4712 C 446.67 0.0784013 -1.96043 0
M  V30 4713 O 445.795 0.979989 -1.92938 0
M  V30 4714 C 446.39 -2.31689 -2.47195 0
M  V30 4715 C 444.949 -2.26601 -3.00548 0
M  V30 4716 C 444.096 -2.16184 -1.73666 0
M  V30 4717 H 447.047 -1.4751 -0.585358 0
M  V30 4718 H 447.068 -1.95638 -3.26352 0
M  V30 4719 H 446.58 -3.30506 -2.03439 0
M  V30 4720 H 444.681 -1.31268 -3.48711 0
M  V30 4721 H 444.794 -3.19508 -3.57004 0
M  V30 4722 H 443.158 -1.62524 -1.96107 0
M  V30 4723 H 443.941 -3.16896 -1.32031 0
M  V30 4724 N 446.386 1.0089 -1.21074 0
M  V30 4725 C 447.333 2.09588 -0.966512 0
M  V30 4726 C 448.303 1.65761 0.106089 0
M  V30 4727 O 449.488 1.90758 -0.0402287 0
M  V30 4728 C 446.628 3.40958 -0.533058 0
M  V30 4729 C 445.741 3.9822 -1.67467 0
M  V30 4730 C 444.876 5.17682 -1.19076 0
M  V30 4731 C 443.915 5.67043 -2.30496 0
M  V30 4732 N 443.052 6.77759 -1.83267 0
M  V30 4733 H 447.892 2.29815 -1.89708 0
M  V30 4734 H 445.429 1.12689 -0.945489 0
M  V30 4735 H 447.387 4.1637 -0.263019 0
M  V30 4736 H 446.017 3.20781 0.360505 0
M  V30 4737 H 445.069 3.1983 -2.05944 0
M  V30 4738 H 446.381 4.3085 -2.51336 0
M  V30 4739 H 445.535 6.00326 -0.877151 0
M  V30 4740 H 444.274 4.86635 -0.322066 0
M  V30 4741 H 443.279 4.82999 -2.62664 0
M  V30 4742 H 444.504 6.00121 -3.17855 0
M  V30 4743 H 442.45 6.48527 -0.987356 0
M  V30 4744 H 442.367 7.09624 -2.60711 0
M  V30 4745 H 443.635 7.63949 -1.54928 0
M  V30 4746 N 447.864 1.01787 1.20321 0
M  V30 4747 C 449.11 0.708985 1.90003 0
M  V30 4748 C 449.443 -0.759572 1.78729 0
M  V30 4749 O 448.718 -1.55198 1.17234 0
M  V30 4750 C 449.001 1.1469 3.41348 0
M  V30 4751 C 448.854 2.67586 3.61549 0
M  V30 4752 C 450.173 0.71915 4.34185 0
M  V30 4753 H 447.292 0.259034 0.689978 0
M  V30 4754 H 449.934 1.26584 1.41692 0
M  V30 4755 H 448.084 0.673128 3.82624 0
M  V30 4756 H 449.756 3.22826 3.29517 0
M  V30 4757 H 447.999 3.085 3.04976 0
M  V30 4758 H 448.67 2.93281 4.67643 0
M  V30 4759 H 451.146 1.12647 4.00562 0
M  V30 4760 H 450.022 1.05358 5.38694 0
M  V30 4761 H 450.283 -0.379111 4.40472 0
M  V30 4762 N 449.342 -1.36122 0.79427 0
M  V30 4763 C 450.57 -2.03362 0.380989 0
M  V30 4764 C 450.985 -1.59881 -1.00416 0
M  V30 4765 O 450.342 -0.790515 -1.6449 0
M  V30 4766 C 450.393 -3.58804 0.440649 0
M  V30 4767 O 450.114 -4.007 1.77118 0
M  V30 4768 C 451.615 -4.43296 0.0186117 0
M  V30 4769 H 448.835 -0.652526 0.156367 0
M  V30 4770 H 451.379 -1.73998 1.07447 0
M  V30 4771 H 449.534 -3.8686 -0.204458 0
M  V30 4772 H 449.948 -4.95309 1.72538 0
M  V30 4773 H 451.422 -5.51887 0.111488 0
M  V30 4774 H 451.899 -4.2684 -1.03461 0
M  V30 4775 H 452.505 -4.20512 0.636395 0
M  V30 4776 N 450.82 -0.546701 -1.47814 0
M  V30 4777 C 452.069 -0.0166497 -2.01693 0
M  V30 4778 C 452.382 1.33721 -1.42752 0
M  V30 4779 O 453.588 1.95658 -1.8823 0
M  V30 4780 C 452.044 0.0206769 -3.59894 0
M  V30 4781 C 451.652 -1.3293 -4.27824 0
M  V30 4782 C 453.396 0.498674 -4.21561 0
M  V30 4783 C 451.303 -1.25165 -5.78003 0
M  V30 4784 H 450.233 -0.0024541 -0.753996 0
M  V30 4785 H 452.884 -0.692984 -1.69912 0
M  V30 4786 H 451.266 0.76244 -3.88591 0
M  V30 4787 H 452.44 -2.08795 -4.10781 0
M  V30 4788 H 450.755 -1.74438 -3.78101 0
M  V30 4789 H 453.352 0.575 -5.31599 0
M  V30 4790 H 453.695 1.5083 -3.88016 0
M  V30 4791 H 454.228 -0.18791 -3.97356 0
M  V30 4792 H 450.967 -2.23695 -6.1615 0
M  V30 4793 H 450.487 -0.53464 -5.97412 0
M  V30 4794 H 452.166 -0.949299 -6.39998 0
M  V30 4795 N 452.299 1.55045 -0.282633 0
M  V30 4796 C 453.524 2.04628 0.337977 0
M  V30 4797 C 453.949 1.15937 1.48123 0
M  V30 4798 O 453.307 0.159532 1.80597 0
M  V30 4799 C 453.355 3.51854 0.78936 0
M  V30 4800 O 452.459 3.66236 1.89592 0
M  V30 4801 H 451.8 0.660434 0.0687261 0
M  V30 4802 H 454.33 2.00261 -0.419124 0
M  V30 4803 H 454.34 3.93361 1.08311 0
M  V30 4804 H 453.015 4.15873 -0.0470419 0
M  V30 4805 H 451.592 3.36633 1.60413 0
M  V30 4806 N 453.777 0.010035 1.57597 0
M  V30 4807 C 455.025 -0.671371 1.90623 0
M  V30 4808 C 455.346 -1.73753 0.885151 0
M  V30 4809 O 454.616 -1.95752 -0.0760611 0
M  V30 4810 H 453.196 -0.250968 0.703579 0
M  V30 4811 H 455.858 0.0533325 1.94827 0
M  V30 4812 H 454.954 -1.13626 2.90681 0
M  V30 4813 N 455.255 -1.55392 -0.262866 0
M  V30 4814 C 456.501 -1.76737 -0.99458 0
M  V30 4815 C 456.834 -0.572453 -1.85571 0
M  V30 4816 O 456.109 0.429732 -1.89693 0
M  V30 4817 C 456.392 -3.07824 -1.8686 0
M  V30 4818 C 456.245 -4.3769 -1.03672 0
M  V30 4819 C 457.564 -3.35021 -2.85393 0
M  V30 4820 H 454.683 -0.643005 -0.360157 0
M  V30 4821 H 457.325 -1.88126 -0.266216 0
M  V30 4822 H 455.475 -2.98245 -2.48962 0
M  V30 4823 H 457.147 -4.59238 -0.43563 0
M  V30 4824 H 455.39 -4.32461 -0.340513 0
M  V30 4825 H 456.061 -5.25759 -1.6817 0
M  V30 4826 H 458.537 -3.44458 -2.33426 0
M  V30 4827 H 457.413 -4.27989 -3.43681 0
M  V30 4828 H 457.674 -2.55153 -3.61039 0
M  V30 4829 N 456.733 0.527833 -1.48498 0
M  V30 4830 C 457.963 1.30633 -1.60058 0
M  V30 4831 C 458.371 1.87394 -0.260786 0
M  V30 4832 O 457.714 1.67227 0.760317 0
M  V30 4833 C 457.776 2.49361 -2.58958 0
M  V30 4834 C 457.44 2.13671 -4.03972 0
M  V30 4835 C 458.437 1.69217 -4.91591 0
M  V30 4836 C 456.122 2.24129 -4.49524 0
M  V30 4837 C 458.116 1.35689 -6.2279 0
M  V30 4838 C 455.803 1.90212 -5.80743 0
M  V30 4839 C 456.801 1.46063 -6.67199 0
M  V30 4840 O 456.489 1.12593 -7.95976 0
M  V30 4841 H 456.221 0.403444 -0.54241 0
M  V30 4842 H 458.775 0.643233 -1.95068 0
M  V30 4843 H 457.005 3.18659 -2.19073 0
M  V30 4844 H 458.694 3.11421 -2.6033 0
M  V30 4845 H 459.46 1.60607 -4.57636 0
M  V30 4846 H 455.339 2.57447 -3.82416 0
M  V30 4847 H 458.883 1.01157 -6.90227 0
M  V30 4848 H 454.78 1.98464 -6.14233 0
M  V30 4849 H 455.548 1.25972 -8.08748 0
M  V30 4850 N 458.211 1.37122 0.776871 0
M  V30 4851 C 459.488 1.22586 1.52421 0
M  V30 4852 C 459.868 -0.182726 2.10308 0
M  V30 4853 O 459.216 -1.18979 1.9508 0
M  V30 4854 C 459.426 2.31782 2.60918 0
M  V30 4855 C 460.774 2.69071 3.2846 0
M  V30 4856 O 461.798 2.3092 2.71209 0
M  V30 4857 O 460.657 3.3478 4.31954 0
M  V30 4858 H 457.751 0.478045 0.674835 0
M  V30 4859 H 460.297 1.48888 0.814275 0
M  V30 4860 H 459.069 3.26131 2.16227 0
M  V30 4861 H 458.692 2.06916 3.39517 0
M  V30 4862 N 459.689 -1.00246 1.21608 0
M  V30 4863 C 460.619 -2.10921 1.00172 0
M  V30 4864 C 461.6 -1.69938 -0.0741587 0
M  V30 4865 O 462.785 -1.94009 0.0861753 0
M  V30 4866 C 459.915 -3.42618 0.568355 0
M  V30 4867 C 458.869 -3.97407 1.58909 0
M  V30 4868 C 458.195 -5.25038 1.01187 0
M  V30 4869 C 459.495 -4.2918 2.97661 0
M  V30 4870 H 461.189 -2.29112 1.92739 0
M  V30 4871 H 458.735 -1.10101 0.928102 0
M  V30 4872 H 460.688 -4.19444 0.405555 0
M  V30 4873 H 459.412 -3.24227 -0.392961 0
M  V30 4874 H 458.071 -3.22703 1.73949 0
M  V30 4875 H 457.719 -5.02982 0.0421965 0
M  V30 4876 H 457.419 -5.62661 1.6937 0
M  V30 4877 H 458.943 -6.04507 0.860448 0
M  V30 4878 H 460.357 -4.96839 2.86049 0
M  V30 4879 H 458.754 -4.77952 3.6288 0
M  V30 4880 H 459.824 -3.3735 3.48315 0
M  V30 4881 N 461.167 -1.02423 -1.1978 0
M  V30 4882 C 462.415 -0.716569 -1.8897 0
M  V30 4883 C 462.736 0.756769 -1.79716 0
M  V30 4884 O 462.006 1.5449 -1.20456 0
M  V30 4885 H 460.586 -0.262062 -0.699523 0
M  V30 4886 H 463.248 -1.29747 -1.45436 0
M  V30 4887 H 462.344 -1.00675 -2.95417 0
M  V30 4888 N 462.645 1.35699 -0.801477 0
M  V30 4889 C 463.922 1.9324 -0.302937 0
M  V30 4890 C 464.302 1.73209 1.20672 0
M  V30 4891 O 463.65 1.09809 2.00385 0
M  V30 4892 C 463.86 3.41728 -0.708747 0
M  V30 4893 C 465.208 4.18868 -0.695328 0
M  V30 4894 O 466.232 3.5022 -0.649971 0
M  V30 4895 O 465.091 5.41342 -0.749081 0
M  V30 4896 H 462.185 0.82331 -0.0780367 0
M  V30 4897 H 464.731 1.44806 -0.884832 0
M  V30 4898 H 463.503 3.50015 -1.74944 0
M  V30 4899 H 463.126 3.97471 -0.101384 0
M  V30 4900 N 464.123 0.554532 1.47522 0
M  V30 4901 C 465.369 0.0295227 2.02779 0
M  V30 4902 C 465.702 -1.31582 1.42828 0
M  V30 4903 O 464.977 -1.85561 0.582872 0
M  V30 4904 C 465.26 -0.0664057 3.60039 0
M  V30 4905 C 465.113 1.30585 4.30427 0
M  V30 4906 C 466.432 -0.781162 4.33112 0
M  V30 4907 H 463.551 0.0122027 0.736899 0
M  V30 4908 H 466.193 0.716305 1.7598 0
M  V30 4909 H 464.343 -0.651307 3.83002 0
M  V30 4910 H 466.015 1.93374 4.18813 0
M  V30 4911 H 464.258 1.88125 3.90886 0
M  V30 4912 H 464.929 1.19147 5.38988 0
M  V30 4913 H 467.405 -0.284565 4.15126 0
M  V30 4914 H 466.281 -0.817237 5.42782 0
M  V30 4915 H 466.542 -1.83672 4.0214 0
M  V30 4916 N 465.601 -1.54893 0.290851 0
M  V30 4917 C 466.531 -2.26103 -0.583084 0
M  V30 4918 C 467.512 -1.25684 -1.14619 0
M  V30 4919 O 468.697 -1.54436 -1.17741 0
M  V30 4920 C 465.827 -2.99409 -1.75987 0
M  V30 4921 C 464.781 -4.0689 -1.32758 0
M  V30 4922 C 464.107 -4.67856 -2.58872 0
M  V30 4923 C 465.407 -5.20215 -0.46624 0
M  V30 4924 H 467.101 -2.99398 0.0108214 0
M  V30 4925 H 464.647 -1.43998 0.00664468 0
M  V30 4926 H 466.6 -3.47943 -2.37727 0
M  V30 4927 H 465.324 -2.23675 -2.37985 0
M  V30 4928 H 463.983 -3.59191 -0.733299 0
M  V30 4929 H 463.631 -3.88772 -3.19163 0
M  V30 4930 H 463.331 -5.40438 -2.30653 0
M  V30 4931 H 464.855 -5.19147 -3.21433 0
M  V30 4932 H 466.269 -5.64704 -0.989047 0
M  V30 4933 H 464.666 -5.99455 -0.27826 0
M  V30 4934 H 465.736 -4.82198 0.511173 0
M  V30 4935 N 467.08 -0.0183926 -1.57589 0
M  V30 4936 C 467.99 0.982943 -2.13015 0
M  V30 4937 C 469.006 1.36443 -1.07979 0
M  V30 4938 O 470.182 1.44802 -1.3998 0
M  V30 4939 C 467.247 2.25024 -2.63752 0
M  V30 4940 C 466.308 1.93018 -3.83461 0
M  V30 4941 C 465.541 3.13706 -4.31769 0
M  V30 4942 O 465.764 4.2601 -3.79305 0
M  V30 4943 O 464.698 2.96629 -5.23732 0
M  V30 4944 H 468.524 0.541709 -2.9883 0
M  V30 4945 H 466.109 0.201565 -1.48034 0
M  V30 4946 H 467.991 2.99441 -2.96502 0
M  V30 4947 H 466.666 2.68349 -1.81026 0
M  V30 4948 H 465.573 1.16019 -3.55655 0
M  V30 4949 H 466.906 1.54516 -4.67317 0
M  V30 4950 N 468.558 1.5553 0.254621 0
M  V30 4951 C 469.468 1.92789 1.33677 0
M  V30 4952 C 470.484 0.827356 1.53071 0
M  V30 4953 O 471.66 1.12807 1.66843 0
M  V30 4954 C 468.725 2.20827 2.67275 0
M  V30 4955 C 467.786 3.4427 2.5647 0
M  V30 4956 C 467.019 3.70961 3.83697 0
M  V30 4957 O 467.242 2.99852 4.85227 0
M  V30 4958 O 466.176 4.64491 3.82794 0
M  V30 4959 H 470.002 2.84945 1.05071 0
M  V30 4960 H 467.587 1.42312 0.454723 0
M  V30 4961 H 469.469 2.40204 3.46237 0
M  V30 4962 H 468.144 1.31851 2.9563 0
M  V30 4963 H 467.051 3.30209 1.75821 0
M  V30 4964 H 468.384 4.33524 2.33062 0
M  V30 4965 N 470.036 -0.519951 1.48776 0
M  V30 4966 C 470.969 -1.64053 1.58625 0
M  V30 4967 C 471.947 -1.5664 0.43618 0
M  V30 4968 O 473.131 -1.76969 0.649159 0
M  V30 4969 C 470.258 -3.02497 1.52359 0
M  V30 4970 C 469.304 -3.28235 2.72331 0
M  V30 4971 S 470.137 -3.13414 4.34203 0
M  V30 4972 C 471.293 -4.54287 4.30551 0
M  V30 4973 H 471.526 -1.5545 2.53422 0
M  V30 4974 H 469.059 -0.703681 1.37433 0
M  V30 4975 H 471.017 -3.82336 1.4943 0
M  V30 4976 H 469.678 -3.08531 0.588824 0
M  V30 4977 H 468.871 -4.29256 2.64113 0
M  V30 4978 H 468.473 -2.56085 2.72574 0
M  V30 4979 H 470.765 -5.46006 4.01103 0
M  V30 4980 H 471.708 -4.67558 5.31785 0
M  V30 4981 H 472.116 -4.34079 3.60881 0
M  V30 4982 N 471.514 -1.37532 -0.769588 0
M  V30 4983 C 472.762 -1.32597 -1.5252 0
M  V30 4984 C 473.083 0.0884294 -1.94799 0
M  V30 4985 O 472.353 1.03289 -1.66458 0
M  V30 4986 H 470.933 -0.487846 -0.565699 0
M  V30 4987 H 473.595 -1.72044 -0.915806 0
M  V30 4988 H 472.691 -1.96643 -2.42359 0
M  V30 4989 N 472.992 0.995999 -1.22138 0
M  V30 4990 C 474.241 1.72928 -1.03821 0
M  V30 4991 C 474.554 1.90872 0.427444 0
M  V30 4992 O 475.76 2.61496 0.730212 0
M  V30 4993 C 474.216 3.11124 -1.80913 0
M  V30 4994 C 473.824 3.01122 -3.31707 0
M  V30 4995 C 475.568 3.8852 -1.71035 0
M  V30 4996 C 473.475 4.34453 -4.01253 0
M  V30 4997 H 472.405 0.648376 -0.384869 0
M  V30 4998 H 475.056 1.11213 -1.45959 0
M  V30 4999 H 473.438 3.73503 -1.31573 0
M  V30 5000 H 474.612 2.47926 -3.88419 0
M  V30 5001 H 472.927 2.3721 -3.42228 0
M  V30 5002 H 475.524 4.872 -2.20318 0
M  V30 5003 H 475.867 4.1087 -0.670196 0
M  V30 5004 H 476.4 3.32812 -2.17902 0
M  V30 5005 H 473.139 4.17303 -5.05508 0
M  V30 5006 H 472.659 4.87574 -3.49331 0
M  V30 5007 H 474.338 5.03215 -4.06674 0
M  V30 5008 N 474.47 1.03057 1.19235 0
M  V30 5009 C 475.433 0.617418 2.20727 0
M  V30 5010 C 476.433 -0.319856 1.57587 0
M  V30 5011 O 477.623 -0.106633 1.73873 0
M  V30 5012 C 474.755 -0.096296 3.40764 0
M  V30 5013 H 475.948 1.51544 2.58794 0
M  V30 5014 H 473.501 0.821949 1.32942 0
M  V30 5015 H 474.236 -1.00859 3.08217 0
M  V30 5016 H 474.021 0.577217 3.87828 0
M  V30 5017 H 475.511 -0.372219 4.15938 0
M  V30 5018 N 475.948 -1.35272 0.808662 0
M  V30 5019 C 477.225 -1.93077 0.313181 0
M  V30 5020 C 477.605 -1.73847 -1.19752 0
M  V30 5021 O 476.953 -1.1087 -1.998 0
M  V30 5022 C 477.163 -3.41347 0.726859 0
M  V30 5023 C 478.511 -4.18493 0.717532 0
M  V30 5024 O 479.535 -3.4987 0.668535 0
M  V30 5025 O 478.394 -5.40937 0.777779 0
M  V30 5026 H 475.488 -0.822885 0.0824018 0
M  V30 5027 H 478.034 -1.44335 0.892499 0
M  V30 5028 H 476.806 -3.49082 1.76797 0
M  V30 5029 H 476.429 -3.97411 0.122461 0
M  V30 5030 N 477.426 -0.562348 -1.47226 0
M  V30 5031 C 478.356 0.170627 -2.32876 0
M  V30 5032 C 479.337 0.903748 -1.44106 0
M  V30 5033 O 480.522 0.883206 -1.72954 0
M  V30 5034 C 477.652 1.19786 -3.25989 0
M  V30 5035 C 476.606 0.580875 -4.2404 0
M  V30 5036 C 475.932 1.71311 -5.06514 0
M  V30 5037 C 477.232 -0.468714 -5.20193 0
M  V30 5038 H 478.926 -0.544441 -2.94408 0
M  V30 5039 H 476.472 -0.263271 -1.41573 0
M  V30 5040 H 478.425 1.71884 -3.84752 0
M  V30 5041 H 477.149 1.94294 -2.62521 0
M  V30 5042 H 475.808 0.0811538 -3.6651 0
M  V30 5043 H 475.456 2.44736 -4.39447 0
M  V30 5044 H 475.156 1.30604 -5.72902 0
M  V30 5045 H 476.68 2.23725 -5.68137 0
M  V30 5046 H 478.094 -0.0336028 -5.7329 0
M  V30 5047 H 476.491 -0.794957 -5.94811 0
M  V30 5048 H 477.561 -1.36269 -4.65359 0
M  V30 5049 N 478.904 1.54736 -0.299062 0
M  V30 5050 C 480.151 2.00101 0.310784 0
M  V30 5051 C 480.479 1.18746 1.54045 0
M  V30 5052 O 479.734 0.251198 1.94081 0
M  V30 5053 C 480.033 3.50199 0.713835 0
M  V30 5054 C 479.699 4.48997 -0.413873 0
M  V30 5055 C 478.361 4.7573 -0.723462 0
M  V30 5056 C 480.713 5.07839 -1.17257 0
M  V30 5057 C 478.041 5.5857 -1.79491 0
M  V30 5058 C 480.393 5.91844 -2.23392 0
M  V30 5059 C 479.057 6.16889 -2.54959 0
M  V30 5060 H 478.327 0.732221 0.113724 0
M  V30 5061 H 480.974 1.86888 -0.417756 0
M  V30 5062 H 479.279 3.61012 1.52243 0
M  V30 5063 H 480.976 3.82723 1.19684 0
M  V30 5064 H 477.566 4.28292 -0.162476 0
M  V30 5065 H 481.75 4.87188 -0.946651 0
M  V30 5066 H 477.006 5.76213 -2.04423 0
M  V30 5067 H 481.18 6.36465 -2.8264 0
M  V30 5068 H 478.807 6.80869 -3.38114 0
M  V30 5069 N 480.382 0.0267497 1.57577 0
M  V30 5070 C 481.61 -0.662661 1.96001 0
M  V30 5071 C 482.025 -1.65799 0.903117 0
M  V30 5072 O 481.382 -1.82135 -0.115317 0
M  V30 5073 C 481.433 -1.37112 3.34488 0
M  V30 5074 O 481.154 -0.415683 4.36123 0
M  V30 5075 C 482.655 -2.15257 3.8753 0
M  V30 5076 H 479.875 -0.18287 0.6456 0
M  V30 5077 H 482.419 0.0858116 2.0432 0
M  V30 5078 H 480.574 -2.07101 3.27395 0
M  V30 5079 H 480.988 -0.918496 5.16395 0
M  V30 5080 H 482.462 -2.60285 4.86781 0
M  V30 5081 H 482.939 -2.99063 3.21649 0
M  V30 5082 H 483.545 -1.50231 3.97883 0
M  V30 5083 N 481.861 -1.55662 -0.24637 0
M  V30 5084 C 482.809 -1.91186 -1.3248 0
M  V30 5085 C 483.803 -0.790996 -1.49799 0
M  V30 5086 O 485.009 -0.975617 -1.51267 0
M  V30 5087 H 481.384 -0.607207 -0.443626 0
M  V30 5088 H 483.355 -2.81221 -0.997853 0
M  V30 5089 C 482.104 -2.22349 -2.67313 0
M  V30 5090 H 481.427 -3.08097 -2.54786 0
M  V30 5091 H 482.867 -2.51107 -3.41645 0
M  V30 5092 C 481.326 -1.04001 -3.20446 0
M  V30 5093 O 481.856 -0.28828 -4.00664 0
M  V30 5094 N 480.062 -0.830494 -2.7848 0
M  V30 5095 H 479.609 -1.4435 -2.13356 0
M  V30 5096 H 479.567 -0.0403258 -3.14374 0
M  V30 5097 N 483.339 0.512053 -1.4905 0
M  V30 5098 C 484.271 1.63121 -1.6101 0
M  V30 5099 C 485.284 1.55145 -0.493352 0
M  V30 5100 O 486.473 1.61278 -0.764955 0
M  V30 5101 C 483.573 3.01863 -1.54052 0
M  V30 5102 C 482.746 3.35138 -2.81072 0
M  V30 5103 C 481.805 4.5324 -2.67319 0
M  V30 5104 O 480.831 4.55571 -3.41238 0
M  V30 5105 N 482.033 5.52495 -1.78127 0
M  V30 5106 H 484.798 1.53292 -2.5753 0
M  V30 5107 H 482.359 0.699706 -1.45999 0
M  V30 5108 H 484.351 3.78774 -1.42521 0
M  V30 5109 H 482.921 3.05675 -0.654345 0
M  V30 5110 H 482.141 2.4723 -3.07036 0
M  V30 5111 H 483.429 3.54162 -3.65304 0
M  V30 5112 H 482.827 5.53403 -1.17308 0
M  V30 5113 H 481.384 6.28553 -1.72525 0
M  V30 5114 N 484.817 1.37938 0.762283 0
M  V30 5115 C 485.78 1.34279 1.85747 0
M  V30 5116 C 486.78 0.244969 1.58923 0
M  V30 5117 O 487.97 0.501365 1.66829 0
M  V30 5118 C 485.102 1.08833 3.23061 0
M  V30 5119 H 486.295 2.31705 1.90401 0
M  V30 5120 H 483.848 1.23105 0.963057 0
M  V30 5121 H 484.583 0.119767 3.24079 0
M  V30 5122 H 484.368 1.88306 3.43923 0
M  V30 5123 H 485.858 1.08946 4.03138 0
M  V30 5124 N 486.295 -0.989507 1.22664 0
M  V30 5125 C 487.243 -2.10148 0.997035 0
M  V30 5126 C 488.237 -1.6929 -0.0609783 0
M  V30 5127 O 489.443 -1.79766 0.0917523 0
M  V30 5128 H 485.818 -0.687256 0.305259 0
M  V30 5129 H 487.789 -2.26685 1.94053 0
M  V30 5130 C 486.538 -3.4257 0.595085 0
M  V30 5131 H 485.861 -3.74453 1.40089 0
M  V30 5132 H 487.301 -4.21344 0.473869 0
M  V30 5133 C 485.76 -3.29638 -0.695725 0
M  V30 5134 O 486.29 -3.61709 -1.74727 0
M  V30 5135 N 484.496 -2.82814 -0.668173 0
M  V30 5136 H 484.043 -2.56914 0.18787 0
M  V30 5137 H 484.001 -2.74544 -1.5321 0
M  V30 5138 N 487.773 -1.03688 -1.18687 0
M  V30 5139 C 489.02 -0.73803 -1.88572 0
M  V30 5140 C 489.348 0.733973 -1.8012 0
M  V30 5141 O 488.603 1.55098 -1.19344 0
M  V30 5142 C 488.902 -1.14477 -3.3857 0
M  V30 5143 C 488.568 -2.61641 -3.67226 0
M  V30 5144 C 487.23 -3.01846 -3.74757 0
M  V30 5145 C 489.582 -3.56812 -3.79914 0
M  V30 5146 C 486.91 -4.36118 -3.92451 0
M  V30 5147 C 489.262 -4.90799 -3.99123 0
M  V30 5148 C 487.926 -5.3068 -4.04888 0
M  V30 5149 H 487.196 -0.270064 -0.690034 0
M  V30 5150 H 489.843 -1.3012 -1.40503 0
M  V30 5151 H 488.148 -0.500337 -3.88592 0
M  V30 5152 H 489.845 -0.89095 -3.90977 0
M  V30 5153 H 486.435 -2.29498 -3.61979 0
M  V30 5154 H 490.619 -3.26899 -3.73431 0
M  V30 5155 H 485.875 -4.66542 -3.95157 0
M  V30 5156 H 490.049 -5.64451 -4.07882 0
M  V30 5157 H 487.676 -6.34733 -4.18351 0
M  V30 5158 N 489.251 1.34841 -0.815825 0
M  V30 5159 C 490.476 2.03261 -0.41226 0
M  V30 5160 C 490.901 1.61055 0.971751 0
M  V30 5161 O 490.259 0.7917 1.63101 0
M  V30 5162 C 490.307 3.56914 -0.514289 0
M  V30 5163 O 489.411 4.09728 0.468675 0
M  V30 5164 H 488.752 0.641664 -0.170771 0
M  V30 5165 H 491.282 1.72241 -1.10427 0
M  V30 5166 H 491.292 4.06156 -0.387457 0
M  V30 5167 H 489.967 3.86982 -1.52375 0
M  V30 5168 H 488.544 3.71681 0.301316 0
M  V30 5169 N 490.729 0.570148 1.46925 0
M  V30 5170 C 492.145 0.23087 1.57921 0
M  V30 5171 C 492.345 -1.26676 1.56702 0
M  V30 5172 O 491.401 -2.04774 1.47729 0
M  V30 5173 C 492.714 0.868973 2.8787 0
M  V30 5174 C 494.262 0.841397 3.01479 0
M  V30 5175 C 494.737 1.45881 4.34146 0
M  V30 5176 N 496.228 1.42258 4.40814 0
M  V30 5177 C 496.963 1.8698 5.42057 0
M  V30 5178 N 496.459 2.39618 6.50042 0
M  V30 5179 N 498.252 1.77972 5.33181 0
M  V30 5180 H 490.403 1.54301 1.45962 0
M  V30 5181 H 492.666 0.644224 0.69547 0
M  V30 5182 H 492.372 1.922 2.94537 0
M  V30 5183 H 492.246 0.369682 3.75384 0
M  V30 5184 H 494.633 -0.202973 2.94401 0
M  V30 5185 H 494.714 1.37858 2.15474 0
M  V30 5186 H 494.358 2.50231 4.4198 0
M  V30 5187 H 494.288 0.896958 5.18905 0
M  V30 5188 H 496.779 1.03768 3.63374 0
M  V30 5189 H 497.092 2.71633 7.23488 0
M  V30 5190 H 495.437 2.43636 6.50897 0
M  V30 5191 H 498.628 1.36617 4.4772 0
M  V30 5192 H 498.801 2.13143 6.11943 0
M  V30 5193 N 492.207 -1.54576 0.307264 0
M  V30 5194 C 493.456 -1.99442 -0.300976 0
M  V30 5195 C 493.769 -1.19928 -1.5452 0
M  V30 5196 O 494.975 -1.55092 -2.22842 0
M  V30 5197 C 493.431 -3.55084 -0.586809 0
M  V30 5198 C 493.039 -4.43413 0.639438 0
M  V30 5199 C 494.783 -4.0846 -1.1559 0
M  V30 5200 C 492.69 -5.90499 0.326411 0
M  V30 5201 H 491.62 -0.744986 -0.116238 0
M  V30 5202 H 494.271 -1.787 0.416947 0
M  V30 5203 H 492.653 -3.71749 -1.36449 0
M  V30 5204 H 493.827 -4.38522 1.41545 0
M  V30 5205 H 492.142 -4.00842 1.1276 0
M  V30 5206 H 494.739 -5.15926 -1.40445 0
M  V30 5207 H 495.082 -3.59443 -2.10015 0
M  V30 5208 H 495.615 -3.95362 -0.439778 0
M  V30 5209 H 492.354 -6.43676 1.23939 0
M  V30 5210 H 491.874 -5.98382 -0.412212 0
M  V30 5211 H 493.553 -6.46962 -0.0697393 0
M  V30 5212 N 493.685 -0.035106 -1.57561 0
M  V30 5213 C 494.913 0.652258 -1.9635 0
M  V30 5214 C 495.328 1.65317 -0.911897 0
M  V30 5215 O 494.685 1.82194 0.105657 0
M  V30 5216 C 494.736 1.35337 -3.35211 0
M  V30 5217 O 494.457 0.392548 -4.36338 0
M  V30 5218 C 495.958 2.13199 -3.88666 0
M  V30 5219 H 493.178 0.179444 -0.646561 0
M  V30 5220 H 495.722 -0.0966459 -2.04271 0
M  V30 5221 H 493.877 2.05362 -3.28489 0
M  V30 5222 H 494.291 0.891097 -5.16875 0
M  V30 5223 H 495.765 2.577 -4.88154 0
M  V30 5224 H 496.242 2.97353 -3.23231 0
M  V30 5225 H 496.848 1.48118 -3.98674 0
M  V30 5226 N 495.163 1.55791 0.238111 0
M  V30 5227 C 496.095 1.87513 1.31802 0
M  V30 5228 C 497.108 0.762053 1.43863 0
M  V30 5229 O 498.297 1.04024 1.45056 0
M  V30 5230 C 495.397 2.05402 2.69561 0
M  V30 5231 C 494.57 3.3632 2.79656 0
M  V30 5232 C 493.629 3.43844 3.98319 0
M  V30 5233 O 492.655 4.16994 3.87433 0
M  V30 5234 N 493.857 2.73777 5.11885 0
M  V30 5235 H 496.622 2.80734 1.04922 0
M  V30 5236 H 494.183 1.56135 0.428196 0
M  V30 5237 H 496.175 2.07769 3.47296 0
M  V30 5238 H 494.745 1.18884 2.89111 0
M  V30 5239 H 493.965 3.46195 1.88528 0
M  V30 5240 H 495.253 4.22594 2.83358 0
M  V30 5241 H 494.651 2.14094 5.23622 0
M  V30 5242 H 493.208 2.81825 5.87723 0
M  V30 5243 N 496.642 -0.504142 1.49319 0
M  V30 5244 C 497.919 -1.26548 1.49147 0
M  V30 5245 C 498.299 -2.09977 0.21744 0
M  V30 5246 O 497.647 -2.14028 -0.800269 0
M  V30 5247 C 497.857 -2.12489 2.76857 0
M  V30 5248 C 499.205 -2.7178 3.26222 0
M  V30 5249 O 500.229 -2.22758 2.77952 0
M  V30 5250 O 499.088 -3.61015 4.10281 0
M  V30 5251 H 496.182 -0.572495 0.596806 0
M  V30 5252 H 498.728 -0.51867 1.61579 0
M  V30 5253 H 497.5 -1.50796 3.61077 0
M  V30 5254 H 497.123 -2.94368 2.6727 0
M  V30 5255 N 498.12 -1.38341 -0.754957 0
M  V30 5256 C 499.083 -1.35262 -1.85032 0
M  V30 5257 C 500.083 -0.253393 -1.58791 0
M  V30 5258 O 501.273 -0.510205 -1.66561 0
M  V30 5259 C 498.405 -1.10544 -3.22479 0
M  V30 5260 H 499.598 -2.32712 -1.8917 0
M  V30 5261 H 497.151 -1.23614 -0.956515 0
M  V30 5262 H 497.886 -0.136952 -3.24011 0
M  V30 5263 H 497.671 -1.90127 -3.4292 0
M  V30 5264 H 499.161 -1.11082 -4.02555 0
M  V30 5265 N 499.598 0.982988 -1.23187 0
M  V30 5266 C 500.53 2.07729 -0.968572 0
M  V30 5267 C 501.543 1.62702 0.0564821 0
M  V30 5268 O 502.732 1.77603 -0.178733 0
M  V30 5269 C 499.832 3.36071 -0.436974 0
M  V30 5270 C 499.005 4.10081 -1.52159 0
M  V30 5271 C 498.064 5.16701 -0.99532 0
M  V30 5272 O 497.09 5.43727 -1.68373 0
M  V30 5273 N 498.292 5.80226 0.178192 0
M  V30 5274 H 501.057 2.30894 -1.9107 0
M  V30 5275 H 498.618 1.14949 -1.1401 0
M  V30 5276 H 500.61 4.04639 -0.0700051 0
M  V30 5277 H 499.18 3.09893 0.410509 0
M  V30 5278 H 498.4 3.36004 -2.06144 0
M  V30 5279 H 499.688 4.56295 -2.25105 0
M  V30 5280 H 499.086 5.60651 0.754096 0
M  V30 5281 H 497.643 6.49982 0.486449 0
M  V30 5282 N 501.076 1.04316 1.18135 0
M  V30 5283 C 502.006 0.657299 2.24058 0
M  V30 5284 C 502.987 -0.340678 1.66654 0
M  V30 5285 O 504.172 -0.220223 1.92947 0
M  V30 5286 C 501.302 0.0220715 3.47293 0
M  V30 5287 C 500.256 0.943857 4.17463 0
M  V30 5288 C 499.582 0.172973 5.3442 0
M  V30 5289 C 500.882 2.26409 4.70677 0
M  V30 5290 H 502.576 1.5428 2.56589 0
M  V30 5291 H 500.122 0.743263 1.23335 0
M  V30 5292 H 502.075 -0.259607 4.206 0
M  V30 5293 H 500.799 -0.898323 3.14003 0
M  V30 5294 H 499.458 1.20996 3.46057 0
M  V30 5295 H 499.106 -0.749907 4.97379 0
M  V30 5296 H 498.806 0.787098 5.82304 0
M  V30 5297 H 500.33 -0.101628 6.10515 0
M  V30 5298 H 501.744 2.04294 5.35665 0
M  V30 5299 H 500.141 2.8314 5.29105 0
M  V30 5300 H 501.211 2.90883 3.87962 0
M  V30 5301 N 502.554 -1.34406 0.822964 0
M  V30 5302 C 503.501 -2.29519 0.24284 0
M  V30 5303 C 504.471 -1.5359 -0.632397 0
M  V30 5304 O 505.656 -1.8196 -0.57403 0
M  V30 5305 C 502.796 -3.40032 -0.58925 0
M  V30 5306 C 501.909 -4.30899 0.308236 0
M  V30 5307 C 501.044 -5.28515 -0.533425 0
M  V30 5308 C 500.083 -6.1102 0.363444 0
M  V30 5309 N 499.22 -7.00725 -0.439147 0
M  V30 5310 H 504.06 -2.78537 1.05929 0
M  V30 5311 H 501.597 -1.3707 0.533872 0
M  V30 5312 H 503.555 -4.0279 -1.087 0
M  V30 5313 H 502.185 -2.92248 -1.37081 0
M  V30 5314 H 501.237 -3.69002 0.924203 0
M  V30 5315 H 502.549 -4.88717 0.997862 0
M  V30 5316 H 501.703 -5.96725 -1.09565 0
M  V30 5317 H 500.442 -4.71235 -1.25656 0
M  V30 5318 H 499.447 -5.41743 0.937812 0
M  V30 5319 H 500.672 -6.70381 1.08469 0
M  V30 5320 H 498.618 -6.45913 -1.14595 0
M  V30 5321 H 498.535 -7.55756 0.19209 0
M  V30 5322 H 499.803 -7.73263 -0.984124 0
M  V30 5323 N 504.032 -0.577932 -1.46621 0
M  V30 5324 C 505.257 -0.0652536 -2.07297 0
M  V30 5325 C 505.682 1.22828 -1.4246 0
M  V30 5326 O 505.04 1.74075 -0.506718 0
M  V30 5327 C 505.088 0.0920589 -3.60482 0
M  V30 5328 O 504.192 1.14972 -3.96049 0
M  V30 5329 H 503.533 -0.06065 -0.661224 0
M  V30 5330 H 506.063 -0.799515 -1.88332 0
M  V30 5331 H 506.073 0.299741 -4.06897 0
M  V30 5332 H 504.748 -0.852612 -4.07067 0
M  V30 5333 H 503.325 0.920879 -3.61351 0
M  V30 5334 N 505.51 1.54411 -0.315457 0
M  V30 5335 C 506.735 2.05299 0.294496 0
M  V30 5336 C 507.16 1.19052 1.4563 0
M  V30 5337 O 506.518 0.197804 1.80218 0
M  V30 5338 C 506.566 3.5345 0.714549 0
M  V30 5339 O 505.67 3.70175 1.81781 0
M  V30 5340 H 505.011 0.661743 0.0547019 0
M  V30 5341 H 507.541 1.99327 -0.461508 0
M  V30 5342 H 507.551 3.9557 0.999426 0
M  V30 5343 H 506.226 4.1568 -0.135244 0
M  V30 5344 H 504.803 3.3996 1.53236 0
M  V30 5345 N 506.988 0.0434614 1.5754 0
M  V30 5346 C 507.935 -0.93356 2.11077 0
M  V30 5347 C 508.905 -1.31383 1.01626 0
M  V30 5348 O 510.09 -1.40465 1.29129 0
M  V30 5349 C 507.23 -2.20578 2.65404 0
M  V30 5350 C 506.343 -1.88068 3.88914 0
M  V30 5351 C 505.478 -3.09691 4.31584 0
M  V30 5352 C 504.517 -2.73067 5.47815 0
M  V30 5353 N 503.654 -3.87359 5.85574 0
M  V30 5354 H 508.494 -0.470118 2.94268 0
M  V30 5355 H 506.031 -0.220434 1.45439 0
M  V30 5356 H 507.989 -2.95011 2.94999 0
M  V30 5357 H 506.619 -2.64513 1.85021 0
M  V30 5358 H 505.671 -1.03816 3.6596 0
M  V30 5359 H 506.983 -1.57104 4.73413 0
M  V30 5360 H 506.137 -3.92431 4.62691 0
M  V30 5361 H 504.876 -3.43827 3.45882 0
M  V30 5362 H 503.881 -1.88742 5.16388 0
M  V30 5363 H 505.106 -2.40131 6.35227 0
M  V30 5364 H 503.052 -4.21311 5.02825 0
M  V30 5365 H 502.969 -3.60068 6.64746 0
M  V30 5366 H 504.237 -4.70761 6.21292 0
M  V30 5367 N 508.466 -1.55915 -0.229846 0
M  V30 5368 C 509.712 -1.78807 -0.956868 0
M  V30 5369 C 510.045 -0.611687 -1.84315 0
M  V30 5370 O 509.32 0.389398 -1.90562 0
M  V30 5371 C 509.603 -3.11718 -1.80288 0
M  V30 5372 C 509.456 -4.3979 -0.943649 0
M  V30 5373 C 510.775 -3.40999 -2.78222 0
M  V30 5374 H 507.894 -0.6505 -0.346437 0
M  V30 5375 H 510.536 -1.88648 -0.226252 0
M  V30 5376 H 508.686 -3.03459 -2.42579 0
M  V30 5377 H 510.358 -4.60059 -0.338121 0
M  V30 5378 H 508.601 -4.33086 -0.248705 0
M  V30 5379 H 509.272 -5.29208 -1.5698 0
M  V30 5380 H 511.748 -3.49332 -2.26067 0
M  V30 5381 H 510.624 -4.35183 -3.34526 0
M  V30 5382 H 510.885 -2.62754 -3.55546 0
M  V30 5383 N 509.944 0.496216 -1.49584 0
M  V30 5384 C 511.19 1.25189 -1.59548 0
M  V30 5385 C 511.523 1.9212 -0.283466 0
M  V30 5386 O 510.798 1.80947 0.713324 0
M  V30 5387 C 511.081 2.31516 -2.75812 0
M  V30 5388 C 510.934 1.69054 -4.16822 0
M  V30 5389 C 512.253 3.3304 -2.87702 0
M  V30 5390 H 509.372 0.45379 -0.580727 0
M  V30 5391 H 512.014 0.549327 -1.81886 0
M  V30 5392 H 510.164 2.91438 -2.56897 0
M  V30 5393 H 511.836 1.12923 -4.47265 0
M  V30 5394 H 510.079 0.994485 -4.22247 0
M  V30 5395 H 510.75 2.462 -4.94054 0
M  V30 5396 H 513.226 2.83114 -3.04936 0
M  V30 5397 H 512.102 4.04794 -3.7072 0
M  V30 5398 H 512.363 3.95655 -1.97255 0
M  V30 5399 N 511.423 1.38739 0.74761 0
M  V30 5400 C 512.373 1.32948 1.85226 0
M  V30 5401 C 513.357 0.212642 1.59489 0
M  V30 5402 O 514.549 0.449121 1.71207 0
M  V30 5403 C 511.678 1.16279 3.23008 0
M  V30 5404 C 510.764 2.32611 3.54617 0
M  V30 5405 N 511.155 3.58065 3.57244 0
M  V30 5406 C 509.453 2.25293 3.84914 0
M  V30 5407 C 510.154 4.34919 3.8629 0
M  V30 5408 N 509.13 3.64348 4.03425 0
M  V30 5409 H 512.932 2.27927 1.85544 0
M  V30 5410 H 510.446 1.32056 0.945253 0
M  V30 5411 H 512.443 1.10214 4.02068 0
M  V30 5412 H 511.103 0.222394 3.23937 0
M  V30 5413 H 512.114 3.91656 3.3886 0
M  V30 5414 H 508.791 1.39446 3.93524 0
M  V30 5415 H 510.181 5.43605 3.94896 0
M  V30 5416 N 512.901 -0.976442 1.23707 0
M  V30 5417 C 513.848 -2.06952 1.02174 0
M  V30 5418 C 514.818 -1.65984 -0.0621034 0
M  V30 5419 O 516.003 -1.90584 0.0907906 0
M  V30 5420 C 513.143 -3.39425 0.62327 0
M  V30 5421 C 512.256 -3.9364 1.77966 0
M  V30 5422 C 511.391 -5.14343 1.3276 0
M  V30 5423 C 510.43 -5.60733 2.45449 0
M  V30 5424 N 509.567 -6.72662 2.01172 0
M  V30 5425 H 514.407 -2.24704 1.95734 0
M  V30 5426 H 511.944 -1.10143 0.975034 0
M  V30 5427 H 513.902 -4.15526 0.37332 0
M  V30 5428 H 512.532 -3.21624 -0.275329 0
M  V30 5429 H 511.584 -3.14258 2.14351 0
M  V30 5430 H 512.896 -4.24035 2.62671 0
M  V30 5431 H 512.05 -5.97789 1.03601 0
M  V30 5432 H 510.789 -4.8561 0.450975 0
M  V30 5433 H 509.794 -4.75865 2.75378 0
M  V30 5434 H 511.019 -5.91483 3.33654 0
M  V30 5435 H 508.965 -6.45681 1.15895 0
M  V30 5436 H 508.882 -7.02462 2.79434 0
M  V30 5437 H 510.15 -7.59572 1.75129 0
M  V30 5438 N 514.379 -1.04941 -1.1758 0
M  V30 5439 C 515.342 -0.652456 -2.19717 0
M  V30 5440 C 516.342 0.294745 -1.58076 0
M  V30 5441 O 517.532 0.0789579 -1.74021 0
M  V30 5442 C 514.664 0.0420712 -3.40874 0
M  V30 5443 H 515.857 -1.55642 -2.5635 0
M  V30 5444 H 513.41 -0.842995 -1.31618 0
M  V30 5445 H 514.145 0.95943 -3.09783 0
M  V30 5446 H 513.93 -0.638844 -3.86861 0
M  V30 5447 H 515.42 0.306 -4.16477 0
M  V30 5448 N 515.857 1.33968 -0.830081 0
M  V30 5449 C 517.103 1.98357 -0.422191 0
M  V30 5450 C 517.436 1.65633 1.01387 0
M  V30 5451 O 516.711 0.931648 1.70735 0
M  V30 5452 C 516.994 3.54492 -0.633043 0
M  V30 5453 C 516.847 3.96934 -2.11574 0
M  V30 5454 C 518.166 4.40039 -0.0735584 0
M  V30 5455 H 515.285 0.720544 -0.154871 0
M  V30 5456 H 517.927 1.58749 -1.04397 0
M  V30 5457 H 516.077 3.88361 -0.103775 0
M  V30 5458 H 517.749 3.73363 -2.7092 0
M  V30 5459 H 515.992 3.46984 -2.60354 0
M  V30 5460 H 516.663 5.05651 -2.21406 0
M  V30 5461 H 519.139 4.12764 -0.52585 0
M  V30 5462 H 518.015 5.48327 -0.250841 0
M  V30 5463 H 518.276 4.30124 1.02202 0
M  V30 5464 N 517.335 0.585699 1.46312 0
M  V30 5465 C 518.265 -0.133556 2.33118 0
M  V30 5466 C 519.246 -0.880707 1.45525 0
M  V30 5467 O 520.431 -0.855579 1.74337 0
M  V30 5468 C 517.561 -1.14585 3.27853 0
M  V30 5469 C 516.515 -0.513341 4.2491 0
M  V30 5470 C 515.841 -1.63231 5.09175 0
M  V30 5471 C 517.141 0.551413 5.19381 0
M  V30 5472 H 518.835 0.59121 2.93505 0
M  V30 5473 H 516.381 0.285761 1.41136 0
M  V30 5474 H 518.334 -1.65741 3.87438 0
M  V30 5475 H 517.058 -1.90093 2.65579 0
M  V30 5476 H 515.717 -0.0228349 3.66593 0
M  V30 5477 H 515.365 -2.37713 4.43285 0
M  V30 5478 H 515.065 -1.21473 5.74907 0
M  V30 5479 H 516.589 -2.14658 5.71624 0
M  V30 5480 H 518.003 0.124804 5.73164 0
M  V30 5481 H 516.4 0.889486 5.93471 0
M  V30 5482 H 517.47 1.43655 4.63132 0
M  V30 5483 N 518.813 -1.54241 0.323641 0
M  V30 5484 C 519.745 -2.21836 -0.576311 0
M  V30 5485 C 520.758 -1.21837 -1.07979 0
M  V30 5486 O 521.947 -1.48306 -0.99336 0
M  V30 5487 C 519.047 -2.86923 -1.80356 0
M  V30 5488 C 518.22 -4.1306 -1.43875 0
M  V30 5489 C 517.279 -4.6174 -2.52353 0
M  V30 5490 O 516.305 -5.26421 -2.16494 0
M  V30 5491 N 517.507 -4.35974 -3.83284 0
M  V30 5492 H 520.272 -2.997 0.00247987 0
M  V30 5493 H 517.833 -1.61233 0.146848 0
M  V30 5494 H 519.825 -3.16414 -2.52318 0
M  V30 5495 H 518.395 -2.12765 -2.29019 0
M  V30 5496 H 517.615 -3.90334 -0.550752 0
M  V30 5497 H 518.903 -4.95148 -1.17071 0
M  V30 5498 H 518.301 -3.84203 -4.15216 0
M  V30 5499 H 516.858 -4.70119 -4.51477 0
M  V30 5500 N 520.291 -0.0518155 -1.57515 0
M  V30 5501 C 521.221 0.920283 -2.146 0
M  V30 5502 C 522.202 1.32406 -1.06783 0
M  V30 5503 O 523.387 1.39866 -1.34726 0
M  V30 5504 C 520.517 2.1949 -2.6915 0
M  V30 5505 C 519.471 1.93116 -3.81956 0
M  V30 5506 C 518.797 3.27037 -4.23026 0
M  V30 5507 C 520.097 1.25225 -5.07066 0
M  V30 5508 H 521.791 0.444801 -2.96077 0
M  V30 5509 H 519.337 0.212508 -1.42423 0
M  V30 5510 H 521.29 2.87894 -3.07725 0
M  V30 5511 H 520.014 2.69244 -1.84865 0
M  V30 5512 H 518.673 1.27123 -3.43854 0
M  V30 5513 H 518.321 3.74595 -3.3569 0
M  V30 5514 H 518.021 3.10189 -4.99056 0
M  V30 5515 H 519.545 3.96673 -4.64202 0
M  V30 5516 H 520.959 1.83666 -5.43083 0
M  V30 5517 H 519.356 1.18702 -5.88243 0
M  V30 5518 H 520.426 0.228382 -4.84362 0
M  V30 5519 N 521.769 1.56035 0.221574 0
M  V30 5520 C 522.717 1.93269 1.29421 0
M  V30 5521 C 523.711 0.814727 1.48521 0
M  V30 5522 O 524.917 0.999559 1.49696 0
M  V30 5523 H 521.292 0.614188 0.43391 0
M  V30 5524 H 523.263 2.82773 0.952987 0
M  V30 5525 C 522.012 2.26573 2.63742 0
M  V30 5526 H 521.335 3.12112 2.49853 0
M  V30 5527 H 522.775 2.5651 3.37607 0
M  V30 5528 C 521.234 1.09086 3.1875 0
M  V30 5529 O 521.764 0.351985 4.00155 0
M  V30 5530 N 519.97 0.874693 2.77124 0
M  V30 5531 H 519.517 1.47726 2.11033 0
M  V30 5532 H 519.475 0.0903349 3.1427 0
M  V30 5533 N 523.247 -0.488276 1.49845 0
M  V30 5534 C 524.157 -1.61451 1.70207 0
M  V30 5535 C 525.173 -1.63877 0.584846 0
M  V30 5536 O 526.349 -1.82063 0.861107 0
M  V30 5537 C 523.414 -2.9776 1.77594 0
M  V30 5538 C 522.475 -3.05861 3.01243 0
M  V30 5539 C 521.708 -4.35668 3.08268 0
M  V30 5540 O 521.931 -5.25197 2.22541 0
M  V30 5541 O 520.865 -4.49005 4.00847 0
M  V30 5542 H 524.691 -1.47199 2.65643 0
M  V30 5543 H 522.276 -0.665939 1.33737 0
M  V30 5544 H 524.158 -3.7875 1.84732 0
M  V30 5545 H 522.833 -3.12248 0.8534 0
M  V30 5546 H 521.74 -2.24012 2.99616 0
M  V30 5547 H 523.073 -2.96304 3.9302 0
M  V30 5548 N 524.725 -1.39134 -0.740242 0
M  V30 5549 C 525.635 -1.39697 -1.88473 0
M  V30 5550 C 526.651 -0.292403 -1.71526 0
M  V30 5551 O 527.827 -0.533021 -1.94219 0
M  V30 5552 C 524.892 -1.23382 -3.24003 0
M  V30 5553 C 523.953 -2.43763 -3.53381 0
M  V30 5554 C 523.186 -2.28216 -4.82445 0
M  V30 5555 O 523.409 -1.28288 -5.55786 0
M  V30 5556 O 522.343 -3.1709 -5.11603 0
M  V30 5557 H 526.169 -2.36159 -1.90952 0
M  V30 5558 H 523.754 -1.20194 -0.887346 0
M  V30 5559 H 525.636 -1.16395 -4.05006 0
M  V30 5560 H 524.311 -0.300121 -3.22306 0
M  V30 5561 H 523.218 -2.56325 -2.72485 0
M  V30 5562 H 524.551 -3.35808 -3.59852 0
M  V30 5563 N 526.204 0.969867 -1.24223 0
M  V30 5564 C 527.452 1.70918 -1.0785 0
M  V30 5565 C 527.773 1.91186 0.383763 0
M  V30 5566 O 527.043 1.48806 1.27411 0
M  V30 5567 H 525.623 0.633334 -0.396103 0
M  V30 5568 H 528.285 1.16689 -1.56108 0
M  V30 5569 H 527.381 2.69455 -1.57482 0
M  V30 5570 N 527.682 1.05563 1.17022 0
M  V30 5571 C 528.928 0.769074 1.87652 0
M  V30 5572 C 529.261 -0.702326 1.81055 0
M  V30 5573 O 528.536 -1.5139 1.22112 0
M  V30 5574 C 528.819 1.25492 3.37526 0
M  V30 5575 C 528.672 2.78953 3.52853 0
M  V30 5576 C 529.991 0.856919 4.31677 0
M  V30 5577 H 527.11 0.280854 0.681388 0
M  V30 5578 H 529.752 1.31027 1.37593 0
M  V30 5579 H 527.902 0.794516 3.80289 0
M  V30 5580 H 529.574 3.33146 3.19079 0
M  V30 5581 H 527.817 3.18046 2.95007 0
M  V30 5582 H 528.488 3.08011 4.58076 0
M  V30 5583 H 530.964 1.25334 3.96775 0
M  V30 5584 H 529.84 1.22443 5.35069 0
M  V30 5585 H 530.101 -0.238787 4.41455 0
M  V30 5586 N 529.16 -1.33526 0.837174 0
M  V30 5587 C 530.437 -1.92369 0.354065 0
M  V30 5588 C 530.817 -1.76348 -1.16038 0
M  V30 5589 O 530.165 -1.15083 -1.97403 0
M  V30 5590 C 530.375 -3.39728 0.799101 0
M  V30 5591 C 531.723 -4.16877 0.806139 0
M  V30 5592 O 532.747 -3.48373 0.742597 0
M  V30 5593 O 531.606 -5.39166 0.892345 0
M  V30 5594 H 528.7 -0.820952 0.0998378 0
M  V30 5595 H 531.246 -1.42409 0.922913 0
M  V30 5596 H 530.018 -3.45254 1.84162 0
M  V30 5597 H 529.641 -3.97062 0.206731 0
M  V30 5598 N 530.638 -0.59345 -1.46 0
M  V30 5599 C 531.866 -0.0890934 -2.06708 0
M  V30 5600 C 532.281 1.2205 -1.44046 0
M  V30 5601 O 531.638 1.74029 -0.549551 0
M  V30 5602 C 531.689 0.0720263 -3.61428 0
M  V30 5603 O 531.41 -1.18574 -4.21748 0
M  V30 5604 C 532.911 0.609487 -4.3909 0
M  V30 5605 H 530.131 -0.0623628 -0.668096 0
M  V30 5606 H 532.675 -0.817171 -1.87464 0
M  V30 5607 H 530.83 0.750369 -3.80063 0
M  V30 5608 H 531.244 -1.0064 -5.14754 0
M  V30 5609 H 532.718 0.671363 -5.47902 0
M  V30 5610 H 533.195 1.62878 -4.07882 0
M  V30 5611 H 533.801 -0.03434 -4.25286 0
M  V30 5612 N 532.116 1.54067 -0.331816 0
M  V30 5613 C 533.079 2.23275 0.517768 0
M  V30 5614 C 534.079 1.22897 1.03697 0
M  V30 5615 O 535.269 1.47419 0.928084 0
M  V30 5616 C 532.401 2.94326 1.72004 0
M  V30 5617 H 533.594 2.99773 -0.0873507 0
M  V30 5618 H 531.147 1.56079 -0.0830042 0
M  V30 5619 H 531.882 2.21986 2.36417 0
M  V30 5620 H 531.667 3.67941 1.35507 0
M  V30 5621 H 533.157 3.47031 2.32291 0
M  V30 5622 N 533.594 0.0601682 1.57485 0
M  V30 5623 C 534.842 -0.610386 1.92662 0
M  V30 5624 C 535.163 -1.70849 0.939981 0
M  V30 5625 O 534.433 -1.95895 -0.0137455 0
M  V30 5626 H 533.013 -0.228457 0.711208 0
M  V30 5627 H 535.675 0.115288 1.94559 0
M  V30 5628 H 534.771 -1.0432 2.94149 0
M  V30 5629 N 535.072 -1.5615 -0.213296 0
M  V30 5630 C 536.297 -1.83986 -0.957282 0
M  V30 5631 C 536.722 -0.641526 -1.76822 0
M  V30 5632 O 536.08 0.409722 -1.7661 0
M  V30 5633 C 536.128 -3.09889 -1.84393 0
M  V30 5634 O 535.232 -2.89163 -2.94038 0
M  V30 5635 H 534.573 -0.606357 -0.270605 0
M  V30 5636 H 537.103 -2.03369 -0.224111 0
M  V30 5637 H 537.113 -3.40209 -2.25215 0
M  V30 5638 H 535.788 -3.96735 -1.24795 0
M  V30 5639 H 534.365 -2.70097 -2.57103 0
M  V30 5640 N 536.55 0.480323 -1.50102 0
M  V30 5641 C 537.778 1.25657 -1.64371 0
M  V30 5642 C 538.193 1.86011 -0.323316 0
M  V30 5643 O 537.55 1.68803 0.693682 0
M  V30 5644 C 537.601 2.37197 -2.728 0
M  V30 5645 O 537.322 1.7932 -3.9972 0
M  V30 5646 C 538.823 3.2823 -2.9796 0
M  V30 5647 H 536.043 0.380369 -0.552775 0
M  V30 5648 H 538.587 0.574379 -1.96268 0
M  V30 5649 H 536.742 3.01208 -2.43623 0
M  V30 5650 H 537.156 2.52701 -4.59611 0
M  V30 5651 H 538.63 4.02725 -3.77513 0
M  V30 5652 H 539.107 3.86462 -2.08671 0
M  V30 5653 H 539.713 2.69964 -3.28633 0
M  V30 5654 N 538.028 1.39524 0.732853 0
M  V30 5655 C 539.276 1.36594 1.48951 0
M  V30 5656 C 539.597 -0.0367507 1.94965 0
M  V30 5657 O 538.867 -0.988391 1.69138 0
M  V30 5658 H 537.447 0.502673 0.552566 0
M  V30 5659 H 540.109 1.74411 0.869869 0
M  V30 5660 H 539.205 2.03 2.3706 0
M  V30 5661 N 539.506 -0.963266 1.24736 0
M  V30 5662 C 540.752 -1.70933 1.09131 0
M  V30 5663 C 541.085 -1.90676 -0.368273 0
M  V30 5664 O 540.36 -1.47147 -1.27193 0
M  V30 5665 C 540.643 -3.09744 1.83658 0
M  V30 5666 C 540.496 -2.97465 3.37394 0
M  V30 5667 C 541.815 -4.09483 1.61282 0
M  V30 5668 H 538.934 -0.620398 0.397838 0
M  V30 5669 H 541.576 -1.12028 1.53459 0
M  V30 5670 H 539.726 -3.60031 1.4598 0
M  V30 5671 H 541.398 -2.54571 3.84696 0
M  V30 5672 H 539.641 -2.33576 3.65547 0
M  V30 5673 H 540.312 -3.95822 3.84745 0
M  V30 5674 H 542.788 -3.68073 1.94066 0
M  V30 5675 H 541.664 -5.04666 2.15878 0
M  V30 5676 H 541.925 -4.38639 0.552102 0
M  V30 5677 N 540.985 -1.06182 -1.16461 0
M  V30 5678 C 542.213 -0.798583 -1.90867 0
M  V30 5679 C 542.628 0.646921 -1.77371 0
M  V30 5680 O 541.985 1.44279 -1.11758 0
M  V30 5681 C 542.036 -1.18258 -3.4161 0
M  V30 5682 O 541.757 -2.57135 -3.54701 0
M  V30 5683 C 543.258 -0.946917 -4.33069 0
M  V30 5684 H 540.478 -0.289603 -0.605286 0
M  V30 5685 H 543.022 -1.41515 -1.47627 0
M  V30 5686 H 541.177 -0.610562 -3.82558 0
M  V30 5687 H 541.591 -2.72477 -4.4817 0
M  V30 5688 H 543.065 -1.26523 -5.37304 0
M  V30 5689 H 543.542 0.117406 -4.39043 0
M  V30 5690 H 544.148 -1.50326 -3.97847 0
M  V30 5691 N 542.463 1.3308 -0.844243 0
M  V30 5692 C 543.393 2.3161 -0.296493 0
M  V30 5693 C 544.374 1.59215 0.598707 0
M  V30 5694 O 545.559 1.87077 0.521134 0
M  V30 5695 C 542.689 3.43313 0.524762 0
M  V30 5696 C 541.643 4.27115 -0.275106 0
M  V30 5697 C 540.969 5.30483 0.670236 0
M  V30 5698 C 542.269 5.00443 -1.49514 0
M  V30 5699 H 543.963 2.77672 -1.11976 0
M  V30 5700 H 541.509 1.33496 -0.539899 0
M  V30 5701 H 543.462 4.11273 0.918298 0
M  V30 5702 H 542.186 2.95952 1.3813 0
M  V30 5703 H 540.845 3.60787 -0.650267 0
M  V30 5704 H 540.493 4.79379 1.52332 0
M  V30 5705 H 540.193 5.87435 0.139123 0
M  V30 5706 H 541.717 6.01308 1.06117 0
M  V30 5707 H 543.131 5.61141 -1.17447 0
M  V30 5708 H 541.528 5.67071 -1.96343 0
M  V30 5709 H 542.598 4.28906 -2.26202 0
M  V30 5710 N 543.941 0.601185 1.45683 0
M  V30 5711 C 544.889 -0.133955 2.32214 0
M  V30 5712 C 545.883 -0.866034 1.45589 0
M  V30 5713 O 547.089 -0.782326 1.6211 0
M  V30 5714 H 543.464 -0.0620613 0.749435 0
M  V30 5715 H 545.435 0.614389 2.92007 0
M  V30 5716 C 544.184 -1.12216 3.29094 0
M  V30 5717 H 543.507 -0.568273 3.95741 0
M  V30 5718 H 544.947 -1.60659 3.92383 0
M  V30 5719 C 543.406 -2.19251 2.55794 0
M  V30 5720 O 543.936 -3.26894 2.33459 0
M  V30 5721 N 542.142 -1.9436 2.16039 0
M  V30 5722 H 541.689 -1.06829 2.34404 0
M  V30 5723 H 541.647 -2.66181 1.67318 0
M  V30 5724 N 545.419 -1.53889 0.339982 0
M  V30 5725 C 546.349 -2.27843 -0.510856 0
M  V30 5726 C 547.33 -1.29267 -1.10563 0
M  V30 5727 O 548.515 -1.58104 -1.12768 0
M  V30 5728 C 545.645 -3.04857 -1.66372 0
M  V30 5729 C 544.599 -4.10907 -1.19746 0
M  V30 5730 C 543.925 -4.75855 -2.43857 0
M  V30 5731 C 545.225 -5.21435 -0.300501 0
M  V30 5732 H 546.919 -2.99212 0.106067 0
M  V30 5733 H 544.465 -1.43904 0.0524533 0
M  V30 5734 H 546.418 -3.5533 -2.26537 0
M  V30 5735 H 545.142 -2.31133 -2.30749 0
M  V30 5736 H 543.801 -3.61342 -0.618654 0
M  V30 5737 H 543.449 -3.9873 -3.06633 0
M  V30 5738 H 543.149 -5.47502 -2.13343 0
M  V30 5739 H 544.673 -5.2911 -3.04754 0
M  V30 5740 H 546.087 -5.67565 -0.80889 0
M  V30 5741 H 544.484 -6.00036 -0.0874076 0
M  V30 5742 H 545.554 -4.80328 0.664321 0
M  V30 5743 N 546.897 -0.0685191 -1.57451 0
M  V30 5744 C 548.125 0.610462 -1.97689 0
M  V30 5745 C 548.54 1.63346 -0.946758 0
M  V30 5746 O 547.897 1.82377 0.0669868 0
M  V30 5747 C 547.948 1.28196 -3.38006 0
M  V30 5748 O 547.669 0.299906 -4.37072 0
M  V30 5749 C 549.17 2.04907 -3.931 0
M  V30 5750 H 546.39 0.165689 -0.650222 0
M  V30 5751 H 548.934 -0.139953 -2.04021 0
M  V30 5752 H 547.089 1.98348 -3.32771 0
M  V30 5753 H 547.503 0.78126 -5.18649 0
M  V30 5754 H 548.977 2.47287 -4.93511 0
M  V30 5755 H 549.454 2.9043 -3.29465 0
M  V30 5756 H 550.06 1.39629 -4.01726 0
M  V30 5757 N 548.375 1.56261 0.205012 0
M  V30 5758 C 549.6 1.84491 0.947512 0
M  V30 5759 C 550.025 0.650894 1.76479 0
M  V30 5760 O 549.383 -0.40035 1.76824 0
M  V30 5761 C 549.431 3.10863 1.82747 0
M  V30 5762 O 548.535 2.90719 2.925 0
M  V30 5763 H 547.876 0.607783 0.267386 0
M  V30 5764 H 550.406 2.03485 0.213323 0
M  V30 5765 H 550.416 3.41399 2.23407 0
M  V30 5766 H 549.091 3.97392 1.2269 0
M  V30 5767 H 547.668 2.71457 2.55667 0
M  V30 5768 N 549.853 -0.472356 1.50355 0
M  V30 5769 C 550.8 -1.57051 1.69126 0
M  V30 5770 C 551.77 -1.5733 0.532574 0
M  V30 5771 O 552.955 -1.7488 0.762994 0
M  V30 5772 C 550.095 -2.95033 1.79024 0
M  V30 5773 C 549.208 -3.04552 3.06386 0
M  V30 5774 C 548.343 -4.33441 3.07087 0
M  V30 5775 C 547.382 -4.36697 4.28908 0
M  V30 5776 N 546.519 -5.57056 4.27356 0
M  V30 5777 H 551.359 -1.40351 2.62879 0
M  V30 5778 H 548.896 -0.682403 1.30314 0
M  V30 5779 H 550.854 -3.75048 1.82744 0
M  V30 5780 H 549.484 -3.10371 0.887109 0
M  V30 5781 H 548.536 -2.17419 3.12143 0
M  V30 5782 H 549.848 -3.02818 3.96362 0
M  V30 5783 H 549.002 -5.21801 3.09529 0
M  V30 5784 H 547.741 -4.37782 2.14939 0
M  V30 5785 H 546.746 -3.46734 4.2668 0
M  V30 5786 H 547.971 -4.34049 5.22282 0
M  V30 5787 H 545.917 -5.62184 3.3806 0
M  V30 5788 H 545.834 -5.57058 5.111 0
M  V30 5789 H 547.102 -6.47545 4.33942 0
M  V30 5790 N 551.331 -1.39911 -0.725443 0
M  V30 5791 C 552.742 -1.33599 -1.30415 0
M  V30 5792 C 553.093 -0.00481792 -1.96199 0
M  V30 5793 O 552.218 0.897275 -1.96921 0
M  V30 5794 C 552.813 -2.41965 -2.37146 0
M  V30 5795 C 551.372 -2.39144 -2.90667 0
M  V30 5796 C 550.519 -2.23355 -1.64341 0
M  V30 5797 H 553.47 -1.4986 -0.522267 0
M  V30 5798 H 553.491 -2.09304 -3.17761 0
M  V30 5799 H 553.003 -3.38837 -1.89238 0
M  V30 5800 H 551.104 -1.4594 -3.4283 0
M  V30 5801 H 551.217 -3.34362 -3.43131 0
M  V30 5802 H 549.581 -1.70696 -1.89037 0
M  V30 5803 H 550.364 -3.2221 -1.18471 0
M  V30 5804 N 552.809 0.956637 -1.25245 0
M  V30 5805 C 554.058 1.69537 -1.0927 0
M  V30 5806 C 554.371 1.92136 0.366503 0
M  V30 5807 O 555.577 2.63687 0.64665 0
M  V30 5808 C 554.033 3.05211 -1.9072 0
M  V30 5809 C 553.641 2.90416 -3.41119 0
M  V30 5810 C 555.385 3.82882 -1.83308 0
M  V30 5811 C 553.292 4.21468 -4.14872 0
M  V30 5812 H 552.222 0.635804 -0.405302 0
M  V30 5813 H 554.873 1.06513 -1.49423 0
M  V30 5814 H 553.255 3.69128 -1.43389 0
M  V30 5815 H 554.429 2.35444 -3.9611 0
M  V30 5816 H 552.744 2.26203 -3.49602 0
M  V30 5817 H 555.341 4.79944 -2.35706 0
M  V30 5818 H 555.684 4.0853 -0.800572 0
M  V30 5819 H 556.217 3.25711 -2.28379 0
M  V30 5820 H 552.956 4.01009 -5.18529 0
M  V30 5821 H 552.476 4.76213 -3.64665 0
M  V30 5822 H 554.155 4.90022 -4.22478 0
M  V30 5823 N 554.287 1.06798 1.15896 0
M  V30 5824 C 555.536 0.782796 1.8589 0
M  V30 5825 C 555.849 -0.693498 1.82893 0
M  V30 5826 O 557.055 -1.09325 2.48516 0
M  V30 5827 C 555.511 1.3502 3.33613 0
M  V30 5828 C 555.119 2.8571 3.45071 0
M  V30 5829 C 556.863 1.14278 4.08829 0
M  V30 5830 C 554.77 3.35669 4.86909 0
M  V30 5831 H 553.7 0.289149 0.696354 0
M  V30 5832 H 556.351 1.28734 1.30766 0
M  V30 5833 H 554.733 0.773407 3.88374 0
M  V30 5834 H 555.907 3.49385 3.00445 0
M  V30 5835 H 554.222 3.05178 2.83294 0
M  V30 5836 H 556.819 1.49087 5.13495 0
M  V30 5837 H 557.162 0.0814575 4.1622 0
M  V30 5838 H 557.695 1.68563 3.60321 0
M  V30 5839 H 554.434 4.41302 4.84698 0
M  V30 5840 H 553.954 2.76745 5.32139 0
M  V30 5841 H 555.633 3.31296 5.55745 0
M  V30 5842 N 555.766 -1.3263 0.851289 0
M  V30 5843 C 556.696 -2.31449 0.308771 0
M  V30 5844 C 557.677 -1.59531 -0.590255 0
M  V30 5845 O 558.862 -1.87351 -0.511205 0
M  V30 5846 C 555.992 -3.43586 -0.506548 0
M  V30 5847 C 554.946 -4.26963 0.297753 0
M  V30 5848 C 554.272 -5.30831 -0.642094 0
M  V30 5849 C 555.572 -4.99643 1.52166 0
M  V30 5850 H 557.266 -2.77074 1.13447 0
M  V30 5851 H 554.812 -1.33207 0.546971 0
M  V30 5852 H 556.765 -4.11754 -0.896474 0
M  V30 5853 H 555.489 -2.96681 -1.36558 0
M  V30 5854 H 554.148 -3.60437 0.669391 0
M  V30 5855 H 553.796 -4.8018 -1.49788 0
M  V30 5856 H 553.496 -5.87501 -0.107968 0
M  V30 5857 H 555.02 -6.01862 -1.02927 0
M  V30 5858 H 556.434 -5.6051 1.20421 0
M  V30 5859 H 554.831 -5.66022 1.99347 0
M  V30 5860 H 555.901 -4.27701 2.28474 0
M  V30 5861 N 557.244 -0.608902 -1.45362 0
M  V30 5862 C 558.66 -0.272659 -1.57254 0
M  V30 5863 C 558.86 1.22477 -1.60005 0
M  V30 5864 O 557.916 2.00785 -1.53106 0
M  V30 5865 C 559.229 -0.944991 -2.85465 0
M  V30 5866 C 560.777 -0.921033 -2.99142 0
M  V30 5867 C 561.252 -1.5734 -4.30126 0
M  V30 5868 N 562.743 -1.53895 -4.36887 0
M  V30 5869 C 563.478 -2.01286 -5.36909 0
M  V30 5870 N 562.974 -2.56768 -6.43461 0
M  V30 5871 N 564.767 -1.92046 -5.28275 0
M  V30 5872 H 556.918 -1.58117 -1.4182 0
M  V30 5873 H 559.181 -0.662437 -0.678146 0
M  V30 5874 H 558.887 -1.99941 -2.89338 0
M  V30 5875 H 558.761 -0.469079 -3.74272 0
M  V30 5876 H 561.148 0.124846 -2.94836 0
M  V30 5877 H 561.229 -1.43522 -2.11743 0
M  V30 5878 H 560.873 -2.61862 -4.35191 0
M  V30 5879 H 560.803 -1.03422 -5.16344 0
M  V30 5880 H 563.294 -1.13366 -3.60495 0
M  V30 5881 H 563.607 -2.9072 -7.16032 0
M  V30 5882 H 561.952 -2.60808 -6.44208 0
M  V30 5883 H 565.143 -1.48439 -4.43941 0
M  V30 5884 H 565.316 -2.29293 -6.06077 0
M  V30 5885 N 558.722 1.53707 -0.348139 0
M  V30 5886 C 559.969 2.00988 0.246966 0
M  V30 5887 C 560.297 1.23586 1.50189 0
M  V30 5888 O 559.552 0.312817 1.93184 0
M  V30 5889 C 559.851 3.52292 0.602061 0
M  V30 5890 C 559.517 4.47453 -0.556509 0
M  V30 5891 C 558.179 4.73188 -0.874446 0
M  V30 5892 C 560.531 5.03851 -1.33354 0
M  V30 5893 C 557.859 5.52577 -1.9717 0
M  V30 5894 C 560.211 5.84437 -2.42108 0
M  V30 5895 C 558.875 6.08465 -2.74456 0
M  V30 5896 H 558.145 0.735469 0.0903712 0
M  V30 5897 H 560.792 1.85464 -0.477001 0
M  V30 5898 H 559.097 3.65672 1.40681 0
M  V30 5899 H 560.794 3.86337 1.07447 0
M  V30 5900 H 557.384 4.27558 -0.298652 0
M  V30 5901 H 561.568 4.8393 -1.10117 0
M  V30 5902 H 556.824 5.69418 -2.22651 0
M  V30 5903 H 560.998 6.27151 -3.02745 0
M  V30 5904 H 558.625 6.69768 -3.59604 0
M  V30 5905 N 560.2 0.0768682 1.57412 0
M  V30 5906 C 561.148 -0.906229 2.1422 0
M  V30 5907 C 562.142 -1.30477 1.08037 0
M  V30 5908 O 563.348 -1.28143 1.2641 0
M  V30 5909 H 559.723 -0.310207 0.685037 0
M  V30 5910 H 561.694 -0.402228 2.95677 0
M  V30 5911 C 560.443 -2.16245 2.72274 0
M  V30 5912 H 559.766 -1.86463 3.53655 0
M  V30 5913 H 561.206 -2.83134 3.15613 0
M  V30 5914 C 559.665 -2.92437 1.67279 0
M  V30 5915 O 560.195 -3.86322 1.10081 0
M  V30 5916 N 558.401 -2.55637 1.38195 0
M  V30 5917 H 557.948 -1.79363 1.84897 0
M  V30 5918 H 557.906 -3.06919 0.681787 0
M  V30 5919 N 561.678 -1.56367 -0.196722 0
M  V30 5920 C 562.61 -1.90941 -1.26784 0
M  V30 5921 C 563.623 -0.799928 -1.41792 0
M  V30 5922 O 564.812 -1.07833 -1.42247 0
M  V30 5923 C 561.912 -2.12477 -2.6402 0
M  V30 5924 C 561.085 -3.43616 -2.70641 0
M  V30 5925 C 560.144 -3.54284 -3.89062 0
M  V30 5926 O 559.17 -4.2712 -3.76241 0
M  V30 5927 N 560.372 -2.87252 -5.04447 0
M  V30 5928 H 563.137 -2.83417 -0.974417 0
M  V30 5929 H 560.698 -1.57215 -0.386649 0
M  V30 5930 H 562.69 -2.16904 -3.41665 0
M  V30 5931 H 561.26 -1.26508 -2.85857 0
M  V30 5932 H 560.48 -3.51072 -1.79283 0
M  V30 5933 H 561.768 -4.29958 -2.72054 0
M  V30 5934 H 561.166 -2.27901 -5.17762 0
M  V30 5935 H 559.723 -2.97308 -5.80044 0
M  V30 5936 N 563.156 0.464375 -1.50603 0
M  V30 5937 C 564.567 1.04507 -1.5471 0
M  V30 5938 C 564.918 1.9297 -0.354542 0
M  V30 5939 O 564.043 2.09763 0.531812 0
M  V30 5940 C 564.638 1.90207 -2.80369 0
M  V30 5941 C 563.197 2.43373 -2.87135 0
M  V30 5942 C 562.344 1.21886 -2.49076 0
M  V30 5943 H 565.295 0.246716 -1.56771 0
M  V30 5944 H 565.316 2.75353 -2.62604 0
M  V30 5945 H 564.828 1.25796 -3.67147 0
M  V30 5946 H 562.929 3.11318 -2.04724 0
M  V30 5947 H 563.042 2.7802 -3.90181 0
M  V30 5948 H 561.406 1.55575 -2.01664 0
M  V30 5949 H 562.189 0.591268 -3.3817 0
M  V30 5950 N 564.634 1.40294 0.718013 0
M  V30 5951 C 565.881 1.3844 1.47786 0
M  V30 5952 C 566.209 -0.0140838 1.94495 0
M  V30 5953 O 565.464 -0.998165 1.68331 0
M  V30 5954 C 565.763 2.31814 2.72024 0
M  V30 5955 C 565.429 3.79117 2.44093 0
M  V30 5956 C 564.091 4.19249 2.36185 0
M  V30 5957 C 566.443 4.72212 2.20602 0
M  V30 5958 C 563.771 5.50516 2.02851 0
M  V30 5959 C 566.123 6.03775 1.88781 0
M  V30 5960 C 564.787 6.42953 1.79354 0
M  V30 5961 H 564.057 0.506588 0.540786 0
M  V30 5962 H 566.704 1.72929 0.822663 0
M  V30 5963 H 565.009 1.90501 3.42369 0
M  V30 5964 H 566.706 2.27664 3.30106 0
M  V30 5965 H 563.296 3.47318 2.51133 0
M  V30 5966 H 567.48 4.42026 2.25669 0
M  V30 5967 H 562.736 5.79776 1.94088 0
M  V30 5968 H 566.91 6.75428 1.69617 0
M  V30 5969 H 564.537 7.44584 1.53291 0
M  V30 5970 N 566.112 -0.949982 1.2575 0
M  V30 5971 C 567.361 -1.68956 1.10168 0
M  V30 5972 C 567.674 -1.92327 -0.356309 0
M  V30 5973 O 568.88 -2.64026 -0.632657 0
M  V30 5974 C 567.336 -3.04196 1.92336 0
M  V30 5975 C 566.944 -2.88603 3.42655 0
M  V30 5976 C 568.688 -3.81904 1.85336 0
M  V30 5977 C 566.595 -4.19262 4.17101 0
M  V30 5978 H 565.525 -0.633645 0.408668 0
M  V30 5979 H 568.176 -1.05719 1.49986 0
M  V30 5980 H 566.558 -3.68363 1.45344 0
M  V30 5981 H 567.732 -2.3334 3.97353 0
M  V30 5982 H 566.047 -2.24345 3.50796 0
M  V30 5983 H 568.644 -4.78688 2.38248 0
M  V30 5984 H 568.987 -4.08099 0.822226 0
M  V30 5985 H 569.52 -3.24495 2.30104 0
M  V30 5986 H 566.259 -3.98254 5.20648 0
M  V30 5987 H 565.779 -4.74273 3.67186 0
M  V30 5988 H 567.458 -4.87775 4.25071 0
M  V30 5989 N 567.59 -1.07411 -1.15328 0
M  V30 5990 C 568.839 -0.792643 -1.85473 0
M  V30 5991 C 569.152 0.683789 -1.83259 0
M  V30 5992 O 570.358 1.08005 -2.49093 0
M  V30 5993 C 568.814 -1.36787 -3.32892 0
M  V30 5994 C 568.422 -2.87536 -3.43551 0
M  V30 5995 C 570.166 -1.16444 -4.08217 0
M  V30 5996 C 568.073 -3.38247 -4.85122 0
M  V30 5997 H 567.003 -0.292838 -0.694811 0
M  V30 5998 H 569.654 -1.29426 -1.30082 0
M  V30 5999 H 568.036 -0.793993 -3.87958 0
M  V30 6000 H 569.21 -3.50973 -2.98588 0
M  V30 6001 H 567.525 -3.06676 -2.81672 0
M  V30 6002 H 570.122 -1.51808 -5.12697 0
M  V30 6003 H 570.465 -0.10353 -4.16171 0
M  V30 6004 H 570.998 -1.70472 -3.59422 0
M  V30 6005 H 567.737 -4.43866 -4.82351 0
M  V30 6006 H 567.257 -2.79564 -5.30664 0
M  V30 6007 H 568.936 -3.34238 -5.5398 0
M  V30 6008 N 569.068 1.32177 -0.85831 0
M  V30 6009 C 570.001 2.26823 -0.25035 0
M  V30 6010 C 570.979 1.50571 0.61378 0
M  V30 6011 O 572.163 1.79682 0.569777 0
M  V30 6012 C 569.29 3.32472 0.646556 0
M  V30 6013 C 568.336 4.26255 -0.144675 0
M  V30 6014 S 569.169 5.13608 -1.5155 0
M  V30 6015 C 570.325 6.22778 -0.624408 0
M  V30 6016 H 570.558 2.7804 -1.05267 0
M  V30 6017 H 568.091 1.39764 -0.656152 0
M  V30 6018 H 570.049 3.93817 1.15837 0
M  V30 6019 H 568.71 2.80031 1.42272 0
M  V30 6020 H 567.903 5.01114 0.538613 0
M  V30 6021 H 567.505 3.69346 -0.588198 0
M  V30 6022 H 569.797 6.77287 0.169846 0
M  V30 6023 H 570.74 6.95233 -1.34376 0
M  V30 6024 H 571.148 5.64156 -0.197128 0
M  V30 6025 N 570.547 0.616602 1.45037 0
M  V30 6026 C 571.796 0.112861 2.01384 0
M  V30 6027 C 572.109 -1.26758 1.48969 0
M  V30 6028 O 573.315 -1.86454 1.9735 0
M  V30 6029 C 571.771 0.151057 3.59583 0
M  V30 6030 C 571.379 1.53191 4.20995 0
M  V30 6031 C 573.123 -0.296974 4.2346 0
M  V30 6032 C 571.03 1.526 5.71373 0
M  V30 6033 H 569.96 0.0384254 0.75302 0
M  V30 6034 H 572.611 0.773262 1.66412 0
M  V30 6035 H 570.993 -0.57617 3.91786 0
M  V30 6036 H 572.167 2.28156 4.00352 0
M  V30 6037 H 570.482 1.92279 3.69348 0
M  V30 6038 H 573.079 -0.320712 5.33737 0
M  V30 6039 H 573.422 -1.32145 3.9477 0
M  V30 6040 H 573.955 0.377279 3.96007 0
M  V30 6041 H 570.694 2.52837 6.04776 0
M  V30 6042 H 570.214 0.819064 5.94181 0
M  V30 6043 H 571.893 1.25357 6.3474 0
M  V30 6044 N 572.025 -1.5352 0.356285 0
M  V30 6045 C 573.272 -2.01117 -0.236303 0
M  V30 6046 C 573.6 -1.24381 -1.49531 0
M  V30 6047 O 572.855 -0.323057 -1.93015 0
M  V30 6048 C 573.154 -3.52607 -0.583369 0
M  V30 6049 C 572.82 -4.47151 0.58023 0
M  V30 6050 C 571.482 -4.72718 0.899528 0
M  V30 6051 C 573.834 -5.03137 1.36024 0
M  V30 6052 C 571.162 -5.51523 2.00098 0
M  V30 6053 C 573.514 -5.83145 2.45204 0
M  V30 6054 C 572.178 -6.07001 2.77679 0
M  V30 6055 H 571.448 -0.735938 -0.0864695 0
M  V30 6056 H 574.095 -1.85209 0.48683 0
M  V30 6057 H 572.4 -3.66413 -1.38739 0
M  V30 6058 H 574.097 -3.86901 -1.05397 0
M  V30 6059 H 570.687 -4.27394 0.321322 0
M  V30 6060 H 574.871 -4.83339 1.12682 0
M  V30 6061 H 570.127 -5.68229 2.25668 0
M  V30 6062 H 574.301 -6.25537 3.06067 0
M  V30 6063 H 571.928 -6.67851 3.63151 0
M  V30 6064 N 573.503 -0.0852151 -1.57369 0
M  V30 6065 C 574.78 0.622534 -1.85429 0
M  V30 6066 C 575.16 1.86962 -0.980229 0
M  V30 6067 O 574.508 2.28445 -0.0500219 0
M  V30 6068 C 574.718 0.947374 -3.35896 0
M  V30 6069 C 576.066 1.31509 -4.03721 0
M  V30 6070 O 577.09 1.03869 -3.40719 0
M  V30 6071 O 575.949 1.83231 -5.14868 0
M  V30 6072 H 573.043 0.310513 -0.766492 0
M  V30 6073 H 575.589 -0.117164 -1.69295 0
M  V30 6074 H 574.361 0.0622264 -3.91251 0
M  V30 6075 H 573.984 1.74338 -3.5734 0
M  V30 6076 N 574.981 1.5647 0.188427 0
M  V30 6077 C 575.931 1.91479 1.23774 0
M  V30 6078 C 576.915 0.78119 1.40664 0
M  V30 6079 O 578.107 1.04414 1.42922 0
M  V30 6080 C 575.236 2.26354 2.58106 0
M  V30 6081 C 574.322 3.46186 2.44981 0
M  V30 6082 N 574.713 4.63911 2.01546 0
M  V30 6083 C 573.011 3.50456 2.75856 0
M  V30 6084 C 573.712 5.46064 2.00472 0
M  V30 6085 N 572.688 4.86648 2.42229 0
M  V30 6086 H 576.49 2.79994 0.893339 0
M  V30 6087 H 574.004 1.57477 0.39682 0
M  V30 6088 H 576.001 2.49622 3.33908 0
M  V30 6089 H 574.661 1.39168 2.93364 0
M  V30 6090 H 575.672 4.88451 1.7215 0
M  V30 6091 H 572.349 2.73704 3.15265 0
M  V30 6092 H 573.739 6.50368 1.68734 0
M  V30 6093 N 576.459 -0.456382 1.50847 0
M  V30 6094 C 577.706 -1.20736 1.62571 0
M  V30 6095 C 578.034 -1.9163 0.332904 0
M  V30 6096 O 577.289 -1.8343 -0.682058 0
M  V30 6097 C 577.588 -2.26336 2.76599 0
M  V30 6098 C 577.254 -1.7259 4.16562 0
M  V30 6099 C 575.916 -1.57654 4.54641 0
M  V30 6100 C 578.268 -1.32877 5.03977 0
M  V30 6101 C 575.596 -1.0145 5.77862 0
M  V30 6102 C 577.948 -0.7811 6.27759 0
M  V30 6103 C 576.612 -0.618488 6.64628 0
M  V30 6104 H 575.882 -0.441803 0.594888 0
M  V30 6105 H 578.529 -0.501169 1.84826 0
M  V30 6106 H 576.834 -3.0292 2.48489 0
M  V30 6107 H 578.531 -2.84227 2.82871 0
M  V30 6108 H 575.121 -1.85187 3.86528 0
M  V30 6109 H 579.305 -1.43245 4.75179 0
M  V30 6110 H 574.561 -0.876109 6.0509 0
M  V30 6111 H 578.735 -0.464783 6.94847 0
M  V30 6112 H 576.362 -0.180838 7.59985 0
M  V30 6113 N 577.937 -1.40673 -0.710563 0
M  V30 6114 C 579.165 -1.42547 -1.4996 0
M  V30 6115 C 579.58 -0.0265485 -1.88781 0
M  V30 6116 O 578.937 0.950694 -1.55782 0
M  V30 6117 C 578.988 -2.32071 -2.77173 0
M  V30 6118 O 578.709 -3.66518 -2.39992 0
M  V30 6119 C 580.21 -2.42591 -3.71032 0
M  V30 6120 H 577.43 -0.486025 -0.462623 0
M  V30 6121 H 579.974 -1.84783 -0.876102 0
M  V30 6122 H 578.129 -1.93184 -3.35795 0
M  V30 6123 H 578.543 -4.14115 -3.21884 0
M  V30 6124 H 580.017 -3.09429 -4.57119 0
M  V30 6125 H 580.494 -1.4525 -4.14486 0
M  V30 6126 H 581.1 -2.82051 -3.18319 0
M  V30 6127 N 579.415 0.9433 -1.26252 0
M  V30 6128 C 580.661 1.69226 -1.12846 0
M  V30 6129 C 581.016 1.8963 0.325282 0
M  V30 6130 O 580.309 1.46435 1.23561 0
M  V30 6131 C 580.503 3.07073 -1.82868 0
M  V30 6132 C 580.332 3.00118 -3.34902 0
M  V30 6133 C 579.102 3.03251 -4.04186 0
M  V30 6134 C 581.3 2.80418 -4.31127 0
M  V30 6135 N 579.282 2.86573 -5.42908 0
M  V30 6136 C 580.653 2.72287 -5.5701 0
M  V30 6137 C 582.708 2.65185 -4.21404 0
M  V30 6138 C 581.411 2.50479 -6.74279 0
M  V30 6139 C 583.437 2.4475 -5.38378 0
M  V30 6140 C 582.799 2.37349 -6.63208 0
M  V30 6141 H 578.898 0.626716 -0.467708 0
M  V30 6142 H 581.482 1.11645 -1.5951 0
M  V30 6143 H 579.653 3.62797 -1.38682 0
M  V30 6144 H 581.385 3.70816 -1.62103 0
M  V30 6145 H 578.14 3.12882 -3.55531 0
M  V30 6146 H 578.564 2.81408 -6.15742 0
M  V30 6147 H 583.206 2.69675 -3.25631 0
M  V30 6148 H 580.924 2.4473 -7.70151 0
M  V30 6149 H 584.51 2.33872 -5.32724 0
M  V30 6150 H 583.39 2.21746 -7.52196 0
M  V30 6151 N 580.893 1.08022 1.14757 0
M  V30 6152 C 582.118 0.82895 1.90114 0
M  V30 6153 C 582.543 -0.612772 1.77839 0
M  V30 6154 O 581.901 -1.42895 1.11583 0
M  V30 6155 C 581.949 1.25062 3.38219 0
M  V30 6156 O 581.053 0.400119 4.10454 0
M  V30 6157 H 580.394 0.301412 0.591648 0
M  V30 6158 H 582.924 1.44062 1.45284 0
M  V30 6159 H 582.934 1.22977 3.89025 0
M  V30 6160 H 581.609 2.30067 3.46471 0
M  V30 6161 H 580.186 0.484052 3.69745 0
M  V30 6162 N 582.371 -1.3172 0.865308 0
M  V30 6163 C 583.596 -2.01591 0.487415 0
M  V30 6164 C 584.021 -1.6455 -0.911307 0
M  V30 6165 O 583.379 -0.851689 -1.6005 0
M  V30 6166 C 583.427 -3.54759 0.646401 0
M  V30 6167 O 582.531 -4.11185 -0.316284 0
M  V30 6168 H 581.872 -0.634884 0.194468 0
M  V30 6169 H 584.402 -1.68024 1.16744 0
M  V30 6170 H 584.412 -4.04438 0.537932 0
M  V30 6171 H 583.087 -3.8106 1.66632 0
M  V30 6172 H 581.664 -3.72543 -0.163162 0
M  V30 6173 N 583.85 -0.624285 -1.44708 0
M  V30 6174 C 584.779 0.0717025 -2.3339 0
M  V30 6175 C 585.76 0.841814 -1.47809 0
M  V30 6176 O 586.946 0.809056 -1.76544 0
M  V30 6177 C 584.076 1.05852 -3.30776 0
M  V30 6178 C 583.029 0.400503 -4.26122 0
M  V30 6179 C 582.356 1.49674 -5.13324 0
M  V30 6180 C 583.656 -0.688924 -5.17737 0
M  V30 6181 H 585.35 -0.668819 -2.91834 0
M  V30 6182 H 582.896 -0.32308 -1.40329 0
M  V30 6183 H 584.849 1.5541 -3.91696 0
M  V30 6184 H 583.572 1.82984 -2.70526 0
M  V30 6185 H 582.231 -0.0743687 -3.66525 0
M  V30 6186 H 581.88 2.25877 -4.49431 0
M  V30 6187 H 581.58 1.06188 -5.77926 0
M  V30 6188 H 583.104 1.99427 -5.77115 0
M  V30 6189 H 584.518 -0.276724 -5.72632 0
M  V30 6190 H 582.915 -1.04652 -5.90904 0
M  V30 6191 H 583.985 -1.55884 -4.5916 0
M  V30 6192 N 585.328 1.53329 -0.364422 0
M  V30 6193 C 586.575 2.01239 0.225634 0
M  V30 6194 C 586.903 1.25172 1.48869 0
M  V30 6195 O 586.158 0.333289 1.92841 0
M  V30 6196 C 586.457 3.52911 0.564661 0
M  V30 6197 C 586.123 4.46837 -0.603936 0
M  V30 6198 C 584.785 4.72234 -0.924585 0
M  V30 6199 C 587.137 5.02409 -1.38691 0
M  V30 6200 C 584.465 5.50454 -2.0302 0
M  V30 6201 C 586.817 5.81836 -2.48293 0
M  V30 6202 C 585.481 6.0552 -2.80894 0
M  V30 6203 H 584.751 0.736386 0.0825654 0
M  V30 6204 H 587.398 1.84948 -0.496645 0
M  V30 6205 H 585.703 3.67144 1.36794 0
M  V30 6206 H 587.4 3.87455 1.03344 0
M  V30 6207 H 583.99 4.27217 -0.343983 0
M  V30 6208 H 588.174 4.82735 -1.15243 0
M  V30 6209 H 583.43 5.67024 -2.28678 0
M  V30 6210 H 587.604 6.23905 -3.0938 0
M  V30 6211 H 585.231 6.65916 -3.66688 0
M  V30 6212 N 586.806 0.0935595 1.57322 0
M  V30 6213 C 587.736 -0.863062 2.16964 0
M  V30 6214 C 588.717 -1.29528 1.10256 0
M  V30 6215 O 589.902 -1.36245 1.38387 0
M  V30 6216 C 587.032 -2.12276 2.74875 0
M  V30 6217 C 585.986 -1.82921 3.86942 0
M  V30 6218 C 585.312 -3.15707 4.31548 0
M  V30 6219 C 586.612 -1.11737 5.10208 0
M  V30 6220 H 588.306 -0.366145 2.97153 0
M  V30 6221 H 585.852 -0.174673 1.42937 0
M  V30 6222 H 587.805 -2.79634 3.1525 0
M  V30 6223 H 586.529 -2.64248 1.91938 0
M  V30 6224 H 585.188 -1.17961 3.47103 0
M  V30 6225 H 584.836 -3.65563 3.45504 0
M  V30 6226 H 584.536 -2.96849 5.07104 0
M  V30 6227 H 586.06 -3.84226 4.74555 0
M  V30 6228 H 587.474 -1.69203 5.47762 0
M  V30 6229 H 585.871 -1.03064 5.91183 0
M  V30 6230 H 586.941 -0.0998818 4.84797 0
M  V30 6231 N 588.284 -1.56567 -0.180126 0
M  V30 6232 C 589.247 -1.94852 -1.20686 0
M  V30 6233 C 590.247 -0.831212 -1.3765 0
M  V30 6234 O 591.437 -1.09841 -1.35206 0
M  V30 6235 C 588.569 -2.23565 -2.57355 0
M  V30 6236 H 589.762 -2.86722 -0.879225 0
M  V30 6237 H 587.315 -1.50489 -0.422237 0
M  V30 6238 H 588.05 -1.34381 -2.95148 0
M  V30 6239 H 587.835 -3.04999 -2.46411 0
M  V30 6240 H 589.325 -2.54137 -3.31367 0
M  V30 6241 N 589.762 0.448376 -1.51087 0
M  V30 6242 C 591.178 0.783984 -1.39017 0
M  V30 6243 C 591.378 1.96087 -0.463904 0
M  V30 6244 O 590.434 2.52357 0.0850534 0
M  V30 6245 C 591.747 1.07471 -2.80839 0
M  V30 6246 C 593.295 1.17981 -2.89913 0
M  V30 6247 C 593.77 1.50354 -4.32617 0
M  V30 6248 N 595.261 1.57301 -4.35673 0
M  V30 6249 C 595.996 1.839 -5.4311 0
M  V30 6250 N 595.492 2.08365 -6.60724 0
M  V30 6251 N 597.285 1.8559 -5.30578 0
M  V30 6252 H 589.436 -0.326881 -2.0987 0
M  V30 6253 H 591.699 -0.0838006 -0.944289 0
M  V30 6254 H 591.405 0.282768 -3.50561 0
M  V30 6255 H 591.279 2.00519 -3.19487 0
M  V30 6256 H 593.666 1.9624 -2.20395 0
M  V30 6257 H 593.747 0.228603 -2.54776 0
M  V30 6258 H 593.391 0.726273 -5.0268 0
M  V30 6259 H 593.321 2.46663 -4.65258 0
M  V30 6260 H 595.812 1.40342 -3.50874 0
M  V30 6261 H 596.125 2.27999 -7.38401 0
M  V30 6262 H 594.47 2.0571 -6.63859 0
M  V30 6263 H 597.661 1.65989 -4.37682 0
M  V30 6264 H 597.834 2.05983 -6.1439 0
M  V30 6265 N 591.24 1.41047 0.703093 0
M  V30 6266 C 592.486 1.40207 1.46526 0
M  V30 6267 C 592.819 0.00847763 1.94198 0
M  V30 6268 O 592.094 -0.962437 1.69019 0
M  V30 6269 C 592.377 2.40238 2.6825 0
M  V30 6270 C 592.23 3.88674 2.26391 0
M  V30 6271 C 593.549 2.37627 3.70434 0
M  V30 6272 H 590.668 0.510594 0.531472 0
M  V30 6273 H 593.31 1.72271 0.801422 0
M  V30 6274 H 591.46 2.13026 3.24888 0
M  V30 6275 H 593.132 4.2676 1.75138 0
M  V30 6276 H 591.375 4.03903 1.58255 0
M  V30 6277 H 592.046 4.542 3.13698 0
M  V30 6278 H 594.522 2.61759 3.23452 0
M  V30 6279 H 593.398 3.09645 4.53223 0
M  V30 6280 H 593.659 1.39223 4.19606 0
M  V30 6281 N 592.718 -0.936591 1.26751 0
M  V30 6282 C 593.651 -2.03619 1.03027 0
M  V30 6283 C 594.629 -1.62534 -0.0464619 0
M  V30 6284 O 595.813 -1.88251 0.0968873 0
M  V30 6285 C 592.94 -3.3402 0.561072 0
M  V30 6286 C 591.986 -3.9408 1.63105 0
M  V30 6287 S 592.819 -4.27782 3.22122 0
M  V30 6288 C 593.975 -5.61277 2.76982 0
M  V30 6289 H 594.208 -2.23429 1.96129 0
M  V30 6290 H 591.741 -1.07857 1.10482 0
M  V30 6291 H 593.699 -4.09424 0.297031 0
M  V30 6292 H 592.36 -3.12147 -0.349741 0
M  V30 6293 H 591.553 -4.88154 1.25386 0
M  V30 6294 H 591.155 -3.25227 1.84671 0
M  V30 6295 H 593.447 -6.40189 2.21731 0
M  V30 6296 H 594.39 -6.03887 3.69766 0
M  V30 6297 H 594.798 -5.21374 2.16402 0
M  V30 6298 N 594.196 -1.08629 -1.14182 0
M  V30 6299 C 595.144 -0.71284 -2.21408 0
M  V30 6300 C 596.138 0.282457 -1.67029 0
M  V30 6301 O 597.344 0.144783 -1.79417 0
M  V30 6302 H 593.719 -0.212497 -0.721352 0
M  V30 6303 H 595.69 -1.6265 -2.50175 0
M  V30 6304 C 594.439 -0.140704 -3.47415 0
M  V30 6305 H 593.762 -0.897739 -3.8959 0
M  V30 6306 H 595.202 0.0827677 -4.23919 0
M  V30 6307 C 593.661 1.122 -3.17668 0
M  V30 6308 O 594.191 2.20652 -3.35672 0
M  V30 6309 N 592.397 1.03328 -2.71609 0
M  V30 6310 H 591.944 0.150666 -2.57159 0
M  V30 6311 H 591.902 1.8789 -2.52081 0
M  V30 6312 N 595.674 1.31259 -0.872281 0
M  V30 6313 C 597.085 1.78822 -0.536617 0
M  V30 6314 C 597.436 1.71855 0.946594 0
M  V30 6315 O 596.561 1.28769 1.73918 0
M  V30 6316 C 597.156 3.24698 -0.967294 0
M  V30 6317 C 595.715 3.70147 -0.683251 0
M  V30 6318 C 594.862 2.51994 -1.15733 0
M  V30 6319 H 597.813 1.18308 -1.05777 0
M  V30 6320 H 597.834 3.79386 -0.290929 0
M  V30 6321 H 597.346 3.29737 -2.04683 0
M  V30 6322 H 595.447 3.70607 0.384825 0
M  V30 6323 H 595.56 4.62183 -1.2619 0
M  V30 6324 H 593.924 2.48078 -0.577024 0
M  V30 6325 H 594.707 2.59778 -2.24434 0
M  V30 6326 N 597.152 0.631951 1.44375 0
M  V30 6327 C 598.398 0.13697 2.02337 0
M  V30 6328 C 598.731 -1.23826 1.49602 0
M  V30 6329 O 598.006 -1.8221 0.680415 0
M  V30 6330 C 598.289 0.124536 3.59885 0
M  V30 6331 C 598.142 1.53217 4.229 0
M  V30 6332 C 599.461 -0.550481 4.36644 0
M  V30 6333 H 596.58 0.051247 0.735216 0
M  V30 6334 H 599.222 0.808581 1.71936 0
M  V30 6335 H 597.372 -0.44737 3.85916 0
M  V30 6336 H 599.044 2.15303 4.07973 0
M  V30 6337 H 597.287 2.0858 3.80364 0
M  V30 6338 H 597.958 1.4755 5.31914 0
M  V30 6339 H 600.434 -0.0641154 4.16051 0
M  V30 6340 H 599.31 -0.528371 5.46351 0
M  V30 6341 H 599.571 -1.62097 4.11311 0
M  V30 6342 O 598.669 -1.53077 0.514746 0
M  V30 6343 H 599.36 -1.937 0.000749731 0
M  V30 END ATOM
M  V30 BEGIN BOND
M  V30 END BOND
M  V30 END CTAB
M  END
$$$$
