drugbank_target|P08246 Neutrophil elastase (DB00058; DB00099; DB02341; DB03925; DB05161)
 OpenBabel12092119313D

  0  0  0     0  0            999 V3000
M  V30 BEGIN CTAB
M  V30 COUNTS 4030 4069 0 0 0
M  V30 BEGIN ATOM
M  V30 1 H -0.908 1.98254 -0.117106 0
M  V30 2 N 0 1.576 0 0
M  V30 3 C 0.933 2.03868 1.02534 0
M  V30 4 C 1.911 0.928543 1.3348 0
M  V30 5 O 3.095 1.19667 1.45644 0
M  V30 6 C 0.222 2.43627 2.35294 0
M  V30 7 C -0.732 3.65373 2.2001 0
M  V30 8 S 0.101 5.13292 1.52614 0
M  V30 9 C 1.257 5.56322 2.86805 0
M  V30 10 H 1.49 2.90518 0.631377 0
M  V30 11 H -0.977 1.52953 0.210867 0
M  V30 12 H 0.981 2.67203 3.11629 0
M  V30 13 H -0.358 1.57376 2.7183 0
M  V30 14 H -1.165 3.90944 3.18086 0
M  V30 15 H -1.563 3.418 1.51819 0
M  V30 16 H 0.729 5.58782 3.83104 0
M  V30 17 H 1.672 6.56266 2.65933 0
M  V30 18 H 2.08 4.83886 2.90714 0
M  V30 19 N 1.4781 -0.272755 1.55222 0
M  V30 20 C 2.7061 -1.02255 1.79865 0
M  V30 21 C 3.1211 -1.79924 0.572088 0
M  V30 22 O 2.4781 -1.76638 -0.458842 0
M  V30 23 C 2.5291 -1.98094 3.02392 0
M  V30 24 O 2.2501 -1.23572 4.20311 0
M  V30 25 C 3.7511 -2.84884 3.39641 0
M  V30 26 H 0.9711 -0.302057 0.599168 0
M  V30 27 H 3.5151 -0.303465 2.02236 0
M  V30 28 H 1.6701 -2.65465 2.82147 0
M  V30 29 H 2.0841 -1.88172 4.89583 0
M  V30 30 H 3.5581 -3.47927 4.28545 0
M  V30 31 H 4.0351 -3.54665 2.59055 0
M  V30 32 H 4.6411 -2.23003 3.62146 0
M  V30 33 N 2.9562 -1.48159 -0.537278 0
M  V30 34 C 3.8862 -1.65029 -1.6519 0
M  V30 35 C 4.8672 -0.499281 -1.62607 0
M  V30 36 O 6.0522 -0.730972 -1.79918 0
M  V30 37 C 3.1822 -1.68303 -3.03795 0
M  V30 38 C 2.1362 -2.8283 -3.21234 0
M  V30 39 C 1.4622 -2.71189 -4.60826 0
M  V30 40 C 2.7622 -4.24211 -3.04701 0
M  V30 41 H 4.4562 -2.58341 -1.51328 0
M  V30 42 H 2.0022 -1.24325 -0.726585 0
M  V30 43 H 3.9552 -1.78693 -3.81637 0
M  V30 44 H 2.6792 -0.715635 -3.18663 0
M  V30 45 H 1.3382 -2.71983 -2.45807 0
M  V30 46 H 0.9862 -1.72435 -4.7252 0
M  V30 47 H 0.6862 -3.48035 -4.7344 0
M  V30 48 H 2.2102 -2.83537 -5.40777 0
M  V30 49 H 3.6242 -4.3593 -3.72341 0
M  V30 50 H 2.0212 -5.01998 -3.28813 0
M  V30 51 H 3.0912 -4.41184 -2.01209 0
M  V30 52 N 4.4343 0.785586 -1.36625 0
M  V30 53 C 5.6823 1.54057 -1.30808 0
M  V30 54 C 6.0033 1.94683 0.111157 0
M  V30 55 O 5.2733 1.65241 1.05224 0
M  V30 56 H 3.8533 0.571354 -0.481211 0
M  V30 57 H 6.5153 0.935821 -1.70963 0
M  V30 58 H 5.6113 2.44637 -1.93801 0
M  V30 59 N 5.9124 1.20967 1.01018 0
M  V30 60 C 7.3284 0.965905 1.27053 0
M  V30 61 C 7.5284 -0.350785 1.98423 0
M  V30 62 O 6.5844 -1.07773 2.28344 0
M  V30 63 C 7.8974 2.15294 2.09926 0
M  V30 64 C 9.4454 2.19463 2.23171 0
M  V30 65 C 9.9204 3.3767 3.09424 0
M  V30 66 N 11.4114 3.37724 3.17012 0
M  V30 67 C 12.1464 4.25837 3.83993 0
M  V30 68 N 11.6424 5.24138 4.53047 0
M  V30 69 N 13.4354 4.1366 3.80581 0
M  V30 70 H 5.5864 2.0565 0.531194 0
M  V30 71 H 7.8494 0.90024 0.297106 0
M  V30 72 H 7.5554 3.10684 1.64828 0
M  V30 73 H 7.4294 2.13923 3.10672 0
M  V30 74 H 9.8164 1.24632 2.6749 0
M  V30 75 H 9.8974 2.2488 1.21912 0
M  V30 76 H 9.5414 4.32791 2.65808 0
M  V30 77 H 9.4714 3.29491 4.10784 0
M  V30 78 H 11.9624 2.6658 2.6785 0
M  V30 79 H 12.2754 5.87684 5.01844 0
M  V30 80 H 10.6204 5.28068 4.5185 0
M  V30 81 H 13.8114 3.36127 3.25785 0
M  V30 82 H 13.9844 4.82538 4.32505 0
M  V30 83 N 7.3905 -1.2043 1.01659 0
M  V30 84 C 8.8065 -1.41852 0.731442 0
M  V30 85 C 9.0065 -1.89358 -0.688898 0
M  V30 86 O 8.0625 -2.06247 -1.45666 0
M  V30 87 C 9.3755 -2.44019 1.75714 0
M  V30 88 C 10.9235 -2.57785 1.77527 0
M  V30 89 C 11.3985 -3.63194 2.79023 0
M  V30 90 N 12.8895 -3.70678 2.77763 0
M  V30 91 C 13.6245 -4.51897 3.52954 0
M  V30 92 N 13.1205 -5.36921 4.37821 0
M  V30 93 N 14.9135 -4.4643 3.41551 0
M  V30 94 H 7.0645 -0.879093 1.93354 0
M  V30 95 H 9.3275 -0.448425 0.835236 0
M  V30 96 H 9.0335 -2.1611 2.77469 0
M  V30 97 H 8.9075 -3.43007 1.56927 0
M  V30 98 H 11.2945 -2.85023 0.764569 0
M  V30 99 H 11.3755 -1.58992 2.00387 0
M  V30 100 H 11.0195 -3.36699 3.80258 0
M  V30 101 H 10.9495 -4.61609 2.53425 0
M  V30 102 H 13.4405 -3.09944 2.16201 0
M  V30 103 H 13.7535 -5.95981 4.91962 0
M  V30 104 H 12.0985 -5.36424 4.41899 0
M  V30 105 H 15.2895 -3.79042 2.74672 0
M  V30 106 H 15.4625 -5.09491 4.00404 0
M  V30 107 N 8.8686 -0.792821 -1.36206 0
M  V30 108 C 9.7986 -0.207853 -2.32573 0
M  V30 109 C 10.7796 0.659055 -1.56813 0
M  V30 110 O 11.9646 0.592176 -1.84951 0
M  V30 111 C 9.0946 0.655449 -3.41059 0
M  V30 112 C 8.0486 -0.111842 -4.27854 0
M  V30 113 C 7.3746 0.872274 -5.27537 0
M  V30 114 C 8.6746 -1.30299 -5.05786 0
M  V30 115 H 10.3686 -1.01294 -2.81744 0
M  V30 116 H 7.9146 -0.48854 -1.3546 0
M  V30 117 H 9.8676 1.07464 -4.07467 0
M  V30 118 H 8.5916 1.49328 -2.90463 0
M  V30 119 H 7.2506 -0.512053 -3.63006 0
M  V30 120 H 6.8986 1.70523 -4.73214 0
M  V30 121 H 6.5986 0.363291 -5.86476 0
M  V30 122 H 8.1226 1.28996 -5.96818 0
M  V30 123 H 9.5366 -0.959379 -5.65216 0
M  V30 124 H 7.9336 -1.7455 -5.74154 0
M  V30 125 H 9.0036 -2.09663 -4.37229 0
M  V30 126 N 10.3467 1.47872 -0.545128 0
M  V30 127 C 11.3097 2.28337 0.198717 0
M  V30 128 C 12.3097 1.36255 0.853888 0
M  V30 129 O 13.4997 1.59003 0.711606 0
M  V30 130 C 10.6317 3.15585 1.28915 0
M  V30 131 H 11.8247 2.95567 -0.507941 0
M  V30 132 H 9.3777 1.53362 -0.301616 0
M  V30 133 H 10.1127 2.53019 2.02859 0
M  V30 134 H 9.8977 3.83337 0.824309 0
M  V30 135 H 11.3877 3.76243 1.81194 0
M  V30 136 N 11.8248 0.280983 1.55075 0
M  V30 137 C 13.0648 -0.335234 2.01632 0
M  V30 138 C 13.4288 -1.5261 1.16508 0
M  V30 139 O 14.6298 -2.21235 1.52672 0
M  V30 140 C 12.9008 -0.702172 3.50434 0
M  V30 141 S 14.4598 -1.30409 4.18974 0
M  V30 142 H 11.2778 -0.103967 0.703358 0
M  V30 143 H 13.8798 0.404187 1.91276 0
M  V30 144 H 12.5838 0.17333 4.10034 0
M  V30 145 H 12.1148 -1.4729 3.64786 0
M  V30 146 H 14.1298 -2.59253 4.23087 0
M  V30 147 N 13.3029 -1.57598 0.00835791 0
M  V30 148 C 14.2329 -2.1198 -0.979113 0
M  V30 149 C 15.2139 -1.03091 -1.35301 0
M  V30 150 O 16.3989 -1.30818 -1.43528 0
M  V30 151 C 13.5289 -2.62995 -2.26828 0
M  V30 152 C 12.4829 -3.76485 -2.03576 0
M  V30 153 C 11.8089 -4.13846 -3.38579 0
M  V30 154 C 13.1089 -5.0342 -1.39161 0
M  V30 155 H 14.8029 -2.94738 -0.526281 0
M  V30 156 H 12.3489 -1.41783 -0.251704 0
M  V30 157 H 14.3019 -2.99669 -2.96271 0
M  V30 158 H 13.0259 -1.7737 -2.7424 0
M  V30 159 H 11.6849 -3.40217 -1.36557 0
M  V30 160 H 11.3329 -3.25232 -3.83709 0
M  V30 161 H 11.0329 -4.90312 -3.23834 0
M  V30 162 H 12.5569 -4.53086 -4.09323 0
M  V30 163 H 13.9709 -5.37812 -1.98573 0
M  V30 164 H 12.3679 -5.84746 -1.34878 0
M  V30 165 H 13.4379 -4.83548 -0.361868 0
M  V30 166 N 14.781 0.264519 -1.55364 0
M  V30 167 C 16.028 0.994986 -1.7637 0
M  V30 168 C 16.356 1.85976 -0.5695 0
M  V30 169 O 15.611 1.90509 0.44776 0
M  V30 170 C 15.91 1.9004 -3.02687 0
M  V30 171 C 15.576 1.19243 -4.34847 0
M  V30 172 C 14.238 0.996709 -4.70764 0
M  V30 173 C 16.59 0.689296 -5.16622 0
M  V30 174 C 13.918 0.285261 -5.86006 0
M  V30 175 C 16.27 -0.00860079 -6.32599 0
M  V30 176 C 14.934 -0.215963 -6.67151 0
M  V30 177 H 14.204 0.364091 -0.645383 0
M  V30 178 H 16.851 0.266543 -1.89636 0
M  V30 179 H 15.156 2.69533 -2.84357 0
M  V30 180 H 16.853 2.46695 -3.16137 0
M  V30 181 H 13.443 1.3549 -4.06621 0
M  V30 182 H 17.627 0.828108 -4.89342 0
M  V30 183 H 12.883 0.113961 -6.11294 0
M  V30 184 H 17.057 -0.406186 -6.95214 0
M  V30 185 H 14.684 -0.769217 -7.56298 0
M  V30 186 N 16.2591 1.48442 0.529413 0
M  V30 187 C 17.1891 1.65902 1.64313 0
M  V30 188 C 18.1701 0.507897 1.6234 0
M  V30 189 O 19.3551 0.740503 1.79528 0
M  V30 190 C 16.4851 1.69911 3.02898 0
M  V30 191 C 15.4391 2.8453 3.19729 0
M  V30 192 C 14.7651 2.73629 4.59381 0
M  V30 193 C 16.0651 4.25821 3.02447 0
M  V30 194 H 17.7591 2.5914 1.49955 0
M  V30 195 H 15.3051 1.24709 0.719982 0
M  V30 196 H 17.2581 1.80715 3.80684 0
M  V30 197 H 15.9821 0.732524 3.18279 0
M  V30 198 H 14.6411 2.73283 2.44361 0
M  V30 199 H 14.2891 1.74938 4.71599 0
M  V30 200 H 13.9891 3.50541 4.71588 0
M  V30 201 H 15.5131 2.86401 5.39265 0
M  V30 202 H 16.9271 4.37898 3.70024 0
M  V30 203 H 15.3241 5.03735 3.26146 0
M  V30 204 H 16.3941 4.42244 1.98867 0
M  V30 205 N 17.7372 -0.778329 1.37039 0
M  V30 206 C 18.7002 -1.87301 1.32102 0
M  V30 207 C 19.7002 -1.59198 0.226405 0
M  V30 208 O 20.8902 -1.67403 0.481861 0
M  V30 209 C 18.0222 -3.24309 1.05055 0
M  V30 210 H 19.2152 -1.93093 2.29467 0
M  V30 211 H 16.7682 -0.977358 1.21973 0
M  V30 212 H 17.5032 -3.24196 0.0819373 0
M  V30 213 H 17.2882 -3.46098 1.84279 0
M  V30 214 H 18.7782 -4.04382 1.04234 0
M  V30 215 N 19.2153 -1.21501 -1.00376 0
M  V30 216 C 20.4553 -1.04444 -1.75701 0
M  V30 217 C 20.8193 0.414644 -1.87469 0
M  V30 218 O 22.0203 0.705763 -2.59369 0
M  V30 219 C 20.2913 -1.72389 -3.13077 0
M  V30 220 S 21.8503 -1.70604 -4.04277 0
M  V30 221 H 18.6683 -0.374249 -0.604532 0
M  V30 222 H 21.2703 -1.54267 -1.20091 0
M  V30 223 H 19.9743 -2.77734 -3.02146 0
M  V30 224 H 19.5053 -1.22751 -3.73759 0
M  V30 225 H 21.5203 -0.748012 -4.9053 0
M  V30 226 N 20.6934 1.19889 -1.02296 0
M  V30 227 C 21.9394 1.89701 -0.717033 0
M  V30 228 C 22.2724 1.7905 0.751989 0
M  V30 229 O 21.5474 1.17891 1.547 0
M  V30 230 C 21.8304 3.40858 -1.16136 0
M  V30 231 C 21.6834 3.60411 -2.69117 0
M  V30 232 C 23.0024 4.33876 -0.737549 0
M  V30 233 H 20.1214 0.688874 -0.261957 0
M  V30 234 H 22.7634 1.41154 -1.27183 0
M  V30 235 H 20.9134 3.82335 -0.689342 0
M  V30 236 H 22.5854 3.28145 -3.2422 0
M  V30 237 H 20.8284 3.03665 -3.0979 0
M  V30 238 H 21.4994 4.66396 -2.95261 0
M  V30 239 H 23.9754 4.00081 -1.14344 0
M  V30 240 H 22.8514 5.38242 -1.0764 0
M  V30 241 H 23.1124 4.40628 0.360436 0
M  V30 242 N 22.1715 0.800033 1.35784 0
M  V30 243 C 23.1015 0.220184 2.3246 0
M  V30 244 C 24.0825 -0.65073 1.57161 0
M  V30 245 O 25.2675 -0.582359 1.85263 0
M  V30 246 C 22.3975 -0.637353 3.41402 0
M  V30 247 C 21.3515 0.134531 4.27789 0
M  V30 248 C 20.6775 -0.844285 5.27992 0
M  V30 249 C 21.9775 1.32979 5.05088 0
M  V30 250 H 23.6715 1.02787 2.81203 0
M  V30 251 H 21.2175 0.495717 1.35199 0
M  V30 252 H 23.1705 -1.05302 4.08031 0
M  V30 253 H 21.8945 -1.47785 2.91251 0
M  V30 254 H 20.5535 0.531296 3.6273 0
M  V30 255 H 20.2015 -1.68011 4.74111 0
M  V30 256 H 19.9015 -0.332184 5.8666 0
M  V30 257 H 21.4255 -1.2583 5.97494 0
M  V30 258 H 22.8395 0.98934 5.64699 0
M  V30 259 H 21.2365 1.77593 5.7322 0
M  V30 260 H 22.3065 2.11978 4.36111 0
M  V30 261 N 23.6496 -1.47581 0.552962 0
M  V30 262 C 25.0606 -1.86324 0.118463 0
M  V30 263 C 25.4116 -1.46006 -1.3106 0
M  V30 264 O 24.5366 -0.861182 -1.98526 0
M  V30 265 C 25.1316 -3.3816 0.20821 0
M  V30 266 C 23.6906 -3.7601 -0.171226 0
M  V30 267 C 22.8376 -2.71634 0.557686 0
M  V30 268 H 25.7886 -1.39159 0.762928 0
M  V30 269 H 25.8096 -3.76141 -0.574278 0
M  V30 270 H 25.3216 -3.67473 1.24841 0
M  V30 271 H 23.4226 -3.52313 -1.21269 0
M  V30 272 H 23.5356 -4.78745 0.184379 0
M  V30 273 H 21.8996 -2.547 0.00125792 0
M  V30 274 H 22.6826 -3.0379 1.59896 0
M  V30 275 N 25.1277 -0.289203 -1.54924 0
M  V30 276 C 26.0907 0.579144 -2.21762 0
M  V30 277 C 27.0907 1.07047 -1.1999 0
M  V30 278 O 28.2807 0.968384 -1.44803 0
M  V30 279 C 25.4127 1.80055 -2.8947 0
M  V30 280 H 26.6057 -0.00464908 -2.999 0
M  V30 281 H 24.1587 -0.0399306 -1.56249 0
M  V30 282 H 24.8937 2.42449 -2.15381 0
M  V30 283 H 24.6787 1.45602 -3.64064 0
M  V30 284 H 26.1687 2.41773 -3.40493 0
M  V30 285 N 26.6058 1.57591 -0.0167156 0
M  V30 286 C 27.5358 2.12496 0.967858 0
M  V30 287 C 28.5168 1.03807 1.34752 0
M  V30 288 O 29.7018 1.31577 1.42833 0
M  V30 289 C 26.8318 2.64194 2.25431 0
M  V30 290 C 25.7858 3.77559 2.01576 0
M  V30 291 C 25.1118 4.15636 3.36379 0
M  V30 292 C 26.4118 5.04151 1.36489 0
M  V30 293 H 28.1058 2.95013 0.510643 0
M  V30 294 H 25.6518 1.41915 0.244181 0
M  V30 295 H 27.6048 3.01236 2.94678 0
M  V30 296 H 26.3288 1.78821 2.73296 0
M  V30 297 H 24.9878 3.40937 1.34751 0
M  V30 298 H 24.6358 3.27263 3.81979 0
M  V30 299 H 24.3358 4.92022 3.21229 0
M  V30 300 H 25.8598 4.5525 4.06915 0
M  V30 301 H 27.2738 5.38857 1.95718 0
M  V30 302 H 25.6708 5.85453 1.31776 0
M  V30 303 H 26.7408 4.83733 0.336219 0
M  V30 304 N 28.0839 -0.256276 1.55502 0
M  V30 305 C 29.0139 -1.32102 1.92539 0
M  V30 306 C 29.9949 -1.50684 0.789194 0
M  V30 307 O 31.1799 -1.63449 1.04872 0
M  V30 308 C 28.3099 -2.67752 2.21192 0
M  V30 309 C 27.2639 -2.63878 3.36975 0
M  V30 310 C 26.5899 -4.03236 3.51147 0
M  V30 311 C 27.8899 -2.21682 4.72921 0
M  V30 312 H 29.5839 -1.01351 2.81724 0
M  V30 313 H 27.1299 -0.486105 1.35547 0
M  V30 314 H 29.0829 -3.42365 2.45691 0
M  V30 315 H 27.8069 -3.0012 1.28824 0
M  V30 316 H 26.4659 -1.91722 3.12471 0
M  V30 317 H 26.1139 -4.32854 2.56216 0
M  V30 318 H 25.8139 -4.01535 4.29003 0
M  V30 319 H 27.3379 -4.79563 3.77957 0
M  V30 320 H 28.7519 -2.86023 4.96854 0
M  V30 321 H 27.1489 -2.3111 5.53812 0
M  V30 322 H 28.2189 -1.16833 4.70615 0
M  V30 323 N 29.562 -1.4872 -0.521534 0
M  V30 324 C 30.492 -1.66771 -1.63431 0
M  V30 325 C 31.473 -0.516499 -1.62069 0
M  V30 326 O 32.658 -0.750013 -1.79132 0
M  V30 327 C 29.788 -1.71515 -3.01993 0
M  V30 328 C 28.742 -2.86222 -3.18216 0
M  V30 329 C 28.068 -2.76061 -4.57924 0
M  V30 330 C 29.368 -4.27419 -3.00184 0
M  V30 331 H 31.062 -2.59932 -1.48579 0
M  V30 332 H 28.608 -1.25089 -0.713358 0
M  V30 333 H 30.561 -1.82731 -3.7972 0
M  V30 334 H 29.285 -0.749393 -3.17886 0
M  V30 335 H 27.944 -2.74575 -2.42908 0
M  V30 336 H 27.592 -1.77437 -4.70665 0
M  V30 337 H 27.292 -3.53037 -4.69722 0
M  V30 338 H 28.816 -2.89256 -5.37739 0
M  V30 339 H 30.23 -4.39855 -3.67697 0
M  V30 340 H 28.627 -5.05458 -3.2347 0
M  V30 341 H 29.697 -4.43293 -1.96518 0
M  V30 342 N 31.0401 0.771051 -1.3745 0
M  V30 343 C 32.2881 1.52661 -1.32435 0
M  V30 344 C 32.6091 1.9479 0.0905024 0
M  V30 345 O 31.8791 1.66348 1.03466 0
M  V30 346 H 30.4591 0.566218 -0.487244 0
M  V30 347 H 33.1211 0.917636 -1.71946 0
M  V30 348 H 32.2171 2.42568 -1.96385 0
M  V30 349 N 32.5182 1.22032 0.997298 0
M  V30 350 C 33.7662 1.04016 1.73278 0
M  V30 351 C 34.0872 -0.426255 1.90284 0
M  V30 352 O 33.3572 -1.30694 1.45931 0
M  V30 353 H 31.9372 0.381897 0.642 0
M  V30 354 H 34.5992 1.5347 1.20137 0
M  V30 355 H 33.6952 1.51441 2.72896 0
M  V30 356 N 33.9963 -1.19345 1.0293 0
M  V30 357 C 35.2243 -1.92997 0.745644 0
M  V30 358 C 35.6393 -1.75519 -0.695589 0
M  V30 359 O 34.9963 -1.07737 -1.47306 0
M  V30 360 C 35.0473 -3.44741 1.08792 0
M  V30 361 O 34.7683 -3.61658 2.47256 0
M  V30 362 C 36.2693 -4.35515 0.827129 0
M  V30 363 H 33.4893 -0.613042 0.272801 0
M  V30 364 H 36.0333 -1.51473 1.3739 0
M  V30 365 H 34.1883 -3.84097 0.504832 0
M  V30 366 H 34.6023 -4.55514 2.60015 0
M  V30 367 H 36.0763 -5.40589 1.11658 0
M  V30 368 H 36.5533 -4.38552 -0.238436 0
M  V30 369 H 37.1593 -4.01841 1.39297 0
M  V30 370 N 35.4744 -0.807222 -1.35358 0
M  V30 371 C 36.4374 -0.223665 -2.28106 0
M  V30 372 C 37.4374 0.589354 -1.4961 0
M  V30 373 O 38.6274 0.407745 -1.69361 0
M  V30 374 C 35.7594 0.688149 -3.33882 0
M  V30 375 H 36.9524 -1.04169 -2.81227 0
M  V30 376 H 34.5054 -0.577921 -1.45223 0
M  V30 377 H 35.2404 1.52984 -2.85948 0
M  V30 378 H 35.0254 0.10687 -3.91954 0
M  V30 379 H 36.5154 1.09075 -4.03104 0
M  V30 380 N 36.9525 1.47285 -0.560781 0
M  V30 381 C 37.8825 2.32857 0.173105 0
M  V30 382 C 38.8635 1.44009 0.905281 0
M  V30 383 O 40.0485 1.7286 0.885046 0
M  V30 384 C 37.1785 3.25861 1.20133 0
M  V30 385 C 36.1325 4.23978 0.585388 0
M  V30 386 C 35.4585 5.06332 1.7185 0
M  V30 387 C 36.7585 5.20242 -0.463178 0
M  V30 388 H 38.4525 2.94466 -0.541307 0
M  V30 389 H 35.9985 1.41601 -0.261764 0
M  V30 390 H 37.9515 3.84569 1.72293 0
M  V30 391 H 36.6755 2.62315 1.94573 0
M  V30 392 H 35.3345 3.66501 0.085054 0
M  V30 393 H 34.9825 4.39186 2.45203 0
M  V30 394 H 34.6825 5.72762 1.31213 0
M  V30 395 H 36.2065 5.67899 2.24329 0
M  V30 396 H 37.6205 5.73293 -0.027502 0
M  V30 397 H 36.0175 5.94896 -0.788627 0
M  V30 398 H 37.0875 4.65504 -1.35773 0
M  V30 399 N 38.4306 0.297415 1.54768 0
M  V30 400 C 39.3936 -0.567375 2.22066 0
M  V30 401 C 40.3936 -1.06409 1.20556 0
M  V30 402 O 41.5836 -0.960691 1.45315 0
M  V30 403 C 38.7156 -1.78517 2.90421 0
M  V30 404 H 39.9086 0.0205534 2.99893 0
M  V30 405 H 37.4616 0.0482163 1.56226 0
M  V30 406 H 38.1966 -2.41303 2.16664 0
M  V30 407 H 37.9816 -1.43669 3.64831 0
M  V30 408 H 39.4716 -2.39964 3.41771 0
M  V30 409 N 39.9087 -1.5758 0.0250728 0
M  V30 410 C 41.1337 -1.96337 -0.668317 0
M  V30 411 C 41.5587 -0.901314 -1.651 0
M  V30 412 O 40.9167 0.138187 -1.80773 0
M  V30 413 C 40.9647 -3.34191 -1.35457 0
M  V30 414 O 40.0687 -3.30269 -2.46974 0
M  V30 415 H 39.4097 -0.640281 -0.175887 0
M  V30 416 H 41.9397 -2.0442 0.0857224 0
M  V30 417 H 41.9497 -3.70331 -1.71228 0
M  V30 418 H 40.6247 -4.11036 -0.634218 0
M  V30 419 H 39.2017 -3.05841 -2.13344 0
M  V30 420 N 41.3868 0.248026 -1.55636 0
M  V30 421 C 42.2968 1.32859 -1.93354 0
M  V30 422 C 43.3128 1.52719 -0.833838 0
M  V30 423 O 44.4888 1.66363 -1.13513 0
M  V30 424 C 41.5538 2.66337 -2.21958 0
M  V30 425 C 40.6148 2.55008 -3.45354 0
M  V30 426 C 39.8478 3.82121 -3.72584 0
M  V30 427 O 40.0708 4.83951 -3.01907 0
M  V30 428 O 39.0048 3.80822 -4.6611 0
M  V30 429 H 42.8308 1.03862 -2.85388 0
M  V30 430 H 40.4158 0.448686 -1.42503 0
M  V30 431 H 42.2978 3.45216 -2.4167 0
M  V30 432 H 40.9728 2.95068 -1.33103 0
M  V30 433 H 39.8798 1.7442 -3.30951 0
M  V30 434 H 41.2128 2.31222 -4.34508 0
M  V30 435 N 42.8649 1.48995 0.513639 0
M  V30 436 C 44.1139 1.57093 1.2651 0
M  V30 437 C 44.4269 0.257091 1.93903 0
M  V30 438 O 45.6329 0.216478 2.70636 0
M  V30 439 C 44.0889 2.77118 2.29638 0
M  V30 440 C 43.6969 4.15209 1.68241 0
M  V30 441 C 45.4409 2.94538 3.05692 0
M  V30 442 C 43.3479 5.26474 2.69406 0
M  V30 443 H 42.2779 0.584876 0.475854 0
M  V30 444 H 44.9289 1.7536 0.540487 0
M  V30 445 H 43.3109 2.52319 3.05207 0
M  V30 446 H 44.4849 4.50094 0.987505 0
M  V30 447 H 42.7999 4.03042 1.04623 0
M  V30 448 H 45.3969 3.74832 3.8132 0
M  V30 449 H 45.7399 2.04614 3.62545 0
M  V30 450 H 46.2729 3.19316 2.37238 0
M  V30 451 H 43.0119 6.18417 2.17351 0
M  V30 452 H 42.5319 4.96058 3.37175 0
M  V30 453 H 44.2109 5.55277 3.32078 0
M  V30 454 N 44.343 -0.763751 1.37857 0
M  V30 455 C 45.589 -1.52483 1.33704 0
M  V30 456 C 45.922 -1.94051 -0.0759612 0
M  V30 457 O 45.197 -1.64675 -1.03501 0
M  V30 458 C 45.48 -2.78441 2.28348 0
M  V30 459 C 45.333 -2.43075 3.78463 0
M  V30 460 C 46.652 -3.80415 2.21298 0
M  V30 461 H 43.771 -0.553169 0.487005 0
M  V30 462 H 46.413 -0.875562 1.68624 0
M  V30 463 H 44.563 -3.33842 1.987 0
M  V30 464 H 46.235 -1.93527 4.18742 0
M  V30 465 H 44.478 -1.75666 3.96641 0
M  V30 466 H 45.149 -3.33149 4.40132 0
M  V30 467 H 47.625 -3.34527 2.47449 0
M  V30 468 H 46.501 -4.66257 2.89647 0
M  V30 469 H 46.762 -4.25262 1.20849 0
M  V30 470 N 45.8211 -1.22559 -0.990812 0
M  V30 471 C 47.0691 -1.04933 -1.72724 0
M  V30 472 C 47.3901 0.416158 -1.90508 0
M  V30 473 O 46.6601 1.29918 -1.46622 0
M  V30 474 H 45.2401 -0.385296 -0.639965 0
M  V30 475 H 47.9021 -1.54105 -1.19322 0
M  V30 476 H 46.9981 -1.52886 -2.72089 0
M  V30 477 N 47.2992 1.18797 -1.03562 0
M  V30 478 C 48.5472 1.88278 -0.734569 0
M  V30 479 C 48.8682 1.8043 0.739586 0
M  V30 480 O 48.1382 1.21925 1.53333 0
M  V30 481 H 46.7182 0.696991 -0.268725 0
M  V30 482 H 49.3802 1.44192 -1.31129 0
M  V30 483 H 48.4762 2.94443 -1.03489 0
M  V30 484 N 48.7773 0.814389 1.34928 0
M  V30 485 C 50.1933 0.499084 1.51596 0
M  V30 486 C 50.3933 -0.978319 1.76157 0
M  V30 487 O 49.4493 -1.76309 1.80752 0
M  V30 488 C 50.7623 1.35121 2.68631 0
M  V30 489 C 52.3103 1.34746 2.82511 0
M  V30 490 C 52.7853 2.18388 4.0258 0
M  V30 491 N 54.2763 2.15966 4.09772 0
M  V30 492 C 55.0113 2.77437 5.01813 0
M  V30 493 N 54.5073 3.47866 5.99134 0
M  V30 494 N 56.3003 2.67037 4.94619 0
M  V30 495 H 48.4513 1.7711 1.17243 0
M  V30 496 H 50.7143 0.754256 0.574284 0
M  V30 497 H 50.4203 2.40001 2.57085 0
M  V30 498 H 50.2943 1.00991 3.63429 0
M  V30 499 H 52.6813 0.30648 2.93504 0
M  V30 500 H 52.7623 1.72869 1.88547 0
M  V30 501 H 52.4063 3.2253 3.92347 0
M  V30 502 H 52.3363 1.77621 4.9574 0
M  V30 503 H 54.8273 1.64729 3.40107 0
M  V30 504 H 55.1403 3.92038 6.65977 0
M  V30 505 H 53.4853 3.51972 5.99284 0
M  V30 506 H 56.6763 2.11597 4.17546 0
M  V30 507 H 56.8493 3.15232 5.66156 0
M  V30 508 N 50.2554 -1.46986 0.568584 0
M  V30 509 C 51.6714 -1.57946 0.229189 0
M  V30 510 C 51.8714 -1.56567 -1.26843 0
M  V30 511 O 50.9274 -1.47511 -2.04931 0
M  V30 512 C 52.2404 -2.87963 0.865909 0
M  V30 513 C 53.7884 -3.01568 0.838188 0
M  V30 514 C 54.2634 -4.34301 1.45419 0
M  V30 515 N 55.7544 -4.40965 1.41788 0
M  V30 516 C 56.4894 -5.42256 1.86403 0
M  V30 517 N 55.9854 -6.50297 2.38926 0
M  V30 518 N 57.7784 -5.3337 1.77405 0
M  V30 519 H 49.9294 -1.46126 1.54146 0
M  V30 520 H 52.1924 -0.696156 0.643484 0
M  V30 521 H 51.8984 -2.94742 1.91886 0
M  V30 522 H 51.7724 -3.75423 0.365687 0
M  V30 523 H 54.1594 -2.94379 -0.206106 0
M  V30 524 H 54.2404 -2.1562 1.37629 0
M  V30 525 H 53.8844 -4.42247 2.49761 0
M  V30 526 H 53.8144 -5.19 0.891435 0
M  V30 527 H 56.3054 -3.63484 1.03381 0
M  V30 528 H 56.6184 -7.23777 2.70863 0
M  V30 529 H 54.9634 -6.51155 2.42944 0
M  V30 530 H 58.1544 -4.47865 1.3614 0
M  V30 531 H 58.3274 -6.12169 2.12492 0
M  V30 532 N 51.7335 -0.305618 -1.54608 0
M  V30 533 C 52.6965 0.555591 -2.22364 0
M  V30 534 C 53.6965 1.05768 -1.21119 0
M  V30 535 O 54.8865 0.952972 -1.45822 0
M  V30 536 C 52.0185 1.76974 -2.91364 0
M  V30 537 H 53.2115 -0.0364572 -2.99878 0
M  V30 538 H 50.7645 -0.0565007 -1.56198 0
M  V30 539 H 51.4995 2.40151 -2.17941 0
M  V30 540 H 51.2845 1.41732 -3.65588 0
M  V30 541 H 52.7745 2.38148 -3.43038 0
M  V30 542 N 53.2116 1.57565 -0.0334293 0
M  V30 543 C 54.6276 1.56297 0.322997 0
M  V30 544 C 54.8276 1.03945 1.7262 0
M  V30 545 O 53.8836 0.688109 2.42943 0
M  V30 546 C 55.1966 3.00232 0.167664 0
M  V30 547 C 56.7446 3.12078 0.240107 0
M  V30 548 C 57.2196 4.57859 0.113513 0
M  V30 549 N 58.7106 4.62887 0.170359 0
M  V30 550 C 59.4456 5.73319 0.0962517 0
M  V30 551 N 58.9416 6.92794 -0.0291881 0
M  V30 552 N 60.7346 5.61898 0.150551 0
M  V30 553 H 52.8856 1.89923 -0.950956 0
M  V30 554 H 55.1486 0.873824 -0.367608 0
M  V30 555 H 54.8546 3.42501 -0.799102 0
M  V30 556 H 54.7286 3.654 0.936083 0
M  V30 557 H 57.1156 2.69718 1.19733 0
M  V30 558 H 57.1966 2.49623 -0.558763 0
M  V30 559 H 56.8406 5.009 -0.840314 0
M  V30 560 H 56.7706 5.18299 0.931302 0
M  V30 561 H 59.2616 3.76954 0.26728 0
M  V30 562 H 59.5746 7.7276 -0.0789252 0
M  V30 563 H 57.9196 6.94971 -0.0640299 0
M  V30 564 H 61.1106 4.67448 0.246981 0
M  V30 565 H 61.2836 6.47938 0.0893365 0
M  V30 566 N 54.6897 -0.239769 1.55765 0
M  V30 567 C 56.1007 -0.808263 1.68297 0
M  V30 568 C 56.4517 -1.85736 0.632181 0
M  V30 569 O 55.5767 -2.15277 -0.220204 0
M  V30 570 C 56.1717 -1.47284 3.05111 0
M  V30 571 C 54.7307 -1.98895 3.19559 0
M  V30 572 C 53.8777 -0.842575 2.64189 0
M  V30 573 H 56.8287 -0.0154422 1.58692 0
M  V30 574 H 56.8497 -2.34111 2.99954 0
M  V30 575 H 56.3617 -0.709053 3.81568 0
M  V30 576 H 54.4627 -2.78132 2.47938 0
M  V30 577 H 54.5757 -2.18143 4.26556 0
M  V30 578 H 52.9397 -1.24501 2.22197 0
M  V30 579 H 53.7227 -0.0917552 3.43177 0
M  V30 580 N 56.1678 -1.49265 -0.50573 0
M  V30 581 C 57.1178 -1.6198 -1.60457 0
M  V30 582 C 58.1018 -0.47568 -1.53708 0
M  V30 583 O 59.2938 -0.728392 -1.61318 0
M  V30 584 C 56.4228 -1.68526 -2.99089 0
M  V30 585 C 55.5088 -2.885 -3.10852 0
M  V30 586 N 55.8998 -4.12635 -2.92517 0
M  V30 587 C 54.1978 -2.86338 -3.41945 0
M  V30 588 C 54.8988 -4.93258 -3.08337 0
M  V30 589 N 53.8748 -4.26533 -3.37003 0
M  V30 590 H 57.6768 -2.55681 -1.44928 0
M  V30 591 H 55.1908 -1.45972 -0.711752 0
M  V30 592 H 57.1878 -1.75732 -3.78053 0
M  V30 593 H 55.8478 -0.759584 -3.1569 0
M  V30 594 H 56.8588 -4.42689 -2.68787 0
M  V30 595 H 53.5358 -2.03129 -3.64753 0
M  V30 596 H 54.9258 -6.01856 -2.98695 0
M  V30 597 N 57.6459 0.756429 -1.3826 0
M  V30 598 C 58.6089 1.85176 -1.35065 0
M  V30 599 C 59.6089 1.58818 -0.251703 0
M  V30 600 O 60.7989 1.66615 -0.508433 0
M  V30 601 C 57.9309 3.22596 -1.10201 0
M  V30 602 H 59.1239 1.89417 -2.3251 0
M  V30 603 H 56.6769 0.95783 -1.23512 0
M  V30 604 H 57.4119 3.24025 -0.133504 0
M  V30 605 H 57.1969 3.43122 -1.89762 0
M  V30 606 H 58.6869 4.02673 -1.10654 0
M  V30 607 N 59.124 1.23083 0.984299 0
M  V30 608 C 60.37 1.07221 1.72845 0
M  V30 609 C 60.725 -0.387453 1.88458 0
M  V30 610 O 60.018 -1.28309 1.42293 0
M  V30 611 C 60.212 1.72673 3.1292 0
M  V30 612 C 60.041 3.24853 3.10967 0
M  V30 613 C 58.811 3.93998 3.16376 0
M  V30 614 C 61.009 4.21674 2.94441 0
M  V30 615 N 58.991 5.33192 3.04268 0
M  V30 616 C 60.362 5.47756 2.90453 0
M  V30 617 C 62.417 4.12457 2.78897 0
M  V30 618 C 61.12 6.6568 2.72512 0
M  V30 619 C 63.146 5.3004 2.62319 0
M  V30 620 C 62.508 6.55046 2.59026 0
M  V30 621 H 58.607 0.44685 0.641755 0
M  V30 622 H 61.191 1.55753 1.16829 0
M  V30 623 H 59.362 1.26679 3.67161 0
M  V30 624 H 61.094 1.49824 3.75945 0
M  V30 625 H 57.849 3.45052 3.24401 0
M  V30 626 H 58.273 6.06157 3.015 0
M  V30 627 H 62.915 3.16588 2.80235 0
M  V30 628 H 60.633 7.61689 2.69919 0
M  V30 629 H 64.219 5.24747 2.5126 0
M  V30 630 H 63.099 7.44498 2.46357 0
M  V30 631 N 60.6021 -1.18246 1.0419 0
M  V30 632 C 62.0131 -1.69914 0.773698 0
M  V30 633 C 62.3641 -1.83085 -0.705297 0
M  V30 634 O 61.4891 -1.51123 -1.5489 0
M  V30 635 C 62.0841 -3.08619 1.39784 0
M  V30 636 C 60.6431 -3.57494 1.17792 0
M  V30 637 C 59.7901 -2.34013 1.48773 0
M  V30 638 H 62.7411 -1.02904 1.20816 0
M  V30 639 H 62.7621 -3.71958 0.801714 0
M  V30 640 H 62.2741 -2.99001 2.47426 0
M  V30 641 H 60.3751 -3.72406 0.120295 0
M  V30 642 H 60.4881 -4.40852 1.87581 0
M  V30 643 H 58.8521 -2.37986 0.907463 0
M  V30 644 H 59.6351 -2.27013 2.57527 0
M  V30 645 N 62.0802 -0.821533 -1.34494 0
M  V30 646 C 63.3272 -0.408946 -1.98328 0
M  V30 647 C 63.6552 1.02764 -1.65136 0
M  V30 648 O 62.9102 1.73026 -0.914349 0
M  V30 649 C 63.2092 -0.556512 -3.53041 0
M  V30 650 C 62.8752 -1.95861 -4.0614 0
M  V30 651 C 61.5372 -2.34217 -4.20352 0
M  V30 652 C 63.8892 -2.87523 -4.34718 0
M  V30 653 C 61.2172 -3.63572 -4.6047 0
M  V30 654 C 63.5692 -4.1634 -4.76281 0
M  V30 655 C 62.2332 -4.54675 -4.88699 0
M  V30 656 H 61.5032 -0.149644 -0.725732 0
M  V30 657 H 64.1502 -1.04521 -1.6046 0
M  V30 658 H 62.4552 0.163148 -3.9146 0
M  V30 659 H 64.1522 -0.217826 -4.00408 0
M  V30 660 H 60.7422 -1.65066 -3.95539 0
M  V30 661 H 64.9262 -2.59133 -4.23277 0
M  V30 662 H 60.1822 -3.93101 -4.68275 0
M  V30 663 H 64.3562 -4.87455 -4.97354 0
M  V30 664 H 61.9832 -5.54959 -5.19542 0
M  V30 665 N 63.5583 1.46682 -0.576371 0
M  V30 666 C 64.4913 2.27243 0.208731 0
M  V30 667 C 65.4693 1.35238 0.902746 0
M  V30 668 O 66.6533 1.64641 0.917904 0
M  V30 669 C 63.7803 3.12802 1.29896 0
M  V30 670 C 62.8263 4.20524 0.711457 0
M  V30 671 S 63.6593 5.33548 -0.456781 0
M  V30 672 C 64.8153 6.22673 0.634798 0
M  V30 673 H 65.0483 2.93484 -0.474838 0
M  V30 674 H 62.5813 1.50069 -0.363118 0
M  V30 675 H 64.5393 3.62661 1.92321 0
M  V30 676 H 63.2003 2.45887 1.95444 0
M  V30 677 H 62.3933 4.80191 1.53076 0
M  V30 678 H 61.9953 3.73645 0.162999 0
M  V30 679 H 64.2873 6.60181 1.52209 0
M  V30 680 H 65.2303 7.0806 0.0750311 0
M  V30 681 H 65.6383 5.56684 0.936092 0
M  V30 682 N 65.0364 0.313813 1.54444 0
M  V30 683 C 66.2824 -0.292108 2.00685 0
M  V30 684 C 66.6154 -1.52548 1.20177 0
M  V30 685 O 65.8904 -1.92452 0.281531 0
M  V30 686 C 66.1734 -0.635968 3.5444 0
M  V30 687 C 66.0264 0.607437 4.4568 0
M  V30 688 C 67.3454 -1.45747 4.15266 0
M  V30 689 H 64.4644 -0.104697 0.729526 0
M  V30 690 H 67.1064 0.428457 1.85106 0
M  V30 691 H 65.2564 -1.24986 3.67846 0
M  V30 692 H 66.9284 1.24581 4.44159 0
M  V30 693 H 65.1714 1.23822 4.15753 0
M  V30 694 H 65.8424 0.322515 5.51057 0
M  V30 695 H 68.3184 -0.938645 4.05375 0
M  V30 696 H 67.1944 -1.66683 5.2298 0
M  V30 697 H 67.4554 -2.45063 3.67963 0
M  V30 698 N 66.5145 -1.57545 0.0417849 0
M  V30 699 C 67.7395 -1.97035 -0.647455 0
M  V30 700 C 68.1645 -0.918775 -1.64135 0
M  V30 701 O 67.5225 0.119006 -1.80909 0
M  V30 702 C 67.5705 -3.35609 -1.31905 0
M  V30 703 O 66.6745 -3.3287 -2.43457 0
M  V30 704 H 66.0155 -0.64211 -0.169086 0
M  V30 705 H 68.5455 -2.04318 0.107399 0
M  V30 706 H 68.5555 -3.72126 -1.67291 0
M  V30 707 H 67.2305 -4.11685 -0.590586 0
M  V30 708 H 65.8075 -3.08087 -2.10088 0
M  V30 709 N 67.9926 0.231505 -1.5589 0
M  V30 710 C 68.9226 1.29022 -1.94617 0
M  V30 711 C 69.9036 1.4941 -0.813067 0
M  V30 712 O 71.0886 1.6176 -1.07459 0
M  V30 713 C 68.2186 2.64199 -2.25424 0
M  V30 714 C 67.1726 2.58484 -3.41131 0
M  V30 715 C 66.4986 3.97599 -3.57518 0
M  V30 716 C 67.7986 2.1413 -4.76388 0
M  V30 717 H 69.4926 0.968563 -2.83301 0
M  V30 718 H 67.0386 0.464479 -1.36303 0
M  V30 719 H 68.9916 3.38413 -2.51107 0
M  V30 720 H 67.7156 2.98032 -1.33583 0
M  V30 721 H 66.3746 1.86727 -3.15481 0
M  V30 722 H 66.0226 4.28723 -2.6307 0
M  V30 723 H 65.7226 3.94659 -4.35337 0
M  V30 724 H 67.2466 4.7349 -3.85538 0
M  V30 725 H 68.6606 2.78083 -5.01341 0
M  V30 726 H 67.0576 2.2227 -5.57419 0
M  V30 727 H 68.1276 1.09331 -4.72414 0
M  V30 728 N 69.4707 1.49531 0.497807 0
M  V30 729 C 70.4027 1.62559 1.61578 0
M  V30 730 C 71.4157 0.508134 1.54667 0
M  V30 731 O 72.6047 0.780309 1.60541 0
M  V30 732 C 69.7047 1.56925 3.00379 0
M  V30 733 C 68.8777 2.84257 3.3244 0
M  V30 734 C 67.9367 2.71632 4.50669 0
M  V30 735 O 66.9627 3.4557 4.52294 0
M  V30 736 N 68.1647 1.83391 5.5077 0
M  V30 737 H 70.9297 2.58981 1.50828 0
M  V30 738 H 68.4907 1.4666 0.685743 0
M  V30 739 H 70.4827 1.46129 3.77397 0
M  V30 740 H 69.0527 0.683483 3.05037 0
M  V30 741 H 68.2727 3.09381 2.44289 0
M  V30 742 H 69.5607 3.68666 3.5066 0
M  V30 743 H 68.9587 1.22583 5.52259 0
M  V30 744 H 67.5157 1.78515 6.26878 0
M  V30 745 N 70.9488 -0.749086 1.3866 0
M  V30 746 C 71.8788 -1.8764 1.38973 0
M  V30 747 C 72.8598 -1.68178 0.255004 0
M  V30 748 O 74.0448 -1.88704 0.458754 0
M  V30 749 C 71.1748 -3.25222 1.21851 0
M  V30 750 C 70.1288 -3.59295 2.32575 0
M  V30 751 C 69.4548 -4.95663 2.00555 0
M  V30 752 C 70.7548 -3.63709 3.7485 0
M  V30 753 H 72.4488 -1.87635 2.3331 0
M  V30 754 H 69.9948 -0.901329 1.12303 0
M  V30 755 H 71.9478 -4.03746 1.20695 0
M  V30 756 H 70.6718 -3.25719 0.239775 0
M  V30 757 H 69.3308 -2.83093 2.32925 0
M  V30 758 H 68.9788 -4.92724 1.01154 0
M  V30 759 H 68.6788 -5.19429 2.74714 0
M  V30 760 H 70.2028 -5.7656 2.01024 0
M  V30 761 H 71.6168 -4.32338 3.76506 0
M  V30 762 H 70.0138 -3.98986 4.48252 0
M  V30 763 H 71.0838 -2.63834 4.06841 0
M  V30 764 N 72.4269 -1.23603 -0.977757 0
M  V30 765 C 73.8429 -0.999251 -1.24447 0
M  V30 766 C 74.0429 0.298053 -1.99283 0
M  V30 767 O 73.0989 1.01681 -2.31122 0
M  V30 768 C 74.4119 -2.20784 -2.04144 0
M  V30 769 C 75.9599 -2.25303 -2.17273 0
M  V30 770 C 76.4349 -3.45755 -3.00362 0
M  V30 771 N 77.9259 -3.4601 -3.07947 0
M  V30 772 C 78.6609 -4.35868 -3.72568 0
M  V30 773 N 78.1569 -5.35966 -4.38991 0
M  V30 774 N 79.9499 -4.23605 -3.6948 0
M  V30 775 H 72.1009 -2.06986 -0.476483 0
M  V30 776 H 74.3639 -0.907801 -0.273134 0
M  V30 777 H 74.0699 -3.14945 -1.56533 0
M  V30 778 H 73.9439 -2.22085 -3.04891 0
M  V30 779 H 76.3309 -1.3168 -2.64092 0
M  V30 780 H 76.4119 -2.28033 -1.15907 0
M  V30 781 H 76.0559 -4.39687 -2.5424 0
M  V30 782 H 75.9859 -3.40266 -4.01904 0
M  V30 783 H 78.4769 -2.73588 -2.60688 0
M  V30 784 H 78.7899 -6.00783 -4.86086 0
M  V30 785 H 77.1349 -5.39863 -4.37691 0
M  V30 786 H 80.3259 -3.44647 -3.16759 0
M  V30 787 H 80.4989 -4.93836 -4.1956 0
M  V30 788 N 73.905 1.17692 -1.04816 0
M  V30 789 C 75.153 1.87488 -0.754497 0
M  V30 790 C 75.474 1.81205 0.720407 0
M  V30 791 O 74.744 1.23544 1.52032 0
M  V30 792 H 73.324 0.694101 -0.276102 0
M  V30 793 H 75.986 1.42793 -1.32651 0
M  V30 794 H 75.082 2.93328 -1.06606 0
M  V30 795 N 75.3831 0.828654 1.34056 0
M  V30 796 C 76.6311 0.41863 1.97717 0
M  V30 797 C 76.9521 -1.02314 1.66002 0
M  V30 798 O 76.2221 -1.71119 0.953683 0
M  V30 799 H 74.8021 0.151809 0.731412 0
M  V30 800 H 77.4641 1.05936 1.63596 0
M  V30 801 H 76.5601 0.542318 3.07352 0
M  V30 802 N 76.8612 -1.46375 0.584142 0
M  V30 803 C 77.8112 -2.27371 -0.169232 0
M  V30 804 C 78.7952 -1.35955 -0.860523 0
M  V30 805 O 79.9872 -1.60119 -0.754382 0
M  V30 806 C 77.1162 -3.22334 -1.18134 0
M  V30 807 C 76.2022 -4.21235 -0.492088 0
M  V30 808 N 76.5932 -5.03766 0.453129 0
M  V30 809 C 74.8912 -4.39773 -0.742652 0
M  V30 810 C 75.5922 -5.75366 0.85609 0
M  V30 811 N 74.5682 -5.43214 0.204926 0
M  V30 812 H 78.3702 -2.88572 0.557097 0
M  V30 813 H 75.8842 -1.57242 0.406042 0
M  V30 814 H 77.8812 -3.79071 -1.73525 0
M  V30 815 H 76.5412 -2.62693 -1.90847 0
M  V30 816 H 77.5522 -5.11227 0.828723 0
M  V30 817 H 74.2292 -3.91279 -1.45625 0
M  V30 818 H 75.6192 -6.5172 1.63434 0
M  V30 819 N 78.3393 -0.321999 -1.54275 0
M  V30 820 C 79.5863 0.281044 -2.0054 0
M  V30 821 C 79.9143 1.52265 -1.21019 0
M  V30 822 O 79.1693 1.93687 -0.279982 0
M  V30 823 C 79.4683 0.661769 -3.5122 0
M  V30 824 C 79.1343 -0.480482 -4.48333 0
M  V30 825 C 77.7963 -0.794005 -4.74604 0
M  V30 826 C 80.1483 -1.24783 -5.06042 0
M  V30 827 C 77.4763 -1.87763 -5.55844 0
M  V30 828 C 79.8283 -2.32153 -5.88462 0
M  V30 829 C 78.4923 -2.64089 -6.13036 0
M  V30 830 H 77.7623 0.102841 -0.733829 0
M  V30 831 H 80.4093 -0.445453 -1.86247 0
M  V30 832 H 78.7143 1.46867 -3.63232 0
M  V30 833 H 80.4113 1.13989 -3.84457 0
M  V30 834 H 77.0013 -0.226039 -4.28004 0
M  V30 835 H 81.1853 -1.01887 -4.85729 0
M  V30 836 H 76.4413 -2.12954 -5.73115 0
M  V30 837 H 80.6153 -2.92057 -6.32199 0
M  V30 838 H 78.2423 -3.48185 -6.75775 0
M  V30 839 N 79.8174 1.5752 -0.0501392 0
M  V30 840 C 81.0574 1.94521 0.627783 0
M  V30 841 C 81.4214 0.928265 1.68069 0
M  V30 842 O 82.6224 1.18517 2.41261 0
M  V30 843 C 80.8934 3.36319 1.20932 0
M  V30 844 S 82.4524 3.95272 1.90539 0
M  V30 845 H 79.2704 0.680456 0.206158 0
M  V30 846 H 81.8724 1.95139 -0.118829 0
M  V30 847 H 80.5764 4.08132 0.430865 0
M  V30 848 H 80.1074 3.39193 1.99277 0
M  V30 849 H 82.1224 3.80415 3.18589 0
M  V30 850 N 81.2955 -0.223234 1.56011 0
M  V30 851 C 82.5435 -0.946003 1.78592 0
M  V30 852 C 82.8645 -1.84936 0.618349 0
M  V30 853 O 82.1345 -1.92473 -0.364833 0
M  V30 854 H 80.7145 -0.352298 0.658707 0
M  V30 855 H 83.3765 -0.235494 1.93472 0
M  V30 856 H 82.4725 -1.55381 2.70672 0
M  V30 857 N 82.7736 -1.49793 -0.48987 0
M  V30 858 C 83.7366 -1.66752 -1.57246 0
M  V30 859 C 84.7366 -0.538867 -1.51502 0
M  V30 860 O 85.9266 -0.805545 -1.54456 0
M  V30 861 C 83.0586 -1.67528 -2.96896 0
M  V30 862 H 84.2516 -2.63321 -1.43534 0
M  V30 863 H 81.8046 -1.38992 -0.714914 0
M  V30 864 H 82.5396 -0.725837 -3.16073 0
M  V30 865 H 82.3246 -2.49504 -3.02473 0
M  V30 866 H 83.8146 -1.82667 -3.7553 0
M  V30 867 N 84.2517 0.741722 -1.39055 0
M  V30 868 C 85.4797 1.53098 -1.39171 0
M  V30 869 C 85.8947 1.88794 0.0155099 0
M  V30 870 O 85.2517 1.53626 0.985159 0
M  V30 871 C 85.3027 2.82274 -2.2584 0
M  V30 872 O 85.0237 2.48097 -3.61081 0
M  V30 873 C 86.5247 3.76343 -2.34266 0
M  V30 874 H 83.7447 0.473335 -0.4756 0
M  V30 875 H 86.2887 0.917045 -1.82785 0
M  V30 876 H 84.4437 3.40015 -1.85656 0
M  V30 877 H 84.8577 3.31029 -4.06842 0
M  V30 878 H 86.3317 4.63898 -2.9917 0
M  V30 879 H 86.8087 4.17619 -1.35982 0
M  V30 880 H 87.4147 3.24523 -2.74891 0
M  V30 881 N 85.7298 1.2412 0.971189 0
M  V30 882 C 86.6598 1.05508 2.08304 0
M  V30 883 C 87.6408 -0.0308864 1.70072 0
M  V30 884 O 88.8258 0.135521 1.93727 0
M  V30 885 C 85.9558 0.655365 3.4106 0
M  V30 886 C 84.9098 1.68971 3.93234 0
M  V30 887 C 84.2358 1.14516 5.22293 0
M  V30 888 C 85.5358 3.08487 4.21465 0
M  V30 889 H 87.2298 1.98507 2.24132 0
M  V30 890 H 84.7758 0.955821 1.07704 0
M  V30 891 H 86.7288 0.51217 4.18276 0
M  V30 892 H 85.4528 -0.31032 3.25122 0
M  V30 893 H 84.1118 1.82106 3.18171 0
M  V30 894 H 83.7598 0.170189 5.02712 0
M  V30 895 H 83.4598 1.83635 5.58168 0
M  V30 896 H 84.9838 1.01401 6.02121 0
M  V30 897 H 86.3978 2.98601 4.89398 0
M  V30 898 H 84.7948 3.74926 4.68562 0
M  V30 899 H 85.8648 3.56787 3.28376 0
M  V30 900 N 87.2079 -1.17134 1.05439 0
M  V30 901 C 88.4569 -1.86791 0.761049 0
M  V30 902 C 88.7699 -1.82072 -0.714795 0
M  V30 903 O 89.9759 -2.47223 -1.12218 0
M  V30 904 C 88.4319 -3.35166 1.31117 0
M  V30 905 C 88.0399 -3.48381 2.81664 0
M  V30 906 C 89.7839 -4.10134 1.09499 0
M  V30 907 C 87.6909 -4.90793 3.29964 0
M  V30 908 H 86.6209 -0.699681 0.281002 0
M  V30 909 H 89.2719 -1.3226 1.27199 0
M  V30 910 H 87.6539 -3.8925 0.72803 0
M  V30 911 H 88.8279 -3.04502 3.45855 0
M  V30 912 H 87.1429 -2.86836 3.01851 0
M  V30 913 H 89.7399 -5.152 1.43084 0
M  V30 914 H 90.0829 -4.16287 0.0328772 0
M  V30 915 H 90.6159 -3.62264 1.64346 0
M  V30 916 H 87.3549 -4.89816 4.35616 0
M  V30 917 H 86.8749 -5.35333 2.70516 0
M  V30 918 H 88.5539 -5.59573 3.24787 0
M  V30 919 N 88.686 -0.835752 -1.33615 0
M  V30 920 C 89.649 -0.272 -2.2758 0
M  V30 921 C 90.649 0.557487 -1.50827 0
M  V30 922 O 91.839 0.37173 -1.70188 0
M  V30 923 C 88.971 0.617173 -3.35267 0
M  V30 924 H 90.164 -1.10111 -2.78954 0
M  V30 925 H 87.717 -0.608594 -1.43965 0
M  V30 926 H 88.452 1.46884 -2.89129 0
M  V30 927 H 88.237 0.0237066 -3.92093 0
M  V30 928 H 89.727 1.005 -4.05326 0
M  V30 929 N 90.1641 1.46063 -0.591896 0
M  V30 930 C 91.5751 1.85944 -0.167822 0
M  V30 931 C 91.9261 1.49429 1.27143 0
M  V30 932 O 91.0511 0.913515 1.96173 0
M  V30 933 C 91.6461 3.37489 -0.297794 0
M  V30 934 C 90.2051 3.76332 0.0714732 0
M  V30 935 C 89.3521 2.7006 -0.629509 0
M  V30 936 H 92.3031 1.37087 -0.799555 0
M  V30 937 H 92.3241 3.77532 0.474349 0
M  V30 938 H 91.8361 3.64034 -1.3454 0
M  V30 939 H 89.9371 3.55405 1.11886 0
M  V30 940 H 90.0501 4.78088 -0.311245 0
M  V30 941 H 88.4141 2.54607 -0.0687867 0
M  V30 942 H 89.1971 2.99444 -1.67894 0
M  V30 943 N 91.6422 0.330177 1.54103 0
M  V30 944 C 92.5902 -0.548226 2.26047 0
M  V30 945 C 93.5842 -1.11309 1.27698 0
M  V30 946 O 94.7902 -1.06036 1.45452 0
M  V30 947 H 91.1652 -0.195456 0.726155 0
M  V30 948 H 93.1362 0.0807567 2.98291 0
M  V30 949 C 91.8852 -1.69415 3.03634 0
M  V30 950 H 91.2082 -1.26876 3.79134 0
M  V30 951 H 92.6482 -2.28423 3.5721 0
M  V30 952 C 91.1072 -2.61569 2.12328 0
M  V30 953 O 91.6372 -3.63462 1.7105 0
M  V30 954 N 89.8432 -2.29952 1.77681 0
M  V30 955 H 89.3902 -1.47134 2.11446 0
M  V30 956 H 89.3482 -2.91871 1.16869 0
M  V30 957 N 93.1203 -1.57491 0.0584922 0
M  V30 958 C 94.3673 -1.92978 -0.613648 0
M  V30 959 C 94.6953 -0.937461 -1.70417 0
M  V30 960 O 93.9503 0.049078 -1.95638 0
M  V30 961 C 94.2493 -3.3513 -1.24188 0
M  V30 962 C 93.9153 -4.50037 -0.278826 0
M  V30 963 C 92.5773 -4.81198 -0.0138447 0
M  V30 964 C 94.9293 -5.19807 0.380777 0
M  V30 965 C 92.2573 -5.79473 0.918052 0
M  V30 966 C 94.6093 -6.19079 1.30091 0
M  V30 967 C 93.2733 -6.48665 1.57449 0
M  V30 968 H 92.5433 -0.706157 -0.22455 0
M  V30 969 H 95.1903 -1.91082 0.126533 0
M  V30 970 H 93.4953 -3.33429 -2.05749 0
M  V30 971 H 95.1923 -3.59871 -1.769 0
M  V30 972 H 91.7823 -4.25726 -0.495539 0
M  V30 973 H 95.9663 -4.95939 0.189158 0
M  V30 974 H 91.2223 -6.00727 1.1374 0
M  V30 975 H 95.3963 -6.7225 1.81804 0
M  V30 976 H 93.0233 -7.24628 2.29822 0
M  V30 977 N 94.5984 0.214957 -1.56127 0
M  V30 978 C 95.8444 0.939762 -1.79712 0
M  V30 979 C 96.1774 1.83723 -0.629247 0
M  V30 980 O 95.4524 1.90925 0.371197 0
M  V30 981 C 95.7354 1.77306 -3.13424 0
M  V30 982 C 95.5884 0.90164 -4.40671 0
M  V30 983 C 96.9074 2.74956 -3.43638 0
M  V30 984 H 94.0264 0.340214 -0.653776 0
M  V30 985 H 96.6684 0.20824 -1.88855 0
M  V30 986 H 94.8184 2.39673 -3.0576 0
M  V30 987 H 96.4904 0.294206 -4.60361 0
M  V30 988 H 94.7334 0.207368 -4.33304 0
M  V30 989 H 95.4044 1.51923 -5.30682 0
M  V30 990 H 97.8804 2.22724 -3.51473 0
M  V30 991 H 96.7564 3.30358 -4.38355 0
M  V30 992 H 97.0174 3.53023 -2.66134 0
M  V30 993 N 96.0765 1.50051 0.48192 0
M  V30 994 C 97.0095 1.62749 1.59963 0
M  V30 995 C 97.9875 0.475903 1.5548 0
M  V30 996 O 99.1715 0.693986 1.7526 0
M  V30 997 C 96.2985 1.60008 2.98522 0
M  V30 998 C 95.3445 2.80596 3.21198 0
M  V30 999 S 96.1775 4.42038 3.02262 0
M  V30 1000 C 97.3335 4.41973 4.43182 0
M  V30 1001 H 97.5665 2.57296 1.4895 0
M  V30 1002 H 95.0995 1.39179 0.668477 0
M  V30 1003 H 97.0575 1.59112 3.78409 0
M  V30 1004 H 95.7185 0.667153 3.06933 0
M  V30 1005 H 94.9115 2.74952 4.22395 0
M  V30 1006 H 94.5135 2.79003 2.49065 0
M  V30 1007 H 96.8055 4.14868 5.35622 0
M  V30 1008 H 97.7485 5.43512 4.53873 0
M  V30 1009 H 98.1565 3.71812 4.24755 0
M  V30 1010 N 97.5546 -0.734337 1.39446 0
M  V30 1011 C 98.7796 -1.52866 1.40167 0
M  V30 1012 C 99.2046 -1.881 -0.00171513 0
M  V30 1013 O 98.5626 -1.51957 -0.988879 0
M  V30 1014 C 98.6106 -2.79235 2.28167 0
M  V30 1015 O 97.7146 -3.75185 1.71201 0
M  V30 1016 H 97.0556 -0.461618 0.477289 0
M  V30 1017 H 99.5856 -0.905949 1.8345 0
M  V30 1018 H 99.5956 -3.27963 2.42702 0
M  V30 1019 H 98.2706 -2.52923 3.30156 0
M  V30 1020 H 96.8476 -3.33958 1.65912 0
M  V30 1021 N 99.0327 -1.24633 -0.964593 0
M  V30 1022 C 99.9957 -1.0424 -2.04124 0
M  V30 1023 C 100.996 0.00137563 -1.608 0
M  V30 1024 O 102.186 -0.239883 -1.7254 0
M  V30 1025 C 99.3177 -0.580588 -3.3592 0
M  V30 1026 H 100.511 -1.99803 -2.23649 0
M  V30 1027 H 98.0637 -1.06899 -1.14027 0
M  V30 1028 H 98.7987 0.3781 -3.22088 0
M  V30 1029 H 98.5837 -1.33398 -3.6871 0
M  V30 1030 H 100.074 -0.459034 -4.15069 0
M  V30 1031 N 100.511 1.16574 -1.06058 0
M  V30 1032 C 101.474 2.19085 -0.673392 0
M  V30 1033 C 102.474 1.5835 0.279648 0
M  V30 1034 O 103.664 1.74088 0.0623488 0
M  V30 1035 C 100.796 3.40899 0.00954234 0
M  V30 1036 H 101.989 2.54853 -1.58081 0
M  V30 1037 H 99.5418 1.30808 -0.855516 0
M  V30 1038 H 100.277 3.10684 0.929826 0
M  V30 1039 H 100.062 3.86233 -0.67573 0
M  V30 1040 H 101.552 4.1675 0.266245 0
M  V30 1041 N 101.989 0.842826 1.3317 0
M  V30 1042 C 102.939 0.250877 2.26616 0
M  V30 1043 C 103.923 -0.596427 1.49437 0
M  V30 1044 O 105.115 -0.447747 1.71243 0
M  V30 1045 C 102.244 -0.569779 3.38539 0
M  V30 1046 C 101.33 0.289254 4.23112 0
M  V30 1047 N 101.721 1.36987 4.86897 0
M  V30 1048 C 100.019 0.0769631 4.45934 0
M  V30 1049 C 100.72 1.89737 5.49886 0
M  V30 1050 N 99.6959 1.19827 5.30229 0
M  V30 1051 H 103.498 1.07718 2.73448 0
M  V30 1052 H 101.012 0.687693 1.47121 0
M  V30 1053 H 103.009 -1.01018 4.04476 0
M  V30 1054 H 101.669 -1.39401 2.93253 0
M  V30 1055 H 102.68 1.75277 4.87338 0
M  V30 1056 H 99.3569 -0.713507 4.11358 0
M  V30 1057 H 100.747 2.80253 6.10662 0
M  V30 1058 N 103.467 -1.45747 0.599634 0
M  V30 1059 C 104.707 -2.04181 0.0946309 0
M  V30 1060 C 105.071 -1.45895 -1.24815 0
M  V30 1061 O 106.272 -1.95633 -1.8434 0
M  V30 1062 C 104.543 -3.57368 0.047581 0
M  V30 1063 S 106.102 -4.36997 -0.397387 0
M  V30 1064 H 102.92 -0.70953 0.0456954 0
M  V30 1065 H 105.522 -1.78564 0.795946 0
M  V30 1066 H 104.226 -3.97303 1.02852 0
M  V30 1067 H 103.757 -3.87549 -0.675977 0
M  V30 1068 H 105.772 -4.68012 -1.64862 0
M  V30 1069 N 104.945 -0.338344 -1.53925 0
M  V30 1070 C 106.191 0.260143 -2.01125 0
M  V30 1071 C 106.524 1.50617 -1.22589 0
M  V30 1072 O 105.799 1.91979 -0.312113 0
M  V30 1073 C 106.082 0.579499 -3.55407 0
M  V30 1074 C 105.935 -0.678264 -4.44657 0
M  V30 1075 C 107.254 1.39122 -4.17532 0
M  V30 1076 H 104.373 0.0930772 -0.731099 0
M  V30 1077 H 107.015 -0.457852 -1.84401 0
M  V30 1078 H 105.165 1.19118 -3.69788 0
M  V30 1079 H 106.837 -1.31631 -4.42121 0
M  V30 1080 H 105.08 -1.3042 -4.13731 0
M  V30 1081 H 105.751 -0.410143 -5.50474 0
M  V30 1082 H 108.227 0.874035 -4.06817 0
M  V30 1083 H 107.103 1.58342 -5.25565 0
M  V30 1084 H 107.364 2.39178 -3.71815 0
M  V30 1085 N 106.423 1.57458 -0.0668435 0
M  V30 1086 C 107.386 2.11323 0.887422 0
M  V30 1087 C 108.386 1.03618 1.22964 0
M  V30 1088 O 109.576 1.29626 1.16373 0
M  V30 1089 C 106.708 2.61048 2.19242 0
M  V30 1090 H 107.901 2.96942 0.420194 0
M  V30 1091 H 105.454 1.55239 0.181793 0
M  V30 1092 H 106.189 1.78868 2.70512 0
M  V30 1093 H 105.974 3.39769 1.95702 0
M  V30 1094 H 107.464 3.02814 2.87565 0
M  V30 1095 N 107.901 -0.206675 1.56239 0
M  V30 1096 C 108.849 -1.27571 1.94495 0
M  V30 1097 C 109.843 -1.47737 0.828862 0
M  V30 1098 O 111.049 -1.48735 1.0138 0
M  V30 1099 H 107.424 -0.428029 0.6183 0
M  V30 1100 H 109.395 -0.925961 2.8367 0
M  V30 1101 C 108.144 -2.61568 2.29079 0
M  V30 1102 H 107.467 -2.46863 3.14482 0
M  V30 1103 H 108.907 -3.35144 2.5972 0
M  V30 1104 C 107.366 -3.17695 1.12123 0
M  V30 1105 O 107.896 -3.99801 0.390153 0
M  V30 1106 N 106.102 -2.76276 0.901097 0
M  V30 1107 H 105.649 -2.09613 1.49733 0
M  V30 1108 H 105.607 -3.1417 0.120319 0
M  V30 1109 N 109.379 -1.50304 -0.473955 0
M  V30 1110 C 110.625 -1.61389 -1.22806 0
M  V30 1111 C 110.958 -0.311955 -1.91678 0
M  V30 1112 O 110.233 0.686384 -1.81986 0
M  V30 1113 C 110.516 -2.79219 -2.27396 0
M  V30 1114 C 110.369 -4.19286 -1.62848 0
M  V30 1115 C 111.688 -2.92614 -3.28732 0
M  V30 1116 H 108.807 -0.587399 -0.445119 0
M  V30 1117 H 111.449 -1.82681 -0.522265 0
M  V30 1118 H 109.599 -2.61195 -2.87592 0
M  V30 1119 H 111.271 -4.48892 -1.06271 0
M  V30 1120 H 109.514 -4.23677 -0.931693 0
M  V30 1121 H 110.185 -4.97655 -2.38838 0
M  V30 1122 H 112.661 -3.09105 -2.78556 0
M  V30 1123 H 111.537 -3.76688 -3.99246 0
M  V30 1124 H 111.798 -2.03107 -3.92683 0
M  V30 1125 N 110.857 0.726932 -1.39834 0
M  V30 1126 C 111.805 1.86235 -1.39353 0
M  V30 1127 C 112.799 1.67144 -0.275555 0
M  V30 1128 O 114.005 1.74387 -0.44601 0
M  V30 1129 H 110.38 0.613174 -0.43534 0
M  V30 1130 H 112.351 1.83756 -2.35109 0
M  V30 1131 C 111.1 3.23995 -1.26185 0
M  V30 1132 H 110.423 3.39285 -2.11484 0
M  V30 1133 H 111.863 4.03609 -1.29907 0
M  V30 1134 C 110.322 3.36888 0.0290018 0
M  V30 1135 O 110.852 3.89152 0.99619 0
M  V30 1136 N 109.058 2.90446 0.0947437 0
M  V30 1137 H 108.605 2.48102 -0.693035 0
M  V30 1138 H 108.563 2.99451 0.957932 0
M  V30 1139 N 112.336 1.25143 0.95797 0
M  V30 1140 C 113.582 1.09855 1.70469 0
M  V30 1141 C 113.915 -0.360187 1.90831 0
M  V30 1142 O 113.19 -1.26568 1.47685 0
M  V30 1143 C 113.473 1.8497 3.08963 0
M  V30 1144 C 113.326 3.38652 2.96032 0
M  V30 1145 C 114.645 1.63016 4.08795 0
M  V30 1146 H 111.764 0.400465 0.618706 0
M  V30 1147 H 114.406 1.53933 1.11376 0
M  V30 1148 H 112.556 1.47505 3.59409 0
M  V30 1149 H 114.228 3.85772 2.52938 0
M  V30 1150 H 112.471 3.66534 2.32025 0
M  V30 1151 H 113.142 3.8642 3.94187 0
M  V30 1152 H 115.618 1.95625 3.67247 0
M  V30 1153 H 114.494 2.18015 5.03747 0
M  V30 1154 H 114.755 0.570692 4.38401 0
M  V30 1155 N 113.814 -1.1601 1.06675 0
M  V30 1156 C 115.23 -1.38622 0.790948 0
M  V30 1157 C 115.43 -1.92109 -0.607965 0
M  V30 1158 O 114.486 -2.12239 -1.36787 0
M  V30 1159 C 115.799 -2.36347 1.85905 0
M  V30 1160 C 117.347 -2.50023 1.88301 0
M  V30 1161 C 117.822 -3.51033 2.94176 0
M  V30 1162 N 119.313 -3.58563 2.93235 0
M  V30 1163 C 120.048 -4.36521 3.71803 0
M  V30 1164 N 119.544 -5.17869 4.602 0
M  V30 1165 N 121.337 -4.31541 3.60178 0
M  V30 1166 H 113.488 -0.796294 1.96908 0
M  V30 1167 H 115.751 -0.412597 0.853503 0
M  V30 1168 H 115.457 -2.04147 2.86386 0
M  V30 1169 H 115.331 -3.36042 1.71334 0
M  V30 1170 H 117.718 -2.81524 0.884769 0
M  V30 1171 H 117.799 -1.5035 2.06951 0
M  V30 1172 H 117.443 -3.20268 3.94196 0
M  V30 1173 H 117.373 -4.50445 2.72776 0
M  V30 1174 H 119.864 -3.00496 2.29152 0
M  V30 1175 H 120.177 -5.74578 5.16797 0
M  V30 1176 H 118.522 -5.17199 4.64253 0
M  V30 1177 H 121.713 -3.67051 2.90502 0
M  V30 1178 H 121.886 -4.9205 4.21653 0
M  V30 1179 N 115.292 -0.849877 -1.32721 0
M  V30 1180 C 116.255 -0.296122 -2.27279 0
M  V30 1181 C 117.255 0.541458 -1.5141 0
M  V30 1182 O 118.445 0.353658 -1.70572 0
M  V30 1183 C 115.577 0.581579 -3.35902 0
M  V30 1184 H 116.77 -1.13064 -2.77771 0
M  V30 1185 H 114.323 -0.62383 -1.43311 0
M  V30 1186 H 115.058 1.43809 -2.9067 0
M  V30 1187 H 114.843 -0.0178814 -3.92096 0
M  V30 1188 H 116.333 0.961951 -4.0637 0
M  V30 1189 N 116.77 1.45427 -0.607355 0
M  V30 1190 C 118.016 2.0254 -0.102607 0
M  V30 1191 C 118.349 1.47478 1.26348 0
M  V30 1192 O 117.624 0.64939 1.83339 0
M  V30 1193 C 117.907 3.60044 -0.0634347 0
M  V30 1194 C 117.76 4.2544 -1.46017 0
M  V30 1195 C 119.079 4.35646 0.624514 0
M  V30 1196 H 116.198 0.73598 -0.0387607 0
M  V30 1197 H 118.84 1.73284 -0.779282 0
M  V30 1198 H 116.99 3.85101 0.512808 0
M  V30 1199 H 118.662 4.11569 -2.08347 0
M  V30 1200 H 116.905 3.83849 -2.02094 0
M  V30 1201 H 117.576 5.34342 -1.385 0
M  V30 1202 H 120.052 4.15882 0.134723 0
M  V30 1203 H 118.928 5.45376 0.621028 0
M  V30 1204 H 119.189 4.08501 1.69055 0
M  V30 1205 N 118.248 0.346503 1.53744 0
M  V30 1206 C 119.664 -0.00530975 1.59599 0
M  V30 1207 C 119.864 -1.48465 1.36236 0
M  V30 1208 O 118.92 -2.24376 1.15808 0
M  V30 1209 C 120.233 0.433516 2.97559 0
M  V30 1210 C 121.781 0.386111 3.10609 0
M  V30 1211 C 122.256 0.800451 4.50951 0
M  V30 1212 N 123.747 0.754753 4.5701 0
M  V30 1213 C 124.482 1.04727 5.63755 0
M  V30 1214 N 123.978 1.4081 6.7834 0
M  V30 1215 N 125.771 0.971316 5.53644 0
M  V30 1216 H 117.922 1.31009 1.67184 0
M  V30 1217 H 120.185 0.534242 0.783128 0
M  V30 1218 H 119.891 1.46509 3.19731 0
M  V30 1219 H 119.765 -0.189753 3.76722 0
M  V30 1220 H 122.152 -0.636295 2.88158 0
M  V30 1221 H 122.233 1.04462 2.33498 0
M  V30 1222 H 121.877 1.82088 4.74137 0
M  V30 1223 H 121.807 0.119386 5.26465 0
M  V30 1224 H 124.298 0.488662 3.74727 0
M  V30 1225 H 124.611 1.61607 7.55714 0
M  V30 1226 H 122.956 1.44657 6.79779 0
M  V30 1227 H 126.147 0.688748 4.63005 0
M  V30 1228 H 126.32 1.20263 6.36742 0
M  V30 1229 N 119.726 -1.57421 0.075193 0
M  V30 1230 C 120.972 -1.93905 -0.594025 0
M  V30 1231 C 121.305 -0.955701 -1.69056 0
M  V30 1232 O 120.58 0.0145373 -1.94495 0
M  V30 1233 C 120.863 -3.40638 -1.1678 0
M  V30 1234 C 120.716 -4.49733 -0.0776792 0
M  V30 1235 C 122.035 -3.88259 -2.07228 0
M  V30 1236 H 119.154 -0.705105 -0.214466 0
M  V30 1237 H 121.796 -1.8947 0.141854 0
M  V30 1238 H 119.946 -3.44549 -1.79494 0
M  V30 1239 H 121.618 -4.57942 0.555573 0
M  V30 1240 H 119.861 -4.29751 0.591286 0
M  V30 1241 H 120.532 -5.49549 -0.519603 0
M  V30 1242 H 123.008 -3.86376 -1.54445 0
M  V30 1243 H 121.884 -4.91533 -2.44308 0
M  V30 1244 H 122.145 -3.26396 -2.98191 0
M  V30 1245 N 121.204 0.198386 -1.56346 0
M  V30 1246 C 122.45 0.920648 -1.80698 0
M  V30 1247 C 122.783 1.83045 -0.648697 0
M  V30 1248 O 122.058 1.91308 0.350925 0
M  V30 1249 C 122.341 1.73971 -3.15287 0
M  V30 1250 C 122.194 0.85485 -4.41602 0
M  V30 1251 C 123.513 2.71296 -3.46535 0
M  V30 1252 H 120.632 0.333261 -0.657348 0
M  V30 1253 H 123.274 0.188198 -1.89066 0
M  V30 1254 H 121.424 2.36416 -3.08285 0
M  V30 1255 H 123.096 0.245362 -4.60647 0
M  V30 1256 H 121.339 0.161398 -4.335 0
M  V30 1257 H 122.01 1.46286 -5.32264 0
M  V30 1258 H 124.486 2.18983 -3.53816 0
M  V30 1259 H 123.362 3.2569 -4.41834 0
M  V30 1260 H 123.623 3.5018 -2.69864 0
M  V30 1261 N 122.682 1.50554 0.465978 0
M  V30 1262 C 123.612 1.72722 1.57128 0
M  V30 1263 C 124.593 0.576294 1.6004 0
M  V30 1264 O 125.778 0.81598 1.76225 0
M  V30 1265 C 122.908 1.82605 2.95419 0
M  V30 1266 C 121.862 2.97835 3.07373 0
M  V30 1267 C 121.188 2.92867 4.47363 0
M  V30 1268 C 122.488 4.38265 2.84114 0
M  V30 1269 H 124.182 2.65267 1.38829 0
M  V30 1270 H 121.728 1.2765 0.666441 0
M  V30 1271 H 123.681 1.96698 3.72677 0
M  V30 1272 H 122.405 0.866858 3.14886 0
M  V30 1273 H 121.064 2.83401 2.3255 0
M  V30 1274 H 120.712 1.94783 4.63755 0
M  V30 1275 H 120.412 3.70227 4.56296 0
M  V30 1276 H 121.936 3.09015 5.26633 0
M  V30 1277 H 123.35 4.53198 3.51118 0
M  V30 1278 H 121.747 5.17115 3.04487 0
M  V30 1279 H 122.817 4.50281 1.7993 0
M  V30 1280 N 124.16 -0.719506 1.40217 0
M  V30 1281 C 125.408 -1.47641 1.3801 0
M  V30 1282 C 125.729 -1.94992 -0.018145 0
M  V30 1283 O 124.999 -1.70073 -0.972207 0
M  V30 1284 H 123.579 -0.547744 0.507923 0
M  V30 1285 H 126.241 -0.853187 1.75233 0
M  V30 1286 H 125.337 -2.35112 2.05253 0
M  V30 1287 N 125.638 -1.25649 -0.95132 0
M  V30 1288 C 126.601 -1.06399 -2.03007 0
M  V30 1289 C 127.601 -0.0156794 -1.60792 0
M  V30 1290 O 128.791 -0.25817 -1.72276 0
M  V30 1291 C 125.923 -0.616184 -3.35285 0
M  V30 1292 H 127.116 -2.02164 -2.21517 0
M  V30 1293 H 124.669 -1.08103 -1.12887 0
M  V30 1294 H 125.404 0.343917 -3.22471 0
M  V30 1295 H 125.189 -1.37301 -3.67275 0
M  V30 1296 H 126.679 -0.503032 -4.14559 0
M  V30 1297 N 127.117 1.15442 -1.07289 0
M  V30 1298 C 128.067 2.18164 -0.662467 0
M  V30 1299 C 129.051 1.57845 0.312074 0
M  V30 1300 O 130.243 1.76552 0.125905 0
M  V30 1301 C 127.372 3.43246 -0.0611295 0
M  V30 1302 C 126.458 4.1062 -1.06077 0
M  V30 1303 N 126.849 4.53491 -2.24008 0
M  V30 1304 C 125.147 4.36949 -0.893964 0
M  V30 1305 C 125.848 5.05731 -2.87422 0
M  V30 1306 N 124.824 4.99236 -2.15091 0
M  V30 1307 H 128.626 2.49038 -1.56068 0
M  V30 1308 H 126.14 1.32003 -0.945988 0
M  V30 1309 H 128.137 4.16145 0.250792 0
M  V30 1310 H 126.797 3.13854 0.832207 0
M  V30 1311 H 127.808 4.46898 -2.6173 0
M  V30 1312 H 124.485 4.17466 -0.0534693 0
M  V30 1313 H 125.875 5.48865 -3.87553 0
M  V30 1314 N 128.595 0.856903 1.32268 0
M  V30 1315 C 129.543 0.291987 2.3076 0
M  V30 1316 C 130.537 -0.585857 1.58947 0
M  V30 1317 O 131.743 -0.47341 1.73663 0
M  V30 1318 H 128.118 0.075721 0.748178 0
M  V30 1319 H 130.089 1.13687 2.75895 0
M  V30 1320 C 128.838 -0.502869 3.44044 0
M  V30 1321 H 128.161 0.163328 3.99466 0
M  V30 1322 H 129.601 -0.863691 4.1511 0
M  V30 1323 C 128.06 -1.68898 2.91505 0
M  V30 1324 O 128.59 -2.78811 2.89184 0
M  V30 1325 N 126.796 -1.51679 2.47875 0
M  V30 1326 H 126.343 -0.622666 2.49961 0
M  V30 1327 H 126.301 -2.31184 2.13076 0
M  V30 1328 N 130.073 -1.45103 0.615059 0
M  V30 1329 C 131.003 -2.33339 -0.0865619 0
M  V30 1330 C 131.984 -1.4727 -0.851209 0
M  V30 1331 O 133.169 -1.76026 -0.820281 0
M  V30 1332 C 130.299 -3.30095 -1.07956 0
M  V30 1333 C 129.253 -4.25858 -0.427628 0
M  V30 1334 C 128.579 -5.12361 -1.5294 0
M  V30 1335 C 129.879 -5.18165 0.655944 0
M  V30 1336 H 131.573 -2.92254 0.650224 0
M  V30 1337 H 129.119 -1.40532 0.314138 0
M  V30 1338 H 131.072 -3.90698 -1.57901 0
M  V30 1339 H 129.796 -2.69355 -1.84703 0
M  V30 1340 H 128.455 -3.66564 0.0510292 0
M  V30 1341 H 128.103 -4.47984 -2.28734 0
M  V30 1342 H 127.803 -5.77238 -1.09865 0
M  V30 1343 H 129.327 -5.75833 -2.03098 0
M  V30 1344 H 130.741 -5.72796 0.240257 0
M  V30 1345 H 129.138 -5.91559 1.00888 0
M  V30 1346 H 130.208 -4.60144 1.52957 0
M  V30 1347 N 131.551 -0.354651 -1.53558 0
M  V30 1348 C 132.776 0.242153 -2.05981 0
M  V30 1349 C 133.201 1.42553 -1.2272 0
M  V30 1350 O 132.559 1.79656 -0.243604 0
M  V30 1351 C 132.607 0.624367 -3.55154 0
M  V30 1352 O 131.711 1.72301 -3.74681 0
M  V30 1353 H 131.052 0.0378432 -0.662921 0
M  V30 1354 H 133.582 -0.512087 -1.98088 0
M  V30 1355 H 133.592 0.898433 -3.97985 0
M  V30 1356 H 132.267 -0.240989 -4.15201 0
M  V30 1357 H 130.844 1.44535 -3.4375 0
M  V30 1358 N 133.029 1.57378 -0.0835403 0
M  V30 1359 C 134.445 1.57246 0.273109 0
M  V30 1360 C 134.645 1.09385 1.69225 0
M  V30 1361 O 133.701 0.765051 2.40631 0
M  V30 1362 C 135.014 3.00614 0.0720628 0
M  V30 1363 C 136.562 3.12684 0.1407 0
M  V30 1364 C 137.037 4.57989 -0.0322094 0
M  V30 1365 N 138.528 4.63194 0.0230085 0
M  V30 1366 C 139.263 5.73335 -0.0861941 0
M  V30 1367 N 138.759 6.9235 -0.24958 0
M  V30 1368 N 140.552 5.62093 -0.0282886 0
M  V30 1369 H 132.703 1.86801 -1.0109 0
M  V30 1370 H 134.966 0.861687 -0.395222 0
M  V30 1371 H 134.672 3.39786 -0.907662 0
M  V30 1372 H 134.546 3.68193 0.81936 0
M  V30 1373 H 136.933 2.73391 1.11092 0
M  V30 1374 H 137.014 2.47719 -0.637896 0
M  V30 1375 H 136.658 4.97973 -0.999247 0
M  V30 1376 H 136.588 5.21 0.765937 0
M  V30 1377 H 139.079 3.77613 0.14722 0
M  V30 1378 H 139.392 7.72117 -0.324733 0
M  V30 1379 H 137.737 6.94415 -0.285097 0
M  V30 1380 H 140.928 4.67997 0.0981408 0
M  V30 1381 H 141.101 6.47895 -0.116845 0
M  V30 1382 N 134.507 -0.190092 1.56449 0
M  V30 1383 C 135.923 -0.54113 1.50146 0
M  V30 1384 C 136.123 -1.85603 0.784465 0
M  V30 1385 O 135.179 -2.5024 0.337051 0
M  V30 1386 C 136.492 -0.591241 2.9483 0
M  V30 1387 C 138.04 -0.679732 3.0553 0
M  V30 1388 C 138.515 -0.760908 4.51635 0
M  V30 1389 N 140.006 -0.824302 4.55806 0
M  V30 1390 C 140.741 -0.907365 5.66175 0
M  V30 1391 N 140.237 -0.952422 6.86222 0
M  V30 1392 N 142.03 -0.94494 5.541 0
M  V30 1393 H 134.181 0.67235 2.01478 0
M  V30 1394 H 136.444 0.240127 0.917084 0
M  V30 1395 H 136.15 0.305905 3.50367 0
M  V30 1396 H 136.024 -1.44422 3.48457 0
M  V30 1397 H 138.411 -1.56731 2.50039 0
M  V30 1398 H 138.492 0.199549 2.5502 0
M  V30 1399 H 138.136 0.122336 5.07753 0
M  V30 1400 H 138.066 -1.65606 4.99882 0
M  V30 1401 H 140.557 -0.798526 3.69367 0
M  V30 1402 H 140.87 -1.01645 7.66086 0
M  V30 1403 H 139.215 -0.921014 6.8887 0
M  V30 1404 H 142.406 -0.906612 4.59236 0
M  V30 1405 H 142.579 -1.00622 6.4014 0
M  V30 1406 N 135.985 -1.50799 -0.457987 0
M  V30 1407 C 136.895 -1.73426 -1.57989 0
M  V30 1408 C 137.911 -0.617745 -1.62665 0
M  V30 1409 O 139.087 -0.897614 -1.80291 0
M  V30 1410 C 136.152 -1.83557 -2.94122 0
M  V30 1411 C 135.213 -3.07345 -2.99729 0
M  V30 1412 C 134.446 -3.16983 -4.29368 0
M  V30 1413 O 134.669 -2.33077 -5.20607 0
M  V30 1414 O 133.603 -4.09812 -4.40837 0
M  V30 1415 H 137.429 -2.68555 -1.41817 0
M  V30 1416 H 135.014 -1.35052 -0.638859 0
M  V30 1417 H 136.896 -1.92326 -3.74952 0
M  V30 1418 H 135.571 -0.916137 -3.10465 0
M  V30 1419 H 134.478 -3.04068 -2.1793 0
M  V30 1420 H 135.811 -3.9891 -2.88326 0
M  V30 1421 N 137.463 0.71206 -1.40597 0
M  V30 1422 C 138.874 1.29135 -1.34837 0
M  V30 1423 C 139.225 1.96186 -0.0235395 0
M  V30 1424 O 138.35 1.97768 0.878444 0
M  V30 1425 C 138.945 2.34827 -2.44217 0
M  V30 1426 C 137.504 2.88371 -2.41907 0
M  V30 1427 C 136.651 1.62202 -2.24913 0
M  V30 1428 H 139.602 0.507944 -1.50352 0
M  V30 1429 H 139.623 3.15749 -2.12327 0
M  V30 1430 H 139.135 1.85996 -3.40627 0
M  V30 1431 H 137.236 3.41422 -1.49204 0
M  V30 1432 H 137.349 3.39925 -3.37621 0
M  V30 1433 H 135.713 1.874 -1.72492 0
M  V30 1434 H 136.496 1.15391 -3.23326 0
M  V30 1435 N 138.941 1.26152 0.944643 0
M  V30 1436 C 140.169 1.14259 1.72489 0
M  V30 1437 C 140.584 -0.302555 1.8636 0
M  V30 1438 O 139.941 -1.20741 1.36849 0
M  V30 1439 C 139.992 1.80266 3.13347 0
M  V30 1440 O 139.713 3.19133 3.00143 0
M  V30 1441 C 141.214 1.74283 4.07603 0
M  V30 1442 H 138.434 0.398051 0.540181 0
M  V30 1443 H 140.978 1.66706 1.18446 0
M  V30 1444 H 139.133 1.31766 3.64303 0
M  V30 1445 H 139.547 3.51744 3.89071 0
M  V30 1446 H 141.021 2.25111 5.04013 0
M  V30 1447 H 141.498 0.708631 4.33446 0
M  V30 1448 H 142.104 2.22319 3.62567 0
M  V30 1449 N 140.419 -1.14872 1.07899 0
M  V30 1450 C 141.835 -1.37776 0.805606 0
M  V30 1451 C 142.035 -1.92743 -0.587555 0
M  V30 1452 O 141.091 -2.13678 -1.34528 0
M  V30 1453 C 142.404 -2.34361 1.88402 0
M  V30 1454 C 143.952 -2.48012 1.90942 0
M  V30 1455 C 144.427 -3.47893 2.97883 0
M  V30 1456 N 145.918 -3.55433 2.97021 0
M  V30 1457 C 146.653 -4.32553 3.76412 0
M  V30 1458 N 146.149 -5.12959 4.65666 0
M  V30 1459 N 147.942 -4.27697 3.64735 0
M  V30 1460 H 140.093 -0.775365 1.97742 0
M  V30 1461 H 142.356 -0.403521 0.857831 0
M  V30 1462 H 142.062 -2.01098 2.88535 0
M  V30 1463 H 141.936 -3.34206 1.74889 0
M  V30 1464 H 144.323 -2.8057 0.914579 0
M  V30 1465 H 144.404 -1.48147 2.08534 0
M  V30 1466 H 144.048 -3.16069 3.97571 0
M  V30 1467 H 143.978 -4.47527 2.77538 0
M  V30 1468 H 146.469 -2.98048 2.32326 0
M  V30 1469 H 146.782 -5.69065 5.22862 0
M  V30 1470 H 145.127 -5.12245 4.69712 0
M  V30 1471 H 148.318 -3.63949 2.94378 0
M  V30 1472 H 148.491 -4.8755 4.26848 0
M  V30 1473 N 141.898 -0.863906 -1.31812 0
M  V30 1474 C 142.83 -0.272485 -2.27575 0
M  V30 1475 C 143.843 0.56104 -1.52827 0
M  V30 1476 O 145.032 0.384021 -1.7432 0
M  V30 1477 C 142.132 0.63283 -3.32939 0
M  V30 1478 C 141.305 -0.166902 -4.37081 0
M  V30 1479 C 140.364 0.665608 -5.21973 0
M  V30 1480 O 139.39 0.0958091 -5.69119 0
M  V30 1481 N 140.592 1.9787 -5.45736 0
M  V30 1482 H 143.357 -1.0954 -2.78964 0
M  V30 1483 H 140.918 -0.724791 -1.4477 0
M  V30 1484 H 142.91 1.19532 -3.86645 0
M  V30 1485 H 141.48 1.35642 -2.81638 0
M  V30 1486 H 140.7 -0.910838 -3.83533 0
M  V30 1487 H 141.988 -0.715874 -5.03739 0
M  V30 1488 H 141.386 2.46484 -5.09178 0
M  V30 1489 H 139.943 2.48911 -6.024 0
M  V30 1490 N 143.376 1.44774 -0.622745 0
M  V30 1491 C 144.622 2.0242 -0.124083 0
M  V30 1492 C 144.955 1.4881 1.24777 0
M  V30 1493 O 144.23 0.668799 1.8264 0
M  V30 1494 C 144.513 3.59957 -0.101619 0
M  V30 1495 C 144.366 4.23867 -1.50521 0
M  V30 1496 C 145.685 4.36284 0.578272 0
M  V30 1497 H 142.804 0.735528 -0.0465645 0
M  V30 1498 H 145.446 1.72447 -0.797617 0
M  V30 1499 H 143.596 3.85623 0.471934 0
M  V30 1500 H 145.268 4.09336 -2.12701 0
M  V30 1501 H 143.511 3.81684 -2.06154 0
M  V30 1502 H 144.182 5.32843 -1.4416 0
M  V30 1503 H 146.658 4.16001 0.0906057 0
M  V30 1504 H 145.534 5.46004 0.563149 0
M  V30 1505 H 145.795 4.10271 1.64713 0
M  V30 1506 N 144.854 0.36279 1.53368 0
M  V30 1507 C 146.101 -0.227776 2.01215 0
M  V30 1508 C 146.429 -1.49003 1.25014 0
M  V30 1509 O 145.684 -1.92876 0.331236 0
M  V30 1510 C 145.983 -0.568417 3.52851 0
M  V30 1511 C 145.649 0.59918 4.46901 0
M  V30 1512 C 144.311 0.919559 4.72332 0
M  V30 1513 C 146.663 1.38156 5.02556 0
M  V30 1514 C 143.991 2.02434 5.5067 0
M  V30 1515 C 146.343 2.47674 5.821 0
M  V30 1516 C 145.007 2.8025 6.05819 0
M  V30 1517 H 144.277 -0.083349 0.736297 0
M  V30 1518 H 146.924 0.494677 1.85001 0
M  V30 1519 H 145.229 -1.37185 3.66998 0
M  V30 1520 H 146.926 -1.03756 3.87344 0
M  V30 1521 H 143.516 0.339437 4.27254 0
M  V30 1522 H 147.7 1.14729 4.82857 0
M  V30 1523 H 142.956 2.28075 5.67267 0
M  V30 1524 H 147.13 3.08716 6.24234 0
M  V30 1525 H 144.757 3.65979 6.66306 0
M  V30 1526 N 146.332 -1.57332 0.0918853 0
M  V30 1527 C 147.295 -2.12708 -0.85369 0
M  V30 1528 C 148.295 -1.05561 -1.213 0
M  V30 1529 O 149.485 -1.31461 -1.14296 0
M  V30 1530 C 146.617 -2.64503 -2.15061 0
M  V30 1531 H 147.81 -2.97573 -0.3729 0
M  V30 1532 H 145.363 -1.55509 -0.157072 0
M  V30 1533 H 146.098 -1.83149 -2.67632 0
M  V30 1534 H 145.883 -3.4284 -1.90272 0
M  V30 1535 H 147.373 -3.07351 -2.82711 0
M  V30 1536 N 147.81 0.181792 -1.56548 0
M  V30 1537 C 149.056 0.901431 -1.81665 0
M  V30 1538 C 149.389 1.82347 -0.668075 0
M  V30 1539 O 148.664 1.91669 0.330615 0
M  V30 1540 C 148.947 1.70618 -3.17115 0
M  V30 1541 C 148.8 0.807964 -4.42484 0
M  V30 1542 C 150.119 2.67605 -3.49393 0
M  V30 1543 H 147.238 0.32627 -0.660846 0
M  V30 1544 H 149.88 0.168134 -1.89255 0
M  V30 1545 H 148.03 2.33133 -3.10775 0
M  V30 1546 H 149.702 0.19649 -4.60881 0
M  V30 1547 H 147.945 0.115411 -4.33646 0
M  V30 1548 H 148.616 1.40632 -5.33785 0
M  V30 1549 H 151.092 2.15218 -3.56118 0
M  V30 1550 H 149.968 3.20985 -4.45264 0
M  V30 1551 H 150.229 3.47298 -2.73563 0
M  V30 1552 N 149.288 1.51039 0.449983 0
M  V30 1553 C 150.22 1.67617 1.56324 0
M  V30 1554 C 151.233 0.557083 1.52972 0
M  V30 1555 O 152.422 0.830989 1.57977 0
M  V30 1556 C 149.522 1.66402 2.95235 0
M  V30 1557 C 148.695 2.9469 3.23229 0
M  V30 1558 C 147.754 2.85832 4.41799 0
M  V30 1559 O 146.78 3.59785 4.41071 0
M  V30 1560 N 147.982 2.00821 5.44657 0
M  V30 1561 H 150.747 2.63648 1.42512 0
M  V30 1562 H 148.308 1.48767 0.638737 0
M  V30 1563 H 150.3 1.58062 3.72557 0
M  V30 1564 H 148.87 0.780182 3.02708 0
M  V30 1565 H 148.09 3.16996 2.34323 0
M  V30 1566 H 149.378 3.79636 3.38754 0
M  V30 1567 H 148.776 1.40091 5.48079 0
M  V30 1568 H 147.333 1.98368 6.20881 0
M  V30 1569 N 150.766 -0.704594 1.40972 0
M  V30 1570 C 152.182 -1.01406 1.23244 0
M  V30 1571 C 152.382 -2.01169 0.115399 0
M  V30 1572 O 151.438 -2.47021 -0.523147 0
M  V30 1573 C 152.751 -1.54728 2.57836 0
M  V30 1574 C 154.299 -1.66658 2.64942 0
M  V30 1575 C 154.774 -2.23383 3.9983 0
M  V30 1576 N 156.265 -2.30756 4.01629 0
M  V30 1577 C 157 -2.75655 5.02794 0
M  V30 1578 N 156.496 -3.20225 6.14352 0
M  V30 1579 N 158.289 -2.75138 4.90159 0
M  V30 1580 H 150.44 -0.0435285 2.12355 0
M  V30 1581 H 152.703 -0.0818951 0.944456 0
M  V30 1582 H 152.409 -0.888832 3.40283 0
M  V30 1583 H 152.283 -2.53084 2.79693 0
M  V30 1584 H 154.67 -2.31617 1.8286 0
M  V30 1585 H 154.751 -0.668717 2.46904 0
M  V30 1586 H 154.395 -1.59043 4.82357 0
M  V30 1587 H 154.325 -3.23904 4.15203 0
M  V30 1588 H 156.816 -1.99291 3.21079 0
M  V30 1589 H 157.129 -3.53084 6.87424 0
M  V30 1590 H 155.474 -3.18156 6.17901 0
M  V30 1591 H 158.665 -2.39661 4.02095 0
M  V30 1592 H 158.838 -3.09812 5.6914 0
M  V30 1593 N 152.244 -1.26651 -0.937939 0
M  V30 1594 C 153.493 -1.11775 -1.67897 0
M  V30 1595 C 153.806 0.33794 -1.92659 0
M  V30 1596 O 155.012 0.607434 -2.64618 0
M  V30 1597 C 153.468 -1.9523 -3.02346 0
M  V30 1598 C 153.076 -3.45393 -2.8532 0
M  V30 1599 C 154.82 -1.88972 -3.80118 0
M  V30 1600 C 152.727 -4.21083 -4.15263 0
M  V30 1601 H 151.657 -0.414696 -0.629717 0
M  V30 1602 H 154.308 -1.50988 -1.04283 0
M  V30 1603 H 152.69 -1.48853 -3.66959 0
M  V30 1604 H 153.864 -3.99561 -2.29537 0
M  V30 1605 H 152.179 -3.52921 -2.20988 0
M  V30 1606 H 154.776 -2.42805 -4.76392 0
M  V30 1607 H 155.119 -0.86113 -4.07296 0
M  V30 1608 H 155.652 -2.33189 -3.22285 0
M  V30 1609 H 152.391 -5.24425 -3.93267 0
M  V30 1610 H 151.911 -3.71695 -4.70747 0
M  V30 1611 H 153.59 -4.29706 -4.83696 0
M  V30 1612 N 153.722 1.14298 -1.08507 0
M  V30 1613 C 154.969 1.85359 -0.815373 0
M  V30 1614 C 155.297 1.83001 0.658865 0
M  V30 1615 O 154.552 1.25655 1.50031 0
M  V30 1616 C 154.851 3.33547 -1.28379 0
M  V30 1617 C 154.517 3.56093 -2.76602 0
M  V30 1618 C 153.179 3.61955 -3.17084 0
M  V30 1619 C 155.531 3.64834 -3.72217 0
M  V30 1620 C 152.859 3.74082 -4.51973 0
M  V30 1621 C 155.211 3.78487 -5.06883 0
M  V30 1622 C 153.875 3.82598 -5.46969 0
M  V30 1623 H 153.145 0.678276 -0.298366 0
M  V30 1624 H 155.792 1.35002 -1.35819 0
M  V30 1625 H 154.097 3.86191 -0.660593 0
M  V30 1626 H 155.794 3.86959 -1.05186 0
M  V30 1627 H 152.384 3.52179 -2.4427 0
M  V30 1628 H 156.568 3.59595 -3.42061 0
M  V30 1629 H 151.824 3.75527 -4.82483 0
M  V30 1630 H 155.998 3.84193 -5.80834 0
M  V30 1631 H 153.625 3.91747 -6.51489 0
M  V30 1632 N 155.201 0.870884 1.31352 0
M  V30 1633 C 156.111 0.330783 2.32256 0
M  V30 1634 C 157.127 -0.559767 1.6475 0
M  V30 1635 O 158.303 -0.456263 1.96164 0
M  V30 1636 C 155.368 -0.458137 3.4366 0
M  V30 1637 C 154.429 0.460482 4.26823 0
M  V30 1638 C 153.662 -0.290881 5.32907 0
M  V30 1639 O 153.885 -1.51885 5.49806 0
M  V30 1640 O 152.819 0.351732 6.00871 0
M  V30 1641 H 156.645 1.16718 2.80376 0
M  V30 1642 H 154.23 0.634285 1.35267 0
M  V30 1643 H 156.112 -0.905343 4.1156 0
M  V30 1644 H 154.787 -1.27106 2.97701 0
M  V30 1645 H 153.694 0.956207 3.61673 0
M  V30 1646 H 155.027 1.23903 4.7635 0
M  V30 1647 N 156.679 -1.44442 0.630414 0
M  V30 1648 C 157.627 -2.32437 -0.0871428 0
M  V30 1649 C 158.621 -1.47304 -0.836525 0
M  V30 1650 O 159.827 -1.63653 -0.749506 0
M  V30 1651 H 156.202 -0.750533 -0.0469495 0
M  V30 1652 H 158.173 -2.90709 0.673096 0
M  V30 1653 C 156.922 -3.31288 -1.05563 0
M  V30 1654 H 156.245 -3.96805 -0.488426 0
M  V30 1655 H 157.685 -3.9554 -1.52721 0
M  V30 1656 C 156.144 -2.6016 -2.14052 0
M  V30 1657 O 156.674 -2.39997 -3.22124 0
M  V30 1658 N 154.88 -2.19911 -1.89967 0
M  V30 1659 H 154.427 -2.36509 -1.02085 0
M  V30 1660 H 154.385 -1.72646 -2.62756 0
M  V30 1661 N 158.157 -0.370918 -1.53173 0
M  V30 1662 C 159.405 0.216673 -2.00935 0
M  V30 1663 C 159.726 1.48845 -1.25977 0
M  V30 1664 O 158.996 1.92286 -0.374551 0
M  V30 1665 H 157.576 0.0830565 -0.742368 0
M  V30 1666 H 160.238 -0.49838 -1.8842 0
M  V30 1667 H 159.334 0.439893 -3.08984 0
M  V30 1668 N 159.635 1.57281 -0.100228 0
M  V30 1669 C 160.865 1.98591 0.569681 0
M  V30 1670 C 161.273 0.978315 1.61943 0
M  V30 1671 O 160.616 -0.0396108 1.83657 0
M  V30 1672 C 160.678 3.36282 1.271 0
M  V30 1673 C 160.342 4.55488 0.371409 0
M  V30 1674 C 161.339 5.18491 -0.382504 0
M  V30 1675 C 159.024 5.01474 0.287965 0
M  V30 1676 C 161.018 6.25852 -1.20779 0
M  V30 1677 C 158.705 6.08701 -0.540965 0
M  V30 1678 C 159.703 6.70755 -1.28749 0
M  V30 1679 O 159.391 7.75914 -2.10269 0
M  V30 1680 H 159.123 0.65752 0.156982 0
M  V30 1681 H 161.677 2.0463 -0.177734 0
M  V30 1682 H 159.907 3.26941 2.0651 0
M  V30 1683 H 161.596 3.62005 1.83595 0
M  V30 1684 H 162.362 4.83891 -0.3278 0
M  V30 1685 H 158.241 4.52932 0.858689 0
M  V30 1686 H 161.785 6.74218 -1.79096 0
M  V30 1687 H 157.682 6.42732 -0.597131 0
M  V30 1688 H 158.45 7.92925 -2.03007 0
M  V30 1689 N 161.113 -0.173488 1.56642 0
M  V30 1690 C 162.39 -0.917617 1.7274 0
M  V30 1691 C 162.77 -2.00484 0.661027 0
M  V30 1692 O 162.118 -2.26184 -0.32453 0
M  V30 1693 C 162.328 -1.48433 3.15862 0
M  V30 1694 C 163.676 -1.95809 3.76754 0
M  V30 1695 O 164.7 -1.58231 3.19126 0
M  V30 1696 O 163.559 -2.65024 4.77938 0
M  V30 1697 H 160.653 -0.431772 0.705338 0
M  V30 1698 H 163.199 -0.161487 1.6893 0
M  V30 1699 H 161.971 -0.701715 3.84957 0
M  V30 1700 H 161.594 -2.30471 3.23989 0
M  V30 1701 N 162.591 -1.51276 -0.441967 0
M  V30 1702 C 164.002 -1.56244 -1.02199 0
M  V30 1703 C 164.353 -0.383149 -1.92422 0
M  V30 1704 O 163.478 0.500613 -2.1053 0
M  V30 1705 C 164.073 -2.83162 -1.86024 0
M  V30 1706 C 162.632 -2.90716 -2.39084 0
M  V30 1707 C 161.779 -2.50858 -1.18175 0
M  V30 1708 H 164.73 -1.5712 -0.223416 0
M  V30 1709 H 164.751 -2.66663 -2.71425 0
M  V30 1710 H 164.263 -3.68974 -1.20331 0
M  V30 1711 H 162.364 -2.09323 -3.08244 0
M  V30 1712 H 162.477 -3.94266 -2.72198 0
M  V30 1713 H 160.841 -2.03951 -1.52565 0
M  V30 1714 H 161.624 -3.3901 -0.541001 0
M  V30 1715 N 164.069 0.697108 -1.41344 0
M  V30 1716 C 165.315 1.4593 -1.40827 0
M  V30 1717 C 165.648 1.94193 -0.0167098 0
M  V30 1718 O 164.923 1.69425 0.955263 0
M  V30 1719 C 165.206 2.67229 -2.41373 0
M  V30 1720 C 165.059 2.24741 -3.8963 0
M  V30 1721 C 166.378 3.69423 -2.39196 0
M  V30 1722 H 163.497 0.529303 -0.512842 0
M  V30 1723 H 166.139 0.794112 -1.72609 0
M  V30 1724 H 164.289 3.23982 -2.14401 0
M  V30 1725 H 165.961 1.73327 -4.27499 0
M  V30 1726 H 164.204 1.56542 -4.0457 0
M  V30 1727 H 164.875 3.1177 -4.55525 0
M  V30 1728 H 167.351 3.2234 -2.63128 0
M  V30 1729 H 166.227 4.51907 -3.11563 0
M  V30 1730 H 166.488 4.19012 -1.41001 0
M  V30 1731 N 165.547 1.27147 0.931209 0
M  V30 1732 C 166.495 1.09398 2.05268 0
M  V30 1733 C 167.489 0.0180591 1.6939 0
M  V30 1734 O 168.695 0.17551 1.79142 0
M  V30 1735 H 165.07 0.336986 0.672268 0
M  V30 1736 H 167.041 2.04416 2.17386 0
M  V30 1737 C 165.79 0.75424 3.39421 0
M  V30 1738 H 165.113 1.57404 3.67511 0
M  V30 1739 H 166.553 0.669903 4.18674 0
M  V30 1740 C 165.012 -0.541197 3.32525 0
M  V30 1741 O 165.542 -1.57664 3.69466 0
M  V30 1742 N 163.748 -0.535517 2.85623 0
M  V30 1743 H 163.295 0.307511 2.55758 0
M  V30 1744 H 163.253 -1.40236 2.81392 0
M  V30 1745 N 167.025 -1.13721 1.09112 0
M  V30 1746 C 167.955 -2.21148 0.749385 0
M  V30 1747 C 168.936 -1.6792 -0.271475 0
M  V30 1748 O 170.121 -1.93693 -0.140251 0
M  V30 1749 C 167.251 -3.46905 0.165659 0
M  V30 1750 C 166.205 -4.13203 1.11567 0
M  V30 1751 C 165.531 -5.33248 0.393809 0
M  V30 1752 C 166.831 -4.60912 2.45678 0
M  V30 1753 H 168.525 -2.4999 1.64758 0
M  V30 1754 H 166.071 -1.20156 0.793626 0
M  V30 1755 H 168.024 -4.21313 -0.085466 0
M  V30 1756 H 166.748 -3.17449 -0.767714 0
M  V30 1757 H 165.407 -3.40758 1.35202 0
M  V30 1758 H 165.055 -5.00054 -0.543599 0
M  V30 1759 H 164.755 -5.78552 1.02721 0
M  V30 1760 H 166.279 -6.10413 0.150908 0
M  V30 1761 H 167.693 -5.26759 2.26269 0
M  V30 1762 H 166.09 -5.16944 3.04776 0
M  V30 1763 H 167.16 -3.75603 3.06677 0
M  V30 1764 N 168.503 -0.877838 -1.30888 0
M  V30 1765 C 169.433 -0.35534 -2.3078 0
M  V30 1766 C 170.414 0.557994 -1.60687 0
M  V30 1767 O 171.599 0.473355 -1.88343 0
M  V30 1768 C 168.729 0.437221 -3.44537 0
M  V30 1769 C 167.683 -0.383715 -4.26276 0
M  V30 1770 C 167.009 0.535014 -5.32017 0
M  V30 1771 C 168.309 -1.62201 -4.96476 0
M  V30 1772 H 170.003 -1.19007 -2.74732 0
M  V30 1773 H 167.549 -0.573698 -1.32078 0
M  V30 1774 H 169.502 0.813334 -4.13477 0
M  V30 1775 H 168.226 1.30553 -2.99372 0
M  V30 1776 H 166.885 -0.741874 -3.59015 0
M  V30 1777 H 166.533 1.40083 -4.831 0
M  V30 1778 H 166.233 -0.0104211 -5.87599 0
M  V30 1779 H 167.757 0.907799 -6.03814 0
M  V30 1780 H 169.171 -1.31689 -5.5797 0
M  V30 1781 H 167.568 -2.10711 -5.61891 0
M  V30 1782 H 168.638 -2.37044 -4.23011 0
M  V30 1783 N 169.982 1.44106 -0.638065 0
M  V30 1784 C 170.93 2.3248 0.0748149 0
M  V30 1785 C 171.924 1.47746 0.828702 0
M  V30 1786 O 173.13 1.64049 0.740816 0
M  V30 1787 H 169.505 0.750771 0.0429686 0
M  V30 1788 H 171.476 2.90348 -0.688504 0
M  V30 1789 C 170.225 3.31843 1.03805 0
M  V30 1790 H 169.548 3.97059 0.467375 0
M  V30 1791 H 170.988 3.96345 1.50622 0
M  V30 1792 C 169.447 2.61291 2.1267 0
M  V30 1793 O 169.977 2.41702 3.20847 0
M  V30 1794 N 168.183 2.20915 1.88798 0
M  V30 1795 H 167.73 2.37047 1.00829 0
M  V30 1796 H 167.688 1.74038 2.61836 0
M  V30 1797 N 171.46 0.379036 1.52974 0
M  V30 1798 C 172.737 -0.263479 1.93817 0
M  V30 1799 C 173.117 -1.65244 1.31368 0
M  V30 1800 O 172.465 -2.23448 0.477856 0
M  V30 1801 C 172.675 -0.300166 3.47707 0
M  V30 1802 C 174.023 -0.534061 4.21228 0
M  V30 1803 O 175.047 -0.38081 3.54159 0
M  V30 1804 O 173.906 -0.833501 5.40106 0
M  V30 1805 H 171 -0.161149 0.811147 0
M  V30 1806 H 173.546 0.432798 1.64088 0
M  V30 1807 H 172.318 0.673138 3.85467 0
M  V30 1808 H 171.941 -1.04179 3.83709 0
M  V30 1809 N 172.938 -1.57226 0.108567 0
M  V30 1810 C 174.187 -1.94008 -0.551703 0
M  V30 1811 C 174.5 -0.993442 -1.68494 0
M  V30 1812 O 175.706 -1.25551 -2.40726 0
M  V30 1813 C 174.162 -3.44763 -1.03279 0
M  V30 1814 C 173.77 -4.47943 0.0714193 0
M  V30 1815 C 175.514 -3.90483 -1.66503 0
M  V30 1816 C 173.421 -5.89865 -0.425779 0
M  V30 1817 H 172.351 -0.724206 -0.209863 0
M  V30 1818 H 175.002 -1.82547 0.186741 0
M  V30 1819 H 173.384 -3.51422 -1.82533 0
M  V30 1820 H 174.558 -4.52942 0.847365 0
M  V30 1821 H 172.873 -4.11913 0.609669 0
M  V30 1822 H 175.47 -4.93925 -2.04798 0
M  V30 1823 H 175.813 -3.29877 -2.53942 0
M  V30 1824 H 176.346 -3.86581 -0.938074 0
M  V30 1825 H 173.085 -6.54202 0.412316 0
M  V30 1826 H 172.605 -5.88309 -1.16843 0
M  V30 1827 H 174.284 -6.40844 -0.890397 0
M  V30 1828 N 174.416 0.165178 -1.56732 0
M  V30 1829 C 175.662 0.882112 -1.82611 0
M  V30 1830 C 175.995 1.81628 -0.687378 0
M  V30 1831 O 175.27 1.92009 0.310267 0
M  V30 1832 C 175.553 1.67245 -3.18906 0
M  V30 1833 C 175.406 0.760987 -4.43316 0
M  V30 1834 C 176.725 2.63884 -3.52212 0
M  V30 1835 H 173.844 0.319242 -0.664269 0
M  V30 1836 H 176.486 0.148052 -1.89422 0
M  V30 1837 H 174.636 2.29824 -3.1323 0
M  V30 1838 H 176.308 0.147596 -4.61064 0
M  V30 1839 H 174.551 0.0694102 -4.33744 0
M  V30 1840 H 175.222 1.34962 -5.35247 0
M  V30 1841 H 177.698 2.11429 -3.58381 0
M  V30 1842 H 176.574 3.16245 -4.48643 0
M  V30 1843 H 176.835 3.44377 -2.77231 0
M  V30 1844 N 175.894 1.51508 0.433938 0
M  V30 1845 C 177.143 1.63578 1.18005 0
M  V30 1846 C 177.456 0.359514 1.92268 0
M  V30 1847 O 178.662 0.359632 2.69108 0
M  V30 1848 C 177.118 2.88901 2.14626 0
M  V30 1849 C 176.726 4.23544 1.45995 0
M  V30 1850 C 178.47 3.10328 2.89649 0
M  V30 1851 C 176.377 5.40014 2.4112 0
M  V30 1852 H 175.307 0.609277 0.444182 0
M  V30 1853 H 177.958 1.77978 0.446773 0
M  V30 1854 H 176.34 2.68142 2.91403 0
M  V30 1855 H 177.514 4.54696 0.747532 0
M  V30 1856 H 175.829 4.08021 0.831115 0
M  V30 1857 H 178.426 3.94518 3.60915 0
M  V30 1858 H 178.769 2.23544 3.51189 0
M  V30 1859 H 179.302 3.31443 2.19978 0
M  V30 1860 H 176.041 6.29068 1.84264 0
M  V30 1861 H 175.561 5.13233 3.10406 0
M  V30 1862 H 177.24 5.72099 3.02177 0
M  V30 1863 N 177.372 -0.689602 1.41712 0
M  V30 1864 C 178.302 -1.81577 1.46806 0
M  V30 1865 C 179.283 -1.66945 0.326105 0
M  V30 1866 O 180.468 -1.86588 0.538377 0
M  V30 1867 C 177.598 -3.19762 1.35535 0
M  V30 1868 C 176.552 -3.49107 2.47605 0
M  V30 1869 C 175.878 -4.86711 2.21397 0
M  V30 1870 C 177.178 -3.47483 3.89939 0
M  V30 1871 H 178.872 -1.7757 2.41058 0
M  V30 1872 H 176.418 -0.852887 1.16025 0
M  V30 1873 H 178.371 -3.98263 1.3771 0
M  V30 1874 H 177.095 -3.24409 0.377708 0
M  V30 1875 H 175.754 -2.72959 2.44722 0
M  V30 1876 H 175.402 -4.8799 1.21961 0
M  V30 1877 H 175.102 -5.0731 2.96497 0
M  V30 1878 H 176.626 -5.67515 2.25297 0
M  V30 1879 H 178.04 -4.1598 3.94505 0
M  V30 1880 H 176.437 -3.79615 4.64771 0
M  V30 1881 H 177.507 -2.46341 4.17665 0
M  V30 1882 N 178.85 -1.27639 -0.924453 0
M  V30 1883 C 179.782 -1.06442 -2.02985 0
M  V30 1884 C 180.795 -0.0194771 -1.62788 0
M  V30 1885 O 181.984 -0.261388 -1.76576 0
M  V30 1886 C 179.084 -0.59327 -3.33667 0
M  V30 1887 C 178.257 -1.71123 -4.02537 0
M  V30 1888 C 177.316 -1.23527 -5.11495 0
M  V30 1889 O 176.342 -1.93553 -5.35281 0
M  V30 1890 N 177.544 -0.0926678 -5.80426 0
M  V30 1891 H 180.309 -2.01633 -2.2173 0
M  V30 1892 H 177.87 -1.19248 -1.09505 0
M  V30 1893 H 179.862 -0.258686 -4.03872 0
M  V30 1894 H 178.432 0.265502 -3.1147 0
M  V30 1895 H 177.652 -2.21593 -3.26022 0
M  V30 1896 H 178.94 -2.46145 -4.45298 0
M  V30 1897 H 178.338 0.491741 -5.63559 0
M  V30 1898 H 176.895 0.182714 -6.51544 0
M  V30 1899 N 180.328 1.1314 -1.09713 0
M  V30 1900 C 181.258 2.20748 -0.761102 0
M  V30 1901 C 182.239 1.68061 0.262566 0
M  V30 1902 O 183.424 1.93765 0.129977 0
M  V30 1903 C 180.554 3.46812 -0.184054 0
M  V30 1904 C 179.508 4.12606 -1.13757 0
M  V30 1905 C 178.834 5.33031 -0.422083 0
M  V30 1906 C 180.134 4.59603 -2.48118 0
M  V30 1907 H 181.828 2.49113 -1.66082 0
M  V30 1908 H 179.374 1.19734 -0.799987 0
M  V30 1909 H 181.327 4.21353 0.0631215 0
M  V30 1910 H 180.051 3.17851 0.750868 0
M  V30 1911 H 178.71 3.40036 -1.37007 0
M  V30 1912 H 178.358 5.00335 0.517072 0
M  V30 1913 H 178.058 5.77999 -1.05788 0
M  V30 1914 H 179.582 6.10325 -0.183277 0
M  V30 1915 H 180.996 5.25552 -2.29059 0
M  V30 1916 H 179.393 5.15321 -3.07514 0
M  V30 1917 H 180.463 3.73971 -3.08665 0
M  V30 1918 N 181.806 0.884767 1.30421 0
M  V30 1919 C 182.754 0.340869 2.30089 0
M  V30 1920 C 183.748 -0.55201 1.60154 0
M  V30 1921 O 184.954 -0.436467 1.74628 0
M  V30 1922 H 181.329 0.0915739 0.746404 0
M  V30 1923 H 183.3 1.19513 2.73421 0
M  V30 1924 C 182.049 -0.429779 3.45034 0
M  V30 1925 H 181.372 0.248024 3.9903 0
M  V30 1926 H 182.812 -0.775445 4.16849 0
M  V30 1927 C 181.271 -1.62677 2.95022 0
M  V30 1928 O 181.801 -2.72614 2.95033 0
M  V30 1929 N 180.007 -1.46387 2.51036 0
M  V30 1930 H 179.554 -0.569506 2.51226 0
M  V30 1931 H 179.512 -2.26612 2.17932 0
M  V30 1932 N 183.284 -1.43765 0.645699 0
M  V30 1933 C 184.532 -2.01499 0.155731 0
M  V30 1934 C 184.853 -1.51151 -1.232 0
M  V30 1935 O 184.123 -0.721044 -1.82148 0
M  V30 1936 H 182.703 -0.745003 0.0545817 0
M  V30 1937 H 185.365 -1.76075 0.835677 0
M  V30 1938 H 184.461 -3.1181 0.134577 0
M  V30 1939 N 184.763 -0.387143 -1.52771 0
M  V30 1940 C 185.988 0.198407 -2.06449 0
M  V30 1941 C 186.413 1.39918 -1.25716 0
M  V30 1942 O 185.771 1.79099 -0.281657 0
M  V30 1943 C 185.819 0.548893 -3.56398 0
M  V30 1944 O 184.923 1.64315 -3.78252 0
M  V30 1945 H 184.264 0.0237731 -0.663574 0
M  V30 1946 H 186.794 -0.553989 -1.96957 0
M  V30 1947 H 186.804 0.813812 -3.99801 0
M  V30 1948 H 185.479 -0.329005 -4.14597 0
M  V30 1949 H 184.056 1.37211 -3.46738 0
M  V30 1950 N 186.241 1.57166 -0.116904 0
M  V30 1951 C 187.204 2.14039 0.819742 0
M  V30 1952 C 188.204 1.07477 1.19605 0
M  V30 1953 O 189.394 1.33263 1.1219 0
M  V30 1954 C 186.526 2.67891 2.10826 0
M  V30 1955 H 187.719 2.98128 0.325511 0
M  V30 1956 H 185.272 1.55739 0.132312 0
M  V30 1957 H 186.007 1.87384 2.64685 0
M  V30 1958 H 185.792 3.45823 1.84793 0
M  V30 1959 H 187.282 3.11809 2.77785 0
M  V30 1960 N 187.719 -0.156864 1.56817 0
M  V30 1961 C 188.947 -0.886316 1.86955 0
M  V30 1962 C 189.362 -1.75185 0.703975 0
M  V30 1963 O 188.719 -1.79555 -0.326552 0
M  V30 1964 C 188.77 -1.75117 3.16253 0
M  V30 1965 O 188.491 -0.920537 4.2832 0
M  V30 1966 C 189.992 -2.58905 3.59837 0
M  V30 1967 H 187.212 -0.25678 0.619923 0
M  V30 1968 H 189.756 -0.152615 2.0393 0
M  V30 1969 H 187.911 -2.43805 3.01062 0
M  V30 1970 H 188.325 -1.51337 5.02192 0
M  V30 1971 H 189.799 -3.1518 4.53172 0
M  V30 1972 H 190.276 -3.34472 2.84649 0
M  V30 1973 H 190.882 -1.95526 3.7769 0
M  V30 1974 N 189.197 -1.51736 -0.425897 0
M  V30 1975 C 190.446 -1.64201 -1.17136 0
M  V30 1976 C 190.759 -0.369705 -1.92074 0
M  V30 1977 O 191.965 -0.373898 -2.68913 0
M  V30 1978 C 190.421 -2.90035 -2.13091 0
M  V30 1979 C 190.029 -4.24312 -1.43747 0
M  V30 1980 C 191.773 -3.1186 -2.87999 0
M  V30 1981 C 189.68 -5.41285 -2.38253 0
M  V30 1982 H 188.61 -0.611624 -0.440944 0
M  V30 1983 H 191.261 -1.78212 -0.437328 0
M  V30 1984 H 189.643 -2.69684 -2.89977 0
M  V30 1985 H 190.817 -4.55086 -0.723408 0
M  V30 1986 H 189.132 -4.08456 -0.809465 0
M  V30 1987 H 191.729 -3.96427 -3.58817 0
M  V30 1988 H 192.072 -2.25403 -3.49999 0
M  V30 1989 H 192.605 -3.32605 -2.18217 0
M  V30 1990 H 189.344 -6.30037 -1.80925 0
M  V30 1991 H 188.864 -5.14872 -3.0768 0
M  V30 1992 H 190.543 -5.73694 -2.99139 0
M  V30 1993 N 190.675 0.682077 -1.42076 0
M  V30 1994 C 191.623 1.81707 -1.45208 0
M  V30 1995 C 192.617 1.66183 -0.328591 0
M  V30 1996 O 193.823 1.7288 -0.501264 0
M  V30 1997 H 190.198 0.599014 -0.454628 0
M  V30 1998 H 192.169 1.76183 -2.40836 0
M  V30 1999 C 190.918 3.19816 -1.36428 0
M  V30 2000 H 190.241 3.32385 -2.22171 0
M  V30 2001 H 191.681 3.99272 -1.42681 0
M  V30 2002 C 190.14 3.36809 -0.078191 0
M  V30 2003 O 190.67 3.92124 0.87188 0
M  V30 2004 N 188.876 2.906 0.00229266 0
M  V30 2005 H 188.423 2.45772 -0.771616 0
M  V30 2006 H 188.381 3.02347 0.862179 0
M  V30 2007 N 192.153 1.28127 0.917671 0
M  V30 2008 C 193.116 1.11744 2.00115 0
M  V30 2009 C 194.116 0.0583052 1.60694 0
M  V30 2010 O 195.306 0.303755 1.71531 0
M  V30 2011 C 192.438 0.704862 3.33533 0
M  V30 2012 H 193.631 2.07966 2.16079 0
M  V30 2013 H 191.184 1.11058 1.09981 0
M  V30 2014 H 191.919 -0.258299 3.2327 0
M  V30 2015 H 191.704 1.4699 3.63505 0
M  V30 2016 H 193.194 0.612768 4.1308 0
M  V30 2017 N 193.631 -1.12557 1.10312 0
M  V30 2018 C 194.579 -2.20325 0.745629 0
M  V30 2019 C 195.573 -1.67429 -0.25763 0
M  V30 2020 O 196.779 -1.79612 -0.118132 0
M  V30 2021 H 193.154 -0.718118 0.223182 0
M  V30 2022 H 195.125 -2.47733 1.66346 0
M  V30 2023 C 193.874 -3.47168 0.192262 0
M  V30 2024 H 193.197 -3.88215 0.955475 0
M  V30 2025 H 194.637 -4.23995 -0.0198274 0
M  V30 2026 C 193.096 -3.19298 -1.07472 0
M  V30 2027 O 193.626 -3.3891 -2.15645 0
M  V30 2028 N 191.832 -2.73113 -0.992847 0
M  V30 2029 H 191.379 -2.57354 -0.112474 0
M  V30 2030 H 191.337 -2.54842 -1.84127 0
M  V30 2031 N 195.109 -0.891671 -1.2995 0
M  V30 2032 C 196.355 -0.514261 -1.96171 0
M  V30 2033 C 196.688 0.935506 -1.70182 0
M  V30 2034 O 195.963 1.66204 -1.01028 0
M  V30 2035 C 196.246 -0.797719 -3.51153 0
M  V30 2036 C 196.099 -2.2986 -3.86632 0
M  V30 2037 C 197.418 -0.278749 -4.39216 0
M  V30 2038 H 194.537 -0.188314 -0.712535 0
M  V30 2039 H 197.179 -1.11689 -1.53706 0
M  V30 2040 H 195.329 -0.284826 -3.87455 0
M  V30 2041 H 197.001 -2.88042 -3.60319 0
M  V30 2042 H 195.244 -2.76257 -3.34462 0
M  V30 2043 H 195.915 -2.44753 -4.94773 0
M  V30 2044 H 198.391 -0.717825 -4.09862 0
M  V30 2045 H 197.267 -0.506353 -5.46559 0
M  V30 2046 H 197.528 0.820266 -4.34424 0
M  V30 2047 N 196.587 1.43421 -0.653314 0
M  V30 2048 C 197.519 2.29071 0.0769134 0
M  V30 2049 C 198.532 1.42513 0.787017 0
M  V30 2050 O 199.721 1.66449 0.644757 0
M  V30 2051 C 196.821 3.19436 1.13199 0
M  V30 2052 C 195.994 4.34533 0.500006 0
M  V30 2053 C 195.053 5.05771 1.45198 0
M  V30 2054 O 194.079 5.61037 0.960538 0
M  V30 2055 N 195.281 5.0928 2.78594 0
M  V30 2056 H 198.046 2.92382 -0.658235 0
M  V30 2057 H 195.607 1.54112 -0.496104 0
M  V30 2058 H 197.599 3.63958 1.76964 0
M  V30 2059 H 196.169 2.57724 1.7691 0
M  V30 2060 H 195.389 3.92925 -0.316738 0
M  V30 2061 H 196.677 5.08766 0.0588345 0
M  V30 2062 H 196.075 4.65751 3.2108 0
M  V30 2063 H 194.632 5.57519 3.37662 0
M  V30 2064 N 198.065 0.39524 1.52563 0
M  V30 2065 C 199.311 -0.185318 2.01952 0
M  V30 2066 C 199.644 -1.45964 1.28095 0
M  V30 2067 O 198.919 -1.90689 0.38315 0
M  V30 2068 C 199.202 -0.447193 3.57312 0
M  V30 2069 C 199.055 0.842828 4.41833 0
M  V30 2070 C 200.374 -1.23529 4.22408 0
M  V30 2071 H 197.493 -0.0658788 0.73405 0
M  V30 2072 H 200.135 0.525975 1.82575 0
M  V30 2073 H 198.285 -1.05312 3.73954 0
M  V30 2074 H 199.957 1.4795 4.36931 0
M  V30 2075 H 198.2 1.45686 4.08605 0
M  V30 2076 H 198.871 0.614165 5.48573 0
M  V30 2077 H 201.347 -0.722445 4.0978 0
M  V30 2078 H 200.223 -1.38727 5.3108 0
M  V30 2079 H 200.484 -2.25213 3.80436 0
M  V30 2080 N 199.544 -1.57102 0.125237 0
M  V30 2081 C 200.507 -2.14471 -0.80838 0
M  V30 2082 C 201.507 -1.0811 -1.19033 0
M  V30 2083 O 202.697 -1.33856 -1.11482 0
M  V30 2084 C 199.829 -2.69005 -2.09402 0
M  V30 2085 H 201.022 -2.98297 -0.309696 0
M  V30 2086 H 198.575 -1.55807 -0.124051 0
M  V30 2087 H 199.31 -1.88785 -2.63687 0
M  V30 2088 H 199.095 -3.46799 -1.82957 0
M  V30 2089 H 200.585 -3.13278 -2.76128 0
M  V30 2090 N 201.022 0.148545 -1.56898 0
M  V30 2091 C 201.954 1.20852 -1.9475 0
M  V30 2092 C 202.967 1.39265 -0.843152 0
M  V30 2093 O 204.156 1.38864 -1.12156 0
M  V30 2094 C 201.256 2.57362 -2.20495 0
M  V30 2095 C 200.429 2.59947 -3.51776 0
M  V30 2096 C 199.488 3.77984 -3.6608 0
M  V30 2097 O 198.514 3.62929 -4.38487 0
M  V30 2098 N 199.716 4.95375 -3.02629 0
M  V30 2099 H 202.481 0.886804 -2.86279 0
M  V30 2100 H 200.042 0.338121 -1.5833 0
M  V30 2101 H 202.034 3.34833 -2.27307 0
M  V30 2102 H 200.604 2.81832 -1.35238 0
M  V30 2103 H 199.824 1.68403 -3.56419 0
M  V30 2104 H 201.112 2.58704 -4.38121 0
M  V30 2105 H 200.51 5.10509 -2.43715 0
M  V30 2106 H 199.067 5.70627 -3.15004 0
M  V30 2107 N 202.5 1.5196 0.417844 0
M  V30 2108 C 203.43 1.77634 1.51554 0
M  V30 2109 C 204.411 0.626918 1.58126 0
M  V30 2110 O 205.596 0.871632 1.7354 0
M  V30 2111 C 202.726 1.91911 2.8946 0
M  V30 2112 C 201.68 3.07463 2.97743 0
M  V30 2113 C 201.006 3.06951 4.37819 0
M  V30 2114 C 202.306 4.47082 2.70027 0
M  V30 2115 H 204 2.6955 1.3032 0
M  V30 2116 H 201.546 1.29706 0.625492 0
M  V30 2117 H 203.499 2.08455 3.6623 0
M  V30 2118 H 202.223 0.966598 3.11969 0
M  V30 2119 H 200.882 2.90656 2.23416 0
M  V30 2120 H 200.53 2.09438 4.57323 0
M  V30 2121 H 200.23 3.84556 4.44286 0
M  V30 2122 H 201.754 3.25613 5.16535 0
M  V30 2123 H 203.168 4.6414 3.36522 0
M  V30 2124 H 201.565 5.2654 2.87881 0
M  V30 2125 H 202.635 4.55777 1.65514 0
M  V30 2126 N 203.978 -0.674533 1.42435 0
M  V30 2127 C 205.389 -1.25514 1.38214 0
M  V30 2128 C 205.74 -1.96055 0.0755464 0
M  V30 2129 O 204.865 -2.00028 -0.8257 0
M  V30 2130 C 205.46 -2.28269 2.50357 0
M  V30 2131 C 204.019 -2.81856 2.49467 0
M  V30 2132 C 203.166 -1.56182 2.29134 0
M  V30 2133 H 206.117 -0.467902 1.51646 0
M  V30 2134 H 206.138 -3.10009 2.20624 0
M  V30 2135 H 205.65 -1.769 3.45439 0
M  V30 2136 H 203.751 -3.37346 1.58204 0
M  V30 2137 H 203.864 -3.30854 3.46515 0
M  V30 2138 H 202.228 -1.82761 1.774 0
M  V30 2139 H 203.011 -1.06778 3.26272 0
M  V30 2140 N 205.456 -1.28612 -0.910864 0
M  V30 2141 C 206.419 -1.12803 -1.9952 0
M  V30 2142 C 207.419 -0.0668264 -1.60661 0
M  V30 2143 O 208.609 -0.312847 -1.71368 0
M  V30 2144 C 205.741 -0.72254 -3.33155 0
M  V30 2145 H 206.934 -2.09109 -2.14973 0
M  V30 2146 H 204.487 -1.11639 -1.09391 0
M  V30 2147 H 205.222 0.241152 -3.23402 0
M  V30 2148 H 205.007 -1.48916 -3.62721 0
M  V30 2149 H 206.497 -0.634666 -4.12749 0
M  V30 2150 N 206.934 1.1197 -1.10907 0
M  V30 2151 C 207.866 2.17592 -0.720175 0
M  V30 2152 C 208.879 1.60938 0.245495 0
M  V30 2153 O 210.068 1.78476 0.0292245 0
M  V30 2154 C 207.168 3.38873 -0.0427917 0
M  V30 2155 C 206.341 4.25006 -1.03388 0
M  V30 2156 C 205.4 5.24774 -0.387075 0
M  V30 2157 O 204.426 5.59631 -1.03934 0
M  V30 2158 N 205.628 5.74208 0.852407 0
M  V30 2159 H 208.393 2.51567 -1.62893 0
M  V30 2160 H 205.954 1.27439 -0.998543 0
M  V30 2161 H 207.946 4.02703 0.401501 0
M  V30 2162 H 206.516 3.03007 0.768456 0
M  V30 2163 H 205.736 3.57716 -1.65629 0
M  V30 2164 H 207.024 4.79397 -1.70458 0
M  V30 2165 H 206.422 5.48062 1.40161 0
M  V30 2166 H 204.979 6.39901 1.23977 0
M  V30 2167 N 208.412 0.89855 1.29475 0
M  V30 2168 C 209.66 0.522847 1.9522 0
M  V30 2169 C 209.981 -0.93371 1.71192 0
M  V30 2170 O 209.251 -1.65823 1.04305 0
M  V30 2171 H 207.831 0.190366 0.722336 0
M  V30 2172 H 210.493 1.14459 1.5775 0
M  V30 2173 H 209.589 0.704476 3.04045 0
M  V30 2174 N 209.89 -1.43072 0.660911 0
M  V30 2175 C 211.306 -1.56169 0.329173 0
M  V30 2176 C 211.506 -1.64317 -1.16629 0
M  V30 2177 O 210.562 -1.60245 -1.95135 0
M  V30 2178 C 211.875 -2.81873 1.04729 0
M  V30 2179 C 213.423 -2.95627 1.02828 0
M  V30 2180 C 213.898 -4.24174 1.72744 0
M  V30 2181 N 215.389 -4.31055 1.69545 0
M  V30 2182 C 216.124 -5.29304 2.20511 0
M  V30 2183 N 215.62 -6.33786 2.79799 0
M  V30 2184 N 217.413 -5.21008 2.10966 0
M  V30 2185 H 209.564 -1.36027 1.63127 0
M  V30 2186 H 211.827 -0.653823 0.686454 0
M  V30 2187 H 211.533 -2.81942 2.10242 0
M  V30 2188 H 211.407 -3.72338 0.603702 0
M  V30 2189 H 213.794 -2.95094 -0.0184742 0
M  V30 2190 H 213.875 -2.06431 1.51063 0
M  V30 2191 H 213.519 -4.25467 2.7738 0
M  V30 2192 H 213.449 -5.1228 1.2197 0
M  V30 2193 H 215.94 -3.56174 1.26288 0
M  V30 2194 H 216.253 -7.05086 3.16344 0
M  V30 2195 H 214.598 -6.34387 2.83863 0
M  V30 2196 H 217.789 -4.38301 1.64347 0
M  V30 2197 H 217.962 -5.97416 2.50993 0
M  V30 2198 N 211.368 -0.403325 -1.52352 0
M  V30 2199 C 212.784 -0.0539281 -1.59509 0
M  V30 2200 C 212.984 1.43307 -1.41652 0
M  V30 2201 O 212.04 2.19924 -1.24056 0
M  V30 2202 C 213.353 -0.543654 -2.95745 0
M  V30 2203 C 214.901 -0.501125 -3.08962 0
M  V30 2204 C 215.376 -0.967267 -4.47669 0
M  V30 2205 N 216.867 -0.923849 -4.53893 0
M  V30 2206 C 217.602 -1.25578 -5.5948 0
M  V30 2207 N 217.098 -1.65889 -6.72646 0
M  V30 2208 N 218.891 -1.17613 -5.49658 0
M  V30 2209 H 211.042 -1.37123 -1.62206 0
M  V30 2210 H 213.305 -0.56294 -0.76276 0
M  V30 2211 H 213.011 -1.58275 -3.14073 0
M  V30 2212 H 212.885 0.0498042 -3.77167 0
M  V30 2213 H 215.272 0.528909 -2.90321 0
M  V30 2214 H 215.353 -1.13056 -2.2946 0
M  V30 2215 H 214.997 -1.9956 -4.67053 0
M  V30 2216 H 214.927 -0.314698 -5.25659 0
M  V30 2217 H 217.418 -0.627403 -3.72655 0
M  V30 2218 H 217.731 -1.89543 -7.49195 0
M  V30 2219 H 216.076 -1.69787 -6.73942 0
M  V30 2220 H 219.267 -0.860115 -4.6013 0
M  V30 2221 H 219.44 -1.43812 -6.3184 0
M  V30 2222 N 212.846 1.57033 -0.133567 0
M  V30 2223 C 213.776 2.1909 0.807567 0
M  V30 2224 C 214.757 1.13517 1.26681 0
M  V30 2225 O 215.942 1.41809 1.32679 0
M  V30 2226 C 213.072 2.80188 2.05212 0
M  V30 2227 C 212.026 3.91471 1.73015 0
M  V30 2228 C 211.352 4.39443 3.04622 0
M  V30 2229 C 212.652 5.12886 0.987168 0
M  V30 2230 H 214.346 2.97988 0.290403 0
M  V30 2231 H 211.892 1.43335 0.138239 0
M  V30 2232 H 213.845 3.22264 2.71521 0
M  V30 2233 H 212.569 1.98601 2.59278 0
M  V30 2234 H 211.228 3.49993 1.0909 0
M  V30 2235 H 210.876 3.54695 3.56651 0
M  V30 2236 H 210.576 5.14495 2.83847 0
M  V30 2237 H 212.1 4.8418 3.72024 0
M  V30 2238 H 213.514 5.51891 1.55208 0
M  V30 2239 H 211.911 5.93615 0.87985 0
M  V30 2240 H 212.981 4.84894 -0.0235286 0
M  V30 2241 N 214.325 -0.140222 1.56975 0
M  V30 2242 C 215.573 -0.850005 1.83356 0
M  V30 2243 C 215.894 -1.81399 0.71551 0
M  V30 2244 O 215.164 -1.94136 -0.262294 0
M  V30 2245 H 213.744 -0.316886 0.676456 0
M  V30 2246 H 216.406 -0.132608 1.94448 0
M  V30 2247 H 215.502 -1.40814 2.78528 0
M  V30 2248 N 215.803 -1.52179 -0.40978 0
M  V30 2249 C 216.751 -1.76086 -1.51975 0
M  V30 2250 C 217.745 -0.627964 -1.57331 0
M  V30 2251 O 218.951 -0.809993 -1.60745 0
M  V30 2252 H 215.326 -0.556829 -0.505416 0
M  V30 2253 H 217.297 -2.69077 -1.28996 0
M  V30 2254 C 216.046 -1.92799 -2.8935 0
M  V30 2255 H 215.369 -2.79392 -2.85972 0
M  V30 2256 H 216.809 -2.13527 -3.66309 0
M  V30 2257 C 215.268 -0.694923 -3.29655 0
M  V30 2258 O 215.798 0.13751 -4.01465 0
M  V30 2259 N 214.004 -0.53101 -2.85707 0
M  V30 2260 H 213.551 -1.20952 -2.27439 0
M  V30 2261 H 213.509 0.292718 -3.13034 0
M  V30 2262 N 217.281 0.66697 -1.42791 0
M  V30 2263 C 218.529 1.42417 -1.43394 0
M  V30 2264 C 218.85 1.94925 -0.0542373 0
M  V30 2265 O 218.12 1.73564 0.908415 0
M  V30 2266 H 216.7 0.528515 -0.527902 0
M  V30 2267 H 219.362 0.787562 -1.78279 0
M  V30 2268 H 218.458 2.27333 -2.13837 0
M  V30 2269 N 218.759 1.29093 0.90403 0
M  V30 2270 C 220.005 1.16986 1.65656 0
M  V30 2271 C 220.338 -0.278925 1.92186 0
M  V30 2272 O 219.613 -1.2019 1.5292 0
M  V30 2273 C 219.896 1.97908 3.0084 0
M  V30 2274 C 219.749 3.50903 2.81403 0
M  V30 2275 C 221.068 1.80208 4.01513 0
M  V30 2276 H 218.187 0.426346 0.601164 0
M  V30 2277 H 220.829 1.58518 1.04747 0
M  V30 2278 H 218.979 1.62616 3.52829 0
M  V30 2279 H 220.651 3.96153 2.36348 0
M  V30 2280 H 218.894 3.76045 2.1627 0
M  V30 2281 H 219.565 4.02791 3.77443 0
M  V30 2282 H 222.041 2.11025 3.58619 0
M  V30 2283 H 220.917 2.39184 4.94047 0
M  V30 2284 H 221.178 0.756119 4.35586 0
M  V30 2285 N 220.237 -1.11381 1.11499 0
M  V30 2286 C 221.169 -2.17207 0.731704 0
M  V30 2287 C 222.182 -1.61066 -0.236957 0
M  V30 2288 O 223.371 -1.78489 -0.0197591 0
M  V30 2289 C 220.471 -3.38846 0.0607624 0
M  V30 2290 C 219.644 -4.24451 1.0564 0
M  V30 2291 C 218.703 -5.24562 0.4149 0
M  V30 2292 O 217.729 -5.59071 1.069 0
M  V30 2293 N 218.931 -5.74651 -0.821943 0
M  V30 2294 H 221.696 -2.50699 1.64225 0
M  V30 2295 H 219.257 -1.26908 1.00529 0
M  V30 2296 H 221.249 -4.02911 -0.380139 0
M  V30 2297 H 219.819 -3.03411 -0.752376 0
M  V30 2298 H 219.039 -3.56833 1.67524 0
M  V30 2299 H 220.327 -4.78486 1.72998 0
M  V30 2300 H 219.725 -5.48797 -1.37252 0
M  V30 2301 H 218.282 -6.40549 -1.20582 0
M  V30 2302 N 221.715 -0.905404 -1.28997 0
M  V30 2303 C 222.955 -0.541232 -1.97104 0
M  V30 2304 C 223.319 0.896841 -1.69767 0
M  V30 2305 O 224.52 1.36817 -2.31375 0
M  V30 2306 C 222.791 -0.832134 -3.47578 0
M  V30 2307 S 224.35 -0.573127 -4.35041 0
M  V30 2308 H 221.168 -0.200576 -0.682122 0
M  V30 2309 H 223.77 -1.16906 -1.56694 0
M  V30 2310 H 222.474 -1.87687 -3.64968 0
M  V30 2311 H 222.005 -0.192636 -3.92928 0
M  V30 2312 H 224.02 0.579297 -4.92807 0
M  V30 2313 N 223.193 1.4272 -0.668489 0
M  V30 2314 C 224.123 2.335 -0.000100175 0
M  V30 2315 C 225.104 1.50328 0.795964 0
M  V30 2316 O 226.289 1.78949 0.754385 0
M  V30 2317 C 223.419 3.33874 0.956302 0
M  V30 2318 C 222.373 4.27152 0.269278 0
M  V30 2319 C 221.699 5.17684 1.33818 0
M  V30 2320 C 222.999 5.15373 -0.847805 0
M  V30 2321 H 224.693 2.89639 -0.758244 0
M  V30 2322 H 222.239 1.39269 -0.366079 0
M  V30 2323 H 224.192 3.9629 1.43292 0
M  V30 2324 H 222.916 2.76025 1.74579 0
M  V30 2325 H 221.575 3.66123 -0.187042 0
M  V30 2326 H 221.223 4.56165 2.1195 0
M  V30 2327 H 220.923 5.80918 0.883659 0
M  V30 2328 H 222.447 5.82974 1.81586 0
M  V30 2329 H 223.861 5.7151 -0.452681 0
M  V30 2330 H 222.258 5.87407 -1.22773 0
M  V30 2331 H 223.328 4.5415 -1.69929 0
M  V30 2332 N 224.671 0.411399 1.52136 0
M  V30 2333 C 225.634 -0.401089 2.25663 0
M  V30 2334 C 226.634 -0.971732 1.28117 0
M  V30 2335 O 227.824 -0.850254 1.52041 0
M  V30 2336 C 224.956 -1.56483 3.02863 0
M  V30 2337 H 226.149 0.24295 2.98914 0
M  V30 2338 H 223.702 0.163968 1.55438 0
M  V30 2339 H 224.437 -2.24567 2.33967 0
M  V30 2340 H 224.222 -1.16211 3.74483 0
M  V30 2341 H 225.712 -2.13951 3.58629 0
M  V30 2342 N 226.149 -1.5696 0.141893 0
M  V30 2343 C 227.082 -2.12271 -0.837627 0
M  V30 2344 C 228.06 -1.04495 -1.24578 0
M  V30 2345 O 229.244 -1.32293 -1.34278 0
M  V30 2346 C 226.371 -2.63822 -2.12404 0
M  V30 2347 C 225.417 -3.83698 -1.86221 0
M  V30 2348 S 226.25 -5.24948 -1.05781 0
M  V30 2349 C 227.406 -5.79884 -2.35552 0
M  V30 2350 H 227.639 -2.95023 -0.367249 0
M  V30 2351 H 225.172 -1.54231 -0.0723014 0
M  V30 2352 H 227.13 -2.94175 -2.86307 0
M  V30 2353 H 225.791 -1.8121 -2.56557 0
M  V30 2354 H 224.984 -4.17995 -2.81596 0
M  V30 2355 H 224.586 -3.5408 -1.20429 0
M  V30 2356 H 226.878 -5.91005 -3.31239 0
M  V30 2357 H 227.821 -6.77544 -2.05767 0
M  V30 2358 H 228.229 -5.08095 -2.45967 0
M  V30 2359 N 227.627 0.131896 -1.57047 0
M  V30 2360 C 228.875 0.840269 -1.83804 0
M  V30 2361 C 229.196 1.81017 -0.72512 0
M  V30 2362 O 228.466 1.94272 0.251995 0
M  V30 2363 H 227.046 0.313294 -0.678127 0
M  V30 2364 H 229.708 0.122294 -1.94516 0
M  V30 2365 H 228.804 1.39335 -2.79271 0
M  V30 2366 N 229.106 1.52395 0.401703 0
M  V30 2367 C 230.352 1.68019 1.14635 0
M  V30 2368 C 230.707 0.408722 1.88009 0
M  V30 2369 O 230 -0.597133 1.82057 0
M  V30 2370 C 230.194 2.84578 2.16217 0
M  V30 2371 C 230.023 4.22938 1.5282 0
M  V30 2372 C 228.793 4.88352 1.29772 0
M  V30 2373 C 230.991 5.04778 0.985094 0
M  V30 2374 N 228.973 6.10726 0.623455 0
M  V30 2375 C 230.344 6.1845 0.438172 0
M  V30 2376 C 232.399 4.90057 0.880275 0
M  V30 2377 C 231.102 7.19013 -0.203306 0
M  V30 2378 C 233.128 5.9086 0.252639 0
M  V30 2379 C 232.49 7.03829 -0.283573 0
M  V30 2380 H 228.589 0.668413 0.405892 0
M  V30 2381 H 231.173 1.89717 0.437674 0
M  V30 2382 H 229.344 2.64483 2.84435 0
M  V30 2383 H 231.076 2.89202 2.83098 0
M  V30 2384 H 227.831 4.46846 1.56926 0
M  V30 2385 H 228.255 6.76323 0.302733 0
M  V30 2386 H 232.897 4.02938 1.28065 0
M  V30 2387 H 230.615 8.05751 -0.615726 0
M  V30 2388 H 234.201 5.81543 0.172954 0
M  V30 2389 H 233.081 7.80493 -0.761575 0
M  V30 2390 N 230.584 -0.659388 1.43143 0
M  V30 2391 C 231.832 -1.41654 1.44147 0
M  V30 2392 C 232.153 -1.94893 0.0645739 0
M  V30 2393 O 231.423 -1.74044 -0.899198 0
M  V30 2394 H 230.003 -0.525708 0.530697 0
M  V30 2395 H 232.665 -0.778097 1.78694 0
M  V30 2396 H 231.761 -2.26195 2.1504 0
M  V30 2397 N 232.062 -1.29571 -0.897171 0
M  V30 2398 C 232.992 -1.17473 -2.01798 0
M  V30 2399 C 233.973 -0.068323 -1.69963 0
M  V30 2400 O 235.158 -0.248239 -1.92607 0
M  V30 2401 C 232.288 -0.853099 -3.36659 0
M  V30 2402 C 231.242 -1.9161 -3.82713 0
M  V30 2403 C 230.568 -1.44773 -5.14728 0
M  V30 2404 C 231.868 -3.32535 -4.02763 0
M  V30 2405 H 233.562 -2.11237 -2.12177 0
M  V30 2406 H 231.108 -1.01699 -1.01948 0
M  V30 2407 H 233.061 -0.755165 -4.14578 0
M  V30 2408 H 231.785 0.120236 -3.26379 0
M  V30 2409 H 230.444 -2.00346 -3.07013 0
M  V30 2410 H 230.092 -0.462995 -5.00865 0
M  V30 2411 H 229.792 -2.15865 -5.46513 0
M  V30 2412 H 231.316 -1.36334 -5.95185 0
M  V30 2413 H 232.73 -3.26626 -4.71156 0
M  V30 2414 H 231.127 -4.01607 -4.45905 0
M  V30 2415 H 232.197 -3.75326 -3.07016 0
M  V30 2416 N 233.54 1.10788 -1.12088 0
M  V30 2417 C 234.47 2.19083 -0.807755 0
M  V30 2418 C 235.451 1.6858 0.226859 0
M  V30 2419 O 236.636 1.93997 0.0888475 0
M  V30 2420 C 233.766 3.46344 -0.257576 0
M  V30 2421 C 232.72 4.101 -1.22483 0
M  V30 2422 C 232.046 5.32016 -0.535052 0
M  V30 2423 C 233.346 4.54236 -2.57811 0
M  V30 2424 H 235.04 2.45534 -1.71328 0
M  V30 2425 H 232.586 1.1801 -0.825205 0
M  V30 2426 H 234.539 4.21392 -0.0262679 0
M  V30 2427 H 233.263 3.19373 0.683278 0
M  V30 2428 H 231.922 3.37054 -1.44189 0
M  V30 2429 H 231.57 5.01319 0.410827 0
M  V30 2430 H 231.27 5.75625 -1.18024 0
M  V30 2431 H 232.794 6.09799 -0.312695 0
M  V30 2432 H 234.208 5.20575 -2.40155 0
M  V30 2433 H 232.605 5.08682 -3.18375 0
M  V30 2434 H 233.675 3.6734 -3.16528 0
M  V30 2435 N 235.018 0.912232 1.28515 0
M  V30 2436 C 236.266 0.543523 1.94654 0
M  V30 2437 C 236.587 -0.9155 1.72173 0
M  V30 2438 O 235.857 -1.64708 1.06058 0
M  V30 2439 H 234.437 0.198017 0.720277 0
M  V30 2440 H 237.099 1.16126 1.56527 0
M  V30 2441 H 236.195 0.736684 3.03281 0
M  V30 2442 N 236.496 -1.42363 0.676048 0
M  V30 2443 C 237.912 -1.55811 0.345718 0
M  V30 2444 C 238.112 -1.65544 -1.14879 0
M  V30 2445 O 237.168 -1.62306 -1.93424 0
M  V30 2446 C 238.481 -2.80746 1.07713 0
M  V30 2447 C 240.029 -2.9452 1.05958 0
M  V30 2448 C 240.504 -4.22318 1.77233 0
M  V30 2449 N 241.995 -4.29233 1.74108 0
M  V30 2450 C 242.73 -5.26935 2.26113 0
M  V30 2451 N 242.226 -6.30783 2.86505 0
M  V30 2452 N 244.019 -5.18741 2.1648 0
M  V30 2453 H 236.17 -1.34289 1.6456 0
M  V30 2454 H 238.433 -0.646506 0.69335 0
M  V30 2455 H 238.139 -2.79696 2.13221 0
M  V30 2456 H 238.013 -3.71676 0.64316 0
M  V30 2457 H 240.4 -2.95097 0.0128255 0
M  V30 2458 H 240.481 -2.04817 1.53244 0
M  V30 2459 H 240.125 -4.22502 2.81877 0
M  V30 2460 H 240.055 -5.10958 1.27396 0
M  V30 2461 H 242.546 -3.54814 1.30059 0
M  V30 2462 H 242.859 -7.01691 3.23805 0
M  V30 2463 H 241.204 -6.31341 2.90575 0
M  V30 2464 H 244.395 -4.36533 1.68987 0
M  V30 2465 H 244.568 -5.94721 2.57316 0
M  V30 2466 N 237.974 -0.419461 -1.51915 0
M  V30 2467 C 238.922 0.415502 -2.28859 0
M  V30 2468 C 239.916 1.03674 -1.3397 0
M  V30 2469 O 241.122 0.973757 -1.51387 0
M  V30 2470 H 237.497 0.152786 -0.736315 0
M  V30 2471 H 239.468 -0.254531 -2.97312 0
M  V30 2472 C 238.217 1.51425 -3.12995 0
M  V30 2473 H 237.54 1.04556 -3.85886 0
M  V30 2474 H 238.98 2.07208 -3.6992 0
M  V30 2475 C 237.439 2.48745 -2.27217 0
M  V30 2476 O 237.969 3.52871 -1.9195 0
M  V30 2477 N 236.175 2.19202 -1.90785 0
M  V30 2478 H 235.722 1.34556 -2.19664 0
M  V30 2479 H 235.68 2.84561 -1.33687 0
M  V30 2480 N 239.452 1.56882 -0.150215 0
M  V30 2481 C 240.868 1.58263 0.20617 0
M  V30 2482 C 241.068 1.16464 1.64434 0
M  V30 2483 O 240.124 0.866422 2.3717 0
M  V30 2484 C 241.437 3.00649 -0.0555025 0
M  V30 2485 C 242.985 3.12999 0.00795388 0
M  V30 2486 C 243.46 4.5744 -0.226429 0
M  V30 2487 N 244.951 4.62875 -0.173469 0
M  V30 2488 C 245.686 5.72454 -0.329288 0
M  V30 2489 N 245.182 6.90669 -0.543005 0
M  V30 2490 N 246.975 5.61467 -0.266666 0
M  V30 2491 H 239.126 1.82345 -1.08922 0
M  V30 2492 H 241.389 0.844149 -0.431413 0
M  V30 2493 H 241.095 3.3563 -1.05096 0
M  V30 2494 H 240.969 3.71337 0.66246 0
M  V30 2495 H 243.356 2.77857 0.993966 0
M  V30 2496 H 243.437 2.4479 -0.742388 0
M  V30 2497 H 243.081 4.93287 -1.20956 0
M  V30 2498 H 243.011 5.2378 0.544274 0
M  V30 2499 H 245.502 3.77898 -0.0130709 0
M  V30 2500 H 245.815 7.70045 -0.651922 0
M  V30 2501 H 244.16 6.92581 -0.579366 0
M  V30 2502 H 247.351 4.67992 -0.100441 0
M  V30 2503 H 247.524 6.46816 -0.391535 0
M  V30 2504 N 240.93 -0.123565 1.57115 0
M  V30 2505 C 242.178 -0.83051 1.84247 0
M  V30 2506 C 242.499 -1.80629 0.73471 0
M  V30 2507 O 241.769 -1.94403 -0.241688 0
M  V30 2508 H 240.349 -0.309694 0.679778 0
M  V30 2509 H 243.011 -0.111976 1.94578 0
M  V30 2510 H 242.107 -1.37852 2.80006 0
M  V30 2511 N 242.408 -1.52605 -0.393616 0
M  V30 2512 C 243.657 -1.66649 -1.13627 0
M  V30 2513 C 243.97 -0.410364 -1.91247 0
M  V30 2514 O 245.176 -0.430854 -2.68059 0
M  V30 2515 C 243.632 -2.9449 -2.06891 0
M  V30 2516 C 243.24 -4.27266 -1.34714 0
M  V30 2517 C 244.984 -3.17899 -2.81319 0
M  V30 2518 C 242.891 -5.46217 -2.26717 0
M  V30 2519 H 241.821 -0.62084 -0.427871 0
M  V30 2520 H 244.472 -1.791 -0.399428 0
M  V30 2521 H 242.854 -2.75774 -2.84191 0
M  V30 2522 H 244.028 -4.56518 -0.626714 0
M  V30 2523 H 242.343 -4.10081 -0.722643 0
M  V30 2524 H 244.94 -4.03949 -3.50328 0
M  V30 2525 H 245.283 -2.32777 -3.45139 0
M  V30 2526 H 245.816 -3.37159 -2.11113 0
M  V30 2527 H 242.555 -6.33733 -1.67521 0
M  V30 2528 H 242.075 -5.21283 -2.96689 0
M  V30 2529 H 243.754 -5.7991 -2.86903 0
M  V30 2530 N 243.887 0.651787 -1.4349 0
M  V30 2531 C 244.85 1.74647 -1.48429 0
M  V30 2532 C 245.85 1.56513 -0.368817 0
M  V30 2533 O 247.04 1.62385 -0.630623 0
M  V30 2534 C 244.172 3.13533 -1.33827 0
M  V30 2535 H 245.365 1.71649 -2.4592 0
M  V30 2536 H 242.918 0.863573 -1.30277 0
M  V30 2537 H 243.653 3.22142 -0.37349 0
M  V30 2538 H 243.438 3.28101 -2.14691 0
M  V30 2539 H 244.928 3.93356 -1.40218 0
M  V30 2540 N 245.365 1.30045 0.890287 0
M  V30 2541 C 246.59 1.21598 1.68014 0
M  V30 2542 C 247.015 -0.218678 1.86825 0
M  V30 2543 O 246.373 -1.15756 1.39536 0
M  V30 2544 C 246.421 1.94434 3.03691 0
M  V30 2545 O 245.525 1.2678 3.92429 0
M  V30 2546 H 244.866 0.420856 0.513592 0
M  V30 2547 H 247.396 1.71775 1.11151 0
M  V30 2548 H 247.406 2.03251 3.5377 0
M  V30 2549 H 246.081 2.98777 2.89318 0
M  V30 2550 H 244.658 1.26282 3.50866 0
M  V30 2551 N 246.843 -1.10192 1.12674 0
M  V30 2552 C 248.089 -1.82475 0.884915 0
M  V30 2553 C 248.422 -1.85093 -0.58773 0
M  V30 2554 O 247.697 -1.3134 -1.43457 0
M  V30 2555 C 247.98 -3.29018 1.46353 0
M  V30 2556 C 247.833 -3.34718 3.00473 0
M  V30 2557 C 249.152 -4.25473 1.12519 0
M  V30 2558 H 246.271 -0.662492 0.322915 0
M  V30 2559 H 248.913 -1.2913 1.39375 0
M  V30 2560 H 247.063 -3.74576 1.03077 0
M  V30 2561 H 248.735 -2.97622 3.52447 0
M  V30 2562 H 246.978 -2.74541 3.35872 0
M  V30 2563 H 247.649 -4.37918 3.36053 0
M  V30 2564 H 250.125 -3.88161 1.499 0
M  V30 2565 H 249.001 -5.26365 1.55663 0
M  V30 2566 H 249.262 -4.42084 0.0377407 0
M  V30 2567 N 248.321 -0.919034 -1.28029 0
M  V30 2568 C 249.251 -0.428581 -2.29533 0
M  V30 2569 C 250.232 0.50659 -1.62381 0
M  V30 2570 O 251.417 0.413195 -1.89753 0
M  V30 2571 C 248.547 0.327388 -3.45753 0
M  V30 2572 C 247.501 -0.519137 -4.2484 0
M  V30 2573 C 246.827 0.365486 -5.33449 0
M  V30 2574 C 248.127 -1.77914 -4.91064 0
M  V30 2575 H 249.821 -1.27687 -2.70807 0
M  V30 2576 H 247.367 -0.615428 -1.30186 0
M  V30 2577 H 249.32 0.681378 -4.15855 0
M  V30 2578 H 248.044 1.20963 -3.03374 0
M  V30 2579 H 246.703 -0.855717 -3.56473 0
M  V30 2580 H 246.351 1.24642 -4.87312 0
M  V30 2581 H 246.051 -0.197356 -5.87268 0
M  V30 2582 H 247.575 0.715241 -6.06396 0
M  V30 2583 H 248.989 -1.49374 -5.53498 0
M  V30 2584 H 247.386 -2.2848 -5.54903 0
M  V30 2585 H 248.456 -2.50382 -4.15255 0
M  V30 2586 N 249.799 1.42003 -0.683588 0
M  V30 2587 C 250.731 2.29183 0.0283068 0
M  V30 2588 C 251.744 1.4415 0.756611 0
M  V30 2589 O 252.933 1.67779 0.609306 0
M  V30 2590 C 250.033 3.21765 1.06398 0
M  V30 2591 C 249.206 4.35496 0.407723 0
M  V30 2592 C 248.265 5.08737 1.34437 0
M  V30 2593 O 247.291 5.62948 0.841318 0
M  V30 2594 N 248.493 5.15075 2.67728 0
M  V30 2595 H 251.258 2.9092 -0.720105 0
M  V30 2596 H 248.819 1.53025 -0.528682 0
M  V30 2597 H 250.811 3.6763 1.69204 0
M  V30 2598 H 249.381 2.61418 1.71404 0
M  V30 2599 H 248.601 3.92165 -0.400012 0
M  V30 2600 H 249.889 5.08776 -0.0490956 0
M  V30 2601 H 249.287 4.72457 3.11129 0
M  V30 2602 H 247.844 5.64556 3.2576 0
M  V30 2603 N 251.277 0.427512 1.51691 0
M  V30 2604 C 252.187 -0.39527 2.31246 0
M  V30 2605 C 253.203 -1.03674 1.39742 0
M  V30 2606 O 254.379 -1.03425 1.72816 0
M  V30 2607 C 251.444 -1.48706 3.13189 0
M  V30 2608 C 250.505 -0.866743 4.20459 0
M  V30 2609 C 249.738 -1.90651 4.98486 0
M  V30 2610 O 249.961 -3.12733 4.77026 0
M  V30 2611 O 248.895 -1.5025 5.82845 0
M  V30 2612 H 252.721 0.253918 3.02637 0
M  V30 2613 H 250.306 0.190274 1.48183 0
M  V30 2614 H 252.188 -2.12047 3.64162 0
M  V30 2615 H 250.863 -2.12051 2.44573 0
M  V30 2616 H 249.77 -0.195544 3.73589 0
M  V30 2617 H 251.103 -0.276934 4.9142 0
M  V30 2618 N 252.755 -1.56801 0.158532 0
M  V30 2619 C 253.685 -2.20347 -0.772609 0
M  V30 2620 C 254.666 -1.15518 -1.24859 0
M  V30 2621 O 255.851 -1.43902 -1.30406 0
M  V30 2622 C 252.981 -2.83417 -2.00729 0
M  V30 2623 C 251.935 -3.94174 -1.66765 0
M  V30 2624 C 251.261 -4.44233 -2.97592 0
M  V30 2625 C 252.561 -5.14392 -0.905447 0
M  V30 2626 H 254.255 -2.98413 -0.242959 0
M  V30 2627 H 251.801 -1.43537 -0.115419 0
M  V30 2628 H 253.754 -3.26543 -2.6636 0
M  V30 2629 H 252.478 -2.02701 -2.56086 0
M  V30 2630 H 251.137 -3.51684 -1.03508 0
M  V30 2631 H 250.785 -3.60325 -3.50963 0
M  V30 2632 H 250.485 -5.18945 -2.75626 0
M  V30 2633 H 252.009 -4.90037 -3.64274 0
M  V30 2634 H 253.423 -5.5429 -1.46408 0
M  V30 2635 H 251.82 -5.9494 -0.7853 0
M  V30 2636 H 252.89 -4.84795 0.100668 0
M  V30 2637 N 254.233 0.115231 -1.57178 0
M  V30 2638 C 255.181 1.16014 -2.01602 0
M  V30 2639 C 256.175 1.42653 -0.913587 0
M  V30 2640 O 257.381 1.42571 -1.09879 0
M  V30 2641 H 253.756 0.391252 -0.642204 0
M  V30 2642 H 255.727 0.758998 -2.88586 0
M  V30 2643 C 254.476 2.47767 -2.4394 0
M  V30 2644 H 253.799 2.28108 -3.28339 0
M  V30 2645 H 255.239 3.19432 -2.78818 0
M  V30 2646 C 253.698 3.10617 -1.30455 0
M  V30 2647 O 254.228 3.96846 -0.622585 0
M  V30 2648 N 252.434 2.70553 -1.06064 0
M  V30 2649 H 251.981 2.00527 -1.61699 0
M  V30 2650 H 251.939 3.12934 -0.303284 0
M  V30 2651 N 255.711 1.52812 0.385517 0
M  V30 2652 C 256.957 1.68275 1.13188 0
M  V30 2653 C 257.29 0.423179 1.89533 0
M  V30 2654 O 256.565 -0.579113 1.85679 0
M  V30 2655 C 256.848 2.92001 2.1073 0
M  V30 2656 C 256.701 4.28067 1.38125 0
M  V30 2657 C 258.02 3.11283 3.11113 0
M  V30 2658 H 255.139 0.612352 0.410115 0
M  V30 2659 H 257.781 1.85415 0.414869 0
M  V30 2660 H 255.931 2.77519 2.71874 0
M  V30 2661 H 257.603 4.54324 0.799187 0
M  V30 2662 H 255.846 4.28388 0.683092 0
M  V30 2663 H 256.517 5.10733 2.09417 0
M  V30 2664 H 258.993 3.2482 2.6006 0
M  V30 2665 H 257.869 3.99325 3.76605 0
M  V30 2666 H 258.13 2.25656 3.80173 0
M  V30 2667 N 257.189 -0.644168 1.43834 0
M  V30 2668 C 258.417 -1.43147 1.49387 0
M  V30 2669 C 258.832 -1.88452 0.114583 0
M  V30 2670 O 258.189 -1.60047 -0.876989 0
M  V30 2671 C 258.24 -2.66046 2.44748 0
M  V30 2672 O 257.961 -2.22633 3.77314 0
M  V30 2673 C 259.462 -3.59311 2.59635 0
M  V30 2674 H 256.682 -0.439447 0.507077 0
M  V30 2675 H 259.226 -0.78895 1.88669 0
M  V30 2676 H 257.381 -3.26418 2.08638 0
M  V30 2677 H 257.795 -3.02216 4.28679 0
M  V30 2678 H 259.269 -4.42187 3.30416 0
M  V30 2679 H 259.746 -4.07259 1.64427 0
M  V30 2680 H 260.352 -3.04816 2.96593 0
M  V30 2681 N 258.668 -1.30515 -0.883378 0
M  V30 2682 C 259.914 -1.19607 -1.63774 0
M  V30 2683 C 260.247 0.248314 -1.92606 0
M  V30 2684 O 259.522 1.17742 -1.54813 0
M  V30 2685 C 259.805 -2.02669 -2.97653 0
M  V30 2686 C 259.658 -3.55335 -2.75784 0
M  V30 2687 C 260.977 -1.86573 -3.98596 0
M  V30 2688 H 258.096 -0.435856 -0.594305 0
M  V30 2689 H 260.738 -1.60165 -1.02212 0
M  V30 2690 H 258.888 -1.68208 -3.50197 0
M  V30 2691 H 260.56 -3.99863 -2.30016 0
M  V30 2692 H 258.803 -3.79438 -2.1026 0
M  V30 2693 H 259.474 -4.08745 -3.70988 0
M  V30 2694 H 261.95 -2.16703 -3.55217 0
M  V30 2695 H 260.826 -2.47014 -4.90179 0
M  V30 2696 H 261.087 -0.825321 -4.34328 0
M  V30 2697 N 260.146 1.09593 -1.13257 0
M  V30 2698 C 261.392 1.82003 -0.89458 0
M  V30 2699 C 261.725 1.85402 0.577906 0
M  V30 2700 O 261 1.32099 1.42759 0
M  V30 2701 C 261.283 3.28237 -1.48096 0
M  V30 2702 C 261.136 3.3312 -3.02244 0
M  V30 2703 C 262.455 4.24871 -1.14774 0
M  V30 2704 H 259.574 0.66077 -0.326424 0
M  V30 2705 H 262.216 1.28389 -1.40058 0
M  V30 2706 H 260.366 3.74024 -1.05062 0
M  V30 2707 H 262.038 2.95748 -3.54021 0
M  V30 2708 H 260.281 2.72756 -3.37323 0
M  V30 2709 H 260.952 4.3613 -3.38371 0
M  V30 2710 H 263.428 3.87361 -1.51957 0
M  V30 2711 H 262.304 5.25532 -1.58452 0
M  V30 2712 H 262.565 4.42058 -0.0611849 0
M  V30 2713 N 261.624 0.925811 1.2754 0
M  V30 2714 C 262.852 0.581509 1.9856 0
M  V30 2715 C 263.267 -0.840041 1.69082 0
M  V30 2716 O 262.624 -1.55805 0.950312 0
M  V30 2717 C 262.675 0.795589 3.52637 0
M  V30 2718 O 262.396 2.16121 3.81082 0
M  V30 2719 C 263.897 0.459744 4.4091 0
M  V30 2720 H 261.117 0.220538 0.633722 0
M  V30 2721 H 263.661 1.24232 1.6244 0
M  V30 2722 H 261.816 0.18161 3.86974 0
M  V30 2723 H 262.23 2.2098 4.75676 0
M  V30 2724 H 263.704 0.660244 5.48037 0
M  V30 2725 H 264.181 -0.604625 4.35018 0
M  V30 2726 H 264.787 1.05178 4.12089 0
M  V30 2727 N 263.102 -1.41638 0.69111 0
M  V30 2728 C 264.327 -2.06148 0.227583 0
M  V30 2729 C 264.752 -1.51652 -1.11281 0
M  V30 2730 O 264.11 -0.64164 -1.69566 0
M  V30 2731 C 264.158 -3.60095 0.190858 0
M  V30 2732 O 263.262 -4.03845 -0.835664 0
M  V30 2733 H 262.603 -0.654434 0.112306 0
M  V30 2734 H 265.133 -1.81484 0.944714 0
M  V30 2735 H 265.143 -4.07995 0.020207 0
M  V30 2736 H 263.818 -3.99129 1.16915 0
M  V30 2737 H 262.395 -3.67458 -0.63473 0
M  V30 2738 N 264.58 -0.43555 -1.51462 0
M  V30 2739 C 265.51 0.367376 -2.30592 0
M  V30 2740 C 266.491 1.02263 -1.35928 0
M  V30 2741 O 267.676 1.02661 -1.64847 0
M  V30 2742 C 264.806 1.46983 -3.14664 0
M  V30 2743 C 263.76 0.938161 -4.17591 0
M  V30 2744 C 263.086 2.13622 -4.90173 0
M  V30 2745 C 264.386 -0.0261621 -5.22293 0
M  V30 2746 H 266.08 -0.292969 -2.97963 0
M  V30 2747 H 263.626 -0.14234 -1.43295 0
M  V30 2748 H 265.579 2.03873 -3.688 0
M  V30 2749 H 264.303 2.15843 -2.4511 0
M  V30 2750 H 262.962 0.391481 -3.64504 0
M  V30 2751 H 262.61 2.81098 -4.17124 0
M  V30 2752 H 262.31 1.78688 -5.59772 0
M  V30 2753 H 263.834 2.7107 -5.47132 0
M  V30 2754 H 265.248 0.452384 -5.71512 0
M  V30 2755 H 263.645 -0.287992 -5.99409 0
M  V30 2756 H 264.715 -0.963391 -4.75233 0
M  V30 2757 N 266.058 1.56714 -0.166846 0
M  V30 2758 C 267.298 1.98641 0.481763 0
M  V30 2759 C 267.662 1.05038 1.6072 0
M  V30 2760 O 268.863 1.36087 2.31805 0
M  V30 2761 C 267.134 3.44362 0.956517 0
M  V30 2762 S 268.693 4.08317 1.60694 0
M  V30 2763 H 265.511 0.693873 0.155116 0
M  V30 2764 H 268.113 1.93719 -0.263251 0
M  V30 2765 H 266.817 4.10204 0.126936 0
M  V30 2766 H 266.348 3.53041 1.73568 0
M  V30 2767 H 268.363 4.02999 2.89494 0
M  V30 2768 N 267.536 -0.106894 1.57237 0
M  V30 2769 C 268.952 -0.46078 1.52804 0
M  V30 2770 C 269.152 -1.81184 0.881746 0
M  V30 2771 O 268.208 -2.48102 0.469224 0
M  V30 2772 C 269.521 -0.434127 2.9755 0
M  V30 2773 C 271.069 -0.516821 3.08704 0
M  V30 2774 C 271.544 -0.520436 4.55033 0
M  V30 2775 N 273.035 -0.58153 4.59535 0
M  V30 2776 C 273.77 -0.605973 5.70189 0
M  V30 2777 N 273.266 -0.587331 6.90306 0
M  V30 2778 N 275.059 -0.649895 5.5833 0
M  V30 2779 H 267.21 0.778203 1.9763 0
M  V30 2780 H 269.473 0.288403 0.903066 0
M  V30 2781 H 269.179 0.491197 3.48253 0
M  V30 2782 H 269.053 -1.25748 3.55622 0
M  V30 2783 H 271.44 -1.43256 2.57995 0
M  V30 2784 H 271.521 0.334449 2.53604 0
M  V30 2785 H 271.165 0.391313 5.0639 0
M  V30 2786 H 271.095 -1.38876 5.07958 0
M  V30 2787 H 273.586 -0.60161 3.73081 0
M  V30 2788 H 273.899 -0.60894 7.70397 0
M  V30 2789 H 272.244 -0.554564 6.92784 0
M  V30 2790 H 275.435 -0.661907 4.63397 0
M  V30 2791 H 275.608 -0.665476 6.44574 0
M  V30 2792 N 269.014 -1.53014 -0.377408 0
M  V30 2793 C 270.43 -1.42523 -0.718281 0
M  V30 2794 C 270.63 -0.55487 -1.9371 0
M  V30 2795 O 269.686 -0.0327593 -2.52479 0
M  V30 2796 C 270.999 -2.85546 -0.942539 0
M  V30 2797 C 272.547 -2.95101 -1.04329 0
M  V30 2798 C 273.022 -4.3916 -1.3001 0
M  V30 2799 N 274.513 -4.42536 -1.36806 0
M  V30 2800 C 275.248 -5.51097 -1.58364 0
M  V30 2801 N 274.744 -6.69724 -1.77317 0
M  V30 2802 N 276.537 -5.38657 -1.60638 0
M  V30 2803 H 268.688 -2.08116 0.424426 0
M  V30 2804 H 270.951 -0.939352 0.127759 0
M  V30 2805 H 270.657 -3.51499 -0.118929 0
M  V30 2806 H 270.531 -3.28493 -1.85397 0
M  V30 2807 H 272.918 -2.29309 -1.85745 0
M  V30 2808 H 272.999 -2.55566 -0.109505 0
M  V30 2809 H 272.643 -5.05521 -0.490991 0
M  V30 2810 H 272.573 -4.76258 -2.24691 0
M  V30 2811 H 275.064 -3.57039 -1.23821 0
M  V30 2812 H 275.377 -7.48233 -1.93306 0
M  V30 2813 H 273.722 -6.72732 -1.74518 0
M  V30 2814 H 276.913 -4.44948 -1.45391 0
M  V30 2815 H 277.086 -6.2333 -1.77098 0
M  V30 2816 N 270.492 0.636531 -1.44174 0
M  V30 2817 C 271.717 1.42847 -1.50364 0
M  V30 2818 C 272.142 1.87665 -0.127867 0
M  V30 2819 O 271.5 1.58408 0.88185 0
M  V30 2820 C 271.548 2.62854 -2.4686 0
M  V30 2821 O 270.652 3.62501 -1.9664 0
M  V30 2822 H 269.993 0.427642 -0.507955 0
M  V30 2823 H 272.523 0.777422 -1.89255 0
M  V30 2824 H 272.533 3.10465 -2.64718 0
M  V30 2825 H 271.208 2.29578 -3.46795 0
M  V30 2826 H 269.785 3.21735 -1.88523 0
M  V30 2827 N 271.97 1.30982 0.876444 0
M  V30 2828 C 272.918 1.18006 2.00443 0
M  V30 2829 C 273.912 0.0898871 1.69161 0
M  V30 2830 O 275.118 0.251333 1.78237 0
M  V30 2831 H 271.493 0.365196 0.65737 0
M  V30 2832 H 273.464 2.13453 2.0852 0
M  V30 2833 C 272.213 0.897521 3.35916 0
M  V30 2834 H 271.536 1.7285 3.60504 0
M  V30 2835 H 272.976 0.846874 4.15456 0
M  V30 2836 C 271.435 -0.399674 3.34521 0
M  V30 2837 O 271.965 -1.41852 3.7582 0
M  V30 2838 N 270.171 -0.413893 2.87637 0
M  V30 2839 H 269.718 0.41571 2.54224 0
M  V30 2840 H 269.676 -1.28175 2.87086 0
M  V30 2841 N 273.449 -1.08991 1.13837 0
M  V30 2842 C 274.695 -1.81526 0.90422 0
M  V30 2843 C 275.028 -1.85706 -0.568066 0
M  V30 2844 O 274.303 -1.32855 -1.42056 0
M  V30 2845 C 274.586 -3.27447 1.49835 0
M  V30 2846 C 274.439 -3.31512 3.04006 0
M  V30 2847 C 275.758 -4.24256 1.17025 0
M  V30 2848 H 272.877 -0.659029 0.329923 0
M  V30 2849 H 275.519 -1.27644 1.40737 0
M  V30 2850 H 273.669 -3.73462 1.07044 0
M  V30 2851 H 275.341 -2.93867 3.55584 0
M  V30 2852 H 273.584 -2.70963 3.38765 0
M  V30 2853 H 274.255 -4.34329 3.40679 0
M  V30 2854 H 276.731 -3.86549 1.54009 0
M  V30 2855 H 275.607 -5.24684 1.61237 0
M  V30 2856 H 275.868 -4.42019 0.0846274 0
M  V30 2857 N 274.927 -0.932562 -1.27047 0
M  V30 2858 C 276.167 -0.582919 -1.95912 0
M  V30 2859 C 276.531 0.860629 -1.71631 0
M  V30 2860 O 277.732 1.31878 -2.34225 0
M  V30 2861 C 276.003 -0.905673 -3.45734 0
M  V30 2862 S 277.562 -0.665277 -4.33727 0
M  V30 2863 H 274.38 -0.215 -0.677714 0
M  V30 2864 H 276.982 -1.20204 -1.54179 0
M  V30 2865 H 275.686 -1.95386 -3.60905 0
M  V30 2866 H 275.217 -0.275939 -3.92431 0
M  V30 2867 H 277.232 0.474635 -4.93925 0
M  V30 2868 N 276.405 1.4127 -0.698611 0
M  V30 2869 C 277.633 2.05503 -0.239992 0
M  V30 2870 C 278.048 1.52584 1.11191 0
M  V30 2871 O 277.405 0.675323 1.69545 0
M  V30 2872 C 277.456 3.60987 -0.192429 0
M  V30 2873 O 277.177 4.1195 -1.49094 0
M  V30 2874 C 278.678 4.42371 0.28681 0
M  V30 2875 H 275.898 0.661748 -0.111045 0
M  V30 2876 H 278.442 1.80987 -0.95205 0
M  V30 2877 H 276.597 3.84533 0.470472 0
M  V30 2878 H 277.011 5.06018 -1.38007 0
M  V30 2879 H 278.485 5.51344 0.26896 0
M  V30 2880 H 278.962 4.18699 1.32619 0
M  V30 2881 H 279.568 4.23897 -0.345201 0
M  V30 2882 N 277.883 0.443576 1.51229 0
M  V30 2883 C 278.813 -0.355142 2.30783 0
M  V30 2884 C 279.794 -1.0154 1.36468 0
M  V30 2885 O 280.979 -1.01785 1.65389 0
M  V30 2886 C 278.109 -1.45312 3.15439 0
M  V30 2887 C 277.063 -0.916002 4.18083 0
M  V30 2888 C 276.389 -2.1102 4.91299 0
M  V30 2889 C 277.689 0.0538602 5.22272 0
M  V30 2890 H 279.383 0.308767 2.97804 0
M  V30 2891 H 276.929 0.149937 1.43217 0
M  V30 2892 H 278.882 -2.01914 3.69876 0
M  V30 2893 H 277.606 -2.14541 2.46252 0
M  V30 2894 H 276.265 -0.372145 3.64706 0
M  V30 2895 H 275.913 -2.78882 4.18609 0
M  V30 2896 H 275.613 -1.75717 5.60712 0
M  V30 2897 H 277.137 -2.68164 5.48562 0
M  V30 2898 H 278.551 -0.422069 5.71744 0
M  V30 2899 H 276.948 0.319776 5.99247 0
M  V30 2900 H 278.018 0.98858 4.74716 0
M  V30 2901 N 279.361 -1.56624 0.175154 0
M  V30 2902 C 280.607 -1.9729 -0.469506 0
M  V30 2903 C 280.94 -1.06128 -1.62636 0
M  V30 2904 O 280.215 -0.109183 -1.94193 0
M  V30 2905 C 280.498 -3.47375 -0.948804 0
M  V30 2906 C 280.351 -4.49317 0.208491 0
M  V30 2907 C 281.67 -4.00652 -1.82116 0
M  V30 2908 H 278.789 -0.717317 -0.16919 0
M  V30 2909 H 281.431 -1.88184 0.262062 0
M  V30 2910 H 279.581 -3.55267 -1.57219 0
M  V30 2911 H 281.253 -4.53482 0.845682 0
M  V30 2912 H 279.496 -4.25121 0.863395 0
M  V30 2913 H 280.167 -5.51741 -0.169059 0
M  V30 2914 H 282.643 -3.95416 -1.2956 0
M  V30 2915 H 281.519 -5.06075 -2.12554 0
M  V30 2916 H 281.78 -3.44699 -2.7683 0
M  V30 2917 N 280.839 0.0985539 -1.57292 0
M  V30 2918 C 282.255 0.45267 -1.53046 0
M  V30 2919 C 282.455 1.80713 -0.891342 0
M  V30 2920 O 281.511 2.4785 -0.482375 0
M  V30 2921 C 282.824 0.418341 -2.97776 0
M  V30 2922 C 284.372 0.500443 -3.08973 0
M  V30 2923 C 284.847 0.496297 -4.55303 0
M  V30 2924 N 286.338 0.557151 -4.59837 0
M  V30 2925 C 287.073 0.575726 -5.70502 0
M  V30 2926 N 286.569 0.550714 -6.90608 0
M  V30 2927 N 288.362 0.620277 -5.58667 0
M  V30 2928 H 280.513 -0.788673 -1.97215 0
M  V30 2929 H 282.776 -0.293188 -0.901524 0
M  V30 2930 H 282.482 -0.509659 -3.47988 0
M  V30 2931 H 282.356 1.2386 -3.56284 0
M  V30 2932 H 284.743 1.41886 -2.58751 0
M  V30 2933 H 284.824 -0.347894 -2.53423 0
M  V30 2934 H 284.468 -0.418162 -5.06176 0
M  V30 2935 H 284.398 1.3618 -5.08687 0
M  V30 2936 H 286.889 0.581816 -3.73394 0
M  V30 2937 H 287.202 0.568075 -7.70709 0
M  V30 2938 H 285.547 0.517816 -6.93068 0
M  V30 2939 H 288.738 0.637322 -4.63741 0
M  V30 2940 H 288.911 0.631283 -6.44918 0
M  V30 2941 N 282.317 1.53212 0.369288 0
M  V30 2942 C 283.565 1.68881 1.11012 0
M  V30 2943 C 283.886 0.441285 1.89941 0
M  V30 2944 O 283.156 -0.544623 1.88177 0
M  V30 2945 H 281.736 0.622569 0.412816 0
M  V30 2946 H 284.398 1.90391 0.416802 0
M  V30 2947 H 283.494 2.54822 1.80201 0
M  V30 2948 N 283.795 -0.628877 1.44509 0
M  V30 2949 C 285.211 -0.947305 1.28446 0
M  V30 2950 C 285.411 -2.00275 0.221872 0
M  V30 2951 O 284.467 -2.49447 -0.391471 0
M  V30 2952 C 285.78 -1.40843 2.65676 0
M  V30 2953 C 287.328 -1.52379 2.73404 0
M  V30 2954 C 287.803 -2.01875 4.11109 0
M  V30 2955 N 289.294 -2.09142 4.13296 0
M  V30 2956 C 290.029 -2.48615 5.16699 0
M  V30 2957 N 289.525 -2.87209 6.30462 0
M  V30 2958 N 291.318 -2.48768 5.04054 0
M  V30 2959 H 283.469 0.0690977 2.12288 0
M  V30 2960 H 285.732 -0.0317164 0.947469 0
M  V30 2961 H 285.438 -0.707206 3.44516 0
M  V30 2962 H 285.312 -2.37902 2.92716 0
M  V30 2963 H 287.699 -2.21598 1.9488 0
M  V30 2964 H 287.78 -0.536898 2.50102 0
M  V30 2965 H 287.424 -1.3325 4.90109 0
M  V30 2966 H 287.354 -3.0144 4.31789 0
M  V30 2967 H 289.845 -1.81991 3.31191 0
M  V30 2968 H 290.158 -3.16149 7.05174 0
M  V30 2969 H 288.503 -2.84955 6.33897 0
M  V30 2970 H 291.694 -2.18009 4.14234 0
M  V30 2971 H 291.867 -2.79207 5.84763 0
M  V30 2972 N 285.273 -1.31445 -0.869486 0
M  V30 2973 C 286.205 -1.14955 -1.98287 0
M  V30 2974 C 287.218 -0.0885037 -1.62559 0
M  V30 2975 O 288.407 -0.336044 -1.75308 0
M  V30 2976 C 285.507 -0.734255 -3.3085 0
M  V30 2977 C 284.68 -1.88042 -3.94917 0
M  V30 2978 C 283.739 -1.4511 -5.05796 0
M  V30 2979 O 282.765 -2.16082 -5.2659 0
M  V30 2980 N 283.967 -0.338763 -5.79511 0
M  V30 2981 H 286.732 -2.10856 -2.12979 0
M  V30 2982 H 284.293 -1.23786 -1.04349 0
M  V30 2983 H 286.285 -0.42975 -4.02412 0
M  V30 2984 H 284.855 0.133158 -3.12316 0
M  V30 2985 H 284.075 -2.35222 -3.1633 0
M  V30 2986 H 285.363 -2.6481 -4.34457 0
M  V30 2987 H 284.761 0.252274 -5.65137 0
M  V30 2988 H 283.318 -0.0937925 -6.51733 0
M  V30 2989 N 286.751 1.08385 -1.14413 0
M  V30 2990 C 287.714 2.13486 -0.834048 0
M  V30 2991 C 288.714 1.59988 0.161418 0
M  V30 2992 O 289.904 1.74071 -0.0669575 0
M  V30 2993 C 287.036 3.4003 -0.243354 0
M  V30 2994 H 288.229 2.42425 -1.7655 0
M  V30 2995 H 285.782 1.24101 -0.950189 0
M  V30 2996 H 286.517 3.16726 0.696807 0
M  V30 2997 H 286.302 3.80157 -0.960367 0
M  V30 2998 H 287.792 4.17577 -0.0436242 0
M  V30 2999 N 288.23 0.939286 1.26551 0
M  V30 3000 C 289.478 0.58469 1.93457 0
M  V30 3001 C 289.799 -0.878774 1.74076 0
M  V30 3002 O 289.069 -1.62421 1.09528 0
M  V30 3003 H 287.649 0.21325 0.715914 0
M  V30 3004 H 290.311 1.1942 1.54029 0
M  V30 3005 H 289.407 0.800849 3.0165 0
M  V30 3006 N 289.708 -1.40897 0.706093 0
M  V30 3007 C 290.954 -2.01352 0.241889 0
M  V30 3008 C 291.287 -1.55832 -1.15888 0
M  V30 3009 O 290.562 -0.774145 -1.7843 0
M  V30 3010 C 290.845 -3.58752 0.311311 0
M  V30 3011 C 290.698 -4.1437 1.74978 0
M  V30 3012 C 292.017 -4.38914 -0.322922 0
M  V30 3013 H 289.136 -0.731562 0.0893687 0
M  V30 3014 H 291.778 -1.67504 0.896802 0
M  V30 3015 H 289.928 -3.87718 -0.246302 0
M  V30 3016 H 291.6 -3.96239 2.36205 0
M  V30 3017 H 289.843 -3.69016 2.28057 0
M  V30 3018 H 290.514 -5.23532 1.74981 0
M  V30 3019 H 292.99 -4.15822 0.152089 0
M  V30 3020 H 291.866 -5.48358 -0.243855 0
M  V30 3021 H 292.127 -4.19176 -1.40513 0
M  V30 3022 N 291.186 -0.45159 -1.50991 0
M  V30 3023 C 292.426 0.109066 -2.04109 0
M  V30 3024 C 292.79 1.38716 -1.32747 0
M  V30 3025 O 293.991 2.02896 -1.76314 0
M  V30 3026 C 292.262 0.308354 -3.56067 0
M  V30 3027 S 293.821 0.830369 -4.30872 0
M  V30 3028 H 290.639 0.0251531 -0.710555 0
M  V30 3029 H 293.241 -0.614264 -1.85599 0
M  V30 3030 H 291.945 -0.627962 -4.05567 0
M  V30 3031 H 291.476 1.05836 -3.78896 0
M  V30 3032 H 293.491 2.10626 -4.49279 0
M  V30 3033 N 292.664 1.56529 -0.183458 0
M  V30 3034 C 293.911 1.97244 0.458357 0
M  V30 3035 C 294.239 1.06992 1.62428 0
M  V30 3036 O 293.494 0.106542 1.9541 0
M  V30 3037 C 293.793 3.43939 0.971637 0
M  V30 3038 C 293.459 4.5083 -0.0796784 0
M  V30 3039 C 292.121 4.79786 -0.368584 0
M  V30 3040 C 294.473 5.15138 -0.792638 0
M  V30 3041 C 291.801 5.70345 -1.37563 0
M  V30 3042 C 294.153 6.06784 -1.78875 0
M  V30 3043 C 292.817 6.34102 -2.08497 0
M  V30 3044 H 292.087 0.721768 0.167725 0
M  V30 3045 H 294.734 1.89472 -0.277976 0
M  V30 3046 H 293.039 3.48724 1.78602 0
M  V30 3047 H 294.736 3.72791 1.47744 0
M  V30 3048 H 291.326 4.28317 0.155668 0
M  V30 3049 H 295.51 4.92868 -0.582659 0
M  V30 3050 H 290.766 5.89789 -1.61118 0
M  V30 3051 H 294.94 6.55677 -2.3465 0
M  V30 3052 H 292.567 7.04074 -2.86678 0
M  V30 3053 N 294.142 -0.090211 1.57342 0
M  V30 3054 C 295.39 -0.791241 1.85967 0
M  V30 3055 C 295.711 -1.7903 0.772859 0
M  V30 3056 O 294.981 -1.94872 -0.200398 0
M  V30 3057 H 293.561 -0.295205 0.686195 0
M  V30 3058 H 296.223 -0.0706782 1.94772 0
M  V30 3059 H 295.319 -1.31882 2.82867 0
M  V30 3060 N 295.62 -1.53406 -0.361157 0
M  V30 3061 C 296.897 -1.60411 -1.11927 0
M  V30 3062 C 297.277 -0.414385 -2.06993 0
M  V30 3063 O 296.625 0.594976 -2.20618 0
M  V30 3064 C 296.835 -2.95652 -1.85448 0
M  V30 3065 C 298.183 -3.50386 -2.39823 0
M  V30 3066 O 299.207 -2.97711 -1.95568 0
M  V30 3067 O 298.066 -4.42482 -3.20737 0
M  V30 3068 H 295.16 -0.64811 -0.513695 0
M  V30 3069 H 297.706 -1.65749 -0.364065 0
M  V30 3070 H 296.478 -3.73682 -1.16091 0
M  V30 3071 H 296.101 -2.93825 -2.67866 0
M  V30 3072 N 297.098 0.621204 -1.44841 0
M  V30 3073 C 298.323 1.41244 -1.51871 0
M  V30 3074 C 298.748 1.87519 -0.147764 0
M  V30 3075 O 298.106 1.59334 0.865 0
M  V30 3076 C 298.154 2.60221 -2.49634 0
M  V30 3077 O 297.258 3.60395 -2.00473 0
M  V30 3078 H 296.599 0.42223 -0.512463 0
M  V30 3079 H 299.129 0.757305 -1.90069 0
M  V30 3080 H 299.139 3.0764 -2.67996 0
M  V30 3081 H 297.814 2.25887 -3.4921 0
M  V30 3082 H 296.391 3.19717 -1.91925 0
M  V30 3083 N 298.576 1.31904 0.862503 0
M  V30 3084 C 299.824 1.21776 1.61292 0
M  V30 3085 C 300.145 -0.222413 1.93727 0
M  V30 3086 O 299.415 -1.1451 1.58947 0
M  V30 3087 H 297.995 0.447717 0.597962 0
M  V30 3088 H 300.657 1.65326 1.03215 0
M  V30 3089 H 299.753 1.7948 2.5533 0
M  V30 3090 N 300.054 -1.07777 1.14986 0
M  V30 3091 C 301.279 -1.84558 0.946213 0
M  V30 3092 C 301.704 -1.81323 -0.500362 0
M  V30 3093 O 301.062 -1.20301 -1.35637 0
M  V30 3094 C 301.11 -3.29736 1.45968 0
M  V30 3095 O 300.214 -4.07149 0.65601 0
M  V30 3096 H 299.555 -0.571641 0.33782 0
M  V30 3097 H 302.085 -1.35991 1.52865 0
M  V30 3098 H 302.095 -3.80574 1.47063 0
M  V30 3099 H 300.77 -3.31406 2.51283 0
M  V30 3100 H 299.347 -3.65994 0.714322 0
M  V30 3101 N 301.532 -0.945985 -1.26051 0
M  V30 3102 C 302.943 -0.638096 -1.75457 0
M  V30 3103 C 303.294 0.846672 -1.76991 0
M  V30 3104 O 302.419 1.66262 -1.38513 0
M  V30 3105 C 303.014 -1.15157 -3.18629 0
M  V30 3106 C 301.573 -0.894004 -3.65629 0
M  V30 3107 C 300.72 -1.29967 -2.44957 0
M  V30 3108 H 303.671 -1.12376 -1.1206 0
M  V30 3109 H 303.692 -0.507615 -3.77099 0
M  V30 3110 H 303.204 -2.23222 -3.1748 0
M  V30 3111 H 301.305 0.172057 -3.72203 0
M  V30 3112 H 301.418 -1.52439 -4.54202 0
M  V30 3113 H 299.782 -0.718078 -2.44368 0
M  V30 3114 H 300.565 -2.38935 -2.46505 0
M  V30 3115 N 303.011 1.40521 -0.713556 0
M  V30 3116 C 303.941 2.33381 -0.0743864 0
M  V30 3117 C 304.922 1.52784 0.747735 0
M  V30 3118 O 306.107 1.81258 0.697071 0
M  V30 3119 C 303.237 3.36748 0.849598 0
M  V30 3120 C 302.191 4.27793 0.133247 0
M  V30 3121 C 301.517 5.21679 1.17281 0
M  V30 3122 C 302.817 5.12415 -1.01134 0
M  V30 3123 H 304.511 2.87081 -0.850007 0
M  V30 3124 H 302.057 1.38034 -0.410201 0
M  V30 3125 H 304.01 4.00648 1.30612 0
M  V30 3126 H 302.734 2.81439 1.65709 0
M  V30 3127 H 301.393 3.65342 -0.303426 0
M  V30 3128 H 301.041 4.62677 1.9733 0
M  V30 3129 H 300.741 5.83435 0.698397 0
M  V30 3130 H 302.265 5.88456 1.62947 0
M  V30 3131 H 303.679 5.69781 -0.634274 0
M  V30 3132 H 302.076 5.83203 -1.41399 0
M  V30 3133 H 303.146 4.48514 -1.84292 0
M  V30 3134 N 304.489 0.459591 1.5075 0
M  V30 3135 C 305.735 -0.0994966 2.02556 0
M  V30 3136 C 306.068 -1.40399 1.3417 0
M  V30 3137 O 305.343 -1.88892 0.463683 0
M  V30 3138 C 305.626 -0.295242 3.58888 0
M  V30 3139 C 305.479 1.02947 4.37861 0
M  V30 3140 C 306.798 -1.05502 4.27267 0
M  V30 3141 H 303.917 -0.034686 0.736183 0
M  V30 3142 H 306.559 0.602938 1.8018 0
M  V30 3143 H 304.709 -0.893563 3.78084 0
M  V30 3144 H 306.381 1.66348 4.30263 0
M  V30 3145 H 304.624 1.62885 4.02058 0
M  V30 3146 H 305.295 0.846281 5.45474 0
M  V30 3147 H 307.771 -0.547993 4.12476 0
M  V30 3148 H 306.647 -1.16077 5.36486 0
M  V30 3149 H 306.908 -2.08875 3.89645 0
M  V30 3150 N 305.967 -1.56429 0.191757 0
M  V30 3151 C 307.207 -1.99383 -0.450099 0
M  V30 3152 C 307.571 -1.07581 -1.59029 0
M  V30 3153 O 308.772 -1.39758 -2.29611 0
M  V30 3154 C 307.043 -3.45841 -0.901611 0
M  V30 3155 S 308.602 -4.10822 -1.54177 0
M  V30 3156 H 305.42 -0.696253 -0.144057 0
M  V30 3157 H 308.022 -1.93276 0.294036 0
M  V30 3158 H 306.726 -4.10354 -0.0616596 0
M  V30 3159 H 306.257 -3.55757 -1.67929 0
M  V30 3160 H 308.272 -4.07553 -2.83046 0
M  V30 3161 N 307.445 0.0818655 -1.57387 0
M  V30 3162 C 308.393 1.11712 -2.04018 0
M  V30 3163 C 309.387 1.40683 -0.94364 0
M  V30 3164 O 310.593 1.40209 -1.12878 0
M  V30 3165 H 306.968 0.377542 -0.650358 0
M  V30 3166 H 308.939 0.697614 -2.90131 0
M  V30 3167 C 307.688 2.42537 -2.49141 0
M  V30 3168 H 307.011 2.21092 -3.33104 0
M  V30 3169 H 308.451 3.13446 -2.85531 0
M  V30 3170 C 306.91 3.0778 -1.37014 0
M  V30 3171 O 307.44 3.95436 -0.706621 0
M  V30 3172 N 305.646 2.68242 -1.11779 0
M  V30 3173 H 305.193 1.97052 -1.65917 0
M  V30 3174 H 305.151 3.1222 -0.369594 0
M  V30 3175 N 308.923 1.53595 0.353017 0
M  V30 3176 C 310.171 1.70049 1.09215 0
M  V30 3177 C 310.492 0.461406 1.89463 0
M  V30 3178 O 309.762 -0.524633 1.88744 0
M  V30 3179 H 308.342 0.626912 0.40619 0
M  V30 3180 H 311.004 1.90822 0.396585 0
M  V30 3181 H 310.1 2.56718 1.77488 0
M  V30 3182 N 310.401 -0.613514 1.45168 0
M  V30 3183 C 311.331 -1.7354 1.56225 0
M  V30 3184 C 312.312 -1.64981 0.41414 0
M  V30 3185 O 313.497 -1.83472 0.636526 0
M  V30 3186 C 310.627 -3.12128 1.52295 0
M  V30 3187 C 309.581 -3.35491 2.65762 0
M  V30 3188 C 308.907 -4.74291 2.46885 0
M  V30 3189 C 310.207 -3.26325 4.0781 0
M  V30 3190 H 311.901 -1.64543 2.50132 0
M  V30 3191 H 309.447 -0.790185 1.20383 0
M  V30 3192 H 311.4 -3.90404 1.58628 0
M  V30 3193 H 310.124 -3.2195 0.549139 0
M  V30 3194 H 308.783 -2.59603 2.58847 0
M  V30 3195 H 308.431 -4.80839 1.47657 0
M  V30 3196 H 308.131 -4.9088 3.22972 0
M  V30 3197 H 309.655 -5.54775 2.55063 0
M  V30 3198 H 311.069 -3.94483 4.16 0
M  V30 3199 H 309.466 -3.54445 4.8424 0
M  V30 3200 H 310.536 -2.23855 4.30136 0
M  V30 3201 N 311.879 -1.3236 -0.855495 0
M  V30 3202 C 313.128 -1.22226 -1.60448 0
M  V30 3203 C 313.441 0.214733 -1.94418 0
M  V30 3204 O 314.647 0.437917 -2.67945 0
M  V30 3205 C 313.103 -2.14063 -2.89318 0
M  V30 3206 C 312.711 -3.62839 -2.62777 0
M  V30 3207 C 314.455 -2.12764 -3.67331 0
M  V30 3208 C 312.362 -4.4664 -3.87643 0
M  V30 3209 H 311.292 -0.453904 -0.602069 0
M  V30 3210 H 313.943 -1.57314 -0.944698 0
M  V30 3211 H 312.325 -1.71889 -3.5675 0
M  V30 3212 H 313.499 -4.1335 -2.03662 0
M  V30 3213 H 311.814 -3.66261 -1.98096 0
M  V30 3214 H 314.411 -2.72611 -4.59987 0
M  V30 3215 H 314.754 -1.11841 -4.00995 0
M  V30 3216 H 315.287 -2.53214 -3.06802 0
M  V30 3217 H 312.026 -5.48373 -3.5912 0
M  V30 3218 H 311.546 -4.0088 -4.46156 0
M  V30 3219 H 313.225 -4.59597 -4.55389 0
M  V30 3220 N 313.357 1.07166 -1.15556 0
M  V30 3221 C 314.307 2.12649 -0.82247 0
M  V30 3222 C 315.291 1.59725 0.194129 0
M  V30 3223 O 316.483 1.76999 -0.00540402 0
M  V30 3224 C 313.612 3.41847 -0.315572 0
M  V30 3225 C 312.698 4.0162 -1.36244 0
M  V30 3226 N 313.089 4.35625 -2.5703 0
M  V30 3227 C 311.387 4.29114 -1.21562 0
M  V30 3228 C 312.088 4.83017 -3.24144 0
M  V30 3229 N 311.064 4.81906 -2.51531 0
M  V30 3230 H 314.866 2.36776 -1.74111 0
M  V30 3231 H 312.38 1.24622 -1.0413 0
M  V30 3232 H 314.377 4.16859 -0.0585855 0
M  V30 3233 H 313.037 3.19163 0.597105 0
M  V30 3234 H 314.048 4.26253 -2.94158 0
M  V30 3235 H 310.725 4.15919 -0.362988 0
M  V30 3236 H 312.115 5.18605 -4.27198 0
M  V30 3237 N 314.835 0.952656 1.25548 0
M  V30 3238 C 316.083 0.605176 1.92826 0
M  V30 3239 C 316.404 -0.860261 1.74999 0
M  V30 3240 O 315.674 -1.6125 1.11244 0
M  V30 3241 H 314.254 0.220832 0.713612 0
M  V30 3242 H 316.916 1.21047 1.52754 0
M  V30 3243 H 316.012 0.832798 3.00784 0
M  V30 3244 N 316.313 -1.40141 0.720998 0
M  V30 3245 C 317.562 -2.0002 0.259804 0
M  V30 3246 C 317.875 -1.57839 -1.15526 0
M  V30 3247 O 319.081 -2.10455 -1.71525 0
M  V30 3248 C 317.537 -3.57516 0.413566 0
M  V30 3249 C 317.145 -4.08667 1.83562 0
M  V30 3250 C 318.889 -4.24498 0.0134387 0
M  V30 3251 C 316.796 -5.58686 1.93968 0
M  V30 3252 H 315.726 -0.748195 0.0933806 0
M  V30 3253 H 318.377 -1.60313 0.892866 0
M  V30 3254 H 316.759 -3.9495 -0.288169 0
M  V30 3255 H 317.933 -3.82598 2.56817 0
M  V30 3256 H 316.248 -3.543 2.1877 0
M  V30 3257 H 318.845 -5.34654 0.0703954 0
M  V30 3258 H 319.188 -4.03375 -1.02927 0
M  V30 3259 H 319.721 -3.92188 0.665815 0
M  V30 3260 H 316.46 -5.8467 2.96379 0
M  V30 3261 H 315.98 -5.86602 1.25131 0
M  V30 3262 H 317.659 -6.23875 1.71431 0
M  V30 3263 N 317.792 -0.46758 -1.50504 0
M  V30 3264 C 318.755 0.317059 -2.26996 0
M  V30 3265 C 319.755 0.923513 -1.31635 0
M  V30 3266 O 320.945 0.793239 -1.55091 0
M  V30 3267 C 318.077 1.45134 -3.08462 0
M  V30 3268 H 319.27 -0.353723 -2.97807 0
M  V30 3269 H 316.823 -0.221545 -1.54722 0
M  V30 3270 H 317.558 2.15728 -2.4214 0
M  V30 3271 H 317.343 1.02232 -3.78538 0
M  V30 3272 H 318.833 2.00493 -3.66323 0
M  V30 3273 N 319.27 1.56325 -0.20005 0
M  V30 3274 C 320.495 2.02548 0.44597 0
M  V30 3275 C 320.92 1.07922 1.5406 0
M  V30 3276 O 320.278 0.0635775 1.81188 0
M  V30 3277 C 320.326 3.47175 0.974761 0
M  V30 3278 O 319.43 3.55671 2.08739 0
M  V30 3279 H 318.771 0.655862 0.103638 0
M  V30 3280 H 321.301 2.02201 -0.312381 0
M  V30 3281 H 321.311 3.87067 1.2901 0
M  V30 3282 H 319.986 4.15538 0.17347 0
M  V30 3283 H 318.563 3.27657 1.78032 0
M  V30 3284 N 320.748 -0.0735177 1.57428 0
M  V30 3285 C 321.995 -0.772999 1.87166 0
M  V30 3286 C 322.323 -1.77665 0.791551 0
M  V30 3287 O 321.578 -1.94541 -0.212636 0
M  V30 3288 C 321.877 -1.51799 3.23561 0
M  V30 3289 C 321.543 -0.654484 4.46125 0
M  V30 3290 C 320.205 -0.416511 4.79394 0
M  V30 3291 C 322.557 -0.0555862 5.2117 0
M  V30 3292 C 319.885 0.429869 5.85123 0
M  V30 3293 C 322.237 0.778239 6.27795 0
M  V30 3294 C 320.901 1.0261 6.59566 0
M  V30 3295 H 320.171 -0.282861 0.684888 0
M  V30 3296 H 322.818 -0.0338272 1.9147 0
M  V30 3297 H 321.123 -2.32932 3.1504 0
M  V30 3298 H 322.82 -2.06397 3.43804 0
M  V30 3299 H 319.41 -0.850091 4.20085 0
M  V30 3300 H 323.594 -0.226558 4.95783 0
M  V30 3301 H 318.85 0.630665 6.08139 0
M  V30 3302 H 323.024 1.24906 6.85107 0
M  V30 3303 H 320.651 1.68371 7.4132 0
M  V30 3304 N 322.226 -1.5378 -0.344866 0
M  V30 3305 C 323.472 -1.71216 -1.08687 0
M  V30 3306 C 323.805 -0.473281 -1.88345 0
M  V30 3307 O 323.08 0.52968 -1.87149 0
M  V30 3308 C 323.363 -2.97486 -2.02914 0
M  V30 3309 C 323.216 -4.31579 -1.26727 0
M  V30 3310 C 324.535 -3.19422 -3.0275 0
M  V30 3311 H 321.654 -0.62301 -0.393735 0
M  V30 3312 H 324.296 -1.8645 -0.365563 0
M  V30 3313 H 322.446 -2.84629 -2.64421 0
M  V30 3314 H 324.118 -4.56284 -0.67845 0
M  V30 3315 H 322.361 -4.30049 -0.569273 0
M  V30 3316 H 323.032 -5.16106 -1.95803 0
M  V30 3317 H 325.508 -3.316 -2.51357 0
M  V30 3318 H 324.384 -4.09169 -3.65885 0
M  V30 3319 H 324.645 -2.35656 -3.74057 0
M  V30 3320 N 323.704 0.605807 -1.45491 0
M  V30 3321 C 325.12 0.926751 -1.29936 0
M  V30 3322 C 325.32 1.99896 -0.253706 0
M  V30 3323 O 324.376 2.50038 0.351737 0
M  V30 3324 C 325.689 1.36599 -2.67883 0
M  V30 3325 C 327.237 1.4801 -2.75793 0
M  V30 3326 C 327.712 1.95309 -4.14268 0
M  V30 3327 N 329.203 2.0254 -4.16571 0
M  V30 3328 C 329.938 2.40363 -5.20589 0
M  V30 3329 N 329.434 2.77143 -6.34952 0
M  V30 3330 N 331.227 2.40718 -5.07948 0
M  V30 3331 H 323.378 -0.102862 -2.12151 0
M  V30 3332 H 325.641 0.016639 -0.947854 0
M  V30 3333 H 325.347 0.652306 -3.45598 0
M  V30 3334 H 325.221 2.33215 -2.96463 0
M  V30 3335 H 327.608 2.1847 -1.98381 0
M  V30 3336 H 327.689 0.497041 -2.50925 0
M  V30 3337 H 327.333 1.25436 -4.92167 0
M  V30 3338 H 327.263 2.94532 -4.3653 0
M  V30 3339 H 329.754 1.76699 -3.34045 0
M  V30 3340 H 330.067 3.0489 -7.10114 0
M  V30 3341 H 328.412 2.74834 -6.3835 0
M  V30 3342 H 331.603 2.11392 -4.1765 0
M  V30 3343 H 331.776 2.69869 -5.89131 0
M  V30 3344 N 325.182 1.32811 0.848464 0
M  V30 3345 C 326.43 1.23479 1.59991 0
M  V30 3346 C 326.751 -0.201853 1.93952 0
M  V30 3347 O 326.021 -1.12818 1.60153 0
M  V30 3348 H 324.601 0.454034 0.593179 0
M  V30 3349 H 327.263 1.66412 1.01455 0
M  V30 3350 H 326.359 1.82178 2.53412 0
M  V30 3351 N 326.66 -1.06551 1.16123 0
M  V30 3352 C 327.908 -1.78947 0.939267 0
M  V30 3353 C 328.229 -1.87532 -0.534476 0
M  V30 3354 O 327.499 -1.38211 -1.38833 0
M  V30 3355 H 326.079 -0.662807 0.344523 0
M  V30 3356 H 328.741 -1.28725 1.46342 0
M  V30 3357 H 327.837 -2.81117 1.35572 0
M  V30 3358 N 328.138 -0.959301 -1.25041 0
M  V30 3359 C 329.378 -0.624343 -1.94631 0
M  V30 3360 C 329.742 0.82403 -1.73418 0
M  V30 3361 O 330.943 1.26881 -2.3697 0
M  V30 3362 C 329.214 -0.978805 -3.43736 0
M  V30 3363 S 330.773 -0.757127 -4.32219 0
M  V30 3364 H 327.591 -0.229327 -0.673001 0
M  V30 3365 H 330.193 -1.23447 -1.51595 0
M  V30 3366 H 328.897 -2.02997 -3.56679 0
M  V30 3367 H 328.428 -0.359117 -3.91757 0
M  V30 3368 H 330.443 0.369759 -4.9482 0
M  V30 3369 N 329.616 1.39756 -0.72842 0
M  V30 3370 C 330.579 2.29012 -0.0927297 0
M  V30 3371 C 331.579 1.45992 0.674025 0
M  V30 3372 O 332.769 1.66749 0.50402 0
M  V30 3373 C 329.901 3.29396 0.878137 0
M  V30 3374 H 331.094 2.86729 -0.879011 0
M  V30 3375 H 328.647 1.48293 -0.493847 0
M  V30 3376 H 329.382 2.76722 1.69101 0
M  V30 3377 H 329.167 3.907 0.331051 0
M  V30 3378 H 330.657 3.96199 1.3197 0
M  V30 3379 N 331.094 0.475555 1.50254 0
M  V30 3380 C 332.319 -0.0777042 2.07254 0
M  V30 3381 C 332.744 -1.3235 1.3366 0
M  V30 3382 O 332.102 -1.77152 0.385597 0
M  V30 3383 C 332.15 -0.340169 3.58992 0
M  V30 3384 O 331.254 -1.41982 3.87188 0
M  V30 3385 H 330.595 0.0149556 0.663832 0
M  V30 3386 H 333.125 0.667878 1.93392 0
M  V30 3387 H 333.135 -0.579332 4.03866 0
M  V30 3388 H 331.81 0.570167 4.11973 0
M  V30 3389 H 330.387 -1.16762 3.54148 0
M  V30 3390 N 332.573 -1.56217 0.208337 0
M  V30 3391 C 333.821 -1.97558 -0.426076 0
M  V30 3392 C 334.142 -1.09683 -1.61229 0
M  V30 3393 O 333.412 -0.170956 -1.95153 0
M  V30 3394 H 331.992 -0.729575 -0.160405 0
M  V30 3395 H 334.654 -1.92606 0.298155 0
M  V30 3396 H 333.75 -3.02672 -0.761312 0
M  V30 3397 N 334.051 0.0651679 -1.57465 0
M  V30 3398 C 334.981 1.07693 -2.07182 0
M  V30 3399 C 335.962 1.39962 -0.966673 0
M  V30 3400 O 337.147 1.49475 -1.2398 0
M  V30 3401 C 334.277 2.3885 -2.52127 0
M  V30 3402 C 333.231 2.20917 -3.66579 0
M  V30 3403 C 332.557 3.57515 -3.97601 0
M  V30 3404 C 333.857 1.62493 -4.9638 0
M  V30 3405 H 335.551 0.663199 -2.91962 0
M  V30 3406 H 333.097 0.317569 -1.40455 0
M  V30 3407 H 335.05 3.09928 -2.85522 0
M  V30 3408 H 333.774 2.82215 -1.64384 0
M  V30 3409 H 332.433 1.52279 -3.33477 0
M  V30 3410 H 332.081 3.98463 -3.06979 0
M  V30 3411 H 331.781 3.46353 -4.74672 0
M  V30 3412 H 333.305 4.30013 -4.33499 0
M  V30 3413 H 334.719 2.23445 -5.27963 0
M  V30 3414 H 333.116 1.62009 -5.77818 0
M  V30 3415 H 334.186 0.587041 -4.81333 0
M  V30 3416 N 335.529 1.53961 0.336706 0
M  V30 3417 C 336.759 1.75229 1.09446 0
M  V30 3418 C 337.167 0.494602 1.82621 0
M  V30 3419 O 336.51 -0.543764 1.75468 0
M  V30 3420 C 336.572 2.88288 2.1478 0
M  V30 3421 C 336.236 4.27656 1.6112 0
M  V30 3422 C 337.233 5.08981 1.0599 0
M  V30 3423 C 334.918 4.74161 1.6576 0
M  V30 3424 C 336.912 6.34916 0.562129 0
M  V30 3425 C 334.599 6.00067 1.15595 0
M  V30 3426 C 335.597 6.80278 0.609147 0
M  V30 3427 O 335.285 8.03818 0.114999 0
M  V30 3428 H 335.017 0.588881 0.331956 0
M  V30 3429 H 337.571 2.01614 0.392566 0
M  V30 3430 H 335.801 2.57443 2.88548 0
M  V30 3431 H 337.49 2.97461 2.76174 0
M  V30 3432 H 338.256 4.74213 1.01722 0
M  V30 3433 H 334.135 4.11781 2.07261 0
M  V30 3434 H 337.679 6.9747 0.134668 0
M  V30 3435 H 333.576 6.3433 1.19566 0
M  V30 3436 H 334.344 8.18172 0.231651 0
M  V30 3437 N 337.007 -0.598083 1.45811 0
M  V30 3438 C 338.418 -1.18011 1.44673 0
M  V30 3439 C 338.769 -1.95378 0.179364 0
M  V30 3440 O 337.894 -2.04124 -0.718509 0
M  V30 3441 C 338.489 -2.14677 2.62105 0
M  V30 3442 C 337.048 -2.68236 2.64057 0
M  V30 3443 C 336.195 -1.43816 2.37091 0
M  V30 3444 H 339.146 -0.38686 1.53913 0
M  V30 3445 H 339.167 -2.97878 2.36746 0
M  V30 3446 H 338.679 -1.5834 3.5433 0
M  V30 3447 H 336.78 -3.28486 1.75864 0
M  V30 3448 H 336.893 -3.12021 3.63566 0
M  V30 3449 H 335.257 -1.731 1.86838 0
M  V30 3450 H 336.04 -0.893333 3.31473 0
M  V30 3451 N 338.485 -1.33259 -0.841409 0
M  V30 3452 C 339.762 -1.15174 -1.58096 0
M  V30 3453 C 340.142 0.282858 -2.09196 0
M  V30 3454 O 339.49 1.28151 -1.89181 0
M  V30 3455 C 339.7 -2.1907 -2.71679 0
M  V30 3456 C 341.048 -2.53093 -3.40924 0
M  V30 3457 O 342.072 -2.17717 -2.81918 0
M  V30 3458 O 340.931 -3.1379 -4.47435 0
M  V30 3459 H 338.025 -0.445303 -0.696875 0
M  V30 3460 H 340.571 -1.44833 -0.884385 0
M  V30 3461 H 339.343 -3.15443 -2.31541 0
M  V30 3462 H 338.966 -1.90481 -3.49002 0
M  V30 3463 N 339.963 1.05934 -1.16686 0
M  V30 3464 C 340.926 2.11669 -0.879144 0
M  V30 3465 C 341.926 1.60294 0.127445 0
M  V30 3466 O 343.116 1.7389 -0.103865 0
M  V30 3467 C 340.248 3.39438 -0.315425 0
M  V30 3468 H 341.441 2.38626 -1.81653 0
M  V30 3469 H 338.994 1.22058 -0.976299 0
M  V30 3470 H 339.729 3.18132 0.629468 0
M  V30 3471 H 339.514 3.78034 -1.04079 0
M  V30 3472 H 341.004 4.17391 -0.132189 0
M  V30 3473 N 341.441 0.965919 1.2453 0
M  V30 3474 C 342.688 0.626831 1.92554 0
M  V30 3475 C 343.016 -0.837739 1.75534 0
M  V30 3476 O 342.271 -1.61793 1.10098 0
M  V30 3477 C 342.57 0.945428 3.44669 0
M  V30 3478 C 342.236 2.39785 3.81856 0
M  V30 3479 C 340.898 2.79483 3.91718 0
M  V30 3480 C 343.25 3.34055 4.00071 0
M  V30 3481 C 340.578 4.12496 4.1721 0
M  V30 3482 C 342.93 4.66694 4.27059 0
M  V30 3483 C 341.594 5.06172 4.3514 0
M  V30 3484 H 340.864 0.229374 0.704605 0
M  V30 3485 H 343.511 1.21707 1.4785 0
M  V30 3486 H 341.816 0.272926 3.90848 0
M  V30 3487 H 343.513 0.661484 3.95507 0
M  V30 3488 H 340.103 2.08003 3.74743 0
M  V30 3489 H 344.287 3.04571 3.91855 0
M  V30 3490 H 339.543 4.42709 4.21685 0
M  V30 3491 H 343.717 5.3971 4.40097 0
M  V30 3492 H 341.344 6.09262 4.54646 0
M  V30 3493 N 342.919 -1.39368 0.735821 0
M  V30 3494 C 343.882 -2.2896 0.104874 0
M  V30 3495 C 344.882 -1.46347 -0.666274 0
M  V30 3496 O 346.072 -1.67014 -0.49517 0
M  V30 3497 C 343.204 -3.29857 -0.860656 0
M  V30 3498 H 344.397 -2.86259 0.894205 0
M  V30 3499 H 341.95 -1.48029 0.501704 0
M  V30 3500 H 342.685 -2.77615 -1.67631 0
M  V30 3501 H 342.47 -3.9087 -0.310327 0
M  V30 3502 H 343.96 -3.96893 -1.29867 0
M  V30 3503 N 344.397 -0.483516 -1.5 0
M  V30 3504 C 345.808 -0.0314176 -1.86674 0
M  V30 3505 C 346.159 1.37728 -1.39733 0
M  V30 3506 O 345.284 2.02327 -0.767635 0
M  V30 3507 C 345.879 -0.0502376 -3.38763 0
M  V30 3508 C 344.438 0.346442 -3.74802 0
M  V30 3509 C 343.585 -0.430366 -2.7394 0
M  V30 3510 H 346.536 -0.697182 -1.42566 0
M  V30 3511 H 346.557 0.749116 -3.73053 0
M  V30 3512 H 346.069 -1.07563 -3.72897 0
M  V30 3513 H 344.17 1.37572 -3.46273 0
M  V30 3514 H 344.283 0.0391486 -4.79084 0
M  V30 3515 H 342.647 0.117557 -2.54429 0
M  V30 3516 H 343.43 -1.4555 -3.10918 0
M  V30 3517 N 345.875 1.56104 -0.216619 0
M  V30 3518 C 347.121 1.98466 0.417033 0
M  V30 3519 C 347.454 1.10403 1.59765 0
M  V30 3520 O 346.729 0.160632 1.93836 0
M  V30 3521 C 347.012 3.49769 0.85637 0
M  V30 3522 C 346.865 4.48606 -0.327546 0
M  V30 3523 C 348.184 4.05339 1.7143 0
M  V30 3524 H 345.303 0.721551 0.150112 0
M  V30 3525 H 347.945 1.87423 -0.311864 0
M  V30 3526 H 346.095 3.5931 1.47745 0
M  V30 3527 H 347.767 4.5108 -0.965618 0
M  V30 3528 H 346.01 4.22682 -0.975805 0
M  V30 3529 H 346.681 5.51995 0.0227149 0
M  V30 3530 H 349.157 3.98712 1.19031 0
M  V30 3531 H 348.033 5.11533 1.99061 0
M  V30 3532 H 348.294 3.51918 2.67593 0
M  V30 3533 N 347.353 -0.0568162 1.57498 0
M  V30 3534 C 348.316 -1.05038 2.03715 0
M  V30 3535 C 349.316 -1.30709 0.936577 0
M  V30 3536 O 350.506 -1.26178 1.20103 0
M  V30 3537 C 347.638 -2.39034 2.43055 0
M  V30 3538 H 348.831 -0.651715 2.92733 0
M  V30 3539 H 346.384 -0.302947 1.53336 0
M  V30 3540 H 347.119 -2.83703 1.57108 0
M  V30 3541 H 346.904 -2.21739 3.2338 0
M  V30 3542 H 348.394 -3.10421 2.79336 0
M  V30 3543 N 348.832 -1.54138 -0.328536 0
M  V30 3544 C 349.764 -1.79509 -1.4251 0
M  V30 3545 C 350.777 -0.67688 -1.48061 0
M  V30 3546 O 351.966 -0.953898 -1.50874 0
M  V30 3547 C 349.066 -1.89337 -2.81078 0
M  V30 3548 C 348.239 -3.19443 -2.98789 0
M  V30 3549 C 347.298 -3.20036 -4.17688 0
M  V30 3550 O 346.324 -3.93697 -4.11086 0
M  V30 3551 N 347.526 -2.43467 -5.26976 0
M  V30 3552 H 350.291 -2.74139 -1.21111 0
M  V30 3553 H 347.852 -1.53373 -0.518499 0
M  V30 3554 H 349.844 -1.87167 -3.58818 0
M  V30 3555 H 348.414 -1.01826 -2.95551 0
M  V30 3556 H 347.634 -3.34614 -2.08391 0
M  V30 3557 H 348.922 -4.05354 -3.07515 0
M  V30 3558 H 348.32 -1.83201 -5.35214 0
M  V30 3559 H 346.877 -2.4708 -6.03154 0
M  V30 3560 N 350.31 0.590341 -1.46126 0
M  V30 3561 C 351.557 1.34882 -1.5104 0
M  V30 3562 C 351.885 1.93849 -0.159021 0
M  V30 3563 O 351.14 1.76544 0.844436 0
M  V30 3564 C 351.439 2.5032 -2.55097 0
M  V30 3565 C 351.105 2.09394 -3.99331 0
M  V30 3566 C 349.767 1.97947 -4.38601 0
M  V30 3567 C 352.119 1.77712 -4.89967 0
M  V30 3568 C 349.447 1.53065 -5.66381 0
M  V30 3569 C 351.799 1.34312 -6.18177 0
M  V30 3570 C 350.463 1.21436 -6.56361 0
M  V30 3571 H 349.733 0.493568 -0.552695 0
M  V30 3572 H 352.38 0.665539 -1.79563 0
M  V30 3573 H 350.685 3.24062 -2.20207 0
M  V30 3574 H 352.382 3.08541 -2.56132 0
M  V30 3575 H 348.972 2.19235 -3.68285 0
M  V30 3576 H 353.156 1.85445 -4.60352 0
M  V30 3577 H 348.412 1.41733 -5.94745 0
M  V30 3578 H 352.586 1.08849 -6.87841 0
M  V30 3579 H 350.213 0.864345 -7.5527 0
M  V30 3580 N 351.788 1.33704 0.83433 0
M  V30 3581 C 353.034 1.25603 1.59222 0
M  V30 3582 C 353.367 -0.176659 1.93395 0
M  V30 3583 O 352.642 -1.11915 1.59076 0
M  V30 3584 C 352.925 2.13576 2.89926 0
M  V30 3585 C 352.778 3.65326 2.62406 0
M  V30 3586 C 354.097 2.01238 3.91397 0
M  V30 3587 H 351.216 0.457613 0.577719 0
M  V30 3588 H 353.858 1.63848 0.961972 0
M  V30 3589 H 352.008 1.8109 3.43713 0
M  V30 3590 H 353.68 4.08124 2.15017 0
M  V30 3591 H 351.923 3.8698 1.96033 0
M  V30 3592 H 352.594 4.22232 3.55562 0
M  V30 3593 H 355.07 2.29738 3.46929 0
M  V30 3594 H 353.946 2.65036 4.80673 0
M  V30 3595 H 354.207 0.985951 4.30966 0
M  V30 3596 N 353.266 -1.05314 1.17247 0
M  V30 3597 C 354.214 -2.15137 0.884238 0
M  V30 3598 C 355.208 -1.68729 -0.15063 0
M  V30 3599 O 356.414 -1.8 -0.00366673 0
M  V30 3600 H 352.789 -0.702471 0.2684 0
M  V30 3601 H 354.76 -2.36652 1.81764 0
M  V30 3602 C 353.509 -3.45243 0.412659 0
M  V30 3603 H 352.832 -3.81352 1.20043 0
M  V30 3604 H 354.272 -4.23263 0.249858 0
M  V30 3605 C 352.731 -3.25487 -0.86948 0
M  V30 3606 O 353.261 -3.51938 -1.93655 0
M  V30 3607 N 351.467 -2.78875 -0.817147 0
M  V30 3608 H 351.014 -2.57549 0.0514211 0
M  V30 3609 H 350.972 -2.66036 -1.67547 0
M  V30 3610 N 354.744 -0.972509 -1.24016 0
M  V30 3611 C 355.99 -0.647583 -1.92816 0
M  V30 3612 C 356.345 0.809015 -1.74564 0
M  V30 3613 O 355.638 1.57502 -1.09103 0
M  V30 3614 C 355.832 -0.963694 -3.44162 0
M  V30 3615 C 355.661 -2.44947 -3.77135 0
M  V30 3616 C 354.431 -3.11012 -3.98246 0
M  V30 3617 C 356.629 -3.42978 -3.83237 0
M  V30 3618 N 354.611 -4.49277 -4.18358 0
M  V30 3619 C 355.982 -4.66619 -4.08248 0
M  V30 3620 C 358.037 -3.37569 -3.65994 0
M  V30 3621 C 356.74 -5.85516 -4.17808 0
M  V30 3622 C 358.766 -4.55822 -3.76802 0
M  V30 3623 C 358.128 -5.78256 -4.02243 0
M  V30 3624 H 354.227 -0.287894 -0.727077 0
M  V30 3625 H 356.811 -1.24835 -1.49413 0
M  V30 3626 H 354.982 -0.391692 -3.8642 0
M  V30 3627 H 356.714 -0.596849 -4.00275 0
M  V30 3628 H 353.469 -2.61529 -3.94841 0
M  V30 3629 H 353.893 -5.20935 -4.32384 0
M  V30 3630 H 358.535 -2.43945 -3.45327 0
M  V30 3631 H 356.253 -6.79564 -4.37285 0
M  V30 3632 H 359.839 -4.53204 -3.64825 0
M  V30 3633 H 358.719 -6.68231 -4.10411 0
M  V30 3634 N 356.222 1.38976 -0.743202 0
M  V30 3635 C 357.471 1.99581 -0.291592 0
M  V30 3636 C 357.784 1.59656 1.13001 0
M  V30 3637 O 358.99 2.13157 1.68156 0
M  V30 3638 C 357.446 3.56813 -0.470391 0
M  V30 3639 C 357.054 4.05695 -1.90041 0
M  V30 3640 C 358.798 4.24423 -0.0809709 0
M  V30 3641 C 356.705 5.5553 -2.02832 0
M  V30 3642 H 355.635 0.746615 -0.105272 0
M  V30 3643 H 358.286 1.58872 -0.918258 0
M  V30 3644 H 356.668 3.95359 0.225299 0
M  V30 3645 H 357.842 3.78464 -2.62872 0
M  V30 3646 H 356.157 3.50775 -2.24379 0
M  V30 3647 H 358.754 5.34474 -0.155445 0
M  V30 3648 H 359.097 4.04962 0.96497 0
M  V30 3649 H 359.63 3.9108 -0.728124 0
M  V30 3650 H 356.369 5.79881 -3.05643 0
M  V30 3651 H 355.889 5.84537 -1.34448 0
M  V30 3652 H 357.568 6.21069 -1.81335 0
M  V30 3653 N 357.7 0.491464 1.49741 0
M  V30 3654 C 358.977 -0.118984 1.95238 0
M  V30 3655 C 359.357 -1.55044 1.43264 0
M  V30 3656 O 358.705 -2.19287 0.642287 0
M  V30 3657 C 358.915 -0.0414187 3.48975 0
M  V30 3658 C 360.263 -0.220133 4.24029 0
M  V30 3659 O 361.287 -0.117055 3.56008 0
M  V30 3660 O 360.146 -0.430567 5.44801 0
M  V30 3661 H 357.24 -0.100536 0.820866 0
M  V30 3662 H 359.786 0.553322 1.60426 0
M  V30 3663 H 358.558 0.957214 3.79412 0
M  V30 3664 H 358.181 -0.754292 3.9038 0
M  V30 3665 N 359.178 -1.55987 0.224894 0
M  V30 3666 C 360.403 -2.03232 -0.41369 0
M  V30 3667 C 360.828 -1.10359 -1.52323 0
M  V30 3668 O 360.186 -0.092395 -1.81064 0
M  V30 3669 C 360.234 -3.48682 -0.919405 0
M  V30 3670 O 359.338 -3.58947 -2.03054 0
M  V30 3671 H 358.679 -0.657428 -0.0931903 0
M  V30 3672 H 361.209 -2.01679 0.34451 0
M  V30 3673 H 361.219 -3.8907 -1.22835 0
M  V30 3674 H 359.894 -4.15761 -0.107339 0
M  V30 3675 H 358.471 -3.30448 -1.72796 0
M  V30 3676 N 360.656 0.0484629 -1.57525 0
M  V30 3677 C 361.905 0.742065 -1.87553 0
M  V30 3678 C 362.218 1.77545 -0.820802 0
M  V30 3679 O 363.424 2.52027 -1.00967 0
M  V30 3680 C 361.88 1.37081 -3.32771 0
M  V30 3681 C 361.488 0.374786 -4.4643 0
M  V30 3682 C 363.232 2.04542 -3.71972 0
M  V30 3683 C 361.139 1.01077 -5.82698 0
M  V30 3684 H 360.069 0.280903 -0.699721 0
M  V30 3685 H 362.72 -0.00411877 -1.835 0
M  V30 3686 H 361.102 2.16605 -3.31509 0
M  V30 3687 H 362.276 -0.392331 -4.59127 0
M  V30 3688 H 360.591 -0.196653 -4.15935 0
M  V30 3689 H 363.188 2.52943 -4.71088 0
M  V30 3690 H 363.531 2.85515 -3.02964 0
M  V30 3691 H 364.064 1.31819 -3.75325 0
M  V30 3692 H 360.803 0.240878 -6.55057 0
M  V30 3693 H 360.323 1.74819 -5.73758 0
M  V30 3694 H 362.002 1.52383 -6.28799 0
M  V30 3695 N 362.134 1.5431 0.320358 0
M  V30 3696 C 363.383 1.7188 1.05546 0
M  V30 3697 C 363.696 0.501143 1.89071 0
M  V30 3698 O 364.902 0.558258 2.65699 0
M  V30 3699 C 363.358 3.04025 1.92605 0
M  V30 3700 C 362.966 4.33207 1.14176 0
M  V30 3701 C 364.71 3.30959 2.65832 0
M  V30 3702 C 362.617 5.56412 2.00399 0
M  V30 3703 H 361.547 0.640547 0.397763 0
M  V30 3704 H 364.198 1.80802 0.313522 0
M  V30 3705 H 362.58 2.89019 2.7071 0
M  V30 3706 H 363.754 4.58989 0.40819 0
M  V30 3707 H 362.069 4.13062 0.526165 0
M  V30 3708 H 364.666 4.20203 3.30656 0
M  V30 3709 H 365.009 2.48979 3.33639 0
M  V30 3710 H 365.542 3.46847 1.94787 0
M  V30 3711 H 362.281 6.41004 1.37094 0
M  V30 3712 H 361.801 5.34844 2.7148 0
M  V30 3713 H 363.48 5.92938 2.58908 0
M  V30 3714 N 363.613 -0.582584 1.46437 0
M  V30 3715 C 364.545 -1.70618 1.53043 0
M  V30 3716 C 365.558 -1.57322 0.418769 0
M  V30 3717 O 366.747 -1.64744 0.687136 0
M  V30 3718 C 363.847 -3.08869 1.39474 0
M  V30 3719 C 363.02 -3.48166 2.64762 0
M  V30 3720 C 362.079 -4.65478 2.4539 0
M  V30 3721 O 361.105 -4.71333 3.19114 0
M  V30 3722 N 362.307 -5.60365 1.51564 0
M  V30 3723 H 365.072 -1.65405 2.49923 0
M  V30 3724 H 362.633 -0.768567 1.42494 0
M  V30 3725 H 364.625 -3.85143 1.24287 0
M  V30 3726 H 363.195 -3.08449 0.507758 0
M  V30 3727 H 362.415 -2.61598 2.9489 0
M  V30 3728 H 363.703 -3.71188 3.4799 0
M  V30 3729 H 363.101 -5.5837 0.907705 0
M  V30 3730 H 361.658 -6.36068 1.4234 0
M  V30 3731 N 365.091 -1.34144 -0.827227 0
M  V30 3732 C 366.507 -1.13732 -1.11969 0
M  V30 3733 C 366.707 0.0640463 -2.01398 0
M  V30 3734 O 365.763 0.740856 -2.41387 0
M  V30 3735 C 367.076 -2.43047 -1.77055 0
M  V30 3736 C 368.624 -2.49063 -1.89569 0
M  V30 3737 C 369.099 -3.78369 -2.58072 0
M  V30 3738 N 370.59 -3.79505 -2.65575 0
M  V30 3739 C 371.325 -4.76274 -3.19297 0
M  V30 3740 N 370.821 -5.83424 -3.73616 0
M  V30 3741 N 372.614 -4.63735 -3.17658 0
M  V30 3742 H 364.765 -2.11126 -0.232296 0
M  V30 3743 H 367.028 -0.933424 -0.165602 0
M  V30 3744 H 366.734 -3.31025 -1.18807 0
M  V30 3745 H 366.608 -2.56066 -2.76966 0
M  V30 3746 H 368.995 -1.61527 -2.46968 0
M  V30 3747 H 369.076 -2.39975 -0.885745 0
M  V30 3748 H 368.72 -4.66293 -2.01329 0
M  V30 3749 H 368.65 -3.84737 -3.59562 0
M  V30 3750 H 371.141 -3.02074 -2.27068 0
M  V30 3751 H 371.454 -6.53282 -4.12846 0
M  V30 3752 H 369.799 -5.87143 -3.71871 0
M  V30 3753 H 372.99 -3.79177 -2.74486 0
M  V30 3754 H 373.163 -5.39318 -3.59221 0
M  V30 3755 N 366.569 1.04691 -1.17803 0
M  V30 3756 C 367.794 1.81984 -0.994813 0
M  V30 3757 C 368.219 1.82586 0.452112 0
M  V30 3758 O 367.577 1.23854 1.324 0
M  V30 3759 C 367.625 3.2575 -1.54659 0
M  V30 3760 O 366.729 4.05267 -0.763728 0
M  V30 3761 H 366.07 0.562483 -0.352857 0
M  V30 3762 H 368.6 1.3189 -1.56417 0
M  V30 3763 H 368.61 3.76541 -1.57102 0
M  V30 3764 H 367.285 3.24627 -2.59981 0
M  V30 3765 H 365.862 3.63972 -0.811108 0
M  V30 3766 N 368.047 0.979072 1.23499 0
M  V30 3767 C 368.957 0.526431 2.28617 0
M  V30 3768 C 369.973 -0.418126 1.68901 0
M  V30 3769 O 371.149 -0.288372 1.99325 0
M  V30 3770 C 368.214 -0.165235 3.46306 0
M  V30 3771 C 367.275 0.82056 4.21385 0
M  V30 3772 C 366.508 0.161807 5.33455 0
M  V30 3773 O 366.731 -1.04742 5.60701 0
M  V30 3774 O 365.665 0.859708 5.95729 0
M  V30 3775 H 369.491 1.4006 2.69475 0
M  V30 3776 H 367.076 0.746643 1.29405 0
M  V30 3777 H 368.958 -0.553287 4.17752 0
M  V30 3778 H 367.633 -1.01419 3.07402 0
M  V30 3779 H 366.54 1.25929 3.52268 0
M  V30 3780 H 367.873 1.63828 4.64135 0
M  V30 3781 N 369.525 -1.3858 0.750561 0
M  V30 3782 C 370.802 -1.94231 0.231009 0
M  V30 3783 C 371.182 -1.68611 -1.27018 0
M  V30 3784 O 370.53 -1.02296 -2.04323 0
M  V30 3785 C 370.74 -3.44123 0.581428 0
M  V30 3786 C 372.088 -4.2116 0.539389 0
M  V30 3787 O 373.112 -3.52391 0.519541 0
M  V30 3788 O 371.971 -5.43749 0.54765 0
M  V30 3789 H 369.065 -0.825639 0.0474263 0
M  V30 3790 H 371.611 -1.4799 0.830478 0
M  V30 3791 H 370.383 -3.56267 1.61833 0
M  V30 3792 H 370.006 -3.97573 -0.0462047 0
M  V30 3793 N 371.003 -0.499398 -1.49478 0
M  V30 3794 C 371.951 0.293604 -2.3074 0
M  V30 3795 C 372.945 0.96427 -1.39277 0
M  V30 3796 O 374.151 0.892141 -1.56336 0
M  V30 3797 H 370.526 0.113541 -0.743379 0
M  V30 3798 H 372.497 -0.411772 -2.95545 0
M  V30 3799 C 371.246 1.3462 -3.20582 0
M  V30 3800 H 370.569 0.83954 -3.90886 0
M  V30 3801 H 372.009 1.87308 -3.80384 0
M  V30 3802 C 370.468 2.36351 -2.40083 0
M  V30 3803 O 370.998 3.422 -2.10385 0
M  V30 3804 N 369.204 2.0878 -2.02137 0
M  V30 3805 H 368.751 1.22723 -2.26488 0
M  V30 3806 H 368.709 2.77075 -1.48583 0
M  V30 3807 N 372.481 1.55866 -0.233164 0
M  V30 3808 C 373.892 1.847 0.272554 0
M  V30 3809 C 374.243 1.15477 1.58617 0
M  V30 3810 O 373.368 0.42841 2.12117 0
M  V30 3811 C 373.963 3.35071 0.501299 0
M  V30 3812 C 372.522 3.6418 0.951304 0
M  V30 3813 C 371.669 2.77292 0.0208209 0
M  V30 3814 H 374.62 1.52005 -0.456074 0
M  V30 3815 H 374.641 3.55906 1.34577 0
M  V30 3816 H 374.153 3.85424 -0.454936 0
M  V30 3817 H 372.254 3.19293 1.92049 0
M  V30 3818 H 372.367 4.72071 0.817675 0
M  V30 3819 H 370.731 2.49131 0.529723 0
M  V30 3820 H 371.514 3.30448 -0.93054 0
M  V30 3821 N 373.959 -0.0401083 1.57549 0
M  V30 3822 C 375.199 -0.738098 1.90608 0
M  V30 3823 C 375.563 -1.73107 0.830539 0
M  V30 3824 O 376.764 -2.4765 1.04513 0
M  V30 3825 C 375.035 -1.39985 3.28845 0
M  V30 3826 S 376.594 -2.12852 3.83718 0
M  V30 3827 H 373.412 -0.24477 0.667539 0
M  V30 3828 H 376.014 0.00693599 1.95499 0
M  V30 3829 H 374.718 -0.663775 4.04997 0
M  V30 3830 H 374.249 -2.18366 3.2723 0
M  V30 3831 H 376.264 -3.39842 3.61555 0
M  V30 3832 N 375.437 -1.54477 -0.31217 0
M  V30 3833 C 376.848 -1.64344 -0.885891 0
M  V30 3834 C 377.199 -0.54485 -1.88483 0
M  V30 3835 O 376.324 0.320387 -2.14015 0
M  V30 3836 C 376.919 -2.97908 -1.61357 0
M  V30 3837 C 375.478 -3.09933 -2.13585 0
M  V30 3838 C 374.625 -2.59971 -0.964897 0
M  V30 3839 H 377.576 -1.58448 -0.0894528 0
M  V30 3840 H 377.597 -2.88706 -2.47848 0
M  V30 3841 H 377.109 -3.77845 -0.886277 0
M  V30 3842 H 375.21 -2.34694 -2.89395 0
M  V30 3843 H 375.323 -4.15916 -2.37804 0
M  V30 3844 H 373.687 -2.16147 -1.34731 0
M  V30 3845 H 374.47 -3.42376 -0.251742 0
M  V30 3846 N 376.915 0.57481 -1.46744 0
M  V30 3847 C 377.865 1.67838 -1.54319 0
M  V30 3848 C 378.849 1.55759 -0.40346 0
M  V30 3849 O 380.041 1.6454 -0.652347 0
M  V30 3850 C 377.17 3.06624 -1.5439 0
M  V30 3851 C 376.256 3.23971 -2.73685 0
M  V30 3852 N 376.647 3.11447 -3.9854 0
M  V30 3853 C 374.945 3.5493 -2.70075 0
M  V30 3854 C 375.646 3.31011 -4.78337 0
M  V30 3855 N 374.622 3.56533 -4.10348 0
M  V30 3856 H 378.424 1.56698 -2.48642 0
M  V30 3857 H 375.938 0.779071 -1.42493 0
M  V30 3858 H 377.935 3.85839 -1.57905 0
M  V30 3859 H 376.595 3.1889 -0.611493 0
M  V30 3860 H 377.606 2.89145 -4.29669 0
M  V30 3861 H 374.283 3.73832 -1.85893 0
M  V30 3862 H 375.673 3.26445 -5.87268 0
M  V30 3863 N 378.394 1.34581 0.820102 0
M  V30 3864 C 379.805 1.24298 1.39309 0
M  V30 3865 C 380.156 -0.130351 1.95767 0
M  V30 3866 O 379.281 -1.0308 1.90272 0
M  V30 3867 C 379.876 2.25054 2.53251 0
M  V30 3868 C 378.435 2.18552 3.0645 0
M  V30 3869 C 377.582 2.11503 1.79337 0
M  V30 3870 H 380.533 1.45906 0.624262 0
M  V30 3871 H 380.554 1.86917 3.31425 0
M  V30 3872 H 380.066 3.24996 2.1213 0
M  V30 3873 H 378.167 1.21976 3.52069 0
M  V30 3874 H 378.28 3.0993 3.65349 0
M  V30 3875 H 376.644 1.57268 2.00347 0
M  V30 3876 H 377.427 3.13284 1.40386 0
M  V30 3877 N 379.872 -1.04064 1.18357 0
M  V30 3878 C 381.288 -1.2947 0.933258 0
M  V30 3879 C 381.488 -1.97466 -0.401169 0
M  V30 3880 O 380.544 -2.25528 -1.13549 0
M  V30 3881 C 381.857 -2.15337 2.09882 0
M  V30 3882 C 383.405 -2.28683 2.13712 0
M  V30 3883 C 383.88 -3.17917 3.29686 0
M  V30 3884 N 385.371 -3.25504 3.29547 0
M  V30 3885 C 386.106 -3.94706 4.15926 0
M  V30 3886 N 385.602 -4.66239 5.12439 0
M  V30 3887 N 387.395 -3.90986 4.0384 0
M  V30 3888 H 379.546 -0.583359 2.04232 0
M  V30 3889 H 381.809 -0.319921 0.892387 0
M  V30 3890 H 381.515 -1.72682 3.06389 0
M  V30 3891 H 381.389 -3.16015 2.05947 0
M  V30 3892 H 383.776 -2.70575 1.17784 0
M  V30 3893 H 383.857 -1.27596 2.21705 0
M  V30 3894 H 383.501 -2.76736 4.25887 0
M  V30 3895 H 383.431 -4.19036 3.1893 0
M  V30 3896 H 385.922 -2.74547 2.59677 0
M  V30 3897 H 386.235 -5.16638 5.74722 0
M  V30 3898 H 384.58 -4.65143 5.16398 0
M  V30 3899 H 387.771 -3.34234 3.27727 0
M  V30 3900 H 387.944 -4.44646 4.71375 0
M  V30 3901 N 381.35 -0.985608 -1.22978 0
M  V30 3902 C 382.627 -0.573599 -1.87001 0
M  V30 3903 C 383.007 0.949213 -1.88555 0
M  V30 3904 O 382.355 1.82811 -1.37086 0
M  V30 3905 C 382.565 -1.18564 -3.28243 0
M  V30 3906 C 383.913 -1.28163 -4.04796 0
M  V30 3907 O 384.937 -1.13949 -3.37482 0
M  V30 3908 O 383.796 -1.50832 -5.25273 0
M  V30 3909 H 380.89 -0.193868 -0.803955 0
M  V30 3910 H 383.436 -1.08102 -1.30813 0
M  V30 3911 H 382.208 -2.22758 -3.21706 0
M  V30 3912 H 381.831 -0.663363 -3.92027 0
M  V30 3913 N 382.828 1.3818 -0.7579 0
M  V30 3914 C 384.239 1.82726 -0.383134 0
M  V30 3915 C 384.59 1.63214 1.08884 0
M  V30 3916 O 383.715 1.13566 1.84205 0
M  V30 3917 C 384.31 3.31728 -0.688631 0
M  V30 3918 C 382.869 3.74606 -0.367091 0
M  V30 3919 C 382.016 2.60896 -0.939599 0
M  V30 3920 H 384.967 1.26847 -0.953699 0
M  V30 3921 H 384.988 3.80487 0.0316492 0
M  V30 3922 H 384.5 3.45898 -1.76001 0
M  V30 3923 H 382.601 3.66013 0.697532 0
M  V30 3924 H 382.714 4.71215 -0.865658 0
M  V30 3925 H 381.078 2.52075 -0.3647 0
M  V30 3926 H 381.861 2.77864 -2.0161 0
M  V30 3927 N 384.306 0.507319 1.49211 0
M  V30 3928 C 385.583 -0.0982702 1.95353 0
M  V30 3929 C 385.963 -1.53516 1.449 0
M  V30 3930 O 385.311 -2.18594 0.66551 0
M  V30 3931 C 385.521 -0.00440283 3.49 0
M  V30 3932 C 386.869 -0.175147 4.24239 0
M  V30 3933 O 387.893 -0.0792891 3.56112 0
M  V30 3934 O 386.752 -0.37276 5.45227 0
M  V30 3935 H 383.846 -0.0918236 0.821887 0
M  V30 3936 H 386.392 0.570307 1.5983 0
M  V30 3937 H 385.164 0.997402 3.78375 0
M  V30 3938 H 384.787 -0.712845 3.91158 0
M  V30 3939 N 385.784 -1.5574 0.241426 0
M  V30 3940 C 387.195 -1.84842 -0.262755 0
M  V30 3941 C 387.546 -1.16317 -1.58003 0
M  V30 3942 O 386.671 -0.439653 -2.11887 0
M  V30 3943 C 387.266 -3.35332 -0.483523 0
M  V30 3944 C 385.825 -3.6468 -0.931977 0
M  V30 3945 C 384.972 -2.77299 -0.0061151 0
M  V30 3946 H 387.923 -1.51761 0.464129 0
M  V30 3947 H 387.944 -3.56615 -1.32688 0
M  V30 3948 H 387.456 -3.85178 0.47537 0
M  V30 3949 H 385.557 -3.20307 -1.90353 0
M  V30 3950 H 385.67 -4.72498 -0.792628 0
M  V30 3951 H 384.034 -2.49408 -0.516503 0
M  V30 3952 H 384.817 -3.2995 0.948052 0
M  V30 3953 N 387.262 0.0317525 -1.57568 0
M  V30 3954 C 388.225 1.01783 -2.0536 0
M  V30 3955 C 389.225 1.29203 -0.957253 0
M  V30 3956 O 390.415 1.24251 -1.22095 0
M  V30 3957 C 387.547 2.35137 -2.46827 0
M  V30 3958 H 388.74 0.605062 -2.93733 0
M  V30 3959 H 386.293 0.278514 -1.53799 0
M  V30 3960 H 387.028 2.81168 -1.61602 0
M  V30 3961 H 386.813 2.16566 -3.26866 0
M  V30 3962 H 388.303 3.05938 -2.84239 0
M  V30 3963 N 388.74 1.54641 0.303973 0
M  V30 3964 C 389.965 1.78092 1.06292 0
M  V30 3965 C 390.39 0.537342 1.80262 0
M  V30 3966 O 389.748 -0.511993 1.7392 0
M  V30 3967 C 389.796 2.98612 2.02147 0
M  V30 3968 O 388.9 2.71528 3.10397 0
M  V30 3969 H 388.241 0.589548 0.305497 0
M  V30 3970 H 390.771 2.01716 0.3423 0
M  V30 3971 H 390.781 3.265 2.44667 0
M  V30 3972 H 389.456 3.88785 1.47714 0
M  V30 3973 H 388.033 2.54648 2.72413 0
M  V30 3974 N 390.218 -0.567019 1.47046 0
M  V30 3975 C 391.634 -0.891975 1.32348 0
M  V30 3976 C 391.834 -1.99154 0.306616 0
M  V30 3977 O 390.89 -2.50883 -0.28532 0
M  V30 3978 C 392.203 -1.29449 2.7141 0
M  V30 3979 C 393.751 -1.40646 2.79621 0
M  V30 3980 C 394.226 -1.84257 4.19301 0
M  V30 3981 N 395.717 -1.91424 4.21795 0
M  V30 3982 C 396.452 -2.26476 5.26779 0
M  V30 3983 N 395.948 -2.60211 6.42077 0
M  V30 3984 N 397.741 -2.27166 5.14152 0
M  V30 3985 H 389.892 0.159074 2.11803 0
M  V30 3986 H 392.155 0.00849752 0.947962 0
M  V30 3987 H 391.861 -0.560448 3.47206 0
M  V30 3988 H 391.735 -2.25273 3.02542 0
M  V30 3989 H 394.122 -2.13133 2.04104 0
M  V30 3990 H 394.203 -0.430339 2.52154 0
M  V30 3991 H 393.847 -1.12343 4.95319 0
M  V30 3992 H 393.777 -2.82855 4.44185 0
M  V30 3993 H 396.268 -1.6778 3.38612 0
M  V30 3994 H 396.581 -2.85956 7.17948 0
M  V30 3995 H 394.926 -2.57813 6.45413 0
M  V30 3996 H 398.117 -2.00244 4.23107 0
M  V30 3997 H 398.29 -2.54154 5.96079 0
M  V30 3998 N 391.696 -1.35014 -0.812953 0
M  V30 3999 C 392.924 -1.31031 -1.6012 0
M  V30 4000 C 393.339 0.113558 -1.88458 0
M  V30 4001 O 392.696 1.06363 -1.48301 0
M  V30 4002 C 392.747 -2.10872 -2.93624 0
M  V30 4003 O 392.468 -3.47706 -2.66518 0
M  V30 4004 C 393.969 -2.14401 -3.88004 0
M  V30 4005 H 391.189 -0.45037 -0.497401 0
M  V30 4006 H 393.733 -1.77775 -1.01076 0
M  V30 4007 H 391.888 -1.67744 -3.492 0
M  V30 4008 H 392.302 -3.89097 -3.51715 0
M  V30 4009 H 393.776 -2.74669 -4.78812 0
M  V30 4010 H 394.253 -1.14105 -4.24119 0
M  V30 4011 H 394.859 -2.57662 -3.38364 0
M  V30 4012 N 393.175 1.03435 -1.18907 0
M  V30 4013 C 394.125 2.09924 -0.889706 0
M  V30 4014 C 395.109 1.60261 0.143216 0
M  V30 4015 O 396.301 1.76892 -0.0617122 0
M  V30 4016 C 393.43 3.40669 -0.424168 0
M  V30 4017 C 392.516 3.97082 -1.48952 0
M  V30 4018 N 392.907 4.27227 -2.70759 0
M  V30 4019 C 391.205 4.25029 -1.35152 0
M  V30 4020 C 391.906 4.7246 -3.39347 0
M  V30 4021 N 390.882 4.7366 -2.66735 0
M  V30 4022 H 394.684 2.31116 -1.81555 0
M  V30 4023 H 392.198 1.21246 -1.08042 0
M  V30 4024 H 394.195 4.16461 -0.191176 0
M  V30 4025 H 392.855 3.20901 0.495263 0
M  V30 4026 H 393.866 4.16678 -3.0757 0
M  V30 4027 H 390.543 4.14554 -0.495126 0
M  V30 4028 H 391.933 5.04751 -4.43481 0
M  V30 4029 O 394.692 1.12039 1.16316 0
M  V30 4030 H 395.383 0.829719 1.7503 0
M  V30 END ATOM
M  V30 BEGIN BOND
M  V30 END BOND
M  V30 END CTAB
M  END
$$$$
