drugbank_target|P08373 UDP-N-acetylenolpyruvoylglucosamine reductase (DB03147; DB07296)
 OpenBabel12092120263D

  0  0  0     0  0            999 V3000
M  V30 BEGIN CTAB
M  V30 COUNTS 5302 5364 0 0 0
M  V30 BEGIN ATOM
M  V30 1 H -0.908 1.98254 -0.117106 0
M  V30 2 N 0 1.576 0 0
M  V30 3 C 0.933 2.03868 1.02534 0
M  V30 4 C 1.911 0.928543 1.3348 0
M  V30 5 O 3.095 1.19667 1.45644 0
M  V30 6 C 0.222 2.43627 2.35294 0
M  V30 7 C -0.732 3.65373 2.2001 0
M  V30 8 S 0.101 5.13292 1.52614 0
M  V30 9 C 1.257 5.56322 2.86805 0
M  V30 10 H 1.49 2.90518 0.631377 0
M  V30 11 H -0.977 1.52953 0.210867 0
M  V30 12 H 0.981 2.67203 3.11629 0
M  V30 13 H -0.358 1.57376 2.7183 0
M  V30 14 H -1.165 3.90944 3.18086 0
M  V30 15 H -1.563 3.418 1.51819 0
M  V30 16 H 0.729 5.58782 3.83104 0
M  V30 17 H 1.672 6.56266 2.65933 0
M  V30 18 H 2.08 4.83886 2.90714 0
M  V30 19 N 1.4781 -0.272755 1.55222 0
M  V30 20 C 2.4261 -1.35705 1.88909 0
M  V30 21 C 3.4201 -1.5112 0.765456 0
M  V30 22 O 4.6261 -1.52901 0.949802 0
M  V30 23 H 1.0011 -0.453868 0.59959 0
M  V30 24 H 2.9721 -1.04544 2.79487 0
M  V30 25 C 1.7211 -2.71049 2.17779 0
M  V30 26 H 1.0441 -2.59979 3.03728 0
M  V30 27 H 2.4841 -3.45858 2.45272 0
M  V30 28 C 0.9431 -3.22165 0.985473 0
M  V30 29 O 1.4731 -4.01096 0.220233 0
M  V30 30 N -0.3209 -2.7985 0.783108 0
M  V30 31 H -0.7739 -2.15775 1.40708 0
M  V30 32 H -0.8159 -3.14397 -0.0130392 0
M  V30 33 N 2.9562 -1.48159 -0.537278 0
M  V30 34 C 3.9062 -1.5854 -1.63857 0
M  V30 35 C 4.8902 -0.442969 -1.54682 0
M  V30 36 O 6.0822 -0.69401 -1.62827 0
M  V30 37 C 3.2112 -1.62144 -3.02596 0
M  V30 38 C 2.2972 -2.81841 -3.16901 0
M  V30 39 N 2.6882 -4.06337 -3.01204 0
M  V30 40 C 0.9862 -2.79021 -3.47942 0
M  V30 41 C 1.6872 -4.86606 -3.18731 0
M  V30 42 N 0.6632 -4.19288 -3.45974 0
M  V30 43 H 4.4652 -2.5255 -1.50319 0
M  V30 44 H 1.9792 -1.4443 -0.742555 0
M  V30 45 H 3.9762 -1.67674 -3.81695 0
M  V30 46 H 2.6362 -0.69245 -3.17231 0
M  V30 47 H 3.6472 -4.36888 -2.78117 0
M  V30 48 H 0.3242 -1.95347 -3.6898 0
M  V30 49 H 1.7142 -5.95385 -3.11394 0
M  V30 50 N 4.4343 0.785586 -1.36625 0
M  V30 51 C 5.6593 1.57963 -1.34397 0
M  V30 52 C 6.0843 1.87964 0.071526 0
M  V30 53 O 5.4423 1.48182 1.0446 0
M  V30 54 C 5.4903 2.87511 -2.17646 0
M  V30 55 O 4.5943 3.81281 -1.57158 0
M  V30 56 H 3.9353 0.479014 -0.459828 0
M  V30 57 H 6.4653 0.973411 -1.79961 0
M  V30 58 H 6.4753 3.36745 -2.30362 0
M  V30 59 H 5.1503 2.65002 -3.20541 0
M  V30 60 H 3.7273 3.39885 -1.53403 0
M  V30 61 N 5.9124 1.20967 1.01018 0
M  V30 62 C 6.8424 0.988272 2.11555 0
M  V30 63 C 7.8234 -0.0849778 1.69888 0
M  V30 64 O 9.0084 0.0738202 1.9406 0
M  V30 65 C 6.1384 0.546528 3.42973 0
M  V30 66 C 5.0924 1.56375 3.9841 0
M  V30 67 C 4.4184 0.97842 5.25672 0
M  V30 68 C 5.7184 2.94922 4.31066 0
M  V30 69 H 7.4124 1.91276 2.30334 0
M  V30 70 H 4.9584 0.921073 1.1069 0
M  V30 71 H 6.9114 0.378839 4.19694 0
M  V30 72 H 5.6354 -0.413598 3.23971 0
M  V30 73 H 4.2944 1.71891 3.23804 0
M  V30 74 H 3.9424 0.0101688 5.02999 0
M  V30 75 H 3.6424 1.65784 5.63728 0
M  V30 76 H 5.1664 0.821939 6.05043 0
M  V30 77 H 6.5804 2.8288 4.9865 0
M  V30 78 H 4.9774 3.5983 4.80253 0
M  V30 79 H 6.0474 3.4616 3.39561 0
M  V30 80 N 7.3905 -1.2043 1.01659 0
M  V30 81 C 8.3375 -2.23215 0.586822 0
M  V30 82 C 9.3075 -1.61382 -0.393085 0
M  V30 83 O 10.4925 -1.88544 -0.292525 0
M  V30 84 C 7.6325 -3.45032 -0.0687464 0
M  V30 85 C 6.7455 -4.21296 0.955724 0
M  V30 86 C 5.8805 -5.30507 0.271208 0
M  V30 87 C 4.9195 -5.98515 1.28244 0
M  V30 88 N 4.0565 -6.99316 0.62459 0
M  V30 89 H 8.8965 -2.59336 1.46796 0
M  V30 90 H 6.4335 -1.27431 0.734836 0
M  V30 91 H 8.3915 -4.1459 -0.465965 0
M  V30 92 H 7.0215 -3.09604 -0.913529 0
M  V30 93 H 6.0735 -3.50803 1.4711 0
M  V30 94 H 7.3855 -4.6803 1.72479 0
M  V30 95 H 6.5395 -6.06428 -0.18151 0
M  V30 96 H 5.2785 -4.8481 -0.530163 0
M  V30 97 H 4.2835 -5.21355 1.74554 0
M  V30 98 H 5.5085 -6.46298 2.08509 0
M  V30 99 H 3.4545 -6.55812 -0.156914 0
M  V30 100 H 3.3715 -7.44178 1.33172 0
M  V30 101 H 4.6395 -7.79255 0.195462 0
M  V30 102 N 8.8686 -0.792821 -1.36206 0
M  V30 103 C 10.2796 -0.429513 -1.81692 0
M  V30 104 C 10.6306 1.04695 -1.65932 0
M  V30 105 O 9.7556 1.81256 -1.18218 0
M  V30 106 C 10.3506 -0.772831 -3.29868 0
M  V30 107 C 8.9096 -0.462307 -3.7355 0
M  V30 108 C 8.0566 -1.00569 -2.5842 0
M  V30 109 H 11.0076 -0.985672 -1.24379 0
M  V30 110 H 11.0286 -0.0651928 -3.80444 0
M  V30 111 H 10.5406 -1.84747 -3.41307 0
M  V30 112 H 8.6416 0.604158 -3.67669 0
M  V30 113 H 8.7546 -0.985299 -4.68859 0
M  V30 114 H 7.1186 -0.428734 -2.51066 0
M  V30 115 H 7.9016 -2.08616 -2.72643 0
M  V30 116 N 10.3467 1.47872 -0.545128 0
M  V30 117 C 11.5927 2.03385 -0.0247951 0
M  V30 118 C 11.9477 1.41325 1.30556 0
M  V30 119 O 11.2407 0.5552 1.8338 0
M  V30 120 C 11.4347 3.57131 0.13867 0
M  V30 121 C 11.2637 4.34097 -1.17429 0
M  V30 122 C 10.0337 4.74458 -1.73831 0
M  V30 123 C 12.2317 4.6998 -2.08861 0
M  V30 124 N 10.2137 5.3602 -2.99258 0
M  V30 125 C 11.5847 5.31719 -3.18866 0
M  V30 126 C 13.6397 4.5191 -2.09003 0
M  V30 127 C 12.3427 5.77295 -4.29096 0
M  V30 128 C 14.3687 4.98477 -3.18237 0
M  V30 129 C 13.7307 5.60253 -4.26961 0
M  V30 130 H 9.8297 0.780339 -0.050943 0
M  V30 131 H 12.4137 1.80507 -0.729753 0
M  V30 132 H 10.5847 3.79802 0.812733 0
M  V30 133 H 12.3167 3.99282 0.659976 0
M  V30 134 H 9.0717 4.56037 -1.2778 0
M  V30 135 H 9.4957 5.71355 -3.63157 0
M  V30 136 H 14.1377 4.03516 -1.26234 0
M  V30 137 H 11.8557 6.24687 -5.12633 0
M  V30 138 H 15.4417 4.86274 -3.1942 0
M  V30 139 H 14.3217 5.95631 -5.10091 0
M  V30 140 N 11.8248 0.280983 1.55075 0
M  V30 141 C 12.7728 -0.619864 2.24188 0
M  V30 142 C 13.7668 -1.15315 1.24092 0
M  V30 143 O 14.9728 -1.1061 1.42005 0
M  V30 144 H 11.3478 -0.218459 0.719569 0
M  V30 145 H 13.3188 -0.0141831 2.98397 0
M  V30 146 C 12.0678 -1.7899 2.98091 0
M  V30 147 H 11.3908 -1.38874 3.74905 0
M  V30 148 H 12.8308 -2.39672 3.49762 0
M  V30 149 C 11.2898 -2.68192 2.03899 0
M  V30 150 O 11.8198 -3.6872 1.594 0
M  V30 151 N 10.0258 -2.35488 1.70275 0
M  V30 152 H 9.5728 -1.53787 2.06658 0
M  V30 153 H 9.5308 -2.95442 1.07524 0
M  V30 154 N 13.3029 -1.57598 0.00835791 0
M  V30 155 C 14.5309 -1.95214 -0.68549 0
M  V30 156 C 14.9459 -0.883706 -1.66841 0
M  V30 157 O 14.3029 0.136565 -1.81988 0
M  V30 158 C 14.3539 -3.32865 -1.41007 0
M  V30 159 O 14.0749 -4.35609 -0.466552 0
M  V30 160 C 15.5759 -3.84991 -2.19765 0
M  V30 161 H 12.7959 -0.643422 -0.190392 0
M  V30 162 H 15.3399 -2.04406 0.0619607 0
M  V30 163 H 13.4949 -3.24956 -2.10908 0
M  V30 164 H 13.9089 -5.15288 -0.978699 0
M  V30 165 H 15.3829 -4.8371 -2.65948 0
M  V30 166 H 15.8599 -3.18137 -3.02796 0
M  V30 167 H 16.4659 -3.96103 -1.54864 0
M  V30 168 N 14.781 0.264519 -1.55364 0
M  V30 169 C 16.028 0.994986 -1.7637 0
M  V30 170 C 16.356 1.85976 -0.5695 0
M  V30 171 O 15.611 1.90509 0.44776 0
M  V30 172 C 15.91 1.9004 -3.02687 0
M  V30 173 C 15.576 1.19243 -4.34847 0
M  V30 174 C 14.238 0.996709 -4.70764 0
M  V30 175 C 16.59 0.689296 -5.16622 0
M  V30 176 C 13.918 0.285261 -5.86006 0
M  V30 177 C 16.27 -0.00860079 -6.32599 0
M  V30 178 C 14.934 -0.215963 -6.67151 0
M  V30 179 H 14.204 0.364091 -0.645383 0
M  V30 180 H 16.851 0.266543 -1.89636 0
M  V30 181 H 15.156 2.69533 -2.84357 0
M  V30 182 H 16.853 2.46695 -3.16137 0
M  V30 183 H 13.443 1.3549 -4.06621 0
M  V30 184 H 17.627 0.828108 -4.89342 0
M  V30 185 H 12.883 0.113961 -6.11294 0
M  V30 186 H 17.057 -0.406186 -6.95214 0
M  V30 187 H 14.684 -0.769217 -7.56298 0
M  V30 188 N 16.2591 1.48442 0.529413 0
M  V30 189 C 17.5071 1.56179 1.28267 0
M  V30 190 C 17.8281 0.237721 1.93546 0
M  V30 191 O 17.0981 -0.740779 1.81354 0
M  V30 192 H 15.6781 0.575367 0.476405 0
M  V30 193 H 18.3401 1.84909 0.61602 0
M  V30 194 H 17.4361 2.34312 2.06165 0
M  V30 195 N 17.7372 -0.778329 1.37039 0
M  V30 196 C 18.9862 -1.53189 1.3121 0
M  V30 197 C 19.2992 -1.95328 -0.103095 0
M  V30 198 O 20.5052 -2.70012 -0.283826 0
M  V30 199 C 18.9612 -2.76591 2.30272 0
M  V30 200 C 18.5692 -2.41577 3.77286 0
M  V30 201 C 20.3132 -3.5455 2.33441 0
M  V30 202 C 18.2202 -3.61441 4.68096 0
M  V30 203 H 17.1502 -0.5751 0.487622 0
M  V30 204 H 19.8012 -0.853101 1.62464 0
M  V30 205 H 18.1832 -3.46326 1.92027 0
M  V30 206 H 19.3572 -1.79668 4.2433 0
M  V30 207 H 17.6722 -1.76806 3.76999 0
M  V30 208 H 20.2692 -4.43628 2.98493 0
M  V30 209 H 20.6122 -3.93936 1.34611 0
M  V30 210 H 21.1452 -2.91805 2.7036 0
M  V30 211 H 17.8842 -3.27142 5.6803 0
M  V30 212 H 17.4042 -4.22478 4.25761 0
M  V30 213 H 19.0832 -4.28335 4.8491 0
M  V30 214 N 19.2153 -1.21501 -1.00376 0
M  V30 215 C 20.4923 -0.941745 -1.71437 0
M  V30 216 C 20.8723 0.546114 -2.03914 0
M  V30 217 O 20.2203 1.51128 -1.71384 0
M  V30 218 C 20.4303 -1.82812 -2.97289 0
M  V30 219 C 21.7783 -2.07771 -3.70292 0
M  V30 220 O 22.8023 -1.80171 -3.07273 0
M  V30 221 O 21.6613 -2.54456 -4.83647 0
M  V30 222 H 18.7553 -0.353243 -0.747762 0
M  V30 223 H 21.3013 -1.32436 -1.06108 0
M  V30 224 H 20.0733 -2.83501 -2.69709 0
M  V30 225 H 19.6963 -1.4464 -3.70358 0
M  V30 226 N 20.6934 1.19889 -1.02296 0
M  V30 227 C 21.6434 2.20777 -0.56934 0
M  V30 228 C 22.6274 1.56379 0.378741 0
M  V30 229 O 23.8194 1.75859 0.200673 0
M  V30 230 C 20.9484 3.43196 0.0845077 0
M  V30 231 C 20.0344 4.14749 -0.88566 0
M  V30 232 N 20.4254 4.62584 -2.04573 0
M  V30 233 C 18.7234 4.40347 -0.707835 0
M  V30 234 C 19.4244 5.17466 -2.65714 0
M  V30 235 N 18.4004 5.0791 -1.93723 0
M  V30 236 H 22.2024 2.55434 -1.45365 0
M  V30 237 H 19.7164 1.35897 -0.88915 0
M  V30 238 H 21.7134 4.14707 0.427067 0
M  V30 239 H 20.3734 3.10042 0.964574 0
M  V30 240 H 21.3844 4.57597 -2.4254 0
M  V30 241 H 18.0614 4.17317 0.12364 0
M  V30 242 H 19.4514 5.64808 -3.63925 0
M  V30 243 N 22.1715 0.800033 1.35784 0
M  V30 244 C 23.1195 0.193851 2.31791 0
M  V30 245 C 24.1135 -0.652744 1.56319 0
M  V30 246 O 25.3195 -0.546641 1.71499 0
M  V30 247 H 21.6945 0.04392 0.750716 0
M  V30 248 H 23.6655 1.01883 2.80468 0
M  V30 249 C 22.4145 -0.648338 3.41602 0
M  V30 250 H 21.7375 -0.00624665 3.998 0
M  V30 251 H 23.1775 -1.03898 4.11073 0
M  V30 252 C 21.6365 -1.8111 2.84079 0
M  V30 253 O 22.1665 -2.90825 2.77099 0
M  V30 254 N 20.3725 -1.62056 2.41218 0
M  V30 255 H 19.9195 -0.728123 2.47095 0
M  V30 256 H 19.8775 -2.40013 2.03079 0
M  V30 257 N 23.6496 -1.47581 0.552962 0
M  V30 258 C 24.6126 -2.28439 -0.186605 0
M  V30 259 C 25.6126 -1.36706 -0.84665 0
M  V30 260 O 26.8026 -1.59378 -0.703164 0
M  V30 261 C 23.9346 -3.16264 -1.2724 0
M  V30 262 H 25.1276 -2.95294 0.523609 0
M  V30 263 H 22.6806 -1.532 0.309745 0
M  V30 264 H 23.4156 -2.54091 -2.01514 0
M  V30 265 H 23.2006 -3.83769 -0.803968 0
M  V30 266 H 24.6906 -3.77198 -1.79196 0
M  V30 267 N 25.1277 -0.289203 -1.54924 0
M  V30 268 C 26.0597 0.625583 -2.20497 0
M  V30 269 C 27.0727 1.10667 -1.19402 0
M  V30 270 O 28.2617 1.02615 -1.46056 0
M  V30 271 C 25.3617 1.86702 -2.82835 0
M  V30 272 C 24.5347 1.5304 -4.09753 0
M  V30 273 C 23.5937 2.62576 -4.56005 0
M  V30 274 O 22.6197 2.28167 -5.21468 0
M  V30 275 N 23.8217 3.92901 -4.27328 0
M  V30 276 H 26.5867 0.0642801 -2.99631 0
M  V30 277 H 24.1477 -0.110896 -1.6152 0
M  V30 278 H 26.1397 2.59304 -3.10715 0
M  V30 279 H 24.7097 2.33702 -2.07611 0
M  V30 280 H 23.9297 0.637564 -3.8901 0
M  V30 281 H 25.2177 1.28072 -4.92418 0
M  V30 282 H 24.6157 4.23671 -3.74859 0
M  V30 283 H 23.1727 4.61837 -4.59946 0
M  V30 284 N 26.6058 1.57591 -0.0167156 0
M  V30 285 C 27.5558 2.05953 0.978137 0
M  V30 286 C 28.5398 0.957532 1.29306 0
M  V30 287 O 29.7318 1.22119 1.28125 0
M  V30 288 C 26.8608 2.58006 2.26468 0
M  V30 289 C 25.9468 3.75113 1.97867 0
M  V30 290 N 26.3378 4.86187 1.39486 0
M  V30 291 C 24.6358 3.83363 2.27924 0
M  V30 292 C 25.3368 5.67502 1.27735 0
M  V30 293 N 24.3128 5.14023 1.76866 0
M  V30 294 H 28.1148 2.89236 0.521522 0
M  V30 295 H 25.6288 1.61301 0.188596 0
M  V30 296 H 27.6258 2.90937 2.98599 0
M  V30 297 H 26.2858 1.76148 2.72767 0
M  V30 298 H 27.2968 5.06695 1.07147 0
M  V30 299 H 23.9738 3.1239 2.76982 0
M  V30 300 H 25.3638 6.66791 0.826978 0
M  V30 301 N 28.0839 -0.256276 1.55502 0
M  V30 302 C 29.3329 -0.983486 1.76098 0
M  V30 303 C 29.6459 -1.86837 0.578896 0
M  V30 304 O 30.8519 -2.63163 0.667648 0
M  V30 305 C 29.3079 -1.79868 3.1173 0
M  V30 306 C 28.9159 -0.961648 4.37557 0
M  V30 307 C 30.6599 -2.51919 3.41668 0
M  V30 308 C 28.5669 -1.77219 5.64223 0
M  V30 309 H 27.4969 -0.370936 0.656447 0
M  V30 310 H 30.1479 -0.238492 1.81944 0
M  V30 311 H 28.5299 -2.58527 2.99966 0
M  V30 312 H 29.7039 -0.218048 4.60284 0
M  V30 313 H 28.0189 -0.354913 4.14885 0
M  V30 314 H 30.6159 -3.12998 4.33516 0
M  V30 315 H 30.9589 -3.23059 2.62562 0
M  V30 316 H 31.4919 -1.80278 3.54605 0
M  V30 317 H 28.2309 -1.10471 6.46124 0
M  V30 318 H 27.7509 -2.49132 5.45613 0
M  V30 319 H 29.4299 -2.34169 6.03137 0
M  V30 320 N 29.562 -1.4872 -0.521534 0
M  V30 321 C 30.808 -1.574 -1.27879 0
M  V30 322 C 31.141 -0.250817 -1.92573 0
M  V30 323 O 30.416 0.743934 -1.79711 0
M  V30 324 C 30.699 -2.71843 -2.36164 0
M  V30 325 C 30.552 -4.13893 -1.76105 0
M  V30 326 C 31.871 -2.82008 -3.37875 0
M  V30 327 H 28.99 -0.572941 -0.463581 0
M  V30 328 H 31.632 -1.80927 -0.580119 0
M  V30 329 H 29.782 -2.51914 -2.95756 0
M  V30 330 H 31.454 -4.45284 -1.20499 0
M  V30 331 H 29.697 -4.20498 -1.06601 0
M  V30 332 H 30.368 -4.89804 -2.5455 0
M  V30 333 H 32.844 -3.00086 -2.88249 0
M  V30 334 H 31.72 -3.63796 -4.11028 0
M  V30 335 H 31.981 -1.90511 -3.98946 0
M  V30 336 N 31.0401 0.771051 -1.3745 0
M  V30 337 C 32.2801 1.54264 -1.34096 0
M  V30 338 C 32.6441 1.91858 0.0737639 0
M  V30 339 O 33.8451 2.67797 0.23203 0
M  V30 340 C 32.1161 2.77326 -2.25445 0
M  V30 341 S 33.6751 3.67383 -2.39948 0
M  V30 342 H 30.4931 0.528122 -0.476034 0
M  V30 343 H 33.0951 0.906633 -1.73206 0
M  V30 344 H 31.7991 2.47788 -3.27153 0
M  V30 345 H 31.3301 3.45886 -1.87421 0
M  V30 346 H 33.3451 4.69334 -1.61059 0
M  V30 347 N 32.5182 1.22032 0.997298 0
M  V30 348 C 33.4812 0.987909 2.06816 0
M  V30 349 C 34.4812 -0.0440084 1.6074 0
M  V30 350 O 35.6712 0.194053 1.73116 0
M  V30 351 C 32.8032 0.49132 3.37341 0
M  V30 352 H 33.9962 1.93803 2.28868 0
M  V30 353 H 31.5492 1.03838 1.16822 0
M  V30 354 H 32.2842 -0.463364 3.20973 0
M  V30 355 H 32.0692 1.23575 3.72118 0
M  V30 356 H 33.5592 0.348824 4.16141 0
M  V30 357 N 33.9963 -1.19345 1.0293 0
M  V30 358 C 34.9063 -2.26245 0.620515 0
M  V30 359 C 35.9223 -1.70486 -0.347928 0
M  V30 360 O 37.0983 -2.00347 -0.205704 0
M  V30 361 C 34.1633 -3.46693 -0.0218957 0
M  V30 362 C 33.2243 -4.17632 0.994102 0
M  V30 363 C 32.4573 -5.32329 0.382253 0
M  V30 364 O 32.6803 -5.64552 -0.814676 0
M  V30 365 O 31.6143 -5.91664 1.10531 0
M  V30 366 H 35.4403 -2.63453 1.51083 0
M  V30 367 H 33.0253 -1.26207 0.799513 0
M  V30 368 H 34.9073 -4.19683 -0.380072 0
M  V30 369 H 33.5823 -3.11333 -0.886209 0
M  V30 370 H 32.4893 -3.4676 1.40387 0
M  V30 371 H 33.8223 -4.56964 1.8288 0
M  V30 372 N 35.4744 -0.807222 -1.35358 0
M  V30 373 C 36.7514 -0.311126 -1.9311 0
M  V30 374 C 37.1314 1.19937 -1.73719 0
M  V30 375 O 36.4794 1.99918 -1.10657 0
M  V30 376 C 36.6894 -0.723226 -3.41424 0
M  V30 377 C 38.0374 -0.713078 -4.18569 0
M  V30 378 O 39.0614 -0.664811 -3.49941 0
M  V30 379 O 37.9204 -0.772022 -5.41019 0
M  V30 380 H 35.0144 -0.081526 -0.822972 0
M  V30 381 H 37.5604 -0.890962 -1.4443 0
M  V30 382 H 36.3324 -1.76426 -3.4927 0
M  V30 383 H 35.9554 -0.118232 -3.97424 0
M  V30 384 N 36.9525 1.47285 -0.560781 0
M  V30 385 C 37.8625 2.33846 0.187954 0
M  V30 386 C 38.8785 1.48412 0.908293 0
M  V30 387 O 40.0545 1.81332 0.876388 0
M  V30 388 C 37.1195 3.25178 1.2025 0
M  V30 389 C 36.1805 4.26504 0.489208 0
M  V30 390 C 35.4135 5.13472 1.45542 0
M  V30 391 O 35.6365 5.02959 2.6905 0
M  V30 392 O 34.5705 5.93902 0.977963 0
M  V30 393 H 38.3965 2.99177 -0.522177 0
M  V30 394 H 35.9815 1.45903 -0.321364 0
M  V30 395 H 37.8635 3.81584 1.78805 0
M  V30 396 H 36.5385 2.6247 1.89449 0
M  V30 397 H 35.4455 3.73847 -0.137627 0
M  V30 398 H 36.7785 4.91935 -0.161399 0
M  V30 399 N 38.4306 0.297415 1.54768 0
M  V30 400 C 39.3626 -0.613881 2.20826 0
M  V30 401 C 40.3756 -1.10032 1.19987 0
M  V30 402 O 41.5646 -1.01839 1.46598 0
M  V30 403 C 38.6646 -1.852 2.83821 0
M  V30 404 C 37.8376 -1.50865 4.10559 0
M  V30 405 C 36.8966 -2.60154 4.57391 0
M  V30 406 O 35.9226 -2.25398 5.2267 0
M  V30 407 N 37.1246 -3.90629 4.29406 0
M  V30 408 H 39.8896 -0.048389 2.99661 0
M  V30 409 H 37.4506 0.11946 1.61459 0
M  V30 410 H 39.4426 -2.57652 3.12086 0
M  V30 411 H 38.0126 -2.32597 2.08847 0
M  V30 412 H 37.2326 -0.616925 3.89343 0
M  V30 413 H 38.5206 -1.25458 4.9309 0
M  V30 414 H 37.9186 -4.21677 3.77101 0
M  V30 415 H 36.4756 -4.59391 4.62388 0
M  V30 416 N 39.9087 -1.5758 0.0250728 0
M  V30 417 C 40.8407 -2.06869 -0.986796 0
M  V30 418 C 41.8537 -0.991332 -1.29137 0
M  V30 419 O 43.0427 -1.26761 -1.25674 0
M  V30 420 C 40.1427 -2.47486 -2.31525 0
M  V30 421 C 39.3157 -3.78253 -2.19643 0
M  V30 422 C 38.3747 -4.05464 -3.35388 0
M  V30 423 O 37.4007 -4.75774 -3.12454 0
M  V30 424 N 38.6027 -3.55321 -4.59051 0
M  V30 425 H 41.3677 -2.94302 -0.566276 0
M  V30 426 H 38.9287 -1.6109 -0.161776 0
M  V30 427 H 40.9207 -2.62785 -3.07776 0
M  V30 428 H 39.4907 -1.65441 -2.65232 0
M  V30 429 H 38.7107 -3.7279 -1.28144 0
M  V30 430 H 39.9987 -4.63936 -2.08903 0
M  V30 431 H 39.3967 -2.98431 -4.80578 0
M  V30 432 H 37.9537 -3.75905 -5.32483 0
M  V30 433 N 41.3868 0.248026 -1.55636 0
M  V30 434 C 42.3168 1.31079 -1.93237 0
M  V30 435 C 43.2978 1.50264 -0.797174 0
M  V30 436 O 44.4828 1.62891 -1.05737 0
M  V30 437 C 41.6128 2.66575 -2.22609 0
M  V30 438 C 40.5668 2.62087 -3.3837 0
M  V30 439 C 39.8928 4.01369 -3.53281 0
M  V30 440 C 41.1928 2.19171 -4.7409 0
M  V30 441 H 42.8868 0.998556 -2.82257 0
M  V30 442 H 40.4328 0.47891 -1.35803 0
M  V30 443 H 42.3858 3.41057 -2.47503 0
M  V30 444 H 41.1098 2.99432 -1.30414 0
M  V30 445 H 39.7688 1.90063 -3.13483 0
M  V30 446 H 39.4168 4.31489 -2.58508 0
M  V30 447 H 39.1168 3.99254 -4.31127 0
M  V30 448 H 40.6408 4.77552 -3.80495 0
M  V30 449 H 42.0548 2.83384 -4.98363 0
M  V30 450 H 40.4518 2.2817 -5.5503 0
M  V30 451 H 41.5218 1.14336 -4.71227 0
M  V30 452 N 42.8649 1.48995 0.513639 0
M  V30 453 C 43.7949 1.67636 1.62544 0
M  V30 454 C 44.7759 0.525087 1.61793 0
M  V30 455 O 45.9609 0.759502 1.78732 0
M  V30 456 C 43.0909 1.73114 3.01079 0
M  V30 457 C 42.0449 2.87905 3.16693 0
M  V30 458 C 41.3709 2.78486 4.56453 0
M  V30 459 C 42.6709 4.29005 2.97913 0
M  V30 460 H 44.3649 2.60716 1.47198 0
M  V30 461 H 41.9109 1.25465 0.706714 0
M  V30 462 H 43.8639 1.84742 3.78746 0
M  V30 463 H 42.5879 0.766241 3.17484 0
M  V30 464 H 41.2469 2.75859 2.41448 0
M  V30 465 H 40.8949 1.7993 4.69717 0
M  V30 466 H 40.5949 3.55523 4.67843 0
M  V30 467 H 42.1189 2.92104 5.36197 0
M  V30 468 H 43.5329 4.41798 3.65359 0
M  V30 469 H 41.9299 5.07166 3.20785 0
M  V30 470 H 42.9999 4.44329 1.94165 0
M  V30 471 N 44.343 -0.763751 1.37857 0
M  V30 472 C 45.291 -1.89864 1.34367 0
M  V30 473 C 46.285 -1.67816 0.231143 0
M  V30 474 O 47.491 -1.75508 0.399617 0
M  V30 475 H 43.866 -0.624501 0.41893 0
M  V30 476 H 45.837 -1.89925 2.30155 0
M  V30 477 C 44.586 -3.27227 1.1755 0
M  V30 478 H 43.909 -3.44773 2.02414 0
M  V30 479 H 45.349 -4.06911 1.1916 0
M  V30 480 C 43.808 -3.36692 -0.118311 0
M  V30 481 O 44.338 -3.86374 -1.09902 0
M  V30 482 N 42.544 -2.90092 -0.171717 0
M  V30 483 H 42.091 -2.49853 0.627012 0
M  V30 484 H 42.049 -2.96806 -1.03699 0
M  V30 485 N 45.8211 -1.22559 -0.990812 0
M  V30 486 C 46.7841 -0.998863 -2.0629 0
M  V30 487 C 47.7841 0.0354834 -1.60761 0
M  V30 488 O 48.9741 -0.203231 -1.7301 0
M  V30 489 C 46.1061 -0.509203 -3.37076 0
M  V30 490 H 47.2991 -1.95014 -2.27837 0
M  V30 491 H 44.8521 -1.04456 -1.16269 0
M  V30 492 H 45.5871 0.446335 -3.21214 0
M  V30 493 H 45.3721 -1.25547 -3.71457 0
M  V30 494 H 46.8621 -0.370888 -4.1595 0
M  V30 495 N 47.2992 1.18797 -1.03562 0
M  V30 496 C 48.5452 1.89192 -0.746867 0
M  V30 497 C 48.9002 1.78531 0.717245 0
M  V30 498 O 48.1932 1.17137 1.51622 0
M  V30 499 C 48.3872 3.38692 -1.14117 0
M  V30 500 C 48.2162 3.63902 -2.64207 0
M  V30 501 C 46.9862 3.81553 -3.31279 0
M  V30 502 C 49.1842 3.64903 -3.62423 0
M  V30 503 N 47.1662 3.94455 -4.70402 0
M  V30 504 C 48.5372 3.83458 -4.87196 0
M  V30 505 C 50.5922 3.47965 -3.56125 0
M  V30 506 C 49.2952 3.86829 -6.06429 0
M  V30 507 C 51.3212 3.52616 -4.7478 0
M  V30 508 C 50.6832 3.71663 -5.9837 0
M  V30 509 H 46.7822 0.711141 -0.325273 0
M  V30 510 H 49.3662 1.42727 -1.32428 0
M  V30 511 H 47.5372 3.83864 -0.591889 0
M  V30 512 H 49.2692 3.96634 -0.803966 0
M  V30 513 H 46.0242 3.80723 -2.81686 0
M  V30 514 H 46.4482 4.0474 -5.42692 0
M  V30 515 H 51.0902 3.32189 -2.61553 0
M  V30 516 H 48.8082 4.01395 -7.01362 0
M  V30 517 H 52.3942 3.40791 -4.71543 0
M  V30 518 H 51.2742 3.75145 -6.88648 0
M  V30 519 N 48.7773 0.814389 1.34928 0
M  V30 520 C 49.7093 0.187834 2.28429 0
M  V30 521 C 50.7223 -0.617374 1.5064 0
M  V30 522 O 51.9113 -0.448454 1.72775 0
M  V30 523 C 49.0113 -0.755962 3.30361 0
M  V30 524 C 48.1843 0.00456686 4.374 0
M  V30 525 C 47.2433 -0.858876 5.19143 0
M  V30 526 O 46.2693 -0.306968 5.68372 0
M  V30 527 N 47.4713 -2.17988 5.38016 0
M  V30 528 H 50.2363 0.991105 2.82838 0
M  V30 529 H 47.7973 0.670561 1.4736 0
M  V30 530 H 49.7893 -1.338 3.81942 0
M  V30 531 H 48.3593 -1.46001 2.7641 0
M  V30 532 H 47.5793 0.767865 3.86649 0
M  V30 533 H 48.8673 0.528422 5.06049 0
M  V30 534 H 48.2653 -2.65212 4.99679 0
M  V30 535 H 46.8223 -2.71098 5.92747 0
M  V30 536 N 50.2554 -1.46986 0.568584 0
M  V30 537 C 51.4854 -2.0653 0.0539173 0
M  V30 538 C 51.8934 -1.42004 -1.25026 0
M  V30 539 O 51.2364 -0.514541 -1.76347 0
M  V30 540 C 51.2984 -3.58938 -0.200854 0
M  V30 541 C 50.9624 -4.45572 1.01559 0
M  V30 542 C 51.9594 -4.82986 1.92407 0
M  V30 543 C 49.6444 -4.8692 1.23346 0
M  V30 544 C 51.6384 -5.60559 3.03402 0
M  V30 545 C 49.3254 -5.64255 2.34649 0
M  V30 546 C 50.3234 -6.00986 3.24507 0
M  V30 547 O 50.0114 -6.76761 4.33878 0
M  V30 548 H 49.7434 -0.674292 0.0480234 0
M  V30 549 H 52.2974 -1.89812 0.784896 0
M  V30 550 H 50.5274 -3.73911 -0.986279 0
M  V30 551 H 52.2164 -4.0046 -0.662294 0
M  V30 552 H 52.9824 -4.51633 1.76785 0
M  V30 553 H 48.8614 -4.57789 0.543178 0
M  V30 554 H 52.4054 -5.89147 3.73565 0
M  V30 555 H 48.3024 -5.95021 2.5024 0
M  V30 556 H 49.0704 -6.95168 4.32068 0
M  V30 557 N 51.7335 -0.305618 -1.54608 0
M  V30 558 C 52.6965 0.555591 -2.22364 0
M  V30 559 C 53.6965 1.05768 -1.21119 0
M  V30 560 O 54.8865 0.952972 -1.45822 0
M  V30 561 C 52.0185 1.76974 -2.91364 0
M  V30 562 H 53.2115 -0.0364572 -2.99878 0
M  V30 563 H 50.7645 -0.0565007 -1.56198 0
M  V30 564 H 51.4995 2.40151 -2.17941 0
M  V30 565 H 51.2845 1.41732 -3.65588 0
M  V30 566 H 52.7745 2.38148 -3.43038 0
M  V30 567 N 53.2116 1.57565 -0.0334293 0
M  V30 568 C 54.4396 1.9628 0.654347 0
M  V30 569 C 54.8546 0.910138 1.65414 0
M  V30 570 O 54.2116 -0.107595 1.82183 0
M  V30 571 C 54.2626 3.35067 1.35693 0
M  V30 572 O 53.9836 4.36296 0.397191 0
M  V30 573 C 55.4846 3.88439 2.13613 0
M  V30 574 H 52.7046 0.646369 0.180132 0
M  V30 575 H 55.2486 2.04282 -0.0944721 0
M  V30 576 H 53.4036 3.2827 2.05712 0
M  V30 577 H 53.8176 5.1678 0.896597 0
M  V30 578 H 55.2916 4.8788 2.58219 0
M  V30 579 H 55.7686 3.22914 2.97696 0
M  V30 580 H 56.3746 3.98516 1.48543 0
M  V30 581 N 54.6897 -0.239769 1.55765 0
M  V30 582 C 55.6527 -1.28038 1.90103 0
M  V30 583 C 56.6527 -1.40723 0.778055 0
M  V30 584 O 57.8427 -1.39301 1.04599 0
M  V30 585 C 54.9747 -2.65702 2.13577 0
M  V30 586 H 56.1677 -0.988048 2.83157 0
M  V30 587 H 53.7207 -0.479382 1.48767 0
M  V30 588 H 54.4557 -3.00063 1.23015 0
M  V30 589 H 54.2407 -2.57875 2.95369 0
M  V30 590 H 55.7307 -3.40828 2.41301 0
M  V30 591 N 56.1678 -1.49265 -0.50573 0
M  V30 592 C 57.0778 -1.68312 -1.63427 0
M  V30 593 C 58.0938 -0.565682 -1.64548 0
M  V30 594 O 59.2698 -0.839801 -1.83055 0
M  V30 595 C 56.3348 -1.74107 -2.99813 0
M  V30 596 C 55.3958 -2.97653 -3.09356 0
M  V30 597 C 54.6288 -3.03163 -4.39236 0
M  V30 598 O 54.8518 -2.16396 -5.27758 0
M  V30 599 O 53.7858 -3.9558 -4.53652 0
M  V30 600 H 57.6118 -2.63907 -1.50289 0
M  V30 601 H 55.1968 -1.32951 -0.681502 0
M  V30 602 H 57.0788 -1.803 -3.80881 0
M  V30 603 H 55.7538 -0.816901 -3.13223 0
M  V30 604 H 54.6608 -2.96981 -2.27493 0
M  V30 605 H 55.9938 -3.89535 -3.00871 0
M  V30 606 N 57.6459 0.756429 -1.3826 0
M  V30 607 C 58.8939 1.51248 -1.34047 0
M  V30 608 C 59.2149 1.94875 0.0698372 0
M  V30 609 O 58.4849 1.67436 1.01696 0
M  V30 610 H 57.0649 0.561018 -0.493222 0
M  V30 611 H 59.7269 0.899347 -1.7291 0
M  V30 612 H 58.8229 2.40472 -1.98947 0
M  V30 613 N 59.124 1.23083 0.984299 0
M  V30 614 C 60.056 0.96636 2.07832 0
M  V30 615 C 61.069 -0.0582135 1.62696 0
M  V30 616 O 62.258 0.176843 1.77622 0
M  V30 617 C 59.358 0.433397 3.36117 0
M  V30 618 C 58.531 1.51722 4.10243 0
M  V30 619 C 57.59 0.989821 5.16807 0
M  V30 620 O 56.616 1.67794 5.43906 0
M  V30 621 N 57.818 -0.184367 5.80207 0
M  V30 622 H 60.583 1.90824 2.31098 0
M  V30 623 H 58.144 1.13888 1.1507 0
M  V30 624 H 60.136 0.065699 4.04647 0
M  V30 625 H 58.706 -0.413806 3.09849 0
M  V30 626 H 57.926 2.05786 3.36223 0
M  V30 627 H 59.214 2.24619 4.56534 0
M  V30 628 H 58.612 -0.760062 5.60571 0
M  V30 629 H 57.169 -0.493366 6.4993 0
M  V30 630 N 60.6021 -1.18246 1.0419 0
M  V30 631 C 62.0131 -1.69914 0.773698 0
M  V30 632 C 62.3641 -1.83085 -0.705297 0
M  V30 633 O 61.4891 -1.51123 -1.5489 0
M  V30 634 C 62.0841 -3.08619 1.39784 0
M  V30 635 C 60.6431 -3.57494 1.17792 0
M  V30 636 C 59.7901 -2.34013 1.48773 0
M  V30 637 H 62.7411 -1.02904 1.20816 0
M  V30 638 H 62.7621 -3.71958 0.801714 0
M  V30 639 H 62.2741 -2.99001 2.47426 0
M  V30 640 H 60.3751 -3.72406 0.120295 0
M  V30 641 H 60.4881 -4.40852 1.87581 0
M  V30 642 H 58.8521 -2.37986 0.907463 0
M  V30 643 H 59.6351 -2.27013 2.57527 0
M  V30 644 N 62.0802 -0.821533 -1.34494 0
M  V30 645 C 63.3262 -0.409552 -1.98622 0
M  V30 646 C 63.6592 1.0244 -1.64984 0
M  V30 647 O 62.9342 1.71325 -0.920758 0
M  V30 648 C 63.2172 -0.610458 -3.54888 0
M  V30 649 C 63.0702 -2.09043 -3.98273 0
M  V30 650 C 64.3892 -0.0455379 -4.40076 0
M  V30 651 H 61.5082 -0.15028 -0.721516 0
M  V30 652 H 64.1502 -1.03384 -1.59411 0
M  V30 653 H 62.3002 -0.079044 -3.8842 0
M  V30 654 H 63.9722 -2.68537 -3.75081 0
M  V30 655 H 62.2152 -2.58139 -3.48635 0
M  V30 656 H 62.8862 -2.18182 -5.07051 0
M  V30 657 H 65.3622 -0.499557 -4.1309 0
M  V30 658 H 64.2382 -0.215922 -5.48475 0
M  V30 659 H 64.4992 1.04939 -4.29465 0
M  V30 660 N 63.5583 1.46682 -0.576371 0
M  V30 661 C 64.4883 2.33028 0.148397 0
M  V30 662 C 65.4693 1.44961 0.889956 0
M  V30 663 O 66.6543 1.73789 0.866662 0
M  V30 664 C 63.7843 3.27117 1.1667 0
M  V30 665 C 62.7383 4.24575 0.540386 0
M  V30 666 C 62.0643 5.08126 1.6647 0
M  V30 667 C 63.3643 5.19722 -0.518331 0
M  V30 668 H 65.0583 2.93875 -0.572509 0
M  V30 669 H 62.6043 1.41315 -0.276768 0
M  V30 670 H 64.5573 3.86374 1.68204 0
M  V30 671 H 63.2813 2.64364 1.9178 0
M  V30 672 H 61.9403 3.66571 0.0461769 0
M  V30 673 H 61.5883 4.41762 2.40531 0
M  V30 674 H 61.2883 5.74122 1.25131 0
M  V30 675 H 62.8123 5.70246 2.18293 0
M  V30 676 H 64.2263 5.73232 -0.0883058 0
M  V30 677 H 62.6233 5.94026 -0.851679 0
M  V30 678 H 63.6933 4.64037 -1.40703 0
M  V30 679 N 65.0364 0.313813 1.54444 0
M  V30 680 C 66.2854 -0.292519 1.99568 0
M  V30 681 C 66.5984 -1.54011 1.20582 0
M  V30 682 O 67.8044 -2.22183 1.56035 0
M  V30 683 C 66.2604 -0.571752 3.55329 0
M  V30 684 C 65.8684 0.658229 4.43138 0
M  V30 685 C 67.6124 -1.13857 4.08946 0
M  V30 686 C 65.5194 0.351439 5.90355 0
M  V30 687 H 64.4494 -0.113079 0.745472 0
M  V30 688 H 67.1004 0.424518 1.78522 0
M  V30 689 H 65.4824 -1.34872 3.72325 0
M  V30 690 H 66.6564 1.43403 4.37918 0
M  V30 691 H 64.9714 1.14458 4.0036 0
M  V30 692 H 67.5684 -1.38257 5.16516 0
M  V30 693 H 67.9114 -2.08489 3.6033 0
M  V30 694 H 68.4444 -0.423015 3.95544 0
M  V30 695 H 65.1834 1.26667 6.43145 0
M  V30 696 H 64.7034 -0.386842 5.98551 0
M  V30 697 H 66.3824 -0.0423134 6.46986 0
M  V30 698 N 66.5145 -1.57545 0.0417849 0
M  V30 699 C 67.4445 -2.14009 -0.933929 0
M  V30 700 C 68.4255 -1.05938 -1.33083 0
M  V30 701 O 69.6105 -1.33833 -1.40721 0
M  V30 702 C 66.7405 -2.67747 -2.21199 0
M  V30 703 C 65.6945 -3.80718 -1.95544 0
M  V30 704 C 65.0205 -4.20935 -3.29724 0
M  V30 705 C 66.3205 -5.06258 -1.28452 0
M  V30 706 H 68.0145 -2.95788 -0.463645 0
M  V30 707 H 65.5605 -1.42285 -0.221573 0
M  V30 708 H 67.5135 -3.05886 -2.89848 0
M  V30 709 H 66.2375 -1.83147 -2.70416 0
M  V30 710 H 64.8965 -3.43037 -1.2931 0
M  V30 711 H 64.5445 -3.33298 -3.76724 0
M  V30 712 H 64.2445 -4.9707 -3.13361 0
M  V30 713 H 65.7685 -4.61666 -3.9962 0
M  V30 714 H 67.1825 -5.41903 -1.8712 0
M  V30 715 H 65.5795 -5.87475 -1.22445 0
M  V30 716 H 66.6495 -4.84207 -0.259219 0
M  V30 717 N 67.9926 0.231505 -1.5589 0
M  V30 718 C 69.2406 0.955461 -1.78088 0
M  V30 719 C 69.5616 1.85262 -0.608533 0
M  V30 720 O 68.8316 1.92277 0.375035 0
M  V30 721 H 67.4116 0.355787 -0.656829 0
M  V30 722 H 70.0736 0.245751 -1.93344 0
M  V30 723 H 69.1696 1.56814 -2.69844 0
M  V30 724 N 69.4707 1.49531 0.497807 0
M  V30 725 C 70.3807 1.69176 1.62532 0
M  V30 726 C 71.3967 0.5744 1.64246 0
M  V30 727 O 72.5727 0.849497 1.82608 0
M  V30 728 C 69.6377 1.75695 2.98885 0
M  V30 729 C 68.6987 2.9929 3.07773 0
M  V30 730 C 67.9317 3.05488 4.37622 0
M  V30 731 O 68.1547 2.19192 5.26603 0
M  V30 732 O 67.0887 3.9798 4.51548 0
M  V30 733 H 70.9147 2.647 1.48887 0
M  V30 734 H 68.4997 1.3331 0.674441 0
M  V30 735 H 70.3817 1.82317 3.79919 0
M  V30 736 H 69.0567 0.8335 3.12785 0
M  V30 737 H 67.9637 2.98183 2.25915 0
M  V30 738 H 69.2967 3.91125 2.98801 0
M  V30 739 N 70.9488 -0.749086 1.3866 0
M  V30 740 C 72.1968 -1.50535 1.34847 0
M  V30 741 C 72.5178 -1.94909 -0.0595016 0
M  V30 742 O 71.7878 -1.67973 -1.00806 0
M  V30 743 H 70.3678 -0.558395 0.49619 0
M  V30 744 H 73.0298 -0.890165 1.73384 0
M  V30 745 H 72.1258 -2.39413 2.00219 0
M  V30 746 N 72.4269 -1.23603 -0.977757 0
M  V30 747 C 73.6519 -1.09735 -1.75991 0
M  V30 748 C 74.0769 0.346858 -1.84874 0
M  V30 749 O 73.4349 1.25093 -1.3123 0
M  V30 750 C 73.4829 -1.73051 -3.16363 0
M  V30 751 O 72.5869 -0.994452 -4.0023 0
M  V30 752 H 71.9279 -0.384476 -0.541364 0
M  V30 753 H 74.4579 -1.6371 -1.2272 0
M  V30 754 H 74.4679 -1.78398 -3.66931 0
M  V30 755 H 73.1429 -2.78137 -3.09213 0
M  V30 756 H 71.7199 -1.01812 -3.58732 0
M  V30 757 N 73.905 1.17692 -1.04816 0
M  V30 758 C 74.853 2.23632 -0.63966 0
M  V30 759 C 75.847 1.6601 0.337219 0
M  V30 760 O 77.053 1.78844 0.203693 0
M  V30 761 H 73.428 0.727949 -0.188665 0
M  V30 762 H 75.399 2.55387 -1.54337 0
M  V30 763 C 74.148 3.4769 -0.0264051 0
M  V30 764 H 73.471 3.92331 -0.769164 0
M  V30 765 H 74.911 4.23418 0.222098 0
M  V30 766 C 73.37 3.13807 1.22584 0
M  V30 767 O 73.9 3.28236 2.31569 0
M  V30 768 N 72.106 2.68065 1.12202 0
M  V30 769 H 71.653 2.56525 0.235133 0
M  V30 770 H 71.611 2.45767 1.96076 0
M  V30 771 N 75.3831 0.828654 1.34056 0
M  V30 772 C 76.6291 0.42008 1.98402 0
M  V30 773 C 76.9621 -1.01564 1.65525 0
M  V30 774 O 76.2371 -1.70834 0.929831 0
M  V30 775 C 76.5201 0.62927 3.54559 0
M  V30 776 C 76.3731 2.11152 3.97159 0
M  V30 777 C 77.6921 0.0688756 4.40046 0
M  V30 778 H 74.8111 0.154104 0.720709 0
M  V30 779 H 77.4531 1.04228 1.5886 0
M  V30 780 H 75.6031 0.0996418 3.88372 0
M  V30 781 H 77.2751 2.70522 3.73651 0
M  V30 782 H 75.5181 2.59985 3.47261 0
M  V30 783 H 76.1891 2.20868 5.05887 0
M  V30 784 H 78.6651 0.521458 4.1282 0
M  V30 785 H 77.5411 0.245006 5.48353 0
M  V30 786 H 77.8021 -1.0266 4.30015 0
M  V30 787 N 76.8612 -1.46375 0.584142 0
M  V30 788 C 77.7912 -2.33103 -0.136037 0
M  V30 789 C 78.7722 -1.45431 -0.882255 0
M  V30 790 O 79.9572 -1.74246 -0.857434 0
M  V30 791 C 77.0872 -3.27731 -1.14933 0
M  V30 792 C 76.0412 -4.24855 -0.517862 0
M  V30 793 C 75.3672 -5.09001 -1.63773 0
M  V30 794 C 76.6672 -5.19439 0.545886 0
M  V30 795 H 78.3612 -2.93568 0.588086 0
M  V30 796 H 75.9072 -1.41166 0.284259 0
M  V30 797 H 77.8602 -3.87261 -1.66153 0
M  V30 798 H 76.5842 -2.65377 -1.90375 0
M  V30 799 H 75.2432 -3.6659 -0.0267361 0
M  V30 800 H 74.8912 -4.43031 -2.38185 0
M  V30 801 H 74.5912 -5.74777 -1.22085 0
M  V30 802 H 76.1152 -5.71396 -2.15266 0
M  V30 803 H 77.5292 -5.73177 0.118704 0
M  V30 804 H 75.9262 -5.93566 0.88317 0
M  V30 805 H 76.9962 -4.63285 1.43162 0
M  V30 806 N 78.3393 -0.321999 -1.54275 0
M  V30 807 C 79.5863 0.281044 -2.0054 0
M  V30 808 C 79.9143 1.52265 -1.21019 0
M  V30 809 O 79.1693 1.93687 -0.279982 0
M  V30 810 C 79.4683 0.661769 -3.5122 0
M  V30 811 C 79.1343 -0.480482 -4.48333 0
M  V30 812 C 77.7963 -0.794005 -4.74604 0
M  V30 813 C 80.1483 -1.24783 -5.06042 0
M  V30 814 C 77.4763 -1.87763 -5.55844 0
M  V30 815 C 79.8283 -2.32153 -5.88462 0
M  V30 816 C 78.4923 -2.64089 -6.13036 0
M  V30 817 H 77.7623 0.102841 -0.733829 0
M  V30 818 H 80.4093 -0.445453 -1.86247 0
M  V30 819 H 78.7143 1.46867 -3.63232 0
M  V30 820 H 80.4113 1.13989 -3.84457 0
M  V30 821 H 77.0013 -0.226039 -4.28004 0
M  V30 822 H 81.1853 -1.01887 -4.85729 0
M  V30 823 H 76.4413 -2.12954 -5.73115 0
M  V30 824 H 80.6153 -2.92057 -6.32199 0
M  V30 825 H 78.2423 -3.48185 -6.75775 0
M  V30 826 N 79.8174 1.5752 -0.0501392 0
M  V30 827 C 80.7474 2.14502 0.922566 0
M  V30 828 C 81.7284 1.06642 1.3252 0
M  V30 829 O 82.9134 1.34577 1.4001 0
M  V30 830 C 80.0434 2.68916 2.19776 0
M  V30 831 C 78.9974 3.8175 1.93523 0
M  V30 832 C 78.3234 4.22677 3.27487 0
M  V30 833 C 79.6234 5.06932 1.25765 0
M  V30 834 H 81.3174 2.9603 0.447952 0
M  V30 835 H 78.8634 1.42401 0.214024 0
M  V30 836 H 80.8164 3.07419 2.88222 0
M  V30 837 H 79.5404 1.84578 2.69441 0
M  V30 838 H 78.1994 3.43718 1.27489 0
M  V30 839 H 77.8474 3.35291 3.74952 0
M  V30 840 H 77.5474 4.98725 3.1072 0
M  V30 841 H 79.0714 4.63779 3.97166 0
M  V30 842 H 80.4854 5.42888 1.84244 0
M  V30 843 H 78.8824 5.88116 1.19328 0
M  V30 844 H 79.9524 4.84337 0.233536 0
M  V30 845 N 81.2955 -0.223234 1.56011 0
M  V30 846 C 82.2055 -1.29766 1.95443 0
M  V30 847 C 83.2215 -1.51373 0.858028 0
M  V30 848 O 84.3975 -1.64536 1.16146 0
M  V30 849 C 81.4625 -2.62772 2.26167 0
M  V30 850 C 80.5235 -2.49482 3.49367 0
M  V30 851 C 79.7565 -3.76145 3.78616 0
M  V30 852 O 79.9795 -4.79087 3.09568 0
M  V30 853 O 78.9135 -3.73358 4.72109 0
M  V30 854 H 82.7395 -0.99309 2.87004 0
M  V30 855 H 80.3245 -0.425958 1.43199 0
M  V30 856 H 82.2065 -3.41327 2.47131 0
M  V30 857 H 80.8815 -2.92913 1.37781 0
M  V30 858 H 79.7885 -1.69133 3.33684 0
M  V30 859 H 81.1215 -2.2428 4.38131 0
M  V30 860 N 82.7736 -1.49793 -0.48987 0
M  V30 861 C 84.0506 -1.50348 -1.25119 0
M  V30 862 C 84.4306 -0.237466 -2.0976 0
M  V30 863 O 83.7786 0.77981 -2.14782 0
M  V30 864 C 83.9886 -2.78872 -2.09837 0
M  V30 865 C 85.3366 -3.288 -2.68655 0
M  V30 866 O 86.3606 -2.80065 -2.20096 0
M  V30 867 O 85.2196 -4.13707 -3.57083 0
M  V30 868 H 82.3136 -0.602242 -0.566775 0
M  V30 869 H 84.8596 -1.62067 -0.503229 0
M  V30 870 H 83.6316 -3.62499 -1.47343 0
M  V30 871 H 83.2546 -2.70066 -2.91805 0
M  V30 872 N 84.2517 0.741722 -1.39055 0
M  V30 873 C 85.4817 1.52876 -1.3897 0
M  V30 874 C 85.8897 1.8919 0.0193266 0
M  V30 875 O 85.2327 1.54138 0.999356 0
M  V30 876 C 85.2947 2.84929 -2.19216 0
M  V30 877 C 84.9587 2.71086 -3.67915 0
M  V30 878 C 85.9557 2.40084 -4.61146 0
M  V30 879 C 83.6407 2.88168 -4.11418 0
M  V30 880 C 85.6347 2.26335 -5.95862 0
M  V30 881 C 83.3217 2.74037 -5.46211 0
M  V30 882 C 84.3197 2.43166 -6.38247 0
M  V30 883 O 84.0077 2.29115 -7.70559 0
M  V30 884 H 83.7397 0.479252 -0.476753 0
M  V30 885 H 86.2937 0.924751 -1.83405 0
M  V30 886 H 84.5237 3.47564 -1.69518 0
M  V30 887 H 86.2127 3.46509 -2.11392 0
M  V30 888 H 86.9787 2.26545 -4.28838 0
M  V30 889 H 82.8577 3.11191 -3.40119 0
M  V30 890 H 86.4017 2.0216 -6.67665 0
M  V30 891 H 82.2987 2.87153 -5.78112 0
M  V30 892 H 83.0667 2.44237 -7.81211 0
M  V30 893 N 85.7298 1.2412 0.971189 0
M  V30 894 C 87.1458 1.00584 1.23916 0
M  V30 895 C 87.3458 -0.287481 1.99439 0
M  V30 896 O 86.4018 -1.00454 2.31658 0
M  V30 897 C 87.7148 2.21864 2.0297 0
M  V30 898 C 89.2628 2.26452 2.16076 0
M  V30 899 C 89.7378 3.47343 2.98524 0
M  V30 900 N 91.2288 3.47639 3.06107 0
M  V30 901 C 91.9638 4.37837 3.70251 0
M  V30 902 N 91.4598 5.38286 4.36142 0
M  V30 903 N 93.2528 4.25558 3.67228 0
M  V30 904 H 85.4038 2.07236 0.465499 0
M  V30 905 H 87.6668 0.909236 0.268315 0
M  V30 906 H 87.3728 3.15771 1.54861 0
M  V30 907 H 87.2468 2.23698 3.03709 0
M  V30 908 H 89.6338 1.33078 2.6339 0
M  V30 909 H 89.7148 2.28645 1.14696 0
M  V30 910 H 89.3588 4.41029 2.51905 0
M  V30 911 H 89.2888 3.42393 4.00093 0
M  V30 912 H 91.7798 2.74966 2.59233 0
M  V30 913 H 92.0928 6.03352 4.82894 0
M  V30 914 H 90.4378 5.42176 4.34822 0
M  V30 915 H 93.6288 3.46322 3.14927 0
M  V30 916 H 93.8018 4.96054 4.16935 0
M  V30 917 N 87.2079 -1.17134 1.05439 0
M  V30 918 C 88.4559 -1.87085 0.764429 0
M  V30 919 C 88.7769 -1.81584 -0.710787 0
M  V30 920 O 88.0469 -1.24349 -1.51374 0
M  V30 921 H 86.6269 -0.692627 0.279779 0
M  V30 922 H 89.2889 -1.42087 1.33406 0
M  V30 923 H 88.3849 -2.92759 1.0816 0
M  V30 924 N 88.686 -0.835752 -1.33615 0
M  V30 925 C 89.914 -0.443344 -2.02094 0
M  V30 926 C 90.329 0.954522 -1.62894 0
M  V30 927 O 89.686 1.61982 -0.840723 0
M  V30 928 C 89.737 -0.550775 -3.5728 0
M  V30 929 O 89.458 -1.89356 -3.95065 0
M  V30 930 C 90.959 -0.154919 -4.43029 0
M  V30 931 H 88.179 -0.176359 -0.647409 0
M  V30 932 H 90.723 -1.12746 -1.70612 0
M  V30 933 H 88.878 0.0853997 -3.87306 0
M  V30 934 H 89.292 -1.87687 -4.89769 0
M  V30 935 H 90.766 -0.281144 -5.51284 0
M  V30 936 H 91.243 0.902863 -4.2982 0
M  V30 937 H 91.849 -0.765404 -4.18356 0
M  V30 938 N 90.1641 1.46063 -0.591896 0
M  V30 939 C 91.4101 2.02638 -0.0811191 0
M  V30 940 C 91.7431 1.4613 1.27905 0
M  V30 941 O 91.0181 0.629908 1.84017 0
M  V30 942 C 91.3011 3.60091 -0.0252436 0
M  V30 943 C 91.1541 4.26965 -1.41496 0
M  V30 944 C 92.4731 4.3496 0.670685 0
M  V30 945 H 89.5921 0.73635 -0.0309524 0
M  V30 946 H 92.2341 1.741 -0.760859 0
M  V30 947 H 90.3841 3.84535 0.553624 0
M  V30 948 H 92.0561 4.13756 -2.0397 0
M  V30 949 H 90.2991 3.85971 -1.98011 0
M  V30 950 H 90.9701 5.35781 -1.32825 0
M  V30 951 H 93.4461 4.15716 0.178825 0
M  V30 952 H 92.3221 5.44686 0.678837 0
M  V30 953 H 92.5831 4.06685 1.73379 0
M  V30 954 N 91.6422 0.330177 1.54103 0
M  V30 955 C 92.8912 -0.271336 1.99867 0
M  V30 956 C 93.2042 -1.52723 1.22209 0
M  V30 957 O 94.4102 -2.20515 1.58383 0
M  V30 958 C 92.8662 -0.534032 3.55916 0
M  V30 959 C 92.4742 0.705193 4.42415 0
M  V30 960 C 94.2182 -1.09514 4.1013 0
M  V30 961 C 92.1252 0.414035 5.89949 0
M  V30 962 H 91.0552 -0.105166 0.74663 0
M  V30 963 H 93.7062 0.443429 1.78062 0
M  V30 964 H 92.0882 -1.30915 3.73734 0
M  V30 965 H 93.2622 1.4804 4.36372 0
M  V30 966 H 91.5772 1.18698 3.99124 0
M  V30 967 H 94.1742 -1.3277 5.17954 0
M  V30 968 H 94.5172 -2.04656 3.62521 0
M  V30 969 H 95.0502 -0.381038 3.95971 0
M  V30 970 H 91.7892 1.33481 6.41766 0
M  V30 971 H 91.3092 -0.323336 5.98928 0
M  V30 972 H 92.9882 0.0263105 6.46995 0
M  V30 973 N 93.1203 -1.57491 0.0584922 0
M  V30 974 C 94.3693 -1.92155 -0.613146 0
M  V30 975 C 94.6823 -0.939334 -1.71569 0
M  V30 976 O 95.8883 -1.17829 -2.44599 0
M  V30 977 C 94.3443 -3.41303 -1.14195 0
M  V30 978 C 93.9523 -4.47944 -0.0711265 0
M  V30 979 C 95.6963 -3.84988 -1.78841 0
M  V30 980 C 93.6033 -5.88212 -0.613225 0
M  V30 981 H 92.5333 -0.717162 -0.232796 0
M  V30 982 H 95.1843 -1.83049 0.12857 0
M  V30 983 H 93.5663 -3.45437 -1.93621 0
M  V30 984 H 94.7403 -4.55408 0.702836 0
M  V30 985 H 93.0553 -4.13644 0.478313 0
M  V30 986 H 95.6523 -4.87159 -2.20408 0
M  V30 987 H 95.9953 -3.21632 -2.64308 0
M  V30 988 H 96.5283 -3.83401 -1.06059 0
M  V30 989 H 93.2673 -6.55183 0.203978 0
M  V30 990 H 92.7873 -5.84294 -1.35501 0
M  V30 991 H 94.4663 -6.37687 -1.09383 0
M  V30 992 N 94.5984 0.214957 -1.56127 0
M  V30 993 C 95.5464 1.28601 -1.93816 0
M  V30 994 C 96.5404 1.48175 -0.821016 0
M  V30 995 O 97.7464 1.49271 -1.0059 0
M  V30 996 H 94.1214 0.431302 -0.616022 0
M  V30 997 H 96.0924 0.940991 -2.83175 0
M  V30 998 C 94.8414 2.62779 -2.27689 0
M  V30 999 H 94.1644 2.48527 -3.13168 0
M  V30 1000 H 95.6044 3.36517 -2.57939 0
M  V30 1001 C 94.0634 3.18285 -1.10436 0
M  V30 1002 O 94.5934 4.00002 -0.368945 0
M  V30 1003 N 92.7994 2.7675 -0.886433 0
M  V30 1004 H 92.3464 2.10404 -1.48619 0
M  V30 1005 H 92.3044 3.14229 -0.103656 0
M  V30 1006 N 96.0765 1.50051 0.48192 0
M  V30 1007 C 97.4925 1.37237 0.814756 0
M  V30 1008 C 97.6925 0.420109 1.97072 0
M  V30 1009 O 96.7485 -0.141246 2.52105 0
M  V30 1010 C 98.0615 2.78375 1.13701 0
M  V30 1011 C 99.6095 2.87213 1.2441 0
M  V30 1012 C 100.084 4.29161 1.59954 0
M  V30 1013 N 101.575 4.32061 1.66967 0
M  V30 1014 C 102.31 5.38879 1.95952 0
M  V30 1015 N 101.806 6.55918 2.23031 0
M  V30 1016 N 103.599 5.26312 1.97363 0
M  V30 1017 H 95.7505 2.10546 -0.28005 0
M  V30 1018 H 98.0135 0.945921 -0.0627454 0
M  V30 1019 H 97.7195 3.49845 0.360787 0
M  V30 1020 H 97.5935 3.14941 2.07586 0
M  V30 1021 H 99.9805 2.15969 2.01101 0
M  V30 1022 H 100.061 2.54204 0.285299 0
M  V30 1023 H 99.7055 5.00938 0.838067 0
M  V30 1024 H 99.6355 4.59648 2.56966 0
M  V30 1025 H 102.126 3.47661 1.48123 0
M  V30 1026 H 102.439 7.33139 2.44391 0
M  V30 1027 H 100.784 6.59112 2.20447 0
M  V30 1028 H 103.975 4.33876 1.75697 0
M  V30 1029 H 104.148 6.09649 2.19618 0
M  V30 1030 N 97.5546 -0.734337 1.39446 0
M  V30 1031 C 98.8036 -1.48937 1.36017 0
M  V30 1032 C 99.1166 -1.95557 -0.0409005 0
M  V30 1033 O 100.323 -2.70779 -0.19778 0
M  V30 1034 C 98.7786 -2.69125 2.38955 0
M  V30 1035 C 98.3866 -2.29452 3.8478 0
M  V30 1036 C 100.131 -3.46944 2.44603 0
M  V30 1037 C 98.0376 -3.46366 4.79358 0
M  V30 1038 H 96.9676 -0.559296 0.505672 0
M  V30 1039 H 99.6186 -0.800983 1.65095 0
M  V30 1040 H 98.0006 -3.40041 2.02948 0
M  V30 1041 H 99.1746 -1.66077 4.29831 0
M  V30 1042 H 97.4896 -1.64723 3.82433 0
M  V30 1043 H 100.087 -4.33907 3.12456 0
M  V30 1044 H 100.43 -3.89454 1.47076 0
M  V30 1045 H 100.963 -2.83056 2.79507 0
M  V30 1046 H 97.7016 -3.08905 5.78151 0
M  V30 1047 H 97.2216 -4.08719 4.38986 0
M  V30 1048 H 98.9006 -4.12691 4.98292 0
M  V30 1049 N 99.0327 -1.24633 -0.964593 0
M  V30 1050 C 99.9797 -1.04144 -2.05968 0
M  V30 1051 C 100.95 0.046262 -1.66036 0
M  V30 1052 O 102.135 -0.108972 -1.90489 0
M  V30 1053 C 99.2747 -0.65563 -3.38815 0
M  V30 1054 C 98.3877 -1.81714 -3.91923 0
M  V30 1055 C 97.5227 -1.37662 -5.13052 0
M  V30 1056 C 96.5617 -2.50788 -5.58365 0
M  V30 1057 N 95.6987 -2.07582 -6.70712 0
M  V30 1058 H 100.539 -1.9787 -2.22827 0
M  V30 1059 H 98.0757 -0.9855 -1.09208 0
M  V30 1060 H 100.034 -0.412954 -4.15151 0
M  V30 1061 H 98.6637 0.244627 -3.21872 0
M  V30 1062 H 97.7157 -2.1734 -3.12198 0
M  V30 1063 H 99.0277 -2.66705 -4.21509 0
M  V30 1064 H 98.1817 -1.093 -5.96773 0
M  V30 1065 H 96.9207 -0.497293 -4.85158 0
M  V30 1066 H 95.9257 -2.79906 -4.73215 0
M  V30 1067 H 97.1507 -3.39283 -5.88272 0
M  V30 1068 H 95.0967 -1.22051 -6.44546 0
M  V30 1069 H 95.0137 -2.86125 -6.99763 0
M  V30 1070 H 96.2817 -1.82369 -7.57867 0
M  V30 1071 N 100.511 1.16574 -1.06058 0
M  V30 1072 C 101.759 1.86677 -0.77434 0
M  V30 1073 C 102.08 1.81959 0.701147 0
M  V30 1074 O 101.35 1.2515 1.50713 0
M  V30 1075 H 99.9298 0.691134 -0.283449 0
M  V30 1076 H 102.592 1.41378 -1.34158 0
M  V30 1077 H 101.688 2.92181 -1.09711 0
M  V30 1078 N 101.989 0.842826 1.3317 0
M  V30 1079 C 103.238 0.436738 1.96915 0
M  V30 1080 C 103.551 -1.01025 1.67491 0
M  V30 1081 O 104.757 -1.5212 2.24881 0
M  V30 1082 C 103.213 0.730021 3.52418 0
M  V30 1083 C 102.821 2.19195 3.90714 0
M  V30 1084 C 104.565 0.391076 4.22695 0
M  V30 1085 C 102.472 2.42907 5.39212 0
M  V30 1086 H 101.402 0.15958 0.736919 0
M  V30 1087 H 104.053 1.03196 1.51733 0
M  V30 1088 H 102.435 0.0643755 3.95948 0
M  V30 1089 H 103.609 2.8984 3.58231 0
M  V30 1090 H 101.924 2.49425 3.33431 0
M  V30 1091 H 104.521 0.545817 5.31907 0
M  V30 1092 H 104.864 -0.666294 4.10933 0
M  V30 1093 H 105.397 1.01212 3.84709 0
M  V30 1094 H 102.136 3.47224 5.55982 0
M  V30 1095 H 101.656 1.76827 5.73142 0
M  V30 1096 H 103.335 2.2626 6.06148 0
M  V30 1097 N 103.467 -1.45747 0.599634 0
M  V30 1098 C 104.377 -2.34262 -0.125888 0
M  V30 1099 C 105.393 -1.50768 -0.868625 0
M  V30 1100 O 106.569 -1.83592 -0.828003 0
M  V30 1101 C 103.634 -3.28252 -1.11587 0
M  V30 1102 C 102.695 -4.27651 -0.375956 0
M  V30 1103 C 101.928 -5.1715 -1.31877 0
M  V30 1104 O 102.151 -5.09916 -2.55621 0
M  V30 1105 O 101.085 -5.96286 -0.820157 0
M  V30 1106 H 104.911 -2.97688 0.601315 0
M  V30 1107 H 102.496 -1.44999 0.359934 0
M  V30 1108 H 104.378 -3.86191 -1.68626 0
M  V30 1109 H 103.053 -2.67401 -1.82424 0
M  V30 1110 H 101.96 -3.7335 0.236698 0
M  V30 1111 H 103.293 -4.91334 0.29177 0
M  V30 1112 N 104.945 -0.338344 -1.53925 0
M  V30 1113 C 106.194 0.260732 -2.00008 0
M  V30 1114 C 106.507 1.52073 -1.23017 0
M  V30 1115 O 107.713 2.19672 -1.5955 0
M  V30 1116 C 106.169 0.51515 -3.56194 0
M  V30 1117 C 105.777 -0.728645 -4.42035 0
M  V30 1118 C 107.521 1.07337 -4.10706 0
M  V30 1119 C 105.428 -0.445315 -5.89721 0
M  V30 1120 H 104.358 0.101205 -0.747177 0
M  V30 1121 H 107.009 -0.452866 -1.77824 0
M  V30 1122 H 105.391 1.28932 -3.74423 0
M  V30 1123 H 106.565 -1.50352 -4.35581 0
M  V30 1124 H 104.88 -1.20813 -3.98489 0
M  V30 1125 H 107.477 1.30022 -5.18651 0
M  V30 1126 H 107.82 2.0273 -3.63602 0
M  V30 1127 H 108.353 0.360034 -3.96167 0
M  V30 1128 H 105.092 -1.36883 -6.41049 0
M  V30 1129 H 104.612 0.291569 -5.99091 0
M  V30 1130 H 106.291 -0.0606218 -6.46972 0
M  V30 1131 N 106.423 1.57458 -0.0668435 0
M  V30 1132 C 107.373 2.0896 0.912119 0
M  V30 1133 C 108.357 0.998186 1.26195 0
M  V30 1134 O 109.549 1.26133 1.24175 0
M  V30 1135 C 106.678 2.6508 2.18145 0
M  V30 1136 C 105.764 3.81218 1.85832 0
M  V30 1137 N 106.155 4.90378 1.23948 0
M  V30 1138 C 104.453 3.9042 2.15612 0
M  V30 1139 C 105.154 5.71279 1.09616 0
M  V30 1140 N 104.13 5.19389 1.60423 0
M  V30 1141 H 107.932 2.90749 0.42924 0
M  V30 1142 H 105.446 1.6182 0.137184 0
M  V30 1143 H 107.443 3.0029 2.89192 0
M  V30 1144 H 106.103 1.84736 2.67025 0
M  V30 1145 H 107.114 5.09847 0.909731 0
M  V30 1146 H 103.791 3.21043 2.66903 0
M  V30 1147 H 105.181 6.69085 0.614425 0
M  V30 1148 N 107.901 -0.206675 1.56239 0
M  V30 1149 C 109.178 -0.954051 1.70755 0
M  V30 1150 C 109.558 -2.01841 0.618353 0
M  V30 1151 O 108.906 -2.25444 -0.372434 0
M  V30 1152 C 109.116 -1.551 3.12642 0
M  V30 1153 C 110.464 -2.03757 3.72516 0
M  V30 1154 O 111.488 -1.64965 3.15698 0
M  V30 1155 O 110.347 -2.75103 4.72208 0
M  V30 1156 H 107.441 -0.446636 0.696021 0
M  V30 1157 H 109.987 -0.197283 1.68549 0
M  V30 1158 H 108.759 -0.783212 3.83382 0
M  V30 1159 H 108.382 -2.37291 3.19028 0
M  V30 1160 N 109.379 -1.50304 -0.473955 0
M  V30 1161 C 110.289 -1.7174 -1.5982 0
M  V30 1162 C 111.305 -0.600457 -1.63311 0
M  V30 1163 O 112.481 -0.878441 -1.81233 0
M  V30 1164 C 109.546 -1.80427 -2.96052 0
M  V30 1165 C 108.607 -3.04148 -3.02972 0
M  V30 1166 C 107.84 -3.12411 -4.32706 0
M  V30 1167 O 108.063 -2.27542 -5.23049 0
M  V30 1168 O 106.997 -4.05113 -4.45159 0
M  V30 1169 H 110.823 -2.67035 -1.44657 0
M  V30 1170 H 108.408 -1.34366 -0.653148 0
M  V30 1171 H 110.29 -1.88338 -3.7697 0
M  V30 1172 H 108.965 -0.883156 -3.11419 0
M  V30 1173 H 107.872 -3.0174 -2.21142 0
M  V30 1174 H 109.205 -3.95829 -2.92541 0
M  V30 1175 N 110.857 0.726932 -1.39834 0
M  V30 1176 C 112.268 1.30558 -1.3346 0
M  V30 1177 C 112.619 1.962 -0.00273003 0
M  V30 1178 O 111.744 1.96826 0.899371 0
M  V30 1179 C 112.339 2.37404 -2.41713 0
M  V30 1180 C 110.898 2.90921 -2.38835 0
M  V30 1181 C 110.045 1.64578 -2.2318 0
M  V30 1182 H 112.996 0.523862 -1.49804 0
M  V30 1183 H 113.017 3.17984 -2.08966 0
M  V30 1184 H 112.529 1.89599 -3.38635 0
M  V30 1185 H 110.63 3.42985 -1.45575 0
M  V30 1186 H 110.743 3.43487 -3.33997 0
M  V30 1187 H 109.107 1.89219 -1.70494 0
M  V30 1188 H 109.89 1.18814 -3.22084 0
M  V30 1189 N 112.336 1.25143 0.95797 0
M  V30 1190 C 113.613 1.00472 1.67823 0
M  V30 1191 C 113.993 -0.470056 2.058 0
M  V30 1192 O 113.341 -1.44663 1.76875 0
M  V30 1193 C 113.551 1.9372 2.90299 0
M  V30 1194 C 114.899 2.21371 3.62326 0
M  V30 1195 O 115.923 1.91451 3.00375 0
M  V30 1196 O 114.782 2.72231 4.7387 0
M  V30 1197 H 111.876 0.380752 0.734137 0
M  V30 1198 H 114.422 1.36283 1.01119 0
M  V30 1199 H 113.194 2.93316 2.59001 0
M  V30 1200 H 112.817 1.58286 3.64735 0
M  V30 1201 N 113.814 -1.1601 1.06675 0
M  V30 1202 C 114.777 -2.18724 0.685001 0
M  V30 1203 C 115.777 -1.58496 -0.271246 0
M  V30 1204 O 116.967 -1.74119 -0.0531156 0
M  V30 1205 C 114.099 -3.40899 0.00853648 0
M  V30 1206 H 115.292 -2.54011 1.59431 0
M  V30 1207 H 112.845 -1.30352 0.862441 0
M  V30 1208 H 113.58 -3.11173 -0.913337 0
M  V30 1209 H 113.365 -3.8587 0.696204 0
M  V30 1210 H 114.855 -4.16886 -0.24414 0
M  V30 1211 N 115.292 -0.849877 -1.32721 0
M  V30 1212 C 116.538 -0.460855 -1.9811 0
M  V30 1213 C 116.893 0.971716 -1.66059 0
M  V30 1214 O 116.186 1.67184 -0.935944 0
M  V30 1215 C 116.38 -0.631272 -3.51781 0
M  V30 1216 C 116.209 -2.07886 -3.98765 0
M  V30 1217 C 114.979 -2.71637 -4.26077 0
M  V30 1218 C 117.177 -3.04889 -4.14182 0
M  V30 1219 N 115.159 -4.07356 -4.59276 0
M  V30 1220 C 116.53 -4.25583 -4.50865 0
M  V30 1221 C 118.585 -3.01148 -3.96503 0
M  V30 1222 C 117.288 -5.43027 -4.71714 0
M  V30 1223 C 119.314 -4.17832 -4.18533 0
M  V30 1224 C 118.676 -5.37284 -4.55528 0
M  V30 1225 H 114.775 -0.217283 -0.751207 0
M  V30 1226 H 117.359 -1.10026 -1.60631 0
M  V30 1227 H 115.53 -0.0215966 -3.88394 0
M  V30 1228 H 117.262 -0.212614 -4.04141 0
M  V30 1229 H 114.017 -2.22705 -4.17971 0
M  V30 1230 H 114.441 -4.77351 -4.80068 0
M  V30 1231 H 119.083 -2.0992 -3.67006 0
M  V30 1232 H 116.801 -6.34791 -5.00066 0
M  V30 1233 H 120.387 -4.16368 -4.06361 0
M  V30 1234 H 119.267 -6.26071 -4.72234 0
M  V30 1235 N 116.77 1.45427 -0.607355 0
M  V30 1236 C 118 2.06314 -0.108656 0
M  V30 1237 C 118.408 1.45269 1.21217 0
M  V30 1238 O 117.751 0.561115 1.74921 0
M  V30 1239 C 117.813 3.59345 0.105618 0
M  V30 1240 C 117.477 4.42723 -1.13337 0
M  V30 1241 C 118.474 4.77715 -2.05145 0
M  V30 1242 C 116.159 4.83478 -1.36213 0
M  V30 1243 C 118.153 5.52317 -3.18158 0
M  V30 1244 C 115.84 5.57835 -2.49527 0
M  V30 1245 C 116.838 5.92171 -3.40327 0
M  V30 1246 O 116.526 6.65019 -4.51669 0
M  V30 1247 H 116.258 0.672782 -0.0658842 0
M  V30 1248 H 118.812 1.87664 -0.834945 0
M  V30 1249 H 117.042 3.76394 0.886796 0
M  V30 1250 H 118.731 4.02076 0.555886 0
M  V30 1251 H 119.497 4.46787 -1.88697 0
M  V30 1252 H 115.376 4.56188 -0.664362 0
M  V30 1253 H 118.92 5.79036 -3.89054 0
M  V30 1254 H 114.817 5.88177 -2.65928 0
M  V30 1255 H 115.585 6.83469 -4.50348 0
M  V30 1256 N 118.248 0.346503 1.53744 0
M  V30 1257 C 119.178 -0.501193 2.28058 0
M  V30 1258 C 120.159 -1.10014 1.29734 0
M  V30 1259 O 121.344 -1.12097 1.58581 0
M  V30 1260 C 118.474 -1.65078 3.05559 0
M  V30 1261 C 117.428 -1.18003 4.11411 0
M  V30 1262 C 116.754 -2.41837 4.76884 0
M  V30 1263 C 118.054 -0.278394 5.21558 0
M  V30 1264 H 119.748 0.11875 2.99164 0
M  V30 1265 H 117.294 0.0585531 1.43881 0
M  V30 1266 H 119.247 -2.25028 3.56287 0
M  V30 1267 H 117.971 -2.29767 2.32109 0
M  V30 1268 H 116.63 -0.603331 3.61601 0
M  V30 1269 H 116.278 -3.0494 4.00026 0
M  V30 1270 H 115.978 -2.1102 5.48402 0
M  V30 1271 H 117.502 -3.02508 5.30397 0
M  V30 1272 H 118.916 -0.784823 5.67903 0
M  V30 1273 H 117.313 -0.0619707 6.00068 0
M  V30 1274 H 118.383 0.684677 4.80042 0
M  V30 1275 N 119.726 -1.57421 0.075193 0
M  V30 1276 C 120.676 -2.09441 -0.901025 0
M  V30 1277 C 121.66 -1.00486 -1.25663 0
M  V30 1278 O 122.852 -1.2679 -1.23504 0
M  V30 1279 C 119.981 -2.66233 -2.16737 0
M  V30 1280 C 119.067 -3.82198 -1.83808 0
M  V30 1281 N 119.458 -4.91028 -1.21345 0
M  V30 1282 C 117.756 -3.91558 -2.13538 0
M  V30 1283 C 118.457 -5.71852 -1.06585 0
M  V30 1284 N 117.433 -5.20233 -1.57667 0
M  V30 1285 H 121.235 -2.90972 -0.413815 0
M  V30 1286 H 118.749 -1.6189 -0.128601 0
M  V30 1287 H 120.746 -3.01819 -2.87595 0
M  V30 1288 H 119.406 -1.8615 -2.66042 0
M  V30 1289 H 120.417 -5.10323 -0.88268 0
M  V30 1290 H 117.094 -3.22454 -2.65197 0
M  V30 1291 H 118.484 -6.69401 -0.578933 0
M  V30 1292 N 121.204 0.198386 -1.56346 0
M  V30 1293 C 122.45 0.920648 -1.80698 0
M  V30 1294 C 122.783 1.83045 -0.648697 0
M  V30 1295 O 122.058 1.91308 0.350925 0
M  V30 1296 C 122.341 1.73971 -3.15287 0
M  V30 1297 C 122.194 0.85485 -4.41602 0
M  V30 1298 C 123.513 2.71296 -3.46535 0
M  V30 1299 H 120.632 0.333261 -0.657348 0
M  V30 1300 H 123.274 0.188198 -1.89066 0
M  V30 1301 H 121.424 2.36416 -3.08285 0
M  V30 1302 H 123.096 0.245362 -4.60647 0
M  V30 1303 H 121.339 0.161398 -4.335 0
M  V30 1304 H 122.01 1.46286 -5.32264 0
M  V30 1305 H 124.486 2.18983 -3.53816 0
M  V30 1306 H 123.362 3.2569 -4.41834 0
M  V30 1307 H 123.623 3.5018 -2.69864 0
M  V30 1308 N 122.682 1.50554 0.465978 0
M  V30 1309 C 123.93 1.61479 1.21528 0
M  V30 1310 C 124.251 0.319596 1.92363 0
M  V30 1311 O 123.521 -0.663194 1.84333 0
M  V30 1312 H 122.101 0.595055 0.451573 0
M  V30 1313 H 124.763 1.87355 0.53704 0
M  V30 1314 H 123.859 2.42846 1.96042 0
M  V30 1315 N 124.16 -0.719506 1.40217 0
M  V30 1316 C 125.123 -1.8153 1.39927 0
M  V30 1317 C 126.123 -1.58095 0.293723 0
M  V30 1318 O 127.313 -1.65209 0.552429 0
M  V30 1319 C 124.445 -3.19561 1.18716 0
M  V30 1320 H 125.638 -1.83186 2.37451 0
M  V30 1321 H 123.191 -0.924746 1.26008 0
M  V30 1322 H 123.926 -3.23557 0.219366 0
M  V30 1323 H 123.711 -3.3797 1.98793 0
M  V30 1324 H 125.201 -3.99598 1.21291 0
M  V30 1325 N 125.638 -1.25649 -0.95132 0
M  V30 1326 C 126.886 -1.10375 -1.69298 0
M  V30 1327 C 127.207 0.355339 -1.91735 0
M  V30 1328 O 126.477 1.25188 -1.50681 0
M  V30 1329 H 125.057 -0.405461 -0.627384 0
M  V30 1330 H 127.719 -1.57823 -1.14358 0
M  V30 1331 H 126.815 -1.61465 -2.67087 0
M  V30 1332 N 127.117 1.15442 -1.07289 0
M  V30 1333 C 128.027 2.23786 -0.704057 0
M  V30 1334 C 129.043 1.7166 0.284413 0
M  V30 1335 O 130.219 2.00972 0.131205 0
M  V30 1336 C 127.284 3.46535 -0.106792 0
M  V30 1337 C 126.345 4.13654 -1.14842 0
M  V30 1338 C 125.578 5.30544 -0.57956 0
M  V30 1339 O 125.801 5.67187 0.604585 0
M  V30 1340 O 124.735 5.87154 -1.32414 0
M  V30 1341 H 128.561 2.57664 -1.60757 0
M  V30 1342 H 126.146 1.23152 -0.845803 0
M  V30 1343 H 128.028 4.20804 0.224048 0
M  V30 1344 H 126.703 3.14407 0.770049 0
M  V30 1345 H 125.61 3.4131 -1.5316 0
M  V30 1346 H 126.943 4.49861 -1.99714 0
M  V30 1347 N 128.595 0.856903 1.32268 0
M  V30 1348 C 129.543 0.291987 2.3076 0
M  V30 1349 C 130.537 -0.585857 1.58947 0
M  V30 1350 O 131.743 -0.47341 1.73663 0
M  V30 1351 H 128.118 0.075721 0.748178 0
M  V30 1352 H 130.089 1.13687 2.75895 0
M  V30 1353 C 128.838 -0.502869 3.44044 0
M  V30 1354 H 128.161 0.163328 3.99466 0
M  V30 1355 H 129.601 -0.863691 4.1511 0
M  V30 1356 C 128.06 -1.68898 2.91505 0
M  V30 1357 O 128.59 -2.78811 2.89184 0
M  V30 1358 N 126.796 -1.51679 2.47875 0
M  V30 1359 H 126.343 -0.622666 2.49961 0
M  V30 1360 H 126.301 -2.31184 2.13076 0
M  V30 1361 N 130.073 -1.45103 0.615059 0
M  V30 1362 C 131.319 -2.03035 0.121804 0
M  V30 1363 C 131.674 -1.47393 -1.23665 0
M  V30 1364 O 130.967 -0.642061 -1.80522 0
M  V30 1365 C 131.161 -3.57386 0.0318797 0
M  V30 1366 C 130.99 -4.28 1.38007 0
M  V30 1367 C 129.76 -4.65624 1.9627 0
M  V30 1368 C 131.958 -4.5948 2.31047 0
M  V30 1369 N 129.94 -5.21132 3.24492 0
M  V30 1370 C 131.311 -5.159 3.43872 0
M  V30 1371 C 133.366 -4.41423 2.30326 0
M  V30 1372 C 132.069 -5.56165 4.5615 0
M  V30 1373 C 134.095 -4.82726 3.41658 0
M  V30 1374 C 133.457 -5.39245 4.53205 0
M  V30 1375 H 129.556 -0.77702 0.0881159 0
M  V30 1376 H 132.14 -1.76819 0.815044 0
M  V30 1377 H 130.311 -3.83247 -0.630599 0
M  V30 1378 H 132.043 -4.01976 -0.468721 0
M  V30 1379 H 128.798 -4.49421 1.49392 0
M  V30 1380 H 129.222 -5.53377 3.90004 0
M  V30 1381 H 133.864 -3.97033 1.45343 0
M  V30 1382 H 131.582 -5.99517 5.41854 0
M  V30 1383 H 135.168 -4.7048 3.42257 0
M  V30 1384 H 134.048 -5.70616 5.37929 0
M  V30 1385 N 131.551 -0.354651 -1.53558 0
M  V30 1386 C 132.501 0.513179 -2.2215 0
M  V30 1387 C 133.485 1.05734 -1.21281 0
M  V30 1388 O 134.677 0.989202 -1.46778 0
M  V30 1389 C 131.806 1.65798 -3.00609 0
M  V30 1390 C 130.892 1.12722 -4.08845 0
M  V30 1391 N 131.283 0.318563 -5.04796 0
M  V30 1392 C 129.581 1.40307 -4.23356 0
M  V30 1393 C 130.282 0.0292224 -5.81693 0
M  V30 1394 N 129.258 0.623891 -5.40008 0
M  V30 1395 H 133.06 -0.111586 -2.93688 0
M  V30 1396 H 130.574 -0.162091 -1.61589 0
M  V30 1397 H 132.571 2.29176 -3.48258 0
M  V30 1398 H 131.231 2.28591 -2.306 0
M  V30 1399 H 132.242 -0.0413091 -5.17884 0
M  V30 1400 H 128.919 2.03458 -3.6457 0
M  V30 1401 H 130.309 -0.623808 -6.68998 0
M  V30 1402 N 133.029 1.57378 -0.0835403 0
M  V30 1403 C 134.445 1.57246 0.273109 0
M  V30 1404 C 134.645 1.09385 1.69225 0
M  V30 1405 O 133.701 0.765051 2.40631 0
M  V30 1406 C 135.014 3.00614 0.0720628 0
M  V30 1407 C 136.562 3.12684 0.1407 0
M  V30 1408 C 137.037 4.57989 -0.0322094 0
M  V30 1409 N 138.528 4.63194 0.0230085 0
M  V30 1410 C 139.263 5.73335 -0.0861941 0
M  V30 1411 N 138.759 6.9235 -0.24958 0
M  V30 1412 N 140.552 5.62093 -0.0282886 0
M  V30 1413 H 132.703 1.86801 -1.0109 0
M  V30 1414 H 134.966 0.861687 -0.395222 0
M  V30 1415 H 134.672 3.39786 -0.907662 0
M  V30 1416 H 134.546 3.68193 0.81936 0
M  V30 1417 H 136.933 2.73391 1.11092 0
M  V30 1418 H 137.014 2.47719 -0.637896 0
M  V30 1419 H 136.658 4.97973 -0.999247 0
M  V30 1420 H 136.588 5.21 0.765937 0
M  V30 1421 H 139.079 3.77613 0.14722 0
M  V30 1422 H 139.392 7.72117 -0.324733 0
M  V30 1423 H 137.737 6.94415 -0.285097 0
M  V30 1424 H 140.928 4.67997 0.0981408 0
M  V30 1425 H 141.101 6.47895 -0.116845 0
M  V30 1426 N 134.507 -0.190092 1.56449 0
M  V30 1427 C 135.437 -1.23816 1.97969 0
M  V30 1428 C 136.418 -1.47201 0.852395 0
M  V30 1429 O 137.603 -1.58854 1.1171 0
M  V30 1430 C 134.733 -2.5813 2.3235 0
M  V30 1431 C 133.687 -2.49348 3.47864 0
M  V30 1432 C 133.013 -3.8798 3.67934 0
M  V30 1433 C 134.313 -2.01424 4.81898 0
M  V30 1434 H 136.007 -0.89311 2.85769 0
M  V30 1435 H 133.553 -0.428177 1.37487 0
M  V30 1436 H 135.506 -3.31637 2.59991 0
M  V30 1437 H 134.23 -2.94386 1.41438 0
M  V30 1438 H 132.889 -1.78297 3.20321 0
M  V30 1439 H 132.537 -4.21597 2.74344 0
M  V30 1440 H 132.237 -3.82978 4.45648 0
M  V30 1441 H 133.761 -4.63101 3.97957 0
M  V30 1442 H 135.175 -2.64693 5.08538 0
M  V30 1443 H 133.572 -2.07413 5.63116 0
M  V30 1444 H 134.642 -0.967677 4.75146 0
M  V30 1445 N 135.985 -1.50799 -0.457987 0
M  V30 1446 C 137.231 -1.62683 -1.21088 0
M  V30 1447 C 137.564 -0.332268 -1.91336 0
M  V30 1448 O 136.839 0.667043 -1.82704 0
M  V30 1449 C 137.122 -2.81615 -2.24422 0
M  V30 1450 C 136.975 -4.20989 -1.58392 0
M  V30 1451 C 138.294 -2.96085 -3.2561 0
M  V30 1452 H 135.413 -0.592087 -0.438864 0
M  V30 1453 H 138.055 -1.83225 -0.50286 0
M  V30 1454 H 136.205 -2.64231 -2.84806 0
M  V30 1455 H 137.877 -4.49994 -1.01504 0
M  V30 1456 H 136.12 -4.24641 -0.886704 0
M  V30 1457 H 136.791 -5.0016 -2.33547 0
M  V30 1458 H 139.267 -3.12042 -2.75262 0
M  V30 1459 H 138.143 -3.80902 -3.95228 0
M  V30 1460 H 138.404 -2.0726 -3.90507 0
M  V30 1461 N 137.463 0.71206 -1.40597 0
M  V30 1462 C 138.41 1.82613 -1.41142 0
M  V30 1463 C 139.38 1.63925 -0.267903 0
M  V30 1464 O 140.565 1.85009 -0.466495 0
M  V30 1465 C 137.705 3.20354 -1.28324 0
M  V30 1466 C 136.818 3.50589 -2.52411 0
M  V30 1467 C 135.953 4.77855 -2.32009 0
M  V30 1468 C 134.992 5.01005 -3.51654 0
M  V30 1469 N 134.129 6.19487 -3.30425 0
M  V30 1470 H 138.969 1.81482 -2.36365 0
M  V30 1471 H 136.506 0.886475 -1.17388 0
M  V30 1472 H 138.464 3.99899 -1.18899 0
M  V30 1473 H 137.094 3.20705 -0.367189 0
M  V30 1474 H 136.146 2.65573 -2.72351 0
M  V30 1475 H 137.458 3.63604 -3.41458 0
M  V30 1476 H 136.612 5.65424 -2.19956 0
M  V30 1477 H 135.351 4.67056 -1.40392 0
M  V30 1478 H 134.356 4.1189 -3.64179 0
M  V30 1479 H 135.581 5.13674 -4.44202 0
M  V30 1480 H 133.527 6.09932 -2.41494 0
M  V30 1481 H 133.444 6.33194 -4.13039 0
M  V30 1482 H 134.712 7.09834 -3.22113 0
M  V30 1483 N 138.941 1.26152 0.944643 0
M  V30 1484 C 140.171 1.14094 1.72239 0
M  V30 1485 C 140.579 -0.306931 1.86694 0
M  V30 1486 O 139.922 -1.22222 1.3714 0
M  V30 1487 C 139.984 1.73316 3.14963 0
M  V30 1488 C 139.648 3.2239 3.23904 0
M  V30 1489 C 140.645 4.19252 3.07447 0
M  V30 1490 C 138.33 3.62788 3.47405 0
M  V30 1491 C 140.324 5.54491 3.14353 0
M  V30 1492 C 138.011 4.98162 3.53947 0
M  V30 1493 C 139.009 5.93823 3.37436 0
M  V30 1494 O 138.697 7.26732 3.43679 0
M  V30 1495 H 138.429 0.398292 0.546205 0
M  V30 1496 H 140.983 1.67201 1.19301 0
M  V30 1497 H 139.213 1.14667 3.69308 0
M  V30 1498 H 140.902 1.56214 3.74636 0
M  V30 1499 H 141.668 3.8938 2.8915 0
M  V30 1500 H 137.547 2.88816 3.59313 0
M  V30 1501 H 141.091 6.29137 3.01384 0
M  V30 1502 H 136.988 5.27695 3.71763 0
M  V30 1503 H 137.756 7.3496 3.60245 0
M  V30 1504 N 140.419 -1.14872 1.07899 0
M  V30 1505 C 141.647 -1.89661 0.82683 0
M  V30 1506 C 142.062 -1.78312 -0.620519 0
M  V30 1507 O 141.419 -1.13888 -1.42604 0
M  V30 1508 C 141.47 -3.39817 1.23316 0
M  V30 1509 O 141.191 -3.50845 2.62372 0
M  V30 1510 C 142.692 -4.31615 1.0111 0
M  V30 1511 H 139.912 -0.60092 0.298557 0
M  V30 1512 H 142.456 -1.4551 1.43691 0
M  V30 1513 H 140.611 -3.8161 0.667286 0
M  V30 1514 H 141.025 -4.44076 2.79101 0
M  V30 1515 H 142.499 -5.35367 1.34486 0
M  V30 1516 H 142.976 -4.39169 -0.0522168 0
M  V30 1517 H 143.582 -3.95572 1.56215 0
M  V30 1518 N 141.898 -0.863906 -1.31812 0
M  V30 1519 C 142.828 -0.330843 -2.31144 0
M  V30 1520 C 143.809 0.575005 -1.60087 0
M  V30 1521 O 144.994 0.493304 -1.8783 0
M  V30 1522 C 142.124 0.47374 -3.44054 0
M  V30 1523 C 141.078 -0.338481 -4.26659 0
M  V30 1524 C 140.404 0.591412 -5.31419 0
M  V30 1525 C 141.704 -1.56926 -4.98168 0
M  V30 1526 H 143.398 -1.16086 -2.75979 0
M  V30 1527 H 140.944 -0.559657 -1.32679 0
M  V30 1528 H 142.897 0.857143 -4.12591 0
M  V30 1529 H 141.621 1.33721 -2.9797 0
M  V30 1530 H 140.28 -0.703754 -3.59782 0
M  V30 1531 H 139.928 1.45199 -4.81587 0
M  V30 1532 H 139.628 0.0519022 -5.87577 0
M  V30 1533 H 141.152 0.97179 -6.02817 0
M  V30 1534 H 142.566 -1.25764 -5.59336 0
M  V30 1535 H 140.963 -2.04739 -5.64094 0
M  V30 1536 H 142.033 -2.32544 -4.25501 0
M  V30 1537 N 143.376 1.44774 -0.622745 0
M  V30 1538 C 144.308 2.28856 0.125485 0
M  V30 1539 C 145.321 1.40811 0.817069 0
M  V30 1540 O 146.51 1.65044 0.679918 0
M  V30 1541 C 143.61 3.16963 1.19949 0
M  V30 1542 C 142.783 4.33374 0.592064 0
M  V30 1543 C 141.842 5.02577 1.55893 0
M  V30 1544 O 140.868 5.58873 1.07933 0
M  V30 1545 N 142.07 5.03256 2.89334 0
M  V30 1546 H 144.835 2.93713 -0.596068 0
M  V30 1547 H 142.396 1.55129 -0.463303 0
M  V30 1548 H 144.388 3.60123 1.84644 0
M  V30 1549 H 142.958 2.53913 1.82337 0
M  V30 1550 H 142.178 3.93509 -0.233322 0
M  V30 1551 H 143.466 5.08527 0.166738 0
M  V30 1552 H 142.864 4.58836 3.30887 0
M  V30 1553 H 141.421 5.50232 3.49412 0
M  V30 1554 N 144.854 0.36279 1.53368 0
M  V30 1555 C 145.764 -0.492994 2.29362 0
M  V30 1556 C 146.78 -1.09507 1.35219 0
M  V30 1557 O 147.956 -1.10662 1.68273 0
M  V30 1558 C 145.021 -1.61855 3.066 0
M  V30 1559 C 144.082 -1.04429 4.16405 0
M  V30 1560 C 143.315 -2.11621 4.89951 0
M  V30 1561 O 143.538 -3.32684 4.63333 0
M  V30 1562 O 142.472 -1.74835 5.75948 0
M  V30 1563 H 146.298 0.125331 3.03441 0
M  V30 1564 H 143.883 0.127253 1.48857 0
M  V30 1565 H 145.765 -2.27302 3.54841 0
M  V30 1566 H 144.44 -2.22233 2.3536 0
M  V30 1567 H 143.347 -0.353819 3.72423 0
M  V30 1568 H 144.68 -0.485113 4.89804 0
M  V30 1569 N 146.332 -1.57332 0.0918853 0
M  V30 1570 C 147.58 -1.93853 -0.571446 0
M  V30 1571 C 147.901 -0.974212 -1.6892 0
M  V30 1572 O 147.171 -0.0257254 -1.95883 0
M  V30 1573 H 145.751 -0.715666 -0.214082 0
M  V30 1574 H 148.413 -1.94287 0.154464 0
M  V30 1575 H 147.509 -2.96191 -0.983729 0
M  V30 1576 N 147.81 0.181792 -1.56548 0
M  V30 1577 C 148.743 1.25366 -1.90679 0
M  V30 1578 C 149.721 1.43299 -0.768376 0
M  V30 1579 O 150.905 1.58475 -1.02068 0
M  V30 1580 C 148.032 2.61826 -2.1486 0
M  V30 1581 C 147.078 2.60688 -3.37556 0
M  V30 1582 S 147.911 2.10804 -4.92262 0
M  V30 1583 C 149.067 3.49062 -5.19525 0
M  V30 1584 H 149.3 0.962277 -2.81296 0
M  V30 1585 H 146.833 0.385892 -1.495 0
M  V30 1586 H 148.791 3.40371 -2.29473 0
M  V30 1587 H 147.452 2.88169 -1.24969 0
M  V30 1588 H 146.645 3.61058 -3.51643 0
M  V30 1589 H 146.247 1.90232 -3.22006 0
M  V30 1590 H 148.539 4.45003 -5.10861 0
M  V30 1591 H 149.482 3.39859 -6.2121 0
M  V30 1592 H 149.89 3.4459 -4.47122 0
M  V30 1593 N 149.288 1.51039 0.449983 0
M  V30 1594 C 150.699 1.557 1.03026 0
M  V30 1595 C 151.05 0.372939 1.92623 0
M  V30 1596 O 150.175 -0.511771 2.10261 0
M  V30 1597 C 150.77 2.82171 1.87523 0
M  V30 1598 C 149.329 2.89444 2.40622 0
M  V30 1599 C 148.476 2.50228 1.19504 0
M  V30 1600 H 151.427 1.56999 0.231745 0
M  V30 1601 H 151.448 2.65219 2.72835 0
M  V30 1602 H 150.96 3.68331 1.22286 0
M  V30 1603 H 149.061 2.07685 3.0935 0
M  V30 1604 H 149.174 3.92816 2.74285 0
M  V30 1605 H 147.538 2.03139 1.53644 0
M  V30 1606 H 148.321 3.38719 0.558972 0
M  V30 1607 N 150.766 -0.704594 1.40972 0
M  V30 1608 C 152.014 -1.46169 1.39568 0
M  V30 1609 C 152.335 -1.95 0.00253745 0
M  V30 1610 O 151.605 -1.71095 -0.954114 0
M  V30 1611 H 150.185 -0.542326 0.513704 0
M  V30 1612 H 152.847 -0.834553 1.76128 0
M  V30 1613 H 151.943 -2.32922 2.07735 0
M  V30 1614 N 152.244 -1.26651 -0.937939 0
M  V30 1615 C 153.174 -1.10993 -2.05433 0
M  V30 1616 C 154.155 -0.0142161 -1.70094 0
M  V30 1617 O 155.34 -0.186837 -1.93299 0
M  V30 1618 C 152.47 -0.745561 -3.39203 0
M  V30 1619 C 151.424 -1.79337 -3.88616 0
M  V30 1620 C 150.75 -1.28324 -5.19073 0
M  V30 1621 C 152.05 -3.19553 -4.13138 0
M  V30 1622 H 153.744 -2.0438 -2.1879 0
M  V30 1623 H 151.29 -0.984041 -1.05131 0
M  V30 1624 H 153.243 -0.622888 -4.16771 0
M  V30 1625 H 151.967 0.22401 -3.25831 0
M  V30 1626 H 150.626 -1.90477 -3.13231 0
M  V30 1627 H 150.274 -0.303414 -5.02084 0
M  V30 1628 H 149.974 -1.98369 -5.53103 0
M  V30 1629 H 151.498 -1.1733 -5.99221 0
M  V30 1630 H 152.912 -3.11471 -4.81309 0
M  V30 1631 H 151.309 -3.87218 -4.58457 0
M  V30 1632 H 152.379 -3.65368 -3.18801 0
M  V30 1633 N 153.722 1.14298 -1.08507 0
M  V30 1634 C 154.632 2.23027 -0.727753 0
M  V30 1635 C 155.648 1.71952 0.26619 0
M  V30 1636 O 156.824 2.011 0.109882 0
M  V30 1637 C 153.889 3.46403 -0.143541 0
M  V30 1638 C 152.95 4.12413 -1.19223 0
M  V30 1639 C 152.183 5.29899 -0.635798 0
M  V30 1640 O 152.406 5.67796 0.544393 0
M  V30 1641 O 151.34 5.85717 -1.38634 0
M  V30 1642 H 155.166 2.55945 -1.63481 0
M  V30 1643 H 152.751 1.22248 -0.858817 0
M  V30 1644 H 154.633 4.21018 0.179404 0
M  V30 1645 H 153.308 3.15206 0.736659 0
M  V30 1646 H 152.215 3.39667 -1.56772 0
M  V30 1647 H 153.548 4.47718 -2.04474 0
M  V30 1648 N 155.201 0.870884 1.31352 0
M  V30 1649 C 156.149 0.316445 2.30437 0
M  V30 1650 C 157.143 -0.568965 1.59559 0
M  V30 1651 O 158.349 -0.454964 1.74155 0
M  V30 1652 H 154.724 0.0836521 0.747333 0
M  V30 1653 H 156.695 1.16606 2.74673 0
M  V30 1654 C 155.444 -0.46635 3.44558 0
M  V30 1655 H 154.767 0.205687 3.99271 0
M  V30 1656 H 156.207 -0.819614 4.16003 0
M  V30 1657 C 154.666 -1.65797 2.9328 0
M  V30 1658 O 155.196 -2.75728 2.92125 0
M  V30 1659 N 153.402 -1.49041 2.4947 0
M  V30 1660 H 152.949 -0.59612 2.50608 0
M  V30 1661 H 152.907 -2.28911 2.15516 0
M  V30 1662 N 156.679 -1.44442 0.630414 0
M  V30 1663 C 157.609 -2.33418 -0.0618083 0
M  V30 1664 C 158.59 -1.48165 -0.835541 0
M  V30 1665 O 159.775 -1.76886 -0.801564 0
M  V30 1666 C 156.905 -3.31222 -1.04449 0
M  V30 1667 C 155.859 -4.26288 -0.382436 0
M  V30 1668 C 155.185 -5.13954 -1.47497 0
M  V30 1669 C 156.485 -5.1744 0.710865 0
M  V30 1670 H 158.179 -2.91548 0.681184 0
M  V30 1671 H 155.725 -1.40191 0.329026 0
M  V30 1672 H 157.678 -3.92351 -1.53748 0
M  V30 1673 H 156.402 -2.71299 -1.81836 0
M  V30 1674 H 155.061 -3.6649 0.0899054 0
M  V30 1675 H 154.709 -4.50385 -2.2397 0
M  V30 1676 H 154.409 -5.7837 -1.03737 0
M  V30 1677 H 155.933 -5.77955 -1.96979 0
M  V30 1678 H 157.347 -5.72509 0.300996 0
M  V30 1679 H 155.744 -5.90455 1.07156 0
M  V30 1680 H 156.814 -4.58496 1.57829 0
M  V30 1681 N 158.157 -0.370918 -1.53173 0
M  V30 1682 C 159.12 0.460778 -2.24521 0
M  V30 1683 C 160.12 1.00536 -1.25496 0
M  V30 1684 O 161.31 0.890266 -1.49733 0
M  V30 1685 C 158.442 1.64457 -2.98608 0
M  V30 1686 H 159.635 -0.163613 -2.99453 0
M  V30 1687 H 157.188 -0.122699 -1.55818 0
M  V30 1688 H 157.923 2.30691 -2.2793 0
M  V30 1689 H 157.708 1.26099 -3.7127 0
M  V30 1690 H 159.198 2.23384 -3.5283 0
M  V30 1691 N 159.635 1.57281 -0.100228 0
M  V30 1692 C 160.565 2.17328 0.853857 0
M  V30 1693 C 161.546 1.10804 1.2906 0
M  V30 1694 O 162.731 1.38963 1.35657 0
M  V30 1695 C 159.861 2.75772 2.11109 0
M  V30 1696 C 158.815 3.87713 1.81279 0
M  V30 1697 C 158.141 4.32882 3.13874 0
M  V30 1698 C 159.441 5.10677 1.09574 0
M  V30 1699 H 161.135 2.97305 0.353545 0
M  V30 1700 H 158.681 1.43009 0.168612 0
M  V30 1701 H 160.634 3.16433 2.78296 0
M  V30 1702 H 159.358 1.93057 2.63432 0
M  V30 1703 H 158.017 3.476 1.16489 0
M  V30 1704 H 157.665 3.47051 3.64095 0
M  V30 1705 H 157.365 5.08358 2.94696 0
M  V30 1706 H 158.889 4.7618 3.82211 0
M  V30 1707 H 160.303 5.48474 1.66879 0
M  V30 1708 H 158.7 5.91615 1.00557 0
M  V30 1709 H 159.77 4.84835 0.0793299 0
M  V30 1710 N 161.113 -0.173488 1.56642 0
M  V30 1711 C 162.362 -0.888758 1.81063 0
M  V30 1712 C 162.675 -1.83506 0.67712 0
M  V30 1713 O 163.881 -2.59254 0.806206 0
M  V30 1714 C 162.337 -1.63091 3.20826 0
M  V30 1715 C 161.945 -0.728357 4.4204 0
M  V30 1716 C 163.689 -2.33454 3.54541 0
M  V30 1717 C 161.596 -1.47062 5.72823 0
M  V30 1718 H 160.526 -0.335618 0.675186 0
M  V30 1719 H 163.177 -0.141712 1.82952 0
M  V30 1720 H 161.559 -2.42263 3.13248 0
M  V30 1721 H 162.733 0.0262449 4.60793 0
M  V30 1722 H 161.048 -0.134492 4.16183 0
M  V30 1723 H 163.645 -2.89578 4.49498 0
M  V30 1724 H 163.988 -3.08687 2.79317 0
M  V30 1725 H 164.521 -1.61227 3.63663 0
M  V30 1726 H 161.26 -0.760658 6.51072 0
M  V30 1727 H 160.78 -2.1986 5.58052 0
M  V30 1728 H 162.459 -2.01868 6.14702 0
M  V30 1729 N 162.591 -1.51276 -0.441967 0
M  V30 1730 C 164.002 -1.56244 -1.02199 0
M  V30 1731 C 164.353 -0.383149 -1.92422 0
M  V30 1732 O 163.478 0.500613 -2.1053 0
M  V30 1733 C 164.073 -2.83162 -1.86024 0
M  V30 1734 C 162.632 -2.90716 -2.39084 0
M  V30 1735 C 161.779 -2.50858 -1.18175 0
M  V30 1736 H 164.73 -1.5712 -0.223416 0
M  V30 1737 H 164.751 -2.66663 -2.71425 0
M  V30 1738 H 164.263 -3.68974 -1.20331 0
M  V30 1739 H 162.364 -2.09323 -3.08244 0
M  V30 1740 H 162.477 -3.94266 -2.72198 0
M  V30 1741 H 160.841 -2.03951 -1.52565 0
M  V30 1742 H 161.624 -3.3901 -0.541001 0
M  V30 1743 N 164.069 0.697108 -1.41344 0
M  V30 1744 C 165.317 1.45426 -1.40341 0
M  V30 1745 C 165.638 1.94996 -0.0128787 0
M  V30 1746 O 164.908 1.71599 0.945027 0
M  V30 1747 H 163.488 0.539594 -0.516573 0
M  V30 1748 H 166.15 0.825201 -1.76569 0
M  V30 1749 H 165.246 2.31817 -2.08967 0
M  V30 1750 N 165.547 1.27147 0.931209 0
M  V30 1751 C 166.787 1.14511 1.69312 0
M  V30 1752 C 167.151 -0.304638 1.89568 0
M  V30 1753 O 168.352 -0.553343 2.63043 0
M  V30 1754 C 166.623 1.90349 3.02493 0
M  V30 1755 S 168.182 1.93884 3.93642 0
M  V30 1756 H 165 0.408858 0.581684 0
M  V30 1757 H 167.602 1.61006 1.10893 0
M  V30 1758 H 166.306 2.94877 2.85439 0
M  V30 1759 H 165.837 1.44333 3.65966 0
M  V30 1760 H 167.852 1.03273 4.85334 0
M  V30 1761 N 167.025 -1.13721 1.09112 0
M  V30 1762 C 168.271 -1.85198 0.826414 0
M  V30 1763 C 168.604 -1.83129 -0.646319 0
M  V30 1764 O 167.879 -1.2671 -1.47563 0
M  V30 1765 C 168.162 -3.33507 1.35812 0
M  V30 1766 C 168.015 -3.44108 2.89672 0
M  V30 1767 C 169.334 -4.28838 0.989256 0
M  V30 1768 H 166.453 -0.67243 0.301675 0
M  V30 1769 H 169.095 -1.33499 1.35197 0
M  V30 1770 H 167.245 -3.77666 0.911082 0
M  V30 1771 H 168.917 -3.08684 3.428 0
M  V30 1772 H 167.16 -2.85087 3.26967 0
M  V30 1773 H 167.831 -4.48388 3.21951 0
M  V30 1774 H 170.307 -3.92734 1.37475 0
M  V30 1775 H 169.183 -5.31051 1.38838 0
M  V30 1776 H 169.444 -4.4198 -0.102924 0
M  V30 1777 N 168.503 -0.877838 -1.30888 0
M  V30 1778 C 169.751 -0.491723 -1.96027 0
M  V30 1779 C 170.072 0.960827 -1.69685 0
M  V30 1780 O 169.342 1.67462 -1.01654 0
M  V30 1781 H 167.922 -0.17885 -0.725273 0
M  V30 1782 H 170.584 -1.11935 -1.59551 0
M  V30 1783 H 169.68 -0.656016 -3.05128 0
M  V30 1784 N 169.982 1.44106 -0.638065 0
M  V30 1785 C 171.207 2.0685 -0.150916 0
M  V30 1786 C 171.632 1.47417 1.16833 0
M  V30 1787 O 170.99 0.578264 1.71831 0
M  V30 1788 C 171.038 3.60555 -0.05708 0
M  V30 1789 O 170.142 4.00465 0.984972 0
M  V30 1790 H 169.483 0.658151 -0.0879399 0
M  V30 1791 H 172.013 1.84865 -0.876707 0
M  V30 1792 H 172.023 4.07789 0.131232 0
M  V30 1793 H 170.698 4.03193 -1.02021 0
M  V30 1794 H 169.275 3.64849 0.770672 0
M  V30 1795 N 171.46 0.379036 1.52974 0
M  V30 1796 C 172.685 -0.209353 2.06341 0
M  V30 1797 C 173.11 -1.40583 1.24972 0
M  V30 1798 O 172.468 -1.79246 0.272155 0
M  V30 1799 C 172.516 -0.567786 3.56102 0
M  V30 1800 O 171.62 -1.66318 3.77375 0
M  V30 1801 H 170.961 -0.0272919 0.663439 0
M  V30 1802 H 173.491 0.543536 1.97248 0
M  V30 1803 H 173.501 -0.835003 3.99364 0
M  V30 1804 H 172.176 0.307013 4.14765 0
M  V30 1805 H 170.753 -1.39048 3.46006 0
M  V30 1806 N 172.938 -1.57226 0.108567 0
M  V30 1807 C 174.349 -1.8195 -0.418464 0
M  V30 1808 C 174.7 -1.02508 -1.67292 0
M  V30 1809 O 173.825 -0.258496 -2.14851 0
M  V30 1810 C 174.42 -3.30028 -0.765979 0
M  V30 1811 C 172.979 -3.55469 -1.23769 0
M  V30 1812 C 172.126 -2.7625 -0.241106 0
M  V30 1813 H 175.077 -1.55149 0.33384 0
M  V30 1814 H 175.098 -3.44086 -1.62434 0
M  V30 1815 H 174.61 -3.87821 0.147219 0
M  V30 1816 H 172.711 -3.03022 -2.16814 0
M  V30 1817 H 172.824 -4.6408 -1.19022 0
M  V30 1818 H 171.188 -2.44133 -0.72602 0
M  V30 1819 H 171.971 -3.36797 0.665007 0
M  V30 1820 N 174.416 0.165178 -1.56732 0
M  V30 1821 C 175.665 0.879143 -1.81532 0
M  V30 1822 C 175.978 1.83144 -0.686842 0
M  V30 1823 O 177.184 2.58823 -0.819944 0
M  V30 1824 C 175.64 1.61388 -3.21686 0
M  V30 1825 C 175.248 0.704904 -4.4242 0
M  V30 1826 C 176.992 2.3157 -3.55774 0
M  V30 1827 C 174.899 1.44022 -5.73595 0
M  V30 1828 H 173.829 0.332033 -0.676957 0
M  V30 1829 H 176.48 0.132008 -1.83025 0
M  V30 1830 H 174.862 2.40599 -3.14529 0
M  V30 1831 H 176.036 -0.0506815 -4.60772 0
M  V30 1832 H 174.351 0.112419 -4.16248 0
M  V30 1833 H 176.948 2.8719 -4.51028 0
M  V30 1834 H 177.291 3.07201 -2.8095 0
M  V30 1835 H 177.824 1.59297 -3.64513 0
M  V30 1836 H 174.563 0.72612 -6.51466 0
M  V30 1837 H 174.083 2.16898 -5.5921 0
M  V30 1838 H 175.762 1.98606 -6.15764 0
M  V30 1839 N 175.894 1.51508 0.433938 0
M  V30 1840 C 176.826 1.69266 1.54537 0
M  V30 1841 C 177.839 0.573276 1.52373 0
M  V30 1842 O 179.028 0.847698 1.57087 0
M  V30 1843 C 176.128 1.69524 2.93453 0
M  V30 1844 C 175.301 2.98101 3.20085 0
M  V30 1845 C 174.36 2.90502 4.38742 0
M  V30 1846 O 173.386 3.64442 4.3723 0
M  V30 1847 N 174.588 2.06586 5.42496 0
M  V30 1848 H 177.353 2.65145 1.39708 0
M  V30 1849 H 174.914 1.49437 0.622922 0
M  V30 1850 H 176.906 1.62004 3.70859 0
M  V30 1851 H 175.476 0.812245 3.01863 0
M  V30 1852 H 174.696 3.19464 2.30947 0
M  V30 1853 H 175.984 3.83207 3.34708 0
M  V30 1854 H 175.382 1.45896 5.46563 0
M  V30 1855 H 173.939 2.04943 6.18742 0
M  V30 1856 N 177.372 -0.689602 1.41712 0
M  V30 1857 C 178.32 -1.82475 1.44242 0
M  V30 1858 C 179.314 -1.66354 0.319774 0
M  V30 1859 O 180.52 -1.73143 0.492089 0
M  V30 1860 H 176.895 -0.601416 0.451445 0
M  V30 1861 H 178.866 -1.77458 2.39899 0
M  V30 1862 C 177.615 -3.20535 1.3473 0
M  V30 1863 H 176.938 -3.33559 2.20405 0
M  V30 1864 H 178.378 -4.00023 1.40562 0
M  V30 1865 C 176.837 -3.36846 0.0603281 0
M  V30 1866 O 177.367 -3.91656 -0.892663 0
M  V30 1867 N 175.573 -2.90595 -0.0177039 0
M  V30 1868 H 175.12 -2.46178 0.758572 0
M  V30 1869 H 175.078 -3.01886 -0.878201 0
M  V30 1870 N 178.85 -1.27639 -0.924453 0
M  V30 1871 C 180.099 -1.13549 -1.66702 0
M  V30 1872 C 180.412 0.317487 -1.93006 0
M  V30 1873 O 181.618 0.579333 -2.65247 0
M  V30 1874 C 180.074 -1.98426 -3.00259 0
M  V30 1875 C 179.682 -3.484 -2.81641 0
M  V30 1876 C 181.426 -1.92993 -3.78092 0
M  V30 1877 C 179.333 -4.25464 -4.10773 0
M  V30 1878 H 178.263 -0.421351 -0.625283 0
M  V30 1879 H 180.914 -1.52085 -1.02676 0
M  V30 1880 H 179.296 -1.52736 -3.6536 0
M  V30 1881 H 180.47 -4.01973 -2.25287 0
M  V30 1882 H 178.785 -3.55245 -2.17232 0
M  V30 1883 H 181.382 -2.47844 -4.7379 0
M  V30 1884 H 181.725 -0.904281 -4.0636 0
M  V30 1885 H 182.258 -2.36595 -3.19793 0
M  V30 1886 H 178.997 -5.28566 -3.87683 0
M  V30 1887 H 178.517 -3.76667 -4.66779 0
M  V30 1888 H 180.196 -4.34812 -4.79111 0
M  V30 1889 N 180.328 1.1314 -1.09713 0
M  V30 1890 C 181.576 1.84119 -0.833338 0
M  V30 1891 C 181.897 1.84097 0.642904 0
M  V30 1892 O 181.167 1.29881 1.46655 0
M  V30 1893 H 179.747 0.681766 -0.305293 0
M  V30 1894 H 182.409 1.37038 -1.38588 0
M  V30 1895 H 181.505 2.88543 -1.18951 0
M  V30 1896 N 181.806 0.884767 1.30421 0
M  V30 1897 C 182.769 0.356277 2.26414 0
M  V30 1898 C 183.769 -0.501124 1.52792 0
M  V30 1899 O 184.959 -0.30831 1.7145 0
M  V30 1900 C 182.091 -0.492316 3.37326 0
M  V30 1901 H 183.284 1.20389 2.74675 0
M  V30 1902 H 180.837 0.661607 1.41607 0
M  V30 1903 H 181.572 -1.36052 2.94381 0
M  V30 1904 H 181.357 0.121832 3.91911 0
M  V30 1905 H 182.847 -0.853871 4.08777 0
M  V30 1906 N 183.284 -1.43765 0.645699 0
M  V30 1907 C 184.514 -2.05953 0.163318 0
M  V30 1908 C 184.922 -1.48432 -1.17322 0
M  V30 1909 O 184.265 -0.607295 -1.73371 0
M  V30 1910 C 184.327 -3.59499 -0.0103065 0
M  V30 1911 C 183.991 -4.39563 1.25035 0
M  V30 1912 C 184.988 -4.72108 2.17739 0
M  V30 1913 C 182.673 -4.79697 1.48983 0
M  V30 1914 C 184.667 -5.43688 3.3269 0
M  V30 1915 C 182.354 -5.51023 2.64229 0
M  V30 1916 C 183.352 -5.8294 3.55908 0
M  V30 1917 O 183.04 -6.5281 4.69142 0
M  V30 1918 H 182.772 -0.670798 0.0836986 0
M  V30 1919 H 185.326 -1.85384 0.884407 0
M  V30 1920 H 183.556 -3.78613 -0.78669 0
M  V30 1921 H 185.245 -4.03408 -0.449087 0
M  V30 1922 H 186.011 -4.41627 2.00476 0
M  V30 1923 H 181.89 -4.54266 0.785078 0
M  V30 1924 H 185.434 -5.68517 4.04269 0
M  V30 1925 H 181.331 -5.8092 2.81429 0
M  V30 1926 H 182.099 -6.71288 4.6831 0
M  V30 1927 N 184.763 -0.387143 -1.52771 0
M  V30 1928 C 186.011 0.195349 -2.01154 0
M  V30 1929 C 186.332 1.475 -1.27549 0
M  V30 1930 O 185.602 1.91878 -0.394924 0
M  V30 1931 H 184.182 0.075178 -0.743207 0
M  V30 1932 H 186.844 -0.518337 -1.87881 0
M  V30 1933 H 185.94 0.407096 -3.09434 0
M  V30 1934 N 186.241 1.57166 -0.116904 0
M  V30 1935 C 187.487 1.95412 0.542405 0
M  V30 1936 C 187.82 1.00019 1.66463 0
M  V30 1937 O 187.095 0.0370346 1.94465 0
M  V30 1938 C 187.378 3.43615 1.07708 0
M  V30 1939 C 187.231 4.49781 -0.0415868 0
M  V30 1940 C 188.55 3.93616 1.96861 0
M  V30 1941 H 185.669 0.710543 0.195696 0
M  V30 1942 H 188.311 1.89027 -0.192038 0
M  V30 1943 H 186.461 3.49187 1.70296 0
M  V30 1944 H 188.133 4.56308 -0.676793 0
M  V30 1945 H 186.376 4.28033 -0.705019 0
M  V30 1946 H 187.047 5.50733 0.373717 0
M  V30 1947 H 189.523 3.90335 1.44146 0
M  V30 1948 H 188.399 4.97838 2.3119 0
M  V30 1949 H 188.66 3.34188 2.89432 0
M  V30 1950 N 187.719 -0.156864 1.56817 0
M  V30 1951 C 188.629 -1.2136 2.00771 0
M  V30 1952 C 189.645 -1.47598 0.921459 0
M  V30 1953 O 190.821 -1.59462 1.2302 0
M  V30 1954 C 187.886 -2.52943 2.37109 0
M  V30 1955 C 186.947 -2.34439 3.59634 0
M  V30 1956 C 186.18 -3.59748 3.94229 0
M  V30 1957 O 186.403 -4.65526 3.29609 0
M  V30 1958 O 185.337 -3.52998 4.8752 0
M  V30 1959 H 189.163 -0.870468 2.90958 0
M  V30 1960 H 186.748 -0.36484 1.44877 0
M  V30 1961 H 188.63 -3.30538 2.61386 0
M  V30 1962 H 187.305 -2.86806 1.5008 0
M  V30 1963 H 186.212 -1.54828 3.40557 0
M  V30 1964 H 187.545 -2.05496 4.4725 0
M  V30 1965 N 189.197 -1.51736 -0.425897 0
M  V30 1966 C 190.127 -1.76827 -1.52494 0
M  V30 1967 C 191.108 -0.618524 -1.58456 0
M  V30 1968 O 192.293 -0.862416 -1.74 0
M  V30 1969 C 189.423 -1.90374 -2.90474 0
M  V30 1970 C 188.377 -3.0588 -2.99369 0
M  V30 1971 C 187.703 -3.04625 -4.3944 0
M  V30 1972 C 189.003 -4.45644 -2.72394 0
M  V30 1973 H 190.697 -2.68855 -1.31748 0
M  V30 1974 H 188.243 -1.29372 -0.632362 0
M  V30 1975 H 190.196 -2.0651 -3.6733 0
M  V30 1976 H 188.92 -0.95004 -3.12477 0
M  V30 1977 H 187.579 -2.89467 -2.24954 0
M  V30 1978 H 187.227 -2.0701 -4.58428 0
M  V30 1979 H 186.927 -3.82195 -4.46319 0
M  V30 1980 H 188.451 -3.22869 -5.18255 0
M  V30 1981 H 189.865 -4.62348 -3.38979 0
M  V30 1982 H 188.262 -5.25006 -2.9067 0
M  V30 1983 H 189.332 -4.54893 -1.67929 0
M  V30 1984 N 190.675 0.682077 -1.42076 0
M  V30 1985 C 191.607 1.80755 -1.40926 0
M  V30 1986 C 192.62 1.59833 -0.309398 0
M  V30 1987 O 193.809 1.69087 -0.572014 0
M  V30 1988 C 190.909 3.17744 -1.17865 0
M  V30 1989 C 190.082 3.65578 -2.40149 0
M  V30 1990 C 189.141 4.81277 -2.12742 0
M  V30 1991 O 188.167 4.92197 -2.85887 0
M  V30 1992 N 189.369 5.69474 -1.12602 0
M  V30 1993 H 192.134 1.82229 -2.37935 0
M  V30 1994 H 189.695 0.864903 -1.36861 0
M  V30 1995 H 191.687 3.9279 -0.9746 0
M  V30 1996 H 190.257 3.11214 -0.294068 0
M  V30 1997 H 189.477 2.81291 -2.76169 0
M  V30 1998 H 190.765 3.94278 -3.21593 0
M  V30 1999 H 190.163 5.63297 -0.520899 0
M  V30 2000 H 188.72 6.44363 -0.981842 0
M  V30 2001 N 192.153 1.28127 0.917671 0
M  V30 2002 C 193.569 1.05749 1.19538 0
M  V30 2003 C 193.769 -0.202633 2.00479 0
M  V30 2004 O 192.825 -0.905382 2.3571 0
M  V30 2005 C 194.138 2.30273 1.93378 0
M  V30 2006 C 195.686 2.35412 2.06277 0
M  V30 2007 C 196.161 3.59692 2.83524 0
M  V30 2008 N 197.652 3.60309 2.91087 0
M  V30 2009 C 198.387 4.53147 3.51348 0
M  V30 2010 N 197.883 5.563 4.12919 0
M  V30 2011 N 199.676 4.40751 3.48849 0
M  V30 2012 H 191.827 2.09024 0.377184 0
M  V30 2013 H 194.09 0.919798 0.22951 0
M  V30 2014 H 193.796 3.22055 1.41328 0
M  V30 2015 H 193.67 2.36378 2.93947 0
M  V30 2016 H 196.057 1.4413 2.57508 0
M  V30 2017 H 196.138 2.33304 1.04895 0
M  V30 2018 H 195.782 4.51316 2.32973 0
M  V30 2019 H 195.712 3.59054 3.85211 0
M  V30 2020 H 198.203 2.85714 2.47338 0
M  V30 2021 H 198.516 6.2329 4.56869 0
M  V30 2022 H 196.861 5.60131 4.11435 0
M  V30 2023 H 200.052 3.59367 2.99955 0
M  V30 2024 H 200.225 5.13291 3.9552 0
M  V30 2025 N 193.631 -1.12557 1.10312 0
M  V30 2026 C 194.877 -1.84311 0.846011 0
M  V30 2027 C 195.21 -1.83805 -0.626859 0
M  V30 2028 O 194.485 -1.28268 -1.46211 0
M  V30 2029 C 194.768 -3.32048 1.39341 0
M  V30 2030 C 194.621 -3.41016 2.93305 0
M  V30 2031 C 195.94 -4.27764 1.03468 0
M  V30 2032 H 193.059 -0.669192 0.30879 0
M  V30 2033 H 195.701 -1.32057 1.36605 0
M  V30 2034 H 193.851 -3.76678 0.951087 0
M  V30 2035 H 195.523 -3.05031 3.46055 0
M  V30 2036 H 193.766 -2.81603 3.29973 0
M  V30 2037 H 194.437 -4.44948 3.26689 0
M  V30 2038 H 196.913 -3.91253 1.41633 0
M  V30 2039 H 195.789 -5.29549 1.44463 0
M  V30 2040 H 196.05 -4.42064 -0.0560404 0
M  V30 2041 N 195.109 -0.891671 -1.2995 0
M  V30 2042 C 196.349 -0.520296 -1.97667 0
M  V30 2043 C 196.713 0.914797 -1.68806 0
M  V30 2044 O 197.914 1.39263 -2.29911 0
M  V30 2045 C 196.185 -0.795222 -3.48441 0
M  V30 2046 S 197.744 -0.526953 -4.35624 0
M  V30 2047 H 194.562 -0.19333 -0.684211 0
M  V30 2048 H 197.164 -1.15238 -1.57926 0
M  V30 2049 H 195.868 -1.83805 -3.66938 0
M  V30 2050 H 195.399 -0.15095 -3.9311 0
M  V30 2051 H 197.414 0.631533 -4.92165 0
M  V30 2052 N 196.587 1.43421 -0.653314 0
M  V30 2053 C 197.55 2.29182 0.0287951 0
M  V30 2054 C 198.55 1.42213 0.750465 0
M  V30 2055 O 199.74 1.63843 0.591701 0
M  V30 2056 C 196.872 3.24278 1.05151 0
M  V30 2057 H 198.065 2.90985 -0.725786 0
M  V30 2058 H 195.618 1.50702 -0.414545 0
M  V30 2059 H 196.353 2.6737 1.83532 0
M  V30 2060 H 196.138 3.88396 0.537687 0
M  V30 2061 H 197.628 3.88647 1.52786 0
M  V30 2062 N 198.065 0.39524 1.52563 0
M  V30 2063 C 199.295 -0.184675 2.05773 0
M  V30 2064 C 199.703 -1.40571 1.26635 0
M  V30 2065 O 199.046 -1.81105 0.30769 0
M  V30 2066 C 199.108 -0.613551 3.54226 0
M  V30 2067 C 198.772 0.49484 4.54313 0
M  V30 2068 C 199.769 1.3541 5.01956 0
M  V30 2069 C 197.454 0.663565 4.97898 0
M  V30 2070 C 199.448 2.36716 5.91814 0
M  V30 2071 C 197.135 1.67996 5.87555 0
M  V30 2072 C 198.133 2.53017 6.34406 0
M  V30 2073 O 197.821 3.52917 7.22291 0
M  V30 2074 H 197.553 -0.030077 0.675331 0
M  V30 2075 H 200.107 0.560708 1.97599 0
M  V30 2076 H 198.337 -1.411 3.60038 0
M  V30 2077 H 200.026 -1.11981 3.90148 0
M  V30 2078 H 200.792 1.23509 4.6901 0
M  V30 2079 H 196.671 0.0114913 4.60999 0
M  V30 2080 H 200.215 3.03113 6.28306 0
M  V30 2081 H 196.112 1.79933 6.19915 0
M  V30 2082 H 196.88 3.48996 7.40367 0
M  V30 2083 N 199.544 -1.57102 0.125237 0
M  V30 2084 C 200.79 -1.95697 -0.532035 0
M  V30 2085 C 201.123 -1.009 -1.6593 0
M  V30 2086 O 200.398 -0.047347 -1.94442 0
M  V30 2087 C 200.681 -3.44181 -1.05884 0
M  V30 2088 C 200.534 -4.49752 0.0654392 0
M  V30 2089 C 201.853 -3.94655 -1.9477 0
M  V30 2090 H 198.972 -0.711571 -0.191925 0
M  V30 2091 H 201.614 -1.88923 0.20206 0
M  V30 2092 H 199.764 -3.50085 -1.68442 0
M  V30 2093 H 201.436 -4.55943 0.700982 0
M  V30 2094 H 199.679 -4.27653 0.727709 0
M  V30 2095 H 200.35 -5.50924 -0.344505 0
M  V30 2096 H 202.826 -3.91094 -1.42074 0
M  V30 2097 H 201.702 -4.99057 -2.28546 0
M  V30 2098 H 201.963 -3.35718 -2.87656 0
M  V30 2099 N 201.022 0.148545 -1.56898 0
M  V30 2100 C 202.299 0.890019 -1.74178 0
M  V30 2101 C 202.679 1.99407 -0.692839 0
M  V30 2102 O 202.027 2.26671 0.288505 0
M  V30 2103 C 202.237 1.43389 -3.18183 0
M  V30 2104 C 203.585 1.89791 -3.79822 0
M  V30 2105 O 204.609 1.53134 -3.21603 0
M  V30 2106 O 203.468 2.57387 -4.82093 0
M  V30 2107 H 200.562 0.420496 -0.712118 0
M  V30 2108 H 203.108 0.134591 -1.69165 0
M  V30 2109 H 201.88 0.640383 -3.86024 0
M  V30 2110 H 201.503 2.25287 -3.27615 0
M  V30 2111 N 202.5 1.5196 0.417844 0
M  V30 2112 C 203.725 1.69717 1.1921 0
M  V30 2113 C 204.15 0.402148 1.83751 0
M  V30 2114 O 203.508 -0.639593 1.69643 0
M  V30 2115 C 203.556 2.82794 2.2374 0
M  V30 2116 O 202.66 2.47756 3.29683 0
M  V30 2117 H 202.001 0.565263 0.348387 0
M  V30 2118 H 204.531 1.98621 0.490985 0
M  V30 2119 H 204.541 3.07452 2.68212 0
M  V30 2120 H 203.216 3.76756 1.76146 0
M  V30 2121 H 201.793 2.33739 2.90552 0
M  V30 2122 N 203.978 -0.674533 1.42435 0
M  V30 2123 C 205.224 -1.43671 1.43131 0
M  V30 2124 C 205.557 -1.94142 0.0476021 0
M  V30 2125 O 204.832 -1.70924 -0.928188 0
M  V30 2126 C 205.115 -2.63355 2.45594 0
M  V30 2127 C 204.968 -2.18514 3.93156 0
M  V30 2128 C 206.287 -3.65571 2.45043 0
M  V30 2129 H 203.406 -0.521077 0.521198 0
M  V30 2130 H 206.048 -0.766551 1.7385 0
M  V30 2131 H 204.198 -3.2053 2.19528 0
M  V30 2132 H 205.87 -1.66504 4.30202 0
M  V30 2133 H 204.113 -1.50086 4.07009 0
M  V30 2134 H 204.784 -3.04484 4.60428 0
M  V30 2135 H 207.26 -3.18113 2.68223 0
M  V30 2136 H 206.136 -4.46893 3.18713 0
M  V30 2137 H 206.397 -4.16716 1.47649 0
M  V30 2138 N 205.456 -1.28612 -0.910864 0
M  V30 2139 C 206.366 -1.14643 -2.0468 0
M  V30 2140 C 207.382 -0.0723121 -1.7385 0
M  V30 2141 O 208.558 -0.282178 -1.99413 0
M  V30 2142 C 205.623 -0.812561 -3.37044 0
M  V30 2143 C 204.684 -1.96935 -3.81465 0
M  V30 2144 C 203.917 -1.65131 -5.07511 0
M  V30 2145 O 204.14 -0.567013 -5.67575 0
M  V30 2146 O 203.074 -2.49585 -5.47714 0
M  V30 2147 H 206.9 -2.1001 -2.19384 0
M  V30 2148 H 204.485 -1.07958 -1.03274 0
M  V30 2149 H 206.367 -0.640441 -4.16505 0
M  V30 2150 H 205.042 0.111426 -3.23508 0
M  V30 2151 H 203.949 -2.19664 -3.02818 0
M  V30 2152 H 205.282 -2.87414 -3.99567 0
M  V30 2153 N 206.934 1.1197 -1.10907 0
M  V30 2154 C 207.864 2.19928 -0.784473 0
M  V30 2155 C 208.845 1.6833 0.244726 0
M  V30 2156 O 210.03 1.93892 0.109418 0
M  V30 2157 C 207.16 3.46597 -0.220827 0
M  V30 2158 C 206.114 4.11376 -1.18127 0
M  V30 2159 C 205.44 5.32554 -0.478594 0
M  V30 2160 C 206.74 4.56945 -2.52979 0
M  V30 2161 H 208.434 2.47337 -1.68715 0
M  V30 2162 H 205.98 1.18879 -0.812642 0
M  V30 2163 H 207.933 4.21396 0.0184278 0
M  V30 2164 H 206.657 3.1863 0.717113 0
M  V30 2165 H 205.316 3.38564 -1.40606 0
M  V30 2166 H 204.964 5.00856 0.463976 0
M  V30 2167 H 204.664 5.76844 -1.11912 0
M  V30 2168 H 206.188 6.10096 -0.248 0
M  V30 2169 H 207.602 5.23093 -2.3462 0
M  V30 2170 H 205.999 5.1203 -3.12962 0
M  V30 2171 H 207.069 3.70676 -3.12614 0
M  V30 2172 N 208.412 0.89855 1.29475 0
M  V30 2173 C 209.375 0.380272 2.26023 0
M  V30 2174 C 210.375 -0.484891 1.53315 0
M  V30 2175 O 211.565 -0.290108 1.71767 0
M  V30 2176 C 208.697 -0.45651 3.3783 0
M  V30 2177 H 209.89 1.23295 2.73383 0
M  V30 2178 H 207.443 0.676589 1.40897 0
M  V30 2179 H 208.178 -1.32922 2.95808 0
M  V30 2180 H 207.963 0.163393 3.91759 0
M  V30 2181 H 209.453 -0.810466 4.0966 0
M  V30 2182 N 209.89 -1.43072 0.660911 0
M  V30 2183 C 211.118 -2.06067 0.185422 0
M  V30 2184 C 211.533 -1.49582 -1.15198 0
M  V30 2185 O 210.89 -0.630134 -1.71276 0
M  V30 2186 C 210.941 -3.61371 0.0966523 0
M  V30 2187 O 210.662 -4.15758 1.38119 0
M  V30 2188 C 212.163 -4.41455 -0.403996 0
M  V30 2189 H 209.383 -0.664459 0.0934604 0
M  V30 2190 H 211.927 -1.83447 0.90373 0
M  V30 2191 H 210.082 -3.8315 -0.572259 0
M  V30 2192 H 210.496 -5.09499 1.24542 0
M  V30 2193 H 211.97 -5.50437 -0.415045 0
M  V30 2194 H 212.447 -4.15036 -1.43674 0
M  V30 2195 H 213.053 -4.24663 0.232691 0
M  V30 2196 N 211.368 -0.403325 -1.52352 0
M  V30 2197 C 212.616 0.174003 -2.0135 0
M  V30 2198 C 212.937 1.46139 -1.29106 0
M  V30 2199 O 212.207 1.91448 -0.415253 0
M  V30 2200 H 210.787 0.0672911 -0.743963 0
M  V30 2201 H 213.449 -0.538235 -1.87321 0
M  V30 2202 H 212.545 0.374254 -3.09848 0
M  V30 2203 N 212.846 1.57033 -0.133567 0
M  V30 2204 C 213.793 2.16074 0.811208 0
M  V30 2205 C 214.763 1.08979 1.2535 0
M  V30 2206 O 215.948 1.36958 1.32843 0
M  V30 2207 C 213.088 2.77595 2.05024 0
M  V30 2208 C 212.201 3.99042 1.65498 0
M  V30 2209 C 211.336 4.48603 2.84479 0
M  V30 2210 C 210.375 5.62547 2.41262 0
M  V30 2211 N 209.512 6.06787 3.53206 0
M  V30 2212 H 214.352 2.96477 0.300906 0
M  V30 2213 H 211.889 1.46462 0.136822 0
M  V30 2214 H 213.847 3.11402 2.77642 0
M  V30 2215 H 212.477 1.99859 2.53488 0
M  V30 2216 H 211.529 3.71302 0.826981 0
M  V30 2217 H 212.841 4.81629 1.29748 0
M  V30 2218 H 211.995 4.84395 3.65303 0
M  V30 2219 H 210.734 3.64995 3.23465 0
M  V30 2220 H 209.739 5.26345 1.58874 0
M  V30 2221 H 210.964 6.47931 2.03377 0
M  V30 2222 H 208.91 5.26117 3.91838 0
M  V30 2223 H 208.827 6.84266 3.21427 0
M  V30 2224 H 210.095 6.4722 4.34427 0
M  V30 2225 N 214.325 -0.140222 1.56975 0
M  V30 2226 C 215.257 -1.19818 1.95388 0
M  V30 2227 C 216.27 -1.38816 0.850525 0
M  V30 2228 O 217.459 -1.38267 1.12891 0
M  V30 2229 C 214.559 -2.56189 2.21857 0
M  V30 2230 C 213.732 -2.58077 3.5315 0
M  V30 2231 C 212.791 -3.76037 3.6808 0
M  V30 2232 O 211.817 -3.60598 4.40406 0
M  V30 2233 N 213.019 -4.93763 3.05251 0
M  V30 2234 H 215.784 -0.871609 2.86746 0
M  V30 2235 H 213.345 -0.32972 1.58507 0
M  V30 2236 H 215.337 -3.33623 2.2908 0
M  V30 2237 H 213.907 -2.81111 1.36731 0
M  V30 2238 H 213.127 -1.6651 3.57307 0
M  V30 2239 H 214.415 -2.56377 4.39486 0
M  V30 2240 H 213.813 -5.09209 2.46419 0
M  V30 2241 H 212.37 -5.68949 3.18026 0
M  V30 2242 N 215.803 -1.52179 -0.40978 0
M  V30 2243 C 217.049 -1.66453 -1.15851 0
M  V30 2244 C 217.382 -0.392972 -1.90182 0
M  V30 2245 O 216.657 0.608579 -1.84734 0
M  V30 2246 C 216.94 -2.88612 -2.15349 0
M  V30 2247 C 216.793 -4.25815 -1.44918 0
M  V30 2248 C 218.112 -3.06294 -3.16026 0
M  V30 2249 H 215.231 -0.60575 -0.419805 0
M  V30 2250 H 217.873 -1.84732 -0.444314 0
M  V30 2251 H 216.023 -2.73158 -2.76255 0
M  V30 2252 H 217.695 -4.52995 -0.871365 0
M  V30 2253 H 215.938 -4.27247 -0.751159 0
M  V30 2254 H 216.609 -5.07337 -2.17516 0
M  V30 2255 H 219.085 -3.20641 -2.65195 0
M  V30 2256 H 217.961 -3.93283 -3.8291 0
M  V30 2257 H 218.222 -2.19579 -3.83715 0
M  V30 2258 N 217.281 0.66697 -1.42791 0
M  V30 2259 C 218.697 0.981027 -1.25889 0
M  V30 2260 C 218.897 2.00793 -0.168695 0
M  V30 2261 O 217.953 2.48321 0.45747 0
M  V30 2262 C 219.266 1.47838 -2.61848 0
M  V30 2263 C 220.814 1.59575 -2.69267 0
M  V30 2264 C 221.289 2.12704 -4.05612 0
M  V30 2265 N 222.78 2.20026 -4.07606 0
M  V30 2266 C 223.515 2.62227 -5.09926 0
M  V30 2267 N 223.011 3.03824 -6.22626 0
M  V30 2268 N 224.804 2.62045 -4.97281 0
M  V30 2269 H 216.955 -0.0127891 -2.12396 0
M  V30 2270 H 219.218 0.0568258 -0.946295 0
M  V30 2271 H 218.924 0.798299 -3.4252 0
M  V30 2272 H 218.798 2.45579 -2.86305 0
M  V30 2273 H 221.185 2.26687 -1.88936 0
M  V30 2274 H 221.266 0.60302 -2.48591 0
M  V30 2275 H 220.91 1.46198 -4.86404 0
M  V30 2276 H 220.84 3.12782 -4.23645 0
M  V30 2277 H 223.331 1.90708 -3.2625 0
M  V30 2278 H 223.644 3.34734 -6.96544 0
M  V30 2279 H 221.989 3.01662 -6.26119 0
M  V30 2280 H 225.18 2.28916 -4.08308 0
M  V30 2281 H 225.353 2.94613 -5.77154 0
M  V30 2282 N 218.759 1.29093 0.90403 0
M  V30 2283 C 219.689 1.16401 2.02418 0
M  V30 2284 C 220.67 0.0593085 1.69997 0
M  V30 2285 O 221.855 0.238021 1.92736 0
M  V30 2286 C 218.985 0.835233 3.37107 0
M  V30 2287 C 217.939 1.89578 3.83724 0
M  V30 2288 C 217.265 1.42041 5.15489 0
M  V30 2289 C 218.565 3.30394 4.04521 0
M  V30 2290 H 220.259 2.10109 2.13295 0
M  V30 2291 H 217.805 1.01157 1.02486 0
M  V30 2292 H 219.758 0.733169 4.14973 0
M  V30 2293 H 218.482 -0.137543 3.2631 0
M  V30 2294 H 217.141 1.98715 3.08071 0
M  V30 2295 H 216.789 0.436426 5.01103 0
M  V30 2296 H 216.489 2.12964 5.4765 0
M  V30 2297 H 218.013 1.33176 5.959 0
M  V30 2298 H 219.427 3.24123 4.72882 0
M  V30 2299 H 217.824 3.99237 4.48029 0
M  V30 2300 H 218.894 3.73692 3.09002 0
M  V30 2301 N 220.237 -1.11381 1.11499 0
M  V30 2302 C 221.465 -1.86934 0.88675 0
M  V30 2303 C 221.88 -1.80195 -0.563476 0
M  V30 2304 O 221.237 -1.18367 -1.38908 0
M  V30 2305 C 221.288 -3.35722 1.34064 0
M  V30 2306 O 221.009 -3.4232 2.73401 0
M  V30 2307 C 222.51 -4.2818 1.14791 0
M  V30 2308 H 219.73 -0.591117 0.317523 0
M  V30 2309 H 222.274 -1.40865 1.48248 0
M  V30 2310 H 220.429 -3.79294 0.788355 0
M  V30 2311 H 220.843 -4.34971 2.93087 0
M  V30 2312 H 222.317 -5.30817 1.5145 0
M  V30 2313 H 222.794 -4.39113 0.0875279 0
M  V30 2314 H 223.4 -3.90402 1.68721 0
M  V30 2315 N 221.715 -0.905404 -1.28997 0
M  V30 2316 C 222.678 -0.392253 -2.25819 0
M  V30 2317 C 223.678 0.476753 -1.5357 0
M  V30 2318 O 224.868 0.280994 -1.71919 0
M  V30 2319 C 222 0.438588 -3.38067 0
M  V30 2320 H 223.193 -1.24743 -2.72725 0
M  V30 2321 H 220.746 -0.684051 -1.40536 0
M  V30 2322 H 221.481 1.31352 -2.96508 0
M  V30 2323 H 221.266 -0.184167 -3.91667 0
M  V30 2324 H 222.756 0.78873 -4.10084 0
M  V30 2325 N 223.193 1.4272 -0.668489 0
M  V30 2326 C 224.14 2.30796 0.0137489 0
M  V30 2327 C 225.11 1.4561 0.799177 0
M  V30 2328 O 226.295 1.74453 0.772702 0
M  V30 2329 C 223.435 3.31377 0.963507 0
M  V30 2330 C 222.548 4.31655 0.172569 0
M  V30 2331 C 221.683 5.19312 1.1175 0
M  V30 2332 C 220.722 6.11274 0.317886 0
M  V30 2333 N 219.859 6.91504 1.2152 0
M  V30 2334 H 224.699 2.88585 -0.743161 0
M  V30 2335 H 222.236 1.42154 -0.378226 0
M  V30 2336 H 224.194 3.88214 1.52792 0
M  V30 2337 H 222.824 2.75202 1.68712 0
M  V30 2338 H 221.876 3.76988 -0.508374 0
M  V30 2339 H 223.188 4.96779 -0.448527 0
M  V30 2340 H 222.342 5.80851 1.75206 0
M  V30 2341 H 221.081 4.5435 1.77249 0
M  V30 2342 H 220.086 5.48809 -0.329918 0
M  V30 2343 H 221.311 6.78283 -0.332917 0
M  V30 2344 H 219.257 6.29176 1.85671 0
M  V30 2345 H 219.174 7.53209 0.649036 0
M  V30 2346 H 220.442 7.57535 1.83742 0
M  V30 2347 N 224.671 0.411399 1.52136 0
M  V30 2348 C 225.581 -0.419774 2.30814 0
M  V30 2349 C 226.597 -1.0515 1.38634 0
M  V30 2350 O 227.773 -1.05252 1.71709 0
M  V30 2351 C 224.838 -1.52019 3.11594 0
M  V30 2352 C 223.899 -0.91129 4.19516 0
M  V30 2353 C 223.132 -1.95927 4.96436 0
M  V30 2354 O 223.355 -3.17775 4.73683 0
M  V30 2355 O 222.289 -1.56423 5.81219 0
M  V30 2356 H 226.115 0.221805 3.02889 0
M  V30 2357 H 223.7 0.174547 1.48377 0
M  V30 2358 H 225.582 -2.15898 3.61892 0
M  V30 2359 H 224.257 -2.14633 2.42311 0
M  V30 2360 H 223.164 -0.235157 3.7336 0
M  V30 2361 H 224.497 -0.32904 4.91099 0
M  V30 2362 N 226.149 -1.5696 0.141893 0
M  V30 2363 C 227.389 -1.9785 -0.513304 0
M  V30 2364 C 227.753 -1.02467 -1.62371 0
M  V30 2365 O 228.954 -1.32382 -2.33941 0
M  V30 2366 C 227.225 -3.42797 -1.01118 0
M  V30 2367 S 228.784 -4.05709 -1.67169 0
M  V30 2368 H 225.602 -0.691318 -0.166135 0
M  V30 2369 H 228.204 -1.94114 0.232398 0
M  V30 2370 H 226.908 -4.0995 -0.192179 0
M  V30 2371 H 226.439 -3.50235 -1.79162 0
M  V30 2372 H 228.454 -3.98342 -2.95868 0
M  V30 2373 N 227.627 0.131896 -1.57047 0
M  V30 2374 C 229.043 0.485031 -1.52051 0
M  V30 2375 C 229.243 1.82563 -0.85281 0
M  V30 2376 O 228.299 2.48817 -0.429694 0
M  V30 2377 C 229.612 0.481409 -2.96821 0
M  V30 2378 C 231.16 0.565868 -3.07842 0
M  V30 2379 C 231.635 0.592762 -4.54148 0
M  V30 2380 N 233.126 0.654564 -4.58552 0
M  V30 2381 C 233.861 0.696608 -5.69153 0
M  V30 2382 N 233.357 0.697078 -6.89284 0
M  V30 2383 N 235.15 0.738639 -5.57226 0
M  V30 2384 H 227.301 -0.746664 -1.98843 0
M  V30 2385 H 229.564 -0.273999 -0.90754 0
M  V30 2386 H 229.27 -0.435731 -3.4899 0
M  V30 2387 H 229.144 1.3139 -3.53577 0
M  V30 2388 H 231.531 1.47343 -2.55684 0
M  V30 2389 H 231.612 -0.29406 -2.54104 0
M  V30 2390 H 231.256 -0.310701 -5.06949 0
M  V30 2391 H 231.186 1.46939 -5.05684 0
M  V30 2392 H 233.677 0.660887 -3.72076 0
M  V30 2393 H 233.99 0.731426 -7.69331 0
M  V30 2394 H 232.335 0.66471 -6.91814 0
M  V30 2395 H 235.526 0.735545 -4.62285 0
M  V30 2396 H 235.699 0.767938 -6.43434 0
M  V30 2397 N 229.106 1.52395 0.401703 0
M  V30 2398 C 230.353 1.66817 1.14796 0
M  V30 2399 C 230.681 0.401772 1.90305 0
M  V30 2400 O 229.936 -0.615487 1.85769 0
M  V30 2401 C 230.235 2.84578 2.16217 0
M  V30 2402 C 229.901 4.22513 1.5746 0
M  V30 2403 C 228.563 4.60029 1.41161 0
M  V30 2404 C 230.915 5.0844 1.14622 0
M  V30 2405 C 228.243 5.81144 0.80552 0
M  V30 2406 C 230.595 6.30167 0.55428 0
M  V30 2407 C 229.259 6.66426 0.378482 0
M  V30 2408 H 228.529 0.610428 0.420069 0
M  V30 2409 H 231.176 1.86512 0.434212 0
M  V30 2410 H 229.481 2.59248 2.93764 0
M  V30 2411 H 231.178 2.92933 2.73845 0
M  V30 2412 H 227.768 3.92953 1.71132 0
M  V30 2413 H 231.952 4.80034 1.26021 0
M  V30 2414 H 227.208 6.07855 0.657399 0
M  V30 2415 H 231.382 6.96071 0.213983 0
M  V30 2416 H 229.009 7.60143 -0.0932606 0
M  V30 2417 N 230.584 -0.659388 1.43143 0
M  V30 2418 C 231.832 -1.41654 1.44147 0
M  V30 2419 C 232.153 -1.94893 0.0645739 0
M  V30 2420 O 231.423 -1.74044 -0.899198 0
M  V30 2421 H 230.003 -0.525708 0.530697 0
M  V30 2422 H 232.665 -0.778097 1.78694 0
M  V30 2423 H 231.761 -2.26195 2.1504 0
M  V30 2424 N 232.062 -1.29571 -0.897171 0
M  V30 2425 C 233.292 -1.20408 -1.67886 0
M  V30 2426 C 233.7 0.237429 -1.87704 0
M  V30 2427 O 233.043 1.17048 -1.41582 0
M  V30 2428 C 233.105 -1.84887 -3.08314 0
M  V30 2429 C 232.769 -3.34189 -3.11716 0
M  V30 2430 C 233.766 -4.30374 -2.91675 0
M  V30 2431 C 231.451 -3.75431 -3.33701 0
M  V30 2432 C 233.445 -5.65776 -2.93557 0
M  V30 2433 C 231.132 -5.10955 -3.35214 0
M  V30 2434 C 232.13 -6.05938 -3.15164 0
M  V30 2435 O 231.818 -7.38987 -3.1647 0
M  V30 2436 H 231.55 -0.418289 -0.531046 0
M  V30 2437 H 234.104 -1.71514 -1.13014 0
M  V30 2438 H 232.334 -1.28295 -3.64798 0
M  V30 2439 H 234.023 -1.70011 -3.6858 0
M  V30 2440 H 234.789 -3.99844 -2.74499 0
M  V30 2441 H 230.668 -3.01953 -3.48347 0
M  V30 2442 H 234.212 -6.39889 -2.77826 0
M  V30 2443 H 230.109 -5.4113 -3.51922 0
M  V30 2444 H 230.877 -7.47823 -3.3272 0
M  V30 2445 N 233.54 1.10788 -1.12088 0
M  V30 2446 C 234.956 1.34691 -0.856186 0
M  V30 2447 C 235.156 1.94791 0.515615 0
M  V30 2448 O 234.212 2.18524 1.26505 0
M  V30 2449 C 235.525 2.27208 -1.9697 0
M  V30 2450 C 237.073 2.40755 -2.00016 0
M  V30 2451 C 237.548 3.36598 -3.1059 0
M  V30 2452 N 239.039 3.44164 -3.10008 0
M  V30 2453 C 239.774 4.18284 -3.92206 0
M  V30 2454 N 239.27 4.95322 -4.84384 0
M  V30 2455 N 241.063 4.13865 -3.80357 0
M  V30 2456 H 233.214 0.70144 -2.00483 0
M  V30 2457 H 235.477 0.371405 -0.872217 0
M  V30 2458 H 235.183 1.90251 -2.958 0
M  V30 2459 H 235.057 3.27485 -1.87172 0
M  V30 2460 H 237.444 2.76982 -1.01808 0
M  V30 2461 H 237.525 1.40305 -2.13888 0
M  V30 2462 H 237.169 3.01096 -4.09028 0
M  V30 2463 H 237.099 4.36918 -2.93956 0
M  V30 2464 H 239.59 2.8922 -2.43228 0
M  V30 2465 H 239.903 5.49267 -5.43623 0
M  V30 2466 H 238.248 4.94459 -4.884 0
M  V30 2467 H 241.439 3.52773 -3.07683 0
M  V30 2468 H 241.612 4.71372 -4.44649 0
M  V30 2469 N 235.018 0.912232 1.28515 0
M  V30 2470 C 236.295 0.463597 1.90027 0
M  V30 2471 C 236.675 -1.05753 1.82701 0
M  V30 2472 O 236.023 -1.90492 1.26194 0
M  V30 2473 C 236.233 0.992253 3.34597 0
M  V30 2474 C 237.581 1.04344 4.11579 0
M  V30 2475 O 238.605 0.94079 3.43551 0
M  V30 2476 O 237.464 1.1995 5.33174 0
M  V30 2477 H 234.558 0.146666 0.813891 0
M  V30 2478 H 237.104 1.00292 1.36893 0
M  V30 2479 H 235.876 2.03623 3.34146 0
M  V30 2480 H 235.499 0.433672 3.95228 0
M  V30 2481 N 236.496 -1.42363 0.676048 0
M  V30 2482 C 237.721 -2.06377 0.205705 0
M  V30 2483 C 238.146 -1.50463 -1.12883 0
M  V30 2484 O 237.504 -0.623619 -1.70237 0
M  V30 2485 C 237.552 -3.60277 0.152655 0
M  V30 2486 O 236.656 -4.02935 -0.87845 0
M  V30 2487 H 235.997 -0.655588 0.105359 0
M  V30 2488 H 238.527 -1.82475 0.925412 0
M  V30 2489 H 238.537 -4.07993 -0.0230675 0
M  V30 2490 H 237.212 -4.00346 1.12675 0
M  V30 2491 H 235.789 -3.66764 -0.673668 0
M  V30 2492 N 237.974 -0.419461 -1.51915 0
M  V30 2493 C 239.223 0.154346 -2.01109 0
M  V30 2494 C 239.536 1.45338 -1.30905 0
M  V30 2495 O 240.742 2.10906 -1.7097 0
M  V30 2496 C 239.198 0.325615 -3.58424 0
M  V30 2497 C 238.806 -0.961934 -4.37551 0
M  V30 2498 C 240.55 0.854155 -4.15818 0
M  V30 2499 C 238.457 -0.757287 -5.86531 0
M  V30 2500 H 237.387 0.0614563 -0.751491 0
M  V30 2501 H 240.038 -0.54649 -1.75173 0
M  V30 2502 H 238.42 1.08903 -3.80731 0
M  V30 2503 H 239.594 -1.7323 -4.26999 0
M  V30 2504 H 237.909 -1.41766 -3.91524 0
M  V30 2505 H 240.506 1.02346 -5.24814 0
M  V30 2506 H 240.849 1.83172 -3.73837 0
M  V30 2507 H 241.382 0.149528 -3.97519 0
M  V30 2508 H 238.121 -1.70671 -6.32892 0
M  V30 2509 H 237.641 -0.0264061 -5.99794 0
M  V30 2510 H 239.32 -0.403482 -6.45741 0
M  V30 2511 N 239.452 1.56882 -0.150215 0
M  V30 2512 C 240.699 1.96228 0.500093 0
M  V30 2513 C 241.027 1.03522 1.64661 0
M  V30 2514 O 240.282 0.0650683 1.95592 0
M  V30 2515 C 240.581 3.41801 1.04437 0
M  V30 2516 C 240.247 4.50897 0.0159671 0
M  V30 2517 C 238.909 4.8046 -0.266731 0
M  V30 2518 C 241.261 5.16703 -0.683192 0
M  V30 2519 C 238.589 5.73135 -1.25434 0
M  V30 2520 C 240.941 6.10441 -1.65964 0
M  V30 2521 C 239.605 6.38382 -1.95 0
M  V30 2522 H 238.875 0.718048 0.182997 0
M  V30 2523 H 241.522 1.90019 -0.237724 0
M  V30 2524 H 239.827 3.44857 1.85959 0
M  V30 2525 H 241.524 3.69573 1.55618 0
M  V30 2526 H 238.114 4.27891 0.246485 0
M  V30 2527 H 242.298 4.93993 -0.477983 0
M  V30 2528 H 237.554 5.93074 -1.48571 0
M  V30 2529 H 241.728 6.60507 -2.20689 0
M  V30 2530 H 239.355 7.09996 -2.71679 0
M  V30 2531 N 240.93 -0.123565 1.57115 0
M  V30 2532 C 241.877 -1.15177 2.00007 0
M  V30 2533 C 242.847 -1.41403 0.871454 0
M  V30 2534 O 244.032 -1.53346 1.13533 0
M  V30 2535 C 241.172 -2.47436 2.40561 0
M  V30 2536 C 240.285 -2.28184 3.66819 0
M  V30 2537 C 239.42 -3.53641 3.96373 0
M  V30 2538 C 238.459 -3.29528 5.15827 0
M  V30 2539 N 237.596 -4.47175 5.41275 0
M  V30 2540 H 242.436 -0.779008 2.87638 0
M  V30 2541 H 239.973 -0.373166 1.42288 0
M  V30 2542 H 241.931 -3.24584 2.62109 0
M  V30 2543 H 240.561 -2.82614 1.55978 0
M  V30 2544 H 239.613 -1.41976 3.52912 0
M  V30 2545 H 240.925 -2.0634 4.5412 0
M  V30 2546 H 240.079 -4.39209 4.18545 0
M  V30 2547 H 238.818 -3.78512 3.07538 0
M  V30 2548 H 237.823 -2.42349 4.93505 0
M  V30 2549 H 239.048 -3.06031 6.06236 0
M  V30 2550 H 236.994 -4.72175 4.55397 0
M  V30 2551 H 236.911 -4.28419 6.22891 0
M  V30 2552 H 238.179 -5.3389 5.67963 0
M  V30 2553 N 242.408 -1.52605 -0.393616 0
M  V30 2554 C 243.358 -1.73436 -1.48 0
M  V30 2555 C 244.342 -0.588386 -1.49756 0
M  V30 2556 O 245.534 -0.846047 -1.5547 0
M  V30 2557 C 242.663 -1.90247 -2.85764 0
M  V30 2558 C 241.749 -3.10763 -2.88595 0
M  V30 2559 N 242.14 -4.33196 -2.61103 0
M  V30 2560 C 240.438 -3.10914 -3.19763 0
M  V30 2561 C 241.139 -5.1477 -2.70899 0
M  V30 2562 N 240.115 -4.50356 -3.04435 0
M  V30 2563 H 243.917 -2.65727 -1.25563 0
M  V30 2564 H 241.431 -1.5085 -0.601513 0
M  V30 2565 H 243.428 -2.03291 -3.63976 0
M  V30 2566 H 242.088 -0.991663 -3.09186 0
M  V30 2567 H 243.099 -4.61408 -2.35209 0
M  V30 2568 H 239.776 -2.29626 -3.4868 0
M  V30 2569 H 241.166 -6.22355 -2.53227 0
M  V30 2570 N 243.887 0.651787 -1.4349 0
M  V30 2571 C 244.797 1.79368 -1.5121 0
M  V30 2572 C 245.813 1.69361 -0.399093 0
M  V30 2573 O 246.989 1.90505 -0.653431 0
M  V30 2574 C 244.054 3.15653 -1.43401 0
M  V30 2575 C 243.115 3.37446 -2.65384 0
M  V30 2576 C 242.348 4.67229 -2.57939 0
M  V30 2577 O 242.571 5.46676 -1.62792 0
M  V30 2578 O 241.505 4.90773 -3.48462 0
M  V30 2579 H 245.331 1.7581 -2.47638 0
M  V30 2580 H 242.916 0.810447 -1.25507 0
M  V30 2581 H 244.798 3.96935 -1.41494 0
M  V30 2582 H 243.473 3.19798 -0.501085 0
M  V30 2583 H 242.38 2.55923 -2.72863 0
M  V30 2584 H 243.713 3.38148 -3.57654 0
M  V30 2585 N 245.365 1.30045 0.890287 0
M  V30 2586 C 246.595 1.21296 1.67245 0
M  V30 2587 C 247.003 -0.227471 1.87828 0
M  V30 2588 O 246.346 -1.16296 1.422 0
M  V30 2589 C 246.408 1.86519 3.07329 0
M  V30 2590 C 246.072 3.35837 3.09939 0
M  V30 2591 C 247.069 4.31915 2.89389 0
M  V30 2592 C 244.754 3.77196 3.31706 0
M  V30 2593 C 246.748 5.67325 2.90552 0
M  V30 2594 C 244.435 5.12725 3.32499 0
M  V30 2595 C 245.433 6.076 3.11947 0
M  V30 2596 O 245.121 7.40655 3.12547 0
M  V30 2597 H 244.853 0.4211 0.528821 0
M  V30 2598 H 247.407 1.72111 1.12103 0
M  V30 2599 H 245.637 1.30228 3.64112 0
M  V30 2600 H 247.326 1.71963 3.67673 0
M  V30 2601 H 248.092 4.01294 2.72375 0
M  V30 2602 H 243.971 3.03796 3.4674 0
M  V30 2603 H 247.515 6.41354 2.74429 0
M  V30 2604 H 243.412 5.42988 3.49047 0
M  V30 2605 H 244.18 7.49577 3.28749 0
M  V30 2606 N 246.843 -1.10192 1.12674 0
M  V30 2607 C 247.775 -2.16418 0.754701 0
M  V30 2608 C 248.788 -1.61309 -0.21986 0
M  V30 2609 O 249.977 -1.785 -0.000826841 0
M  V30 2610 C 247.077 -3.38762 0.096698 0
M  V30 2611 C 246.25 -4.23307 1.10136 0
M  V30 2612 C 245.309 -5.24092 0.470513 0
M  V30 2613 O 244.335 -5.57906 1.12824 0
M  V30 2614 N 245.537 -5.75491 -0.760948 0
M  V30 2615 H 248.302 -2.48943 1.66875 0
M  V30 2616 H 245.863 -1.25834 1.01869 0
M  V30 2617 H 247.855 -4.03291 -0.337384 0
M  V30 2618 H 246.425 -3.04192 -0.720153 0
M  V30 2619 H 245.645 -3.55036 1.71299 0
M  V30 2620 H 246.933 -4.76624 1.78064 0
M  V30 2621 H 246.331 -5.50222 -1.31424 0
M  V30 2622 H 244.888 -6.41792 -1.13781 0
M  V30 2623 N 248.321 -0.919034 -1.28029 0
M  V30 2624 C 249.598 -0.473668 -1.89778 0
M  V30 2625 C 249.978 1.04783 -1.83259 0
M  V30 2626 O 249.326 1.8982 -1.27202 0
M  V30 2627 C 249.536 -1.00998 -3.34066 0
M  V30 2628 C 250.884 -1.06525 -4.1102 0
M  V30 2629 O 251.908 -0.958996 -3.43048 0
M  V30 2630 O 250.767 -1.22776 -5.3253 0
M  V30 2631 H 247.861 -0.15098 -0.813101 0
M  V30 2632 H 250.407 -1.01016 -1.36359 0
M  V30 2633 H 249.179 -2.05392 -3.33061 0
M  V30 2634 H 248.802 -0.454626 -3.94992 0
M  V30 2635 N 249.799 1.42003 -0.683588 0
M  V30 2636 C 251.215 1.55625 -0.353976 0
M  V30 2637 C 251.415 1.66151 1.14 0
M  V30 2638 O 250.471 1.63329 1.92561 0
M  V30 2639 C 251.784 2.80171 -1.092 0
M  V30 2640 C 253.332 2.93954 -1.07518 0
M  V30 2641 C 253.807 4.21372 -1.79471 0
M  V30 2642 N 255.298 4.28303 -1.76381 0
M  V30 2643 C 256.033 5.25729 -2.28904 0
M  V30 2644 N 255.529 6.29254 -2.89846 0
M  V30 2645 N 257.322 5.17586 -2.19228 0
M  V30 2646 H 249.473 1.33415 -1.6527 0
M  V30 2647 H 251.736 0.64282 -0.696769 0
M  V30 2648 H 251.442 2.78561 -2.14701 0
M  V30 2649 H 251.316 3.7133 -0.662862 0
M  V30 2650 H 253.703 2.95086 -0.028475 0
M  V30 2651 H 253.784 2.04002 -1.54328 0
M  V30 2652 H 253.428 4.21001 -2.84114 0
M  V30 2653 H 253.358 5.10275 -1.30104 0
M  V30 2654 H 255.849 3.54119 -1.31939 0
M  V30 2655 H 256.162 6.99964 -3.27522 0
M  V30 2656 H 254.507 6.29791 -2.93919 0
M  V30 2657 H 257.698 4.35631 -1.71299 0
M  V30 2658 H 257.871 5.93348 -2.60466 0
M  V30 2659 N 251.277 0.427512 1.51691 0
M  V30 2660 C 252.524 -0.142229 2.02 0
M  V30 2661 C 252.852 -1.43566 1.31221 0
M  V30 2662 O 252.107 -1.91298 0.412744 0
M  V30 2663 C 252.406 -0.418249 3.54944 0
M  V30 2664 C 252.072 0.788187 4.43958 0
M  V30 2665 C 250.734 1.11906 4.68007 0
M  V30 2666 C 253.086 1.59347 4.96244 0
M  V30 2667 C 250.414 2.25608 5.41588 0
M  V30 2668 C 252.766 2.7214 5.71072 0
M  V30 2669 C 251.43 3.05692 5.93387 0
M  V30 2670 H 250.7 -0.0520451 0.73917 0
M  V30 2671 H 253.347 0.572697 1.82736 0
M  V30 2672 H 251.652 -1.21496 3.72486 0
M  V30 2673 H 253.349 -0.872339 3.91397 0
M  V30 2674 H 249.939 0.520344 4.2543 0
M  V30 2675 H 254.123 1.35106 4.77556 0
M  V30 2676 H 249.379 2.51929 5.57083 0
M  V30 2677 H 253.553 3.34914 6.10578 0
M  V30 2678 H 251.18 3.9391 6.50184 0
M  V30 2679 N 252.755 -1.56801 0.158532 0
M  V30 2680 C 253.718 -2.16138 -0.762705 0
M  V30 2681 C 254.718 -1.1061 -1.16713 0
M  V30 2682 O 255.908 -1.36191 -1.08617 0
M  V30 2683 C 253.04 -2.73386 -2.03649 0
M  V30 2684 H 254.233 -2.98886 -0.246354 0
M  V30 2685 H 251.786 -1.56035 -0.0909744 0
M  V30 2686 H 252.521 -1.94335 -2.59623 0
M  V30 2687 H 252.306 -3.50601 -1.75559 0
M  V30 2688 H 253.796 -3.19065 -2.6942 0
M  V30 2689 N 254.233 0.115231 -1.57178 0
M  V30 2690 C 255.482 0.820945 -1.84237 0
M  V30 2691 C 255.795 1.80866 -0.744761 0
M  V30 2692 O 257.001 2.56083 -0.901871 0
M  V30 2693 C 255.457 1.51072 -3.26658 0
M  V30 2694 C 255.065 0.563795 -4.44438 0
M  V30 2695 C 256.809 2.20134 -3.62962 0
M  V30 2696 C 254.716 1.25701 -5.77887 0
M  V30 2697 H 253.646 0.310328 -0.687177 0
M  V30 2698 H 256.297 0.0737134 -1.83352 0
M  V30 2699 H 254.679 2.30471 -3.22024 0
M  V30 2700 H 255.853 -0.197247 -4.60378 0
M  V30 2701 H 254.168 -0.0200638 -4.16395 0
M  V30 2702 H 256.765 2.72696 -4.59936 0
M  V30 2703 H 257.108 2.98107 -2.90582 0
M  V30 2704 H 257.641 1.47619 -3.69396 0
M  V30 2705 H 254.38 0.518493 -6.53446 0
M  V30 2706 H 253.9 1.98997 -5.65827 0
M  V30 2707 H 255.579 1.78915 -6.2177 0
M  V30 2708 N 255.711 1.52812 0.385517 0
M  V30 2709 C 256.957 1.68275 1.13188 0
M  V30 2710 C 257.29 0.423179 1.89533 0
M  V30 2711 O 256.565 -0.579113 1.85679 0
M  V30 2712 C 256.848 2.92001 2.1073 0
M  V30 2713 C 256.701 4.28067 1.38125 0
M  V30 2714 C 258.02 3.11283 3.11113 0
M  V30 2715 H 255.139 0.612352 0.410115 0
M  V30 2716 H 257.781 1.85415 0.414869 0
M  V30 2717 H 255.931 2.77519 2.71874 0
M  V30 2718 H 257.603 4.54324 0.799187 0
M  V30 2719 H 255.846 4.28388 0.683092 0
M  V30 2720 H 256.517 5.10733 2.09417 0
M  V30 2721 H 258.993 3.2482 2.6006 0
M  V30 2722 H 257.869 3.99325 3.76605 0
M  V30 2723 H 258.13 2.25656 3.80173 0
M  V30 2724 N 257.189 -0.644168 1.43834 0
M  V30 2725 C 258.152 -1.73857 1.49353 0
M  V30 2726 C 259.152 -1.56315 0.377112 0
M  V30 2727 O 260.342 -1.62048 0.639226 0
M  V30 2728 C 257.474 -3.12819 1.35488 0
M  V30 2729 H 258.667 -1.70342 2.46827 0
M  V30 2730 H 256.22 -0.856652 1.30733 0
M  V30 2731 H 256.955 -3.2194 0.390569 0
M  V30 2732 H 256.74 -3.26958 2.16428 0
M  V30 2733 H 258.23 -3.92606 1.42302 0
M  V30 2734 N 258.668 -1.30515 -0.883378 0
M  V30 2735 C 259.914 -1.19607 -1.63774 0
M  V30 2736 C 260.247 0.248314 -1.92606 0
M  V30 2737 O 259.522 1.17742 -1.54813 0
M  V30 2738 C 259.805 -2.02669 -2.97653 0
M  V30 2739 C 259.658 -3.55335 -2.75784 0
M  V30 2740 C 260.977 -1.86573 -3.98596 0
M  V30 2741 H 258.096 -0.435856 -0.594305 0
M  V30 2742 H 260.738 -1.60165 -1.02212 0
M  V30 2743 H 258.888 -1.68208 -3.50197 0
M  V30 2744 H 260.56 -3.99863 -2.30016 0
M  V30 2745 H 258.803 -3.79438 -2.1026 0
M  V30 2746 H 259.474 -4.08745 -3.70988 0
M  V30 2747 H 261.95 -2.16703 -3.55217 0
M  V30 2748 H 260.826 -2.47014 -4.90179 0
M  V30 2749 H 261.087 -0.825321 -4.34328 0
M  V30 2750 N 260.146 1.09593 -1.13257 0
M  V30 2751 C 261.394 1.81375 -0.891492 0
M  V30 2752 C 261.715 1.86049 0.584009 0
M  V30 2753 O 260.985 1.34481 1.42449 0
M  V30 2754 H 259.565 0.671708 -0.326828 0
M  V30 2755 H 262.227 1.3256 -1.42877 0
M  V30 2756 H 261.323 2.84612 -1.28071 0
M  V30 2757 N 261.624 0.925811 1.2754 0
M  V30 2758 C 262.554 0.440748 2.29303 0
M  V30 2759 C 263.535 -0.497971 1.62648 0
M  V30 2760 O 264.72 -0.403126 1.8997 0
M  V30 2761 C 261.85 -0.309048 3.45922 0
M  V30 2762 C 260.804 0.54166 4.24559 0
M  V30 2763 C 260.13 -0.337191 5.33636 0
M  V30 2764 C 261.43 1.80516 4.90114 0
M  V30 2765 H 263.124 1.29121 2.70126 0
M  V30 2766 H 260.67 0.622323 1.29858 0
M  V30 2767 H 262.623 -0.659315 4.1621 0
M  V30 2768 H 261.347 -1.19352 3.04011 0
M  V30 2769 H 260.006 0.874609 3.56014 0
M  V30 2770 H 259.654 -1.22056 4.87966 0
M  V30 2771 H 259.354 0.228497 5.87156 0
M  V30 2772 H 260.878 -0.683072 6.06767 0
M  V30 2773 H 262.292 1.52307 5.52698 0
M  V30 2774 H 260.689 2.3142 5.53683 0
M  V30 2775 H 261.759 2.52581 4.13921 0
M  V30 2776 N 263.102 -1.41638 0.69111 0
M  V30 2777 C 264.518 -1.55435 0.362224 0
M  V30 2778 C 264.718 -1.66754 -1.13117 0
M  V30 2779 O 263.774 -1.64348 -1.91692 0
M  V30 2780 C 265.087 -2.79588 1.10684 0
M  V30 2781 C 266.635 -2.9338 1.09075 0
M  V30 2782 C 267.11 -4.20414 1.81703 0
M  V30 2783 N 268.601 -4.27362 1.7865 0
M  V30 2784 C 269.336 -5.24507 2.31689 0
M  V30 2785 N 268.832 -6.27708 2.93179 0
M  V30 2786 N 270.625 -5.16416 2.2197 0
M  V30 2787 H 262.776 -1.32536 1.65976 0
M  V30 2788 H 265.039 -0.639115 0.700168 0
M  V30 2789 H 264.745 -2.77419 2.16175 0
M  V30 2790 H 264.619 -3.70973 0.682545 0
M  V30 2791 H 267.006 -2.95067 0.0441238 0
M  V30 2792 H 267.087 -2.0318 1.55407 0
M  V30 2793 H 266.731 -4.19488 2.86343 0
M  V30 2794 H 266.661 -5.09578 1.32808 0
M  V30 2795 H 269.152 -3.53415 1.33815 0
M  V30 2796 H 269.465 -6.98217 3.31229 0
M  V30 2797 H 267.81 -6.28223 2.97255 0
M  V30 2798 H 271.001 -4.34716 1.73607 0
M  V30 2799 H 271.174 -5.91958 2.63609 0
M  V30 2800 N 264.58 -0.43555 -1.51462 0
M  V30 2801 C 265.51 0.367376 -2.30592 0
M  V30 2802 C 266.491 1.02263 -1.35928 0
M  V30 2803 O 267.676 1.02661 -1.64847 0
M  V30 2804 C 264.806 1.46983 -3.14664 0
M  V30 2805 C 263.76 0.938161 -4.17591 0
M  V30 2806 C 263.086 2.13622 -4.90173 0
M  V30 2807 C 264.386 -0.0261621 -5.22293 0
M  V30 2808 H 266.08 -0.292969 -2.97963 0
M  V30 2809 H 263.626 -0.14234 -1.43295 0
M  V30 2810 H 265.579 2.03873 -3.688 0
M  V30 2811 H 264.303 2.15843 -2.4511 0
M  V30 2812 H 262.962 0.391481 -3.64504 0
M  V30 2813 H 262.61 2.81098 -4.17124 0
M  V30 2814 H 262.31 1.78688 -5.59772 0
M  V30 2815 H 263.834 2.7107 -5.47132 0
M  V30 2816 H 265.248 0.452384 -5.71512 0
M  V30 2817 H 263.645 -0.287992 -5.99409 0
M  V30 2818 H 264.715 -0.963391 -4.75233 0
M  V30 2819 N 266.058 1.56714 -0.166846 0
M  V30 2820 C 267.469 1.83378 0.350646 0
M  V30 2821 C 267.82 1.08646 1.63372 0
M  V30 2822 O 266.945 0.338058 2.13743 0
M  V30 2823 C 267.54 3.32643 0.642963 0
M  V30 2824 C 266.099 3.59818 1.10491 0
M  V30 2825 C 265.246 2.76954 0.138411 0
M  V30 2826 H 268.197 1.53803 -0.391193 0
M  V30 2827 H 268.218 3.49878 1.49551 0
M  V30 2828 H 267.73 3.87007 -0.291055 0
M  V30 2829 H 265.831 3.1086 2.05418 0
M  V30 2830 H 265.944 4.68178 1.01716 0
M  V30 2831 H 264.308 2.4666 0.634911 0
M  V30 2832 H 265.091 3.34097 -0.789549 0
M  V30 2833 N 267.536 -0.106894 1.57237 0
M  V30 2834 C 268.483 -1.13049 2.01217 0
M  V30 2835 C 269.453 -1.40471 0.886403 0
M  V30 2836 O 270.638 -1.52133 1.15153 0
M  V30 2837 C 267.778 -2.4487 2.43172 0
M  V30 2838 C 266.891 -2.24281 3.69218 0
M  V30 2839 C 266.026 -3.49417 4.00101 0
M  V30 2840 C 265.065 -3.24038 5.19294 0
M  V30 2841 N 264.202 -4.41409 5.45988 0
M  V30 2842 H 269.042 -0.748456 2.88448 0
M  V30 2843 H 266.579 -0.358054 1.42676 0
M  V30 2844 H 268.537 -3.21786 2.65537 0
M  V30 2845 H 267.167 -2.80944 1.58967 0
M  V30 2846 H 266.219 -1.38224 3.54398 0
M  V30 2847 H 267.531 -2.01512 4.56283 0
M  V30 2848 H 266.685 -4.34746 4.2318 0
M  V30 2849 H 265.424 -3.75229 3.11535 0
M  V30 2850 H 264.429 -2.37102 4.96047 0
M  V30 2851 H 265.654 -2.99584 6.09447 0
M  V30 2852 H 263.6 -4.67319 4.60379 0
M  V30 2853 H 263.517 -4.21788 6.274 0
M  V30 2854 H 264.785 -5.27836 5.73593 0
M  V30 2855 N 269.014 -1.53014 -0.377408 0
M  V30 2856 C 269.924 -1.81557 -1.48574 0
M  V30 2857 C 270.94 -0.703102 -1.59162 0
M  V30 2858 O 272.116 -0.99192 -1.75279 0
M  V30 2859 C 269.181 -1.9889 -2.83978 0
M  V30 2860 C 268.242 -3.22801 -2.83016 0
M  V30 2861 C 267.475 -3.39298 -4.11962 0
M  V30 2862 O 267.698 -2.60345 -5.0752 0
M  V30 2863 O 266.632 -4.32604 -4.18494 0
M  V30 2864 H 270.458 -2.75695 -1.27382 0
M  V30 2865 H 268.043 -1.38248 -0.566373 0
M  V30 2866 H 269.925 -2.11931 -3.6423 0
M  V30 2867 H 268.6 -1.07942 -3.05172 0
M  V30 2868 H 267.507 -3.15193 -2.01505 0
M  V30 2869 H 268.84 -4.13632 -2.66775 0
M  V30 2870 N 270.492 0.636531 -1.44174 0
M  V30 2871 C 271.738 1.39649 -1.47884 0
M  V30 2872 C 272.093 1.92098 -0.107747 0
M  V30 2873 O 271.386 1.70391 0.876208 0
M  V30 2874 C 271.58 2.58309 -2.47005 0
M  V30 2875 C 271.409 2.17476 -3.93617 0
M  V30 2876 C 270.179 2.0501 -4.61843 0
M  V30 2877 C 272.377 1.76722 -4.82984 0
M  V30 2878 N 270.359 1.57683 -5.93304 0
M  V30 2879 C 271.73 1.40601 -6.03847 0
M  V30 2880 C 273.785 1.64054 -4.70096 0
M  V30 2881 C 272.488 0.930787 -7.13252 0
M  V30 2882 C 274.514 1.17937 -5.79521 0
M  V30 2883 C 273.876 0.827625 -6.99521 0
M  V30 2884 H 269.975 0.506027 -0.596205 0
M  V30 2885 H 272.559 0.730791 -1.80465 0
M  V30 2886 H 270.73 3.22514 -2.16423 0
M  V30 2887 H 272.462 3.25083 -2.41045 0
M  V30 2888 H 269.217 2.25294 -4.16581 0
M  V30 2889 H 269.641 1.36334 -6.63131 0
M  V30 2890 H 274.283 1.89882 -3.77762 0
M  V30 2891 H 272.001 0.660012 -8.054 0
M  V30 2892 H 275.587 1.08601 -5.71574 0
M  V30 2893 H 274.467 0.476231 -7.82753 0
M  V30 2894 N 271.97 1.30982 0.876444 0
M  V30 2895 C 272.902 1.13902 1.98894 0
M  V30 2896 C 273.915 0.0798815 1.62604 0
M  V30 2897 O 275.104 0.326743 1.75484 0
M  V30 2898 C 272.204 0.716699 3.31235 0
M  V30 2899 C 271.377 1.85945 3.95908 0
M  V30 2900 C 270.436 1.42426 5.06558 0
M  V30 2901 O 269.462 2.13287 5.27729 0
M  V30 2902 N 270.664 0.308025 5.79682 0
M  V30 2903 H 273.429 2.09724 2.14094 0
M  V30 2904 H 270.99 1.2323 1.05004 0
M  V30 2905 H 272.982 0.408403 4.02634 0
M  V30 2906 H 271.552 -0.149719 3.12241 0
M  V30 2907 H 270.772 2.33541 3.17573 0
M  V30 2908 H 272.06 2.62503 4.35855 0
M  V30 2909 H 271.458 -0.282241 5.64995 0
M  V30 2910 H 270.015 0.0592282 6.51773 0
M  V30 2911 N 273.449 -1.08991 1.13837 0
M  V30 2912 C 274.86 -1.62746 0.914917 0
M  V30 2913 C 275.211 -1.88403 -0.547594 0
M  V30 2914 O 274.336 -1.63706 -1.41525 0
M  V30 2915 C 274.931 -2.95662 1.65437 0
M  V30 2916 C 273.49 -3.46225 1.47666 0
M  V30 2917 C 272.637 -2.20562 1.6807 0
M  V30 2918 H 275.588 -0.922946 1.29102 0
M  V30 2919 H 275.609 -3.63825 1.11407 0
M  V30 2920 H 275.121 -2.76956 2.71877 0
M  V30 2921 H 273.222 -3.70046 0.435478 0
M  V30 2922 H 273.335 -4.23368 2.24268 0
M  V30 2923 H 271.699 -2.29439 1.10589 0
M  V30 2924 H 272.482 -2.0437 2.7584 0
M  V30 2925 N 274.927 -0.932562 -1.27047 0
M  V30 2926 C 276.173 -0.576412 -1.94436 0
M  V30 2927 C 276.506 0.880891 -1.73072 0
M  V30 2928 O 275.781 1.62905 -1.06264 0
M  V30 2929 C 276.064 -0.909031 -3.48437 0
M  V30 2930 C 275.917 -2.42044 -3.79123 0
M  V30 2931 C 277.236 -0.418341 -4.38107 0
M  V30 2932 H 274.355 -0.210888 -0.706184 0
M  V30 2933 H 276.997 -1.16522 -1.50075 0
M  V30 2934 H 275.147 -0.407947 -3.86352 0
M  V30 2935 H 276.819 -2.99359 -3.50973 0
M  V30 2936 H 275.062 -2.86758 -3.25503 0
M  V30 2937 H 275.733 -2.6037 -4.86736 0
M  V30 2938 H 278.209 -0.847856 -4.0737 0
M  V30 2939 H 277.085 -0.679981 -5.44672 0
M  V30 2940 H 277.346 0.681642 -4.36814 0
M  V30 2941 N 276.405 1.4127 -0.698611 0
M  V30 2942 C 277.335 2.33447 -0.049629 0
M  V30 2943 C 278.316 1.51982 0.763898 0
M  V30 2944 O 279.501 1.80509 0.716257 0
M  V30 2945 C 276.631 3.35828 0.885267 0
M  V30 2946 C 275.585 4.27627 0.178613 0
M  V30 2947 C 274.911 5.20406 1.22807 0
M  V30 2948 C 276.211 5.13459 -0.956933 0
M  V30 2949 H 277.905 2.87966 -0.81951 0
M  V30 2950 H 275.451 1.38461 -0.395538 0
M  V30 2951 H 277.404 3.9924 1.34854 0
M  V30 2952 H 276.128 2.79666 1.68685 0
M  V30 2953 H 274.787 3.65643 -0.26466 0
M  V30 2954 H 274.435 4.60558 2.02226 0
M  V30 2955 H 274.135 5.82661 0.760239 0
M  V30 2956 H 275.659 5.86695 1.69179 0
M  V30 2957 H 277.073 5.70421 -0.573805 0
M  V30 2958 H 275.47 5.8467 -1.35205 0
M  V30 2959 H 276.54 4.50443 -1.79524 0
M  V30 2960 N 277.883 0.443576 1.51229 0
M  V30 2961 C 279.111 -0.11929 2.06556 0
M  V30 2962 C 279.526 -1.35921 1.31038 0
M  V30 2963 O 278.883 -1.78675 0.371704 0
M  V30 2964 C 278.934 -0.435228 3.5887 0
M  V30 2965 O 278.655 0.755486 4.31537 0
M  V30 2966 C 280.156 -1.04808 4.30732 0
M  V30 2967 H 277.376 -0.0051584 0.67098 0
M  V30 2968 H 279.92 0.624453 1.94733 0
M  V30 2969 H 278.075 -1.12887 3.70588 0
M  V30 2970 H 278.489 0.483491 5.22267 0
M  V30 2971 H 279.963 -1.2191 5.3837 0
M  V30 2972 H 280.44 -2.03081 3.89429 0
M  V30 2973 H 281.046 -0.393637 4.23474 0
M  V30 2974 N 279.361 -1.56624 0.175154 0
M  V30 2975 C 280.591 -2.01082 -0.474283 0
M  V30 2976 C 280.999 -1.05447 -1.57091 0
M  V30 2977 O 280.342 -0.0480595 -1.83637 0
M  V30 2978 C 280.404 -3.41963 -1.10911 0
M  V30 2979 C 280.068 -4.56742 -0.153666 0
M  V30 2980 C 281.065 -5.16076 0.629448 0
M  V30 2981 C 278.75 -5.02277 -0.0483776 0
M  V30 2982 C 280.744 -6.19377 1.50501 0
M  V30 2983 C 278.431 -6.05427 0.830768 0
M  V30 2984 C 279.429 -6.63849 1.60605 0
M  V30 2985 O 279.117 -7.64998 2.47049 0
M  V30 2986 H 278.849 -0.664261 -0.125432 0
M  V30 2987 H 281.403 -2.03549 0.275163 0
M  V30 2988 H 279.633 -3.36422 -1.90676 0
M  V30 2989 H 281.322 -3.70352 -1.66114 0
M  V30 2990 H 282.088 -4.81776 0.558297 0
M  V30 2991 H 277.967 -4.56513 -0.641611 0
M  V30 2992 H 281.511 -6.64906 2.1106 0
M  V30 2993 H 277.408 -6.39151 0.903107 0
M  V30 2994 H 278.176 -7.82336 2.40607 0
M  V30 2995 N 280.839 0.0985539 -1.57292 0
M  V30 2996 C 282.087 0.801092 -1.85545 0
M  V30 2997 C 282.408 1.79438 -0.763353 0
M  V30 2998 O 281.678 1.94763 0.21073 0
M  V30 2999 H 280.258 0.29884 -0.684619 0
M  V30 3000 H 282.92 0.0810064 -1.94732 0
M  V30 3001 H 282.016 1.3338 -2.82163 0
M  V30 3002 N 282.317 1.53212 0.369288 0
M  V30 3003 C 283.594 1.59815 1.12776 0
M  V30 3004 C 283.974 0.403402 2.0721 0
M  V30 3005 O 283.322 -0.606667 2.20299 0
M  V30 3006 C 283.532 2.94664 1.87013 0
M  V30 3007 C 284.88 3.49109 2.41677 0
M  V30 3008 O 285.904 2.96669 1.97144 0
M  V30 3009 O 284.763 4.40775 3.23079 0
M  V30 3010 H 281.857 0.645376 0.517125 0
M  V30 3011 H 284.403 1.65553 0.37285 0
M  V30 3012 H 283.175 3.73061 1.18071 0
M  V30 3013 H 282.798 2.92401 2.69421 0
M  V30 3014 N 283.795 -0.628877 1.44509 0
M  V30 3015 C 284.725 -1.75187 1.54376 0
M  V30 3016 C 285.706 -1.65411 0.396618 0
M  V30 3017 O 286.891 -1.84137 0.617031 0
M  V30 3018 C 284.021 -3.13725 1.48976 0
M  V30 3019 C 282.975 -3.38291 2.62189 0
M  V30 3020 C 282.301 -4.76883 2.41841 0
M  V30 3021 C 283.601 -3.30632 4.04326 0
M  V30 3022 H 285.295 -1.67187 2.48373 0
M  V30 3023 H 282.841 -0.802909 1.19538 0
M  V30 3024 H 284.794 -3.92064 1.54478 0
M  V30 3025 H 283.518 -3.22515 0.514961 0
M  V30 3026 H 282.177 -2.62334 2.56079 0
M  V30 3027 H 281.825 -4.82378 1.42548 0
M  V30 3028 H 281.525 -4.94278 3.17747 0
M  V30 3029 H 283.049 -5.57449 2.49165 0
M  V30 3030 H 284.463 -3.98873 4.11793 0
M  V30 3031 H 282.86 -3.59561 4.80454 0
M  V30 3032 H 283.93 -2.28404 4.27738 0
M  V30 3033 N 285.273 -1.31445 -0.869486 0
M  V30 3034 C 286.501 -1.24122 -1.65534 0
M  V30 3035 C 286.916 0.193387 -1.87807 0
M  V30 3036 O 286.273 1.12557 -1.43656 0
M  V30 3037 C 286.324 -1.98229 -3.02304 0
M  V30 3038 O 286.045 -3.3609 -2.81026 0
M  V30 3039 C 287.546 -1.97751 -3.96749 0
M  V30 3040 H 284.766 -0.428868 -0.516055 0
M  V30 3041 H 287.31 -1.73328 -1.08525 0
M  V30 3042 H 285.465 -1.52782 -3.56001 0
M  V30 3043 H 285.879 -3.7383 -3.67902 0
M  V30 3044 H 287.353 -2.54114 -4.90031 0
M  V30 3045 H 287.83 -0.960137 -4.28577 0
M  V30 3046 H 288.436 -2.43079 -3.48988 0
M  V30 3047 N 286.751 1.08385 -1.14413 0
M  V30 3048 C 288.167 1.32844 -0.884563 0
M  V30 3049 C 288.367 1.95841 0.474181 0
M  V30 3050 O 287.423 2.21158 1.21842 0
M  V30 3051 C 288.736 2.22978 -2.01745 0
M  V30 3052 C 290.284 2.36458 -2.05077 0
M  V30 3053 C 290.759 3.29934 -3.1766 0
M  V30 3054 N 292.25 3.37511 -3.17239 0
M  V30 3055 C 292.985 4.09871 -4.0099 0
M  V30 3056 N 292.481 4.84936 -4.94781 0
M  V30 3057 N 294.274 4.05704 -3.89051 0
M  V30 3058 H 286.425 0.658756 -2.01926 0
M  V30 3059 H 288.688 0.352821 -0.879899 0
M  V30 3060 H 288.394 1.83934 -2.99769 0
M  V30 3061 H 288.268 3.23441 -1.94077 0
M  V30 3062 H 290.655 2.7476 -1.0766 0
M  V30 3063 H 290.736 1.35736 -2.16816 0
M  V30 3064 H 290.38 2.92352 -4.15322 0
M  V30 3065 H 290.31 4.30584 -3.03158 0
M  V30 3066 H 292.801 2.83996 -2.49308 0
M  V30 3067 H 293.114 5.37612 -5.55151 0
M  V30 3068 H 291.459 4.83988 -4.98779 0
M  V30 3069 H 294.65 3.46167 -3.15097 0
M  V30 3070 H 294.823 4.61834 -4.54547 0
M  V30 3071 N 288.23 0.939286 1.26551 0
M  V30 3072 C 289.16 0.465044 2.28822 0
M  V30 3073 C 290.141 -0.480692 1.63167 0
M  V30 3074 O 291.326 -0.382955 1.90387 0
M  V30 3075 C 288.456 -0.27234 3.46231 0
M  V30 3076 C 287.41 0.58666 4.2396 0
M  V30 3077 C 286.736 -0.280573 5.33963 0
M  V30 3078 C 288.036 1.85704 4.88171 0
M  V30 3079 H 289.73 1.31979 2.68741 0
M  V30 3080 H 287.276 0.636061 1.29191 0
M  V30 3081 H 289.229 -0.615133 4.16886 0
M  V30 3082 H 287.953 -1.16121 3.0526 0
M  V30 3083 H 286.612 0.91232 3.55067 0
M  V30 3084 H 286.26 -1.16874 4.89234 0
M  V30 3085 H 285.96 0.29076 5.8688 0
M  V30 3086 H 287.484 -0.618678 6.07458 0
M  V30 3087 H 288.898 1.58161 5.51052 0
M  V30 3088 H 287.295 2.37279 5.51197 0
M  V30 3089 H 288.365 2.56957 4.11219 0
M  V30 3090 N 289.708 -1.40897 0.706093 0
M  V30 3091 C 290.985 -1.94868 0.169099 0
M  V30 3092 C 291.365 -1.64485 -1.32318 0
M  V30 3093 O 290.713 -0.95744 -2.07474 0
M  V30 3094 C 290.923 -3.45798 0.471654 0
M  V30 3095 C 292.271 -4.22663 0.405127 0
M  V30 3096 O 293.295 -3.53865 0.407168 0
M  V30 3097 O 292.154 -5.45216 0.374383 0
M  V30 3098 H 289.248 -0.82673 0.0211352 0
M  V30 3099 H 291.794 -1.50558 0.782976 0
M  V30 3100 H 290.566 -3.61235 1.50416 0
M  V30 3101 H 290.189 -3.97225 -0.172666 0
M  V30 3102 N 291.186 -0.45159 -1.50991 0
M  V30 3103 C 292.597 0.00818571 -1.86698 0
M  V30 3104 C 292.948 1.40661 -1.3678 0
M  V30 3105 O 292.073 2.0391 -0.724546 0
M  V30 3106 C 292.668 0.0216303 -3.38793 0
M  V30 3107 C 291.227 0.425865 -3.73983 0
M  V30 3108 C 290.374 -0.372163 -2.74791 0
M  V30 3109 H 293.325 -0.666785 -1.44013 0
M  V30 3110 H 293.346 0.828078 -3.7138 0
M  V30 3111 H 292.858 -0.996288 -3.75094 0
M  V30 3112 H 290.959 1.44886 -3.43277 0
M  V30 3113 H 291.072 0.140761 -4.78893 0
M  V30 3114 H 289.436 0.171498 -2.54122 0
M  V30 3115 H 290.219 -1.38922 -3.13935 0
M  V30 3116 N 292.664 1.56529 -0.183458 0
M  V30 3117 C 293.892 2.01623 0.464285 0
M  V30 3118 C 294.307 1.06366 1.55986 0
M  V30 3119 O 293.664 0.0665398 1.82379 0
M  V30 3120 C 293.715 3.46475 1.03139 0
M  V30 3121 O 293.436 4.38095 -0.0204675 0
M  V30 3122 C 294.937 4.0703 1.75617 0
M  V30 3123 H 292.157 0.660596 0.117704 0
M  V30 3124 H 294.701 2.02451 -0.288751 0
M  V30 3125 H 292.856 3.46383 1.73486 0
M  V30 3126 H 293.27 5.22973 0.399952 0
M  V30 3127 H 294.744 5.10271 2.10542 0
M  V30 3128 H 295.221 3.49819 2.65563 0
M  V30 3129 H 295.827 4.1086 1.09882 0
M  V30 3130 N 294.142 -0.090211 1.57342 0
M  V30 3131 C 295.37 -0.806224 1.90546 0
M  V30 3132 C 295.785 -1.72041 0.777644 0
M  V30 3133 O 295.142 -1.80778 -0.250103 0
M  V30 3134 C 295.193 -1.61546 3.23396 0
M  V30 3135 O 294.914 -0.738043 4.31839 0
M  V30 3136 C 296.415 -2.4341 3.70495 0
M  V30 3137 H 293.635 -0.230256 0.630257 0
M  V30 3138 H 296.179 -0.0659843 2.04394 0
M  V30 3139 H 294.334 -2.30816 3.11131 0
M  V30 3140 H 294.748 -1.29901 5.08159 0
M  V30 3141 H 296.222 -2.95676 4.66133 0
M  V30 3142 H 296.699 -3.22098 2.98579 0
M  V30 3143 H 297.305 -1.79331 3.85643 0
M  V30 3144 N 295.62 -1.53406 -0.361157 0
M  V30 3145 C 296.866 -1.70054 -1.10496 0
M  V30 3146 C 297.199 -0.453278 -1.88836 0
M  V30 3147 O 296.474 0.5495 -1.86576 0
M  V30 3148 C 296.757 -2.95317 -2.06058 0
M  V30 3149 C 296.61 -4.3021 -1.31298 0
M  V30 3150 C 297.929 -3.16193 -3.06121 0
M  V30 3151 H 295.048 -0.618799 -0.400321 0
M  V30 3152 H 297.69 -1.86052 -0.385318 0
M  V30 3153 H 295.84 -2.81809 -2.67425 0
M  V30 3154 H 297.512 -4.55538 -0.726807 0
M  V30 3155 H 295.755 -4.29421 -0.614853 0
M  V30 3156 H 296.426 -5.14 -2.01265 0
M  V30 3157 H 298.902 -3.28916 -2.5486 0
M  V30 3158 H 297.778 -4.05266 -3.70204 0
M  V30 3159 H 298.039 -2.31676 -3.76535 0
M  V30 3160 N 297.098 0.621204 -1.44841 0
M  V30 3161 C 298.326 1.40752 -1.51646 0
M  V30 3162 C 298.741 1.88246 -0.144549 0
M  V30 3163 O 298.098 1.61422 0.851416 0
M  V30 3164 C 298.149 2.62119 -2.4895 0
M  V30 3165 O 297.87 2.16602 -3.80808 0
M  V30 3166 C 299.371 3.55135 -2.65319 0
M  V30 3167 H 296.591 0.431325 -0.514004 0
M  V30 3168 H 299.135 0.758835 -1.899 0
M  V30 3169 H 297.29 3.23058 -2.13805 0
M  V30 3170 H 297.704 2.95358 -4.33433 0
M  V30 3171 H 299.178 4.36874 -3.37409 0
M  V30 3172 H 299.655 4.04592 -1.70886 0
M  V30 3173 H 300.261 3.00058 -3.01405 0
M  V30 3174 N 298.576 1.31904 0.862503 0
M  V30 3175 C 299.987 1.19803 1.43193 0
M  V30 3176 C 300.338 -0.192567 1.95253 0
M  V30 3177 O 299.463 -1.09081 1.86896 0
M  V30 3178 C 300.058 2.16883 2.60283 0
M  V30 3179 C 298.617 2.08692 3.13248 0
M  V30 3180 C 297.764 2.05691 1.85975 0
M  V30 3181 H 300.715 1.43846 0.670365 0
M  V30 3182 H 300.736 1.76278 3.37204 0
M  V30 3183 H 300.248 3.18083 2.22363 0
M  V30 3184 H 298.349 1.10713 3.55771 0
M  V30 3185 H 298.462 2.9815 3.75025 0
M  V30 3186 H 296.826 1.50814 2.05249 0
M  V30 3187 H 297.609 3.08659 1.50282 0
M  V30 3188 N 300.054 -1.07777 1.14986 0
M  V30 3189 C 300.986 -2.14769 0.800436 0
M  V30 3190 C 301.999 -1.61739 -0.185595 0
M  V30 3191 O 303.188 -1.78462 0.0370358 0
M  V30 3192 C 300.288 -3.38481 0.168533 0
M  V30 3193 C 299.461 -4.20876 1.1909 0
M  V30 3194 C 298.52 -5.22976 0.581575 0
M  V30 3195 O 297.546 -5.55388 1.24633 0
M  V30 3196 N 298.748 -5.76976 -0.638706 0
M  V30 3197 H 301.513 -2.45348 1.72118 0
M  V30 3198 H 299.074 -1.23645 1.04515 0
M  V30 3199 H 301.066 -4.03916 -0.251764 0
M  V30 3200 H 299.636 -3.05651 -0.655467 0
M  V30 3201 H 298.856 -3.51322 1.78791 0
M  V30 3202 H 300.144 -4.7274 1.88133 0
M  V30 3203 H 299.542 -5.52886 -1.19723 0
M  V30 3204 H 298.099 -6.44061 -1.00142 0
M  V30 3205 N 301.532 -0.945985 -1.26051 0
M  V30 3206 C 302.464 -0.416662 -2.25381 0
M  V30 3207 C 303.477 0.462712 -1.56086 0
M  V30 3208 O 304.666 0.272383 -1.7641 0
M  V30 3209 C 301.766 0.419812 -3.3629 0
M  V30 3210 C 300.939 -0.444531 -4.35135 0
M  V30 3211 C 299.998 0.332305 -5.2515 0
M  V30 3212 O 299.024 -0.266324 -5.68577 0
M  V30 3213 N 300.226 1.62763 -5.57215 0
M  V30 3214 H 302.991 -1.27059 -2.71433 0
M  V30 3215 H 300.552 -0.815392 -1.39868 0
M  V30 3216 H 302.544 0.947013 -3.93464 0
M  V30 3217 H 301.114 1.17456 -2.89694 0
M  V30 3218 H 300.334 -1.15291 -3.76964 0
M  V30 3219 H 301.622 -1.03478 -4.98166 0
M  V30 3220 H 301.02 2.13603 -5.23823 0
M  V30 3221 H 299.577 2.10097 -6.17011 0
M  V30 3222 N 303.011 1.40521 -0.713556 0
M  V30 3223 C 304.257 2.01221 -0.252564 0
M  V30 3224 C 304.59 1.56444 1.1506 0
M  V30 3225 O 303.865 0.783597 1.78017 0
M  V30 3226 C 304.148 3.58582 -0.330332 0
M  V30 3227 C 304.001 4.13437 -1.77173 0
M  V30 3228 C 305.32 4.39079 0.299641 0
M  V30 3229 H 302.439 0.731077 -0.0932471 0
M  V30 3230 H 305.081 1.67026 -0.905673 0
M  V30 3231 H 303.231 3.87844 0.225737 0
M  V30 3232 H 304.903 3.9498 -2.38303 0
M  V30 3233 H 303.146 3.67801 -2.3001 0
M  V30 3234 H 303.817 5.22597 -1.77755 0
M  V30 3235 H 306.293 4.15735 -0.174139 0
M  V30 3236 H 305.169 5.4848 0.214771 0
M  V30 3237 H 305.43 4.19915 1.38288 0
M  V30 3238 N 304.489 0.459591 1.5075 0
M  V30 3239 C 305.736 -0.0993495 2.02256 0
M  V30 3240 C 306.064 -1.40751 1.34237 0
M  V30 3241 O 305.319 -1.90379 0.453228 0
M  V30 3242 C 305.618 -0.342866 3.55752 0
M  V30 3243 C 305.284 0.88218 4.42186 0
M  V30 3244 C 303.946 1.21808 4.65528 0
M  V30 3245 C 306.298 1.69837 4.92752 0
M  V30 3246 C 303.626 2.37045 5.36681 0
M  V30 3247 C 305.978 2.84192 5.65171 0
M  V30 3248 C 304.642 3.1821 5.8677 0
M  V30 3249 H 303.912 -0.0363545 0.740108 0
M  V30 3250 H 306.559 0.611329 1.8148 0
M  V30 3251 H 304.864 -1.13567 3.7498 0
M  V30 3252 H 306.561 -0.789121 3.93159 0
M  V30 3253 H 303.151 0.610467 4.2423 0
M  V30 3254 H 307.335 1.45205 4.74583 0
M  V30 3255 H 302.591 2.63689 5.51614 0
M  V30 3256 H 306.765 3.4779 6.03337 0
M  V30 3257 H 304.392 4.07613 6.41682 0
M  V30 3258 N 305.967 -1.56429 0.191757 0
M  V30 3259 C 306.915 -2.20273 -0.747174 0
M  V30 3260 C 307.909 -1.17288 -1.22229 0
M  V30 3261 O 309.115 -1.35441 -1.18557 0
M  V30 3262 H 305.49 -0.705885 -0.259289 0
M  V30 3263 H 307.461 -2.97826 -0.184963 0
M  V30 3264 C 306.21 -2.87356 -1.95759 0
M  V30 3265 H 305.533 -3.66341 -1.60106 0
M  V30 3266 H 306.973 -3.3547 -2.59299 0
M  V30 3267 C 305.432 -1.88213 -2.79423 0
M  V30 3268 O 305.962 -1.38033 -3.7724 0
M  V30 3269 N 304.168 -1.56516 -2.44849 0
M  V30 3270 H 303.715 -1.97516 -1.65364 0
M  V30 3271 H 303.673 -0.904369 -3.01112 0
M  V30 3272 N 307.445 0.0818655 -1.57387 0
M  V30 3273 C 308.408 1.08265 -2.02018 0
M  V30 3274 C 309.408 1.32183 -0.915664 0
M  V30 3275 O 310.598 1.28073 -1.18081 0
M  V30 3276 C 307.73 2.42871 -2.39221 0
M  V30 3277 H 308.923 0.698204 -2.91659 0
M  V30 3278 H 306.476 0.327303 -1.52835 0
M  V30 3279 H 307.211 2.86167 -1.52575 0
M  V30 3280 H 306.996 2.26855 -3.19811 0
M  V30 3281 H 308.486 3.14826 -2.74362 0
M  V30 3282 N 308.923 1.53595 0.353017 0
M  V30 3283 C 310.169 1.70638 1.09593 0
M  V30 3284 C 310.502 0.463286 1.88593 0
M  V30 3285 O 309.777 -0.539597 1.86865 0
M  V30 3286 C 310.06 2.96406 2.04489 0
M  V30 3287 C 309.913 4.30901 1.29014 0
M  V30 3288 C 311.232 3.17812 3.0444 0
M  V30 3289 H 308.351 0.620913 0.397034 0
M  V30 3290 H 310.993 1.86254 0.375446 0
M  V30 3291 H 309.143 2.83223 2.65927 0
M  V30 3292 H 310.815 4.55917 0.702638 0
M  V30 3293 H 309.058 4.29741 0.592071 0
M  V30 3294 H 309.729 5.1506 1.98537 0
M  V30 3295 H 312.205 3.30263 2.53112 0
M  V30 3296 H 311.081 4.07223 3.6805 0
M  V30 3297 H 311.342 2.33669 3.75301 0
M  V30 3298 N 310.401 -0.613514 1.45168 0
M  V30 3299 C 311.641 -1.38405 1.5041 0
M  V30 3300 C 312.005 -1.91489 0.139922 0
M  V30 3301 O 313.206 -2.68716 0.067033 0
M  V30 3302 C 311.477 -2.50552 2.5487 0
M  V30 3303 S 313.036 -3.38439 2.79292 0
M  V30 3304 H 309.854 -0.471945 0.531779 0
M  V30 3305 H 312.456 -0.708518 1.82209 0
M  V30 3306 H 311.16 -2.09894 3.52665 0
M  V30 3307 H 310.691 -3.22913 2.24701 0
M  V30 3308 H 312.706 -4.48527 2.12222 0
M  V30 3309 N 311.879 -1.3236 -0.855495 0
M  V30 3310 C 312.829 -1.17809 -1.95205 0
M  V30 3311 C 313.813 -0.0852319 -1.60674 0
M  V30 3312 O 315.005 -0.311651 -1.74235 0
M  V30 3313 C 312.134 -0.902437 -3.31226 0
M  V30 3314 C 311.22 -2.03695 -3.7198 0
M  V30 3315 N 311.611 -3.28544 -3.84568 0
M  V30 3316 C 309.909 -1.93993 -4.016 0
M  V30 3317 C 310.61 -4.02847 -4.19629 0
M  V30 3318 N 309.586 -3.31138 -4.31102 0
M  V30 3319 H 313.388 -2.12462 -2.0307 0
M  V30 3320 H 310.902 -1.24127 -1.0472 0
M  V30 3321 H 312.899 -0.77915 -4.09554 0
M  V30 3322 H 311.559 0.0357267 -3.2468 0
M  V30 3323 H 312.57 -3.6349 -3.68911 0
M  V30 3324 H 309.247 -1.07733 -4.03361 0
M  V30 3325 H 310.637 -5.10506 -4.36845 0
M  V30 3326 N 313.357 1.07166 -1.15556 0
M  V30 3327 C 314.29 2.13808 -0.797593 0
M  V30 3328 C 315.268 1.6101 0.226812 0
M  V30 3329 O 316.452 1.88161 0.112932 0
M  V30 3330 C 313.579 3.38187 -0.186371 0
M  V30 3331 C 312.625 4.09766 -1.18297 0
M  V30 3332 S 313.458 4.60932 -2.72584 0
M  V30 3333 C 314.614 5.88583 -2.12886 0
M  V30 3334 H 314.847 2.43843 -1.70083 0
M  V30 3335 H 312.38 1.19467 -0.978106 0
M  V30 3336 H 314.338 4.10189 0.159837 0
M  V30 3337 H 312.999 3.06326 0.694489 0
M  V30 3338 H 312.192 4.99065 -0.703562 0
M  V30 3339 H 311.794 3.43736 -1.47381 0
M  V30 3340 H 314.086 6.60866 -1.49208 0
M  V30 3341 H 315.029 6.41241 -3.0036 0
M  V30 3342 H 315.437 5.42194 -1.57116 0
M  V30 3343 N 314.835 0.952656 1.25548 0
M  V30 3344 C 316.251 0.656769 1.4546 0
M  V30 3345 C 316.451 -0.78633 1.85524 0
M  V30 3346 O 315.507 -1.56183 1.98402 0
M  V30 3347 C 316.82 1.62801 2.52817 0
M  V30 3348 C 318.368 1.63897 2.66659 0
M  V30 3349 C 318.843 2.5978 3.77198 0
M  V30 3350 N 320.334 2.58133 3.84606 0
M  V30 3351 C 321.069 3.29003 4.69621 0
M  V30 3352 N 320.565 4.09339 5.58939 0
M  V30 3353 N 322.358 3.179 4.63569 0
M  V30 3354 H 314.509 1.88526 0.978344 0
M  V30 3355 H 316.772 0.810815 0.491206 0
M  V30 3356 H 316.478 2.65869 2.30232 0
M  V30 3357 H 316.352 1.38898 3.50695 0
M  V30 3358 H 318.739 0.615481 2.8861 0
M  V30 3359 H 318.82 1.91858 1.69187 0
M  V30 3360 H 318.464 3.62254 3.55997 0
M  V30 3361 H 318.394 2.29105 4.7415 0
M  V30 3362 H 320.885 1.99809 3.20757 0
M  V30 3363 H 321.198 4.6034 6.20731 0
M  V30 3364 H 319.543 4.13438 5.58654 0
M  V30 3365 H 322.734 2.54612 3.92798 0
M  V30 3366 H 322.907 3.73398 5.29602 0
M  V30 3367 N 316.313 -1.40141 0.720998 0
M  V30 3368 C 317.541 -2.05096 0.272656 0
M  V30 3369 C 317.956 -1.54334 -1.0875 0
M  V30 3370 O 317.313 -0.702211 -1.6845 0
M  V30 3371 C 317.364 -3.60636 0.249835 0
M  V30 3372 O 317.085 -4.09526 1.55629 0
M  V30 3373 C 318.586 -4.42772 -0.216396 0
M  V30 3374 H 315.806 -0.659897 0.121558 0
M  V30 3375 H 318.35 -1.79449 0.980723 0
M  V30 3376 H 316.505 -3.85232 -0.409237 0
M  V30 3377 H 316.919 -5.03758 1.4604 0
M  V30 3378 H 318.393 -5.51702 -0.181212 0
M  V30 3379 H 318.87 -4.20756 -1.25941 0
M  V30 3380 H 319.476 -4.23294 0.412596 0
M  V30 3381 N 317.792 -0.46758 -1.50504 0
M  V30 3382 C 319.02 0.0864133 -2.06719 0
M  V30 3383 C 319.435 1.33819 -1.33184 0
M  V30 3384 O 318.792 1.78061 -0.400083 0
M  V30 3385 C 318.843 0.378079 -3.59517 0
M  V30 3386 O 318.564 -0.824044 -4.3028 0
M  V30 3387 C 320.065 0.979426 -4.32345 0
M  V30 3388 H 317.285 -0.00551697 -0.670977 0
M  V30 3389 H 319.829 -0.655354 -1.93715 0
M  V30 3390 H 317.984 1.06977 -3.72337 0
M  V30 3391 H 318.398 -0.566518 -5.21432 0
M  V30 3392 H 319.872 1.1333 -5.40241 0
M  V30 3393 H 320.349 1.9686 -3.9261 0
M  V30 3394 H 320.955 0.326216 -4.24047 0
M  V30 3395 N 319.27 1.56325 -0.20005 0
M  V30 3396 C 320.217 2.1932 0.718833 0
M  V30 3397 C 321.187 1.14198 1.20615 0
M  V30 3398 O 322.372 1.42469 1.26914 0
M  V30 3399 C 319.512 2.86041 1.93066 0
M  V30 3400 C 318.625 4.05702 1.48425 0
M  V30 3401 C 317.76 4.60266 2.65196 0
M  V30 3402 C 316.799 5.72273 2.17185 0
M  V30 3403 N 315.936 6.21221 3.27152 0
M  V30 3404 H 320.776 2.97486 0.17489 0
M  V30 3405 H 318.313 1.46911 0.0745794 0
M  V30 3406 H 320.271 3.22897 2.64184 0
M  V30 3407 H 318.901 2.1043 2.44783 0
M  V30 3408 H 317.953 3.74475 0.668755 0
M  V30 3409 H 319.265 4.86699 1.09204 0
M  V30 3410 H 318.419 4.99453 3.4443 0
M  V30 3411 H 317.158 3.78386 3.07693 0
M  V30 3412 H 316.163 5.3261 1.36407 0
M  V30 3413 H 317.388 6.55974 1.75713 0
M  V30 3414 H 315.334 5.42263 3.69171 0
M  V30 3415 H 315.251 6.97284 2.92116 0
M  V30 3416 H 316.519 6.65063 4.06585 0
M  V30 3417 N 320.748 -0.0735177 1.57428 0
M  V30 3418 C 321.678 -1.0879 2.06608 0
M  V30 3419 C 322.659 -1.40473 0.959237 0
M  V30 3420 O 323.844 -1.5013 1.23185 0
M  V30 3421 C 320.974 -2.40183 2.50857 0
M  V30 3422 C 319.928 -2.22858 3.65402 0
M  V30 3423 C 319.254 -3.59619 3.957 0
M  V30 3424 C 320.554 -1.65123 4.95511 0
M  V30 3425 H 322.248 -0.678673 2.91607 0
M  V30 3426 H 319.794 -0.325013 1.40284 0
M  V30 3427 H 321.747 -3.11437 2.83874 0
M  V30 3428 H 320.471 -2.83083 1.62885 0
M  V30 3429 H 319.13 -1.54045 3.32664 0
M  V30 3430 H 318.778 -4.00086 3.04861 0
M  V30 3431 H 318.478 -3.48866 4.72828 0
M  V30 3432 H 320.002 -4.32306 4.31212 0
M  V30 3433 H 321.416 -2.26241 5.26771 0
M  V30 3434 H 319.813 -1.65071 5.7695 0
M  V30 3435 H 320.883 -0.612559 4.81015 0
M  V30 3436 N 322.226 -1.5378 -0.344866 0
M  V30 3437 C 323.637 -1.62428 -0.920552 0
M  V30 3438 C 323.988 -0.504747 -1.89596 0
M  V30 3439 O 323.113 0.365711 -2.13287 0
M  V30 3440 C 323.708 -2.94419 -1.67639 0
M  V30 3441 C 322.267 -3.05333 -2.20111 0
M  V30 3442 C 321.414 -2.57866 -1.01982 0
M  V30 3443 H 324.365 -1.58222 -0.123042 0
M  V30 3444 H 324.386 -2.83384 -2.53917 0
M  V30 3445 H 323.898 -3.7588 -0.966224 0
M  V30 3446 H 321.999 -2.28502 -2.94308 0
M  V30 3447 H 322.112 -4.10778 -2.46573 0
M  V30 3448 H 320.476 -2.13241 -1.39285 0
M  V30 3449 H 321.259 -3.41765 -0.324308 0
M  V30 3450 N 323.704 0.605807 -1.45491 0
M  V30 3451 C 324.981 1.36522 -1.40075 0
M  V30 3452 C 325.361 2.10976 -0.0722744 0
M  V30 3453 O 324.709 2.08007 0.945808 0
M  V30 3454 C 324.919 2.31056 -2.61561 0
M  V30 3455 C 326.267 2.93608 -3.06724 0
M  V30 3456 O 327.291 2.41376 -2.61946 0
M  V30 3457 O 326.15 3.88421 -3.84437 0
M  V30 3458 H 323.244 0.612248 -0.555951 0
M  V30 3459 H 325.79 0.628747 -1.57623 0
M  V30 3460 H 324.562 1.75311 -3.49831 0
M  V30 3461 H 324.185 3.12081 -2.46356 0
M  V30 3462 N 325.182 1.32811 0.848464 0
M  V30 3463 C 326.593 1.21315 1.41914 0
M  V30 3464 C 326.944 -0.171847 1.95446 0
M  V30 3465 O 326.069 -1.07093 1.88043 0
M  V30 3466 C 326.664 2.19631 2.57968 0
M  V30 3467 C 325.223 2.12003 3.11017 0
M  V30 3468 C 324.37 2.07651 1.83783 0
M  V30 3469 H 327.321 1.44549 0.655071 0
M  V30 3470 H 327.342 1.79845 3.35315 0
M  V30 3471 H 326.854 3.20423 2.18976 0
M  V30 3472 H 324.955 1.14481 3.54577 0
M  V30 3473 H 325.068 3.02111 3.71841 0
M  V30 3474 H 323.432 1.52983 2.03638 0
M  V30 3475 H 324.215 3.10235 1.47 0
M  V30 3476 N 326.66 -1.06551 1.16123 0
M  V30 3477 C 327.607 -2.13961 0.865414 0
M  V30 3478 C 328.577 -1.65066 -0.185055 0
M  V30 3479 O 329.762 -1.90732 -0.05083 0
M  V30 3480 C 326.902 -3.43113 0.369776 0
M  V30 3481 C 326.015 -4.05756 1.48276 0
M  V30 3482 C 325.15 -5.22773 0.942414 0
M  V30 3483 C 324.189 -5.77395 2.03179 0
M  V30 3484 N 323.326 -6.85731 1.50721 0
M  V30 3485 H 328.166 -2.38605 1.78527 0
M  V30 3486 H 325.703 -1.17072 0.890646 0
M  V30 3487 H 327.661 -4.17151 0.0640643 0
M  V30 3488 H 326.291 -3.18695 -0.513143 0
M  V30 3489 H 325.343 -3.29292 1.9045 0
M  V30 3490 H 326.655 -4.42351 2.30493 0
M  V30 3491 H 325.809 -6.03827 0.589729 0
M  V30 3492 H 324.548 -4.87618 0.0895191 0
M  V30 3493 H 323.553 -4.94981 2.3932 0
M  V30 3494 H 324.778 -6.14603 2.8886 0
M  V30 3495 H 322.724 -6.52499 0.676811 0
M  V30 3496 H 322.641 -7.21254 2.26557 0
M  V30 3497 H 323.909 -7.7047 1.18303 0
M  V30 3498 N 328.138 -0.959301 -1.25041 0
M  V30 3499 C 329.384 -0.617525 -1.9317 0
M  V30 3500 C 329.717 0.843981 -1.74902 0
M  V30 3501 O 328.992 1.60615 -1.09696 0
M  V30 3502 C 329.275 -0.982736 -3.46431 0
M  V30 3503 C 329.128 -2.50032 -3.73904 0
M  V30 3504 C 330.447 -0.511176 -4.37121 0
M  V30 3505 H 327.566 -0.22582 -0.701552 0
M  V30 3506 H 330.208 -1.19679 -1.4757 0
M  V30 3507 H 328.358 -0.489806 -3.854 0
M  V30 3508 H 330.03 -3.06737 -3.44544 0
M  V30 3509 H 328.273 -2.93598 -3.19348 0
M  V30 3510 H 328.944 -2.70635 -4.81103 0
M  V30 3511 H 331.42 -0.934075 -4.0548 0
M  V30 3512 H 330.296 -0.795361 -5.43107 0
M  V30 3513 H 330.557 0.588834 -4.38161 0
M  V30 3514 N 329.616 1.39756 -0.72842 0
M  V30 3515 C 330.564 2.32485 -0.0731849 0
M  V30 3516 C 331.558 1.52717 0.733063 0
M  V30 3517 O 332.764 1.68428 0.634988 0
M  V30 3518 H 329.139 0.751984 -0.00486469 0
M  V30 3519 H 331.11 2.85382 -0.871761 0
M  V30 3520 C 329.859 3.37773 0.824908 0
M  V30 3521 H 329.182 3.99227 0.213915 0
M  V30 3522 H 330.622 4.05121 1.25111 0
M  V30 3523 C 329.081 2.74287 1.95622 0
M  V30 3524 O 329.611 2.61618 3.04826 0
M  V30 3525 N 327.817 2.32475 1.74367 0
M  V30 3526 H 327.364 2.4298 0.855494 0
M  V30 3527 H 327.322 1.90337 2.50238 0
M  V30 3528 N 331.094 0.475555 1.50254 0
M  V30 3529 C 332.342 -0.077738 2.0195 0
M  V30 3530 C 332.663 -1.39813 1.35931 0
M  V30 3531 O 331.933 -1.89249 0.506123 0
M  V30 3532 H 330.513 -0.031719 0.746326 0
M  V30 3533 H 333.175 0.626995 1.84539 0
M  V30 3534 H 332.271 -0.225995 3.11281 0
M  V30 3535 N 332.573 -1.56217 0.208337 0
M  V30 3536 C 333.521 -2.21053 -0.723769 0
M  V30 3537 C 334.515 -1.18578 -1.20978 0
M  V30 3538 O 335.721 -1.36691 -1.17114 0
M  V30 3539 H 332.096 -0.708595 -0.251788 0
M  V30 3540 H 334.067 -2.98006 -0.153365 0
M  V30 3541 C 332.816 -2.89417 -1.927 0
M  V30 3542 H 332.139 -3.68019 -1.56212 0
M  V30 3543 H 333.579 -3.38201 -2.55727 0
M  V30 3544 C 332.038 -1.91166 -2.77411 0
M  V30 3545 O 332.568 -1.42026 -3.75754 0
M  V30 3546 N 330.774 -1.59105 -2.43175 0
M  V30 3547 H 330.321 -1.99259 -1.63259 0
M  V30 3548 H 330.279 -0.936255 -3.00136 0
M  V30 3549 N 334.051 0.0651679 -1.57465 0
M  V30 3550 C 335.014 1.06117 -2.03155 0
M  V30 3551 C 336.014 1.31204 -0.929632 0
M  V30 3552 O 337.204 1.26813 -1.19432 0
M  V30 3553 C 334.336 2.4032 -2.41783 0
M  V30 3554 H 335.529 0.667231 -2.92383 0
M  V30 3555 H 333.082 0.311075 -1.53173 0
M  V30 3556 H 333.817 2.84532 -1.55601 0
M  V30 3557 H 333.602 2.23451 -3.22199 0
M  V30 3558 H 335.092 3.11898 -2.77685 0
M  V30 3559 N 335.529 1.53961 0.336706 0
M  V30 3560 C 336.777 1.71197 1.07405 0
M  V30 3561 C 337.098 0.481475 1.88962 0
M  V30 3562 O 336.368 -0.504585 1.8929 0
M  V30 3563 H 334.948 0.631185 0.399517 0
M  V30 3564 H 337.61 1.91232 0.376323 0
M  V30 3565 H 336.706 2.58587 1.74755 0
M  V30 3566 N 337.007 -0.598083 1.45811 0
M  V30 3567 C 338.232 -1.3881 1.54099 0
M  V30 3568 C 338.657 -1.8726 0.177578 0
M  V30 3569 O 338.015 -1.6069 -0.839541 0
M  V30 3570 C 338.063 -2.56217 2.53743 0
M  V30 3571 O 337.167 -3.5716 2.06182 0
M  V30 3572 H 336.508 -0.414024 0.519115 0
M  V30 3573 H 339.038 -0.726971 1.91249 0
M  V30 3574 H 339.048 -3.03337 2.72856 0
M  V30 3575 H 337.723 -2.20303 3.5276 0
M  V30 3576 H 336.3 -3.16624 1.96987 0
M  V30 3577 N 338.485 -1.33259 -0.841409 0
M  V30 3578 C 339.732 -1.24572 -1.5965 0
M  V30 3579 C 340.06 0.189137 -1.93578 0
M  V30 3580 O 339.315 1.14566 -1.5866 0
M  V30 3581 C 339.614 -2.06381 -2.9179 0
M  V30 3582 C 339.28 -3.556 -2.77235 0
M  V30 3583 C 337.942 -3.96282 -2.72973 0
M  V30 3584 C 340.294 -4.50433 -2.62221 0
M  V30 3585 C 337.622 -5.30017 -2.51592 0
M  V30 3586 C 339.974 -5.84327 -2.42374 0
M  V30 3587 C 338.638 -6.24194 -2.36512 0
M  V30 3588 H 337.908 -0.455842 -0.5842 0
M  V30 3589 H 340.555 -1.6482 -0.975016 0
M  V30 3590 H 338.86 -1.58903 -3.5813 0
M  V30 3591 H 340.557 -1.97019 -3.49263 0
M  V30 3592 H 337.147 -3.23298 -2.81384 0
M  V30 3593 H 341.331 -4.19914 -2.64549 0
M  V30 3594 H 336.587 -5.59947 -2.45499 0
M  V30 3595 H 340.761 -6.57414 -2.29739 0
M  V30 3596 H 338.388 -7.27759 -2.19706 0
M  V30 3597 N 339.963 1.05934 -1.16686 0
M  V30 3598 C 341.21 1.788 -0.950622 0
M  V30 3599 C 341.538 1.87384 0.521305 0
M  V30 3600 O 340.793 1.36438 1.40297 0
M  V30 3601 C 341.092 3.23105 -1.52767 0
M  V30 3602 C 340.758 3.34594 -3.02254 0
M  V30 3603 C 339.42 3.37437 -3.43059 0
M  V30 3604 C 341.772 3.36219 -3.98254 0
M  V30 3605 C 339.1 3.39525 -4.78477 0
M  V30 3606 C 341.452 3.39845 -5.33562 0
M  V30 3607 C 340.116 3.40971 -5.73842 0
M  V30 3608 H 339.386 0.654275 -0.347857 0
M  V30 3609 H 342.033 1.24555 -1.45459 0
M  V30 3610 H 340.338 3.80227 -0.94524 0
M  V30 3611 H 342.035 3.7809 -1.336 0
M  V30 3612 H 338.625 3.3309 -2.6972 0
M  V30 3613 H 342.809 3.33231 -3.67792 0
M  V30 3614 H 338.065 3.38703 -5.09009 0
M  V30 3615 H 342.239 3.4005 -6.07733 0
M  V30 3616 H 339.866 3.42342 -6.78753 0
M  V30 3617 N 341.441 0.965919 1.2453 0
M  V30 3618 C 342.388 0.49402 2.25451 0
M  V30 3619 C 343.358 -0.45948 1.59618 0
M  V30 3620 O 344.543 -0.370238 1.87173 0
M  V30 3621 C 341.683 -0.211359 3.44452 0
M  V30 3622 C 340.796 0.7807 4.24887 0
M  V30 3623 C 339.931 0.0516105 5.31175 0
M  V30 3624 C 338.97 1.03385 6.03306 0
M  V30 3625 N 338.107 0.334887 7.01301 0
M  V30 3626 H 342.947 1.35946 2.65184 0
M  V30 3627 H 340.484 0.681515 1.3036 0
M  V30 3628 H 342.442 -0.637 4.12308 0
M  V30 3629 H 341.072 -1.04077 3.05562 0
M  V30 3630 H 340.124 1.32479 3.56586 0
M  V30 3631 H 341.436 1.52978 4.74762 0
M  V30 3632 H 340.59 -0.432114 6.05159 0
M  V30 3633 H 339.329 -0.730179 4.82203 0
M  V30 3634 H 338.334 1.52847 5.28127 0
M  V30 3635 H 339.559 1.81606 6.54367 0
M  V30 3636 H 337.505 -0.427959 6.54603 0
M  V30 3637 H 337.422 1.02287 7.49048 0
M  V30 3638 H 338.69 -0.126928 7.79397 0
M  V30 3639 N 342.919 -1.39368 0.735821 0
M  V30 3640 C 343.867 -2.32443 0.0855131 0
M  V30 3641 C 344.861 -1.53104 -0.724954 0
M  V30 3642 O 346.067 -1.68762 -0.626047 0
M  V30 3643 H 342.442 -0.751948 0.00885257 0
M  V30 3644 H 344.413 -2.84916 0.886883 0
M  V30 3645 C 343.162 -3.38206 -0.806983 0
M  V30 3646 H 342.485 -3.99335 -0.19274 0
M  V30 3647 H 343.925 -4.05779 -1.2296 0
M  V30 3648 C 342.384 -2.75321 -1.94165 0
M  V30 3649 O 342.914 -2.63231 -3.03435 0
M  V30 3650 N 341.12 -2.33396 -1.73132 0
M  V30 3651 H 340.667 -2.4343 -0.842596 0
M  V30 3652 H 340.625 -1.91661 -2.49225 0
M  V30 3653 N 344.397 -0.483516 -1.5 0
M  V30 3654 C 345.808 -0.0314176 -1.86674 0
M  V30 3655 C 346.159 1.37728 -1.39733 0
M  V30 3656 O 345.284 2.02327 -0.767635 0
M  V30 3657 C 345.879 -0.0502376 -3.38763 0
M  V30 3658 C 344.438 0.346442 -3.74802 0
M  V30 3659 C 343.585 -0.430366 -2.7394 0
M  V30 3660 H 346.536 -0.697182 -1.42566 0
M  V30 3661 H 346.557 0.749116 -3.73053 0
M  V30 3662 H 346.069 -1.07563 -3.72897 0
M  V30 3663 H 344.17 1.37572 -3.46273 0
M  V30 3664 H 344.283 0.0391486 -4.79084 0
M  V30 3665 H 342.647 0.117557 -2.54429 0
M  V30 3666 H 343.43 -1.4555 -3.10918 0
M  V30 3667 N 345.875 1.56104 -0.216619 0
M  V30 3668 C 347.121 1.98466 0.417033 0
M  V30 3669 C 347.454 1.10403 1.59765 0
M  V30 3670 O 346.729 0.160632 1.93836 0
M  V30 3671 C 347.012 3.49769 0.85637 0
M  V30 3672 C 346.865 4.48606 -0.327546 0
M  V30 3673 C 348.184 4.05339 1.7143 0
M  V30 3674 H 345.303 0.721551 0.150112 0
M  V30 3675 H 347.945 1.87423 -0.311864 0
M  V30 3676 H 346.095 3.5931 1.47745 0
M  V30 3677 H 347.767 4.5108 -0.965618 0
M  V30 3678 H 346.01 4.22682 -0.975805 0
M  V30 3679 H 346.681 5.51995 0.0227149 0
M  V30 3680 H 349.157 3.98712 1.19031 0
M  V30 3681 H 348.033 5.11533 1.99061 0
M  V30 3682 H 348.294 3.51918 2.67593 0
M  V30 3683 N 347.353 -0.0568162 1.57498 0
M  V30 3684 C 348.599 -0.75422 1.88253 0
M  V30 3685 C 348.932 -1.76461 0.810865 0
M  V30 3686 O 348.207 -1.93691 -0.177259 0
M  V30 3687 C 348.49 -1.44878 3.2967 0
M  V30 3688 C 348.343 -0.453789 4.47505 0
M  V30 3689 C 349.662 -2.38994 3.69554 0
M  V30 3690 H 346.781 -0.272724 0.684683 0
M  V30 3691 H 349.423 -0.0172113 1.89992 0
M  V30 3692 H 347.573 -2.077 3.28318 0
M  V30 3693 H 349.245 0.170371 4.60985 0
M  V30 3694 H 347.488 0.229552 4.33192 0
M  V30 3695 H 348.159 -0.977699 5.43273 0
M  V30 3696 H 350.635 -1.86239 3.72095 0
M  V30 3697 H 349.511 -2.84587 4.69363 0
M  V30 3698 H 349.772 -3.24461 3.00296 0
M  V30 3699 N 348.832 -1.54138 -0.328536 0
M  V30 3700 C 350.057 -1.76378 -1.09112 0
M  V30 3701 C 350.482 -0.508596 -1.81094 0
M  V30 3702 O 349.84 0.539598 -1.73084 0
M  V30 3703 C 349.888 -2.95358 -2.06872 0
M  V30 3704 O 348.992 -2.66556 -3.14677 0
M  V30 3705 H 348.333 -0.584614 -0.314838 0
M  V30 3706 H 350.863 -2.01146 -0.374348 0
M  V30 3707 H 350.873 -3.22566 -2.4983 0
M  V30 3708 H 349.548 -3.86385 -1.5388 0
M  V30 3709 H 348.125 -2.50282 -2.7643 0
M  V30 3710 N 350.31 0.590341 -1.46126 0
M  V30 3711 C 351.273 1.68194 -1.55703 0
M  V30 3712 C 352.273 1.54808 -0.434868 0
M  V30 3713 O 353.463 1.59564 -0.698928 0
M  V30 3714 C 350.595 3.07575 -1.47005 0
M  V30 3715 H 351.788 1.61064 -2.52979 0
M  V30 3716 H 349.341 0.807541 -1.33823 0
M  V30 3717 H 350.076 3.20268 -0.509785 0
M  V30 3718 H 349.861 3.187 -2.28414 0
M  V30 3719 H 351.351 3.87055 -1.56776 0
M  V30 3720 N 351.788 1.33704 0.83433 0
M  V30 3721 C 352.698 1.26382 1.97648 0
M  V30 3722 C 353.714 0.173548 1.73132 0
M  V30 3723 O 354.89 0.397962 1.97429 0
M  V30 3724 C 351.955 1.00769 3.31733 0
M  V30 3725 C 351.016 2.1884 3.69334 0
M  V30 3726 C 350.249 1.9444 4.9702 0
M  V30 3727 O 350.472 0.896961 5.63303 0
M  V30 3728 O 349.406 2.81093 5.32231 0
M  V30 3729 H 353.232 2.22444 2.06767 0
M  V30 3730 H 350.817 1.13795 0.968037 0
M  V30 3731 H 352.699 0.882186 4.12062 0
M  V30 3732 H 351.374 0.0773783 3.23608 0
M  V30 3733 H 350.281 2.36946 2.89495 0
M  V30 3734 H 351.614 3.10221 3.82131 0
M  V30 3735 N 353.266 -1.05314 1.17247 0
M  V30 3736 C 354.494 -1.81971 0.984593 0
M  V30 3737 C 354.909 -1.82929 -0.467166 0
M  V30 3738 O 354.266 -1.25564 -1.32438 0
M  V30 3739 C 354.317 -3.28143 1.51672 0
M  V30 3740 O 354.038 -3.27347 2.91163 0
M  V30 3741 C 355.539 -4.21493 1.37326 0
M  V30 3742 H 352.759 -0.573455 0.348411 0
M  V30 3743 H 355.303 -1.32808 1.55506 0
M  V30 3744 H 353.458 -3.74582 0.988302 0
M  V30 3745 H 353.872 -4.18824 3.15732 0
M  V30 3746 H 355.346 -5.22043 1.79375 0
M  V30 3747 H 355.823 -4.38031 0.320169 0
M  V30 3748 H 356.429 -3.80909 1.89178 0
M  V30 3749 N 354.744 -0.972509 -1.24016 0
M  V30 3750 C 355.707 -0.511403 -2.23422 0
M  V30 3751 C 356.707 0.394679 -1.55881 0
M  V30 3752 O 357.897 0.189469 -1.73167 0
M  V30 3753 C 355.029 0.258769 -3.39916 0
M  V30 3754 H 356.222 -1.39024 -2.6573 0
M  V30 3755 H 353.775 -0.757585 -1.36713 0
M  V30 3756 H 354.51 1.1545 -3.03054 0
M  V30 3757 H 354.295 -0.391522 -3.9014 0
M  V30 3758 H 355.785 0.570244 -4.13688 0
M  V30 3759 N 356.222 1.38976 -0.743202 0
M  V30 3760 C 357.169 2.30544 -0.10861 0
M  V30 3761 C 358.139 1.49642 0.720869 0
M  V30 3762 O 359.324 1.78304 0.679142 0
M  V30 3763 C 356.464 3.36018 0.786496 0
M  V30 3764 C 355.577 4.31963 -0.0564849 0
M  V30 3765 C 354.712 5.24506 0.840657 0
M  V30 3766 C 353.751 6.121 -0.00658363 0
M  V30 3767 N 352.888 6.96973 0.846943 0
M  V30 3768 H 357.728 2.8424 -0.895088 0
M  V30 3769 H 355.265 1.3995 -0.453048 0
M  V30 3770 H 357.223 3.95768 1.31999 0
M  V30 3771 H 355.853 2.83758 1.53887 0
M  V30 3772 H 354.905 3.73763 -0.707492 0
M  V30 3773 H 356.217 4.93703 -0.711229 0
M  V30 3774 H 355.371 5.89322 1.4417 0
M  V30 3775 H 354.11 4.63107 1.52916 0
M  V30 3776 H 353.115 5.46289 -0.620366 0
M  V30 3777 H 354.34 6.75565 -0.691992 0
M  V30 3778 H 352.286 6.38133 1.52059 0
M  V30 3779 H 352.203 7.5559 0.248864 0
M  V30 3780 H 353.471 7.6621 1.43328 0
M  V30 3781 N 357.7 0.491464 1.49741 0
M  V30 3782 C 358.663 -0.280906 2.27472 0
M  V30 3783 C 359.663 -0.902454 1.33088 0
M  V30 3784 O 360.853 -0.768465 1.56334 0
M  V30 3785 C 357.985 -1.40209 3.10732 0
M  V30 3786 H 359.178 0.401056 2.97206 0
M  V30 3787 H 356.731 0.246131 1.5435 0
M  V30 3788 H 357.466 -2.11849 2.45541 0
M  V30 3789 H 357.251 -0.961969 3.80117 0
M  V30 3790 H 358.741 -1.9464 3.69466 0
M  V30 3791 N 359.178 -1.55987 0.224894 0
M  V30 3792 C 360.108 -2.23426 -0.678457 0
M  V30 3793 C 361.089 -1.20709 -1.19847 0
M  V30 3794 O 362.274 -1.49304 -1.24186 0
M  V30 3795 C 359.404 -2.91676 -1.88527 0
M  V30 3796 C 358.358 -4.00893 -1.49896 0
M  V30 3797 C 357.684 -4.56455 -2.78483 0
M  V30 3798 C 358.984 -5.17769 -0.686461 0
M  V30 3799 H 360.678 -2.99175 -0.116173 0
M  V30 3800 H 358.224 -1.43897 -0.054436 0
M  V30 3801 H 360.177 -3.37547 -2.5227 0
M  V30 3802 H 358.901 -2.1338 -2.47258 0
M  V30 3803 H 357.56 -3.55758 -0.884985 0
M  V30 3804 H 357.208 -3.74886 -3.35365 0
M  V30 3805 H 356.908 -5.30169 -2.53368 0
M  V30 3806 H 358.432 -5.05047 -3.43162 0
M  V30 3807 H 359.846 -5.60001 -1.22767 0
M  V30 3808 H 358.243 -5.97735 -0.532259 0
M  V30 3809 H 359.313 -4.83932 0.306196 0
M  V30 3810 N 360.656 0.0484629 -1.57525 0
M  V30 3811 C 361.586 1.0549 -2.08313 0
M  V30 3812 C 362.567 1.38929 -0.981463 0
M  V30 3813 O 363.752 1.48151 -1.25558 0
M  V30 3814 C 360.882 2.36162 -2.54646 0
M  V30 3815 C 359.836 2.17016 -3.68901 0
M  V30 3816 C 359.162 3.53278 -4.01371 0
M  V30 3817 C 360.462 1.57219 -4.98076 0
M  V30 3818 H 362.156 0.632195 -2.92649 0
M  V30 3819 H 359.702 0.302654 -1.40784 0
M  V30 3820 H 361.655 3.06882 -2.88793 0
M  V30 3821 H 360.379 2.80456 -1.67368 0
M  V30 3822 H 359.038 1.48733 -3.35073 0
M  V30 3823 H 358.686 3.95185 -3.11188 0
M  V30 3824 H 358.386 3.41299 -4.78318 0
M  V30 3825 H 359.91 4.25391 -4.38035 0
M  V30 3826 H 361.324 2.17832 -5.30304 0
M  V30 3827 H 359.721 1.55871 -5.79503 0
M  V30 3828 H 360.791 0.535956 -4.81929 0
M  V30 3829 N 362.134 1.5431 0.320358 0
M  V30 3830 C 363.359 1.76954 1.08175 0
M  V30 3831 C 363.784 0.518193 1.80821 0
M  V30 3832 O 363.142 -0.530411 1.73368 0
M  V30 3833 C 363.19 2.96451 2.05303 0
M  V30 3834 O 362.294 2.68221 3.13259 0
M  V30 3835 H 361.635 0.586275 0.311733 0
M  V30 3836 H 364.165 2.01342 0.363676 0
M  V30 3837 H 364.175 3.23887 2.48116 0
M  V30 3838 H 362.85 3.87196 1.51829 0
M  V30 3839 H 361.427 2.51744 2.75099 0
M  V30 3840 N 363.613 -0.582584 1.46437 0
M  V30 3841 C 364.545 -1.70618 1.53043 0
M  V30 3842 C 365.558 -1.57322 0.418769 0
M  V30 3843 O 366.747 -1.64744 0.687136 0
M  V30 3844 C 363.847 -3.08869 1.39474 0
M  V30 3845 C 363.02 -3.48166 2.64762 0
M  V30 3846 C 362.079 -4.65478 2.4539 0
M  V30 3847 O 361.105 -4.71333 3.19114 0
M  V30 3848 N 362.307 -5.60365 1.51564 0
M  V30 3849 H 365.072 -1.65405 2.49923 0
M  V30 3850 H 362.633 -0.768567 1.42494 0
M  V30 3851 H 364.625 -3.85143 1.24287 0
M  V30 3852 H 363.195 -3.08449 0.507758 0
M  V30 3853 H 362.415 -2.61598 2.9489 0
M  V30 3854 H 363.703 -3.71188 3.4799 0
M  V30 3855 H 363.101 -5.5837 0.907705 0
M  V30 3856 H 361.658 -6.36068 1.4234 0
M  V30 3857 N 365.091 -1.34144 -0.827227 0
M  V30 3858 C 366.338 -1.26258 -1.58319 0
M  V30 3859 C 366.666 0.168595 -1.93768 0
M  V30 3860 O 365.921 1.12877 -1.59866 0
M  V30 3861 C 366.22 -2.09464 -2.89585 0
M  V30 3862 C 365.886 -3.58521 -2.73448 0
M  V30 3863 C 364.548 -3.99155 -2.68754 0
M  V30 3864 C 366.9 -4.53189 -2.57428 0
M  V30 3865 C 364.228 -5.32656 -2.45957 0
M  V30 3866 C 366.58 -5.86864 -2.36163 0
M  V30 3867 C 365.244 -6.26667 -2.29879 0
M  V30 3868 H 364.514 -0.462013 -0.579332 0
M  V30 3869 H 367.161 -1.65845 -0.95748 0
M  V30 3870 H 365.466 -1.62692 -3.56425 0
M  V30 3871 H 367.163 -2.00712 -3.47154 0
M  V30 3872 H 363.753 -3.26264 -2.77939 0
M  V30 3873 H 367.937 -4.22696 -2.60081 0
M  V30 3874 H 363.193 -5.62519 -2.39546 0
M  V30 3875 H 367.367 -6.59813 -2.22754 0
M  V30 3876 H 364.994 -7.30049 -2.11975 0
M  V30 3877 N 366.569 1.04691 -1.17803 0
M  V30 3878 C 367.98 1.59238 -0.974689 0
M  V30 3879 C 368.331 1.90306 0.477292 0
M  V30 3880 O 367.456 1.68846 1.35352 0
M  V30 3881 C 368.051 2.89318 -1.76296 0
M  V30 3882 C 366.61 3.40506 -1.60414 0
M  V30 3883 C 365.757 2.14172 -1.76141 0
M  V30 3884 H 368.708 0.874395 -1.32439 0
M  V30 3885 H 368.729 3.5944 -1.24833 0
M  V30 3886 H 368.241 2.66675 -2.81968 0
M  V30 3887 H 366.342 3.68175 -0.572519 0
M  V30 3888 H 366.455 4.14753 -2.39827 0
M  V30 3889 H 364.819 2.25176 -1.19028 0
M  V30 3890 H 365.602 1.93992 -2.83235 0
M  V30 3891 N 368.047 0.979072 1.23499 0
M  V30 3892 C 369.275 0.665202 1.95915 0
M  V30 3893 C 369.69 -0.767571 1.72493 0
M  V30 3894 O 369.047 -1.51635 1.01554 0
M  V30 3895 C 369.098 0.944438 3.48945 0
M  V30 3896 O 368.819 2.3209 3.71572 0
M  V30 3897 C 370.32 0.646336 4.38563 0
M  V30 3898 H 367.54 0.247218 0.623798 0
M  V30 3899 H 370.084 1.31009 1.57025 0
M  V30 3900 H 368.239 0.345575 3.85856 0
M  V30 3901 H 368.653 2.40957 4.65876 0
M  V30 3902 H 370.127 0.892091 5.44744 0
M  V30 3903 H 370.604 -0.419575 4.37191 0
M  V30 3904 H 371.21 1.22562 4.07258 0
M  V30 3905 N 369.525 -1.3858 0.750561 0
M  V30 3906 C 370.488 -2.28836 0.129152 0
M  V30 3907 C 371.488 -1.47045 -0.650714 0
M  V30 3908 O 372.678 -1.6753 -0.477428 0
M  V30 3909 C 369.81 -3.30751 -0.825622 0
M  V30 3910 H 371.003 -2.85294 0.924516 0
M  V30 3911 H 368.556 -1.47489 0.517376 0
M  V30 3912 H 369.291 -2.79378 -1.64677 0
M  V30 3913 H 369.076 -3.91177 -0.268852 0
M  V30 3914 H 370.566 -3.98249 -1.2565 0
M  V30 3915 N 371.003 -0.499398 -1.49478 0
M  V30 3916 C 372.414 -0.051215 -1.8663 0
M  V30 3917 C 372.765 1.36238 -1.41186 0
M  V30 3918 O 371.89 2.01502 -0.789051 0
M  V30 3919 C 372.485 -0.0861651 -3.3869 0
M  V30 3920 C 371.044 0.30667 -3.75149 0
M  V30 3921 C 370.191 -0.459397 -2.73468 0
M  V30 3922 H 373.142 -0.712264 -1.41818 0
M  V30 3923 H 373.163 0.709507 -3.73826 0
M  V30 3924 H 372.675 -1.11512 -3.71735 0
M  V30 3925 H 370.776 1.33892 -3.47712 0
M  V30 3926 H 370.889 -0.0116669 -4.79099 0
M  V30 3927 H 369.253 0.0905645 -2.54539 0
M  V30 3928 H 370.036 -1.4884 -3.09357 0
M  V30 3929 N 372.481 1.55866 -0.233164 0
M  V30 3930 C 373.429 2.22176 0.68851 0
M  V30 3931 C 374.423 1.20487 1.19076 0
M  V30 3932 O 375.629 1.38536 1.14925 0
M  V30 3933 H 372.004 0.712511 0.240483 0
M  V30 3934 H 373.975 2.98212 0.105935 0
M  V30 3935 C 372.724 2.92446 1.88071 0
M  V30 3936 H 372.047 3.70458 1.50337 0
M  V30 3937 H 373.487 3.42226 2.50314 0
M  V30 3938 C 371.946 1.95555 2.74335 0
M  V30 3939 O 372.476 1.47986 3.73447 0
M  V30 3940 N 370.682 1.62953 2.40613 0
M  V30 3941 H 370.229 2.01831 1.60069 0
M  V30 3942 H 370.187 0.983886 2.98609 0
M  V30 3943 N 373.959 -0.0401083 1.57549 0
M  V30 3944 C 375.189 -0.744115 1.92734 0
M  V30 3945 C 375.597 -1.70005 0.830348 0
M  V30 3946 O 374.94 -1.82576 -0.20286 0
M  V30 3947 C 375.002 -1.56516 3.2364 0
M  V30 3948 C 374.666 -0.7752 4.50377 0
M  V30 3949 C 375.663 -0.0803326 5.19838 0
M  V30 3950 C 373.348 -0.733002 4.96923 0
M  V30 3951 C 375.342 0.646154 6.34116 0
M  V30 3952 C 373.029 -0.00276321 6.111 0
M  V30 3953 C 374.027 0.685585 6.7955 0
M  V30 3954 O 373.715 1.40399 7.91545 0
M  V30 3955 H 373.447 -0.214861 0.640945 0
M  V30 3956 H 376.001 -0.00503675 2.05399 0
M  V30 3957 H 374.231 -2.3478 3.07271 0
M  V30 3958 H 375.92 -2.15076 3.44234 0
M  V30 3959 H 376.686 -0.104035 4.84888 0
M  V30 3960 H 372.565 -1.25827 4.43496 0
M  V30 3961 H 376.109 1.18398 6.87479 0
M  V30 3962 H 372.006 0.0229012 6.45496 0
M  V30 3963 H 372.774 1.31653 8.07843 0
M  V30 3964 N 375.437 -1.54477 -0.31217 0
M  V30 3965 C 376.848 -1.64344 -0.885891 0
M  V30 3966 C 377.199 -0.54485 -1.88483 0
M  V30 3967 O 376.324 0.320387 -2.14015 0
M  V30 3968 C 376.919 -2.97908 -1.61357 0
M  V30 3969 C 375.478 -3.09933 -2.13585 0
M  V30 3970 C 374.625 -2.59971 -0.964897 0
M  V30 3971 H 377.576 -1.58448 -0.0894528 0
M  V30 3972 H 377.597 -2.88706 -2.47848 0
M  V30 3973 H 377.109 -3.77845 -0.886277 0
M  V30 3974 H 375.21 -2.34694 -2.89395 0
M  V30 3975 H 375.323 -4.15916 -2.37804 0
M  V30 3976 H 373.687 -2.16147 -1.34731 0
M  V30 3977 H 374.47 -3.42376 -0.251742 0
M  V30 3978 N 376.915 0.57481 -1.46744 0
M  V30 3979 C 377.847 1.69804 -1.53946 0
M  V30 3980 C 378.86 1.57098 -0.427106 0
M  V30 3981 O 380.049 1.64378 -0.695863 0
M  V30 3982 C 377.149 3.08125 -1.4111 0
M  V30 3983 C 376.322 3.46757 -2.66605 0
M  V30 3984 C 375.381 4.6417 -2.47855 0
M  V30 3985 O 374.407 4.69634 -3.21609 0
M  V30 3986 N 375.609 5.59553 -1.54534 0
M  V30 3987 H 378.374 1.64077 -2.50796 0
M  V30 3988 H 375.935 0.761 -1.429 0
M  V30 3989 H 377.927 3.84478 -1.26328 0
M  V30 3990 H 376.497 3.08175 -0.524109 0
M  V30 3991 H 375.717 2.6003 -2.96274 0
M  V30 3992 H 377.005 3.69337 -3.49954 0
M  V30 3993 H 376.403 5.57881 -0.937304 0
M  V30 3994 H 374.96 6.35304 -1.45711 0
M  V30 3995 N 378.394 1.34581 0.820102 0
M  V30 3996 C 379.357 1.2628 1.91275 0
M  V30 3997 C 380.357 0.177344 1.59819 0
M  V30 3998 O 381.547 0.430156 1.68806 0
M  V30 3999 C 378.679 0.950327 3.27386 0
M  V30 4000 H 379.872 2.23421 2.00057 0
M  V30 4001 H 377.425 1.1891 1.0144 0
M  V30 4002 H 378.16 -0.0177938 3.24295 0
M  V30 4003 H 377.945 1.73549 3.51601 0
M  V30 4004 H 379.435 0.917492 4.07396 0
M  V30 4005 N 379.872 -1.04064 1.18357 0
M  V30 4006 C 381.149 -1.74252 0.888581 0
M  V30 4007 C 381.529 -2.02138 -0.60856 0
M  V30 4008 O 380.877 -1.66656 -1.56327 0
M  V30 4009 C 381.087 -3.0277 1.73584 0
M  V30 4010 C 382.435 -3.76506 1.96286 0
M  V30 4011 O 383.459 -3.12668 1.70637 0
M  V30 4012 O 382.318 -4.91243 2.39464 0
M  V30 4013 H 379.412 -0.758271 0.330082 0
M  V30 4014 H 381.958 -1.1013 1.2911 0
M  V30 4015 H 380.73 -2.78299 2.75073 0
M  V30 4016 H 380.353 -3.74631 1.33183 0
M  V30 4017 N 381.35 -0.985608 -1.22978 0
M  V30 4018 C 382.598 -0.656087 -1.91154 0
M  V30 4019 C 382.919 0.813561 -1.77218 0
M  V30 4020 O 382.189 1.58244 -1.1548 0
M  V30 4021 H 380.769 -0.239674 -0.707506 0
M  V30 4022 H 383.431 -1.25054 -1.49491 0
M  V30 4023 H 382.527 -0.912253 -2.9847 0
M  V30 4024 N 382.828 1.3818 -0.7579 0
M  V30 4025 C 384.053 2.04827 -0.325679 0
M  V30 4026 C 384.478 1.56788 1.03919 0
M  V30 4027 O 383.836 0.721811 1.66312 0
M  V30 4028 C 383.884 3.58774 -0.362447 0
M  V30 4029 O 382.988 4.07372 0.642033 0
M  V30 4030 H 382.329 0.64833 -0.143402 0
M  V30 4031 H 384.859 1.7677 -1.03023 0
M  V30 4032 H 384.869 4.07434 -0.214844 0
M  V30 4033 H 383.544 3.93096 -1.35824 0
M  V30 4034 H 382.121 3.70068 0.458688 0
M  V30 4035 N 384.306 0.507319 1.49211 0
M  V30 4036 C 385.552 -0.0350047 2.0277 0
M  V30 4037 C 385.885 -1.3606 1.38569 0
M  V30 4038 O 385.16 -1.87321 0.523542 0
M  V30 4039 C 385.443 -0.180916 3.59645 0
M  V30 4040 C 385.296 1.16825 4.34364 0
M  V30 4041 C 386.615 -0.918558 4.30407 0
M  V30 4042 H 383.734 -0.0112473 0.736914 0
M  V30 4043 H 386.376 0.659956 1.7817 0
M  V30 4044 H 384.526 -0.772826 3.80736 0
M  V30 4045 H 386.198 1.79952 4.24753 0
M  V30 4046 H 384.441 1.75594 3.96673 0
M  V30 4047 H 385.112 1.01939 5.42506 0
M  V30 4048 H 387.588 -0.41649 4.1401 0
M  V30 4049 H 386.464 -0.989505 5.39907 0
M  V30 4050 H 386.725 -1.96373 3.96093 0
M  V30 4051 N 385.784 -1.5574 0.241426 0
M  V30 4052 C 386.731 -2.21149 -0.660432 0
M  V30 4053 C 387.701 -1.17356 -1.17545 0
M  V30 4054 O 388.886 -1.45784 -1.23093 0
M  V30 4055 C 386.026 -2.91059 -1.85414 0
M  V30 4056 C 385.139 -4.09495 -1.37616 0
M  V30 4057 C 384.274 -4.67135 -2.529 0
M  V30 4058 C 383.313 -5.77831 -2.01936 0
M  V30 4059 N 382.45 -6.29677 -3.10566 0
M  V30 4060 H 387.29 -2.97845 -0.095955 0
M  V30 4061 H 384.827 -1.47057 -0.0356024 0
M  V30 4062 H 386.785 -3.29788 -2.5553 0
M  V30 4063 H 385.415 -2.16846 -2.39118 0
M  V30 4064 H 384.467 -3.76117 -0.569235 0
M  V30 4065 H 385.779 -4.89423 -0.962618 0
M  V30 4066 H 384.933 -5.08409 -3.31067 0
M  V30 4067 H 383.672 -3.86411 -2.97553 0
M  V30 4068 H 382.677 -5.36039 -1.22238 0
M  V30 4069 H 383.902 -6.60402 -1.58259 0
M  V30 4070 H 381.848 -5.5186 -3.54664 0
M  V30 4071 H 381.765 -7.04783 -2.73526 0
M  V30 4072 H 383.033 -6.75609 -3.88809 0
M  V30 4073 N 387.262 0.0317525 -1.57568 0
M  V30 4074 C 388.192 1.03274 -2.0942 0
M  V30 4075 C 389.173 1.3788 -0.996143 0
M  V30 4076 O 390.358 1.46811 -1.27122 0
M  V30 4077 C 387.488 2.33448 -2.57137 0
M  V30 4078 C 386.442 2.13091 -3.71182 0
M  V30 4079 C 385.768 3.49001 -4.05095 0
M  V30 4080 C 387.068 1.51928 -4.99715 0
M  V30 4081 H 388.762 0.60112 -2.93303 0
M  V30 4082 H 386.308 0.287705 -1.41097 0
M  V30 4083 H 388.261 3.03802 -2.92032 0
M  V30 4084 H 386.985 2.78665 -1.70333 0
M  V30 4085 H 385.644 1.45171 -3.36632 0
M  V30 4086 H 385.292 3.91862 -3.15362 0
M  V30 4087 H 384.992 3.36207 -4.81911 0
M  V30 4088 H 386.516 4.20721 -4.42522 0
M  V30 4089 H 387.93 2.12196 -5.32584 0
M  V30 4090 H 386.327 1.49716 -5.81124 0
M  V30 4091 H 387.397 0.484811 -4.8247 0
M  V30 4092 N 388.74 1.54641 0.303973 0
M  V30 4093 C 389.703 1.84646 1.35789 0
M  V30 4094 C 390.703 0.7192 1.4382 0
M  V30 4095 O 391.893 0.987491 1.43507 0
M  V30 4096 C 389.025 2.02407 2.74307 0
M  V30 4097 H 390.218 2.78829 1.10429 0
M  V30 4098 H 387.771 1.46658 0.540487 0
M  V30 4099 H 388.506 1.10502 3.04893 0
M  V30 4100 H 388.291 2.84453 2.69868 0
M  V30 4101 H 389.781 2.27002 3.50514 0
M  V30 4102 N 390.218 -0.567019 1.47046 0
M  V30 4103 C 391.181 -1.65696 1.58359 0
M  V30 4104 C 392.181 -1.54097 0.459441 0
M  V30 4105 O 393.371 -1.58432 0.724225 0
M  V30 4106 C 390.503 -3.05197 1.51879 0
M  V30 4107 H 391.696 -1.57019 2.5551 0
M  V30 4108 H 389.249 -0.786148 1.3509 0
M  V30 4109 H 389.984 -3.19417 0.560673 0
M  V30 4110 H 389.769 -3.15025 2.33455 0
M  V30 4111 H 391.259 -3.84511 1.62913 0
M  V30 4112 N 391.696 -1.35014 -0.812953 0
M  V30 4113 C 392.944 -1.27678 -1.56661 0
M  V30 4114 C 393.265 0.150359 -1.94419 0
M  V30 4115 O 392.535 1.08532 -1.63088 0
M  V30 4116 H 391.115 -0.469602 -0.580933 0
M  V30 4117 H 393.777 -1.69043 -0.970076 0
M  V30 4118 H 392.873 -1.88833 -2.48492 0
M  V30 4119 N 393.175 1.03435 -1.18907 0
M  V30 4120 C 394.421 1.7713 -0.99982 0
M  V30 4121 C 394.776 1.86695 0.465049 0
M  V30 4122 O 394.069 1.36866 1.34083 0
M  V30 4123 C 394.263 3.19792 -1.59586 0
M  V30 4124 C 394.092 3.24134 -3.11717 0
M  V30 4125 C 392.862 3.32398 -3.80578 0
M  V30 4126 C 395.06 3.11625 -4.09138 0
M  V30 4127 N 393.042 3.26055 -5.20155 0
M  V30 4128 C 394.413 3.12855 -5.35277 0
M  V30 4129 C 396.468 2.95713 -4.00572 0
M  V30 4130 C 395.171 2.99805 -6.53842 0
M  V30 4131 C 397.197 2.84011 -5.1874 0
M  V30 4132 C 396.559 2.8589 -6.43775 0
M  V30 4133 H 392.658 0.659683 -0.419931 0
M  V30 4134 H 395.242 1.2317 -1.50789 0
M  V30 4135 H 393.413 3.72085 -1.11389 0
M  V30 4136 H 395.145 3.81819 -1.3415 0
M  V30 4137 H 391.9 3.38392 -3.31342 0
M  V30 4138 H 392.324 3.26307 -5.93172 0
M  V30 4139 H 396.966 2.93086 -3.0473 0
M  V30 4140 H 394.684 3.01184 -7.49876 0
M  V30 4141 H 398.27 2.72744 -5.13909 0
M  V30 4142 H 397.15 2.76931 -7.33675 0
M  V30 4143 N 394.653 0.992116 1.22453 0
M  V30 4144 C 395.583 0.561677 2.26644 0
M  V30 4145 C 396.564 -0.411055 1.65059 0
M  V30 4146 O 397.749 -0.301861 1.9184 0
M  V30 4147 C 394.879 -0.125247 3.47074 0
M  V30 4148 C 393.833 0.765948 4.21091 0
M  V30 4149 C 393.159 -0.0538484 5.34673 0
M  V30 4150 C 394.459 2.06242 4.79856 0
M  V30 4151 H 396.153 1.43259 2.62902 0
M  V30 4152 H 393.699 0.690283 1.26377 0
M  V30 4153 H 395.652 -0.437764 4.1912 0
M  V30 4154 H 394.376 -1.03069 3.0991 0
M  V30 4155 H 393.035 1.0621 3.50878 0
M  V30 4156 H 392.683 -0.960188 4.9375 0
M  V30 4157 H 392.383 0.539415 5.85119 0
M  V30 4158 H 393.907 -0.360477 6.09535 0
M  V30 4159 H 395.321 1.8139 5.43848 0
M  V30 4160 H 393.718 2.60444 5.40638 0
M  V30 4161 H 394.788 2.74167 3.99951 0
M  V30 4162 N 396.131 -1.37776 0.765217 0
M  V30 4163 C 397.38 -1.99092 0.323307 0
M  V30 4164 C 397.693 -1.61434 -1.10446 0
M  V30 4165 O 398.899 -2.15805 -1.64743 0
M  V30 4166 C 397.355 -3.56019 0.527098 0
M  V30 4167 C 396.963 -4.0262 1.96471 0
M  V30 4168 C 398.707 -4.2424 0.148483 0
M  V30 4169 C 396.614 -5.52233 2.11644 0
M  V30 4170 H 395.544 -0.744846 0.117137 0
M  V30 4171 H 398.195 -1.57391 0.943417 0
M  V30 4172 H 396.577 -3.95667 -0.162372 0
M  V30 4173 H 397.751 -3.74234 2.68859 0
M  V30 4174 H 396.066 -3.47161 2.29931 0
M  V30 4175 H 398.663 -5.34159 0.240456 0
M  V30 4176 H 399.006 -4.06446 -0.900422 0
M  V30 4177 H 399.539 -3.89872 0.79025 0
M  V30 4178 H 396.278 -5.74945 3.1483 0
M  V30 4179 H 395.798 -5.82324 1.4373 0
M  V30 4180 H 397.477 -6.18106 1.91193 0
M  V30 4181 N 397.609 -0.515225 -1.4894 0
M  V30 4182 C 398.886 0.0879088 -1.95402 0
M  V30 4183 C 399.266 1.52745 -1.45712 0
M  V30 4184 O 398.614 2.18238 -0.677093 0
M  V30 4185 C 398.824 -0.0141055 -3.48997 0
M  V30 4186 C 400.172 0.152646 -4.24326 0
M  V30 4187 O 401.196 0.0604025 -3.56149 0
M  V30 4188 O 400.055 0.34384 -5.45417 0
M  V30 4189 H 397.149 0.0874636 -0.822362 0
M  V30 4190 H 399.695 -0.578775 -1.59525 0
M  V30 4191 H 398.467 -1.01745 -3.77841 0
M  V30 4192 H 398.09 0.692091 -3.9153 0
M  V30 4193 N 399.087 1.5561 -0.249682 0
M  V30 4194 C 400.019 2.18834 0.681496 0
M  V30 4195 C 401.032 1.16546 1.1367 0
M  V30 4196 O 402.221 1.43397 1.06299 0
M  V30 4197 C 399.321 2.77992 1.9384 0
M  V30 4198 C 398.494 4.05725 1.63419 0
M  V30 4199 C 397.553 4.49174 2.74096 0
M  V30 4200 O 396.579 5.15492 2.41364 0
M  V30 4201 N 397.781 4.17191 4.03649 0
M  V30 4202 H 400.546 2.9937 0.140514 0
M  V30 4203 H 398.107 1.6175 -0.0697541 0
M  V30 4204 H 400.099 3.04015 2.67127 0
M  V30 4205 H 398.669 2.01596 2.38909 0
M  V30 4206 H 397.889 3.87261 0.736358 0
M  V30 4207 H 399.177 4.88999 1.40562 0
M  V30 4208 H 398.575 3.63955 4.33074 0
M  V30 4209 H 397.132 4.48043 4.73393 0
M  V30 4210 N 400.565 -0.0233959 1.57583 0
M  V30 4211 C 401.805 -0.71784 1.9138 0
M  V30 4212 C 402.169 -1.72216 0.848853 0
M  V30 4213 O 403.37 -2.46527 1.07134 0
M  V30 4214 C 401.641 -1.36489 3.30311 0
M  V30 4215 S 403.2 -2.0877 3.85954 0
M  V30 4216 H 400.018 -0.237676 0.670098 0
M  V30 4217 H 402.62 0.0276709 1.9548 0
M  V30 4218 H 401.324 -0.620782 4.05678 0
M  V30 4219 H 400.855 -2.14883 3.29528 0
M  V30 4220 H 402.87 -3.35988 3.65139 0
M  V30 4221 N 402.043 -1.548 -0.295768 0
M  V30 4222 C 402.975 -1.82492 -1.3867 0
M  V30 4223 C 403.988 -0.708134 -1.46592 0
M  V30 4224 O 405.177 -0.985686 -1.48817 0
M  V30 4225 C 402.277 -1.95256 -2.76999 0
M  V30 4226 C 401.45 -3.25709 -2.91946 0
M  V30 4227 C 400.509 -3.28824 -4.10806 0
M  V30 4228 O 399.535 -4.02328 -4.02643 0
M  V30 4229 N 400.737 -2.5459 -5.21694 0
M  V30 4230 H 403.502 -2.76646 -1.15269 0
M  V30 4231 H 401.063 -1.54438 -0.485849 0
M  V30 4232 H 403.055 -1.94736 -3.54768 0
M  V30 4233 H 401.625 -1.08072 -2.93324 0
M  V30 4234 H 400.845 -3.38959 -2.01247 0
M  V30 4235 H 402.133 -4.11786 -2.98847 0
M  V30 4236 H 401.531 -1.94512 -5.31208 0
M  V30 4237 H 400.088 -2.59818 -5.97778 0
M  V30 4238 N 403.521 0.559213 -1.47345 0
M  V30 4239 C 404.451 1.67622 -1.62558 0
M  V30 4240 C 405.432 1.63331 -0.475087 0
M  V30 4241 O 406.617 1.80983 -0.704182 0
M  V30 4242 C 403.747 3.0626 -1.63774 0
M  V30 4243 C 402.701 3.25397 -2.7803 0
M  V30 4244 C 402.027 4.64801 -2.64318 0
M  V30 4245 C 403.327 3.10965 -4.19641 0
M  V30 4246 H 405.021 1.55146 -2.56067 0
M  V30 4247 H 402.567 0.744961 -1.23233 0
M  V30 4248 H 404.52 3.84247 -1.73008 0
M  V30 4249 H 403.244 3.1969 -0.66825 0
M  V30 4250 H 401.903 2.49817 -2.68304 0
M  V30 4251 H 401.551 4.75028 -1.65401 0
M  V30 4252 H 401.251 4.78555 -3.40968 0
M  V30 4253 H 402.775 5.44926 -2.75478 0
M  V30 4254 H 404.189 3.78772 -4.30354 0
M  V30 4255 H 402.586 3.36229 -4.97062 0
M  V30 4256 H 403.656 2.07736 -4.38148 0
M  V30 4257 N 404.999 1.35443 0.805782 0
M  V30 4258 C 405.946 1.28431 1.91766 0
M  V30 4259 C 406.916 0.156102 1.65365 0
M  V30 4260 O 408.101 0.339936 1.87747 0
M  V30 4261 C 405.241 1.06301 3.2832 0
M  V30 4262 C 404.354 2.2805 3.66902 0
M  V30 4263 C 403.489 1.99064 4.92491 0
M  V30 4264 C 402.528 3.16863 5.23703 0
M  V30 4265 N 401.665 2.87647 6.40471 0
M  V30 4266 H 406.505 2.23511 1.97096 0
M  V30 4267 H 404.042 1.11105 0.964054 0
M  V30 4268 H 406 0.915012 4.07042 0
M  V30 4269 H 404.63 0.148822 3.22457 0
M  V30 4270 H 403.682 2.53711 2.83434 0
M  V30 4271 H 404.994 3.1601 3.85927 0
M  V30 4272 H 404.148 1.81099 5.7904 0
M  V30 4273 H 402.887 1.0839 4.75503 0
M  V30 4274 H 401.892 3.35404 4.35642 0
M  V30 4275 H 403.117 4.08339 5.4262 0
M  V30 4276 H 401.063 1.99568 6.24907 0
M  V30 4277 H 400.98 3.69141 6.59751 0
M  V30 4278 H 402.248 2.73226 7.30047 0
M  V30 4279 N 406.477 -1.02803 1.19454 0
M  V30 4280 C 407.725 -1.75869 0.995722 0
M  V30 4281 C 408.046 -1.89138 -0.474543 0
M  V30 4282 O 407.316 -1.42558 -1.34366 0
M  V30 4283 H 405.896 -0.651511 0.365435 0
M  V30 4284 H 408.558 -1.24004 1.50363 0
M  V30 4285 H 407.654 -2.76661 1.44447 0
M  V30 4286 N 407.956 -0.998596 -1.21925 0
M  V30 4287 C 408.889 -0.498517 -2.22688 0
M  V30 4288 C 409.867 0.444301 -1.56412 0
M  V30 4289 O 411.051 0.368518 -1.84863 0
M  V30 4290 C 408.178 0.276639 -3.37568 0
M  V30 4291 C 407.224 -0.61302 -4.22071 0
M  V30 4292 S 408.057 -2.07168 -4.93803 0
M  V30 4293 C 409.213 -1.30617 -6.12119 0
M  V30 4294 H 409.446 -1.35234 -2.64762 0
M  V30 4295 H 406.979 -0.806018 -1.31692 0
M  V30 4296 H 408.937 0.717817 -4.04175 0
M  V30 4297 H 407.598 1.10581 -2.93991 0
M  V30 4298 H 406.791 -0.0162909 -5.03997 0
M  V30 4299 H 406.393 -0.991202 -3.60626 0
M  V30 4300 H 408.685 -0.57675 -6.75041 0
M  V30 4301 H 409.628 -2.10091 -6.76215 0
M  V30 4302 H 410.036 -0.816957 -5.58557 0
M  V30 4303 N 409.434 1.37368 -0.772513 0
M  V30 4304 C 410.366 2.28899 -0.117502 0
M  V30 4305 C 411.379 1.4867 0.663405 0
M  V30 4306 O 412.568 1.71314 0.501372 0
M  V30 4307 C 409.668 3.2788 0.857192 0
M  V30 4308 C 408.841 4.37207 0.129938 0
M  V30 4309 C 407.9 5.16257 1.01811 0
M  V30 4310 O 406.926 5.67159 0.481601 0
M  V30 4311 N 408.128 5.31058 2.3443 0
M  V30 4312 H 410.893 2.85752 -0.903662 0
M  V30 4313 H 408.454 1.49353 -0.62493 0
M  V30 4314 H 410.446 3.77647 1.45482 0
M  V30 4315 H 409.016 2.7179 1.54432 0
M  V30 4316 H 408.236 3.88827 -0.648605 0
M  V30 4317 H 409.524 5.07434 -0.372559 0
M  V30 4318 H 408.922 4.91287 2.80452 0
M  V30 4319 H 407.479 5.84131 2.89197 0
M  V30 4320 N 410.912 0.523116 1.48665 0
M  V30 4321 C 412.161 -0.01544 2.01694 0
M  V30 4322 C 412.474 -1.35975 1.40606 0
M  V30 4323 O 413.68 -1.98627 1.85093 0
M  V30 4324 C 412.136 -0.0779303 3.59816 0
M  V30 4325 C 411.744 1.26107 4.29885 0
M  V30 4326 C 413.488 -0.565678 4.20714 0
M  V30 4327 C 411.395 1.15954 5.79921 0
M  V30 4328 H 410.325 -0.00954163 0.75394 0
M  V30 4329 H 412.976 0.665865 1.70993 0
M  V30 4330 H 411.358 -0.824165 3.87329 0
M  V30 4331 H 412.532 2.02233 4.14051 0
M  V30 4332 H 410.847 1.68401 3.80828 0
M  V30 4333 H 413.444 -0.6595 5.30617 0
M  V30 4334 H 413.787 -1.56984 3.85567 0
M  V30 4335 H 414.32 0.12467 3.97605 0
M  V30 4336 H 411.059 2.13864 6.19631 0
M  V30 4337 H 410.579 0.439529 5.98187 0
M  V30 4338 H 412.258 0.847361 6.41427 0
M  V30 4339 N 412.39 -1.55475 0.257931 0
M  V30 4340 C 413.638 -1.98813 -0.363009 0
M  V30 4341 C 413.959 -1.14757 -1.57657 0
M  V30 4342 O 413.229 -0.232956 -1.9451 0
M  V30 4343 H 411.809 -0.734308 -0.137113 0
M  V30 4344 H 414.471 -1.9156 0.359281 0
M  V30 4345 H 413.567 -3.04941 -0.664634 0
M  V30 4346 N 413.868 0.0150385 -1.57593 0
M  V30 4347 C 415.116 0.701613 -1.8953 0
M  V30 4348 C 415.437 1.75139 -0.857396 0
M  V30 4349 O 414.707 1.95607 0.107194 0
M  V30 4350 H 413.287 0.26213 -0.699498 0
M  V30 4351 H 415.949 -0.0223304 -1.94887 0
M  V30 4352 H 415.045 1.18236 -2.88837 0
M  V30 4353 N 415.346 1.54954 0.287554 0
M  V30 4354 C 416.309 1.86076 1.33823 0
M  V30 4355 C 417.309 0.734414 1.43049 0
M  V30 4356 O 418.499 1.00266 1.42452 0
M  V30 4357 C 415.631 2.05305 2.72144 0
M  V30 4358 H 416.824 2.79984 1.07465 0
M  V30 4359 H 414.377 1.47223 0.524902 0
M  V30 4360 H 415.112 1.1373 3.03704 0
M  V30 4361 H 414.897 2.873 2.66836 0
M  V30 4362 H 416.387 2.30706 3.48087 0
M  V30 4363 N 416.824 -0.551391 1.4764 0
M  V30 4364 C 417.787 -1.64007 1.60107 0
M  V30 4365 C 418.787 -1.53601 0.47576 0
M  V30 4366 O 419.977 -1.57655 0.740988 0
M  V30 4367 C 417.109 -3.03569 1.55108 0
M  V30 4368 H 418.302 -1.543 2.57161 0
M  V30 4369 H 415.855 -0.771776 1.35917 0
M  V30 4370 H 416.59 -3.18804 0.594519 0
M  V30 4371 H 416.375 -3.12532 2.36783 0
M  V30 4372 H 417.865 -3.82762 1.66982 0
M  V30 4373 N 418.302 -1.35869 -0.798587 0
M  V30 4374 C 419.548 -1.2978 -1.55836 0
M  V30 4375 C 419.881 0.125322 -1.93795 0
M  V30 4376 O 419.156 1.07658 -1.61987 0
M  V30 4377 C 419.439 -2.21188 -2.84162 0
M  V30 4378 C 419.292 -3.72155 -2.52628 0
M  V30 4379 C 420.611 -2.11545 -3.85923 0
M  V30 4380 H 417.73 -0.472769 -0.565383 0
M  V30 4381 H 420.372 -1.66341 -0.918192 0
M  V30 4382 H 418.522 -1.90139 -3.38791 0
M  V30 4383 H 420.194 -4.13682 -2.04121 0
M  V30 4384 H 418.437 -3.92042 -1.85704 0
M  V30 4385 H 419.108 -4.31511 -3.44242 0
M  V30 4386 H 421.584 -2.38855 -3.40716 0
M  V30 4387 H 420.46 -2.77688 -4.73477 0
M  V30 4388 H 420.721 -1.09987 -4.282 0
M  V30 4389 N 419.78 1.02168 -1.19998 0
M  V30 4390 C 420.73 2.08969 -0.911921 0
M  V30 4391 C 421.714 1.60404 0.12621 0
M  V30 4392 O 422.906 1.76817 -0.0804706 0
M  V30 4393 C 420.035 3.402 -0.460277 0
M  V30 4394 C 419.121 3.9548 -1.53155 0
M  V30 4395 N 419.512 4.24332 -2.75275 0
M  V30 4396 C 417.81 4.23572 -1.39653 0
M  V30 4397 C 418.511 4.68834 -3.44339 0
M  V30 4398 N 417.487 4.70804 -2.71744 0
M  V30 4399 H 421.289 2.29178 -1.83997 0
M  V30 4400 H 418.803 1.20094 -1.09322 0
M  V30 4401 H 420.8 4.16235 -0.235337 0
M  V30 4402 H 419.46 3.21408 0.4612 0
M  V30 4403 H 420.471 4.13393 -3.11973 0
M  V30 4404 H 417.148 4.14005 -0.539067 0
M  V30 4405 H 418.538 5.00019 -4.4881 0
M  V30 4406 N 421.258 1.00505 1.21394 0
M  V30 4407 C 422.674 0.717873 1.42544 0
M  V30 4408 C 422.874 -0.706936 1.88692 0
M  V30 4409 O 421.93 -1.47627 2.04847 0
M  V30 4410 C 423.243 1.73377 2.45684 0
M  V30 4411 C 424.791 1.75059 2.59467 0
M  V30 4412 C 425.266 2.75545 3.6584 0
M  V30 4413 N 426.757 2.74213 3.73311 0
M  V30 4414 C 427.492 3.48626 4.55245 0
M  V30 4415 N 426.988 4.32678 5.41075 0
M  V30 4416 N 428.781 3.37276 4.49668 0
M  V30 4417 H 420.932 1.92506 0.897503 0
M  V30 4418 H 423.195 0.830919 0.456375 0
M  V30 4419 H 422.901 2.75395 2.18748 0
M  V30 4420 H 422.775 1.53647 3.44489 0
M  V30 4421 H 425.162 0.737337 2.8574 0
M  V30 4422 H 425.243 1.98861 1.60897 0
M  V30 4423 H 424.887 3.77028 3.40313 0
M  V30 4424 H 424.817 2.49009 4.64007 0
M  V30 4425 H 427.308 2.13234 3.11993 0
M  V30 4426 H 427.621 4.86253 6.00648 0
M  V30 4427 H 425.966 4.3676 5.40616 0
M  V30 4428 H 429.157 2.71043 3.81646 0
M  V30 4429 H 429.33 3.95524 5.13288 0
M  V30 4430 N 422.737 -1.36956 0.779787 0
M  V30 4431 C 423.669 -2.28833 0.129639 0
M  V30 4432 C 424.682 -1.4902 -0.655511 0
M  V30 4433 O 425.871 -1.71578 -0.492279 0
M  V30 4434 C 422.971 -3.2833 -0.839792 0
M  V30 4435 C 422.144 -4.3727 -0.10675 0
M  V30 4436 C 421.203 -5.16789 -0.990717 0
M  V30 4437 O 420.229 -5.67406 -0.451516 0
M  V30 4438 N 421.431 -5.32294 -2.3161 0
M  V30 4439 H 424.196 -2.85268 0.918803 0
M  V30 4440 H 421.757 -1.49019 0.632841 0
M  V30 4441 H 423.749 -3.78413 -1.43477 0
M  V30 4442 H 422.319 -2.72605 -1.52988 0
M  V30 4443 H 421.539 -3.88478 0.669216 0
M  V30 4444 H 422.827 -5.07229 0.399464 0
M  V30 4445 H 422.225 -4.92768 -2.77843 0
M  V30 4446 H 420.782 -5.85656 -2.86095 0
M  V30 4447 N 424.215 -0.530993 -1.48385 0
M  V30 4448 C 425.147 0.268353 -2.27624 0
M  V30 4449 C 426.16 0.903525 -1.35426 0
M  V30 4450 O 427.349 0.781796 -1.60469 0
M  V30 4451 C 424.449 1.39535 -3.08842 0
M  V30 4452 C 423.622 0.861913 -4.28824 0
M  V30 4453 C 422.681 1.87016 -4.91845 0
M  V30 4454 O 421.707 1.4267 -5.5103 0
M  V30 4455 N 422.909 3.20238 -4.84178 0
M  V30 4456 H 425.674 -0.41123 -2.96865 0
M  V30 4457 H 423.235 -0.365387 -1.57723 0
M  V30 4458 H 425.227 2.06803 -3.47871 0
M  V30 4459 H 423.797 1.97859 -2.42014 0
M  V30 4460 H 423.017 0.0132126 -3.94198 0
M  V30 4461 H 424.305 0.484415 -5.06489 0
M  V30 4462 H 423.703 3.58932 -4.37246 0
M  V30 4463 H 422.26 3.83136 -5.27305 0
M  V30 4464 N 425.693 1.55336 -0.266172 0
M  V30 4465 C 426.656 2.20878 0.612001 0
M  V30 4466 C 427.656 1.18388 1.08816 0
M  V30 4467 O 428.846 1.4335 0.989774 0
M  V30 4468 C 425.978 2.86765 1.84332 0
M  V30 4469 H 427.171 2.99873 0.0398718 0
M  V30 4470 H 424.724 1.56291 -0.0167309 0
M  V30 4471 H 425.459 2.11759 2.45619 0
M  V30 4472 H 425.244 3.61862 1.5099 0
M  V30 4473 H 426.734 3.36867 2.46801 0
M  V30 4474 N 427.171 -0.0066808 1.57599 0
M  V30 4475 C 428.101 -0.999296 2.11036 0
M  V30 4476 C 429.082 -1.36278 1.01795 0
M  V30 4477 O 430.267 -1.4477 1.29442 0
M  V30 4478 C 427.397 -2.29328 2.60818 0
M  V30 4479 C 426.351 -2.07159 3.74525 0
M  V30 4480 C 425.677 -3.42512 4.10596 0
M  V30 4481 C 426.977 -1.43959 5.02069 0
M  V30 4482 H 428.671 -0.554382 2.94223 0
M  V30 4483 H 426.217 -0.265221 1.41536 0
M  V30 4484 H 428.17 -2.99117 2.96828 0
M  V30 4485 H 426.894 -2.7592 1.74745 0
M  V30 4486 H 425.553 -1.39797 3.38899 0
M  V30 4487 H 425.201 -3.86795 3.21556 0
M  V30 4488 H 424.901 -3.28498 4.87199 0
M  V30 4489 H 426.425 -4.13628 4.4916 0
M  V30 4490 H 427.839 -2.03696 5.35893 0
M  V30 4491 H 426.236 -1.40452 5.83432 0
M  V30 4492 H 427.306 -0.407992 4.83181 0
M  V30 4493 N 428.649 -1.55105 -0.279332 0
M  V30 4494 C 429.895 -1.75672 -1.01327 0
M  V30 4495 C 430.228 -0.552739 -1.86168 0
M  V30 4496 O 429.503 0.449827 -1.89227 0
M  V30 4497 C 429.786 -3.05825 -1.90114 0
M  V30 4498 C 429.639 -4.36565 -1.08309 0
M  V30 4499 C 430.958 -3.31975 -2.8893 0
M  V30 4500 H 428.077 -0.639149 -0.366957 0
M  V30 4501 H 430.719 -1.87833 -0.286154 0
M  V30 4502 H 428.869 -2.95588 -2.52111 0
M  V30 4503 H 430.541 -4.58751 -0.484314 0
M  V30 4504 H 428.784 -4.32076 -0.386362 0
M  V30 4505 H 429.455 -5.23946 -1.73737 0
M  V30 4506 H 431.931 -3.41963 -2.37067 0
M  V30 4507 H 430.807 -4.2432 -3.48201 0
M  V30 4508 H 431.068 -2.51309 -3.63725 0
M  V30 4509 N 430.127 0.543554 -1.4793 0
M  V30 4510 C 431.057 1.65888 -1.64327 0
M  V30 4511 C 432.038 1.62818 -0.492383 0
M  V30 4512 O 433.223 1.80226 -0.723338 0
M  V30 4513 C 430.353 3.04506 -1.67013 0
M  V30 4514 C 429.307 3.2243 -2.81466 0
M  V30 4515 C 428.633 4.61972 -2.69233 0
M  V30 4516 C 429.933 3.06496 -4.22915 0
M  V30 4517 H 431.627 1.52421 -2.57698 0
M  V30 4518 H 429.173 0.731849 -1.24016 0
M  V30 4519 H 431.126 3.82391 -1.77074 0
M  V30 4520 H 429.85 3.18964 -0.70212 0
M  V30 4521 H 428.509 2.46957 -2.70938 0
M  V30 4522 H 428.157 4.73247 -1.7043 0
M  V30 4523 H 427.857 4.74911 -3.46025 0
M  V30 4524 H 429.381 5.41974 -2.81242 0
M  V30 4525 H 430.795 3.74186 -4.34348 0
M  V30 4526 H 429.192 3.30938 -5.006 0
M  V30 4527 H 430.262 2.03077 -4.40327 0
M  V30 4528 N 431.605 1.3629 0.791371 0
M  V30 4529 C 432.854 1.29742 1.54434 0
M  V30 4530 C 433.167 -0.121729 1.95221 0
M  V30 4531 O 434.373 -0.309579 2.69729 0
M  V30 4532 C 432.829 2.27623 2.78776 0
M  V30 4533 C 432.437 3.74963 2.45166 0
M  V30 4534 C 434.181 2.30047 3.56761 0
M  V30 4535 C 432.088 4.64626 3.65891 0
M  V30 4536 H 431.018 0.482113 0.579727 0
M  V30 4537 H 433.669 1.61642 0.868565 0
M  V30 4538 H 432.051 1.88714 3.48142 0
M  V30 4539 H 433.225 4.22596 1.83709 0
M  V30 4540 H 431.54 3.75295 1.80396 0
M  V30 4541 H 434.137 2.94247 4.46456 0
M  V30 4542 H 434.48 1.30846 3.95203 0
M  V30 4543 H 435.013 2.67563 2.94372 0
M  V30 4544 H 431.752 5.64883 3.32547 0
M  V30 4545 H 431.272 4.2171 4.26521 0
M  V30 4546 H 432.951 4.80801 4.32943 0
M  V30 4547 N 433.083 -1.0153 1.20538 0
M  V30 4548 C 434.031 -2.12215 0.952235 0
M  V30 4549 C 435.025 -1.69123 -0.0968735 0
M  V30 4550 O 436.231 -1.7992 0.0536006 0
M  V30 4551 H 432.606 -0.693576 0.290613 0
M  V30 4552 H 434.577 -2.3075 1.89201 0
M  V30 4553 C 433.326 -3.43755 0.522287 0
M  V30 4554 H 432.649 -3.7734 1.32115 0
M  V30 4555 H 434.089 -4.22254 0.384389 0
M  V30 4556 C 432.548 -3.28088 -0.765489 0
M  V30 4557 O 433.078 -3.57921 -1.8236 0
M  V30 4558 N 431.284 -2.81333 -0.728011 0
M  V30 4559 H 430.831 -2.57255 0.133332 0
M  V30 4560 H 430.789 -2.71232 -1.58999 0
M  V30 4561 N 434.561 -1.01147 -1.20859 0
M  V30 4562 C 435.471 -0.58686 -2.27141 0
M  V30 4563 C 436.487 0.373198 -1.69951 0
M  V30 4564 O 437.663 0.235423 -2.00019 0
M  V30 4565 C 434.728 0.0733602 -3.46622 0
M  V30 4566 C 433.789 -0.931995 -4.19061 0
M  V30 4567 C 433.022 -0.303186 -5.32838 0
M  V30 4568 O 433.245 0.898395 -5.63281 0
M  V30 4569 O 432.179 -1.01735 -5.9324 0
M  V30 4570 H 436.005 -1.47155 -2.65667 0
M  V30 4571 H 433.59 -0.780689 -1.2738 0
M  V30 4572 H 435.472 0.442333 -4.19072 0
M  V30 4573 H 434.147 0.932329 -3.09983 0
M  V30 4574 H 433.054 -1.35224 -3.48805 0
M  V30 4575 H 434.387 -1.76076 -4.59628 0
M  V30 4576 N 436.039 1.36541 -0.78704 0
M  V30 4577 C 437.316 1.9355 -0.282424 0
M  V30 4578 C 437.696 1.71919 1.22503 0
M  V30 4579 O 437.044 1.07677 2.01539 0
M  V30 4580 C 437.254 3.4246 -0.672462 0
M  V30 4581 C 438.602 4.19582 -0.650863 0
M  V30 4582 O 439.626 3.50889 -0.612789 0
M  V30 4583 O 438.485 5.42106 -0.691623 0
M  V30 4584 H 435.579 0.824091 -0.0693 0
M  V30 4585 H 438.125 1.45736 -0.869423 0
M  V30 4586 H 436.897 3.51851 -1.71221 0
M  V30 4587 H 436.52 3.97556 -0.0592211 0
M  V30 4588 N 437.518 0.538854 1.48102 0
M  V30 4589 C 438.466 -0.232325 2.31437 0
M  V30 4590 C 439.46 -0.927004 1.41785 0
M  V30 4591 O 440.666 -0.850378 1.58646 0
M  V30 4592 H 437.041 -0.0937916 0.746128 0
M  V30 4593 H 439.012 0.489986 2.9435 0
M  V30 4594 C 437.761 -1.26074 3.24038 0
M  V30 4595 H 437.084 -0.735609 3.92974 0
M  V30 4596 H 438.524 -1.77157 3.85216 0
M  V30 4597 C 436.983 -2.29902 2.46265 0
M  V30 4598 O 437.513 -3.36502 2.19384 0
M  V30 4599 N 435.719 -2.03348 2.07601 0
M  V30 4600 H 435.266 -1.16675 2.29662 0
M  V30 4601 H 435.224 -2.73038 1.55877 0
M  V30 4602 N 438.996 -1.55193 0.274407 0
M  V30 4603 C 439.959 -2.212 -0.600279 0
M  V30 4604 C 440.959 -1.18963 -1.08187 0
M  V30 4605 O 442.149 -1.43873 -0.982158 0
M  V30 4606 C 439.281 -2.87739 -1.82809 0
M  V30 4607 H 440.474 -2.9989 -0.0239682 0
M  V30 4608 H 438.027 -1.5628 0.0250192 0
M  V30 4609 H 438.762 -2.13058 -2.44493 0
M  V30 4610 H 438.547 -3.62658 -1.49069 0
M  V30 4611 H 440.037 -3.38171 -2.45011 0
M  V30 4612 N 440.474 -0.00167713 -1.576 0
M  V30 4613 C 441.421 0.989195 -2.08527 0
M  V30 4614 C 442.391 1.34031 -0.981065 0
M  V30 4615 O 443.576 1.43839 -1.2536 0
M  V30 4616 C 440.716 2.27537 -2.59463 0
M  V30 4617 C 439.829 1.98314 -3.83791 0
M  V30 4618 C 438.964 3.21025 -4.23222 0
M  V30 4619 C 438.003 2.87495 -5.40382 0
M  V30 4620 N 437.14 4.02749 -5.75098 0
M  V30 4621 H 441.98 0.547973 -2.92919 0
M  V30 4622 H 439.517 0.258917 -1.44803 0
M  V30 4623 H 441.475 3.02729 -2.87073 0
M  V30 4624 H 440.105 2.69325 -1.77943 0
M  V30 4625 H 439.157 1.13482 -3.63078 0
M  V30 4626 H 440.469 1.69601 -4.69081 0
M  V30 4627 H 439.623 4.04561 -4.52123 0
M  V30 4628 H 438.362 3.52877 -3.36644 0
M  V30 4629 H 437.367 2.02367 -5.11202 0
M  V30 4630 H 438.592 2.56889 -6.28637 0
M  V30 4631 H 436.538 4.34494 -4.91478 0
M  V30 4632 H 436.455 3.77566 -6.54966 0
M  V30 4633 H 437.723 4.87068 -6.08592 0
M  V30 4634 N 441.952 1.55251 0.271103 0
M  V30 4635 C 443.177 1.80306 1.02491 0
M  V30 4636 C 443.602 0.575457 1.79081 0
M  V30 4637 O 442.96 -0.474987 1.74967 0
M  V30 4638 C 443.008 3.02832 1.95768 0
M  V30 4639 O 442.112 2.78051 3.04568 0
M  V30 4640 H 441.453 0.595896 0.292923 0
M  V30 4641 H 443.983 2.02397 0.299436 0
M  V30 4642 H 443.993 3.31616 2.37686 0
M  V30 4643 H 442.668 3.9183 1.39434 0
M  V30 4644 H 441.245 2.60369 2.66951 0
M  V30 4645 N 443.43 -0.535701 1.48216 0
M  V30 4646 C 444.34 -1.66785 1.64985 0
M  V30 4647 C 445.356 -1.65654 0.532414 0
M  V30 4648 O 446.532 -1.8471 0.80275 0
M  V30 4649 C 443.597 -3.0326 1.68031 0
M  V30 4650 C 442.658 -3.1529 2.9136 0
M  V30 4651 C 441.891 -4.45255 2.94252 0
M  V30 4652 O 442.114 -5.32011 2.05719 0
M  V30 4653 O 441.048 -4.6153 3.86359 0
M  V30 4654 H 444.874 -1.55576 2.60825 0
M  V30 4655 H 442.459 -0.70815 1.31551 0
M  V30 4656 H 444.341 -3.84436 1.72589 0
M  V30 4657 H 443.016 -3.14805 0.753628 0
M  V30 4658 H 441.923 -2.3343 2.92337 0
M  V30 4659 H 443.256 -3.08658 3.83394 0
M  V30 4660 N 444.908 -1.36708 -0.784132 0
M  V30 4661 C 446.185 -1.21776 -1.53069 0
M  V30 4662 C 446.565 0.193876 -2.10208 0
M  V30 4663 O 445.913 1.20012 -1.94446 0
M  V30 4664 C 446.123 -2.30395 -2.62143 0
M  V30 4665 C 447.471 -2.67325 -3.29882 0
M  V30 4666 O 448.495 -2.29478 -2.7243 0
M  V30 4667 O 447.354 -3.32485 -4.33724 0
M  V30 4668 H 444.448 -0.474459 -0.677361 0
M  V30 4669 H 446.994 -1.48454 -0.82216 0
M  V30 4670 H 445.766 -3.2498 -2.17953 0
M  V30 4671 H 445.389 -2.05112 -3.40609 0
M  V30 4672 N 446.386 1.0089 -1.21074 0
M  V30 4673 C 447.632 1.74866 -1.02712 0
M  V30 4674 C 447.965 1.89178 0.438787 0
M  V30 4675 O 447.24 1.42325 1.32567 0
M  V30 4676 C 447.523 3.16347 -1.72036 0
M  V30 4677 C 447.376 3.09782 -3.26121 0
M  V30 4678 C 448.695 4.15187 -1.45973 0
M  V30 4679 H 445.814 0.634736 -0.374539 0
M  V30 4680 H 448.456 1.17646 -1.49196 0
M  V30 4681 H 446.606 3.65201 -1.32517 0
M  V30 4682 H 448.278 2.68673 -3.74983 0
M  V30 4683 H 446.521 2.46982 -3.56626 0
M  V30 4684 H 447.192 4.09829 -3.6979 0
M  V30 4685 H 449.668 3.75022 -1.80272 0
M  V30 4686 H 448.544 5.12331 -1.96999 0
M  V30 4687 H 448.805 4.40386 -0.388924 0
M  V30 4688 N 447.864 1.01787 1.20321 0
M  V30 4689 C 449.11 0.708985 1.90003 0
M  V30 4690 C 449.443 -0.759572 1.78729 0
M  V30 4691 O 448.718 -1.55198 1.17234 0
M  V30 4692 C 449.001 1.1469 3.41348 0
M  V30 4693 C 448.854 2.67586 3.61549 0
M  V30 4694 C 450.173 0.71915 4.34185 0
M  V30 4695 H 447.292 0.259034 0.689978 0
M  V30 4696 H 449.934 1.26584 1.41692 0
M  V30 4697 H 448.084 0.673128 3.82624 0
M  V30 4698 H 449.756 3.22826 3.29517 0
M  V30 4699 H 447.999 3.085 3.04976 0
M  V30 4700 H 448.67 2.93281 4.67643 0
M  V30 4701 H 451.146 1.12647 4.00562 0
M  V30 4702 H 450.022 1.05358 5.38694 0
M  V30 4703 H 450.283 -0.379111 4.40472 0
M  V30 4704 N 449.342 -1.36122 0.79427 0
M  V30 4705 C 450.274 -2.28683 0.153903 0
M  V30 4706 C 451.287 -1.49707 -0.639669 0
M  V30 4707 O 452.476 -1.7209 -0.474054 0
M  V30 4708 C 449.576 -3.29202 -0.804921 0
M  V30 4709 C 448.749 -4.37358 -0.060366 0
M  V30 4710 C 447.808 -5.17811 -0.935849 0
M  V30 4711 O 446.834 -5.67853 -0.391309 0
M  V30 4712 N 448.036 -5.34721 -2.25951 0
M  V30 4713 H 450.801 -2.84278 0.949008 0
M  V30 4714 H 448.362 -1.4834 0.648611 0
M  V30 4715 H 450.354 -3.79914 -1.39455 0
M  V30 4716 H 448.924 -2.74212 -1.50088 0
M  V30 4717 H 448.144 -3.87746 0.710382 0
M  V30 4718 H 449.432 -5.06777 0.45324 0
M  V30 4719 H 448.83 -4.95687 -2.72601 0
M  V30 4720 H 447.387 -5.88657 -2.79867 0
M  V30 4721 N 450.82 -0.546701 -1.47814 0
M  V30 4722 C 451.75 0.195317 -2.32682 0
M  V30 4723 C 452.731 0.918981 -1.43139 0
M  V30 4724 O 453.916 0.901501 -1.72008 0
M  V30 4725 C 451.046 1.23237 -3.247 0
M  V30 4726 C 450 0.625818 -4.234 0
M  V30 4727 C 449.326 1.76674 -5.04669 0
M  V30 4728 C 450.626 -0.413515 -5.2066 0
M  V30 4729 H 452.32 -0.513184 -2.94969 0
M  V30 4730 H 449.866 -0.248241 -1.41844 0
M  V30 4731 H 451.819 1.75955 -3.82907 0
M  V30 4732 H 450.543 1.97067 -2.60446 0
M  V30 4733 H 449.202 0.120023 -3.66403 0
M  V30 4734 H 448.85 2.49383 -4.36826 0
M  V30 4735 H 448.55 1.36673 -5.71484 0
M  V30 4736 H 450.074 2.29738 -5.65732 0
M  V30 4737 H 451.488 0.0272042 -5.73294 0
M  V30 4738 H 449.885 -0.731825 -5.95621 0
M  V30 4739 H 450.955 -1.31325 -4.66778 0
M  V30 4740 N 452.299 1.55045 -0.282633 0
M  V30 4741 C 453.262 2.21515 0.588539 0
M  V30 4742 C 454.262 1.19535 1.07554 0
M  V30 4743 O 455.452 1.44391 0.974514 0
M  V30 4744 C 452.584 2.88704 1.8128 0
M  V30 4745 H 453.777 2.99899 0.00806397 0
M  V30 4746 H 451.33 1.56265 -0.0333067 0
M  V30 4747 H 452.065 2.14352 2.43359 0
M  V30 4748 H 451.85 3.63443 1.47144 0
M  V30 4749 H 453.34 3.39465 2.43214 0
M  V30 4750 N 453.777 0.010035 1.57597 0
M  V30 4751 C 454.727 -0.986858 2.05536 0
M  V30 4752 C 455.711 -1.29711 0.952042 0
M  V30 4753 O 456.903 -1.28641 1.21575 0
M  V30 4754 C 454.032 -2.2756 2.57043 0
M  V30 4755 C 453.118 -1.99455 3.74271 0
M  V30 4756 N 453.509 -1.41546 4.85591 0
M  V30 4757 C 451.807 -2.29547 3.82393 0
M  V30 4758 C 452.508 -1.3014 5.66956 0
M  V30 4759 N 451.484 -1.79044 5.13268 0
M  V30 4760 H 455.286 -0.533778 2.89012 0
M  V30 4761 H 452.8 -0.195432 1.6122 0
M  V30 4762 H 454.797 -2.99829 2.89669 0
M  V30 4763 H 453.457 -2.73512 1.7499 0
M  V30 4764 H 454.468 -1.09294 5.06236 0
M  V30 4765 H 451.145 -2.78304 3.11213 0
M  V30 4766 H 452.535 -0.855237 6.66435 0
M  V30 4767 N 455.255 -1.55392 -0.262866 0
M  V30 4768 C 456.205 -1.85355 -1.32768 0
M  V30 4769 C 457.189 -0.713188 -1.44231 0
M  V30 4770 O 458.381 -0.974765 -1.47741 0
M  V30 4771 C 455.51 -2.13781 -2.68612 0
M  V30 4772 C 454.596 -3.34104 -2.61219 0
M  V30 4773 N 454.987 -4.53766 -2.2345 0
M  V30 4774 C 453.285 -3.36895 -2.92263 0
M  V30 4775 C 453.986 -5.35877 -2.26298 0
M  V30 4776 N 452.962 -4.74536 -2.65172 0
M  V30 4777 H 456.764 -2.75413 -1.02591 0
M  V30 4778 H 454.278 -1.55405 -0.471503 0
M  V30 4779 H 456.275 -2.33407 -3.45437 0
M  V30 4780 H 454.935 -1.25013 -2.99669 0
M  V30 4781 H 455.946 -4.79682 -1.95258 0
M  V30 4782 H 452.623 -2.58351 -3.27965 0
M  V30 4783 H 454.013 -6.41577 -1.99572 0
M  V30 4784 N 456.733 0.527833 -1.48498 0
M  V30 4785 C 457.979 1.28545 -1.56857 0
M  V30 4786 C 458.312 1.92678 -0.242651 0
M  V30 4787 O 457.587 1.79394 0.751545 0
M  V30 4788 C 457.87 2.37314 -2.70839 0
M  V30 4789 C 457.723 1.77858 -4.13142 0
M  V30 4790 C 459.042 3.39068 -2.80573 0
M  V30 4791 H 456.161 0.466006 -0.570971 0
M  V30 4792 H 458.803 0.587784 -1.8068 0
M  V30 4793 H 456.953 2.96821 -2.50658 0
M  V30 4794 H 458.625 1.22385 -4.44769 0
M  V30 4795 H 456.868 1.08383 -4.20042 0
M  V30 4796 H 457.539 2.56624 -4.88721 0
M  V30 4797 H 460.015 2.89518 -2.98862 0
M  V30 4798 H 458.891 4.12566 -3.6205 0
M  V30 4799 H 459.152 3.9975 -1.88818 0
M  V30 4800 N 458.211 1.37122 0.776871 0
M  V30 4801 C 459.627 1.1781 1.07671 0
M  V30 4802 C 459.827 0.0107454 2.01497 0
M  V30 4803 O 458.883 -0.650756 2.4397 0
M  V30 4804 C 460.196 2.49451 1.67913 0
M  V30 4805 C 461.744 2.55927 1.80195 0
M  V30 4806 C 462.219 3.87686 2.43851 0
M  V30 4807 N 463.71 3.891 2.51307 0
M  V30 4808 C 464.445 4.87797 3.014 0
M  V30 4809 N 463.941 5.96888 3.51705 0
M  V30 4810 N 465.734 4.75205 3.00227 0
M  V30 4811 H 457.885 2.11843 0.153778 0
M  V30 4812 H 460.148 0.938927 0.130844 0
M  V30 4813 H 459.854 3.35207 1.06439 0
M  V30 4814 H 459.728 2.66169 2.67271 0
M  V30 4815 H 462.115 1.70582 2.40803 0
M  V30 4816 H 462.196 2.43097 0.796069 0
M  V30 4817 H 461.84 4.73444 1.83884 0
M  V30 4818 H 461.77 3.97817 3.45035 0
M  V30 4819 H 464.261 3.10293 2.157 0
M  V30 4820 H 464.574 6.68155 3.88316 0
M  V30 4821 H 462.919 6.0054 3.49824 0
M  V30 4822 H 466.11 3.89103 2.60224 0
M  V30 4823 H 466.283 5.52279 3.38957 0
M  V30 4824 N 459.689 -1.00246 1.21608 0
M  V30 4825 C 460.621 -2.09244 0.935401 0
M  V30 4826 C 461.634 -1.62592 -0.0823594 0
M  V30 4827 O 462.823 -1.77865 0.150456 0
M  V30 4828 C 459.923 -3.36724 0.383453 0
M  V30 4829 C 459.096 -4.1245 1.45615 0
M  V30 4830 C 458.155 -5.18219 0.912991 0
M  V30 4831 O 457.181 -5.46337 1.59701 0
M  V30 4832 N 458.383 -5.7987 -0.270478 0
M  V30 4833 H 461.148 -2.33905 1.87373 0
M  V30 4834 H 458.709 -1.16748 1.12167 0
M  V30 4835 H 460.701 -4.047 0.00562157 0
M  V30 4836 H 459.271 -3.09201 -0.459758 0
M  V30 4837 H 458.491 -3.39241 2.00772 0
M  V30 4838 H 459.779 -4.59819 2.17817 0
M  V30 4839 H 459.177 -5.59381 -0.843195 0
M  V30 4840 H 457.734 -6.49126 -0.589794 0
M  V30 4841 N 461.167 -1.02423 -1.1978 0
M  V30 4842 C 462.114 -0.601023 -2.22837 0
M  V30 4843 C 463.084 0.382801 -1.61629 0
M  V30 4844 O 464.269 0.280514 -1.88727 0
M  V30 4845 C 461.409 0.0467755 -3.45068 0
M  V30 4846 C 460.522 -0.98253 -4.20678 0
M  V30 4847 C 459.657 -0.304982 -5.30324 0
M  V30 4848 C 458.696 -1.32052 -5.97686 0
M  V30 4849 N 457.833 -0.669105 -6.98904 0
M  V30 4850 H 462.673 -1.48444 -2.58396 0
M  V30 4851 H 460.21 -0.742936 -1.2696 0
M  V30 4852 H 462.168 0.439556 -4.14878 0
M  V30 4853 H 460.798 0.893796 -3.10179 0
M  V30 4854 H 459.85 -1.49341 -3.49859 0
M  V30 4855 H 461.162 -1.75455 -4.66923 0
M  V30 4856 H 460.316 0.142893 -6.06532 0
M  V30 4857 H 459.055 0.499283 -4.85138 0
M  V30 4858 H 458.06 -1.7787 -5.20233 0
M  V30 4859 H 459.285 -2.1262 -6.44957 0
M  V30 4860 H 457.231 0.115152 -6.55899 0
M  V30 4861 H 457.148 -1.37908 -7.43315 0
M  V30 4862 H 458.416 -0.245076 -7.79115 0
M  V30 4863 N 462.645 1.35699 -0.801477 0
M  V30 4864 C 463.891 1.99208 -0.380022 0
M  V30 4865 C 464.224 1.63445 1.04878 0
M  V30 4866 O 463.499 0.895223 1.72673 0
M  V30 4867 C 463.782 3.55755 -0.557708 0
M  V30 4868 C 463.635 4.01332 -2.03107 0
M  V30 4869 C 464.954 4.40096 0.0197968 0
M  V30 4870 H 462.073 0.723667 -0.139552 0
M  V30 4871 H 464.715 1.60928 -1.01006 0
M  V30 4872 H 462.865 3.88494 -0.0213741 0
M  V30 4873 H 464.537 3.79026 -2.62939 0
M  V30 4874 H 462.78 3.52429 -2.52936 0
M  V30 4875 H 463.451 5.10234 -2.1063 0
M  V30 4876 H 465.927 4.13786 -0.438179 0
M  V30 4877 H 464.803 5.48735 -0.134477 0
M  V30 4878 H 465.064 4.2786 1.11303 0
M  V30 4879 N 464.123 0.554532 1.47522 0
M  V30 4880 C 465.371 0.0294208 2.02079 0
M  V30 4881 C 465.692 -1.32411 1.43151 0
M  V30 4882 O 464.962 -1.863 0.605728 0
M  V30 4883 H 463.542 0.00788672 0.746958 0
M  V30 4884 H 466.204 0.723934 1.80956 0
M  V30 4885 H 465.3 -0.0606745 3.12041 0
M  V30 4886 N 465.601 -1.54893 0.290851 0
M  V30 4887 C 466.511 -2.26812 -0.59945 0
M  V30 4888 C 467.527 -1.29963 -1.15696 0
M  V30 4889 O 468.703 -1.62928 -1.18391 0
M  V30 4890 C 465.768 -2.98716 -1.75982 0
M  V30 4891 C 464.829 -4.1108 -1.2374 0
M  V30 4892 C 464.062 -4.79546 -2.34246 0
M  V30 4893 O 464.285 -4.47309 -3.53936 0
M  V30 4894 O 463.219 -5.67165 -2.01512 0
M  V30 4895 H 467.045 -3.03696 -0.0163561 0
M  V30 4896 H 464.63 -1.49289 0.0576755 0
M  V30 4897 H 466.512 -3.43851 -2.43607 0
M  V30 4898 H 465.187 -2.24737 -2.3297 0
M  V30 4899 H 464.094 -3.70367 -0.527163 0
M  V30 4900 H 465.427 -4.87007 -0.71307 0
M  V30 4901 N 467.08 -0.0183926 -1.57589 0
M  V30 4902 C 468.027 0.967022 -2.09565 0
M  V30 4903 C 468.997 1.32983 -0.995225 0
M  V30 4904 O 470.182 1.42501 -1.26878 0
M  V30 4905 C 467.322 2.24772 -2.61861 0
M  V30 4906 C 466.435 1.94232 -3.85873 0
M  V30 4907 C 465.57 3.16518 -4.26603 0
M  V30 4908 C 464.609 2.81748 -5.43401 0
M  V30 4909 N 463.746 3.96626 -5.79338 0
M  V30 4910 H 468.586 0.516874 -2.93483 0
M  V30 4911 H 466.123 0.243544 -1.4507 0
M  V30 4912 H 468.081 2.99667 -2.90268 0
M  V30 4913 H 466.711 2.67423 -1.8079 0
M  V30 4914 H 465.763 1.09625 -3.64262 0
M  V30 4915 H 467.075 1.64616 -4.70853 0
M  V30 4916 H 466.229 3.99743 -4.56389 0
M  V30 4917 H 464.968 3.49286 -3.40368 0
M  V30 4918 H 463.973 1.96933 -5.1332 0
M  V30 4919 H 465.198 2.50207 -6.31327 0
M  V30 4920 H 463.144 4.29257 -4.96059 0
M  V30 4921 H 463.061 3.70598 -6.58933 0
M  V30 4922 H 464.329 4.80586 -6.13724 0
M  V30 4923 N 468.558 1.5553 0.254621 0
M  V30 4924 C 469.805 1.77 0.983736 0
M  V30 4925 C 470.133 0.58133 1.85609 0
M  V30 4926 O 469.388 -0.435621 1.9079 0
M  V30 4927 C 469.687 3.03891 1.88109 0
M  V30 4928 C 469.353 4.35597 1.16472 0
M  V30 4929 C 468.015 4.7139 0.966714 0
M  V30 4930 C 470.367 5.1705 0.656387 0
M  V30 4931 C 467.695 5.86176 0.247942 0
M  V30 4932 C 470.047 6.32581 -0.0488807 0
M  V30 4933 C 468.711 6.67 -0.258438 0
M  V30 4934 H 467.981 0.647688 0.359974 0
M  V30 4935 H 470.628 1.89802 0.254463 0
M  V30 4936 H 468.933 2.86068 2.67717 0
M  V30 4937 H 470.63 3.17701 2.44677 0
M  V30 4938 H 467.22 4.07475 1.32899 0
M  V30 4939 H 471.404 4.8986 0.796933 0
M  V30 4940 H 466.66 6.11354 0.075035 0
M  V30 4941 H 470.834 6.94942 -0.450444 0
M  V30 4942 H 468.461 7.55793 -0.817358 0
M  V30 4943 N 470.036 -0.519951 1.48776 0
M  V30 4944 C 470.984 -1.64443 1.64503 0
M  V30 4945 C 471.978 -1.61501 0.511248 0
M  V30 4946 O 473.184 -1.66238 0.690294 0
M  V30 4947 H 469.559 -0.544776 0.518385 0
M  V30 4948 H 471.53 -1.48325 2.58925 0
M  V30 4949 C 470.279 -3.02673 1.71127 0
M  V30 4950 H 469.602 -3.05635 2.57735 0
M  V30 4951 H 471.042 -3.80941 1.86172 0
M  V30 4952 C 469.501 -3.33854 0.452032 0
M  V30 4953 O 470.031 -3.99385 -0.430678 0
M  V30 4954 N 468.237 -2.88825 0.32069 0
M  V30 4955 H 467.784 -2.35674 1.03998 0
M  V30 4956 H 467.742 -3.10056 -0.520814 0
M  V30 4957 N 471.514 -1.37532 -0.769588 0
M  V30 4958 C 472.76 -1.33057 -1.53048 0
M  V30 4959 C 473.093 0.0841865 -1.94017 0
M  V30 4960 O 472.368 1.04198 -1.64235 0
M  V30 4961 C 472.651 -2.27166 -2.79406 0
M  V30 4962 C 472.504 -3.77429 -2.44677 0
M  V30 4963 C 473.823 -2.19683 -3.81349 0
M  V30 4964 H 470.942 -0.484655 -0.555228 0
M  V30 4965 H 473.584 -1.68251 -0.882702 0
M  V30 4966 H 471.734 -1.97283 -3.34682 0
M  V30 4967 H 473.406 -4.17918 -1.953 0
M  V30 4968 H 471.649 -3.95892 -1.77346 0
M  V30 4969 H 472.32 -4.38716 -3.35011 0
M  V30 4970 H 474.796 -2.46029 -3.35573 0
M  V30 4971 H 473.672 -2.87668 -4.67481 0
M  V30 4972 H 473.933 -1.19045 -4.25771 0
M  V30 4973 N 472.992 0.995999 -1.22138 0
M  V30 4974 C 474.238 1.7386 -1.05567 0
M  V30 4975 C 474.593 1.8808 0.405418 0
M  V30 4976 O 473.886 1.41062 1.29661 0
M  V30 4977 C 474.08 3.14553 -1.6968 0
M  V30 4978 C 473.909 3.14053 -3.21871 0
M  V30 4979 C 472.679 3.20121 -3.90961 0
M  V30 4980 C 474.877 2.98451 -4.18845 0
M  V30 4981 N 472.859 3.09342 -5.30265 0
M  V30 4982 C 474.23 2.95667 -5.4496 0
M  V30 4983 C 476.285 2.8282 -4.09777 0
M  V30 4984 C 474.988 2.78852 -6.63049 0
M  V30 4985 C 477.014 2.67364 -5.27513 0
M  V30 4986 C 476.376 2.65264 -6.52544 0
M  V30 4987 H 472.475 0.645989 -0.440706 0
M  V30 4988 H 475.059 1.1831 -1.54631 0
M  V30 4989 H 473.23 3.68353 -1.2317 0
M  V30 4990 H 474.962 3.77358 -1.4623 0
M  V30 4991 H 471.717 3.27679 -3.4194 0
M  V30 4992 H 472.141 3.0727 -6.03253 0
M  V30 4993 H 476.783 2.83243 -3.139 0
M  V30 4994 H 474.501 2.77175 -7.59078 0
M  V30 4995 H 478.087 2.56256 -5.22326 0
M  V30 4996 H 476.967 2.5345 -7.42114 0
M  V30 4997 N 474.47 1.03057 1.19235 0
M  V30 4998 C 475.4 0.633497 2.24742 0
M  V30 4999 C 476.381 -0.358335 1.66283 0
M  V30 5000 O 477.566 -0.240676 1.92703 0
M  V30 5001 C 474.696 -0.0147648 3.47297 0
M  V30 5002 C 473.65 0.899527 4.18441 0
M  V30 5003 C 472.976 0.116281 5.34574 0
M  V30 5004 C 474.276 2.21404 4.73051 0
M  V30 5005 H 475.97 1.5155 2.58211 0
M  V30 5006 H 473.516 0.73014 1.24117 0
M  V30 5007 H 475.469 -0.304202 4.20301 0
M  V30 5008 H 474.193 -0.931577 3.13032 0
M  V30 5009 H 472.852 1.17319 3.47321 0
M  V30 5010 H 472.5 -0.802619 4.96555 0
M  V30 5011 H 472.2 0.725293 5.83107 0
M  V30 5012 H 473.724 -0.166376 6.10373 0
M  V30 5013 H 475.138 1.98601 5.37802 0
M  V30 5014 H 473.535 2.77512 5.32078 0
M  V30 5015 H 474.605 2.86752 3.91026 0
M  V30 5016 N 475.948 -1.35272 0.808662 0
M  V30 5017 C 476.858 -2.33546 0.222079 0
M  V30 5018 C 477.874 -1.6196 -0.636011 0
M  V30 5019 O 479.05 -1.93822 -0.547274 0
M  V30 5020 C 476.115 -3.41148 -0.61795 0
M  V30 5021 C 475.176 -4.28507 0.260875 0
M  V30 5022 C 474.409 -5.3097 -0.539156 0
M  V30 5023 O 474.632 -5.42123 -1.77367 0
M  V30 5024 O 473.566 -6.01858 0.0710526 0
M  V30 5025 H 477.392 -2.85515 1.03512 0
M  V30 5026 H 474.977 -1.38079 0.570495 0
M  V30 5027 H 476.859 -4.06889 -1.09634 0
M  V30 5028 H 475.534 -2.91447 -1.40855 0
M  V30 5029 H 474.441 -3.6574 0.786451 0
M  V30 5030 H 475.774 -4.81611 1.01547 0
M  V30 5031 N 477.426 -0.562348 -1.47226 0
M  V30 5032 C 478.837 -0.130325 -1.86245 0
M  V30 5033 C 479.188 1.30128 -1.46838 0
M  V30 5034 O 478.313 1.97974 -0.873805 0
M  V30 5035 C 478.908 -0.229738 -3.3802 0
M  V30 5036 C 477.467 0.14728 -3.76112 0
M  V30 5037 C 476.614 -0.574971 -2.71274 0
M  V30 5038 H 479.565 -0.771773 -1.3867 0
M  V30 5039 H 479.586 0.550316 -3.76499 0
M  V30 5040 H 479.098 -1.27178 -3.66671 0
M  V30 5041 H 477.199 1.19023 -3.53078 0
M  V30 5042 H 477.312 -0.214858 -4.78618 0
M  V30 5043 H 475.676 -0.0174756 -2.54694 0
M  V30 5044 H 476.459 -1.61827 -3.02766 0
M  V30 5045 N 478.904 1.54736 -0.299062 0
M  V30 5046 C 479.814 2.27127 0.587413 0
M  V30 5047 C 480.83 1.30575 1.15005 0
M  V30 5048 O 482.006 1.63554 1.17525 0
M  V30 5049 C 479.071 2.99645 1.74395 0
M  V30 5050 C 478.132 4.11731 1.21559 0
M  V30 5051 C 477.365 4.80781 2.317 0
M  V30 5052 O 477.588 4.4918 3.51558 0
M  V30 5053 O 476.522 5.68226 1.98501 0
M  V30 5054 H 480.348 3.037 0.000250109 0
M  V30 5055 H 477.933 1.49256 -0.0655919 0
M  V30 5056 H 479.815 3.45138 2.4178 0
M  V30 5057 H 478.49 2.25969 2.31775 0
M  V30 5058 H 477.397 3.70641 0.507514 0
M  V30 5059 H 478.73 4.87379 0.687233 0
M  V30 5060 N 480.382 0.0267497 1.57577 0
M  V30 5061 C 481.628 -0.653371 1.91987 0
M  V30 5062 C 481.961 -1.71915 0.903263 0
M  V30 5063 O 481.236 -1.94358 -0.0743387 0
M  V30 5064 C 481.519 -1.272 3.36886 0
M  V30 5065 C 481.372 -0.215938 4.49281 0
M  V30 5066 C 482.691 -2.19069 3.81703 0
M  V30 5067 H 479.81 -0.236047 0.698177 0
M  V30 5068 H 482.452 0.0835236 1.89816 0
M  V30 5069 H 480.602 -1.90005 3.38866 0
M  V30 5070 H 482.274 0.41449 4.59434 0
M  V30 5071 H 480.517 0.458855 4.31366 0
M  V30 5072 H 481.188 -0.688347 5.47691 0
M  V30 5073 H 483.664 -1.66253 3.81444 0
M  V30 5074 H 482.54 -2.59307 4.83788 0
M  V30 5075 H 482.801 -3.08087 3.17072 0
M  V30 5076 N 481.861 -1.55662 -0.24637 0
M  V30 5077 C 483.277 -1.48098 -0.594907 0
M  V30 5078 C 483.477 -0.717044 -1.8831 0
M  V30 5079 O 482.533 -0.246618 -2.51293 0
M  V30 5080 C 483.846 -2.92507 -0.697146 0
M  V30 5081 C 485.394 -3.02881 -0.789436 0
M  V30 5082 C 485.869 -4.48598 -0.923232 0
M  V30 5083 N 487.36 -4.52538 -0.988088 0
M  V30 5084 C 488.095 -5.62536 -1.11089 0
M  V30 5085 N 487.591 -6.82342 -1.19919 0
M  V30 5086 N 489.384 -5.50334 -1.14408 0
M  V30 5087 H 481.535 -2.0377 0.599278 0
M  V30 5088 H 483.798 -0.925145 0.20691 0
M  V30 5089 H 483.504 -3.51242 0.179396 0
M  V30 5090 H 483.378 -3.43024 -1.5689 0
M  V30 5091 H 485.765 -2.44226 -1.65643 0
M  V30 5092 H 485.846 -2.55574 0.107482 0
M  V30 5093 H 485.49 -5.07864 -0.0607927 0
M  V30 5094 H 485.42 -4.93587 -1.8352 0
M  V30 5095 H 487.911 -3.66248 -0.931167 0
M  V30 5096 H 488.224 -7.61924 -1.29197 0
M  V30 5097 H 486.569 -6.85102 -1.16876 0
M  V30 5098 H 489.76 -4.5567 -1.07158 0
M  V30 5099 H 489.933 -6.36096 -1.23634 0
M  V30 5100 N 483.339 0.512053 -1.4905 0
M  V30 5101 C 484.586 1.26686 -1.57978 0
M  V30 5102 C 484.914 1.92733 -0.261553 0
M  V30 5103 O 484.169 1.80772 0.749667 0
M  V30 5104 C 484.468 2.36446 -2.68008 0
M  V30 5105 C 484.134 1.87932 -4.09869 0
M  V30 5106 C 482.796 1.74419 -4.48477 0
M  V30 5107 C 485.148 1.5149 -4.98698 0
M  V30 5108 C 482.476 1.22827 -5.73699 0
M  V30 5109 C 484.828 1.01355 -6.24428 0
M  V30 5110 C 483.492 0.864735 -6.61875 0
M  V30 5111 H 482.762 0.463577 -0.578081 0
M  V30 5112 H 485.409 0.569421 -1.82838 0
M  V30 5113 H 483.714 3.11933 -2.37076 0
M  V30 5114 H 485.411 2.9453 -2.72127 0
M  V30 5115 H 482.001 1.99405 -3.79389 0
M  V30 5116 H 486.185 1.60782 -4.69535 0
M  V30 5117 H 481.441 1.10008 -6.01422 0
M  V30 5118 H 485.615 0.722351 -6.92644 0
M  V30 5119 H 483.242 0.462777 -7.5879 0
M  V30 5120 N 484.817 1.37938 0.762283 0
M  V30 5121 C 486.066 1.32989 1.51647 0
M  V30 5122 C 486.379 -0.0802922 1.95435 0
M  V30 5123 O 487.585 -0.252295 2.70325 0
M  V30 5124 C 486.041 2.33485 2.73885 0
M  V30 5125 C 485.649 3.80079 2.37157 0
M  V30 5126 C 487.393 2.37563 3.51801 0
M  V30 5127 C 485.3 4.72283 3.55954 0
M  V30 5128 H 484.23 0.494301 0.56937 0
M  V30 5129 H 486.881 1.63448 0.834083 0
M  V30 5130 H 485.263 1.96056 3.44061 0
M  V30 5131 H 486.437 4.26398 1.74704 0
M  V30 5132 H 484.752 3.79037 1.72395 0
M  V30 5133 H 487.349 3.0365 4.40114 0
M  V30 5134 H 487.692 1.39199 3.92338 0
M  V30 5135 H 488.225 2.73747 2.8863 0
M  V30 5136 H 484.964 5.7181 3.2049 0
M  V30 5137 H 484.484 4.30663 4.1748 0
M  V30 5138 H 486.163 4.89876 4.22647 0
M  V30 5139 N 486.295 -0.989507 1.22664 0
M  V30 5140 C 487.543 -1.72612 1.05117 0
M  V30 5141 C 487.864 -1.90552 -0.414131 0
M  V30 5142 O 487.134 -1.4676 -1.29762 0
M  V30 5143 H 485.714 -0.639555 0.385977 0
M  V30 5144 H 488.376 -1.19158 1.54232 0
M  V30 5145 H 487.472 -2.71926 1.53175 0
M  V30 5146 N 487.773 -1.03688 -1.18687 0
M  V30 5147 C 488.736 -0.629115 -2.20397 0
M  V30 5148 C 489.736 0.311495 -1.57754 0
M  V30 5149 O 490.926 0.0974107 -1.73927 0
M  V30 5150 C 488.058 0.0782231 -3.4081 0
M  V30 5151 H 489.251 -1.52915 -2.57987 0
M  V30 5152 H 486.804 -0.828988 -1.32505 0
M  V30 5153 H 487.539 0.992233 -3.08748 0
M  V30 5154 H 487.324 -0.597776 -3.87517 0
M  V30 5155 H 488.814 0.350156 -4.16129 0
M  V30 5156 N 489.251 1.34841 -0.815825 0
M  V30 5157 C 490.476 2.03261 -0.41226 0
M  V30 5158 C 490.901 1.61055 0.971751 0
M  V30 5159 O 490.259 0.7917 1.63101 0
M  V30 5160 C 490.307 3.56914 -0.514289 0
M  V30 5161 O 489.411 4.09728 0.468675 0
M  V30 5162 H 488.752 0.641664 -0.170771 0
M  V30 5163 H 491.282 1.72241 -1.10427 0
M  V30 5164 H 491.292 4.06156 -0.387457 0
M  V30 5165 H 489.967 3.86982 -1.52375 0
M  V30 5166 H 488.544 3.71681 0.301316 0
M  V30 5167 N 490.729 0.570148 1.46925 0
M  V30 5168 C 491.977 0.0508523 2.02036 0
M  V30 5169 C 492.298 -1.30885 1.44548 0
M  V30 5170 O 491.568 -1.85647 0.625453 0
M  V30 5171 H 490.148 0.0158088 0.746833 0
M  V30 5172 H 492.81 0.743086 1.80178 0
M  V30 5173 H 491.906 -0.027575 3.12088 0
M  V30 5174 N 492.207 -1.54576 0.307264 0
M  V30 5175 C 493.117 -2.27435 -0.57536 0
M  V30 5176 C 494.133 -1.31183 -1.14311 0
M  V30 5177 O 495.309 -1.64175 -1.16656 0
M  V30 5178 C 492.374 -3.00566 -1.72803 0
M  V30 5179 C 491.435 -4.12369 -1.19373 0
M  V30 5180 C 490.668 -4.82003 -2.29147 0
M  V30 5181 O 490.891 -4.51038 -3.49171 0
M  V30 5182 O 489.825 -5.69271 -1.95485 0
M  V30 5183 H 493.651 -3.03696 0.0158558 0
M  V30 5184 H 491.236 -1.49219 0.0735064 0
M  V30 5185 H 493.118 -3.46416 -2.39946 0
M  V30 5186 H 491.793 -2.27195 -2.30574 0
M  V30 5187 H 490.7 -3.70905 -0.487851 0
M  V30 5188 H 492.033 -4.87736 -0.661376 0
M  V30 5189 N 493.685 -0.035106 -1.57561 0
M  V30 5190 C 494.931 0.64318 -1.92331 0
M  V30 5191 C 495.264 1.71434 -0.912368 0
M  V30 5192 O 494.539 1.94395 0.0640303 0
M  V30 5193 C 494.822 1.25411 -3.37556 0
M  V30 5194 C 494.675 0.192109 -4.4939 0
M  V30 5195 C 495.994 2.17041 -3.82859 0
M  V30 5196 H 493.113 0.232341 -0.699419 0
M  V30 5197 H 495.755 -0.0935889 -1.89769 0
M  V30 5198 H 493.905 1.88205 -3.39869 0
M  V30 5199 H 495.577 -0.438849 -4.59208 0
M  V30 5200 H 493.82 -0.481725 -4.31117 0
M  V30 5201 H 494.491 0.659292 -5.48049 0
M  V30 5202 H 496.967 1.64228 -3.8232 0
M  V30 5203 H 495.843 2.56738 -4.85157 0
M  V30 5204 H 496.104 3.06401 -3.18702 0
M  V30 5205 N 495.163 1.55791 0.238111 0
M  V30 5206 C 496.388 1.8244 0.986432 0
M  V30 5207 C 496.813 0.613314 1.7782 0
M  V30 5208 O 496.171 -0.437767 1.75935 0
M  V30 5209 C 496.219 3.06917 1.893 0
M  V30 5210 O 495.323 2.84449 2.98601 0
M  V30 5211 H 494.664 0.601975 0.280218 0
M  V30 5212 H 497.194 2.02987 0.256437 0
M  V30 5213 H 497.204 3.36583 2.30598 0
M  V30 5214 H 495.879 3.947 1.31091 0
M  V30 5215 H 494.456 2.65972 2.61368 0
M  V30 5216 N 496.642 -0.504142 1.49319 0
M  V30 5217 C 497.605 -1.5883 1.65244 0
M  V30 5218 C 498.605 -1.52009 0.524386 0
M  V30 5219 O 499.795 -1.55218 0.79077 0
M  V30 5220 C 496.927 -2.98481 1.64687 0
M  V30 5221 H 498.12 -1.4604 2.61939 0
M  V30 5222 H 495.673 -0.728144 1.38303 0
M  V30 5223 H 496.408 -3.16751 0.695644 0
M  V30 5224 H 496.193 -3.0484 2.46607 0
M  V30 5225 H 497.683 -3.77256 1.79075 0
M  V30 5226 N 498.12 -1.38341 -0.754957 0
M  V30 5227 C 499.366 -1.34672 -1.51628 0
M  V30 5228 C 499.699 0.0636036 -1.94096 0
M  V30 5229 O 498.974 1.0245 -1.6533 0
M  V30 5230 C 499.257 -2.30116 -2.76981 0
M  V30 5231 C 499.11 -3.80003 -2.4066 0
M  V30 5232 C 500.429 -2.23715 -3.78998 0
M  V30 5233 H 497.548 -0.490517 -0.550056 0
M  V30 5234 H 500.19 -1.69178 -0.864807 0
M  V30 5235 H 498.34 -2.00821 -3.3257 0
M  V30 5236 H 500.012 -4.19966 -1.90856 0
M  V30 5237 H 498.255 -3.97751 -1.73137 0
M  V30 5238 H 498.926 -4.42244 -3.30339 0
M  V30 5239 H 501.402 -2.49574 -3.32945 0
M  V30 5240 H 500.278 -2.9261 -4.64403 0
M  V30 5241 H 500.539 -1.23554 -4.24484 0
M  V30 5242 N 499.598 0.982988 -1.23187 0
M  V30 5243 C 500.508 2.10907 -1.02739 0
M  V30 5244 C 501.524 1.73979 0.0273188 0
M  V30 5245 O 502.7 2.00702 -0.16757 0
M  V30 5246 C 499.765 3.41142 -0.618304 0
M  V30 5247 C 498.826 3.92112 -1.74777 0
M  V30 5248 C 498.059 5.16131 -1.3581 0
M  V30 5249 O 498.282 5.6989 -0.241201 0
M  V30 5250 O 497.216 5.61103 -2.17824 0
M  V30 5251 H 501.042 2.31046 -1.97108 0
M  V30 5252 H 498.627 1.09284 -1.01869 0
M  V30 5253 H 500.509 4.19488 -0.400982 0
M  V30 5254 H 499.184 3.2234 0.296421 0
M  V30 5255 H 498.091 3.14895 -2.0197 0
M  V30 5256 H 499.424 4.15364 -2.64071 0
M  V30 5257 N 501.076 1.04316 1.18135 0
M  V30 5258 C 502.304 0.768117 1.92113 0
M  V30 5259 C 502.719 -0.675057 1.76319 0
M  V30 5260 O 502.076 -1.46038 1.09449 0
M  V30 5261 C 502.127 1.12808 3.43448 0
M  V30 5262 O 501.848 2.5146 3.58747 0
M  V30 5263 C 503.349 0.8779 4.3452 0
M  V30 5264 H 500.569 0.279937 0.609817 0
M  V30 5265 H 503.113 1.39149 1.49859 0
M  V30 5266 H 501.268 0.549623 3.83481 0
M  V30 5267 H 501.682 2.65313 4.52448 0
M  V30 5268 H 503.156 1.17959 5.39249 0
M  V30 5269 H 503.633 -0.187239 4.38801 0
M  V30 5270 H 504.239 1.43977 4.00188 0
M  V30 5271 N 502.554 -1.34406 0.822964 0
M  V30 5272 C 503.803 -1.97542 0.407458 0
M  V30 5273 C 504.116 -1.65973 -1.035 0
M  V30 5274 O 505.322 -2.22598 -1.55442 0
M  V30 5275 C 503.778 -3.53463 0.677623 0
M  V30 5276 C 503.386 -3.93925 2.1337 0
M  V30 5277 C 505.13 -4.23229 0.328284 0
M  V30 5278 C 503.037 -5.42759 2.34876 0
M  V30 5279 H 501.967 -0.739207 0.148623 0
M  V30 5280 H 504.618 -1.53248 1.00932 0
M  V30 5281 H 503 -3.96 0.00558965 0
M  V30 5282 H 504.174 -3.62494 2.8449 0
M  V30 5283 H 502.489 -3.37097 2.44448 0
M  V30 5284 H 505.086 -5.32659 0.466794 0
M  V30 5285 H 505.429 -4.09899 -0.727224 0
M  V30 5286 H 505.962 -3.86169 0.954896 0
M  V30 5287 H 502.701 -5.61075 3.38932 0
M  V30 5288 H 502.221 -5.75704 1.68299 0
M  V30 5289 H 503.9 -6.0944 2.17236 0
M  V30 5290 N 504.032 -0.577932 -1.46621 0
M  V30 5291 C 505.257 -0.0652536 -2.07297 0
M  V30 5292 C 505.682 1.22828 -1.4246 0
M  V30 5293 O 505.04 1.74075 -0.506718 0
M  V30 5294 C 505.088 0.0920589 -3.60482 0
M  V30 5295 O 504.192 1.14972 -3.96049 0
M  V30 5296 H 503.533 -0.06065 -0.661224 0
M  V30 5297 H 506.063 -0.799515 -1.88332 0
M  V30 5298 H 506.073 0.299741 -4.06897 0
M  V30 5299 H 504.748 -0.852612 -4.07067 0
M  V30 5300 H 503.325 0.920879 -3.61351 0
M  V30 5301 O 505.549 1.54882 -0.457577 0
M  V30 5302 H 506.24 1.93569 0.0711413 0
M  V30 END ATOM
M  V30 BEGIN BOND
M  V30 END BOND
M  V30 END CTAB
M  END
$$$$
