drugbank_target|P08337 8-oxo-dGTP diphosphatase (DB02023)
 OpenBabel12092119553D

  0  0  0     0  0            999 V3000
M  V30 BEGIN CTAB
M  V30 COUNTS 2090 2119 0 0 0
M  V30 BEGIN ATOM
M  V30 1 H -0.908 1.98254 -0.117106 0
M  V30 2 N 0 1.576 0 0
M  V30 3 C 0.933 2.03868 1.02534 0
M  V30 4 C 1.911 0.928543 1.3348 0
M  V30 5 O 3.095 1.19667 1.45644 0
M  V30 6 C 0.222 2.43627 2.35294 0
M  V30 7 C -0.732 3.65373 2.2001 0
M  V30 8 S 0.101 5.13292 1.52614 0
M  V30 9 C 1.257 5.56322 2.86805 0
M  V30 10 H 1.49 2.90518 0.631377 0
M  V30 11 H -0.977 1.52953 0.210867 0
M  V30 12 H 0.981 2.67203 3.11629 0
M  V30 13 H -0.358 1.57376 2.7183 0
M  V30 14 H -1.165 3.90944 3.18086 0
M  V30 15 H -1.563 3.418 1.51819 0
M  V30 16 H 0.729 5.58782 3.83104 0
M  V30 17 H 1.672 6.56266 2.65933 0
M  V30 18 H 2.08 4.83886 2.90714 0
M  V30 19 N 1.4781 -0.272755 1.55222 0
M  V30 20 C 2.4251 -1.33716 1.88119 0
M  V30 21 C 3.3951 -1.49066 0.73271 0
M  V30 22 O 4.5801 -1.63469 0.984002 0
M  V30 23 C 1.7201 -2.69238 2.15882 0
M  V30 24 C 0.8331 -2.62108 3.43399 0
M  V30 25 C -0.0319 -3.89811 3.60861 0
M  V30 26 C -0.9929 -3.77193 4.8207 0
M  V30 27 N -1.8559 -4.9673 4.96189 0
M  V30 28 H 2.9841 -1.04962 2.78903 0
M  V30 29 H 0.5211 -0.507088 1.38083 0
M  V30 30 H 2.4791 -3.48089 2.29978 0
M  V30 31 H 1.1091 -2.96194 1.28331 0
M  V30 32 H 0.1611 -1.74967 3.37773 0
M  V30 33 H 1.4731 -2.48685 4.32386 0
M  V30 34 H 0.6271 -4.77103 3.74777 0
M  V30 35 H -0.6339 -4.06102 2.7006 0
M  V30 36 H -1.6289 -2.88284 4.68159 0
M  V30 37 H -0.4039 -3.62421 5.74307 0
M  V30 38 H -2.4579 -5.13431 4.08319 0
M  V30 39 H -2.5409 -4.85839 5.79221 0
M  V30 40 H -1.2729 -5.85594 5.1449 0
M  V30 41 N 2.9562 -1.48159 -0.537278 0
M  V30 42 C 3.9032 -1.62138 -1.64256 0
M  V30 43 C 4.8732 -0.463668 -1.59497 0
M  V30 44 O 6.0582 -0.686241 -1.78032 0
M  V30 45 C 3.1982 -1.66028 -3.02537 0
M  V30 46 C 2.3112 -2.92855 -3.17585 0
M  V30 47 C 1.4462 -2.87952 -4.46382 0
M  V30 48 C 0.4852 -4.09516 -4.54932 0
M  V30 49 N -0.3778 -4.02733 -5.75109 0
M  V30 50 H 4.4622 -2.56529 -1.51647 0
M  V30 51 H 1.9992 -1.27224 -0.738414 0
M  V30 52 H 3.9572 -1.66265 -3.82638 0
M  V30 53 H 2.5872 -0.751331 -3.13934 0
M  V30 54 H 1.6392 -3.02395 -2.30784 0
M  V30 55 H 2.9512 -3.82822 -3.19764 0
M  V30 56 H 2.1052 -2.8655 -5.34765 0
M  V30 57 H 0.8442 -1.95702 -4.46712 0
M  V30 58 H -0.1508 -4.11201 -3.64957 0
M  V30 59 H 1.0742 -5.02917 -4.56346 0
M  V30 60 H -0.9798 -3.13299 -5.76351 0
M  V30 61 H -1.0628 -4.86397 -5.78752 0
M  V30 62 H 0.2052 -4.05379 -6.65799 0
M  V30 63 N 4.4343 0.785586 -1.36625 0
M  V30 64 C 5.3643 1.91259 -1.33949 0
M  V30 65 C 6.3453 1.68795 -0.210325 0
M  V30 66 O 7.5303 1.89854 -0.408561 0
M  V30 67 C 4.6603 3.28339 -1.13186 0
M  V30 68 C 3.6143 3.65335 -2.22967 0
M  V30 69 C 2.9403 5.00806 -1.87342 0
M  V30 70 C 4.2403 3.7352 -3.65075 0
M  V30 71 H 5.9343 1.93755 -2.28253 0
M  V30 72 H 3.4803 0.930788 -1.09874 0
M  V30 73 H 5.4333 4.06804 -1.09948 0
M  V30 74 H 4.1573 3.2624 -0.153332 0
M  V30 75 H 2.8163 2.89169 -2.25337 0
M  V30 76 H 2.4643 4.95233 -0.880545 0
M  V30 77 H 2.1643 5.26529 -2.60846 0
M  V30 78 H 3.6883 5.81687 -1.85667 0
M  V30 79 H 5.1023 4.42168 -3.64911 0
M  V30 80 H 3.4993 4.10731 -4.37516 0
M  V30 81 H 4.5693 2.74527 -3.99703 0
M  V30 82 N 5.9124 1.20967 1.01018 0
M  V30 83 C 6.8444 0.922059 2.09835 0
M  V30 84 C 7.8574 -0.0927106 1.62536 0
M  V30 85 O 9.0464 0.139127 1.77957 0
M  V30 86 C 6.1464 0.362004 3.36961 0
M  V30 87 C 5.3194 1.42986 4.13369 0
M  V30 88 C 4.3784 0.879976 5.1879 0
M  V30 89 O 3.4044 1.56219 5.47343 0
M  V30 90 N 4.6064 -0.307396 5.79686 0
M  V30 91 H 7.3714 1.8588 2.35093 0
M  V30 92 H 4.9324 1.11422 1.1746 0
M  V30 93 H 6.9244 -0.0201474 4.04695 0
M  V30 94 H 5.4944 -0.479437 3.08902 0
M  V30 95 H 4.7144 1.98608 3.40512 0
M  V30 96 H 6.0024 2.14885 4.61196 0
M  V30 97 H 5.4004 -0.878796 5.58832 0
M  V30 98 H 3.9574 -0.631115 6.48737 0
M  V30 99 N 7.3905 -1.2043 1.01659 0
M  V30 100 C 8.6395 -1.89118 0.701237 0
M  V30 101 C 8.9525 -1.79705 -0.772358 0
M  V30 102 O 10.1585 -2.43528 -1.20026 0
M  V30 103 C 8.6145 -3.39168 1.20388 0
M  V30 104 C 8.2225 -3.57166 2.70438 0
M  V30 105 C 9.9665 -4.1341 0.963953 0
M  V30 106 C 7.8735 -5.01042 3.14183 0
M  V30 107 H 6.8035 -0.708267 0.2586 0
M  V30 108 H 9.4545 -1.36239 1.22927 0
M  V30 109 H 7.8365 -3.91369 0.603824 0
M  V30 110 H 9.0105 -3.15351 3.35992 0
M  V30 111 H 7.3255 -2.96294 2.92572 0
M  V30 112 H 9.9225 -5.19491 1.26621 0
M  V30 113 H 10.2655 -4.16181 -0.099578 0
M  V30 114 H 10.7985 -3.67309 1.52738 0
M  V30 115 H 7.5375 -5.03426 4.19812 0
M  V30 116 H 7.0575 -5.43668 2.53348 0
M  V30 117 H 8.7365 -5.69623 3.0682 0
M  V30 118 N 8.8686 -0.792821 -1.36206 0
M  V30 119 C 9.8316 -0.199459 -2.2833 0
M  V30 120 C 10.8316 0.605189 -1.48977 0
M  V30 121 O 12.0216 0.425685 -1.68919 0
M  V30 122 C 9.1536 0.723523 -3.33134 0
M  V30 123 H 10.3466 -1.01181 -2.82316 0
M  V30 124 H 7.8996 -0.562485 -1.45828 0
M  V30 125 H 8.6346 1.56008 -2.84309 0
M  V30 126 H 8.4196 0.148436 -3.91819 0
M  V30 127 H 9.9096 1.13344 -4.01924 0
M  V30 128 N 10.3467 1.47872 -0.545128 0
M  V30 129 C 11.5927 2.02793 -0.0166104 0
M  V30 130 C 11.9257 1.41987 1.32489 0
M  V30 131 O 11.2007 0.571045 1.85928 0
M  V30 132 C 11.4837 3.59989 0.0893294 0
M  V30 133 C 11.3367 4.3125 -1.27841 0
M  V30 134 C 12.6557 4.32606 0.808724 0
M  V30 135 H 9.7747 0.736962 -0.00751035 0
M  V30 136 H 12.4167 1.76433 -0.705085 0
M  V30 137 H 10.5667 3.82579 0.675681 0
M  V30 138 H 12.2387 4.20035 -1.90704 0
M  V30 139 H 10.4817 3.92076 -1.85632 0
M  V30 140 H 11.1527 5.39736 -1.15713 0
M  V30 141 H 13.6287 4.14936 0.310992 0
M  V30 142 H 12.5047 5.42251 0.851782 0
M  V30 143 H 12.7657 4.00963 1.86229 0
M  V30 144 N 11.8248 0.280983 1.55075 0
M  V30 145 C 13.0728 -0.333455 1.9933 0
M  V30 146 C 13.3938 -1.55937 1.17085 0
M  V30 147 O 12.6638 -1.94143 0.261805 0
M  V30 148 H 11.2438 -0.126197 0.736263 0
M  V30 149 H 13.9058 0.387678 1.91005 0
M  V30 150 H 13.0018 -0.619292 3.05894 0
M  V30 151 N 13.3029 -1.57598 0.00835791 0
M  V30 152 C 14.5519 -1.90107 -0.673968 0
M  V30 153 C 14.8649 -0.884275 -1.7447 0
M  V30 154 O 16.0709 -1.09987 -2.48224 0
M  V30 155 C 14.5269 -3.37497 -1.24995 0
M  V30 156 C 14.1349 -4.47491 -0.2136 0
M  V30 157 C 15.8789 -3.79104 -1.90999 0
M  V30 158 C 13.7859 -5.85963 -0.80005 0
M  V30 159 H 12.7159 -0.709393 -0.255495 0
M  V30 160 H 15.3669 -1.83365 0.0702693 0
M  V30 161 H 13.7489 -3.39102 -2.04513 0
M  V30 162 H 14.9229 -4.57414 0.557596 0
M  V30 163 H 13.2379 -4.14956 0.346474 0
M  V30 164 H 15.8349 -4.79901 -2.35795 0
M  V30 165 H 16.1779 -3.1306 -2.74407 0
M  V30 166 H 16.7109 -3.79833 -1.18203 0
M  V30 167 H 13.4499 -6.555 -0.00456708 0
M  V30 168 H 12.9699 -5.79687 -1.54021 0
M  V30 169 H 14.6489 -6.33884 -1.29615 0
M  V30 170 N 14.781 0.264519 -1.55364 0
M  V30 171 C 16.03 0.992812 -1.75574 0
M  V30 172 C 16.343 1.87142 -0.568979 0
M  V30 173 O 17.549 2.63513 -0.653682 0
M  V30 174 C 16.005 1.81519 -3.10771 0
M  V30 175 C 15.613 0.984839 -4.37041 0
M  V30 176 C 17.357 2.53727 -3.40327 0
M  V30 177 C 15.264 1.80209 -5.63275 0
M  V30 178 H 14.194 0.374412 -0.65447 0
M  V30 179 H 16.845 0.248138 -1.81815 0
M  V30 180 H 15.227 2.60115 -2.98591 0
M  V30 181 H 16.401 0.242455 -4.60162 0
M  V30 182 H 14.716 0.37691 -4.14691 0
M  V30 183 H 17.313 3.15292 -4.3185 0
M  V30 184 H 17.656 3.24447 -2.60845 0
M  V30 185 H 18.189 1.82156 -3.53644 0
M  V30 186 H 14.928 1.13896 -6.45529 0
M  V30 187 H 14.448 2.52022 -5.44284 0
M  V30 188 H 16.127 2.37364 -6.01887 0
M  V30 189 N 16.2591 1.48442 0.529413 0
M  V30 190 C 17.6751 1.34575 0.858004 0
M  V30 191 C 17.8751 0.3572 1.98309 0
M  V30 192 O 16.9311 -0.221379 2.51528 0
M  V30 193 C 18.2441 2.74617 1.22499 0
M  V30 194 C 19.7921 2.83109 1.33484 0
M  V30 195 C 20.2671 4.23854 1.73526 0
M  V30 196 N 21.7581 4.2653 1.80628 0
M  V30 197 C 22.4931 5.32372 2.12997 0
M  V30 198 N 21.9891 6.48491 2.43786 0
M  V30 199 N 23.7821 5.19766 2.14008 0
M  V30 200 H 15.9331 2.1133 -0.212925 0
M  V30 201 H 18.1961 0.947439 -0.0326199 0
M  V30 202 H 17.9021 3.4852 0.471905 0
M  V30 203 H 17.7761 3.08177 2.17501 0
M  V30 204 H 20.1631 2.09462 2.0787 0
M  V30 205 H 20.2441 2.53168 0.366027 0
M  V30 206 H 19.8881 4.98018 0.997013 0
M  V30 207 H 19.8181 4.5124 2.71459 0
M  V30 208 H 22.3091 3.42772 1.59108 0
M  V30 209 H 22.6221 7.24993 2.67592 0
M  V30 210 H 20.9671 6.51765 2.41304 0
M  V30 211 H 24.1581 4.28066 1.89412 0
M  V30 212 H 24.3311 6.02354 2.38902 0
M  V30 213 N 17.7372 -0.778329 1.37039 0
M  V30 214 C 18.6852 -1.91278 1.32345 0
M  V30 215 C 19.6792 -1.68051 0.213331 0
M  V30 216 O 20.8852 -1.75922 0.38098 0
M  V30 217 H 17.2602 -0.628909 0.412283 0
M  V30 218 H 19.2312 -1.92355 2.28127 0
M  V30 219 C 17.9802 -3.28455 1.14073 0
M  V30 220 H 17.3032 -3.46901 1.98746 0
M  V30 221 H 18.7432 -4.08152 1.14837 0
M  V30 222 C 17.2022 -3.36548 -0.154015 0
M  V30 223 O 17.7322 -3.85186 -1.13993 0
M  V30 224 N 15.9382 -2.89894 -0.202475 0
M  V30 225 H 15.4852 -2.50504 0.600476 0
M  V30 226 H 15.4432 -2.9569 -1.06841 0
M  V30 227 N 19.2153 -1.21501 -1.00376 0
M  V30 228 C 20.1253 -0.991447 -2.12621 0
M  V30 229 C 21.1413 0.0568446 -1.73907 0
M  V30 230 O 22.3173 -0.13348 -2.00957 0
M  V30 231 C 19.3823 -0.560312 -3.42142 0
M  V30 232 C 18.4433 -1.68096 -3.95022 0
M  V30 233 C 17.6763 -1.2703 -5.18362 0
M  V30 234 O 17.8993 -0.144438 -5.70217 0
M  V30 235 O 16.8333 -2.08269 -5.64719 0
M  V30 236 H 20.6593 -1.93158 -2.34358 0
M  V30 237 H 18.2443 -0.999999 -1.10997 0
M  V30 238 H 20.1263 -0.329724 -4.20108 0
M  V30 239 H 18.8013 0.351089 -3.2179 0
M  V30 240 H 17.7083 -1.96597 -3.18278 0
M  V30 241 H 19.0413 -2.56983 -4.19786 0
M  V30 242 N 20.6934 1.19889 -1.02296 0
M  V30 243 C 21.6414 2.24938 -0.592081 0
M  V30 244 C 22.6354 1.65257 0.372357 0
M  V30 245 O 23.8414 1.78371 0.241583 0
M  V30 246 H 20.2164 0.731787 -0.173182 0
M  V30 247 H 22.1874 2.58603 -1.48885 0
M  V30 248 C 20.9364 3.47668 0.047351 0
M  V30 249 H 20.2594 3.93875 -0.685772 0
M  V30 250 H 21.6994 4.22852 0.311862 0
M  V30 251 C 20.1584 3.11136 1.29212 0
M  V30 252 O 20.6884 3.2325 2.38479 0
M  V30 253 N 18.8944 2.65625 1.17863 0
M  V30 254 H 18.4414 2.55968 0.289493 0
M  V30 255 H 18.3994 2.41553 2.01245 0
M  V30 256 N 22.1715 0.800033 1.35784 0
M  V30 257 C 23.1195 0.193851 2.31791 0
M  V30 258 C 24.1135 -0.652744 1.56319 0
M  V30 259 O 25.3195 -0.546641 1.71499 0
M  V30 260 H 21.6945 0.04392 0.750716 0
M  V30 261 H 23.6655 1.01883 2.80468 0
M  V30 262 C 22.4145 -0.648338 3.41602 0
M  V30 263 H 21.7375 -0.00624665 3.998 0
M  V30 264 H 23.1775 -1.03898 4.11073 0
M  V30 265 C 21.6365 -1.8111 2.84079 0
M  V30 266 O 22.1665 -2.90825 2.77099 0
M  V30 267 N 20.3725 -1.62056 2.41218 0
M  V30 268 H 19.9195 -0.728123 2.47095 0
M  V30 269 H 19.8775 -2.40013 2.03079 0
M  V30 270 N 23.6496 -1.47581 0.552962 0
M  V30 271 C 24.5596 -2.33743 -0.200353 0
M  V30 272 C 25.5756 -1.47928 -0.916151 0
M  V30 273 O 26.7516 -1.80865 -0.885993 0
M  V30 274 C 23.8166 -3.24536 -1.21973 0
M  V30 275 C 22.8776 -4.26238 -0.511819 0
M  V30 276 C 22.1106 -5.12693 -1.48263 0
M  V30 277 O 22.3336 -5.01525 -2.71714 0
M  V30 278 O 21.2676 -5.93375 -1.00945 0
M  V30 279 H 25.0936 -2.9945 0.506304 0
M  V30 280 H 22.6786 -1.46071 0.313622 0
M  V30 281 H 24.5606 -3.80631 -1.80827 0
M  V30 282 H 23.2356 -2.61462 -1.90839 0
M  V30 283 H 22.1426 -3.73914 0.117799 0
M  V30 284 H 23.4756 -4.92014 0.135308 0
M  V30 285 N 25.1277 -0.289203 -1.54924 0
M  V30 286 C 26.3767 0.324231 -1.99077 0
M  V30 287 C 26.6897 1.5591 -1.18117 0
M  V30 288 O 27.8957 2.24637 -1.52481 0
M  V30 289 C 26.3517 0.628209 -3.54375 0
M  V30 290 C 25.9597 -0.587647 -4.44129 0
M  V30 291 C 27.7037 1.20349 -4.07083 0
M  V30 292 C 25.6107 -0.257475 -5.90839 0
M  V30 293 H 24.5407 0.124924 -0.743579 0
M  V30 294 H 27.1917 -0.396063 -1.79175 0
M  V30 295 H 25.5737 1.40778 -3.70132 0
M  V30 296 H 26.7477 -1.36418 -4.40144 0
M  V30 297 H 25.0627 -1.08074 -4.0213 0
M  V30 298 H 27.6597 1.46456 -5.14252 0
M  V30 299 H 28.0027 2.14195 -3.56968 0
M  V30 300 H 28.5357 0.485889 -3.94821 0
M  V30 301 H 25.2747 -1.16419 -6.45079 0
M  V30 302 H 24.7947 0.482018 -5.9786 0
M  V30 303 H 26.4737 0.145238 -6.46837 0
M  V30 304 N 26.6058 1.57591 -0.0167156 0
M  V30 305 C 27.8528 1.91283 0.664597 0
M  V30 306 C 28.1808 0.891949 1.72842 0
M  V30 307 O 27.4358 -0.100931 1.9544 0
M  V30 308 C 27.7348 3.3172 1.33029 0
M  V30 309 C 27.4008 4.4914 0.398047 0
M  V30 310 C 26.0628 4.80992 0.141421 0
M  V30 311 C 28.4148 5.20634 -0.242825 0
M  V30 312 C 25.7428 5.81703 -0.764092 0
M  V30 313 C 28.0948 6.22311 -1.13632 0
M  V30 314 C 26.7588 6.52611 -1.40196 0
M  V30 315 H 26.0288 0.699956 0.243193 0
M  V30 316 H 28.6758 1.9135 -0.0758267 0
M  V30 317 H 26.9808 3.27856 2.14517 0
M  V30 318 H 28.6778 3.55055 1.86379 0
M  V30 319 H 25.2678 4.24262 0.608238 0
M  V30 320 H 29.4518 4.96267 -0.0576019 0
M  V30 321 H 24.7078 6.03532 -0.977732 0
M  V30 322 H 28.8818 6.76834 -1.63917 0
M  V30 323 H 26.5088 7.30467 -2.10529 0
M  V30 324 N 28.0839 -0.256276 1.55502 0
M  V30 325 C 29.3329 -0.983486 1.76098 0
M  V30 326 C 29.6459 -1.86837 0.578896 0
M  V30 327 O 30.8519 -2.63163 0.667648 0
M  V30 328 C 29.3079 -1.79868 3.1173 0
M  V30 329 C 28.9159 -0.961648 4.37557 0
M  V30 330 C 30.6599 -2.51919 3.41668 0
M  V30 331 C 28.5669 -1.77219 5.64223 0
M  V30 332 H 27.4969 -0.370936 0.656447 0
M  V30 333 H 30.1479 -0.238492 1.81944 0
M  V30 334 H 28.5299 -2.58527 2.99966 0
M  V30 335 H 29.7039 -0.218048 4.60284 0
M  V30 336 H 28.0189 -0.354913 4.14885 0
M  V30 337 H 30.6159 -3.12998 4.33516 0
M  V30 338 H 30.9589 -3.23059 2.62562 0
M  V30 339 H 31.4919 -1.80278 3.54605 0
M  V30 340 H 28.2309 -1.10471 6.46124 0
M  V30 341 H 27.7509 -2.49132 5.45613 0
M  V30 342 H 29.4299 -2.34169 6.03137 0
M  V30 343 N 29.562 -1.4872 -0.521534 0
M  V30 344 C 30.79 -1.60843 -1.30142 0
M  V30 345 C 31.205 -0.271897 -1.86832 0
M  V30 346 O 30.562 0.739969 -1.66825 0
M  V30 347 C 30.613 -2.66155 -2.4463 0
M  V30 348 O 30.334 -3.94623 -1.90275 0
M  V30 349 C 31.835 -2.88795 -3.36322 0
M  V30 350 H 29.055 -0.542075 -0.395468 0
M  V30 351 H 31.599 -1.94609 -0.628285 0
M  V30 352 H 29.754 -2.35224 -3.07812 0
M  V30 353 H 30.168 -4.52468 -2.65279 0
M  V30 354 H 31.642 -3.66264 -4.12983 0
M  V30 355 H 32.119 -1.97934 -3.9207 0
M  V30 356 H 32.725 -3.21063 -2.78924 0
M  V30 357 N 31.0401 0.771051 -1.3745 0
M  V30 358 C 32.4561 1.07171 -1.18265 0
M  V30 359 C 32.6561 2.01491 -0.019287 0
M  V30 360 O 31.7121 2.44244 0.640408 0
M  V30 361 C 33.0251 1.66854 -2.50161 0
M  V30 362 C 34.5731 1.79109 -2.56689 0
M  V30 363 C 35.0481 2.42205 -3.88717 0
M  V30 364 N 36.5391 2.49655 -3.90162 0
M  V30 365 C 37.2741 2.9933 -4.8907 0
M  V30 366 N 36.7701 3.49172 -5.98374 0
M  V30 367 N 38.5631 2.9821 -4.76474 0
M  V30 368 H 30.7141 0.144796 -2.11906 0
M  V30 369 H 32.9771 0.126863 -0.939473 0
M  V30 370 H 32.6831 1.05017 -3.35655 0
M  V30 371 H 32.5571 2.6614 -2.673 0
M  V30 372 H 34.9441 2.40077 -1.71601 0
M  V30 373 H 35.0251 0.785757 -2.43433 0
M  V30 374 H 34.6691 1.81875 -4.74219 0
M  V30 375 H 34.5991 3.43345 -3.99276 0
M  V30 376 H 37.0901 2.14383 -3.11205 0
M  V30 377 H 37.4031 3.8548 -6.69795 0
M  V30 378 H 35.7481 3.47275 -6.02018 0
M  V30 379 H 38.9391 2.58572 -3.90203 0
M  V30 380 H 39.1121 3.36613 -5.53711 0
M  V30 381 N 32.5182 1.22032 0.997298 0
M  V30 382 C 33.9342 0.979326 1.26021 0
M  V30 383 C 34.1342 -0.32972 1.98784 0
M  V30 384 O 33.1902 -1.05345 2.29475 0
M  V30 385 C 34.5032 2.17509 2.07631 0
M  V30 386 C 36.0512 2.21817 2.2083 0
M  V30 387 C 36.5262 3.40933 3.05825 0
M  V30 388 N 38.0172 3.41067 3.13412 0
M  V30 389 C 38.7522 4.29885 3.79455 0
M  V30 390 N 38.2482 5.28914 4.47462 0
M  V30 391 N 40.0412 4.17673 3.76173 0
M  V30 392 H 32.1922 2.06202 0.509352 0
M  V30 393 H 34.4552 0.90334 0.287541 0
M  V30 394 H 34.1612 3.12415 1.61524 0
M  V30 395 H 34.0352 2.17206 3.08385 0
M  V30 396 H 36.4222 1.27462 2.66153 0
M  V30 397 H 36.5032 2.2616 1.1952 0
M  V30 398 H 36.1472 4.35586 2.61203 0
M  V30 399 H 36.0772 3.33829 4.07266 0
M  V30 400 H 38.5682 2.69406 2.65007 0
M  V30 401 H 38.8812 5.92973 4.95583 0
M  V30 402 H 37.2262 5.32831 4.46224 0
M  V30 403 H 40.4172 3.39564 3.22202 0
M  V30 404 H 40.5902 4.87098 4.27363 0
M  V30 405 N 33.9963 -1.19345 1.0293 0
M  V30 406 C 34.9593 -2.20793 0.615069 0
M  V30 407 C 35.9593 -1.57553 -0.321533 0
M  V30 408 O 37.1493 -1.73862 -0.108483 0
M  V30 409 C 34.2813 -3.40754 -0.0999222 0
M  V30 410 H 35.4743 -2.58955 1.51269 0
M  V30 411 H 33.0273 -1.3303 0.820534 0
M  V30 412 H 33.7623 -3.0811 -1.01187 0
M  V30 413 H 33.5473 -3.87889 0.57309 0
M  V30 414 H 35.0373 -4.15898 -0.376645 0
M  V30 415 N 35.4744 -0.807222 -1.35358 0
M  V30 416 C 36.4374 -0.223665 -2.28106 0
M  V30 417 C 37.4374 0.589354 -1.4961 0
M  V30 418 O 38.6274 0.407745 -1.69361 0
M  V30 419 C 35.7594 0.688149 -3.33882 0
M  V30 420 H 36.9524 -1.04169 -2.81227 0
M  V30 421 H 34.5054 -0.577921 -1.45223 0
M  V30 422 H 35.2404 1.52984 -2.85948 0
M  V30 423 H 35.0254 0.10687 -3.91954 0
M  V30 424 H 36.5154 1.09075 -4.03104 0
M  V30 425 N 36.9525 1.47285 -0.560781 0
M  V30 426 C 38.2295 1.9558 0.0277798 0
M  V30 427 C 38.6095 1.5034 1.48192 0
M  V30 428 O 37.9575 0.743882 2.16052 0
M  V30 429 C 38.1675 3.48789 -0.121418 0
M  V30 430 C 39.5155 4.24594 0.0220912 0
M  V30 431 O 40.5395 3.56166 -0.0491439 0
M  V30 432 O 39.3985 5.46217 0.175958 0
M  V30 433 H 36.4925 0.824663 0.0621342 0
M  V30 434 H 39.0385 1.5767 -0.627556 0
M  V30 435 H 37.8105 3.74533 -1.13316 0
M  V30 436 H 37.4335 3.93473 0.571366 0
M  V30 437 N 38.4306 0.297415 1.54768 0
M  V30 438 C 39.3936 -0.567375 2.22066 0
M  V30 439 C 40.3936 -1.06409 1.20556 0
M  V30 440 O 41.5836 -0.960691 1.45315 0
M  V30 441 C 38.7156 -1.78517 2.90421 0
M  V30 442 H 39.9086 0.0205534 2.99893 0
M  V30 443 H 37.4616 0.0482163 1.56226 0
M  V30 444 H 38.1966 -2.41303 2.16664 0
M  V30 445 H 37.9816 -1.43669 3.64831 0
M  V30 446 H 39.4716 -2.39964 3.41771 0
M  V30 447 N 39.9087 -1.5758 0.0250728 0
M  V30 448 C 40.8587 -2.06468 -0.967201 0
M  V30 449 C 41.8427 -0.964376 -1.28797 0
M  V30 450 O 43.0347 -1.22797 -1.27475 0
M  V30 451 C 40.1637 -2.59203 -2.25097 0
M  V30 452 C 39.2497 -3.76157 -1.95874 0
M  V30 453 N 39.6407 -4.86919 -1.36905 0
M  V30 454 C 37.9387 -3.84566 -2.25887 0
M  V30 455 C 38.6397 -5.68172 -1.24724 0
M  V30 456 N 37.6157 -5.14953 -1.74138 0
M  V30 457 H 41.4177 -2.89508 -0.506176 0
M  V30 458 H 38.9317 -1.61399 -0.18004 0
M  V30 459 H 40.9287 -2.92517 -2.97052 0
M  V30 460 H 39.5887 -1.77592 -2.71829 0
M  V30 461 H 40.5997 -5.07256 -1.04459 0
M  V30 462 H 37.2767 -3.13854 -2.75321 0
M  V30 463 H 38.6667 -6.67221 -0.791605 0
M  V30 464 N 41.3868 0.248026 -1.55636 0
M  V30 465 C 42.3198 1.3334 -1.85191 0
M  V30 466 C 43.2978 1.46429 -0.706906 0
M  V30 467 O 44.4818 1.62662 -0.952544 0
M  V30 468 C 41.6088 2.70703 -2.03562 0
M  V30 469 C 40.6548 2.7477 -3.26196 0
M  V30 470 S 41.4878 2.31493 -4.82878 0
M  V30 471 C 42.6438 3.70783 -5.04253 0
M  V30 472 H 42.8768 1.08072 -2.76962 0
M  V30 473 H 40.4098 0.448952 -1.47729 0
M  V30 474 H 42.3678 3.49798 -2.1483 0
M  V30 475 H 41.0288 2.9321 -1.12635 0
M  V30 476 H 40.2218 3.75648 -3.36013 0
M  V30 477 H 39.8238 2.03719 -3.13647 0
M  V30 478 H 42.1158 4.6627 -4.91527 0
M  V30 479 H 43.0588 3.65901 -6.06236 0
M  V30 480 H 43.4668 3.63244 -4.32105 0
M  V30 481 N 42.8649 1.48995 0.513639 0
M  V30 482 C 43.8279 1.64229 1.59879 0
M  V30 483 C 44.8279 0.514696 1.5234 0
M  V30 484 O 46.0179 0.78087 1.55718 0
M  V30 485 C 43.1499 1.62783 2.99524 0
M  V30 486 H 44.3429 2.61004 1.47705 0
M  V30 487 H 41.8959 1.37837 0.736936 0
M  V30 488 H 42.6309 0.675461 3.17188 0
M  V30 489 H 42.4159 2.4466 3.06404 0
M  V30 490 H 43.9059 1.76669 3.78388 0
M  V30 491 N 44.343 -0.763751 1.37857 0
M  V30 492 C 45.291 -1.89864 1.34367 0
M  V30 493 C 46.285 -1.67816 0.231143 0
M  V30 494 O 47.491 -1.75508 0.399617 0
M  V30 495 H 43.866 -0.624501 0.41893 0
M  V30 496 H 45.837 -1.89925 2.30155 0
M  V30 497 C 44.586 -3.27227 1.1755 0
M  V30 498 H 43.909 -3.44773 2.02414 0
M  V30 499 H 45.349 -4.06911 1.1916 0
M  V30 500 C 43.808 -3.36692 -0.118311 0
M  V30 501 O 44.338 -3.86374 -1.09902 0
M  V30 502 N 42.544 -2.90092 -0.171717 0
M  V30 503 H 42.091 -2.49853 0.627012 0
M  V30 504 H 42.049 -2.96806 -1.03699 0
M  V30 505 N 45.8211 -1.22559 -0.990812 0
M  V30 506 C 46.7681 -0.997519 -2.0813 0
M  V30 507 C 47.7381 0.0814702 -1.659 0
M  V30 508 O 48.9231 -0.0685424 -1.90677 0
M  V30 509 C 46.0631 -0.583615 -3.40129 0
M  V30 510 C 45.1761 -1.7336 -3.9569 0
M  V30 511 C 44.3111 -1.26748 -5.15857 0
M  V30 512 C 43.3501 -2.38888 -5.63559 0
M  V30 513 N 42.4871 -1.93308 -6.74964 0
M  V30 514 H 47.3271 -1.93099 -2.26973 0
M  V30 515 H 44.8641 -0.962114 -1.11273 0
M  V30 516 H 46.8221 -0.324801 -4.15934 0
M  V30 517 H 45.4521 0.312845 -3.2128 0
M  V30 518 H 44.5041 -2.10669 -3.16738 0
M  V30 519 H 45.8161 -2.57704 -4.27071 0
M  V30 520 H 44.9701 -0.966173 -5.98957 0
M  V30 521 H 43.7091 -0.394272 -4.86104 0
M  V30 522 H 42.7141 -2.69805 -4.79046 0
M  V30 523 H 43.9391 -3.26728 -5.95336 0
M  V30 524 H 41.8851 -1.08352 -6.4699 0
M  V30 525 H 41.8021 -2.71217 -7.05675 0
M  V30 526 H 43.0701 -1.66252 -7.61564 0
M  V30 527 N 47.2992 1.18797 -1.03562 0
M  V30 528 C 48.2292 2.24472 -0.643019 0
M  V30 529 C 49.2102 1.66433 0.351283 0
M  V30 530 O 50.3952 1.92803 0.232505 0
M  V30 531 C 47.5252 3.473 4.24935e-05 0
M  V30 532 C 46.4792 4.18055 -0.917257 0
M  V30 533 C 45.8052 5.34519 -0.138941 0
M  V30 534 C 47.1052 4.72109 -2.23407 0
M  V30 535 H 48.7992 2.57566 -1.52643 0
M  V30 536 H 46.3452 1.23806 -0.735394 0
M  V30 537 H 48.2982 4.20426 0.286383 0
M  V30 538 H 47.0222 3.13424 0.918299 0
M  V30 539 H 45.6812 3.46821 -1.1879 0
M  V30 540 H 45.3292 4.96891 0.781562 0
M  V30 541 H 45.0292 5.82794 -0.750005 0
M  V30 542 H 46.5532 6.10438 0.1405 0
M  V30 543 H 47.9672 5.36955 -2.00879 0
M  V30 544 H 46.3642 5.30897 -2.79765 0
M  V30 545 H 47.4342 3.89807 -2.88407 0
M  V30 546 N 48.7773 0.814389 1.34928 0
M  V30 547 C 49.6873 0.231978 2.3345 0
M  V30 548 C 50.7033 -0.629139 1.62228 0
M  V30 549 O 51.8793 -0.539052 1.94052 0
M  V30 550 C 48.9443 -0.603482 3.41407 0
M  V30 551 C 48.0053 0.279037 4.28392 0
M  V30 552 C 47.2383 -0.516643 5.31193 0
M  V30 553 O 47.4613 -1.75068 5.4287 0
M  V30 554 O 46.3953 0.0965652 6.01823 0
M  V30 555 H 50.2213 1.04721 2.85074 0
M  V30 556 H 47.8063 0.576343 1.37836 0
M  V30 557 H 49.6883 -1.07908 4.0735 0
M  V30 558 H 48.3633 -1.39618 2.92042 0
M  V30 559 H 47.2703 0.801948 3.65403 0
M  V30 560 H 48.6033 1.03588 4.81176 0
M  V30 561 N 50.2554 -1.46986 0.568584 0
M  V30 562 C 51.5024 -2.02441 0.0487986 0
M  V30 563 C 51.8304 -1.44169 -1.30559 0
M  V30 564 O 51.0854 -0.591213 -1.86556 0
M  V30 565 C 51.3844 -3.57306 -0.081836 0
M  V30 566 C 51.0504 -4.34552 1.20313 0
M  V30 567 C 49.7124 -4.55376 1.5552 0
M  V30 568 C 52.0644 -4.79016 2.05411 0
M  V30 569 C 49.3924 -5.17913 2.7565 0
M  V30 570 C 51.7444 -5.42879 3.24754 0
M  V30 571 C 50.4084 -5.61933 3.60261 0
M  V30 572 H 49.6784 -0.740785 0.0178567 0
M  V30 573 H 52.3254 -1.76525 0.742384 0
M  V30 574 H 50.6304 -3.8228 -0.858463 0
M  V30 575 H 52.3274 -3.97876 -0.499546 0
M  V30 576 H 48.9174 -4.18631 0.919014 0
M  V30 577 H 53.1014 -4.62696 1.79516 0
M  V30 578 H 48.3574 -5.30858 3.03315 0
M  V30 579 H 52.5314 -5.76293 3.90973 0
M  V30 580 H 50.1584 -6.10161 4.53439 0
M  V30 581 N 51.7335 -0.305618 -1.54608 0
M  V30 582 C 53.1445 0.186098 -1.8577 0
M  V30 583 C 53.4955 1.53058 -1.22751 0
M  V30 584 O 52.6205 2.09888 -0.526893 0
M  V30 585 C 53.2155 0.344449 -3.37044 0
M  V30 586 C 51.7745 0.780384 -3.68221 0
M  V30 587 C 50.9215 -0.108554 -2.77087 0
M  V30 588 H 53.8725 -0.526485 -1.49712 0
M  V30 589 H 53.8935 1.17828 -3.61796 0
M  V30 590 H 53.4055 -0.634235 -3.82883 0
M  V30 591 H 51.5065 1.76945 -3.27904 0
M  V30 592 H 51.6195 0.596572 -4.75371 0
M  V30 593 H 49.9835 0.412931 -2.5133 0
M  V30 594 H 50.7665 -1.08368 -3.25747 0
M  V30 595 N 53.2116 1.57565 -0.0334293 0
M  V30 596 C 54.4596 1.91598 0.642999 0
M  V30 597 C 54.7806 0.910847 1.7242 0
M  V30 598 O 54.0506 -0.0469931 1.95844 0
M  V30 599 H 52.6306 0.707228 0.240496 0
M  V30 600 H 55.2926 1.94726 -0.0822488 0
M  V30 601 H 54.3886 2.92336 1.09298 0
M  V30 602 N 54.6897 -0.239769 1.55765 0
M  V30 603 C 55.9377 -0.964892 1.77579 0
M  V30 604 C 56.2587 -1.85582 0.598699 0
M  V30 605 O 55.5287 -1.92075 -0.385226 0
M  V30 606 H 54.1087 -0.359265 0.654933 0
M  V30 607 H 56.7707 -0.256001 1.93211 0
M  V30 608 H 55.8667 -1.58243 2.69009 0
M  V30 609 N 56.1678 -1.49265 -0.50573 0
M  V30 610 C 57.1148 -1.65585 -1.6078 0
M  V30 611 C 58.0848 -0.497396 -1.58478 0
M  V30 612 O 59.2698 -0.72385 -1.76536 0
M  V30 613 C 56.4098 -1.72408 -2.98948 0
M  V30 614 C 55.5228 -2.99525 -3.11301 0
M  V30 615 C 54.6578 -2.97356 -4.40174 0
M  V30 616 C 53.6968 -4.19074 -4.46143 0
M  V30 617 N 52.8338 -4.14841 -5.66437 0
M  V30 618 H 57.6738 -2.59688 -1.46172 0
M  V30 619 H 55.2108 -1.28761 -0.711261 0
M  V30 620 H 57.1688 -1.74344 -3.79025 0
M  V30 621 H 55.7988 -0.817753 -3.1227 0
M  V30 622 H 54.8508 -3.07222 -2.24318 0
M  V30 623 H 56.1628 -3.89518 -3.11572 0
M  V30 624 H 55.3168 -2.97829 -5.28567 0
M  V30 625 H 54.0558 -2.05133 -4.42461 0
M  V30 626 H 53.0608 -4.1885 -3.56153 0
M  V30 627 H 54.2858 -5.12483 -4.45575 0
M  V30 628 H 52.2318 -3.25453 -5.69575 0
M  V30 629 H 52.1488 -4.98564 -5.68304 0
M  V30 630 H 53.4168 -4.1941 -6.57051 0
M  V30 631 N 57.6459 0.756429 -1.3826 0
M  V30 632 C 58.8949 1.51082 -1.3363 0
M  V30 633 C 59.2079 1.95467 0.0720068 0
M  V30 634 O 60.4139 2.7043 0.240834 0
M  V30 635 C 58.8699 2.72893 -2.34644 0
M  V30 636 C 58.4779 2.35544 -3.81081 0
M  V30 637 C 60.2219 3.50791 -2.39052 0
M  V30 638 C 58.1289 3.53948 -4.73787 0
M  V30 639 H 57.0589 0.56727 -0.49671 0
M  V30 640 H 59.7099 0.827147 -1.638 0
M  V30 641 H 58.0919 3.43227 -1.97513 0
M  V30 642 H 59.2659 1.72894 -4.27135 0
M  V30 643 H 57.5809 1.70786 -3.79764 0
M  V30 644 H 60.1779 4.38823 -3.05513 0
M  V30 645 H 60.5209 3.91745 -1.40861 0
M  V30 646 H 61.0539 2.87467 -2.74968 0
M  V30 647 H 57.7929 3.18064 -5.73163 0
M  V30 648 H 57.3129 4.15651 -4.32428 0
M  V30 649 H 58.9919 4.20566 -4.91663 0
M  V30 650 N 59.124 1.23083 0.984299 0
M  V30 651 C 60.034 1.02515 2.11016 0
M  V30 652 C 61.05 -0.0291702 1.73976 0
M  V30 653 O 62.226 0.165434 2.00719 0
M  V30 654 C 59.291 0.614673 3.41208 0
M  V30 655 C 58.352 1.74359 3.92297 0
M  V30 656 C 57.585 1.35261 5.16275 0
M  V30 657 O 57.808 0.235136 5.69915 0
M  V30 658 O 56.742 2.17227 5.61334 0
M  V30 659 H 60.568 1.96862 2.31255 0
M  V30 660 H 58.153 1.01753 1.09392 0
M  V30 661 H 60.035 0.396518 4.1953 0
M  V30 662 H 58.71 -0.299851 3.22308 0
M  V30 663 H 57.617 2.01635 3.1511 0
M  V30 664 H 58.95 2.63629 4.15645 0
M  V30 665 N 60.6021 -1.18246 1.0419 0
M  V30 666 C 61.5351 -2.20746 0.578474 0
M  V30 667 C 62.5131 -1.57912 -0.387624 0
M  V30 668 O 63.6971 -1.86071 -0.301634 0
M  V30 669 C 60.8241 -3.38346 -0.154762 0
M  V30 670 C 59.8701 -4.19587 0.764782 0
M  V30 671 S 60.7031 -4.86014 2.24835 0
M  V30 672 C 61.8591 -6.07012 1.526 0
M  V30 673 H 62.0921 -2.59715 1.44691 0
M  V30 674 H 59.6251 -1.287 0.85297 0
M  V30 675 H 61.5831 -4.065 -0.571641 0
M  V30 676 H 60.2441 -2.97786 -0.999105 0
M  V30 677 H 59.4371 -5.03611 0.197976 0
M  V30 678 H 59.0391 -3.56818 1.12057 0
M  V30 679 H 61.3311 -6.72523 0.819733 0
M  V30 680 H 62.2741 -6.68202 2.34333 0
M  V30 681 H 62.6821 -5.55249 1.01779 0
M  V30 682 N 62.0802 -0.821533 -1.34494 0
M  V30 683 C 63.3282 -0.408139 -1.97936 0
M  V30 684 C 63.6492 1.03193 -1.65457 0
M  V30 685 O 62.9192 1.71622 -0.944595 0
M  V30 686 H 61.4992 -0.147928 -0.732206 0
M  V30 687 H 64.1612 -1.05067 -1.64155 0
M  V30 688 H 63.2572 -0.52601 -3.07635 0
M  V30 689 N 63.5583 1.46682 -0.576371 0
M  V30 690 C 64.4683 2.34032 0.163141 0
M  V30 691 C 65.4843 1.49367 0.892501 0
M  V30 692 O 66.6603 1.82252 0.857106 0
M  V30 693 C 63.7253 3.26435 1.16795 0
M  V30 694 C 62.7863 4.26998 0.443944 0
M  V30 695 C 62.0193 5.14986 1.40088 0
M  V30 696 O 62.2423 5.05785 2.637 0
M  V30 697 O 61.1763 5.94906 0.914917 0
M  V30 698 H 65.0023 2.98607 -0.55388 0
M  V30 699 H 62.5873 1.45554 -0.336821 0
M  V30 700 H 64.4693 3.83459 1.74748 0
M  V30 701 H 63.1443 2.64465 1.86655 0
M  V30 702 H 62.0513 3.7368 -0.177271 0
M  V30 703 H 63.3843 4.91736 -0.213566 0
M  V30 704 N 65.0364 0.313813 1.54444 0
M  V30 705 C 66.2644 -0.293918 2.04802 0
M  V30 706 C 66.6794 -1.46537 1.19047 0
M  V30 707 O 66.0364 -1.81182 0.218939 0
M  V30 708 C 66.0874 -0.737806 3.53891 0
M  V30 709 O 65.8084 0.387038 4.36387 0
M  V30 710 C 67.3094 -1.40936 4.203 0
M  V30 711 H 64.5294 -0.0620057 0.668129 0
M  V30 712 H 67.0734 0.457169 1.99324 0
M  V30 713 H 65.2284 -1.43889 3.59687 0
M  V30 714 H 65.6424 0.0391274 5.24485 0
M  V30 715 H 67.1164 -1.67099 5.26101 0
M  V30 716 H 67.5934 -2.35355 3.70816 0
M  V30 717 H 68.1994 -0.751117 4.18615 0
M  V30 718 N 66.5145 -1.57545 0.0417849 0
M  V30 719 C 67.9255 -1.80011 -0.495259 0
M  V30 720 C 68.2765 -0.953199 -1.71489 0
M  V30 721 O 67.4015 -0.167138 -2.15754 0
M  V30 722 C 67.9965 -3.26482 -0.905265 0
M  V30 723 C 66.5555 -3.499 -1.38734 0
M  V30 724 C 65.7025 -2.74979 -0.358056 0
M  V30 725 H 68.6535 -1.56425 0.267736 0
M  V30 726 H 68.6745 -3.36887 -1.76882 0
M  V30 727 H 68.1865 -3.88096 -0.017401 0
M  V30 728 H 66.2875 -2.93553 -2.29471 0
M  V30 729 H 66.4005 -4.58615 -1.38598 0
M  V30 730 H 64.7645 -2.40834 -0.828912 0
M  V30 731 H 65.5475 -3.39315 0.521561 0
M  V30 732 N 67.9926 0.231505 -1.5589 0
M  V30 733 C 68.9026 1.308 -1.94752 0
M  V30 734 C 69.9186 1.51826 -0.849989 0
M  V30 735 O 71.0946 1.6515 -1.15271 0
M  V30 736 C 68.1596 2.63968 -2.24771 0
M  V30 737 C 67.2206 2.51331 -3.48039 0
M  V30 738 C 66.4536 3.78148 -3.76616 0
M  V30 739 O 66.6766 4.80722 -3.07022 0
M  V30 740 O 65.6106 3.75857 -4.70123 0
M  V30 741 H 69.4366 1.0083 -2.86474 0
M  V30 742 H 67.0216 0.433547 -1.42971 0
M  V30 743 H 68.9036 3.42633 -2.45318 0
M  V30 744 H 67.5786 2.9364 -1.36225 0
M  V30 745 H 66.4856 1.709 -3.32782 0
M  V30 746 H 67.8186 2.26601 -4.36936 0
M  V30 747 N 69.4707 1.49531 0.497807 0
M  V30 748 C 70.4027 1.62559 1.61578 0
M  V30 749 C 71.4157 0.508134 1.54667 0
M  V30 750 O 72.6047 0.780309 1.60541 0
M  V30 751 C 69.7047 1.56925 3.00379 0
M  V30 752 C 68.8777 2.84257 3.3244 0
M  V30 753 C 67.9367 2.71632 4.50669 0
M  V30 754 O 66.9627 3.4557 4.52294 0
M  V30 755 N 68.1647 1.83391 5.5077 0
M  V30 756 H 70.9297 2.58981 1.50828 0
M  V30 757 H 68.4907 1.4666 0.685743 0
M  V30 758 H 70.4827 1.46129 3.77397 0
M  V30 759 H 69.0527 0.683483 3.05037 0
M  V30 760 H 68.2727 3.09381 2.44289 0
M  V30 761 H 69.5607 3.68666 3.5066 0
M  V30 762 H 68.9587 1.22583 5.52259 0
M  V30 763 H 67.5157 1.78515 6.26878 0
M  V30 764 N 70.9488 -0.749086 1.3866 0
M  V30 765 C 71.9118 -1.84457 1.36045 0
M  V30 766 C 72.9118 -1.58682 0.260122 0
M  V30 767 O 74.1018 -1.66343 0.517261 0
M  V30 768 C 71.2338 -3.22008 1.11911 0
M  V30 769 H 72.4268 -1.88182 2.33512 0
M  V30 770 H 69.9798 -0.951266 1.24019 0
M  V30 771 H 70.7148 -3.2395 0.150686 0
M  V30 772 H 70.4998 -3.42111 1.91579 0
M  V30 773 H 71.9898 -4.0208 1.12788 0
M  V30 774 N 72.4269 -1.23603 -0.977757 0
M  V30 775 C 73.6729 -1.07129 -1.72195 0
M  V30 776 C 74.0059 0.390501 -1.90233 0
M  V30 777 O 73.2809 1.28902 -1.45653 0
M  V30 778 C 73.5639 -1.80031 -3.11867 0
M  V30 779 C 73.4169 -3.33899 -3.01383 0
M  V30 780 C 74.7359 -1.56492 -4.11337 0
M  V30 781 H 71.8549 -0.390571 -0.624999 0
M  V30 782 H 74.4969 -1.52142 -1.13811 0
M  V30 783 H 72.6469 -1.41768 -3.6171 0
M  V30 784 H 74.3189 -3.81699 -2.59043 0
M  V30 785 H 72.5619 -3.62796 -2.37827 0
M  V30 786 H 73.2329 -3.801 -4.00285 0
M  V30 787 H 75.7089 -1.89757 -3.70313 0
M  V30 788 H 74.5849 -2.09973 -5.07151 0
M  V30 789 H 74.8459 -0.500874 -4.39254 0
M  V30 790 N 73.905 1.17692 -1.04816 0
M  V30 791 C 75.151 1.88137 -0.75711 0
M  V30 792 C 75.484 1.80604 0.713841 0
M  V30 793 O 74.759 1.21146 1.52164 0
M  V30 794 C 75.042 3.38318 -1.2334 0
M  V30 795 C 74.895 3.54622 -2.76701 0
M  V30 796 C 76.214 4.32214 -0.829415 0
M  V30 797 H 73.333 0.683163 -0.27651 0
M  V30 798 H 75.975 1.38424 -1.30149 0
M  V30 799 H 74.125 3.80787 -0.770286 0
M  V30 800 H 75.797 3.21194 -3.31107 0
M  V30 801 H 74.04 2.97026 -3.16161 0
M  V30 802 H 74.711 4.60028 -3.05088 0
M  V30 803 H 77.187 3.97565 -1.22805 0
M  V30 804 H 76.063 5.35838 -1.19033 0
M  V30 805 H 76.324 4.41294 0.266891 0
M  V30 806 N 75.3831 0.828654 1.34056 0
M  V30 807 C 76.7991 0.515135 1.51058 0
M  V30 808 C 76.9991 -0.959581 1.77184 0
M  V30 809 O 76.0551 -1.74382 1.82612 0
M  V30 810 C 77.3681 1.37963 2.67183 0
M  V30 811 C 78.9161 1.37735 2.81066 0
M  V30 812 C 79.3911 2.22645 4.00241 0
M  V30 813 N 80.8821 2.203 4.07458 0
M  V30 814 C 81.6171 2.82744 4.98842 0
M  V30 815 N 81.1131 3.54201 5.9541 0
M  V30 816 N 82.9061 2.72268 4.91759 0
M  V30 817 H 75.0571 1.78343 1.15358 0
M  V30 818 H 77.3201 0.760304 0.566252 0
M  V30 819 H 77.0261 2.42714 2.54525 0
M  V30 820 H 76.9001 1.0484 3.62338 0
M  V30 821 H 79.2871 0.337593 2.93163 0
M  V30 822 H 79.3681 1.74859 1.86703 0
M  V30 823 H 79.0121 3.26674 3.88905 0
M  V30 824 H 78.9421 1.82869 4.93829 0
M  V30 825 H 81.4331 1.68327 3.38341 0
M  V30 826 H 81.7461 3.9908 6.61782 0
M  V30 827 H 80.0911 3.58308 5.95517 0
M  V30 828 H 83.2821 2.16014 4.15278 0
M  V30 829 H 83.4551 3.21219 5.62781 0
M  V30 830 N 76.8612 -1.46375 0.584142 0
M  V30 831 C 77.7712 -2.34115 -0.150728 0
M  V30 832 C 78.7872 -1.49838 -0.884567 0
M  V30 833 O 79.9632 -1.82704 -0.847429 0
M  V30 834 C 77.0282 -3.2705 -1.15062 0
M  V30 835 C 76.0892 -4.27228 -0.421293 0
M  V30 836 C 75.3222 -5.15722 -1.37355 0
M  V30 837 O 75.5452 -5.07176 -2.61014 0
M  V30 838 O 74.4792 -5.95383 -0.883355 0
M  V30 839 H 78.3052 -2.98309 0.569708 0
M  V30 840 H 75.8902 -1.45373 0.344535 0
M  V30 841 H 77.7722 -3.84381 -1.72712 0
M  V30 842 H 76.4472 -2.65451 -1.8525 0
M  V30 843 H 75.3542 -3.7358 0.197085 0
M  V30 844 H 76.6872 -4.91616 0.239641 0
M  V30 845 N 78.3393 -0.321999 -1.54275 0
M  V30 846 C 79.2693 0.537411 -2.27231 0
M  V30 847 C 80.2503 1.12064 -1.27968 0
M  V30 848 O 81.4353 1.14606 -1.56777 0
M  V30 849 C 78.5653 1.69919 -3.02894 0
M  V30 850 C 77.5193 1.24534 -4.09482 0
M  V30 851 C 76.8453 2.49394 -4.72977 0
M  V30 852 C 78.1453 0.361335 -5.21049 0
M  V30 853 H 79.8393 -0.0711406 -2.99315 0
M  V30 854 H 77.3853 -0.0356555 -1.43956 0
M  V30 855 H 79.3383 2.30668 -3.52662 0
M  V30 856 H 78.0623 2.33431 -2.28424 0
M  V30 857 H 76.7213 0.660782 -3.60596 0
M  V30 858 H 76.3693 3.11265 -3.95124 0
M  V30 859 H 76.0693 2.19718 -5.44975 0
M  V30 860 H 77.5933 3.10908 -5.25517 0
M  V30 861 H 79.0073 0.875072 -5.66582 0
M  V30 862 H 77.4043 0.157428 -5.99893 0
M  V30 863 H 78.4743 -0.60822 -4.8107 0
M  V30 864 N 79.8174 1.5752 -0.0501392 0
M  V30 865 C 80.7494 2.08413 0.95376 0
M  V30 866 C 81.7624 1.01175 1.27544 0
M  V30 867 O 82.9514 1.28744 1.23641 0
M  V30 868 C 80.0514 2.51138 2.27559 0
M  V30 869 C 79.2244 3.817 2.13598 0
M  V30 870 C 78.2834 4.10749 3.28895 0
M  V30 871 O 77.3094 4.80685 3.04845 0
M  V30 872 N 78.5114 3.62579 4.5334 0
M  V30 873 H 81.2764 2.95165 0.519383 0
M  V30 874 H 78.8374 1.61327 0.136127 0
M  V30 875 H 80.8294 2.67648 3.03557 0
M  V30 876 H 79.3994 1.6964 2.62567 0
M  V30 877 H 78.6194 3.74782 1.22197 0
M  V30 878 H 79.9074 4.67201 2.01496 0
M  V30 879 H 79.3054 3.06039 4.75769 0
M  V30 880 H 77.8624 3.84329 5.26436 0
M  V30 881 N 81.2955 -0.223234 1.56011 0
M  V30 882 C 82.2055 -1.29766 1.95443 0
M  V30 883 C 83.2215 -1.51373 0.858028 0
M  V30 884 O 84.3975 -1.64536 1.16146 0
M  V30 885 C 81.4625 -2.62772 2.26167 0
M  V30 886 C 80.5235 -2.49482 3.49367 0
M  V30 887 C 79.7565 -3.76145 3.78616 0
M  V30 888 O 79.9795 -4.79087 3.09568 0
M  V30 889 O 78.9135 -3.73358 4.72109 0
M  V30 890 H 82.7395 -0.99309 2.87004 0
M  V30 891 H 80.3245 -0.425958 1.43199 0
M  V30 892 H 82.2065 -3.41327 2.47131 0
M  V30 893 H 80.8815 -2.92913 1.37781 0
M  V30 894 H 79.7885 -1.69133 3.33684 0
M  V30 895 H 81.1215 -2.2428 4.38131 0
M  V30 896 N 82.7736 -1.49793 -0.48987 0
M  V30 897 C 83.6836 -1.70036 -1.61632 0
M  V30 898 C 84.6996 -0.583102 -1.63939 0
M  V30 899 O 85.8756 -0.859169 -1.82154 0
M  V30 900 C 82.9406 -1.77277 -2.97949 0
M  V30 901 C 82.0016 -3.00918 -3.06181 0
M  V30 902 C 81.2346 -3.07804 -4.35996 0
M  V30 903 O 81.4576 -2.21982 -5.25433 0
M  V30 904 O 80.3916 -4.00369 -4.49431 0
M  V30 905 H 84.2176 -2.65486 -1.47482 0
M  V30 906 H 81.8026 -1.33666 -0.667362 0
M  V30 907 H 83.6846 -1.84329 -3.78947 0
M  V30 908 H 82.3596 -0.850076 -3.12339 0
M  V30 909 H 81.2666 -2.99377 -2.2433 0
M  V30 910 H 82.5996 -3.92704 -2.96723 0
M  V30 911 N 84.2517 0.741722 -1.39055 0
M  V30 912 C 85.4977 1.50336 -1.36113 0
M  V30 913 C 85.8307 1.94148 0.0450796 0
M  V30 914 O 85.1057 1.66301 1.00868 0
M  V30 915 C 85.3887 2.74773 -2.32749 0
M  V30 916 C 85.2417 2.37023 -3.82283 0
M  V30 917 C 86.5607 3.76846 -2.27322 0
M  V30 918 H 83.6797 0.545351 -0.495743 0
M  V30 919 H 86.3217 0.848624 -1.69995 0
M  V30 920 H 84.4717 3.30639 -2.03986 0
M  V30 921 H 86.1437 1.8684 -4.21768 0
M  V30 922 H 84.3867 1.69334 -3.99385 0
M  V30 923 H 85.0577 3.26104 -4.45376 0
M  V30 924 H 87.5337 3.30548 -2.5274 0
M  V30 925 H 86.4097 4.6159 -2.97028 0
M  V30 926 H 86.6707 4.23286 -1.27599 0
M  V30 927 N 85.7298 1.2412 0.971189 0
M  V30 928 C 86.9778 1.07668 1.71032 0
M  V30 929 C 87.2988 -0.385797 1.91146 0
M  V30 930 O 86.5688 -1.27569 1.4867 0
M  V30 931 H 85.1488 0.395429 0.633755 0
M  V30 932 H 87.8108 1.55984 1.16855 0
M  V30 933 H 86.9068 1.57195 2.69622 0
M  V30 934 N 87.2079 -1.17134 1.05439 0
M  V30 935 C 88.4569 -1.86791 0.761049 0
M  V30 936 C 88.7699 -1.82072 -0.714795 0
M  V30 937 O 89.9759 -2.47223 -1.12218 0
M  V30 938 C 88.4319 -3.35166 1.31117 0
M  V30 939 C 88.0399 -3.48381 2.81664 0
M  V30 940 C 89.7839 -4.10134 1.09499 0
M  V30 941 C 87.6909 -4.90793 3.29964 0
M  V30 942 H 86.6209 -0.699681 0.281002 0
M  V30 943 H 89.2719 -1.3226 1.27199 0
M  V30 944 H 87.6539 -3.8925 0.72803 0
M  V30 945 H 88.8279 -3.04502 3.45855 0
M  V30 946 H 87.1429 -2.86836 3.01851 0
M  V30 947 H 89.7399 -5.152 1.43084 0
M  V30 948 H 90.0829 -4.16287 0.0328772 0
M  V30 949 H 90.6159 -3.62264 1.64346 0
M  V30 950 H 87.3549 -4.89816 4.35616 0
M  V30 951 H 86.8749 -5.35333 2.70516 0
M  V30 952 H 88.5539 -5.59573 3.24787 0
M  V30 953 N 88.686 -0.835752 -1.33615 0
M  V30 954 C 89.914 -0.443344 -2.02094 0
M  V30 955 C 90.329 0.954522 -1.62894 0
M  V30 956 O 89.686 1.61982 -0.840723 0
M  V30 957 C 89.737 -0.550775 -3.5728 0
M  V30 958 O 89.458 -1.89356 -3.95065 0
M  V30 959 C 90.959 -0.154919 -4.43029 0
M  V30 960 H 88.179 -0.176359 -0.647409 0
M  V30 961 H 90.723 -1.12746 -1.70612 0
M  V30 962 H 88.878 0.0853997 -3.87306 0
M  V30 963 H 89.292 -1.87687 -4.89769 0
M  V30 964 H 90.766 -0.281144 -5.51284 0
M  V30 965 H 91.243 0.902863 -4.2982 0
M  V30 966 H 91.849 -0.765404 -4.18356 0
M  V30 967 N 90.1641 1.46063 -0.591896 0
M  V30 968 C 91.5751 1.85944 -0.167822 0
M  V30 969 C 91.9261 1.49429 1.27143 0
M  V30 970 O 91.0511 0.913515 1.96173 0
M  V30 971 C 91.6461 3.37489 -0.297794 0
M  V30 972 C 90.2051 3.76332 0.0714732 0
M  V30 973 C 89.3521 2.7006 -0.629509 0
M  V30 974 H 92.3031 1.37087 -0.799555 0
M  V30 975 H 92.3241 3.77532 0.474349 0
M  V30 976 H 91.8361 3.64034 -1.3454 0
M  V30 977 H 89.9371 3.55405 1.11886 0
M  V30 978 H 90.0501 4.78088 -0.311245 0
M  V30 979 H 88.4141 2.54607 -0.0687867 0
M  V30 980 H 89.1971 2.99444 -1.67894 0
M  V30 981 N 91.6422 0.330177 1.54103 0
M  V30 982 C 92.5742 -0.566902 2.22079 0
M  V30 983 C 93.5872 -1.07462 1.22294 0
M  V30 984 O 94.7762 -0.987065 1.48726 0
M  V30 985 C 91.8762 -1.79138 2.87685 0
M  V30 986 C 91.0492 -1.42123 4.13666 0
M  V30 987 C 90.1082 -2.50394 4.62806 0
M  V30 988 O 89.1342 -2.14261 5.27334 0
M  V30 989 N 90.3362 -3.81433 4.37595 0
M  V30 990 H 93.1012 0.0151844 2.99696 0
M  V30 991 H 90.6622 0.153681 1.61169 0
M  V30 992 H 92.6542 -2.50975 3.1748 0
M  V30 993 H 91.2242 -2.28115 2.13734 0
M  V30 994 H 90.4442 -0.534201 3.90564 0
M  V30 995 H 91.7322 -1.14971 4.9564 0
M  V30 996 H 91.1302 -4.13584 3.8596 0
M  V30 997 H 89.6872 -4.4948 4.72029 0
M  V30 998 N 93.1203 -1.57491 0.0584922 0
M  V30 999 C 94.0703 -2.08474 -0.923188 0
M  V30 1000 C 95.0543 -0.991479 -1.26722 0
M  V30 1001 O 96.2463 -1.25473 -1.24842 0
M  V30 1002 C 93.3753 -2.6392 -2.19548 0
M  V30 1003 C 92.4613 -3.80227 -1.87852 0
M  V30 1004 N 92.8523 -4.89714 -1.26546 0
M  V30 1005 C 91.1503 -3.89271 -2.17679 0
M  V30 1006 C 91.8513 -5.70689 -1.12644 0
M  V30 1007 N 90.8273 -5.18531 -1.63176 0
M  V30 1008 H 94.6293 -2.90517 -0.444653 0
M  V30 1009 H 92.1433 -1.61745 -0.145764 0
M  V30 1010 H 94.1403 -2.98752 -2.9078 0
M  V30 1011 H 92.8003 -1.83318 -2.68001 0
M  V30 1012 H 93.8113 -5.09358 -0.936757 0
M  V30 1013 H 90.4883 -3.19623 -2.68602 0
M  V30 1014 H 91.8783 -6.6875 -0.6499 0
M  V30 1015 N 94.5984 0.214957 -1.56127 0
M  V30 1016 C 95.8454 0.938372 -1.79446 0
M  V30 1017 C 96.1734 1.8407 -0.628378 0
M  V30 1018 O 95.4284 1.91837 0.386925 0
M  V30 1019 C 95.7274 1.80314 -3.0858 0
M  V30 1020 C 95.3934 1.05349 -4.3842 0
M  V30 1021 C 94.0554 0.846435 -4.73697 0
M  V30 1022 C 96.4074 0.524588 -5.18553 0
M  V30 1023 C 93.7354 0.098683 -5.86617 0
M  V30 1024 C 96.0874 -0.209853 -6.32252 0
M  V30 1025 C 94.7514 -0.428102 -6.66126 0
M  V30 1026 H 94.0214 0.343375 -0.656639 0
M  V30 1027 H 96.6684 0.206077 -1.90388 0
M  V30 1028 H 94.9734 2.6035 -2.92789 0
M  V30 1029 H 96.6704 2.36513 -3.23825 0
M  V30 1030 H 93.2604 1.22486 -4.10725 0
M  V30 1031 H 97.4444 0.672008 -4.91729 0
M  V30 1032 H 92.7004 -0.0805753 -6.11347 0
M  V30 1033 H 96.8744 -0.627157 -6.9357 0
M  V30 1034 H 94.5014 -1.00944 -7.53468 0
M  V30 1035 N 96.0765 1.50051 0.48192 0
M  V30 1036 C 97.3015 1.64508 1.26301 0
M  V30 1037 C 97.7265 0.323851 1.85291 0
M  V30 1038 O 97.0845 -0.710969 1.66778 0
M  V30 1039 C 97.1325 2.7305 2.35533 0
M  V30 1040 O 96.2365 2.3355 3.39895 0
M  V30 1041 H 95.5775 0.549978 0.372048 0
M  V30 1042 H 98.1075 1.9636 0.574786 0
M  V30 1043 H 98.1175 2.95799 2.8101 0
M  V30 1044 H 96.7925 3.68946 1.91967 0
M  V30 1045 H 95.3695 2.21205 3.00204 0
M  V30 1046 N 97.5546 -0.734337 1.39446 0
M  V30 1047 C 98.4846 -1.86155 1.40955 0
M  V30 1048 C 99.4656 -1.67898 0.272827 0
M  V30 1049 O 100.651 -1.88207 0.478743 0
M  V30 1050 C 97.7806 -3.23912 1.25294 0
M  V30 1051 C 96.7346 -3.56808 2.36373 0
M  V30 1052 C 96.0606 -4.93508 2.058 0
M  V30 1053 C 97.3606 -3.59713 3.78687 0
M  V30 1054 H 99.0546 -1.8515 2.35287 0
M  V30 1055 H 96.6006 -0.889367 1.13253 0
M  V30 1056 H 98.5536 -4.02443 1.2497 0
M  V30 1057 H 97.2776 -3.25446 0.274308 0
M  V30 1058 H 95.9366 -2.80606 2.35914 0
M  V30 1059 H 95.5846 -4.91623 1.06374 0
M  V30 1060 H 95.2846 -5.16486 2.80208 0
M  V30 1061 H 96.8086 -5.74396 2.07128 0
M  V30 1062 H 98.2226 -4.2832 3.81071 0
M  V30 1063 H 96.6196 -3.94209 4.52459 0
M  V30 1064 H 97.6896 -2.59504 4.09617 0
M  V30 1065 N 99.0327 -1.24633 -0.964593 0
M  V30 1066 C 100.28 -1.08788 -1.70796 0
M  V30 1067 C 100.608 0.372783 -1.90894 0
M  V30 1068 O 99.8627 1.29167 -1.47018 0
M  V30 1069 C 100.162 -1.7763 -3.10133 0
M  V30 1070 C 99.8277 -3.27557 -3.09866 0
M  V30 1071 C 98.4897 -3.6846 -3.09501 0
M  V30 1072 C 100.842 -4.23389 -3.03959 0
M  V30 1073 C 98.1697 -5.03624 -3.00965 0
M  V30 1074 C 100.522 -5.58565 -2.96965 0
M  V30 1075 C 99.1857 -5.98809 -2.9493 0
M  V30 1076 H 98.4557 -0.398084 -0.624988 0
M  V30 1077 H 101.103 -1.54777 -1.12767 0
M  V30 1078 H 99.4077 -1.24044 -3.71645 0
M  V30 1079 H 101.105 -1.62832 -3.66451 0
M  V30 1080 H 97.6947 -2.95006 -3.10917 0
M  V30 1081 H 101.879 -3.92787 -3.03368 0
M  V30 1082 H 97.1347 -5.33998 -2.97752 0
M  V30 1083 H 101.309 -6.32523 -2.91354 0
M  V30 1084 H 98.9357 -7.03505 -2.88071 0
M  V30 1085 N 100.511 1.16574 -1.06058 0
M  V30 1086 C 101.421 2.2452 -0.680282 0
M  V30 1087 C 102.437 1.71348 0.302604 0
M  V30 1088 O 103.613 2.00822 0.152513 0
M  V30 1089 C 100.678 3.46629 -0.0700315 0
M  V30 1090 C 99.7388 4.14849 -1.10448 0
M  V30 1091 C 98.9718 5.31129 -0.523256 0
M  V30 1092 O 99.1948 5.66514 0.664709 0
M  V30 1093 O 98.1288 5.88526 -1.26179 0
M  V30 1094 H 101.955 2.59355 -1.58015 0
M  V30 1095 H 99.5398 1.24043 -0.832694 0
M  V30 1096 H 101.422 4.20543 0.268667 0
M  V30 1097 H 100.097 3.13573 0.803353 0
M  V30 1098 H 99.0038 3.42916 -1.49532 0
M  V30 1099 H 100.337 4.51954 -1.94931 0
M  V30 1100 N 101.989 0.842826 1.3317 0
M  V30 1101 C 102.936 0.276885 2.29133 0
M  V30 1102 C 103.906 -0.609527 1.54512 0
M  V30 1103 O 105.091 -0.546955 1.82792 0
M  V30 1104 C 102.231 -0.538707 3.40869 0
M  V30 1105 C 101.344 0.372169 4.30394 0
M  V30 1106 C 100.479 -0.454908 5.29249 0
M  V30 1107 C 99.5179 0.45411 6.10413 0
M  V30 1108 N 98.6549 -0.335075 7.013 0
M  V30 1109 H 103.495 1.10052 2.76934 0
M  V30 1110 H 101.032 0.554161 1.36262 0
M  V30 1111 H 102.99 -1.02709 4.0436 0
M  V30 1112 H 101.62 -1.32727 2.9425 0
M  V30 1113 H 100.672 0.97888 3.6759 0
M  V30 1114 H 101.984 1.0703 4.87182 0
M  V30 1115 H 101.138 -1.00695 5.98285 0
M  V30 1116 H 99.8769 -1.18646 4.73048 0
M  V30 1117 H 98.8819 1.01813 5.40291 0
M  V30 1118 H 100.107 1.18409 6.68697 0
M  V30 1119 H 98.0529 -1.04994 6.47543 0
M  V30 1120 H 97.9699 0.304262 7.55387 0
M  V30 1121 H 99.2379 -0.869224 7.74638 0
M  V30 1122 N 103.467 -1.45747 0.599634 0
M  V30 1123 C 104.397 -2.33235 -0.111306 0
M  V30 1124 C 105.378 -1.46359 -0.866781 0
M  V30 1125 O 106.563 -1.75146 -0.838904 0
M  V30 1126 C 103.693 -3.28932 -1.11451 0
M  V30 1127 C 102.647 -4.25381 -0.472772 0
M  V30 1128 C 101.973 -5.1071 -1.58365 0
M  V30 1129 C 103.273 -5.18831 0.600948 0
M  V30 1130 H 104.967 -2.92927 0.61919 0
M  V30 1131 H 102.513 -1.40857 0.299215 0
M  V30 1132 H 104.466 -3.89002 -1.62036 0
M  V30 1133 H 103.19 -2.67381 -1.8755 0
M  V30 1134 H 101.849 -3.66598 0.0121472 0
M  V30 1135 H 101.497 -4.45533 -2.33473 0
M  V30 1136 H 101.197 -5.7604 -1.15982 0
M  V30 1137 H 102.721 -5.73647 -2.09194 0
M  V30 1138 H 104.135 -5.73019 0.179491 0
M  V30 1139 H 102.532 -5.92595 0.946076 0
M  V30 1140 H 103.602 -4.6174 1.48068 0
M  V30 1141 N 104.945 -0.338344 -1.53925 0
M  V30 1142 C 105.855 0.529421 -2.28548 0
M  V30 1143 C 106.871 1.11645 -1.3346 0
M  V30 1144 O 108.047 1.13325 -1.66492 0
M  V30 1145 C 105.112 1.66713 -3.03987 0
M  V30 1146 C 104.173 1.11041 -4.14691 0
M  V30 1147 C 103.406 2.19389 -4.86522 0
M  V30 1148 O 103.629 3.40013 -4.57982 0
M  V30 1149 O 102.563 1.83976 -5.73094 0
M  V30 1150 H 106.389 -0.0770399 -3.03602 0
M  V30 1151 H 103.974 -0.103555 -1.49041 0
M  V30 1152 H 105.856 2.32918 -3.5118 0
M  V30 1153 H 104.531 2.25949 -2.31794 0
M  V30 1154 H 103.438 0.413024 -3.71813 0
M  V30 1155 H 104.771 0.562975 -4.8897 0
M  V30 1156 N 106.423 1.57458 -0.0668435 0
M  V30 1157 C 107.653 1.97337 0.611677 0
M  V30 1158 C 108.061 0.943744 1.63982 0
M  V30 1159 O 107.404 -0.0785584 1.83532 0
M  V30 1160 C 107.466 3.33511 1.34205 0
M  V30 1161 C 107.13 4.54598 0.467941 0
M  V30 1162 C 108.127 5.19186 -0.272439 0
M  V30 1163 C 105.812 5.0075 0.39427 0
M  V30 1164 C 107.806 6.28274 -1.07476 0
M  V30 1165 C 105.493 6.09711 -0.411729 0
M  V30 1166 C 106.491 6.73335 -1.14492 0
M  V30 1167 O 106.179 7.80199 -1.93763 0
M  V30 1168 H 105.911 0.654042 0.170893 0
M  V30 1169 H 108.465 2.04961 -0.134289 0
M  V30 1170 H 106.695 3.22487 2.13398 0
M  V30 1171 H 108.384 3.58029 1.91233 0
M  V30 1172 H 109.15 4.84477 -0.225086 0
M  V30 1173 H 105.029 4.51009 0.954569 0
M  V30 1174 H 108.573 6.77866 -1.64755 0
M  V30 1175 H 104.47 6.43854 -0.460664 0
M  V30 1176 H 105.238 7.97053 -1.86142 0
M  V30 1177 N 107.901 -0.206675 1.56239 0
M  V30 1178 C 108.811 -1.27686 1.96808 0
M  V30 1179 C 109.827 -1.50455 0.874035 0
M  V30 1180 O 111.003 -1.63295 1.17884 0
M  V30 1181 C 108.068 -2.60358 2.28942 0
M  V30 1182 C 107.129 -2.45762 3.51994 0
M  V30 1183 C 106.362 -3.72108 3.82585 0
M  V30 1184 O 106.585 -4.75776 3.14631 0
M  V30 1185 O 105.519 -3.6833 4.76043 0
M  V30 1186 H 109.345 -0.962593 2.88041 0
M  V30 1187 H 106.93 -0.410746 1.43643 0
M  V30 1188 H 108.812 -3.38687 2.50737 0
M  V30 1189 H 107.487 -2.91435 1.4088 0
M  V30 1190 H 106.394 -1.65584 3.35459 0
M  V30 1191 H 107.727 -2.19621 4.40486 0
M  V30 1192 N 109.379 -1.50304 -0.473955 0
M  V30 1193 C 110.626 -1.6115 -1.22625 0
M  V30 1194 C 110.954 -0.310517 -1.92005 0
M  V30 1195 O 110.209 0.703419 -1.82621 0
M  V30 1196 C 110.508 -2.73938 -2.29549 0
M  V30 1197 C 110.174 -4.14519 -1.7744 0
M  V30 1198 C 108.836 -4.5277 -1.62949 0
M  V30 1199 C 111.188 -5.02392 -1.3875 0
M  V30 1200 C 108.516 -5.76639 -1.08187 0
M  V30 1201 C 110.868 -6.26805 -0.854309 0
M  V30 1202 C 109.532 -6.63861 -0.696011 0
M  V30 1203 H 108.802 -0.589691 -0.448715 0
M  V30 1204 H 111.449 -1.84228 -0.522705 0
M  V30 1205 H 109.754 -2.44937 -3.05799 0
M  V30 1206 H 111.451 -2.79534 -2.87509 0
M  V30 1207 H 108.041 -3.8434 -1.89685 0
M  V30 1208 H 112.225 -4.73474 -1.4878 0
M  V30 1209 H 107.481 -6.04027 -0.946666 0
M  V30 1210 H 111.655 -6.94258 -0.545843 0
M  V30 1211 H 109.282 -7.59722 -0.26952 0
M  V30 1212 N 110.857 0.726932 -1.39834 0
M  V30 1213 C 112.268 1.30558 -1.3346 0
M  V30 1214 C 112.619 1.962 -0.00273003 0
M  V30 1215 O 111.744 1.96826 0.899371 0
M  V30 1216 C 112.339 2.37404 -2.41713 0
M  V30 1217 C 110.898 2.90921 -2.38835 0
M  V30 1218 C 110.045 1.64578 -2.2318 0
M  V30 1219 H 112.996 0.523862 -1.49804 0
M  V30 1220 H 113.017 3.17984 -2.08966 0
M  V30 1221 H 112.529 1.89599 -3.38635 0
M  V30 1222 H 110.63 3.42985 -1.45575 0
M  V30 1223 H 110.743 3.43487 -3.33997 0
M  V30 1224 H 109.107 1.89219 -1.70494 0
M  V30 1225 H 109.89 1.18814 -3.22084 0
M  V30 1226 N 112.336 1.25143 0.95797 0
M  V30 1227 C 113.613 1.00472 1.67823 0
M  V30 1228 C 113.993 -0.470056 2.058 0
M  V30 1229 O 113.341 -1.44663 1.76875 0
M  V30 1230 C 113.551 1.9372 2.90299 0
M  V30 1231 C 114.899 2.21371 3.62326 0
M  V30 1232 O 115.923 1.91451 3.00375 0
M  V30 1233 O 114.782 2.72231 4.7387 0
M  V30 1234 H 111.876 0.380752 0.734137 0
M  V30 1235 H 114.422 1.36283 1.01119 0
M  V30 1236 H 113.194 2.93316 2.59001 0
M  V30 1237 H 112.817 1.58286 3.64735 0
M  V30 1238 N 113.814 -1.1601 1.06675 0
M  V30 1239 C 115.23 -1.38622 0.790948 0
M  V30 1240 C 115.43 -1.92109 -0.607965 0
M  V30 1241 O 114.486 -2.12239 -1.36787 0
M  V30 1242 C 115.799 -2.36347 1.85905 0
M  V30 1243 C 117.347 -2.50023 1.88301 0
M  V30 1244 C 117.822 -3.51033 2.94176 0
M  V30 1245 N 119.313 -3.58563 2.93235 0
M  V30 1246 C 120.048 -4.36521 3.71803 0
M  V30 1247 N 119.544 -5.17869 4.602 0
M  V30 1248 N 121.337 -4.31541 3.60178 0
M  V30 1249 H 113.488 -0.796294 1.96908 0
M  V30 1250 H 115.751 -0.412597 0.853503 0
M  V30 1251 H 115.457 -2.04147 2.86386 0
M  V30 1252 H 115.331 -3.36042 1.71334 0
M  V30 1253 H 117.718 -2.81524 0.884769 0
M  V30 1254 H 117.799 -1.5035 2.06951 0
M  V30 1255 H 117.443 -3.20268 3.94196 0
M  V30 1256 H 117.373 -4.50445 2.72776 0
M  V30 1257 H 119.864 -3.00496 2.29152 0
M  V30 1258 H 120.177 -5.74578 5.16797 0
M  V30 1259 H 118.522 -5.17199 4.64253 0
M  V30 1260 H 121.713 -3.67051 2.90502 0
M  V30 1261 H 121.886 -4.9205 4.21653 0
M  V30 1262 N 115.292 -0.849877 -1.32721 0
M  V30 1263 C 116.242 -0.262892 -2.26479 0
M  V30 1264 C 117.226 0.588493 -1.49752 0
M  V30 1265 O 118.418 0.438659 -1.71478 0
M  V30 1266 C 115.547 0.551818 -3.38836 0
M  V30 1267 C 114.633 -0.311689 -4.22953 0
M  V30 1268 N 115.024 -1.39567 -4.86163 0
M  V30 1269 C 113.322 -0.100611 -4.45887 0
M  V30 1270 C 114.023 -1.92651 -5.48872 0
M  V30 1271 N 112.999 -1.22637 -5.29586 0
M  V30 1272 H 116.801 -1.09166 -2.72873 0
M  V30 1273 H 114.315 -0.695486 -1.46754 0
M  V30 1274 H 116.312 0.988713 -4.05006 0
M  V30 1275 H 114.972 1.37844 -2.93988 0
M  V30 1276 H 115.983 -1.77859 -4.86402 0
M  V30 1277 H 112.66 0.691681 -4.11731 0
M  V30 1278 H 114.05 -2.83487 -6.09167 0
M  V30 1279 N 116.77 1.45427 -0.607355 0
M  V30 1280 C 118.019 2.01452 -0.100036 0
M  V30 1281 C 118.332 1.48159 1.27704 0
M  V30 1282 O 119.538 1.96159 1.87707 0
M  V30 1283 C 117.994 3.59672 -0.128158 0
M  V30 1284 C 117.602 4.21962 -1.50507 0
M  V30 1285 C 119.346 4.23262 0.323932 0
M  V30 1286 C 117.253 5.72333 -1.48959 0
M  V30 1287 H 116.183 0.75325 -0.0336299 0
M  V30 1288 H 118.834 1.66901 -0.76265 0
M  V30 1289 H 117.216 3.91411 0.601105 0
M  V30 1290 H 118.39 4.01796 -2.25602 0
M  V30 1291 H 116.705 3.70565 -1.89923 0
M  V30 1292 H 119.302 5.33522 0.354691 0
M  V30 1293 H 119.645 3.93921 1.34656 0
M  V30 1294 H 120.178 3.96239 -0.352056 0
M  V30 1295 H 116.917 6.06373 -2.48981 0
M  V30 1296 H 116.437 5.94691 -0.781214 0
M  V30 1297 H 118.116 6.35525 -1.21313 0
M  V30 1298 N 118.248 0.346503 1.53744 0
M  V30 1299 C 119.476 -0.25041 2.05379 0
M  V30 1300 C 119.891 -1.43979 1.22129 0
M  V30 1301 O 119.248 -1.80677 0.257321 0
M  V30 1302 C 119.299 -0.662575 3.55376 0
M  V30 1303 O 119.02 0.479515 4.35468 0
M  V30 1304 C 120.521 -1.31989 4.23195 0
M  V30 1305 H 117.741 -0.0478198 0.669294 0
M  V30 1306 H 120.285 0.499346 1.9831 0
M  V30 1307 H 118.44 -1.36227 3.62658 0
M  V30 1308 H 118.854 0.15037 5.24284 0
M  V30 1309 H 120.328 -1.55902 5.29527 0
M  V30 1310 H 120.805 -2.27436 3.75725 0
M  V30 1311 H 121.411 -0.662154 4.20114 0
M  V30 1312 N 119.726 -1.57421 0.075193 0
M  V30 1313 C 120.656 -2.15942 -0.888324 0
M  V30 1314 C 121.637 -1.08737 -1.30806 0
M  V30 1315 O 122.822 -1.36787 -1.37851 0
M  V30 1316 C 119.952 -2.72379 -2.1547 0
M  V30 1317 C 118.906 -3.8478 -1.87425 0
M  V30 1318 C 118.232 -4.27834 -3.20721 0
M  V30 1319 C 119.532 -5.08869 -1.17684 0
M  V30 1320 H 121.226 -2.96705 -0.400799 0
M  V30 1321 H 118.772 -1.42723 -0.191342 0
M  V30 1322 H 120.725 -3.11965 -2.83295 0
M  V30 1323 H 119.449 -1.88841 -2.6647 0
M  V30 1324 H 118.108 -3.45703 -1.22004 0
M  V30 1325 H 117.756 -3.41214 -3.6957 0
M  V30 1326 H 117.456 -5.03605 -3.02746 0
M  V30 1327 H 118.98 -4.70039 -3.89738 0
M  V30 1328 H 120.394 -5.4575 -1.75584 0
M  V30 1329 H 118.791 -5.8994 -1.09956 0
M  V30 1330 H 119.861 -4.84648 -0.156453 0
M  V30 1331 N 121.204 0.198386 -1.56346 0
M  V30 1332 C 122.45 0.916115 -1.81601 0
M  V30 1333 C 122.805 1.81025 -0.651744 0
M  V30 1334 O 122.098 1.88316 0.353229 0
M  V30 1335 C 122.292 1.77031 -3.10475 0
M  V30 1336 C 122.121 0.960365 -4.39326 0
M  V30 1337 C 120.891 0.646093 -5.01152 0
M  V30 1338 C 123.089 0.314628 -5.13337 0
M  V30 1339 N 121.071 -0.182828 -6.13628 0
M  V30 1340 C 122.442 -0.37664 -6.18855 0
M  V30 1341 C 124.497 0.230019 -4.97368 0
M  V30 1342 C 123.2 -1.14445 -7.10137 0
M  V30 1343 C 125.226 -0.524389 -5.89071 0
M  V30 1344 C 124.588 -1.20412 -6.94032 0
M  V30 1345 H 120.687 0.314732 -0.715868 0
M  V30 1346 H 123.271 0.185102 -1.93818 0
M  V30 1347 H 121.442 2.47295 -2.99499 0
M  V30 1348 H 123.174 2.42727 -3.2383 0
M  V30 1349 H 119.929 0.969724 -4.63566 0
M  V30 1350 H 120.353 -0.586802 -6.74452 0
M  V30 1351 H 124.995 0.741184 -4.16253 0
M  V30 1352 H 122.713 -1.66706 -7.90718 0
M  V30 1353 H 126.299 -0.591167 -5.78789 0
M  V30 1354 H 125.179 -1.77853 -7.63766 0
M  V30 1355 N 122.682 1.50554 0.465978 0
M  V30 1356 C 123.929 1.61798 1.21768 0
M  V30 1357 C 124.257 0.320696 1.91838 0
M  V30 1358 O 123.512 -0.693724 1.82992 0
M  V30 1359 C 123.811 2.75152 2.28093 0
M  V30 1360 C 123.477 4.15454 1.75239 0
M  V30 1361 C 122.139 4.53628 1.60546 0
M  V30 1362 C 124.491 5.03121 1.36083 0
M  V30 1363 C 121.819 5.77204 1.05128 0
M  V30 1364 C 124.171 6.27249 0.821056 0
M  V30 1365 C 122.835 6.64221 0.660795 0
M  V30 1366 H 122.105 0.592063 0.445582 0
M  V30 1367 H 124.752 1.84503 0.512927 0
M  V30 1368 H 123.057 2.46556 3.04496 0
M  V30 1369 H 124.754 2.81055 2.86023 0
M  V30 1370 H 121.344 3.85341 1.87644 0
M  V30 1371 H 125.528 4.74257 1.46267 0
M  V30 1372 H 120.784 6.0452 0.91462 0
M  V30 1373 H 124.958 6.94537 0.509018 0
M  V30 1374 H 122.585 7.59854 0.229226 0
M  V30 1375 N 124.16 -0.719506 1.40217 0
M  V30 1376 C 125.406 -1.48034 1.39491 0
M  V30 1377 C 125.761 -1.92399 -0.00443536 0
M  V30 1378 O 125.054 -1.64993 -0.974061 0
M  V30 1379 C 125.248 -2.72271 2.31524 0
M  V30 1380 C 125.077 -2.40055 3.80268 0
M  V30 1381 C 123.847 -2.31588 4.49105 0
M  V30 1382 C 126.045 -2.04581 4.71859 0
M  V30 1383 N 124.027 -1.92006 5.83101 0
M  V30 1384 C 125.398 -1.75568 5.94623 0
M  V30 1385 C 127.453 -1.91183 4.59732 0
M  V30 1386 C 126.156 -1.34505 7.06612 0
M  V30 1387 C 128.182 -1.51524 5.71659 0
M  V30 1388 C 127.544 -1.23406 6.93506 0
M  V30 1389 H 123.643 -0.539927 0.565688 0
M  V30 1390 H 126.227 -0.834764 1.75897 0
M  V30 1391 H 124.398 -3.34584 1.97251 0
M  V30 1392 H 126.13 -3.38584 2.21682 0
M  V30 1393 H 122.885 -2.49199 4.02737 0
M  V30 1394 H 123.309 -1.74764 6.54054 0
M  V30 1395 H 127.951 -2.11584 3.66049 0
M  V30 1396 H 125.669 -1.12846 8.00182 0
M  V30 1397 H 129.255 -1.41741 5.6427 0
M  V30 1398 H 128.135 -0.931788 7.78645 0
M  V30 1399 N 125.638 -1.25649 -0.95132 0
M  V30 1400 C 126.568 -1.08808 -2.06599 0
M  V30 1401 C 127.549 0.00382547 -1.701 0
M  V30 1402 O 128.734 -0.166325 -1.93486 0
M  V30 1403 C 125.864 -0.709542 -3.39975 0
M  V30 1404 C 124.818 -1.75206 -3.90496 0
M  V30 1405 C 124.144 -1.22811 -5.20405 0
M  V30 1406 C 125.444 -3.15153 -4.16504 0
M  V30 1407 H 127.138 -2.02048 -2.20946 0
M  V30 1408 H 124.684 -0.972835 -1.06169 0
M  V30 1409 H 126.637 -0.578649 -4.17408 0
M  V30 1410 H 125.361 0.258556 -3.25575 0
M  V30 1411 H 124.02 -1.87145 -3.15234 0
M  V30 1412 H 123.668 -0.250145 -5.02378 0
M  V30 1413 H 123.368 -1.92492 -5.55176 0
M  V30 1414 H 124.892 -1.10968 -6.00432 0
M  V30 1415 H 126.306 -3.06349 -4.84586 0
M  V30 1416 H 124.703 -3.82333 -4.62538 0
M  V30 1417 H 125.773 -3.61966 -3.22658 0
M  V30 1418 N 127.117 1.15442 -1.07289 0
M  V30 1419 C 128.363 1.86489 -0.796846 0
M  V30 1420 C 128.696 1.82078 0.675371 0
M  V30 1421 O 127.971 1.24346 1.4956 0
M  V30 1422 C 128.254 3.35626 -1.30489 0
M  V30 1423 C 128.107 3.48673 -2.84161 0
M  V30 1424 C 129.426 4.30357 -0.920907 0
M  V30 1425 H 126.545 0.677144 -0.290939 0
M  V30 1426 H 129.187 1.35633 -1.33056 0
M  V30 1427 H 127.337 3.79068 -0.850883 0
M  V30 1428 H 129.009 3.14099 -3.37846 0
M  V30 1429 H 127.252 2.90253 -3.22391 0
M  V30 1430 H 127.923 4.53453 -3.14777 0
M  V30 1431 H 130.399 3.94871 -1.3121 0
M  V30 1432 H 129.275 5.33193 -1.30372 0
M  V30 1433 H 129.536 4.4176 0.173226 0
M  V30 1434 N 128.595 0.856903 1.32268 0
M  V30 1435 C 129.505 0.306131 2.32594 0
M  V30 1436 C 130.521 -0.577209 1.64147 0
M  V30 1437 O 131.697 -0.477043 1.95669 0
M  V30 1438 C 128.762 -0.494561 3.43154 0
M  V30 1439 C 127.823 0.415186 4.27288 0
M  V30 1440 C 127.056 -0.347387 5.32568 0
M  V30 1441 O 127.279 -1.57708 5.48165 0
M  V30 1442 O 126.213 0.287982 6.01211 0
M  V30 1443 H 130.039 1.13737 2.81598 0
M  V30 1444 H 127.624 0.619902 1.35932 0
M  V30 1445 H 129.506 -0.948944 4.10576 0
M  V30 1446 H 128.181 -1.30257 2.96336 0
M  V30 1447 H 127.088 0.917793 3.62667 0
M  V30 1448 H 128.421 1.18844 4.77637 0
M  V30 1449 N 130.073 -1.45103 0.615059 0
M  V30 1450 C 131.489 -1.57137 0.279322 0
M  V30 1451 C 131.689 -1.60523 -1.21797 0
M  V30 1452 O 130.745 -1.53956 -2.00134 0
M  V30 1453 C 132.058 -2.85062 0.957083 0
M  V30 1454 C 133.606 -2.98749 0.933706 0
M  V30 1455 C 134.081 -4.29455 1.59162 0
M  V30 1456 N 135.572 -4.36231 1.55746 0
M  V30 1457 C 136.307 -5.36051 2.0356 0
M  V30 1458 N 135.803 -6.42367 2.59494 0
M  V30 1459 N 137.596 -5.27456 1.94284 0
M  V30 1460 H 129.747 -1.41148 1.58717 0
M  V30 1461 H 132.01 -0.675331 0.665306 0
M  V30 1462 H 131.716 -2.88488 2.01166 0
M  V30 1463 H 131.59 -3.7407 0.48494 0
M  V30 1464 H 133.977 -2.94886 -0.112347 0
M  V30 1465 H 134.058 -2.11132 1.44419 0
M  V30 1466 H 133.702 -4.34077 2.63704 0
M  V30 1467 H 133.632 -5.15901 1.0561 0
M  V30 1468 H 136.123 -3.60011 1.14893 0
M  V30 1469 H 136.436 -7.14793 2.93752 0
M  V30 1470 H 134.781 -6.43097 2.63537 0
M  V30 1471 H 137.972 -4.43308 1.5032 0
M  V30 1472 H 138.145 -6.05099 2.3186 0
M  V30 1473 N 131.551 -0.354651 -1.53558 0
M  V30 1474 C 132.797 0.231422 -2.02079 0
M  V30 1475 C 133.152 1.47308 -1.23767 0
M  V30 1476 O 132.445 1.8891 -0.319947 0
M  V30 1477 C 132.639 0.587121 -3.52545 0
M  V30 1478 C 132.468 -0.618513 -4.45426 0
M  V30 1479 C 131.238 -1.12724 -4.92566 0
M  V30 1480 C 133.436 -1.48039 -4.92533 0
M  V30 1481 N 131.418 -2.29404 -5.69427 0
M  V30 1482 C 132.789 -2.49397 -5.67628 0
M  V30 1483 C 134.844 -1.50454 -4.74624 0
M  V30 1484 C 133.547 -3.53013 -6.26717 0
M  V30 1485 C 135.573 -2.52958 -5.34571 0
M  V30 1486 C 134.935 -3.5304 -6.09543 0
M  V30 1487 H 131.034 0.0476909 -0.780544 0
M  V30 1488 H 133.618 -0.496727 -1.88257 0
M  V30 1489 H 131.789 1.28436 -3.6655 0
M  V30 1490 H 133.521 1.15734 -3.87799 0
M  V30 1491 H 130.276 -0.693577 -4.68494 0
M  V30 1492 H 130.7 -2.88347 -6.12524 0
M  V30 1493 H 135.342 -0.744356 -4.16196 0
M  V30 1494 H 133.06 -4.2992 -6.84247 0
M  V30 1495 H 136.646 -2.55667 -5.22614 0
M  V30 1496 H 135.526 -4.31056 -6.55103 0
M  V30 1497 N 133.029 1.57378 -0.0835403 0
M  V30 1498 C 133.939 2.16897 0.894021 0
M  V30 1499 C 134.955 1.13528 1.31861 0
M  V30 1500 O 136.131 1.45848 1.3889 0
M  V30 1501 C 133.196 2.72831 2.13925 0
M  V30 1502 C 132.257 3.91115 1.76997 0
M  V30 1503 C 131.49 4.44371 2.95584 0
M  V30 1504 O 131.713 3.96596 4.09961 0
M  V30 1505 O 130.647 5.35549 2.74719 0
M  V30 1506 H 134.473 3.00814 0.417679 0
M  V30 1507 H 132.058 1.48741 0.140181 0
M  V30 1508 H 133.94 3.0863 2.86924 0
M  V30 1509 H 132.615 1.91967 2.60635 0
M  V30 1510 H 131.522 3.60148 1.01214 0
M  V30 1511 H 132.855 4.73307 1.3506 0
M  V30 1512 N 134.507 -0.190092 1.56449 0
M  V30 1513 C 135.755 -0.907908 1.80559 0
M  V30 1514 C 136.076 -1.83583 0.657438 0
M  V30 1515 O 135.346 -1.93203 -0.323924 0
M  V30 1516 H 133.926 -0.338247 0.666032 0
M  V30 1517 H 136.588 -0.194403 1.93928 0
M  V30 1518 H 135.684 -1.49604 2.73907 0
M  V30 1519 N 135.985 -1.50799 -0.457987 0
M  V30 1520 C 136.895 -1.73426 -1.57989 0
M  V30 1521 C 137.911 -0.617745 -1.62665 0
M  V30 1522 O 139.087 -0.897614 -1.80291 0
M  V30 1523 C 136.152 -1.83557 -2.94122 0
M  V30 1524 C 135.213 -3.07345 -2.99729 0
M  V30 1525 C 134.446 -3.16983 -4.29368 0
M  V30 1526 O 134.669 -2.33077 -5.20607 0
M  V30 1527 O 133.603 -4.09812 -4.40837 0
M  V30 1528 H 137.429 -2.68555 -1.41817 0
M  V30 1529 H 135.014 -1.35052 -0.638859 0
M  V30 1530 H 136.896 -1.92326 -3.74952 0
M  V30 1531 H 135.571 -0.916137 -3.10465 0
M  V30 1532 H 134.478 -3.04068 -2.1793 0
M  V30 1533 H 135.811 -3.9891 -2.88326 0
M  V30 1534 N 137.463 0.71206 -1.40597 0
M  V30 1535 C 138.874 1.29135 -1.34837 0
M  V30 1536 C 139.225 1.96186 -0.0235395 0
M  V30 1537 O 138.35 1.97768 0.878444 0
M  V30 1538 C 138.945 2.34827 -2.44217 0
M  V30 1539 C 137.504 2.88371 -2.41907 0
M  V30 1540 C 136.651 1.62202 -2.24913 0
M  V30 1541 H 139.602 0.507944 -1.50352 0
M  V30 1542 H 139.623 3.15749 -2.12327 0
M  V30 1543 H 139.135 1.85996 -3.40627 0
M  V30 1544 H 137.236 3.41422 -1.49204 0
M  V30 1545 H 137.349 3.39925 -3.37621 0
M  V30 1546 H 135.713 1.874 -1.72492 0
M  V30 1547 H 136.496 1.15391 -3.23326 0
M  V30 1548 N 138.941 1.26152 0.944643 0
M  V30 1549 C 140.187 1.12665 1.69346 0
M  V30 1550 C 140.542 -0.3273 1.89596 0
M  V30 1551 O 139.835 -1.23717 1.46303 0
M  V30 1552 C 140.029 1.82541 3.07268 0
M  V30 1553 C 139.858 3.34582 3.00475 0
M  V30 1554 C 138.628 4.03863 3.03681 0
M  V30 1555 C 140.826 4.30828 2.80877 0
M  V30 1556 N 138.808 5.42603 2.87151 0
M  V30 1557 C 140.179 5.5672 2.7288 0
M  V30 1558 C 142.234 4.21122 2.65633 0
M  V30 1559 C 140.937 6.74013 2.51196 0
M  V30 1560 C 142.963 5.38118 2.45323 0
M  V30 1561 C 142.325 6.62955 2.38055 0
M  V30 1562 H 138.424 0.467041 0.627214 0
M  V30 1563 H 141.008 1.59391 1.11815 0
M  V30 1564 H 139.179 1.38296 3.62945 0
M  V30 1565 H 140.911 1.61708 3.70989 0
M  V30 1566 H 137.666 3.55198 3.1326 0
M  V30 1567 H 138.09 6.15443 2.82063 0
M  V30 1568 H 142.732 3.25344 2.70021 0
M  V30 1569 H 140.45 7.6989 2.4555 0
M  V30 1570 H 144.036 5.32475 2.34439 0
M  V30 1571 H 142.916 7.51959 2.22546 0
M  V30 1572 N 140.419 -1.14872 1.07899 0
M  V30 1573 C 141.667 -1.85422 0.803941 0
M  V30 1574 C 141.988 -1.83051 -0.67211 0
M  V30 1575 O 141.258 -1.27532 -1.48703 0
M  V30 1576 H 139.838 -0.686537 0.294408 0
M  V30 1577 H 142.5 -1.39226 1.3639 0
M  V30 1578 H 141.596 -2.90399 1.14346 0
M  V30 1579 N 141.898 -0.863906 -1.31812 0
M  V30 1580 C 142.845 -0.313303 -2.28664 0
M  V30 1581 C 143.815 0.584868 -1.55462 0
M  V30 1582 O 145 0.517805 -1.83639 0
M  V30 1583 C 142.14 0.48441 -3.41683 0
M  V30 1584 C 141.253 -0.440594 -4.29747 0
M  V30 1585 C 140.388 0.370652 -5.29905 0
M  V30 1586 C 139.427 -0.551164 -6.09613 0
M  V30 1587 N 138.564 0.223462 -7.01744 0
M  V30 1588 H 143.404 -1.14444 -2.75148 0
M  V30 1589 H 140.941 -0.575769 -1.35364 0
M  V30 1590 H 142.899 0.962627 -4.05943 0
M  V30 1591 H 141.529 1.28029 -2.96325 0
M  V30 1592 H 140.581 -1.03724 -3.65986 0
M  V30 1593 H 141.893 -1.14767 -4.85417 0
M  V30 1594 H 141.047 0.911638 -5.99812 0
M  V30 1595 H 139.786 1.11105 -4.74876 0
M  V30 1596 H 138.791 -1.10396 -5.38603 0
M  V30 1597 H 140.016 -1.29032 -6.66729 0
M  V30 1598 H 137.962 0.946787 -6.49132 0
M  V30 1599 H 137.879 -0.424399 -7.54808 0
M  V30 1600 H 139.147 0.745876 -7.75923 0
M  V30 1601 N 143.376 1.44774 -0.622745 0
M  V30 1602 C 144.286 2.34433 0.0886031 0
M  V30 1603 C 145.302 1.52131 0.844529 0
M  V30 1604 O 146.478 1.84886 0.798691 0
M  V30 1605 C 143.543 3.29986 1.0635 0
M  V30 1606 C 142.604 4.28195 0.307873 0
M  V30 1607 C 141.837 5.19183 1.23633 0
M  V30 1608 O 142.06 5.13918 2.47476 0
M  V30 1609 O 140.994 5.97515 0.725189 0
M  V30 1610 H 144.82 2.96693 -0.648599 0
M  V30 1611 H 142.405 1.44408 -0.382957 0
M  V30 1612 H 144.287 3.88825 1.6246 0
M  V30 1613 H 142.962 2.70269 1.78146 0
M  V30 1614 H 141.869 3.72927 -0.296064 0
M  V30 1615 H 143.202 4.90808 -0.3699 0
M  V30 1616 N 144.854 0.36279 1.53368 0
M  V30 1617 C 146.102 -0.227326 2.00817 0
M  V30 1618 C 146.423 -1.49511 1.25186 0
M  V30 1619 O 145.693 -1.92482 0.364348 0
M  V30 1620 H 144.273 -0.0869923 0.741917 0
M  V30 1621 H 146.935 0.488381 1.88682 0
M  V30 1622 H 146.031 -0.456273 3.08747 0
M  V30 1623 N 146.332 -1.57332 0.0918853 0
M  V30 1624 C 147.264 -2.10869 -0.898168 0
M  V30 1625 C 148.277 -1.04521 -1.24817 0
M  V30 1626 O 149.466 -1.31977 -1.20184 0
M  V30 1627 C 146.566 -2.57083 -2.2082 0
M  V30 1628 C 145.739 -3.87229 -2.03402 0
M  V30 1629 C 144.798 -4.19324 -3.17889 0
M  V30 1630 O 143.824 -4.88598 -2.91994 0
M  V30 1631 N 145.026 -3.74471 -4.43567 0
M  V30 1632 H 147.791 -2.96439 -0.440943 0
M  V30 1633 H 145.352 -1.61631 -0.0933064 0
M  V30 1634 H 147.344 -2.75602 -2.96354 0
M  V30 1635 H 145.914 -1.76541 -2.57977 0
M  V30 1636 H 145.134 -3.7789 -1.12218 0
M  V30 1637 H 146.422 -4.72379 -1.89038 0
M  V30 1638 H 145.82 -3.18546 -4.67488 0
M  V30 1639 H 144.377 -3.98151 -5.16061 0
M  V30 1640 N 147.81 0.181792 -1.56548 0
M  V30 1641 C 149.221 0.745244 -1.71181 0
M  V30 1642 C 149.572 1.83262 -0.70068 0
M  V30 1643 O 148.697 2.15946 0.140154 0
M  V30 1644 C 149.292 1.35859 -3.10367 0
M  V30 1645 C 147.851 1.86898 -3.2672 0
M  V30 1646 C 146.998 0.743942 -2.67134 0
M  V30 1647 H 149.949 -0.0434661 -1.5864 0
M  V30 1648 H 149.97 2.22817 -3.08436 0
M  V30 1649 H 149.482 0.566948 -3.83937 0
M  V30 1650 H 147.583 2.68738 -2.5809 0
M  V30 1651 H 147.696 2.02162 -4.34359 0
M  V30 1652 H 146.06 1.16169 -2.26665 0
M  V30 1653 H 146.843 -0.035676 -3.43281 0
M  V30 1654 N 149.288 1.51039 0.449983 0
M  V30 1655 C 150.536 1.62759 1.19808 0
M  V30 1656 C 150.857 0.339981 1.92013 0
M  V30 1657 O 150.127 -0.643606 1.85026 0
M  V30 1658 H 148.707 0.599811 0.445237 0
M  V30 1659 H 151.369 1.87914 0.517138 0
M  V30 1660 H 150.465 2.44911 1.93455 0
M  V30 1661 N 150.766 -0.704594 1.40972 0
M  V30 1662 C 151.676 -1.84856 1.44448 0
M  V30 1663 C 152.692 -1.70726 0.335961 0
M  V30 1664 O 153.868 -1.92799 0.582276 0
M  V30 1665 C 150.933 -3.20758 1.31587 0
M  V30 1666 C 149.994 -3.47063 2.52677 0
M  V30 1667 C 149.227 -4.76481 2.4042 0
M  V30 1668 O 149.45 -5.52341 1.42391 0
M  V30 1669 O 148.384 -5.03367 3.30007 0
M  V30 1670 H 152.21 -1.8488 2.40942 0
M  V30 1671 H 149.795 -0.85647 1.22413 0
M  V30 1672 H 151.677 -4.01913 1.26665 0
M  V30 1673 H 150.352 -3.21438 0.382049 0
M  V30 1674 H 149.259 -2.65873 2.63177 0
M  V30 1675 H 150.592 -3.5119 3.44858 0
M  V30 1676 N 152.244 -1.26651 -0.937939 0
M  V30 1677 C 153.49 -1.13562 -1.68746 0
M  V30 1678 C 153.845 0.317241 -1.89767 0
M  V30 1679 O 153.138 1.22939 -1.46957 0
M  V30 1680 C 153.332 -1.84168 -3.06295 0
M  V30 1681 C 153.161 -3.36171 -2.98696 0
M  V30 1682 C 151.931 -4.05468 -3.01535 0
M  V30 1683 C 154.129 -4.32312 -2.78588 0
M  V30 1684 N 152.111 -5.44118 -2.84269 0
M  V30 1685 C 153.482 -5.58159 -2.69924 0
M  V30 1686 C 155.537 -4.22524 -2.63396 0
M  V30 1687 C 154.24 -6.75335 -2.47618 0
M  V30 1688 C 156.266 -5.39411 -2.42466 0
M  V30 1689 C 155.628 -6.64208 -2.34536 0
M  V30 1690 H 151.727 -0.470361 -0.624728 0
M  V30 1691 H 154.311 -1.59982 -1.10968 0
M  V30 1692 H 152.482 -1.40219 -3.62206 0
M  V30 1693 H 154.214 -1.63674 -3.70126 0
M  V30 1694 H 150.969 -3.56854 -3.11372 0
M  V30 1695 H 151.393 -6.1693 -2.78795 0
M  V30 1696 H 156.035 -3.26771 -2.68292 0
M  V30 1697 H 153.753 -7.71182 -2.41463 0
M  V30 1698 H 157.339 -5.33711 -2.31611 0
M  V30 1699 H 156.219 -7.53129 -2.18555 0
M  V30 1700 N 153.722 1.14298 -1.08507 0
M  V30 1701 C 154.655 2.18447 -0.660004 0
M  V30 1702 C 155.633 1.59242 0.328749 0
M  V30 1703 O 156.817 1.87062 0.232367 0
M  V30 1704 C 153.944 3.38688 0.0290807 0
M  V30 1705 C 152.99 4.1646 -0.919982 0
M  V30 1706 S 153.823 4.77334 -2.42718 0
M  V30 1707 C 154.979 6.00931 -1.75024 0
M  V30 1708 H 155.212 2.54166 -1.54231 0
M  V30 1709 H 152.745 1.25446 -0.900149 0
M  V30 1710 H 154.703 4.08342 0.420378 0
M  V30 1711 H 153.364 3.01289 0.887895 0
M  V30 1712 H 152.557 5.02529 -0.384751 0
M  V30 1713 H 152.159 3.52414 -1.25223 0
M  V30 1714 H 154.451 6.69017 -1.06877 0
M  V30 1715 H 155.394 6.59044 -2.58971 0
M  V30 1716 H 155.802 5.51089 -1.22317 0
M  V30 1717 N 155.201 0.870884 1.31352 0
M  V30 1718 C 156.426 0.495957 2.01383 0
M  V30 1719 C 156.851 -0.904324 1.64935 0
M  V30 1720 O 156.209 -1.59687 0.858466 0
M  V30 1721 C 156.257 0.661433 3.54482 0
M  V30 1722 O 155.361 -0.298851 4.11316 0
M  V30 1723 H 154.702 0.197158 0.634054 0
M  V30 1724 H 157.232 1.17455 1.67527 0
M  V30 1725 H 157.242 0.555072 4.04207 0
M  V30 1726 H 155.917 1.68246 3.8035 0
M  V30 1727 H 154.494 -0.147368 3.72609 0
M  V30 1728 N 156.679 -1.44442 0.630414 0
M  V30 1729 C 157.609 -2.33418 -0.0618083 0
M  V30 1730 C 158.59 -1.48165 -0.835541 0
M  V30 1731 O 159.775 -1.76886 -0.801564 0
M  V30 1732 C 156.905 -3.31222 -1.04449 0
M  V30 1733 C 155.859 -4.26288 -0.382436 0
M  V30 1734 C 155.185 -5.13954 -1.47497 0
M  V30 1735 C 156.485 -5.1744 0.710865 0
M  V30 1736 H 158.179 -2.91548 0.681184 0
M  V30 1737 H 155.725 -1.40191 0.329026 0
M  V30 1738 H 157.678 -3.92351 -1.53748 0
M  V30 1739 H 156.402 -2.71299 -1.81836 0
M  V30 1740 H 155.061 -3.6649 0.0899054 0
M  V30 1741 H 154.709 -4.50385 -2.2397 0
M  V30 1742 H 154.409 -5.7837 -1.03737 0
M  V30 1743 H 155.933 -5.77955 -1.96979 0
M  V30 1744 H 157.347 -5.72509 0.300996 0
M  V30 1745 H 155.744 -5.90455 1.07156 0
M  V30 1746 H 156.814 -4.58496 1.57829 0
M  V30 1747 N 158.157 -0.370918 -1.53173 0
M  V30 1748 C 159.403 0.217423 -2.01631 0
M  V30 1749 C 159.736 1.47983 -1.25756 0
M  V30 1750 O 159.011 1.91274 -0.352764 0
M  V30 1751 C 159.294 0.503982 -3.56556 0
M  V30 1752 C 159.147 -0.77243 -4.43118 0
M  V30 1753 C 160.466 1.30234 -4.20389 0
M  V30 1754 H 157.585 0.0775486 -0.732909 0
M  V30 1755 H 160.227 -0.496863 -1.83388 0
M  V30 1756 H 158.377 1.11248 -3.72231 0
M  V30 1757 H 160.049 -1.4098 -4.39229 0
M  V30 1758 H 158.292 -1.39167 -4.10871 0
M  V30 1759 H 158.963 -0.526815 -5.4948 0
M  V30 1760 H 161.439 0.787546 -4.08579 0
M  V30 1761 H 160.315 1.47158 -5.28806 0
M  V30 1762 H 160.576 2.31237 -3.76805 0
M  V30 1763 N 159.635 1.57281 -0.100228 0
M  V30 1764 C 160.883 1.94153 0.561157 0
M  V30 1765 C 161.204 0.983157 1.68401 0
M  V30 1766 O 160.474 0.0361132 1.95867 0
M  V30 1767 H 159.054 0.716791 0.210283 0
M  V30 1768 H 161.716 1.94202 -0.164765 0
M  V30 1769 H 160.812 2.96709 0.968008 0
M  V30 1770 N 161.113 -0.173488 1.56642 0
M  V30 1771 C 162.043 -1.2171 1.99271 0
M  V30 1772 C 163.024 -1.46289 0.867959 0
M  V30 1773 O 164.209 -1.5766 1.13388 0
M  V30 1774 C 161.339 -2.55651 2.35074 0
M  V30 1775 C 160.293 -2.45645 3.50489 0
M  V30 1776 C 159.619 -3.84056 3.72028 0
M  V30 1777 C 160.919 -1.96302 4.84007 0
M  V30 1778 H 162.613 -0.86275 2.867 0
M  V30 1779 H 160.159 -0.413571 1.37933 0
M  V30 1780 H 162.112 -3.2886 2.63494 0
M  V30 1781 H 160.836 -2.92869 1.44552 0
M  V30 1782 H 159.495 -1.7489 3.22194 0
M  V30 1783 H 159.143 -4.18664 2.788 0
M  V30 1784 H 158.843 -3.7823 4.49684 0
M  V30 1785 H 160.367 -4.58854 4.02846 0
M  V30 1786 H 161.781 -2.59284 5.11317 0
M  V30 1787 H 160.178 -2.01429 5.65284 0
M  V30 1788 H 161.248 -0.917226 4.76146 0
M  V30 1789 N 162.591 -1.51276 -0.441967 0
M  V30 1790 C 163.539 -1.72823 -1.55676 0
M  V30 1791 C 164.533 -0.59445 -1.58627 0
M  V30 1792 O 165.739 -0.775715 -1.62427 0
M  V30 1793 H 162.114 -0.545983 -0.517113 0
M  V30 1794 H 164.085 -2.6628 -1.34675 0
M  V30 1795 C 162.834 -1.86619 -2.93375 0
M  V30 1796 H 162.157 -2.73264 -2.91834 0
M  V30 1797 H 163.597 -2.05709 -3.70756 0
M  V30 1798 C 162.056 -0.624842 -3.31055 0
M  V30 1799 O 162.586 0.222636 -4.01083 0
M  V30 1800 N 160.792 -0.470288 -2.86769 0
M  V30 1801 H 160.339 -1.161 -2.29953 0
M  V30 1802 H 160.297 0.359051 -3.12343 0
M  V30 1803 N 164.069 0.697108 -1.41344 0
M  V30 1804 C 165.032 1.79281 -1.42797 0
M  V30 1805 C 166.032 1.57607 -0.318837 0
M  V30 1806 O 167.222 1.64309 -0.578642 0
M  V30 1807 C 164.354 3.17632 -1.23785 0
M  V30 1808 H 165.547 1.79385 -2.40335 0
M  V30 1809 H 163.1 0.904582 -1.27464 0
M  V30 1810 H 163.835 3.23167 -0.270814 0
M  V30 1811 H 163.62 3.34765 -2.04144 0
M  V30 1812 H 165.11 3.97617 -1.27633 0
M  V30 1813 N 165.547 1.27147 0.931209 0
M  V30 1814 C 166.824 1.0401 1.65654 0
M  V30 1815 C 167.204 -0.426297 2.06751 0
M  V30 1816 O 166.552 -1.40879 1.79904 0
M  V30 1817 C 166.762 1.99834 2.86125 0
M  V30 1818 C 168.11 2.29007 3.57549 0
M  V30 1819 O 169.134 1.97779 2.96246 0
M  V30 1820 O 167.993 2.82222 4.67989 0
M  V30 1821 H 165.087 0.396239 0.725895 0
M  V30 1822 H 167.633 1.38397 0.982056 0
M  V30 1823 H 166.405 2.98744 2.52721 0
M  V30 1824 H 166.028 1.65987 3.61295 0
M  V30 1825 N 167.025 -1.13721 1.09112 0
M  V30 1826 C 168.302 -1.81155 0.737706 0
M  V30 1827 C 168.682 -1.96253 -0.777683 0
M  V30 1828 O 168.03 -1.52807 -1.69889 0
M  V30 1829 C 168.24 -3.16392 1.47299 0
M  V30 1830 C 169.588 -3.91787 1.63671 0
M  V30 1831 O 170.612 -3.26005 1.43524 0
M  V30 1832 O 169.471 -5.0977 1.96969 0
M  V30 1833 H 166.565 -0.783518 0.26463 0
M  V30 1834 H 169.111 -1.20676 1.19312 0
M  V30 1835 H 167.883 -3.0061 2.50498 0
M  V30 1836 H 167.506 -3.8457 1.00953 0
M  V30 1837 N 168.503 -0.877838 -1.30888 0
M  V30 1838 C 169.75 -0.492696 -1.96415 0
M  V30 1839 C 170.078 0.956671 -1.69346 0
M  V30 1840 O 169.333 1.68993 -0.986913 0
M  V30 1841 C 169.632 -0.705748 -3.50363 0
M  V30 1842 C 169.298 -2.1291 -3.97467 0
M  V30 1843 C 167.96 -2.51834 -4.1004 0
M  V30 1844 C 170.312 -3.05702 -4.22132 0
M  V30 1845 C 167.64 -3.82775 -4.44635 0
M  V30 1846 C 169.992 -4.36166 -4.58194 0
M  V30 1847 C 168.656 -4.74993 -4.68975 0
M  V30 1848 H 167.926 -0.18029 -0.718733 0
M  V30 1849 H 170.573 -1.11233 -1.55883 0
M  V30 1850 H 168.878 -0.00303058 -3.918 0
M  V30 1851 H 170.575 -0.387456 -3.99124 0
M  V30 1852 H 167.165 -1.81694 -3.88182 0
M  V30 1853 H 171.349 -2.76853 -4.11906 0
M  V30 1854 H 166.605 -4.12609 -4.51181 0
M  V30 1855 H 170.779 -5.08111 -4.76231 0
M  V30 1856 H 168.406 -5.76495 -4.95537 0
M  V30 1857 N 169.982 1.44106 -0.638065 0
M  V30 1858 C 171.393 1.85316 -0.226894 0
M  V30 1859 C 171.744 1.53399 1.22324 0
M  V30 1860 O 170.869 0.975463 1.93167 0
M  V30 1861 C 171.464 3.3637 -0.405013 0
M  V30 1862 C 170.023 3.76369 -0.0482902 0
M  V30 1863 C 169.17 2.67921 -0.715108 0
M  V30 1864 H 172.121 1.34474 -0.842764 0
M  V30 1865 H 172.142 3.7885 0.354 0
M  V30 1866 H 171.654 3.59569 -1.46053 0
M  V30 1867 H 169.755 3.58784 1.00522 0
M  V30 1868 H 169.868 4.76856 -0.463187 0
M  V30 1869 H 168.232 2.54259 -0.149753 0
M  V30 1870 H 169.015 2.93951 -1.77335 0
M  V30 1871 N 171.46 0.379036 1.52974 0
M  V30 1872 C 172.871 -0.0972525 1.86447 0
M  V30 1873 C 173.222 -1.47027 1.29914 0
M  V30 1874 O 172.347 -2.07135 0.626433 0
M  V30 1875 C 172.942 -0.183248 3.38304 0
M  V30 1876 C 171.501 -0.603812 3.71525 0
M  V30 1877 C 170.648 0.240632 2.76254 0
M  V30 1878 H 173.599 0.597316 1.4703 0
M  V30 1879 H 173.62 -1.00432 3.67006 0
M  V30 1880 H 173.132 0.816191 3.79421 0
M  V30 1881 H 171.233 -1.61099 3.35973 0
M  V30 1882 H 171.346 -0.369086 4.77676 0
M  V30 1883 H 169.71 -0.292548 2.53014 0
M  V30 1884 H 170.493 1.23786 3.20206 0
M  V30 1885 N 172.938 -1.57226 0.108567 0
M  V30 1886 C 173.901 -2.13602 -0.831082 0
M  V30 1887 C 174.901 -1.06841 -1.20173 0
M  V30 1888 O 176.091 -1.32666 -1.12895 0
M  V30 1889 C 173.223 -2.66769 -2.12243 0
M  V30 1890 H 174.416 -2.97951 -0.341317 0
M  V30 1891 H 171.969 -1.55667 -0.14057 0
M  V30 1892 H 172.704 -1.85977 -2.65675 0
M  V30 1893 H 172.489 -3.44839 -1.86625 0
M  V30 1894 H 173.979 -3.10332 -2.79435 0
M  V30 1895 N 174.416 0.165178 -1.56732 0
M  V30 1896 C 175.364 1.22369 -1.97809 0
M  V30 1897 C 176.358 1.45488 -0.867741 0
M  V30 1898 O 177.564 1.45995 -1.05288 0
M  V30 1899 H 173.939 0.411486 -0.629431 0
M  V30 1900 H 175.91 0.850425 -2.86025 0
M  V30 1901 C 174.659 2.55403 -2.35934 0
M  V30 1902 H 173.982 2.38438 -3.20916 0
M  V30 1903 H 175.422 3.2814 -2.68514 0
M  V30 1904 C 173.881 3.14611 -1.20506 0
M  V30 1905 O 174.411 3.98626 -0.496016 0
M  V30 1906 N 172.617 2.7379 -0.97403 0
M  V30 1907 H 172.164 2.0557 -1.55238 0
M  V30 1908 H 172.122 3.1374 -0.203573 0
M  V30 1909 N 175.894 1.51508 0.433938 0
M  V30 1910 C 176.804 1.75917 1.5521 0
M  V30 1911 C 177.82 0.643545 1.61662 0
M  V30 1912 O 178.996 0.926183 1.7884 0
M  V30 1913 C 176.061 1.88213 2.91164 0
M  V30 1914 C 175.122 3.12074 2.94802 0
M  V30 1915 C 174.355 3.23774 4.24271 0
M  V30 1916 O 174.578 2.4133 5.16833 0
M  V30 1917 O 173.512 4.16774 4.34262 0
M  V30 1918 H 177.338 2.70777 1.37527 0
M  V30 1919 H 174.923 1.36051 0.617293 0
M  V30 1920 H 176.805 1.98267 3.71845 0
M  V30 1921 H 175.48 0.965413 3.08968 0
M  V30 1922 H 174.387 3.07497 2.13065 0
M  V30 1923 H 175.72 4.03446 2.81943 0
M  V30 1924 N 177.372 -0.689602 1.41712 0
M  V30 1925 C 178.783 -1.26973 1.36875 0
M  V30 1926 C 179.134 -1.96124 0.054748 0
M  V30 1927 O 178.259 -1.99141 -0.84687 0
M  V30 1928 C 178.854 -2.30912 2.47922 0
M  V30 1929 C 177.413 -2.84486 2.46464 0
M  V30 1930 C 176.56 -1.58603 2.27465 0
M  V30 1931 H 179.511 -0.48396 1.51141 0
M  V30 1932 H 179.532 -3.12331 2.17323 0
M  V30 1933 H 179.044 -1.80554 3.43543 0
M  V30 1934 H 177.145 -3.39005 1.54617 0
M  V30 1935 H 177.258 -3.34511 3.42986 0
M  V30 1936 H 175.622 -1.84632 1.75451 0
M  V30 1937 H 176.405 -1.10233 3.25121 0
M  V30 1938 N 178.85 -1.27639 -0.924453 0
M  V30 1939 C 180.096 -1.14336 -1.67497 0
M  V30 1940 C 180.429 0.309465 -1.91718 0
M  V30 1941 O 179.704 1.22608 -1.50989 0
M  V30 1942 C 179.987 -1.93096 -3.0395 0
M  V30 1943 C 179.84 -3.46381 -2.8695 0
M  V30 1944 C 181.159 -1.73798 -4.0433 0
M  V30 1945 H 178.278 -0.416728 -0.607871 0
M  V30 1946 H 180.92 -1.56832 -1.07256 0
M  V30 1947 H 179.07 -1.56982 -3.55372 0
M  V30 1948 H 180.742 -3.92343 -2.42621 0
M  V30 1949 H 178.985 -3.72557 -2.22225 0
M  V30 1950 H 179.656 -3.96735 -3.83804 0
M  V30 1951 H 182.132 -2.05293 -3.61931 0
M  V30 1952 H 181.008 -2.31294 -4.97789 0
M  V30 1953 H 181.269 -0.686725 -4.36734 0
M  V30 1954 N 180.328 1.1314 -1.09713 0
M  V30 1955 C 181.577 1.83838 -0.829851 0
M  V30 1956 C 181.89 1.84599 0.646728 0
M  V30 1957 O 183.096 2.51218 1.02965 0
M  V30 1958 C 181.552 3.30069 -1.43466 0
M  V30 1959 C 181.16 3.37688 -2.94399 0
M  V30 1960 C 182.904 4.05788 -1.24645 0
M  V30 1961 C 180.811 4.78209 -3.47952 0
M  V30 1962 H 179.741 0.68877 -0.306777 0
M  V30 1963 H 182.392 1.27448 -1.3202 0
M  V30 1964 H 180.774 3.8628 -0.871996 0
M  V30 1965 H 181.948 2.91456 -3.56918 0
M  V30 1966 H 180.263 2.75436 -3.12289 0
M  V30 1967 H 182.86 5.09535 -1.62107 0
M  V30 1968 H 183.203 4.15878 -0.187357 0
M  V30 1969 H 183.736 3.55915 -1.77678 0
M  V30 1970 H 180.475 4.73311 -4.53495 0
M  V30 1971 H 179.995 5.24924 -2.90198 0
M  V30 1972 H 181.674 5.47133 -3.45332 0
M  V30 1973 N 181.806 0.884767 1.30421 0
M  V30 1974 C 182.769 0.356277 2.26414 0
M  V30 1975 C 183.769 -0.501124 1.52792 0
M  V30 1976 O 184.959 -0.30831 1.7145 0
M  V30 1977 C 182.091 -0.492316 3.37326 0
M  V30 1978 H 183.284 1.20389 2.74675 0
M  V30 1979 H 180.837 0.661607 1.41607 0
M  V30 1980 H 181.572 -1.36052 2.94381 0
M  V30 1981 H 181.357 0.121832 3.91911 0
M  V30 1982 H 182.847 -0.853871 4.08777 0
M  V30 1983 N 183.284 -1.43765 0.645699 0
M  V30 1984 C 184.231 -2.30745 -0.0504648 0
M  V30 1985 C 185.201 -1.4432 -0.822241 0
M  V30 1986 O 186.386 -1.73202 -0.800358 0
M  V30 1987 C 183.526 -3.29802 -1.0161 0
M  V30 1988 C 182.639 -4.31326 -0.241219 0
M  V30 1989 C 181.774 -5.17469 -1.19998 0
M  V30 1990 C 180.813 -6.10691 -0.415094 0
M  V30 1991 N 179.95 -6.89483 -1.32506 0
M  V30 1992 H 184.79 -2.8973 0.697155 0
M  V30 1993 H 182.327 -1.42738 0.355563 0
M  V30 1994 H 184.285 -3.85734 -1.58949 0
M  V30 1995 H 182.915 -2.72483 -1.73069 0
M  V30 1996 H 181.967 -3.77749 0.448334 0
M  V30 1997 H 183.279 -4.9743 0.369437 0
M  V30 1998 H 182.433 -5.7799 -1.84424 0
M  V30 1999 H 181.172 -4.51473 -1.84455 0
M  V30 2000 H 180.177 -5.49265 0.242565 0
M  V30 2001 H 181.402 -6.78727 0.224966 0
M  V30 2002 H 179.348 -6.26142 -1.95657 0
M  V30 2003 H 179.265 -7.52081 -0.768783 0
M  V30 2004 H 180.533 -7.54516 -1.9577 0
M  V30 2005 N 184.763 -0.387143 -1.52771 0
M  V30 2006 C 185.693 0.440551 -2.29306 0
M  V30 2007 C 186.674 1.06535 -1.32606 0
M  V30 2008 O 187.859 1.07853 -1.61497 0
M  V30 2009 C 184.989 1.56919 -3.09829 0
M  V30 2010 C 183.943 1.07054 -4.14395 0
M  V30 2011 C 183.269 2.29109 -4.83129 0
M  V30 2012 C 184.569 0.140015 -5.22112 0
M  V30 2013 H 186.263 -0.198026 -2.98744 0
M  V30 2014 H 183.809 -0.09668 -1.43675 0
M  V30 2015 H 185.762 2.15503 -3.62128 0
M  V30 2016 H 184.486 2.23532 -2.3812 0
M  V30 2017 H 183.145 0.507247 -3.63074 0
M  V30 2018 H 182.793 2.94227 -4.0797 0
M  V30 2019 H 182.493 1.96406 -5.53804 0
M  V30 2020 H 184.017 2.88339 -5.38231 0
M  V30 2021 H 185.431 0.633978 -5.69784 0
M  V30 2022 H 183.828 -0.0971485 -6.00021 0
M  V30 2023 H 184.898 -0.811711 -4.78058 0
M  V30 2024 N 186.241 1.57166 -0.116904 0
M  V30 2025 C 187.188 2.15202 0.83408 0
M  V30 2026 C 188.158 1.07644 1.26499 0
M  V30 2027 O 189.343 1.35541 1.34288 0
M  V30 2028 C 186.483 2.75405 2.07957 0
M  V30 2029 C 185.596 3.97264 1.69721 0
M  V30 2030 C 184.731 4.45561 2.89221 0
M  V30 2031 C 183.77 5.59956 2.47215 0
M  V30 2032 N 182.907 6.03006 3.59622 0
M  V30 2033 H 187.747 2.96141 0.332335 0
M  V30 2034 H 185.284 1.46309 0.152349 0
M  V30 2035 H 187.242 3.08439 2.80929 0
M  V30 2036 H 185.872 1.97159 2.55594 0
M  V30 2037 H 184.924 3.70404 0.866316 0
M  V30 2038 H 186.236 4.80226 1.34849 0
M  V30 2039 H 185.39 4.80493 3.7042 0
M  V30 2040 H 184.129 3.61544 3.27318 0
M  V30 2041 H 183.134 5.2463 1.64448 0
M  V30 2042 H 184.359 6.45738 2.10238 0
M  V30 2043 H 182.305 5.21931 3.97396 0
M  V30 2044 H 182.222 6.80819 3.28667 0
M  V30 2045 H 183.49 6.42576 4.41267 0
M  V30 2046 N 187.719 -0.156864 1.56817 0
M  V30 2047 C 189.135 -0.50916 1.5126 0
M  V30 2048 C 189.335 -1.83897 0.823658 0
M  V30 2049 O 188.391 -2.49469 0.390055 0
M  V30 2050 C 189.704 -0.52857 2.96018 0
M  V30 2051 C 191.252 -0.614771 3.06903 0
M  V30 2052 C 191.727 -0.664938 4.53147 0
M  V30 2053 N 193.218 -0.727433 4.57452 0
M  V30 2054 C 193.953 -0.787067 5.67973 0
M  V30 2055 N 193.449 -0.806649 6.88088 0
M  V30 2056 N 195.242 -0.827195 5.5598 0
M  V30 2057 H 187.393 0.714935 2.00006 0
M  V30 2058 H 189.656 0.259526 0.911784 0
M  V30 2059 H 189.362 0.380154 3.49639 0
M  V30 2060 H 189.236 -1.36998 3.51442 0
M  V30 2061 H 191.623 -1.51392 2.53307 0
M  V30 2062 H 191.704 0.253597 2.5454 0
M  V30 2063 H 191.348 0.230011 5.07379 0
M  V30 2064 H 191.278 -1.54966 5.03282 0
M  V30 2065 H 193.769 -0.719998 3.70978 0
M  V30 2066 H 194.082 -0.853727 7.6807 0
M  V30 2067 H 192.427 -0.774687 6.90669 0
M  V30 2068 H 195.618 -0.808998 4.61056 0
M  V30 2069 H 195.791 -0.870206 6.4213 0
M  V30 2070 N 189.197 -1.51736 -0.425897 0
M  V30 2071 C 190.127 -1.76827 -1.52494 0
M  V30 2072 C 191.108 -0.618524 -1.58456 0
M  V30 2073 O 192.293 -0.862416 -1.74 0
M  V30 2074 C 189.423 -1.90374 -2.90474 0
M  V30 2075 C 188.377 -3.0588 -2.99369 0
M  V30 2076 C 187.703 -3.04625 -4.3944 0
M  V30 2077 C 189.003 -4.45644 -2.72394 0
M  V30 2078 H 190.697 -2.68855 -1.31748 0
M  V30 2079 H 188.243 -1.29372 -0.632362 0
M  V30 2080 H 190.196 -2.0651 -3.6733 0
M  V30 2081 H 188.92 -0.95004 -3.12477 0
M  V30 2082 H 187.579 -2.89467 -2.24954 0
M  V30 2083 H 187.227 -2.0701 -4.58428 0
M  V30 2084 H 186.927 -3.82195 -4.46319 0
M  V30 2085 H 188.451 -3.22869 -5.18255 0
M  V30 2086 H 189.865 -4.62348 -3.38979 0
M  V30 2087 H 188.262 -5.25006 -2.9067 0
M  V30 2088 H 189.332 -4.54893 -1.67929 0
M  V30 2089 O 190.714 0.571711 -1.51042 0
M  V30 2090 H 191.405 1.22676 -1.49901 0
M  V30 END ATOM
M  V30 BEGIN BOND
M  V30 END BOND
M  V30 END CTAB
M  END
$$$$
