drugbank_target|P08311 Cathepsin G (DB02360; DB04016)
 OpenBabel12092119453D

  0  0  0     0  0            999 V3000
M  V30 BEGIN CTAB
M  V30 COUNTS 4085 4124 0 0 0
M  V30 BEGIN ATOM
M  V30 1 H -0.908 1.98254 -0.117106 0
M  V30 2 N 0 1.576 0 0
M  V30 3 C 0.933 2.03868 1.02534 0
M  V30 4 C 1.911 0.928543 1.3348 0
M  V30 5 O 3.095 1.19667 1.45644 0
M  V30 6 C 0.222 2.43627 2.35294 0
M  V30 7 C -0.732 3.65373 2.2001 0
M  V30 8 S 0.101 5.13292 1.52614 0
M  V30 9 C 1.257 5.56322 2.86805 0
M  V30 10 H 1.49 2.90518 0.631377 0
M  V30 11 H -0.977 1.52953 0.210867 0
M  V30 12 H 0.981 2.67203 3.11629 0
M  V30 13 H -0.358 1.57376 2.7183 0
M  V30 14 H -1.165 3.90944 3.18086 0
M  V30 15 H -1.563 3.418 1.51819 0
M  V30 16 H 0.729 5.58782 3.83104 0
M  V30 17 H 1.672 6.56266 2.65933 0
M  V30 18 H 2.08 4.83886 2.90714 0
M  V30 19 N 1.4781 -0.272755 1.55222 0
M  V30 20 C 2.4101 -1.35946 1.8453 0
M  V30 21 C 3.4231 -1.45525 0.729818 0
M  V30 22 O 4.6121 -1.47337 1.00767 0
M  V30 23 C 1.7121 -2.74069 1.99347 0
M  V30 24 C 0.8851 -2.87079 3.30007 0
M  V30 25 C -0.0559 -4.05879 3.34886 0
M  V30 26 O -1.0299 -3.96626 4.08261 0
M  V30 27 N 0.1721 -5.17857 2.62307 0
M  V30 28 H 2.9371 -1.11149 2.78327 0
M  V30 29 H 0.4981 -0.462869 1.55142 0
M  V30 30 H 2.4901 -3.51838 1.99981 0
M  V30 31 H 1.0601 -2.91688 1.12415 0
M  V30 32 H 0.2801 -1.96193 3.41909 0
M  V30 33 H 1.5681 -2.92701 4.16177 0
M  V30 34 H 0.9661 -5.28261 2.02377 0
M  V30 35 H -0.4769 -5.93855 2.68663 0
M  V30 36 N 2.9562 -1.48159 -0.537278 0
M  V30 37 C 4.3672 -1.49429 -1.11928 0
M  V30 38 C 4.7182 -0.26 -1.9447 0
M  V30 39 O 3.8432 0.633489 -2.0692 0
M  V30 40 C 4.4382 -2.70758 -2.03656 0
M  V30 41 C 2.9972 -2.74923 -2.57088 0
M  V30 42 C 2.1442 -2.42835 -1.3389 0
M  V30 43 H 5.0952 -1.55381 -0.322886 0
M  V30 44 H 5.1162 -2.48861 -2.87834 0
M  V30 45 H 4.6282 -3.60575 -1.43553 0
M  V30 46 H 2.7292 -1.89296 -3.20933 0
M  V30 47 H 2.8422 -3.76157 -2.9672 0
M  V30 48 H 1.2062 -1.93836 -1.65226 0
M  V30 49 H 1.9892 -3.34884 -0.755504 0
M  V30 50 N 4.4343 0.785586 -1.36625 0
M  V30 51 C 5.3643 1.91259 -1.33949 0
M  V30 52 C 6.3453 1.68795 -0.210325 0
M  V30 53 O 7.5303 1.89854 -0.408561 0
M  V30 54 C 4.6603 3.28339 -1.13186 0
M  V30 55 C 3.6143 3.65335 -2.22967 0
M  V30 56 C 2.9403 5.00806 -1.87342 0
M  V30 57 C 4.2403 3.7352 -3.65075 0
M  V30 58 H 5.9343 1.93755 -2.28253 0
M  V30 59 H 3.4803 0.930788 -1.09874 0
M  V30 60 H 5.4333 4.06804 -1.09948 0
M  V30 61 H 4.1573 3.2624 -0.153332 0
M  V30 62 H 2.8163 2.89169 -2.25337 0
M  V30 63 H 2.4643 4.95233 -0.880545 0
M  V30 64 H 2.1643 5.26529 -2.60846 0
M  V30 65 H 3.6883 5.81687 -1.85667 0
M  V30 66 H 5.1023 4.42168 -3.64911 0
M  V30 67 H 3.4993 4.10731 -4.37516 0
M  V30 68 H 4.5693 2.74527 -3.99703 0
M  V30 69 N 5.9124 1.20967 1.01018 0
M  V30 70 C 6.8424 0.988272 2.11555 0
M  V30 71 C 7.8234 -0.0849778 1.69888 0
M  V30 72 O 9.0084 0.0738202 1.9406 0
M  V30 73 C 6.1384 0.546528 3.42973 0
M  V30 74 C 5.0924 1.56375 3.9841 0
M  V30 75 C 4.4184 0.97842 5.25672 0
M  V30 76 C 5.7184 2.94922 4.31066 0
M  V30 77 H 7.4124 1.91276 2.30334 0
M  V30 78 H 4.9584 0.921073 1.1069 0
M  V30 79 H 6.9114 0.378839 4.19694 0
M  V30 80 H 5.6354 -0.413598 3.23971 0
M  V30 81 H 4.2944 1.71891 3.23804 0
M  V30 82 H 3.9424 0.0101688 5.02999 0
M  V30 83 H 3.6424 1.65784 5.63728 0
M  V30 84 H 5.1664 0.821939 6.05043 0
M  V30 85 H 6.5804 2.8288 4.9865 0
M  V30 86 H 4.9774 3.5983 4.80253 0
M  V30 87 H 6.0474 3.4616 3.39561 0
M  V30 88 N 7.3905 -1.2043 1.01659 0
M  V30 89 C 8.3205 -2.25466 0.607226 0
M  V30 90 C 9.3015 -1.65853 -0.377716 0
M  V30 91 O 10.4865 -1.92409 -0.263149 0
M  V30 92 C 7.6165 -3.47256 -0.0552949 0
M  V30 93 C 6.5705 -4.19462 0.850632 0
M  V30 94 C 5.8965 -5.34673 0.0538859 0
M  V30 95 C 7.1965 -4.75603 2.15868 0
M  V30 96 H 8.8905 -2.59962 1.48526 0
M  V30 97 H 6.4365 -1.2496 0.715605 0
M  V30 98 H 8.3895 -4.19917 -0.353233 0
M  V30 99 H 7.1135 -3.11924 -0.968045 0
M  V30 100 H 5.7725 -3.48667 1.13257 0
M  V30 101 H 5.4205 -4.95585 -0.860514 0
M  V30 102 H 5.1205 -5.83913 0.657192 0
M  V30 103 H 6.6445 -6.10138 -0.237598 0
M  V30 104 H 8.0585 -5.40083 1.92311 0
M  V30 105 H 6.4555 -5.3528 2.71284 0
M  V30 106 H 7.5255 -3.94346 2.82169 0
M  V30 107 N 8.8686 -0.792821 -1.36206 0
M  V30 108 C 9.7986 -0.207853 -2.32573 0
M  V30 109 C 10.7796 0.659055 -1.56813 0
M  V30 110 O 11.9646 0.592176 -1.84951 0
M  V30 111 C 9.0946 0.655449 -3.41059 0
M  V30 112 C 8.0486 -0.111842 -4.27854 0
M  V30 113 C 7.3746 0.872274 -5.27537 0
M  V30 114 C 8.6746 -1.30299 -5.05786 0
M  V30 115 H 10.3686 -1.01294 -2.81744 0
M  V30 116 H 7.9146 -0.48854 -1.3546 0
M  V30 117 H 9.8676 1.07464 -4.07467 0
M  V30 118 H 8.5916 1.49328 -2.90463 0
M  V30 119 H 7.2506 -0.512053 -3.63006 0
M  V30 120 H 6.8986 1.70523 -4.73214 0
M  V30 121 H 6.5986 0.363291 -5.86476 0
M  V30 122 H 8.1226 1.28996 -5.96818 0
M  V30 123 H 9.5366 -0.959379 -5.65216 0
M  V30 124 H 7.9336 -1.7455 -5.74154 0
M  V30 125 H 9.0036 -2.09663 -4.37229 0
M  V30 126 N 10.3467 1.47872 -0.545128 0
M  V30 127 C 11.2767 2.32661 0.197793 0
M  V30 128 C 12.2577 1.43041 0.920504 0
M  V30 129 O 13.4427 1.71912 0.90333 0
M  V30 130 C 10.5727 3.24569 1.23582 0
M  V30 131 C 9.5267 4.23333 0.630323 0
M  V30 132 C 8.8527 5.0448 1.77211 0
M  V30 133 C 10.1527 5.20704 -0.407974 0
M  V30 134 H 11.8467 2.95024 -0.510045 0
M  V30 135 H 9.3927 1.4187 -0.246731 0
M  V30 136 H 11.3457 3.8272 1.76362 0
M  V30 137 H 10.0697 2.60236 1.97344 0
M  V30 138 H 8.7287 3.6639 0.123922 0
M  V30 139 H 8.3767 4.36561 2.49847 0
M  V30 140 H 8.0767 5.71339 1.37281 0
M  V30 141 H 9.6007 5.65487 2.3034 0
M  V30 142 H 11.0147 5.7329 0.033305 0
M  V30 143 H 9.4117 5.95699 -0.725486 0
M  V30 144 H 10.4817 4.66917 -1.30828 0
M  V30 145 N 11.8248 0.280983 1.55075 0
M  V30 146 C 12.7878 -0.590896 2.21452 0
M  V30 147 C 13.7878 -1.07682 1.19421 0
M  V30 148 O 14.9778 -0.97605 1.44288 0
M  V30 149 C 12.1098 -1.81587 2.88511 0
M  V30 150 H 13.3028 -0.0112554 2.99898 0
M  V30 151 H 10.8558 0.0316438 1.56268 0
M  V30 152 H 11.5908 -2.43587 2.14093 0
M  V30 153 H 11.3758 -1.4753 3.63287 0
M  V30 154 H 12.8658 -2.43575 3.39206 0
M  V30 155 N 13.3029 -1.57598 0.00835791 0
M  V30 156 C 14.5499 -1.90928 -0.674732 0
M  V30 157 C 14.8779 -0.88277 -1.73313 0
M  V30 158 O 14.1329 0.111294 -1.95383 0
M  V30 159 C 14.4319 -3.3101 -1.34787 0
M  V30 160 C 14.0979 -4.48922 -0.421861 0
M  V30 161 C 12.7599 -4.8091 -0.166927 0
M  V30 162 C 15.1119 -5.20755 0.215211 0
M  V30 163 C 12.4399 -5.821 0.733232 0
M  V30 164 C 14.7919 -6.22905 1.1033 0
M  V30 165 C 13.4559 -6.53346 1.36733 0
M  V30 166 H 12.7259 -0.698656 -0.246902 0
M  V30 167 H 15.3729 -1.91387 0.0656779 0
M  V30 168 H 13.6779 -3.26714 -2.16253 0
M  V30 169 H 15.3749 -3.54061 -1.8826 0
M  V30 170 H 11.9649 -4.23934 -0.630729 0
M  V30 171 H 16.1489 -4.9629 0.0312829 0
M  V30 172 H 11.4049 -6.04042 0.945712 0
M  V30 173 H 15.5789 -6.77694 1.60325 0
M  V30 174 H 13.2059 -7.31573 2.06652 0
M  V30 175 N 14.781 0.264519 -1.55364 0
M  V30 176 C 15.711 1.33121 -1.91836 0
M  V30 177 C 16.692 1.51101 -0.781192 0
M  V30 178 O 17.877 1.64003 -1.04003 0
M  V30 179 C 15.007 2.68921 -2.19769 0
M  V30 180 C 13.961 2.65661 -3.35571 0
M  V30 181 C 13.287 4.05093 -3.49004 0
M  V30 182 C 14.587 2.24187 -4.71739 0
M  V30 183 H 16.281 1.02844 -2.81182 0
M  V30 184 H 13.827 0.493286 -1.35287 0
M  V30 185 H 15.78 3.43663 -2.43872 0
M  V30 186 H 14.504 3.00799 -1.27231 0
M  V30 187 H 13.163 1.93377 -3.1145 0
M  V30 188 H 12.811 4.34206 -2.53917 0
M  V30 189 H 12.511 4.03804 -4.26868 0
M  V30 190 H 14.035 4.81561 -3.75408 0
M  V30 191 H 15.449 2.88654 -4.9533 0
M  V30 192 H 13.846 2.34044 -5.52579 0
M  V30 193 H 14.916 1.19327 -4.69988 0
M  V30 194 N 16.2591 1.48442 0.529413 0
M  V30 195 C 17.1891 1.65902 1.64313 0
M  V30 196 C 18.1701 0.507897 1.6234 0
M  V30 197 O 19.3551 0.740503 1.79528 0
M  V30 198 C 16.4851 1.69911 3.02898 0
M  V30 199 C 15.4391 2.8453 3.19729 0
M  V30 200 C 14.7651 2.73629 4.59381 0
M  V30 201 C 16.0651 4.25821 3.02447 0
M  V30 202 H 17.7591 2.5914 1.49955 0
M  V30 203 H 15.3051 1.24709 0.719982 0
M  V30 204 H 17.2581 1.80715 3.80684 0
M  V30 205 H 15.9821 0.732524 3.18279 0
M  V30 206 H 14.6411 2.73283 2.44361 0
M  V30 207 H 14.2891 1.74938 4.71599 0
M  V30 208 H 13.9891 3.50541 4.71588 0
M  V30 209 H 15.5131 2.86401 5.39265 0
M  V30 210 H 16.9271 4.37898 3.70024 0
M  V30 211 H 15.3241 5.03735 3.26146 0
M  V30 212 H 16.3941 4.42244 1.98867 0
M  V30 213 N 17.7372 -0.778329 1.37039 0
M  V30 214 C 19.1482 -1.35421 1.28523 0
M  V30 215 C 19.4992 -1.96075 -0.0700901 0
M  V30 216 O 18.6242 -1.93352 -0.971801 0
M  V30 217 C 19.2192 -2.46211 2.32735 0
M  V30 218 C 17.7782 -2.99585 2.27873 0
M  V30 219 C 16.9252 -1.72748 2.16918 0
M  V30 220 H 19.8762 -0.5791 1.47757 0
M  V30 221 H 19.8972 -3.2552 1.9702 0
M  V30 222 H 19.4092 -2.02036 3.31365 0
M  V30 223 H 17.5102 -3.48152 1.32745 0
M  V30 224 H 17.6232 -3.55646 3.21018 0
M  V30 225 H 15.9872 -1.95416 1.63354 0
M  V30 226 H 16.7702 -1.30686 3.17452 0
M  V30 227 N 19.2153 -1.21501 -1.00376 0
M  V30 228 C 20.4433 -1.059 -1.77744 0
M  V30 229 C 20.8583 0.391125 -1.84704 0
M  V30 230 O 20.2153 1.27133 -1.30933 0
M  V30 231 C 20.2663 -1.65111 -3.21591 0
M  V30 232 O 19.9873 -3.0445 -3.15027 0
M  V30 233 C 21.4883 -1.54637 -4.15454 0
M  V30 234 H 18.7083 -0.371825 -0.558558 0
M  V30 235 H 21.2523 -1.60865 -1.26264 0
M  V30 236 H 19.4073 -1.14235 -3.70175 0
M  V30 237 H 19.8213 -3.3278 -4.0541 0
M  V30 238 H 21.2953 -2.00808 -5.14179 0
M  V30 239 H 21.7723 -0.501022 -4.36333 0
M  V30 240 H 22.3783 -2.04767 -3.72761 0
M  V30 241 N 20.6934 1.19889 -1.02296 0
M  V30 242 C 21.9414 1.89046 -0.714558 0
M  V30 243 C 22.2624 1.79636 0.758681 0
M  V30 244 O 21.5324 1.20292 1.54618 0
M  V30 245 H 20.1124 0.699802 -0.261317 0
M  V30 246 H 22.7744 1.45574 -1.29592 0
M  V30 247 H 21.8704 2.95524 -1.0036 0
M  V30 248 N 22.1715 0.800033 1.35784 0
M  V30 249 C 23.1345 0.211565 2.28221 0
M  V30 250 C 24.1345 -0.59728 1.49296 0
M  V30 251 O 25.3245 -0.416721 1.69142 0
M  V30 252 C 22.4565 -0.705846 3.33513 0
M  V30 253 H 23.6495 1.02677 2.81776 0
M  V30 254 H 21.2025 0.570211 1.45528 0
M  V30 255 H 21.9375 -1.54498 2.85133 0
M  V30 256 H 21.7225 -0.127655 3.91892 0
M  V30 257 H 23.2125 -1.11211 4.02519 0
M  V30 258 N 23.6496 -1.47581 0.552962 0
M  V30 259 C 24.5596 -2.33743 -0.200353 0
M  V30 260 C 25.5756 -1.47928 -0.916151 0
M  V30 261 O 26.7516 -1.80865 -0.885993 0
M  V30 262 C 23.8166 -3.24536 -1.21973 0
M  V30 263 C 22.8776 -4.26238 -0.511819 0
M  V30 264 C 22.1106 -5.12693 -1.48263 0
M  V30 265 O 22.3336 -5.01525 -2.71714 0
M  V30 266 O 21.2676 -5.93375 -1.00945 0
M  V30 267 H 25.0936 -2.9945 0.506304 0
M  V30 268 H 22.6786 -1.46071 0.313622 0
M  V30 269 H 24.5606 -3.80631 -1.80827 0
M  V30 270 H 23.2356 -2.61462 -1.90839 0
M  V30 271 H 22.1426 -3.73914 0.117799 0
M  V30 272 H 23.4756 -4.92014 0.135308 0
M  V30 273 N 25.1277 -0.289203 -1.54924 0
M  V30 274 C 26.0907 0.579144 -2.21762 0
M  V30 275 C 27.0907 1.07047 -1.1999 0
M  V30 276 O 28.2807 0.968384 -1.44803 0
M  V30 277 C 25.4127 1.80055 -2.8947 0
M  V30 278 H 26.6057 -0.00464908 -2.999 0
M  V30 279 H 24.1587 -0.0399306 -1.56249 0
M  V30 280 H 24.8937 2.42449 -2.15381 0
M  V30 281 H 24.6787 1.45602 -3.64064 0
M  V30 282 H 26.1687 2.41773 -3.40493 0
M  V30 283 N 26.6058 1.57591 -0.0167156 0
M  V30 284 C 27.8538 1.90906 0.663285 0
M  V30 285 C 28.1748 0.892509 1.73376 0
M  V30 286 O 27.4448 -0.0677623 1.95783 0
M  V30 287 H 26.0248 0.704637 0.247983 0
M  V30 288 H 28.6868 1.94803 -0.0615909 0
M  V30 289 H 27.7828 2.9116 1.12393 0
M  V30 290 N 28.0839 -0.256276 1.55502 0
M  V30 291 C 28.9939 -1.33882 1.92647 0
M  V30 292 C 30.0099 -1.53159 0.825727 0
M  V30 293 O 31.1859 -1.66963 1.12629 0
M  V30 294 C 28.2509 -2.6751 2.20543 0
M  V30 295 C 27.3119 -2.56836 3.43997 0
M  V30 296 C 26.5449 -3.84092 3.70553 0
M  V30 297 O 26.7679 -4.85545 2.99336 0
M  V30 298 O 25.7019 -3.83288 4.64084 0
M  V30 299 H 29.5279 -1.05374 2.84833 0
M  V30 300 H 27.1129 -0.456237 1.42263 0
M  V30 301 H 28.9949 -3.46492 2.39835 0
M  V30 302 H 27.6699 -2.9577 1.31536 0
M  V30 303 H 26.5769 -1.76172 3.30021 0
M  V30 304 H 27.9099 -2.33523 4.33275 0
M  V30 305 N 29.562 -1.4872 -0.521534 0
M  V30 306 C 30.811 -1.56419 -1.27341 0
M  V30 307 C 31.124 -0.246805 -1.94037 0
M  V30 308 O 32.33 -0.202122 -2.70747 0
M  V30 309 C 30.786 -2.75896 -2.31105 0
M  V30 310 C 30.394 -4.14311 -1.70441 0
M  V30 311 C 32.138 -2.92913 -3.07249 0
M  V30 312 C 30.045 -5.25038 -2.72194 0
M  V30 313 H 28.975 -0.582344 -0.478949 0
M  V30 314 H 31.626 -1.75071 -0.549779 0
M  V30 315 H 30.008 -2.50697 -3.06541 0
M  V30 316 H 31.182 -4.49564 -1.01136 0
M  V30 317 H 29.497 -4.02482 -1.06759 0
M  V30 318 H 32.094 -3.72805 -3.83302 0
M  V30 319 H 32.437 -2.02689 -3.63625 0
M  V30 320 H 32.97 -3.18054 -2.38928 0
M  V30 321 H 29.709 -6.17255 -2.20627 0
M  V30 322 H 29.229 -4.94263 -3.39801 0
M  V30 323 H 30.908 -5.53508 -3.35019 0
M  V30 324 N 31.0401 0.771051 -1.3745 0
M  V30 325 C 32.2891 1.52491 -1.3202 0
M  V30 326 C 32.6021 1.9538 0.0927347 0
M  V30 327 O 33.8081 2.70159 0.269503 0
M  V30 328 C 32.2641 2.75366 -2.31736 0
M  V30 329 C 31.8721 2.39573 -3.78562 0
M  V30 330 C 33.6161 3.53307 -2.35318 0
M  V30 331 C 31.5231 3.58954 -4.70007 0
M  V30 332 H 30.4531 0.572506 -0.490666 0
M  V30 333 H 33.1041 0.844474 -1.62914 0
M  V30 334 H 31.4861 3.45303 -1.93861 0
M  V30 335 H 32.6601 1.77415 -4.25277 0
M  V30 336 H 30.9751 1.74805 -3.77932 0
M  V30 337 H 33.5721 4.42039 -3.00842 0
M  V30 338 H 33.9151 3.93217 -1.36698 0
M  V30 339 H 34.4481 2.90367 -2.71904 0
M  V30 340 H 31.1871 3.24125 -5.69757 0
M  V30 341 H 30.7071 4.20214 -4.27996 0
M  V30 342 H 32.3861 4.25758 -4.87175 0
M  V30 343 N 32.5182 1.22032 0.997298 0
M  V30 344 C 33.7662 1.04016 1.73278 0
M  V30 345 C 34.0872 -0.426255 1.90284 0
M  V30 346 O 33.3572 -1.30694 1.45931 0
M  V30 347 H 31.9372 0.381897 0.642 0
M  V30 348 H 34.5992 1.5347 1.20137 0
M  V30 349 H 33.6952 1.51441 2.72896 0
M  V30 350 N 33.9963 -1.19345 1.0293 0
M  V30 351 C 35.2443 -1.88665 0.724574 0
M  V30 352 C 35.5653 -1.80036 -0.749144 0
M  V30 353 O 34.8353 -1.2111 -1.53978 0
M  V30 354 H 33.4153 -0.698406 0.265025 0
M  V30 355 H 36.0773 -1.44885 1.30362 0
M  V30 356 H 35.1733 -2.94987 1.01926 0
M  V30 357 N 35.4744 -0.807222 -1.35358 0
M  V30 358 C 36.8904 -0.491038 -1.51858 0
M  V30 359 C 37.0904 0.987648 -1.75635 0
M  V30 360 O 36.1464 1.77265 -1.79815 0
M  V30 361 C 37.4594 -1.33695 -2.69344 0
M  V30 362 C 39.0074 -1.33246 -2.83222 0
M  V30 363 C 39.4824 -2.1625 -4.03733 0
M  V30 364 N 40.9734 -2.1379 -4.10911 0
M  V30 365 C 41.7084 -2.74772 -5.03277 0
M  V30 366 N 41.2044 -3.44684 -6.0097 0
M  V30 367 N 42.9974 -2.6441 -4.96028 0
M  V30 368 H 35.1484 -1.76485 -1.18181 0
M  V30 369 H 37.4114 -0.751199 -0.578276 0
M  V30 370 H 37.1174 -2.38634 -2.58354 0
M  V30 371 H 36.9914 -0.990618 -3.6396 0
M  V30 372 H 39.3784 -0.290911 -2.93663 0
M  V30 373 H 39.4594 -1.71866 -1.89461 0
M  V30 374 H 39.1034 -3.20445 -3.94052 0
M  V30 375 H 39.0334 -1.74989 -4.96675 0
M  V30 376 H 41.5244 -1.62923 -3.40976 0
M  V30 377 H 41.8374 -3.88501 -6.68047 0
M  V30 378 H 40.1824 -3.48788 -6.01142 0
M  V30 379 H 43.3734 -2.0938 -4.18662 0
M  V30 380 H 43.5464 -3.12225 -5.6782 0
M  V30 381 N 36.9525 1.47285 -0.560781 0
M  V30 382 C 37.8625 2.33846 0.187954 0
M  V30 383 C 38.8785 1.48412 0.908293 0
M  V30 384 O 40.0545 1.81332 0.876388 0
M  V30 385 C 37.1195 3.25178 1.2025 0
M  V30 386 C 36.1805 4.26504 0.489208 0
M  V30 387 C 35.4135 5.13472 1.45542 0
M  V30 388 O 35.6365 5.02959 2.6905 0
M  V30 389 O 34.5705 5.93902 0.977963 0
M  V30 390 H 38.3965 2.99177 -0.522177 0
M  V30 391 H 35.9815 1.45903 -0.321364 0
M  V30 392 H 37.8635 3.81584 1.78805 0
M  V30 393 H 36.5385 2.6247 1.89449 0
M  V30 394 H 35.4455 3.73847 -0.137627 0
M  V30 395 H 36.7785 4.91935 -0.161399 0
M  V30 396 N 38.4306 0.297415 1.54768 0
M  V30 397 C 39.6556 -0.318435 2.04941 0
M  V30 398 C 40.0806 -1.4701 1.17345 0
M  V30 399 O 39.4386 -1.80436 0.176758 0
M  V30 400 C 39.4866 -0.755749 3.52592 0
M  V30 401 O 38.5906 -1.86088 3.68028 0
M  V30 402 H 37.9316 -0.062421 0.661059 0
M  V30 403 H 40.4616 0.438215 1.99852 0
M  V30 404 H 40.4716 -1.04552 3.94376 0
M  V30 405 H 39.1466 0.0867233 4.1581 0
M  V30 406 H 37.7236 -1.57193 3.38149 0
M  V30 407 N 39.9087 -1.5758 0.0250728 0
M  V30 408 C 41.3247 -1.56124 -0.331282 0
M  V30 409 C 41.5247 -1.03029 -1.73169 0
M  V30 410 O 40.5807 -0.675215 -2.43305 0
M  V30 411 C 41.8937 -3.00139 -0.183584 0
M  V30 412 C 43.4417 -3.11946 -0.256654 0
M  V30 413 C 43.9167 -4.57793 -0.137792 0
M  V30 414 N 45.4077 -4.6279 -0.194904 0
M  V30 415 C 46.1427 -5.7326 -0.126655 0
M  V30 416 N 45.6387 -6.928 -0.00755288 0
M  V30 417 N 47.4317 -5.61811 -0.180348 0
M  V30 418 H 39.5827 -1.90424 0.94087 0
M  V30 419 H 41.8457 -0.875761 0.362968 0
M  V30 420 H 41.5517 -3.4292 0.780927 0
M  V30 421 H 41.4257 -3.64899 -0.955448 0
M  V30 422 H 43.8127 -2.69079 -1.21162 0
M  V30 423 H 43.8937 -2.49915 0.545517 0
M  V30 424 H 43.5377 -5.01339 0.813739 0
M  V30 425 H 43.4677 -5.17798 -0.958775 0
M  V30 426 H 45.9587 -3.76807 -0.287267 0
M  V30 427 H 46.2717 -7.72791 0.0379428 0
M  V30 428 H 44.6167 -6.94995 0.0271731 0
M  V30 429 H 47.8077 -4.6731 -0.271767 0
M  V30 430 H 47.9807 -6.47882 -0.123697 0
M  V30 431 N 41.3868 0.248026 -1.55636 0
M  V30 432 C 42.7978 0.817177 -1.67866 0
M  V30 433 C 43.1488 1.86069 -0.622322 0
M  V30 434 O 42.2738 2.15157 0.231618 0
M  V30 435 C 42.8688 1.489 -3.04326 0
M  V30 436 C 41.4278 2.00587 -3.185 0
M  V30 437 C 40.5748 0.856573 -2.63739 0
M  V30 438 H 43.5258 0.0238579 -1.58682 0
M  V30 439 H 43.5468 2.35698 -2.98708 0
M  V30 440 H 43.0588 0.729279 -3.81186 0
M  V30 441 H 41.1598 2.79443 -2.4646 0
M  V30 442 H 41.2728 2.20402 -4.25393 0
M  V30 443 H 39.6368 1.25678 -2.21534 0
M  V30 444 H 40.4198 0.109953 -3.43124 0
M  V30 445 N 42.8649 1.48995 0.513639 0
M  V30 446 C 43.8149 1.61127 1.61314 0
M  V30 447 C 44.7989 0.467521 1.53958 0
M  V30 448 O 45.9909 0.719826 1.61702 0
M  V30 449 C 43.1199 1.66937 2.99978 0
M  V30 450 C 42.2059 2.86847 3.12377 0
M  V30 451 N 42.5969 4.11078 2.94701 0
M  V30 452 C 40.8949 2.84521 3.43459 0
M  V30 453 C 41.5959 4.91615 3.10949 0
M  V30 454 N 40.5719 4.24739 3.3926 0
M  V30 455 H 44.3739 2.54909 1.46282 0
M  V30 456 H 41.8879 1.45593 0.719483 0
M  V30 457 H 43.8849 1.73725 3.78979 0
M  V30 458 H 42.5449 0.742831 3.16089 0
M  V30 459 H 43.5559 4.41258 2.71131 0
M  V30 460 H 40.2329 2.01192 3.65825 0
M  V30 461 H 41.6229 6.00264 3.01882 0
M  V30 462 N 44.343 -0.763751 1.37857 0
M  V30 463 C 45.568 -1.55805 1.36893 0
M  V30 464 C 45.993 -1.88054 -0.0416135 0
M  V30 465 O 45.351 -1.49825 -1.02089 0
M  V30 466 C 45.399 -2.84012 2.22192 0
M  V30 467 O 44.503 -3.78732 1.63204 0
M  V30 468 H 43.844 -0.471638 0.46739 0
M  V30 469 H 46.374 -0.944657 1.81487 0
M  V30 470 H 46.384 -3.33037 2.35691 0
M  V30 471 H 45.059 -2.59869 3.24716 0
M  V30 472 H 43.636 -3.37402 1.58791 0
M  V30 473 N 45.8211 -1.22559 -0.990812 0
M  V30 474 C 47.2371 -0.985996 -1.255 0
M  V30 475 C 47.4371 0.319173 -1.98956 0
M  V30 476 O 46.4931 1.04127 -2.3003 0
M  V30 477 C 47.8061 -2.18607 -2.06474 0
M  V30 478 C 49.3541 -2.22985 -2.19651 0
M  V30 479 C 49.8291 -3.4255 -3.04012 0
M  V30 480 N 51.3201 -3.42725 -3.11599 0
M  V30 481 C 52.0551 -4.31892 -3.7717 0
M  V30 482 N 51.5511 -5.31279 -4.44651 0
M  V30 483 N 53.3441 -4.19662 -3.73952 0
M  V30 484 H 45.4951 -2.06469 -0.49841 0
M  V30 485 H 47.7581 -0.904853 -0.282747 0
M  V30 486 H 47.4641 -3.13267 -1.59865 0
M  V30 487 H 47.3381 -2.18838 -3.07229 0
M  V30 488 H 49.7251 -1.28871 -2.65474 0
M  V30 489 H 49.8061 -2.26791 -1.18319 0
M  V30 490 H 49.4501 -4.36965 -2.58889 0
M  V30 491 H 49.3801 -3.35984 -4.0549 0
M  V30 492 H 51.8711 -2.70807 -2.63575 0
M  V30 493 H 52.1841 -5.95593 -4.92431 0
M  V30 494 H 50.5291 -5.3519 -4.43392 0
M  V30 495 H 53.7201 -3.41268 -3.20396 0
M  V30 496 H 53.8931 -4.89358 -4.24774 0
M  V30 497 N 47.2992 1.18797 -1.03562 0
M  V30 498 C 48.7102 1.70322 -0.764676 0
M  V30 499 C 49.0612 1.82708 0.714996 0
M  V30 500 O 48.1862 1.50299 1.55689 0
M  V30 501 C 48.7812 3.09356 -1.38145 0
M  V30 502 C 47.3402 3.58114 -1.15895 0
M  V30 503 C 46.4872 2.34798 -1.4753 0
M  V30 504 H 49.4382 1.03543 -1.20268 0
M  V30 505 H 49.4592 3.72378 -0.781977 0
M  V30 506 H 48.9712 3.00309 -2.45837 0
M  V30 507 H 47.0722 3.72464 -0.100544 0
M  V30 508 H 47.1852 4.4184 -1.8524 0
M  V30 509 H 45.5492 2.38464 -0.894829 0
M  V30 510 H 46.3322 2.28375 -2.56319 0
M  V30 511 N 48.7773 0.814389 1.34928 0
M  V30 512 C 50.0073 0.41054 2.0248 0
M  V30 513 C 50.4153 -0.985625 1.61499 0
M  V30 514 O 49.7583 -1.64781 0.811976 0
M  V30 515 C 49.8203 0.423384 3.56998 0
M  V30 516 C 49.4843 1.77141 4.21272 0
M  V30 517 C 50.4813 2.73093 4.42398 0
M  V30 518 C 48.1663 2.05755 4.58225 0
M  V30 519 C 50.1603 3.95838 4.9959 0
M  V30 520 C 47.8473 3.28762 5.1513 0
M  V30 521 C 48.8453 4.23621 5.35755 0
M  V30 522 O 48.5333 5.44456 5.91458 0
M  V30 523 H 48.2653 0.163997 0.655806 0
M  V30 524 H 50.8193 1.10155 1.73364 0
M  V30 525 H 49.0493 -0.324276 3.85338 0
M  V30 526 H 50.7383 0.0407683 4.0588 0
M  V30 527 H 51.5043 2.5228 4.14222 0
M  V30 528 H 47.3833 1.32727 4.4148 0
M  V30 529 H 50.9273 4.69891 5.15605 0
M  V30 530 H 46.8243 3.49443 5.42734 0
M  V30 531 H 47.5923 5.4586 6.09901 0
M  V30 532 N 50.2554 -1.46986 0.568584 0
M  V30 533 C 51.1884 -2.27129 -0.220779 0
M  V30 534 C 52.1664 -1.34757 -0.909905 0
M  V30 535 O 53.3504 -1.64152 -0.926622 0
M  V30 536 C 50.4774 -3.12108 -1.31553 0
M  V30 537 C 49.5234 -4.20141 -0.733748 0
M  V30 538 S 50.3564 -5.33783 0.428479 0
M  V30 539 C 51.5124 -6.22327 -0.667811 0
M  V30 540 H 51.7454 -2.93731 0.459267 0
M  V30 541 H 49.2784 -1.5026 0.355154 0
M  V30 542 H 51.2364 -3.61636 -1.94241 0
M  V30 543 H 49.8974 -2.44847 -1.96746 0
M  V30 544 H 49.0904 -4.79373 -1.5562 0
M  V30 545 H 48.6924 -3.73553 -0.182812 0
M  V30 546 H 50.9844 -6.59364 -1.55708 0
M  V30 547 H 51.9274 -7.0801 -0.11258 0
M  V30 548 H 52.3354 -5.5618 -0.965601 0
M  V30 549 N 51.7335 -0.305618 -1.54608 0
M  V30 550 C 52.6965 0.555591 -2.22364 0
M  V30 551 C 53.6965 1.05768 -1.21119 0
M  V30 552 O 54.8865 0.952972 -1.45822 0
M  V30 553 C 52.0185 1.76974 -2.91364 0
M  V30 554 H 53.2115 -0.0364572 -2.99878 0
M  V30 555 H 50.7645 -0.0565007 -1.56198 0
M  V30 556 H 51.4995 2.40151 -2.17941 0
M  V30 557 H 51.2845 1.41732 -3.65588 0
M  V30 558 H 52.7745 2.38148 -3.43038 0
M  V30 559 N 53.2116 1.57565 -0.0334293 0
M  V30 560 C 54.4416 1.95996 0.653398 0
M  V30 561 C 54.8496 0.908749 1.65947 0
M  V30 562 O 54.1926 -0.117471 1.83324 0
M  V30 563 C 54.2546 3.30589 1.41249 0
M  V30 564 C 53.9186 4.53503 0.564263 0
M  V30 565 C 54.9156 5.19647 -0.16225 0
M  V30 566 C 52.6006 4.99801 0.500398 0
M  V30 567 C 54.5946 6.30412 -0.941255 0
M  V30 568 C 52.2816 6.10448 -0.282308 0
M  V30 569 C 53.2796 6.75612 -1.00184 0
M  V30 570 O 52.9676 7.84134 -1.77171 0
M  V30 571 H 52.6996 0.65027 0.184728 0
M  V30 572 H 55.2536 2.05199 -0.0907841 0
M  V30 573 H 53.4836 3.17888 2.20191 0
M  V30 574 H 55.1726 3.53892 1.98784 0
M  V30 575 H 55.9386 4.84846 -0.12227 0
M  V30 576 H 51.8176 4.48883 1.05002 0
M  V30 577 H 55.3616 6.81208 -1.50339 0
M  V30 578 H 51.2586 6.44686 -0.323989 0
M  V30 579 H 52.0266 8.00822 -1.69194 0
M  V30 580 N 54.6897 -0.239769 1.55765 0
M  V30 581 C 55.6197 -1.30052 1.9393 0
M  V30 582 C 56.6007 -1.49839 0.805132 0
M  V30 583 O 57.7857 -1.62328 1.06599 0
M  V30 584 C 54.9157 -2.65391 2.2402 0
M  V30 585 C 53.8697 -2.60289 3.39755 0
M  V30 586 C 53.1957 -3.99489 3.55405 0
M  V30 587 C 54.4957 -2.16654 4.75246 0
M  V30 588 H 56.1897 -0.983573 2.82783 0
M  V30 589 H 53.7357 -0.471701 1.36055 0
M  V30 590 H 55.6887 -3.3974 2.49308 0
M  V30 591 H 54.4127 -2.98736 1.32 0
M  V30 592 H 53.0717 -1.88398 3.14487 0
M  V30 593 H 52.7197 -4.30112 2.60793 0
M  V30 594 H 52.4197 -3.96962 4.33238 0
M  V30 595 H 53.9437 -4.75528 3.83022 0
M  V30 596 H 55.3577 -2.80737 4.99859 0
M  V30 597 H 53.7547 -2.25223 5.56232 0
M  V30 598 H 54.8247 -1.11835 4.71827 0
M  V30 599 N 56.1678 -1.49265 -0.50573 0
M  V30 600 C 57.0998 -1.617 -1.62437 0
M  V30 601 C 58.1128 -0.499924 -1.54934 0
M  V30 602 O 59.3018 -0.771785 -1.60953 0
M  V30 603 C 56.4018 -1.5533 -3.01207 0
M  V30 604 C 55.5748 -2.8249 -3.33943 0
M  V30 605 C 54.6338 -2.69238 -4.52103 0
M  V30 606 O 53.6598 -3.43167 -4.5412 0
M  V30 607 N 54.8618 -1.80468 -5.51735 0
M  V30 608 H 57.6268 -2.58177 -1.52199 0
M  V30 609 H 55.1878 -1.46294 -0.693511 0
M  V30 610 H 57.1798 -1.44125 -3.78167 0
M  V30 611 H 55.7498 -0.667297 -3.05395 0
M  V30 612 H 54.9698 -3.08081 -2.45926 0
M  V30 613 H 56.2578 -3.66802 -3.5261 0
M  V30 614 H 55.6558 -1.19653 -5.52901 0
M  V30 615 H 54.2128 -1.75188 -6.27816 0
M  V30 616 N 57.6459 0.756429 -1.3826 0
M  V30 617 C 58.8949 1.51082 -1.3363 0
M  V30 618 C 59.2079 1.95467 0.0720068 0
M  V30 619 O 60.4139 2.7043 0.240834 0
M  V30 620 C 58.8699 2.72893 -2.34644 0
M  V30 621 C 58.4779 2.35544 -3.81081 0
M  V30 622 C 60.2219 3.50791 -2.39052 0
M  V30 623 C 58.1289 3.53948 -4.73787 0
M  V30 624 H 57.0589 0.56727 -0.49671 0
M  V30 625 H 59.7099 0.827147 -1.638 0
M  V30 626 H 58.0919 3.43227 -1.97513 0
M  V30 627 H 59.2659 1.72894 -4.27135 0
M  V30 628 H 57.5809 1.70786 -3.79764 0
M  V30 629 H 60.1779 4.38823 -3.05513 0
M  V30 630 H 60.5209 3.91745 -1.40861 0
M  V30 631 H 61.0539 2.87467 -2.74968 0
M  V30 632 H 57.7929 3.18064 -5.73163 0
M  V30 633 H 57.3129 4.15651 -4.32428 0
M  V30 634 H 58.9919 4.20566 -4.91663 0
M  V30 635 N 59.124 1.23083 0.984299 0
M  V30 636 C 60.056 0.96636 2.07832 0
M  V30 637 C 61.069 -0.0582135 1.62696 0
M  V30 638 O 62.258 0.176843 1.77622 0
M  V30 639 C 59.358 0.433397 3.36117 0
M  V30 640 C 58.531 1.51722 4.10243 0
M  V30 641 C 57.59 0.989821 5.16807 0
M  V30 642 O 56.616 1.67794 5.43906 0
M  V30 643 N 57.818 -0.184367 5.80207 0
M  V30 644 H 60.583 1.90824 2.31098 0
M  V30 645 H 58.144 1.13888 1.1507 0
M  V30 646 H 60.136 0.065699 4.04647 0
M  V30 647 H 58.706 -0.413806 3.09849 0
M  V30 648 H 57.926 2.05786 3.36223 0
M  V30 649 H 59.214 2.24619 4.56534 0
M  V30 650 H 58.612 -0.760062 5.60571 0
M  V30 651 H 57.169 -0.493366 6.4993 0
M  V30 652 N 60.6021 -1.18246 1.0419 0
M  V30 653 C 61.8271 -1.92736 0.765996 0
M  V30 654 C 62.2521 -1.75728 -0.67091 0
M  V30 655 O 61.6101 -1.06825 -1.46486 0
M  V30 656 C 61.6581 -3.42148 1.13875 0
M  V30 657 O 60.7621 -4.11548 0.264954 0
M  V30 658 H 60.1031 -0.601238 0.281797 0
M  V30 659 H 62.6331 -1.49942 1.39207 0
M  V30 660 H 62.6431 -3.92858 1.1012 0
M  V30 661 H 61.3181 -3.53848 2.18551 0
M  V30 662 H 59.8951 -3.71137 0.362226 0
M  V30 663 N 62.0802 -0.821533 -1.34494 0
M  V30 664 C 63.4912 -0.467956 -1.8074 0
M  V30 665 C 63.8422 1.01151 -1.68116 0
M  V30 666 O 62.9672 1.78707 -1.22036 0
M  V30 667 C 63.5622 -0.842627 -3.28154 0
M  V30 668 C 62.1212 -0.541439 -3.72485 0
M  V30 669 C 61.2682 -1.06028 -2.56229 0
M  V30 670 H 64.2192 -1.01183 -1.22261 0
M  V30 671 H 64.2402 -0.145876 -3.8022 0
M  V30 672 H 63.7522 -1.91945 -3.37311 0
M  V30 673 H 61.8532 0.526034 -3.68868 0
M  V30 674 H 61.9662 -1.08453 -4.66663 0
M  V30 675 H 60.3302 -0.481892 -2.501 0
M  V30 676 H 61.1132 -2.14352 -2.68157 0
M  V30 677 N 63.5583 1.46682 -0.576371 0
M  V30 678 C 64.5213 2.28707 0.150239 0
M  V30 679 C 65.5213 1.38035 0.824794 0
M  V30 680 O 66.7113 1.60476 0.677719 0
M  V30 681 C 63.8433 3.18248 1.22192 0
M  V30 682 H 65.0363 2.94423 -0.570521 0
M  V30 683 H 62.5893 1.52688 -0.334078 0
M  V30 684 H 63.3243 2.57265 1.97447 0
M  V30 685 H 63.1093 3.85 0.742812 0
M  V30 686 H 64.5993 3.80001 1.73172 0
M  V30 687 N 65.0364 0.313813 1.54444 0
M  V30 688 C 66.2844 -0.291099 1.99993 0
M  V30 689 C 66.6054 -1.53418 1.20366 0
M  V30 690 O 65.8754 -1.93544 0.302927 0
M  V30 691 H 64.4554 -0.110552 0.738774 0
M  V30 692 H 67.1174 0.428106 1.9014 0
M  V30 693 H 66.2134 -0.554268 3.07139 0
M  V30 694 N 66.5145 -1.57545 0.0417849 0
M  V30 695 C 67.4465 -2.07904 -0.964799 0
M  V30 696 C 68.4595 -1.00497 -1.28079 0
M  V30 697 O 69.6485 -1.28087 -1.24322 0
M  V30 698 C 66.7485 -2.49928 -2.28887 0
M  V30 699 C 65.9215 -3.80562 -2.15619 0
M  V30 700 C 64.9805 -4.08999 -3.31069 0
M  V30 701 O 64.0065 -4.79061 -3.0739 0
M  V30 702 N 65.2085 -3.6017 -4.55256 0
M  V30 703 H 67.9735 -2.94886 -0.535029 0
M  V30 704 H 65.5345 -1.61252 -0.144681 0
M  V30 705 H 67.5265 -2.66034 -3.04972 0
M  V30 706 H 66.0965 -1.68245 -2.63463 0
M  V30 707 H 65.3165 -3.74129 -1.24183 0
M  V30 708 H 66.6045 -4.66126 -2.03971 0
M  V30 709 H 66.0025 -3.03512 -4.77386 0
M  V30 710 H 64.5595 -3.81532 -5.28466 0
M  V30 711 N 67.9926 0.231505 -1.5589 0
M  V30 712 C 69.2176 0.978689 -1.82856 0
M  V30 713 C 69.6426 1.77559 -0.620846 0
M  V30 714 O 69.0006 1.76119 0.430305 0
M  V30 715 C 69.0486 1.87997 -3.07716 0
M  V30 716 O 68.1526 2.97393 -2.85712 0
M  V30 717 H 67.4936 0.277663 -0.603158 0
M  V30 718 H 70.0236 0.24783 -2.03093 0
M  V30 719 H 70.0336 2.2917 -3.37558 0
M  V30 720 H 68.7086 1.29417 -3.95252 0
M  V30 721 H 67.2856 2.60238 -2.67078 0
M  V30 722 N 69.4707 1.49531 0.497807 0
M  V30 723 C 70.8867 1.36365 0.829266 0
M  V30 724 C 71.0867 0.399184 1.97506 0
M  V30 725 O 70.1427 -0.167977 2.51941 0
M  V30 726 C 71.4557 2.77153 1.16647 0
M  V30 727 C 73.0037 2.85877 1.27449 0
M  V30 728 C 73.4787 4.2744 1.64497 0
M  V30 729 N 74.9697 4.30265 1.7154 0
M  V30 730 C 75.7047 5.3677 2.01656 0
M  V30 731 N 75.2007 6.53516 2.29976 0
M  V30 732 N 76.9937 5.24189 2.02934 0
M  V30 733 H 69.1447 2.10831 -0.257703 0
M  V30 734 H 71.4077 0.946534 -0.0527091 0
M  V30 735 H 71.1137 3.49442 0.397872 0
M  V30 736 H 70.9877 3.12722 2.10915 0
M  V30 737 H 73.3747 2.13824 2.0338 0
M  V30 738 H 73.4557 2.53887 0.312244 0
M  V30 739 H 73.0997 5.00021 0.891151 0
M  V30 740 H 73.0297 4.56896 2.61827 0
M  V30 741 H 75.5207 3.4607 1.51802 0
M  V30 742 H 75.8337 7.30506 2.52153 0
M  V30 743 H 74.1787 6.56737 2.27425 0
M  V30 744 H 77.3697 4.31988 1.80289 0
M  V30 745 H 77.5427 6.07286 2.26071 0
M  V30 746 N 70.9488 -0.749086 1.3866 0
M  V30 747 C 72.1888 -1.52112 1.36534 0
M  V30 748 C 72.5528 -1.91951 -0.0432316 0
M  V30 749 O 73.7538 -2.68132 -0.189396 0
M  V30 750 C 72.0248 -2.73704 2.29828 0
M  V30 751 S 73.5838 -3.63519 2.45763 0
M  V30 752 H 70.4018 -0.520482 0.484375 0
M  V30 753 H 73.0038 -0.878963 1.74627 0
M  V30 754 H 71.7078 -2.42552 3.31054 0
M  V30 755 H 71.2388 -3.4286 1.929 0
M  V30 756 H 73.2538 -4.66712 1.68505 0
M  V30 757 N 72.4269 -1.23603 -0.977757 0
M  V30 758 C 73.6749 -1.06759 -1.71601 0
M  V30 759 C 73.9959 0.395929 -1.90938 0
M  V30 760 O 73.2659 1.28356 -1.47992 0
M  V30 761 H 71.8459 -0.392062 -0.635843 0
M  V30 762 H 74.5079 -1.55362 -1.1768 0
M  V30 763 H 73.6039 -1.55763 -2.70452 0
M  V30 764 N 73.905 1.17692 -1.04816 0
M  V30 765 C 75.153 1.87488 -0.754497 0
M  V30 766 C 75.474 1.81205 0.720407 0
M  V30 767 O 74.744 1.23544 1.52032 0
M  V30 768 H 73.324 0.694101 -0.276102 0
M  V30 769 H 75.986 1.42793 -1.32651 0
M  V30 770 H 75.082 2.93328 -1.06606 0
M  V30 771 N 75.3831 0.828654 1.34056 0
M  V30 772 C 76.6301 0.419458 1.98108 0
M  V30 773 C 76.9581 -1.01886 1.65679 0
M  V30 774 O 76.2131 -1.72539 0.923512 0
M  V30 775 C 76.5121 0.575226 3.52741 0
M  V30 776 C 76.1781 1.98012 4.05095 0
M  V30 777 C 74.8401 2.36442 4.19104 0
M  V30 778 C 77.1921 2.89824 4.33188 0
M  V30 779 C 74.5201 3.66009 4.58535 0
M  V30 780 C 76.8721 4.1886 4.74066 0
M  V30 781 C 75.5361 4.5726 4.86281 0
M  V30 782 H 74.8061 0.153491 0.724929 0
M  V30 783 H 77.4531 1.05371 1.59904 0
M  V30 784 H 75.7581 -0.142385 3.91541 0
M  V30 785 H 77.4551 0.239057 4.00287 0
M  V30 786 H 74.0451 1.67162 3.94658 0
M  V30 787 H 78.2291 2.61375 4.21897 0
M  V30 788 H 73.4851 3.95579 4.66184 0
M  V30 789 H 77.6591 4.90086 4.94761 0
M  V30 790 H 75.2861 5.57707 5.16592 0
M  V30 791 N 76.8612 -1.46375 0.584142 0
M  V30 792 C 77.7912 -2.33103 -0.136037 0
M  V30 793 C 78.7722 -1.45431 -0.882255 0
M  V30 794 O 79.9572 -1.74246 -0.857434 0
M  V30 795 C 77.0872 -3.27731 -1.14933 0
M  V30 796 C 76.0412 -4.24855 -0.517862 0
M  V30 797 C 75.3672 -5.09001 -1.63773 0
M  V30 798 C 76.6672 -5.19439 0.545886 0
M  V30 799 H 78.3612 -2.93568 0.588086 0
M  V30 800 H 75.9072 -1.41166 0.284259 0
M  V30 801 H 77.8602 -3.87261 -1.66153 0
M  V30 802 H 76.5842 -2.65377 -1.90375 0
M  V30 803 H 75.2432 -3.6659 -0.0267361 0
M  V30 804 H 74.8912 -4.43031 -2.38185 0
M  V30 805 H 74.5912 -5.74777 -1.22085 0
M  V30 806 H 76.1152 -5.71396 -2.15266 0
M  V30 807 H 77.5292 -5.73177 0.118704 0
M  V30 808 H 75.9262 -5.93566 0.88317 0
M  V30 809 H 76.9962 -4.63285 1.43162 0
M  V30 810 N 78.3393 -0.321999 -1.54275 0
M  V30 811 C 79.5853 0.281461 -2.00837 0
M  V30 812 C 79.9183 1.51909 -1.20985 0
M  V30 813 O 79.1933 1.923 -0.291733 0
M  V30 814 C 79.4763 0.617162 -3.54772 0
M  V30 815 C 79.3293 -0.631064 -4.45351 0
M  V30 816 C 80.6483 1.43542 -4.16033 0
M  V30 817 H 77.7673 0.100826 -0.730071 0
M  V30 818 H 80.4093 -0.438268 -1.84876 0
M  V30 819 H 78.5593 1.23034 -3.68504 0
M  V30 820 H 80.2313 -1.26934 -4.43492 0
M  V30 821 H 78.4743 -1.26025 -4.15091 0
M  V30 822 H 79.1453 -0.351735 -5.50878 0
M  V30 823 H 81.6213 0.917134 -4.05867 0
M  V30 824 H 80.4973 1.63907 -5.23856 0
M  V30 825 H 80.7583 2.43108 -3.69257 0
M  V30 826 N 79.8174 1.5752 -0.0501392 0
M  V30 827 C 81.2334 1.56631 0.306402 0
M  V30 828 C 81.4334 1.0577 1.71508 0
M  V30 829 O 80.4894 0.713837 2.422 0
M  V30 830 C 81.8024 3.00393 0.135811 0
M  V30 831 C 83.3504 3.12315 0.206993 0
M  V30 832 C 83.8254 4.57954 0.064944 0
M  V30 833 N 85.3164 4.63041 0.121254 0
M  V30 834 C 86.0514 5.73389 0.0354381 0
M  V30 835 N 85.5474 6.92724 -0.102666 0
M  V30 836 N 87.3404 5.62026 0.090946 0
M  V30 837 H 79.4914 1.88903 -0.971046 0
M  V30 838 H 81.7544 0.869876 -0.376855 0
M  V30 839 H 81.4604 3.41635 -0.835384 0
M  V30 840 H 81.3344 3.66373 0.897275 0
M  V30 841 H 83.7214 2.70973 1.16866 0
M  V30 842 H 83.8024 2.49016 -0.585208 0
M  V30 843 H 83.4464 4.99981 -0.893394 0
M  V30 844 H 83.3764 5.19258 0.876277 0
M  V30 845 H 85.8674 3.77216 0.227284 0
M  V30 846 H 86.1804 7.72633 -0.160882 0
M  V30 847 H 84.5254 6.94864 -0.137737 0
M  V30 848 H 87.7164 4.67684 0.197388 0
M  V30 849 H 87.8894 6.47997 0.0206089 0
M  V30 850 N 81.2955 -0.223234 1.56011 0
M  V30 851 C 82.2055 -1.29766 1.95443 0
M  V30 852 C 83.2215 -1.51373 0.858028 0
M  V30 853 O 84.3975 -1.64536 1.16146 0
M  V30 854 C 81.4625 -2.62772 2.26167 0
M  V30 855 C 80.5235 -2.49482 3.49367 0
M  V30 856 C 79.7565 -3.76145 3.78616 0
M  V30 857 O 79.9795 -4.79087 3.09568 0
M  V30 858 O 78.9135 -3.73358 4.72109 0
M  V30 859 H 82.7395 -0.99309 2.87004 0
M  V30 860 H 80.3245 -0.425958 1.43199 0
M  V30 861 H 82.2065 -3.41327 2.47131 0
M  V30 862 H 80.8815 -2.92913 1.37781 0
M  V30 863 H 79.7885 -1.69133 3.33684 0
M  V30 864 H 81.1215 -2.2428 4.38131 0
M  V30 865 N 82.7736 -1.49793 -0.48987 0
M  V30 866 C 84.0506 -1.50348 -1.25119 0
M  V30 867 C 84.4306 -0.237466 -2.0976 0
M  V30 868 O 83.7786 0.77981 -2.14782 0
M  V30 869 C 83.9886 -2.78872 -2.09837 0
M  V30 870 C 85.3366 -3.288 -2.68655 0
M  V30 871 O 86.3606 -2.80065 -2.20096 0
M  V30 872 O 85.2196 -4.13707 -3.57083 0
M  V30 873 H 82.3136 -0.602242 -0.566775 0
M  V30 874 H 84.8596 -1.62067 -0.503229 0
M  V30 875 H 83.6316 -3.62499 -1.47343 0
M  V30 876 H 83.2546 -2.70066 -2.91805 0
M  V30 877 N 84.2517 0.741722 -1.39055 0
M  V30 878 C 85.4987 1.50114 -1.35912 0
M  V30 879 C 85.8267 1.94443 0.0470937 0
M  V30 880 O 85.0817 1.66612 1.02659 0
M  V30 881 C 85.3807 2.7592 -2.27163 0
M  V30 882 C 85.0467 2.50493 -3.74919 0
M  V30 883 C 83.7087 2.43267 -4.1518 0
M  V30 884 C 86.0607 2.28585 -4.684 0
M  V30 885 C 83.3887 2.12166 -5.46994 0
M  V30 886 C 85.7407 1.99002 -6.00484 0
M  V30 887 C 84.4047 1.90241 -6.39816 0
M  V30 888 H 83.6747 0.549306 -0.497336 0
M  V30 889 H 86.3217 0.851896 -1.71508 0
M  V30 890 H 84.6267 3.45553 -1.84663 0
M  V30 891 H 86.3237 3.33923 -2.22028 0
M  V30 892 H 82.9137 2.56992 -3.43006 0
M  V30 893 H 87.0977 2.33139 -4.38132 0
M  V30 894 H 82.3537 2.03901 -5.76398 0
M  V30 895 H 86.5277 1.81057 -6.72452 0
M  V30 896 H 84.1547 1.65907 -7.41875 0
M  V30 897 N 85.7298 1.2412 0.971189 0
M  V30 898 C 86.9758 1.08041 1.71625 0
M  V30 899 C 87.3088 -0.380407 1.90438 0
M  V30 900 O 86.5838 -1.28127 1.46334 0
M  V30 901 C 86.8668 1.81682 3.10908 0
M  V30 902 C 86.7198 3.35493 2.99608 0
M  V30 903 C 88.0388 1.58671 4.10501 0
M  V30 904 H 85.1578 0.39388 0.622919 0
M  V30 905 H 87.7998 1.52743 1.13003 0
M  V30 906 H 85.9498 1.43684 3.60953 0
M  V30 907 H 87.6218 3.83068 2.57015 0
M  V30 908 H 85.8648 3.64052 2.35899 0
M  V30 909 H 86.5358 3.82217 3.98264 0
M  V30 910 H 89.0118 1.91719 3.69301 0
M  V30 911 H 87.8878 2.1266 5.06031 0
M  V30 912 H 88.1488 0.524161 4.38982 0
M  V30 913 N 87.2079 -1.17134 1.05439 0
M  V30 914 C 88.1379 -2.2342 0.678649 0
M  V30 915 C 89.1189 -1.66971 -0.32476 0
M  V30 916 O 90.3039 -1.93149 -0.201802 0
M  V30 917 C 87.4339 -3.47256 0.0552099 0
M  V30 918 C 86.3879 -4.16543 0.98365 0
M  V30 919 C 85.7139 -5.34231 0.223961 0
M  V30 920 C 87.0139 -4.68495 2.3089 0
M  V30 921 H 88.7079 -2.55105 1.56722 0
M  V30 922 H 86.2539 -1.2262 0.754998 0
M  V30 923 H 88.2069 -4.20828 -0.21946 0
M  V30 924 H 86.9309 -3.14846 -0.868319 0
M  V30 925 H 85.5899 -3.44887 1.24293 0
M  V30 926 H 85.2379 -4.98071 -0.702412 0
M  V30 927 H 84.9379 -5.81527 0.842627 0
M  V30 928 H 86.4619 -6.10585 -0.0433671 0
M  V30 929 H 87.8759 -5.33691 2.09396 0
M  V30 930 H 86.2729 -5.26379 2.88176 0
M  V30 931 H 87.3429 -3.85169 2.94572 0
M  V30 932 N 88.686 -0.835752 -1.33615 0
M  V30 933 C 89.914 -0.443344 -2.02094 0
M  V30 934 C 90.329 0.954522 -1.62894 0
M  V30 935 O 89.686 1.61982 -0.840723 0
M  V30 936 C 89.737 -0.550775 -3.5728 0
M  V30 937 O 89.458 -1.89356 -3.95065 0
M  V30 938 C 90.959 -0.154919 -4.43029 0
M  V30 939 H 88.179 -0.176359 -0.647409 0
M  V30 940 H 90.723 -1.12746 -1.70612 0
M  V30 941 H 88.878 0.0853997 -3.87306 0
M  V30 942 H 89.292 -1.87687 -4.89769 0
M  V30 943 H 90.766 -0.281144 -5.51284 0
M  V30 944 H 91.243 0.902863 -4.2982 0
M  V30 945 H 91.849 -0.765404 -4.18356 0
M  V30 946 N 90.1641 1.46063 -0.591896 0
M  V30 947 C 91.1271 2.28854 0.125973 0
M  V30 948 C 92.1271 1.38903 0.810107 0
M  V30 949 O 93.3171 1.61186 0.66066 0
M  V30 950 C 90.4491 3.19526 1.1881 0
M  V30 951 H 91.6421 2.93802 -0.601717 0
M  V30 952 H 89.1951 1.52325 -0.350254 0
M  V30 953 H 89.9301 2.59345 1.94707 0
M  V30 954 H 89.7151 3.85766 0.701936 0
M  V30 955 H 91.2051 3.81817 1.69132 0
M  V30 956 N 91.6422 0.330177 1.54103 0
M  V30 957 C 92.6052 -0.520144 2.2322 0
M  V30 958 C 93.6052 -1.03828 1.22786 0
M  V30 959 O 94.7952 -0.929652 1.4732 0
M  V30 960 C 91.9272 -1.72317 2.94142 0
M  V30 961 H 93.1202 0.0841605 2.99782 0
M  V30 962 H 90.6732 0.0813433 1.56088 0
M  V30 963 H 91.4082 -2.36653 2.21734 0
M  V30 964 H 91.1932 -1.35898 3.67796 0
M  V30 965 H 92.6832 -2.3266 3.46784 0
M  V30 966 N 93.1203 -1.57491 0.0584922 0
M  V30 967 C 94.0703 -2.08474 -0.923188 0
M  V30 968 C 95.0543 -0.991479 -1.26722 0
M  V30 969 O 96.2463 -1.25473 -1.24842 0
M  V30 970 C 93.3753 -2.6392 -2.19548 0
M  V30 971 C 92.4613 -3.80227 -1.87852 0
M  V30 972 N 92.8523 -4.89714 -1.26546 0
M  V30 973 C 91.1503 -3.89271 -2.17679 0
M  V30 974 C 91.8513 -5.70689 -1.12644 0
M  V30 975 N 90.8273 -5.18531 -1.63176 0
M  V30 976 H 94.6293 -2.90517 -0.444653 0
M  V30 977 H 92.1433 -1.61745 -0.145764 0
M  V30 978 H 94.1403 -2.98752 -2.9078 0
M  V30 979 H 92.8003 -1.83318 -2.68001 0
M  V30 980 H 93.8113 -5.09358 -0.936757 0
M  V30 981 H 90.4883 -3.19623 -2.68602 0
M  V30 982 H 91.8783 -6.6875 -0.6499 0
M  V30 983 N 94.5984 0.214957 -1.56127 0
M  V30 984 C 95.8384 0.945364 -1.81224 0
M  V30 985 C 96.2024 1.81265 -0.633005 0
M  V30 986 O 97.4034 2.57731 -0.763423 0
M  V30 987 C 95.6744 1.75665 -3.1125 0
M  V30 988 S 97.2334 2.54179 -3.57685 0
M  V30 989 H 94.0514 0.317443 -0.6362 0
M  V30 990 H 96.6534 0.210381 -1.94365 0
M  V30 991 H 95.3574 1.10977 -3.9511 0
M  V30 992 H 94.8884 2.53381 -3.00934 0
M  V30 993 H 96.9034 3.7792 -3.21545 0
M  V30 994 N 96.0765 1.50051 0.48192 0
M  V30 995 C 97.3225 1.61706 1.2338 0
M  V30 996 C 97.6775 0.308488 1.89911 0
M  V30 997 O 96.9705 -0.692798 1.78636 0
M  V30 998 C 97.1645 2.72717 2.30998 0
M  V30 999 C 96.9935 4.14242 1.75024 0
M  V30 1000 C 95.7635 4.80786 1.55476 0
M  V30 1001 C 97.9615 4.98846 1.25128 0
M  V30 1002 N 95.9435 6.06563 0.946311 0
M  V30 1003 C 97.3145 6.15258 0.765382 0
M  V30 1004 C 99.3695 4.84702 1.13881 0
M  V30 1005 C 98.0725 7.19079 0.178113 0
M  V30 1006 C 100.098 5.8869 0.565486 0
M  V30 1007 C 99.4605 7.04343 0.0899105 0
M  V30 1008 H 95.5595 0.645958 0.440753 0
M  V30 1009 H 98.1435 1.8713 0.537624 0
M  V30 1010 H 96.3145 2.49033 2.98055 0
M  V30 1011 H 98.0465 2.73789 2.9803 0
M  V30 1012 H 94.8015 4.37899 1.80392 0
M  V30 1013 H 95.2255 6.73767 0.660812 0
M  V30 1014 H 99.8675 3.95583 1.49244 0
M  V30 1015 H 97.5855 8.07882 -0.187749 0
M  V30 1016 H 101.171 5.79808 0.480974 0
M  V30 1017 H 100.051 7.83433 -0.346782 0
M  V30 1018 N 97.5546 -0.734337 1.39446 0
M  V30 1019 C 98.8026 -1.49096 1.36436 0
M  V30 1020 C 99.1236 -1.94961 -0.0388255 0
M  V30 1021 O 98.3936 -1.69033 -0.990191 0
M  V30 1022 H 96.9736 -0.5531 0.502085 0
M  V30 1023 H 99.6356 -0.871725 1.74319 0
M  V30 1024 H 98.7316 -2.37276 2.02747 0
M  V30 1025 N 99.0327 -1.24633 -0.964593 0
M  V30 1026 C 100.258 -1.11596 -1.74818 0
M  V30 1027 C 100.683 0.32723 -1.85232 0
M  V30 1028 O 100.041 1.23695 -1.32549 0
M  V30 1029 C 100.089 -1.76397 -3.1451 0
M  V30 1030 O 99.1927 -1.03685 -3.99153 0
M  V30 1031 H 98.5337 -0.390196 -0.537255 0
M  V30 1032 H 101.064 -1.65002 -1.20977 0
M  V30 1033 H 101.074 -1.8228 -3.65018 0
M  V30 1034 H 99.7487 -2.81401 -3.06246 0
M  V30 1035 H 98.3257 -1.05611 -3.57632 0
M  V30 1036 N 100.511 1.16574 -1.06058 0
M  V30 1037 C 101.459 2.22941 -0.663343 0
M  V30 1038 C 102.453 1.66358 0.319593 0
M  V30 1039 O 103.659 1.7905 0.184713 0
M  V30 1040 H 100.034 0.725907 -0.196376 0
M  V30 1041 H 102.005 2.53736 -1.57037 0
M  V30 1042 C 100.754 3.47642 -0.0632808 0
M  V30 1043 H 100.077 3.91493 -0.810733 0
M  V30 1044 H 101.517 4.2363 0.177177 0
M  V30 1045 C 99.9758 3.1509 1.19248 0
M  V30 1046 O 100.506 3.30673 2.28075 0
M  V30 1047 N 98.7118 2.6924 1.09353 0
M  V30 1048 H 98.2588 2.5676 0.207912 0
M  V30 1049 H 98.2168 2.47833 1.93458 0
M  V30 1050 N 101.989 0.842826 1.3317 0
M  V30 1051 C 103.238 0.436738 1.96915 0
M  V30 1052 C 103.551 -1.01025 1.67491 0
M  V30 1053 O 104.757 -1.5212 2.24881 0
M  V30 1054 C 103.213 0.730021 3.52418 0
M  V30 1055 C 102.821 2.19195 3.90714 0
M  V30 1056 C 104.565 0.391076 4.22695 0
M  V30 1057 C 102.472 2.42907 5.39212 0
M  V30 1058 H 101.402 0.15958 0.736919 0
M  V30 1059 H 104.053 1.03196 1.51733 0
M  V30 1060 H 102.435 0.0643755 3.95948 0
M  V30 1061 H 103.609 2.8984 3.58231 0
M  V30 1062 H 101.924 2.49425 3.33431 0
M  V30 1063 H 104.521 0.545817 5.31907 0
M  V30 1064 H 104.864 -0.666294 4.10933 0
M  V30 1065 H 105.397 1.01212 3.84709 0
M  V30 1066 H 102.136 3.47224 5.55982 0
M  V30 1067 H 101.656 1.76827 5.73142 0
M  V30 1068 H 103.335 2.2626 6.06148 0
M  V30 1069 N 103.467 -1.45747 0.599634 0
M  V30 1070 C 104.415 -2.322 -0.136426 0
M  V30 1071 C 105.409 -1.45497 -0.867583 0
M  V30 1072 O 106.615 -1.62027 -0.78405 0
M  V30 1073 H 102.99 -0.749368 -0.0628588 0
M  V30 1074 H 104.961 -2.92072 0.611281 0
M  V30 1075 C 103.71 -3.28974 -1.12567 0
M  V30 1076 H 103.033 -3.9568 -0.572484 0
M  V30 1077 H 104.473 -3.92212 -1.61077 0
M  V30 1078 C 102.932 -2.55561 -2.19523 0
M  V30 1079 O 103.462 -2.33111 -3.27143 0
M  V30 1080 N 101.668 -2.15832 -1.94589 0
M  V30 1081 H 101.215 -2.3429 -1.07078 0
M  V30 1082 H 101.173 -1.67034 -2.66359 0
M  V30 1083 N 104.945 -0.338344 -1.53925 0
M  V30 1084 C 106.191 0.260143 -2.01125 0
M  V30 1085 C 106.524 1.50617 -1.22589 0
M  V30 1086 O 105.799 1.91979 -0.312113 0
M  V30 1087 C 106.082 0.579499 -3.55407 0
M  V30 1088 C 105.935 -0.678264 -4.44657 0
M  V30 1089 C 107.254 1.39122 -4.17532 0
M  V30 1090 H 104.373 0.0930772 -0.731099 0
M  V30 1091 H 107.015 -0.457852 -1.84401 0
M  V30 1092 H 105.165 1.19118 -3.69788 0
M  V30 1093 H 106.837 -1.31631 -4.42121 0
M  V30 1094 H 105.08 -1.3042 -4.13731 0
M  V30 1095 H 105.751 -0.410143 -5.50474 0
M  V30 1096 H 108.227 0.874035 -4.06817 0
M  V30 1097 H 107.103 1.58342 -5.25565 0
M  V30 1098 H 107.364 2.39178 -3.71815 0
M  V30 1099 N 106.423 1.57458 -0.0668435 0
M  V30 1100 C 107.651 1.97624 0.612565 0
M  V30 1101 C 108.066 0.94502 1.63447 0
M  V30 1102 O 107.423 -0.0689276 1.8237 0
M  V30 1103 C 107.474 3.37869 1.28555 0
M  V30 1104 O 107.195 4.3704 0.304557 0
M  V30 1105 C 108.696 3.92882 2.05325 0
M  V30 1106 H 105.916 0.650045 0.166381 0
M  V30 1107 H 108.46 2.04035 -0.137782 0
M  V30 1108 H 106.615 3.3256 1.98702 0
M  V30 1109 H 107.029 5.18565 0.786779 0
M  V30 1110 H 108.503 4.93247 2.47812 0
M  V30 1111 H 108.98 3.29156 2.9078 0
M  V30 1112 H 109.586 4.01577 1.40056 0
M  V30 1113 N 107.901 -0.206675 1.56239 0
M  V30 1114 C 108.831 -1.25909 1.96645 0
M  V30 1115 C 109.812 -1.48097 0.836734 0
M  V30 1116 O 110.997 -1.6003 1.10019 0
M  V30 1117 C 108.127 -2.6058 2.29599 0
M  V30 1118 C 107.081 -2.53024 3.452 0
M  V30 1119 C 106.407 -3.91861 3.63798 0
M  V30 1120 C 107.707 -2.06524 4.79734 0
M  V30 1121 H 109.401 -0.923369 2.84806 0
M  V30 1122 H 106.947 -0.442735 1.37025 0
M  V30 1123 H 108.9 -3.34375 2.56459 0
M  V30 1124 H 107.624 -2.95869 1.38307 0
M  V30 1125 H 106.283 -1.81684 3.18412 0
M  V30 1126 H 105.931 -4.24483 2.69857 0
M  V30 1127 H 105.631 -3.87683 4.4156 0
M  V30 1128 H 107.155 -4.67296 3.93022 0
M  V30 1129 H 108.569 -2.70072 5.05702 0
M  V30 1130 H 106.966 -2.13374 5.60885 0
M  V30 1131 H 108.036 -1.01802 4.74093 0
M  V30 1132 N 109.379 -1.50304 -0.473955 0
M  V30 1133 C 110.627 -1.60832 -1.22382 0
M  V30 1134 C 110.948 -0.30939 -1.9253 0
M  V30 1135 O 110.218 0.67296 -1.83978 0
M  V30 1136 H 108.798 -0.592652 -0.454723 0
M  V30 1137 H 111.46 -1.87068 -0.546968 0
M  V30 1138 H 110.556 -2.41803 -1.97327 0
M  V30 1139 N 110.857 0.726932 -1.39834 0
M  V30 1140 C 111.82 1.82269 -1.38962 0
M  V30 1141 C 112.82 1.58248 -0.285334 0
M  V30 1142 O 114.01 1.65499 -0.54366 0
M  V30 1143 C 111.142 3.20186 -1.17019 0
M  V30 1144 H 112.335 1.84443 -2.36476 0
M  V30 1145 H 109.888 0.931416 -1.25516 0
M  V30 1146 H 110.623 3.23669 -0.202204 0
M  V30 1147 H 110.408 3.3902 -1.96998 0
M  V30 1148 H 111.898 4.00235 -1.1917 0
M  V30 1149 N 112.336 1.25143 0.95797 0
M  V30 1150 C 113.286 1.01924 2.0395 0
M  V30 1151 C 114.27 -0.0427175 1.60843 0
M  V30 1152 O 115.462 0.17221 1.7616 0
M  V30 1153 C 112.591 0.636373 3.3735 0
M  V30 1154 C 111.677 1.73492 3.8699 0
M  V30 1155 N 112.068 2.96945 4.0946 0
M  V30 1156 C 110.366 1.61467 4.15746 0
M  V30 1157 C 111.067 3.68228 4.50315 0
M  V30 1158 N 110.043 2.95833 4.56053 0
M  V30 1159 H 113.845 1.95653 2.19311 0
M  V30 1160 H 111.359 1.15413 1.14253 0
M  V30 1161 H 113.356 0.451233 4.14451 0
M  V30 1162 H 112.016 -0.293621 3.2337 0
M  V30 1163 H 113.027 3.33025 3.96629 0
M  V30 1164 H 109.704 0.753394 4.10646 0
M  V30 1165 H 111.094 4.74178 4.76031 0
M  V30 1166 N 113.814 -1.1601 1.06675 0
M  V30 1167 C 114.762 -2.22586 0.675157 0
M  V30 1168 C 115.756 -1.66525 -0.310766 0
M  V30 1169 O 116.962 -1.79145 -0.175215 0
M  V30 1170 H 113.337 -0.724855 0.200223 0
M  V30 1171 H 115.308 -2.52899 1.58381 0
M  V30 1172 C 114.057 -3.47604 0.0817162 0
M  V30 1173 H 113.38 -3.91058 0.831484 0
M  V30 1174 H 114.82 -4.23718 -0.154708 0
M  V30 1175 C 113.279 -3.15718 -1.17576 0
M  V30 1176 O 113.809 -3.31878 -2.26318 0
M  V30 1177 N 112.015 -2.69816 -1.07923 0
M  V30 1178 H 111.562 -2.56866 -0.194293 0
M  V30 1179 H 111.52 -2.48855 -1.92141 0
M  V30 1180 N 115.292 -0.849877 -1.32721 0
M  V30 1181 C 116.541 -0.447175 -1.96681 0
M  V30 1182 C 116.854 1.00135 -1.68025 0
M  V30 1183 O 118.06 1.50926 -2.25685 0
M  V30 1184 C 116.516 -0.7487 -3.52026 0
M  V30 1185 C 116.124 -2.21264 -3.89546 0
M  V30 1186 C 117.868 -0.413487 -4.22481 0
M  V30 1187 C 115.775 -2.45763 -5.37917 0
M  V30 1188 H 114.705 -0.163486 -0.736063 0
M  V30 1189 H 117.356 -1.03999 -1.51183 0
M  V30 1190 H 115.738 -0.0853727 -3.95908 0
M  V30 1191 H 116.912 -2.91736 -3.56689 0
M  V30 1192 H 115.227 -2.5119 -3.32103 0
M  V30 1193 H 117.824 -0.574017 -5.3161 0
M  V30 1194 H 118.167 0.644492 -4.11281 0
M  V30 1195 H 118.7 -1.03251 -3.84167 0
M  V30 1196 H 115.439 -3.50168 -5.54132 0
M  V30 1197 H 114.959 -1.79864 -5.72197 0
M  V30 1198 H 116.638 -2.29471 -6.0494 0
M  V30 1199 N 116.77 1.45427 -0.607355 0
M  V30 1200 C 117.702 2.2871 0.149752 0
M  V30 1201 C 118.715 1.39937 0.831958 0
M  V30 1202 O 119.904 1.64313 0.697385 0
M  V30 1203 C 117.004 3.15673 1.23304 0
M  V30 1204 C 116.177 4.32722 0.637996 0
M  V30 1205 C 115.236 5.00895 1.61215 0
M  V30 1206 O 114.262 5.57697 1.13854 0
M  V30 1207 N 115.464 5.00159 2.94655 0
M  V30 1208 H 118.229 2.94328 -0.564882 0
M  V30 1209 H 115.79 1.55612 -0.446823 0
M  V30 1210 H 117.782 3.58144 1.88454 0
M  V30 1211 H 116.352 2.51965 1.8502 0
M  V30 1212 H 115.572 3.93734 -0.191572 0
M  V30 1213 H 116.86 5.08321 0.220665 0
M  V30 1214 H 116.258 4.553 3.35735 0
M  V30 1215 H 114.815 5.46495 3.55228 0
M  V30 1216 N 118.248 0.346503 1.53744 0
M  V30 1217 C 119.664 -0.00530975 1.59599 0
M  V30 1218 C 119.864 -1.48465 1.36236 0
M  V30 1219 O 118.92 -2.24376 1.15808 0
M  V30 1220 C 120.233 0.433516 2.97559 0
M  V30 1221 C 121.781 0.386111 3.10609 0
M  V30 1222 C 122.256 0.800451 4.50951 0
M  V30 1223 N 123.747 0.754753 4.5701 0
M  V30 1224 C 124.482 1.04727 5.63755 0
M  V30 1225 N 123.978 1.4081 6.7834 0
M  V30 1226 N 125.771 0.971316 5.53644 0
M  V30 1227 H 117.922 1.31009 1.67184 0
M  V30 1228 H 120.185 0.534242 0.783128 0
M  V30 1229 H 119.891 1.46509 3.19731 0
M  V30 1230 H 119.765 -0.189753 3.76722 0
M  V30 1231 H 122.152 -0.636295 2.88158 0
M  V30 1232 H 122.233 1.04462 2.33498 0
M  V30 1233 H 121.877 1.82088 4.74137 0
M  V30 1234 H 121.807 0.119386 5.26465 0
M  V30 1235 H 124.298 0.488662 3.74727 0
M  V30 1236 H 124.611 1.61607 7.55714 0
M  V30 1237 H 122.956 1.44657 6.79779 0
M  V30 1238 H 126.147 0.688748 4.63005 0
M  V30 1239 H 126.32 1.20263 6.36742 0
M  V30 1240 N 119.726 -1.57421 0.075193 0
M  V30 1241 C 121.142 -1.57099 -0.281444 0
M  V30 1242 C 121.342 -1.08486 -1.69803 0
M  V30 1243 O 120.398 -0.752279 -2.41033 0
M  V30 1244 C 121.711 -3.00571 -0.0880041 0
M  V30 1245 C 123.259 -3.12605 -0.157281 0
M  V30 1246 C 123.734 -4.57999 0.0079207 0
M  V30 1247 N 125.225 -4.63176 -0.0475725 0
M  V30 1248 C 125.96 -5.73373 0.0557876 0
M  V30 1249 N 125.456 -6.92473 0.21286 0
M  V30 1250 N 127.249 -5.621 -0.00152098 0
M  V30 1251 H 119.4 -1.87335 1.00098 0
M  V30 1252 H 121.663 -0.86377 0.390646 0
M  V30 1253 H 121.369 -3.40262 0.889629 0
M  V30 1254 H 121.243 -3.67754 -0.838875 0
M  V30 1255 H 123.63 -2.72798 -1.1254 0
M  V30 1256 H 123.711 -2.48053 0.62475 0
M  V30 1257 H 123.355 -4.98496 0.972824 0
M  V30 1258 H 123.285 -5.20586 -0.793556 0
M  V30 1259 H 125.776 -3.7753 -0.167244 0
M  V30 1260 H 126.089 -7.72279 0.283781 0
M  V30 1261 H 124.434 -6.94556 0.248267 0
M  V30 1262 H 127.625 -4.67938 -0.122958 0
M  V30 1263 H 127.798 -6.47948 0.0824844 0
M  V30 1264 N 121.204 0.198386 -1.56346 0
M  V30 1265 C 122.114 1.2664 -1.97483 0
M  V30 1266 C 123.13 1.49989 -0.882002 0
M  V30 1267 O 124.306 1.62668 -1.18748 0
M  V30 1268 C 121.371 2.59141 -2.30319 0
M  V30 1269 C 120.432 2.43892 -3.53292 0
M  V30 1270 C 119.665 3.70074 -3.84553 0
M  V30 1271 O 119.888 4.74101 -3.1715 0
M  V30 1272 O 118.822 3.658 -4.7799 0
M  V30 1273 H 122.648 0.947304 -2.88548 0
M  V30 1274 H 120.233 0.403123 -1.43859 0
M  V30 1275 H 122.115 3.37352 -2.5253 0
M  V30 1276 H 120.79 2.90684 -1.42423 0
M  V30 1277 H 119.697 1.63803 -3.36332 0
M  V30 1278 H 121.03 2.17282 -4.41644 0
M  V30 1279 N 122.682 1.50554 0.465978 0
M  V30 1280 C 123.63 1.70324 1.58406 0
M  V30 1281 C 124.624 0.569139 1.59553 0
M  V30 1282 O 125.83 0.749776 1.63641 0
M  V30 1283 H 122.205 0.537688 0.525734 0
M  V30 1284 H 124.176 2.64104 1.38894 0
M  V30 1285 C 122.925 1.81928 2.96307 0
M  V30 1286 H 122.248 2.68586 2.96144 0
M  V30 1287 H 123.688 1.99784 3.73982 0
M  V30 1288 C 122.147 0.572095 3.32007 0
M  V30 1289 O 122.677 -0.286416 4.00678 0
M  V30 1290 N 120.883 0.424606 2.87481 0
M  V30 1291 H 120.43 1.12427 2.31771 0
M  V30 1292 H 120.388 -0.408697 3.11732 0
M  V30 1293 N 124.16 -0.719506 1.40217 0
M  V30 1294 C 125.388 -1.50864 1.41589 0
M  V30 1295 C 125.803 -1.88794 0.0145275 0
M  V30 1296 O 125.16 -1.55174 -0.960594 0
M  V30 1297 C 125.211 -2.78646 2.30302 0
M  V30 1298 O 124.932 -2.42321 3.64983 0
M  V30 1299 C 126.433 -3.72569 2.40224 0
M  V30 1300 H 123.653 -0.465709 0.48307 0
M  V30 1301 H 126.197 -0.88785 1.84221 0
M  V30 1302 H 124.352 -3.37019 1.91042 0
M  V30 1303 H 124.766 -3.24514 4.12057 0
M  V30 1304 H 126.24 -4.5908 3.06512 0
M  V30 1305 H 126.717 -4.15403 1.42608 0
M  V30 1306 H 127.323 -3.20109 2.80019 0
M  V30 1307 N 125.638 -1.25649 -0.95132 0
M  V30 1308 C 126.57 -1.02112 -2.05197 0
M  V30 1309 C 127.583 0.0150571 -1.62793 0
M  V30 1310 O 128.772 -0.223874 -1.77091 0
M  V30 1311 C 125.872 -0.522361 -3.3485 0
M  V30 1312 C 125.045 -1.62546 -4.06076 0
M  V30 1313 C 124.104 -1.12649 -5.14001 0
M  V30 1314 O 123.13 -1.82156 -5.39266 0
M  V30 1315 N 124.332 0.03047 -5.80492 0
M  V30 1316 H 127.097 -1.96885 -2.25957 0
M  V30 1317 H 124.658 -1.16899 -1.1201 0
M  V30 1318 H 126.65 -0.172961 -4.0433 0
M  V30 1319 H 125.22 0.33151 -3.10837 0
M  V30 1320 H 124.44 -2.14628 -3.30649 0
M  V30 1321 H 125.728 -2.36644 -4.50419 0
M  V30 1322 H 125.126 0.611169 -5.62389 0
M  V30 1323 H 123.683 0.320875 -6.5101 0
M  V30 1324 N 127.117 1.15442 -1.07289 0
M  V30 1325 C 128.049 2.19773 -0.650585 0
M  V30 1326 C 129.062 1.60076 0.296572 0
M  V30 1327 O 130.251 1.78293 0.0859905 0
M  V30 1328 C 127.351 3.38838 0.0650398 0
M  V30 1329 C 126.524 4.2808 -0.898141 0
M  V30 1330 C 125.583 5.2574 -0.219926 0
M  V30 1331 O 124.609 5.62654 -0.860773 0
M  V30 1332 N 125.811 5.71205 1.03466 0
M  V30 1333 H 128.576 2.56622 -1.54808 0
M  V30 1334 H 126.137 1.30551 -0.957494 0
M  V30 1335 H 128.129 4.01222 0.529415 0
M  V30 1336 H 126.699 3.00409 0.864466 0
M  V30 1337 H 125.919 3.62804 -1.54165 0
M  V30 1338 H 127.207 4.84577 -1.5512 0
M  V30 1339 H 126.605 5.43325 1.57526 0
M  V30 1340 H 125.162 6.35633 1.44272 0
M  V30 1341 N 128.595 0.856903 1.32268 0
M  V30 1342 C 129.545 0.274899 2.26337 0
M  V30 1343 C 130.529 -0.580543 1.50062 0
M  V30 1344 O 131.721 -0.429559 1.71708 0
M  V30 1345 C 128.85 -0.533841 3.39124 0
M  V30 1346 C 127.936 0.334114 4.22782 0
M  V30 1347 N 128.327 1.42143 4.85416 0
M  V30 1348 C 126.625 0.124256 4.45827 0
M  V30 1349 C 127.326 1.95559 5.47843 0
M  V30 1350 N 126.302 1.25444 5.28928 0
M  V30 1351 H 130.104 1.10612 2.72291 0
M  V30 1352 H 127.618 0.703258 1.46383 0
M  V30 1353 H 129.615 -0.96722 4.05525 0
M  V30 1354 H 128.275 -1.36283 2.94715 0
M  V30 1355 H 129.286 1.80436 4.85451 0
M  V30 1356 H 125.963 -0.669837 4.12092 0
M  V30 1357 H 127.353 2.86714 6.07655 0
M  V30 1358 N 130.073 -1.45103 0.615059 0
M  V30 1359 C 131.322 -2.01396 0.110718 0
M  V30 1360 C 131.635 -1.48834 -1.26916 0
M  V30 1361 O 132.841 -1.97152 -1.86664 0
M  V30 1362 C 131.297 -3.59599 0.14723 0
M  V30 1363 C 130.905 -4.21158 1.52743 0
M  V30 1364 C 132.649 -4.23428 -0.30148 0
M  V30 1365 C 130.556 -5.71535 1.51992 0
M  V30 1366 H 129.486 -0.753061 0.0376241 0
M  V30 1367 H 132.137 -1.66494 0.77149 0
M  V30 1368 H 130.519 -3.91724 -0.580339 0
M  V30 1369 H 131.693 -4.00594 2.2773 0
M  V30 1370 H 130.008 -3.69552 1.91886 0
M  V30 1371 H 132.605 -5.33703 -0.326392 0
M  V30 1372 H 132.948 -3.94629 -1.32565 0
M  V30 1373 H 133.481 -3.96047 0.373065 0
M  V30 1374 H 130.22 -6.05044 2.52193 0
M  V30 1375 H 129.74 -5.94268 0.81274 0
M  V30 1376 H 131.419 -6.34873 1.24681 0
M  V30 1377 N 131.551 -0.354651 -1.53558 0
M  V30 1378 C 132.779 0.239515 -2.05509 0
M  V30 1379 C 133.194 1.4333 -1.2289 0
M  V30 1380 O 132.551 1.80538 -0.266899 0
M  V30 1381 C 132.602 0.643719 -3.55723 0
M  V30 1382 O 132.323 -0.502602 -4.35207 0
M  V30 1383 C 133.824 1.29743 -4.23889 0
M  V30 1384 H 131.044 0.0442697 -0.669538 0
M  V30 1385 H 133.588 -0.509856 -1.98042 0
M  V30 1386 H 131.743 1.34302 -3.63376 0
M  V30 1387 H 132.157 -0.178172 -5.24197 0
M  V30 1388 H 133.631 1.53091 -5.30346 0
M  V30 1389 H 134.108 2.25441 -3.76926 0
M  V30 1390 H 134.714 0.639865 -4.20459 0
M  V30 1391 N 133.029 1.57378 -0.0835403 0
M  V30 1392 C 133.992 2.12252 0.864959 0
M  V30 1393 C 134.992 1.04916 1.21858 0
M  V30 1394 O 136.182 1.30853 1.14991 0
M  V30 1395 C 133.314 2.63358 2.16461 0
M  V30 1396 H 134.507 2.97371 0.388676 0
M  V30 1397 H 132.06 1.55423 0.165317 0
M  V30 1398 H 132.795 1.81727 2.686 0
M  V30 1399 H 132.58 3.41826 1.92087 0
M  V30 1400 H 134.07 3.05847 2.84337 0
M  V30 1401 N 134.507 -0.190092 1.56449 0
M  V30 1402 C 135.923 -0.54113 1.50146 0
M  V30 1403 C 136.123 -1.85603 0.784465 0
M  V30 1404 O 135.179 -2.5024 0.337051 0
M  V30 1405 C 136.492 -0.591241 2.9483 0
M  V30 1406 C 138.04 -0.679732 3.0553 0
M  V30 1407 C 138.515 -0.760908 4.51635 0
M  V30 1408 N 140.006 -0.824302 4.55806 0
M  V30 1409 C 140.741 -0.907365 5.66175 0
M  V30 1410 N 140.237 -0.952422 6.86222 0
M  V30 1411 N 142.03 -0.94494 5.541 0
M  V30 1412 H 134.181 0.67235 2.01478 0
M  V30 1413 H 136.444 0.240127 0.917084 0
M  V30 1414 H 136.15 0.305905 3.50367 0
M  V30 1415 H 136.024 -1.44422 3.48457 0
M  V30 1416 H 138.411 -1.56731 2.50039 0
M  V30 1417 H 138.492 0.199549 2.5502 0
M  V30 1418 H 138.136 0.122336 5.07753 0
M  V30 1419 H 138.066 -1.65606 4.99882 0
M  V30 1420 H 140.557 -0.798526 3.69367 0
M  V30 1421 H 140.87 -1.01645 7.66086 0
M  V30 1422 H 139.215 -0.921014 6.8887 0
M  V30 1423 H 142.406 -0.906612 4.59236 0
M  V30 1424 H 142.579 -1.00622 6.4014 0
M  V30 1425 N 135.985 -1.50799 -0.457987 0
M  V30 1426 C 137.401 -1.38515 -0.792819 0
M  V30 1427 C 137.601 -0.451409 -1.96379 0
M  V30 1428 O 136.657 0.10112 -2.52297 0
M  V30 1429 C 137.97 -2.80149 -1.09258 0
M  V30 1430 C 139.518 -2.89156 -1.19825 0
M  V30 1431 C 139.993 -4.31651 -1.53106 0
M  V30 1432 N 141.484 -4.34662 -1.60072 0
M  V30 1433 C 142.219 -5.41928 -1.87354 0
M  V30 1434 N 141.715 -6.59384 -2.12568 0
M  V30 1435 N 143.508 -5.29385 -1.88965 0
M  V30 1436 H 135.659 -2.10073 0.313511 0
M  V30 1437 H 137.922 -0.944803 0.0777862 0
M  V30 1438 H 137.628 -3.50374 -0.305084 0
M  V30 1439 H 137.502 -3.18204 -2.02549 0
M  V30 1440 H 139.889 -2.19141 -1.97639 0
M  V30 1441 H 139.97 -2.54626 -0.244821 0
M  V30 1442 H 139.614 -5.02208 -0.758266 0
M  V30 1443 H 139.544 -4.63678 -2.49621 0
M  V30 1444 H 142.035 -3.49973 -1.42573 0
M  V30 1445 H 142.348 -7.36934 -2.32696 0
M  V30 1446 H 140.693 -6.62535 -2.09933 0
M  V30 1447 H 143.884 -4.36616 -1.68772 0
M  V30 1448 H 144.057 -6.13066 -2.09891 0
M  V30 1449 N 137.463 0.71206 -1.40597 0
M  V30 1450 C 138.426 1.80785 -1.40888 0
M  V30 1451 C 139.426 1.57937 -0.302103 0
M  V30 1452 O 140.616 1.64913 -0.561182 0
M  V30 1453 C 137.748 3.18927 -1.20409 0
M  V30 1454 H 138.941 1.81924 -2.38419 0
M  V30 1455 H 136.494 0.91805 -1.26497 0
M  V30 1456 H 137.229 3.23436 -0.236522 0
M  V30 1457 H 137.014 3.36911 -2.00582 0
M  V30 1458 H 138.504 3.98949 -1.23408 0
M  V30 1459 N 138.941 1.26152 0.944643 0
M  V30 1460 C 140.19 1.10883 1.68487 0
M  V30 1461 C 140.503 -0.348153 1.92477 0
M  V30 1462 O 141.709 -0.621459 2.64292 0
M  V30 1463 C 140.165 1.93624 3.03377 0
M  V30 1464 C 139.773 3.43875 2.87148 0
M  V30 1465 C 141.517 1.86954 3.81115 0
M  V30 1466 C 139.424 4.18875 4.1749 0
M  V30 1467 H 138.354 0.41135 0.631907 0
M  V30 1468 H 141.005 1.50433 1.05082 0
M  V30 1469 H 139.387 1.46904 3.67743 0
M  V30 1470 H 140.561 3.98338 2.31653 0
M  V30 1471 H 138.876 3.51744 2.22856 0
M  V30 1472 H 141.473 2.40275 4.77673 0
M  V30 1473 H 141.816 0.839518 4.07747 0
M  V30 1474 H 142.349 2.31477 3.23517 0
M  V30 1475 H 139.088 5.22332 3.96043 0
M  V30 1476 H 138.608 3.69193 4.72712 0
M  V30 1477 H 140.287 4.27134 4.85968 0
M  V30 1478 N 140.419 -1.14872 1.07899 0
M  V30 1479 C 141.835 -1.37776 0.805606 0
M  V30 1480 C 142.035 -1.92743 -0.587555 0
M  V30 1481 O 141.091 -2.13678 -1.34528 0
M  V30 1482 C 142.404 -2.34361 1.88402 0
M  V30 1483 C 143.952 -2.48012 1.90942 0
M  V30 1484 C 144.427 -3.47893 2.97883 0
M  V30 1485 N 145.918 -3.55433 2.97021 0
M  V30 1486 C 146.653 -4.32553 3.76412 0
M  V30 1487 N 146.149 -5.12959 4.65666 0
M  V30 1488 N 147.942 -4.27697 3.64735 0
M  V30 1489 H 140.093 -0.775365 1.97742 0
M  V30 1490 H 142.356 -0.403521 0.857831 0
M  V30 1491 H 142.062 -2.01098 2.88535 0
M  V30 1492 H 141.936 -3.34206 1.74889 0
M  V30 1493 H 144.323 -2.8057 0.914579 0
M  V30 1494 H 144.404 -1.48147 2.08534 0
M  V30 1495 H 144.048 -3.16069 3.97571 0
M  V30 1496 H 143.978 -4.47527 2.77538 0
M  V30 1497 H 146.469 -2.98048 2.32326 0
M  V30 1498 H 146.782 -5.69065 5.22862 0
M  V30 1499 H 145.127 -5.12245 4.69712 0
M  V30 1500 H 148.318 -3.63949 2.94378 0
M  V30 1501 H 148.491 -4.8755 4.26848 0
M  V30 1502 N 141.898 -0.863906 -1.31812 0
M  V30 1503 C 142.848 -0.286898 -2.26188 0
M  V30 1504 C 143.832 0.572577 -1.50367 0
M  V30 1505 O 145.024 0.420447 -1.71934 0
M  V30 1506 C 142.153 0.515849 -3.39402 0
M  V30 1507 C 141.239 -0.356531 -4.22599 0
M  V30 1508 N 141.63 -1.44716 -4.84656 0
M  V30 1509 C 139.928 -0.147898 -4.45755 0
M  V30 1510 C 140.629 -1.98462 -5.46798 0
M  V30 1511 N 139.605 -1.28247 -5.28255 0
M  V30 1512 H 143.407 -1.12055 -2.717 0
M  V30 1513 H 140.921 -0.711012 -1.46008 0
M  V30 1514 H 142.918 0.945701 -4.06032 0
M  V30 1515 H 141.578 1.34718 -2.95434 0
M  V30 1516 H 142.589 -1.83008 -4.84488 0
M  V30 1517 H 139.266 0.647973 -4.12441 0
M  V30 1518 H 140.656 -2.89932 -6.06126 0
M  V30 1519 N 143.376 1.44774 -0.622745 0
M  V30 1520 C 144.787 1.85546 -0.207226 0
M  V30 1521 C 145.138 1.52093 1.23944 0
M  V30 1522 O 144.263 0.95492 1.94191 0
M  V30 1523 C 144.858 3.36781 -0.369313 0
M  V30 1524 C 143.417 3.76399 -0.00836847 0
M  V30 1525 C 142.564 2.68664 -0.686651 0
M  V30 1526 H 145.515 1.3536 -0.828454 0
M  V30 1527 H 145.536 3.78453 0.394162 0
M  V30 1528 H 145.048 3.61098 -1.42231 0
M  V30 1529 H 143.149 3.57698 1.04322 0
M  V30 1530 H 143.262 4.7732 -0.412584 0
M  V30 1531 H 141.626 2.54404 -0.122777 0
M  V30 1532 H 142.409 2.95815 -1.74208 0
M  V30 1533 N 144.854 0.36279 1.53368 0
M  V30 1534 C 145.786 -0.519668 2.23231 0
M  V30 1535 C 146.799 -1.04844 1.24546 0
M  V30 1536 O 147.988 -0.955296 1.50786 0
M  V30 1537 C 145.088 -1.72995 2.9142 0
M  V30 1538 C 144.261 -1.33316 4.16588 0
M  V30 1539 C 143.32 -2.40521 4.68013 0
M  V30 1540 O 142.346 -2.03027 5.3176 0
M  V30 1541 N 143.548 -3.72065 4.45587 0
M  V30 1542 H 146.313 0.078751 2.99597 0
M  V30 1543 H 143.874 0.187833 1.60807 0
M  V30 1544 H 145.866 -2.44184 3.22733 0
M  V30 1545 H 144.436 -2.2353 2.18525 0
M  V30 1546 H 143.656 -0.451236 3.91609 0
M  V30 1547 H 144.944 -1.04432 4.97967 0
M  V30 1548 H 144.342 -4.05304 3.94646 0
M  V30 1549 H 142.899 -4.39366 4.81457 0
M  V30 1550 N 146.332 -1.57332 0.0918853 0
M  V30 1551 C 147.562 -1.98286 -0.580205 0
M  V30 1552 C 147.97 -0.969713 -1.6246 0
M  V30 1553 O 147.313 0.0493501 -1.83634 0
M  V30 1554 C 147.375 -3.35603 -1.28882 0
M  V30 1555 C 147.039 -4.55285 -0.395559 0
M  V30 1556 C 148.036 -5.18687 0.355002 0
M  V30 1557 C 145.721 -5.01314 -0.314556 0
M  V30 1558 C 147.715 -6.26484 1.17458 0
M  V30 1559 C 145.402 -6.08979 0.508677 0
M  V30 1560 C 146.4 -6.71429 1.2519 0
M  V30 1561 O 146.088 -7.77018 2.06151 0
M  V30 1562 H 145.82 -0.656678 -0.160466 0
M  V30 1563 H 148.374 -2.04721 0.16688 0
M  V30 1564 H 146.604 -3.25842 -2.08241 0
M  V30 1565 H 148.293 -3.61026 -1.85512 0
M  V30 1566 H 149.059 -4.84058 0.302134 0
M  V30 1567 H 144.938 -4.5247 -0.882697 0
M  V30 1568 H 148.482 -6.75159 1.75518 0
M  V30 1569 H 144.379 -6.4304 0.563037 0
M  V30 1570 H 145.147 -7.93991 1.98799 0
M  V30 1571 N 147.81 0.181792 -1.56548 0
M  V30 1572 C 148.758 1.24461 -1.965 0
M  V30 1573 C 149.752 1.464 -0.852261 0
M  V30 1574 O 150.958 1.47103 -1.03733 0
M  V30 1575 H 147.333 0.418138 -0.625031 0
M  V30 1576 H 149.304 0.880714 -2.85107 0
M  V30 1577 C 148.053 2.57891 -2.33212 0
M  V30 1578 H 147.376 2.41829 -3.18369 0
M  V30 1579 H 148.816 3.3097 -2.65019 0
M  V30 1580 C 147.275 3.15871 -1.17163 0
M  V30 1581 O 147.805 3.9913 -0.453708 0
M  V30 1582 N 146.011 2.74808 -0.944936 0
M  V30 1583 H 145.558 2.07205 -1.53049 0
M  V30 1584 H 145.516 3.13939 -0.170286 0
M  V30 1585 N 149.288 1.51039 0.449983 0
M  V30 1586 C 150.22 1.67617 1.56324 0
M  V30 1587 C 151.233 0.557083 1.52972 0
M  V30 1588 O 152.422 0.830989 1.57977 0
M  V30 1589 C 149.522 1.66402 2.95235 0
M  V30 1590 C 148.695 2.9469 3.23229 0
M  V30 1591 C 147.754 2.85832 4.41799 0
M  V30 1592 O 146.78 3.59785 4.41071 0
M  V30 1593 N 147.982 2.00821 5.44657 0
M  V30 1594 H 150.747 2.63648 1.42512 0
M  V30 1595 H 148.308 1.48767 0.638737 0
M  V30 1596 H 150.3 1.58062 3.72557 0
M  V30 1597 H 148.87 0.780182 3.02708 0
M  V30 1598 H 148.09 3.16996 2.34323 0
M  V30 1599 H 149.378 3.79636 3.38754 0
M  V30 1600 H 148.776 1.40091 5.48079 0
M  V30 1601 H 147.333 1.98368 6.20881 0
M  V30 1602 N 150.766 -0.704594 1.40972 0
M  V30 1603 C 152.182 -1.01406 1.23244 0
M  V30 1604 C 152.382 -2.01169 0.115399 0
M  V30 1605 O 151.438 -2.47021 -0.523147 0
M  V30 1606 C 152.751 -1.54728 2.57836 0
M  V30 1607 C 154.299 -1.66658 2.64942 0
M  V30 1608 C 154.774 -2.23383 3.9983 0
M  V30 1609 N 156.265 -2.30756 4.01629 0
M  V30 1610 C 157 -2.75655 5.02794 0
M  V30 1611 N 156.496 -3.20225 6.14352 0
M  V30 1612 N 158.289 -2.75138 4.90159 0
M  V30 1613 H 150.44 -0.0435285 2.12355 0
M  V30 1614 H 152.703 -0.0818951 0.944456 0
M  V30 1615 H 152.409 -0.888832 3.40283 0
M  V30 1616 H 152.283 -2.53084 2.79693 0
M  V30 1617 H 154.67 -2.31617 1.8286 0
M  V30 1618 H 154.751 -0.668717 2.46904 0
M  V30 1619 H 154.395 -1.59043 4.82357 0
M  V30 1620 H 154.325 -3.23904 4.15203 0
M  V30 1621 H 156.816 -1.99291 3.21079 0
M  V30 1622 H 157.129 -3.53084 6.87424 0
M  V30 1623 H 155.474 -3.18156 6.17901 0
M  V30 1624 H 158.665 -2.39661 4.02095 0
M  V30 1625 H 158.838 -3.09812 5.6914 0
M  V30 1626 N 152.244 -1.26651 -0.937939 0
M  V30 1627 C 153.472 -1.15173 -1.7188 0
M  V30 1628 C 153.887 0.292668 -1.86518 0
M  V30 1629 O 153.244 1.20014 -1.37488 0
M  V30 1630 C 153.295 -1.81925 -3.12387 0
M  V30 1631 O 153.016 -3.2072 -2.98446 0
M  V30 1632 C 154.517 -1.76442 -4.06673 0
M  V30 1633 H 151.737 -0.400911 -0.538063 0
M  V30 1634 H 154.281 -1.67332 -1.1756 0
M  V30 1635 H 152.436 -1.33696 -3.63599 0
M  V30 1636 H 152.85 -3.53802 -3.872 0
M  V30 1637 H 154.324 -2.27781 -5.02812 0
M  V30 1638 H 154.801 -0.731608 -4.33064 0
M  V30 1639 H 155.407 -2.24238 -3.61382 0
M  V30 1640 N 153.722 1.14298 -1.08507 0
M  V30 1641 C 154.971 1.84708 -0.810305 0
M  V30 1642 C 155.284 1.83903 0.666271 0
M  V30 1643 O 156.49 2.50112 1.05624 0
M  V30 1644 C 154.946 3.31572 -1.39957 0
M  V30 1645 C 154.554 3.40791 -2.90801 0
M  V30 1646 C 156.298 4.07087 -1.20334 0
M  V30 1647 C 154.205 4.81872 -3.4286 0
M  V30 1648 H 153.135 0.691985 -0.299454 0
M  V30 1649 H 155.786 1.28841 -1.30661 0
M  V30 1650 H 154.168 3.87183 -0.830976 0
M  V30 1651 H 155.342 2.95225 -3.53806 0
M  V30 1652 H 153.657 2.78732 -3.0935 0
M  V30 1653 H 156.254 5.11225 -1.56693 0
M  V30 1654 H 156.597 4.16054 -0.143237 0
M  V30 1655 H 157.13 3.57779 -1.73893 0
M  V30 1656 H 153.869 4.78094 -4.48449 0
M  V30 1657 H 153.389 5.27972 -2.84615 0
M  V30 1658 H 155.068 5.50765 -3.39509 0
M  V30 1659 N 155.201 0.870884 1.31352 0
M  V30 1660 C 156.133 0.28455 2.27427 0
M  V30 1661 C 157.146 -0.552927 1.53123 0
M  V30 1662 O 158.335 -0.374771 1.74521 0
M  V30 1663 C 155.435 -0.615164 3.3327 0
M  V30 1664 C 154.608 0.190079 4.36987 0
M  V30 1665 C 153.667 -0.637917 5.22319 0
M  V30 1666 O 152.693 -0.065626 5.69162 0
M  V30 1667 N 153.895 -1.94973 5.46778 0
M  V30 1668 H 156.66 1.11017 2.7838 0
M  V30 1669 H 154.221 0.732458 1.44384 0
M  V30 1670 H 156.213 -1.1748 3.87273 0
M  V30 1671 H 154.783 -1.34146 2.82354 0
M  V30 1672 H 154.003 0.931165 3.83044 0
M  V30 1673 H 155.291 0.742579 5.03352 0
M  V30 1674 H 154.689 -2.4378 5.10478 0
M  V30 1675 H 153.246 -2.45713 6.03712 0
M  V30 1676 N 156.679 -1.44442 0.630414 0
M  V30 1677 C 157.627 -2.32437 -0.0871428 0
M  V30 1678 C 158.621 -1.47304 -0.836525 0
M  V30 1679 O 159.827 -1.63653 -0.749506 0
M  V30 1680 H 156.202 -0.750533 -0.0469495 0
M  V30 1681 H 158.173 -2.90709 0.673096 0
M  V30 1682 C 156.922 -3.31288 -1.05563 0
M  V30 1683 H 156.245 -3.96805 -0.488426 0
M  V30 1684 H 157.685 -3.9554 -1.52721 0
M  V30 1685 C 156.144 -2.6016 -2.14052 0
M  V30 1686 O 156.674 -2.39997 -3.22124 0
M  V30 1687 N 154.88 -2.19911 -1.89967 0
M  V30 1688 H 154.427 -2.36509 -1.02085 0
M  V30 1689 H 154.385 -1.72646 -2.62756 0
M  V30 1690 N 158.157 -0.370918 -1.53173 0
M  V30 1691 C 159.434 0.273754 -1.93675 0
M  V30 1692 C 159.814 1.65938 -1.3049 0
M  V30 1693 O 159.162 2.23698 -0.465999 0
M  V30 1694 C 159.372 0.318602 -3.47543 0
M  V30 1695 C 160.72 0.556392 -4.20939 0
M  V30 1696 O 161.744 0.399587 -3.53952 0
M  V30 1697 O 160.603 0.862133 -5.39657 0
M  V30 1698 H 157.697 0.165448 -0.810281 0
M  V30 1699 H 160.243 -0.42409 -1.64315 0
M  V30 1700 H 159.015 -0.652687 -3.85818 0
M  V30 1701 H 158.638 1.06212 -3.83151 0
M  V30 1702 N 159.635 1.57281 -0.100228 0
M  V30 1703 C 160.884 1.93713 0.561984 0
M  V30 1704 C 161.197 0.984492 1.69018 0
M  V30 1705 O 162.403 1.24273 2.41389 0
M  V30 1706 C 160.859 3.4421 1.05106 0
M  V30 1707 C 160.467 4.47975 -0.0476628 0
M  V30 1708 C 162.211 3.89595 1.68571 0
M  V30 1709 C 160.118 5.89631 0.457055 0
M  V30 1710 H 159.048 0.723082 0.2137 0
M  V30 1711 H 161.699 1.82644 -0.177057 0
M  V30 1712 H 160.081 3.50449 1.84395 0
M  V30 1713 H 161.255 4.53385 -0.823333 0
M  V30 1714 H 159.57 4.1223 -0.587816 0
M  V30 1715 H 162.167 4.92832 2.07414 0
M  V30 1716 H 162.51 3.28526 2.55688 0
M  V30 1717 H 163.043 3.86078 0.958562 0
M  V30 1718 H 159.782 6.54411 -0.377616 0
M  V30 1719 H 159.302 5.87681 1.19962 0
M  V30 1720 H 160.981 6.40363 0.92437 0
M  V30 1721 N 161.113 -0.173488 1.56642 0
M  V30 1722 C 162.046 -1.24353 1.91342 0
M  V30 1723 C 163.024 -1.4289 0.775965 0
M  V30 1724 O 164.208 -1.57932 1.02907 0
M  V30 1725 C 161.335 -2.60683 2.16245 0
M  V30 1726 C 160.381 -2.58894 3.38934 0
M  V30 1727 S 161.214 -2.0819 4.93373 0
M  V30 1728 C 162.37 -3.46302 5.21369 0
M  V30 1729 H 162.603 -0.947345 2.81803 0
M  V30 1730 H 160.136 -0.377958 1.49703 0
M  V30 1731 H 162.094 -3.39149 2.31275 0
M  V30 1732 H 160.755 -2.87502 1.26496 0
M  V30 1733 H 159.948 -3.59188 3.53553 0
M  V30 1734 H 159.55 -1.88522 3.2301 0
M  V30 1735 H 161.842 -4.42287 5.13214 0
M  V30 1736 H 162.785 -3.3656 6.23003 0
M  V30 1737 H 163.193 -3.42214 4.48943 0
M  V30 1738 N 162.591 -1.51276 -0.441967 0
M  V30 1739 C 163.521 -1.752 -1.54361 0
M  V30 1740 C 164.502 -0.601682 -1.59103 0
M  V30 1741 O 165.687 -0.843913 -1.74905 0
M  V30 1742 C 162.817 -1.87282 -2.92477 0
M  V30 1743 C 161.771 -3.02687 -3.02596 0
M  V30 1744 C 161.097 -2.99947 -4.42647 0
M  V30 1745 C 162.397 -4.4273 -2.77106 0
M  V30 1746 H 164.091 -2.67442 -1.34592 0
M  V30 1747 H 161.637 -1.28694 -0.646048 0
M  V30 1748 H 163.59 -2.02602 -3.695 0
M  V30 1749 H 162.314 -0.916844 -3.13467 0
M  V30 1750 H 160.973 -2.87065 -2.28012 0
M  V30 1751 H 160.621 -2.02136 -4.60597 0
M  V30 1752 H 160.321 -3.77439 -4.50348 0
M  V30 1753 H 161.845 -3.17354 -5.2165 0
M  V30 1754 H 163.259 -4.58727 -3.43864 0
M  V30 1755 H 161.656 -5.21893 -2.96222 0
M  V30 1756 H 162.726 -4.53087 -1.72744 0
M  V30 1757 N 164.069 0.697108 -1.41344 0
M  V30 1758 C 164.999 1.82353 -1.45841 0
M  V30 1759 C 165.98 1.67115 -0.317247 0
M  V30 1760 O 167.165 1.86871 -0.528474 0
M  V30 1761 C 164.295 3.20476 -1.33838 0
M  V30 1762 C 163.249 3.50415 -2.4575 0
M  V30 1763 C 162.575 4.87878 -2.18813 0
M  V30 1764 C 163.875 3.49546 -3.88091 0
M  V30 1765 H 165.569 1.78846 -2.40113 0
M  V30 1766 H 163.115 0.859028 -1.15571 0
M  V30 1767 H 165.068 3.98988 -1.35596 0
M  V30 1768 H 163.792 3.24604 -0.360498 0
M  V30 1769 H 162.451 2.74253 -2.43271 0
M  V30 1770 H 162.099 4.8863 -1.19371 0
M  V30 1771 H 161.799 5.08875 -2.93803 0
M  V30 1772 H 163.323 5.68702 -2.22284 0
M  V30 1773 H 164.737 4.18066 -3.92293 0
M  V30 1774 H 163.134 3.82075 -4.62751 0
M  V30 1775 H 164.204 2.48552 -4.16353 0
M  V30 1776 N 165.547 1.27147 0.931209 0
M  V30 1777 C 166.479 1.05364 2.03546 0
M  V30 1778 C 167.492 0.0108438 1.62796 0
M  V30 1779 O 168.681 0.25202 1.76712 0
M  V30 1780 C 165.781 0.575566 3.33977 0
M  V30 1781 C 164.954 1.68985 4.03439 0
M  V30 1782 C 164.013 1.20813 5.12143 0
M  V30 1783 O 163.039 1.90712 5.363 0
M  V30 1784 N 164.241 0.0618851 5.80467 0
M  V30 1785 H 167.006 2.00454 2.22796 0
M  V30 1786 H 164.567 1.18666 1.10136 0
M  V30 1787 H 166.559 0.237264 4.04004 0
M  V30 1788 H 165.129 -0.282016 3.11325 0
M  V30 1789 H 164.349 2.19861 3.27192 0
M  V30 1790 H 165.637 2.4378 4.46597 0
M  V30 1791 H 165.035 -0.521621 5.6329 0
M  V30 1792 H 163.592 -0.217264 6.51438 0
M  V30 1793 N 167.025 -1.13721 1.09112 0
M  V30 1794 C 167.955 -2.21148 0.749385 0
M  V30 1795 C 168.936 -1.6792 -0.271475 0
M  V30 1796 O 170.121 -1.93693 -0.140251 0
M  V30 1797 C 167.251 -3.46905 0.165659 0
M  V30 1798 C 166.205 -4.13203 1.11567 0
M  V30 1799 C 165.531 -5.33248 0.393809 0
M  V30 1800 C 166.831 -4.60912 2.45678 0
M  V30 1801 H 168.525 -2.4999 1.64758 0
M  V30 1802 H 166.071 -1.20156 0.793626 0
M  V30 1803 H 168.024 -4.21313 -0.085466 0
M  V30 1804 H 166.748 -3.17449 -0.767714 0
M  V30 1805 H 165.407 -3.40758 1.35202 0
M  V30 1806 H 165.055 -5.00054 -0.543599 0
M  V30 1807 H 164.755 -5.78552 1.02721 0
M  V30 1808 H 166.279 -6.10413 0.150908 0
M  V30 1809 H 167.693 -5.26759 2.26269 0
M  V30 1810 H 166.09 -5.16944 3.04776 0
M  V30 1811 H 167.16 -3.75603 3.06677 0
M  V30 1812 N 168.503 -0.877838 -1.30888 0
M  V30 1813 C 169.728 -0.506629 -2.01117 0
M  V30 1814 C 170.153 0.895564 -1.65412 0
M  V30 1815 O 169.511 1.5923 -0.866922 0
M  V30 1816 C 169.559 -0.680223 -3.54126 0
M  V30 1817 O 168.663 0.277033 -4.11468 0
M  V30 1818 H 168.004 -0.200518 -0.633 0
M  V30 1819 H 170.534 -1.18342 -1.66902 0
M  V30 1820 H 170.544 -0.5765 -4.03907 0
M  V30 1821 H 169.219 -1.70261 -3.79452 0
M  V30 1822 H 167.796 0.127606 -3.72682 0
M  V30 1823 N 169.982 1.44106 -0.638065 0
M  V30 1824 C 171.398 1.56672 -0.304286 0
M  V30 1825 C 171.598 1.6244 1.19228 0
M  V30 1826 O 170.654 1.57121 1.9766 0
M  V30 1827 C 171.967 2.83503 -1.00231 0
M  V30 1828 C 173.515 2.97226 -0.981116 0
M  V30 1829 C 173.99 4.26868 -1.65974 0
M  V30 1830 N 175.481 4.33698 -1.62666 0
M  V30 1831 C 176.216 5.32745 -2.12063 0
M  V30 1832 N 175.712 6.38157 -2.6968 0
M  V30 1833 N 177.505 5.24299 -2.02651 0
M  V30 1834 H 169.656 1.38605 -1.60942 0
M  V30 1835 H 171.919 0.664661 -0.675965 0
M  V30 1836 H 171.625 2.85251 -2.0573 0
M  V30 1837 H 171.499 3.73251 -0.54439 0
M  V30 1838 H 173.886 2.95027 0.0654188 0
M  V30 1839 H 173.967 2.08808 -1.47759 0
M  V30 1840 H 173.611 4.29826 -2.70576 0
M  V30 1841 H 173.541 5.14156 -1.13804 0
M  V30 1842 H 176.032 3.58138 -1.20606 0
M  V30 1843 H 176.345 7.10029 -3.05087 0
M  V30 1844 H 174.69 6.38823 -2.73734 0
M  V30 1845 H 177.881 4.4086 -1.57353 0
M  V30 1846 H 178.054 6.01334 -2.41457 0
M  V30 1847 N 171.46 0.379036 1.52974 0
M  V30 1848 C 172.876 0.0285448 1.59574 0
M  V30 1849 C 173.076 -1.45542 1.39355 0
M  V30 1850 O 172.132 -2.2187 1.20541 0
M  V30 1851 C 173.445 0.496535 2.96572 0
M  V30 1852 C 174.993 0.451909 3.0972 0
M  V30 1853 C 175.468 0.895924 4.49152 0
M  V30 1854 N 176.959 0.851522 4.55306 0
M  V30 1855 C 177.694 1.16661 5.61407 0
M  V30 1856 N 177.19 1.55166 6.752 0
M  V30 1857 N 178.983 1.08853 5.51459 0
M  V30 1858 H 171.134 1.34525 1.64367 0
M  V30 1859 H 173.397 0.550733 0.771619 0
M  V30 1860 H 173.103 1.53258 3.16552 0
M  V30 1861 H 172.977 -0.109802 3.7704 0
M  V30 1862 H 175.364 -0.575029 2.89443 0
M  V30 1863 H 175.445 1.09392 2.3123 0
M  V30 1864 H 175.089 1.92104 4.70168 0
M  V30 1865 H 175.019 0.23103 5.26093 0
M  V30 1866 H 177.51 0.568038 3.73606 0
M  V30 1867 H 177.823 1.776 7.52116 0
M  V30 1868 H 176.168 1.59044 6.76557 0
M  V30 1869 H 179.359 0.786803 4.6144 0
M  V30 1870 H 179.532 1.33742 6.34048 0
M  V30 1871 N 172.938 -1.57226 0.108567 0
M  V30 1872 C 174.184 -1.95121 -0.552761 0
M  V30 1873 C 174.517 -0.991345 -1.66991 0
M  V30 1874 O 173.792 -0.0267211 -1.94482 0
M  V30 1875 C 174.075 -3.43039 -1.09528 0
M  V30 1876 C 173.928 -4.49797 0.0177332 0
M  V30 1877 C 175.247 -3.92567 -1.98945 0
M  V30 1878 H 172.366 -0.709496 -0.199461 0
M  V30 1879 H 175.008 -1.89126 0.182011 0
M  V30 1880 H 173.158 -3.48279 -1.72146 0
M  V30 1881 H 174.83 -4.56661 0.652584 0
M  V30 1882 H 173.073 -4.284 0.682309 0
M  V30 1883 H 173.744 -5.50528 -0.402919 0
M  V30 1884 H 176.22 -3.89565 -1.46214 0
M  V30 1885 H 175.096 -4.96605 -2.33827 0
M  V30 1886 H 175.357 -3.32648 -2.91201 0
M  V30 1887 N 174.416 0.165178 -1.56732 0
M  V30 1888 C 175.832 0.517174 -1.50988 0
M  V30 1889 C 176.032 1.84331 -0.813894 0
M  V30 1890 O 175.088 2.49672 -0.37682 0
M  V30 1891 C 176.401 0.544261 -2.95733 0
M  V30 1892 C 177.949 0.631039 -3.06573 0
M  V30 1893 C 178.424 0.68896 -4.52788 0
M  V30 1894 N 179.915 0.751683 -4.5706 0
M  V30 1895 C 180.65 0.817177 -5.67547 0
M  V30 1896 N 180.146 0.843129 -6.8765 0
M  V30 1897 N 181.939 0.856668 -5.55534 0
M  V30 1898 H 174.09 -0.704318 -2.00382 0
M  V30 1899 H 176.353 -0.254687 -0.913148 0
M  V30 1900 H 176.059 -0.361607 -3.49836 0
M  V30 1901 H 175.933 1.3886 -3.5071 0
M  V30 1902 H 178.32 1.52733 -2.52501 0
M  V30 1903 H 178.401 -0.240095 -2.54671 0
M  V30 1904 H 178.045 -0.2031 -5.07494 0
M  V30 1905 H 177.975 1.57633 -5.02454 0
M  V30 1906 H 180.466 0.739661 -3.70591 0
M  V30 1907 H 180.779 0.894448 -7.67606 0
M  V30 1908 H 179.124 0.811304 -6.90248 0
M  V30 1909 H 182.315 0.833437 -4.60621 0
M  V30 1910 H 182.488 0.904247 -6.4166 0
M  V30 1911 N 175.894 1.51508 0.433938 0
M  V30 1912 C 177.31 1.39759 0.770682 0
M  V30 1913 C 177.51 0.482594 1.95636 0
M  V30 1914 O 176.566 -0.0609691 2.52426 0
M  V30 1915 C 177.879 2.81851 1.04787 0
M  V30 1916 C 179.427 2.91025 1.1521 0
M  V30 1917 C 179.902 4.34032 1.46219 0
M  V30 1918 N 181.393 4.37154 1.53136 0
M  V30 1919 C 182.128 5.4484 1.78709 0
M  V30 1920 N 181.624 6.62682 2.02051 0
M  V30 1921 N 183.417 5.32324 1.80519 0
M  V30 1922 H 175.568 2.09548 -0.346892 0
M  V30 1923 H 177.831 0.943446 -0.0928074 0
M  V30 1924 H 177.537 3.50815 0.249304 0
M  V30 1925 H 177.411 3.21386 1.97461 0
M  V30 1926 H 179.798 2.22257 1.94128 0
M  V30 1927 H 179.879 2.54983 0.204281 0
M  V30 1928 H 179.523 5.03351 0.678274 0
M  V30 1929 H 179.453 4.6759 2.42212 0
M  V30 1930 H 181.944 3.52197 1.36987 0
M  V30 1931 H 182.257 7.40543 2.20943 0
M  V30 1932 H 180.602 6.65791 1.99366 0
M  V30 1933 H 183.793 4.39246 1.61805 0
M  V30 1934 H 183.966 6.16328 2.00111 0
M  V30 1935 N 177.372 -0.689602 1.41712 0
M  V30 1936 C 178.32 -1.82475 1.44242 0
M  V30 1937 C 179.314 -1.66354 0.319774 0
M  V30 1938 O 180.52 -1.73143 0.492089 0
M  V30 1939 H 176.895 -0.601416 0.451445 0
M  V30 1940 H 178.866 -1.77458 2.39899 0
M  V30 1941 C 177.615 -3.20535 1.3473 0
M  V30 1942 H 176.938 -3.33559 2.20405 0
M  V30 1943 H 178.378 -4.00023 1.40562 0
M  V30 1944 C 176.837 -3.36846 0.0603281 0
M  V30 1945 O 177.367 -3.91656 -0.892663 0
M  V30 1946 N 175.573 -2.90595 -0.0177039 0
M  V30 1947 H 175.12 -2.46178 0.758572 0
M  V30 1948 H 175.078 -3.01886 -0.878201 0
M  V30 1949 N 178.85 -1.27639 -0.924453 0
M  V30 1950 C 180.266 -1.05113 -1.20097 0
M  V30 1951 C 180.466 0.213262 -2.00368 0
M  V30 1952 O 179.522 0.91787 -2.35226 0
M  V30 1953 C 180.835 -2.29244 -1.94596 0
M  V30 1954 C 182.383 -2.34315 -2.07522 0
M  V30 1955 C 182.858 -3.58183 -2.85427 0
M  V30 1956 N 184.349 -3.5876 -2.92994 0
M  V30 1957 C 185.084 -4.51277 -3.53746 0
M  V30 1958 N 184.58 -5.54102 -4.15863 0
M  V30 1959 N 186.373 -4.38894 -3.51181 0
M  V30 1960 H 178.524 -2.08821 -0.388264 0
M  V30 1961 H 180.787 -0.918568 -0.234385 0
M  V30 1962 H 180.493 -3.21301 -1.43034 0
M  V30 1963 H 180.367 -2.34816 -2.95197 0
M  V30 1964 H 182.754 -1.42762 -2.58269 0
M  V30 1965 H 182.835 -2.32744 -1.06131 0
M  V30 1966 H 182.479 -4.50074 -2.35363 0
M  V30 1967 H 182.409 -3.57006 -3.8711 0
M  V30 1968 H 184.9 -2.84398 -2.4885 0
M  V30 1969 H 185.213 -6.20859 -4.60168 0
M  V30 1970 H 183.558 -5.57941 -4.144 0
M  V30 1971 H 186.749 -3.57772 -3.01856 0
M  V30 1972 H 186.922 -5.11186 -3.98237 0
M  V30 1973 N 180.328 1.1314 -1.09713 0
M  V30 1974 C 181.276 2.20717 -0.733934 0
M  V30 1975 C 182.27 1.6729 0.266506 0
M  V30 1976 O 183.476 1.79547 0.127656 0
M  V30 1977 H 179.851 0.719292 -0.21937 0
M  V30 1978 H 181.822 2.48611 -1.6503 0
M  V30 1979 C 180.571 3.47265 -0.173849 0
M  V30 1980 H 179.894 3.88716 -0.934873 0
M  V30 1981 H 181.334 4.23979 0.0423126 0
M  V30 1982 C 179.793 3.18724 1.09164 0
M  V30 1983 O 180.323 3.37762 2.17439 0
M  V30 1984 N 178.529 2.72583 1.00732 0
M  V30 1985 H 178.076 2.57291 0.126121 0
M  V30 1986 H 178.034 2.53862 1.85476 0
M  V30 1987 N 181.806 0.884767 1.30421 0
M  V30 1988 C 183.052 0.503851 1.96441 0
M  V30 1989 C 183.385 -0.944518 1.69684 0
M  V30 1990 O 182.66 -1.66737 1.00145 0
M  V30 1991 C 182.943 0.779085 3.51571 0
M  V30 1992 C 182.796 2.27807 3.87846 0
M  V30 1993 C 184.115 0.255452 4.39358 0
M  V30 1994 H 181.234 0.184533 0.713524 0
M  V30 1995 H 183.876 1.10872 1.54297 0
M  V30 1996 H 182.026 0.264274 3.876 0
M  V30 1997 H 183.698 2.86127 3.61841 0
M  V30 1998 H 181.941 2.74479 3.35922 0
M  V30 1999 H 182.612 2.42125 4.96064 0
M  V30 2000 H 185.088 0.696079 4.10236 0
M  V30 2001 H 183.964 0.477361 5.4682 0
M  V30 2002 H 184.225 -0.843293 4.33983 0
M  V30 2003 N 183.284 -1.43765 0.645699 0
M  V30 2004 C 184.232 -2.32516 -0.0624849 0
M  V30 2005 C 185.226 -1.48183 -0.820855 0
M  V30 2006 O 186.432 -1.64439 -0.732106 0
M  V30 2007 H 182.807 -0.750989 -0.0389864 0
M  V30 2008 H 184.778 -2.89979 0.703892 0
M  V30 2009 C 183.527 -3.32389 -1.02044 0
M  V30 2010 H 182.85 -3.97301 -0.446312 0
M  V30 2011 H 184.29 -3.97138 -1.48517 0
M  V30 2012 C 182.749 -2.62416 -2.11281 0
M  V30 2013 O 183.279 -2.434 -3.19561 0
M  V30 2014 N 181.485 -2.21913 -1.87624 0
M  V30 2015 H 181.032 -2.37578 -0.995703 0
M  V30 2016 H 180.99 -1.75424 -2.6091 0
M  V30 2017 N 184.763 -0.387143 -1.52771 0
M  V30 2018 C 186.174 0.0873634 -1.86495 0
M  V30 2019 C 186.525 1.46336 -1.30691 0
M  V30 2020 O 185.65 2.068 -0.637409 0
M  V30 2021 C 186.245 0.165305 -3.38396 0
M  V30 2022 C 184.804 0.584101 -3.7184 0
M  V30 2023 C 183.951 -0.255279 -2.76122 0
M  V30 2024 H 186.902 -0.605104 -1.46711 0
M  V30 2025 H 186.923 0.984848 -3.67534 0
M  V30 2026 H 186.435 -0.836301 -3.78982 0
M  V30 2027 H 184.536 1.59315 -3.36823 0
M  V30 2028 H 184.649 0.343749 -4.77865 0
M  V30 2029 H 183.013 0.279126 -2.53166 0
M  V30 2030 H 183.796 -1.25482 -3.19545 0
M  V30 2031 N 186.241 1.57166 -0.116904 0
M  V30 2032 C 187.487 1.95412 0.542405 0
M  V30 2033 C 187.82 1.00019 1.66463 0
M  V30 2034 O 187.095 0.0370346 1.94465 0
M  V30 2035 C 187.378 3.43615 1.07708 0
M  V30 2036 C 187.231 4.49781 -0.0415868 0
M  V30 2037 C 188.55 3.93616 1.96861 0
M  V30 2038 H 185.669 0.710543 0.195696 0
M  V30 2039 H 188.311 1.89027 -0.192038 0
M  V30 2040 H 186.461 3.49187 1.70296 0
M  V30 2041 H 188.133 4.56308 -0.676793 0
M  V30 2042 H 186.376 4.28033 -0.705019 0
M  V30 2043 H 187.047 5.50733 0.373717 0
M  V30 2044 H 189.523 3.90335 1.44146 0
M  V30 2045 H 188.399 4.97838 2.3119 0
M  V30 2046 H 188.66 3.34188 2.89432 0
M  V30 2047 N 187.719 -0.156864 1.56817 0
M  V30 2048 C 188.682 -1.17781 1.96622 0
M  V30 2049 C 189.682 -1.36401 0.851555 0
M  V30 2050 O 190.872 -1.33561 1.11836 0
M  V30 2051 C 188.004 -2.54008 2.27361 0
M  V30 2052 H 189.197 -0.836564 2.87996 0
M  V30 2053 H 186.75 -0.39985 1.51099 0
M  V30 2054 H 187.485 -2.9312 1.38748 0
M  V30 2055 H 187.27 -2.41856 3.08623 0
M  V30 2056 H 188.76 -3.27558 2.59029 0
M  V30 2057 N 189.197 -1.51736 -0.425897 0
M  V30 2058 C 190.127 -1.76827 -1.52494 0
M  V30 2059 C 191.108 -0.618524 -1.58456 0
M  V30 2060 O 192.293 -0.862416 -1.74 0
M  V30 2061 C 189.423 -1.90374 -2.90474 0
M  V30 2062 C 188.377 -3.0588 -2.99369 0
M  V30 2063 C 187.703 -3.04625 -4.3944 0
M  V30 2064 C 189.003 -4.45644 -2.72394 0
M  V30 2065 H 190.697 -2.68855 -1.31748 0
M  V30 2066 H 188.243 -1.29372 -0.632362 0
M  V30 2067 H 190.196 -2.0651 -3.6733 0
M  V30 2068 H 188.92 -0.95004 -3.12477 0
M  V30 2069 H 187.579 -2.89467 -2.24954 0
M  V30 2070 H 187.227 -2.0701 -4.58428 0
M  V30 2071 H 186.927 -3.82195 -4.46319 0
M  V30 2072 H 188.451 -3.22869 -5.18255 0
M  V30 2073 H 189.865 -4.62348 -3.38979 0
M  V30 2074 H 188.262 -5.25006 -2.9067 0
M  V30 2075 H 189.332 -4.54893 -1.67929 0
M  V30 2076 N 190.675 0.682077 -1.42076 0
M  V30 2077 C 192.086 1.26246 -1.37546 0
M  V30 2078 C 192.437 1.96092 -0.0651481 0
M  V30 2079 O 191.562 1.99587 0.836297 0
M  V30 2080 C 192.157 2.29594 -2.49143 0
M  V30 2081 C 190.716 2.83175 -2.47969 0
M  V30 2082 C 189.863 1.57395 -2.28303 0
M  V30 2083 H 192.814 0.475937 -1.51395 0
M  V30 2084 H 192.835 3.11175 -2.18976 0
M  V30 2085 H 192.347 1.78729 -3.44496 0
M  V30 2086 H 190.448 3.3818 -1.56413 0
M  V30 2087 H 190.561 3.32687 -3.44755 0
M  V30 2088 H 188.925 1.83699 -1.76428 0
M  V30 2089 H 189.708 1.08507 -3.25701 0
M  V30 2090 N 192.153 1.28127 0.917671 0
M  V30 2091 C 193.569 1.05749 1.19538 0
M  V30 2092 C 193.769 -0.202633 2.00479 0
M  V30 2093 O 192.825 -0.905382 2.3571 0
M  V30 2094 C 194.138 2.30273 1.93378 0
M  V30 2095 C 195.686 2.35412 2.06277 0
M  V30 2096 C 196.161 3.59692 2.83524 0
M  V30 2097 N 197.652 3.60309 2.91087 0
M  V30 2098 C 198.387 4.53147 3.51348 0
M  V30 2099 N 197.883 5.563 4.12919 0
M  V30 2100 N 199.676 4.40751 3.48849 0
M  V30 2101 H 191.827 2.09024 0.377184 0
M  V30 2102 H 194.09 0.919798 0.22951 0
M  V30 2103 H 193.796 3.22055 1.41328 0
M  V30 2104 H 193.67 2.36378 2.93947 0
M  V30 2105 H 196.057 1.4413 2.57508 0
M  V30 2106 H 196.138 2.33304 1.04895 0
M  V30 2107 H 195.782 4.51316 2.32973 0
M  V30 2108 H 195.712 3.59054 3.85211 0
M  V30 2109 H 198.203 2.85714 2.47338 0
M  V30 2110 H 198.516 6.2329 4.56869 0
M  V30 2111 H 196.861 5.60131 4.11435 0
M  V30 2112 H 200.052 3.59367 2.99955 0
M  V30 2113 H 200.225 5.13291 3.9552 0
M  V30 2114 N 193.631 -1.12557 1.10312 0
M  V30 2115 C 194.594 -2.16434 0.75424 0
M  V30 2116 C 195.594 -1.59278 -0.220685 0
M  V30 2117 O 196.784 -1.742 0.00230591 0
M  V30 2118 C 193.916 -3.40699 0.116987 0
M  V30 2119 H 195.109 -2.48811 1.67431 0
M  V30 2120 H 192.662 -1.27542 0.903475 0
M  V30 2121 H 193.397 -3.13921 -0.813877 0
M  V30 2122 H 193.182 -3.83459 0.818613 0
M  V30 2123 H 194.672 -4.17451 -0.111387 0
M  V30 2124 N 195.109 -0.891671 -1.2995 0
M  V30 2125 C 196.041 -0.320695 -2.26945 0
M  V30 2126 C 197.054 0.528497 -1.53983 0
M  V30 2127 O 198.243 0.346959 -1.75096 0
M  V30 2128 C 195.343 0.562066 -3.34207 0
M  V30 2129 C 194.516 -0.259576 -4.36629 0
M  V30 2130 C 193.575 0.554739 -5.23268 0
M  V30 2131 O 192.601 -0.0249311 -5.69195 0
M  V30 2132 N 193.803 1.8625 -5.4981 0
M  V30 2133 H 196.568 -1.15432 -2.76578 0
M  V30 2134 H 194.129 -0.755336 -1.432 0
M  V30 2135 H 196.121 1.11304 -3.89093 0
M  V30 2136 H 194.691 1.29637 -2.84452 0
M  V30 2137 H 193.911 -0.991986 -3.81514 0
M  V30 2138 H 195.199 -0.822564 -5.02107 0
M  V30 2139 H 194.597 2.35628 -5.14292 0
M  V30 2140 H 193.154 2.36078 -6.07545 0
M  V30 2141 N 196.587 1.43421 -0.653314 0
M  V30 2142 C 197.497 2.34568 0.0388565 0
M  V30 2143 C 198.513 1.53888 0.81207 0
M  V30 2144 O 199.689 1.86539 0.759294 0
M  V30 2145 C 196.754 3.32167 0.993269 0
M  V30 2146 C 195.815 4.28751 0.216977 0
M  V30 2147 C 195.048 5.21688 1.12593 0
M  V30 2148 O 195.271 5.19052 2.36519 0
M  V30 2149 O 194.205 5.98919 0.598284 0
M  V30 2150 H 198.031 2.95251 -0.711386 0
M  V30 2151 H 195.616 1.43564 -0.413502 0
M  V30 2152 H 197.498 3.92183 1.54176 0
M  V30 2153 H 196.173 2.73987 1.72374 0
M  V30 2154 H 195.08 3.72215 -0.375101 0
M  V30 2155 H 196.413 4.89913 -0.473924 0
M  V30 2156 N 198.065 0.39524 1.52563 0
M  V30 2157 C 199.313 -0.184678 2.01254 0
M  V30 2158 C 199.634 -1.46822 1.28329 0
M  V30 2159 O 198.904 -1.91666 0.405094 0
M  V30 2160 H 197.484 -0.0712355 0.743596 0
M  V30 2161 H 200.146 0.528293 1.87603 0
M  V30 2162 H 199.242 -0.390681 3.09645 0
M  V30 2163 N 199.544 -1.57102 0.125237 0
M  V30 2164 C 200.474 -2.18659 -0.819174 0
M  V30 2165 C 201.455 -1.12843 -1.27281 0
M  V30 2166 O 202.64 -1.41104 -1.33429 0
M  V30 2167 C 199.77 -2.79096 -2.06695 0
M  V30 2168 C 198.724 -3.90548 -1.75088 0
M  V30 2169 C 198.05 -4.37821 -3.06948 0
M  V30 2170 C 199.35 -5.12356 -1.01435 0
M  V30 2171 H 201.044 -2.9783 -0.306202 0
M  V30 2172 H 198.59 -1.4326 -0.145839 0
M  V30 2173 H 200.543 -3.2082 -2.73226 0
M  V30 2174 H 199.267 -1.97223 -2.60328 0
M  V30 2175 H 197.926 -3.49409 -1.10944 0
M  V30 2176 H 197.574 -3.52799 -3.58527 0
M  V30 2177 H 197.274 -5.12982 -2.86571 0
M  V30 2178 H 198.798 -4.822 -3.74587 0
M  V30 2179 H 200.212 -5.5106 -1.58132 0
M  V30 2180 H 198.609 -5.9314 -0.911319 0
M  V30 2181 H 199.679 -4.849 -0.00218681 0
M  V30 2182 N 201.022 0.148545 -1.56898 0
M  V30 2183 C 202.438 0.501131 -1.51528 0
M  V30 2184 C 202.638 1.83458 -0.833399 0
M  V30 2185 O 201.694 2.49259 -0.40328 0
M  V30 2186 C 203.007 0.512864 -2.96294 0
M  V30 2187 C 204.555 0.598487 -3.07225 0
M  V30 2188 C 205.03 0.640897 -4.53494 0
M  V30 2189 N 206.521 0.703163 -4.57832 0
M  V30 2190 C 207.256 0.756935 -5.68382 0
M  V30 2191 N 206.752 0.770147 -6.88506 0
M  V30 2192 N 208.545 0.797698 -5.56411 0
M  V30 2193 H 200.696 -0.725532 -1.99624 0
M  V30 2194 H 202.959 -0.264358 -0.910395 0
M  V30 2195 H 202.665 -0.398691 -3.49433 0
M  V30 2196 H 202.539 1.35133 -3.52163 0
M  V30 2197 H 204.926 1.50046 -2.54106 0
M  V30 2198 H 205.007 -0.267093 -2.54402 0
M  V30 2199 H 204.651 -0.256915 -5.0725 0
M  V30 2200 H 204.581 1.52295 -5.04097 0
M  V30 2201 H 207.072 0.700314 -3.71354 0
M  V30 2202 H 207.385 0.812983 -7.68512 0
M  V30 2203 H 205.73 0.738049 -6.9107 0
M  V30 2204 H 208.921 0.784535 -4.61479 0
M  V30 2205 H 209.094 0.83614 -6.42583 0
M  V30 2206 N 202.5 1.5196 0.417844 0
M  V30 2207 C 203.911 1.57851 0.997 0
M  V30 2208 C 204.262 0.413714 1.91789 0
M  V30 2209 O 203.387 -0.467057 2.113 0
M  V30 2210 C 203.982 2.86085 1.81496 0
M  V30 2211 C 202.541 2.94483 2.34428 0
M  V30 2212 C 201.688 2.52707 1.14169 0
M  V30 2213 H 204.639 1.57455 0.198392 0
M  V30 2214 H 204.66 2.70947 2.67148 0
M  V30 2215 H 204.172 3.70842 1.14446 0
M  V30 2216 H 202.273 2.142 3.04875 0
M  V30 2217 H 202.386 3.98546 2.65891 0
M  V30 2218 H 200.75 2.06353 1.49301 0
M  V30 2219 H 201.533 3.39828 0.486999 0
M  V30 2220 N 203.978 -0.674533 1.42435 0
M  V30 2221 C 205.226 -1.43175 1.42637 0
M  V30 2222 C 205.547 -1.94951 0.0438992 0
M  V30 2223 O 204.817 -1.7308 -0.917607 0
M  V30 2224 H 203.397 -0.531307 0.525092 0
M  V30 2225 H 206.059 -0.797006 1.77859 0
M  V30 2226 H 205.155 -2.28463 2.12629 0
M  V30 2227 N 205.456 -1.28612 -0.910864 0
M  V30 2228 C 206.684 -1.18792 -1.69399 0
M  V30 2229 C 207.099 0.253039 -1.87097 0
M  V30 2230 O 206.456 1.17071 -1.40003 0
M  V30 2231 C 206.507 -1.88511 -3.08457 0
M  V30 2232 O 206.228 -3.26979 -2.91576 0
M  V30 2233 C 207.729 -1.85029 -4.02839 0
M  V30 2234 H 204.949 -0.412233 -0.529438 0
M  V30 2235 H 207.493 -1.69788 -1.13984 0
M  V30 2236 H 205.648 -1.41379 -3.60681 0
M  V30 2237 H 206.062 -3.61936 -3.79608 0
M  V30 2238 H 207.536 -2.38395 -4.97867 0
M  V30 2239 H 208.013 -0.823303 -4.31414 0
M  V30 2240 H 208.619 -2.31853 -3.56545 0
M  V30 2241 N 206.934 1.1197 -1.10907 0
M  V30 2242 C 207.864 2.19928 -0.784473 0
M  V30 2243 C 208.845 1.6833 0.244726 0
M  V30 2244 O 210.03 1.93892 0.109418 0
M  V30 2245 C 207.16 3.46597 -0.220827 0
M  V30 2246 C 206.114 4.11376 -1.18127 0
M  V30 2247 C 205.44 5.32554 -0.478594 0
M  V30 2248 C 206.74 4.56945 -2.52979 0
M  V30 2249 H 208.434 2.47337 -1.68715 0
M  V30 2250 H 205.98 1.18879 -0.812642 0
M  V30 2251 H 207.933 4.21396 0.0184278 0
M  V30 2252 H 206.657 3.1863 0.717113 0
M  V30 2253 H 205.316 3.38564 -1.40606 0
M  V30 2254 H 204.964 5.00856 0.463976 0
M  V30 2255 H 204.664 5.76844 -1.11912 0
M  V30 2256 H 206.188 6.10096 -0.248 0
M  V30 2257 H 207.602 5.23093 -2.3462 0
M  V30 2258 H 205.999 5.1203 -3.12962 0
M  V30 2259 H 207.069 3.70676 -3.12614 0
M  V30 2260 N 208.412 0.89855 1.29475 0
M  V30 2261 C 209.652 0.530771 1.97388 0
M  V30 2262 C 210.016 -0.905832 1.69289 0
M  V30 2263 O 211.217 -1.38042 2.30646 0
M  V30 2264 C 209.488 0.81369 3.48014 0
M  V30 2265 S 211.047 0.550048 4.35339 0
M  V30 2266 H 207.865 0.196956 0.683176 0
M  V30 2267 H 210.467 1.16074 1.57312 0
M  V30 2268 H 209.171 1.85749 3.65958 0
M  V30 2269 H 208.702 0.171795 3.93025 0
M  V30 2270 H 210.717 -0.605423 4.92493 0
M  V30 2271 N 209.89 -1.43072 0.660911 0
M  V30 2272 C 211.118 -2.06067 0.185422 0
M  V30 2273 C 211.533 -1.49582 -1.15198 0
M  V30 2274 O 210.89 -0.630134 -1.71276 0
M  V30 2275 C 210.941 -3.61371 0.0966523 0
M  V30 2276 O 210.662 -4.15758 1.38119 0
M  V30 2277 C 212.163 -4.41455 -0.403996 0
M  V30 2278 H 209.383 -0.664459 0.0934604 0
M  V30 2279 H 211.927 -1.83447 0.90373 0
M  V30 2280 H 210.082 -3.8315 -0.572259 0
M  V30 2281 H 210.496 -5.09499 1.24542 0
M  V30 2282 H 211.97 -5.50437 -0.415045 0
M  V30 2283 H 212.447 -4.15036 -1.43674 0
M  V30 2284 H 213.053 -4.24663 0.232691 0
M  V30 2285 N 211.368 -0.403325 -1.52352 0
M  V30 2286 C 212.614 0.174605 -2.02047 0
M  V30 2287 C 212.947 1.45282 -1.28867 0
M  V30 2288 O 212.222 1.90483 -0.393257 0
M  V30 2289 C 212.505 0.428238 -3.57545 0
M  V30 2290 C 212.358 -0.866248 -4.4138 0
M  V30 2291 C 213.677 1.21287 -4.23057 0
M  V30 2292 H 210.796 0.0619851 -0.734389 0
M  V30 2293 H 213.438 -0.53565 -1.82293 0
M  V30 2294 H 211.588 1.03327 -3.74507 0
M  V30 2295 H 213.26 -1.50265 -4.3614 0
M  V30 2296 H 211.503 -1.47851 -4.07827 0
M  V30 2297 H 212.174 -0.643249 -5.48239 0
M  V30 2298 H 214.65 0.700703 -4.10158 0
M  V30 2299 H 213.526 1.35909 -5.31808 0
M  V30 2300 H 213.787 2.23193 -3.81625 0
M  V30 2301 N 212.846 1.57033 -0.133567 0
M  V30 2302 C 213.809 2.14897 0.796995 0
M  V30 2303 C 214.809 1.0874 1.18458 0
M  V30 2304 O 215.999 1.34446 1.1077 0
M  V30 2305 C 213.131 2.70112 2.07973 0
M  V30 2306 H 214.324 2.98457 0.293873 0
M  V30 2307 H 211.877 1.55871 0.115787 0
M  V30 2308 H 212.612 1.9018 2.62682 0
M  V30 2309 H 212.397 3.47764 1.81115 0
M  V30 2310 H 213.887 3.14738 2.74462 0
M  V30 2311 N 214.325 -0.140222 1.56975 0
M  V30 2312 C 215.573 -0.850005 1.83356 0
M  V30 2313 C 215.894 -1.81399 0.71551 0
M  V30 2314 O 215.164 -1.94136 -0.262294 0
M  V30 2315 H 213.744 -0.316886 0.676456 0
M  V30 2316 H 216.406 -0.132608 1.94448 0
M  V30 2317 H 215.502 -1.40814 2.78528 0
M  V30 2318 N 215.803 -1.52179 -0.40978 0
M  V30 2319 C 217.049 -1.67408 -1.15525 0
M  V30 2320 C 217.404 -0.398746 -1.88223 0
M  V30 2321 O 216.697 0.60678 -1.81738 0
M  V30 2322 C 216.891 -2.83428 -2.17723 0
M  V30 2323 C 216.72 -4.22121 -1.55061 0
M  V30 2324 C 215.49 -4.87657 -1.3236 0
M  V30 2325 C 217.688 -5.04248 -1.01185 0
M  V30 2326 N 215.67 -6.10387 -0.655834 0
M  V30 2327 C 217.041 -6.18209 -0.470963 0
M  V30 2328 C 219.096 -4.89583 -0.906252 0
M  V30 2329 C 217.799 -7.1911 0.165172 0
M  V30 2330 C 219.825 -5.90718 -0.28397 0
M  V30 2331 C 219.187 -7.03969 0.246243 0
M  V30 2332 H 215.286 -0.666251 -0.409431 0
M  V30 2333 H 217.87 -1.89482 -0.447729 0
M  V30 2334 H 216.041 -2.6297 -2.85834 0
M  V30 2335 H 217.773 -2.87697 -2.84627 0
M  V30 2336 H 214.528 -4.46007 -1.59294 0
M  V30 2337 H 214.952 -6.76153 -0.338596 0
M  V30 2338 H 219.594 -4.02253 -1.302 0
M  V30 2339 H 217.312 -8.06066 0.572986 0
M  V30 2340 H 220.898 -5.81443 -0.203792 0
M  V30 2341 H 219.778 -7.80886 0.720173 0
M  V30 2342 N 217.281 0.66697 -1.42791 0
M  V30 2343 C 218.529 1.42417 -1.43394 0
M  V30 2344 C 218.85 1.94925 -0.0542373 0
M  V30 2345 O 218.12 1.73564 0.908415 0
M  V30 2346 H 216.7 0.528515 -0.527902 0
M  V30 2347 H 219.362 0.787562 -1.78279 0
M  V30 2348 H 218.458 2.27333 -2.13837 0
M  V30 2349 N 218.759 1.29093 0.90403 0
M  V30 2350 C 220.175 1.07011 1.1841 0
M  V30 2351 C 220.375 -0.181358 2.00682 0
M  V30 2352 O 219.431 -0.880331 2.36657 0
M  V30 2353 C 220.744 2.32311 1.90924 0
M  V30 2354 C 222.292 2.37587 2.03768 0
M  V30 2355 C 222.767 3.62679 2.79693 0
M  V30 2356 N 224.258 3.63376 2.87249 0
M  V30 2357 C 224.993 4.56848 3.46522 0
M  V30 2358 N 224.489 5.60648 4.06996 0
M  V30 2359 N 226.282 4.44426 3.44154 0
M  V30 2360 H 218.433 2.09412 0.354993 0
M  V30 2361 H 220.696 0.922181 0.219742 0
M  V30 2362 H 220.402 3.23536 1.37905 0
M  V30 2363 H 220.276 2.39483 2.91424 0
M  V30 2364 H 222.663 1.46853 2.55965 0
M  V30 2365 H 222.744 2.34403 1.02415 0
M  V30 2366 H 222.388 4.53762 2.28173 0
M  V30 2367 H 222.318 3.63119 3.81381 0
M  V30 2368 H 224.809 2.88321 2.44293 0
M  V30 2369 H 225.122 6.28101 4.50232 0
M  V30 2370 H 223.467 5.64463 4.05471 0
M  V30 2371 H 226.658 3.62529 2.96126 0
M  V30 2372 H 226.831 5.17457 3.90054 0
M  V30 2373 N 220.237 -1.11381 1.11499 0
M  V30 2374 C 221.483 -1.83403 0.865512 0
M  V30 2375 C 221.816 -1.84459 -0.607329 0
M  V30 2376 O 221.091 -1.29811 -1.44842 0
M  V30 2377 C 221.374 -3.30552 1.42855 0
M  V30 2378 C 221.227 -3.37886 2.96906 0
M  V30 2379 C 222.546 -4.26643 1.08 0
M  V30 2380 H 219.665 -0.665879 0.31587 0
M  V30 2381 H 222.307 -1.30601 1.37998 0
M  V30 2382 H 220.457 -3.75648 0.990985 0
M  V30 2383 H 222.129 -3.01343 3.49271 0
M  V30 2384 H 220.372 -2.78088 3.32941 0
M  V30 2385 H 221.043 -4.41458 3.31389 0
M  V30 2386 H 223.519 -3.89729 1.45775 0
M  V30 2387 H 222.395 -5.27986 1.50072 0
M  V30 2388 H 222.656 -4.42099 -0.00915037 0
M  V30 2389 N 221.715 -0.905404 -1.28997 0
M  V30 2390 C 222.94 -0.549175 -1.99997 0
M  V30 2391 C 223.365 0.860276 -1.67275 0
M  V30 2392 O 222.723 1.57355 -0.900502 0
M  V30 2393 C 222.771 -0.755185 -3.52604 0
M  V30 2394 O 221.875 0.189692 -4.11964 0
M  V30 2395 H 221.216 -0.213899 -0.628604 0
M  V30 2396 H 223.746 -1.21856 -1.64354 0
M  V30 2397 H 223.756 -0.662045 -4.02593 0
M  V30 2398 H 222.431 -1.78271 -3.75755 0
M  V30 2399 H 221.008 0.0485257 -3.72868 0
M  V30 2400 N 223.193 1.4272 -0.668489 0
M  V30 2401 C 224.126 2.28111 0.0637898 0
M  V30 2402 C 225.104 1.40705 0.814912 0
M  V30 2403 O 226.288 1.70146 0.81134 0
M  V30 2404 C 223.415 3.20429 1.0974 0
M  V30 2405 C 222.461 4.24197 0.442579 0
M  V30 2406 S 223.294 5.29563 -0.795173 0
M  V30 2407 C 224.45 6.25449 0.237516 0
M  V30 2408 H 224.683 2.8987 -0.660521 0
M  V30 2409 H 222.216 1.47456 -0.457821 0
M  V30 2410 H 224.174 3.74158 1.68868 0
M  V30 2411 H 222.835 2.57818 1.79411 0
M  V30 2412 H 222.028 4.88954 1.22227 0
M  V30 2413 H 221.63 3.73925 -0.0749554 0
M  V30 2414 H 223.922 6.68524 1.09915 0
M  V30 2415 H 224.865 7.07104 -0.375421 0
M  V30 2416 H 225.273 5.61511 0.580167 0
M  V30 2417 N 224.671 0.411399 1.52136 0
M  V30 2418 C 226.087 0.0623865 1.59478 0
M  V30 2419 C 226.287 -1.42554 1.4241 0
M  V30 2420 O 225.343 -2.19263 1.2522 0
M  V30 2421 C 226.656 0.559331 2.95452 0
M  V30 2422 C 228.204 0.517503 3.08692 0
M  V30 2423 C 228.679 0.990994 4.4715 0
M  V30 2424 N 230.17 0.947908 4.53397 0
M  V30 2425 C 230.905 1.28544 5.58806 0
M  V30 2426 N 230.401 1.69454 6.71757 0
M  V30 2427 N 232.194 1.20526 5.49026 0
M  V30 2428 H 224.345 1.37982 1.61477 0
M  V30 2429 H 226.608 0.566977 0.759764 0
M  V30 2430 H 226.314 1.59938 3.1323 0
M  V30 2431 H 226.188 -0.0298014 3.77188 0
M  V30 2432 H 228.575 -0.513505 2.90598 0
M  V30 2433 H 228.656 1.14272 2.28857 0
M  V30 2434 H 228.3 2.02034 4.65988 0
M  V30 2435 H 228.23 0.34257 5.25485 0
M  V30 2436 H 230.721 0.647157 3.72317 0
M  V30 2437 H 231.034 1.93513 7.48179 0
M  V30 2438 H 229.379 1.73359 6.73032 0
M  V30 2439 H 232.57 0.884505 4.59667 0
M  V30 2440 H 232.743 1.47161 6.31069 0
M  V30 2441 N 226.149 -1.5696 0.141893 0
M  V30 2442 C 227.565 -1.58151 -0.21456 0
M  V30 2443 C 227.765 -1.1559 -1.65049 0
M  V30 2444 O 226.821 -0.853832 -2.37626 0
M  V30 2445 C 228.134 -3.00674 0.0395576 0
M  V30 2446 C 229.682 -3.1299 -0.0245529 0
M  V30 2447 C 230.157 -4.57554 0.202167 0
M  V30 2448 N 231.648 -4.62961 0.148919 0
M  V30 2449 C 232.383 -5.7262 0.298924 0
M  V30 2450 N 231.879 -6.90947 0.50637 0
M  V30 2451 N 233.672 -5.61601 0.236886 0
M  V30 2452 H 225.823 -1.8292 1.07953 0
M  V30 2453 H 228.086 -0.846425 0.42693 0
M  V30 2454 H 227.792 -3.36183 1.03315 0
M  V30 2455 H 227.666 -3.70981 -0.682143 0
M  V30 2456 H 230.053 -2.77326 -1.00869 0
M  V30 2457 H 230.134 -2.4518 0.729396 0
M  V30 2458 H 229.778 -4.93922 1.18338 0
M  V30 2459 H 229.708 -5.23484 -0.572044 0
M  V30 2460 H 232.199 -3.77899 -0.00697015 0
M  V30 2461 H 232.512 -7.7038 0.611076 0
M  V30 2462 H 230.857 -6.92878 0.542628 0
M  V30 2463 H 234.048 -4.68039 0.0756209 0
M  V30 2464 H 234.221 -6.47015 0.357227 0
M  V30 2465 N 227.627 0.131896 -1.57047 0
M  V30 2466 C 228.875 0.840269 -1.83804 0
M  V30 2467 C 229.196 1.81017 -0.72512 0
M  V30 2468 O 228.466 1.94272 0.251995 0
M  V30 2469 H 227.046 0.313294 -0.678127 0
M  V30 2470 H 229.708 0.122294 -1.94516 0
M  V30 2471 H 228.804 1.39335 -2.79271 0
M  V30 2472 N 229.106 1.52395 0.401703 0
M  V30 2473 C 230.334 1.70676 1.16949 0
M  V30 2474 C 230.749 0.419503 1.8408 0
M  V30 2475 O 230.106 -0.605061 1.72178 0
M  V30 2476 C 230.157 2.84753 2.22706 0
M  V30 2477 O 229.878 4.08495 1.58314 0
M  V30 2478 C 231.379 3.14608 3.12309 0
M  V30 2479 H 228.599 0.571787 0.351142 0
M  V30 2480 H 231.143 1.98987 0.471652 0
M  V30 2481 H 229.298 2.58941 2.88147 0
M  V30 2482 H 229.712 4.72117 2.28485 0
M  V30 2483 H 231.186 3.97923 3.82572 0
M  V30 2484 H 231.663 2.28464 3.75101 0
M  V30 2485 H 232.269 3.42212 2.52529 0
M  V30 2486 N 230.584 -0.659388 1.43143 0
M  V30 2487 C 231.861 -1.41627 1.34912 0
M  V30 2488 C 232.241 -2.11099 -0.00607785 0
M  V30 2489 O 231.589 -2.04353 -1.02236 0
M  V30 2490 C 231.799 -2.40604 2.52805 0
M  V30 2491 C 233.147 -3.04789 2.95616 0
M  V30 2492 O 234.171 -2.50932 2.52807 0
M  V30 2493 O 233.03 -4.02421 3.69756 0
M  V30 2494 H 230.124 -0.63246 0.532844 0
M  V30 2495 H 232.67 -0.686814 1.5518 0
M  V30 2496 H 231.442 -1.88174 3.43083 0
M  V30 2497 H 231.065 -3.21009 2.34604 0
M  V30 2498 N 232.062 -1.29571 -0.897171 0
M  V30 2499 C 233.29 -1.20583 -1.68129 0
M  V30 2500 C 233.705 0.233181 -1.87354 0
M  V30 2501 O 233.062 1.15579 -1.41236 0
M  V30 2502 C 233.113 -1.91772 -3.06441 0
M  V30 2503 O 232.834 -3.30053 -2.88091 0
M  V30 2504 C 234.335 -1.89291 -4.00854 0
M  V30 2505 H 231.555 -0.417826 -0.525036 0
M  V30 2506 H 234.099 -1.70987 -1.12177 0
M  V30 2507 H 232.254 -1.45196 -3.59161 0
M  V30 2508 H 232.668 -3.65942 -3.75748 0
M  V30 2509 H 234.142 -2.43662 -4.95311 0
M  V30 2510 H 234.619 -0.869014 -4.30517 0
M  V30 2511 H 235.225 -2.35622 -3.54066 0
M  V30 2512 N 233.54 1.10788 -1.12088 0
M  V30 2513 C 234.47 2.19083 -0.807755 0
M  V30 2514 C 235.451 1.6858 0.226859 0
M  V30 2515 O 236.636 1.93997 0.0888475 0
M  V30 2516 C 233.766 3.46344 -0.257576 0
M  V30 2517 C 232.72 4.101 -1.22483 0
M  V30 2518 C 232.046 5.32016 -0.535052 0
M  V30 2519 C 233.346 4.54236 -2.57811 0
M  V30 2520 H 235.04 2.45534 -1.71328 0
M  V30 2521 H 232.586 1.1801 -0.825205 0
M  V30 2522 H 234.539 4.21392 -0.0262679 0
M  V30 2523 H 233.263 3.19373 0.683278 0
M  V30 2524 H 231.922 3.37054 -1.44189 0
M  V30 2525 H 231.57 5.01319 0.410827 0
M  V30 2526 H 231.27 5.75625 -1.18024 0
M  V30 2527 H 232.794 6.09799 -0.312695 0
M  V30 2528 H 234.208 5.20575 -2.40155 0
M  V30 2529 H 232.605 5.08682 -3.18375 0
M  V30 2530 H 233.675 3.6734 -3.16528 0
M  V30 2531 N 235.018 0.912232 1.28515 0
M  V30 2532 C 236.434 0.610159 1.47476 0
M  V30 2533 C 236.634 -0.844955 1.82928 0
M  V30 2534 O 235.69 -1.62416 1.93332 0
M  V30 2535 C 237.003 1.54675 2.57868 0
M  V30 2536 C 238.551 1.55331 2.71738 0
M  V30 2537 C 239.026 2.47649 3.85272 0
M  V30 2538 N 240.517 2.45767 3.92623 0
M  V30 2539 C 241.252 3.13896 4.79851 0
M  V30 2540 N 240.748 3.9135 5.71679 0
M  V30 2541 N 242.541 3.02991 4.73448 0
M  V30 2542 H 234.692 1.85318 1.03783 0
M  V30 2543 H 236.955 0.794777 0.516753 0
M  V30 2544 H 236.661 2.5841 2.38574 0
M  V30 2545 H 236.535 1.27671 3.54937 0
M  V30 2546 H 238.922 0.52335 2.90422 0
M  V30 2547 H 239.003 1.86378 1.75205 0
M  V30 2548 H 238.647 3.50745 3.67342 0
M  V30 2549 H 238.577 2.13904 4.81199 0
M  V30 2550 H 241.068 1.89503 3.26951 0
M  V30 2551 H 241.381 4.40359 6.35062 0
M  V30 2552 H 239.726 3.95455 5.71524 0
M  V30 2553 H 242.917 2.41987 4.007 0
M  V30 2554 H 243.09 3.5636 5.41213 0
M  V30 2555 N 236.496 -1.42363 0.676048 0
M  V30 2556 C 237.406 -2.346 -0.00153389 0
M  V30 2557 C 238.422 -1.5516 -0.787485 0
M  V30 2558 O 239.598 -1.87723 -0.729521 0
M  V30 2559 C 236.663 -3.33705 -0.940298 0
M  V30 2560 C 235.724 -4.29042 -0.148739 0
M  V30 2561 C 234.957 -5.23413 -1.04279 0
M  V30 2562 O 235.18 -5.22749 -2.28232 0
M  V30 2563 O 234.114 -5.99795 -0.502925 0
M  V30 2564 H 237.94 -2.94082 0.758268 0
M  V30 2565 H 235.525 -1.42888 0.436289 0
M  V30 2566 H 237.407 -3.94586 -1.47917 0
M  V30 2567 H 236.082 -2.76695 -1.67993 0
M  V30 2568 H 234.989 -3.71571 0.43427 0
M  V30 2569 H 236.322 -4.89097 0.551805 0
M  V30 2570 N 237.974 -0.419461 -1.51915 0
M  V30 2571 C 239.22 0.153166 -2.02221 0
M  V30 2572 C 239.553 1.43907 -1.30401 0
M  V30 2573 O 238.828 1.90055 -0.413438 0
M  V30 2574 C 239.111 0.390291 -3.57979 0
M  V30 2575 C 238.964 -0.913014 -4.40436 0
M  V30 2576 C 240.283 1.16794 -4.2432 0
M  V30 2577 H 237.402 0.0541924 -0.735005 0
M  V30 2578 H 240.044 -0.554955 -1.81715 0
M  V30 2579 H 238.194 0.993491 -3.75582 0
M  V30 2580 H 239.866 -1.54882 -4.34522 0
M  V30 2581 H 238.109 -1.52168 -4.06236 0
M  V30 2582 H 238.78 -0.701361 -5.47526 0
M  V30 2583 H 241.256 0.657161 -4.10878 0
M  V30 2584 H 240.132 1.3026 -5.3322 0
M  V30 2585 H 240.393 2.19132 -3.83971 0
M  V30 2586 N 239.452 1.56882 -0.150215 0
M  V30 2587 C 240.384 2.14057 0.819286 0
M  V30 2588 C 241.397 1.09082 1.20851 0
M  V30 2589 O 242.586 1.36347 1.15203 0
M  V30 2590 C 239.686 2.65102 2.11127 0
M  V30 2591 C 238.859 3.94511 1.88891 0
M  V30 2592 C 237.918 4.30834 3.02107 0
M  V30 2593 O 236.944 4.99099 2.73659 0
M  V30 2594 N 238.146 3.90676 4.29363 0
M  V30 2595 H 240.911 2.97871 0.330618 0
M  V30 2596 H 238.472 1.61866 0.0332538 0
M  V30 2597 H 240.464 2.86411 2.85921 0
M  V30 2598 H 239.034 1.85994 2.51247 0
M  V30 2599 H 238.254 3.81795 0.981152 0
M  V30 2600 H 239.542 4.7907 1.71376 0
M  V30 2601 H 238.94 3.35677 4.55343 0
M  V30 2602 H 237.497 4.1703 5.00928 0
M  V30 2603 N 240.93 -0.123565 1.57115 0
M  V30 2604 C 241.86 -1.15309 2.03042 0
M  V30 2605 C 242.841 -1.43454 0.914061 0
M  V30 2606 O 244.026 -1.53973 1.18347 0
M  V30 2607 C 241.156 -2.48043 2.43089 0
M  V30 2608 C 240.11 -2.3437 3.58127 0
M  V30 2609 C 239.436 -3.72026 3.84059 0
M  V30 2610 C 240.736 -1.80804 4.90007 0
M  V30 2611 H 242.43 -0.771102 2.893 0
M  V30 2612 H 239.976 -0.369479 1.39179 0
M  V30 2613 H 241.929 -3.20311 2.73823 0
M  V30 2614 H 240.653 -2.88122 1.53796 0
M  V30 2615 H 239.312 -1.64551 3.27595 0
M  V30 2616 H 238.96 -4.09582 2.91979 0
M  V30 2617 H 238.66 -3.63732 4.6149 0
M  V30 2618 H 240.184 -4.45806 4.1724 0
M  V30 2619 H 241.598 -2.42886 5.19307 0
M  V30 2620 H 239.995 -1.83343 5.71407 0
M  V30 2621 H 241.065 -0.76528 4.78823 0
M  V30 2622 N 242.408 -1.52605 -0.393616 0
M  V30 2623 C 243.824 -1.41753 -0.733357 0
M  V30 2624 C 244.024 -0.534293 -1.94287 0
M  V30 2625 O 243.08 -0.0059787 -2.52499 0
M  V30 2626 C 244.393 -2.84531 -0.972772 0
M  V30 2627 C 245.941 -2.93978 -1.07453 0
M  V30 2628 C 246.416 -4.37756 -1.3466 0
M  V30 2629 N 247.907 -4.4106 -1.41492 0
M  V30 2630 C 248.642 -5.49387 -1.642 0
M  V30 2631 N 248.138 -6.67806 -1.8441 0
M  V30 2632 N 249.931 -5.36923 -1.66342 0
M  V30 2633 H 242.082 -2.08555 0.402328 0
M  V30 2634 H 244.345 -0.940654 0.117789 0
M  V30 2635 H 244.051 -3.51353 -0.156204 0
M  V30 2636 H 243.925 -3.26508 -1.88871 0
M  V30 2637 H 246.312 -2.27326 -1.88167 0
M  V30 2638 H 246.393 -2.55435 -0.136605 0
M  V30 2639 H 246.037 -5.04972 -0.544581 0
M  V30 2640 H 245.967 -4.73848 -2.2973 0
M  V30 2641 H 248.458 -3.55705 -1.27601 0
M  V30 2642 H 248.771 -7.46141 -2.01231 0
M  V30 2643 H 247.116 -6.70843 -1.81644 0
M  V30 2644 H 250.307 -4.43381 -1.50102 0
M  V30 2645 H 250.48 -6.21416 -1.837 0
M  V30 2646 N 243.887 0.651787 -1.4349 0
M  V30 2647 C 245.133 1.41376 -1.45398 0
M  V30 2648 C 245.466 1.94041 -0.0784823 0
M  V30 2649 O 244.741 1.72379 0.900878 0
M  V30 2650 C 245.024 2.59414 -2.49752 0
M  V30 2651 C 244.877 2.12232 -3.96582 0
M  V30 2652 C 246.196 3.61626 -2.50827 0
M  V30 2653 H 243.315 0.512719 -0.529422 0
M  V30 2654 H 245.957 0.738796 -1.75048 0
M  V30 2655 H 244.107 3.16997 -2.246 0
M  V30 2656 H 245.779 1.59639 -4.32797 0
M  V30 2657 H 244.022 1.43592 -4.09346 0
M  V30 2658 H 244.693 2.9712 -4.65214 0
M  V30 2659 H 247.169 3.13805 -2.7325 0
M  V30 2660 H 246.045 4.41766 -3.25783 0
M  V30 2661 H 246.306 4.14314 -1.5426 0
M  V30 2662 N 245.365 1.30045 0.890287 0
M  V30 2663 C 246.297 1.11786 2.00091 0
M  V30 2664 C 247.31 0.0626307 1.62679 0
M  V30 2665 O 248.499 0.308112 1.75821 0
M  V30 2666 C 245.599 0.681527 3.31977 0
M  V30 2667 C 244.772 1.81735 3.97858 0
M  V30 2668 C 243.831 1.37045 5.08041 0
M  V30 2669 O 242.857 2.07677 5.29961 0
M  V30 2670 N 244.059 0.246525 5.79976 0
M  V30 2671 H 246.824 2.07441 2.16306 0
M  V30 2672 H 244.385 1.2211 1.06305 0
M  V30 2673 H 246.377 0.365675 4.03045 0
M  V30 2674 H 244.947 -0.182828 3.12065 0
M  V30 2675 H 244.167 2.30159 3.20032 0
M  V30 2676 H 245.455 2.57865 4.38615 0
M  V30 2677 H 244.853 -0.34215 5.64664 0
M  V30 2678 H 243.41 -0.00990438 6.51799 0
M  V30 2679 N 246.843 -1.10192 1.12674 0
M  V30 2680 C 248.259 -1.34235 0.863317 0
M  V30 2681 C 248.459 -1.95062 -0.505277 0
M  V30 2682 O 247.515 -2.19192 -1.25345 0
M  V30 2683 C 248.828 -2.2616 1.98172 0
M  V30 2684 C 250.376 -2.3969 2.0129 0
M  V30 2685 C 250.851 -3.34946 3.1237 0
M  V30 2686 N 252.342 -3.42515 3.11829 0
M  V30 2687 C 253.077 -4.16199 3.94419 0
M  V30 2688 N 252.573 -4.92747 4.87004 0
M  V30 2689 N 254.366 -4.11843 3.82547 0
M  V30 2690 H 246.517 -0.690798 2.00853 0
M  V30 2691 H 248.78 -0.366774 0.874174 0
M  V30 2692 H 248.486 -1.8868 2.96804 0
M  V30 2693 H 248.36 -3.26488 1.88906 0
M  V30 2694 H 250.747 -2.76438 1.03276 0
M  V30 2695 H 250.828 -1.39169 2.14629 0
M  V30 2696 H 250.472 -2.98923 4.10619 0
M  V30 2697 H 250.402 -4.35353 2.96269 0
M  V30 2698 H 252.893 -2.87926 2.44759 0
M  V30 2699 H 253.206 -5.46376 5.46528 0
M  V30 2700 H 251.551 -4.91862 4.91016 0
M  V30 2701 H 254.742 -3.51136 3.0955 0
M  V30 2702 H 254.915 -4.69007 4.47142 0
M  V30 2703 N 248.321 -0.919034 -1.28029 0
M  V30 2704 C 249.598 -0.473668 -1.89778 0
M  V30 2705 C 249.978 1.04783 -1.83259 0
M  V30 2706 O 249.326 1.8982 -1.27202 0
M  V30 2707 C 249.536 -1.00998 -3.34066 0
M  V30 2708 C 250.884 -1.06525 -4.1102 0
M  V30 2709 O 251.908 -0.958996 -3.43048 0
M  V30 2710 O 250.767 -1.22776 -5.3253 0
M  V30 2711 H 247.861 -0.15098 -0.813101 0
M  V30 2712 H 250.407 -1.01016 -1.36359 0
M  V30 2713 H 249.179 -2.05392 -3.33061 0
M  V30 2714 H 248.802 -0.454626 -3.94992 0
M  V30 2715 N 249.799 1.42003 -0.683588 0
M  V30 2716 C 251.215 1.55625 -0.353976 0
M  V30 2717 C 251.415 1.66151 1.14 0
M  V30 2718 O 250.471 1.63329 1.92561 0
M  V30 2719 C 251.784 2.80171 -1.092 0
M  V30 2720 C 253.332 2.93954 -1.07518 0
M  V30 2721 C 253.807 4.21372 -1.79471 0
M  V30 2722 N 255.298 4.28303 -1.76381 0
M  V30 2723 C 256.033 5.25729 -2.28904 0
M  V30 2724 N 255.529 6.29254 -2.89846 0
M  V30 2725 N 257.322 5.17586 -2.19228 0
M  V30 2726 H 249.473 1.33415 -1.6527 0
M  V30 2727 H 251.736 0.64282 -0.696769 0
M  V30 2728 H 251.442 2.78561 -2.14701 0
M  V30 2729 H 251.316 3.7133 -0.662862 0
M  V30 2730 H 253.703 2.95086 -0.028475 0
M  V30 2731 H 253.784 2.04002 -1.54328 0
M  V30 2732 H 253.428 4.21001 -2.84114 0
M  V30 2733 H 253.358 5.10275 -1.30104 0
M  V30 2734 H 255.849 3.54119 -1.31939 0
M  V30 2735 H 256.162 6.99964 -3.27522 0
M  V30 2736 H 254.507 6.29791 -2.93919 0
M  V30 2737 H 257.698 4.35631 -1.71299 0
M  V30 2738 H 257.871 5.93348 -2.60466 0
M  V30 2739 N 251.277 0.427512 1.51691 0
M  V30 2740 C 252.209 -0.424521 2.25234 0
M  V30 2741 C 253.222 -0.994671 1.2888 0
M  V30 2742 O 254.411 -0.890483 1.54702 0
M  V30 2743 C 251.511 -1.60479 2.98496 0
M  V30 2744 C 250.684 -1.15527 4.21868 0
M  V30 2745 C 249.743 -2.20454 4.77793 0
M  V30 2746 O 248.769 -1.8029 5.39893 0
M  V30 2747 N 249.971 -3.52831 4.60967 0
M  V30 2748 H 252.736 0.205749 2.98993 0
M  V30 2749 H 250.297 0.255867 1.59865 0
M  V30 2750 H 252.289 -2.30276 3.32799 0
M  V30 2751 H 250.859 -2.14061 2.27809 0
M  V30 2752 H 250.079 -0.284736 3.9317 0
M  V30 2753 H 251.367 -0.832173 5.01949 0
M  V30 2754 H 250.765 -3.88201 4.11481 0
M  V30 2755 H 249.322 -4.18551 4.99658 0
M  V30 2756 N 252.755 -1.56801 0.158532 0
M  V30 2757 C 253.995 -1.98383 -0.49229 0
M  V30 2758 C 254.359 -1.04184 -1.61275 0
M  V30 2759 O 255.56 -1.34856 -2.32524 0
M  V30 2760 C 253.831 -3.4385 -0.974766 0
M  V30 2761 S 255.39 -4.07459 -1.62857 0
M  V30 2762 H 252.208 -0.693041 -0.158794 0
M  V30 2763 H 254.81 -1.93856 0.252974 0
M  V30 2764 H 253.514 -4.10131 -0.148688 0
M  V30 2765 H 253.045 -3.52115 -1.75438 0
M  V30 2766 H 255.06 -4.01458 -2.91627 0
M  V30 2767 N 254.233 0.115231 -1.57178 0
M  V30 2768 C 255.163 1.1423 -2.03651 0
M  V30 2769 C 256.144 1.42967 -0.921655 0
M  V30 2770 O 257.329 1.53343 -1.19162 0
M  V30 2771 C 254.459 2.4675 -2.44401 0
M  V30 2772 C 253.413 2.32467 -3.59365 0
M  V30 2773 C 252.739 3.69984 -3.86026 0
M  V30 2774 C 254.039 1.78203 -4.90959 0
M  V30 2775 H 255.733 0.755749 -2.89705 0
M  V30 2776 H 253.279 0.362093 -1.39373 0
M  V30 2777 H 255.232 3.18854 -2.75517 0
M  V30 2778 H 253.956 2.87302 -1.55322 0
M  V30 2779 H 252.615 1.62811 -3.28463 0
M  V30 2780 H 252.263 4.08028 -2.94147 0
M  V30 2781 H 251.963 3.61279 -4.63412 0
M  V30 2782 H 253.487 4.43587 -4.19599 0
M  V30 2783 H 254.901 2.40128 -5.20587 0
M  V30 2784 H 253.298 1.8031 -5.72371 0
M  V30 2785 H 254.368 0.739876 -4.79222 0
M  V30 2786 N 255.711 1.52812 0.385517 0
M  V30 2787 C 257.127 1.4214 0.725829 0
M  V30 2788 C 257.327 0.544589 1.94001 0
M  V30 2789 O 256.383 0.0193693 2.52493 0
M  V30 2790 C 257.696 2.85042 0.957668 0
M  V30 2791 C 259.244 2.94543 1.05892 0
M  V30 2792 C 259.719 4.38464 1.32337 0
M  V30 2793 N 261.21 4.41804 1.39151 0
M  V30 2794 C 261.945 5.5025 1.61285 0
M  V30 2795 N 261.441 6.68775 1.80866 0
M  V30 2796 N 263.234 5.37798 1.63492 0
M  V30 2797 H 255.385 2.08338 -0.413383 0
M  V30 2798 H 257.648 0.940016 -0.122775 0
M  V30 2799 H 257.354 3.51431 0.137568 0
M  V30 2800 H 257.228 3.27505 1.87137 0
M  V30 2801 H 259.615 2.28321 1.86959 0
M  V30 2802 H 259.696 2.55504 0.123057 0
M  V30 2803 H 259.34 5.05254 0.517793 0
M  V30 2804 H 259.27 4.75059 2.27214 0
M  V30 2805 H 261.761 3.56377 1.25713 0
M  V30 2806 H 262.074 7.47197 1.97271 0
M  V30 2807 H 260.419 6.71797 1.78083 0
M  V30 2808 H 263.61 4.44171 1.47749 0
M  V30 2809 H 263.783 6.22382 1.80402 0
M  V30 2810 N 257.189 -0.644168 1.43834 0
M  V30 2811 C 258.438 -1.39985 1.45214 0
M  V30 2812 C 258.751 -1.95421 0.0835494 0
M  V30 2813 O 259.957 -2.71488 -0.0251748 0
M  V30 2814 C 258.413 -2.53384 2.55587 0
M  V30 2815 C 258.021 -2.04517 3.98594 0
M  V30 2816 C 259.765 -3.30685 2.66172 0
M  V30 2817 C 257.672 -3.1518 5.00416 0
M  V30 2818 H 256.602 -0.526005 0.540218 0
M  V30 2819 H 259.253 -0.694367 1.69855 0
M  V30 2820 H 257.635 -3.26446 2.24163 0
M  V30 2821 H 258.809 -1.38405 4.39523 0
M  V30 2822 H 257.124 -1.40068 3.92135 0
M  V30 2823 H 259.721 -4.13158 3.39418 0
M  V30 2824 H 260.064 -3.79312 1.71546 0
M  V30 2825 H 260.597 -2.64708 2.96942 0
M  V30 2826 H 257.336 -2.71511 5.96625 0
M  V30 2827 H 256.856 -3.79974 4.64091 0
M  V30 2828 H 258.535 -3.80166 5.23529 0
M  V30 2829 N 258.668 -1.30515 -0.883378 0
M  V30 2830 C 259.915 -1.1943 -1.63532 0
M  V30 2831 C 260.243 0.250627 -1.92878 0
M  V30 2832 O 259.498 1.19556 -1.54935 0
M  V30 2833 C 259.797 -1.96994 -2.98209 0
M  V30 2834 C 259.463 -3.466 -2.88408 0
M  V30 2835 C 258.125 -3.87397 -2.85442 0
M  V30 2836 C 260.477 -4.41863 -2.76418 0
M  V30 2837 C 257.805 -5.21745 -2.68327 0
M  V30 2838 C 260.157 -5.7632 -2.60841 0
M  V30 2839 C 258.821 -6.16354 -2.56251 0
M  V30 2840 H 258.091 -0.437025 -0.598406 0
M  V30 2841 H 260.738 -1.61635 -1.02696 0
M  V30 2842 H 259.043 -1.47429 -3.63004 0
M  V30 2843 H 260.74 -1.85808 -3.55354 0
M  V30 2844 H 257.33 -3.14182 -2.91527 0
M  V30 2845 H 261.514 -4.11285 -2.77775 0
M  V30 2846 H 256.77 -5.51853 -2.63189 0
M  V30 2847 H 260.944 -6.49772 -2.50538 0
M  V30 2848 H 258.571 -7.20401 -2.42748 0
M  V30 2849 N 260.146 1.09593 -1.13257 0
M  V30 2850 C 261.394 1.81375 -0.891492 0
M  V30 2851 C 261.715 1.86049 0.584009 0
M  V30 2852 O 260.985 1.34481 1.42449 0
M  V30 2853 H 259.565 0.671708 -0.326828 0
M  V30 2854 H 262.227 1.3256 -1.42877 0
M  V30 2855 H 261.323 2.84612 -1.28071 0
M  V30 2856 N 261.624 0.925811 1.2754 0
M  V30 2857 C 262.849 0.580924 1.99098 0
M  V30 2858 C 263.274 -0.833555 1.68622 0
M  V30 2859 O 262.632 -1.55903 0.925422 0
M  V30 2860 C 262.68 0.811186 3.51358 0
M  V30 2861 O 261.784 -0.124129 4.12213 0
M  V30 2862 H 261.125 0.223873 0.625122 0
M  V30 2863 H 263.655 1.24455 1.62395 0
M  V30 2864 H 263.665 0.72601 4.01489 0
M  V30 2865 H 262.34 1.84227 3.72872 0
M  V30 2866 H 260.917 0.0108006 3.72898 0
M  V30 2867 N 263.102 -1.41638 0.69111 0
M  V30 2868 C 264.332 -2.0533 0.228758 0
M  V30 2869 C 264.74 -1.52089 -1.12541 0
M  V30 2870 O 264.083 -0.662145 -1.71351 0
M  V30 2871 C 264.145 -3.59349 0.10407 0
M  V30 2872 C 263.809 -4.35362 1.38956 0
M  V30 2873 C 264.806 -4.64942 2.32648 0
M  V30 2874 C 262.491 -4.74714 1.64169 0
M  V30 2875 C 264.485 -5.32828 3.49818 0
M  V30 2876 C 262.172 -5.42338 2.81625 0
M  V30 2877 C 263.17 -5.71322 3.74273 0
M  V30 2878 O 262.858 -6.37554 4.89673 0
M  V30 2879 H 262.59 -0.667796 0.104997 0
M  V30 2880 H 265.144 -1.82477 0.942938 0
M  V30 2881 H 263.374 -3.80924 -0.665839 0
M  V30 2882 H 265.063 -4.04633 -0.320519 0
M  V30 2883 H 265.829 -4.35025 2.14425 0
M  V30 2884 H 261.708 -4.51538 0.929202 0
M  V30 2885 H 265.252 -5.55368 4.22152 0
M  V30 2886 H 261.149 -5.71673 2.99768 0
M  V30 2887 H 261.917 -6.56049 4.8943 0
M  V30 2888 N 264.58 -0.43555 -1.51462 0
M  V30 2889 C 265.857 0.191364 -1.94662 0
M  V30 2890 C 266.237 1.60254 -1.37411 0
M  V30 2891 O 265.585 2.2152 -0.560458 0
M  V30 2892 C 265.795 0.17091 -3.48581 0
M  V30 2893 C 267.143 0.377357 -4.2292 0
M  V30 2894 O 268.167 0.249104 -3.55328 0
M  V30 2895 O 267.026 0.63247 -5.42828 0
M  V30 2896 H 264.12 0.130932 -0.816569 0
M  V30 2897 H 266.666 -0.4934 -1.62369 0
M  V30 2898 H 265.438 -0.815738 -3.82703 0
M  V30 2899 H 265.061 0.898659 -3.87311 0
M  V30 2900 N 266.058 1.56714 -0.166846 0
M  V30 2901 C 267.469 1.83378 0.350646 0
M  V30 2902 C 267.82 1.08646 1.63372 0
M  V30 2903 O 266.945 0.338058 2.13743 0
M  V30 2904 C 267.54 3.32643 0.642963 0
M  V30 2905 C 266.099 3.59818 1.10491 0
M  V30 2906 C 265.246 2.76954 0.138411 0
M  V30 2907 H 268.197 1.53803 -0.391193 0
M  V30 2908 H 268.218 3.49878 1.49551 0
M  V30 2909 H 267.73 3.87007 -0.291055 0
M  V30 2910 H 265.831 3.1086 2.05418 0
M  V30 2911 H 265.944 4.68178 1.01716 0
M  V30 2912 H 264.308 2.4666 0.634911 0
M  V30 2913 H 265.091 3.34097 -0.789549 0
M  V30 2914 N 267.536 -0.106894 1.57237 0
M  V30 2915 C 268.952 -0.46078 1.52804 0
M  V30 2916 C 269.152 -1.81184 0.881746 0
M  V30 2917 O 268.208 -2.48102 0.469224 0
M  V30 2918 C 269.521 -0.434127 2.9755 0
M  V30 2919 C 271.069 -0.516821 3.08704 0
M  V30 2920 C 271.544 -0.520436 4.55033 0
M  V30 2921 N 273.035 -0.58153 4.59535 0
M  V30 2922 C 273.77 -0.605973 5.70189 0
M  V30 2923 N 273.266 -0.587331 6.90306 0
M  V30 2924 N 275.059 -0.649895 5.5833 0
M  V30 2925 H 267.21 0.778203 1.9763 0
M  V30 2926 H 269.473 0.288403 0.903066 0
M  V30 2927 H 269.179 0.491197 3.48253 0
M  V30 2928 H 269.053 -1.25748 3.55622 0
M  V30 2929 H 271.44 -1.43256 2.57995 0
M  V30 2930 H 271.521 0.334449 2.53604 0
M  V30 2931 H 271.165 0.391313 5.0639 0
M  V30 2932 H 271.095 -1.38876 5.07958 0
M  V30 2933 H 273.586 -0.60161 3.73081 0
M  V30 2934 H 273.899 -0.60894 7.70397 0
M  V30 2935 H 272.244 -0.554564 6.92784 0
M  V30 2936 H 275.435 -0.661907 4.63397 0
M  V30 2937 H 275.608 -0.665476 6.44574 0
M  V30 2938 N 269.014 -1.53014 -0.377408 0
M  V30 2939 C 270.43 -1.42523 -0.718281 0
M  V30 2940 C 270.63 -0.55487 -1.9371 0
M  V30 2941 O 269.686 -0.0327593 -2.52479 0
M  V30 2942 C 270.999 -2.85546 -0.942539 0
M  V30 2943 C 272.547 -2.95101 -1.04329 0
M  V30 2944 C 273.022 -4.3916 -1.3001 0
M  V30 2945 N 274.513 -4.42536 -1.36806 0
M  V30 2946 C 275.248 -5.51097 -1.58364 0
M  V30 2947 N 274.744 -6.69724 -1.77317 0
M  V30 2948 N 276.537 -5.38657 -1.60638 0
M  V30 2949 H 268.688 -2.08116 0.424426 0
M  V30 2950 H 270.951 -0.939352 0.127759 0
M  V30 2951 H 270.657 -3.51499 -0.118929 0
M  V30 2952 H 270.531 -3.28493 -1.85397 0
M  V30 2953 H 272.918 -2.29309 -1.85745 0
M  V30 2954 H 272.999 -2.55566 -0.109505 0
M  V30 2955 H 272.643 -5.05521 -0.490991 0
M  V30 2956 H 272.573 -4.76258 -2.24691 0
M  V30 2957 H 275.064 -3.57039 -1.23821 0
M  V30 2958 H 275.377 -7.48233 -1.93306 0
M  V30 2959 H 273.722 -6.72732 -1.74518 0
M  V30 2960 H 276.913 -4.44948 -1.45391 0
M  V30 2961 H 277.086 -6.2333 -1.77098 0
M  V30 2962 N 270.492 0.636531 -1.44174 0
M  V30 2963 C 271.424 1.7618 -1.46606 0
M  V30 2964 C 272.437 1.58768 -0.360091 0
M  V30 2965 O 273.626 1.67181 -0.625518 0
M  V30 2966 C 270.726 3.13833 -1.27915 0
M  V30 2967 C 269.899 3.57753 -2.51658 0
M  V30 2968 C 268.958 4.74265 -2.27945 0
M  V30 2969 O 267.984 4.82852 -3.01401 0
M  V30 2970 N 269.186 5.65604 -1.30662 0
M  V30 2971 H 271.951 1.74567 -2.43612 0
M  V30 2972 H 269.512 0.820924 -1.39544 0
M  V30 2973 H 271.504 3.8949 -1.09907 0
M  V30 2974 H 270.074 3.10121 -0.39293 0
M  V30 2975 H 269.294 2.72362 -2.84978 0
M  V30 2976 H 270.582 3.83847 -3.33974 0
M  V30 2977 H 269.98 5.61354 -0.699844 0
M  V30 2978 H 268.537 6.40913 -1.18634 0
M  V30 2979 N 271.97 1.30982 0.876444 0
M  V30 2980 C 273.219 1.19658 1.62373 0
M  V30 2981 C 273.532 -0.245636 1.94052 0
M  V30 2982 O 274.738 -0.48049 2.67214 0
M  V30 2983 C 273.194 2.09433 2.92687 0
M  V30 2984 C 272.802 3.58613 2.68516 0
M  V30 2985 C 274.546 2.06893 3.70669 0
M  V30 2986 C 272.453 4.40416 3.94699 0
M  V30 2987 H 271.383 0.444268 0.609214 0
M  V30 2988 H 274.034 1.55791 0.969605 0
M  V30 2989 H 272.416 1.66191 3.59439 0
M  V30 2990 H 273.59 4.10058 2.10212 0
M  V30 2991 H 271.905 3.63063 2.03898 0
M  V30 2992 H 274.502 2.65258 4.64265 0
M  V30 2993 H 274.845 1.05448 4.02724 0
M  V30 2994 H 275.378 2.48301 3.10792 0
M  V30 2995 H 272.117 5.42591 3.67798 0
M  V30 2996 H 271.637 3.93731 4.52477 0
M  V30 2997 H 273.316 4.52294 4.62644 0
M  V30 2998 N 273.449 -1.08991 1.13837 0
M  V30 2999 C 274.689 -1.82867 0.913183 0
M  V30 3000 C 275.053 -1.83936 -0.550604 0
M  V30 3001 O 276.254 -2.53515 -0.893515 0
M  V30 3002 C 274.525 -3.24843 1.49036 0
M  V30 3003 S 276.084 -4.15669 1.40588 0
M  V30 3004 H 272.902 -0.630278 0.329046 0
M  V30 3005 H 275.504 -1.31049 1.45073 0
M  V30 3006 H 274.208 -3.21644 2.54899 0
M  V30 3007 H 273.739 -3.81734 0.950947 0
M  V30 3008 H 275.754 -4.94686 0.387353 0
M  V30 3009 N 274.927 -0.932562 -1.27047 0
M  V30 3010 C 276.173 -0.576412 -1.94436 0
M  V30 3011 C 276.506 0.880891 -1.73072 0
M  V30 3012 O 275.781 1.62905 -1.06264 0
M  V30 3013 C 276.064 -0.909031 -3.48437 0
M  V30 3014 C 275.917 -2.42044 -3.79123 0
M  V30 3015 C 277.236 -0.418341 -4.38107 0
M  V30 3016 H 274.355 -0.210888 -0.706184 0
M  V30 3017 H 276.997 -1.16522 -1.50075 0
M  V30 3018 H 275.147 -0.407947 -3.86352 0
M  V30 3019 H 276.819 -2.99359 -3.50973 0
M  V30 3020 H 275.062 -2.86758 -3.25503 0
M  V30 3021 H 275.733 -2.6037 -4.86736 0
M  V30 3022 H 278.209 -0.847856 -4.0737 0
M  V30 3023 H 277.085 -0.679981 -5.44672 0
M  V30 3024 H 277.346 0.681642 -4.36814 0
M  V30 3025 N 276.405 1.4127 -0.698611 0
M  V30 3026 C 277.653 2.00782 -0.230409 0
M  V30 3027 C 277.974 1.5562 1.17505 0
M  V30 3028 O 277.244 0.78815 1.79346 0
M  V30 3029 H 275.824 0.742464 -0.0821944 0
M  V30 3030 H 278.486 1.72852 -0.90045 0
M  V30 3031 H 277.582 3.11095 -0.25021 0
M  V30 3032 N 277.883 0.443576 1.51229 0
M  V30 3033 C 279.16 -0.181038 1.9476 0
M  V30 3034 C 279.54 -1.59523 1.38259 0
M  V30 3035 O 278.888 -2.2122 0.572198 0
M  V30 3036 C 279.098 -0.152422 3.48667 0
M  V30 3037 C 280.446 -0.354923 4.23114 0
M  V30 3038 O 281.47 -0.230257 3.55455 0
M  V30 3039 O 280.329 -0.603674 5.43156 0
M  V30 3040 H 277.423 -0.1266 0.817252 0
M  V30 3041 H 279.969 0.502004 1.62105 0
M  V30 3042 H 278.741 0.836022 3.82265 0
M  V30 3043 H 278.364 -0.878107 3.87782 0
M  V30 3044 N 279.361 -1.56624 0.175154 0
M  V30 3045 C 280.777 -1.58571 -0.180966 0
M  V30 3046 C 280.977 -1.19065 -1.6256 0
M  V30 3047 O 280.033 -0.904044 -2.35761 0
M  V30 3048 C 281.346 -3.00522 0.103326 0
M  V30 3049 C 282.894 -3.12972 0.0418426 0
M  V30 3050 C 283.369 -4.57022 0.299175 0
M  V30 3051 N 284.86 -4.62541 0.247086 0
M  V30 3052 C 285.595 -5.71857 0.420318 0
M  V30 3053 N 285.091 -6.89717 0.652816 0
M  V30 3054 N 286.884 -5.60972 0.355957 0
M  V30 3055 H 279.035 -1.80589 1.11809 0
M  V30 3056 H 281.298 -0.837178 0.444788 0
M  V30 3057 H 281.004 -3.33916 1.10422 0
M  V30 3058 H 280.878 -3.72344 -0.603299 0
M  V30 3059 H 283.265 -2.79403 -0.949636 0
M  V30 3060 H 283.346 -2.43578 0.781238 0
M  V30 3061 H 282.99 -4.913 1.28788 0
M  V30 3062 H 282.92 -5.24579 -0.460876 0
M  V30 3063 H 285.411 -3.77829 0.0731895 0
M  V30 3064 H 285.724 -7.68911 0.774347 0
M  V30 3065 H 284.069 -6.91572 0.689476 0
M  V30 3066 H 287.26 -4.67773 0.174882 0
M  V30 3067 H 287.433 -6.46111 0.494388 0
M  V30 3068 N 280.839 0.0985539 -1.57292 0
M  V30 3069 C 282.255 0.45267 -1.53046 0
M  V30 3070 C 282.455 1.80713 -0.891342 0
M  V30 3071 O 281.511 2.4785 -0.482375 0
M  V30 3072 C 282.824 0.418341 -2.97776 0
M  V30 3073 C 284.372 0.500443 -3.08973 0
M  V30 3074 C 284.847 0.496297 -4.55303 0
M  V30 3075 N 286.338 0.557151 -4.59837 0
M  V30 3076 C 287.073 0.575726 -5.70502 0
M  V30 3077 N 286.569 0.550714 -6.90608 0
M  V30 3078 N 288.362 0.620277 -5.58667 0
M  V30 3079 H 280.513 -0.788673 -1.97215 0
M  V30 3080 H 282.776 -0.293188 -0.901524 0
M  V30 3081 H 282.482 -0.509659 -3.47988 0
M  V30 3082 H 282.356 1.2386 -3.56284 0
M  V30 3083 H 284.743 1.41886 -2.58751 0
M  V30 3084 H 284.824 -0.347894 -2.53423 0
M  V30 3085 H 284.468 -0.418162 -5.06176 0
M  V30 3086 H 284.398 1.3618 -5.08687 0
M  V30 3087 H 286.889 0.581816 -3.73394 0
M  V30 3088 H 287.202 0.568075 -7.70709 0
M  V30 3089 H 285.547 0.517816 -6.93068 0
M  V30 3090 H 288.738 0.637322 -4.63741 0
M  V30 3091 H 288.911 0.631283 -6.44918 0
M  V30 3092 N 282.317 1.53212 0.369288 0
M  V30 3093 C 283.227 1.82342 1.47609 0
M  V30 3094 C 284.243 0.711532 1.58787 0
M  V30 3095 O 285.419 1.0012 1.74751 0
M  V30 3096 C 282.484 2.00393 2.8292 0
M  V30 3097 C 281.545 3.24297 2.81301 0
M  V30 3098 C 280.778 3.41478 4.10157 0
M  V30 3099 O 281.001 2.63033 5.06132 0
M  V30 3100 O 279.935 4.34817 4.16194 0
M  V30 3101 H 283.761 2.76366 1.25918 0
M  V30 3102 H 281.346 1.38547 0.559034 0
M  V30 3103 H 283.228 2.13859 3.63101 0
M  V30 3104 H 281.903 1.09559 3.04596 0
M  V30 3105 H 280.81 3.16257 1.99831 0
M  V30 3106 H 282.143 4.15041 2.64578 0
M  V30 3107 N 283.795 -0.628877 1.44509 0
M  V30 3108 C 285.211 -0.947305 1.28446 0
M  V30 3109 C 285.411 -2.00275 0.221872 0
M  V30 3110 O 284.467 -2.49447 -0.391471 0
M  V30 3111 C 285.78 -1.40843 2.65676 0
M  V30 3112 C 287.328 -1.52379 2.73404 0
M  V30 3113 C 287.803 -2.01875 4.11109 0
M  V30 3114 N 289.294 -2.09142 4.13296 0
M  V30 3115 C 290.029 -2.48615 5.16699 0
M  V30 3116 N 289.525 -2.87209 6.30462 0
M  V30 3117 N 291.318 -2.48768 5.04054 0
M  V30 3118 H 283.469 0.0690977 2.12288 0
M  V30 3119 H 285.732 -0.0317164 0.947469 0
M  V30 3120 H 285.438 -0.707206 3.44516 0
M  V30 3121 H 285.312 -2.37902 2.92716 0
M  V30 3122 H 287.699 -2.21598 1.9488 0
M  V30 3123 H 287.78 -0.536898 2.50102 0
M  V30 3124 H 287.424 -1.3325 4.90109 0
M  V30 3125 H 287.354 -3.0144 4.31789 0
M  V30 3126 H 289.845 -1.81991 3.31191 0
M  V30 3127 H 290.158 -3.16149 7.05174 0
M  V30 3128 H 288.503 -2.84955 6.33897 0
M  V30 3129 H 291.694 -2.18009 4.14234 0
M  V30 3130 H 291.867 -2.79207 5.84763 0
M  V30 3131 N 285.273 -1.31445 -0.869486 0
M  V30 3132 C 286.22 -1.19135 -1.97675 0
M  V30 3133 C 287.19 -0.0770266 -1.65921 0
M  V30 3134 O 288.375 -0.249972 -1.89155 0
M  V30 3135 C 285.515 -0.905149 -3.33018 0
M  V30 3136 C 284.628 -2.10285 -3.77365 0
M  V30 3137 C 283.763 -1.75339 -5.01427 0
M  V30 3138 C 282.802 -2.91515 -5.38224 0
M  V30 3139 N 281.939 -2.56762 -6.53466 0
M  V30 3140 H 286.779 -2.13853 -2.07535 0
M  V30 3141 H 284.316 -1.06379 -1.01597 0
M  V30 3142 H 286.274 -0.719765 -4.10944 0
M  V30 3143 H 284.904 0.00519624 -3.228 0
M  V30 3144 H 283.956 -2.39899 -2.95216 0
M  V30 3145 H 285.268 -2.97237 -4.00564 0
M  V30 3146 H 284.422 -1.53266 -5.87022 0
M  V30 3147 H 283.161 -0.855801 -4.80133 0
M  V30 3148 H 282.166 -3.14237 -4.51149 0
M  V30 3149 H 283.391 -3.81985 -5.61484 0
M  V30 3150 H 281.337 -1.69526 -6.33717 0
M  V30 3151 H 281.254 -3.37243 -6.76612 0
M  V30 3152 H 282.522 -2.38083 -7.42251 0
M  V30 3153 N 286.751 1.08385 -1.14413 0
M  V30 3154 C 287.714 2.13486 -0.834048 0
M  V30 3155 C 288.714 1.59988 0.161418 0
M  V30 3156 O 289.904 1.74071 -0.0669575 0
M  V30 3157 C 287.036 3.4003 -0.243354 0
M  V30 3158 H 288.229 2.42425 -1.7655 0
M  V30 3159 H 285.782 1.24101 -0.950189 0
M  V30 3160 H 286.517 3.16726 0.696807 0
M  V30 3161 H 286.302 3.80157 -0.960367 0
M  V30 3162 H 287.792 4.17577 -0.0436242 0
M  V30 3163 N 288.23 0.939286 1.26551 0
M  V30 3164 C 289.193 0.451987 2.24699 0
M  V30 3165 C 290.193 -0.435869 1.5478 0
M  V30 3166 O 291.383 -0.235314 1.72603 0
M  V30 3167 C 288.515 -0.348801 3.39111 0
M  V30 3168 H 289.708 1.3193 2.69322 0
M  V30 3169 H 287.261 0.721072 1.38673 0
M  V30 3170 H 287.996 -1.23444 2.99887 0
M  V30 3171 H 287.781 0.287945 3.91041 0
M  V30 3172 H 289.271 -0.679726 4.12031 0
M  V30 3173 N 289.708 -1.40897 0.706093 0
M  V30 3174 C 290.955 -2.01054 0.241531 0
M  V30 3175 C 291.283 -1.55956 -1.16223 0
M  V30 3176 O 290.538 -0.766336 -1.80072 0
M  V30 3177 C 290.837 -3.5646 0.259099 0
M  V30 3178 C 290.503 -4.21106 1.61184 0
M  V30 3179 C 289.165 -4.38479 1.98216 0
M  V30 3180 C 291.517 -4.57256 2.50132 0
M  V30 3181 C 288.845 -4.89282 3.2376 0
M  V30 3182 C 291.197 -5.09454 3.7502 0
M  V30 3183 C 289.861 -5.25037 4.12181 0
M  V30 3184 H 289.131 -0.73571 0.0883825 0
M  V30 3185 H 291.778 -1.68645 0.907257 0
M  V30 3186 H 290.083 -3.88721 -0.490189 0
M  V30 3187 H 291.78 -4.00826 -0.11804 0
M  V30 3188 H 288.37 -4.07966 1.31384 0
M  V30 3189 H 292.554 -4.43479 2.228 0
M  V30 3190 H 287.81 -4.99531 3.52532 0
M  V30 3191 H 291.984 -5.36404 4.44121 0
M  V30 3192 H 289.611 -5.64164 5.09532 0
M  V30 3193 N 291.186 -0.45159 -1.50991 0
M  V30 3194 C 292.133 0.352625 -2.2809 0
M  V30 3195 C 293.103 1.0044 -1.32291 0
M  V30 3196 O 294.288 1.02058 -1.6121 0
M  V30 3197 C 291.428 1.43983 -3.13629 0
M  V30 3198 C 290.541 0.804772 -4.24438 0
M  V30 3199 C 289.676 1.86822 -4.97263 0
M  V30 3200 C 288.715 1.21236 -5.99973 0
M  V30 3201 N 287.852 2.2178 -6.66152 0
M  V30 3202 H 292.692 -0.311186 -2.96371 0
M  V30 3203 H 290.229 -0.165308 -1.46168 0
M  V30 3204 H 292.187 2.08161 -3.61559 0
M  V30 3205 H 290.817 2.07307 -2.47434 0
M  V30 3206 H 289.869 0.0509129 -3.80366 0
M  V30 3207 H 291.181 0.286076 -4.97979 0
M  V30 3208 H 290.335 2.58628 -5.48813 0
M  V30 3209 H 289.074 2.42068 -4.23385 0
M  V30 3210 H 288.079 0.479828 -5.47702 0
M  V30 3211 H 289.304 0.667051 -6.75816 0
M  V30 3212 H 287.25 2.76079 -5.95077 0
M  V30 3213 H 287.167 1.74841 -7.35504 0
M  V30 3214 H 288.435 2.93026 -7.22327 0
M  V30 3215 N 292.664 1.56529 -0.183458 0
M  V30 3216 C 293.912 1.96855 0.457452 0
M  V30 3217 C 294.233 1.07104 1.62953 0
M  V30 3218 O 293.503 0.139887 1.954 0
M  V30 3219 H 292.083 0.72693 0.171992 0
M  V30 3220 H 294.745 1.93056 -0.267476 0
M  V30 3221 H 293.841 3.01423 0.809368 0
M  V30 3222 N 294.142 -0.090211 1.57342 0
M  V30 3223 C 295.419 -0.824761 1.77361 0
M  V30 3224 C 295.799 -1.96698 0.76637 0
M  V30 3225 O 295.147 -2.27586 -0.204179 0
M  V30 3226 C 295.357 -1.31481 3.23286 0
M  V30 3227 C 296.705 -1.75563 3.86604 0
M  V30 3228 O 297.729 -1.41093 3.27065 0
M  V30 3229 O 296.588 -2.39317 4.91314 0
M  V30 3230 H 293.682 -0.393776 0.727234 0
M  V30 3231 H 296.228 -0.0717138 1.69548 0
M  V30 3232 H 295 -0.496671 3.88135 0
M  V30 3233 H 294.623 -2.12973 3.35751 0
M  V30 3234 N 295.62 -1.53406 -0.361157 0
M  V30 3235 C 296.845 -1.74024 -1.12829 0
M  V30 3236 C 297.27 -0.470069 -1.82132 0
M  V30 3237 O 296.628 0.57619 -1.719 0
M  V30 3238 C 296.676 -2.90903 -2.13091 0
M  V30 3239 O 295.78 -2.59821 -3.20261 0
M  V30 3240 H 295.121 -0.577804 -0.327168 0
M  V30 3241 H 297.651 -2.00307 -0.41693 0
M  V30 3242 H 297.661 -3.17194 -2.56616 0
M  V30 3243 H 296.336 -3.83034 -1.62042 0
M  V30 3244 H 294.913 -2.44362 -2.81677 0
M  V30 3245 N 297.098 0.621204 -1.44841 0
M  V30 3246 C 298.346 1.37783 -1.47852 0
M  V30 3247 C 298.667 1.94653 -0.116224 0
M  V30 3248 O 297.937 1.76367 0.852737 0
M  V30 3249 H 296.517 0.511453 -0.544449 0
M  V30 3250 H 299.179 0.730446 -1.80694 0
M  V30 3251 H 298.275 2.20414 -2.20961 0
M  V30 3252 N 298.576 1.31904 0.862503 0
M  V30 3253 C 299.824 1.21776 1.61292 0
M  V30 3254 C 300.145 -0.222413 1.93727 0
M  V30 3255 O 299.415 -1.1451 1.58947 0
M  V30 3256 H 297.995 0.447717 0.597962 0
M  V30 3257 H 300.657 1.65326 1.03215 0
M  V30 3258 H 299.753 1.7948 2.5533 0
M  V30 3259 N 300.054 -1.07777 1.14986 0
M  V30 3260 C 301.465 -1.61766 0.932127 0
M  V30 3261 C 301.816 -1.88974 -0.527581 0
M  V30 3262 O 300.941 -1.65198 -1.39781 0
M  V30 3263 C 301.536 -2.93891 1.68563 0
M  V30 3264 C 300.095 -3.44639 1.5133 0
M  V30 3265 C 299.242 -2.18767 1.704 0
M  V30 3266 H 302.193 -0.909201 1.30074 0
M  V30 3267 H 302.214 -3.62623 1.15259 0
M  V30 3268 H 301.726 -2.74057 2.74799 0
M  V30 3269 H 299.827 -3.69564 0.474702 0
M  V30 3270 H 299.94 -4.20966 2.28746 0
M  V30 3271 H 298.304 -2.28253 1.13016 0
M  V30 3272 H 299.087 -2.01433 2.77992 0
M  V30 3273 N 301.532 -0.945985 -1.26051 0
M  V30 3274 C 302.462 -0.477172 -2.28572 0
M  V30 3275 C 303.443 0.472032 -1.63419 0
M  V30 3276 O 304.628 0.372853 -1.90587 0
M  V30 3277 C 301.758 0.253975 -3.4637 0
M  V30 3278 C 300.712 -0.609135 -4.23643 0
M  V30 3279 C 300.038 0.252252 -5.34105 0
M  V30 3280 C 301.338 -1.8829 -4.8718 0
M  V30 3281 H 303.032 -1.33402 -2.68038 0
M  V30 3282 H 300.578 -0.642904 -1.28852 0
M  V30 3283 H 302.531 0.593016 -4.17207 0
M  V30 3284 H 301.255 1.145 -3.05871 0
M  V30 3285 H 299.914 -0.931138 -3.54578 0
M  V30 3286 H 299.562 1.14278 -4.89846 0
M  V30 3287 H 299.262 -0.32188 -5.86718 0
M  V30 3288 H 300.786 0.586454 -6.07777 0
M  V30 3289 H 302.2 -1.61081 -5.50205 0
M  V30 3290 H 300.597 -2.40199 -5.49931 0
M  V30 3291 H 301.667 -2.59134 -4.09851 0
M  V30 3292 N 303.011 1.40521 -0.713556 0
M  V30 3293 C 303.941 2.33381 -0.0743864 0
M  V30 3294 C 304.922 1.52784 0.747735 0
M  V30 3295 O 306.107 1.81258 0.697071 0
M  V30 3296 C 303.237 3.36748 0.849598 0
M  V30 3297 C 302.191 4.27793 0.133247 0
M  V30 3298 C 301.517 5.21679 1.17281 0
M  V30 3299 C 302.817 5.12415 -1.01134 0
M  V30 3300 H 304.511 2.87081 -0.850007 0
M  V30 3301 H 302.057 1.38034 -0.410201 0
M  V30 3302 H 304.01 4.00648 1.30612 0
M  V30 3303 H 302.734 2.81439 1.65709 0
M  V30 3304 H 301.393 3.65342 -0.303426 0
M  V30 3305 H 301.041 4.62677 1.9733 0
M  V30 3306 H 300.741 5.83435 0.698397 0
M  V30 3307 H 302.265 5.88456 1.62947 0
M  V30 3308 H 303.679 5.69781 -0.634274 0
M  V30 3309 H 302.076 5.83203 -1.41399 0
M  V30 3310 H 303.146 4.48514 -1.84292 0
M  V30 3311 N 304.489 0.459591 1.5075 0
M  V30 3312 C 305.729 -0.09824 2.04164 0
M  V30 3313 C 306.093 -1.3801 1.33481 0
M  V30 3314 O 307.294 -2.01959 1.77387 0
M  V30 3315 C 305.565 -0.289467 3.56226 0
M  V30 3316 S 307.124 -0.807507 4.31306 0
M  V30 3317 H 303.942 -0.0213845 0.710678 0
M  V30 3318 H 306.544 0.624098 1.85271 0
M  V30 3319 H 305.248 0.649461 4.05229 0
M  V30 3320 H 304.779 -1.03825 3.79452 0
M  V30 3321 H 306.794 -2.0824 4.50389 0
M  V30 3322 N 305.967 -1.56429 0.191757 0
M  V30 3323 C 306.915 -2.20273 -0.747174 0
M  V30 3324 C 307.909 -1.17288 -1.22229 0
M  V30 3325 O 309.115 -1.35441 -1.18557 0
M  V30 3326 H 305.49 -0.705885 -0.259289 0
M  V30 3327 H 307.461 -2.97826 -0.184963 0
M  V30 3328 C 306.21 -2.87356 -1.95759 0
M  V30 3329 H 305.533 -3.66341 -1.60106 0
M  V30 3330 H 306.973 -3.3547 -2.59299 0
M  V30 3331 C 305.432 -1.88213 -2.79423 0
M  V30 3332 O 305.962 -1.38033 -3.7724 0
M  V30 3333 N 304.168 -1.56516 -2.44849 0
M  V30 3334 H 303.715 -1.97516 -1.65364 0
M  V30 3335 H 303.673 -0.904369 -3.01112 0
M  V30 3336 N 307.445 0.0818655 -1.57387 0
M  V30 3337 C 308.393 1.11712 -2.04018 0
M  V30 3338 C 309.387 1.40683 -0.94364 0
M  V30 3339 O 310.593 1.40209 -1.12878 0
M  V30 3340 H 306.968 0.377542 -0.650358 0
M  V30 3341 H 308.939 0.697614 -2.90131 0
M  V30 3342 C 307.688 2.42537 -2.49141 0
M  V30 3343 H 307.011 2.21092 -3.33104 0
M  V30 3344 H 308.451 3.13446 -2.85531 0
M  V30 3345 C 306.91 3.0778 -1.37014 0
M  V30 3346 O 307.44 3.95436 -0.706621 0
M  V30 3347 N 305.646 2.68242 -1.11779 0
M  V30 3348 H 305.193 1.97052 -1.65917 0
M  V30 3349 H 305.151 3.1222 -0.369594 0
M  V30 3350 N 308.923 1.53595 0.353017 0
M  V30 3351 C 310.169 1.70638 1.09593 0
M  V30 3352 C 310.502 0.463286 1.88593 0
M  V30 3353 O 309.777 -0.539597 1.86865 0
M  V30 3354 C 310.06 2.96406 2.04489 0
M  V30 3355 C 309.913 4.30901 1.29014 0
M  V30 3356 C 311.232 3.17812 3.0444 0
M  V30 3357 H 308.351 0.620913 0.397034 0
M  V30 3358 H 310.993 1.86254 0.375446 0
M  V30 3359 H 309.143 2.83223 2.65927 0
M  V30 3360 H 310.815 4.55917 0.702638 0
M  V30 3361 H 309.058 4.29741 0.592071 0
M  V30 3362 H 309.729 5.1506 1.98537 0
M  V30 3363 H 312.205 3.30263 2.53112 0
M  V30 3364 H 311.081 4.07223 3.6805 0
M  V30 3365 H 311.342 2.33669 3.75301 0
M  V30 3366 N 310.401 -0.613514 1.45168 0
M  V30 3367 C 311.364 -1.7065 1.53007 0
M  V30 3368 C 312.364 -1.5548 0.410184 0
M  V30 3369 O 313.554 -1.60656 0.673455 0
M  V30 3370 C 310.686 -3.09875 1.42093 0
M  V30 3371 H 311.879 -1.65068 2.50385 0
M  V30 3372 H 309.432 -0.828728 1.32521 0
M  V30 3373 H 310.167 -3.21039 0.458769 0
M  V30 3374 H 309.952 -3.22293 2.23315 0
M  V30 3375 H 311.442 -3.895 1.50598 0
M  V30 3376 N 311.879 -1.3236 -0.855495 0
M  V30 3377 C 312.829 -1.17809 -1.95205 0
M  V30 3378 C 313.813 -0.0852319 -1.60674 0
M  V30 3379 O 315.005 -0.311651 -1.74235 0
M  V30 3380 C 312.134 -0.902437 -3.31226 0
M  V30 3381 C 311.22 -2.03695 -3.7198 0
M  V30 3382 N 311.611 -3.28544 -3.84568 0
M  V30 3383 C 309.909 -1.93993 -4.016 0
M  V30 3384 C 310.61 -4.02847 -4.19629 0
M  V30 3385 N 309.586 -3.31138 -4.31102 0
M  V30 3386 H 313.388 -2.12462 -2.0307 0
M  V30 3387 H 310.902 -1.24127 -1.0472 0
M  V30 3388 H 312.899 -0.77915 -4.09554 0
M  V30 3389 H 311.559 0.0357267 -3.2468 0
M  V30 3390 H 312.57 -3.6349 -3.68911 0
M  V30 3391 H 309.247 -1.07733 -4.03361 0
M  V30 3392 H 310.637 -5.10506 -4.36845 0
M  V30 3393 N 313.357 1.07166 -1.15556 0
M  V30 3394 C 314.605 1.79443 -0.929764 0
M  V30 3395 C 314.926 1.87246 0.544414 0
M  V30 3396 O 314.196 1.37473 1.39564 0
M  V30 3397 H 312.776 0.664625 -0.341003 0
M  V30 3398 H 315.438 1.29499 -1.45657 0
M  V30 3399 H 314.534 2.81832 -1.34079 0
M  V30 3400 N 314.835 0.952656 1.25548 0
M  V30 3401 C 316.084 0.602053 1.92505 0
M  V30 3402 C 316.397 -0.864663 1.75451 0
M  V30 3403 O 317.603 -1.32514 2.36965 0
M  V30 3404 C 316.059 1.02607 3.44963 0
M  V30 3405 C 315.667 2.51519 3.70732 0
M  V30 3406 C 317.411 0.747905 4.1786 0
M  V30 3407 C 315.318 2.87732 5.16686 0
M  V30 3408 H 314.248 0.22146 0.720744 0
M  V30 3409 H 316.899 1.15684 1.42441 0
M  V30 3410 H 315.281 0.399712 3.93978 0
M  V30 3411 H 316.455 3.19157 3.32378 0
M  V30 3412 H 314.77 2.76786 3.11092 0
M  V30 3413 H 317.367 0.994647 5.25367 0
M  V30 3414 H 317.71 -0.315629 4.15102 0
M  V30 3415 H 318.243 1.33452 3.74747 0
M  V30 3416 H 314.982 3.93095 5.24554 0
M  V30 3417 H 314.502 2.24765 5.56094 0
M  V30 3418 H 316.181 2.76817 5.84792 0
M  V30 3419 N 316.313 -1.40141 0.720998 0
M  V30 3420 C 317.559 -2.01084 0.263231 0
M  V30 3421 C 317.892 -1.57052 -1.14229 0
M  V30 3422 O 317.167 -0.793027 -1.77599 0
M  V30 3423 C 317.45 -3.58401 0.349344 0
M  V30 3424 C 317.303 -4.12491 1.79363 0
M  V30 3425 C 318.622 -4.39231 -0.276351 0
M  V30 3426 H 315.741 -0.730572 0.0971228 0
M  V30 3427 H 318.383 -1.66543 0.914518 0
M  V30 3428 H 316.533 -3.87958 -0.205165 0
M  V30 3429 H 318.205 -3.93711 2.40394 0
M  V30 3430 H 316.448 -3.66576 2.31958 0
M  V30 3431 H 317.119 -5.21646 1.80524 0
M  V30 3432 H 319.595 -4.15637 0.196184 0
M  V30 3433 H 318.471 -5.48586 -0.185681 0
M  V30 3434 H 318.732 -4.20643 -1.36059 0
M  V30 3435 N 317.792 -0.46758 -1.50504 0
M  V30 3436 C 319.017 0.0886943 -2.0721 0
M  V30 3437 C 319.442 1.33057 -1.32956 0
M  V30 3438 O 318.8 1.77354 -0.376197 0
M  V30 3439 C 318.848 0.359202 -3.58806 0
M  V30 3440 O 317.952 1.44034 -3.8643 0
M  V30 3441 H 317.293 -0.0114349 -0.663902 0
M  V30 3442 H 319.823 -0.657613 -1.93744 0
M  V30 3443 H 319.833 0.600742 -4.03553 0
M  V30 3444 H 318.508 -0.548311 -4.1227 0
M  V30 3445 H 317.085 1.18638 -3.53524 0
M  V30 3446 N 319.27 1.56325 -0.20005 0
M  V30 3447 C 320.5 2.01811 0.442232 0
M  V30 3448 C 320.908 1.07932 1.55394 0
M  V30 3449 O 320.251 0.0772685 1.83537 0
M  V30 3450 C 320.313 3.43685 1.05457 0
M  V30 3451 C 319.977 4.56928 0.0809833 0
M  V30 3452 C 320.974 5.15009 -0.711471 0
M  V30 3453 C 318.659 5.0229 -0.0315364 0
M  V30 3454 C 320.653 6.16904 -1.60336 0
M  V30 3455 C 318.34 6.04028 -0.926981 0
M  V30 3456 C 319.338 6.6121 -1.71146 0
M  V30 3457 O 319.026 7.60971 -2.59189 0
M  V30 3458 H 318.758 0.666173 0.114848 0
M  V30 3459 H 321.312 2.03085 -0.307511 0
M  V30 3460 H 319.542 3.39413 1.85299 0
M  V30 3461 H 321.231 3.72948 1.60201 0
M  V30 3462 H 321.997 4.80827 -0.634873 0
M  V30 3463 H 317.876 4.57476 0.568902 0
M  V30 3464 H 321.42 6.61464 -2.21611 0
M  V30 3465 H 317.317 6.37634 -1.00468 0
M  V30 3466 H 318.085 7.7841 -2.53023 0
M  V30 3467 N 320.748 -0.0735177 1.57428 0
M  V30 3468 C 321.996 -0.771472 1.86796 0
M  V30 3469 C 322.317 -1.78201 0.791804 0
M  V30 3470 O 321.587 -1.95074 -0.179718 0
M  V30 3471 H 320.167 -0.28791 0.689287 0
M  V30 3472 H 322.829 -0.0500161 1.94836 0
M  V30 3473 H 321.925 -1.28874 2.8425 0
M  V30 3474 N 322.226 -1.5378 -0.344866 0
M  V30 3475 C 323.173 -1.81676 -1.42346 0
M  V30 3476 C 324.143 -0.662376 -1.52321 0
M  V30 3477 O 325.328 -0.906675 -1.67881 0
M  V30 3478 C 322.468 -2.03087 -2.79015 0
M  V30 3479 C 321.581 -3.30799 -2.77842 0
M  V30 3480 C 320.716 -3.42285 -4.0622 0
M  V30 3481 C 319.755 -4.6395 -3.9927 0
M  V30 3482 N 318.892 -4.72477 -5.19336 0
M  V30 3483 H 323.732 -2.73703 -1.17858 0
M  V30 3484 H 321.269 -1.35568 -0.570949 0
M  V30 3485 H 323.227 -2.1349 -3.58438 0
M  V30 3486 H 321.857 -1.14375 -3.01858 0
M  V30 3487 H 320.909 -3.29244 -1.90533 0
M  V30 3488 H 322.221 -4.20314 -2.68584 0
M  V30 3489 H 321.375 -3.52113 -4.94066 0
M  V30 3490 H 320.114 -2.50823 -4.18258 0
M  V30 3491 H 319.119 -4.54201 -3.09809 0
M  V30 3492 H 320.344 -5.56775 -3.88817 0
M  V30 3493 H 318.29 -3.83924 -5.3192 0
M  V30 3494 H 318.207 -5.55927 -5.12329 0
M  V30 3495 H 319.475 -4.86613 -6.08957 0
M  V30 3496 N 323.704 0.605807 -1.45491 0
M  V30 3497 C 324.929 1.39625 -1.53361 0
M  V30 3498 C 325.354 1.87351 -0.167645 0
M  V30 3499 O 324.712 1.60243 0.848051 0
M  V30 3500 C 324.76 2.57559 -2.5238 0
M  V30 3501 O 323.864 3.58248 -2.04285 0
M  V30 3502 H 323.205 0.416771 -0.516912 0
M  V30 3503 H 325.735 0.737103 -1.90861 0
M  V30 3504 H 325.745 3.0478 -2.71244 0
M  V30 3505 H 324.42 2.22171 -3.51586 0
M  V30 3506 H 322.997 3.17664 -1.95305 0
M  V30 3507 N 325.182 1.32811 0.848464 0
M  V30 3508 C 326.407 1.26882 1.6406 0
M  V30 3509 C 326.832 -0.15913 1.87426 0
M  V30 3510 O 326.19 -1.11258 1.43148 0
M  V30 3511 C 326.238 2.03997 2.97351 0
M  V30 3512 O 325.342 1.39201 3.88197 0
M  V30 3513 H 324.683 0.436982 0.499943 0
M  V30 3514 H 327.213 1.75224 1.0563 0
M  V30 3515 H 327.223 2.14403 3.47124 0
M  V30 3516 H 325.898 3.0783 2.79666 0
M  V30 3517 H 324.475 1.37381 3.46671 0
M  V30 3518 N 326.66 -1.06551 1.16123 0
M  V30 3519 C 327.908 -1.78947 0.939267 0
M  V30 3520 C 328.229 -1.87532 -0.534476 0
M  V30 3521 O 327.499 -1.38211 -1.38833 0
M  V30 3522 H 326.079 -0.662807 0.344523 0
M  V30 3523 H 328.741 -1.28725 1.46342 0
M  V30 3524 H 327.837 -2.81117 1.35572 0
M  V30 3525 N 328.138 -0.959301 -1.25041 0
M  V30 3526 C 329.384 -0.617525 -1.9317 0
M  V30 3527 C 329.717 0.843981 -1.74902 0
M  V30 3528 O 328.992 1.60615 -1.09696 0
M  V30 3529 C 329.275 -0.982736 -3.46431 0
M  V30 3530 C 329.128 -2.50032 -3.73904 0
M  V30 3531 C 330.447 -0.511176 -4.37121 0
M  V30 3532 H 327.566 -0.22582 -0.701552 0
M  V30 3533 H 330.208 -1.19679 -1.4757 0
M  V30 3534 H 328.358 -0.489806 -3.854 0
M  V30 3535 H 330.03 -3.06737 -3.44544 0
M  V30 3536 H 328.273 -2.93598 -3.19348 0
M  V30 3537 H 328.944 -2.70635 -4.81103 0
M  V30 3538 H 331.42 -0.934075 -4.0548 0
M  V30 3539 H 330.296 -0.795361 -5.43107 0
M  V30 3540 H 330.557 0.588834 -4.38161 0
M  V30 3541 N 329.616 1.39756 -0.72842 0
M  V30 3542 C 331.027 1.83498 -0.344289 0
M  V30 3543 C 331.378 1.60868 1.12321 0
M  V30 3544 O 330.503 1.09634 1.86573 0
M  V30 3545 C 331.098 3.33114 -0.618112 0
M  V30 3546 C 329.657 3.753 -0.287549 0
M  V30 3547 C 328.804 2.62831 -0.884048 0
M  V30 3548 H 331.755 1.28842 -0.926578 0
M  V30 3549 H 331.776 3.80334 0.112349 0
M  V30 3550 H 331.288 3.49553 -1.68625 0
M  V30 3551 H 329.389 3.64451 0.775012 0
M  V30 3552 H 329.502 4.72945 -0.765512 0
M  V30 3553 H 327.866 2.52792 -0.311149 0
M  V30 3554 H 328.649 2.82078 -1.95671 0
M  V30 3555 N 331.094 0.475555 1.50254 0
M  V30 3556 C 332.505 0.0215174 1.86688 0
M  V30 3557 C 332.856 -1.38467 1.39001 0
M  V30 3558 O 331.981 -2.02732 0.756894 0
M  V30 3559 C 332.576 0.0322715 3.38785 0
M  V30 3560 C 331.135 -0.366314 3.74613 0
M  V30 3561 C 330.282 0.415832 2.74164 0
M  V30 3562 H 333.233 0.689612 1.42934 0
M  V30 3563 H 333.254 -0.76889 3.7265 0
M  V30 3564 H 332.766 1.05584 3.73462 0
M  V30 3565 H 330.867 -1.39406 3.45538 0
M  V30 3566 H 330.98 -0.064555 4.79057 0
M  V30 3567 H 329.344 -0.131048 2.54363 0
M  V30 3568 H 330.127 1.43899 3.11686 0
M  V30 3569 N 332.573 -1.56217 0.208337 0
M  V30 3570 C 333.483 -2.23316 -0.718836 0
M  V30 3571 C 334.499 -1.23648 -1.22422 0
M  V30 3572 O 335.675 -1.56423 -1.26861 0
M  V30 3573 C 332.74 -2.88968 -1.91568 0
M  V30 3574 C 331.801 -4.03943 -1.45357 0
M  V30 3575 C 331.034 -4.66455 -2.59337 0
M  V30 3576 O 331.257 -4.27919 -3.77149 0
M  V30 3577 O 330.191 -5.55686 -2.31293 0
M  V30 3578 H 334.017 -3.03182 -0.177315 0
M  V30 3579 H 331.602 -1.49384 -0.0215402 0
M  V30 3580 H 333.484 -3.30455 -2.61491 0
M  V30 3581 H 332.159 -2.12071 -2.44556 0
M  V30 3582 H 331.066 -3.67052 -0.722746 0
M  V30 3583 H 332.399 -4.82543 -0.970219 0
M  V30 3584 N 334.051 0.0651679 -1.57465 0
M  V30 3585 C 335.297 0.764193 -1.87851 0
M  V30 3586 C 335.63 1.76889 -0.801495 0
M  V30 3587 O 334.905 1.93594 0.187528 0
M  V30 3588 C 335.188 1.46625 -3.28897 0
M  V30 3589 C 335.041 0.477515 -4.47258 0
M  V30 3590 C 336.36 2.4095 -3.68281 0
M  V30 3591 H 333.479 0.276351 -0.683227 0
M  V30 3592 H 336.121 0.0272868 -1.8998 0
M  V30 3593 H 334.271 2.09438 -3.27212 0
M  V30 3594 H 335.943 -0.145922 -4.61069 0
M  V30 3595 H 334.186 -0.206576 -4.33308 0
M  V30 3596 H 334.857 1.0065 -5.42746 0
M  V30 3597 H 337.333 1.88209 -3.71102 0
M  V30 3598 H 336.209 2.87072 -4.67847 0
M  V30 3599 H 336.47 3.26049 -2.98571 0
M  V30 3600 N 335.529 1.53961 0.336706 0
M  V30 3601 C 336.776 1.71536 1.07618 0
M  V30 3602 C 337.104 0.482125 1.8843 0
M  V30 3603 O 336.359 -0.536142 1.88213 0
M  V30 3604 C 336.658 2.93493 2.03953 0
M  V30 3605 C 336.324 4.28811 1.39399 0
M  V30 3606 C 334.986 4.65602 1.21523 0
M  V30 3607 C 337.338 5.12844 0.929541 0
M  V30 3608 C 334.666 5.84037 0.558312 0
M  V30 3609 C 337.018 6.31951 0.286505 0
M  V30 3610 C 335.682 6.67432 0.0954869 0
M  V30 3611 H 334.952 0.627696 0.393801 0
M  V30 3612 H 337.599 1.88186 0.354715 0
M  V30 3613 H 335.904 2.71475 2.82504 0
M  V30 3614 H 337.601 3.04285 2.61174 0
M  V30 3615 H 334.191 3.99858 1.54311 0
M  V30 3616 H 338.375 4.84947 1.05548 0
M  V30 3617 H 333.631 6.10097 0.398995 0
M  V30 3618 H 337.805 6.96352 -0.0814376 0
M  V30 3619 H 335.432 7.59063 -0.415579 0
M  V30 3620 N 337.007 -0.598083 1.45811 0
M  V30 3621 C 338.235 -1.38322 1.53866 0
M  V30 3622 C 338.65 -1.87992 0.174479 0
M  V30 3623 O 338.007 -1.62756 -0.825627 0
M  V30 3624 C 338.058 -2.58125 2.53089 0
M  V30 3625 O 337.779 -2.10516 3.84206 0
M  V30 3626 C 339.28 -3.50869 2.70935 0
M  V30 3627 H 336.5 -0.423093 0.520801 0
M  V30 3628 H 339.044 -0.728527 1.91083 0
M  V30 3629 H 337.199 -3.19615 2.18917 0
M  V30 3630 H 337.613 -2.88425 4.38077 0
M  V30 3631 H 339.087 -4.31451 3.44317 0
M  V30 3632 H 339.564 -4.01822 1.77301 0
M  V30 3633 H 340.17 -2.95225 3.06141 0
M  V30 3634 N 338.485 -1.33259 -0.841409 0
M  V30 3635 C 339.901 -1.12538 -1.13169 0
M  V30 3636 C 340.101 0.0854037 -2.01319 0
M  V30 3637 O 339.157 0.766417 -2.40587 0
M  V30 3638 C 340.47 -2.41156 -1.79623 0
M  V30 3639 C 342.018 -2.47038 -1.922 0
M  V30 3640 C 342.493 -3.7561 -2.6207 0
M  V30 3641 N 343.984 -3.76667 -2.69585 0
M  V30 3642 C 344.719 -4.72861 -3.2433 0
M  V30 3643 N 344.215 -5.79428 -3.79783 0
M  V30 3644 N 346.008 -4.6034 -3.22558 0
M  V30 3645 H 338.159 -2.10868 -0.254676 0
M  V30 3646 H 340.422 -0.931615 -0.175493 0
M  V30 3647 H 340.128 -3.29747 -1.22311 0
M  V30 3648 H 340.002 -2.53114 -2.79666 0
M  V30 3649 H 342.389 -1.58898 -2.48667 0
M  V30 3650 H 342.47 -2.39022 -0.911148 0
M  V30 3651 H 342.114 -4.64131 -2.06263 0
M  V30 3652 H 342.044 -3.80902 -3.63622 0
M  V30 3653 H 344.535 -2.99648 -2.30259 0
M  V30 3654 H 344.848 -6.48867 -4.19752 0
M  V30 3655 H 343.193 -5.83166 -3.78078 0
M  V30 3656 H 346.384 -3.76244 -2.78492 0
M  V30 3657 H 346.557 -5.35478 -3.64921 0
M  V30 3658 N 339.963 1.05934 -1.16686 0
M  V30 3659 C 341.209 1.79065 -0.95203 0
M  V30 3660 C 341.542 1.87147 0.518629 0
M  V30 3661 O 340.817 1.36574 1.38484 0
M  V30 3662 C 341.1 3.23359 -1.58464 0
M  V30 3663 C 340.953 3.23336 -3.12689 0
M  V30 3664 C 342.272 4.21004 -1.28232 0
M  V30 3665 H 339.391 0.65005 -0.34728 0
M  V30 3666 H 342.033 1.23868 -1.44072 0
M  V30 3667 H 340.183 3.70493 -1.16908 0
M  V30 3668 H 341.855 2.84336 -3.6325 0
M  V30 3669 H 340.098 2.61886 -3.4583 0
M  V30 3670 H 340.769 4.25144 -3.52075 0
M  V30 3671 H 343.245 3.8233 -1.64203 0
M  V30 3672 H 342.121 5.20225 -1.75092 0
M  V30 3673 H 342.382 4.41639 -0.201791 0
M  V30 3674 N 341.441 0.965919 1.2453 0
M  V30 3675 C 342.666 0.643971 1.97149 0
M  V30 3676 C 343.091 -0.779487 1.71189 0
M  V30 3677 O 342.449 -1.5288 0.974553 0
M  V30 3678 C 342.497 0.922557 3.48599 0
M  V30 3679 O 341.601 0.00707672 4.12399 0
M  V30 3680 H 340.942 0.243647 0.617683 0
M  V30 3681 H 343.472 1.29558 1.58353 0
M  V30 3682 H 343.482 0.853373 3.98976 0
M  V30 3683 H 342.157 1.95996 3.66822 0
M  V30 3684 H 340.734 0.12943 3.72675 0
M  V30 3685 N 342.919 -1.39368 0.735821 0
M  V30 3686 C 344.144 -2.05319 0.293052 0
M  V30 3687 C 344.569 -1.55115 -1.064 0
M  V30 3688 O 343.927 -0.695261 -1.67439 0
M  V30 3689 C 343.975 -3.59305 0.305323 0
M  V30 3690 O 343.079 -4.06299 -0.706761 0
M  V30 3691 H 342.42 -0.650529 0.13307 0
M  V30 3692 H 344.95 -1.78386 1.00197 0
M  V30 3693 H 344.96 -4.07724 0.149997 0
M  V30 3694 H 343.635 -3.95207 1.29553 0
M  V30 3695 H 342.212 -3.69292 -0.517504 0
M  V30 3696 N 344.397 -0.483516 -1.5 0
M  V30 3697 C 345.644 0.0671597 -2.02389 0
M  V30 3698 C 345.972 1.38597 -1.36459 0
M  V30 3699 O 345.227 1.89634 -0.483458 0
M  V30 3700 C 345.526 0.286226 -3.56252 0
M  V30 3701 C 345.192 -0.952416 -4.40726 0
M  V30 3702 C 343.854 -1.29199 -4.63531 0
M  V30 3703 C 346.206 -1.77655 -4.89988 0
M  V30 3704 C 343.534 -2.45553 -5.32842 0
M  V30 3705 C 345.886 -2.93147 -5.60578 0
M  V30 3706 C 344.55 -3.27505 -5.81633 0
M  V30 3707 H 343.82 0.0245755 -0.740592 0
M  V30 3708 H 346.467 -0.640124 -1.80485 0
M  V30 3709 H 344.772 1.07587 -3.76739 0
M  V30 3710 H 346.469 0.726473 -3.94365 0
M  V30 3711 H 343.059 -0.677881 -4.23205 0
M  V30 3712 H 347.243 -1.52737 -4.72213 0
M  V30 3713 H 342.499 -2.72431 -5.47349 0
M  V30 3714 H 346.673 -3.57344 -5.97727 0
M  V30 3715 H 344.3 -4.1777 -6.35116 0
M  V30 3716 N 345.875 1.56104 -0.216619 0
M  V30 3717 C 346.805 2.23063 0.690296 0
M  V30 3718 C 347.786 1.20072 1.20485 0
M  V30 3719 O 348.971 1.48643 1.24976 0
M  V30 3720 C 346.101 2.90672 1.90072 0
M  V30 3721 C 345.055 4.00092 1.5202 0
M  V30 3722 C 344.381 4.54972 2.80899 0
M  V30 3723 C 345.681 5.17398 0.71391 0
M  V30 3724 H 347.375 2.99109 0.132038 0
M  V30 3725 H 344.921 1.43866 0.0620664 0
M  V30 3726 H 346.874 3.36204 2.54057 0
M  V30 3727 H 345.598 2.12066 2.48386 0
M  V30 3728 H 344.257 3.55283 0.903839 0
M  V30 3729 H 343.905 3.73102 3.37348 0
M  V30 3730 H 343.605 5.28817 2.56176 0
M  V30 3731 H 345.129 5.0322 3.45836 0
M  V30 3732 H 346.543 5.59342 1.25735 0
M  V30 3733 H 344.94 5.97444 0.563951 0
M  V30 3734 H 346.01 4.84088 -0.280527 0
M  V30 3735 N 347.353 -0.0568162 1.57498 0
M  V30 3736 C 348.764 -0.606858 1.76562 0
M  V30 3737 C 349.115 -1.77114 0.844094 0
M  V30 3738 O 348.24 -2.16376 0.0318911 0
M  V30 3739 C 348.835 -1.10766 3.20182 0
M  V30 3740 C 347.394 -1.60344 3.40539 0
M  V30 3741 C 346.541 -0.529311 2.72201 0
M  V30 3742 H 349.492 0.169393 1.57793 0
M  V30 3743 H 349.513 -1.97602 3.25167 0
M  V30 3744 H 349.025 -0.26006 3.87228 0
M  V30 3745 H 347.126 -2.47379 2.78629 0
M  V30 3746 H 347.239 -1.67006 4.4905 0
M  V30 3747 H 345.603 -0.977893 2.35179 0
M  V30 3748 H 346.386 0.308352 3.41912 0
M  V30 3749 N 348.832 -1.54138 -0.328536 0
M  V30 3750 C 350.078 -1.73297 -1.06488 0
M  V30 3751 C 350.433 -0.497958 -1.85844 0
M  V30 3752 O 349.726 0.509591 -1.84699 0
M  V30 3753 C 349.92 -2.9457 -2.02393 0
M  V30 3754 C 349.749 -4.29747 -1.32467 0
M  V30 3755 C 348.519 -4.93987 -1.06324 0
M  V30 3756 C 350.717 -5.08903 -0.743137 0
M  V30 3757 N 348.699 -6.13005 -0.331359 0
M  V30 3758 C 350.07 -6.19836 -0.142602 0
M  V30 3759 C 352.125 -4.93699 -0.64546 0
M  V30 3760 C 350.828 -7.17224 0.546125 0
M  V30 3761 C 352.854 -5.91393 0.0295558 0
M  V30 3762 C 352.216 -7.01674 0.619056 0
M  V30 3763 H 348.315 -0.687017 -0.373539 0
M  V30 3764 H 350.899 -1.91589 -0.346659 0
M  V30 3765 H 349.07 -2.77752 -2.71493 0
M  V30 3766 H 350.802 -3.0238 -2.68977 0
M  V30 3767 H 347.557 -4.53824 -1.35428 0
M  V30 3768 H 347.981 -6.76997 0.0202939 0
M  V30 3769 H 352.623 -4.08589 -1.08695 0
M  V30 3770 H 350.341 -8.01896 0.999459 0
M  V30 3771 H 353.927 -5.81706 0.104705 0
M  V30 3772 H 352.807 -7.75971 1.13309 0
M  V30 3773 N 350.31 0.590341 -1.46126 0
M  V30 3774 C 351.559 1.34499 -1.50309 0
M  V30 3775 C 351.872 1.94977 -0.156021 0
M  V30 3776 O 353.078 2.71395 -0.0756037 0
M  V30 3777 C 351.534 2.43723 -2.64815 0
M  V30 3778 C 351.142 1.89582 -4.0591 0
M  V30 3779 C 352.886 3.20579 -2.78262 0
M  V30 3780 C 350.793 2.9639 -5.11769 0
M  V30 3781 H 349.723 0.505593 -0.559368 0
M  V30 3782 H 352.374 0.630848 -1.72315 0
M  V30 3783 H 350.756 3.17902 -2.36124 0
M  V30 3784 H 351.93 1.21997 -4.44357 0
M  V30 3785 H 350.245 1.25418 -3.97063 0
M  V30 3786 H 352.842 4.00276 -3.54519 0
M  V30 3787 H 353.185 3.72684 -1.85505 0
M  V30 3788 H 353.718 2.53505 -3.06562 0
M  V30 3789 H 350.457 2.49181 -6.06291 0
M  V30 3790 H 349.977 3.62487 -4.77873 0
M  V30 3791 H 351.656 3.60474 -5.37278 0
M  V30 3792 N 351.788 1.33704 0.83433 0
M  V30 3793 C 353.204 1.13137 1.12571 0
M  V30 3794 C 353.404 -0.0747261 2.01361 0
M  V30 3795 O 352.46 -0.753647 2.4099 0
M  V30 3796 C 353.773 2.42105 1.78342 0
M  V30 3797 C 355.321 2.48054 1.90888 0
M  V30 3798 C 355.796 3.76995 2.60075 0
M  V30 3799 N 357.287 3.78092 2.67584 0
M  V30 3800 C 358.022 4.74574 3.21818 0
M  V30 3801 N 357.518 5.81434 3.76705 0
M  V30 3802 N 359.311 4.62044 3.20112 0
M  V30 3803 H 351.462 2.11 0.243489 0
M  V30 3804 H 353.725 0.932532 0.17055 0
M  V30 3805 H 353.431 3.30391 1.20561 0
M  V30 3806 H 353.305 2.54594 2.7832 0
M  V30 3807 H 355.692 1.60215 2.47821 0
M  V30 3808 H 355.773 2.39502 0.898459 0
M  V30 3809 H 355.417 4.65219 2.03799 0
M  V30 3810 H 355.347 3.82825 3.61597 0
M  V30 3811 H 357.838 3.00865 2.28667 0
M  V30 3812 H 358.151 6.51084 4.16305 0
M  V30 3813 H 356.496 5.85163 3.7498 0
M  V30 3814 H 359.687 3.77716 2.76493 0
M  V30 3815 H 359.86 5.37406 3.62076 0
M  V30 3816 N 353.266 -1.05314 1.17247 0
M  V30 3817 C 354.494 -1.81971 0.984593 0
M  V30 3818 C 354.909 -1.82929 -0.467166 0
M  V30 3819 O 354.266 -1.25564 -1.32438 0
M  V30 3820 C 354.317 -3.28143 1.51672 0
M  V30 3821 O 354.038 -3.27347 2.91163 0
M  V30 3822 C 355.539 -4.21493 1.37326 0
M  V30 3823 H 352.759 -0.573455 0.348411 0
M  V30 3824 H 355.303 -1.32808 1.55506 0
M  V30 3825 H 353.458 -3.74582 0.988302 0
M  V30 3826 H 353.872 -4.18824 3.15732 0
M  V30 3827 H 355.346 -5.22043 1.79375 0
M  V30 3828 H 355.823 -4.38031 0.320169 0
M  V30 3829 H 356.429 -3.80909 1.89178 0
M  V30 3830 N 354.744 -0.972509 -1.24016 0
M  V30 3831 C 355.972 -0.654803 -1.96265 0
M  V30 3832 C 356.387 0.776708 -1.72083 0
M  V30 3833 O 355.744 1.52171 -1.00748 0
M  V30 3834 C 355.795 -0.92592 -3.49441 0
M  V30 3835 O 355.516 -2.30116 -3.72798 0
M  V30 3836 C 357.017 -0.623068 -4.38899 0
M  V30 3837 H 354.237 -0.243907 -0.6251 0
M  V30 3838 H 356.781 -1.30175 -1.57717 0
M  V30 3839 H 354.936 -0.325108 -3.86033 0
M  V30 3840 H 355.35 -2.38483 -4.67147 0
M  V30 3841 H 356.824 -0.863189 -5.45209 0
M  V30 3842 H 357.301 0.442754 -4.36963 0
M  V30 3843 H 357.907 -1.204 -4.07902 0
M  V30 3844 N 356.222 1.38976 -0.743202 0
M  V30 3845 C 357.155 2.28128 -0.0572165 0
M  V30 3846 C 358.133 1.44827 0.739182 0
M  V30 3847 O 359.317 1.74207 0.720009 0
M  V30 3848 C 356.444 3.25796 0.926001 0
M  V30 3849 C 355.49 4.25947 0.217099 0
M  V30 3850 S 356.323 5.24604 -1.07477 0
M  V30 3851 C 357.479 6.25829 -0.0943545 0
M  V30 3852 H 357.712 2.85961 -0.813246 0
M  V30 3853 H 355.245 1.44822 -0.535341 0
M  V30 3854 H 357.203 3.82583 1.48797 0
M  V30 3855 H 355.864 2.66966 1.65493 0
M  V30 3856 H 355.057 4.94746 0.961372 0
M  V30 3857 H 354.659 3.73002 -0.273059 0
M  V30 3858 H 356.951 6.73411 0.743239 0
M  V30 3859 H 357.894 7.0412 -0.749713 0
M  V30 3860 H 358.302 5.63797 0.281706 0
M  V30 3861 N 357.7 0.491464 1.49741 0
M  V30 3862 C 359.116 0.146835 1.58923 0
M  V30 3863 C 359.316 -1.34804 1.49767 0
M  V30 3864 O 358.372 -2.12317 1.36667 0
M  V30 3865 C 359.685 0.715157 2.92072 0
M  V30 3866 C 361.233 0.680407 3.05515 0
M  V30 3867 C 361.708 1.22663 4.41269 0
M  V30 3868 N 363.199 1.18691 4.47735 0
M  V30 3869 C 363.934 1.57984 5.51207 0
M  V30 3870 N 363.43 2.04824 6.6183 0
M  V30 3871 N 365.223 1.49459 5.41866 0
M  V30 3872 H 357.374 1.46347 1.53936 0
M  V30 3873 H 359.637 0.606453 0.728642 0
M  V30 3874 H 359.343 1.76317 3.04311 0
M  V30 3875 H 359.217 0.17018 3.76816 0
M  V30 3876 H 361.604 -0.358743 2.92911 0
M  V30 3877 H 361.685 1.26242 2.22478 0
M  V30 3878 H 361.329 2.26451 4.54623 0
M  V30 3879 H 361.259 0.620637 5.2293 0
M  V30 3880 H 363.75 0.843605 3.68364 0
M  V30 3881 H 364.063 2.32901 7.3687 0
M  V30 3882 H 362.408 2.08791 6.62896 0
M  V30 3883 H 365.599 1.12692 4.54333 0
M  V30 3884 H 365.772 1.80406 6.22381 0
M  V30 3885 N 359.178 -1.55987 0.224894 0
M  V30 3886 C 360.403 -2.03232 -0.41369 0
M  V30 3887 C 360.828 -1.10359 -1.52323 0
M  V30 3888 O 360.186 -0.092395 -1.81064 0
M  V30 3889 C 360.234 -3.48682 -0.919405 0
M  V30 3890 O 359.338 -3.58947 -2.03054 0
M  V30 3891 H 358.679 -0.657428 -0.0931903 0
M  V30 3892 H 361.209 -2.01679 0.34451 0
M  V30 3893 H 361.219 -3.8907 -1.22835 0
M  V30 3894 H 359.894 -4.15761 -0.107339 0
M  V30 3895 H 358.471 -3.30448 -1.72796 0
M  V30 3896 N 360.656 0.0484629 -1.57525 0
M  V30 3897 C 361.903 0.743125 -1.88372 0
M  V30 3898 C 362.231 1.76383 -0.819715 0
M  V30 3899 O 361.486 1.94855 0.181659 0
M  V30 3900 C 361.785 1.46632 -3.25935 0
M  V30 3901 C 361.451 0.583427 -4.4711 0
M  V30 3902 C 360.113 0.340191 -4.79996 0
M  V30 3903 C 362.465 -0.0273345 -5.21193 0
M  V30 3904 C 359.793 -0.522903 -5.84365 0
M  V30 3905 C 362.145 -0.878017 -6.26477 0
M  V30 3906 C 360.809 -1.1309 -6.5785 0
M  V30 3907 H 360.079 0.271929 -0.689301 0
M  V30 3908 H 362.726 0.00336166 -1.915 0
M  V30 3909 H 361.031 2.2789 -3.18706 0
M  V30 3910 H 362.728 2.00902 -3.47044 0
M  V30 3911 H 359.318 0.783151 -4.21384 0
M  V30 3912 H 363.502 0.147654 -4.9608 0
M  V30 3913 H 358.758 -0.727335 -6.07058 0
M  V30 3914 H 362.932 -1.35789 -6.83033 0
M  V30 3915 H 360.559 -1.80144 -7.38547 0
M  V30 3916 N 362.134 1.5431 0.320358 0
M  V30 3917 C 363.081 1.83918 1.39438 0
M  V30 3918 C 364.051 0.686525 1.51248 0
M  V30 3919 O 365.236 0.933269 1.66417 0
M  V30 3920 C 362.376 2.075 2.75749 0
M  V30 3921 C 361.489 3.35177 2.72544 0
M  V30 3922 C 360.624 3.48704 4.00723 0
M  V30 3923 C 359.663 4.70244 3.91838 0
M  V30 3924 N 358.8 4.80679 5.11754 0
M  V30 3925 H 363.64 2.75544 1.13489 0
M  V30 3926 H 361.177 1.36459 0.549309 0
M  V30 3927 H 363.135 2.19166 3.54996 0
M  V30 3928 H 361.765 1.19163 3 0
M  V30 3929 H 360.817 3.32233 1.85271 0
M  V30 3930 H 362.129 4.24534 2.61863 0
M  V30 3931 H 361.283 3.59928 4.88402 0
M  V30 3932 H 360.022 2.57445 4.14214 0
M  V30 3933 H 359.027 4.59072 3.02544 0
M  V30 3934 H 360.252 5.6289 3.7991 0
M  V30 3935 H 358.198 3.92337 5.25745 0
M  V30 3936 H 358.115 5.64007 5.0342 0
M  V30 3937 H 359.383 4.96239 6.01138 0
M  V30 3938 N 363.613 -0.582584 1.46437 0
M  V30 3939 C 364.543 -1.70187 1.59871 0
M  V30 3940 C 365.524 -1.64066 0.449042 0
M  V30 3941 O 366.709 -1.82081 0.6753 0
M  V30 3942 C 363.839 -3.08827 1.58881 0
M  V30 3943 C 362.793 -3.29779 2.72819 0
M  V30 3944 C 362.119 -4.68947 2.5689 0
M  V30 3945 C 363.419 -3.17601 4.1464 0
M  V30 3946 H 365.113 -1.592 2.53566 0
M  V30 3947 H 362.659 -0.764472 1.22032 0
M  V30 3948 H 364.612 -3.86951 1.66873 0
M  V30 3949 H 363.336 -3.20713 0.617306 0
M  V30 3950 H 361.995 -2.54054 2.64296 0
M  V30 3951 H 361.643 -4.77599 1.57823 0
M  V30 3952 H 361.343 -4.83919 3.33312 0
M  V30 3953 H 362.867 -5.4924 2.66773 0
M  V30 3954 H 364.281 -3.8557 4.24274 0
M  V30 3955 H 362.678 -3.44094 4.9165 0
M  V30 3956 H 363.748 -2.14681 4.34788 0
M  V30 3957 N 365.091 -1.34144 -0.827227 0
M  V30 3958 C 366.021 -1.28005 -1.95287 0
M  V30 3959 C 367.002 -0.158321 -1.69362 0
M  V30 3960 O 368.187 -0.349987 -1.9102 0
M  V30 3961 C 365.317 -1.03036 -3.31664 0
M  V30 3962 C 364.271 -2.11628 -3.72019 0
M  V30 3963 C 363.597 -1.71854 -5.0633 0
M  V30 3964 C 364.897 -3.53417 -3.8457 0
M  V30 3965 H 366.591 -2.22187 -2.00682 0
M  V30 3966 H 364.137 -1.0696 -0.964135 0
M  V30 3967 H 366.09 -0.973863 -4.09993 0
M  V30 3968 H 364.814 -0.0529391 -3.26557 0
M  V30 3969 H 363.473 -2.16339 -2.95961 0
M  V30 3970 H 363.121 -0.727841 -4.97706 0
M  V30 3971 H 362.821 -2.44531 -5.34302 0
M  V30 3972 H 364.345 -1.67692 -5.87122 0
M  V30 3973 H 365.759 -3.51142 -4.5318 0
M  V30 3974 H 364.156 -4.24679 -4.2399 0
M  V30 3975 H 365.226 -3.91072 -2.86689 0
M  V30 3976 N 366.569 1.04691 -1.17803 0
M  V30 3977 C 367.846 1.7472 -0.879328 0
M  V30 3978 C 368.226 2.01812 0.619271 0
M  V30 3979 O 367.574 1.65824 1.57209 0
M  V30 3980 C 367.784 3.03686 -1.71976 0
M  V30 3981 C 369.132 3.77542 -1.94286 0
M  V30 3982 O 370.156 3.13569 -1.68976 0
M  V30 3983 O 369.015 4.92506 -2.36855 0
M  V30 3984 H 366.109 0.760011 -0.326056 0
M  V30 3985 H 368.655 1.10813 -1.28525 0
M  V30 3986 H 367.427 2.79754 -2.73594 0
M  V30 3987 H 367.05 3.75332 -1.31194 0
M  V30 3988 N 368.047 0.979072 1.23499 0
M  V30 3989 C 368.979 0.476271 2.24197 0
M  V30 3990 C 369.992 -0.421166 1.57258 0
M  V30 3991 O 371.181 -0.225515 1.7707 0
M  V30 3992 C 368.281 -0.330503 3.37285 0
M  V30 3993 C 367.454 0.559744 4.33804 0
M  V30 3994 C 366.513 -0.192954 5.25846 0
M  V30 3995 O 365.539 0.416978 5.67671 0
M  V30 3996 N 366.741 -1.47932 5.61334 0
M  V30 3997 H 369.506 1.34211 2.67969 0
M  V30 3998 H 367.067 0.852189 1.37657 0
M  V30 3999 H 369.059 -0.842361 3.95836 0
M  V30 4000 H 367.629 -1.09734 2.92707 0
M  V30 4001 H 366.849 1.25245 3.73775 0
M  V30 4002 H 368.137 1.1665 4.95248 0
M  V30 4003 H 367.535 -1.9964 5.29302 0
M  V30 4004 H 366.092 -1.93664 6.22364 0
M  V30 4005 N 369.525 -1.3858 0.750561 0
M  V30 4006 C 370.458 -2.28095 0.0693139 0
M  V30 4007 C 371.436 -1.45217 -0.731491 0
M  V30 4008 O 372.62 -1.74587 -0.71076 0
M  V30 4009 C 369.747 -3.26282 -0.90871 0
M  V30 4010 C 368.793 -4.26056 -0.194507 0
M  V30 4011 S 369.626 -5.24026 1.10257 0
M  V30 4012 C 370.782 -6.2577 0.127542 0
M  V30 4013 H 371.015 -2.85526 0.8284 0
M  V30 4014 H 368.548 -1.44536 0.543014 0
M  V30 4015 H 370.506 -3.83367 -1.46766 0
M  V30 4016 H 369.167 -2.6784 -1.64075 0
M  V30 4017 H 368.36 -4.95249 -0.93512 0
M  V30 4018 H 367.962 -3.72852 0.292837 0
M  V30 4019 H 370.254 -6.73796 -0.707516 0
M  V30 4020 H 371.197 -7.03712 0.787044 0
M  V30 4021 H 371.605 -5.63938 -0.251803 0
M  V30 4022 N 371.003 -0.499398 -1.49478 0
M  V30 4023 C 371.913 0.284489 -2.32869 0
M  V30 4024 C 372.929 0.968885 -1.44529 0
M  V30 4025 O 374.105 0.95062 -1.77553 0
M  V30 4026 C 371.17 1.33594 -3.19928 0
M  V30 4027 C 370.231 0.665149 -4.24116 0
M  V30 4028 C 369.464 1.6665 -5.07014 0
M  V30 4029 O 369.687 2.89618 -4.91404 0
M  V30 4030 O 368.621 1.22271 -5.8935 0
M  V30 4031 H 372.447 -0.39802 -3.01081 0
M  V30 4032 H 370.032 -0.260758 -1.47107 0
M  V30 4033 H 371.914 1.94431 -3.73864 0
M  V30 4034 H 370.589 2.0014 -2.54412 0
M  V30 4035 H 369.496 0.0170769 -3.74096 0
M  V30 4036 H 370.829 0.0421555 -4.92182 0
M  V30 4037 N 372.481 1.55866 -0.233164 0
M  V30 4038 C 373.709 2.02998 0.399905 0
M  V30 4039 C 374.124 1.11274 1.52524 0
M  V30 4040 O 373.481 0.124528 1.82075 0
M  V30 4041 C 373.532 3.4958 0.920639 0
M  V30 4042 O 373.253 4.37808 -0.159834 0
M  V30 4043 C 374.754 4.12411 1.62578 0
M  V30 4044 H 371.974 0.664006 0.0966281 0
M  V30 4045 H 374.518 2.0143 -0.353013 0
M  V30 4046 H 372.673 3.51727 1.62379 0
M  V30 4047 H 373.087 5.23981 0.23337 0
M  V30 4048 H 374.561 5.16711 1.94201 0
M  V30 4049 H 375.038 3.5809 2.54299 0
M  V30 4050 H 375.644 4.14148 0.967553 0
M  V30 4051 N 373.959 -0.0401083 1.57549 0
M  V30 4052 C 375.37 -0.588097 1.77196 0
M  V30 4053 C 375.721 -1.76209 0.862832 0
M  V30 4054 O 374.846 -2.16331 0.0548389 0
M  V30 4055 C 375.441 -1.07363 3.21339 0
M  V30 4056 C 374 -1.56723 3.42221 0
M  V30 4057 C 373.147 -0.50041 2.72747 0
M  V30 4058 H 376.098 0.186119 1.57605 0
M  V30 4059 H 376.119 -1.94143 3.27244 0
M  V30 4060 H 375.631 -0.218975 3.87482 0
M  V30 4061 H 373.732 -2.4441 2.81237 0
M  V30 4062 H 373.845 -1.62234 4.50796 0
M  V30 4063 H 372.209 -0.952894 2.36203 0
M  V30 4064 H 372.992 0.344599 3.41566 0
M  V30 4065 N 375.437 -1.54477 -0.31217 0
M  V30 4066 C 376.367 -1.87652 -1.38957 0
M  V30 4067 C 377.348 -0.734358 -1.53431 0
M  V30 4068 O 378.533 -0.98911 -1.67123 0
M  V30 4069 C 375.663 -2.11396 -2.75552 0
M  V30 4070 C 374.617 -3.27243 -2.75855 0
M  V30 4071 C 373.943 -3.36382 -4.15633 0
M  V30 4072 C 375.243 -4.64622 -2.38587 0
M  V30 4073 H 376.937 -2.77887 -1.11442 0
M  V30 4074 H 374.483 -1.33707 -0.534655 0
M  V30 4075 H 376.436 -2.33189 -3.51 0
M  V30 4076 H 375.16 -1.17921 -3.04569 0
M  V30 4077 H 373.819 -3.05356 -2.02863 0
M  V30 4078 H 373.467 -2.40445 -4.41809 0
M  V30 4079 H 373.167 -4.14249 -4.1674 0
M  V30 4080 H 374.691 -3.60422 -4.92877 0
M  V30 4081 H 376.105 -4.86219 -3.03749 0
M  V30 4082 H 374.502 -5.45121 -2.50925 0
M  V30 4083 H 375.572 -4.66097 -1.33723 0
M  V30 4084 O 376.954 0.458097 -1.54867 0
M  V30 4085 H 377.645 1.11218 -1.58588 0
M  V30 END ATOM
M  V30 BEGIN BOND
M  V30 END BOND
M  V30 END CTAB
M  END
$$$$
