drugbank_target|P08493 Matrix Gla protein (DB01373)
 OpenBabel12092121033D

  0  0  0     0  0            999 V3000
M  V30 BEGIN CTAB
M  V30 COUNTS 1737 1754 0 0 0
M  V30 BEGIN ATOM
M  V30 1 H -0.908 1.98254 -0.117106 0
M  V30 2 N 0 1.576 0 0
M  V30 3 C 0.933 2.03868 1.02534 0
M  V30 4 C 1.911 0.928543 1.3348 0
M  V30 5 O 3.095 1.19667 1.45644 0
M  V30 6 C 0.222 2.43627 2.35294 0
M  V30 7 C -0.732 3.65373 2.2001 0
M  V30 8 S 0.101 5.13292 1.52614 0
M  V30 9 C 1.257 5.56322 2.86805 0
M  V30 10 H 1.49 2.90518 0.631377 0
M  V30 11 H -0.977 1.52953 0.210867 0
M  V30 12 H 0.981 2.67203 3.11629 0
M  V30 13 H -0.358 1.57376 2.7183 0
M  V30 14 H -1.165 3.90944 3.18086 0
M  V30 15 H -1.563 3.418 1.51819 0
M  V30 16 H 0.729 5.58782 3.83104 0
M  V30 17 H 1.672 6.56266 2.65933 0
M  V30 18 H 2.08 4.83886 2.90714 0
M  V30 19 N 1.4781 -0.272755 1.55222 0
M  V30 20 C 2.4251 -1.33716 1.88119 0
M  V30 21 C 3.3951 -1.49066 0.73271 0
M  V30 22 O 4.5801 -1.63469 0.984002 0
M  V30 23 C 1.7201 -2.69238 2.15882 0
M  V30 24 C 0.8331 -2.62108 3.43399 0
M  V30 25 C -0.0319 -3.89811 3.60861 0
M  V30 26 C -0.9929 -3.77193 4.8207 0
M  V30 27 N -1.8559 -4.9673 4.96189 0
M  V30 28 H 2.9841 -1.04962 2.78903 0
M  V30 29 H 0.5211 -0.507088 1.38083 0
M  V30 30 H 2.4791 -3.48089 2.29978 0
M  V30 31 H 1.1091 -2.96194 1.28331 0
M  V30 32 H 0.1611 -1.74967 3.37773 0
M  V30 33 H 1.4731 -2.48685 4.32386 0
M  V30 34 H 0.6271 -4.77103 3.74777 0
M  V30 35 H -0.6339 -4.06102 2.7006 0
M  V30 36 H -1.6289 -2.88284 4.68159 0
M  V30 37 H -0.4039 -3.62421 5.74307 0
M  V30 38 H -2.4579 -5.13431 4.08319 0
M  V30 39 H -2.5409 -4.85839 5.79221 0
M  V30 40 H -1.2729 -5.85594 5.1449 0
M  V30 41 N 2.9562 -1.48159 -0.537278 0
M  V30 42 C 4.1812 -1.59707 -1.32319 0
M  V30 43 C 4.6062 -0.254859 -1.86365 0
M  V30 44 O 3.9642 0.772378 -1.64024 0
M  V30 45 C 4.0122 -2.6412 -2.45505 0
M  V30 46 O 3.1162 -2.20774 -3.48328 0
M  V30 47 H 2.4572 -0.535791 -0.392204 0
M  V30 48 H 4.9872 -1.94092 -0.647268 0
M  V30 49 H 4.9972 -2.85166 -2.91795 0
M  V30 50 H 3.6722 -3.61567 -2.05528 0
M  V30 51 H 2.2492 -2.09911 -3.08207 0
M  V30 52 N 4.4343 0.785586 -1.36625 0
M  V30 53 C 5.3643 1.91259 -1.33949 0
M  V30 54 C 6.3453 1.68795 -0.210325 0
M  V30 55 O 7.5303 1.89854 -0.408561 0
M  V30 56 C 4.6603 3.28339 -1.13186 0
M  V30 57 C 3.6143 3.65335 -2.22967 0
M  V30 58 C 2.9403 5.00806 -1.87342 0
M  V30 59 C 4.2403 3.7352 -3.65075 0
M  V30 60 H 5.9343 1.93755 -2.28253 0
M  V30 61 H 3.4803 0.930788 -1.09874 0
M  V30 62 H 5.4333 4.06804 -1.09948 0
M  V30 63 H 4.1573 3.2624 -0.153332 0
M  V30 64 H 2.8163 2.89169 -2.25337 0
M  V30 65 H 2.4643 4.95233 -0.880545 0
M  V30 66 H 2.1643 5.26529 -2.60846 0
M  V30 67 H 3.6883 5.81687 -1.85667 0
M  V30 68 H 5.1023 4.42168 -3.64911 0
M  V30 69 H 3.4993 4.10731 -4.37516 0
M  V30 70 H 4.5693 2.74527 -3.99703 0
M  V30 71 N 5.9124 1.20967 1.01018 0
M  V30 72 C 7.1614 1.01796 1.74128 0
M  V30 73 C 7.4744 -0.449691 1.90361 0
M  V30 74 O 8.6804 -0.76068 2.60626 0
M  V30 75 C 7.1364 1.7727 3.13215 0
M  V30 76 C 6.7444 3.28171 3.04972 0
M  V30 77 C 8.4884 1.66489 3.90489 0
M  V30 78 C 6.3954 3.96156 4.39107 0
M  V30 79 H 5.3254 0.377276 0.652824 0
M  V30 80 H 7.9764 1.44651 1.12909 0
M  V30 81 H 6.3584 1.27205 3.75013 0
M  V30 82 H 7.5324 3.85499 2.52443 0
M  V30 83 H 5.8474 3.39437 2.41188 0
M  V30 84 H 8.4444 2.14617 4.89738 0
M  V30 85 H 8.7874 0.6222 4.11624 0
M  V30 86 H 9.3204 2.14003 3.35332 0
M  V30 87 H 6.0594 5.00604 4.23174 0
M  V30 88 H 5.5794 3.43617 4.91617 0
M  V30 89 H 7.2584 4.00774 5.07926 0
M  V30 90 N 7.3905 -1.2043 1.01659 0
M  V30 91 C 8.3205 -2.25466 0.607226 0
M  V30 92 C 9.3015 -1.65853 -0.377716 0
M  V30 93 O 10.4865 -1.92409 -0.263149 0
M  V30 94 C 7.6165 -3.47256 -0.0552949 0
M  V30 95 C 6.5705 -4.19462 0.850632 0
M  V30 96 C 5.8965 -5.34673 0.0538859 0
M  V30 97 C 7.1965 -4.75603 2.15868 0
M  V30 98 H 8.8905 -2.59962 1.48526 0
M  V30 99 H 6.4365 -1.2496 0.715605 0
M  V30 100 H 8.3895 -4.19917 -0.353233 0
M  V30 101 H 7.1135 -3.11924 -0.968045 0
M  V30 102 H 5.7725 -3.48667 1.13257 0
M  V30 103 H 5.4205 -4.95585 -0.860514 0
M  V30 104 H 5.1205 -5.83913 0.657192 0
M  V30 105 H 6.6445 -6.10138 -0.237598 0
M  V30 106 H 8.0585 -5.40083 1.92311 0
M  V30 107 H 6.4555 -5.3528 2.71284 0
M  V30 108 H 7.5255 -3.94346 2.82169 0
M  V30 109 N 8.8686 -0.792821 -1.36206 0
M  V30 110 C 9.7986 -0.207853 -2.32573 0
M  V30 111 C 10.7796 0.659055 -1.56813 0
M  V30 112 O 11.9646 0.592176 -1.84951 0
M  V30 113 C 9.0946 0.655449 -3.41059 0
M  V30 114 C 8.0486 -0.111842 -4.27854 0
M  V30 115 C 7.3746 0.872274 -5.27537 0
M  V30 116 C 8.6746 -1.30299 -5.05786 0
M  V30 117 H 10.3686 -1.01294 -2.81744 0
M  V30 118 H 7.9146 -0.48854 -1.3546 0
M  V30 119 H 9.8676 1.07464 -4.07467 0
M  V30 120 H 8.5916 1.49328 -2.90463 0
M  V30 121 H 7.2506 -0.512053 -3.63006 0
M  V30 122 H 6.8986 1.70523 -4.73214 0
M  V30 123 H 6.5986 0.363291 -5.86476 0
M  V30 124 H 8.1226 1.28996 -5.96818 0
M  V30 125 H 9.5366 -0.959379 -5.65216 0
M  V30 126 H 7.9336 -1.7455 -5.74154 0
M  V30 127 H 9.0036 -2.09663 -4.37229 0
M  V30 128 N 10.3467 1.47872 -0.545128 0
M  V30 129 C 11.3097 2.28337 0.198717 0
M  V30 130 C 12.3097 1.36255 0.853888 0
M  V30 131 O 13.4997 1.59003 0.711606 0
M  V30 132 C 10.6317 3.15585 1.28915 0
M  V30 133 H 11.8247 2.95567 -0.507941 0
M  V30 134 H 9.3777 1.53362 -0.301616 0
M  V30 135 H 10.1127 2.53019 2.02859 0
M  V30 136 H 9.8977 3.83337 0.824309 0
M  V30 137 H 11.3877 3.76243 1.81194 0
M  V30 138 N 11.8248 0.280983 1.55075 0
M  V30 139 C 13.0738 -0.334784 1.98902 0
M  V30 140 C 13.3868 -1.56534 1.17288 0
M  V30 141 O 14.5928 -2.25443 1.51287 0
M  V30 142 C 13.0488 -0.646994 3.54037 0
M  V30 143 C 12.6568 0.564085 4.44435 0
M  V30 144 C 14.4008 -1.22506 4.06439 0
M  V30 145 C 12.3078 0.226137 5.90967 0
M  V30 146 H 11.2378 -0.128866 0.742906 0
M  V30 147 H 13.8888 0.386556 1.79382 0
M  V30 148 H 12.2708 -1.42739 3.6938 0
M  V30 149 H 13.4448 1.34082 4.40861 0
M  V30 150 H 11.7598 1.0594 4.02698 0
M  V30 151 H 14.3568 -1.49182 5.13468 0
M  V30 152 H 14.6998 -2.16085 3.55827 0
M  V30 153 H 15.2328 -0.50682 3.94558 0
M  V30 154 H 11.9718 1.12996 6.45687 0
M  V30 155 H 11.4918 -0.513717 5.97596 0
M  V30 156 H 13.1708 -0.179539 6.46751 0
M  V30 157 N 13.3029 -1.57598 0.00835791 0
M  V30 158 C 14.2329 -2.1198 -0.979113 0
M  V30 159 C 15.2139 -1.03091 -1.35301 0
M  V30 160 O 16.3989 -1.30818 -1.43528 0
M  V30 161 C 13.5289 -2.62995 -2.26828 0
M  V30 162 C 12.4829 -3.76485 -2.03576 0
M  V30 163 C 11.8089 -4.13846 -3.38579 0
M  V30 164 C 13.1089 -5.0342 -1.39161 0
M  V30 165 H 14.8029 -2.94738 -0.526281 0
M  V30 166 H 12.3489 -1.41783 -0.251704 0
M  V30 167 H 14.3019 -2.99669 -2.96271 0
M  V30 168 H 13.0259 -1.7737 -2.7424 0
M  V30 169 H 11.6849 -3.40217 -1.36557 0
M  V30 170 H 11.3329 -3.25232 -3.83709 0
M  V30 171 H 11.0329 -4.90312 -3.23834 0
M  V30 172 H 12.5569 -4.53086 -4.09323 0
M  V30 173 H 13.9709 -5.37812 -1.98573 0
M  V30 174 H 12.3679 -5.84746 -1.34878 0
M  V30 175 H 13.4379 -4.83548 -0.361868 0
M  V30 176 N 14.781 0.264519 -1.55364 0
M  V30 177 C 15.744 1.31046 -1.88042 0
M  V30 178 C 16.744 1.41943 -0.755569 0
M  V30 179 O 17.934 1.40947 -1.02369 0
M  V30 180 C 15.066 2.69067 -2.09323 0
M  V30 181 H 16.259 1.03297 -2.81549 0
M  V30 182 H 13.812 0.502989 -1.47986 0
M  V30 183 H 14.547 3.01982 -1.18226 0
M  V30 184 H 14.332 2.62542 -2.91229 0
M  V30 185 H 15.822 3.44623 -2.35848 0
M  V30 186 N 16.2591 1.48442 0.529413 0
M  V30 187 C 17.2221 1.62524 1.61612 0
M  V30 188 C 18.2221 0.498509 1.52877 0
M  V30 189 O 19.4121 0.76431 1.56537 0
M  V30 190 C 16.5441 1.59597 3.01233 0
M  V30 191 H 17.7371 2.59423 1.50465 0
M  V30 192 H 15.2901 1.37047 0.751514 0
M  V30 193 H 16.0251 0.641781 3.17886 0
M  V30 194 H 15.8101 2.41397 3.08982 0
M  V30 195 H 17.3001 1.72646 3.80241 0
M  V30 196 N 17.7372 -0.778329 1.37039 0
M  V30 197 C 18.6672 -1.90546 1.34962 0
M  V30 198 C 19.6482 -1.68681 0.219274 0
M  V30 199 O 20.8332 -1.89634 0.418624 0
M  V30 200 C 17.9632 -3.27734 1.14925 0
M  V30 201 C 16.9172 -3.64147 2.24902 0
M  V30 202 C 16.2432 -4.99806 1.89996 0
M  V30 203 C 17.5432 -3.71579 3.67051 0
M  V30 204 H 19.2372 -1.92541 2.29277 0
M  V30 205 H 16.7832 -0.924948 1.10366 0
M  V30 206 H 18.7362 -4.06215 1.12104 0
M  V30 207 H 17.4602 -3.26154 0.170631 0
M  V30 208 H 16.1192 -2.8797 2.26868 0
M  V30 209 H 15.7672 -4.94759 0.906796 0
M  V30 210 H 15.4672 -5.25139 2.63634 0
M  V30 211 H 16.9912 -5.80694 1.88749 0
M  V30 212 H 18.4052 -4.40227 3.67251 0
M  V30 213 H 16.8022 -4.08405 4.39688 0
M  V30 214 H 17.8722 -2.72404 4.01154 0
M  V30 215 N 19.2153 -1.21501 -1.00376 0
M  V30 216 C 20.1783 -0.976927 -2.07337 0
M  V30 217 C 21.1783 0.0525322 -1.60714 0
M  V30 218 O 22.3683 -0.184869 -1.73216 0
M  V30 219 C 19.5003 -0.473423 -3.37597 0
M  V30 220 H 20.6933 -1.92587 -2.29892 0
M  V30 221 H 18.2463 -1.03217 -1.17371 0
M  V30 222 H 18.9813 0.480379 -3.20722 0
M  V30 223 H 18.7663 -1.216 -3.72768 0
M  V30 224 H 20.2563 -0.32675 -4.1632 0
M  V30 225 N 20.6934 1.19889 -1.02296 0
M  V30 226 C 21.9394 1.89701 -0.717033 0
M  V30 227 C 22.2724 1.7905 0.751989 0
M  V30 228 O 21.5474 1.17891 1.547 0
M  V30 229 C 21.8304 3.40858 -1.16136 0
M  V30 230 C 21.6834 3.60411 -2.69117 0
M  V30 231 C 23.0024 4.33876 -0.737549 0
M  V30 232 H 20.1214 0.688874 -0.261957 0
M  V30 233 H 22.7634 1.41154 -1.27183 0
M  V30 234 H 20.9134 3.82335 -0.689342 0
M  V30 235 H 22.5854 3.28145 -3.2422 0
M  V30 236 H 20.8284 3.03665 -3.0979 0
M  V30 237 H 21.4994 4.66396 -2.95261 0
M  V30 238 H 23.9754 4.00081 -1.14344 0
M  V30 239 H 22.8514 5.38242 -1.0764 0
M  V30 240 H 23.1124 4.40628 0.360436 0
M  V30 241 N 22.1715 0.800033 1.35784 0
M  V30 242 C 23.4175 0.377901 1.99248 0
M  V30 243 C 23.7505 -1.05052 1.63333 0
M  V30 244 O 23.0255 -1.72768 0.893385 0
M  V30 245 C 23.3085 0.553922 3.55814 0
M  V30 246 C 23.1615 2.0268 4.01548 0
M  V30 247 C 24.4805 -0.0244802 4.40093 0
M  V30 248 H 21.5995 0.138782 0.723815 0
M  V30 249 H 24.2415 1.00835 1.61035 0
M  V30 250 H 22.3915 0.0172398 3.88496 0
M  V30 251 H 24.0635 2.62536 3.79305 0
M  V30 252 H 22.3065 2.5256 3.52698 0
M  V30 253 H 22.9775 2.10087 5.10458 0
M  V30 254 H 25.4535 0.433775 4.13833 0
M  V30 255 H 24.3295 0.128637 5.48749 0
M  V30 256 H 24.5905 -1.11758 4.27741 0
M  V30 257 N 23.6496 -1.47581 0.552962 0
M  V30 258 C 24.8776 -2.06875 0.0320556 0
M  V30 259 C 25.2926 -1.40625 -1.25976 0
M  V30 260 O 24.6496 -0.501349 -1.75479 0
M  V30 261 C 24.7006 -3.61092 -0.17167 0
M  V30 262 O 24.4216 -4.24858 1.06899 0
M  V30 263 C 25.9226 -4.37242 -0.730344 0
M  V30 264 H 23.1426 -0.669561 0.043915 0
M  V30 265 H 25.6866 -1.89646 0.765163 0
M  V30 266 H 23.8416 -3.7785 -0.854894 0
M  V30 267 H 24.2556 -5.17334 0.864059 0
M  V30 268 H 25.7296 -5.45842 -0.822203 0
M  V30 269 H 26.2066 -4.03235 -1.74064 0
M  V30 270 H 26.8126 -4.25219 -0.0829543 0
M  V30 271 N 25.1277 -0.289203 -1.54924 0
M  V30 272 C 26.0577 0.58549 -2.2604 0
M  V30 273 C 27.0387 1.14753 -1.25562 0
M  V30 274 O 28.2237 1.17906 -1.54311 0
M  V30 275 C 25.3537 1.76305 -2.99222 0
M  V30 276 C 24.3077 1.33191 -4.06748 0
M  V30 277 C 23.6337 2.5937 -4.6758 0
M  V30 278 C 24.9337 0.471775 -5.20165 0
M  V30 279 H 26.6277 -0.00763532 -2.99399 0
M  V30 280 H 24.1737 -0.00511229 -1.43999 0
M  V30 281 H 26.1267 2.38097 -3.47689 0
M  V30 282 H 24.8507 2.38223 -2.23422 0
M  V30 283 H 23.5097 0.737121 -3.59113 0
M  V30 284 H 23.1577 3.19576 -3.88433 0
M  V30 285 H 22.8577 2.31228 -5.40192 0
M  V30 286 H 24.3817 3.21985 -5.18804 0
M  V30 287 H 25.7957 0.995056 -5.64599 0
M  V30 288 H 24.1927 0.284639 -5.99425 0
M  V30 289 H 25.2627 -0.506041 -4.82252 0
M  V30 290 N 26.6058 1.57591 -0.0167156 0
M  V30 291 C 27.8458 1.93145 0.668902 0
M  V30 292 C 28.2098 0.892406 1.7 0
M  V30 293 O 29.4108 1.13373 2.43721 0
M  V30 294 C 27.6818 3.33678 1.28039 0
M  V30 295 S 29.2408 3.91142 1.9888 0
M  V30 296 H 26.0588 0.67593 0.220545 0
M  V30 297 H 28.6608 1.95347 -0.0774105 0
M  V30 298 H 27.3648 4.07126 0.517339 0
M  V30 299 H 26.8958 3.3489 2.06427 0
M  V30 300 H 28.9108 3.73571 3.26587 0
M  V30 301 N 28.0839 -0.256276 1.55502 0
M  V30 302 C 29.3139 -1.00196 1.80677 0
M  V30 303 C 29.7219 -1.79805 0.588797 0
M  V30 304 O 29.0649 -1.78055 -0.451883 0
M  V30 305 C 29.1269 -1.99515 2.99055 0
M  V30 306 C 28.7909 -1.38688 4.35448 0
M  V30 307 C 29.7879 -0.794079 5.138 0
M  V30 308 C 27.4729 -1.40906 4.82132 0
M  V30 309 C 29.4669 -0.231562 6.36979 0
M  V30 310 C 27.1539 -0.842684 6.05262 0
M  V30 311 C 28.1519 -0.254953 6.82524 0
M  V30 312 O 27.8399 0.3027 8.0333 0
M  V30 313 H 27.5719 -0.300919 0.60533 0
M  V30 314 H 30.1259 -0.287307 2.03381 0
M  V30 315 H 28.3559 -2.74785 2.72084 0
M  V30 316 H 30.0449 -2.60349 3.11405 0
M  V30 317 H 30.8109 -0.769519 4.78856 0
M  V30 318 H 26.6899 -1.85591 4.21992 0
M  V30 319 H 30.2339 0.227816 6.97228 0
M  V30 320 H 26.1309 -0.86454 6.39684 0
M  V30 321 H 26.8989 0.193662 8.18271 0
M  V30 322 N 29.562 -1.4872 -0.521534 0
M  V30 323 C 30.472 -1.66569 -1.65203 0
M  V30 324 C 31.488 -0.548197 -1.65139 0
M  V30 325 O 32.664 -0.820339 -1.83936 0
M  V30 326 C 29.729 -1.70917 -3.01642 0
M  V30 327 C 28.79 -2.94356 -3.12495 0
M  V30 328 C 28.023 -2.98487 -4.42426 0
M  V30 329 O 28.246 -2.10786 -5.30024 0
M  V30 330 O 27.18 -3.90746 -4.57822 0
M  V30 331 H 31.006 -2.62298 -1.5308 0
M  V30 332 H 28.591 -1.3222 -0.695565 0
M  V30 333 H 30.473 -1.7625 -3.82771 0
M  V30 334 H 29.148 -0.783633 -3.14071 0
M  V30 335 H 28.055 -2.94552 -2.3063 0
M  V30 336 H 29.388 -3.86322 -3.04986 0
M  V30 337 N 31.0401 0.771051 -1.3745 0
M  V30 338 C 32.2651 1.56529 -1.36065 0
M  V30 339 C 32.6901 1.88029 0.0515859 0
M  V30 340 O 32.0481 1.49282 1.02882 0
M  V30 341 C 32.0961 2.85187 -2.20683 0
M  V30 342 O 31.2001 3.79593 -1.61193 0
M  V30 343 H 30.5411 0.47411 -0.464883 0
M  V30 344 H 33.0711 0.954269 -1.80983 0
M  V30 345 H 33.0811 3.34283 -2.33921 0
M  V30 346 H 31.7561 2.61588 -3.23334 0
M  V30 347 H 30.3331 3.38239 -1.56999 0
M  V30 348 N 32.5182 1.22032 0.997298 0
M  V30 349 C 33.4682 0.953838 2.07089 0
M  V30 350 C 34.4522 -0.0938669 1.60626 0
M  V30 351 O 35.6442 0.116078 1.76619 0
M  V30 352 C 32.7732 0.528726 3.39204 0
M  V30 353 C 31.8592 1.61092 3.92314 0
M  V30 354 N 32.2502 2.83768 4.18699 0
M  V30 355 C 30.5482 1.48158 4.20672 0
M  V30 356 C 31.2492 3.53715 4.61802 0
M  V30 357 N 30.2252 2.81174 4.65233 0
M  V30 358 H 34.0272 1.88577 2.25424 0
M  V30 359 H 31.5412 1.11719 1.17867 0
M  V30 360 H 33.5382 0.31915 4.15677 0
M  V30 361 H 32.1982 -0.39635 3.22272 0
M  V30 362 H 33.2092 3.20238 4.07023 0
M  V30 363 H 29.8862 0.622369 4.12835 0
M  V30 364 H 31.2762 4.58793 4.90875 0
M  V30 365 N 33.9963 -1.19345 1.0293 0
M  V30 366 C 34.9063 -2.26245 0.620515 0
M  V30 367 C 35.9223 -1.70486 -0.347928 0
M  V30 368 O 37.0983 -2.00347 -0.205704 0
M  V30 369 C 34.1633 -3.46693 -0.0218957 0
M  V30 370 C 33.2243 -4.17632 0.994102 0
M  V30 371 C 32.4573 -5.32329 0.382253 0
M  V30 372 O 32.6803 -5.64552 -0.814676 0
M  V30 373 O 31.6143 -5.91664 1.10531 0
M  V30 374 H 35.4403 -2.63453 1.51083 0
M  V30 375 H 33.0253 -1.26207 0.799513 0
M  V30 376 H 34.9073 -4.19683 -0.380072 0
M  V30 377 H 33.5823 -3.11333 -0.886209 0
M  V30 378 H 32.4893 -3.4676 1.40387 0
M  V30 379 H 33.8223 -4.56964 1.8288 0
M  V30 380 N 35.4744 -0.807222 -1.35358 0
M  V30 381 C 36.6994 -0.399309 -2.0352 0
M  V30 382 C 37.1244 0.981986 -1.60433 0
M  V30 383 O 36.4824 1.63601 -0.781299 0
M  V30 384 C 36.5304 -0.491552 -3.57234 0
M  V30 385 O 35.6344 0.494754 -4.09421 0
M  V30 386 H 34.9754 -0.166682 -0.642739 0
M  V30 387 H 37.5054 -1.09328 -1.72941 0
M  V30 388 H 37.5154 -0.361588 -4.06395 0
M  V30 389 H 36.1904 -1.49907 -3.87944 0
M  V30 390 H 34.7674 0.324977 -3.71481 0
M  V30 391 N 36.9525 1.47285 -0.560781 0
M  V30 392 C 37.8855 2.27009 0.232821 0
M  V30 393 C 38.8635 1.34273 0.917039 0
M  V30 394 O 40.0475 1.63659 0.935315 0
M  V30 395 C 37.1745 3.11406 1.33206 0
M  V30 396 C 36.2205 4.19746 0.756019 0
M  V30 397 S 37.0535 5.34003 -0.400165 0
M  V30 398 C 38.2095 6.21964 0.700805 0
M  V30 399 H 38.4425 2.93971 -0.443683 0
M  V30 400 H 35.9755 1.50446 -0.347181 0
M  V30 401 H 37.9335 3.60601 1.96156 0
M  V30 402 H 36.5945 2.438 1.98041 0
M  V30 403 H 35.7875 4.78541 1.5816 0
M  V30 404 H 35.3895 3.73451 0.202619 0
M  V30 405 H 37.6815 6.58529 1.59202 0
M  V30 406 H 38.6245 7.07941 0.150126 0
M  V30 407 H 39.0325 5.5566 0.995083 0
M  V30 408 N 38.4306 0.297415 1.54768 0
M  V30 409 C 39.3406 -0.58983 2.27064 0
M  V30 410 C 40.3566 -1.15144 1.30453 0
M  V30 411 O 41.5326 -1.17699 1.63428 0
M  V30 412 C 38.5976 -1.74714 2.9946 0
M  V30 413 C 37.6586 -1.21997 4.11601 0
M  V30 414 C 36.8916 -2.32212 4.80535 0
M  V30 415 O 37.1146 -3.52036 4.48806 0
M  V30 416 O 36.0486 -1.99106 5.68014 0
M  V30 417 H 39.8746 -0.00348199 3.037 0
M  V30 418 H 37.4596 0.0640035 1.49263 0
M  V30 419 H 39.3416 -2.42147 3.44881 0
M  V30 420 H 38.0166 -2.32016 2.25722 0
M  V30 421 H 36.9236 -0.511458 3.70587 0
M  V30 422 H 38.2566 -0.692419 4.87305 0
M  V30 423 N 39.9087 -1.5758 0.0250728 0
M  V30 424 C 41.1337 -1.96337 -0.668317 0
M  V30 425 C 41.5587 -0.901314 -1.651 0
M  V30 426 O 40.9167 0.138187 -1.80773 0
M  V30 427 C 40.9647 -3.34191 -1.35457 0
M  V30 428 O 40.0687 -3.30269 -2.46974 0
M  V30 429 H 39.4097 -0.640281 -0.175887 0
M  V30 430 H 41.9397 -2.0442 0.0857224 0
M  V30 431 H 41.9497 -3.70331 -1.71228 0
M  V30 432 H 40.6247 -4.11036 -0.634218 0
M  V30 433 H 39.2017 -3.05841 -2.13344 0
M  V30 434 N 41.3868 0.248026 -1.55636 0
M  V30 435 C 42.6168 0.992367 -1.81206 0
M  V30 436 C 43.0248 1.7949 -0.598324 0
M  V30 437 O 42.3678 1.78292 0.442434 0
M  V30 438 C 42.4298 1.97926 -3.00109 0
M  V30 439 C 42.0938 1.36377 -4.36177 0
M  V30 440 C 43.0908 0.76682 -5.14214 0
M  V30 441 C 40.7758 1.38347 -4.82872 0
M  V30 442 C 42.7698 0.197778 -6.37093 0
M  V30 443 C 40.4568 0.810574 -6.057 0
M  V30 444 C 41.4548 0.218754 -6.8265 0
M  V30 445 O 41.1428 -0.345298 -8.03158 0
M  V30 446 H 40.8748 0.297704 -0.606917 0
M  V30 447 H 43.4288 0.276517 -2.0353 0
M  V30 448 H 41.6588 2.73339 -2.73538 0
M  V30 449 H 43.3478 2.58694 -3.12781 0
M  V30 450 H 44.1138 0.744114 -4.79258 0
M  V30 451 H 39.9928 1.8335 -4.2297 0
M  V30 452 H 43.5368 -0.264788 -6.97097 0
M  V30 453 H 39.4338 0.830604 -6.40134 0
M  V30 454 H 40.2018 -0.237055 -8.18157 0
M  V30 455 N 42.8649 1.48995 0.513639 0
M  V30 456 C 43.7749 1.67443 1.64317 0
M  V30 457 C 44.7909 0.556947 1.64846 0
M  V30 458 O 45.9669 0.830082 1.83498 0
M  V30 459 C 43.0319 1.72515 3.00732 0
M  V30 460 C 42.0929 2.96009 3.1093 0
M  V30 461 C 41.3259 3.00829 4.40837 0
M  V30 462 O 41.5489 2.13594 5.28898 0
M  V30 463 O 40.4829 3.93168 4.55744 0
M  V30 464 H 44.3089 2.63106 1.51687 0
M  V30 465 H 41.8939 1.32588 0.688543 0
M  V30 466 H 43.7759 1.78277 3.81831 0
M  V30 467 H 42.4509 0.800278 3.13651 0
M  V30 468 H 41.3579 2.9577 2.29065 0
M  V30 469 H 42.6909 3.87934 3.02933 0
M  V30 470 N 44.343 -0.763751 1.37857 0
M  V30 471 C 45.273 -1.89103 1.36975 0
M  V30 472 C 46.254 -1.68439 0.237152 0
M  V30 473 O 47.439 -1.8918 0.438713 0
M  V30 474 C 44.569 -3.26496 1.18395 0
M  V30 475 C 43.523 -3.61741 2.28751 0
M  V30 476 C 42.849 -4.97762 1.95286 0
M  V30 477 C 44.149 -3.67665 3.70972 0
M  V30 478 H 45.843 -1.90099 2.31307 0
M  V30 479 H 43.389 -0.91319 1.11341 0
M  V30 480 H 45.342 -4.05003 1.16406 0
M  V30 481 H 44.066 -3.25955 0.205215 0
M  V30 482 H 42.725 -2.85547 2.29909 0
M  V30 483 H 42.373 -4.93769 0.959221 0
M  V30 484 H 42.073 -5.22313 2.69189 0
M  V30 485 H 43.597 -5.7866 1.94898 0
M  V30 486 H 45.011 -4.36307 3.719 0
M  V30 487 H 43.408 -4.03718 4.43995 0
M  V30 488 H 44.478 -2.68134 4.0402 0
M  V30 489 N 45.8211 -1.22559 -0.990812 0
M  V30 490 C 46.7691 -0.994798 -2.10253 0
M  V30 491 C 47.7631 0.0627798 -1.69284 0
M  V30 492 O 48.9691 -0.0898392 -1.79776 0
M  V30 493 H 45.3441 -0.304527 -0.687581 0
M  V30 494 H 47.3151 -1.93812 -2.26891 0
M  V30 495 C 46.0641 -0.591439 -3.42633 0
M  V30 496 H 45.3871 -1.3969 -3.74602 0
M  V30 497 H 46.8271 -0.469385 -4.21394 0
M  V30 498 C 45.2861 0.699232 -3.29564 0
M  V30 499 O 45.8161 1.75112 -3.61523 0
M  V30 500 N 44.0221 0.671182 -2.82743 0
M  V30 501 H 43.5691 -0.185136 -2.56934 0
M  V30 502 H 43.5271 1.53502 -2.7438 0
M  V30 503 N 47.2992 1.18797 -1.03562 0
M  V30 504 C 48.7102 1.70322 -0.764676 0
M  V30 505 C 49.0612 1.82708 0.714996 0
M  V30 506 O 48.1862 1.50299 1.55689 0
M  V30 507 C 48.7812 3.09356 -1.38145 0
M  V30 508 C 47.3402 3.58114 -1.15895 0
M  V30 509 C 46.4872 2.34798 -1.4753 0
M  V30 510 H 49.4382 1.03543 -1.20268 0
M  V30 511 H 49.4592 3.72378 -0.781977 0
M  V30 512 H 48.9712 3.00309 -2.45837 0
M  V30 513 H 47.0722 3.72464 -0.100544 0
M  V30 514 H 47.1852 4.4184 -1.8524 0
M  V30 515 H 45.5492 2.38464 -0.894829 0
M  V30 516 H 46.3322 2.28375 -2.56319 0
M  V30 517 N 48.7773 0.814389 1.34928 0
M  V30 518 C 50.0243 0.398423 1.98542 0
M  V30 519 C 50.3523 -1.03638 1.64589 0
M  V30 520 O 49.6073 -1.73509 0.90516 0
M  V30 521 C 49.9063 0.537781 3.53331 0
M  V30 522 C 49.5723 1.93704 4.07172 0
M  V30 523 C 48.2343 2.31984 4.21589 0
M  V30 524 C 50.5863 2.85213 4.36237 0
M  V30 525 C 47.9143 3.61125 4.62391 0
M  V30 526 C 50.2663 4.13809 4.78482 0
M  V30 527 C 48.9303 4.52077 4.91104 0
M  V30 528 H 48.2003 0.145793 0.726516 0
M  V30 529 H 50.8473 1.03669 1.61012 0
M  V30 530 H 49.1523 -0.183906 3.91368 0
M  V30 531 H 50.8493 0.196588 4.00518 0
M  V30 532 H 47.4393 1.62966 3.96409 0
M  V30 533 H 51.6233 2.56885 4.24645 0
M  V30 534 H 46.8793 3.90612 4.70353 0
M  V30 535 H 51.0533 4.84811 4.99932 0
M  V30 536 H 48.6803 5.52196 5.22478 0
M  V30 537 N 50.2554 -1.46986 0.568584 0
M  V30 538 C 51.5044 -2.01646 0.0465894 0
M  V30 539 C 51.8174 -1.44721 -1.31587 0
M  V30 540 O 53.0234 -1.91113 -1.92842 0
M  V30 541 C 51.4794 -3.59885 0.032752 0
M  V30 542 C 51.0874 -4.25804 1.39266 0
M  V30 543 C 52.8314 -4.22255 -0.436038 0
M  V30 544 C 50.7384 -5.76081 1.33732 0
M  V30 545 H 49.6684 -0.753876 0.013647 0
M  V30 546 H 52.3194 -1.68864 0.718131 0
M  V30 547 H 50.7014 -3.8968 -0.704669 0
M  V30 548 H 51.8754 -4.07637 2.1487 0
M  V30 549 H 50.1904 -3.7547 1.80032 0
M  V30 550 H 52.7874 -5.32394 -0.49602 0
M  V30 551 H 53.1304 -3.90212 -1.45053 0
M  V30 552 H 53.6634 -3.97033 0.246877 0
M  V30 553 H 50.4024 -6.12761 2.32817 0
M  V30 554 H 49.9224 -5.96553 0.623267 0
M  V30 555 H 51.6014 -6.38518 1.0442 0
M  V30 556 N 51.7335 -0.305618 -1.54608 0
M  V30 557 C 52.6815 0.584119 -2.25146 0
M  V30 558 C 53.6755 1.13326 -1.25911 0
M  V30 559 O 54.8815 1.08337 -1.43747 0
M  V30 560 H 51.2565 0.206983 -0.722954 0
M  V30 561 H 53.2275 -0.033291 -2.98381 0
M  V30 562 C 51.9765 1.74225 -3.009 0
M  V30 563 H 51.2995 1.32892 -3.77067 0
M  V30 564 H 52.7395 2.34077 -3.53531 0
M  V30 565 C 51.1985 2.64914 -2.0814 0
M  V30 566 O 51.7285 3.66137 -1.65246 0
M  V30 567 N 49.9345 2.3275 -1.74 0
M  V30 568 H 49.4815 1.50479 -2.09078 0
M  V30 569 H 49.4395 2.93694 -1.12211 0
M  V30 570 N 53.2116 1.57565 -0.0334293 0
M  V30 571 C 54.6276 1.56297 0.322997 0
M  V30 572 C 54.8276 1.03945 1.7262 0
M  V30 573 O 53.8836 0.688109 2.42943 0
M  V30 574 C 55.1966 3.00232 0.167664 0
M  V30 575 C 56.7446 3.12078 0.240107 0
M  V30 576 C 57.2196 4.57859 0.113513 0
M  V30 577 N 58.7106 4.62887 0.170359 0
M  V30 578 C 59.4456 5.73319 0.0962517 0
M  V30 579 N 58.9416 6.92794 -0.0291881 0
M  V30 580 N 60.7346 5.61898 0.150551 0
M  V30 581 H 52.8856 1.89923 -0.950956 0
M  V30 582 H 55.1486 0.873824 -0.367608 0
M  V30 583 H 54.8546 3.42501 -0.799102 0
M  V30 584 H 54.7286 3.654 0.936083 0
M  V30 585 H 57.1156 2.69718 1.19733 0
M  V30 586 H 57.1966 2.49623 -0.558763 0
M  V30 587 H 56.8406 5.009 -0.840314 0
M  V30 588 H 56.7706 5.18299 0.931302 0
M  V30 589 H 59.2616 3.76954 0.26728 0
M  V30 590 H 59.5746 7.7276 -0.0789252 0
M  V30 591 H 57.9196 6.94971 -0.0640299 0
M  V30 592 H 61.1106 4.67448 0.246981 0
M  V30 593 H 61.2836 6.47938 0.0893365 0
M  V30 594 N 54.6897 -0.239769 1.55765 0
M  V30 595 C 56.1057 -0.588624 1.48349 0
M  V30 596 C 56.3057 -1.88005 0.72502 0
M  V30 597 O 55.3617 -2.51186 0.257269 0
M  V30 598 C 56.6747 -0.68474 2.928 0
M  V30 599 C 58.2227 -0.77659 3.03213 0
M  V30 600 C 58.6977 -0.904207 4.48986 0
M  V30 601 N 60.1887 -0.968896 4.52953 0
M  V30 602 C 60.9237 -1.08703 5.63002 0
M  V30 603 N 60.4197 -1.17026 6.82845 0
M  V30 604 N 62.2127 -1.12074 5.50814 0
M  V30 605 H 54.3637 0.607911 2.03515 0
M  V30 606 H 56.6267 0.21083 0.924259 0
M  V30 607 H 56.3327 0.194284 3.51163 0
M  V30 608 H 56.2067 -1.55435 3.43686 0
M  V30 609 H 58.5937 -1.64606 2.44926 0
M  V30 610 H 58.6747 0.118315 2.55526 0
M  V30 611 H 58.3187 -0.0392633 5.07885 0
M  V30 612 H 58.2487 -1.81426 4.9436 0
M  V30 613 H 60.7397 -0.915633 3.6664 0
M  V30 614 H 61.0527 -1.25966 7.62465 0
M  V30 615 H 59.3977 -1.13971 6.85591 0
M  V30 616 H 62.5887 -1.05226 4.5612 0
M  V30 617 H 62.7617 -1.20936 6.36615 0
M  V30 618 N 56.1678 -1.49265 -0.50573 0
M  V30 619 C 57.1158 -1.66065 -1.62866 0
M  V30 620 C 58.1098 -0.526636 -1.61006 0
M  V30 621 O 59.3158 -0.706126 -1.65571 0
M  V30 622 H 55.6908 -0.52356 -0.539805 0
M  V30 623 H 57.6618 -2.60329 -1.45848 0
M  V30 624 C 56.4108 -1.74008 -3.01026 0
M  V30 625 H 55.7338 -2.6064 -3.03161 0
M  V30 626 H 57.1738 -1.89798 -3.79147 0
M  V30 627 C 55.6328 -0.483868 -3.33407 0
M  V30 628 O 56.1628 0.392548 -3.99777 0
M  V30 629 N 54.3688 -0.348236 -2.88506 0
M  V30 630 H 53.9158 -1.06242 -2.34671 0
M  V30 631 H 53.8738 0.491204 -3.10539 0
M  V30 632 N 57.6459 0.756429 -1.3826 0
M  V30 633 C 58.6089 1.85176 -1.35065 0
M  V30 634 C 59.6089 1.58818 -0.251703 0
M  V30 635 O 60.7989 1.66615 -0.508433 0
M  V30 636 C 57.9309 3.22596 -1.10201 0
M  V30 637 H 59.1239 1.89417 -2.3251 0
M  V30 638 H 56.6769 0.95783 -1.23512 0
M  V30 639 H 57.4119 3.24025 -0.133504 0
M  V30 640 H 57.1969 3.43122 -1.89762 0
M  V30 641 H 58.6869 4.02673 -1.10654 0
M  V30 642 N 59.124 1.23083 0.984299 0
M  V30 643 C 60.072 1.00593 2.09723 0
M  V30 644 C 61.066 -0.0538014 1.69315 0
M  V30 645 O 62.272 0.0993719 1.79725 0
M  V30 646 H 58.647 0.30817 0.685956 0
M  V30 647 H 60.618 1.95012 2.2586 0
M  V30 648 C 59.367 0.609601 3.42314 0
M  V30 649 H 58.69 1.41675 3.73856 0
M  V30 650 H 60.13 0.491726 4.21139 0
M  V30 651 C 58.589 -0.681745 3.2993 0
M  V30 652 O 59.119 -1.73192 3.62446 0
M  V30 653 N 57.325 -0.656178 2.83095 0
M  V30 654 H 56.872 0.198759 2.56832 0
M  V30 655 H 56.83 -1.52044 2.75191 0
M  V30 656 N 60.6021 -1.18246 1.0419 0
M  V30 657 C 61.8301 -1.92195 0.766072 0
M  V30 658 C 62.2451 -1.76247 -0.676933 0
M  V30 659 O 61.6021 -1.09293 -1.46155 0
M  V30 660 C 61.6531 -3.43568 1.12442 0
M  V30 661 O 61.3741 -3.59015 2.51078 0
M  V30 662 C 62.8751 -4.34613 0.873275 0
M  V30 663 H 60.0951 -0.610114 0.279288 0
M  V30 664 H 62.6391 -1.50007 1.38989 0
M  V30 665 H 60.7941 -3.8354 0.545542 0
M  V30 666 H 61.2081 -4.5273 2.64831 0
M  V30 667 H 62.6821 -5.39374 1.17385 0
M  V30 668 H 63.1591 -4.38781 -0.191909 0
M  V30 669 H 63.7651 -4.00341 1.43551 0
M  V30 670 N 62.0802 -0.821533 -1.34494 0
M  V30 671 C 63.3272 -0.408946 -1.98328 0
M  V30 672 C 63.6552 1.02764 -1.65136 0
M  V30 673 O 62.9102 1.73026 -0.914349 0
M  V30 674 C 63.2092 -0.556512 -3.53041 0
M  V30 675 C 62.8752 -1.95861 -4.0614 0
M  V30 676 C 61.5372 -2.34217 -4.20352 0
M  V30 677 C 63.8892 -2.87523 -4.34718 0
M  V30 678 C 61.2172 -3.63572 -4.6047 0
M  V30 679 C 63.5692 -4.1634 -4.76281 0
M  V30 680 C 62.2332 -4.54675 -4.88699 0
M  V30 681 H 61.5032 -0.149644 -0.725732 0
M  V30 682 H 64.1502 -1.04521 -1.6046 0
M  V30 683 H 62.4552 0.163148 -3.9146 0
M  V30 684 H 64.1522 -0.217826 -4.00408 0
M  V30 685 H 60.7422 -1.65066 -3.95539 0
M  V30 686 H 64.9262 -2.59133 -4.23277 0
M  V30 687 H 60.1822 -3.93101 -4.68275 0
M  V30 688 H 64.3562 -4.87455 -4.97354 0
M  V30 689 H 61.9832 -5.54959 -5.19542 0
M  V30 690 N 63.5583 1.46682 -0.576371 0
M  V30 691 C 64.8073 2.01619 -0.0572825 0
M  V30 692 C 65.1203 1.45417 1.30818 0
M  V30 693 O 66.3263 1.92133 1.91825 0
M  V30 694 C 64.7823 3.59863 -0.0518371 0
M  V30 695 C 64.3903 4.25059 -1.41523 0
M  V30 696 C 66.1343 4.2248 0.413639 0
M  V30 697 C 64.0413 5.75364 -1.36785 0
M  V30 698 H 62.9713 0.753794 -0.0176448 0
M  V30 699 H 65.6223 1.68481 -0.727076 0
M  V30 700 H 64.0043 3.90048 0.683994 0
M  V30 701 H 65.1783 4.06491 -2.17029 0
M  V30 702 H 63.4933 3.7451 -1.8202 0
M  V30 703 H 66.0903 5.3265 0.467779 0
M  V30 704 H 66.4333 3.90976 1.42982 0
M  V30 705 H 66.9663 3.96897 -0.267929 0
M  V30 706 H 63.7053 6.11518 -2.36063 0
M  V30 707 H 63.2253 5.96214 -0.654895 0
M  V30 708 H 64.9043 6.37955 -1.07805 0
M  V30 709 N 65.0364 0.313813 1.54444 0
M  V30 710 C 66.2614 -0.296681 2.05267 0
M  V30 711 C 66.6864 -1.45757 1.18897 0
M  V30 712 O 66.0444 -1.80239 0.195886 0
M  V30 713 C 66.0924 -0.71831 3.53373 0
M  V30 714 O 65.1964 -1.82175 3.69981 0
M  V30 715 H 64.5374 -0.0554061 0.661684 0
M  V30 716 H 67.0674 0.459387 1.99376 0
M  V30 717 H 67.0774 -1.00364 3.95463 0
M  V30 718 H 65.7524 0.130821 4.15694 0
M  V30 719 H 64.3294 -1.53598 3.39797 0
M  V30 720 N 66.5145 -1.57545 0.0417849 0
M  V30 721 C 67.9255 -1.80011 -0.495259 0
M  V30 722 C 68.2765 -0.953199 -1.71489 0
M  V30 723 O 67.4015 -0.167138 -2.15754 0
M  V30 724 C 67.9965 -3.26482 -0.905265 0
M  V30 725 C 66.5555 -3.499 -1.38734 0
M  V30 726 C 65.7025 -2.74979 -0.358056 0
M  V30 727 H 68.6535 -1.56425 0.267736 0
M  V30 728 H 68.6745 -3.36887 -1.76882 0
M  V30 729 H 68.1865 -3.88096 -0.017401 0
M  V30 730 H 66.2875 -2.93553 -2.29471 0
M  V30 731 H 66.4005 -4.58615 -1.38598 0
M  V30 732 H 64.7645 -2.40834 -0.828912 0
M  V30 733 H 65.5475 -3.39315 0.521561 0
M  V30 734 N 67.9926 0.231505 -1.5589 0
M  V30 735 C 68.9246 1.31006 -1.8807 0
M  V30 736 C 69.9376 1.43539 -0.768145 0
M  V30 737 O 71.1266 1.44614 -1.04638 0
M  V30 738 C 68.2266 2.68688 -2.06543 0
M  V30 739 C 67.3996 2.78228 -3.37502 0
M  V30 740 C 66.4586 3.96857 -3.4553 0
M  V30 741 O 65.4846 3.85662 -4.18633 0
M  V30 742 N 66.6866 5.1072 -2.75944 0
M  V30 743 H 69.4516 1.03731 -2.81176 0
M  V30 744 H 67.0126 0.421573 -1.56315 0
M  V30 745 H 69.0046 3.46412 -2.09239 0
M  V30 746 H 67.5746 2.88605 -1.20109 0
M  V30 747 H 66.7946 1.87059 -3.46991 0
M  V30 748 H 68.0826 2.81564 -4.23791 0
M  V30 749 H 67.4806 5.2271 -2.16311 0
M  V30 750 H 66.0376 5.86523 -2.84314 0
M  V30 751 N 69.4707 1.49531 0.497807 0
M  V30 752 C 70.4027 1.62559 1.61578 0
M  V30 753 C 71.4157 0.508134 1.54667 0
M  V30 754 O 72.6047 0.780309 1.60541 0
M  V30 755 C 69.7047 1.56925 3.00379 0
M  V30 756 C 68.8777 2.84257 3.3244 0
M  V30 757 C 67.9367 2.71632 4.50669 0
M  V30 758 O 66.9627 3.4557 4.52294 0
M  V30 759 N 68.1647 1.83391 5.5077 0
M  V30 760 H 70.9297 2.58981 1.50828 0
M  V30 761 H 68.4907 1.4666 0.685743 0
M  V30 762 H 70.4827 1.46129 3.77397 0
M  V30 763 H 69.0527 0.683483 3.05037 0
M  V30 764 H 68.2727 3.09381 2.44289 0
M  V30 765 H 69.5607 3.68666 3.5066 0
M  V30 766 H 68.9587 1.22583 5.52259 0
M  V30 767 H 67.5157 1.78515 6.26878 0
M  V30 768 N 70.9488 -0.749086 1.3866 0
M  V30 769 C 72.3648 -1.05276 1.19955 0
M  V30 770 C 72.5648 -2.01435 0.05134 0
M  V30 771 O 71.6208 -2.45232 -0.60147 0
M  V30 772 C 72.9338 -1.62853 2.52783 0
M  V30 773 C 74.4818 -1.75002 2.59506 0
M  V30 774 C 74.9568 -2.35991 3.92521 0
M  V30 775 N 76.4478 -2.43416 3.94085 0
M  V30 776 C 77.1828 -2.91511 4.9377 0
M  V30 777 N 76.6788 -3.39608 6.03853 0
M  V30 778 N 78.4718 -2.90592 4.81157 0
M  V30 779 H 70.6228 -0.111066 2.12109 0
M  V30 780 H 72.8858 -0.111901 0.941373 0
M  V30 781 H 72.5918 -0.99664 3.37283 0
M  V30 782 H 72.4658 -2.61854 2.715 0
M  V30 783 H 74.8528 -2.37317 1.75398 0
M  V30 784 H 74.9338 -0.74693 2.44652 0
M  V30 785 H 74.5778 -1.74308 4.77053 0
M  V30 786 H 74.5078 -3.3695 4.04688 0
M  V30 787 H 76.9988 -2.09405 3.14576 0
M  V30 788 H 77.3118 -3.74775 6.75843 0
M  V30 789 H 75.6568 -3.37653 6.07466 0
M  V30 790 H 78.8478 -2.52332 3.94267 0
M  V30 791 H 79.0208 -3.27762 5.58996 0
M  V30 792 N 72.4269 -1.23603 -0.977757 0
M  V30 793 C 73.6729 -1.08136 -1.72274 0
M  V30 794 C 74.0279 0.377453 -1.88661 0
M  V30 795 O 73.3209 1.27552 -1.42972 0
M  V30 796 C 73.5149 -1.7433 -3.11999 0
M  V30 797 C 73.3439 -3.26498 -3.0924 0
M  V30 798 C 72.1139 -3.9567 -3.14282 0
M  V30 799 C 74.3119 -4.2323 -2.92201 0
M  V30 800 N 72.2939 -5.34799 -3.01436 0
M  V30 801 C 73.6649 -5.49289 -2.87544 0
M  V30 802 C 75.7199 -4.13931 -2.76705 0
M  V30 803 C 74.4229 -6.67116 -2.68978 0
M  V30 804 C 76.4489 -5.31424 -2.59504 0
M  V30 805 C 75.8109 -6.5641 -2.55548 0
M  V30 806 H 71.9099 -0.450247 -0.639376 0
M  V30 807 H 74.4939 -1.5637 -1.16002 0
M  V30 808 H 72.6649 -1.28624 -3.66484 0
M  V30 809 H 74.3969 -1.51815 -3.75146 0
M  V30 810 H 71.1519 -3.46767 -3.22567 0
M  V30 811 H 71.5759 -6.07748 -2.98281 0
M  V30 812 H 76.2179 -3.1807 -2.78552 0
M  V30 813 H 73.9359 -7.63109 -2.65876 0
M  V30 814 H 77.5219 -5.26072 -2.48474 0
M  V30 815 H 76.4019 -7.45795 -2.42405 0
M  V30 816 N 73.905 1.17692 -1.04816 0
M  V30 817 C 75.321 1.39863 -0.768794 0
M  V30 818 C 75.521 1.91118 0.638451 0
M  V30 819 O 74.577 2.10036 1.40146 0
M  V30 820 C 75.89 2.39274 -1.82122 0
M  V30 821 C 77.438 2.52987 -1.843 0
M  V30 822 C 77.913 3.55669 -2.88555 0
M  V30 823 N 79.404 3.63183 -2.87493 0
M  V30 824 C 80.139 4.42381 -3.64811 0
M  V30 825 N 79.635 5.25125 -4.51903 0
M  V30 826 N 81.428 4.37217 -3.53267 0
M  V30 827 H 73.579 0.82752 -1.95617 0
M  V30 828 H 75.842 0.426123 -0.846831 0
M  V30 829 H 75.548 2.08678 -2.83102 0
M  V30 830 H 75.422 3.38725 -1.65967 0
M  V30 831 H 77.809 2.82896 -0.839869 0
M  V30 832 H 77.89 1.53623 -2.04532 0
M  V30 833 H 77.534 3.26499 -3.89051 0
M  V30 834 H 77.464 4.54728 -2.65575 0
M  V30 835 H 79.955 3.04103 -2.24343 0
M  V30 836 H 80.268 5.82728 -5.07591 0
M  V30 837 H 78.613 5.24519 -4.55966 0
M  V30 838 H 81.804 3.71626 -2.84625 0
M  V30 839 H 81.977 4.98696 -4.13771 0
M  V30 840 N 75.3831 0.828654 1.34056 0
M  V30 841 C 76.3461 0.259927 2.27721 0
M  V30 842 C 77.3461 -0.565478 1.50529 0
M  V30 843 O 78.5361 -0.38075 1.69988 0
M  V30 844 C 75.6681 -0.634944 3.34935 0
M  V30 845 H 76.8611 1.0863 2.79534 0
M  V30 846 H 74.4141 0.600951 1.44285 0
M  V30 847 H 75.1491 -1.48416 2.88346 0
M  V30 848 H 74.9341 -0.0444999 3.92075 0
M  V30 849 H 76.4241 -1.02648 4.04788 0
M  V30 850 N 76.8612 -1.46375 0.584142 0
M  V30 851 C 77.8082 -2.30323 -0.148286 0
M  V30 852 C 78.7782 -1.40703 -0.882713 0
M  V30 853 O 79.9632 -1.69651 -0.873099 0
M  V30 854 C 77.1032 -3.25196 -1.15507 0
M  V30 855 C 76.2162 -4.29915 -0.423943 0
M  V30 856 C 75.3512 -5.11914 -1.41838 0
M  V30 857 C 74.3902 -6.08381 -0.673736 0
M  V30 858 N 73.5272 -6.83242 -1.6163 0
M  V30 859 H 78.3672 -2.92427 0.573644 0
M  V30 860 H 75.9042 -1.44118 0.294703 0
M  V30 861 H 77.8622 -3.78646 -1.75166 0
M  V30 862 H 76.4922 -2.64898 -1.8447 0
M  V30 863 H 75.5442 -3.7931 0.287714 0
M  V30 864 H 76.8562 -4.98549 0.158128 0
M  V30 865 H 76.0102 -5.69648 -2.08773 0
M  V30 866 H 74.7492 -4.43243 -2.03438 0
M  V30 867 H 73.7542 -5.49799 0.00938483 0
M  V30 868 H 74.9792 -6.79071 -0.0631082 0
M  V30 869 H 72.9252 -6.1728 -2.22038 0
M  V30 870 H 72.8422 -7.48144 -1.08707 0
M  V30 871 H 74.1102 -7.45534 -2.27596 0
M  V30 872 N 78.3393 -0.321999 -1.54275 0
M  V30 873 C 79.5853 0.281461 -2.00837 0
M  V30 874 C 79.9183 1.51909 -1.20985 0
M  V30 875 O 79.1933 1.923 -0.291733 0
M  V30 876 C 79.4763 0.617162 -3.54772 0
M  V30 877 C 79.3293 -0.631064 -4.45351 0
M  V30 878 C 80.6483 1.43542 -4.16033 0
M  V30 879 H 77.7673 0.100826 -0.730071 0
M  V30 880 H 80.4093 -0.438268 -1.84876 0
M  V30 881 H 78.5593 1.23034 -3.68504 0
M  V30 882 H 80.2313 -1.26934 -4.43492 0
M  V30 883 H 78.4743 -1.26025 -4.15091 0
M  V30 884 H 79.1453 -0.351735 -5.50878 0
M  V30 885 H 81.6213 0.917134 -4.05867 0
M  V30 886 H 80.4973 1.63907 -5.23856 0
M  V30 887 H 80.7583 2.43108 -3.69257 0
M  V30 888 N 79.8174 1.5752 -0.0501392 0
M  V30 889 C 80.7494 2.08413 0.95376 0
M  V30 890 C 81.7624 1.01175 1.27544 0
M  V30 891 O 82.9514 1.28744 1.23641 0
M  V30 892 C 80.0514 2.51138 2.27559 0
M  V30 893 C 79.2244 3.817 2.13598 0
M  V30 894 C 78.2834 4.10749 3.28895 0
M  V30 895 O 77.3094 4.80685 3.04845 0
M  V30 896 N 78.5114 3.62579 4.5334 0
M  V30 897 H 81.2764 2.95165 0.519383 0
M  V30 898 H 78.8374 1.61327 0.136127 0
M  V30 899 H 80.8294 2.67648 3.03557 0
M  V30 900 H 79.3994 1.6964 2.62567 0
M  V30 901 H 78.6194 3.74782 1.22197 0
M  V30 902 H 79.9074 4.67201 2.01496 0
M  V30 903 H 79.3054 3.06039 4.75769 0
M  V30 904 H 77.8624 3.84329 5.26436 0
M  V30 905 N 81.2955 -0.223234 1.56011 0
M  V30 906 C 82.2055 -1.29766 1.95443 0
M  V30 907 C 83.2215 -1.51373 0.858028 0
M  V30 908 O 84.3975 -1.64536 1.16146 0
M  V30 909 C 81.4625 -2.62772 2.26167 0
M  V30 910 C 80.5235 -2.49482 3.49367 0
M  V30 911 C 79.7565 -3.76145 3.78616 0
M  V30 912 O 79.9795 -4.79087 3.09568 0
M  V30 913 O 78.9135 -3.73358 4.72109 0
M  V30 914 H 82.7395 -0.99309 2.87004 0
M  V30 915 H 80.3245 -0.425958 1.43199 0
M  V30 916 H 82.2065 -3.41327 2.47131 0
M  V30 917 H 80.8815 -2.92913 1.37781 0
M  V30 918 H 79.7885 -1.69133 3.33684 0
M  V30 919 H 81.1215 -2.2428 4.38131 0
M  V30 920 N 82.7736 -1.49793 -0.48987 0
M  V30 921 C 84.1896 -1.36803 -0.822022 0
M  V30 922 C 84.3896 -0.409652 -1.97292 0
M  V30 923 O 83.4456 0.154614 -2.52026 0
M  V30 924 C 84.7586 -2.77768 -1.15175 0
M  V30 925 C 86.3066 -2.86549 -1.25931 0
M  V30 926 C 86.7816 -4.28306 -1.62228 0
M  V30 927 N 88.2726 -4.31169 -1.69256 0
M  V30 928 C 89.0076 -5.37832 -1.98807 0
M  V30 929 N 88.5036 -6.54726 -2.26507 0
M  V30 930 N 90.2966 -5.25258 -2.00152 0
M  V30 931 H 82.4476 -2.10691 0.268881 0
M  V30 932 H 84.7106 -0.946241 0.057728 0
M  V30 933 H 84.4166 -3.49648 -0.379335 0
M  V30 934 H 84.2906 -3.13836 -2.09253 0
M  V30 935 H 86.6776 -2.14899 -2.02243 0
M  V30 936 H 86.7586 -2.54049 -0.298776 0
M  V30 937 H 86.4026 -5.00486 -0.864622 0
M  V30 938 H 86.3326 -4.58279 -2.594 0
M  V30 939 H 88.8236 -3.4687 -1.49965 0
M  V30 940 H 89.1366 -7.31833 -2.48276 0
M  V30 941 H 87.4816 -6.57933 -2.23939 0
M  V30 942 H 90.6726 -4.32938 -1.77996 0
M  V30 943 H 90.8456 -6.08476 -2.22848 0
M  V30 944 N 84.2517 0.741722 -1.39055 0
M  V30 945 C 85.5007 1.49656 -1.35225 0
M  V30 946 C 85.8137 1.95533 0.0512708 0
M  V30 947 O 87.0197 2.7067 0.212138 0
M  V30 948 C 85.4757 2.70389 -2.37525 0
M  V30 949 C 85.0837 2.31489 -3.83558 0
M  V30 950 C 86.8277 3.48236 -2.42759 0
M  V30 951 C 84.7347 3.48903 -4.77515 0
M  V30 952 H 83.6647 0.56197 -0.502699 0
M  V30 953 H 86.3157 0.809727 -1.64668 0
M  V30 954 H 84.6977 3.41113 -2.01142 0
M  V30 955 H 85.8717 1.68354 -4.28945 0
M  V30 956 H 84.1867 1.66749 -3.81554 0
M  V30 957 H 86.7837 4.35558 -3.1015 0
M  V30 958 H 87.1267 3.90229 -1.45008 0
M  V30 959 H 87.6597 2.84535 -2.78002 0
M  V30 960 H 84.3987 3.11966 -5.76504 0
M  V30 961 H 83.9187 4.11041 -4.36813 0
M  V30 962 H 85.5977 4.15328 -4.96096 0
M  V30 963 N 85.7298 1.2412 0.971189 0
M  V30 964 C 87.1458 1.00584 1.23916 0
M  V30 965 C 87.3458 -0.287481 1.99439 0
M  V30 966 O 86.4018 -1.00454 2.31658 0
M  V30 967 C 87.7148 2.21864 2.0297 0
M  V30 968 C 89.2628 2.26452 2.16076 0
M  V30 969 C 89.7378 3.47343 2.98524 0
M  V30 970 N 91.2288 3.47639 3.06107 0
M  V30 971 C 91.9638 4.37837 3.70251 0
M  V30 972 N 91.4598 5.38286 4.36142 0
M  V30 973 N 93.2528 4.25558 3.67228 0
M  V30 974 H 85.4038 2.07236 0.465499 0
M  V30 975 H 87.6668 0.909236 0.268315 0
M  V30 976 H 87.3728 3.15771 1.54861 0
M  V30 977 H 87.2468 2.23698 3.03709 0
M  V30 978 H 89.6338 1.33078 2.6339 0
M  V30 979 H 89.7148 2.28645 1.14696 0
M  V30 980 H 89.3588 4.41029 2.51905 0
M  V30 981 H 89.2888 3.42393 4.00093 0
M  V30 982 H 91.7798 2.74966 2.59233 0
M  V30 983 H 92.0928 6.03352 4.82894 0
M  V30 984 H 90.4378 5.42176 4.34822 0
M  V30 985 H 93.6288 3.46322 3.14927 0
M  V30 986 H 93.8018 4.96054 4.16935 0
M  V30 987 N 87.2079 -1.17134 1.05439 0
M  V30 988 C 88.1179 -2.24878 0.668365 0
M  V30 989 C 89.1339 -1.71186 -0.311687 0
M  V30 990 O 90.3099 -2.00738 -0.163161 0
M  V30 991 C 87.3749 -3.46662 0.051648 0
M  V30 992 C 86.4359 -4.15429 1.08246 0
M  V30 993 C 85.6689 -5.31399 0.495082 0
M  V30 994 O 85.8919 -5.66153 -0.694743 0
M  V30 995 O 84.8259 -5.89187 1.23056 0
M  V30 996 H 88.6519 -2.60189 1.56637 0
M  V30 997 H 86.2369 -1.24482 0.826104 0
M  V30 998 H 88.1189 -4.20394 -0.290966 0
M  V30 999 H 86.7939 -3.13142 -0.819971 0
M  V30 1000 H 85.7009 -3.43704 1.47711 0
M  V30 1001 H 87.0339 -4.52982 1.92532 0
M  V30 1002 N 88.686 -0.835752 -1.33615 0
M  V30 1003 C 90.102 -0.523139 -1.50783 0
M  V30 1004 C 90.302 0.950171 -1.77691 0
M  V30 1005 O 89.358 1.73411 -1.83534 0
M  V30 1006 C 90.671 -1.39378 -2.66448 0
M  V30 1007 C 92.219 -1.39223 -2.80332 0
M  V30 1008 C 92.694 -2.24765 -3.99055 0
M  V30 1009 N 94.185 -2.22458 -4.06284 0
M  V30 1010 C 94.92 -2.85386 -4.97336 0
M  V30 1011 N 94.416 -3.57354 -5.93523 0
M  V30 1012 N 96.209 -2.74872 -4.90308 0
M  V30 1013 H 88.36 -1.78952 -1.14411 0
M  V30 1014 H 90.623 -0.763297 -0.562212 0
M  V30 1015 H 90.329 -2.44061 -2.53234 0
M  V30 1016 H 90.203 -1.0676 -3.61776 0
M  V30 1017 H 92.59 -0.353136 -2.92979 0
M  V30 1018 H 92.671 -1.75846 -1.85773 0
M  V30 1019 H 92.315 -3.28732 -3.87167 0
M  V30 1020 H 92.245 -1.85485 -4.92852 0
M  V30 1021 H 94.736 -1.70119 -3.37443 0
M  V30 1022 H 95.049 -4.02584 -6.59656 0
M  V30 1023 H 93.394 -3.61461 -5.93608 0
M  V30 1024 H 96.585 -2.18213 -4.14126 0
M  V30 1025 H 96.758 -3.24199 -5.61069 0
M  V30 1026 N 90.1641 1.46063 -0.591896 0
M  V30 1027 C 91.3891 2.07226 -0.0850314 0
M  V30 1028 C 91.8141 1.43625 1.21463 0
M  V30 1029 O 91.1721 0.523305 1.73583 0
M  V30 1030 C 91.2201 3.60554 0.0576567 0
M  V30 1031 O 90.3241 3.97128 1.11188 0
M  V30 1032 H 89.6651 0.660615 -0.0669568 0
M  V30 1033 H 92.1951 1.8756 -0.81745 0
M  V30 1034 H 92.2051 4.07165 0.2609 0
M  V30 1035 H 90.8801 4.06235 -0.891416 0
M  V30 1036 H 89.4571 3.62213 0.886356 0
M  V30 1037 N 91.6422 0.330177 1.54103 0
M  V30 1038 C 92.5892 -0.532762 2.24567 0
M  V30 1039 C 93.5592 -1.10635 1.23892 0
M  V30 1040 O 94.7442 -1.14546 1.5259 0
M  V30 1041 C 91.8842 -1.6845 3.01195 0
M  V30 1042 C 90.9972 -1.13951 4.167 0
M  V30 1043 C 90.1322 -2.25746 4.80845 0
M  V30 1044 C 89.1712 -1.6853 5.88442 0
M  V30 1045 N 88.3082 -2.74014 6.46421 0
M  V30 1046 H 93.1482 0.0746905 2.97906 0
M  V30 1047 H 90.6852 0.048632 1.4702 0
M  V30 1048 H 92.6432 -2.36234 3.43874 0
M  V30 1049 H 91.2732 -2.26314 2.30178 0
M  V30 1050 H 90.3252 -0.35301 3.78758 0
M  V30 1051 H 91.6372 -0.680892 4.94131 0
M  V30 1052 H 90.7912 -3.01422 5.26526 0
M  V30 1053 H 89.5302 -2.74947 4.0281 0
M  V30 1054 H 88.5352 -0.913543 5.42157 0
M  V30 1055 H 89.7602 -1.20198 6.68378 0
M  V30 1056 H 87.7062 -3.22494 5.71256 0
M  V30 1057 H 87.6232 -2.32735 7.19285 0
M  V30 1058 H 88.8912 -3.49499 6.96757 0
M  V30 1059 N 93.1203 -1.57491 0.0584922 0
M  V30 1060 C 94.5313 -1.80526 -0.476138 0
M  V30 1061 C 94.8823 -0.971334 -1.70469 0
M  V30 1062 O 94.0073 -0.190012 -2.15564 0
M  V30 1063 C 94.6023 -3.27424 -0.870587 0
M  V30 1064 C 93.1613 -3.51351 -1.35015 0
M  V30 1065 C 92.3083 -2.75343 -0.32887 0
M  V30 1066 H 95.2593 -1.56133 0.284312 0
M  V30 1067 H 95.2803 -3.38745 -1.73299 0
M  V30 1068 H 94.7923 -3.88093 0.0237627 0
M  V30 1069 H 92.8933 -2.95971 -2.26345 0
M  V30 1070 H 93.0063 -4.60059 -1.33726 0
M  V30 1071 H 91.3703 -2.417 -0.803321 0
M  V30 1072 H 92.1533 -3.38743 0.557521 0
M  V30 1073 N 94.5984 0.214957 -1.56127 0
M  V30 1074 C 95.8444 0.939762 -1.79712 0
M  V30 1075 C 96.1774 1.83723 -0.629247 0
M  V30 1076 O 95.4524 1.90925 0.371197 0
M  V30 1077 C 95.7354 1.77306 -3.13424 0
M  V30 1078 C 95.5884 0.90164 -4.40671 0
M  V30 1079 C 96.9074 2.74956 -3.43638 0
M  V30 1080 H 94.0264 0.340214 -0.653776 0
M  V30 1081 H 96.6684 0.20824 -1.88855 0
M  V30 1082 H 94.8184 2.39673 -3.0576 0
M  V30 1083 H 96.4904 0.294206 -4.60361 0
M  V30 1084 H 94.7334 0.207368 -4.33304 0
M  V30 1085 H 95.4044 1.51923 -5.30682 0
M  V30 1086 H 97.8804 2.22724 -3.51473 0
M  V30 1087 H 96.7564 3.30358 -4.38355 0
M  V30 1088 H 97.0174 3.53023 -2.66134 0
M  V30 1089 N 96.0765 1.50051 0.48192 0
M  V30 1090 C 97.0265 1.64512 1.5786 0
M  V30 1091 C 98.0105 0.500073 1.52932 0
M  V30 1092 O 99.2025 0.753964 1.60139 0
M  V30 1093 C 96.3315 1.73263 2.9637 0
M  V30 1094 C 95.4175 2.93409 3.06222 0
M  V30 1095 N 95.8085 4.17236 2.85915 0
M  V30 1096 C 94.1065 2.91742 3.37346 0
M  V30 1097 C 94.8075 4.981 3.00451 0
M  V30 1098 N 93.7835 4.3184 3.30174 0
M  V30 1099 H 97.5855 2.57955 1.40842 0
M  V30 1100 H 95.0995 1.47086 0.688439 0
M  V30 1101 H 97.0965 1.81724 3.75209 0
M  V30 1102 H 95.7565 0.809711 3.14442 0
M  V30 1103 H 96.7675 4.46909 2.6171 0
M  V30 1104 H 93.4445 2.08907 3.61475 0
M  V30 1105 H 94.8345 6.06532 2.89082 0
M  V30 1106 N 97.5546 -0.734337 1.39446 0
M  V30 1107 C 98.4646 -1.87879 1.40495 0
M  V30 1108 C 99.4806 -1.714 0.299672 0
M  V30 1109 O 100.657 -1.93991 0.541249 0
M  V30 1110 C 97.7216 -3.23477 1.24754 0
M  V30 1111 C 96.7826 -3.52344 2.45259 0
M  V30 1112 C 96.0156 -4.81473 2.30259 0
M  V30 1113 O 96.2386 -5.55237 1.30643 0
M  V30 1114 O 95.1726 -5.10254 3.19256 0
M  V30 1115 H 98.9986 -1.89949 2.36966 0
M  V30 1116 H 96.5836 -0.882243 1.20569 0
M  V30 1117 H 98.4656 -4.04509 1.18111 0
M  V30 1118 H 97.1406 -3.22176 0.313781 0
M  V30 1119 H 96.0476 -2.71396 2.57478 0
M  V30 1120 H 97.3806 -3.58426 3.37331 0
M  V30 1121 N 99.0327 -1.24633 -0.964593 0
M  V30 1122 C 99.9627 -1.06611 -2.07741 0
M  V30 1123 C 100.944 0.0218666 -1.70086 0
M  V30 1124 O 102.129 -0.145793 -1.93652 0
M  V30 1125 C 99.2587 -0.673444 -3.40708 0
M  V30 1126 C 98.2127 -1.71054 -3.92332 0
M  V30 1127 C 97.5387 -1.17285 -5.21678 0
M  V30 1128 C 98.8387 -3.10718 -4.19824 0
M  V30 1129 H 100.533 -1.99693 -2.23076 0
M  V30 1130 H 98.0787 -0.96152 -1.07195 0
M  V30 1131 H 100.032 -0.534345 -4.17998 0
M  V30 1132 H 98.7557 0.293073 -3.25282 0
M  V30 1133 H 97.4147 -1.83791 -3.17201 0
M  V30 1134 H 97.0627 -0.196847 -5.02615 0
M  V30 1135 H 96.7627 -1.86592 -5.57187 0
M  V30 1136 H 98.2867 -1.04593 -6.01575 0
M  V30 1137 H 99.7007 -3.01192 -4.87808 0
M  V30 1138 H 98.0977 -3.77406 -4.66567 0
M  V30 1139 H 99.1677 -3.58524 -3.26479 0
M  V30 1140 N 100.511 1.16574 -1.06058 0
M  V30 1141 C 101.459 2.22941 -0.663343 0
M  V30 1142 C 102.453 1.66358 0.319593 0
M  V30 1143 O 103.659 1.7905 0.184713 0
M  V30 1144 H 100.034 0.725907 -0.196376 0
M  V30 1145 H 102.005 2.53736 -1.57037 0
M  V30 1146 C 100.754 3.47642 -0.0632808 0
M  V30 1147 H 100.077 3.91493 -0.810733 0
M  V30 1148 H 101.517 4.2363 0.177177 0
M  V30 1149 C 99.9758 3.1509 1.19248 0
M  V30 1150 O 100.506 3.30673 2.28075 0
M  V30 1151 N 98.7118 2.6924 1.09353 0
M  V30 1152 H 98.2588 2.5676 0.207912 0
M  V30 1153 H 98.2168 2.47833 1.93458 0
M  V30 1154 N 101.989 0.842826 1.3317 0
M  V30 1155 C 103.405 0.531128 1.50503 0
M  V30 1156 C 103.605 -0.940734 1.78192 0
M  V30 1157 O 102.661 -1.72436 1.84451 0
M  V30 1158 C 103.974 1.40789 2.65705 0
M  V30 1159 C 105.522 1.40708 2.79589 0
M  V30 1160 C 105.997 2.26878 3.97857 0
M  V30 1161 N 107.488 2.24609 4.05099 0
M  V30 1162 C 108.223 2.88019 4.95815 0
M  V30 1163 N 107.719 3.60496 5.9162 0
M  V30 1164 N 109.512 2.77469 4.88843 0
M  V30 1165 H 101.663 1.79557 1.1346 0
M  V30 1166 H 103.926 0.766267 0.558156 0
M  V30 1167 H 103.632 2.454 2.51936 0
M  V30 1168 H 103.506 1.08677 3.61205 0
M  V30 1169 H 105.893 0.368668 2.92788 0
M  V30 1170 H 105.974 1.76829 1.84838 0
M  V30 1171 H 105.618 3.3078 3.85418 0
M  V30 1172 H 105.548 1.88096 4.91861 0
M  V30 1173 H 108.039 1.71906 3.36536 0
M  V30 1174 H 108.352 4.06076 6.57512 0
M  V30 1175 H 106.697 3.64604 5.91683 0
M  V30 1176 H 109.888 2.20406 4.12963 0
M  V30 1177 H 110.061 3.2717 5.59342 0
M  V30 1178 N 103.467 -1.45747 0.599634 0
M  V30 1179 C 104.377 -2.34262 -0.125888 0
M  V30 1180 C 105.393 -1.50768 -0.868625 0
M  V30 1181 O 106.569 -1.83592 -0.828003 0
M  V30 1182 C 103.634 -3.28252 -1.11587 0
M  V30 1183 C 102.695 -4.27651 -0.375956 0
M  V30 1184 C 101.928 -5.1715 -1.31877 0
M  V30 1185 O 102.151 -5.09916 -2.55621 0
M  V30 1186 O 101.085 -5.96286 -0.820157 0
M  V30 1187 H 104.911 -2.97688 0.601315 0
M  V30 1188 H 102.496 -1.44999 0.359934 0
M  V30 1189 H 104.378 -3.86191 -1.68626 0
M  V30 1190 H 103.053 -2.67401 -1.82424 0
M  V30 1191 H 101.96 -3.7335 0.236698 0
M  V30 1192 H 103.293 -4.91334 0.29177 0
M  V30 1193 N 104.945 -0.338344 -1.53925 0
M  V30 1194 C 105.908 0.508299 -2.23493 0
M  V30 1195 C 106.908 1.03175 -1.23335 0
M  V30 1196 O 108.098 0.921826 -1.47811 0
M  V30 1197 C 105.23 1.70754 -2.95052 0
M  V30 1198 H 106.423 -0.100058 -2.99733 0
M  V30 1199 H 103.976 -0.0896198 -1.56043 0
M  V30 1200 H 104.711 2.35474 -2.22986 0
M  V30 1201 H 104.496 1.33946 -3.68512 0
M  V30 1202 H 105.986 2.30818 -3.48013 0
M  V30 1203 N 106.423 1.57458 -0.0668435 0
M  V30 1204 C 107.663 1.95175 0.607116 0
M  V30 1205 C 108.027 0.946039 1.67075 0
M  V30 1206 O 109.228 1.2107 2.39991 0
M  V30 1207 C 107.499 3.37582 1.17358 0
M  V30 1208 S 109.058 3.97271 1.86336 0
M  V30 1209 H 105.876 0.682604 0.19893 0
M  V30 1210 H 108.478 1.95002 -0.139519 0
M  V30 1211 H 107.182 4.08566 0.387553 0
M  V30 1212 H 106.713 3.41288 1.95669 0
M  V30 1213 H 108.728 3.83772 3.14537 0
M  V30 1214 N 107.901 -0.206675 1.56239 0
M  V30 1215 C 109.178 -0.954051 1.70755 0
M  V30 1216 C 109.558 -2.01841 0.618353 0
M  V30 1217 O 108.906 -2.25444 -0.372434 0
M  V30 1218 C 109.116 -1.551 3.12642 0
M  V30 1219 C 110.464 -2.03757 3.72516 0
M  V30 1220 O 111.488 -1.64965 3.15698 0
M  V30 1221 O 110.347 -2.75103 4.72208 0
M  V30 1222 H 107.441 -0.446636 0.696021 0
M  V30 1223 H 109.987 -0.197283 1.68549 0
M  V30 1224 H 108.759 -0.783212 3.83382 0
M  V30 1225 H 108.382 -2.37291 3.19028 0
M  V30 1226 N 109.379 -1.50304 -0.473955 0
M  V30 1227 C 110.656 -1.51667 -1.23518 0
M  V30 1228 C 111.036 -0.259701 -2.09496 0
M  V30 1229 O 110.384 0.756986 -2.15597 0
M  V30 1230 C 110.594 -2.81082 -2.06868 0
M  V30 1231 C 111.942 -3.31631 -2.65153 0
M  V30 1232 O 112.966 -2.82384 -2.17113 0
M  V30 1233 O 111.825 -4.17471 -3.52675 0
M  V30 1234 H 108.919 -0.60822 -0.560355 0
M  V30 1235 H 111.465 -1.62592 -0.486011 0
M  V30 1236 H 110.237 -3.64041 -1.4349 0
M  V30 1237 H 109.86 -2.73146 -2.88924 0
M  V30 1238 N 110.857 0.726932 -1.39834 0
M  V30 1239 C 112.087 1.51393 -1.40583 0
M  V30 1240 C 112.495 1.892 -0.000740625 0
M  V30 1241 O 111.838 1.55189 0.982951 0
M  V30 1242 C 111.9 2.82588 -2.22226 0
M  V30 1243 C 111.564 2.67169 -3.70769 0
M  V30 1244 C 112.561 2.3518 -4.63666 0
M  V30 1245 C 110.246 2.83788 -4.14451 0
M  V30 1246 C 112.24 2.20002 -5.98229 0
M  V30 1247 C 109.927 2.68229 -5.49087 0
M  V30 1248 C 110.925 2.36382 -6.4079 0
M  V30 1249 O 110.613 2.2093 -7.72946 0
M  V30 1250 H 110.345 0.474168 -0.48181 0
M  V30 1251 H 112.899 0.905247 -1.84376 0
M  V30 1252 H 111.129 3.45746 -1.73195 0
M  V30 1253 H 112.818 3.44247 -2.15055 0
M  V30 1254 H 113.584 2.21984 -4.31217 0
M  V30 1255 H 109.463 3.07566 -3.43401 0
M  V30 1256 H 113.007 1.95067 -6.69772 0
M  V30 1257 H 108.904 2.81006 -5.81125 0
M  V30 1258 H 109.672 2.35937 -7.83757 0
M  V30 1259 N 112.336 1.25143 0.95797 0
M  V30 1260 C 113.752 1.01892 1.22842 0
M  V30 1261 C 113.952 -0.266311 1.99732 0
M  V30 1262 O 113.008 -0.979913 2.3271 0
M  V30 1263 C 114.321 2.24004 2.00606 0
M  V30 1264 C 115.869 2.28731 2.13662 0
M  V30 1265 C 116.344 3.5049 2.94823 0
M  V30 1266 N 117.835 3.50866 3.02403 0
M  V30 1267 C 118.57 4.4174 3.65586 0
M  V30 1268 N 118.066 5.42882 4.30408 0
M  V30 1269 N 119.859 4.29429 3.62694 0
M  V30 1270 H 112.01 2.07718 0.443493 0
M  V30 1271 H 114.273 0.912031 0.258657 0
M  V30 1272 H 113.979 3.17395 1.51503 0
M  V30 1273 H 113.853 2.26907 3.01319 0
M  V30 1274 H 116.24 1.35865 2.61963 0
M  V30 1275 H 116.321 2.29848 1.12265 0
M  V30 1276 H 115.965 4.43676 2.47213 0
M  V30 1277 H 115.895 3.46617 3.96439 0
M  V30 1278 H 118.386 2.777 2.56302 0
M  V30 1279 H 118.699 6.0844 4.76467 0
M  V30 1280 H 117.044 5.46758 4.29047 0
M  V30 1281 H 120.235 3.49643 3.11236 0
M  V30 1282 H 120.408 5.00448 4.1165 0
M  V30 1283 N 113.814 -1.1601 1.06675 0
M  V30 1284 C 114.744 -2.22688 0.702307 0
M  V30 1285 C 115.725 -1.67306 -0.307032 0
M  V30 1286 O 116.91 -1.93352 -0.181305 0
M  V30 1287 C 114.04 -3.47178 0.092038 0
M  V30 1288 C 112.994 -4.15477 1.02777 0
M  V30 1289 C 112.32 -5.33963 0.28061 0
M  V30 1290 C 113.62 -4.66019 2.35846 0
M  V30 1291 H 115.314 -2.53429 1.59419 0
M  V30 1292 H 112.86 -1.21813 0.767961 0
M  V30 1293 H 114.813 -4.21037 -0.174814 0
M  V30 1294 H 113.537 -3.15749 -0.834877 0
M  V30 1295 H 112.196 -3.43549 1.27944 0
M  V30 1296 H 111.844 -4.98788 -0.649545 0
M  V30 1297 H 111.544 -5.806 0.904258 0
M  V30 1298 H 113.068 -6.10596 0.021396 0
M  V30 1299 H 114.482 -5.3144 2.15045 0
M  V30 1300 H 112.879 -5.23293 2.93743 0
M  V30 1301 H 113.949 -3.82023 2.98641 0
M  V30 1302 N 115.292 -0.849877 -1.32721 0
M  V30 1303 C 116.532 -0.457146 -1.99222 0
M  V30 1304 C 116.896 0.968038 -1.6581 0
M  V30 1305 O 118.097 1.46507 -2.25364 0
M  V30 1306 C 116.368 -0.683966 -3.50794 0
M  V30 1307 S 117.927 -0.388095 -4.3708 0
M  V30 1308 H 114.745 -0.171464 -0.690015 0
M  V30 1309 H 117.347 -1.10155 -1.61512 0
M  V30 1310 H 116.051 -1.72038 -3.726 0
M  V30 1311 H 115.582 -0.0258086 -3.93392 0
M  V30 1312 H 117.597 0.787791 -4.89906 0
M  V30 1313 N 116.77 1.45427 -0.607355 0
M  V30 1314 C 117.68 2.34325 0.113463 0
M  V30 1315 C 118.696 1.51226 0.860617 0
M  V30 1316 O 119.872 1.84029 0.818255 0
M  V30 1317 C 116.937 3.28839 1.09844 0
M  V30 1318 C 115.998 4.27844 0.353271 0
M  V30 1319 C 115.231 5.17842 1.29133 0
M  V30 1320 O 115.454 5.11264 2.52913 0
M  V30 1321 O 114.388 5.96713 0.788523 0
M  V30 1322 H 118.214 2.97364 -0.617094 0
M  V30 1323 H 115.799 1.44807 -0.367619 0
M  V30 1324 H 117.681 3.8708 1.66575 0
M  V30 1325 H 116.356 2.68365 1.81003 0
M  V30 1326 H 115.263 3.7322 -0.256494 0
M  V30 1327 H 116.596 4.91173 -0.317822 0
M  V30 1328 N 118.248 0.346503 1.53744 0
M  V30 1329 C 119.664 -0.00530975 1.59599 0
M  V30 1330 C 119.864 -1.48465 1.36236 0
M  V30 1331 O 118.92 -2.24376 1.15808 0
M  V30 1332 C 120.233 0.433516 2.97559 0
M  V30 1333 C 121.781 0.386111 3.10609 0
M  V30 1334 C 122.256 0.800451 4.50951 0
M  V30 1335 N 123.747 0.754753 4.5701 0
M  V30 1336 C 124.482 1.04727 5.63755 0
M  V30 1337 N 123.978 1.4081 6.7834 0
M  V30 1338 N 125.771 0.971316 5.53644 0
M  V30 1339 H 117.922 1.31009 1.67184 0
M  V30 1340 H 120.185 0.534242 0.783128 0
M  V30 1341 H 119.891 1.46509 3.19731 0
M  V30 1342 H 119.765 -0.189753 3.76722 0
M  V30 1343 H 122.152 -0.636295 2.88158 0
M  V30 1344 H 122.233 1.04462 2.33498 0
M  V30 1345 H 121.877 1.82088 4.74137 0
M  V30 1346 H 121.807 0.119386 5.26465 0
M  V30 1347 H 124.298 0.488662 3.74727 0
M  V30 1348 H 124.611 1.61607 7.55714 0
M  V30 1349 H 122.956 1.44657 6.79779 0
M  V30 1350 H 126.147 0.688748 4.63005 0
M  V30 1351 H 126.32 1.20263 6.36742 0
M  V30 1352 N 119.726 -1.57421 0.075193 0
M  V30 1353 C 120.956 -1.97659 -0.601203 0
M  V30 1354 C 121.364 -0.952427 -1.63479 0
M  V30 1355 O 120.707 0.0688241 -1.83571 0
M  V30 1356 C 120.769 -3.34218 -1.32434 0
M  V30 1357 C 120.433 -4.5484 -0.443826 0
M  V30 1358 C 121.43 -5.19034 0.299969 0
M  V30 1359 C 119.115 -5.00952 -0.367709 0
M  V30 1360 C 121.109 -6.27695 1.10807 0
M  V30 1361 C 118.796 -6.09484 0.444058 0
M  V30 1362 C 119.794 -6.72719 1.18061 0
M  V30 1363 O 119.482 -7.79161 1.97898 0
M  V30 1364 H 119.214 -0.65494 -0.167422 0
M  V30 1365 H 121.768 -2.04886 0.145157 0
M  V30 1366 H 119.998 -3.23615 -2.11685 0
M  V30 1367 H 121.687 -3.59038 -1.89331 0
M  V30 1368 H 122.453 -4.84351 0.250776 0
M  V30 1369 H 118.332 -4.51509 -0.930638 0
M  V30 1370 H 121.876 -6.76982 1.68347 0
M  V30 1371 H 117.773 -6.43601 0.494803 0
M  V30 1372 H 118.541 -7.96055 1.90367 0
M  V30 1373 N 121.204 0.198386 -1.56346 0
M  V30 1374 C 122.167 1.22952 -1.93431 0
M  V30 1375 C 123.167 1.38611 -0.815092 0
M  V30 1376 O 124.357 1.36479 -1.08255 0
M  V30 1377 C 121.489 2.59946 -2.20546 0
M  V30 1378 H 122.682 0.912626 -2.85677 0
M  V30 1379 H 120.235 0.43977 -1.49986 0
M  V30 1380 H 120.97 2.96696 -1.30927 0
M  V30 1381 H 120.755 2.49953 -3.02102 0
M  V30 1382 H 122.245 3.3431 -2.50253 0
M  V30 1383 N 122.682 1.50554 0.465978 0
M  V30 1384 C 123.615 1.64436 1.58227 0
M  V30 1385 C 124.593 0.492367 1.54966 0
M  V30 1386 O 125.777 0.712536 1.74514 0
M  V30 1387 C 122.904 1.63165 2.96808 0
M  V30 1388 C 121.95 2.83987 3.18204 0
M  V30 1389 S 122.783 4.45219 2.97557 0
M  V30 1390 C 123.939 4.46649 4.3847 0
M  V30 1391 H 124.172 2.58861 1.46213 0
M  V30 1392 H 121.705 1.3988 0.653678 0
M  V30 1393 H 123.663 1.63116 3.76701 0
M  V30 1394 H 122.324 0.69967 3.06208 0
M  V30 1395 H 121.517 2.79416 4.19455 0
M  V30 1396 H 121.119 2.81629 2.46092 0
M  V30 1397 H 123.411 4.20526 5.31191 0
M  V30 1398 H 124.354 5.48295 4.48082 0
M  V30 1399 H 124.762 3.76296 4.20787 0
M  V30 1400 N 124.16 -0.719506 1.40217 0
M  V30 1401 C 125.406 -1.48152 1.38488 0
M  V30 1402 C 125.739 -1.94195 -0.0141867 0
M  V30 1403 O 125.014 -1.67884 -0.982096 0
M  V30 1404 C 125.297 -2.71035 2.37091 0
M  V30 1405 C 125.15 -2.30912 3.86005 0
M  V30 1406 C 126.469 -3.73182 2.33288 0
M  V30 1407 H 123.588 -0.537395 0.504357 0
M  V30 1408 H 126.23 -0.821472 1.71324 0
M  V30 1409 H 124.38 -3.27352 2.0922 0
M  V30 1410 H 126.052 -1.80107 4.24687 0
M  V30 1411 H 124.295 -1.62958 4.02029 0
M  V30 1412 H 124.966 -3.18978 4.50508 0
M  V30 1413 H 127.442 -3.26485 2.57966 0
M  V30 1414 H 126.318 -4.56806 3.04334 0
M  V30 1415 H 126.579 -4.21202 1.34317 0
M  V30 1416 N 125.638 -1.25649 -0.95132 0
M  V30 1417 C 126.868 -1.13179 -1.72841 0
M  V30 1418 C 127.276 0.316827 -1.86528 0
M  V30 1419 O 126.619 1.22948 -1.3649 0
M  V30 1420 C 126.681 -1.71644 -3.15878 0
M  V30 1421 C 126.345 -3.20667 -3.25609 0
M  V30 1422 C 127.342 -4.17616 -3.09666 0
M  V30 1423 C 125.027 -3.6094 -3.49324 0
M  V30 1424 C 127.021 -5.52817 -3.17289 0
M  V30 1425 C 124.708 -4.96278 -3.56584 0
M  V30 1426 C 125.706 -5.92025 -3.40581 0
M  V30 1427 O 125.394 -7.24899 -3.47528 0
M  V30 1428 H 125.126 -0.395389 -0.54831 0
M  V30 1429 H 127.68 -1.66566 -1.20187 0
M  V30 1430 H 125.91 -1.12707 -3.69911 0
M  V30 1431 H 127.599 -1.54225 -3.75459 0
M  V30 1432 H 128.365 -3.87842 -2.91211 0
M  V30 1433 H 124.244 -2.86907 -3.6084 0
M  V30 1434 H 127.788 -6.2753 -3.04716 0
M  V30 1435 H 123.685 -5.25716 -3.74556 0
M  V30 1436 H 124.453 -7.33039 -3.64138 0
M  V30 1437 N 127.117 1.15442 -1.07289 0
M  V30 1438 C 128.365 1.85845 -0.794096 0
M  V30 1439 C 128.686 1.82692 0.681809 0
M  V30 1440 O 127.956 1.26741 1.49377 0
M  V30 1441 H 126.536 0.688089 -0.290763 0
M  V30 1442 H 129.198 1.39947 -1.3565 0
M  V30 1443 H 128.294 2.91001 -1.12804 0
M  V30 1444 N 128.595 0.856903 1.32268 0
M  V30 1445 C 129.825 0.47475 2.01071 0
M  V30 1446 C 130.233 -0.933746 1.64553 0
M  V30 1447 O 129.576 -1.62114 0.863989 0
M  V30 1448 C 129.638 0.536746 3.55471 0
M  V30 1449 C 129.302 1.90453 4.15423 0
M  V30 1450 C 130.299 2.87029 4.33486 0
M  V30 1451 C 127.984 2.20229 4.51447 0
M  V30 1452 C 129.978 4.11532 4.86744 0
M  V30 1453 C 127.665 3.44984 5.0441 0
M  V30 1454 C 128.663 4.40452 5.22007 0
M  V30 1455 O 128.351 5.62998 5.73837 0
M  V30 1456 H 128.083 0.184778 0.650256 0
M  V30 1457 H 130.637 1.15615 1.69771 0
M  V30 1458 H 128.867 -0.20152 3.86175 0
M  V30 1459 H 130.556 0.169875 4.05544 0
M  V30 1460 H 131.322 2.6533 4.05986 0
M  V30 1461 H 127.201 1.46705 4.37034 0
M  V30 1462 H 130.745 4.86056 5.00395 0
M  V30 1463 H 126.642 3.66532 5.31342 0
M  V30 1464 H 127.41 5.64987 5.92226 0
M  V30 1465 N 130.073 -1.45103 0.615059 0
M  V30 1466 C 131.021 -2.32331 -0.111791 0
M  V30 1467 C 132.015 -1.46409 -0.852102 0
M  V30 1468 O 133.221 -1.62849 -0.766821 0
M  V30 1469 H 129.596 -0.749993 -0.0549072 0
M  V30 1470 H 131.567 -2.91407 0.642225 0
M  V30 1471 C 130.316 -3.3015 -1.09071 0
M  V30 1472 H 129.639 -3.96265 -0.530485 0
M  V30 1473 H 131.079 -3.93898 -1.56908 0
M  V30 1474 C 129.538 -2.57875 -2.168 0
M  V30 1475 O 130.068 -2.36567 -3.24652 0
M  V30 1476 N 128.274 -2.17884 -1.92289 0
M  V30 1477 H 127.821 -2.35413 -1.04587 0
M  V30 1478 H 127.779 -1.6985 -2.64572 0
M  V30 1479 N 131.551 -0.354651 -1.53558 0
M  V30 1480 C 132.514 0.484566 -2.24019 0
M  V30 1481 C 133.514 1.01861 -1.24422 0
M  V30 1482 O 134.704 0.906097 -1.4878 0
M  V30 1483 C 131.836 1.67615 -2.96847 0
M  V30 1484 H 133.029 -0.131843 -2.9961 0
M  V30 1485 H 130.582 -0.106165 -1.55939 0
M  V30 1486 H 131.317 2.33095 -2.25471 0
M  V30 1487 H 131.102 1.30029 -3.69912 0
M  V30 1488 H 132.592 2.27114 -3.50441 0
M  V30 1489 N 133.029 1.57378 -0.0835403 0
M  V30 1490 C 133.992 2.12252 0.864959 0
M  V30 1491 C 134.992 1.04916 1.21858 0
M  V30 1492 O 136.182 1.30853 1.14991 0
M  V30 1493 C 133.314 2.63358 2.16461 0
M  V30 1494 H 134.507 2.97371 0.388676 0
M  V30 1495 H 132.06 1.55423 0.165317 0
M  V30 1496 H 132.795 1.81727 2.686 0
M  V30 1497 H 132.58 3.41826 1.92087 0
M  V30 1498 H 134.07 3.05847 2.84337 0
M  V30 1499 N 134.507 -0.190092 1.56449 0
M  V30 1500 C 135.737 -0.92443 1.84764 0
M  V30 1501 C 136.145 -1.77146 0.664529 0
M  V30 1502 O 135.488 -1.79812 -0.375957 0
M  V30 1503 C 135.55 -1.86651 3.07248 0
M  V30 1504 C 135.214 -1.20094 4.40938 0
M  V30 1505 C 136.211 -0.575445 5.16706 0
M  V30 1506 C 133.896 -1.2033 4.87674 0
M  V30 1507 C 135.89 0.0388111 6.37388 0
M  V30 1508 C 133.577 -0.585214 6.08291 0
M  V30 1509 C 134.575 0.0347578 6.82991 0
M  V30 1510 O 134.263 0.643147 8.01323 0
M  V30 1511 H 133.995 -0.274974 0.617548 0
M  V30 1512 H 136.549 -0.200788 2.04416 0
M  V30 1513 H 134.779 -2.62998 2.83494 0
M  V30 1514 H 136.468 -2.46907 3.22167 0
M  V30 1515 H 137.234 -0.565728 4.81689 0
M  V30 1516 H 133.113 -1.67526 4.29484 0
M  V30 1517 H 136.657 0.523329 6.95634 0
M  V30 1518 H 132.554 -0.592451 6.42775 0
M  V30 1519 H 133.322 0.540545 8.16713 0
M  V30 1520 N 135.985 -1.50799 -0.457987 0
M  V30 1521 C 136.933 -1.71162 -1.575 0
M  V30 1522 C 137.927 -0.577592 -1.59249 0
M  V30 1523 O 139.133 -0.758443 -1.63241 0
M  V30 1524 H 135.508 -0.540468 -0.522875 0
M  V30 1525 H 137.479 -2.64837 -1.37492 0
M  V30 1526 C 136.228 -1.83496 -2.95338 0
M  V30 1527 H 135.551 -2.70153 -2.94716 0
M  V30 1528 H 136.991 -2.01765 -3.72917 0
M  V30 1529 C 135.45 -0.589694 -3.31699 0
M  V30 1530 O 135.98 0.265163 -4.00824 0
M  V30 1531 N 134.186 -0.439845 -2.87252 0
M  V30 1532 H 133.733 -1.13655 -2.31172 0
M  V30 1533 H 133.691 0.392159 -3.11945 0
M  V30 1534 N 137.463 0.71206 -1.40597 0
M  V30 1535 C 138.879 1.02058 -1.22704 0
M  V30 1536 C 139.079 2.01228 -0.104729 0
M  V30 1537 O 138.135 2.4674 0.53624 0
M  V30 1538 C 139.448 1.56094 -2.57012 0
M  V30 1539 C 140.996 1.6806 -2.64054 0
M  V30 1540 C 141.471 2.25501 -3.9864 0
M  V30 1541 N 142.962 2.32882 -4.004 0
M  V30 1542 C 143.697 2.78317 -5.01325 0
M  V30 1543 N 143.193 3.23478 -6.12645 0
M  V30 1544 N 144.986 2.77733 -4.88693 0
M  V30 1545 H 137.137 0.0547896 -2.12329 0
M  V30 1546 H 139.4 0.0869027 -0.944008 0
M  V30 1547 H 139.106 0.906865 -3.39807 0
M  V30 1548 H 138.98 2.54564 -2.78347 0
M  V30 1549 H 141.367 2.32583 -1.81629 0
M  V30 1550 H 141.448 0.681802 -2.46546 0
M  V30 1551 H 141.092 1.61598 -4.81506 0
M  V30 1552 H 141.022 3.26102 -4.13479 0
M  V30 1553 H 143.513 2.00991 -3.20017 0
M  V30 1554 H 143.826 3.56725 -6.85542 0
M  V30 1555 H 142.171 3.21429 -6.16205 0
M  V30 1556 H 145.362 2.4179 -4.00818 0
M  V30 1557 H 145.535 3.12826 -5.67489 0
M  V30 1558 N 138.941 1.26152 0.944643 0
M  V30 1559 C 140.171 1.14094 1.72239 0
M  V30 1560 C 140.579 -0.306931 1.86694 0
M  V30 1561 O 139.922 -1.22222 1.3714 0
M  V30 1562 C 139.984 1.73316 3.14963 0
M  V30 1563 C 139.648 3.2239 3.23904 0
M  V30 1564 C 140.645 4.19252 3.07447 0
M  V30 1565 C 138.33 3.62788 3.47405 0
M  V30 1566 C 140.324 5.54491 3.14353 0
M  V30 1567 C 138.011 4.98162 3.53947 0
M  V30 1568 C 139.009 5.93823 3.37436 0
M  V30 1569 O 138.697 7.26732 3.43679 0
M  V30 1570 H 138.429 0.398292 0.546205 0
M  V30 1571 H 140.983 1.67201 1.19301 0
M  V30 1572 H 139.213 1.14667 3.69308 0
M  V30 1573 H 140.902 1.56214 3.74636 0
M  V30 1574 H 141.668 3.8938 2.8915 0
M  V30 1575 H 137.547 2.88816 3.59313 0
M  V30 1576 H 141.091 6.29137 3.01384 0
M  V30 1577 H 136.988 5.27695 3.71763 0
M  V30 1578 H 137.756 7.3496 3.60245 0
M  V30 1579 N 140.419 -1.14872 1.07899 0
M  V30 1580 C 141.666 -1.85789 0.805532 0
M  V30 1581 C 141.994 -1.82649 -0.668561 0
M  V30 1582 O 141.249 -1.24858 -1.50695 0
M  V30 1583 C 141.548 -3.34223 1.26609 0
M  V30 1584 C 141.214 -3.57555 2.74709 0
M  V30 1585 C 139.876 -3.63631 3.1516 0
M  V30 1586 C 142.228 -3.66803 3.70277 0
M  V30 1587 C 139.556 -3.76473 4.49983 0
M  V30 1588 C 141.908 -3.8117 5.04869 0
M  V30 1589 C 140.572 -3.85494 5.44932 0
M  V30 1590 H 139.842 -0.679849 0.294765 0
M  V30 1591 H 142.489 -1.3572 1.35101 0
M  V30 1592 H 140.794 -3.86536 0.640103 0
M  V30 1593 H 142.491 -3.87511 1.03132 0
M  V30 1594 H 139.081 -3.5347 2.42398 0
M  V30 1595 H 143.265 -3.61404 3.40149 0
M  V30 1596 H 138.521 -3.7808 4.80484 0
M  V30 1597 H 142.695 -3.87268 5.78789 0
M  V30 1598 H 140.322 -3.95197 6.49403 0
M  V30 1599 N 141.898 -0.863906 -1.31812 0
M  V30 1600 C 143.314 -0.555004 -1.49639 0
M  V30 1601 C 143.514 0.912266 -1.79666 0
M  V30 1602 O 142.57 1.69479 -1.87171 0
M  V30 1603 C 143.883 -1.44998 -2.63431 0
M  V30 1604 C 145.431 -1.45138 -2.77316 0
M  V30 1605 C 145.906 -2.33179 -3.94197 0
M  V30 1606 N 147.397 -2.31025 -4.01474 0
M  V30 1607 C 148.132 -2.95871 -4.9117 0
M  V30 1608 N 147.628 -3.69863 -5.8581 0
M  V30 1609 N 149.421 -2.85211 -4.84367 0
M  V30 1610 H 141.572 -1.81339 -1.10589 0
M  V30 1611 H 143.835 -0.77505 -0.545895 0
M  V30 1612 H 143.541 -2.49377 -2.48 0
M  V30 1613 H 143.415 -1.14409 -3.59431 0
M  V30 1614 H 145.802 -0.415201 -2.92164 0
M  V30 1615 H 145.883 -1.79747 -1.82001 0
M  V30 1616 H 145.527 -3.3687 -3.80107 0
M  V30 1617 H 145.457 -1.95897 -4.88807 0
M  V30 1618 H 147.948 -1.77238 -3.33759 0
M  V30 1619 H 148.261 -4.16486 -6.50968 0
M  V30 1620 H 146.606 -3.73971 -5.85808 0
M  V30 1621 H 149.797 -2.26948 -4.09405 0
M  V30 1622 H 149.97 -3.36027 -5.54066 0
M  V30 1623 N 143.376 1.44774 -0.622745 0
M  V30 1624 C 144.323 2.30635 0.0871679 0
M  V30 1625 C 145.293 1.42994 0.845097 0
M  V30 1626 O 146.478 1.71907 0.827812 0
M  V30 1627 C 143.618 3.28144 1.06844 0
M  V30 1628 C 142.731 4.30888 0.309809 0
M  V30 1629 C 141.866 5.15494 1.28215 0
M  V30 1630 C 140.905 6.09953 0.512198 0
M  V30 1631 N 140.042 6.87287 1.43458 0
M  V30 1632 H 144.882 2.90803 -0.650974 0
M  V30 1633 H 142.419 1.43286 -0.33281 0
M  V30 1634 H 144.377 3.83157 1.65066 0
M  V30 1635 H 143.007 2.69695 1.77382 0
M  V30 1636 H 142.059 3.78414 -0.388181 0
M  V30 1637 H 143.371 4.97955 -0.290254 0
M  V30 1638 H 142.525 5.74983 1.93596 0
M  V30 1639 H 141.264 4.48481 1.91614 0
M  V30 1640 H 140.269 5.49581 -0.155151 0
M  V30 1641 H 141.494 6.78999 -0.116958 0
M  V30 1642 H 139.44 6.2295 2.05594 0
M  V30 1643 H 139.357 7.50763 0.888335 0
M  V30 1644 H 140.625 7.51306 2.07749 0
M  V30 1645 N 144.854 0.36279 1.53368 0
M  V30 1646 C 146.27 0.0116182 1.59596 0
M  V30 1647 C 146.47 -1.47012 1.37803 0
M  V30 1648 O 145.526 -2.23136 1.18181 0
M  V30 1649 C 146.839 0.465052 2.97082 0
M  V30 1650 C 148.387 0.419033 3.10182 0
M  V30 1651 C 148.862 0.848235 4.50077 0
M  V30 1652 N 150.353 0.803183 4.56183 0
M  V30 1653 C 151.088 1.107 5.62613 0
M  V30 1654 N 150.584 1.47996 6.76808 0
M  V30 1655 N 152.377 1.02998 5.52583 0
M  V30 1656 H 144.528 1.32775 1.65785 0
M  V30 1657 H 146.791 0.542518 0.777417 0
M  V30 1658 H 146.497 1.49892 3.18159 0
M  V30 1659 H 146.371 -0.149786 3.76902 0
M  V30 1660 H 148.758 -0.605696 2.88817 0
M  V30 1661 H 148.839 1.06933 2.32377 0
M  V30 1662 H 148.483 1.87107 4.7218 0
M  V30 1663 H 148.413 0.175218 5.26308 0
M  V30 1664 H 150.904 0.52838 3.74188 0
M  V30 1665 H 151.217 1.69613 7.53957 0
M  V30 1666 H 149.562 1.51859 6.78206 0
M  V30 1667 H 152.753 0.737817 4.62249 0
M  V30 1668 H 152.926 1.2701 6.35431 0
M  V30 1669 N 146.332 -1.57332 0.0918853 0
M  V30 1670 C 147.748 -1.57389 -0.264766 0
M  V30 1671 C 147.948 -1.10281 -1.68643 0
M  V30 1672 O 147.004 -0.777801 -2.40222 0
M  V30 1673 C 148.317 -3.00648 -0.0561195 0
M  V30 1674 C 149.865 -3.12754 -0.124116 0
M  V30 1675 C 150.34 -4.57965 0.0564972 0
M  V30 1676 N 151.831 -4.632 0.00155611 0
M  V30 1677 C 152.566 -5.73281 0.116598 0
M  V30 1678 N 152.062 -6.92208 0.286294 0
M  V30 1679 N 153.855 -5.6207 0.0580973 0
M  V30 1680 H 146.006 -1.86262 1.02079 0
M  V30 1681 H 148.269 -0.859579 0.399786 0
M  V30 1682 H 147.975 -3.393 0.925669 0
M  V30 1683 H 147.849 -3.68623 -0.799823 0
M  V30 1684 H 150.236 -2.73976 -1.09641 0
M  V30 1685 H 150.317 -2.47377 0.651024 0
M  V30 1686 H 149.961 -4.97436 1.02564 0
M  V30 1687 H 149.891 -5.21399 -0.738297 0
M  V30 1688 H 152.382 -3.77686 -0.127192 0
M  V30 1689 H 152.695 -7.71934 0.365676 0
M  V30 1690 H 151.04 -6.94254 0.32192 0
M  V30 1691 H 154.231 -4.68043 -0.0733204 0
M  V30 1692 H 154.404 -6.47824 0.151203 0
M  V30 1693 N 147.81 0.181792 -1.56548 0
M  V30 1694 C 149.058 0.89832 -1.81038 0
M  V30 1695 C 149.379 1.83232 -0.667164 0
M  V30 1696 O 148.649 1.93372 0.313673 0
M  V30 1697 H 147.229 0.33471 -0.667816 0
M  V30 1698 H 149.891 0.184116 -1.94028 0
M  V30 1699 H 148.987 1.4815 -2.74696 0
M  V30 1700 N 149.288 1.51039 0.449983 0
M  V30 1701 C 150.516 1.66869 1.2232 0
M  V30 1702 C 150.931 0.360727 1.85322 0
M  V30 1703 O 150.288 -0.659531 1.70166 0
M  V30 1704 C 150.339 2.77524 2.31652 0
M  V30 1705 O 150.06 4.03252 1.7123 0
M  V30 1706 C 151.561 3.04512 3.2216 0
M  V30 1707 H 148.781 0.560326 0.369155 0
M  V30 1708 H 151.325 1.97385 0.534719 0
M  V30 1709 H 149.48 2.49642 2.96239 0
M  V30 1710 H 149.894 4.64609 2.43389 0
M  V30 1711 H 151.368 3.85551 3.95038 0
M  V30 1712 H 151.845 2.16415 3.8218 0
M  V30 1713 H 152.451 3.34005 2.63288 0
M  V30 1714 N 150.766 -0.704594 1.40972 0
M  V30 1715 C 151.713 -1.81862 1.42109 0
M  V30 1716 C 152.683 -1.63781 0.276593 0
M  V30 1717 O 153.868 -1.84759 0.4763 0
M  V30 1718 C 151.008 -3.19669 1.30022 0
M  V30 1719 C 150.121 -3.49246 2.54267 0
M  V30 1720 C 149.256 -4.76618 2.3454 0
M  V30 1721 C 148.295 -4.99133 3.54306 0
M  V30 1722 N 147.432 -6.17726 3.33706 0
M  V30 1723 H 152.272 -1.80226 2.37324 0
M  V30 1724 H 149.809 -0.880238 1.17857 0
M  V30 1725 H 151.767 -3.99263 1.21018 0
M  V30 1726 H 150.397 -3.20506 0.384192 0
M  V30 1727 H 149.449 -2.64125 2.73756 0
M  V30 1728 H 150.761 -3.61788 3.43381 0
M  V30 1729 H 149.915 -5.64249 2.22952 0
M  V30 1730 H 148.654 -4.66305 1.42867 0
M  V30 1731 H 147.659 -4.09953 3.66359 0
M  V30 1732 H 148.884 -5.11311 4.4692 0
M  V30 1733 H 146.83 -6.08642 2.44725 0
M  V30 1734 H 146.747 -6.30995 4.16391 0
M  V30 1735 H 148.015 -7.08115 3.25873 0
M  V30 1736 O 152.283 -1.37539 -0.846478 0
M  V30 1737 H 152.974 -1.24057 -1.4876 0
M  V30 END ATOM
M  V30 BEGIN BOND
M  V30 END BOND
M  V30 END CTAB
M  END
$$$$
