drugbank_target|P08473 Neprilysin (DB00616; DB00886; DB02062; DB02557; DB02558; DB02597; DB05796; DB08575; DB08626; DB09292; DB11623)
 OpenBabel12092119283D

  0  0  0     0  0            999 V3000
M  V30 BEGIN CTAB
M  V30 COUNTS 11939 12064 0 0 0
M  V30 BEGIN ATOM
M  V30 1 H -0.908 1.98254 -0.117106 0
M  V30 2 N 0 1.576 0 0
M  V30 3 C 0.933 2.03868 1.02534 0
M  V30 4 C 1.911 0.928543 1.3348 0
M  V30 5 O 3.095 1.19667 1.45644 0
M  V30 6 C 0.222 2.43627 2.35294 0
M  V30 7 C -0.732 3.65373 2.2001 0
M  V30 8 S 0.101 5.13292 1.52614 0
M  V30 9 C 1.257 5.56322 2.86805 0
M  V30 10 H 1.49 2.90518 0.631377 0
M  V30 11 H -0.977 1.52953 0.210867 0
M  V30 12 H 0.981 2.67203 3.11629 0
M  V30 13 H -0.358 1.57376 2.7183 0
M  V30 14 H -1.165 3.90944 3.18086 0
M  V30 15 H -1.563 3.418 1.51819 0
M  V30 16 H 0.729 5.58782 3.83104 0
M  V30 17 H 1.672 6.56266 2.65933 0
M  V30 18 H 2.08 4.83886 2.90714 0
M  V30 19 N 1.4781 -0.272755 1.55222 0
M  V30 20 C 2.7261 -1.00234 1.75492 0
M  V30 21 C 3.0471 -1.8681 0.5592 0
M  V30 22 O 2.3171 -1.91215 -0.425882 0
M  V30 23 H 0.8971 -0.373076 0.647166 0
M  V30 24 H 3.5591 -0.296926 1.92625 0
M  V30 25 H 2.6551 -1.63913 2.65592 0
M  V30 26 N 2.9562 -1.48159 -0.537278 0
M  V30 27 C 3.9032 -1.62138 -1.64256 0
M  V30 28 C 4.8732 -0.463668 -1.59497 0
M  V30 29 O 6.0582 -0.686241 -1.78032 0
M  V30 30 C 3.1982 -1.66028 -3.02537 0
M  V30 31 C 2.3112 -2.92855 -3.17585 0
M  V30 32 C 1.4462 -2.87952 -4.46382 0
M  V30 33 C 0.4852 -4.09516 -4.54932 0
M  V30 34 N -0.3778 -4.02733 -5.75109 0
M  V30 35 H 4.4622 -2.56529 -1.51647 0
M  V30 36 H 1.9992 -1.27224 -0.738414 0
M  V30 37 H 3.9572 -1.66265 -3.82638 0
M  V30 38 H 2.5872 -0.751331 -3.13934 0
M  V30 39 H 1.6392 -3.02395 -2.30784 0
M  V30 40 H 2.9512 -3.82822 -3.19764 0
M  V30 41 H 2.1052 -2.8655 -5.34765 0
M  V30 42 H 0.8442 -1.95702 -4.46712 0
M  V30 43 H -0.1508 -4.11201 -3.64957 0
M  V30 44 H 1.0742 -5.02917 -4.56346 0
M  V30 45 H -0.9798 -3.13299 -5.76351 0
M  V30 46 H -1.0628 -4.86397 -5.78752 0
M  V30 47 H 0.2052 -4.05379 -6.65799 0
M  V30 48 N 4.4343 0.785586 -1.36625 0
M  V30 49 C 5.6593 1.57963 -1.34397 0
M  V30 50 C 6.0843 1.87964 0.071526 0
M  V30 51 O 5.4423 1.48182 1.0446 0
M  V30 52 C 5.4903 2.87511 -2.17646 0
M  V30 53 O 4.5943 3.81281 -1.57158 0
M  V30 54 H 3.9353 0.479014 -0.459828 0
M  V30 55 H 6.4653 0.973411 -1.79961 0
M  V30 56 H 6.4753 3.36745 -2.30362 0
M  V30 57 H 5.1503 2.65002 -3.20541 0
M  V30 58 H 3.7273 3.39885 -1.53403 0
M  V30 59 N 5.9124 1.20967 1.01018 0
M  V30 60 C 6.8224 0.980157 2.13143 0
M  V30 61 C 7.8384 -0.0660665 1.73875 0
M  V30 62 O 9.0144 0.122821 2.01025 0
M  V30 63 C 6.0794 0.54216 3.42435 0
M  V30 64 C 5.1404 1.65999 3.95908 0
M  V30 65 C 4.3734 1.2428 5.19028 0
M  V30 66 O 4.5964 0.114196 5.70286 0
M  V30 67 O 3.5304 2.05271 5.65816 0
M  V30 68 H 7.3564 1.91913 2.35379 0
M  V30 69 H 4.9414 0.994099 1.11526 0
M  V30 70 H 6.8234 0.30744 4.20277 0
M  V30 71 H 5.4984 -0.36815 3.216 0
M  V30 72 H 4.4054 1.94906 3.19316 0
M  V30 73 H 5.7384 2.54753 4.21143 0
M  V30 74 N 7.3905 -1.2043 1.01659 0
M  V30 75 C 8.6155 -1.94318 0.724942 0
M  V30 76 C 9.0405 -1.74266 -0.708034 0
M  V30 77 O 8.3985 -1.03694 -1.48719 0
M  V30 78 C 8.4465 -3.44486 1.06591 0
M  V30 79 O 7.5505 -4.12017 0.177599 0
M  V30 80 H 6.8915 -0.60708 0.26898 0
M  V30 81 H 9.4215 -1.52861 1.35995 0
M  V30 82 H 9.4315 -3.95106 1.01762 0
M  V30 83 H 8.1065 -3.58404 2.10997 0
M  V30 84 H 6.6835 -3.71821 0.283421 0
M  V30 85 N 8.8686 -0.792821 -1.36206 0
M  V30 86 C 9.8006 -0.151469 -2.28699 0
M  V30 87 C 10.8136 0.641262 -1.49638 0
M  V30 88 O 12.0026 0.475885 -1.72039 0
M  V30 89 C 9.1026 0.808424 -3.29117 0
M  V30 90 C 8.2756 0.0650202 -4.37352 0
M  V30 91 C 7.3346 0.941358 -5.17711 0
M  V30 92 O 6.3606 0.397352 -5.67811 0
M  V30 93 N 7.5626 2.2652 -5.3448 0
M  V30 94 H 10.3276 -0.945982 -2.84379 0
M  V30 95 H 7.8886 -0.647032 -1.48409 0
M  V30 96 H 9.8806 1.3986 -3.79765 0
M  V30 97 H 8.4506 1.5038 -2.74052 0
M  V30 98 H 7.6706 -0.706255 -3.87822 0
M  V30 99 H 8.9586 -0.447847 -5.06825 0
M  V30 100 H 8.3566 2.73128 -4.95396 0
M  V30 101 H 6.9136 2.80493 -5.88359 0
M  V30 102 N 10.3467 1.47872 -0.545128 0
M  V30 103 C 11.2797 2.2675 0.256885 0
M  V30 104 C 12.2577 1.33293 0.931228 0
M  V30 105 O 13.4417 1.62657 0.95262 0
M  V30 106 C 10.5687 3.09976 1.36501 0
M  V30 107 C 9.6147 4.1892 0.800496 0
M  V30 108 S 10.4477 5.34397 -0.343505 0
M  V30 109 C 11.6037 6.21186 0.766733 0
M  V30 110 H 11.8367 2.94425 -0.412479 0
M  V30 111 H 9.3697 1.50806 -0.331204 0
M  V30 112 H 11.3277 3.585 1.9997 0
M  V30 113 H 9.9887 2.41686 2.00616 0
M  V30 114 H 9.1817 4.76836 1.63227 0
M  V30 115 H 8.7837 3.73215 0.242217 0
M  V30 116 H 11.0757 6.56804 1.66178 0
M  V30 117 H 12.0187 7.07742 0.225204 0
M  V30 118 H 12.4267 5.54574 1.05396 0
M  V30 119 N 11.8248 0.280983 1.55075 0
M  V30 120 C 13.1018 -0.386207 1.91749 0
M  V30 121 C 13.4818 -1.73264 1.20594 0
M  V30 122 O 12.8298 -2.26034 0.334784 0
M  V30 123 C 13.0398 -0.520687 3.45094 0
M  V30 124 C 14.3878 -0.800865 4.16979 0
M  V30 125 O 15.4118 -0.605271 3.5102 0
M  V30 126 O 14.2708 -1.1753 5.33712 0
M  V30 127 H 11.3648 -0.212408 0.799257 0
M  V30 128 H 13.9108 0.327568 1.66509 0
M  V30 129 H 12.6828 0.426633 3.88967 0
M  V30 130 H 12.3058 -1.2837 3.76307 0
M  V30 131 N 13.3029 -1.57598 0.00835791 0
M  V30 132 C 14.5519 -1.90107 -0.673968 0
M  V30 133 C 14.8649 -0.884275 -1.7447 0
M  V30 134 O 16.0709 -1.09987 -2.48224 0
M  V30 135 C 14.5269 -3.37497 -1.24995 0
M  V30 136 C 14.1349 -4.47491 -0.2136 0
M  V30 137 C 15.8789 -3.79104 -1.90999 0
M  V30 138 C 13.7859 -5.85963 -0.80005 0
M  V30 139 H 12.7159 -0.709393 -0.255495 0
M  V30 140 H 15.3669 -1.83365 0.0702693 0
M  V30 141 H 13.7489 -3.39102 -2.04513 0
M  V30 142 H 14.9229 -4.57414 0.557596 0
M  V30 143 H 13.2379 -4.14956 0.346474 0
M  V30 144 H 15.8349 -4.79901 -2.35795 0
M  V30 145 H 16.1779 -3.1306 -2.74407 0
M  V30 146 H 16.7109 -3.79833 -1.18203 0
M  V30 147 H 13.4499 -6.555 -0.00456708 0
M  V30 148 H 12.9699 -5.79687 -1.54021 0
M  V30 149 H 14.6489 -6.33884 -1.29615 0
M  V30 150 N 14.781 0.264519 -1.55364 0
M  V30 151 C 16.009 1.013 -1.80405 0
M  V30 152 C 16.424 1.79618 -0.581622 0
M  V30 153 O 15.781 1.76879 0.449468 0
M  V30 154 C 15.832 1.96487 -3.03439 0
M  V30 155 O 15.553 1.21341 -4.20961 0
M  V30 156 C 17.054 2.83079 -3.41147 0
M  V30 157 H 14.274 0.298875 -0.600762 0
M  V30 158 H 16.818 0.292736 -2.02394 0
M  V30 159 H 14.973 2.63965 -2.83551 0
M  V30 160 H 15.387 1.85573 -4.90574 0
M  V30 161 H 16.861 3.4565 -4.30384 0
M  V30 162 H 17.338 3.53286 -2.60932 0
M  V30 163 H 17.944 2.2108 -3.63323 0
M  V30 164 N 16.2591 1.48442 0.529413 0
M  V30 165 C 17.5361 1.46978 1.29062 0
M  V30 166 C 17.9161 0.181769 2.10316 0
M  V30 167 O 17.2641 -0.836481 2.12639 0
M  V30 168 C 17.4741 2.7321 2.17157 0
M  V30 169 C 18.8221 3.21562 2.77278 0
M  V30 170 O 19.8461 2.74131 2.27444 0
M  V30 171 O 18.7051 4.04094 3.67927 0
M  V30 172 H 15.7991 0.587003 0.582543 0
M  V30 173 H 18.3451 1.60676 0.546021 0
M  V30 174 H 17.1171 3.58465 1.56903 0
M  V30 175 H 16.7401 2.62235 2.98862 0
M  V30 176 N 17.7372 -0.778329 1.37039 0
M  V30 177 C 18.9862 -1.53189 1.3121 0
M  V30 178 C 19.2992 -1.95328 -0.103095 0
M  V30 179 O 20.5052 -2.70012 -0.283826 0
M  V30 180 C 18.9612 -2.76591 2.30272 0
M  V30 181 C 18.5692 -2.41577 3.77286 0
M  V30 182 C 20.3132 -3.5455 2.33441 0
M  V30 183 C 18.2202 -3.61441 4.68096 0
M  V30 184 H 17.1502 -0.5751 0.487622 0
M  V30 185 H 19.8012 -0.853101 1.62464 0
M  V30 186 H 18.1832 -3.46326 1.92027 0
M  V30 187 H 19.3572 -1.79668 4.2433 0
M  V30 188 H 17.6722 -1.76806 3.76999 0
M  V30 189 H 20.2692 -4.43628 2.98493 0
M  V30 190 H 20.6122 -3.93936 1.34611 0
M  V30 191 H 21.1452 -2.91805 2.7036 0
M  V30 192 H 17.8842 -3.27142 5.6803 0
M  V30 193 H 17.4042 -4.22478 4.25761 0
M  V30 194 H 19.0832 -4.28335 4.8491 0
M  V30 195 N 19.2153 -1.21501 -1.00376 0
M  V30 196 C 20.1633 -0.972442 -2.11297 0
M  V30 197 C 21.1573 0.080731 -1.69208 0
M  V30 198 O 22.3633 -0.0707666 -1.79861 0
M  V30 199 H 18.7383 -0.297218 -0.690772 0
M  V30 200 H 20.7093 -1.91394 -2.28934 0
M  V30 201 C 19.4583 -0.555065 -3.43241 0
M  V30 202 H 18.7813 -1.35709 -3.76062 0
M  V30 203 H 20.2213 -0.424664 -4.21868 0
M  V30 204 C 18.6803 0.734147 -3.28804 0
M  V30 205 O 19.2103 1.78937 -3.59645 0
M  V30 206 N 17.4163 0.701133 -2.82015 0
M  V30 207 H 16.9633 -0.157874 -2.57116 0
M  V30 208 H 16.9213 1.56403 -2.72737 0
M  V30 209 N 20.6934 1.19889 -1.02296 0
M  V30 210 C 21.9214 1.9339 -0.735399 0
M  V30 211 C 22.3364 1.75148 0.704887 0
M  V30 212 O 21.6934 1.06954 1.47875 0
M  V30 213 C 21.7444 3.45313 -1.06962 0
M  V30 214 O 21.4654 3.62964 -2.45334 0
M  V30 215 C 22.9664 4.35948 -0.804021 0
M  V30 216 H 20.1864 0.61448 -0.269546 0
M  V30 217 H 22.7304 1.522 -1.36585 0
M  V30 218 H 20.8854 3.84359 -0.484455 0
M  V30 219 H 21.2994 4.56886 -2.57595 0
M  V30 220 H 22.7734 5.41174 -1.0879 0
M  V30 221 H 23.2504 4.3842 0.261691 0
M  V30 222 H 23.8564 4.02574 -1.37164 0
M  V30 223 N 22.1715 0.800033 1.35784 0
M  V30 224 C 23.5825 0.439142 1.81462 0
M  V30 225 C 23.9335 -1.03813 1.66485 0
M  V30 226 O 23.0585 -1.80626 1.19177 0
M  V30 227 C 23.6535 0.790314 3.29453 0
M  V30 228 C 22.2125 0.482111 3.733 0
M  V30 229 C 21.3595 1.01938 2.57883 0
M  V30 230 H 24.3105 0.992254 1.23855 0
M  V30 231 H 24.3315 0.0853677 3.80404 0
M  V30 232 H 23.8435 1.86554 3.40322 0
M  V30 233 H 21.9445 -0.584652 3.67984 0
M  V30 234 H 22.0575 1.01015 4.6833 0
M  V30 235 H 20.4215 0.442043 2.50835 0
M  V30 236 H 21.2045 2.10059 2.71533 0
M  V30 237 N 23.6496 -1.47581 0.552962 0
M  V30 238 C 24.5966 -2.29957 -0.197108 0
M  V30 239 C 25.5666 -1.38799 -0.912359 0
M  V30 240 O 26.7516 -1.67761 -0.908888 0
M  V30 241 C 23.8916 -3.22672 -1.22379 0
M  V30 242 C 23.0046 -4.28919 -0.515038 0
M  V30 243 C 22.1396 -5.0879 -1.52664 0
M  V30 244 C 21.1786 -6.06815 -0.802631 0
M  V30 245 N 20.3156 -6.7966 -1.76086 0
M  V30 246 H 25.1556 -2.93578 0.511486 0
M  V30 247 H 22.6926 -1.4471 0.264067 0
M  V30 248 H 24.6506 -3.74845 -1.83159 0
M  V30 249 H 23.2806 -2.60925 -1.90047 0
M  V30 250 H 22.3326 -3.79835 0.207192 0
M  V30 251 H 23.6446 -4.98773 0.0523425 0
M  V30 252 H 22.7986 -5.65091 -2.20809 0
M  V30 253 H 21.5376 -4.38828 -2.12794 0
M  V30 254 H 20.5426 -5.49695 -0.107238 0
M  V30 255 H 21.7676 -6.78784 -0.207135 0
M  V30 256 H 19.7136 -6.12432 -2.35081 0
M  V30 257 H 19.6306 -7.45669 -1.24552 0
M  V30 258 H 20.8986 -7.40538 -2.43359 0
M  V30 259 N 25.1277 -0.289203 -1.54924 0
M  V30 260 C 26.5387 0.205791 -1.85562 0
M  V30 261 C 26.8897 1.54351 -1.2112 0
M  V30 262 O 26.0147 2.10435 -0.504601 0
M  V30 263 C 26.6097 0.380177 -3.3666 0
M  V30 264 C 25.1687 0.819395 -3.67373 0
M  V30 265 C 24.3157 -0.079159 -2.77187 0
M  V30 266 H 27.2667 -0.510577 -1.50262 0
M  V30 267 H 27.2877 1.21659 -3.60526 0
M  V30 268 H 26.7997 -0.593589 -3.83534 0
M  V30 269 H 24.9007 1.80413 -3.26009 0
M  V30 270 H 25.0137 0.646957 -4.74712 0
M  V30 271 H 23.3777 0.439565 -2.50878 0
M  V30 272 H 24.1607 -1.04906 -3.26878 0
M  V30 273 N 26.6058 1.57591 -0.0167156 0
M  V30 274 C 27.5528 2.09462 0.969251 0
M  V30 275 C 28.5228 0.99381 1.33089 0
M  V30 276 O 29.7078 1.26726 1.42636 0
M  V30 277 C 26.8478 2.61622 2.25051 0
M  V30 278 C 25.9608 3.85666 1.94642 0
M  V30 279 C 25.0958 4.26266 3.16972 0
M  V30 280 C 24.1348 5.43101 2.82326 0
M  V30 281 N 23.2718 5.78915 3.97243 0
M  V30 282 H 28.1118 2.93428 0.519997 0
M  V30 283 H 25.6488 1.45044 0.245087 0
M  V30 284 H 27.6068 2.89949 2.99976 0
M  V30 285 H 26.2368 1.80505 2.67615 0
M  V30 286 H 25.2888 3.64145 1.10013 0
M  V30 287 H 26.6008 4.70678 1.65117 0
M  V30 288 H 25.7548 4.55963 4.00228 0
M  V30 289 H 24.4938 3.39996 3.49648 0
M  V30 290 H 23.4988 5.1311 1.97479 0
M  V30 291 H 24.7238 6.3106 2.50879 0
M  V30 292 H 22.6698 4.95602 4.29785 0
M  V30 293 H 22.5868 6.58539 3.71299 0
M  V30 294 H 23.8548 6.13212 4.81239 0
M  V30 295 N 28.0839 -0.256276 1.55502 0
M  V30 296 C 29.0309 -1.31714 1.89526 0
M  V30 297 C 30.0009 -1.4828 0.748479 0
M  V30 298 O 31.1859 -1.62416 1.00128 0
M  V30 299 C 28.3259 -2.66933 2.18725 0
M  V30 300 C 27.4389 -2.58452 3.4616 0
M  V30 301 C 26.5739 -3.85961 3.64976 0
M  V30 302 C 25.6129 -3.72059 4.86044 0
M  V30 303 N 24.7499 -4.9144 5.01429 0
M  V30 304 H 29.5899 -1.01998 2.80001 0
M  V30 305 H 27.1269 -0.492413 1.38613 0
M  V30 306 H 29.0849 -3.4563 2.33657 0
M  V30 307 H 27.7149 -2.94816 1.31466 0
M  V30 308 H 26.7669 -1.71374 3.3961 0
M  V30 309 H 28.0789 -2.44085 4.34999 0
M  V30 310 H 27.2329 -4.73101 3.79816 0
M  V30 311 H 25.9719 -4.03215 2.74353 0
M  V30 312 H 24.9769 -2.83302 4.7119 0
M  V30 313 H 26.2019 -3.56309 5.78118 0
M  V30 314 H 24.1479 -5.09072 4.13741 0
M  V30 315 H 24.0649 -4.79668 5.84341 0
M  V30 316 H 25.3329 -5.80104 5.20672 0
M  V30 317 N 29.562 -1.4872 -0.521534 0
M  V30 318 C 30.509 -1.63871 -1.62527 0
M  V30 319 C 31.479 -0.480559 -1.58996 0
M  V30 320 O 32.664 -0.705085 -1.77294 0
M  V30 321 C 29.804 -1.69227 -3.00759 0
M  V30 322 C 28.917 -2.96207 -3.14461 0
M  V30 323 C 28.052 -2.92671 -4.43303 0
M  V30 324 C 27.091 -4.14318 -4.50563 0
M  V30 325 N 26.228 -4.0881 -5.70805 0
M  V30 326 H 31.068 -2.58123 -1.48918 0
M  V30 327 H 28.605 -1.28 -0.724878 0
M  V30 328 H 30.563 -1.70314 -3.80853 0
M  V30 329 H 29.193 -0.784586 -3.1312 0
M  V30 330 H 28.245 -3.04826 -2.27564 0
M  V30 331 H 29.557 -3.86192 -3.15686 0
M  V30 332 H 28.711 -2.92206 -5.31696 0
M  V30 333 H 27.45 -2.00429 -4.44612 0
M  V30 334 H 26.455 -4.15049 -3.60575 0
M  V30 335 H 27.68 -5.07729 -4.50986 0
M  V30 336 H 25.626 -3.19394 -5.72995 0
M  V30 337 H 25.543 -4.92509 -5.7356 0
M  V30 338 H 26.811 -4.12418 -6.61462 0
M  V30 339 N 31.0401 0.771051 -1.3745 0
M  V30 340 C 31.9721 1.89352 -1.29146 0
M  V30 341 C 32.9851 1.61477 -0.207124 0
M  V30 342 O 34.1741 1.72382 -0.463324 0
M  V30 343 C 31.2741 3.24596 -0.974195 0
M  V30 344 C 30.4471 3.80111 -2.16413 0
M  V30 345 C 29.5061 4.93832 -1.81703 0
M  V30 346 O 28.5321 5.09382 -2.54006 0
M  V30 347 N 29.7341 5.75483 -0.761573 0
M  V30 348 H 32.4991 1.96991 -2.25864 0
M  V30 349 H 30.0601 0.950191 -1.31084 0
M  V30 350 H 32.0521 3.98193 -0.722828 0
M  V30 351 H 30.6221 3.12454 -0.0955527 0
M  V30 352 H 29.8421 2.98284 -2.57721 0
M  V30 353 H 31.1301 4.13932 -2.95867 0
M  V30 354 H 30.5281 5.65469 -0.161609 0
M  V30 355 H 29.0851 6.49302 -0.570064 0
M  V30 356 N 32.5182 1.22032 0.997298 0
M  V30 357 C 33.9342 0.979326 1.26021 0
M  V30 358 C 34.1342 -0.32972 1.98784 0
M  V30 359 O 33.1902 -1.05345 2.29475 0
M  V30 360 C 34.5032 2.17509 2.07631 0
M  V30 361 C 36.0512 2.21817 2.2083 0
M  V30 362 C 36.5262 3.40933 3.05825 0
M  V30 363 N 38.0172 3.41067 3.13412 0
M  V30 364 C 38.7522 4.29885 3.79455 0
M  V30 365 N 38.2482 5.28914 4.47462 0
M  V30 366 N 40.0412 4.17673 3.76173 0
M  V30 367 H 32.1922 2.06202 0.509352 0
M  V30 368 H 34.4552 0.90334 0.287541 0
M  V30 369 H 34.1612 3.12415 1.61524 0
M  V30 370 H 34.0352 2.17206 3.08385 0
M  V30 371 H 36.4222 1.27462 2.66153 0
M  V30 372 H 36.5032 2.2616 1.1952 0
M  V30 373 H 36.1472 4.35586 2.61203 0
M  V30 374 H 36.0772 3.33829 4.07266 0
M  V30 375 H 38.5682 2.69406 2.65007 0
M  V30 376 H 38.8812 5.92973 4.95583 0
M  V30 377 H 37.2262 5.32831 4.46224 0
M  V30 378 H 40.4172 3.39564 3.22202 0
M  V30 379 H 40.5902 4.87098 4.27363 0
M  V30 380 N 33.9963 -1.19345 1.0293 0
M  V30 381 C 35.2423 -1.89585 0.736824 0
M  V30 382 C 35.5973 -1.78148 -0.726703 0
M  V30 383 O 34.8903 -1.16332 -1.52242 0
M  V30 384 C 35.0843 -3.39292 1.12319 0
M  V30 385 C 34.9133 -3.65298 2.62273 0
M  V30 386 C 33.6833 -3.83304 3.29251 0
M  V30 387 C 35.8813 -3.6682 3.60482 0
M  V30 388 N 33.8633 -3.96944 4.68304 0
M  V30 389 C 35.2343 -3.86037 4.85155 0
M  V30 390 C 37.2893 -3.49848 3.54275 0
M  V30 391 C 35.9923 -3.9004 6.04369 0
M  V30 392 C 38.0183 -3.55129 4.72903 0
M  V30 393 C 37.3803 -3.74831 5.9639 0
M  V30 394 H 33.4793 -0.712856 0.321497 0
M  V30 395 H 36.0633 -1.43427 1.31669 0
M  V30 396 H 34.2343 -3.84172 0.571524 0
M  V30 397 H 35.9663 -3.97055 0.78292 0
M  V30 398 H 32.7213 -3.82211 2.79663 0
M  V30 399 H 33.1453 -4.07613 5.40538 0
M  V30 400 H 37.7873 -3.33572 2.59788 0
M  V30 401 H 35.5053 -4.05108 6.99223 0
M  V30 402 H 39.0913 -3.43287 4.69729 0
M  V30 403 H 37.9713 -3.78792 6.86649 0
M  V30 404 N 35.4744 -0.807222 -1.35358 0
M  V30 405 C 36.7024 -0.400377 -2.02989 0
M  V30 406 C 37.1174 0.988859 -1.60832 0
M  V30 407 O 36.4744 1.63729 -0.806175 0
M  V30 408 C 36.5254 -0.474867 -3.58368 0
M  V30 409 O 36.2464 -1.80933 -3.98992 0
M  V30 410 C 37.7474 -0.0609112 -4.43258 0
M  V30 411 H 34.9674 -0.162587 -0.651004 0
M  V30 412 H 37.5114 -1.09102 -1.72965 0
M  V30 413 H 35.6664 0.167534 -3.87038 0
M  V30 414 H 36.0804 -1.77256 -4.9364 0
M  V30 415 H 37.5544 -0.164145 -5.51756 0
M  V30 416 H 38.0314 0.993831 -4.27808 0
M  V30 417 H 38.6374 -0.676492 -4.19885 0
M  V30 418 N 36.9525 1.47285 -0.560781 0
M  V30 419 C 38.3635 1.86258 -0.128343 0
M  V30 420 C 38.7145 1.46699 1.30284 0
M  V30 421 O 37.8395 0.871698 1.98067 0
M  V30 422 C 38.4345 3.38044 -0.22614 0
M  V30 423 C 36.9935 3.76096 0.151283 0
M  V30 424 C 36.1405 2.71335 -0.572084 0
M  V30 425 H 39.0915 1.38752 -0.770297 0
M  V30 426 H 39.1125 3.76441 0.554322 0
M  V30 427 H 38.6245 3.66806 -1.26788 0
M  V30 428 H 36.7255 3.52951 1.19399 0
M  V30 429 H 36.8385 4.78641 -0.209765 0
M  V30 430 H 35.2025 2.54696 -0.0147653 0
M  V30 431 H 35.9855 3.02938 -1.61504 0
M  V30 432 N 38.4306 0.297415 1.54768 0
M  V30 433 C 39.3606 -0.573494 2.26348 0
M  V30 434 C 40.3416 -1.14085 1.26169 0
M  V30 435 O 41.5266 -1.17086 1.54934 0
M  V30 436 C 38.6566 -1.74716 3.00153 0
M  V30 437 C 37.6106 -1.31032 4.07449 0
M  V30 438 C 36.9366 -2.56887 4.68949 0
M  V30 439 C 38.2366 -0.444183 5.20408 0
M  V30 440 H 39.9306 0.0235131 2.99391 0
M  V30 441 H 37.4766 0.0127488 1.43994 0
M  V30 442 H 39.4296 -2.3625 3.48947 0
M  V30 443 H 38.1536 -2.37035 2.24682 0
M  V30 444 H 36.8126 -0.718066 3.59499 0
M  V30 445 H 36.4606 -3.17512 3.90122 0
M  V30 446 H 36.1606 -2.2836 5.41411 0
M  V30 447 H 37.6846 -3.19229 5.20505 0
M  V30 448 H 39.0986 -0.9651 5.65118 0
M  V30 449 H 37.4956 -0.252846 5.99567 0
M  V30 450 H 38.5656 0.531609 4.81977 0
M  V30 451 N 39.9087 -1.5758 0.0250728 0
M  V30 452 C 40.8187 -2.1343 -0.973905 0
M  V30 453 C 41.8347 -1.08556 -1.35984 0
M  V30 454 O 43.0107 -1.40592 -1.44207 0
M  V30 455 C 40.0757 -2.64703 -2.23904 0
M  V30 456 C 39.1367 -3.84276 -1.91391 0
M  V30 457 C 38.3697 -4.33095 -3.11873 0
M  V30 458 O 38.5927 -3.81107 -4.24398 0
M  V30 459 O 37.5267 -5.24984 -2.94406 0
M  V30 460 H 41.3527 -2.99057 -0.529036 0
M  V30 461 H 38.9377 -1.48118 -0.195288 0
M  V30 462 H 40.8197 -2.97769 -2.98181 0
M  V30 463 H 39.4947 -1.82161 -2.6758 0
M  V30 464 H 38.4017 -3.56143 -1.14511 0
M  V30 465 H 39.7347 -4.67968 -1.52534 0
M  V30 466 N 41.3868 0.248026 -1.55636 0
M  V30 467 C 42.6358 0.974134 -1.76617 0
M  V30 468 C 42.9488 1.86528 -0.588796 0
M  V30 469 O 44.1548 2.62805 -0.681594 0
M  V30 470 C 42.6108 1.78213 -3.12679 0
M  V30 471 C 42.2188 0.93843 -4.38061 0
M  V30 472 C 43.9628 2.50104 -3.42999 0
M  V30 473 C 41.8698 1.74225 -5.65155 0
M  V30 474 H 40.7998 0.36745 -0.658405 0
M  V30 475 H 43.4508 0.22884 -1.82067 0
M  V30 476 H 41.8328 2.56933 -3.01333 0
M  V30 477 H 43.0068 0.193635 -4.60393 0
M  V30 478 H 41.3218 0.332905 -4.15067 0
M  V30 479 H 43.9188 3.10694 -4.3517 0
M  V30 480 H 44.2618 3.21662 -2.64271 0
M  V30 481 H 44.7948 1.78395 -3.55556 0
M  V30 482 H 41.5338 1.07043 -6.46701 0
M  V30 483 H 41.0538 2.46235 -5.46926 0
M  V30 484 H 42.7328 2.30967 -6.0437 0
M  V30 485 N 42.8649 1.48995 0.513639 0
M  V30 486 C 44.0899 1.61792 1.29762 0
M  V30 487 C 44.5149 0.284475 1.85936 0
M  V30 488 O 43.8729 -0.746185 1.65232 0
M  V30 489 C 43.9209 2.67993 2.41272 0
M  V30 490 O 43.0249 2.26287 3.44772 0
M  V30 491 H 42.3659 0.541963 0.38363 0
M  V30 492 H 44.8959 1.95097 0.616307 0
M  V30 493 H 44.9059 2.89772 2.87221 0
M  V30 494 H 43.5809 3.64791 1.9975 0
M  V30 495 H 42.1579 2.14788 3.04829 0
M  V30 496 N 44.343 -0.763751 1.37857 0
M  V30 497 C 45.273 -1.89103 1.36975 0
M  V30 498 C 46.254 -1.68439 0.237152 0
M  V30 499 O 47.439 -1.8918 0.438713 0
M  V30 500 C 44.569 -3.26496 1.18395 0
M  V30 501 C 43.523 -3.61741 2.28751 0
M  V30 502 C 42.849 -4.97762 1.95286 0
M  V30 503 C 44.149 -3.67665 3.70972 0
M  V30 504 H 45.843 -1.90099 2.31307 0
M  V30 505 H 43.389 -0.91319 1.11341 0
M  V30 506 H 45.342 -4.05003 1.16406 0
M  V30 507 H 44.066 -3.25955 0.205215 0
M  V30 508 H 42.725 -2.85547 2.29909 0
M  V30 509 H 42.373 -4.93769 0.959221 0
M  V30 510 H 42.073 -5.22313 2.69189 0
M  V30 511 H 43.597 -5.7866 1.94898 0
M  V30 512 H 45.011 -4.36307 3.719 0
M  V30 513 H 43.408 -4.03718 4.43995 0
M  V30 514 H 44.478 -2.68134 4.0402 0
M  V30 515 N 45.8211 -1.22559 -0.990812 0
M  V30 516 C 47.0461 -1.07862 -1.77145 0
M  V30 517 C 47.4711 0.366447 -1.84496 0
M  V30 518 O 46.8291 1.26478 -1.29896 0
M  V30 519 C 46.8771 -1.69686 -3.18181 0
M  V30 520 O 45.9811 -0.951946 -4.01263 0
M  V30 521 H 45.3221 -0.378712 -0.545411 0
M  V30 522 H 47.8521 -1.62399 -1.2445 0
M  V30 523 H 47.8621 -1.74496 -3.68802 0
M  V30 524 H 46.5371 -2.74841 -3.12146 0
M  V30 525 H 45.1141 -0.980011 -3.59792 0
M  V30 526 N 47.2992 1.18797 -1.03562 0
M  V30 527 C 48.5452 1.8893 -0.737113 0
M  V30 528 C 48.8782 1.79837 0.732956 0
M  V30 529 O 48.1532 1.19525 1.5344 0
M  V30 530 C 48.4362 3.39607 -1.19745 0
M  V30 531 C 48.2892 3.57537 -2.72924 0
M  V30 532 C 49.6082 4.33069 -0.783526 0
M  V30 533 H 46.7272 0.686057 -0.269249 0
M  V30 534 H 49.3692 1.39797 -1.28673 0
M  V30 535 H 47.5192 3.81583 -0.729855 0
M  V30 536 H 49.1912 3.24688 -3.27682 0
M  V30 537 H 47.4342 3.00363 -3.12993 0
M  V30 538 H 48.1052 4.63238 -3.00191 0
M  V30 539 H 50.5812 3.98846 -1.18581 0
M  V30 540 H 49.4572 5.3707 -1.13343 0
M  V30 541 H 49.7182 4.40986 0.313681 0
M  V30 542 N 48.7773 0.814389 1.34928 0
M  V30 543 C 49.7073 0.244827 2.32213 0
M  V30 544 C 50.6883 -0.634024 1.57842 0
M  V30 545 O 51.8733 -0.562676 1.8587 0
M  V30 546 C 49.0033 -0.601106 3.42058 0
M  V30 547 C 47.9573 0.179896 4.27622 0
M  V30 548 C 47.2833 -0.788237 5.28858 0
M  V30 549 C 48.5833 1.38329 5.03649 0
M  V30 550 H 50.2773 1.05763 2.80097 0
M  V30 551 H 47.8233 0.510029 1.34665 0
M  V30 552 H 49.7763 -1.00968 4.09125 0
M  V30 553 H 48.5003 -1.44688 2.92802 0
M  V30 554 H 47.1593 0.569739 3.62146 0
M  V30 555 H 46.8073 -1.62973 4.75866 0
M  V30 556 H 46.5073 -0.269942 5.8698 0
M  V30 557 H 48.0313 -1.19485 5.98795 0
M  V30 558 H 49.4453 1.04918 5.63618 0
M  V30 559 H 47.8423 1.83662 5.71304 0
M  V30 560 H 48.9123 2.16592 4.33839 0
M  V30 561 N 50.2554 -1.46986 0.568584 0
M  V30 562 C 51.5014 -2.02741 0.0488709 0
M  V30 563 C 51.8344 -1.44077 -1.30214 0
M  V30 564 O 51.1094 -0.600552 -1.84996 0
M  V30 565 C 51.3924 -3.60086 -0.032047 0
M  V30 566 C 51.2454 -4.29162 1.34686 0
M  V30 567 C 52.5644 -4.33838 -0.739798 0
M  V30 568 H 49.6834 -0.736749 0.0192338 0
M  V30 569 H 52.3254 -1.75289 0.733065 0
M  V30 570 H 50.4754 -3.83606 -0.61473 0
M  V30 571 H 52.1474 -4.16948 1.97362 0
M  V30 572 H 50.3904 -3.89073 1.91846 0
M  V30 573 H 51.0614 -5.37826 1.24285 0
M  V30 574 H 53.5374 -4.15378 -0.244939 0
M  V30 575 H 52.4134 -5.43537 -0.765406 0
M  V30 576 H 52.6744 -4.03875 -1.79827 0
M  V30 577 N 51.7335 -0.305618 -1.54608 0
M  V30 578 C 52.6635 0.561482 -2.26649 0
M  V30 579 C 53.6445 1.13415 -1.26772 0
M  V30 580 O 54.8295 1.16262 -1.55553 0
M  V30 581 C 51.9595 1.73122 -3.01075 0
M  V30 582 C 50.9135 1.2887 -4.08138 0
M  V30 583 C 50.2395 2.54396 -4.70305 0
M  V30 584 C 51.5395 0.416578 -5.20636 0
M  V30 585 H 53.2335 -0.0393902 -2.99374 0
M  V30 586 H 50.7795 -0.020385 -1.43986 0
M  V30 587 H 52.7325 2.34396 -3.50195 0
M  V30 588 H 51.4565 2.3584 -2.25936 0
M  V30 589 H 50.1155 0.698991 -3.59875 0
M  V30 590 H 49.7635 3.15439 -3.918 0
M  V30 591 H 49.4635 2.25486 -5.42614 0
M  V30 592 H 50.9875 3.16464 -5.2219 0
M  V30 593 H 52.4015 0.935116 -5.65622 0
M  V30 594 H 50.7985 0.221046 -5.99693 0
M  V30 595 H 51.8685 -0.557162 -4.81688 0
M  V30 596 N 53.2116 1.57565 -0.0334293 0
M  V30 597 C 54.1416 2.13511 0.945265 0
M  V30 598 C 55.1226 1.05231 1.33643 0
M  V30 599 O 56.3076 1.33084 1.41429 0
M  V30 600 C 53.4376 2.6657 2.22616 0
M  V30 601 C 52.3916 3.79676 1.97561 0
M  V30 602 C 51.7176 4.1918 3.31952 0
M  V30 603 C 53.0176 5.0557 1.31135 0
M  V30 604 H 54.7116 2.95538 0.479325 0
M  V30 605 H 52.2576 1.42166 0.229115 0
M  V30 606 H 54.2106 3.04344 2.91466 0
M  V30 607 H 52.9346 1.8171 2.71384 0
M  V30 608 H 51.5936 3.42347 1.31127 0
M  V30 609 H 51.2416 3.31296 3.78487 0
M  V30 610 H 50.9416 4.95402 3.15992 0
M  V30 611 H 52.4656 4.59541 4.02063 0
M  V30 612 H 53.8796 5.40903 1.89992 0
M  V30 613 H 52.2766 5.86818 1.25559 0
M  V30 614 H 53.3466 4.84062 0.284894 0
M  V30 615 N 54.6897 -0.239769 1.55765 0
M  V30 616 C 55.6197 -1.30052 1.9393 0
M  V30 617 C 56.6007 -1.49839 0.805132 0
M  V30 618 O 57.7857 -1.62328 1.06599 0
M  V30 619 C 54.9157 -2.65391 2.2402 0
M  V30 620 C 53.8697 -2.60289 3.39755 0
M  V30 621 C 53.1957 -3.99489 3.55405 0
M  V30 622 C 54.4957 -2.16654 4.75246 0
M  V30 623 H 56.1897 -0.983573 2.82783 0
M  V30 624 H 53.7357 -0.471701 1.36055 0
M  V30 625 H 55.6887 -3.3974 2.49308 0
M  V30 626 H 54.4127 -2.98736 1.32 0
M  V30 627 H 53.0717 -1.88398 3.14487 0
M  V30 628 H 52.7197 -4.30112 2.60793 0
M  V30 629 H 52.4197 -3.96962 4.33238 0
M  V30 630 H 53.9437 -4.75528 3.83022 0
M  V30 631 H 55.3577 -2.80737 4.99859 0
M  V30 632 H 53.7547 -2.25223 5.56232 0
M  V30 633 H 54.8247 -1.11835 4.71827 0
M  V30 634 N 56.1678 -1.49265 -0.50573 0
M  V30 635 C 57.3958 -1.62215 -1.28429 0
M  V30 636 C 57.8108 -0.291697 -1.86533 0
M  V30 637 O 57.1678 0.722233 -1.67601 0
M  V30 638 C 57.2188 -2.68735 -2.41793 0
M  V30 639 O 56.9398 -3.96619 -1.86078 0
M  V30 640 C 58.4408 -2.92346 -3.3324 0
M  V30 641 H 55.6608 -0.546239 -0.389697 0
M  V30 642 H 58.2048 -1.95265 -0.607609 0
M  V30 643 H 56.3598 -2.38476 -3.053 0
M  V30 644 H 56.7738 -4.55256 -2.60465 0
M  V30 645 H 58.2478 -3.70623 -4.09075 0
M  V30 646 H 58.7248 -2.02081 -3.89948 0
M  V30 647 H 59.3308 -3.24003 -2.75503 0
M  V30 648 N 57.6459 0.756429 -1.3826 0
M  V30 649 C 58.8949 1.51082 -1.3363 0
M  V30 650 C 59.2079 1.95467 0.0720068 0
M  V30 651 O 60.4139 2.7043 0.240834 0
M  V30 652 C 58.8699 2.72893 -2.34644 0
M  V30 653 C 58.4779 2.35544 -3.81081 0
M  V30 654 C 60.2219 3.50791 -2.39052 0
M  V30 655 C 58.1289 3.53948 -4.73787 0
M  V30 656 H 57.0589 0.56727 -0.49671 0
M  V30 657 H 59.7099 0.827147 -1.638 0
M  V30 658 H 58.0919 3.43227 -1.97513 0
M  V30 659 H 59.2659 1.72894 -4.27135 0
M  V30 660 H 57.5809 1.70786 -3.79764 0
M  V30 661 H 60.1779 4.38823 -3.05513 0
M  V30 662 H 60.5209 3.91745 -1.40861 0
M  V30 663 H 61.0539 2.87467 -2.74968 0
M  V30 664 H 57.7929 3.18064 -5.73163 0
M  V30 665 H 57.3129 4.15651 -4.32428 0
M  V30 666 H 58.9919 4.20566 -4.91663 0
M  V30 667 N 59.124 1.23083 0.984299 0
M  V30 668 C 60.373 1.05466 1.71929 0
M  V30 669 C 60.686 -0.409211 1.91272 0
M  V30 670 O 61.892 -0.705226 2.62181 0
M  V30 671 C 60.348 1.83874 3.09384 0
M  V30 672 C 59.956 3.34566 2.97943 0
M  V30 673 C 61.7 1.74734 3.8687 0
M  V30 674 C 59.607 4.05381 4.30605 0
M  V30 675 H 58.537 0.391039 0.644674 0
M  V30 676 H 61.188 1.47013 1.09815 0
M  V30 677 H 59.57 1.35131 3.72231 0
M  V30 678 H 60.744 3.90767 2.44209 0
M  V30 679 H 59.059 3.44476 2.33934 0
M  V30 680 H 61.656 2.24957 4.85076 0
M  V30 681 H 61.999 0.709372 4.10212 0
M  V30 682 H 62.532 2.21067 3.30717 0
M  V30 683 H 59.271 5.09467 4.1246 0
M  V30 684 H 58.791 3.53967 4.84218 0
M  V30 685 H 60.47 4.11458 4.99311 0
M  V30 686 N 60.6021 -1.18246 1.0419 0
M  V30 687 C 61.5651 -2.20128 0.638452 0
M  V30 688 C 62.5651 -1.57885 -0.304805 0
M  V30 689 O 63.7551 -1.73967 -0.0900369 0
M  V30 690 C 60.8871 -3.4084 -0.0637751 0
M  V30 691 H 62.0801 -2.57336 1.54007 0
M  V30 692 H 59.6331 -1.32152 0.834598 0
M  V30 693 H 60.3681 -3.09166 -0.979136 0
M  V30 694 H 60.1531 -3.8726 0.614198 0
M  V30 695 H 61.6431 -4.16274 -0.332512 0
M  V30 696 N 62.0802 -0.821533 -1.34494 0
M  V30 697 C 63.3262 -0.409552 -1.98622 0
M  V30 698 C 63.6592 1.0244 -1.64984 0
M  V30 699 O 62.9342 1.71325 -0.920758 0
M  V30 700 C 63.2172 -0.610458 -3.54888 0
M  V30 701 C 63.0702 -2.09043 -3.98273 0
M  V30 702 C 64.3892 -0.0455379 -4.40076 0
M  V30 703 H 61.5082 -0.15028 -0.721516 0
M  V30 704 H 64.1502 -1.03384 -1.59411 0
M  V30 705 H 62.3002 -0.079044 -3.8842 0
M  V30 706 H 63.9722 -2.68537 -3.75081 0
M  V30 707 H 62.2152 -2.58139 -3.48635 0
M  V30 708 H 62.8862 -2.18182 -5.07051 0
M  V30 709 H 65.3622 -0.499557 -4.1309 0
M  V30 710 H 64.2382 -0.215922 -5.48475 0
M  V30 711 H 64.4992 1.04939 -4.29465 0
M  V30 712 N 63.5583 1.46682 -0.576371 0
M  V30 713 C 64.7863 2.06798 -0.0649635 0
M  V30 714 C 65.2013 1.42612 1.23723 0
M  V30 715 O 64.5583 0.529203 1.74659 0
M  V30 716 C 64.6093 3.6132 0.114202 0
M  V30 717 O 64.3303 4.23104 -1.13644 0
M  V30 718 C 65.8313 4.38349 0.66069 0
M  V30 719 H 63.0513 0.668778 -0.0545616 0
M  V30 720 H 65.5953 1.88404 -0.795237 0
M  V30 721 H 63.7503 3.79162 0.794673 0
M  V30 722 H 64.1643 5.15894 -0.946253 0
M  V30 723 H 65.6383 5.47081 0.73526 0
M  V30 724 H 66.1153 4.05953 1.67627 0
M  V30 725 H 66.7213 4.25297 0.0152951 0
M  V30 726 N 65.0364 0.313813 1.54444 0
M  V30 727 C 65.9694 -0.598866 2.20202 0
M  V30 728 C 66.9474 -1.12318 1.17573 0
M  V30 729 O 68.1314 -1.18899 1.46271 0
M  V30 730 C 65.2584 -1.82071 2.85601 0
M  V30 731 C 64.3044 -1.42851 4.01865 0
M  V30 732 S 65.1374 -0.473512 5.33402 0
M  V30 733 C 66.2934 -1.70286 6.0229 0
M  V30 734 H 66.5264 -0.0402532 2.97273 0
M  V30 735 H 64.0594 0.0979165 1.54089 0
M  V30 736 H 66.0174 -2.52184 3.23904 0
M  V30 737 H 64.6784 -2.3505 2.08351 0
M  V30 738 H 63.8714 -2.33871 4.46453 0
M  V30 739 H 63.4734 -0.807198 3.65185 0
M  V30 740 H 65.7654 -2.64168 6.23876 0
M  V30 741 H 66.7084 -1.29932 6.96077 0
M  V30 742 H 67.1164 -1.88541 5.32083 0
M  V30 743 N 66.5145 -1.57545 0.0417849 0
M  V30 744 C 67.7635 -1.91494 -0.633492 0
M  V30 745 C 68.0765 -0.921084 -1.72556 0
M  V30 746 O 69.2825 -1.15228 -2.45835 0
M  V30 747 C 67.7385 -3.40072 -1.17808 0
M  V30 748 C 67.3465 -4.47843 -0.118633 0
M  V30 749 C 69.0905 -3.8307 -1.82915 0
M  V30 750 C 66.9975 -5.87529 -0.675578 0
M  V30 751 H 65.9275 -0.714653 -0.24039 0
M  V30 752 H 68.5785 -1.83175 0.109148 0
M  V30 753 H 66.9605 -3.43364 -1.97274 0
M  V30 754 H 68.1345 -4.56128 0.654494 0
M  V30 755 H 66.4495 -4.14128 0.434414 0
M  V30 756 H 69.0465 -4.84794 -2.25563 0
M  V30 757 H 69.3895 -3.1881 -2.67705 0
M  V30 758 H 69.9225 -3.82255 -1.10119 0
M  V30 759 H 66.6615 -6.55362 0.134475 0
M  V30 760 H 66.1815 -5.82824 -1.4169 0
M  V30 761 H 67.8605 -6.36491 -1.1614 0
M  V30 762 N 67.9926 0.231505 -1.5589 0
M  V30 763 C 68.9556 1.27028 -1.90779 0
M  V30 764 C 69.9556 1.40308 -0.785507 0
M  V30 765 O 71.1456 1.38744 -1.05336 0
M  V30 766 C 68.2776 2.64566 -2.14983 0
M  V30 767 H 69.4706 0.973017 -2.83677 0
M  V30 768 H 67.0236 0.471486 -1.49019 0
M  V30 769 H 67.7586 2.99406 -1.24604 0
M  V30 770 H 67.5436 2.56305 -2.96732 0
M  V30 771 H 69.0336 3.39543 -2.43105 0
M  V30 772 N 69.4707 1.49531 0.497807 0
M  V30 773 C 70.4007 1.6935 1.60757 0
M  V30 774 C 71.3817 0.542218 1.61227 0
M  V30 775 O 72.5667 0.778417 1.77917 0
M  V30 776 C 69.6967 1.76298 2.99226 0
M  V30 777 C 68.6507 2.91248 3.13622 0
M  V30 778 C 67.9767 2.83312 4.53474 0
M  V30 779 C 69.2767 4.3214 2.93346 0
M  V30 780 H 70.9707 2.62263 1.44425 0
M  V30 781 H 68.5167 1.26208 0.693367 0
M  V30 782 H 70.4697 1.88749 3.76765 0
M  V30 783 H 69.1937 0.799871 3.16654 0
M  V30 784 H 67.8527 2.78404 2.38509 0
M  V30 785 H 67.5007 1.84902 4.67782 0
M  V30 786 H 67.2007 3.60465 4.64046 0
M  V30 787 H 68.7247 2.97775 5.33069 0
M  V30 788 H 70.1387 4.45649 3.60652 0
M  V30 789 H 68.5357 5.1054 3.15387 0
M  V30 790 H 69.6057 4.46363 1.89441 0
M  V30 791 N 70.9488 -0.749086 1.3866 0
M  V30 792 C 72.1788 -1.53611 1.38157 0
M  V30 793 C 72.5868 -1.89177 -0.0293595 0
M  V30 794 O 71.9298 -1.53606 -1.00752 0
M  V30 795 C 71.9918 -2.86087 2.17702 0
M  V30 796 C 71.6558 -2.73034 3.66472 0
M  V30 797 C 72.6528 -2.42526 4.59866 0
M  V30 798 C 70.3378 -2.90345 4.09884 0
M  V30 799 C 72.3318 -2.29492 5.94653 0
M  V30 800 C 70.0188 -2.7693 5.4475 0
M  V30 801 C 71.0168 -2.46547 6.36949 0
M  V30 802 O 70.7048 -2.33199 7.69333 0
M  V30 803 H 70.4368 -0.481773 0.474205 0
M  V30 804 H 72.9908 -0.934465 1.82912 0
M  V30 805 H 71.2208 -3.48458 1.67672 0
M  V30 806 H 72.9098 -3.47625 2.09551 0
M  V30 807 H 73.6758 -2.28816 4.27631 0
M  V30 808 H 69.5548 -3.1299 3.38464 0
M  V30 809 H 73.0988 -2.05698 6.66584 0
M  V30 810 H 68.9958 -2.90215 5.76581 0
M  V30 811 H 69.7638 -2.48376 7.79905 0
M  V30 812 N 72.4269 -1.23603 -0.977757 0
M  V30 813 C 73.3899 -1.02069 -2.05218 0
M  V30 814 C 74.3899 0.0184305 -1.60789 0
M  V30 815 O 75.5799 -0.221569 -1.72785 0
M  V30 816 C 72.7119 -0.544926 -3.36517 0
M  V30 817 H 73.9049 -1.9742 -2.25755 0
M  V30 818 H 71.4579 -1.05684 -1.15155 0
M  V30 819 H 72.1929 0.412241 -3.21669 0
M  V30 820 H 71.9779 -1.2948 -3.70105 0
M  V30 821 H 73.4679 -0.414985 -4.15533 0
M  V30 822 N 73.905 1.17692 -1.04816 0
M  V30 823 C 75.133 1.91786 -0.776254 0
M  V30 824 C 75.548 1.76604 0.667577 0
M  V30 825 O 74.905 1.10067 1.45573 0
M  V30 826 C 74.956 3.42967 -1.14263 0
M  V30 827 O 74.677 3.57678 -2.52978 0
M  V30 828 C 76.178 4.34144 -0.896311 0
M  V30 829 H 73.398 0.608624 -0.282519 0
M  V30 830 H 75.942 1.49268 -1.39783 0
M  V30 831 H 74.097 3.83245 -0.565874 0
M  V30 832 H 74.511 4.51319 -2.67229 0
M  V30 833 H 75.985 5.38744 -1.20244 0
M  V30 834 H 76.462 4.38876 0.168636 0
M  V30 835 H 77.068 3.99574 -1.45672 0
M  V30 836 N 75.3831 0.828654 1.34056 0
M  V30 837 C 76.6131 0.431993 2.02033 0
M  V30 838 C 77.0211 -0.96844 1.62536 0
M  V30 839 O 76.3641 -1.6391 0.829408 0
M  V30 840 C 76.4261 0.461224 3.56529 0
M  V30 841 C 76.0901 1.81599 4.1937 0
M  V30 842 C 77.0871 2.7777 4.39477 0
M  V30 843 C 74.7721 2.10604 4.56017 0
M  V30 844 C 76.7661 4.01115 4.95364 0
M  V30 845 C 74.4531 3.34207 5.11614 0
M  V30 846 C 75.4511 4.2928 5.31232 0
M  V30 847 O 75.1391 5.50699 5.8565 0
M  V30 848 H 74.8711 0.170943 0.654029 0
M  V30 849 H 77.4251 1.11988 1.72185 0
M  V30 850 H 75.6551 -0.283388 3.8566 0
M  V30 851 H 77.3441 0.0838149 4.05813 0
M  V30 852 H 78.1101 2.56659 4.11523 0
M  V30 853 H 73.9891 1.37402 4.40047 0
M  V30 854 H 77.5331 4.75333 5.10592 0
M  V30 855 H 73.4301 3.55179 5.38997 0
M  V30 856 H 74.1981 5.52298 6.04077 0
M  V30 857 N 76.8612 -1.46375 0.584142 0
M  V30 858 C 78.1382 -1.956 0.0033388 0
M  V30 859 C 78.5182 -1.52679 -1.45782 0
M  V30 860 O 77.8662 -0.77816 -2.14842 0
M  V30 861 C 78.0762 -3.48551 0.176891 0
M  V30 862 C 79.4242 -4.24576 0.0454609 0
M  V30 863 O 80.4482 -3.56043 0.105801 0
M  V30 864 O 79.3072 -5.46427 -0.0890376 0
M  V30 865 H 76.4012 -0.825547 -0.0490066 0
M  V30 866 H 78.9472 -1.56652 0.65256 0
M  V30 867 H 77.7192 -3.72683 1.1926 0
M  V30 868 H 77.3422 -3.94332 -0.508695 0
M  V30 869 N 78.3393 -0.321999 -1.54275 0
M  V30 870 C 79.6163 0.335232 -1.92706 0
M  V30 871 C 79.9963 1.70006 -1.25145 0
M  V30 872 O 79.3443 2.25067 -0.394596 0
M  V30 873 C 79.5543 0.429008 -3.46353 0
M  V30 874 C 80.9023 0.690029 -4.18956 0
M  V30 875 O 81.9263 0.511992 -3.52501 0
M  V30 876 O 80.7853 1.03338 -5.36641 0
M  V30 877 H 77.8793 0.191143 -0.804608 0
M  V30 878 H 80.4253 -0.3716 -1.65581 0
M  V30 879 H 79.1973 -0.529611 -3.87699 0
M  V30 880 H 78.8203 1.18348 -3.79578 0
M  V30 881 N 79.8174 1.5752 -0.0501392 0
M  V30 882 C 81.0654 1.9227 0.622642 0
M  V30 883 C 81.3864 0.929083 1.71444 0
M  V30 884 O 80.6564 -0.0262186 1.95882 0
M  V30 885 H 79.2364 0.709739 0.232981 0
M  V30 886 H 81.8984 1.94628 -0.102898 0
M  V30 887 H 80.9944 2.93479 1.06191 0
M  V30 888 N 81.2955 -0.223234 1.56011 0
M  V30 889 C 82.5445 -0.945912 1.78144 0
M  V30 890 C 82.8575 -1.85567 0.618396 0
M  V30 891 O 84.0635 -2.61688 0.723318 0
M  V30 892 C 82.5195 -1.73216 3.15475 0
M  V30 893 C 82.1275 -0.868619 4.39499 0
M  V30 894 C 83.8715 -2.44615 3.46935 0
M  V30 895 C 81.7785 -1.65212 5.67855 0
M  V30 896 H 80.7085 -0.356929 0.664167 0
M  V30 897 H 83.3595 -0.199845 1.82409 0
M  V30 898 H 81.7415 -2.52107 3.05382 0
M  V30 899 H 82.9155 -0.120366 4.60643 0
M  V30 900 H 81.2305 -0.26683 4.15544 0
M  V30 901 H 83.8275 -3.03732 4.40058 0
M  V30 902 H 84.1705 -3.17417 2.69355 0
M  V30 903 H 84.7035 -1.72715 3.58349 0
M  V30 904 H 81.4425 -0.967407 6.48322 0
M  V30 905 H 80.9625 -2.37503 5.50774 0
M  V30 906 H 82.6415 -2.21322 6.07968 0
M  V30 907 N 82.7736 -1.49793 -0.48987 0
M  V30 908 C 84.0136 -1.61466 -1.25332 0
M  V30 909 C 84.3776 -0.299688 -1.89647 0
M  V30 910 O 85.5786 -0.291687 -2.67213 0
M  V30 911 C 83.8496 -2.74944 -2.28343 0
M  V30 912 S 85.4086 -3.06637 -3.13878 0
M  V30 913 H 82.2266 -0.569411 -0.425784 0
M  V30 914 H 84.8286 -1.875 -0.553541 0
M  V30 915 H 83.5326 -3.68994 -1.79643 0
M  V30 916 H 83.0636 -2.50938 -3.02975 0
M  V30 917 H 85.0786 -2.49015 -4.29192 0
M  V30 918 N 84.2517 0.741722 -1.39055 0
M  V30 919 C 85.1987 1.85566 -1.37237 0
M  V30 920 C 86.1687 1.64457 -0.233072 0
M  V30 921 O 87.3537 1.85957 -0.427147 0
M  V30 922 C 84.4937 3.23004 -1.215 0
M  V30 923 C 83.6067 3.55864 -2.44918 0
M  V30 924 C 82.7417 4.82669 -2.21821 0
M  V30 925 C 81.7807 5.08351 -3.40948 0
M  V30 926 N 80.9177 6.26356 -3.17211 0
M  V30 927 H 85.7577 1.86455 -2.32462 0
M  V30 928 H 83.2947 0.911176 -1.15482 0
M  V30 929 H 85.2527 4.02331 -1.10389 0
M  V30 930 H 83.8827 3.21411 -0.29908 0
M  V30 931 H 82.9347 2.7129 -2.66657 0
M  V30 932 H 84.2467 3.70765 -3.33668 0
M  V30 933 H 83.4007 5.69962 -2.07914 0
M  V30 934 H 82.1397 4.69929 -1.30454 0
M  V30 935 H 81.1447 4.19522 -3.55361 0
M  V30 936 H 82.3697 5.22981 -4.33207 0
M  V30 937 H 80.3157 6.14917 -2.28502 0
M  V30 938 H 80.2327 6.41813 -3.99515 0
M  V30 939 H 81.5007 7.16506 -3.06984 0
M  V30 940 N 85.7298 1.2412 0.971189 0
M  V30 941 C 86.9548 1.10667 1.75407 0
M  V30 942 C 87.3798 -0.337048 1.85056 0
M  V30 943 O 86.7378 -1.24396 1.31892 0
M  V30 944 C 86.7858 1.74726 3.15441 0
M  V30 945 O 85.8898 1.01566 3.99697 0
M  V30 946 H 85.2308 0.387341 0.539317 0
M  V30 947 H 87.7608 1.64358 1.2185 0
M  V30 948 H 87.7708 1.80341 3.6598 0
M  V30 949 H 86.4458 2.79773 3.07734 0
M  V30 950 H 85.0228 1.03713 3.58187 0
M  V30 951 N 87.2079 -1.17134 1.05439 0
M  V30 952 C 88.4329 -1.91913 0.786396 0
M  V30 953 C 88.8579 -1.7643 -0.652234 0
M  V30 954 O 88.2159 -1.08372 -1.45345 0
M  V30 955 C 88.2639 -3.40921 1.17497 0
M  V30 956 O 87.3679 -4.11244 0.308589 0
M  V30 957 H 86.7089 -0.598215 0.288158 0
M  V30 958 H 89.2389 -1.48457 1.4079 0
M  V30 959 H 89.2489 -3.91668 1.14281 0
M  V30 960 H 87.9239 -3.5151 2.22292 0
M  V30 961 H 86.5009 -3.70731 0.40157 0
M  V30 962 N 88.686 -0.835752 -1.33615 0
M  V30 963 C 89.963 -0.352017 -1.92406 0
M  V30 964 C 90.343 1.16225 -1.76224 0
M  V30 965 O 89.691 1.97526 -1.14873 0
M  V30 966 C 89.901 -0.795485 -3.39813 0
M  V30 967 C 91.249 -0.801703 -4.16963 0
M  V30 968 O 92.273 -0.738889 -3.48452 0
M  V30 969 O 91.132 -0.886607 -5.3926 0
M  V30 970 H 88.226 -0.0989641 -0.821057 0
M  V30 971 H 90.772 -0.921397 -1.42507 0
M  V30 972 H 89.544 -1.83795 -3.45449 0
M  V30 973 H 89.167 -0.202505 -3.97084 0
M  V30 974 N 90.1641 1.46063 -0.591896 0
M  V30 975 C 91.4041 2.04228 -0.0838014 0
M  V30 976 C 91.7681 1.45231 1.25587 0
M  V30 977 O 92.9691 1.94653 1.85375 0
M  V30 978 C 91.2401 3.57389 -0.0286282 0
M  V30 979 S 92.7991 4.3678 0.420557 0
M  V30 980 H 89.6171 0.709762 -0.0419319 0
M  V30 981 H 92.2191 1.78983 -0.786465 0
M  V30 982 H 90.9231 3.97843 -1.00743 0
M  V30 983 H 90.4541 3.87185 0.69652 0
M  V30 984 H 92.4691 4.67131 1.67341 0
M  V30 985 N 91.6422 0.330177 1.54103 0
M  V30 986 C 92.8912 -0.271336 1.99867 0
M  V30 987 C 93.2042 -1.52723 1.22209 0
M  V30 988 O 94.4102 -2.20515 1.58383 0
M  V30 989 C 92.8662 -0.534032 3.55916 0
M  V30 990 C 92.4742 0.705193 4.42415 0
M  V30 991 C 94.2182 -1.09514 4.1013 0
M  V30 992 C 92.1252 0.414035 5.89949 0
M  V30 993 H 91.0552 -0.105166 0.74663 0
M  V30 994 H 93.7062 0.443429 1.78062 0
M  V30 995 H 92.0882 -1.30915 3.73734 0
M  V30 996 H 93.2622 1.4804 4.36372 0
M  V30 997 H 91.5772 1.18698 3.99124 0
M  V30 998 H 94.1742 -1.3277 5.17954 0
M  V30 999 H 94.5172 -2.04656 3.62521 0
M  V30 1000 H 95.0502 -0.381038 3.95971 0
M  V30 1001 H 91.7892 1.33481 6.41766 0
M  V30 1002 H 91.3092 -0.323336 5.98928 0
M  V30 1003 H 92.9882 0.0263105 6.46995 0
M  V30 1004 N 93.1203 -1.57491 0.0584922 0
M  V30 1005 C 94.0673 -2.11958 -0.913376 0
M  V30 1006 C 95.0373 -1.02875 -1.30407 0
M  V30 1007 O 96.2223 -1.30464 -1.39226 0
M  V30 1008 C 93.3623 -2.67497 -2.18035 0
M  V30 1009 C 92.4753 -3.90691 -1.84349 0
M  V30 1010 C 91.6103 -4.3452 -3.05559 0
M  V30 1011 C 90.6493 -5.50395 -2.67827 0
M  V30 1012 N 89.7863 -5.89244 -3.81754 0
M  V30 1013 H 94.6263 -2.94704 -0.442017 0
M  V30 1014 H 92.1633 -1.45643 -0.206545 0
M  V30 1015 H 94.1213 -2.978 -2.92183 0
M  V30 1016 H 92.7513 -1.87537 -2.62735 0
M  V30 1017 H 91.8033 -3.66934 -1.00319 0
M  V30 1018 H 93.1153 -4.7489 -1.5258 0
M  V30 1019 H 92.2693 -4.66414 -3.87998 0
M  V30 1020 H 91.0083 -3.49147 -3.40511 0
M  V30 1021 H 90.0133 -5.18165 -1.83806 0
M  V30 1022 H 91.2383 -6.3749 -2.34059 0
M  V30 1023 H 89.1843 -5.06823 -4.16493 0
M  V30 1024 H 89.1013 -6.68151 -3.53708 0
M  V30 1025 H 90.3693 -6.25756 -4.64811 0
M  V30 1026 N 94.5984 0.214957 -1.56127 0
M  V30 1027 C 95.8234 0.95924 -1.83884 0
M  V30 1028 C 96.2484 1.7689 -0.639644 0
M  V30 1029 O 95.6064 1.76566 0.411601 0
M  V30 1030 C 95.6544 1.84723 -3.09693 0
M  V30 1031 O 94.7584 2.94346 -2.8885 0
M  V30 1032 H 94.0994 0.27125 -0.606069 0
M  V30 1033 H 96.6294 0.226276 -2.03345 0
M  V30 1034 H 96.6394 2.25576 -3.39969 0
M  V30 1035 H 95.3144 1.25218 -3.96602 0
M  V30 1036 H 93.8914 2.57391 -2.69823 0
M  V30 1037 N 96.0765 1.50051 0.48192 0
M  V30 1038 C 97.0395 1.67584 1.5636 0
M  V30 1039 C 98.0395 0.546894 1.51214 0
M  V30 1040 O 99.2295 0.813725 1.54026 0
M  V30 1041 C 96.3615 1.691 2.96003 0
M  V30 1042 H 97.5545 2.64078 1.42136 0
M  V30 1043 H 95.1075 1.39369 0.707533 0
M  V30 1044 H 95.8425 0.742589 3.15684 0
M  V30 1045 H 95.6275 2.51105 3.01146 0
M  V30 1046 H 97.1175 1.84656 3.74556 0
M  V30 1047 N 97.5546 -0.734337 1.39446 0
M  V30 1048 C 98.5176 -1.83004 1.37994 0
M  V30 1049 C 99.5176 -1.58397 0.276938 0
M  V30 1050 O 100.708 -1.65785 0.534875 0
M  V30 1051 C 97.8396 -3.20802 1.1532 0
M  V30 1052 H 99.0326 -1.85694 2.35494 0
M  V30 1053 H 96.5856 -0.938059 1.25021 0
M  V30 1054 H 97.3206 -3.23772 0.185036 0
M  V30 1055 H 97.1056 -3.4006 1.95197 0
M  V30 1056 H 98.5956 -4.00862 1.17046 0
M  V30 1057 N 99.0327 -1.24633 -0.964593 0
M  V30 1058 C 100.449 -1.01239 -1.2338 0
M  V30 1059 C 100.649 0.2769 -1.99588 0
M  V30 1060 O 99.7047 0.992241 -2.32187 0
M  V30 1061 C 101.018 -2.22937 -2.01791 0
M  V30 1062 C 102.566 -2.27594 -2.14872 0
M  V30 1063 C 103.041 -3.48921 -2.96678 0
M  V30 1064 N 104.532 -3.49257 -3.04259 0
M  V30 1065 C 105.267 -4.39795 -3.67924 0
M  V30 1066 N 104.763 -5.40591 -4.33281 0
M  V30 1067 N 106.556 -4.275 -3.64966 0
M  V30 1068 H 98.7067 -2.0748 -0.454502 0
M  V30 1069 H 100.97 -0.910647 -0.26349 0
M  V30 1070 H 100.676 -3.16587 -1.53184 0
M  V30 1071 H 100.55 -2.25306 -3.02518 0
M  V30 1072 H 102.937 -1.34473 -2.6268 0
M  V30 1073 H 103.018 -2.2925 -1.13482 0
M  V30 1074 H 102.662 -4.42359 -2.49562 0
M  V30 1075 H 102.592 -3.4451 -3.98272 0
M  V30 1076 H 105.083 -2.76337 -2.57771 0
M  V30 1077 H 105.396 -6.05904 -4.79687 0
M  V30 1078 H 103.741 -5.44475 -4.3194 0
M  V30 1079 H 106.932 -3.47987 -3.13086 0
M  V30 1080 H 107.105 -4.98258 -4.14298 0
M  V30 1081 N 100.511 1.16574 -1.06058 0
M  V30 1082 C 101.441 2.23057 -0.690488 0
M  V30 1083 C 102.422 1.67141 0.315901 0
M  V30 1084 O 103.607 1.93253 0.191556 0
M  V30 1085 C 100.737 3.47222 -0.073625 0
M  V30 1086 C 99.6908 4.16016 -1.00573 0
M  V30 1087 C 99.0168 5.34104 -0.252289 0
M  V30 1088 C 100.317 4.67264 -2.33371 0
M  V30 1089 H 102.011 2.54271 -1.58072 0
M  V30 1090 H 99.5568 1.22218 -0.76149 0
M  V30 1091 H 101.51 4.20939 0.19714 0
M  V30 1092 H 100.234 3.15302 0.85161 0
M  V30 1093 H 98.8928 3.44223 -1.2612 0
M  V30 1094 H 98.5408 4.98437 0.675988 0
M  V30 1095 H 98.2408 5.81072 -0.873455 0
M  V30 1096 H 99.7648 6.10599 0.0109857 0
M  V30 1097 H 101.179 5.32573 -2.12223 0
M  V30 1098 H 99.5758 5.24843 -2.90963 0
M  V30 1099 H 100.646 3.83602 -2.96611 0
M  V30 1100 N 101.989 0.842826 1.3317 0
M  V30 1101 C 103.238 0.436738 1.96915 0
M  V30 1102 C 103.551 -1.01025 1.67491 0
M  V30 1103 O 104.757 -1.5212 2.24881 0
M  V30 1104 C 103.213 0.730021 3.52418 0
M  V30 1105 C 102.821 2.19195 3.90714 0
M  V30 1106 C 104.565 0.391076 4.22695 0
M  V30 1107 C 102.472 2.42907 5.39212 0
M  V30 1108 H 101.402 0.15958 0.736919 0
M  V30 1109 H 104.053 1.03196 1.51733 0
M  V30 1110 H 102.435 0.0643755 3.95948 0
M  V30 1111 H 103.609 2.8984 3.58231 0
M  V30 1112 H 101.924 2.49425 3.33431 0
M  V30 1113 H 104.521 0.545817 5.31907 0
M  V30 1114 H 104.864 -0.666294 4.10933 0
M  V30 1115 H 105.397 1.01212 3.84709 0
M  V30 1116 H 102.136 3.47224 5.55982 0
M  V30 1117 H 101.656 1.76827 5.73142 0
M  V30 1118 H 103.335 2.2626 6.06148 0
M  V30 1119 N 103.467 -1.45747 0.599634 0
M  V30 1120 C 104.399 -2.28628 -0.161879 0
M  V30 1121 C 105.412 -1.39494 -0.839367 0
M  V30 1122 O 106.601 -1.63941 -0.706089 0
M  V30 1123 C 103.701 -3.15014 -1.24976 0
M  V30 1124 C 102.874 -4.32378 -0.660935 0
M  V30 1125 C 101.933 -5.00033 -1.63869 0
M  V30 1126 O 100.959 -5.57085 -1.1681 0
M  V30 1127 N 102.161 -4.98589 -2.97303 0
M  V30 1128 H 104.926 -2.94624 0.549265 0
M  V30 1129 H 102.487 -1.55847 0.438565 0
M  V30 1130 H 104.479 -3.5714 -1.9035 0
M  V30 1131 H 103.049 -2.5098 -1.86354 0
M  V30 1132 H 102.269 -3.9383 0.170688 0
M  V30 1133 H 103.557 -5.08197 -0.247619 0
M  V30 1134 H 102.955 -4.53514 -3.38145 0
M  V30 1135 H 101.512 -5.44603 -3.58121 0
M  V30 1136 N 104.945 -0.338344 -1.53925 0
M  V30 1137 C 105.893 0.536231 -2.26335 0
M  V30 1138 C 106.887 1.1063 -1.28286 0
M  V30 1139 O 108.093 1.05264 -1.46012 0
M  V30 1140 H 104.468 0.191602 -0.727181 0
M  V30 1141 H 106.439 -0.0965747 -2.98244 0
M  V30 1142 C 105.188 1.67803 -3.04528 0
M  V30 1143 H 104.511 1.24864 -3.79801 0
M  V30 1144 H 105.951 2.26526 -3.58416 0
M  V30 1145 C 104.41 2.60439 -2.13712 0
M  V30 1146 O 104.94 3.6255 -1.72975 0
M  V30 1147 N 103.146 2.29006 -1.78898 0
M  V30 1148 H 102.693 1.46011 -2.12223 0
M  V30 1149 H 102.651 2.91248 -1.18416 0
M  V30 1150 N 106.423 1.57458 -0.0668435 0
M  V30 1151 C 107.356 2.08033 0.93795 0
M  V30 1152 C 108.334 0.984321 1.29421 0
M  V30 1153 O 109.518 1.25736 1.40437 0
M  V30 1154 C 106.645 2.53388 2.24749 0
M  V30 1155 C 105.691 3.74376 2.04315 0
M  V30 1156 S 106.524 5.19303 1.30706 0
M  V30 1157 C 107.68 5.67986 2.62951 0
M  V30 1158 H 107.913 2.92935 0.50759 0
M  V30 1159 H 105.446 1.5371 0.145804 0
M  V30 1160 H 107.404 2.8018 3.00016 0
M  V30 1161 H 106.065 1.68763 2.64911 0
M  V30 1162 H 105.258 4.04083 3.01218 0
M  V30 1163 H 104.86 3.47931 1.37186 0
M  V30 1164 H 107.152 5.74528 3.5906 0
M  V30 1165 H 108.095 6.66955 2.3786 0
M  V30 1166 H 108.503 4.95781 2.69929 0
M  V30 1167 N 107.901 -0.206675 1.56239 0
M  V30 1168 C 109.178 -0.954051 1.70755 0
M  V30 1169 C 109.558 -2.01841 0.618353 0
M  V30 1170 O 108.906 -2.25444 -0.372434 0
M  V30 1171 C 109.116 -1.551 3.12642 0
M  V30 1172 C 110.464 -2.03757 3.72516 0
M  V30 1173 O 111.488 -1.64965 3.15698 0
M  V30 1174 O 110.347 -2.75103 4.72208 0
M  V30 1175 H 107.441 -0.446636 0.696021 0
M  V30 1176 H 109.987 -0.197283 1.68549 0
M  V30 1177 H 108.759 -0.783212 3.83382 0
M  V30 1178 H 108.382 -2.37291 3.19028 0
M  V30 1179 N 109.379 -1.50304 -0.473955 0
M  V30 1180 C 110.342 -1.6841 -1.55469 0
M  V30 1181 C 111.342 -0.554905 -1.50922 0
M  V30 1182 O 112.532 -0.821882 -1.53593 0
M  V30 1183 C 109.664 -1.70667 -2.95102 0
M  V30 1184 H 110.857 -2.64828 -1.40733 0
M  V30 1185 H 108.41 -1.39742 -0.700132 0
M  V30 1186 H 109.145 -0.75932 -3.15285 0
M  V30 1187 H 108.93 -2.52698 -2.9981 0
M  V30 1188 H 110.42 -1.8664 -3.73571 0
M  V30 1189 N 110.857 0.726932 -1.39834 0
M  V30 1190 C 112.085 1.51613 -1.40787 0
M  V30 1191 C 112.5 1.88799 -0.00451505 0
M  V30 1192 O 111.857 1.54662 0.968809 0
M  V30 1193 C 111.908 2.79863 -2.28821 0
M  V30 1194 O 111.629 2.44253 -3.63692 0
M  V30 1195 C 113.13 3.73837 -2.38245 0
M  V30 1196 H 110.35 0.468264 -0.480593 0
M  V30 1197 H 112.894 0.897607 -1.83748 0
M  V30 1198 H 111.049 3.38027 -1.89252 0
M  V30 1199 H 111.463 3.26695 -4.1033 0
M  V30 1200 H 112.937 4.60699 -3.04073 0
M  V30 1201 H 113.414 4.16153 -1.40403 0
M  V30 1202 H 114.02 3.21589 -2.78317 0
M  V30 1203 N 112.336 1.25143 0.95797 0
M  V30 1204 C 113.564 1.12424 1.73691 0
M  V30 1205 C 113.979 -0.322304 1.86029 0
M  V30 1206 O 113.336 -1.22186 1.35561 0
M  V30 1207 C 113.387 1.76933 3.15241 0
M  V30 1208 O 113.108 3.15932 3.03511 0
M  V30 1209 C 114.609 1.6995 4.09429 0
M  V30 1210 H 111.829 0.3923 0.544373 0
M  V30 1211 H 114.373 1.6544 1.20207 0
M  V30 1212 H 112.528 1.27895 3.6568 0
M  V30 1213 H 112.942 3.47598 3.9278 0
M  V30 1214 H 114.416 2.19753 5.06372 0
M  V30 1215 H 114.893 0.662619 4.34173 0
M  V30 1216 H 115.499 2.18461 3.64904 0
M  V30 1217 N 113.814 -1.1601 1.06675 0
M  V30 1218 C 114.724 -2.24156 0.692179 0
M  V30 1219 C 115.74 -1.71507 -0.293513 0
M  V30 1220 O 116.916 -2.009 -0.141861 0
M  V30 1221 C 113.981 -3.46587 0.0884131 0
M  V30 1222 C 113.042 -4.14257 1.12646 0
M  V30 1223 C 112.275 -5.30844 0.551416 0
M  V30 1224 O 112.498 -5.66858 -0.634656 0
M  V30 1225 O 111.432 -5.87848 1.29298 0
M  V30 1226 H 115.258 -2.58513 1.59388 0
M  V30 1227 H 112.843 -1.23599 0.83926 0
M  V30 1228 H 114.725 -4.20679 -0.246361 0
M  V30 1229 H 113.4 -3.13994 -0.786712 0
M  V30 1230 H 112.307 -3.42118 1.51348 0
M  V30 1231 H 113.64 -4.50914 1.97325 0
M  V30 1232 N 115.292 -0.849877 -1.32721 0
M  V30 1233 C 116.703 -0.506188 -1.79707 0
M  V30 1234 C 117.054 0.975627 -1.70223 0
M  V30 1235 O 116.179 1.76078 -1.25799 0
M  V30 1236 C 116.774 -0.912044 -3.26293 0
M  V30 1237 C 115.333 -0.620326 -3.71253 0
M  V30 1238 C 114.48 -1.11439 -2.53922 0
M  V30 1239 H 117.431 -1.03754 -1.20087 0
M  V30 1240 H 117.452 -0.226493 -3.79825 0
M  V30 1241 H 116.964 -1.99057 -3.33164 0
M  V30 1242 H 115.065 0.447674 -3.69901 0
M  V30 1243 H 115.178 -1.18327 -4.64258 0
M  V30 1244 H 113.542 -0.534834 -2.49021 0
M  V30 1245 H 114.325 -2.19992 -2.6355 0
M  V30 1246 N 116.77 1.45427 -0.607355 0
M  V30 1247 C 118.01 2.04128 -0.105458 0
M  V30 1248 C 118.374 1.46555 1.24039 0
M  V30 1249 O 119.575 1.96608 1.833 0
M  V30 1250 C 117.846 3.57338 -0.0665324 0
M  V30 1251 S 119.405 4.37201 0.374207 0
M  V30 1252 H 116.223 0.709278 -0.0494575 0
M  V30 1253 H 118.825 1.78139 -0.805404 0
M  V30 1254 H 117.529 3.96752 -1.04957 0
M  V30 1255 H 117.06 3.87902 0.655415 0
M  V30 1256 H 119.075 4.6888 1.62377 0
M  V30 1257 N 118.248 0.346503 1.53744 0
M  V30 1258 C 119.476 -0.25041 2.05379 0
M  V30 1259 C 119.891 -1.43979 1.22129 0
M  V30 1260 O 119.248 -1.80677 0.257321 0
M  V30 1261 C 119.299 -0.662575 3.55376 0
M  V30 1262 O 119.02 0.479515 4.35468 0
M  V30 1263 C 120.521 -1.31989 4.23195 0
M  V30 1264 H 117.741 -0.0478198 0.669294 0
M  V30 1265 H 120.285 0.499346 1.9831 0
M  V30 1266 H 118.44 -1.36227 3.62658 0
M  V30 1267 H 118.854 0.15037 5.24284 0
M  V30 1268 H 120.328 -1.55902 5.29527 0
M  V30 1269 H 120.805 -2.27436 3.75725 0
M  V30 1270 H 121.411 -0.662154 4.20114 0
M  V30 1271 N 119.726 -1.57421 0.075193 0
M  V30 1272 C 121.003 -1.85029 -0.634329 0
M  V30 1273 C 121.383 -0.968305 -1.87582 0
M  V30 1274 O 120.731 -0.0354749 -2.28472 0
M  V30 1275 C 120.941 -3.35286 -0.968742 0
M  V30 1276 C 122.289 -4.02875 -1.34077 0
M  V30 1277 O 123.313 -3.40051 -1.06037 0
M  V30 1278 O 122.172 -5.13691 -1.86506 0
M  V30 1279 H 119.266 -0.7645 -0.315387 0
M  V30 1280 H 121.812 -1.69366 0.106382 0
M  V30 1281 H 120.584 -3.91203 -0.0871376 0
M  V30 1282 H 120.207 -3.56223 -1.7661 0
M  V30 1283 N 121.204 0.198386 -1.56346 0
M  V30 1284 C 122.451 0.919286 -1.80431 0
M  V30 1285 C 122.779 1.83393 -0.647866 0
M  V30 1286 O 122.034 1.92236 0.366556 0
M  V30 1287 C 122.333 1.77031 -3.10475 0
M  V30 1288 C 121.999 1.00693 -4.39513 0
M  V30 1289 C 120.661 0.796145 -4.74568 0
M  V30 1290 C 123.013 0.469559 -5.19081 0
M  V30 1291 C 120.341 0.0364588 -5.86689 0
M  V30 1292 C 122.693 -0.2769 -6.31994 0
M  V30 1293 C 121.357 -0.49873 -6.65634 0
M  V30 1294 H 120.627 0.336391 -0.660244 0
M  V30 1295 H 123.274 0.185872 -1.90596 0
M  V30 1296 H 121.579 2.5723 -2.95533 0
M  V30 1297 H 123.276 2.33065 -3.26315 0
M  V30 1298 H 119.866 1.18122 -4.12001 0
M  V30 1299 H 124.05 0.619816 -4.92414 0
M  V30 1300 H 119.306 -0.145412 -6.11227 0
M  V30 1301 H 123.48 -0.700684 -6.92866 0
M  V30 1302 H 121.107 -1.0893 -7.52355 0
M  V30 1303 N 122.682 1.50554 0.465978 0
M  V30 1304 C 123.929 1.61798 1.21768 0
M  V30 1305 C 124.257 0.320696 1.91838 0
M  V30 1306 O 123.512 -0.693724 1.82992 0
M  V30 1307 C 123.811 2.75152 2.28093 0
M  V30 1308 C 123.477 4.15454 1.75239 0
M  V30 1309 C 122.139 4.53628 1.60546 0
M  V30 1310 C 124.491 5.03121 1.36083 0
M  V30 1311 C 121.819 5.77204 1.05128 0
M  V30 1312 C 124.171 6.27249 0.821056 0
M  V30 1313 C 122.835 6.64221 0.660795 0
M  V30 1314 H 122.105 0.592063 0.445582 0
M  V30 1315 H 124.752 1.84503 0.512927 0
M  V30 1316 H 123.057 2.46556 3.04496 0
M  V30 1317 H 124.754 2.81055 2.86023 0
M  V30 1318 H 121.344 3.85341 1.87644 0
M  V30 1319 H 125.528 4.74257 1.46267 0
M  V30 1320 H 120.784 6.0452 0.91462 0
M  V30 1321 H 124.958 6.94537 0.509018 0
M  V30 1322 H 122.585 7.59854 0.229226 0
M  V30 1323 N 124.16 -0.719506 1.40217 0
M  V30 1324 C 125.107 -1.83359 1.40172 0
M  V30 1325 C 126.077 -1.64065 0.259206 0
M  V30 1326 O 127.262 -1.85254 0.456677 0
M  V30 1327 C 124.402 -3.2103 1.26624 0
M  V30 1328 C 123.515 -3.51923 2.50548 0
M  V30 1329 C 122.65 -4.79079 2.29471 0
M  V30 1330 C 121.689 -5.02863 3.48992 0
M  V30 1331 N 120.826 -6.2123 3.27135 0
M  V30 1332 H 125.666 -1.82733 2.35399 0
M  V30 1333 H 123.203 -0.892688 1.16917 0
M  V30 1334 H 125.161 -4.00524 1.16776 0
M  V30 1335 H 123.791 -3.20895 0.350176 0
M  V30 1336 H 122.843 -2.67014 2.70939 0
M  V30 1337 H 124.155 -3.6541 3.39525 0
M  V30 1338 H 123.309 -5.66582 2.16955 0
M  V30 1339 H 122.048 -4.67794 1.37913 0
M  V30 1340 H 121.053 -4.13816 3.6199 0
M  V30 1341 H 122.278 -5.16023 4.41472 0
M  V30 1342 H 120.224 -6.11204 2.38256 0
M  V30 1343 H 120.141 -6.35375 4.09675 0
M  V30 1344 H 121.409 -7.11532 3.18344 0
M  V30 1345 N 125.638 -1.25649 -0.95132 0
M  V30 1346 C 126.868 -1.13179 -1.72841 0
M  V30 1347 C 127.276 0.316827 -1.86528 0
M  V30 1348 O 126.619 1.22948 -1.3649 0
M  V30 1349 C 126.681 -1.71644 -3.15878 0
M  V30 1350 C 126.345 -3.20667 -3.25609 0
M  V30 1351 C 127.342 -4.17616 -3.09666 0
M  V30 1352 C 125.027 -3.6094 -3.49324 0
M  V30 1353 C 127.021 -5.52817 -3.17289 0
M  V30 1354 C 124.708 -4.96278 -3.56584 0
M  V30 1355 C 125.706 -5.92025 -3.40581 0
M  V30 1356 O 125.394 -7.24899 -3.47528 0
M  V30 1357 H 125.126 -0.395389 -0.54831 0
M  V30 1358 H 127.68 -1.66566 -1.20187 0
M  V30 1359 H 125.91 -1.12707 -3.69911 0
M  V30 1360 H 127.599 -1.54225 -3.75459 0
M  V30 1361 H 128.365 -3.87842 -2.91211 0
M  V30 1362 H 124.244 -2.86907 -3.6084 0
M  V30 1363 H 127.788 -6.2753 -3.04716 0
M  V30 1364 H 123.685 -5.25716 -3.74556 0
M  V30 1365 H 124.453 -7.33039 -3.64138 0
M  V30 1366 N 127.117 1.15442 -1.07289 0
M  V30 1367 C 128.08 2.18358 -0.696591 0
M  V30 1368 C 129.08 1.58637 0.262837 0
M  V30 1369 O 130.27 1.74145 0.0438809 0
M  V30 1370 C 127.402 3.4089 -0.0266151 0
M  V30 1371 H 128.595 2.53162 -1.60776 0
M  V30 1372 H 126.148 1.29893 -0.869342 0
M  V30 1373 H 126.883 3.11653 0.896822 0
M  V30 1374 H 126.668 3.85495 -0.716657 0
M  V30 1375 H 128.158 4.17009 0.222028 0
M  V30 1376 N 128.595 0.856903 1.32268 0
M  V30 1377 C 129.835 0.467705 1.98977 0
M  V30 1378 C 130.199 -0.959231 1.66321 0
M  V30 1379 O 131.4 -1.4531 2.26138 0
M  V30 1380 C 129.671 0.70256 3.50427 0
M  V30 1381 S 131.23 0.411269 4.36868 0
M  V30 1382 H 128.048 0.175121 0.689096 0
M  V30 1383 H 130.65 1.1101 1.60925 0
M  V30 1384 H 129.354 1.74012 3.71683 0
M  V30 1385 H 128.885 0.0466707 3.93372 0
M  V30 1386 H 130.9 -0.761799 4.90317 0
M  V30 1387 N 130.073 -1.45103 0.615059 0
M  V30 1388 C 131.321 -2.01784 0.112955 0
M  V30 1389 C 131.642 -1.48504 -1.26378 0
M  V30 1390 O 130.912 -0.682245 -1.83636 0
M  V30 1391 H 129.492 -0.745993 0.0387668 0
M  V30 1392 H 132.154 -1.77808 0.798141 0
M  V30 1393 H 131.25 -3.12025 0.0684069 0
M  V30 1394 N 131.551 -0.354651 -1.53558 0
M  V30 1395 C 132.799 0.237972 -2.00694 0
M  V30 1396 C 133.12 1.50173 -1.24391 0
M  V30 1397 O 132.39 1.92673 -0.354135 0
M  V30 1398 H 130.97 0.0909256 -0.741446 0
M  V30 1399 H 133.632 -0.478368 -1.88938 0
M  V30 1400 H 132.728 0.47264 -3.085 0
M  V30 1401 N 133.029 1.57378 -0.0835403 0
M  V30 1402 C 134.275 1.95025 0.577664 0
M  V30 1403 C 134.63 0.964049 1.66505 0
M  V30 1404 O 133.923 -0.0118235 1.91596 0
M  V30 1405 C 134.117 3.37063 1.1884 0
M  V30 1406 C 133.946 4.49409 0.16171 0
M  V30 1407 C 132.716 5.04642 -0.257756 0
M  V30 1408 C 134.914 5.10722 -0.605634 0
M  V30 1409 N 132.896 6.00537 -1.27393 0
M  V30 1410 C 134.267 6.02225 -1.47395 0
M  V30 1411 C 136.322 4.93501 -0.660418 0
M  V30 1412 C 135.025 6.78355 -2.39221 0
M  V30 1413 C 137.051 5.70283 -1.56623 0
M  V30 1414 C 136.413 6.61444 -2.4222 0
M  V30 1415 H 132.512 0.760512 0.182058 0
M  V30 1416 H 135.096 1.94013 -0.163419 0
M  V30 1417 H 133.267 3.3879 1.89936 0
M  V30 1418 H 134.999 3.61917 1.81103 0
M  V30 1419 H 131.754 4.73428 0.127702 0
M  V30 1420 H 132.178 6.53184 -1.77987 0
M  V30 1421 H 136.82 4.22798 -0.0128221 0
M  V30 1422 H 134.538 7.48327 -3.05011 0
M  V30 1423 H 138.124 5.58976 -1.61361 0
M  V30 1424 H 137.004 7.1982 -3.11174 0
M  V30 1425 N 134.507 -0.190092 1.56449 0
M  V30 1426 C 135.437 -1.23816 1.97969 0
M  V30 1427 C 136.418 -1.47201 0.852395 0
M  V30 1428 O 137.603 -1.58854 1.1171 0
M  V30 1429 C 134.733 -2.5813 2.3235 0
M  V30 1430 C 133.687 -2.49348 3.47864 0
M  V30 1431 C 133.013 -3.8798 3.67934 0
M  V30 1432 C 134.313 -2.01424 4.81898 0
M  V30 1433 H 136.007 -0.89311 2.85769 0
M  V30 1434 H 133.553 -0.428177 1.37487 0
M  V30 1435 H 135.506 -3.31637 2.59991 0
M  V30 1436 H 134.23 -2.94386 1.41438 0
M  V30 1437 H 132.889 -1.78297 3.20321 0
M  V30 1438 H 132.537 -4.21597 2.74344 0
M  V30 1439 H 132.237 -3.82978 4.45648 0
M  V30 1440 H 133.761 -4.63101 3.97957 0
M  V30 1441 H 135.175 -2.64693 5.08538 0
M  V30 1442 H 133.572 -2.07413 5.63116 0
M  V30 1443 H 134.642 -0.967677 4.75146 0
M  V30 1444 N 135.985 -1.50799 -0.457987 0
M  V30 1445 C 136.932 -1.70617 -1.5543 0
M  V30 1446 C 137.902 -0.547562 -1.56815 0
M  V30 1447 O 139.087 -0.779647 -1.74144 0
M  V30 1448 C 136.227 -1.81831 -2.93311 0
M  V30 1449 C 135.34 -3.09278 -3.01615 0
M  V30 1450 C 134.475 -3.11209 -4.30491 0
M  V30 1451 C 133.514 -4.33055 -4.32585 0
M  V30 1452 N 132.651 -4.32652 -5.52952 0
M  V30 1453 H 137.491 -2.64207 -1.37836 0
M  V30 1454 H 135.028 -1.30959 -0.669937 0
M  V30 1455 H 136.986 -1.86314 -3.73287 0
M  V30 1456 H 135.616 -0.916685 -3.0951 0
M  V30 1457 H 134.668 -3.14203 -2.1443 0
M  V30 1458 H 135.98 -3.99233 -2.99022 0
M  V30 1459 H 135.134 -3.14494 -5.18824 0
M  V30 1460 H 133.873 -2.19106 -4.35711 0
M  V30 1461 H 132.878 -4.29969 -3.42647 0
M  V30 1462 H 134.103 -5.264 -4.29046 0
M  V30 1463 H 132.049 -3.43409 -5.58933 0
M  V30 1464 H 131.966 -5.16392 -5.52155 0
M  V30 1465 H 133.234 -4.40101 -6.43375 0
M  V30 1466 N 137.463 0.71206 -1.40597 0
M  V30 1467 C 138.879 1.02058 -1.22704 0
M  V30 1468 C 139.079 2.01228 -0.104729 0
M  V30 1469 O 138.135 2.4674 0.53624 0
M  V30 1470 C 139.448 1.56094 -2.57012 0
M  V30 1471 C 140.996 1.6806 -2.64054 0
M  V30 1472 C 141.471 2.25501 -3.9864 0
M  V30 1473 N 142.962 2.32882 -4.004 0
M  V30 1474 C 143.697 2.78317 -5.01325 0
M  V30 1475 N 143.193 3.23478 -6.12645 0
M  V30 1476 N 144.986 2.77733 -4.88693 0
M  V30 1477 H 137.137 0.0547896 -2.12329 0
M  V30 1478 H 139.4 0.0869027 -0.944008 0
M  V30 1479 H 139.106 0.906865 -3.39807 0
M  V30 1480 H 138.98 2.54564 -2.78347 0
M  V30 1481 H 141.367 2.32583 -1.81629 0
M  V30 1482 H 141.448 0.681802 -2.46546 0
M  V30 1483 H 141.092 1.61598 -4.81506 0
M  V30 1484 H 141.022 3.26102 -4.13479 0
M  V30 1485 H 143.513 2.00991 -3.20017 0
M  V30 1486 H 143.826 3.56725 -6.85542 0
M  V30 1487 H 142.171 3.21429 -6.16205 0
M  V30 1488 H 145.362 2.4179 -4.00818 0
M  V30 1489 H 145.535 3.12826 -5.67489 0
M  V30 1490 N 138.941 1.26152 0.944643 0
M  V30 1491 C 139.889 1.07215 2.06417 0
M  V30 1492 C 140.883 9.2007e-05 1.694 0
M  V30 1493 O 142.089 0.1565 1.79318 0
M  V30 1494 H 138.464 0.329837 0.675805 0
M  V30 1495 H 140.435 2.02099 2.19541 0
M  V30 1496 C 139.184 0.718197 3.40202 0
M  V30 1497 H 138.507 1.53497 3.69159 0
M  V30 1498 H 139.947 0.625459 4.19361 0
M  V30 1499 C 138.406 -0.576435 3.31932 0
M  V30 1500 O 138.936 -1.61574 3.67773 0
M  V30 1501 N 137.142 -0.565781 2.85039 0
M  V30 1502 H 136.689 0.280367 2.5607 0
M  V30 1503 H 136.647 -1.43213 2.79888 0
M  V30 1504 N 140.419 -1.14872 1.07899 0
M  V30 1505 C 141.665 -1.86064 0.806725 0
M  V30 1506 C 141.998 -1.82434 -0.665706 0
M  V30 1507 O 141.273 -1.25138 -1.48899 0
M  V30 1508 C 141.556 -3.34929 1.32267 0
M  V30 1509 C 141.409 -3.47161 2.86006 0
M  V30 1510 C 142.728 -4.29863 0.943717 0
M  V30 1511 H 139.847 -0.675591 0.294526 0
M  V30 1512 H 142.489 -1.34925 1.33773 0
M  V30 1513 H 140.639 -3.78611 0.870974 0
M  V30 1514 H 142.311 -3.12302 3.39507 0
M  V30 1515 H 140.554 -2.88539 3.23925 0
M  V30 1516 H 141.225 -4.51777 3.17177 0
M  V30 1517 H 143.701 -3.9417 1.33302 0
M  V30 1518 H 142.577 -5.32494 1.33198 0
M  V30 1519 H 142.838 -4.41846 -0.149796 0
M  V30 1520 N 141.898 -0.863906 -1.31812 0
M  V30 1521 C 143.147 -0.46801 -1.96195 0
M  V30 1522 C 143.46 0.983474 -1.69077 0
M  V30 1523 O 144.666 1.48523 -2.27273 0
M  V30 1524 C 143.122 -0.785995 -3.51212 0
M  V30 1525 C 142.73 -2.25383 -3.87178 0
M  V30 1526 C 144.474 -0.458274 -4.22019 0
M  V30 1527 C 142.381 -2.51455 -5.3528 0
M  V30 1528 H 141.311 -0.171283 -0.734287 0
M  V30 1529 H 143.962 -1.05597 -1.50072 0
M  V30 1530 H 142.344 -0.127359 -3.95795 0
M  V30 1531 H 143.518 -2.95502 -3.53575 0
M  V30 1532 H 141.833 -2.54698 -3.2942 0
M  V30 1533 H 144.43 -0.630369 -5.30971 0
M  V30 1534 H 144.773 0.600834 -4.11941 0
M  V30 1535 H 145.306 -1.07319 -3.8305 0
M  V30 1536 H 142.045 -3.56025 -5.50387 0
M  V30 1537 H 141.565 -1.85923 -5.70257 0
M  V30 1538 H 143.244 -2.35874 -6.02472 0
M  V30 1539 N 143.376 1.44774 -0.622745 0
M  V30 1540 C 144.787 1.85546 -0.207226 0
M  V30 1541 C 145.138 1.52093 1.23944 0
M  V30 1542 O 144.263 0.95492 1.94191 0
M  V30 1543 C 144.858 3.36781 -0.369313 0
M  V30 1544 C 143.417 3.76399 -0.00836847 0
M  V30 1545 C 142.564 2.68664 -0.686651 0
M  V30 1546 H 145.515 1.3536 -0.828454 0
M  V30 1547 H 145.536 3.78453 0.394162 0
M  V30 1548 H 145.048 3.61098 -1.42231 0
M  V30 1549 H 143.149 3.57698 1.04322 0
M  V30 1550 H 143.262 4.7732 -0.412584 0
M  V30 1551 H 141.626 2.54404 -0.122777 0
M  V30 1552 H 142.409 2.95815 -1.74208 0
M  V30 1553 N 144.854 0.36279 1.53368 0
M  V30 1554 C 145.764 -0.492994 2.29362 0
M  V30 1555 C 146.78 -1.09507 1.35219 0
M  V30 1556 O 147.956 -1.10662 1.68273 0
M  V30 1557 C 145.021 -1.61855 3.066 0
M  V30 1558 C 144.082 -1.04429 4.16405 0
M  V30 1559 C 143.315 -2.11621 4.89951 0
M  V30 1560 O 143.538 -3.32684 4.63333 0
M  V30 1561 O 142.472 -1.74835 5.75948 0
M  V30 1562 H 146.298 0.125331 3.03441 0
M  V30 1563 H 143.883 0.127253 1.48857 0
M  V30 1564 H 145.765 -2.27302 3.54841 0
M  V30 1565 H 144.44 -2.22233 2.3536 0
M  V30 1566 H 143.347 -0.353819 3.72423 0
M  V30 1567 H 144.68 -0.485113 4.89804 0
M  V30 1568 N 146.332 -1.57332 0.0918853 0
M  V30 1569 C 147.56 -1.98574 -0.581048 0
M  V30 1570 C 147.975 -0.970903 -1.61923 0
M  V30 1571 O 147.332 0.0399054 -1.82456 0
M  V30 1572 C 147.383 -3.39872 -1.23164 0
M  V30 1573 O 147.104 -4.37469 -0.234989 0
M  V30 1574 C 148.605 -3.96099 -1.99049 0
M  V30 1575 H 145.825 -0.65261 -0.156018 0
M  V30 1576 H 148.369 -2.0379 0.170225 0
M  V30 1577 H 146.524 -3.35679 -1.93386 0
M  V30 1578 H 146.938 -5.19751 -0.70418 0
M  V30 1579 H 148.412 -4.97127 -2.39934 0
M  V30 1580 H 148.889 -3.3374 -2.85507 0
M  V30 1581 H 149.495 -4.03755 -1.3365 0
M  V30 1582 N 147.81 0.181792 -1.56548 0
M  V30 1583 C 149.035 0.920019 -1.85877 0
M  V30 1584 C 149.46 1.75494 -0.677021 0
M  V30 1585 O 148.818 1.77399 0.374056 0
M  V30 1586 C 148.866 1.78112 -3.13542 0
M  V30 1587 O 147.97 2.88152 -2.95029 0
M  V30 1588 H 147.311 0.258334 -0.611686 0
M  V30 1589 H 149.841 0.183092 -2.03779 0
M  V30 1590 H 149.851 2.18314 -3.44678 0
M  V30 1591 H 148.526 1.16777 -3.99169 0
M  V30 1592 H 147.103 2.51609 -2.75222 0
M  V30 1593 N 149.288 1.51039 0.449983 0
M  V30 1594 C 150.513 1.6715 1.22783 0
M  V30 1595 C 150.938 0.363081 1.84563 0
M  V30 1596 O 150.296 -0.675433 1.68249 0
M  V30 1597 C 150.344 2.77985 2.29689 0
M  V30 1598 O 149.448 2.40707 3.34864 0
M  V30 1599 H 148.789 0.557746 0.360299 0
M  V30 1600 H 151.319 1.97535 0.533005 0
M  V30 1601 H 151.329 3.01693 2.74673 0
M  V30 1602 H 150.004 3.72935 1.84098 0
M  V30 1603 H 148.581 2.27523 2.95445 0
M  V30 1604 N 150.766 -0.704594 1.40972 0
M  V30 1605 C 152.182 -1.01406 1.23244 0
M  V30 1606 C 152.382 -2.01169 0.115399 0
M  V30 1607 O 151.438 -2.47021 -0.523147 0
M  V30 1608 C 152.751 -1.54728 2.57836 0
M  V30 1609 C 154.299 -1.66658 2.64942 0
M  V30 1610 C 154.774 -2.23383 3.9983 0
M  V30 1611 N 156.265 -2.30756 4.01629 0
M  V30 1612 C 157 -2.75655 5.02794 0
M  V30 1613 N 156.496 -3.20225 6.14352 0
M  V30 1614 N 158.289 -2.75138 4.90159 0
M  V30 1615 H 150.44 -0.0435285 2.12355 0
M  V30 1616 H 152.703 -0.0818951 0.944456 0
M  V30 1617 H 152.409 -0.888832 3.40283 0
M  V30 1618 H 152.283 -2.53084 2.79693 0
M  V30 1619 H 154.67 -2.31617 1.8286 0
M  V30 1620 H 154.751 -0.668717 2.46904 0
M  V30 1621 H 154.395 -1.59043 4.82357 0
M  V30 1622 H 154.325 -3.23904 4.15203 0
M  V30 1623 H 156.816 -1.99291 3.21079 0
M  V30 1624 H 157.129 -3.53084 6.87424 0
M  V30 1625 H 155.474 -3.18156 6.17901 0
M  V30 1626 H 158.665 -2.39661 4.02095 0
M  V30 1627 H 158.838 -3.09812 5.6914 0
M  V30 1628 N 152.244 -1.26651 -0.937939 0
M  V30 1629 C 153.474 -1.15006 -1.71631 0
M  V30 1630 C 153.882 0.297026 -1.86854 0
M  V30 1631 O 153.225 1.21493 -1.37786 0
M  V30 1632 C 153.287 -1.74984 -3.14039 0
M  V30 1633 C 152.951 -3.24103 -3.2219 0
M  V30 1634 C 153.948 -4.20877 -3.05219 0
M  V30 1635 C 151.633 -3.64625 -3.45476 0
M  V30 1636 C 153.627 -5.56151 -3.11408 0
M  V30 1637 C 151.314 -5.00032 -3.513 0
M  V30 1638 C 152.312 -5.95604 -3.34282 0
M  V30 1639 O 152 -7.28545 -3.3982 0
M  V30 1640 H 151.732 -0.401183 -0.544085 0
M  V30 1641 H 154.286 -1.67832 -1.18413 0
M  V30 1642 H 152.516 -1.16624 -3.68695 0
M  V30 1643 H 154.205 -1.58199 -3.73802 0
M  V30 1644 H 154.971 -3.90908 -2.87081 0
M  V30 1645 H 150.85 -2.90718 -3.57777 0
M  V30 1646 H 154.394 -6.30727 -2.98043 0
M  V30 1647 H 150.291 -5.29659 -3.68959 0
M  V30 1648 H 151.059 -7.3686 -3.56343 0
M  V30 1649 N 153.722 1.14298 -1.08507 0
M  V30 1650 C 154.97 1.84993 -0.813763 0
M  V30 1651 C 155.291 1.83405 0.662393 0
M  V30 1652 O 154.561 1.28319 1.48024 0
M  V30 1653 H 153.141 0.684966 -0.298045 0
M  V30 1654 H 155.803 1.385 -1.37126 0
M  V30 1655 H 154.899 2.89788 -1.15884 0
M  V30 1656 N 155.201 0.870884 1.31352 0
M  V30 1657 C 156.149 0.316445 2.30437 0
M  V30 1658 C 157.143 -0.568965 1.59559 0
M  V30 1659 O 158.349 -0.454964 1.74155 0
M  V30 1660 H 154.724 0.0836521 0.747333 0
M  V30 1661 H 156.695 1.16606 2.74673 0
M  V30 1662 C 155.444 -0.46635 3.44558 0
M  V30 1663 H 154.767 0.205687 3.99271 0
M  V30 1664 H 156.207 -0.819614 4.16003 0
M  V30 1665 C 154.666 -1.65797 2.9328 0
M  V30 1666 O 155.196 -2.75728 2.92125 0
M  V30 1667 N 153.402 -1.49041 2.4947 0
M  V30 1668 H 152.949 -0.59612 2.50608 0
M  V30 1669 H 152.907 -2.28911 2.15516 0
M  V30 1670 N 156.679 -1.44442 0.630414 0
M  V30 1671 C 157.926 -2.02052 0.134617 0
M  V30 1672 C 158.254 -1.49576 -1.24327 0
M  V30 1673 O 157.509 -0.669806 -1.83881 0
M  V30 1674 C 157.808 -3.57332 0.0697835 0
M  V30 1675 C 157.474 -4.29058 1.38635 0
M  V30 1676 C 156.136 -4.4837 1.74694 0
M  V30 1677 C 158.488 -4.69872 2.25543 0
M  V30 1678 C 155.816 -5.05756 2.97369 0
M  V30 1679 C 158.168 -5.28616 3.47487 0
M  V30 1680 C 156.832 -5.46147 3.8377 0
M  V30 1681 H 156.102 -0.739361 0.0492598 0
M  V30 1682 H 158.749 -1.73217 0.816586 0
M  V30 1683 H 157.054 -3.85577 -0.695553 0
M  V30 1684 H 158.751 -3.99637 -0.330344 0
M  V30 1685 H 155.341 -4.14357 1.09574 0
M  V30 1686 H 159.525 -4.54666 1.98979 0
M  V30 1687 H 154.781 -5.17515 3.25558 0
M  V30 1688 H 158.955 -5.59192 4.15063 0
M  V30 1689 H 156.582 -5.9038 4.7891 0
M  V30 1690 N 158.157 -0.370918 -1.53173 0
M  V30 1691 C 159.434 0.273754 -1.93675 0
M  V30 1692 C 159.814 1.65938 -1.3049 0
M  V30 1693 O 159.162 2.23698 -0.465999 0
M  V30 1694 C 159.372 0.318602 -3.47543 0
M  V30 1695 C 160.72 0.556392 -4.20939 0
M  V30 1696 O 161.744 0.399587 -3.53952 0
M  V30 1697 O 160.603 0.862133 -5.39657 0
M  V30 1698 H 157.697 0.165448 -0.810281 0
M  V30 1699 H 160.243 -0.42409 -1.64315 0
M  V30 1700 H 159.015 -0.652687 -3.85818 0
M  V30 1701 H 158.638 1.06212 -3.83151 0
M  V30 1702 N 159.635 1.57281 -0.100228 0
M  V30 1703 C 160.884 1.93713 0.561984 0
M  V30 1704 C 161.197 0.984492 1.69018 0
M  V30 1705 O 162.403 1.24273 2.41389 0
M  V30 1706 C 160.859 3.4421 1.05106 0
M  V30 1707 C 160.467 4.47975 -0.0476628 0
M  V30 1708 C 162.211 3.89595 1.68571 0
M  V30 1709 C 160.118 5.89631 0.457055 0
M  V30 1710 H 159.048 0.723082 0.2137 0
M  V30 1711 H 161.699 1.82644 -0.177057 0
M  V30 1712 H 160.081 3.50449 1.84395 0
M  V30 1713 H 161.255 4.53385 -0.823333 0
M  V30 1714 H 159.57 4.1223 -0.587816 0
M  V30 1715 H 162.167 4.92832 2.07414 0
M  V30 1716 H 162.51 3.28526 2.55688 0
M  V30 1717 H 163.043 3.86078 0.958562 0
M  V30 1718 H 159.782 6.54411 -0.377616 0
M  V30 1719 H 159.302 5.87681 1.19962 0
M  V30 1720 H 160.981 6.40363 0.92437 0
M  V30 1721 N 161.113 -0.173488 1.56642 0
M  V30 1722 C 162.043 -1.2171 1.99271 0
M  V30 1723 C 163.024 -1.46289 0.867959 0
M  V30 1724 O 164.209 -1.5766 1.13388 0
M  V30 1725 C 161.339 -2.55651 2.35074 0
M  V30 1726 C 160.293 -2.45645 3.50489 0
M  V30 1727 C 159.619 -3.84056 3.72028 0
M  V30 1728 C 160.919 -1.96302 4.84007 0
M  V30 1729 H 162.613 -0.86275 2.867 0
M  V30 1730 H 160.159 -0.413571 1.37933 0
M  V30 1731 H 162.112 -3.2886 2.63494 0
M  V30 1732 H 160.836 -2.92869 1.44552 0
M  V30 1733 H 159.495 -1.7489 3.22194 0
M  V30 1734 H 159.143 -4.18664 2.788 0
M  V30 1735 H 158.843 -3.7823 4.49684 0
M  V30 1736 H 160.367 -4.58854 4.02846 0
M  V30 1737 H 161.781 -2.59284 5.11317 0
M  V30 1738 H 160.178 -2.01429 5.65284 0
M  V30 1739 H 161.248 -0.917226 4.76146 0
M  V30 1740 N 162.591 -1.51276 -0.441967 0
M  V30 1741 C 164.007 -1.39349 -0.778083 0
M  V30 1742 C 164.207 -0.472212 -1.95889 0
M  V30 1743 O 163.263 0.0743551 -2.5239 0
M  V30 1744 C 164.576 -2.81292 -1.0628 0
M  V30 1745 C 166.124 -2.9041 -1.16751 0
M  V30 1746 C 166.599 -4.33251 -1.48519 0
M  V30 1747 N 168.09 -4.36336 -1.55453 0
M  V30 1748 C 168.825 -5.43885 -1.81596 0
M  V30 1749 N 168.321 -6.61601 -2.05562 0
M  V30 1750 N 170.114 -5.3136 -1.8334 0
M  V30 1751 H 162.265 -2.09729 0.335774 0
M  V30 1752 H 164.528 -0.943925 0.0878028 0
M  V30 1753 H 164.234 -3.50678 -0.267905 0
M  V30 1754 H 164.108 -3.20334 -1.99163 0
M  V30 1755 H 166.495 -2.21225 -1.95304 0
M  V30 1756 H 166.576 -2.54871 -0.217801 0
M  V30 1757 H 166.22 -5.02984 -0.704958 0
M  V30 1758 H 166.15 -4.66299 -2.44689 0
M  V30 1759 H 168.641 -3.51466 -1.38853 0
M  V30 1760 H 168.954 -7.39361 -2.24867 0
M  V30 1761 H 167.299 -6.64725 -2.02894 0
M  V30 1762 H 170.49 -4.38382 -1.64132 0
M  V30 1763 H 170.663 -6.15258 -2.03377 0
M  V30 1764 N 164.069 0.697108 -1.41344 0
M  V30 1765 C 165.346 1.45154 -1.31109 0
M  V30 1766 C 165.726 2.11009 0.0620449 0
M  V30 1767 O 165.074 2.01571 1.07618 0
M  V30 1768 C 165.284 2.47223 -2.46337 0
M  V30 1769 C 166.632 3.1252 -2.87431 0
M  V30 1770 O 167.656 2.57547 -2.46065 0
M  V30 1771 O 166.515 4.12083 -3.58957 0
M  V30 1772 H 163.609 0.646365 -0.515889 0
M  V30 1773 H 166.155 0.727716 -1.53305 0
M  V30 1774 H 164.927 1.97204 -3.37974 0
M  V30 1775 H 164.55 3.27116 -2.2601 0
M  V30 1776 N 165.547 1.27147 0.931209 0
M  V30 1777 C 166.457 1.11372 2.06478 0
M  V30 1778 C 167.473 0.044645 1.73943 0
M  V30 1779 O 168.649 0.250417 1.99837 0
M  V30 1780 C 165.714 0.758838 3.38294 0
M  V30 1781 C 164.775 1.90841 3.84549 0
M  V30 1782 C 164.008 1.57036 5.10074 0
M  V30 1783 O 164.231 0.476645 5.68405 0
M  V30 1784 O 163.165 2.40839 5.51616 0
M  V30 1785 H 166.991 2.06493 2.22698 0
M  V30 1786 H 164.576 1.06301 1.04978 0
M  V30 1787 H 166.458 0.574098 4.17471 0
M  V30 1788 H 165.133 -0.162879 3.2329 0
M  V30 1789 H 164.04 2.14819 3.06274 0
M  V30 1790 H 165.373 2.81021 4.04089 0
M  V30 1791 N 167.025 -1.13721 1.09112 0
M  V30 1792 C 167.955 -2.21148 0.749385 0
M  V30 1793 C 168.936 -1.6792 -0.271475 0
M  V30 1794 O 170.121 -1.93693 -0.140251 0
M  V30 1795 C 167.251 -3.46905 0.165659 0
M  V30 1796 C 166.205 -4.13203 1.11567 0
M  V30 1797 C 165.531 -5.33248 0.393809 0
M  V30 1798 C 166.831 -4.60912 2.45678 0
M  V30 1799 H 168.525 -2.4999 1.64758 0
M  V30 1800 H 166.071 -1.20156 0.793626 0
M  V30 1801 H 168.024 -4.21313 -0.085466 0
M  V30 1802 H 166.748 -3.17449 -0.767714 0
M  V30 1803 H 165.407 -3.40758 1.35202 0
M  V30 1804 H 165.055 -5.00054 -0.543599 0
M  V30 1805 H 164.755 -5.78552 1.02721 0
M  V30 1806 H 166.279 -6.10413 0.150908 0
M  V30 1807 H 167.693 -5.26759 2.26269 0
M  V30 1808 H 166.09 -5.16944 3.04776 0
M  V30 1809 H 167.16 -3.75603 3.06677 0
M  V30 1810 N 168.503 -0.877838 -1.30888 0
M  V30 1811 C 169.413 -0.343096 -2.32078 0
M  V30 1812 C 170.429 0.551022 -1.65045 0
M  V30 1813 O 171.605 0.445854 -1.96403 0
M  V30 1814 C 168.67 0.439905 -3.43898 0
M  V30 1815 C 167.731 -0.483111 -4.26573 0
M  V30 1816 C 166.964 0.262616 -5.33053 0
M  V30 1817 O 167.187 1.48967 -5.50604 0
M  V30 1818 O 166.121 -0.383593 -6.00676 0
M  V30 1819 H 169.947 -1.18203 -2.79753 0
M  V30 1820 H 167.532 -0.64145 -1.34929 0
M  V30 1821 H 169.414 0.883504 -4.12034 0
M  V30 1822 H 168.089 1.25526 -2.98371 0
M  V30 1823 H 166.996 -0.975374 -3.61161 0
M  V30 1824 H 168.329 -1.26427 -4.75686 0
M  V30 1825 N 169.982 1.44106 -0.638065 0
M  V30 1826 C 171.228 2.02277 -0.145546 0
M  V30 1827 C 171.561 1.50125 1.23191 0
M  V30 1828 O 170.836 0.688133 1.8192 0
M  V30 1829 C 171.119 3.59829 -0.139791 0
M  V30 1830 C 170.972 4.22247 -1.55008 0
M  V30 1831 C 172.291 4.36873 0.531966 0
M  V30 1832 H 169.41 0.734992 -0.0543632 0
M  V30 1833 H 172.052 1.71592 -0.815863 0
M  V30 1834 H 170.202 3.86102 0.431007 0
M  V30 1835 H 171.874 4.07057 -2.1703 0
M  V30 1836 H 170.117 3.79476 -2.10191 0
M  V30 1837 H 170.788 5.31284 -1.49804 0
M  V30 1838 H 173.264 4.16074 0.0464781 0
M  V30 1839 H 172.14 5.4657 0.505206 0
M  V30 1840 H 172.401 4.11995 1.60352 0
M  V30 1841 N 171.46 0.379036 1.52974 0
M  V30 1842 C 172.706 -0.206727 2.01744 0
M  V30 1843 C 173.039 -1.47314 1.26539 0
M  V30 1844 O 172.314 -1.91084 0.362903 0
M  V30 1845 C 172.597 -0.485066 3.56818 0
M  V30 1846 C 172.45 0.795919 4.42702 0
M  V30 1847 C 173.769 -1.28003 4.21074 0
M  V30 1848 H 170.888 -0.0736607 0.73331 0
M  V30 1849 H 173.53 0.506581 1.83122 0
M  V30 1850 H 171.68 -1.09272 3.72816 0
M  V30 1851 H 173.352 1.43307 4.38476 0
M  V30 1852 H 171.595 1.41344 4.10127 0
M  V30 1853 H 172.266 0.555947 5.49193 0
M  V30 1854 H 174.742 -0.765867 4.08991 0
M  V30 1855 H 173.618 -1.44352 5.29579 0
M  V30 1856 H 173.879 -2.29236 3.78026 0
M  V30 1857 N 172.938 -1.57226 0.108567 0
M  V30 1858 C 173.868 -2.17778 -0.84232 0
M  V30 1859 C 174.849 -1.11487 -1.2847 0
M  V30 1860 O 176.034 -1.39681 -1.34918 0
M  V30 1861 C 173.164 -2.76888 -2.09644 0
M  V30 1862 C 172.118 -3.88669 -1.79221 0
M  V30 1863 C 171.444 -4.34541 -3.11574 0
M  V30 1864 C 172.744 -5.11251 -1.06864 0
M  V30 1865 H 174.438 -2.97489 -0.337774 0
M  V30 1866 H 171.984 -1.43097 -0.161025 0
M  V30 1867 H 173.937 -3.17904 -2.76614 0
M  V30 1868 H 172.661 -1.94451 -2.62405 0
M  V30 1869 H 171.32 -3.48213 -1.14644 0
M  V30 1870 H 170.968 -3.48977 -3.62249 0
M  V30 1871 H 170.668 -5.09914 -2.91996 0
M  V30 1872 H 172.192 -4.782 -3.7968 0
M  V30 1873 H 173.606 -5.49352 -1.63968 0
M  V30 1874 H 172.003 -5.9214 -0.974178 0
M  V30 1875 H 173.073 -4.8487 -0.0536168 0
M  V30 1876 N 174.416 0.165178 -1.56732 0
M  V30 1877 C 175.363 1.2044 -1.96883 0
M  V30 1878 C 176.333 1.43664 -0.833657 0
M  V30 1879 O 177.518 1.56302 -1.09427 0
M  V30 1880 C 174.658 2.53727 -2.33916 0
M  V30 1881 C 173.771 2.3783 -3.6064 0
M  V30 1882 C 172.906 3.64026 -3.86857 0
M  V30 1883 C 171.945 3.43088 -5.06909 0
M  V30 1884 N 171.082 4.61369 -5.29229 0
M  V30 1885 H 175.922 0.854996 -2.85471 0
M  V30 1886 H 173.459 0.41076 -1.41249 0
M  V30 1887 H 175.417 3.31419 -2.53411 0
M  V30 1888 H 174.047 2.8665 -1.48431 0
M  V30 1889 H 173.099 1.51282 -3.49024 0
M  V30 1890 H 174.411 2.18308 -4.4849 0
M  V30 1891 H 173.565 4.50152 -4.06753 0
M  V30 1892 H 172.304 3.86533 -2.97394 0
M  V30 1893 H 171.309 2.55349 -4.86906 0
M  V30 1894 H 172.534 3.21997 -5.97909 0
M  V30 1895 H 170.48 4.84084 -4.42718 0
M  V30 1896 H 170.397 4.44783 -6.11313 0
M  V30 1897 H 171.665 5.48761 -5.53608 0
M  V30 1898 N 175.894 1.51508 0.433938 0
M  V30 1899 C 177.171 1.54888 1.19453 0
M  V30 1900 C 177.551 0.315154 2.08734 0
M  V30 1901 O 176.899 -0.699558 2.17528 0
M  V30 1902 C 177.109 2.86467 1.99342 0
M  V30 1903 C 178.457 3.38545 2.56267 0
M  V30 1904 O 179.481 2.88041 2.0955 0
M  V30 1905 O 178.34 4.26675 3.41483 0
M  V30 1906 H 175.434 0.622863 0.544032 0
M  V30 1907 H 177.98 1.63823 0.442732 0
M  V30 1908 H 176.752 3.67718 1.33788 0
M  V30 1909 H 176.375 2.8071 2.8158 0
M  V30 1910 N 177.372 -0.689602 1.41712 0
M  V30 1911 C 178.618 -1.45181 1.41599 0
M  V30 1912 C 178.951 -1.94181 0.0270081 0
M  V30 1913 O 178.226 -1.6993 -0.946265 0
M  V30 1914 C 178.509 -2.65945 2.42787 0
M  V30 1915 C 178.362 -2.22672 3.90816 0
M  V30 1916 C 179.681 -3.68149 2.41151 0
M  V30 1917 H 176.8 -0.526576 0.515642 0
M  V30 1918 H 179.442 -0.784947 1.73028 0
M  V30 1919 H 177.592 -3.2284 2.16116 0
M  V30 1920 H 179.264 -1.71058 4.28412 0
M  V30 1921 H 177.507 -1.54394 4.05395 0
M  V30 1922 H 178.178 -3.0935 4.57172 0
M  V30 1923 H 180.654 -3.2094 2.64834 0
M  V30 1924 H 179.53 -4.50248 3.13955 0
M  V30 1925 H 179.791 -4.18259 1.43221 0
M  V30 1926 N 178.85 -1.27639 -0.924453 0
M  V30 1927 C 179.78 -1.13166 -2.04244 0
M  V30 1928 C 180.761 -0.032256 -1.70069 0
M  V30 1929 O 181.946 -0.207328 -1.9309 0
M  V30 1930 C 179.076 -0.781496 -3.38393 0
M  V30 1931 C 178.03 -1.83449 -3.86692 0
M  V30 1932 C 177.356 -1.33822 -5.17683 0
M  V30 1933 C 178.656 -3.23917 -4.09726 0
M  V30 1934 H 180.35 -2.06689 -2.1661 0
M  V30 1935 H 177.896 -0.995136 -1.04082 0
M  V30 1936 H 179.849 -0.667057 -4.16087 0
M  V30 1937 H 178.573 0.189439 -3.2605 0
M  V30 1938 H 177.232 -1.93789 -3.11193 0
M  V30 1939 H 176.88 -0.35665 -5.01734 0
M  V30 1940 H 176.58 -2.04224 -5.50968 0
M  V30 1941 H 178.104 -1.23679 -5.97943 0
M  V30 1942 H 179.518 -3.16559 -4.77978 0
M  V30 1943 H 177.915 -3.92059 -4.54324 0
M  V30 1944 H 178.985 -3.68729 -3.14908 0
M  V30 1945 N 180.328 1.1314 -1.09713 0
M  V30 1946 C 181.26 2.18343 -0.697056 0
M  V30 1947 C 182.273 1.60669 0.262551 0
M  V30 1948 O 183.462 1.78435 0.0481527 0
M  V30 1949 C 180.562 3.38899 -0.00684728 0
M  V30 1950 C 179.735 4.26078 -0.988741 0
M  V30 1951 C 178.794 5.25155 -0.331394 0
M  V30 1952 O 177.82 5.60701 -0.979926 0
M  V30 1953 N 179.022 5.73271 0.913261 0
M  V30 1954 H 181.787 2.5328 -1.60216 0
M  V30 1955 H 179.348 1.28491 -0.984971 0
M  V30 1956 H 181.34 4.02255 0.444191 0
M  V30 1957 H 179.91 3.02175 0.800551 0
M  V30 1958 H 179.13 3.59453 -1.61826 0
M  V30 1959 H 180.418 4.81178 -1.65364 0
M  V30 1960 H 179.816 5.46544 1.45966 0
M  V30 1961 H 178.373 6.3855 1.30757 0
M  V30 1962 N 181.806 0.884767 1.30421 0
M  V30 1963 C 182.716 0.355398 2.31892 0
M  V30 1964 C 183.732 -0.542261 1.65335 0
M  V30 1965 O 184.908 -0.435432 1.96637 0
M  V30 1966 C 181.973 -0.421661 3.44126 0
M  V30 1967 C 181.034 0.505727 4.26311 0
M  V30 1968 C 180.267 -0.234343 5.33185 0
M  V30 1969 O 180.49 -1.46045 5.51386 0
M  V30 1970 O 179.424 0.415443 6.00465 0
M  V30 1971 H 183.25 1.19685 2.79122 0
M  V30 1972 H 180.835 0.648596 1.34587 0
M  V30 1973 H 182.717 -0.861641 4.12497 0
M  V30 1974 H 181.392 -1.23942 2.99032 0
M  V30 1975 H 180.299 0.994513 3.60639 0
M  V30 1976 H 181.632 1.28948 4.75009 0
M  V30 1977 N 183.284 -1.43765 0.645699 0
M  V30 1978 C 184.695 -1.85193 0.236719 0
M  V30 1979 C 185.046 -1.54045 -1.21509 0
M  V30 1980 O 184.171 -0.985694 -1.92647 0
M  V30 1981 C 184.766 -3.36151 0.422845 0
M  V30 1982 C 183.325 -3.76338 0.0682492 0
M  V30 1983 C 182.472 -2.67538 0.729306 0
M  V30 1984 H 185.423 -1.34025 0.849883 0
M  V30 1985 H 185.444 -3.79032 -0.333904 0
M  V30 1986 H 184.956 -3.5879 1.47958 0
M  V30 1987 H 183.057 -3.59312 -0.986179 0
M  V30 1988 H 183.17 -4.76603 0.488469 0
M  V30 1989 H 181.534 -2.54176 0.163235 0
M  V30 1990 H 182.317 -2.93006 1.78892 0
M  V30 1991 N 184.763 -0.387143 -1.52771 0
M  V30 1992 C 185.71 0.449048 -2.26389 0
M  V30 1993 C 186.68 1.05961 -1.27912 0
M  V30 1994 O 187.865 1.08804 -1.56737 0
M  V30 1995 C 185.005 1.57155 -3.0724 0
M  V30 1996 C 184.118 0.984066 -4.20643 0
M  V30 1997 C 183.253 2.07745 -4.88892 0
M  V30 1998 C 182.292 1.46574 -5.94292 0
M  V30 1999 N 181.429 2.49834 -6.56146 0
M  V30 2000 H 186.269 -0.185205 -2.97424 0
M  V30 2001 H 183.806 -0.103164 -1.46738 0
M  V30 2002 H 185.764 2.23309 -3.52405 0
M  V30 2003 H 184.394 2.17615 -2.38419 0
M  V30 2004 H 183.446 0.212193 -3.79808 0
M  V30 2005 H 184.758 0.497029 -4.96318 0
M  V30 2006 H 183.912 2.81673 -5.3735 0
M  V30 2007 H 182.651 2.59807 -4.12737 0
M  V30 2008 H 181.656 0.711696 -5.45174 0
M  V30 2009 H 182.881 0.953088 -6.72379 0
M  V30 2010 H 180.827 3.0107 -5.82832 0
M  V30 2011 H 180.744 2.05879 -7.27427 0
M  V30 2012 H 182.012 3.23399 -7.09249 0
M  V30 2013 N 186.241 1.57166 -0.116904 0
M  V30 2014 C 187.469 1.99473 0.549383 0
M  V30 2015 C 187.884 0.996541 1.60357 0
M  V30 2016 O 187.241 -0.0108731 1.82497 0
M  V30 2017 C 187.292 3.41788 1.17741 0
M  V30 2018 O 187.013 4.37788 0.165362 0
M  V30 2019 C 188.514 3.99216 1.92722 0
M  V30 2020 H 185.734 0.655009 0.145616 0
M  V30 2021 H 188.278 2.03494 -0.202625 0
M  V30 2022 H 186.433 3.38713 1.88021 0
M  V30 2023 H 186.847 5.20806 0.621403 0
M  V30 2024 H 188.321 5.00882 2.31995 0
M  V30 2025 H 188.798 3.3824 2.80161 0
M  V30 2026 H 189.404 4.0583 1.27209 0
M  V30 2027 N 187.719 -0.156864 1.56817 0
M  V30 2028 C 188.629 -1.2136 2.00771 0
M  V30 2029 C 189.645 -1.47598 0.921459 0
M  V30 2030 O 190.821 -1.59462 1.2302 0
M  V30 2031 C 187.886 -2.52943 2.37109 0
M  V30 2032 C 186.947 -2.34439 3.59634 0
M  V30 2033 C 186.18 -3.59748 3.94229 0
M  V30 2034 O 186.403 -4.65526 3.29609 0
M  V30 2035 O 185.337 -3.52998 4.8752 0
M  V30 2036 H 189.163 -0.870468 2.90958 0
M  V30 2037 H 186.748 -0.36484 1.44877 0
M  V30 2038 H 188.63 -3.30538 2.61386 0
M  V30 2039 H 187.305 -2.86806 1.5008 0
M  V30 2040 H 186.212 -1.54828 3.40557 0
M  V30 2041 H 187.545 -2.05496 4.4725 0
M  V30 2042 N 189.197 -1.51736 -0.425897 0
M  V30 2043 C 190.474 -1.55519 -1.1863 0
M  V30 2044 C 190.854 -0.326219 -2.08564 0
M  V30 2045 O 190.202 0.688012 -2.17896 0
M  V30 2046 C 190.412 -2.87521 -1.9782 0
M  V30 2047 C 191.76 -3.39899 -2.54468 0
M  V30 2048 O 192.784 -2.89148 -2.08019 0
M  V30 2049 O 191.643 -4.2848 -3.39215 0
M  V30 2050 H 188.737 -0.625739 -0.540721 0
M  V30 2051 H 191.283 -1.64055 -0.434038 0
M  V30 2052 H 190.055 -3.68422 -1.31836 0
M  V30 2053 H 189.678 -2.822 -2.80088 0
M  V30 2054 N 190.675 0.682077 -1.42076 0
M  V30 2055 C 191.924 1.43786 -1.41451 0
M  V30 2056 C 192.237 1.95574 -0.0317074 0
M  V30 2057 O 193.443 2.71326 0.0971462 0
M  V30 2058 C 191.899 2.60071 -2.48779 0
M  V30 2059 C 191.507 2.15013 -3.93031 0
M  V30 2060 C 193.251 3.37626 -2.57311 0
M  V30 2061 C 191.158 3.28336 -4.91883 0
M  V30 2062 H 190.088 0.540143 -0.526082 0
M  V30 2063 H 192.739 0.739157 -1.67955 0
M  V30 2064 H 191.121 3.32275 -2.15429 0
M  V30 2065 H 192.295 1.5001 -4.35699 0
M  V30 2066 H 190.61 1.50416 -3.88284 0
M  V30 2067 H 193.207 4.22012 -3.28345 0
M  V30 2068 H 193.55 3.83727 -1.61429 0
M  V30 2069 H 194.083 2.72488 -2.89819 0
M  V30 2070 H 190.822 2.87234 -5.89217 0
M  V30 2071 H 190.342 3.92145 -4.53853 0
M  V30 2072 H 192.021 3.93913 -5.13265 0
M  V30 2073 N 192.153 1.28127 0.917671 0
M  V30 2074 C 193.399 1.15223 1.66888 0
M  V30 2075 C 193.732 -0.299293 1.9188 0
M  V30 2076 O 193.007 -1.21805 1.51637 0
M  V30 2077 C 193.29 1.94706 3.02922 0
M  V30 2078 C 193.143 3.47898 2.85109 0
M  V30 2079 C 194.462 1.75939 4.03402 0
M  V30 2080 H 191.581 0.419946 0.605652 0
M  V30 2081 H 194.223 1.57398 1.06423 0
M  V30 2082 H 192.373 1.58864 3.54534 0
M  V30 2083 H 194.045 3.93624 2.40537 0
M  V30 2084 H 192.288 3.7373 2.20246 0
M  V30 2085 H 192.959 3.98765 3.81694 0
M  V30 2086 H 195.435 2.07209 3.60837 0
M  V30 2087 H 194.311 2.33931 4.96556 0
M  V30 2088 H 194.572 0.709877 4.36364 0
M  V30 2089 N 193.631 -1.12557 1.10312 0
M  V30 2090 C 194.594 -2.16434 0.75424 0
M  V30 2091 C 195.594 -1.59278 -0.220685 0
M  V30 2092 O 196.784 -1.742 0.00230591 0
M  V30 2093 C 193.916 -3.40699 0.116987 0
M  V30 2094 H 195.109 -2.48811 1.67431 0
M  V30 2095 H 192.662 -1.27542 0.903475 0
M  V30 2096 H 193.397 -3.13921 -0.813877 0
M  V30 2097 H 193.182 -3.83459 0.818613 0
M  V30 2098 H 194.672 -4.17451 -0.111387 0
M  V30 2099 N 195.109 -0.891671 -1.2995 0
M  V30 2100 C 196.355 -0.514261 -1.96171 0
M  V30 2101 C 196.688 0.935506 -1.70182 0
M  V30 2102 O 195.963 1.66204 -1.01028 0
M  V30 2103 C 196.246 -0.797719 -3.51153 0
M  V30 2104 C 196.099 -2.2986 -3.86632 0
M  V30 2105 C 197.418 -0.278749 -4.39216 0
M  V30 2106 H 194.537 -0.188314 -0.712535 0
M  V30 2107 H 197.179 -1.11689 -1.53706 0
M  V30 2108 H 195.329 -0.284826 -3.87455 0
M  V30 2109 H 197.001 -2.88042 -3.60319 0
M  V30 2110 H 195.244 -2.76257 -3.34462 0
M  V30 2111 H 195.915 -2.44753 -4.94773 0
M  V30 2112 H 198.391 -0.717825 -4.09862 0
M  V30 2113 H 197.267 -0.506353 -5.46559 0
M  V30 2114 H 197.528 0.820266 -4.34424 0
M  V30 2115 N 196.587 1.43421 -0.653314 0
M  V30 2116 C 197.519 2.29071 0.0769134 0
M  V30 2117 C 198.532 1.42513 0.787017 0
M  V30 2118 O 199.721 1.66449 0.644757 0
M  V30 2119 C 196.821 3.19436 1.13199 0
M  V30 2120 C 195.994 4.34533 0.500006 0
M  V30 2121 C 195.053 5.05771 1.45198 0
M  V30 2122 O 194.079 5.61037 0.960538 0
M  V30 2123 N 195.281 5.0928 2.78594 0
M  V30 2124 H 198.046 2.92382 -0.658235 0
M  V30 2125 H 195.607 1.54112 -0.496104 0
M  V30 2126 H 197.599 3.63958 1.76964 0
M  V30 2127 H 196.169 2.57724 1.7691 0
M  V30 2128 H 195.389 3.92925 -0.316738 0
M  V30 2129 H 196.677 5.08766 0.0588345 0
M  V30 2130 H 196.075 4.65751 3.2108 0
M  V30 2131 H 194.632 5.57519 3.37662 0
M  V30 2132 N 198.065 0.39524 1.52563 0
M  V30 2133 C 199.012 -0.437036 2.26624 0
M  V30 2134 C 199.982 -1.05281 1.28472 0
M  V30 2135 O 201.167 -1.07971 1.57311 0
M  V30 2136 C 198.307 -1.55524 3.08069 0
M  V30 2137 C 197.42 -0.961745 4.21158 0
M  V30 2138 C 196.555 -2.05149 4.89987 0
M  V30 2139 C 195.594 -1.4342 5.95061 0
M  V30 2140 N 194.731 -2.46351 6.57462 0
M  V30 2141 H 199.571 0.200976 2.97322 0
M  V30 2142 H 197.108 0.110944 1.46681 0
M  V30 2143 H 199.066 -2.21437 3.53584 0
M  V30 2144 H 197.696 -2.16348 2.3957 0
M  V30 2145 H 196.748 -0.192048 3.79915 0
M  V30 2146 H 198.06 -0.470701 4.96574 0
M  V30 2147 H 197.214 -2.78819 5.38837 0
M  V30 2148 H 195.953 -2.57615 4.14109 0
M  V30 2149 H 194.958 -0.682774 5.45544 0
M  V30 2150 H 196.183 -0.917416 6.72875 0
M  V30 2151 H 194.129 -2.97975 5.8442 0
M  V30 2152 H 194.046 -2.02019 7.28508 0
M  V30 2153 H 195.314 -3.19633 7.10954 0
M  V30 2154 N 199.544 -1.57102 0.125237 0
M  V30 2155 C 200.507 -2.14471 -0.80838 0
M  V30 2156 C 201.507 -1.0811 -1.19033 0
M  V30 2157 O 202.697 -1.33856 -1.11482 0
M  V30 2158 C 199.829 -2.69005 -2.09402 0
M  V30 2159 H 201.022 -2.98297 -0.309696 0
M  V30 2160 H 198.575 -1.55807 -0.124051 0
M  V30 2161 H 199.31 -1.88785 -2.63687 0
M  V30 2162 H 199.095 -3.46799 -1.82957 0
M  V30 2163 H 200.585 -3.13278 -2.76128 0
M  V30 2164 N 201.022 0.148545 -1.56898 0
M  V30 2165 C 201.969 1.18345 -1.98149 0
M  V30 2166 C 202.939 1.42772 -0.848848 0
M  V30 2167 O 204.124 1.55132 -1.11079 0
M  V30 2168 C 201.264 2.51231 -2.36594 0
M  V30 2169 C 200.377 2.33991 -3.63142 0
M  V30 2170 C 199.512 3.59902 -3.90697 0
M  V30 2171 C 198.551 3.37692 -5.1052 0
M  V30 2172 N 197.688 4.5573 -5.34092 0
M  V30 2173 H 202.528 0.82467 -2.86362 0
M  V30 2174 H 200.065 0.395756 -1.41676 0
M  V30 2175 H 202.023 3.28713 -2.56912 0
M  V30 2176 H 200.653 2.85059 -1.51463 0
M  V30 2177 H 199.705 1.47572 -3.50609 0
M  V30 2178 H 201.017 2.13539 -4.5078 0
M  V30 2179 H 200.171 4.45813 -4.11505 0
M  V30 2180 H 198.91 3.83357 -3.01477 0
M  V30 2181 H 197.915 2.5017 -4.89587 0
M  V30 2182 H 199.14 3.15637 -6.0129 0
M  V30 2183 H 197.086 4.79361 -4.47827 0
M  V30 2184 H 197.003 4.38274 -6.15996 0
M  V30 2185 H 198.271 5.42858 -5.59397 0
M  V30 2186 N 202.5 1.5196 0.417844 0
M  V30 2187 C 203.463 1.74065 1.49111 0
M  V30 2188 C 204.463 0.610537 1.48758 0
M  V30 2189 O 205.653 0.87832 1.50437 0
M  V30 2190 C 202.785 1.81502 2.88565 0
M  V30 2191 H 203.978 2.69869 1.30807 0
M  V30 2192 H 201.531 1.42244 0.647785 0
M  V30 2193 H 202.266 0.875813 3.1225 0
M  V30 2194 H 202.051 2.63651 2.90225 0
M  V30 2195 H 203.541 2.00376 3.66387 0
M  V30 2196 N 203.978 -0.674533 1.42435 0
M  V30 2197 C 204.908 -1.80009 1.48724 0
M  V30 2198 C 205.889 -1.6659 0.343793 0
M  V30 2199 O 207.074 -1.86007 0.558137 0
M  V30 2200 C 204.204 -3.18306 1.38919 0
M  V30 2201 C 203.158 -3.46461 2.51294 0
M  V30 2202 C 202.484 -4.84335 2.26547 0
M  V30 2203 C 203.784 -3.43328 3.93603 0
M  V30 2204 H 205.478 -1.75004 2.42928 0
M  V30 2205 H 203.024 -0.840533 1.16923 0
M  V30 2206 H 204.977 -3.9678 1.41927 0
M  V30 2207 H 203.701 -3.2399 0.412094 0
M  V30 2208 H 202.36 -2.70348 2.47604 0
M  V30 2209 H 202.008 -4.86669 1.2713 0
M  V30 2210 H 201.708 -5.04136 3.01861 0
M  V30 2211 H 203.232 -5.65094 2.31304 0
M  V30 2212 H 204.646 -4.11772 3.98894 0
M  V30 2213 H 203.043 -3.74664 4.68771 0
M  V30 2214 H 204.113 -2.41897 4.20255 0
M  V30 2215 N 205.456 -1.28612 -0.910864 0
M  V30 2216 C 206.686 -1.1862 -1.69153 0
M  V30 2217 C 207.094 0.257324 -1.87442 0
M  V30 2218 O 206.437 1.18543 -1.40332 0
M  V30 2219 C 206.499 -1.81606 -3.10257 0
M  V30 2220 C 206.163 -3.30864 -3.15243 0
M  V30 2221 C 207.16 -4.27256 -2.96223 0
M  V30 2222 C 204.845 -3.71871 -3.37664 0
M  V30 2223 C 206.839 -5.62631 -2.99541 0
M  V30 2224 C 204.526 -5.07371 -3.40614 0
M  V30 2225 C 205.524 -6.02561 -3.21573 0
M  V30 2226 O 205.212 -7.35589 -3.2429 0
M  V30 2227 H 204.944 -0.412633 -0.535453 0
M  V30 2228 H 207.498 -1.70306 -1.14827 0
M  V30 2229 H 205.728 -1.24418 -3.66138 0
M  V30 2230 H 207.417 -1.66092 -3.70362 0
M  V30 2231 H 208.183 -3.9691 -2.78725 0
M  V30 2232 H 204.062 -2.98241 -3.5153 0
M  V30 2233 H 207.606 -6.36907 -2.84597 0
M  V30 2234 H 203.503 -5.37366 -3.57642 0
M  V30 2235 H 204.271 -7.44252 -3.40633 0
M  V30 2236 N 206.934 1.1197 -1.10907 0
M  V30 2237 C 208.35 1.35591 -0.841852 0
M  V30 2238 C 208.55 1.94233 0.536246 0
M  V30 2239 O 207.606 2.1717 1.28816 0
M  V30 2240 C 208.919 2.29284 -1.94549 0
M  V30 2241 C 210.467 2.42862 -1.97451 0
M  V30 2242 C 210.942 3.39873 -3.07002 0
M  V30 2243 N 212.433 3.47433 -3.06341 0
M  V30 2244 C 213.168 4.22421 -3.87748 0
M  V30 2245 N 212.664 5.00432 -4.79103 0
M  V30 2246 N 214.457 4.17876 -3.75946 0
M  V30 2247 H 206.608 0.722664 -1.99728 0
M  V30 2248 H 208.871 0.380635 -0.868229 0
M  V30 2249 H 208.577 1.93378 -2.93765 0
M  V30 2250 H 208.451 3.29452 -1.83688 0
M  V30 2251 H 210.838 2.78046 -0.988645 0
M  V30 2252 H 210.919 1.42566 -2.12388 0
M  V30 2253 H 210.563 3.05417 -4.05811 0
M  V30 2254 H 210.493 4.40011 -2.89306 0
M  V30 2255 H 212.984 2.91784 -2.40147 0
M  V30 2256 H 213.297 5.55002 -5.37766 0
M  V30 2257 H 211.642 4.99612 -4.83128 0
M  V30 2258 H 214.833 3.56016 -3.03924 0
M  V30 2259 H 215.006 4.76061 -4.39624 0
M  V30 2260 N 208.412 0.89855 1.29475 0
M  V30 2261 C 209.637 0.538561 2.00285 0
M  V30 2262 C 210.062 -0.869135 1.66816 0
M  V30 2263 O 209.42 -1.57831 0.892145 0
M  V30 2264 C 209.468 0.736475 3.52999 0
M  V30 2265 O 208.572 -0.211537 4.11857 0
M  V30 2266 H 207.913 0.210563 0.62973 0
M  V30 2267 H 210.443 1.20982 1.64998 0
M  V30 2268 H 210.453 0.640685 4.02938 0
M  V30 2269 H 209.128 1.76276 3.76696 0
M  V30 2270 H 207.705 -0.0682991 3.72837 0
M  V30 2271 N 209.89 -1.43072 0.660911 0
M  V30 2272 C 211.13 -2.03596 0.181146 0
M  V30 2273 C 211.494 -1.51057 -1.18515 0
M  V30 2274 O 212.695 -2.03275 -1.75877 0
M  V30 2275 C 210.966 -3.56845 0.19911 0
M  V30 2276 S 212.525 -4.38289 -0.211684 0
M  V30 2277 H 209.343 -0.706954 0.0757479 0
M  V30 2278 H 211.945 -1.75027 0.870965 0
M  V30 2279 H 210.649 -3.92583 1.1961 0
M  V30 2280 H 210.18 -3.90067 -0.510996 0
M  V30 2281 H 212.195 -4.74583 -1.44863 0
M  V30 2282 N 211.368 -0.403325 -1.52352 0
M  V30 2283 C 212.617 0.175668 -2.00934 0
M  V30 2284 C 212.93 1.46718 -1.29356 0
M  V30 2285 O 214.136 2.12708 -1.68724 0
M  V30 2286 C 212.592 0.363612 -3.58058 0
M  V30 2287 C 212.2 -0.915472 -4.38547 0
M  V30 2288 C 213.944 0.89821 -4.14888 0
M  V30 2289 C 211.851 -0.695035 -5.87302 0
M  V30 2290 H 210.781 0.0694234 -0.750797 0
M  V30 2291 H 213.432 -0.527879 -1.75743 0
M  V30 2292 H 211.814 1.12935 -3.79555 0
M  V30 2293 H 212.988 -1.68691 -4.28812 0
M  V30 2294 H 211.303 -1.37606 -3.93006 0
M  V30 2295 H 213.9 1.07907 -5.23699 0
M  V30 2296 H 214.243 1.87126 -3.71873 0
M  V30 2297 H 214.776 0.191681 -3.97338 0
M  V30 2298 H 211.515 -1.63948 -6.34666 0
M  V30 2299 H 211.035 0.0372116 -5.99788 0
M  V30 2300 H 212.714 -0.33497 -6.46132 0
M  V30 2301 N 212.846 1.57033 -0.133567 0
M  V30 2302 C 213.794 2.17348 0.828412 0
M  V30 2303 C 214.788 1.12671 1.26498 0
M  V30 2304 O 215.994 1.30947 1.23502 0
M  V30 2305 H 212.369 0.695775 0.285309 0
M  V30 2306 H 214.34 2.96935 0.295372 0
M  V30 2307 C 213.089 2.79893 2.06289 0
M  V30 2308 H 212.412 3.60147 1.73592 0
M  V30 2309 H 213.852 3.25615 2.71572 0
M  V30 2310 C 212.311 1.77713 2.86216 0
M  V30 2311 O 212.841 1.23937 3.82103 0
M  V30 2312 N 211.047 1.47321 2.50489 0
M  V30 2313 H 210.594 1.91243 1.7258 0
M  V30 2314 H 210.552 0.79199 3.04261 0
M  V30 2315 N 214.325 -0.140222 1.56975 0
M  V30 2316 C 215.235 -1.19223 2.02047 0
M  V30 2317 C 216.251 -1.46612 0.937062 0
M  V30 2318 O 217.427 -1.58148 1.24704 0
M  V30 2319 C 214.492 -2.50414 2.39778 0
M  V30 2320 C 213.553 -2.30612 3.621 0
M  V30 2321 C 212.786 -3.55547 3.98023 0
M  V30 2322 O 213.009 -4.62004 3.34528 0
M  V30 2323 O 211.943 -3.47808 4.91237 0
M  V30 2324 H 215.769 -0.839559 2.91865 0
M  V30 2325 H 213.354 -0.349453 1.45256 0
M  V30 2326 H 215.236 -3.27747 2.64877 0
M  V30 2327 H 213.911 -2.85198 1.53114 0
M  V30 2328 H 212.818 -1.51207 3.4218 0
M  V30 2329 H 214.151 -2.00741 4.49404 0
M  V30 2330 N 215.803 -1.52179 -0.40978 0
M  V30 2331 C 217.028 -1.70347 -1.18308 0
M  V30 2332 C 217.453 -0.411887 -1.83535 0
M  V30 2333 O 216.811 0.630587 -1.6998 0
M  V30 2334 C 216.859 -2.83977 -2.22238 0
M  V30 2335 O 215.963 -2.495 -3.28365 0
M  V30 2336 H 215.304 -0.567103 -0.345384 0
M  V30 2337 H 217.834 -1.98879 -0.480445 0
M  V30 2338 H 217.844 -3.0887 -2.66577 0
M  V30 2339 H 216.519 -3.77685 -1.74146 0
M  V30 2340 H 215.096 -2.35277 -2.89308 0
M  V30 2341 N 217.281 0.66697 -1.42791 0
M  V30 2342 C 218.244 1.76211 -1.46568 0
M  V30 2343 C 219.244 1.56896 -0.352196 0
M  V30 2344 O 220.434 1.63044 -0.613364 0
M  V30 2345 C 217.566 3.14935 -1.30494 0
M  V30 2346 H 218.759 1.74247 -2.44086 0
M  V30 2347 H 216.312 0.877342 -1.29354 0
M  V30 2348 H 217.047 3.2252 -0.339301 0
M  V30 2349 H 216.832 3.30359 -2.11199 0
M  V30 2350 H 218.322 3.94821 -1.36038 0
M  V30 2351 N 218.759 1.29093 0.90403 0
M  V30 2352 C 220.008 1.16187 1.64874 0
M  V30 2353 C 220.321 -0.286742 1.93487 0
M  V30 2354 O 221.527 -0.537062 2.66135 0
M  V30 2355 C 219.983 2.03177 2.97064 0
M  V30 2356 C 219.591 3.52836 2.76062 0
M  V30 2357 C 221.335 1.98984 3.74974 0
M  V30 2358 C 219.242 4.31945 4.03952 0
M  V30 2359 H 218.172 0.431246 0.618501 0
M  V30 2360 H 220.823 1.53699 1.00243 0
M  V30 2361 H 219.205 1.5853 3.62883 0
M  V30 2362 H 220.379 4.05507 2.18863 0
M  V30 2363 H 218.694 3.58656 2.11553 0
M  V30 2364 H 221.291 2.55351 4.69787 0
M  V30 2365 H 221.634 0.968815 4.0487 0
M  V30 2366 H 222.167 2.41652 3.15989 0
M  V30 2367 H 218.906 5.34667 3.79225 0
M  V30 2368 H 218.426 3.84045 4.60727 0
M  V30 2369 H 220.105 4.42379 4.72133 0
M  V30 2370 N 220.237 -1.11381 1.11499 0
M  V30 2371 C 221.514 -1.7955 0.775965 0
M  V30 2372 C 221.894 -1.97859 -0.73588 0
M  V30 2373 O 221.242 -1.56376 -1.66609 0
M  V30 2374 C 221.452 -3.13196 1.53977 0
M  V30 2375 C 222.8 -3.88227 1.71944 0
M  V30 2376 O 223.824 -3.22887 1.50407 0
M  V30 2377 O 222.683 -5.05477 2.07738 0
M  V30 2378 H 219.777 -0.777728 0.28119 0
M  V30 2379 H 222.323 -1.18118 1.21845 0
M  V30 2380 H 221.095 -2.95229 2.56818 0
M  V30 2381 H 220.718 -3.82342 1.09088 0
M  V30 2382 N 221.715 -0.905404 -1.28997 0
M  V30 2383 C 222.94 -0.549175 -1.99997 0
M  V30 2384 C 223.365 0.860276 -1.67275 0
M  V30 2385 O 222.723 1.57355 -0.900502 0
M  V30 2386 C 222.771 -0.755185 -3.52604 0
M  V30 2387 O 221.875 0.189692 -4.11964 0
M  V30 2388 H 221.216 -0.213899 -0.628604 0
M  V30 2389 H 223.746 -1.21856 -1.64354 0
M  V30 2390 H 223.756 -0.662045 -4.02593 0
M  V30 2391 H 222.431 -1.78271 -3.75755 0
M  V30 2392 H 221.008 0.0485257 -3.72868 0
M  V30 2393 N 223.193 1.4272 -0.668489 0
M  V30 2394 C 224.609 1.55992 -0.33745 0
M  V30 2395 C 224.809 1.64933 1.15756 0
M  V30 2396 O 223.865 1.61278 1.94282 0
M  V30 2397 C 225.178 2.81314 -1.06222 0
M  V30 2398 C 226.726 2.95078 -1.04394 0
M  V30 2399 C 227.201 4.23252 -1.74991 0
M  V30 2400 N 228.692 4.3015 -1.71829 0
M  V30 2401 C 229.427 5.28127 -2.23315 0
M  V30 2402 N 228.923 6.32293 -2.83156 0
M  V30 2403 N 230.716 5.19882 -2.13726 0
M  V30 2404 H 222.867 1.3516 -1.63846 0
M  V30 2405 H 225.13 0.650174 -0.689912 0
M  V30 2406 H 224.836 2.80823 -2.11734 0
M  V30 2407 H 224.71 3.72012 -0.62344 0
M  V30 2408 H 227.097 2.951 0.0028244 0
M  V30 2409 H 227.178 2.05627 -1.52155 0
M  V30 2410 H 226.822 4.2399 -2.79633 0
M  V30 2411 H 226.752 5.11626 -1.24685 0
M  V30 2412 H 229.243 3.55499 -1.28175 0
M  V30 2413 H 229.556 7.03398 -3.20079 0
M  V30 2414 H 227.901 6.32873 -2.87223 0
M  V30 2415 H 231.092 4.37423 -1.66669 0
M  V30 2416 H 231.265 5.96077 -2.54158 0
M  V30 2417 N 224.671 0.411399 1.52136 0
M  V30 2418 C 225.919 -0.163322 2.01439 0
M  V30 2419 C 226.24 -1.45453 1.29879 0
M  V30 2420 O 225.51 -1.91225 0.4254 0
M  V30 2421 H 224.09 -0.0633447 0.744309 0
M  V30 2422 H 226.752 0.548161 1.87033 0
M  V30 2423 H 225.848 -0.357817 3.10042 0
M  V30 2424 N 226.149 -1.5696 0.141893 0
M  V30 2425 C 227.397 -1.95573 -0.509484 0
M  V30 2426 C 227.718 -1.02746 -1.65736 0
M  V30 2427 O 226.988 -0.0880311 -1.95702 0
M  V30 2428 H 225.568 -0.722115 -0.191205 0
M  V30 2429 H 228.23 -1.93697 0.216196 0
M  V30 2430 H 227.326 -2.99171 -0.889 0
M  V30 2431 N 227.627 0.131896 -1.57047 0
M  V30 2432 C 228.537 1.1815 -2.02676 0
M  V30 2433 C 229.553 1.46113 -0.944824 0
M  V30 2434 O 230.729 1.57485 -1.25541 0
M  V30 2435 C 227.794 2.49139 -2.41103 0
M  V30 2436 C 226.855 2.28688 -3.63318 0
M  V30 2437 C 226.088 3.53431 -3.99903 0
M  V30 2438 O 226.311 4.60223 -3.36973 0
M  V30 2439 O 225.245 3.45198 -4.93074 0
M  V30 2440 H 229.071 0.824069 -2.92306 0
M  V30 2441 H 226.656 0.341745 -1.45439 0
M  V30 2442 H 228.538 3.26338 -2.66611 0
M  V30 2443 H 227.213 2.84382 -1.54624 0
M  V30 2444 H 226.12 1.4939 -3.42977 0
M  V30 2445 H 227.453 1.98355 -4.50462 0
M  V30 2446 N 229.106 1.52395 0.401703 0
M  V30 2447 C 230.517 1.58899 0.980202 0
M  V30 2448 C 230.868 0.434032 1.91339 0
M  V30 2449 O 229.993 -0.444619 2.11783 0
M  V30 2450 C 230.588 2.87994 1.78451 0
M  V30 2451 C 229.147 2.96953 2.31292 0
M  V30 2452 C 228.294 2.53903 1.11483 0
M  V30 2453 H 231.245 1.57657 0.18168 0
M  V30 2454 H 231.266 2.73765 2.64259 0
M  V30 2455 H 230.778 3.72035 1.10506 0
M  V30 2456 H 228.879 2.17422 3.02586 0
M  V30 2457 H 228.992 4.01344 2.61649 0
M  V30 2458 H 227.356 2.07925 1.47104 0
M  V30 2459 H 228.139 3.40326 0.450928 0
M  V30 2460 N 230.584 -0.659388 1.43143 0
M  V30 2461 C 231.514 -1.78422 1.50625 0
M  V30 2462 C 232.495 -1.66216 0.361443 0
M  V30 2463 O 233.68 -1.85404 0.577834 0
M  V30 2464 C 230.81 -3.16815 1.42287 0
M  V30 2465 C 229.764 -3.43777 2.54954 0
M  V30 2466 C 229.09 -4.81905 2.31671 0
M  V30 2467 C 230.39 -3.39134 3.97222 0
M  V30 2468 H 232.084 -1.72417 2.44771 0
M  V30 2469 H 229.63 -0.828084 1.17808 0
M  V30 2470 H 231.583 -3.95253 1.46127 0
M  V30 2471 H 230.307 -3.23534 0.446435 0
M  V30 2472 H 228.966 -2.67707 2.50457 0
M  V30 2473 H 228.614 -4.85294 1.32284 0
M  V30 2474 H 228.314 -5.00906 3.07192 0
M  V30 2475 H 229.838 -5.62609 2.37284 0
M  V30 2476 H 231.252 -4.07518 4.03239 0
M  V30 2477 H 229.649 -3.69671 4.72719 0
M  V30 2478 H 230.719 -2.37426 4.22797 0
M  V30 2479 N 232.062 -1.29571 -0.897171 0
M  V30 2480 C 232.992 -1.17473 -2.01798 0
M  V30 2481 C 233.973 -0.068323 -1.69963 0
M  V30 2482 O 235.158 -0.248239 -1.92607 0
M  V30 2483 C 232.288 -0.853099 -3.36659 0
M  V30 2484 C 231.242 -1.9161 -3.82713 0
M  V30 2485 C 230.568 -1.44773 -5.14728 0
M  V30 2486 C 231.868 -3.32535 -4.02763 0
M  V30 2487 H 233.562 -2.11237 -2.12177 0
M  V30 2488 H 231.108 -1.01699 -1.01948 0
M  V30 2489 H 233.061 -0.755165 -4.14578 0
M  V30 2490 H 231.785 0.120236 -3.26379 0
M  V30 2491 H 230.444 -2.00346 -3.07013 0
M  V30 2492 H 230.092 -0.462995 -5.00865 0
M  V30 2493 H 229.792 -2.15865 -5.46513 0
M  V30 2494 H 231.316 -1.36334 -5.95185 0
M  V30 2495 H 232.73 -3.26626 -4.71156 0
M  V30 2496 H 231.127 -4.01607 -4.45905 0
M  V30 2497 H 232.197 -3.75326 -3.07016 0
M  V30 2498 N 233.54 1.10788 -1.12088 0
M  V30 2499 C 234.487 2.17025 -0.785407 0
M  V30 2500 C 235.457 1.64265 0.246191 0
M  V30 2501 O 236.642 1.90412 0.121584 0
M  V30 2502 C 233.782 3.44249 -0.242177 0
M  V30 2503 C 232.895 4.1098 -1.33115 0
M  V30 2504 C 232.03 5.25911 -0.747741 0
M  V30 2505 C 231.069 5.84538 -1.81609 0
M  V30 2506 N 230.206 6.90853 -1.25167 0
M  V30 2507 H 235.046 2.45066 -1.69548 0
M  V30 2508 H 232.583 1.20297 -0.846582 0
M  V30 2509 H 234.541 4.17101 0.0908026 0
M  V30 2510 H 233.171 3.16571 0.631072 0
M  V30 2511 H 232.223 3.36133 -1.78097 0
M  V30 2512 H 233.535 4.50601 -2.13917 0
M  V30 2513 H 232.689 6.056 -0.365216 0
M  V30 2514 H 231.428 4.87614 0.0915188 0
M  V30 2515 H 230.433 5.03522 -2.20785 0
M  V30 2516 H 231.658 6.249 -2.6585 0
M  V30 2517 H 229.604 6.54562 -0.434174 0
M  V30 2518 H 229.521 7.29166 -1.99633 0
M  V30 2519 H 230.789 7.7433 -0.896259 0
M  V30 2520 N 235.018 0.912232 1.28515 0
M  V30 2521 C 235.948 0.416403 2.29757 0
M  V30 2522 C 236.929 -0.515194 1.6211 0
M  V30 2523 O 238.114 -0.423253 1.89532 0
M  V30 2524 C 235.244 -0.34572 3.45575 0
M  V30 2525 C 234.198 0.496599 4.25109 0
M  V30 2526 C 233.524 -0.393771 5.33248 0
M  V30 2527 C 234.824 1.75307 4.92001 0
M  V30 2528 H 236.518 1.26249 2.7148 0
M  V30 2529 H 234.064 0.608515 1.30511 0
M  V30 2530 H 236.017 -0.703422 4.15488 0
M  V30 2531 H 234.741 -1.2257 3.02728 0
M  V30 2532 H 233.4 0.8368 3.56922 0
M  V30 2533 H 233.048 -1.27225 4.86644 0
M  V30 2534 H 232.748 0.166209 5.87365 0
M  V30 2535 H 234.272 -0.747389 6.06009 0
M  V30 2536 H 235.686 1.46437 5.54283 0
M  V30 2537 H 234.083 2.25534 5.56106 0
M  V30 2538 H 235.153 2.48176 4.16577 0
M  V30 2539 N 236.496 -1.42363 0.676048 0
M  V30 2540 C 237.426 -2.33497 0.0124832 0
M  V30 2541 C 238.407 -1.50748 -0.787981 0
M  V30 2542 O 239.592 -1.79346 -0.744884 0
M  V30 2543 C 236.722 -3.34377 -0.938582 0
M  V30 2544 C 235.676 -4.27289 -0.246622 0
M  V30 2545 C 235.002 -5.18386 -1.31071 0
M  V30 2546 C 236.302 -5.14916 0.875125 0
M  V30 2547 H 237.996 -2.89233 0.773593 0
M  V30 2548 H 235.542 -1.39073 0.37346 0
M  V30 2549 H 237.495 -3.97044 -1.41188 0
M  V30 2550 H 236.219 -2.76947 -1.73113 0
M  V30 2551 H 234.878 -3.66018 0.206456 0
M  V30 2552 H 234.526 -4.57282 -2.09528 0
M  V30 2553 H 234.226 -5.81378 -0.852839 0
M  V30 2554 H 235.75 -5.83929 -1.78492 0
M  V30 2555 H 237.164 -5.71262 0.482983 0
M  V30 2556 H 235.561 -5.86747 1.25887 0
M  V30 2557 H 236.631 -4.53242 1.72335 0
M  V30 2558 N 237.974 -0.419461 -1.51915 0
M  V30 2559 C 239.385 0.0477853 -1.86639 0
M  V30 2560 C 239.736 1.43531 -1.33766 0
M  V30 2561 O 238.861 2.05401 -0.68113 0
M  V30 2562 C 239.456 0.0934885 -3.38671 0
M  V30 2563 C 238.015 0.505097 -3.72996 0
M  V30 2564 C 237.162 -0.313792 -2.75519 0
M  V30 2565 H 240.113 -0.636088 -1.45395 0
M  V30 2566 H 240.134 0.906667 -3.6954 0
M  V30 2567 H 239.646 -0.916501 -3.77123 0
M  V30 2568 H 237.747 1.52135 -3.40126 0
M  V30 2569 H 237.86 0.242309 -4.78487 0
M  V30 2570 H 236.224 0.225363 -2.53701 0
M  V30 2571 H 237.007 -1.32232 -3.16812 0
M  V30 2572 N 239.452 1.56882 -0.150215 0
M  V30 2573 C 240.729 1.87844 0.545327 0
M  V30 2574 C 241.109 1.0567 1.82749 0
M  V30 2575 O 240.457 0.144442 2.28043 0
M  V30 2576 C 240.667 3.39526 0.80767 0
M  V30 2577 C 242.015 4.08814 1.14703 0
M  V30 2578 O 243.039 3.44723 0.896917 0
M  V30 2579 O 241.898 5.22004 1.61784 0
M  V30 2580 H 238.992 0.778677 0.278553 0
M  V30 2581 H 241.538 1.68666 -0.187068 0
M  V30 2582 H 240.31 3.91173 -0.0996096 0
M  V30 2583 H 239.933 3.64243 1.59413 0
M  V30 2584 N 240.93 -0.123565 1.57115 0
M  V30 2585 C 242.179 -0.830704 1.83799 0
M  V30 2586 C 242.492 -1.81259 0.735158 0
M  V30 2587 O 243.698 -2.56558 0.888278 0
M  V30 2588 C 242.154 -1.52802 3.25852 0
M  V30 2589 C 241.762 -0.587356 4.44133 0
M  V30 2590 C 243.506 -2.22056 3.61789 0
M  V30 2591 C 241.413 -1.28764 5.77212 0
M  V30 2592 H 240.343 -0.313967 0.685522 0
M  V30 2593 H 242.994 -0.0834359 1.8331 0
M  V30 2594 H 241.376 -2.32175 3.20797 0
M  V30 2595 H 242.55 0.172829 4.60476 0
M  V30 2596 H 240.865 -0.00201892 4.164 0
M  V30 2597 H 243.462 -2.75131 4.58483 0
M  V30 2598 H 243.805 -2.99644 2.88997 0
M  V30 2599 H 244.338 -1.49576 3.68608 0
M  V30 2600 H 241.077 -0.55314 6.53162 0
M  V30 2601 H 240.597 -2.01995 5.64764 0
M  V30 2602 H 242.276 -1.8221 6.20813 0
M  V30 2603 N 242.408 -1.52605 -0.393616 0
M  V30 2604 C 243.638 -1.71046 -1.15874 0
M  V30 2605 C 244.046 -0.426483 -1.84331 0
M  V30 2606 O 243.389 0.608513 -1.73329 0
M  V30 2607 C 243.451 -2.80118 -2.25332 0
M  V30 2608 C 243.115 -4.21381 -1.76881 0
M  V30 2609 C 244.112 -5.04697 -1.24808 0
M  V30 2610 C 241.797 -4.67683 -1.83244 0
M  V30 2611 C 243.791 -6.32393 -0.797387 0
M  V30 2612 C 241.478 -5.95364 -1.37787 0
M  V30 2613 C 242.476 -6.77549 -0.861208 0
M  V30 2614 O 242.164 -8.02837 -0.413252 0
M  V30 2615 H 241.896 -0.576155 -0.353583 0
M  V30 2616 H 244.45 -2.00018 -0.467123 0
M  V30 2617 H 242.68 -2.46557 -2.97904 0
M  V30 2618 H 244.369 -2.87006 -2.87023 0
M  V30 2619 H 245.135 -4.70111 -1.19252 0
M  V30 2620 H 241.014 -4.03805 -2.22401 0
M  V30 2621 H 244.558 -6.9649 -0.393437 0
M  V30 2622 H 240.455 -6.29455 -1.43026 0
M  V30 2623 H 241.223 -8.16749 -0.53515 0
M  V30 2624 N 243.887 0.651787 -1.4349 0
M  V30 2625 C 245.135 1.40888 -1.44897 0
M  V30 2626 C 245.456 1.94856 -0.0749086 0
M  V30 2627 O 244.726 1.74518 0.889956 0
M  V30 2628 H 243.306 0.522887 -0.533478 0
M  V30 2629 H 245.968 0.768609 -1.79104 0
M  V30 2630 H 245.064 2.25052 -2.16236 0
M  V30 2631 N 245.365 1.30045 0.890287 0
M  V30 2632 C 246.611 1.19747 1.64415 0
M  V30 2633 C 246.966 -0.246591 1.90813 0
M  V30 2634 O 246.259 -1.174 1.51419 0
M  V30 2635 C 246.453 1.95409 2.99249 0
M  V30 2636 C 246.282 3.47025 2.86013 0
M  V30 2637 C 245.052 4.1638 2.86279 0
M  V30 2638 C 247.25 4.42353 2.62351 0
M  V30 2639 N 245.232 5.54293 2.63879 0
M  V30 2640 C 246.603 5.67792 2.49022 0
M  V30 2641 C 248.658 4.32009 2.47533 0
M  V30 2642 C 247.361 6.8406 2.22383 0
M  V30 2643 C 249.387 5.48038 2.22279 0
M  V30 2644 C 248.749 6.72455 2.09722 0
M  V30 2645 H 244.848 0.493223 0.60684 0
M  V30 2646 H 247.432 1.6399 1.04954 0
M  V30 2647 H 245.603 1.53565 3.56752 0
M  V30 2648 H 247.335 1.77298 3.63796 0
M  V30 2649 H 244.09 3.68164 2.97913 0
M  V30 2650 H 244.514 6.26852 2.55706 0
M  V30 2651 H 249.156 3.36503 2.55979 0
M  V30 2652 H 246.874 7.79612 2.12675 0
M  V30 2653 H 250.46 5.41939 2.11643 0
M  V30 2654 H 249.34 7.60722 1.90453 0
M  V30 2655 N 246.843 -1.10192 1.12674 0
M  V30 2656 C 248.254 -1.63707 0.897604 0
M  V30 2657 C 248.605 -1.87812 -0.567546 0
M  V30 2658 O 247.73 -1.62196 -1.43253 0
M  V30 2659 C 248.325 -2.974 1.62292 0
M  V30 2660 C 246.884 -3.47772 1.43986 0
M  V30 2661 C 246.031 -2.22332 1.65722 0
M  V30 2662 H 248.982 -0.936587 1.28116 0
M  V30 2663 H 249.003 -3.64986 1.07541 0
M  V30 2664 H 248.515 -2.79824 2.68924 0
M  V30 2665 H 246.616 -3.70487 0.396206 0
M  V30 2666 H 246.729 -4.25723 2.19765 0
M  V30 2667 H 245.093 -2.30599 1.08149 0
M  V30 2668 H 245.876 -2.07285 2.73657 0
M  V30 2669 N 248.321 -0.919034 -1.28029 0
M  V30 2670 C 249.567 -0.555757 -1.95036 0
M  V30 2671 C 249.9 0.899198 -1.72128 0
M  V30 2672 O 249.175 1.64023 -1.04531 0
M  V30 2673 C 249.458 -0.872024 -3.49382 0
M  V30 2674 C 249.311 -2.3801 -3.81669 0
M  V30 2675 C 250.63 -0.37185 -4.38526 0
M  V30 2676 H 247.749 -0.203386 -0.708381 0
M  V30 2677 H 250.391 -1.14924 -1.51303 0
M  V30 2678 H 248.541 -0.366946 -3.86763 0
M  V30 2679 H 250.213 -2.9562 -3.54128 0
M  V30 2680 H 248.456 -2.83289 -3.28526 0
M  V30 2681 H 249.127 -2.55192 -4.8947 0
M  V30 2682 H 251.603 -0.804602 -4.08247 0
M  V30 2683 H 250.479 -0.622173 -5.45362 0
M  V30 2684 H 250.74 0.727934 -4.36066 0
M  V30 2685 N 249.799 1.42003 -0.683588 0
M  V30 2686 C 250.762 2.29191 -0.0198243 0
M  V30 2687 C 251.762 1.43773 0.72013 0
M  V30 2688 O 252.952 1.65061 0.556815 0
M  V30 2689 C 250.084 3.26435 0.982487 0
M  V30 2690 H 251.277 2.8938 -0.787345 0
M  V30 2691 H 248.83 1.49789 -0.446418 0
M  V30 2692 H 249.565 2.71203 1.77819 0
M  V30 2693 H 249.35 3.89449 0.455182 0
M  V30 2694 H 250.84 3.918 1.44508 0
M  V30 2695 N 251.277 0.427512 1.51691 0
M  V30 2696 C 252.505 -0.141191 2.06418 0
M  V30 2697 C 252.92 -1.37303 1.29589 0
M  V30 2698 O 252.277 -1.79059 0.352732 0
M  V30 2699 C 252.328 -0.473266 3.58389 0
M  V30 2700 O 252.049 0.709673 4.32314 0
M  V30 2701 C 253.55 -1.09371 4.29596 0
M  V30 2702 H 250.77 -0.0122747 0.670888 0
M  V30 2703 H 253.314 0.603764 1.95384 0
M  V30 2704 H 251.469 -1.16812 3.69369 0
M  V30 2705 H 251.883 0.42807 5.2275 0
M  V30 2706 H 253.357 -1.27613 5.37046 0
M  V30 2707 H 253.834 -2.072 3.87253 0
M  V30 2708 H 254.44 -0.43853 4.23033 0
M  V30 2709 N 252.755 -1.56801 0.158532 0
M  V30 2710 C 253.665 -2.20916 -0.789518 0
M  V30 2711 C 254.681 -1.1969 -1.26294 0
M  V30 2712 O 255.857 -1.52308 -1.31773 0
M  V30 2713 C 252.922 -2.82727 -2.00665 0
M  V30 2714 C 251.983 -3.99114 -1.58134 0
M  V30 2715 C 251.216 -4.57968 -2.74045 0
M  V30 2716 O 251.439 -4.15704 -3.90572 0
M  V30 2717 O 250.373 -5.48047 -2.48855 0
M  V30 2718 H 254.199 -3.02464 -0.273681 0
M  V30 2719 H 251.784 -1.4924 -0.0690548 0
M  V30 2720 H 253.666 -3.21968 -2.71872 0
M  V30 2721 H 252.341 -2.04184 -2.51179 0
M  V30 2722 H 251.248 -3.64567 -0.839155 0
M  V30 2723 H 252.581 -4.79212 -1.12325 0
M  V30 2724 N 254.233 0.115231 -1.57178 0
M  V30 2725 C 255.181 1.16014 -2.01602 0
M  V30 2726 C 256.175 1.42653 -0.913587 0
M  V30 2727 O 257.381 1.42571 -1.09879 0
M  V30 2728 H 253.756 0.391252 -0.642204 0
M  V30 2729 H 255.727 0.758998 -2.88586 0
M  V30 2730 C 254.476 2.47767 -2.4394 0
M  V30 2731 H 253.799 2.28108 -3.28339 0
M  V30 2732 H 255.239 3.19432 -2.78818 0
M  V30 2733 C 253.698 3.10617 -1.30455 0
M  V30 2734 O 254.228 3.96846 -0.622585 0
M  V30 2735 N 252.434 2.70553 -1.06064 0
M  V30 2736 H 251.981 2.00527 -1.61699 0
M  V30 2737 H 251.939 3.12934 -0.303284 0
M  V30 2738 N 255.711 1.52812 0.385517 0
M  V30 2739 C 256.957 1.69225 1.12847 0
M  V30 2740 C 257.312 0.42864 1.87564 0
M  V30 2741 O 256.605 -0.57779 1.8268 0
M  V30 2742 C 256.799 2.86856 2.13187 0
M  V30 2743 C 256.628 4.24535 1.48325 0
M  V30 2744 C 255.398 4.89701 1.24585 0
M  V30 2745 C 257.596 5.05794 0.931501 0
M  V30 2746 N 255.578 6.11353 0.558644 0
M  V30 2747 C 256.949 6.1888 0.372552 0
M  V30 2748 C 259.004 4.90963 0.828248 0
M  V30 2749 C 257.707 7.18757 -0.279556 0
M  V30 2750 C 259.733 5.91095 0.189956 0
M  V30 2751 C 259.095 7.03489 -0.358207 0
M  V30 2752 H 255.194 0.67268 0.39878 0
M  V30 2753 H 257.778 1.9017 0.417528 0
M  V30 2754 H 255.949 2.67484 2.81614 0
M  V30 2755 H 257.681 2.92188 2.80014 0
M  V30 2756 H 254.436 4.48485 1.52178 0
M  V30 2757 H 254.86 6.76606 0.230983 0
M  V30 2758 H 259.502 4.04274 1.23784 0
M  V30 2759 H 257.22 8.05052 -0.701152 0
M  V30 2760 H 260.806 5.81694 0.111264 0
M  V30 2761 H 259.686 7.79642 -0.844314 0
M  V30 2762 N 257.189 -0.644168 1.43834 0
M  V30 2763 C 258.099 -1.78563 1.52159 0
M  V30 2764 C 259.115 -1.69147 0.408069 0
M  V30 2765 O 260.291 -1.90156 0.663524 0
M  V30 2766 C 257.356 -3.14888 1.45073 0
M  V30 2767 C 256.417 -3.36034 2.6717 0
M  V30 2768 C 255.65 -4.65855 2.60413 0
M  V30 2769 O 255.873 -5.45805 1.65689 0
M  V30 2770 O 254.807 -4.88918 3.5106 0
M  V30 2771 H 258.633 -1.74494 2.48567 0
M  V30 2772 H 256.218 -0.80378 1.25935 0
M  V30 2773 H 258.1 -3.96179 1.43597 0
M  V30 2774 H 256.775 -3.19528 0.518037 0
M  V30 2775 H 255.682 -2.54472 2.74217 0
M  V30 2776 H 257.015 -3.36247 3.59442 0
M  V30 2777 N 258.668 -1.30515 -0.883378 0
M  V30 2778 C 259.6 -1.12846 -1.99496 0
M  V30 2779 C 260.613 -0.0712571 -1.62644 0
M  V30 2780 O 261.802 -0.317432 -1.75655 0
M  V30 2781 C 258.902 -0.699123 -3.3161 0
M  V30 2782 C 258.075 -1.83842 -3.96889 0
M  V30 2783 C 257.134 -1.39737 -5.07307 0
M  V30 2784 O 256.16 -2.10485 -5.28852 0
M  V30 2785 N 257.362 -0.277279 -5.79837 0
M  V30 2786 H 260.127 -2.08585 -2.15203 0
M  V30 2787 H 257.688 -1.22672 -1.05656 0
M  V30 2788 H 259.68 -0.387044 -4.02845 0
M  V30 2789 H 258.25 0.166276 -3.12157 0
M  V30 2790 H 257.47 -2.31853 -3.18807 0
M  V30 2791 H 258.758 -2.60187 -4.37241 0
M  V30 2792 H 258.156 0.3122 -5.64838 0
M  V30 2793 H 256.713 -0.0246623 -6.51795 0
M  V30 2794 N 260.146 1.09593 -1.13257 0
M  V30 2795 C 261.093 2.1618 -0.808381 0
M  V30 2796 C 262.063 1.64517 0.228754 0
M  V30 2797 O 263.248 1.9053 0.101381 0
M  V30 2798 C 260.388 3.43973 -0.278675 0
M  V30 2799 C 259.501 4.09545 -1.37466 0
M  V30 2800 C 258.636 5.25088 -0.803479 0
M  V30 2801 C 257.675 5.82579 -1.87799 0
M  V30 2802 N 256.812 6.89486 -1.32488 0
M  V30 2803 H 261.652 2.43254 -1.72138 0
M  V30 2804 H 259.189 1.19392 -0.859294 0
M  V30 2805 H 261.147 4.17174 0.0465583 0
M  V30 2806 H 259.777 3.17223 0.597459 0
M  V30 2807 H 258.829 3.34226 -1.81652 0
M  V30 2808 H 260.141 4.48307 -2.18684 0
M  V30 2809 H 259.295 6.05178 -0.429427 0
M  V30 2810 H 258.034 4.87684 0.0397956 0
M  V30 2811 H 257.039 5.01152 -2.26113 0
M  V30 2812 H 258.264 6.22045 -2.72463 0
M  V30 2813 H 256.21 6.54064 -0.503575 0
M  V30 2814 H 256.127 7.27007 -2.07355 0
M  V30 2815 H 257.395 7.73336 -0.978336 0
M  V30 2816 N 261.624 0.925811 1.2754 0
M  V30 2817 C 262.854 0.580666 1.98272 0
M  V30 2818 C 263.262 -0.845207 1.69272 0
M  V30 2819 O 262.605 -1.57306 0.948707 0
M  V30 2820 C 262.667 0.724418 3.52126 0
M  V30 2821 C 262.331 2.12206 4.04744 0
M  V30 2822 C 263.328 3.09604 4.17662 0
M  V30 2823 C 261.013 2.4385 4.39138 0
M  V30 2824 C 263.007 4.36755 4.64246 0
M  V30 2825 C 260.694 3.71237 4.85414 0
M  V30 2826 C 261.692 4.67503 4.97926 0
M  V30 2827 O 261.38 5.92624 5.43187 0
M  V30 2828 H 261.112 0.218987 0.639547 0
M  V30 2829 H 263.666 1.24452 1.63404 0
M  V30 2830 H 261.896 0.0034663 3.867 0
M  V30 2831 H 263.585 0.384607 4.04074 0
M  V30 2832 H 264.351 2.86478 3.91351 0
M  V30 2833 H 260.23 1.69665 4.28643 0
M  V30 2834 H 263.774 5.11898 4.73927 0
M  V30 2835 H 259.671 3.94182 5.11166 0
M  V30 2836 H 260.439 5.95585 5.61445 0
M  V30 2837 N 263.102 -1.41638 0.69111 0
M  V30 2838 C 264.35 -2.00902 0.219758 0
M  V30 2839 C 264.671 -1.54994 -1.18329 0
M  V30 2840 O 263.941 -0.778628 -1.79762 0
M  V30 2841 H 262.521 -0.74289 0.0782558 0
M  V30 2842 H 265.183 -1.73327 0.891271 0
M  V30 2843 H 264.279 -3.11224 0.233708 0
M  V30 2844 N 264.58 -0.43555 -1.51462 0
M  V30 2845 C 265.543 0.365137 -2.26273 0
M  V30 2846 C 266.543 0.951227 -1.29647 0
M  V30 2847 O 267.733 0.825958 -1.53374 0
M  V30 2848 C 264.865 1.51645 -3.05314 0
M  V30 2849 H 266.058 -0.290474 -2.9849 0
M  V30 2850 H 263.611 -0.188676 -1.55157 0
M  V30 2851 H 264.346 2.20816 -2.3751 0
M  V30 2852 H 264.131 1.10238 -3.76284 0
M  V30 2853 H 265.621 2.08218 -3.61987 0
M  V30 2854 N 266.058 1.56714 -0.166846 0
M  V30 2855 C 267.283 2.01557 0.488833 0
M  V30 2856 C 267.708 1.0463 1.56314 0
M  V30 2857 O 267.066 0.0251304 1.81283 0
M  V30 2858 C 267.114 3.4503 1.04818 0
M  V30 2859 O 266.218 3.51163 2.16236 0
M  V30 2860 H 265.559 0.653516 0.117526 0
M  V30 2861 H 268.089 2.02818 -0.269421 0
M  V30 2862 H 268.099 3.84243 1.37191 0
M  V30 2863 H 266.774 4.15077 0.261572 0
M  V30 2864 H 265.351 3.23807 1.84942 0
M  V30 2865 N 267.536 -0.106894 1.57237 0
M  V30 2866 C 268.782 -0.808678 1.86633 0
M  V30 2867 C 269.137 -1.76917 0.756178 0
M  V30 2868 O 268.43 -1.90055 -0.242834 0
M  V30 2869 C 268.624 -1.58628 3.20268 0
M  V30 2870 C 268.453 -0.702592 4.44178 0
M  V30 2871 C 267.223 -0.352808 5.04067 0
M  V30 2872 C 269.421 -0.0148031 5.14298 0
M  V30 2873 N 267.403 0.540279 6.11518 0
M  V30 2874 C 268.774 0.736809 6.15606 0
M  V30 2875 C 270.829 0.0603524 4.97863 0
M  V30 2876 C 269.532 1.55654 7.02257 0
M  V30 2877 C 271.558 0.866942 5.85011 0
M  V30 2878 C 270.92 1.60671 6.85831 0
M  V30 2879 H 267.019 -0.27246 0.733001 0
M  V30 2880 H 269.603 -0.0717858 1.94568 0
M  V30 2881 H 267.774 -2.29413 3.13408 0
M  V30 2882 H 269.506 -2.23434 3.3743 0
M  V30 2883 H 266.261 -0.697802 4.68431 0
M  V30 2884 H 266.685 0.979029 6.69884 0
M  V30 2885 H 271.327 -0.497236 4.19866 0
M  V30 2886 H 269.045 2.12524 7.79653 0
M  V30 2887 H 272.631 0.927612 5.74358 0
M  V30 2888 H 271.511 2.2208 7.52097 0
M  V30 2889 N 269.014 -1.53014 -0.377408 0
M  V30 2890 C 270.242 -1.72515 -1.14219 0
M  V30 2891 C 270.657 -0.448735 -1.8339 0
M  V30 2892 O 270.014 0.577592 -1.73119 0
M  V30 2893 C 270.065 -2.8826 -2.18148 0
M  V30 2894 O 269.786 -4.10962 -1.51795 0
M  V30 2895 C 271.287 -3.19536 -3.07264 0
M  V30 2896 H 268.507 -0.577301 -0.342001 0
M  V30 2897 H 271.051 -1.99712 -0.439935 0
M  V30 2898 H 269.206 -2.63492 -2.83991 0
M  V30 2899 H 269.62 -4.75693 -2.20945 0
M  V30 2900 H 271.094 -4.03959 -3.76193 0
M  V30 2901 H 271.571 -2.34403 -3.71419 0
M  V30 2902 H 272.177 -3.46186 -2.47053 0
M  V30 2903 N 270.492 0.636531 -1.44174 0
M  V30 2904 C 271.455 1.73063 -1.50273 0
M  V30 2905 C 272.455 1.56113 -0.385397 0
M  V30 2906 O 273.645 1.61707 -0.64781 0
M  V30 2907 C 270.777 3.12096 -1.37145 0
M  V30 2908 H 271.97 1.69031 -2.47727 0
M  V30 2909 H 269.523 0.849706 -1.31186 0
M  V30 2910 H 270.258 3.21728 -0.407636 0
M  V30 2911 H 270.043 3.25805 -2.18159 0
M  V30 2912 H 271.533 3.91846 -1.44382 0
M  V30 2913 N 271.97 1.30982 0.876444 0
M  V30 2914 C 272.88 1.2003 2.01569 0
M  V30 2915 C 273.896 0.11838 1.73597 0
M  V30 2916 O 275.072 0.33495 1.98595 0
M  V30 2917 C 272.137 0.901637 3.34771 0
M  V30 2918 C 271.198 2.06979 3.76109 0
M  V30 2919 C 270.431 1.78529 5.02954 0
M  V30 2920 O 270.654 0.717296 5.65872 0
M  V30 2921 O 269.588 2.64019 5.40905 0
M  V30 2922 H 273.414 2.15753 2.13739 0
M  V30 2923 H 270.999 1.10658 1.00375 0
M  V30 2924 H 272.881 0.750645 4.1466 0
M  V30 2925 H 271.556 -0.0256141 3.2369 0
M  V30 2926 H 270.463 2.27616 2.96887 0
M  V30 2927 H 271.796 2.97907 3.91807 0
M  V30 2928 N 273.449 -1.08991 1.13837 0
M  V30 2929 C 274.396 -2.15748 0.819835 0
M  V30 2930 C 275.366 -1.64636 -0.220026 0
M  V30 2931 O 276.551 -1.90582 -0.0912757 0
M  V30 2932 C 273.691 -3.4382 0.296913 0
M  V30 2933 C 272.804 -4.0881 1.39636 0
M  V30 2934 C 271.939 -5.24655 0.831314 0
M  V30 2935 C 270.978 -5.81575 1.90886 0
M  V30 2936 N 270.115 -6.88774 1.36142 0
M  V30 2937 H 274.955 -2.42338 1.73426 0
M  V30 2938 H 272.492 -1.18935 0.865613 0
M  V30 2939 H 274.45 -4.17193 -0.0244339 0
M  V30 2940 H 273.08 -3.17535 -0.580628 0
M  V30 2941 H 272.132 -3.33258 1.83422 0
M  V30 2942 H 273.444 -4.47141 2.21058 0
M  V30 2943 H 272.598 -6.04942 0.461515 0
M  V30 2944 H 271.337 -4.87698 -0.013932 0
M  V30 2945 H 270.342 -4.99946 2.28767 0
M  V30 2946 H 271.567 -6.20592 2.75758 0
M  V30 2947 H 269.513 -6.53788 0.538254 0
M  V30 2948 H 269.43 -7.25898 2.11208 0
M  V30 2949 H 270.698 -7.72806 1.01933 0
M  V30 2950 N 274.927 -0.932562 -1.27047 0
M  V30 2951 C 275.89 -0.440064 -2.24936 0
M  V30 2952 C 276.89 0.444071 -1.54547 0
M  V30 2953 O 278.08 0.244465 -1.72476 0
M  V30 2954 C 275.212 0.36678 -3.38921 0
M  V30 2955 H 276.405 -1.305 -2.70018 0
M  V30 2956 H 273.958 -0.713707 -1.39054 0
M  V30 2957 H 274.693 1.25033 -2.99228 0
M  V30 2958 H 274.478 -0.267204 -3.91188 0
M  V30 2959 H 275.968 0.701567 -4.11665 0
M  V30 2960 N 276.405 1.4127 -0.698611 0
M  V30 2961 C 277.654 2.00408 -0.227949 0
M  V30 2962 C 277.967 1.55981 1.18023 0
M  V30 2963 O 279.173 2.07699 1.74852 0
M  V30 2964 C 277.629 3.58129 -0.356636 0
M  V30 2965 C 277.237 4.11536 -1.77037 0
M  V30 2966 C 278.981 4.24466 0.0540969 0
M  V30 2967 C 276.888 5.61701 -1.85055 0
M  V30 2968 H 275.818 0.749586 -0.0814657 0
M  V30 2969 H 278.469 1.61713 -0.867249 0
M  V30 2970 H 276.851 3.94442 0.350965 0
M  V30 2971 H 278.025 3.86636 -2.50698 0
M  V30 2972 H 276.34 3.57736 -2.13105 0
M  V30 2973 H 278.937 5.34698 0.0146723 0
M  V30 2974 H 279.28 4.01687 1.09332 0
M  V30 2975 H 279.813 3.93198 -0.603337 0
M  V30 2976 H 276.552 5.89312 -2.8704 0
M  V30 2977 H 276.072 5.88519 -1.15783 0
M  V30 2978 H 277.751 6.26524 -1.61484 0
M  V30 2979 N 277.883 0.443576 1.51229 0
M  V30 2980 C 278.846 -0.353132 2.26463 0
M  V30 2981 C 279.846 -0.944338 1.3015 0
M  V30 2982 O 281.036 -0.817813 1.5381 0
M  V30 2983 C 278.168 -1.50023 3.06114 0
M  V30 2984 H 279.361 0.3063 2.98332 0
M  V30 2985 H 276.914 0.196902 1.55055 0
M  V30 2986 H 277.649 -2.19553 2.38677 0
M  V30 2987 H 277.434 -1.08241 3.76864 0
M  V30 2988 H 278.924 -2.06296 3.63087 0
M  V30 2989 N 279.361 -1.56624 0.175154 0
M  V30 2990 C 280.293 -2.15333 -0.785128 0
M  V30 2991 C 281.306 -1.1099 -1.19101 0
M  V30 2992 O 282.495 -1.38162 -1.13019 0
M  V30 2993 C 279.595 -2.68427 -2.06882 0
M  V30 2994 C 278.768 -3.97466 -1.8259 0
M  V30 2995 C 277.827 -4.35585 -2.95215 0
M  V30 2996 O 276.853 -5.03389 -2.65684 0
M  V30 2997 N 278.055 -3.97457 -4.23094 0
M  V30 2998 H 280.82 -2.98359 -0.283187 0
M  V30 2999 H 278.381 -1.61898 -0.00749817 0
M  V30 3000 H 280.373 -2.90924 -2.81328 0
M  V30 3001 H 278.943 -1.89968 -2.48256 0
M  V30 3002 H 278.163 -3.83307 -0.920287 0
M  V30 3003 H 279.451 -4.81736 -1.63733 0
M  V30 3004 H 278.849 -3.42878 -4.49945 0
M  V30 3005 H 277.406 -4.24947 -4.9423 0
M  V30 3006 N 280.839 0.0985539 -1.57292 0
M  V30 3007 C 281.769 1.12064 -2.04851 0
M  V30 3008 C 282.75 1.41981 -0.936767 0
M  V30 3009 O 283.935 1.52071 -1.20781 0
M  V30 3010 C 281.065 2.44144 -2.47004 0
M  V30 3011 C 280.019 2.28643 -3.6181 0
M  V30 3012 C 279.345 3.65869 -3.89929 0
M  V30 3013 C 280.645 1.72986 -4.92822 0
M  V30 3014 H 282.339 0.724979 -2.9049 0
M  V30 3015 H 279.885 0.34729 -1.39749 0
M  V30 3016 H 281.838 3.15914 -2.78884 0
M  V30 3017 H 280.562 2.85639 -1.5836 0
M  V30 3018 H 279.221 1.59318 -3.30172 0
M  V30 3019 H 278.869 4.04885 -2.98458 0
M  V30 3020 H 278.569 3.56344 -4.67218 0
M  V30 3021 H 280.093 4.39112 -4.2428 0
M  V30 3022 H 281.507 2.34593 -5.23105 0
M  V30 3023 H 279.904 1.74229 -5.74251 0
M  V30 3024 H 280.974 0.689007 -4.7998 0
M  V30 3025 N 282.317 1.53212 0.369288 0
M  V30 3026 C 283.265 1.80054 1.47253 0
M  V30 3027 C 284.259 0.669456 1.55611 0
M  V30 3028 O 285.465 0.852328 1.58541 0
M  V30 3029 H 281.84 0.570034 0.490475 0
M  V30 3030 H 283.811 2.72403 1.21817 0
M  V30 3031 C 282.56 2.00403 2.84137 0
M  V30 3032 H 281.883 2.86876 2.78464 0
M  V30 3033 H 283.323 2.23164 3.60519 0
M  V30 3034 C 281.782 0.782081 3.27697 0
M  V30 3035 O 282.312 -0.0310205 4.01688 0
M  V30 3036 N 280.518 0.606573 2.84199 0
M  V30 3037 H 280.065 1.26939 2.24152 0
M  V30 3038 H 280.023 -0.20962 3.137 0
M  V30 3039 N 283.795 -0.628877 1.44509 0
M  V30 3040 C 285.02 -1.42048 1.5112 0
M  V30 3041 C 285.445 -1.87594 0.137818 0
M  V30 3042 O 284.803 -1.58873 -0.873437 0
M  V30 3043 C 284.851 -2.61541 2.48251 0
M  V30 3044 O 283.955 -3.61453 1.98559 0
M  V30 3045 H 283.296 -0.424942 0.510216 0
M  V30 3046 H 285.826 -0.767374 1.89664 0
M  V30 3047 H 285.836 -3.09057 2.66361 0
M  V30 3048 H 284.511 -2.27736 3.48007 0
M  V30 3049 H 283.088 -3.20731 1.90227 0
M  V30 3050 N 285.273 -1.31445 -0.869486 0
M  V30 3051 C 286.22 -1.19135 -1.97675 0
M  V30 3052 C 287.19 -0.0770266 -1.65921 0
M  V30 3053 O 288.375 -0.249972 -1.89155 0
M  V30 3054 C 285.515 -0.905149 -3.33018 0
M  V30 3055 C 284.628 -2.10285 -3.77365 0
M  V30 3056 C 283.763 -1.75339 -5.01427 0
M  V30 3057 C 282.802 -2.91515 -5.38224 0
M  V30 3058 N 281.939 -2.56762 -6.53466 0
M  V30 3059 H 286.779 -2.13853 -2.07535 0
M  V30 3060 H 284.316 -1.06379 -1.01597 0
M  V30 3061 H 286.274 -0.719765 -4.10944 0
M  V30 3062 H 284.904 0.00519624 -3.228 0
M  V30 3063 H 283.956 -2.39899 -2.95216 0
M  V30 3064 H 285.268 -2.97237 -4.00564 0
M  V30 3065 H 284.422 -1.53266 -5.87022 0
M  V30 3066 H 283.161 -0.855801 -4.80133 0
M  V30 3067 H 282.166 -3.14237 -4.51149 0
M  V30 3068 H 283.391 -3.81985 -5.61484 0
M  V30 3069 H 281.337 -1.69526 -6.33717 0
M  V30 3070 H 281.254 -3.37243 -6.76612 0
M  V30 3071 H 282.522 -2.38083 -7.42251 0
M  V30 3072 N 286.751 1.08385 -1.14413 0
M  V30 3073 C 287.981 1.8425 -0.934644 0
M  V30 3074 C 288.389 1.81907 0.520234 0
M  V30 3075 O 287.732 1.22126 1.37226 0
M  V30 3076 C 287.794 3.32853 -1.35828 0
M  V30 3077 C 287.458 3.5893 -2.82875 0
M  V30 3078 C 288.455 3.53756 -3.80989 0
M  V30 3079 C 286.14 3.86934 -3.20293 0
M  V30 3080 C 288.134 3.76216 -5.14529 0
M  V30 3081 C 285.821 4.09047 -4.54008 0
M  V30 3082 C 286.819 4.03682 -5.50936 0
M  V30 3083 O 286.507 4.25214 -6.82238 0
M  V30 3084 H 286.239 0.588502 -0.332628 0
M  V30 3085 H 288.793 1.37792 -1.52324 0
M  V30 3086 H 287.023 3.8007 -0.713019 0
M  V30 3087 H 288.712 3.90154 -1.11957 0
M  V30 3088 H 289.478 3.32135 -3.53428 0
M  V30 3089 H 285.357 3.9023 -2.45442 0
M  V30 3090 H 288.901 3.71943 -5.90173 0
M  V30 3091 H 284.798 4.30151 -4.8129 0
M  V30 3092 H 285.566 4.42619 -6.88499 0
M  V30 3093 N 288.23 0.939286 1.26551 0
M  V30 3094 C 289.478 0.58469 1.93457 0
M  V30 3095 C 289.799 -0.878774 1.74076 0
M  V30 3096 O 289.069 -1.62421 1.09528 0
M  V30 3097 H 287.649 0.21325 0.715914 0
M  V30 3098 H 290.311 1.1942 1.54029 0
M  V30 3099 H 289.407 0.800849 3.0165 0
M  V30 3100 N 289.708 -1.40897 0.706093 0
M  V30 3101 C 290.655 -2.30751 0.0474474 0
M  V30 3102 C 291.625 -1.47678 -0.76029 0
M  V30 3103 O 292.81 -1.76441 -0.726177 0
M  V30 3104 C 289.95 -3.33815 -0.875309 0
M  V30 3105 C 289.063 -4.31961 -0.0580623 0
M  V30 3106 C 288.198 -5.22093 -0.979425 0
M  V30 3107 C 287.237 -6.11902 -0.155706 0
M  V30 3108 N 286.374 -6.94482 -1.03144 0
M  V30 3109 H 291.214 -2.86513 0.819413 0
M  V30 3110 H 288.751 -1.41102 0.415783 0
M  V30 3111 H 290.709 -3.92129 -1.42446 0
M  V30 3112 H 289.339 -2.79579 -1.61356 0
M  V30 3113 H 288.391 -3.75507 0.608147 0
M  V30 3114 H 289.703 -4.95415 0.580082 0
M  V30 3115 H 288.857 -5.85292 -1.59744 0
M  V30 3116 H 287.596 -4.5889 -1.65141 0
M  V30 3117 H 286.601 -5.47742 0.475309 0
M  V30 3118 H 287.826 -6.77162 0.512635 0
M  V30 3119 H 285.772 -6.33877 -1.68924 0
M  V30 3120 H 285.689 -7.54665 -0.449108 0
M  V30 3121 H 286.957 -7.6214 -1.63593 0
M  V30 3122 N 291.186 -0.45159 -1.50991 0
M  V30 3123 C 292.133 0.352625 -2.2809 0
M  V30 3124 C 293.103 1.0044 -1.32291 0
M  V30 3125 O 294.288 1.02058 -1.6121 0
M  V30 3126 C 291.428 1.43983 -3.13629 0
M  V30 3127 C 290.541 0.804772 -4.24438 0
M  V30 3128 C 289.676 1.86822 -4.97263 0
M  V30 3129 C 288.715 1.21236 -5.99973 0
M  V30 3130 N 287.852 2.2178 -6.66152 0
M  V30 3131 H 292.692 -0.311186 -2.96371 0
M  V30 3132 H 290.229 -0.165308 -1.46168 0
M  V30 3133 H 292.187 2.08161 -3.61559 0
M  V30 3134 H 290.817 2.07307 -2.47434 0
M  V30 3135 H 289.869 0.0509129 -3.80366 0
M  V30 3136 H 291.181 0.286076 -4.97979 0
M  V30 3137 H 290.335 2.58628 -5.48813 0
M  V30 3138 H 289.074 2.42068 -4.23385 0
M  V30 3139 H 288.079 0.479828 -5.47702 0
M  V30 3140 H 289.304 0.667051 -6.75816 0
M  V30 3141 H 287.25 2.76079 -5.95077 0
M  V30 3142 H 287.167 1.74841 -7.35504 0
M  V30 3143 H 288.435 2.93026 -7.22327 0
M  V30 3144 N 292.664 1.56529 -0.183458 0
M  V30 3145 C 293.91 1.97537 0.459036 0
M  V30 3146 C 294.243 1.06989 1.62071 0
M  V30 3147 O 293.518 0.11948 1.94133 0
M  V30 3148 C 293.801 3.47874 0.930368 0
M  V30 3149 C 293.654 4.492 -0.232317 0
M  V30 3150 C 294.973 4.01612 1.79989 0
M  V30 3151 H 292.092 0.718204 0.165383 0
M  V30 3152 H 294.734 1.88042 -0.272038 0
M  V30 3153 H 292.884 3.56095 1.55333 0
M  V30 3154 H 294.556 4.53027 -0.86972 0
M  V30 3155 H 292.799 4.24657 -0.885928 0
M  V30 3156 H 293.47 5.51823 0.139796 0
M  V30 3157 H 295.946 3.96097 1.27461 0
M  V30 3158 H 294.822 5.07195 2.09867 0
M  V30 3159 H 295.083 3.46163 2.74998 0
M  V30 3160 N 294.142 -0.090211 1.57342 0
M  V30 3161 C 295.072 -1.10976 2.05443 0
M  V30 3162 C 296.053 -1.41482 0.944284 0
M  V30 3163 O 297.238 -1.51428 1.21586 0
M  V30 3164 C 294.368 -2.42831 2.48295 0
M  V30 3165 C 293.322 -2.26721 3.63018 0
M  V30 3166 C 292.648 -3.63796 3.91863 0
M  V30 3167 C 293.948 -1.7037 4.93732 0
M  V30 3168 H 295.642 -0.709564 2.9087 0
M  V30 3169 H 293.188 -0.339874 1.39932 0
M  V30 3170 H 295.141 -3.14431 2.80555 0
M  V30 3171 H 293.865 -2.84795 1.59873 0
M  V30 3172 H 292.524 -1.57565 3.31012 0
M  V30 3173 H 292.172 -4.03297 3.00601 0
M  V30 3174 H 291.872 -3.53861 4.69101 0
M  V30 3175 H 293.396 -4.36855 4.26603 0
M  V30 3176 H 294.81 -2.31816 5.24342 0
M  V30 3177 H 293.207 -1.71181 5.75167 0
M  V30 3178 H 294.277 -0.663542 4.80339 0
M  V30 3179 N 295.62 -1.53406 -0.361157 0
M  V30 3180 C 296.869 -1.69022 -1.10066 0
M  V30 3181 C 297.182 -0.450838 -1.90333 0
M  V30 3182 O 298.388 -0.487617 -2.67085 0
M  V30 3183 C 296.844 -2.98812 -2.00598 0
M  V30 3184 C 296.452 -4.30027 -1.25621 0
M  V30 3185 C 298.196 -3.23795 -2.74513 0
M  V30 3186 C 296.103 -5.50903 -2.1508 0
M  V30 3187 H 295.033 -0.629776 -0.414606 0
M  V30 3188 H 297.684 -1.79907 -0.361348 0
M  V30 3189 H 296.066 -2.8174 -2.78278 0
M  V30 3190 H 297.24 -4.57745 -0.529739 0
M  V30 3191 H 295.555 -4.11522 -0.635496 0
M  V30 3192 H 298.152 -4.11289 -3.41681 0
M  V30 3193 H 298.495 -2.40045 -3.40123 0
M  V30 3194 H 299.028 -3.41561 -2.03914 0
M  V30 3195 H 295.767 -6.37143 -1.54041 0
M  V30 3196 H 295.287 -5.27459 -2.85565 0
M  V30 3197 H 296.966 -5.85865 -2.74538 0
M  V30 3198 N 297.098 0.621204 -1.44841 0
M  V30 3199 C 298.046 1.75385 -1.52784 0
M  V30 3200 C 299.04 1.64639 -0.398779 0
M  V30 3201 O 300.246 1.70598 -0.574137 0
M  V30 3202 H 296.621 0.579193 -0.479625 0
M  V30 3203 H 298.592 1.6581 -2.48092 0
M  V30 3204 C 297.341 3.13742 -1.4987 0
M  V30 3205 H 296.664 3.22663 -2.36069 0
M  V30 3206 H 298.104 3.92861 -1.59487 0
M  V30 3207 C 296.563 3.36175 -0.220973 0
M  V30 3208 O 297.093 3.95469 0.704782 0
M  V30 3209 N 295.299 2.90348 -0.120963 0
M  V30 3210 H 294.846 2.42278 -0.875162 0
M  V30 3211 H 294.804 3.05732 0.733168 0
M  V30 3212 N 298.576 1.31904 0.862503 0
M  V30 3213 C 299.506 1.22782 1.98612 0
M  V30 3214 C 300.487 0.113362 1.69722 0
M  V30 3215 O 301.672 0.299218 1.91881 0
M  V30 3216 C 298.802 0.942058 3.34279 0
M  V30 3217 C 297.756 2.0169 3.77499 0
M  V30 3218 C 297.082 1.58369 5.10709 0
M  V30 3219 C 298.382 3.43096 3.93805 0
M  V30 3220 H 300.076 2.16788 2.06502 0
M  V30 3221 H 297.622 1.04366 0.992154 0
M  V30 3222 H 299.575 0.864818 4.1243 0
M  V30 3223 H 298.299 -0.0336603 3.26583 0
M  V30 3224 H 296.958 2.08416 3.01593 0
M  V30 3225 H 296.606 0.595628 4.99461 0
M  V30 3226 H 296.306 2.30279 5.40597 0
M  V30 3227 H 297.83 1.52067 5.91361 0
M  V30 3228 H 299.244 3.39003 4.62331 0
M  V30 3229 H 297.641 4.13288 4.35101 0
M  V30 3230 H 298.711 3.83334 2.96957 0
M  V30 3231 N 300.054 -1.07777 1.14986 0
M  V30 3232 C 301.301 -1.8029 0.922056 0
M  V30 3233 C 301.629 -1.86531 -0.55105 0
M  V30 3234 O 300.884 -1.34189 -1.42449 0
M  V30 3235 C 301.183 -3.25495 1.47608 0
M  V30 3236 C 300.849 -3.39361 2.96893 0
M  V30 3237 C 299.511 -3.42852 3.37647 0
M  V30 3238 C 301.863 -3.42512 3.92854 0
M  V30 3239 C 299.191 -3.47094 4.73015 0
M  V30 3240 C 301.543 -3.4829 5.28088 0
M  V30 3241 C 300.207 -3.50058 5.68345 0
M  V30 3242 H 299.477 -0.659727 0.337404 0
M  V30 3243 H 302.124 -1.26854 1.43459 0
M  V30 3244 H 300.429 -3.81683 0.88463 0
M  V30 3245 H 302.126 -3.80168 1.27568 0
M  V30 3246 H 298.716 -3.37339 2.64387 0
M  V30 3247 H 302.9 -3.3904 3.62444 0
M  V30 3248 H 298.156 -3.46758 5.03556 0
M  V30 3249 H 302.33 -3.49675 6.02246 0
M  V30 3250 H 299.957 -3.53097 6.73221 0
M  V30 3251 N 301.532 -0.945985 -1.26051 0
M  V30 3252 C 302.778 -0.597002 -1.93814 0
M  V30 3253 C 303.111 0.862484 -1.73997 0
M  V30 3254 O 302.386 1.61769 -1.07986 0
M  V30 3255 C 302.669 -0.945937 -3.47454 0
M  V30 3256 C 302.522 -2.46052 -3.76535 0
M  V30 3257 C 303.841 -0.464785 -4.37639 0
M  V30 3258 H 300.96 -0.218366 -0.703907 0
M  V30 3259 H 303.602 -1.18107 -1.48831 0
M  V30 3260 H 301.752 -0.448902 -3.85898 0
M  V30 3261 H 303.424 -3.03065 -3.47778 0
M  V30 3262 H 301.667 -2.90194 -3.22444 0
M  V30 3263 H 302.338 -2.65517 -4.83947 0
M  V30 3264 H 304.814 -0.891016 -4.06448 0
M  V30 3265 H 303.69 -0.737712 -5.4392 0
M  V30 3266 H 303.951 0.635274 -4.37512 0
M  V30 3267 N 303.011 1.40521 -0.713556 0
M  V30 3268 C 304.259 2.00527 -0.251692 0
M  V30 3269 C 304.58 1.56857 1.15848 0
M  V30 3270 O 303.85 0.807127 1.785 0
M  V30 3271 H 302.43 0.741551 -0.0900646 0
M  V30 3272 H 305.092 1.71887 -0.918733 0
M  V30 3273 H 304.188 3.10813 -0.283192 0
M  V30 3274 N 304.489 0.459591 1.5075 0
M  V30 3275 C 305.717 -0.0973749 2.06671 0
M  V30 3276 C 306.132 -1.34524 1.32472 0
M  V30 3277 O 305.489 -1.7827 0.390634 0
M  V30 3278 C 305.54 -0.39714 3.59312 0
M  V30 3279 O 305.261 0.801214 4.30711 0
M  V30 3280 C 306.762 -1.00234 4.31819 0
M  V30 3281 H 303.982 0.00195854 0.670997 0
M  V30 3282 H 306.526 0.645072 1.94059 0
M  V30 3283 H 304.681 -1.08951 3.71764 0
M  V30 3284 H 305.095 0.538857 5.21725 0
M  V30 3285 H 306.569 -1.16193 5.39632 0
M  V30 3286 H 307.046 -1.98939 3.91561 0
M  V30 3287 H 307.652 -0.348699 4.23868 0
M  V30 3288 N 305.967 -1.56429 0.191757 0
M  V30 3289 C 307.244 -1.89224 -0.495332 0
M  V30 3290 C 307.624 -1.10478 -1.79883 0
M  V30 3291 O 306.972 -0.204852 -2.2758 0
M  V30 3292 C 307.182 -3.41548 -0.717367 0
M  V30 3293 C 308.53 -4.11711 -1.03823 0
M  V30 3294 O 309.554 -3.4698 -0.805204 0
M  V30 3295 O 308.413 -5.2611 -1.47887 0
M  V30 3296 H 305.507 -0.785788 -0.25781 0
M  V30 3297 H 308.053 -1.68111 0.231721 0
M  V30 3298 H 306.825 -3.90772 0.203287 0
M  V30 3299 H 306.448 -3.68342 -1.497 0
M  V30 3300 N 307.445 0.0818655 -1.57387 0
M  V30 3301 C 308.722 0.815343 -1.77796 0
M  V30 3302 C 309.102 1.96289 -0.77679 0
M  V30 3303 O 308.45 2.27691 0.192106 0
M  V30 3304 C 308.66 1.29765 -3.23978 0
M  V30 3305 C 310.008 1.7351 -3.8753 0
M  V30 3306 O 311.032 1.39356 -3.27808 0
M  V30 3307 O 309.891 2.36708 -4.92576 0
M  V30 3308 H 306.985 0.389914 -0.729312 0
M  V30 3309 H 309.531 0.0627213 -1.69584 0
M  V30 3310 H 308.303 0.47608 -3.88393 0
M  V30 3311 H 307.926 2.11189 -3.36875 0
M  V30 3312 N 308.923 1.53595 0.353017 0
M  V30 3313 C 309.87 1.80919 1.43308 0
M  V30 3314 C 310.84 0.654288 1.5267 0
M  V30 3315 O 312.025 0.897759 1.6836 0
M  V30 3316 C 309.165 2.01605 2.80089 0
M  V30 3317 C 308.278 3.29321 2.79593 0
M  V30 3318 C 307.413 3.40125 4.0803 0
M  V30 3319 C 306.452 4.61826 4.01725 0
M  V30 3320 N 305.589 4.69716 5.21834 0
M  V30 3321 H 310.429 2.73074 1.19308 0
M  V30 3322 H 307.966 1.35263 0.578131 0
M  V30 3323 H 309.924 2.11586 3.59565 0
M  V30 3324 H 308.554 1.12772 3.0246 0
M  V30 3325 H 307.606 3.28229 1.92276 0
M  V30 3326 H 308.918 4.18884 2.70809 0
M  V30 3327 H 308.072 3.49488 4.95927 0
M  V30 3328 H 306.811 2.48601 4.19582 0
M  V30 3329 H 305.816 4.52552 3.12213 0
M  V30 3330 H 307.041 5.54705 3.91764 0
M  V30 3331 H 304.987 3.81097 5.33948 0
M  V30 3332 H 304.904 5.53202 5.1527 0
M  V30 3333 H 306.172 4.83376 6.11529 0
M  V30 3334 N 310.401 -0.613514 1.45168 0
M  V30 3335 C 311.349 -1.74572 1.53712 0
M  V30 3336 C 312.343 -1.64426 0.407505 0
M  V30 3337 O 313.549 -1.70291 0.583176 0
M  V30 3338 H 309.924 -0.576641 0.48269 0
M  V30 3339 H 311.895 -1.64492 2.48968 0
M  V30 3340 C 310.644 -3.12943 1.51532 0
M  V30 3341 H 309.967 -3.21407 2.37776 0
M  V30 3342 H 311.407 -3.9201 1.61569 0
M  V30 3343 C 309.866 -3.36053 0.238798 0
M  V30 3344 O 310.396 -3.95837 -0.6838 0
M  V30 3345 N 308.602 -2.9028 0.136359 0
M  V30 3346 H 308.149 -2.41811 0.887999 0
M  V30 3347 H 308.107 -3.06116 -0.716944 0
M  V30 3348 N 311.879 -1.3236 -0.855495 0
M  V30 3349 C 313.104 -1.2601 -1.64731 0
M  V30 3350 C 313.529 0.169068 -1.87339 0
M  V30 3351 O 312.887 1.12016 -1.42556 0
M  V30 3352 C 312.935 -2.02417 -2.98429 0
M  V30 3353 O 312.039 -1.3714 -3.8893 0
M  V30 3354 H 311.38 -0.434325 -0.502253 0
M  V30 3355 H 313.91 -1.74661 -1.06558 0
M  V30 3356 H 313.92 -2.12559 -3.48257 0
M  V30 3357 H 312.595 -3.06343 -2.81295 0
M  V30 3358 H 311.172 -1.3554 -3.47395 0
M  V30 3359 N 313.357 1.07166 -1.15556 0
M  V30 3360 C 314.603 1.80065 -0.932984 0
M  V30 3361 C 314.936 1.86586 0.53845 0
M  V30 3362 O 314.211 1.35098 1.39924 0
M  V30 3363 C 314.494 3.25022 -1.55025 0
M  V30 3364 C 314.347 3.26634 -3.09242 0
M  V30 3365 C 315.666 4.22341 -1.2376 0
M  V30 3366 H 312.785 0.653697 -0.340366 0
M  V30 3367 H 315.427 1.25389 -1.4275 0
M  V30 3368 H 313.577 3.71712 -1.12972 0
M  V30 3369 H 315.249 2.88173 -3.60214 0
M  V30 3370 H 313.492 2.65539 -3.43033 0
M  V30 3371 H 314.163 4.28854 -3.47546 0
M  V30 3372 H 316.639 3.8405 -1.60139 0
M  V30 3373 H 315.515 5.22053 -1.69564 0
M  V30 3374 H 315.776 4.41828 -0.154938 0
M  V30 3375 N 314.835 0.952656 1.25548 0
M  V30 3376 C 315.783 0.462354 2.27958 0
M  V30 3377 C 316.777 -0.46634 1.62855 0
M  V30 3378 O 317.983 -0.343287 1.76696 0
M  V30 3379 H 314.358 0.13101 0.7405 0
M  V30 3380 H 316.329 1.33839 2.66702 0
M  V30 3381 C 315.078 -0.24628 3.46827 0
M  V30 3382 H 314.401 0.459192 3.97154 0
M  V30 3383 H 315.841 -0.553393 4.20373 0
M  V30 3384 C 314.3 -1.4681 3.0323 0
M  V30 3385 O 314.83 -2.56591 3.09069 0
M  V30 3386 N 313.036 -1.32874 2.58443 0
M  V30 3387 H 312.583 -0.435536 2.53891 0
M  V30 3388 H 312.541 -2.14742 2.29637 0
M  V30 3389 N 316.313 -1.40141 0.720998 0
M  V30 3390 C 317.263 -2.27949 0.0482544 0
M  V30 3391 C 318.247 -1.43538 -0.727021 0
M  V30 3392 O 319.439 -1.6658 -0.598332 0
M  V30 3393 C 316.568 -3.32126 -0.868729 0
M  V30 3394 C 315.654 -4.24008 -0.0883515 0
M  V30 3395 N 316.045 -4.97154 0.931226 0
M  V30 3396 C 314.343 -4.4485 -0.320105 0
M  V30 3397 C 315.044 -5.64587 1.4006 0
M  V30 3398 N 314.02 -5.38787 0.721752 0
M  V30 3399 H 317.822 -2.81948 0.829609 0
M  V30 3400 H 315.336 -1.52656 0.554067 0
M  V30 3401 H 317.333 -3.93884 -1.36605 0
M  V30 3402 H 315.993 -2.79687 -1.6494 0
M  V30 3403 H 317.004 -5.01 1.31222 0
M  V30 3404 H 313.681 -4.03378 -1.07668 0
M  V30 3405 H 315.071 -6.33175 2.24808 0
M  V30 3406 N 317.792 -0.46758 -1.50504 0
M  V30 3407 C 319.038 0.0887532 -2.02606 0
M  V30 3408 C 319.371 1.39686 -1.34913 0
M  V30 3409 O 318.646 1.88644 -0.473694 0
M  V30 3410 C 318.929 0.276206 -3.59039 0
M  V30 3411 C 318.782 -1.05267 -4.37309 0
M  V30 3412 C 320.101 1.03235 -4.27821 0
M  V30 3413 H 317.22 0.0307814 -0.736357 0
M  V30 3414 H 319.862 -0.612485 -1.79857 0
M  V30 3415 H 318.012 0.8735 -3.78553 0
M  V30 3416 H 319.684 -1.68628 -4.29374 0
M  V30 3417 H 317.927 -1.65015 -4.01189 0
M  V30 3418 H 318.598 -0.875197 -5.45018 0
M  V30 3419 H 321.074 0.526111 -4.12761 0
M  V30 3420 H 319.95 1.1323 -5.37094 0
M  V30 3421 H 320.211 2.06806 -3.90748 0
M  V30 3422 N 319.27 1.56325 -0.20005 0
M  V30 3423 C 320.519 1.96895 0.437652 0
M  V30 3424 C 320.832 1.08999 1.62415 0
M  V30 3425 O 322.038 1.39372 2.32997 0
M  V30 3426 C 320.494 3.50198 0.830025 0
M  V30 3427 C 320.102 4.46765 -0.332461 0
M  V30 3428 C 321.846 3.99526 1.43453 0
M  V30 3429 C 319.753 5.91344 0.0811468 0
M  V30 3430 H 318.683 0.735209 0.167282 0
M  V30 3431 H 321.334 1.81148 -0.292853 0
M  V30 3432 H 319.716 3.61467 1.61734 0
M  V30 3433 H 320.89 4.47231 -1.11 0
M  V30 3434 H 319.205 4.07657 -0.848789 0
M  V30 3435 H 321.802 5.05025 1.75652 0
M  V30 3436 H 322.145 3.44122 2.34277 0
M  V30 3437 H 322.678 3.91393 0.71109 0
M  V30 3438 H 319.417 6.50685 -0.793033 0
M  V30 3439 H 318.937 5.94121 0.823445 0
M  V30 3440 H 320.616 6.44945 0.515252 0
M  V30 3441 N 320.748 -0.0735177 1.57428 0
M  V30 3442 C 321.698 -1.09442 2.00016 0
M  V30 3443 C 322.682 -1.34575 0.881947 0
M  V30 3444 O 323.874 -1.34905 1.14585 0
M  V30 3445 C 321.003 -2.40865 2.4462 0
M  V30 3446 C 320.089 -2.19014 3.63172 0
M  V30 3447 N 320.48 -1.67087 4.77405 0
M  V30 3448 C 318.778 -2.49494 3.69688 0
M  V30 3449 C 319.479 -1.6001 5.5926 0
M  V30 3450 N 318.455 -2.05999 5.03056 0
M  V30 3451 H 322.257 -0.686227 2.85776 0
M  V30 3452 H 319.771 -0.280617 1.59957 0
M  V30 3453 H 321.768 -3.14763 2.73368 0
M  V30 3454 H 320.428 -2.82403 1.60246 0
M  V30 3455 H 321.439 -1.35975 4.99731 0
M  V30 3456 H 318.116 -2.94409 2.96023 0
M  V30 3457 H 319.506 -1.2073 6.60964 0
M  V30 3458 N 322.226 -1.5378 -0.344866 0
M  V30 3459 C 323.475 -1.7018 -1.08267 0
M  V30 3460 C 323.788 -0.471 -1.89845 0
M  V30 3461 O 324.994 -0.515917 -2.66553 0
M  V30 3462 C 323.45 -3.00923 -1.97417 0
M  V30 3463 C 323.058 -4.31335 -1.21053 0
M  V30 3464 C 324.802 -3.26688 -2.71063 0
M  V30 3465 C 322.709 -5.53153 -2.09225 0
M  V30 3466 H 321.639 -0.634138 -0.407903 0
M  V30 3467 H 324.29 -1.8028 -0.342246 0
M  V30 3468 H 322.672 -2.84676 -2.75274 0
M  V30 3469 H 323.846 -4.58281 -0.481159 0
M  V30 3470 H 322.161 -4.12173 -0.591813 0
M  V30 3471 H 324.758 -4.1489 -3.37299 0
M  V30 3472 H 325.101 -2.43639 -3.37558 0
M  V30 3473 H 325.634 -3.43705 -2.0028 0
M  V30 3474 H 322.373 -6.38741 -1.47274 0
M  V30 3475 H 321.893 -5.30458 -2.79955 0
M  V30 3476 H 323.572 -5.88744 -2.68308 0
M  V30 3477 N 323.704 0.605807 -1.45491 0
M  V30 3478 C 324.981 1.36522 -1.40075 0
M  V30 3479 C 325.361 2.10976 -0.0722744 0
M  V30 3480 O 324.709 2.08007 0.945808 0
M  V30 3481 C 324.919 2.31056 -2.61561 0
M  V30 3482 C 326.267 2.93608 -3.06724 0
M  V30 3483 O 327.291 2.41376 -2.61946 0
M  V30 3484 O 326.15 3.88421 -3.84437 0
M  V30 3485 H 323.244 0.612248 -0.555951 0
M  V30 3486 H 325.79 0.628747 -1.57623 0
M  V30 3487 H 324.562 1.75311 -3.49831 0
M  V30 3488 H 324.185 3.12081 -2.46356 0
M  V30 3489 N 325.182 1.32811 0.848464 0
M  V30 3490 C 326.114 1.18095 1.96433 0
M  V30 3491 C 327.127 0.114354 1.62398 0
M  V30 3492 O 328.316 0.363892 1.74751 0
M  V30 3493 C 325.416 0.786798 3.2964 0
M  V30 3494 C 324.589 1.943 3.91875 0
M  V30 3495 C 323.648 1.53138 5.03423 0
M  V30 3496 O 322.674 2.24432 5.23086 0
M  V30 3497 N 323.876 0.430915 5.78898 0
M  V30 3498 H 326.641 2.14218 2.09597 0
M  V30 3499 H 324.202 1.2543 1.02367 0
M  V30 3500 H 326.194 0.493715 4.01677 0
M  V30 3501 H 324.764 -0.0834541 3.12489 0
M  V30 3502 H 323.984 2.40224 3.12547 0
M  V30 3503 H 325.272 2.71689 4.30189 0
M  V30 3504 H 324.67 -0.162333 5.65467 0
M  V30 3505 H 323.227 0.197466 6.51501 0
M  V30 3506 N 326.66 -1.06551 1.16123 0
M  V30 3507 C 328.071 -1.60768 0.949232 0
M  V30 3508 C 328.422 -1.89523 -0.507508 0
M  V30 3509 O 327.547 -1.66671 -1.38021 0
M  V30 3510 C 328.142 -2.92086 1.71671 0
M  V30 3511 C 326.701 -3.43015 1.54977 0
M  V30 3512 C 325.848 -2.16947 1.72711 0
M  V30 3513 H 328.799 -0.895354 1.31031 0
M  V30 3514 H 328.82 -3.6138 1.19099 0
M  V30 3515 H 328.332 -2.71127 2.7769 0
M  V30 3516 H 326.433 -3.69039 0.513873 0
M  V30 3517 H 326.546 -4.18516 2.33198 0
M  V30 3518 H 324.91 -2.27041 1.15431 0
M  V30 3519 H 325.693 -1.98473 2.80113 0
M  V30 3520 N 328.138 -0.959301 -1.25041 0
M  V30 3521 C 329.554 -0.664474 -1.4511 0
M  V30 3522 C 329.754 0.776481 -1.85938 0
M  V30 3523 O 328.81 1.55128 -1.99227 0
M  V30 3524 C 330.123 -1.64139 -2.5195 0
M  V30 3525 C 331.671 -1.65309 -2.65786 0
M  V30 3526 C 332.146 -2.61777 -3.75815 0
M  V30 3527 N 333.637 -2.60169 -3.83231 0
M  V30 3528 C 334.372 -3.31489 -4.6787 0
M  V30 3529 N 333.868 -4.12298 -5.56761 0
M  V30 3530 N 335.661 -3.20354 -4.61876 0
M  V30 3531 H 327.812 -1.89043 -0.968332 0
M  V30 3532 H 330.075 -0.813408 -0.4869 0
M  V30 3533 H 329.781 -2.67086 -2.28819 0
M  V30 3534 H 329.655 -1.40756 -3.49954 0
M  V30 3535 H 332.042 -0.630778 -2.8828 0
M  V30 3536 H 332.123 -1.92753 -1.68167 0
M  V30 3537 H 331.767 -3.64137 -3.54071 0
M  V30 3538 H 331.697 -2.31616 -4.72929 0
M  V30 3539 H 334.188 -2.01507 -3.19692 0
M  V30 3540 H 334.501 -4.63625 -6.18281 0
M  V30 3541 H 332.846 -4.16395 -5.56454 0
M  V30 3542 H 336.037 -2.56692 -3.91442 0
M  V30 3543 H 336.21 -3.76201 -5.27614 0
M  V30 3544 N 329.616 1.39756 -0.72842 0
M  V30 3545 C 330.546 2.33289 -0.0991354 0
M  V30 3546 C 331.527 1.53568 0.731489 0
M  V30 3547 O 332.712 1.81987 0.677807 0
M  V30 3548 C 329.842 3.3763 0.813834 0
M  V30 3549 C 328.796 4.2791 0.0878663 0
M  V30 3550 C 328.122 5.22894 1.11741 0
M  V30 3551 C 329.422 5.11314 -1.06563 0
M  V30 3552 H 331.116 2.86163 -0.880408 0
M  V30 3553 H 328.662 1.37591 -0.424819 0
M  V30 3554 H 330.615 4.0201 1.26355 0
M  V30 3555 H 329.339 2.83181 1.62715 0
M  V30 3556 H 327.998 3.65 -0.342159 0
M  V30 3557 H 327.646 4.64744 1.92412 0
M  V30 3558 H 327.346 5.84143 0.636477 0
M  V30 3559 H 328.87 5.90151 1.56697 0
M  V30 3560 H 330.284 5.69076 -0.694671 0
M  V30 3561 H 328.681 5.81671 -1.47577 0
M  V30 3562 H 329.751 4.46534 -1.89038 0
M  V30 3563 N 331.094 0.475555 1.50254 0
M  V30 3564 C 332.342 -0.077738 2.0195 0
M  V30 3565 C 332.663 -1.39813 1.35931 0
M  V30 3566 O 331.933 -1.89249 0.506123 0
M  V30 3567 H 330.513 -0.031719 0.746326 0
M  V30 3568 H 333.175 0.626995 1.84539 0
M  V30 3569 H 332.271 -0.225995 3.11281 0
M  V30 3570 N 332.573 -1.56217 0.208337 0
M  V30 3571 C 333.503 -2.22694 -0.702116 0
M  V30 3572 C 334.484 -1.19432 -1.2112 0
M  V30 3573 O 335.669 -1.47978 -1.25762 0
M  V30 3574 C 332.799 -2.8966 -1.9161 0
M  V30 3575 C 331.753 -3.9928 -1.5414 0
M  V30 3576 C 331.079 -4.53476 -2.83308 0
M  V30 3577 C 332.379 -5.17012 -0.741339 0
M  V30 3578 H 334.073 -2.99034 -0.147898 0
M  V30 3579 H 331.619 -1.43831 -0.0696951 0
M  V30 3580 H 333.572 -3.34852 -2.55836 0
M  V30 3581 H 332.296 -2.10746 -2.49507 0
M  V30 3582 H 330.955 -3.54799 -0.922668 0
M  V30 3583 H 330.603 -3.71308 -3.39322 0
M  V30 3584 H 330.303 -5.27451 -2.58976 0
M  V30 3585 H 331.827 -5.01378 -3.485 0
M  V30 3586 H 333.241 -5.58667 -1.28699 0
M  V30 3587 H 331.638 -5.97137 -0.595627 0
M  V30 3588 H 332.708 -4.8423 0.254851 0
M  V30 3589 N 334.051 0.0651679 -1.57465 0
M  V30 3590 C 335.462 0.616213 -1.76238 0
M  V30 3591 C 335.813 1.7756 -0.834689 0
M  V30 3592 O 334.938 2.1639 -0.0204156 0
M  V30 3593 C 335.533 1.12462 -3.1959 0
M  V30 3594 C 334.092 1.62147 -3.39684 0
M  V30 3595 C 333.239 0.543739 -2.71917 0
M  V30 3596 H 336.19 -0.161022 -1.57881 0
M  V30 3597 H 336.211 1.99324 -3.24114 0
M  V30 3598 H 335.723 0.280592 -3.87084 0
M  V30 3599 H 333.824 2.48854 -2.77313 0
M  V30 3600 H 333.937 1.69385 -4.48158 0
M  V30 3601 H 332.301 0.990352 -2.34657 0
M  V30 3602 H 333.084 -0.290216 -3.42071 0
M  V30 3603 N 335.529 1.53961 0.336706 0
M  V30 3604 C 336.754 1.75797 1.10046 0
M  V30 3605 C 337.179 0.498985 1.81361 0
M  V30 3606 O 336.537 -0.548769 1.72795 0
M  V30 3607 C 336.585 2.94257 2.08436 0
M  V30 3608 O 335.689 2.64883 3.16087 0
M  V30 3609 H 335.03 0.582936 0.317934 0
M  V30 3610 H 337.56 2.00945 0.38501 0
M  V30 3611 H 337.57 3.21237 2.51537 0
M  V30 3612 H 336.245 3.85564 1.55927 0
M  V30 3613 H 334.822 2.48812 2.77753 0
M  V30 3614 N 337.007 -0.598083 1.45811 0
M  V30 3615 C 338.423 -0.919847 1.30426 0
M  V30 3616 C 338.623 -1.99759 0.264303 0
M  V30 3617 O 337.679 -2.50221 -0.338472 0
M  V30 3618 C 338.992 -1.35176 2.68603 0
M  V30 3619 C 340.54 -1.46546 2.76574 0
M  V30 3620 C 341.015 -1.9311 4.15298 0
M  V30 3621 N 342.506 -2.00328 4.1764 0
M  V30 3622 C 343.241 -2.37599 5.21856 0
M  V30 3623 N 342.737 -2.73771 6.36413 0
M  V30 3624 N 344.53 -2.38021 5.09218 0
M  V30 3625 H 336.681 0.114111 2.12093 0
M  V30 3626 H 338.944 -0.0116121 0.947929 0
M  V30 3627 H 338.65 -0.633969 3.45939 0
M  V30 3628 H 338.524 -2.3164 2.97696 0
M  V30 3629 H 340.911 -2.17415 1.99537 0
M  V30 3630 H 340.992 -0.483727 2.51185 0
M  V30 3631 H 340.636 -1.22824 4.92825 0
M  V30 3632 H 340.566 -2.92213 4.38086 0
M  V30 3633 H 343.057 -1.74925 3.34977 0
M  V30 3634 H 343.37 -3.0112 7.11721 0
M  V30 3635 H 341.715 -2.71445 6.39799 0
M  V30 3636 H 344.906 -2.09174 4.18765 0
M  V30 3637 H 345.079 -2.66741 5.90554 0
M  V30 3638 N 338.485 -1.33259 -0.841409 0
M  V30 3639 C 339.762 -1.15174 -1.58096 0
M  V30 3640 C 340.142 0.282858 -2.09196 0
M  V30 3641 O 339.49 1.28151 -1.89181 0
M  V30 3642 C 339.7 -2.1907 -2.71679 0
M  V30 3643 C 341.048 -2.53093 -3.40924 0
M  V30 3644 O 342.072 -2.17717 -2.81918 0
M  V30 3645 O 340.931 -3.1379 -4.47435 0
M  V30 3646 H 338.025 -0.445303 -0.696875 0
M  V30 3647 H 340.571 -1.44833 -0.884385 0
M  V30 3648 H 339.343 -3.15443 -2.31541 0
M  V30 3649 H 338.966 -1.90481 -3.49002 0
M  V30 3650 N 339.963 1.05934 -1.16686 0
M  V30 3651 C 341.193 1.82226 -0.973515 0
M  V30 3652 C 341.601 1.8297 0.481532 0
M  V30 3653 O 340.944 1.25009 1.34604 0
M  V30 3654 C 341.006 3.29897 -1.42858 0
M  V30 3655 C 340.67 3.52849 -2.90425 0
M  V30 3656 C 341.667 3.45595 -3.88407 0
M  V30 3657 C 339.352 3.80053 -3.28428 0
M  V30 3658 C 341.346 3.65217 -5.22394 0
M  V30 3659 C 339.033 3.99325 -4.62583 0
M  V30 3660 C 340.031 3.91905 -5.59374 0
M  V30 3661 O 339.719 4.10647 -6.91104 0
M  V30 3662 H 339.451 0.581314 -0.345036 0
M  V30 3663 H 342.005 1.3453 -1.55212 0
M  V30 3664 H 340.235 3.78472 -0.793477 0
M  V30 3665 H 341.924 3.87692 -1.20207 0
M  V30 3666 H 342.69 3.24564 -3.60393 0
M  V30 3667 H 338.569 3.84936 -2.53664 0
M  V30 3668 H 342.113 3.59341 -5.9793 0
M  V30 3669 H 338.01 4.19846 -4.90306 0
M  V30 3670 H 338.778 4.27915 -6.97733 0
M  V30 3671 N 341.441 0.965919 1.2453 0
M  V30 3672 C 342.671 0.643451 1.96324 0
M  V30 3673 C 343.079 -0.790927 1.71875 0
M  V30 3674 O 342.422 -1.54208 0.998273 0
M  V30 3675 C 342.484 0.836078 3.49643 0
M  V30 3676 C 342.148 2.24975 3.97788 0
M  V30 3677 C 343.145 3.22735 4.07601 0
M  V30 3678 C 340.83 2.57697 4.31158 0
M  V30 3679 C 342.824 4.51303 4.50116 0
M  V30 3680 C 340.511 3.86492 4.73357 0
M  V30 3681 C 341.509 4.83107 4.828 0
M  V30 3682 O 341.197 6.09605 5.24058 0
M  V30 3683 H 340.929 0.239223 0.632257 0
M  V30 3684 H 343.483 1.29587 1.59362 0
M  V30 3685 H 341.713 0.12649 3.86493 0
M  V30 3686 H 343.402 0.512965 4.02646 0
M  V30 3687 H 344.168 2.98783 3.82039 0
M  V30 3688 H 340.047 1.83216 4.23028 0
M  V30 3689 H 343.591 5.26716 4.57401 0
M  V30 3690 H 339.488 4.10245 4.98366 0
M  V30 3691 H 340.256 6.13146 5.42213 0
M  V30 3692 N 342.919 -1.39368 0.735821 0
M  V30 3693 C 343.829 -2.34395 0.0979693 0
M  V30 3694 C 344.845 -1.58361 -0.720968 0
M  V30 3695 O 346.021 -1.90648 -0.649245 0
M  V30 3696 C 343.086 -3.37393 -0.797916 0
M  V30 3697 C 342.147 -4.29287 0.0333662 0
M  V30 3698 C 341.38 -5.27365 -0.819854 0
M  V30 3699 O 341.603 -5.31959 -2.05855 0
M  V30 3700 O 340.537 -6.01389 -0.248079 0
M  V30 3701 H 344.363 -2.90601 0.882315 0
M  V30 3702 H 341.948 -1.40909 0.4965 0
M  V30 3703 H 343.83 -4.00505 -1.31048 0
M  V30 3704 H 342.505 -2.83571 -1.56106 0
M  V30 3705 H 341.412 -3.69395 0.591475 0
M  V30 3706 H 342.745 -4.86317 0.758752 0
M  V30 3707 N 344.397 -0.483516 -1.5 0
M  V30 3708 C 345.637 0.0657469 -2.04294 0
M  V30 3709 C 346.001 1.35869 -1.35659 0
M  V30 3710 O 347.202 1.99111 -1.80578 0
M  V30 3711 C 345.473 0.232758 -3.56641 0
M  V30 3712 S 347.032 0.738788 -4.32536 0
M  V30 3713 H 343.85 0.0100755 -0.710929 0
M  V30 3714 H 346.452 -0.653494 -1.84254 0
M  V30 3715 H 345.156 -0.713847 -4.04144 0
M  V30 3716 H 344.687 0.977751 -3.81056 0
M  V30 3717 H 346.702 2.01048 -4.53645 0
M  V30 3718 N 345.875 1.56104 -0.216619 0
M  V30 3719 C 347.103 2.02563 0.421413 0
M  V30 3720 C 347.518 1.0965 1.53695 0
M  V30 3721 O 346.875 0.10521 1.82196 0
M  V30 3722 C 346.926 3.48584 0.957665 0
M  V30 3723 O 346.647 4.37953 -0.113389 0
M  V30 3724 C 348.148 4.10664 1.66943 0
M  V30 3725 H 345.368 0.662944 0.103665 0
M  V30 3726 H 347.912 2.01793 -0.331629 0
M  V30 3727 H 346.067 3.49985 1.661 0
M  V30 3728 H 346.481 5.23704 0.288932 0
M  V30 3729 H 347.955 5.14622 1.99671 0
M  V30 3730 H 348.432 3.55373 2.58083 0
M  V30 3731 H 349.038 4.13098 1.01142 0
M  V30 3732 N 347.353 -0.0568162 1.57498 0
M  V30 3733 C 348.601 -0.751617 1.87604 0
M  V30 3734 C 348.922 -1.77351 0.81066 0
M  V30 3735 O 348.192 -1.95254 -0.159018 0
M  V30 3736 H 346.772 -0.280583 0.692302 0
M  V30 3737 H 349.434 -0.0293483 1.94878 0
M  V30 3738 H 348.53 -1.25852 2.856 0
M  V30 3739 N 348.832 -1.54138 -0.328536 0
M  V30 3740 C 350.081 -1.71318 -1.06456 0
M  V30 3741 C 350.394 -0.491109 -1.89334 0
M  V30 3742 O 351.6 -0.54416 -2.65991 0
M  V30 3743 C 350.056 -3.03 -1.94214 0
M  V30 3744 C 349.664 -4.32595 -1.16471 0
M  V30 3745 C 351.408 -3.29544 -2.67583 0
M  V30 3746 C 349.315 -5.55341 -2.03347 0
M  V30 3747 H 348.245 -0.638429 -0.401155 0
M  V30 3748 H 350.896 -1.80633 -0.323106 0
M  V30 3749 H 349.278 -2.87579 -2.72239 0
M  V30 3750 H 350.452 -4.58766 -0.432525 0
M  V30 3751 H 348.767 -4.12777 -0.548063 0
M  V30 3752 H 351.364 -4.18444 -3.3288 0
M  V30 3753 H 351.707 -2.47206 -3.34955 0
M  V30 3754 H 352.24 -3.45809 -1.96623 0
M  V30 3755 H 348.979 -6.40268 -1.40491 0
M  V30 3756 H 348.499 -5.33397 -2.74313 0
M  V30 3757 H 350.178 -5.91557 -2.62049 0
M  V30 3758 N 350.31 0.590341 -1.46126 0
M  V30 3759 C 351.54 1.37304 -1.54373 0
M  V30 3760 C 351.948 1.88332 -0.181071 0
M  V30 3761 O 351.291 1.63852 0.830559 0
M  V30 3762 C 351.353 2.6012 -2.48149 0
M  V30 3763 C 351.017 2.30613 -3.94546 0
M  V30 3764 C 352.014 1.89915 -4.83971 0
M  V30 3765 C 349.699 2.42993 -4.39613 0
M  V30 3766 C 351.693 1.61981 -6.16475 0
M  V30 3767 C 349.38 2.14672 -5.72153 0
M  V30 3768 C 350.378 1.7423 -6.60404 0
M  V30 3769 O 350.066 1.46251 -7.90485 0
M  V30 3770 H 349.798 0.426086 -0.524811 0
M  V30 3771 H 352.352 0.72539 -1.92165 0
M  V30 3772 H 350.582 3.27664 -2.05361 0
M  V30 3773 H 352.271 3.22182 -2.46887 0
M  V30 3774 H 353.037 1.79872 -4.50412 0
M  V30 3775 H 348.916 2.73435 -3.71153 0
M  V30 3776 H 352.46 1.30341 -6.85315 0
M  V30 3777 H 348.357 2.24337 -6.05263 0
M  V30 3778 H 349.125 1.6016 -8.02677 0
M  V30 3779 N 351.788 1.33704 0.83433 0
M  V30 3780 C 352.735 1.24335 1.94447 0
M  V30 3781 C 353.705 0.120991 1.65659 0
M  V30 3782 O 354.89 0.300035 1.88426 0
M  V30 3783 C 352.03 0.993124 3.30501 0
M  V30 3784 C 351.143 2.20217 3.71657 0
M  V30 3785 C 350.278 1.88572 4.96602 0
M  V30 3786 C 349.317 3.05683 5.30306 0
M  V30 3787 N 348.454 2.73997 6.46429 0
M  V30 3788 H 353.294 2.1928 2.01792 0
M  V30 3789 H 350.831 1.09035 0.987404 0
M  V30 3790 H 352.789 0.828467 4.08892 0
M  V30 3791 H 351.419 0.0803902 3.227 0
M  V30 3792 H 350.471 2.47642 2.88752 0
M  V30 3793 H 351.783 3.07752 3.92543 0
M  V30 3794 H 350.937 1.68776 5.82752 0
M  V30 3795 H 349.676 0.982799 4.77695 0
M  V30 3796 H 348.681 3.26088 4.42659 0
M  V30 3797 H 349.906 3.96737 5.51159 0
M  V30 3798 H 347.852 1.86268 6.28999 0
M  V30 3799 H 347.769 3.55064 6.67432 0
M  V30 3800 H 349.037 2.57679 7.35678 0
M  V30 3801 N 353.266 -1.05314 1.17247 0
M  V30 3802 C 354.176 -2.16538 0.90268 0
M  V30 3803 C 355.192 -1.73523 -0.128707 0
M  V30 3804 O 356.368 -2.01337 0.0502701 0
M  V30 3805 C 353.433 -3.44167 0.418356 0
M  V30 3806 C 352.494 -4.01635 1.51618 0
M  V30 3807 C 351.727 -5.23171 1.05487 0
M  V30 3808 O 351.95 -5.70327 -0.0914715 0
M  V30 3809 O 350.884 -5.72848 1.8474 0
M  V30 3810 H 354.71 -2.42145 1.83302 0
M  V30 3811 H 352.295 -1.15037 0.953246 0
M  V30 3812 H 354.177 -4.21112 0.155726 0
M  V30 3813 H 352.852 -3.20063 -0.48385 0
M  V30 3814 H 351.759 -3.26135 1.83268 0
M  V30 3815 H 353.092 -4.30053 2.39405 0
M  V30 3816 N 354.744 -0.972509 -1.24016 0
M  V30 3817 C 355.707 -0.511403 -2.23422 0
M  V30 3818 C 356.707 0.394679 -1.55881 0
M  V30 3819 O 357.897 0.189469 -1.73167 0
M  V30 3820 C 355.029 0.258769 -3.39916 0
M  V30 3821 H 356.222 -1.39024 -2.6573 0
M  V30 3822 H 353.775 -0.757585 -1.36713 0
M  V30 3823 H 354.51 1.1545 -3.03054 0
M  V30 3824 H 354.295 -0.391522 -3.9014 0
M  V30 3825 H 355.785 0.570244 -4.13688 0
M  V30 3826 N 356.222 1.38976 -0.743202 0
M  V30 3827 C 357.462 2.02193 -0.29954 0
M  V30 3828 C 357.826 1.5771 1.09506 0
M  V30 3829 O 359.027 2.13184 1.63726 0
M  V30 3830 C 357.298 3.55077 -0.406822 0
M  V30 3831 S 358.857 4.38778 -0.0442109 0
M  V30 3832 H 355.675 0.701335 -0.116836 0
M  V30 3833 H 358.277 1.69651 -0.971529 0
M  V30 3834 H 356.981 3.84942 -1.42295 0
M  V30 3835 H 356.512 3.92383 0.282707 0
M  V30 3836 H 358.527 4.82222 1.16947 0
M  V30 3837 N 357.7 0.491464 1.49741 0
M  V30 3838 C 358.928 -0.0535151 2.06831 0
M  V30 3839 C 359.343 -1.31683 1.35296 0
M  V30 3840 O 358.7 -1.77402 0.42836 0
M  V30 3841 C 358.751 -0.320835 3.60073 0
M  V30 3842 O 358.472 0.892394 4.28915 0
M  V30 3843 C 359.973 -0.910519 4.33848 0
M  V30 3844 H 357.193 0.0161909 0.670805 0
M  V30 3845 H 359.737 0.68609 1.92647 0
M  V30 3846 H 357.892 -1.0104 3.73991 0
M  V30 3847 H 358.306 0.649401 5.20464 0
M  V30 3848 H 359.78 -1.04721 5.41976 0
M  V30 3849 H 360.257 -1.90589 3.95692 0
M  V30 3850 H 360.863 -0.258712 4.24512 0
M  V30 3851 N 359.178 -1.55987 0.224894 0
M  V30 3852 C 360.141 -2.19178 -0.670348 0
M  V30 3853 C 361.141 -1.15461 -1.11917 0
M  V30 3854 O 362.331 -1.40675 -1.02743 0
M  V30 3855 C 359.463 -2.81777 -1.9187 0
M  V30 3856 H 360.656 -2.99662 -0.119364 0
M  V30 3857 H 358.209 -1.5628 -0.0247128 0
M  V30 3858 H 358.944 -2.05172 -2.51147 0
M  V30 3859 H 358.729 -3.57732 -1.60531 0
M  V30 3860 H 360.219 -3.30205 -2.55645 0
M  V30 3861 N 360.656 0.0484629 -1.57525 0
M  V30 3862 C 361.886 0.754326 -1.92337 0
M  V30 3863 C 362.294 1.70443 -0.82132 0
M  V30 3864 O 361.637 1.82466 0.21254 0
M  V30 3865 C 361.699 1.58231 -3.22805 0
M  V30 3866 C 361.363 0.799074 -4.4996 0
M  V30 3867 C 362.36 0.1079 -5.19788 0
M  V30 3868 C 360.045 0.759345 -4.96527 0
M  V30 3869 C 362.039 -0.612516 -6.3445 0
M  V30 3870 C 359.726 0.0351713 -6.1109 0
M  V30 3871 C 360.724 -0.649537 -6.79904 0
M  V30 3872 O 360.412 -1.36199 -7.92278 0
M  V30 3873 H 360.144 0.218257 -0.639797 0
M  V30 3874 H 362.698 0.0159295 -2.05394 0
M  V30 3875 H 360.928 2.36406 -3.06021 0
M  V30 3876 H 362.617 2.16898 -3.43089 0
M  V30 3877 H 363.383 0.129748 -4.84826 0
M  V30 3878 H 359.262 1.28177 -4.42822 0
M  V30 3879 H 362.806 -1.14751 -6.88097 0
M  V30 3880 H 358.703 0.0113314 -6.45499 0
M  V30 3881 H 359.471 -1.27366 -8.0853 0
M  V30 3882 N 362.134 1.5431 0.320358 0
M  V30 3883 C 363.38 1.72924 1.05949 0
M  V30 3884 C 363.713 0.503185 1.87568 0
M  V30 3885 O 362.988 -0.499839 1.87968 0
M  V30 3886 C 363.271 3.00676 1.98156 0
M  V30 3887 C 363.124 4.3354 1.19845 0
M  V30 3888 C 364.443 3.24198 2.9763 0
M  V30 3889 H 361.562 0.629195 0.383774 0
M  V30 3890 H 364.204 1.87008 0.335854 0
M  V30 3891 H 362.354 2.888 2.59859 0
M  V30 3892 H 364.026 4.57305 0.605773 0
M  V30 3893 H 362.269 4.309 0.500784 0
M  V30 3894 H 362.94 5.19156 1.87567 0
M  V30 3895 H 365.416 3.35557 2.4605 0
M  V30 3896 H 364.292 4.14938 3.59329 0
M  V30 3897 H 364.553 2.41577 3.7026 0
M  V30 3898 N 363.613 -0.582584 1.46437 0
M  V30 3899 C 364.89 -1.34276 1.4223 0
M  V30 3900 C 365.27 -2.10835 0.10583 0
M  V30 3901 O 364.618 -2.09485 -0.912596 0
M  V30 3902 C 364.828 -2.26865 2.65204 0
M  V30 3903 C 366.176 -2.88691 3.11356 0
M  V30 3904 O 367.2 -2.37178 2.65753 0
M  V30 3905 O 366.059 -3.82255 3.90568 0
M  V30 3906 H 363.153 -0.603326 0.565621 0
M  V30 3907 H 365.699 -0.603591 1.58603 0
M  V30 3908 H 364.471 -1.69724 3.52576 0
M  V30 3909 H 364.094 -3.08122 2.5129 0
M  V30 3910 N 365.091 -1.34144 -0.827227 0
M  V30 3911 C 366.338 -1.26258 -1.58319 0
M  V30 3912 C 366.666 0.168595 -1.93768 0
M  V30 3913 O 365.921 1.12877 -1.59866 0
M  V30 3914 C 366.22 -2.09464 -2.89585 0
M  V30 3915 C 365.886 -3.58521 -2.73448 0
M  V30 3916 C 364.548 -3.99155 -2.68754 0
M  V30 3917 C 366.9 -4.53189 -2.57428 0
M  V30 3918 C 364.228 -5.32656 -2.45957 0
M  V30 3919 C 366.58 -5.86864 -2.36163 0
M  V30 3920 C 365.244 -6.26667 -2.29879 0
M  V30 3921 H 364.514 -0.462013 -0.579332 0
M  V30 3922 H 367.161 -1.65845 -0.95748 0
M  V30 3923 H 365.466 -1.62692 -3.56425 0
M  V30 3924 H 367.163 -2.00712 -3.47154 0
M  V30 3925 H 363.753 -3.26264 -2.77939 0
M  V30 3926 H 367.937 -4.22696 -2.60081 0
M  V30 3927 H 363.193 -5.62519 -2.39546 0
M  V30 3928 H 367.367 -6.59813 -2.22754 0
M  V30 3929 H 364.994 -7.30049 -2.11975 0
M  V30 3930 N 366.569 1.04691 -1.17803 0
M  V30 3931 C 367.502 2.12068 -0.842765 0
M  V30 3932 C 368.48 1.61455 0.192608 0
M  V30 3933 O 369.664 1.88359 0.072995 0
M  V30 3934 C 366.791 3.37715 -0.258063 0
M  V30 3935 C 365.837 4.07164 -1.26962 0
M  V30 3936 S 366.67 4.55047 -2.82299 0
M  V30 3937 C 367.826 5.83935 -2.25323 0
M  V30 3938 H 368.059 2.4018 -1.75217 0
M  V30 3939 H 365.592 1.17366 -1.00323 0
M  V30 3940 H 367.55 4.10435 0.0727935 0
M  V30 3941 H 366.211 3.0773 0.629357 0
M  V30 3942 H 365.404 4.9746 -0.809263 0
M  V30 3943 H 365.006 3.40533 -1.54639 0
M  V30 3944 H 367.298 6.57552 -1.63192 0
M  V30 3945 H 368.241 6.34725 -3.13894 0
M  V30 3946 H 368.649 5.3874 -1.68582 0
M  V30 3947 N 368.047 0.979072 1.23499 0
M  V30 3948 C 369.296 0.642751 1.91185 0
M  V30 3949 C 369.609 -0.827253 1.77245 0
M  V30 3950 O 370.815 -1.27458 2.39722 0
M  V30 3951 C 369.271 1.09901 3.42709 0
M  V30 3952 C 368.879 2.59327 3.65313 0
M  V30 3953 C 370.623 0.836371 4.16179 0
M  V30 3954 C 368.53 2.98627 5.10467 0
M  V30 3955 H 367.46 0.236698 0.715884 0
M  V30 3956 H 370.111 1.1868 1.39955 0
M  V30 3957 H 368.493 0.48319 3.93041 0
M  V30 3958 H 369.667 3.26136 3.25533 0
M  V30 3959 H 367.982 2.83323 3.05151 0
M  V30 3960 H 370.579 1.10586 5.23139 0
M  V30 3961 H 370.922 -0.227509 4.15678 0
M  V30 3962 H 371.455 1.41371 3.71832 0
M  V30 3963 H 368.194 4.04133 5.16098 0
M  V30 3964 H 367.714 2.3651 5.51201 0
M  V30 3965 H 369.393 2.89159 5.78788 0
M  V30 3966 N 369.525 -1.3858 0.750561 0
M  V30 3967 C 370.75 -2.04997 0.314812 0
M  V30 3968 C 371.175 -1.56235 -1.04749 0
M  V30 3969 O 370.533 -0.712981 -1.66692 0
M  V30 3970 C 370.581 -3.58961 0.343415 0
M  V30 3971 O 369.685 -4.07025 -0.663628 0
M  V30 3972 H 369.026 -0.649081 0.139962 0
M  V30 3973 H 371.556 -1.77313 1.02084 0
M  V30 3974 H 371.566 -4.07542 0.193233 0
M  V30 3975 H 370.241 -3.93811 1.33738 0
M  V30 3976 H 368.818 -3.6982 -0.478307 0
M  V30 3977 N 371.003 -0.499398 -1.49478 0
M  V30 3978 C 372.249 0.0457576 -2.02748 0
M  V30 3979 C 372.582 1.36793 -1.37846 0
M  V30 3980 O 371.857 1.87596 -0.513601 0
M  V30 3981 C 372.14 0.199986 -3.59544 0
M  V30 3982 C 371.993 -1.1452 -4.34977 0
M  V30 3983 C 373.312 0.94137 -4.29914 0
M  V30 3984 H 370.431 0.0151552 -0.736844 0
M  V30 3985 H 373.073 -0.650498 -1.78518 0
M  V30 3986 H 371.223 0.793007 -3.8032 0
M  V30 3987 H 372.895 -1.77697 -4.25701 0
M  V30 3988 H 371.138 -1.73488 -3.97598 0
M  V30 3989 H 371.809 -0.990607 -5.43039 0
M  V30 3990 H 374.285 0.43844 -4.13784 0
M  V30 3991 H 373.161 1.01812 -5.39375 0
M  V30 3992 H 373.422 1.98471 -3.95046 0
M  V30 3993 N 372.481 1.55866 -0.233164 0
M  V30 3994 C 373.444 2.1953 0.658715 0
M  V30 3995 C 374.444 1.16053 1.11303 0
M  V30 3996 O 375.634 1.41218 1.01996 0
M  V30 3997 C 372.766 2.82791 1.90373 0
M  V30 3998 H 373.959 2.99721 0.10347 0
M  V30 3999 H 371.512 1.56291 0.0164245 0
M  V30 4000 H 372.247 2.06501 2.50056 0
M  V30 4001 H 372.032 3.58578 1.58632 0
M  V30 4002 H 373.522 3.31556 2.53891 0
M  V30 4003 N 373.959 -0.0401083 1.57549 0
M  V30 4004 C 375.375 -0.395556 1.54621 0
M  V30 4005 C 375.575 -1.77281 0.957799 0
M  V30 4006 O 374.631 -2.45888 0.574031 0
M  V30 4007 C 375.944 -0.307535 2.99123 0
M  V30 4008 C 377.492 -0.385425 3.10618 0
M  V30 4009 C 377.967 -0.326973 4.56831 0
M  V30 4010 N 379.458 -0.386102 4.61588 0
M  V30 4011 C 380.193 -0.363591 5.72246 0
M  V30 4012 N 379.689 -0.29402 6.92176 0
M  V30 4013 N 381.482 -0.412503 5.60584 0
M  V30 4014 H 373.633 0.861325 1.94152 0
M  V30 4015 H 375.896 0.326445 0.890021 0
M  V30 4016 H 375.602 0.638461 3.45856 0
M  V30 4017 H 375.476 -1.10552 3.60636 0
M  V30 4018 H 377.863 -1.32185 2.63839 0
M  V30 4019 H 377.944 0.44171 2.51957 0
M  V30 4020 H 377.588 0.605738 5.04275 0
M  V30 4021 H 377.518 -1.17207 5.13391 0
M  V30 4022 H 380.009 -0.442832 3.75296 0
M  V30 4023 H 380.322 -0.28164 7.72287 0
M  V30 4024 H 378.667 -0.260232 6.94513 0
M  V30 4025 H 381.858 -0.464769 4.65787 0
M  V30 4026 H 382.031 -0.391492 6.46816 0
M  V30 4027 N 375.437 -1.54477 -0.31217 0
M  V30 4028 C 376.367 -1.87652 -1.38957 0
M  V30 4029 C 377.348 -0.734358 -1.53431 0
M  V30 4030 O 378.533 -0.98911 -1.67123 0
M  V30 4031 C 375.663 -2.11396 -2.75552 0
M  V30 4032 C 374.617 -3.27243 -2.75855 0
M  V30 4033 C 373.943 -3.36382 -4.15633 0
M  V30 4034 C 375.243 -4.64622 -2.38587 0
M  V30 4035 H 376.937 -2.77887 -1.11442 0
M  V30 4036 H 374.483 -1.33707 -0.534655 0
M  V30 4037 H 376.436 -2.33189 -3.51 0
M  V30 4038 H 375.16 -1.17921 -3.04569 0
M  V30 4039 H 373.819 -3.05356 -2.02863 0
M  V30 4040 H 373.467 -2.40445 -4.41809 0
M  V30 4041 H 373.167 -4.14249 -4.1674 0
M  V30 4042 H 374.691 -3.60422 -4.92877 0
M  V30 4043 H 376.105 -4.86219 -3.03749 0
M  V30 4044 H 374.502 -5.45121 -2.50925 0
M  V30 4045 H 375.572 -4.66097 -1.33723 0
M  V30 4046 N 376.915 0.57481 -1.46744 0
M  V30 4047 C 378.164 1.32898 -1.51727 0
M  V30 4048 C 378.477 1.948 -0.176692 0
M  V30 4049 O 379.683 2.71299 -0.104385 0
M  V30 4050 C 378.139 2.40901 -2.67385 0
M  V30 4051 C 377.747 1.85266 -4.07898 0
M  V30 4052 C 379.491 3.17609 -2.81646 0
M  V30 4053 C 377.398 2.90945 -5.14883 0
M  V30 4054 H 376.328 0.499631 -0.564699 0
M  V30 4055 H 378.979 0.612536 -1.72975 0
M  V30 4056 H 377.361 3.15379 -2.39483 0
M  V30 4057 H 378.535 1.17278 -4.45626 0
M  V30 4058 H 376.85 1.21199 -3.98371 0
M  V30 4059 H 379.447 3.96493 -3.58744 0
M  V30 4060 H 379.79 3.70696 -1.89448 0
M  V30 4061 H 380.323 2.50239 -3.09233 0
M  V30 4062 H 377.062 2.42736 -6.089 0
M  V30 4063 H 376.582 3.57398 -4.81691 0
M  V30 4064 H 378.261 3.54755 -5.41071 0
M  V30 4065 N 378.394 1.34581 0.820102 0
M  V30 4066 C 379.81 1.14325 1.11364 0
M  V30 4067 C 380.01 -0.0533648 2.01429 0
M  V30 4068 O 379.066 -0.728044 2.41776 0
M  V30 4069 C 380.379 2.43983 1.75764 0
M  V30 4070 C 381.927 2.50065 1.88246 0
M  V30 4071 C 382.402 3.79732 2.56061 0
M  V30 4072 N 383.893 3.80908 2.63558 0
M  V30 4073 C 384.628 4.77961 3.16766 0
M  V30 4074 N 384.124 5.85397 3.70517 0
M  V30 4075 N 385.917 4.65413 3.15194 0
M  V30 4076 H 378.068 2.11246 0.221096 0
M  V30 4077 H 380.331 0.934289 0.160649 0
M  V30 4078 H 380.037 3.31651 1.1705 0
M  V30 4079 H 379.911 2.57531 2.75604 0
M  V30 4080 H 382.298 1.62834 2.46108 0
M  V30 4081 H 382.379 2.40442 0.873006 0
M  V30 4082 H 382.023 4.67354 1.98853 0
M  V30 4083 H 381.953 3.86639 3.57516 0
M  V30 4084 H 384.444 3.03274 2.25463 0
M  V30 4085 H 384.757 6.55463 4.09376 0
M  V30 4086 H 383.102 5.89107 3.68752 0
M  V30 4087 H 386.293 3.80627 2.72471 0
M  V30 4088 H 386.466 5.41216 3.56356 0
M  V30 4089 N 379.872 -1.04064 1.18357 0
M  V30 4090 C 380.804 -2.12114 0.868358 0
M  V30 4091 C 381.817 -1.62247 -0.134045 0
M  V30 4092 O 383.006 -1.78253 0.0937933 0
M  V30 4093 C 380.106 -3.37773 0.276132 0
M  V30 4094 C 379.279 -4.16874 1.3242 0
M  V30 4095 C 378.338 -5.20861 0.747662 0
M  V30 4096 O 377.364 -5.51141 1.42239 0
M  V30 4097 N 378.566 -5.78715 -0.454823 0
M  V30 4098 H 381.331 -2.39748 1.79836 0
M  V30 4099 H 378.892 -1.20258 1.08396 0
M  V30 4100 H 380.884 -4.04513 -0.123133 0
M  V30 4101 H 379.454 -3.07581 -0.557895 0
M  V30 4102 H 378.674 -3.45456 1.89878 0
M  V30 4103 H 379.962 -4.66516 2.03078 0
M  V30 4104 H 379.36 -5.56415 -1.02073 0
M  V30 4105 H 377.917 -6.46921 -0.79601 0
M  V30 4106 N 381.35 -0.985608 -1.22978 0
M  V30 4107 C 382.26 -0.538548 -2.28335 0
M  V30 4108 C 383.276 0.409163 -1.69121 0
M  V30 4109 O 384.452 0.277797 -1.99475 0
M  V30 4110 C 381.517 0.146867 -3.46389 0
M  V30 4111 C 380.578 -0.842896 -4.20944 0
M  V30 4112 C 379.811 -0.190095 -5.33361 0
M  V30 4113 O 380.034 1.01767 -5.61248 0
M  V30 4114 O 378.968 -0.891289 -5.95264 0
M  V30 4115 H 382.794 -1.41487 -2.68729 0
M  V30 4116 H 380.379 -0.753495 -1.29007 0
M  V30 4117 H 382.261 0.531125 -4.1804 0
M  V30 4118 H 380.936 0.997871 -3.07935 0
M  V30 4119 H 379.843 -1.27795 -3.51595 0
M  V30 4120 H 381.176 -1.66287 -4.6326 0
M  V30 4121 N 382.828 1.3818 -0.7579 0
M  V30 4122 C 383.738 2.3421 -0.135247 0
M  V30 4123 C 384.754 1.59487 0.695683 0
M  V30 4124 O 385.93 1.91657 0.618832 0
M  V30 4125 C 382.995 3.3862 0.744139 0
M  V30 4126 C 382.056 4.2918 -0.101658 0
M  V30 4127 C 381.289 5.28603 0.735851 0
M  V30 4128 O 381.512 5.35166 1.97366 0
M  V30 4129 O 380.446 6.01707 0.152372 0
M  V30 4130 H 384.272 2.8916 -0.928436 0
M  V30 4131 H 381.857 1.40101 -0.518855 0
M  V30 4132 H 383.739 4.02539 1.2466 0
M  V30 4133 H 382.414 2.86019 1.51575 0
M  V30 4134 H 381.321 3.68407 -0.650167 0
M  V30 4135 H 382.654 4.85048 -0.836024 0
M  V30 4136 N 384.306 0.507319 1.49211 0
M  V30 4137 C 385.722 0.163682 1.58758 0
M  V30 4138 C 385.922 -1.33208 1.51188 0
M  V30 4139 O 384.978 -2.10855 1.38911 0
M  V30 4140 C 386.291 0.746095 2.91297 0
M  V30 4141 C 387.839 0.712773 3.04776 0
M  V30 4142 C 388.314 1.27336 4.39943 0
M  V30 4143 N 389.805 1.23433 4.46451 0
M  V30 4144 C 390.54 1.63821 5.495 0
M  V30 4145 N 390.036 2.11832 6.5962 0
M  V30 4146 N 391.829 1.55198 5.4025 0
M  V30 4147 H 383.98 1.47972 1.52375 0
M  V30 4148 H 386.243 0.614147 0.722168 0
M  V30 4149 H 385.949 1.79534 3.02424 0
M  V30 4150 H 385.823 0.210137 3.76614 0
M  V30 4151 H 388.21 -0.327656 2.93275 0
M  V30 4152 H 388.291 1.28595 2.21127 0
M  V30 4153 H 387.935 2.3126 4.52196 0
M  V30 4154 H 387.865 0.676066 5.22242 0
M  V30 4155 H 390.356 0.882627 3.67448 0
M  V30 4156 H 390.669 2.40703 7.34358 0
M  V30 4157 H 389.014 2.1581 6.60644 0
M  V30 4158 H 392.205 1.17505 4.53112 0
M  V30 4159 H 392.378 1.86997 6.20432 0
M  V30 4160 N 385.784 -1.5574 0.241426 0
M  V30 4161 C 386.714 -2.24133 -0.654722 0
M  V30 4162 C 387.695 -1.21974 -1.1856 0
M  V30 4163 O 388.88 -1.50612 -1.22595 0
M  V30 4164 C 386.01 -2.93659 -1.85423 0
M  V30 4165 C 384.964 -4.0246 -1.45636 0
M  V30 4166 C 384.29 -4.59383 -2.73626 0
M  V30 4167 C 385.59 -5.18468 -0.631506 0
M  V30 4168 H 387.284 -2.99281 -0.0844353 0
M  V30 4169 H 384.83 -1.43947 -0.0391707 0
M  V30 4170 H 386.783 -3.40203 -2.48676 0
M  V30 4171 H 385.507 -2.15991 -2.44981 0
M  V30 4172 H 384.166 -3.56676 -0.847202 0
M  V30 4173 H 383.814 -3.78422 -3.3137 0
M  V30 4174 H 383.514 -5.32826 -2.4773 0
M  V30 4175 H 385.038 -5.08658 -3.37786 0
M  V30 4176 H 386.452 -5.61272 -1.1682 0
M  V30 4177 H 384.849 -5.98266 -0.468831 0
M  V30 4178 H 385.919 -4.8358 0.357506 0
M  V30 4179 N 387.262 0.0317525 -1.57568 0
M  V30 4180 C 388.673 0.578692 -1.77505 0
M  V30 4181 C 389.024 1.75749 -0.872164 0
M  V30 4182 O 388.149 2.16298 -0.0663106 0
M  V30 4183 C 388.744 1.05658 -3.21904 0
M  V30 4184 C 387.303 1.54906 -3.43047 0
M  V30 4185 C 386.45 0.485939 -2.73009 0
M  V30 4186 H 389.401 -0.194475 -1.57504 0
M  V30 4187 H 389.422 1.92404 -3.28269 0
M  V30 4188 H 388.934 0.198422 -3.87592 0
M  V30 4189 H 387.035 2.42915 -2.82529 0
M  V30 4190 H 387.148 1.59841 -4.5165 0
M  V30 4191 H 385.512 0.940354 -2.36705 0
M  V30 4192 H 386.295 -0.362709 -3.41379 0
M  V30 4193 N 388.74 1.54641 0.303973 0
M  V30 4194 C 389.989 1.7299 1.03717 0
M  V30 4195 C 390.302 0.521168 1.88529 0
M  V30 4196 O 391.508 0.586408 2.65092 0
M  V30 4197 C 389.964 3.06051 1.89369 0
M  V30 4198 C 389.572 4.34393 1.09574 0
M  V30 4199 C 391.316 3.3376 2.62306 0
M  V30 4200 C 389.223 5.58506 1.94486 0
M  V30 4201 H 388.153 0.64473 0.390947 0
M  V30 4202 H 390.804 1.81124 0.294328 0
M  V30 4203 H 389.186 2.91874 2.67629 0
M  V30 4204 H 390.36 4.59396 0.359485 0
M  V30 4205 H 388.675 4.13597 0.482324 0
M  V30 4206 H 391.272 4.23687 3.26181 0
M  V30 4207 H 391.615 2.52503 3.3098 0
M  V30 4208 H 392.148 3.48894 1.91097 0
M  V30 4209 H 388.887 6.42422 1.30287 0
M  V30 4210 H 388.407 5.37694 2.65792 0
M  V30 4211 H 390.086 5.95651 2.52605 0
M  V30 4212 N 390.218 -0.567019 1.47046 0
M  V30 4213 C 391.495 -1.3276 1.43646 0
M  V30 4214 C 391.875 -2.1071 0.128186 0
M  V30 4215 O 391.223 -2.10441 -0.890326 0
M  V30 4216 C 391.433 -2.2404 2.67595 0
M  V30 4217 C 392.781 -2.85372 3.14401 0
M  V30 4218 O 393.805 -2.34346 2.68254 0
M  V30 4219 O 392.664 -3.78091 3.946 0
M  V30 4220 H 389.758 -0.597293 0.571988 0
M  V30 4221 H 392.304 -0.586735 1.59234 0
M  V30 4222 H 391.076 -1.65975 3.54356 0
M  V30 4223 H 390.699 -3.05439 2.54544 0
M  V30 4224 N 391.696 -1.35014 -0.812953 0
M  V30 4225 C 392.606 -1.2951 -1.95613 0
M  V30 4226 C 393.622 -0.20107 -1.72834 0
M  V30 4227 O 394.798 -0.42932 -1.96771 0
M  V30 4228 C 391.863 -1.06033 -3.30088 0
M  V30 4229 C 390.924 -2.24688 -3.65805 0
M  V30 4230 C 390.157 -2.02322 -4.93864 0
M  V30 4231 O 390.38 -0.986464 -5.61805 0
M  V30 4232 O 389.314 -2.89525 -5.27692 0
M  V30 4233 H 393.14 -2.25705 -2.03202 0
M  V30 4234 H 390.725 -1.15321 -0.949811 0
M  V30 4235 H 392.607 -0.94763 -4.10607 0
M  V30 4236 H 391.282 -0.128852 -3.23443 0
M  V30 4237 H 390.189 -2.41521 -2.85689 0
M  V30 4238 H 391.522 -3.16261 -3.77147 0
M  V30 4239 N 393.175 1.03435 -1.18907 0
M  V30 4240 C 394.123 2.13703 -0.918353 0
M  V30 4241 C 395.117 1.68947 0.123767 0
M  V30 4242 O 396.323 1.79983 -0.0249701 0
M  V30 4243 H 392.698 0.698112 -0.279542 0
M  V30 4244 H 394.669 2.33731 -1.85506 0
M  V30 4245 C 393.418 3.44542 -0.467532 0
M  V30 4246 H 392.741 3.79394 -1.26095 0
M  V30 4247 H 394.181 4.22812 -0.317164 0
M  V30 4248 C 392.64 3.26829 0.817588 0
M  V30 4249 O 393.17 3.54975 1.88031 0
M  V30 4250 N 391.376 2.80139 0.772677 0
M  V30 4251 H 390.923 2.57434 -0.0923883 0
M  V30 4252 H 390.881 2.68668 1.63294 0
M  V30 4253 N 394.653 0.992116 1.22453 0
M  V30 4254 C 395.585 0.500024 2.23679 0
M  V30 4255 C 396.598 -0.404463 1.57696 0
M  V30 4256 O 397.787 -0.206722 1.77299 0
M  V30 4257 C 394.887 -0.294711 3.37616 0
M  V30 4258 C 394.06 0.605723 4.33186 0
M  V30 4259 C 393.119 -0.13717 5.26021 0
M  V30 4260 O 392.145 0.477164 5.67196 0
M  V30 4261 N 393.347 -1.4197 5.62872 0
M  V30 4262 H 396.112 1.37045 2.66531 0
M  V30 4263 H 393.673 0.866741 1.36745 0
M  V30 4264 H 395.665 -0.800329 3.96707 0
M  V30 4265 H 394.235 -1.06623 2.93854 0
M  V30 4266 H 393.455 1.29202 3.72425 0
M  V30 4267 H 394.743 1.21896 4.93983 0
M  V30 4268 H 394.141 -1.94015 5.31389 0
M  V30 4269 H 392.698 -1.87052 6.24383 0
M  V30 4270 N 396.131 -1.37776 0.765217 0
M  V30 4271 C 397.061 -2.32945 0.160953 0
M  V30 4272 C 398.042 -1.55454 -0.690516 0
M  V30 4273 O 399.227 -1.83721 -0.629318 0
M  V30 4274 C 396.357 -3.39669 -0.724031 0
M  V30 4275 C 395.311 -4.27992 0.0256173 0
M  V30 4276 C 394.637 -5.25673 -0.978383 0
M  V30 4277 C 395.937 -5.08309 1.20082 0
M  V30 4278 H 397.631 -2.83728 0.955969 0
M  V30 4279 H 395.177 -1.36416 0.461149 0
M  V30 4280 H 397.13 -4.05219 -1.15652 0
M  V30 4281 H 395.854 -2.87396 -1.5515 0
M  V30 4282 H 394.513 -3.63964 0.438812 0
M  V30 4283 H 394.161 -4.69682 -1.80022 0
M  V30 4284 H 393.861 -5.85625 -0.481378 0
M  V30 4285 H 395.385 -5.94098 -1.40995 0
M  V30 4286 H 396.799 -5.67034 0.845307 0
M  V30 4287 H 395.196 -5.77554 1.62947 0
M  V30 4288 H 396.266 -4.41365 2.00811 0
M  V30 4289 N 397.609 -0.515225 -1.4894 0
M  V30 4290 C 398.572 0.244681 -2.2789 0
M  V30 4291 C 399.572 0.881166 -1.34507 0
M  V30 4292 O 400.762 0.743497 -1.57537 0
M  V30 4293 C 397.894 1.35247 -3.12923 0
M  V30 4294 H 399.087 -0.448289 -2.96531 0
M  V30 4295 H 396.64 -0.270656 -1.53939 0
M  V30 4296 H 397.375 2.07916 -2.48881 0
M  V30 4297 H 397.16 0.901374 -3.81599 0
M  V30 4298 H 398.65 1.88737 -3.72516 0
M  V30 4299 N 399.087 1.5561 -0.249682 0
M  V30 4300 C 400.017 2.24477 0.642826 0
M  V30 4301 C 400.998 1.22601 1.17911 0
M  V30 4302 O 402.183 1.5126 1.21795 0
M  V30 4303 C 399.313 2.94638 1.83863 0
M  V30 4304 C 398.267 4.03227 1.435 0
M  V30 4305 C 397.593 4.60828 2.71186 0
M  V30 4306 C 398.893 5.18796 0.604002 0
M  V30 4307 H 400.587 2.99321 0.0685625 0
M  V30 4308 H 398.133 1.43965 0.0315363 0
M  V30 4309 H 400.086 3.41517 2.46868 0
M  V30 4310 H 398.81 2.17287 2.43832 0
M  V30 4311 H 397.469 3.57121 0.828275 0
M  V30 4312 H 397.117 3.80174 3.29358 0
M  V30 4313 H 396.817 5.34132 2.44901 0
M  V30 4314 H 398.341 5.10442 3.35084 0
M  V30 4315 H 399.755 5.61883 1.13842 0
M  V30 4316 H 398.152 5.98506 0.437097 0
M  V30 4317 H 399.222 4.83384 -0.383147 0
M  V30 4318 N 400.565 -0.0233959 1.57583 0
M  V30 4319 C 401.475 -1.03907 2.10334 0
M  V30 4320 C 402.491 -1.39257 1.04323 0
M  V30 4321 O 403.667 -1.48462 1.36091 0
M  V30 4322 C 400.732 -2.31938 2.57693 0
M  V30 4323 C 399.793 -2.03117 3.78209 0
M  V30 4324 C 399.026 -3.25043 4.233 0
M  V30 4325 O 399.249 -4.35916 3.67876 0
M  V30 4326 O 398.183 -3.10411 5.15683 0
M  V30 4327 H 402.009 -0.620748 2.97288 0
M  V30 4328 H 399.594 -0.240743 1.47448 0
M  V30 4329 H 401.476 -3.07196 2.88458 0
M  V30 4330 H 400.151 -2.73055 1.73847 0
M  V30 4331 H 399.058 -1.25408 3.52454 0
M  V30 4332 H 400.391 -1.66852 4.63056 0
M  V30 4333 N 402.043 -1.548 -0.295768 0
M  V30 4334 C 402.976 -1.81003 -1.38972 0
M  V30 4335 C 403.954 -0.661544 -1.48534 0
M  V30 4336 O 405.138 -0.902074 -1.65514 0
M  V30 4337 C 402.265 -1.95141 -2.76835 0
M  V30 4338 C 401.311 -3.17592 -2.84671 0
M  V30 4339 S 402.144 -4.75531 -2.46232 0
M  V30 4340 C 403.3 -4.92613 -3.86114 0
M  V30 4341 H 403.533 -2.73507 -1.16537 0
M  V30 4342 H 401.066 -1.46278 -0.494168 0
M  V30 4343 H 403.024 -2.03972 -3.56238 0
M  V30 4344 H 401.685 -1.03565 -2.96535 0
M  V30 4345 H 400.878 -3.24303 -3.85803 0
M  V30 4346 H 400.48 -3.07235 -2.13267 0
M  V30 4347 H 402.772 -4.76957 -4.81164 0
M  V30 4348 H 403.715 -5.94698 -3.8437 0
M  V30 4349 H 404.123 -4.2073 -3.76359 0
M  V30 4350 N 403.521 0.559213 -1.47345 0
M  V30 4351 C 404.469 1.68747 -1.60085 0
M  V30 4352 C 405.463 1.628 -0.46825 0
M  V30 4353 O 406.669 1.68009 -0.645977 0
M  V30 4354 H 403.044 0.558329 -0.503759 0
M  V30 4355 H 405.015 1.55138 -2.54902 0
M  V30 4356 C 403.764 3.07103 -1.63042 0
M  V30 4357 H 403.087 3.12361 -2.49541 0
M  V30 4358 H 404.527 3.85743 -1.76006 0
M  V30 4359 C 402.986 3.34935 -0.363357 0
M  V30 4360 O 403.516 3.98102 0.536416 0
M  V30 4361 N 401.722 2.89574 -0.244 0
M  V30 4362 H 401.269 2.38348 -0.977133 0
M  V30 4363 H 401.227 3.08566 0.602836 0
M  V30 4364 N 404.999 1.35443 0.805782 0
M  V30 4365 C 405.946 1.28431 1.91766 0
M  V30 4366 C 406.916 0.156102 1.65365 0
M  V30 4367 O 408.101 0.339936 1.87747 0
M  V30 4368 C 405.241 1.06301 3.2832 0
M  V30 4369 C 404.354 2.2805 3.66902 0
M  V30 4370 C 403.489 1.99064 4.92491 0
M  V30 4371 C 402.528 3.16863 5.23703 0
M  V30 4372 N 401.665 2.87647 6.40471 0
M  V30 4373 H 406.505 2.23511 1.97096 0
M  V30 4374 H 404.042 1.11105 0.964054 0
M  V30 4375 H 406 0.915012 4.07042 0
M  V30 4376 H 404.63 0.148822 3.22457 0
M  V30 4377 H 403.682 2.53711 2.83434 0
M  V30 4378 H 404.994 3.1601 3.85927 0
M  V30 4379 H 404.148 1.81099 5.7904 0
M  V30 4380 H 402.887 1.0839 4.75503 0
M  V30 4381 H 401.892 3.35404 4.35642 0
M  V30 4382 H 403.117 4.08339 5.4262 0
M  V30 4383 H 401.063 1.99568 6.24907 0
M  V30 4384 H 400.98 3.69141 6.59751 0
M  V30 4385 H 402.248 2.73226 7.30047 0
M  V30 4386 N 406.477 -1.02803 1.19454 0
M  V30 4387 C 407.723 -1.76478 0.999171 0
M  V30 4388 C 408.056 -1.88456 -0.468828 0
M  V30 4389 O 407.331 -1.40198 -1.34814 0
M  V30 4390 C 407.614 -3.19044 1.66981 0
M  V30 4391 C 407.467 -3.14932 3.21151 0
M  V30 4392 C 408.786 -4.17456 1.39349 0
M  V30 4393 H 405.905 -0.640614 0.364393 0
M  V30 4394 H 408.547 -1.20005 1.47305 0
M  V30 4395 H 406.697 -3.67263 1.2669 0
M  V30 4396 H 408.369 -2.74605 3.70661 0
M  V30 4397 H 406.612 -2.52625 3.52652 0
M  V30 4398 H 407.283 -4.1566 3.63223 0
M  V30 4399 H 409.759 -3.77842 1.74283 0
M  V30 4400 H 408.635 -5.154 1.88823 0
M  V30 4401 H 408.896 -4.40949 0.318813 0
M  V30 4402 N 407.956 -0.998596 -1.21925 0
M  V30 4403 C 408.889 -0.498517 -2.22688 0
M  V30 4404 C 409.867 0.444301 -1.56412 0
M  V30 4405 O 411.051 0.368518 -1.84863 0
M  V30 4406 C 408.178 0.276639 -3.37568 0
M  V30 4407 C 407.224 -0.61302 -4.22071 0
M  V30 4408 S 408.057 -2.07168 -4.93803 0
M  V30 4409 C 409.213 -1.30617 -6.12119 0
M  V30 4410 H 409.446 -1.35234 -2.64762 0
M  V30 4411 H 406.979 -0.806018 -1.31692 0
M  V30 4412 H 408.937 0.717817 -4.04175 0
M  V30 4413 H 407.598 1.10581 -2.93991 0
M  V30 4414 H 406.791 -0.0162909 -5.03997 0
M  V30 4415 H 406.393 -0.991202 -3.60626 0
M  V30 4416 H 408.685 -0.57675 -6.75041 0
M  V30 4417 H 409.628 -2.10091 -6.76215 0
M  V30 4418 H 410.036 -0.816957 -5.58557 0
M  V30 4419 N 409.434 1.37368 -0.772513 0
M  V30 4420 C 410.344 2.34053 -0.160081 0
M  V30 4421 C 411.36 1.60216 0.678728 0
M  V30 4422 O 412.536 1.92303 0.59847 0
M  V30 4423 C 409.601 3.3939 0.708182 0
M  V30 4424 C 408.662 4.29048 -0.147172 0
M  V30 4425 C 407.895 5.29354 0.679744 0
M  V30 4426 O 408.118 5.3723 1.91678 0
M  V30 4427 O 407.052 6.01835 0.0885444 0
M  V30 4428 H 410.878 2.88159 -0.959053 0
M  V30 4429 H 408.463 1.39543 -0.533685 0
M  V30 4430 H 410.345 4.03839 1.20384 0
M  V30 4431 H 409.02 2.8761 1.48533 0
M  V30 4432 H 407.927 3.67697 -0.689205 0
M  V30 4433 H 409.26 4.84134 -0.887423 0
M  V30 4434 N 410.912 0.523116 1.48665 0
M  V30 4435 C 411.842 -0.23231 2.32342 0
M  V30 4436 C 412.823 -0.941637 1.41659 0
M  V30 4437 O 414.008 -0.928751 1.70552 0
M  V30 4438 C 411.138 -1.28387 3.22698 0
M  V30 4439 C 410.092 -0.693098 4.22351 0
M  V30 4440 C 409.418 -1.8468 5.01794 0
M  V30 4441 C 410.718 0.33063 5.21252 0
M  V30 4442 H 412.412 0.466192 2.95748 0
M  V30 4443 H 409.958 0.225643 1.42221 0
M  V30 4444 H 411.911 -1.82024 3.80059 0
M  V30 4445 H 410.635 -2.01186 2.57278 0
M  V30 4446 H 409.294 -0.178299 3.66166 0
M  V30 4447 H 408.942 -2.56301 4.32804 0
M  V30 4448 H 408.642 -1.45747 5.69238 0
M  V30 4449 H 410.166 -2.38709 5.62006 0
M  V30 4450 H 411.58 -0.118407 5.73178 0
M  V30 4451 H 409.977 0.636974 5.9671 0
M  V30 4452 H 411.047 1.23883 4.68808 0
M  V30 4453 N 412.39 -1.55475 0.257931 0
M  V30 4454 C 413.3 -2.2549 -0.647425 0
M  V30 4455 C 414.316 -1.2748 -1.18427 0
M  V30 4456 O 415.492 -1.6038 -1.2182 0
M  V30 4457 C 412.557 -2.94916 -1.82278 0
M  V30 4458 C 411.618 -4.08363 -1.32432 0
M  V30 4459 C 410.851 -4.74469 -2.44366 0
M  V30 4460 O 411.074 -4.39701 -3.63344 0
M  V30 4461 O 410.008 -5.62763 -2.13497 0
M  V30 4462 H 413.834 -3.03593 -0.0807707 0
M  V30 4463 H 411.419 -1.49377 0.0259962 0
M  V30 4464 H 413.301 -3.38606 -2.50846 0
M  V30 4465 H 411.976 -2.19744 -2.37685 0
M  V30 4466 H 410.883 -3.69166 -0.605605 0
M  V30 4467 H 412.216 -4.85385 -0.816211 0
M  V30 4468 N 413.868 0.0150385 -1.57593 0
M  V30 4469 C 414.815 1.01126 -2.07466 0
M  V30 4470 C 415.785 1.35064 -0.966794 0
M  V30 4471 O 416.97 1.4516 -1.23827 0
M  V30 4472 C 414.11 2.30276 -2.57035 0
M  V30 4473 C 413.223 2.02373 -3.81666 0
M  V30 4474 C 412.358 3.25496 -4.19793 0
M  V30 4475 C 411.397 2.93211 -5.37303 0
M  V30 4476 N 410.534 4.08826 -5.70794 0
M  V30 4477 H 415.374 0.57901 -2.92321 0
M  V30 4478 H 412.911 0.27426 -1.44521 0
M  V30 4479 H 414.869 3.05757 -2.83846 0
M  V30 4480 H 413.499 2.71197 -1.75077 0
M  V30 4481 H 412.551 1.17327 -3.61854 0
M  V30 4482 H 413.863 1.74567 -4.67256 0
M  V30 4483 H 413.017 4.09333 -4.47807 0
M  V30 4484 H 411.756 3.56428 -3.32882 0
M  V30 4485 H 410.761 2.07777 -5.09027 0
M  V30 4486 H 411.986 2.63542 -6.25877 0
M  V30 4487 H 409.932 4.39682 -4.86842 0
M  V30 4488 H 409.849 3.84491 -6.50924 0
M  V30 4489 H 411.117 4.93496 -6.03392 0
M  V30 4490 N 415.346 1.54954 0.287554 0
M  V30 4491 C 416.256 1.8991 1.37736 0
M  V30 4492 C 417.272 0.794701 1.54792 0
M  V30 4493 O 418.448 1.09243 1.69198 0
M  V30 4494 C 415.513 2.15108 2.71899 0
M  V30 4495 C 414.574 3.38752 2.63715 0
M  V30 4496 C 413.807 3.62739 3.91479 0
M  V30 4497 O 414.03 2.89492 4.91478 0
M  V30 4498 O 412.964 4.56267 3.92561 0
M  V30 4499 H 416.79 2.82652 1.11092 0
M  V30 4500 H 414.375 1.41315 0.484807 0
M  V30 4501 H 416.257 2.32806 3.51254 0
M  V30 4502 H 414.932 1.25551 2.9836 0
M  V30 4503 H 413.839 3.26405 1.82786 0
M  V30 4504 H 415.172 4.28483 2.42205 0
M  V30 4505 N 416.824 -0.551391 1.4764 0
M  V30 4506 C 418.073 -1.30467 1.53822 0
M  V30 4507 C 418.386 -1.94495 0.207661 0
M  V30 4508 O 419.592 -2.71099 0.147533 0
M  V30 4509 C 418.048 -2.36616 2.71184 0
M  V30 4510 C 417.656 -1.78754 4.10793 0
M  V30 4511 C 419.4 -3.13088 2.86663 0
M  V30 4512 C 417.307 -2.82717 5.19447 0
M  V30 4513 H 416.237 -0.490584 0.572576 0
M  V30 4514 H 418.888 -0.58494 1.73927 0
M  V30 4515 H 417.27 -3.11529 2.4447 0
M  V30 4516 H 418.444 -1.10173 4.47435 0
M  V30 4517 H 416.759 -1.14846 4.00249 0
M  V30 4518 H 419.356 -3.90736 3.65007 0
M  V30 4519 H 419.699 -3.67635 1.95321 0
M  V30 4520 H 420.232 -2.45288 3.13175 0
M  V30 4521 H 416.971 -2.33018 6.12685 0
M  V30 4522 H 416.491 -3.4969 4.87316 0
M  V30 4523 H 418.17 -3.46102 5.46646 0
M  V30 4524 N 418.302 -1.35869 -0.798587 0
M  V30 4525 C 419.265 -1.29307 -1.89242 0
M  V30 4526 C 420.265 -0.202747 -1.59517 0
M  V30 4527 O 421.455 -0.456957 -1.681 0
M  V30 4528 C 418.587 -1.00229 -3.25833 0
M  V30 4529 H 419.78 -2.26576 -1.96478 0
M  V30 4530 H 417.333 -1.20509 -0.995358 0
M  V30 4531 H 418.068 -0.033801 -3.24282 0
M  V30 4532 H 417.853 -1.79121 -3.48795 0
M  V30 4533 H 419.343 -0.98219 -4.05885 0
M  V30 4534 N 419.78 1.02168 -1.19998 0
M  V30 4535 C 420.728 2.12717 -0.940967 0
M  V30 4536 C 421.722 1.69069 0.105841 0
M  V30 4537 O 422.928 1.79946 -0.0440583 0
M  V30 4538 H 419.303 0.695108 -0.28693 0
M  V30 4539 H 421.274 2.3175 -1.87975 0
M  V30 4540 C 420.023 3.44027 -0.504049 0
M  V30 4541 H 419.346 3.78036 -1.30112 0
M  V30 4542 H 420.786 4.22452 -0.361991 0
M  V30 4543 C 419.245 3.27678 0.782878 0
M  V30 4544 O 419.775 3.56949 1.84256 0
M  V30 4545 N 417.981 2.80943 0.742921 0
M  V30 4546 H 417.528 2.57322 -0.119687 0
M  V30 4547 H 417.486 2.70385 1.60435 0
M  V30 4548 N 421.258 1.00505 1.21394 0
M  V30 4549 C 422.221 0.570459 2.21987 0
M  V30 4550 C 423.221 -0.353211 1.56873 0
M  V30 4551 O 424.411 -0.14349 1.73608 0
M  V30 4552 C 421.543 -0.168555 3.40483 0
M  V30 4553 H 422.736 1.46021 2.6195 0
M  V30 4554 H 420.289 0.793565 1.34656 0
M  V30 4555 H 421.024 -1.07374 3.06009 0
M  V30 4556 H 420.809 0.494823 3.88965 0
M  V30 4557 H 422.299 -0.460362 4.15055 0
M  V30 4558 N 422.737 -1.36956 0.779787 0
M  V30 4559 C 423.965 -2.03755 0.359398 0
M  V30 4560 C 424.38 -1.58807 -1.02106 0
M  V30 4561 O 423.737 -0.773024 -1.6532 0
M  V30 4562 C 423.788 -3.59251 0.402568 0
M  V30 4563 O 423.509 -4.02557 1.72858 0
M  V30 4564 C 425.01 -4.43291 -0.0284068 0
M  V30 4565 H 422.23 -0.654148 0.149437 0
M  V30 4566 H 424.774 -1.75128 1.05595 0
M  V30 4567 H 422.929 -3.86621 -0.245478 0
M  V30 4568 H 423.343 -4.97111 1.67275 0
M  V30 4569 H 424.817 -5.51975 0.0529466 0
M  V30 4570 H 425.294 -4.25719 -1.07982 0
M  V30 4571 H 425.9 -4.21163 0.591758 0
M  V30 4572 N 424.215 -0.530993 -1.48385 0
M  V30 4573 C 425.178 0.220497 -2.28137 0
M  V30 4574 C 426.178 0.866851 -1.35434 0
M  V30 4575 O 427.368 0.726746 -1.58316 0
M  V30 4576 C 424.5 1.31921 -3.1434 0
M  V30 4577 H 425.693 -0.479714 -2.96038 0
M  V30 4578 H 423.246 -0.286968 -1.53643 0
M  V30 4579 H 423.981 2.05264 -2.51072 0
M  V30 4580 H 423.766 0.86085 -3.82533 0
M  V30 4581 H 425.256 1.84776 -3.74497 0
M  V30 4582 N 425.693 1.55336 -0.266172 0
M  V30 4583 C 426.64 2.22172 0.625165 0
M  V30 4584 C 427.61 1.19211 1.15663 0
M  V30 4585 O 428.795 1.47723 1.20758 0
M  V30 4586 C 425.935 2.93972 1.8076 0
M  V30 4587 C 425.048 4.11632 1.31084 0
M  V30 4588 C 424.183 4.71099 2.45436 0
M  V30 4589 C 423.222 5.8097 1.92718 0
M  V30 4590 N 422.359 6.34538 3.00509 0
M  V30 4591 H 427.199 2.9796 0.0485582 0
M  V30 4592 H 424.736 1.47095 0.0122024 0
M  V30 4593 H 426.694 3.33811 2.50251 0
M  V30 4594 H 425.324 2.20623 2.35638 0
M  V30 4595 H 424.376 3.76975 0.509326 0
M  V30 4596 H 425.688 4.90893 0.884633 0
M  V30 4597 H 424.842 5.13612 3.22936 0
M  V30 4598 H 423.581 3.91096 2.91368 0
M  V30 4599 H 422.586 5.37916 1.13695 0
M  V30 4600 H 423.811 6.62836 1.47733 0
M  V30 4601 H 421.757 5.57433 3.45839 0
M  V30 4602 H 421.674 7.09046 2.62279 0
M  V30 4603 H 422.942 6.81709 3.78011 0
M  V30 4604 N 427.171 -0.0066808 1.57599 0
M  V30 4605 C 428.582 -0.550379 1.78403 0
M  V30 4606 C 428.933 -1.74339 0.900014 0
M  V30 4607 O 428.058 -2.16166 0.100713 0
M  V30 4608 C 428.653 -1.00523 3.23544 0
M  V30 4609 C 427.212 -1.49428 3.45468 0
M  V30 4610 C 426.359 -0.442444 2.73748 0
M  V30 4611 H 429.31 0.219508 1.57175 0
M  V30 4612 H 429.331 -1.87157 3.31289 0
M  V30 4613 H 428.843 -0.136735 3.87859 0
M  V30 4614 H 426.944 -2.3839 2.86358 0
M  V30 4615 H 427.057 -1.52635 4.54136 0
M  V30 4616 H 425.421 -0.902578 2.38171 0
M  V30 4617 H 426.204 0.416973 3.40758 0
M  V30 4618 N 428.649 -1.55105 -0.279332 0
M  V30 4619 C 429.559 -1.90638 -1.36727 0
M  V30 4620 C 430.575 -0.802899 -1.54368 0
M  V30 4621 O 431.751 -1.10138 -1.68616 0
M  V30 4622 C 428.816 -2.16547 -2.70755 0
M  V30 4623 C 427.877 -3.40146 -2.61915 0
M  V30 4624 C 427.11 -3.6481 -3.8955 0
M  V30 4625 O 427.333 -2.92095 -4.89935 0
M  V30 4626 O 426.267 -4.58343 -3.90135 0
M  V30 4627 H 430.093 -2.83237 -1.09591 0
M  V30 4628 H 427.678 -1.4157 -0.477306 0
M  V30 4629 H 429.56 -2.34665 -3.50014 0
M  V30 4630 H 428.235 -1.27131 -2.9769 0
M  V30 4631 H 427.142 -3.2737 -1.81052 0
M  V30 4632 H 428.475 -4.29761 -2.3993 0
M  V30 4633 N 430.127 0.543554 -1.4793 0
M  V30 4634 C 431.404 1.30458 -1.4574 0
M  V30 4635 C 431.784 2.1048 -0.161692 0
M  V30 4636 O 431.132 2.11831 0.856734 0
M  V30 4637 C 431.342 2.19754 -2.71126 0
M  V30 4638 C 432.69 2.80334 -3.18901 0
M  V30 4639 O 433.714 2.30049 -2.71948 0
M  V30 4640 O 432.573 3.71766 -4.00565 0
M  V30 4641 H 429.667 0.588117 -0.581418 0
M  V30 4642 H 432.213 0.561328 -1.60147 0
M  V30 4643 H 430.985 1.60316 -3.56952 0
M  V30 4644 H 430.608 3.01351 -2.59371 0
M  V30 4645 N 431.605 1.3629 0.791371 0
M  V30 4646 C 433.021 1.16661 1.08914 0
M  V30 4647 C 433.221 -0.0106266 2.01497 0
M  V30 4648 O 432.277 -0.676596 2.43266 0
M  V30 4649 C 433.59 2.47656 1.70549 0
M  V30 4650 C 435.138 2.54002 1.82899 0
M  V30 4651 C 435.613 3.85078 2.47949 0
M  V30 4652 N 437.104 3.86413 2.5542 0
M  V30 4653 C 437.839 4.84572 3.06557 0
M  V30 4654 N 437.335 5.93124 3.58016 0
M  V30 4655 N 439.128 4.71994 3.05251 0
M  V30 4656 H 431.279 2.11668 0.176238 0
M  V30 4657 H 433.542 0.937486 0.140796 0
M  V30 4658 H 433.248 3.34059 1.09989 0
M  V30 4659 H 433.122 2.63319 2.70079 0
M  V30 4660 H 435.509 1.68018 2.42598 0
M  V30 4661 H 435.59 2.42239 0.821808 0
M  V30 4662 H 435.234 4.71467 1.88895 0
M  V30 4663 H 435.164 3.94135 3.49235 0
M  V30 4664 H 437.655 3.07988 2.18979 0
M  V30 4665 H 437.968 6.63999 3.95381 0
M  V30 4666 H 436.313 5.96796 3.56173 0
M  V30 4667 H 439.504 3.86321 2.64336 0
M  V30 4668 H 439.677 5.48653 3.44796 0
M  V30 4669 N 433.083 -1.0153 1.20538 0
M  V30 4670 C 434.031 -2.12215 0.952235 0
M  V30 4671 C 435.025 -1.69123 -0.0968735 0
M  V30 4672 O 436.231 -1.7992 0.0536006 0
M  V30 4673 H 432.606 -0.693576 0.290613 0
M  V30 4674 H 434.577 -2.3075 1.89201 0
M  V30 4675 C 433.326 -3.43755 0.522287 0
M  V30 4676 H 432.649 -3.7734 1.32115 0
M  V30 4677 H 434.089 -4.22254 0.384389 0
M  V30 4678 C 432.548 -3.28088 -0.765489 0
M  V30 4679 O 433.078 -3.57921 -1.8236 0
M  V30 4680 N 431.284 -2.81333 -0.728011 0
M  V30 4681 H 430.831 -2.57255 0.133332 0
M  V30 4682 H 430.789 -2.71232 -1.58999 0
M  V30 4683 N 434.561 -1.01147 -1.20859 0
M  V30 4684 C 435.838 -0.613136 -1.85742 0
M  V30 4685 C 436.218 0.909004 -1.90526 0
M  V30 4686 O 435.566 1.79862 -1.40932 0
M  V30 4687 C 435.776 -1.255 -3.25654 0
M  V30 4688 C 437.124 -1.3672 -4.01986 0
M  V30 4689 O 438.148 -1.21082 -3.34989 0
M  V30 4690 O 437.007 -1.6194 -5.21956 0
M  V30 4691 H 434.101 -0.210878 -0.799662 0
M  V30 4692 H 436.647 -1.10853 -1.2849 0
M  V30 4693 H 435.419 -2.29532 -3.16908 0
M  V30 4694 H 435.042 -0.746369 -3.90532 0
M  V30 4695 N 436.039 1.36541 -0.78704 0
M  V30 4696 C 437.45 1.81873 -0.421807 0
M  V30 4697 C 437.801 1.65487 1.05397 0
M  V30 4698 O 436.926 1.17448 1.81755 0
M  V30 4699 C 437.521 3.30192 -0.758841 0
M  V30 4700 C 436.08 3.73743 -0.446468 0
M  V30 4701 C 435.227 2.58844 -0.994728 0
M  V30 4702 H 438.178 1.24796 -0.98039 0
M  V30 4703 H 438.199 3.80468 -0.0490648 0
M  V30 4704 H 437.711 3.42087 -1.83299 0
M  V30 4705 H 435.812 3.6741 0.619739 0
M  V30 4706 H 435.925 4.69272 -0.965415 0
M  V30 4707 H 434.289 2.51245 -0.418087 0
M  V30 4708 H 435.072 2.73525 -2.07458 0
M  V30 4709 N 437.518 0.538854 1.48102 0
M  V30 4710 C 438.451 -0.266495 2.26639 0
M  V30 4711 C 439.429 -0.93687 1.32897 0
M  V30 4712 O 440.613 -0.959507 1.62252 0
M  V30 4713 C 437.74 -1.37814 3.09394 0
M  V30 4714 C 436.786 -0.818247 4.18577 0
M  V30 4715 S 437.619 0.320848 5.34538 0
M  V30 4716 C 438.775 -0.793059 6.20855 0
M  V30 4717 H 439.008 0.399994 2.94597 0
M  V30 4718 H 436.541 0.324808 1.50945 0
M  V30 4719 H 438.499 -2.01488 3.57649 0
M  V30 4720 H 437.16 -2.01639 2.40833 0
M  V30 4721 H 436.353 -1.65247 4.7614 0
M  V30 4722 H 435.955 -0.258036 3.73109 0
M  V30 4723 H 438.247 -1.68961 6.56093 0
M  V30 4724 H 439.19 -0.255204 7.0764 0
M  V30 4725 H 439.598 -1.07746 5.54122 0
M  V30 4726 N 438.996 -1.55193 0.274407 0
M  V30 4727 C 439.926 -2.25471 -0.607032 0
M  V30 4728 C 440.907 -1.24461 -1.15946 0
M  V30 4729 O 442.092 -1.53179 -1.19373 0
M  V30 4730 C 439.222 -2.97526 -1.79153 0
M  V30 4731 C 438.176 -4.05459 -1.37067 0
M  V30 4732 C 437.502 -4.65084 -2.6382 0
M  V30 4733 C 438.802 -5.19691 -0.521389 0
M  V30 4734 H 440.496 -2.99393 -0.0209343 0
M  V30 4735 H 438.042 -1.43997 -0.00862866 0
M  V30 4736 H 439.995 -3.45402 -2.41404 0
M  V30 4737 H 438.719 -2.21138 -2.40344 0
M  V30 4738 H 437.378 -3.58393 -0.771355 0
M  V30 4739 H 437.026 -3.85365 -3.23268 0
M  V30 4740 H 436.726 -5.37961 -2.36372 0
M  V30 4741 H 438.25 -5.15708 -3.26921 0
M  V30 4742 H 439.664 -5.63623 -1.04889 0
M  V30 4743 H 438.061 -5.99126 -0.341825 0
M  V30 4744 H 439.131 -4.82713 0.46 0
M  V30 4745 N 440.474 -0.00167713 -1.576 0
M  V30 4746 C 441.404 0.988091 -2.11563 0
M  V30 4747 C 442.385 1.35736 -1.02517 0
M  V30 4748 O 443.57 1.44082 -1.30208 0
M  V30 4749 C 440.7 2.27941 -2.62031 0
M  V30 4750 C 439.654 2.0517 -3.75619 0
M  V30 4751 C 438.98 3.4033 -4.12407 0
M  V30 4752 C 440.28 1.41294 -5.02825 0
M  V30 4753 H 441.974 0.538771 -2.94513 0
M  V30 4754 H 439.52 0.257712 -1.41675 0
M  V30 4755 H 441.473 2.97539 -2.9841 0
M  V30 4756 H 440.197 2.74989 -1.76205 0
M  V30 4757 H 438.856 1.37998 -3.39635 0
M  V30 4758 H 438.504 3.85085 -3.23603 0
M  V30 4759 H 438.204 3.25909 -4.88935 0
M  V30 4760 H 439.728 4.1124 -4.51347 0
M  V30 4761 H 441.142 2.00851 -5.36965 0
M  V30 4762 H 439.539 1.37356 -5.84169 0
M  V30 4763 H 440.609 0.382362 -4.8339 0
M  V30 4764 N 441.952 1.55251 0.271103 0
M  V30 4765 C 443.182 1.79713 1.01916 0
M  V30 4766 C 443.59 0.571613 1.80359 0
M  V30 4767 O 442.933 -0.468853 1.77616 0
M  V30 4768 C 442.995 2.97138 2.02359 0
M  V30 4769 C 442.659 4.34104 1.42837 0
M  V30 4770 C 443.656 5.13019 0.843071 0
M  V30 4771 C 441.341 4.80765 1.455 0
M  V30 4772 C 443.335 6.36729 0.292333 0
M  V30 4773 C 441.022 6.0443 0.900402 0
M  V30 4774 C 442.02 6.8225 0.32007 0
M  V30 4775 O 441.708 8.03582 -0.226031 0
M  V30 4776 H 441.44 0.602431 0.306681 0
M  V30 4777 H 443.994 2.03097 0.306701 0
M  V30 4778 H 442.224 2.6945 2.77369 0
M  V30 4779 H 443.913 3.08907 2.63309 0
M  V30 4780 H 444.679 4.781 0.815178 0
M  V30 4781 H 440.558 4.20202 1.89609 0
M  V30 4782 H 444.102 6.97414 -0.161274 0
M  V30 4783 H 439.999 6.3883 0.925541 0
M  V30 4784 H 440.767 8.18418 -0.115572 0
M  V30 4785 N 443.43 -0.535701 1.48216 0
M  V30 4786 C 444.378 -1.66179 1.62749 0
M  V30 4787 C 445.372 -1.62034 0.49409 0
M  V30 4788 O 446.578 -1.6696 0.672624 0
M  V30 4789 H 442.953 -0.550244 0.512578 0
M  V30 4790 H 444.924 -1.51063 2.57337 0
M  V30 4791 C 443.673 -3.04471 1.67907 0
M  V30 4792 H 442.996 -3.08351 2.54479 0
M  V30 4793 H 444.436 -3.82894 1.82121 0
M  V30 4794 C 442.895 -3.34314 0.416596 0
M  V30 4795 O 443.425 -3.98905 -0.473014 0
M  V30 4796 N 441.631 -2.89149 0.290038 0
M  V30 4797 H 441.178 -2.36764 1.01493 0
M  V30 4798 H 441.136 -3.09486 -0.55367 0
M  V30 4799 N 444.908 -1.36708 -0.784132 0
M  V30 4800 C 445.855 -1.31466 -1.89698 0
M  V30 4801 C 446.825 -0.18239 -1.65096 0
M  V30 4802 O 448.01 -0.369762 -1.87183 0
M  V30 4803 C 445.15 -1.1151 -3.26588 0
M  V30 4804 C 444.263 -2.33859 -3.63227 0
M  V30 4805 C 443.398 -2.06873 -4.89262 0
M  V30 4806 C 442.437 -3.25154 -5.18595 0
M  V30 4807 N 441.574 -2.978 -6.35814 0
M  V30 4808 H 446.414 -2.26619 -1.93515 0
M  V30 4809 H 443.951 -1.12625 -0.946256 0
M  V30 4810 H 445.909 -0.979653 -4.05535 0
M  V30 4811 H 444.539 -0.200103 -3.22179 0
M  V30 4812 H 443.591 -2.58188 -2.79362 0
M  V30 4813 H 444.903 -3.22109 -3.8085 0
M  V30 4814 H 444.057 -1.90289 -5.76086 0
M  V30 4815 H 442.796 -1.15942 -4.73718 0
M  V30 4816 H 441.801 -3.42292 -4.30251 0
M  V30 4817 H 443.026 -4.1692 -5.36055 0
M  V30 4818 H 440.972 -2.09485 -6.21653 0
M  V30 4819 H 440.889 -3.7959 -6.53794 0
M  V30 4820 H 442.157 -2.84805 -7.25607 0
M  V30 4821 N 446.386 1.0089 -1.21074 0
M  V30 4822 C 447.319 2.09279 -0.909806 0
M  V30 4823 C 448.297 1.61986 0.141145 0
M  V30 4824 O 449.481 1.88495 0.0130332 0
M  V30 4825 C 446.608 3.36723 -0.365374 0
M  V30 4826 C 445.654 4.02919 -1.39852 0
M  V30 4827 S 446.487 4.45835 -2.96633 0
M  V30 4828 C 447.643 5.76471 -2.43786 0
M  V30 4829 H 447.876 2.34484 -1.82769 0
M  V30 4830 H 445.409 1.14115 -1.04006 0
M  V30 4831 H 447.367 4.10459 -0.0578203 0
M  V30 4832 H 446.028 3.09577 0.531136 0
M  V30 4833 H 445.221 4.94634 -0.967117 0
M  V30 4834 H 444.823 3.35441 -1.65395 0
M  V30 4835 H 447.115 6.52027 -1.84029 0
M  V30 4836 H 448.058 6.24418 -3.33928 0
M  V30 4837 H 448.466 5.33104 -1.85636 0
M  V30 4838 N 447.864 1.01787 1.20321 0
M  V30 4839 C 449.092 0.727194 1.937 0
M  V30 4840 C 449.507 -0.712305 1.74848 0
M  V30 4841 O 448.864 -1.48327 1.06327 0
M  V30 4842 C 448.915 1.05497 3.45764 0
M  V30 4843 O 448.636 2.43794 3.64 0
M  V30 4844 C 450.137 0.785534 4.36285 0
M  V30 4845 H 447.357 0.266939 0.615617 0
M  V30 4846 H 449.901 1.35939 1.52777 0
M  V30 4847 H 448.056 0.468158 3.84561 0
M  V30 4848 H 448.47 2.55656 4.57974 0
M  V30 4849 H 449.944 1.06495 5.4163 0
M  V30 4850 H 450.421 -0.280273 4.38305 0
M  V30 4851 H 451.027 1.35456 4.03152 0
M  V30 4852 N 449.342 -1.36122 0.79427 0
M  V30 4853 C 450.272 -2.32551 0.210328 0
M  V30 4854 C 451.253 -1.56884 -0.657386 0
M  V30 4855 O 452.438 -1.85014 -0.590207 0
M  V30 4856 C 449.568 -3.41128 -0.651819 0
M  V30 4857 C 448.522 -4.27842 0.116395 0
M  V30 4858 C 447.848 -5.2763 -0.86666 0
M  V30 4859 C 449.148 -5.05647 1.30837 0
M  V30 4860 H 450.842 -2.81636 1.01594 0
M  V30 4861 H 448.388 -1.35407 0.489981 0
M  V30 4862 H 450.341 -4.07581 -1.07031 0
M  V30 4863 H 449.065 -2.90622 -1.49019 0
M  V30 4864 H 447.724 -3.62952 0.515915 0
M  V30 4865 H 447.372 -4.73395 -1.70019 0
M  V30 4866 H 447.072 -5.86514 -0.35705 0
M  V30 4867 H 448.596 -5.96955 -1.28361 0
M  V30 4868 H 450.01 -5.65113 0.965393 0
M  V30 4869 H 448.407 -5.73967 1.75161 0
M  V30 4870 H 449.477 -4.37006 2.10128 0
M  V30 4871 N 450.82 -0.546701 -1.47814 0
M  V30 4872 C 451.783 0.196287 -2.28358 0
M  V30 4873 C 452.783 0.852437 -1.36346 0
M  V30 4874 O 453.973 0.709913 -1.59078 0
M  V30 4875 C 451.105 1.28579 -3.15722 0
M  V30 4876 H 452.298 -0.511086 -2.95513 0
M  V30 4877 H 449.851 -0.303248 -1.5333 0
M  V30 4878 H 450.586 2.0259 -2.53235 0
M  V30 4879 H 450.371 0.820229 -3.83425 0
M  V30 4880 H 451.861 1.80793 -3.76435 0
M  V30 4881 N 452.299 1.55045 -0.282633 0
M  V30 4882 C 453.231 2.2023 0.634924 0
M  V30 4883 C 454.244 1.18931 1.11172 0
M  V30 4884 O 455.433 1.4562 1.03233 0
M  V30 4885 C 452.533 2.82041 1.87899 0
M  V30 4886 C 451.706 4.091 1.54776 0
M  V30 4887 C 450.765 4.54887 2.64507 0
M  V30 4888 O 449.791 5.20496 2.30375 0
M  V30 4889 N 450.993 4.25659 3.94709 0
M  V30 4890 H 453.758 2.99601 0.0769811 0
M  V30 4891 H 451.319 1.61565 -0.104048 0
M  V30 4892 H 453.311 3.09613 2.60619 0
M  V30 4893 H 451.881 2.06618 2.3458 0
M  V30 4894 H 451.101 3.88736 0.654049 0
M  V30 4895 H 452.389 4.9187 1.30158 0
M  V30 4896 H 451.787 3.7306 4.25256 0
M  V30 4897 H 450.344 4.57984 4.63782 0
M  V30 4898 N 453.777 0.010035 1.57597 0
M  V30 4899 C 455.026 -0.671945 1.90178 0
M  V30 4900 C 455.339 -1.74376 0.886131 0
M  V30 4901 O 456.545 -2.48107 1.10252 0
M  V30 4902 C 455.001 -1.24636 3.3763 0
M  V30 4903 C 454.609 -0.208838 4.47513 0
M  V30 4904 C 456.353 -1.90595 3.79307 0
M  V30 4905 C 454.26 -0.793814 5.86048 0
M  V30 4906 H 453.19 -0.25474 0.709665 0
M  V30 4907 H 455.841 0.0722206 1.83358 0
M  V30 4908 H 454.223 -2.04152 3.3932 0
M  V30 4909 H 455.397 0.562463 4.57354 0
M  V30 4910 H 453.712 0.350889 4.14919 0
M  V30 4911 H 456.309 -2.35284 4.80151 0
M  V30 4912 H 456.652 -2.74074 3.13352 0
M  V30 4913 H 457.185 -1.17798 3.79958 0
M  V30 4914 H 453.924 0.00240855 6.555 0
M  V30 4915 H 453.444 -1.53404 5.79851 0
M  V30 4916 H 455.123 -1.2894 6.34022 0
M  V30 4917 N 455.255 -1.55392 -0.262866 0
M  V30 4918 C 456.187 -1.85392 -1.34768 0
M  V30 4919 C 457.2 -0.739069 -1.45057 0
M  V30 4920 O 458.389 -1.01703 -1.46693 0
M  V30 4921 C 455.489 -2.01088 -2.72795 0
M  V30 4922 C 454.662 -3.31828 -2.84972 0
M  V30 4923 C 453.721 -3.37464 -4.03738 0
M  V30 4924 O 452.747 -4.10778 -3.94018 0
M  V30 4925 N 453.949 -2.65599 -5.16176 0
M  V30 4926 H 456.714 -2.79029 -1.09375 0
M  V30 4927 H 454.275 -1.55434 -0.452981 0
M  V30 4928 H 456.267 -2.02217 -3.50557 0
M  V30 4929 H 454.837 -1.1427 -2.90966 0
M  V30 4930 H 454.057 -3.43152 -1.94012 0
M  V30 4931 H 455.345 -4.18032 -2.90045 0
M  V30 4932 H 454.743 -2.05736 -5.26962 0
M  V30 4933 H 453.3 -2.72439 -5.92132 0
M  V30 4934 N 456.733 0.527833 -1.48498 0
M  V30 4935 C 457.681 1.65313 -1.63628 0
M  V30 4936 C 458.675 1.6177 -0.502676 0
M  V30 4937 O 459.881 1.66601 -0.681469 0
M  V30 4938 H 456.256 0.547518 -0.515488 0
M  V30 4939 H 458.227 1.49696 -2.58135 0
M  V30 4940 C 456.976 3.03576 -1.6952 0
M  V30 4941 H 456.299 3.06997 -2.56111 0
M  V30 4942 H 457.739 3.81923 -1.84149 0
M  V30 4943 C 456.198 3.34089 -0.43432 0
M  V30 4944 O 456.728 3.99151 0.451852 0
M  V30 4945 N 454.934 2.88991 -0.305368 0
M  V30 4946 H 454.481 2.36222 -1.02747 0
M  V30 4947 H 454.439 3.09776 0.537249 0
M  V30 4948 N 458.211 1.37122 0.776871 0
M  V30 4949 C 459.159 1.32549 1.91138 0
M  V30 4950 C 460.153 0.215119 1.68029 0
M  V30 4951 O 461.359 0.382852 1.75881 0
M  V30 4952 H 457.734 0.412952 0.62847 0
M  V30 4953 H 459.705 2.28332 1.92112 0
M  V30 4954 C 458.454 1.14422 3.28333 0
M  V30 4955 H 457.777 1.99115 3.46689 0
M  V30 4956 H 459.217 1.15272 4.0803 0
M  V30 4957 C 457.676 -0.150434 3.36564 0
M  V30 4958 O 458.206 -1.13584 3.85307 0
M  V30 4959 N 456.412 -0.19939 2.89915 0
M  V30 4960 H 455.959 0.603142 2.5044 0
M  V30 4961 H 455.917 -1.06526 2.95803 0
M  V30 4962 N 459.689 -1.00246 1.21608 0
M  V30 4963 C 460.936 -1.74061 1.03485 0
M  V30 4964 C 461.264 -1.89658 -0.431308 0
M  V30 4965 O 460.519 -1.42976 -1.33627 0
M  V30 4966 C 460.818 -3.15448 1.68009 0
M  V30 4967 C 460.484 -3.19792 3.17874 0
M  V30 4968 C 459.146 -3.20685 3.58768 0
M  V30 4969 C 461.498 -3.16835 4.13842 0
M  V30 4970 C 458.826 -3.16309 4.94131 0
M  V30 4971 C 461.178 -3.14001 5.49169 0
M  V30 4972 C 459.842 -3.13204 5.89457 0
M  V30 4973 H 459.112 -0.636934 0.378677 0
M  V30 4974 H 461.759 -1.17473 1.51236 0
M  V30 4975 H 460.064 -3.75284 1.12557 0
M  V30 4976 H 461.761 -3.71285 1.51487 0
M  V30 4977 H 458.351 -3.19842 2.85305 0
M  V30 4978 H 462.535 -3.15303 3.83272 0
M  V30 4979 H 457.791 -3.14032 5.24589 0
M  V30 4980 H 461.965 -3.10667 6.23265 0
M  V30 4981 H 459.592 -3.09568 6.94314 0
M  V30 4982 N 461.167 -1.02423 -1.1978 0
M  V30 4983 C 462.392 -0.7373 -1.93852 0
M  V30 4984 C 462.817 0.696923 -1.74713 0
M  V30 4985 O 462.175 1.48056 -1.04638 0
M  V30 4986 C 462.223 -1.08783 -3.438 0
M  V30 4987 O 461.327 -0.20383 -4.11896 0
M  V30 4988 H 460.668 -0.27284 -0.605355 0
M  V30 4989 H 463.198 -1.36966 -1.51992 0
M  V30 4990 H 463.208 -1.04276 -3.9445 0
M  V30 4991 H 461.883 -2.13274 -3.57053 0
M  V30 4992 H 460.46 -0.307091 -3.71633 0
M  V30 4993 N 462.645 1.35699 -0.801477 0
M  V30 4994 C 463.575 2.32436 -0.222658 0
M  V30 4995 C 464.556 1.5723 0.649057 0
M  V30 4996 O 465.741 1.85324 0.580387 0
M  V30 4997 C 462.871 3.41469 0.633719 0
M  V30 4998 C 461.825 4.27774 -0.139083 0
M  V30 4999 C 461.151 5.28082 0.838666 0
M  V30 5000 C 462.451 5.04946 -1.33517 0
M  V30 5001 H 464.145 2.81094 -1.03086 0
M  V30 5002 H 461.691 1.35146 -0.497155 0
M  V30 5003 H 463.644 4.08143 1.04868 0
M  V30 5004 H 462.368 2.91408 1.47475 0
M  V30 5005 H 461.027 3.62673 -0.535156 0
M  V30 5006 H 460.675 4.7429 1.67506 0
M  V30 5007 H 460.375 5.86695 0.32594 0
M  V30 5008 H 461.899 5.97628 1.25194 0
M  V30 5009 H 463.313 5.64593 -0.995349 0
M  V30 5010 H 461.71 5.7303 -1.78202 0
M  V30 5011 H 462.78 4.35886 -2.12442 0
M  V30 5012 N 464.123 0.554532 1.47522 0
M  V30 5013 C 465.033 -0.197865 2.33764 0
M  V30 5014 C 466.049 -0.914576 1.48025 0
M  V30 5015 O 467.225 -0.884067 1.80959 0
M  V30 5016 C 464.29 -1.21628 3.24665 0
M  V30 5017 C 463.351 -0.507283 4.26292 0
M  V30 5018 C 462.584 -1.47718 5.1285 0
M  V30 5019 O 462.807 -2.7118 5.01814 0
M  V30 5020 O 461.741 -1.00313 5.93482 0
M  V30 5021 H 465.567 0.50949 2.99396 0
M  V30 5022 H 463.152 0.315176 1.46038 0
M  V30 5023 H 465.034 -1.80421 3.80823 0
M  V30 5024 H 463.709 -1.9056 2.61665 0
M  V30 5025 H 462.616 0.121778 3.73902 0
M  V30 5026 H 463.949 0.140544 4.91999 0
M  V30 5027 N 465.601 -1.54893 0.290851 0
M  V30 5028 C 466.85 -1.99111 -0.322113 0
M  V30 5029 C 467.163 -1.18283 -1.55784 0
M  V30 5030 O 468.369 -1.5272 -2.24475 0
M  V30 5031 C 466.825 -3.54442 -0.624438 0
M  V30 5032 C 466.433 -4.44066 0.592373 0
M  V30 5033 C 468.177 -4.07211 -1.19916 0
M  V30 5034 C 466.084 -5.90812 0.263762 0
M  V30 5035 H 465.014 -0.743712 -0.124133 0
M  V30 5036 H 467.665 -1.79132 0.39797 0
M  V30 5037 H 466.047 -3.70281 -1.40384 0
M  V30 5038 H 467.221 -4.39999 1.36886 0
M  V30 5039 H 465.536 -4.02015 1.08502 0
M  V30 5040 H 468.133 -5.14407 -1.45909 0
M  V30 5041 H 468.476 -3.57196 -2.13815 0
M  V30 5042 H 469.009 -3.94873 -0.481687 0
M  V30 5043 H 465.748 -6.44955 1.17105 0
M  V30 5044 H 465.268 -5.97911 -0.475655 0
M  V30 5045 H 466.947 -6.46852 -0.138354 0
M  V30 5046 N 467.08 -0.0183926 -1.57589 0
M  V30 5047 C 468.028 0.985111 -2.10709 0
M  V30 5048 C 469.022 1.34397 -1.0312 0
M  V30 5049 O 470.228 1.32746 -1.21567 0
M  V30 5050 H 466.603 0.335418 -0.673052 0
M  V30 5051 H 468.574 0.511689 -2.9398 0
M  V30 5052 C 467.323 2.26202 -2.64061 0
M  V30 5053 H 466.646 1.9946 -3.4649 0
M  V30 5054 H 468.086 2.94652 -3.04887 0
M  V30 5055 C 466.545 2.98444 -1.5631 0
M  V30 5056 O 467.075 3.90142 -0.956674 0
M  V30 5057 N 465.281 2.6059 -1.28612 0
M  V30 5058 H 464.828 1.86101 -1.78112 0
M  V30 5059 H 464.786 3.09238 -0.567406 0
M  V30 5060 N 468.558 1.5553 0.254621 0
M  V30 5061 C 469.806 1.7665 0.981793 0
M  V30 5062 C 470.127 0.580963 1.86145 0
M  V30 5063 O 469.397 -0.403537 1.91699 0
M  V30 5064 H 467.977 0.651475 0.365498 0
M  V30 5065 H 470.639 1.92958 0.274426 0
M  V30 5066 H 469.735 2.67486 1.60802 0
M  V30 5067 N 470.036 -0.519951 1.48776 0
M  V30 5068 C 470.983 -1.62352 1.64044 0
M  V30 5069 C 471.953 -1.58945 0.482251 0
M  V30 5070 O 473.138 -1.77219 0.706971 0
M  V30 5071 C 470.278 -3.00579 1.69547 0
M  V30 5072 C 469.391 -3.14145 2.96541 0
M  V30 5073 C 468.526 -4.42991 2.93142 0
M  V30 5074 C 467.565 -4.50122 4.14797 0
M  V30 5075 N 466.702 -5.7037 4.09418 0
M  V30 5076 H 471.542 -1.48643 2.58281 0
M  V30 5077 H 469.079 -0.723516 1.28077 0
M  V30 5078 H 471.037 -3.80671 1.70719 0
M  V30 5079 H 469.667 -3.13036 0.787918 0
M  V30 5080 H 468.719 -2.27239 3.05068 0
M  V30 5081 H 470.031 -3.15275 3.86527 0
M  V30 5082 H 469.185 -5.31385 2.92772 0
M  V30 5083 H 467.924 -4.44398 2.00902 0
M  V30 5084 H 466.929 -3.60133 4.15433 0
M  V30 5085 H 468.154 -4.50445 5.08208 0
M  V30 5086 H 466.1 -5.72655 3.20004 0
M  V30 5087 H 466.017 -5.73036 4.93119 0
M  V30 5088 H 467.285 -6.61023 4.13121 0
M  V30 5089 N 471.514 -1.37532 -0.769588 0
M  V30 5090 C 472.925 -1.29382 -1.346 0
M  V30 5091 C 473.276 0.0576039 -1.96115 0
M  V30 5092 O 472.401 0.95947 -1.93967 0
M  V30 5093 C 472.996 -2.34298 -2.44724 0
M  V30 5094 C 471.555 -2.29776 -2.98128 0
M  V30 5095 C 470.702 -2.18013 -1.71364 0
M  V30 5096 H 473.653 -1.48123 -0.56968 0
M  V30 5097 H 473.674 -1.99089 -3.24259 0
M  V30 5098 H 473.186 -3.32645 -1.99922 0
M  V30 5099 H 471.287 -1.34959 -3.47299 0
M  V30 5100 H 471.4 -3.23276 -3.53595 0
M  V30 5101 H 469.764 -1.64595 -1.94372 0
M  V30 5102 H 470.547 -3.18278 -1.28662 0
M  V30 5103 N 472.992 0.995999 -1.22138 0
M  V30 5104 C 474.239 1.7351 -1.04406 0
M  V30 5105 C 474.567 1.89884 0.421244 0
M  V30 5106 O 473.822 1.43683 1.32867 0
M  V30 5107 C 474.121 3.14553 -1.6968 0
M  V30 5108 C 473.787 3.18102 -3.19565 0
M  V30 5109 C 472.449 3.18778 -3.60464 0
M  V30 5110 C 474.801 3.14636 -4.15516 0
M  V30 5111 C 472.129 3.13684 -4.95801 0
M  V30 5112 C 474.481 3.11084 -5.50826 0
M  V30 5113 C 473.145 3.10074 -5.91109 0
M  V30 5114 H 472.415 0.634916 -0.38205 0
M  V30 5115 H 475.062 1.1667 -1.51857 0
M  V30 5116 H 473.367 3.74682 -1.14546 0
M  V30 5117 H 475.064 3.70477 -1.53454 0
M  V30 5118 H 471.654 3.18324 -2.86998 0
M  V30 5119 H 475.838 3.13266 -3.84939 0
M  V30 5120 H 471.094 3.11245 -5.26247 0
M  V30 5121 H 475.268 3.07357 -6.24904 0
M  V30 5122 H 472.895 3.05882 -6.95946 0
M  V30 5123 N 474.47 1.03057 1.19235 0
M  V30 5124 C 475.695 0.74757 1.93458 0
M  V30 5125 C 476.12 -0.687648 1.7508 0
M  V30 5126 O 475.478 -1.47499 1.05422 0
M  V30 5127 C 475.526 1.10604 3.43219 0
M  V30 5128 O 474.63 0.225671 4.11782 0
M  V30 5129 H 473.971 0.276047 0.603899 0
M  V30 5130 H 476.501 1.3777 1.51263 0
M  V30 5131 H 476.511 1.06366 3.93891 0
M  V30 5132 H 475.186 2.15165 3.55917 0
M  V30 5133 H 473.763 0.326795 3.71465 0
M  V30 5134 N 475.948 -1.35272 0.808662 0
M  V30 5135 C 477.194 -1.99434 0.399717 0
M  V30 5136 C 477.549 -1.62992 -1.02232 0
M  V30 5137 O 476.842 -0.884091 -1.69983 0
M  V30 5138 C 477.036 -3.53556 0.522798 0
M  V30 5139 C 476.865 -4.04969 1.95525 0
M  V30 5140 C 475.635 -4.34228 2.58407 0
M  V30 5141 C 477.833 -4.23362 2.92009 0
M  V30 5142 N 475.815 -4.71585 3.93041 0
M  V30 5143 C 477.186 -4.63739 4.11517 0
M  V30 5144 C 479.241 -4.05576 2.88813 0
M  V30 5145 C 477.944 -4.88189 5.28265 0
M  V30 5146 C 479.97 -4.31184 4.04765 0
M  V30 5147 C 479.332 -4.71834 5.23022 0
M  V30 5148 H 475.431 -0.757534 0.19408 0
M  V30 5149 H 478.015 -1.63939 1.05034 0
M  V30 5150 H 476.186 -3.88277 -0.0978471 0
M  V30 5151 H 477.918 -4.04604 0.0882378 0
M  V30 5152 H 474.673 -4.24621 2.09747 0
M  V30 5153 H 475.097 -4.9452 4.62363 0
M  V30 5154 H 479.739 -3.73288 1.98535 0
M  V30 5155 H 477.457 -5.1935 6.19113 0
M  V30 5156 H 481.043 -4.18972 4.03675 0
M  V30 5157 H 479.923 -4.91263 6.11253 0
M  V30 5158 N 477.426 -0.562348 -1.47226 0
M  V30 5159 C 478.356 0.170627 -2.32876 0
M  V30 5160 C 479.337 0.903748 -1.44106 0
M  V30 5161 O 480.522 0.883206 -1.72954 0
M  V30 5162 C 477.652 1.19786 -3.25989 0
M  V30 5163 C 476.606 0.580875 -4.2404 0
M  V30 5164 C 475.932 1.71311 -5.06514 0
M  V30 5165 C 477.232 -0.468714 -5.20193 0
M  V30 5166 H 478.926 -0.544441 -2.94408 0
M  V30 5167 H 476.472 -0.263271 -1.41573 0
M  V30 5168 H 478.425 1.71884 -3.84752 0
M  V30 5169 H 477.149 1.94294 -2.62521 0
M  V30 5170 H 475.808 0.0811538 -3.6651 0
M  V30 5171 H 475.456 2.44736 -4.39447 0
M  V30 5172 H 475.156 1.30604 -5.72902 0
M  V30 5173 H 476.68 2.23725 -5.68137 0
M  V30 5174 H 478.094 -0.0336028 -5.7329 0
M  V30 5175 H 476.491 -0.794957 -5.94811 0
M  V30 5176 H 477.561 -1.36269 -4.65359 0
M  V30 5177 N 478.904 1.54736 -0.299062 0
M  V30 5178 C 479.852 2.24897 0.593658 0
M  V30 5179 C 480.846 1.25429 1.13859 0
M  V30 5180 O 482.052 1.43286 1.08945 0
M  V30 5181 H 478.427 0.72207 0.210046 0
M  V30 5182 H 480.398 2.98393 -0.0206421 0
M  V30 5183 C 479.147 3.00159 1.75499 0
M  V30 5184 H 478.47 3.76501 1.34489 0
M  V30 5185 H 479.91 3.52535 2.35574 0
M  V30 5186 C 478.369 2.07015 2.65794 0
M  V30 5187 O 478.899 1.63692 3.66835 0
M  V30 5188 N 477.105 1.73012 2.33485 0
M  V30 5189 H 476.652 2.08439 1.51364 0
M  V30 5190 H 476.61 1.10965 2.94167 0
M  V30 5191 N 480.382 0.0267497 1.57577 0
M  V30 5192 C 481.629 -0.652404 1.91703 0
M  V30 5193 C 481.957 -1.72271 0.902936 0
M  V30 5194 O 481.212 -1.955 -0.0884843 0
M  V30 5195 C 481.511 -1.30914 3.3256 0
M  V30 5196 C 481.177 -0.369441 4.49384 0
M  V30 5197 C 479.839 -0.110791 4.81072 0
M  V30 5198 C 482.191 0.275971 5.20469 0
M  V30 5199 C 479.519 0.801116 5.81205 0
M  V30 5200 C 481.871 1.17592 6.21575 0
M  V30 5201 C 480.535 1.44348 6.51705 0
M  V30 5202 H 479.805 -0.238732 0.70149 0
M  V30 5203 H 482.452 0.0880091 1.91298 0
M  V30 5204 H 480.757 -2.12425 3.29216 0
M  V30 5205 H 482.454 -1.84115 3.56234 0
M  V30 5206 H 479.044 -0.581211 4.24641 0
M  V30 5207 H 483.228 0.0892 4.9622 0
M  V30 5208 H 478.484 1.01614 6.02897 0
M  V30 5209 H 482.658 1.68223 6.75777 0
M  V30 5210 H 480.285 2.15176 7.29111 0
M  V30 5211 N 481.861 -1.55662 -0.24637 0
M  V30 5212 C 483.089 -1.81575 -0.991876 0
M  V30 5213 C 483.504 -0.602545 -1.78927 0
M  V30 5214 O 482.861 0.428795 -1.77391 0
M  V30 5215 C 482.912 -3.05711 -1.92933 0
M  V30 5216 O 482.633 -4.22348 -1.1642 0
M  V30 5217 C 484.134 -3.44428 -2.79078 0
M  V30 5218 H 481.354 -0.604209 -0.291844 0
M  V30 5219 H 483.898 -2.02722 -0.269095 0
M  V30 5220 H 482.053 -2.86612 -2.60638 0
M  V30 5221 H 482.467 -4.92706 -1.79835 0
M  V30 5222 H 483.941 -4.34388 -3.40603 0
M  V30 5223 H 484.418 -2.65037 -3.50217 0
M  V30 5224 H 485.024 -3.65879 -2.16824 0
M  V30 5225 N 483.339 0.512053 -1.4905 0
M  V30 5226 C 484.287 1.63568 -1.65373 0
M  V30 5227 C 485.281 1.61228 -0.519806 0
M  V30 5228 O 486.487 1.65869 -0.699101 0
M  V30 5229 H 482.862 0.542019 -0.521267 0
M  V30 5230 H 484.833 1.4695 -2.59708 0
M  V30 5231 C 483.582 3.01761 -1.7273 0
M  V30 5232 H 482.905 3.04263 -2.59353 0
M  V30 5233 H 484.345 3.79948 -1.8819 0
M  V30 5234 C 482.804 3.33609 -0.46973 0
M  V30 5235 O 483.334 3.99607 0.409492 0
M  V30 5236 N 481.54 2.88651 -0.336003 0
M  V30 5237 H 481.087 2.35119 -1.05247 0
M  V30 5238 H 481.045 3.10328 0.504363 0
M  V30 5239 N 484.817 1.37938 0.762283 0
M  V30 5240 C 485.727 1.36681 1.90671 0
M  V30 5241 C 486.743 0.265078 1.71969 0
M  V30 5242 O 487.919 0.502055 1.95042 0
M  V30 5243 C 484.984 1.18211 3.25925 0
M  V30 5244 C 484.045 2.3811 3.57214 0
M  V30 5245 C 483.278 2.20512 4.86014 0
M  V30 5246 O 483.501 1.19429 5.57757 0
M  V30 5247 O 482.435 3.08911 5.16583 0
M  V30 5248 H 486.261 2.33091 1.94685 0
M  V30 5249 H 483.846 1.18767 0.906356 0
M  V30 5250 H 485.728 1.09937 4.06807 0
M  V30 5251 H 484.403 0.248807 3.22742 0
M  V30 5252 H 483.31 2.51958 2.76529 0
M  V30 5253 H 484.643 3.30041 3.65149 0
M  V30 5254 N 486.295 -0.989507 1.22664 0
M  V30 5255 C 487.544 -1.72375 1.04737 0
M  V30 5256 C 487.857 -1.91096 -0.417316 0
M  V30 5257 O 489.063 -2.6188 -0.716334 0
M  V30 5258 C 487.519 -3.10161 1.82561 0
M  V30 5259 C 487.127 -2.99358 3.333 0
M  V30 5260 C 488.871 -3.87607 1.73093 0
M  V30 5261 C 486.778 -4.32319 4.03552 0
M  V30 5262 H 485.708 -0.646326 0.388302 0
M  V30 5263 H 488.359 -1.10437 1.46546 0
M  V30 5264 H 486.741 -3.728 1.33552 0
M  V30 5265 H 487.915 -2.45863 3.89728 0
M  V30 5266 H 486.23 -2.35392 3.43481 0
M  V30 5267 H 488.827 -4.86025 2.22899 0
M  V30 5268 H 489.17 -4.10509 0.691976 0
M  V30 5269 H 489.703 -3.31652 2.19663 0
M  V30 5270 H 486.442 -4.14616 5.07714 0
M  V30 5271 H 485.962 -4.85714 3.51911 0
M  V30 5272 H 487.641 -5.01051 4.09337 0
M  V30 5273 N 487.773 -1.03688 -1.18687 0
M  V30 5274 C 488.706 -0.569112 -2.2099 0
M  V30 5275 C 489.684 0.394315 -1.57746 0
M  V30 5276 O 490.868 0.309519 -1.85941 0
M  V30 5277 C 487.995 0.169104 -3.38278 0
M  V30 5278 C 487.041 -0.746989 -4.19908 0
M  V30 5279 S 487.874 -2.22773 -4.86963 0
M  V30 5280 C 489.03 -1.50025 -6.07654 0
M  V30 5281 H 489.263 -1.43589 -2.60326 0
M  V30 5282 H 486.796 -0.847507 -1.29061 0
M  V30 5283 H 488.754 0.588868 -4.06254 0
M  V30 5284 H 487.415 1.01172 -2.9736 0
M  V30 5285 H 486.608 -0.176626 -5.0369 0
M  V30 5286 H 486.21 -1.10543 -3.5729 0
M  V30 5287 H 488.502 -0.791217 -6.72864 0
M  V30 5288 H 489.445 -2.31498 -6.69189 0
M  V30 5289 H 489.853 -0.994245 -5.55675 0
M  V30 5290 N 489.251 1.34841 -0.815825 0
M  V30 5291 C 490.476 2.03261 -0.41226 0
M  V30 5292 C 490.901 1.61055 0.971751 0
M  V30 5293 O 490.259 0.7917 1.63101 0
M  V30 5294 C 490.307 3.56914 -0.514289 0
M  V30 5295 O 489.411 4.09728 0.468675 0
M  V30 5296 H 488.752 0.641664 -0.170771 0
M  V30 5297 H 491.282 1.72241 -1.10427 0
M  V30 5298 H 491.292 4.06156 -0.387457 0
M  V30 5299 H 489.967 3.86982 -1.52375 0
M  V30 5300 H 488.544 3.71681 0.301316 0
M  V30 5301 N 490.729 0.570148 1.46925 0
M  V30 5302 C 491.957 0.0561966 2.06824 0
M  V30 5303 C 492.372 -1.24326 1.42086 0
M  V30 5304 O 491.729 -1.74882 0.521794 0
M  V30 5305 C 491.78 -0.129517 3.61268 0
M  V30 5306 O 491.501 1.1185 4.23581 0
M  V30 5307 C 493.002 -0.679266 4.38065 0
M  V30 5308 H 490.222 0.0517261 0.669003 0
M  V30 5309 H 492.766 0.787243 1.8874 0
M  V30 5310 H 490.921 -0.810739 3.78822 0
M  V30 5311 H 491.335 0.924375 5.1629 0
M  V30 5312 H 492.809 -0.758445 5.46765 0
M  V30 5313 H 493.286 -1.69346 4.05239 0
M  V30 5314 H 493.892 -0.0333237 4.25287 0
M  V30 5315 N 492.207 -1.54576 0.307264 0
M  V30 5316 C 493.453 -2.0056 -0.300612 0
M  V30 5317 C 493.786 -1.1953 -1.53057 0
M  V30 5318 O 493.061 -0.27337 -1.92569 0
M  V30 5319 C 493.344 -3.54167 -0.650987 0
M  V30 5320 C 493.197 -4.45933 0.588539 0
M  V30 5321 C 494.516 -4.14645 -1.47506 0
M  V30 5322 H 491.635 -0.729075 -0.107788 0
M  V30 5323 H 494.277 -1.85286 0.420606 0
M  V30 5324 H 492.427 -3.67313 -1.26544 0
M  V30 5325 H 494.099 -4.44683 1.22697 0
M  V30 5326 H 492.342 -4.16274 1.22058 0
M  V30 5327 H 493.013 -5.51189 0.299153 0
M  V30 5328 H 495.489 -4.04973 -0.955821 0
M  V30 5329 H 494.365 -5.22269 -1.68899 0
M  V30 5330 H 494.626 -3.66921 -2.4662 0
M  V30 5331 N 493.685 -0.035106 -1.57561 0
M  V30 5332 C 494.633 0.962707 -2.11742 0
M  V30 5333 C 495.627 1.33296 -1.0454 0
M  V30 5334 O 496.833 1.31449 -1.22968 0
M  V30 5335 H 493.208 0.32826 -0.676572 0
M  V30 5336 H 495.179 0.48048 -2.94506 0
M  V30 5337 C 493.928 2.23388 -2.66445 0
M  V30 5338 H 493.251 1.95774 -3.48587 0
M  V30 5339 H 494.691 2.91402 -3.07995 0
M  V30 5340 C 493.15 2.96769 -1.59467 0
M  V30 5341 O 493.68 3.89105 -0.998 0
M  V30 5342 N 491.886 2.59212 -1.31369 0
M  V30 5343 H 491.433 1.84202 -1.80076 0
M  V30 5344 H 491.391 3.08618 -0.600173 0
M  V30 5345 N 495.163 1.55791 0.238111 0
M  V30 5346 C 496.412 1.77234 0.962868 0
M  V30 5347 C 496.725 0.600661 1.86149 0
M  V30 5348 O 497.931 0.698315 2.62366 0
M  V30 5349 C 496.387 3.13808 1.76218 0
M  V30 5350 C 495.995 4.3865 0.910518 0
M  V30 5351 C 497.739 3.44585 2.47914 0
M  V30 5352 C 495.646 5.66252 1.70623 0
M  V30 5353 H 494.576 0.660731 0.36325 0
M  V30 5354 H 497.227 1.8221 0.217242 0
M  V30 5355 H 495.609 3.02963 2.55009 0
M  V30 5356 H 496.783 4.60507 0.164316 0
M  V30 5357 H 495.098 4.15271 0.30647 0
M  V30 5358 H 497.695 4.3714 3.07917 0
M  V30 5359 H 498.038 2.66314 3.19973 0
M  V30 5360 H 498.571 3.56685 1.76127 0
M  V30 5361 H 495.31 6.47369 1.02923 0
M  V30 5362 H 494.83 5.48483 2.42748 0
M  V30 5363 H 496.509 6.05829 2.27114 0
M  V30 5364 N 496.642 -0.504142 1.49319 0
M  V30 5365 C 497.867 -1.28729 1.62615 0
M  V30 5366 C 498.292 -1.85752 0.296309 0
M  V30 5367 O 497.65 -1.65704 -0.735649 0
M  V30 5368 C 497.698 -2.39561 2.69524 0
M  V30 5369 O 496.802 -3.43324 2.28478 0
M  V30 5370 H 496.143 -0.380172 0.544395 0
M  V30 5371 H 498.673 -0.603872 1.95485 0
M  V30 5372 H 498.683 -2.8537 2.91595 0
M  V30 5373 H 497.358 -1.97423 3.66056 0
M  V30 5374 H 495.935 -3.03455 2.16725 0
M  V30 5375 N 498.12 -1.38341 -0.754957 0
M  V30 5376 C 499.369 -1.33791 -1.5094 0
M  V30 5377 C 499.682 0.0699267 -1.95475 0
M  V30 5378 O 500.888 0.237956 -2.70455 0
M  V30 5379 C 499.344 -2.34934 -2.72643 0
M  V30 5380 C 498.952 -3.81332 -2.35138 0
M  V30 5381 C 500.696 -2.39425 -3.50536 0
M  V30 5382 C 498.603 -4.74164 -3.53444 0
M  V30 5383 H 497.533 -0.497314 -0.566741 0
M  V30 5384 H 500.184 -1.63888 -0.825403 0
M  V30 5385 H 498.566 -1.97878 -3.43017 0
M  V30 5386 H 499.74 -4.27319 -1.7244 0
M  V30 5387 H 498.055 -3.79946 -1.70382 0
M  V30 5388 H 500.652 -3.0598 -4.38498 0
M  V30 5389 H 500.995 -1.41278 -3.91594 0
M  V30 5390 H 501.528 -2.75274 -2.87174 0
M  V30 5391 H 498.267 -5.73501 -3.17453 0
M  V30 5392 H 497.787 -4.3287 -4.15191 0
M  V30 5393 H 499.466 -4.92111 -4.20043 0
M  V30 5394 N 499.598 0.982988 -1.23187 0
M  V30 5395 C 500.826 1.75921 -1.08901 0
M  V30 5396 C 501.241 1.85341 0.359719 0
M  V30 5397 O 500.598 1.33072 1.24892 0
M  V30 5398 C 500.649 3.18742 -1.70545 0
M  V30 5399 O 500.37 3.09814 -3.09753 0
M  V30 5400 C 501.871 4.1277 -1.61667 0
M  V30 5401 H 499.091 0.552166 -0.381252 0
M  V30 5402 H 501.635 1.23516 -1.62985 0
M  V30 5403 H 499.79 3.68182 -1.20501 0
M  V30 5404 H 500.204 3.99703 -3.39614 0
M  V30 5405 H 501.678 5.10697 -2.09506 0
M  V30 5406 H 502.155 4.3542 -0.575009 0
M  V30 5407 H 502.761 3.69232 -2.11064 0
M  V30 5408 N 501.076 1.04316 1.18135 0
M  V30 5409 C 502.024 0.630175 2.23901 0
M  V30 5410 C 503.018 -0.344254 1.65865 0
M  V30 5411 O 504.224 -0.211273 1.78756 0
M  V30 5412 H 500.599 0.185578 0.728742 0
M  V30 5413 H 502.57 1.53253 2.56039 0
M  V30 5414 C 501.319 0.011666 3.47698 0
M  V30 5415 H 500.642 0.752526 3.92654 0
M  V30 5416 H 502.082 -0.240046 4.2332 0
M  V30 5417 C 500.541 -1.23913 3.13285 0
M  V30 5418 O 501.071 -2.32959 3.27251 0
M  V30 5419 N 499.277 -1.13338 2.67587 0
M  V30 5420 H 498.824 -0.246006 2.56423 0
M  V30 5421 H 498.782 -1.97116 2.44934 0
M  V30 5422 N 502.554 -1.34406 0.822964 0
M  V30 5423 C 503.464 -2.33298 0.246838 0
M  V30 5424 C 504.48 -1.62625 -0.618797 0
M  V30 5425 O 505.656 -1.94391 -0.526685 0
M  V30 5426 C 502.721 -3.41785 -0.581731 0
M  V30 5427 C 501.782 -4.28206 0.306309 0
M  V30 5428 C 501.015 -5.31512 -0.48281 0
M  V30 5429 O 501.238 -5.43973 -1.71607 0
M  V30 5430 O 500.172 -6.01749 0.134884 0
M  V30 5431 H 503.998 -2.84401 1.06534 0
M  V30 5432 H 501.583 -1.37466 0.585108 0
M  V30 5433 H 503.465 -4.08028 -1.05313 0
M  V30 5434 H 502.14 -2.92925 -1.37756 0
M  V30 5435 H 501.047 -3.64885 0.825199 0
M  V30 5436 H 502.38 -4.80507 1.06649 0
M  V30 5437 N 504.032 -0.577932 -1.46621 0
M  V30 5438 C 504.942 0.160651 -2.34049 0
M  V30 5439 C 505.958 0.890911 -1.49462 0
M  V30 5440 O 507.134 0.855166 -1.82343 0
M  V30 5441 C 504.199 1.16447 -3.26559 0
M  V30 5442 C 503.26 0.4394 -4.27045 0
M  V30 5443 C 502.493 1.3954 -5.15135 0
M  V30 5444 O 502.716 2.63162 -5.06065 0
M  V30 5445 O 501.65 0.908585 -5.95003 0
M  V30 5446 H 505.476 -0.557057 -2.98547 0
M  V30 5447 H 503.061 -0.338369 -1.45518 0
M  V30 5448 H 504.943 1.7434 -3.83645 0
M  V30 5449 H 503.618 1.86373 -2.64663 0
M  V30 5450 H 502.525 -0.181247 -3.73661 0
M  V30 5451 H 503.858 -0.218799 -4.91713 0
M  V30 5452 N 505.51 1.54411 -0.315457 0
M  V30 5453 C 506.787 1.92562 0.343398 0
M  V30 5454 C 507.167 1.24423 1.70535 0
M  V30 5455 O 506.515 0.385051 2.25232 0
M  V30 5456 C 506.725 3.46168 0.443687 0
M  V30 5457 C 508.073 4.18659 0.707783 0
M  V30 5458 O 509.097 3.52281 0.52693 0
M  V30 5459 O 507.956 5.36198 1.05612 0
M  V30 5460 H 505.05 0.80379 0.194552 0
M  V30 5461 H 507.596 1.65738 -0.364577 0
M  V30 5462 H 506.368 3.8792 -0.513172 0
M  V30 5463 H 505.991 3.79073 1.19956 0
M  V30 5464 N 506.988 0.0434614 1.5754 0
M  V30 5465 C 508.234 -0.632971 1.92669 0
M  V30 5466 C 508.567 -1.70947 0.921446 0
M  V30 5467 O 507.842 -1.94426 -0.0537202 0
M  V30 5468 C 508.125 -1.23619 3.38216 0
M  V30 5469 C 507.978 -0.168274 4.49485 0
M  V30 5470 C 509.297 -2.15008 3.84005 0
M  V30 5471 H 506.416 -0.228629 0.700641 0
M  V30 5472 H 509.058 0.103651 1.89717 0
M  V30 5473 H 507.208 -1.864 3.40863 0
M  V30 5474 H 508.88 0.463196 4.58969 0
M  V30 5475 H 507.123 0.504581 4.30855 0
M  V30 5476 H 507.794 -0.630218 5.48391 0
M  V30 5477 H 510.27 -1.62198 3.83185 0
M  V30 5478 H 509.146 -2.54161 4.86511 0
M  V30 5479 H 509.407 -3.04707 3.20322 0
M  V30 5480 N 508.466 -1.55915 -0.229846 0
M  V30 5481 C 509.712 -1.78807 -0.956868 0
M  V30 5482 C 510.045 -0.611687 -1.84315 0
M  V30 5483 O 509.32 0.389398 -1.90562 0
M  V30 5484 C 509.603 -3.11718 -1.80288 0
M  V30 5485 C 509.456 -4.3979 -0.943649 0
M  V30 5486 C 510.775 -3.40999 -2.78222 0
M  V30 5487 H 507.894 -0.6505 -0.346437 0
M  V30 5488 H 510.536 -1.88648 -0.226252 0
M  V30 5489 H 508.686 -3.03459 -2.42579 0
M  V30 5490 H 510.358 -4.60059 -0.338121 0
M  V30 5491 H 508.601 -4.33086 -0.248705 0
M  V30 5492 H 509.272 -5.29208 -1.5698 0
M  V30 5493 H 511.748 -3.49332 -2.26067 0
M  V30 5494 H 510.624 -4.35183 -3.34526 0
M  V30 5495 H 510.885 -2.62754 -3.55546 0
M  V30 5496 N 509.944 0.496216 -1.49584 0
M  V30 5497 C 511.19 1.25189 -1.59548 0
M  V30 5498 C 511.523 1.9212 -0.283466 0
M  V30 5499 O 510.798 1.80947 0.713324 0
M  V30 5500 C 511.081 2.31516 -2.75812 0
M  V30 5501 C 510.934 1.69054 -4.16822 0
M  V30 5502 C 512.253 3.3304 -2.87702 0
M  V30 5503 H 509.372 0.45379 -0.580727 0
M  V30 5504 H 512.014 0.549327 -1.81886 0
M  V30 5505 H 510.164 2.91438 -2.56897 0
M  V30 5506 H 511.836 1.12923 -4.47265 0
M  V30 5507 H 510.079 0.994485 -4.22247 0
M  V30 5508 H 510.75 2.462 -4.94054 0
M  V30 5509 H 513.226 2.83114 -3.04936 0
M  V30 5510 H 512.102 4.04794 -3.7072 0
M  V30 5511 H 512.363 3.95655 -1.97255 0
M  V30 5512 N 511.423 1.38739 0.74761 0
M  V30 5513 C 512.653 1.3832 1.53464 0
M  V30 5514 C 513.061 -0.0273464 1.8918 0
M  V30 5515 O 512.404 -1.00588 1.53713 0
M  V30 5516 C 512.466 2.18007 2.85855 0
M  V30 5517 C 512.13 3.66762 2.72644 0
M  V30 5518 C 513.127 4.60124 2.42037 0
M  V30 5519 C 510.812 4.10193 2.89909 0
M  V30 5520 C 512.806 5.94897 2.28859 0
M  V30 5521 C 510.493 5.45045 2.7635 0
M  V30 5522 C 511.491 6.37211 2.45869 0
M  V30 5523 O 511.179 7.69581 2.3238 0
M  V30 5524 H 510.911 0.474718 0.481268 0
M  V30 5525 H 513.465 1.83012 0.932518 0
M  V30 5526 H 511.695 1.68043 3.48279 0
M  V30 5527 H 513.384 2.09921 3.47402 0
M  V30 5528 H 514.15 4.27874 2.28361 0
M  V30 5529 H 510.029 3.38797 3.1263 0
M  V30 5530 H 513.573 6.66802 2.04989 0
M  V30 5531 H 509.47 5.76889 2.89601 0
M  V30 5532 H 510.238 7.80169 2.47546 0
M  V30 5533 N 512.901 -0.976442 1.23707 0
M  V30 5534 C 513.864 -2.0511 1.02287 0
M  V30 5535 C 514.864 -1.60791 -0.0167195 0
M  V30 5536 O 516.054 -1.72761 0.223408 0
M  V30 5537 C 513.186 -3.36458 0.548507 0
M  V30 5538 H 514.379 -2.25545 1.9766 0
M  V30 5539 H 511.932 -1.15042 1.05806 0
M  V30 5540 H 512.667 -3.21713 -0.408818 0
M  V30 5541 H 512.452 -3.69967 1.29874 0
M  V30 5542 H 513.942 -4.15489 0.419406 0
M  V30 5543 N 514.379 -1.04941 -1.1758 0
M  V30 5544 C 515.79 -0.784501 -1.69418 0
M  V30 5545 C 516.141 0.693625 -1.8353 0
M  V30 5546 O 515.266 1.53925 -1.52106 0
M  V30 5547 C 515.861 -1.41746 -3.07723 0
M  V30 5548 C 514.42 -1.20066 -3.56737 0
M  V30 5549 C 513.567 -1.5026 -2.33061 0
M  V30 5550 H 516.518 -1.21469 -1.02133 0
M  V30 5551 H 516.539 -0.825381 -3.7144 0
M  V30 5552 H 516.051 -2.49325 -2.9742 0
M  V30 5553 H 514.152 -0.144006 -3.72322 0
M  V30 5554 H 514.265 -1.90384 -4.39648 0
M  V30 5555 H 512.629 -0.922598 -2.37403 0
M  V30 5556 H 513.412 -2.58967 -2.25368 0
M  V30 5557 N 515.857 1.33968 -0.830081 0
M  V30 5558 C 516.767 2.33164 -0.259207 0
M  V30 5559 C 517.783 1.62951 0.610164 0
M  V30 5560 O 518.959 1.94668 0.516369 0
M  V30 5561 C 516.024 3.42088 0.563598 0
M  V30 5562 C 515.085 4.28037 -0.329014 0
M  V30 5563 C 514.318 5.3176 0.454616 0
M  V30 5564 O 514.541 5.44876 1.6872 0
M  V30 5565 O 513.475 6.01669 -0.166794 0
M  V30 5566 H 517.301 2.83832 -1.08041 0
M  V30 5567 H 514.886 1.37154 -0.59239 0
M  V30 5568 H 516.768 4.08581 1.03147 0
M  V30 5569 H 515.443 2.93651 1.36201 0
M  V30 5570 H 514.35 3.64443 -0.844538 0
M  V30 5571 H 515.683 4.79934 -1.09196 0
M  V30 5572 N 517.335 0.585699 1.46312 0
M  V30 5573 C 518.565 0.0780166 2.06453 0
M  V30 5574 C 518.973 -1.2336 1.43454 0
M  V30 5575 O 518.316 -1.75734 0.535086 0
M  V30 5576 C 518.378 -0.158951 3.59148 0
M  V30 5577 C 518.042 1.06752 4.44357 0
M  V30 5578 C 519.039 1.98031 4.80708 0
M  V30 5579 C 516.724 1.2902 4.85447 0
M  V30 5580 C 518.718 3.09924 5.5698 0
M  V30 5581 C 516.405 2.41218 5.61478 0
M  V30 5582 C 517.403 3.31499 5.97158 0
M  V30 5583 O 517.091 4.41747 6.71651 0
M  V30 5584 H 516.823 0.0558894 0.673686 0
M  V30 5585 H 519.377 0.806994 1.88883 0
M  V30 5586 H 517.607 -0.942575 3.75037 0
M  V30 5587 H 519.296 -0.615513 4.01206 0
M  V30 5588 H 520.062 1.82043 4.49539 0
M  V30 5589 H 515.941 0.596567 4.57124 0
M  V30 5590 H 519.485 3.80415 5.84748 0
M  V30 5591 H 515.382 2.57167 5.9206 0
M  V30 5592 H 516.15 4.40152 6.90079 0
M  V30 5593 N 518.813 -1.54241 0.323641 0
M  V30 5594 C 519.743 -2.27289 -0.534993 0
M  V30 5595 C 520.724 -1.28087 -1.11927 0
M  V30 5596 O 521.909 -1.56899 -1.14439 0
M  V30 5597 C 519.039 -3.03075 -1.69596 0
M  V30 5598 C 517.993 -4.09614 -1.24098 0
M  V30 5599 C 517.319 -4.73242 -2.4889 0
M  V30 5600 C 518.619 -5.21087 -0.355789 0
M  V30 5601 H 520.313 -2.99308 0.0743257 0
M  V30 5602 H 517.859 -1.43952 0.0371874 0
M  V30 5603 H 519.812 -3.52907 -2.30293 0
M  V30 5604 H 518.536 -2.28673 -2.33187 0
M  V30 5605 H 517.195 -3.60666 -0.656945 0
M  V30 5606 H 516.843 -3.95455 -3.10845 0
M  V30 5607 H 516.543 -5.45209 -2.19138 0
M  V30 5608 H 518.067 -5.25848 -3.10348 0
M  V30 5609 H 519.481 -5.66675 -0.869042 0
M  V30 5610 H 517.878 -5.9991 -0.151045 0
M  V30 5611 H 518.948 -4.81005 0.613339 0
M  V30 5612 N 520.291 -0.0518155 -1.57515 0
M  V30 5613 C 521.519 0.631395 -1.9703 0
M  V30 5614 C 521.934 1.64341 -0.92938 0
M  V30 5615 O 521.291 1.82296 0.0863266 0
M  V30 5616 C 521.342 1.31774 -3.36627 0
M  V30 5617 O 521.063 0.346247 -4.3673 0
M  V30 5618 C 522.564 2.09065 -3.90905 0
M  V30 5619 H 519.784 0.172576 -0.648428 0
M  V30 5620 H 522.328 -0.118306 -2.04158 0
M  V30 5621 H 520.483 2.01867 -3.30649 0
M  V30 5622 H 520.897 0.836226 -5.17791 0
M  V30 5623 H 522.371 2.52508 -4.9086 0
M  V30 5624 H 522.848 2.93908 -3.26366 0
M  V30 5625 H 523.454 1.43882 -4.00223 0
M  V30 5626 N 521.769 1.56035 0.221574 0
M  V30 5627 C 522.716 1.92413 1.27459 0
M  V30 5628 C 523.686 0.781323 1.46576 0
M  V30 5629 O 524.871 1.03721 1.60145 0
M  V30 5630 C 522.011 2.24617 2.61995 0
M  V30 5631 C 521.124 3.51831 2.50677 0
M  V30 5632 C 520.259 3.73482 3.77736 0
M  V30 5633 C 519.298 4.94211 3.6114 0
M  V30 5634 N 518.435 5.12252 4.80148 0
M  V30 5635 H 523.275 2.82203 0.957355 0
M  V30 5636 H 520.812 1.39676 0.461415 0
M  V30 5637 H 522.77 2.41298 3.40339 0
M  V30 5638 H 521.4 1.38 2.91815 0
M  V30 5639 H 520.452 3.43343 1.63767 0
M  V30 5640 H 521.764 4.40328 2.34334 0
M  V30 5641 H 520.918 3.9026 4.64523 0
M  V30 5642 H 519.657 2.83266 3.97003 0
M  V30 5643 H 518.662 4.77384 2.72736 0
M  V30 5644 H 519.887 5.85912 3.43343 0
M  V30 5645 H 517.833 4.24978 4.99729 0
M  V30 5646 H 517.75 5.94881 4.66532 0
M  V30 5647 H 519.018 5.33465 5.68362 0
M  V30 5648 N 523.247 -0.488276 1.49845 0
M  V30 5649 C 524.177 -1.59675 1.70371 0
M  V30 5650 C 525.158 -1.60878 0.552473 0
M  V30 5651 O 526.343 -1.77417 0.78973 0
M  V30 5652 C 523.473 -2.98098 1.782 0
M  V30 5653 C 522.427 -3.11761 2.93239 0
M  V30 5654 C 521.753 -4.51661 2.86193 0
M  V30 5655 C 523.053 -2.90589 4.33999 0
M  V30 5656 H 524.747 -1.42752 2.63177 0
M  V30 5657 H 522.293 -0.685317 1.26647 0
M  V30 5658 H 524.246 -3.75555 1.91144 0
M  V30 5659 H 522.97 -3.16138 0.820018 0
M  V30 5660 H 521.629 -2.36732 2.79917 0
M  V30 5661 H 521.277 -4.66595 1.87877 0
M  V30 5662 H 520.977 -4.61742 3.63412 0
M  V30 5663 H 522.501 -5.31162 3.01163 0
M  V30 5664 H 523.915 -3.57807 4.47936 0
M  V30 5665 H 522.312 -3.1213 5.12538 0
M  V30 5666 H 523.382 -1.86595 4.4756 0
M  V30 5667 N 524.725 -1.39134 -0.740242 0
M  V30 5668 C 525.672 -1.37434 -1.8542 0
M  V30 5669 C 526.642 -0.234822 -1.64432 0
M  V30 5670 O 527.827 -0.429125 -1.85912 0
M  V30 5671 C 524.967 -1.21844 -3.22875 0
M  V30 5672 C 524.08 -2.45296 -3.55603 0
M  V30 5673 C 523.215 -2.22334 -4.82432 0
M  V30 5674 C 522.254 -3.41488 -5.07988 0
M  V30 5675 N 521.391 -3.17877 -6.26018 0
M  V30 5676 H 526.231 -2.3266 -1.86207 0
M  V30 5677 H 523.768 -1.15578 -0.909946 0
M  V30 5678 H 525.726 -1.10818 -4.02213 0
M  V30 5679 H 524.356 -0.3025 -3.21379 0
M  V30 5680 H 523.408 -2.66945 -2.71006 0
M  V30 5681 H 524.72 -3.34063 -3.7041 0
M  V30 5682 H 523.874 -2.0852 -5.69741 0
M  V30 5683 H 522.613 -1.30954 -4.6979 0
M  V30 5684 H 521.618 -3.55807 -4.19144 0
M  V30 5685 H 522.843 -4.33763 -5.22519 0
M  V30 5686 H 520.789 -2.29156 -6.14673 0
M  V30 5687 H 520.706 -4.00198 -6.41387 0
M  V30 5688 H 521.974 -3.07746 -7.16179 0
M  V30 5689 N 526.204 0.969867 -1.24223 0
M  V30 5690 C 527.615 1.52717 -1.07399 0
M  V30 5691 C 527.966 1.92956 0.355298 0
M  V30 5692 O 527.091 1.77112 1.2434 0
M  V30 5693 C 527.686 2.77521 -1.94339 0
M  V30 5694 C 526.245 3.29615 -1.81744 0
M  V30 5695 C 525.392 2.02537 -1.89405 0
M  V30 5696 H 528.343 0.788399 -1.37732 0
M  V30 5697 H 528.364 3.50773 -1.47439 0
M  V30 5698 H 527.876 2.48203 -2.98357 0
M  V30 5699 H 525.977 3.63789 -0.805505 0
M  V30 5700 H 526.09 3.98661 -2.65718 0
M  V30 5701 H 524.454 2.17151 -1.33108 0
M  V30 5702 H 525.237 1.75587 -2.94999 0
M  V30 5703 N 527.682 1.05563 1.17022 0
M  V30 5704 C 528.931 0.763036 1.8671 0
M  V30 5705 C 529.244 -0.712857 1.82147 0
M  V30 5706 O 530.45 -1.11955 2.47343 0
M  V30 5707 C 528.906 1.31474 3.35026 0
M  V30 5708 C 528.514 2.82034 3.48081 0
M  V30 5709 C 530.258 1.09935 4.10018 0
M  V30 5710 C 528.165 3.30486 4.90442 0
M  V30 5711 H 527.095 0.281747 0.699382 0
M  V30 5712 H 529.746 1.2734 1.32124 0
M  V30 5713 H 528.128 0.732171 3.89173 0
M  V30 5714 H 529.302 3.46178 3.04133 0
M  V30 5715 H 527.617 3.02156 2.86515 0
M  V30 5716 H 530.214 1.43632 5.15048 0
M  V30 5717 H 530.557 0.0373072 4.16283 0
M  V30 5718 H 531.09 1.64732 3.62089 0
M  V30 5719 H 527.829 4.36137 4.89352 0
M  V30 5720 H 527.349 2.71086 5.35044 0
M  V30 5721 H 529.028 3.25382 5.59227 0
M  V30 5722 N 529.16 -1.33526 0.837174 0
M  V30 5723 C 530.09 -2.31764 0.284206 0
M  V30 5724 C 531.071 -1.58896 -0.607142 0
M  V30 5725 O 532.256 -1.86798 -0.531047 0
M  V30 5726 C 529.386 -3.43029 -0.542962 0
M  V30 5727 C 528.34 -4.27255 0.252451 0
M  V30 5728 C 527.666 -5.3012 -0.69836 0
M  V30 5729 C 528.966 -5.01229 1.46858 0
M  V30 5730 H 530.66 -2.78262 1.10502 0
M  V30 5731 H 528.206 -1.3378 0.532812 0
M  V30 5732 H 530.159 -4.1078 -0.940096 0
M  V30 5733 H 528.883 -2.95216 -1.39697 0
M  V30 5734 H 527.542 -3.61127 0.631124 0
M  V30 5735 H 527.19 -4.78564 -1.54872 0
M  V30 5736 H 526.89 -5.87353 -0.170274 0
M  V30 5737 H 528.414 -6.00737 -1.09305 0
M  V30 5738 H 529.828 -5.61756 1.14469 0
M  V30 5739 H 528.225 -5.68104 1.93333 0
M  V30 5740 H 529.295 -4.301 2.23924 0
M  V30 5741 N 530.638 -0.59345 -1.46 0
M  V30 5742 C 531.866 -0.0890934 -2.06708 0
M  V30 5743 C 532.281 1.2205 -1.44046 0
M  V30 5744 O 531.638 1.74029 -0.549551 0
M  V30 5745 C 531.689 0.0720263 -3.61428 0
M  V30 5746 O 531.41 -1.18574 -4.21748 0
M  V30 5747 C 532.911 0.609487 -4.3909 0
M  V30 5748 H 530.131 -0.0623628 -0.668096 0
M  V30 5749 H 532.675 -0.817171 -1.87464 0
M  V30 5750 H 530.83 0.750369 -3.80063 0
M  V30 5751 H 531.244 -1.0064 -5.14754 0
M  V30 5752 H 532.718 0.671363 -5.47902 0
M  V30 5753 H 533.195 1.62878 -4.07882 0
M  V30 5754 H 533.801 -0.03434 -4.25286 0
M  V30 5755 N 532.116 1.54067 -0.331816 0
M  V30 5756 C 533.063 2.24623 0.530372 0
M  V30 5757 C 534.033 1.24009 1.10503 0
M  V30 5758 O 535.218 1.52712 1.14384 0
M  V30 5759 C 532.358 3.01374 1.68129 0
M  V30 5760 C 531.471 4.16821 1.13507 0
M  V30 5761 C 530.606 4.81085 2.25234 0
M  V30 5762 C 529.645 5.88621 1.67903 0
M  V30 5763 N 528.782 6.46713 2.73326 0
M  V30 5764 H 533.622 2.97898 -0.0778607 0
M  V30 5765 H 531.159 1.47014 -0.0501965 0
M  V30 5766 H 533.117 3.44125 2.35868 0
M  V30 5767 H 531.747 2.30419 2.26069 0
M  V30 5768 H 530.799 3.78796 0.348979 0
M  V30 5769 H 532.111 4.94203 0.675633 0
M  V30 5770 H 531.265 5.26846 3.00862 0
M  V30 5771 H 530.004 4.03102 2.74518 0
M  V30 5772 H 529.009 5.42254 0.907773 0
M  V30 5773 H 530.234 6.68506 1.19487 0
M  V30 5774 H 528.18 5.71599 3.21886 0
M  V30 5775 H 528.097 7.19532 2.3197 0
M  V30 5776 H 529.365 6.97129 3.48758 0
M  V30 5777 N 533.594 0.0601682 1.57485 0
M  V30 5778 C 534.824 -0.620037 1.97076 0
M  V30 5779 C 535.232 -1.64381 0.936784 0
M  V30 5780 O 534.575 -1.83497 -0.0863377 0
M  V30 5781 C 534.637 -1.35617 3.32939 0
M  V30 5782 C 534.301 -0.487208 4.54396 0
M  V30 5783 C 535.298 0.250428 5.19297 0
M  V30 5784 C 532.983 -0.415494 5.00579 0
M  V30 5785 C 534.977 1.04812 6.28723 0
M  V30 5786 C 532.664 0.385879 6.0988 0
M  V30 5787 C 533.662 1.11637 6.73815 0
M  V30 5788 O 533.35 1.90454 7.81014 0
M  V30 5789 H 533.082 -0.173664 0.653312 0
M  V30 5790 H 535.636 0.1256 2.05016 0
M  V30 5791 H 533.866 -2.14763 3.2158 0
M  V30 5792 H 535.555 -1.92749 3.57215 0
M  V30 5793 H 536.321 0.204546 4.84568 0
M  V30 5794 H 532.2 -0.973679 4.506 0
M  V30 5795 H 535.744 1.6188 6.78558 0
M  V30 5796 H 531.641 0.433366 6.44044 0
M  V30 5797 H 532.409 1.82762 7.97835 0
M  V30 5798 N 535.072 -1.5615 -0.213296 0
M  V30 5799 C 536.297 -1.83986 -0.957282 0
M  V30 5800 C 536.722 -0.641526 -1.76822 0
M  V30 5801 O 536.08 0.409722 -1.7661 0
M  V30 5802 C 536.128 -3.09889 -1.84393 0
M  V30 5803 O 535.232 -2.89163 -2.94038 0
M  V30 5804 H 534.573 -0.606357 -0.270605 0
M  V30 5805 H 537.103 -2.03369 -0.224111 0
M  V30 5806 H 537.113 -3.40209 -2.25215 0
M  V30 5807 H 535.788 -3.96735 -1.24795 0
M  V30 5808 H 534.365 -2.70097 -2.57103 0
M  V30 5809 N 536.55 0.480323 -1.50102 0
M  V30 5810 C 537.513 1.56181 -1.6775 0
M  V30 5811 C 538.513 1.51156 -0.548503 0
M  V30 5812 O 539.703 1.5394 -0.815363 0
M  V30 5813 C 536.835 2.95823 -1.69415 0
M  V30 5814 H 538.028 1.41855 -2.6423 0
M  V30 5815 H 535.581 0.70605 -1.39444 0
M  V30 5816 H 536.316 3.15604 -0.745948 0
M  V30 5817 H 536.101 3.00878 -2.51425 0
M  V30 5818 H 537.591 3.74359 -1.85054 0
M  V30 5819 N 538.028 1.39524 0.732853 0
M  V30 5820 C 539.444 1.21176 1.03868 0
M  V30 5821 C 539.644 0.0748448 2.01361 0
M  V30 5822 O 538.7 -0.57281 2.45917 0
M  V30 5823 C 540.013 2.54667 1.59892 0
M  V30 5824 C 541.561 2.6153 1.71962 0
M  V30 5825 C 542.036 3.95248 2.31394 0
M  V30 5826 N 543.527 3.96899 2.38801 0
M  V30 5827 C 544.262 4.97138 2.85729 0
M  V30 5828 N 543.758 6.07775 3.32537 0
M  V30 5829 N 545.551 4.84516 2.84957 0
M  V30 5830 H 537.702 2.12225 0.086304 0
M  V30 5831 H 539.965 0.942614 0.100907 0
M  V30 5832 H 539.671 3.38423 0.95721 0
M  V30 5833 H 539.545 2.74538 2.58668 0
M  V30 5834 H 541.932 1.78156 2.35254 0
M  V30 5835 H 542.013 2.45507 0.718327 0
M  V30 5836 H 541.657 4.79054 1.68729 0
M  V30 5837 H 541.587 4.08593 3.32204 0
M  V30 5838 H 544.078 3.16998 2.05719 0
M  V30 5839 H 544.391 6.8017 3.66862 0
M  V30 5840 H 542.736 6.11366 3.30541 0
M  V30 5841 H 545.927 3.97185 2.47713 0
M  V30 5842 H 546.1 5.62783 3.21215 0
M  V30 5843 N 539.506 -0.963266 1.24736 0
M  V30 5844 C 540.783 -1.68248 0.9976 0
M  V30 5845 C 541.163 -2.05599 -0.478776 0
M  V30 5846 O 540.511 -1.7626 -1.45412 0
M  V30 5847 C 540.721 -2.91118 1.92487 0
M  V30 5848 C 542.069 -3.63261 2.19833 0
M  V30 5849 O 543.093 -3.01184 1.90176 0
M  V30 5850 O 541.952 -4.75019 2.7022 0
M  V30 5851 H 539.046 -0.735744 0.377637 0
M  V30 5852 H 541.592 -1.01696 1.35853 0
M  V30 5853 H 540.364 -2.60242 2.92215 0
M  V30 5854 H 539.987 -3.65402 1.56738 0
M  V30 5855 N 540.985 -1.06182 -1.16461 0
M  V30 5856 C 541.915 -0.692861 -2.22984 0
M  V30 5857 C 542.896 0.314122 -1.67174 0
M  V30 5858 O 544.081 0.189499 -1.93273 0
M  V30 5859 C 541.211 -0.07732 -3.47214 0
M  V30 5860 C 540.165 -1.01015 -4.15909 0
M  V30 5861 C 539.491 -0.257973 -5.34077 0
M  V30 5862 C 540.791 -2.33868 -4.67015 0
M  V30 5863 H 542.485 -1.58343 -2.54102 0
M  V30 5864 H 540.031 -0.76279 -1.22137 0
M  V30 5865 H 541.984 0.19266 -4.20959 0
M  V30 5866 H 540.708 0.848254 -3.15392 0
M  V30 5867 H 539.367 -1.26486 -3.44088 0
M  V30 5868 H 539.015 0.670684 -4.98509 0
M  V30 5869 H 538.715 -0.879638 -5.80979 0
M  V30 5870 H 540.239 0.00448788 -6.106 0
M  V30 5871 H 541.653 -2.1279 -5.32347 0
M  V30 5872 H 540.05 -2.91522 -5.24533 0
M  V30 5873 H 541.12 -2.97019 -3.83286 0
M  V30 5874 N 542.463 1.3308 -0.844243 0
M  V30 5875 C 543.395 2.27954 -0.238671 0
M  V30 5876 C 544.408 1.51978 0.583665 0
M  V30 5877 O 545.597 1.73731 0.409857 0
M  V30 5878 C 542.697 3.31963 0.682185 0
M  V30 5879 C 541.87 4.37281 -0.101998 0
M  V30 5880 C 540.929 5.20928 0.743022 0
M  V30 5881 O 539.955 5.68914 0.180285 0
M  V30 5882 N 541.157 5.42738 2.0595 0
M  V30 5883 H 543.922 2.8056 -1.05386 0
M  V30 5884 H 541.483 1.4583 -0.70322 0
M  V30 5885 H 543.475 3.84828 1.25259 0
M  V30 5886 H 542.045 2.79594 1.39808 0
M  V30 5887 H 541.265 3.84843 -0.853802 0
M  V30 5888 H 542.553 5.04746 -0.641015 0
M  V30 5889 H 541.951 5.05463 2.54016 0
M  V30 5890 H 540.508 5.98639 2.57827 0
M  V30 5891 N 543.941 0.601185 1.45683 0
M  V30 5892 C 544.889 -0.133955 2.32214 0
M  V30 5893 C 545.883 -0.866034 1.45589 0
M  V30 5894 O 547.089 -0.782326 1.6211 0
M  V30 5895 H 543.464 -0.0620613 0.749435 0
M  V30 5896 H 545.435 0.614389 2.92007 0
M  V30 5897 C 544.184 -1.12216 3.29094 0
M  V30 5898 H 543.507 -0.568273 3.95741 0
M  V30 5899 H 544.947 -1.60659 3.92383 0
M  V30 5900 C 543.406 -2.19251 2.55794 0
M  V30 5901 O 543.936 -3.26894 2.33459 0
M  V30 5902 N 542.142 -1.9436 2.16039 0
M  V30 5903 H 541.689 -1.06829 2.34404 0
M  V30 5904 H 541.647 -2.66181 1.67318 0
M  V30 5905 N 545.419 -1.53889 0.339982 0
M  V30 5906 C 546.349 -2.27843 -0.510856 0
M  V30 5907 C 547.33 -1.29267 -1.10563 0
M  V30 5908 O 548.515 -1.58104 -1.12768 0
M  V30 5909 C 545.645 -3.04857 -1.66372 0
M  V30 5910 C 544.599 -4.10907 -1.19746 0
M  V30 5911 C 543.925 -4.75855 -2.43857 0
M  V30 5912 C 545.225 -5.21435 -0.300501 0
M  V30 5913 H 546.919 -2.99212 0.106067 0
M  V30 5914 H 544.465 -1.43904 0.0524533 0
M  V30 5915 H 546.418 -3.5533 -2.26537 0
M  V30 5916 H 545.142 -2.31133 -2.30749 0
M  V30 5917 H 543.801 -3.61342 -0.618654 0
M  V30 5918 H 543.449 -3.9873 -3.06633 0
M  V30 5919 H 543.149 -5.47502 -2.13343 0
M  V30 5920 H 544.673 -5.2911 -3.04754 0
M  V30 5921 H 546.087 -5.67565 -0.80889 0
M  V30 5922 H 544.484 -6.00036 -0.0874076 0
M  V30 5923 H 545.554 -4.80328 0.664321 0
M  V30 5924 N 546.897 -0.0685191 -1.57451 0
M  V30 5925 C 547.83 0.935736 -2.08133 0
M  V30 5926 C 548.808 1.29317 -0.985698 0
M  V30 5927 O 549.992 1.40304 -1.25886 0
M  V30 5928 C 547.119 2.2448 -2.53627 0
M  V30 5929 C 546.165 2.03917 -3.74593 0
M  V30 5930 S 546.998 1.30154 -5.19442 0
M  V30 5931 C 548.154 2.62346 -5.68265 0
M  V30 5932 H 548.387 0.504473 -2.92989 0
M  V30 5933 H 545.92 0.144169 -1.53725 0
M  V30 5934 H 547.878 2.99718 -2.80499 0
M  V30 5935 H 546.539 2.64731 -1.69045 0
M  V30 5936 H 545.732 3.00788 -4.04404 0
M  V30 5937 H 545.334 1.36815 -3.48077 0
M  V30 5938 H 547.626 3.58448 -5.7491 0
M  V30 5939 H 548.569 2.3715 -6.67207 0
M  V30 5940 H 548.977 2.69401 -4.96068 0
M  V30 5941 N 548.375 1.56261 0.205012 0
M  V30 5942 C 549.6 1.84491 0.947512 0
M  V30 5943 C 550.025 0.650894 1.76479 0
M  V30 5944 O 549.383 -0.40035 1.76824 0
M  V30 5945 C 549.431 3.10863 1.82747 0
M  V30 5946 O 548.535 2.90719 2.925 0
M  V30 5947 H 547.876 0.607783 0.267386 0
M  V30 5948 H 550.406 2.03485 0.213323 0
M  V30 5949 H 550.416 3.41399 2.23407 0
M  V30 5950 H 549.091 3.97392 1.2269 0
M  V30 5951 H 547.668 2.71457 2.55667 0
M  V30 5952 N 549.853 -0.472356 1.50355 0
M  V30 5953 C 551.099 -1.22348 1.62488 0
M  V30 5954 C 551.454 -1.89711 0.320574 0
M  V30 5955 O 550.747 -1.79074 -0.68141 0
M  V30 5956 C 550.941 -2.29257 2.74182 0
M  V30 5957 C 550.77 -1.72383 4.15348 0
M  V30 5958 C 549.54 -1.52411 4.81766 0
M  V30 5959 C 551.738 -1.21949 4.99633 0
M  V30 5960 N 549.72 -0.907669 6.07153 0
M  V30 5961 C 551.091 -0.726191 6.15732 0
M  V30 5962 C 553.146 -1.10792 4.85417 0
M  V30 5963 C 551.849 -0.132322 7.19178 0
M  V30 5964 C 553.875 -0.52799 5.89038 0
M  V30 5965 C 553.237 -0.0450604 7.04386 0
M  V30 5966 H 549.336 -0.436631 0.648751 0
M  V30 5967 H 551.92 -0.525698 1.87469 0
M  V30 5968 H 550.091 -2.96464 2.50926 0
M  V30 5969 H 551.823 -2.9628 2.75681 0
M  V30 5970 H 548.578 -1.776 4.39039 0
M  V30 5971 H 549.002 -0.617897 6.74174 0
M  V30 5972 H 553.644 -1.46722 3.96525 0
M  V30 5973 H 551.362 0.239187 8.07746 0
M  V30 5974 H 554.948 -0.444046 5.80103 0
M  V30 5975 H 553.828 0.396659 7.83196 0
M  V30 5976 N 551.331 -1.39911 -0.725443 0
M  V30 5977 C 552.747 -1.21725 -1.03224 0
M  V30 5978 C 552.947 -0.0855224 -2.01318 0
M  V30 5979 O 552.003 0.55976 -2.46217 0
M  V30 5980 C 553.316 -2.55511 -1.58539 0
M  V30 5981 C 554.864 -2.62439 -1.70572 0
M  V30 5982 C 555.339 -3.9647 -2.29294 0
M  V30 5983 N 556.83 -3.98159 -2.36692 0
M  V30 5984 C 557.565 -4.98647 -2.83088 0
M  V30 5985 N 557.061 -6.0953 -3.2931 0
M  V30 5986 N 558.854 -4.8602 -2.82384 0
M  V30 5987 H 551.005 -2.12267 -0.075048 0
M  V30 5988 H 553.268 -0.943136 -0.0959066 0
M  V30 5989 H 552.974 -3.38926 -0.939249 0
M  V30 5990 H 552.848 -2.75905 -2.57208 0
M  V30 5991 H 555.235 -1.79401 -2.34306 0
M  V30 5992 H 555.316 -2.45885 -0.705297 0
M  V30 5993 H 554.96 -4.79942 -1.66186 0
M  V30 5994 H 554.89 -4.10349 -3.30032 0
M  V30 5995 H 557.381 -3.18085 -2.04035 0
M  V30 5996 H 557.694 -6.82106 -3.6325 0
M  V30 5997 H 556.039 -6.1311 -3.27294 0
M  V30 5998 H 559.23 -3.98493 -2.45603 0
M  V30 5999 H 559.403 -5.64478 -3.18226 0
M  V30 6000 N 552.809 0.956637 -1.25245 0
M  V30 6001 C 554.056 1.701 -1.09874 0
M  V30 6002 C 554.384 1.91128 0.36062 0
M  V30 6003 O 553.639 1.47837 1.28229 0
M  V30 6004 C 553.938 3.08996 -1.79601 0
M  V30 6005 C 553.604 3.07774 -3.29523 0
M  V30 6006 C 552.266 3.07149 -3.70423 0
M  V30 6007 C 554.618 3.01257 -4.25316 0
M  V30 6008 C 551.946 2.97752 -5.0553 0
M  V30 6009 C 554.298 2.93403 -5.60444 0
M  V30 6010 C 552.962 2.91111 -6.00675 0
M  V30 6011 H 552.232 0.62244 -0.402056 0
M  V30 6012 H 554.879 1.1178 -1.55491 0
M  V30 6013 H 553.184 3.70848 -1.26408 0
M  V30 6014 H 554.881 3.65407 -1.65162 0
M  V30 6015 H 551.471 3.09032 -2.9698 0
M  V30 6016 H 555.655 3.00861 -3.9471 0
M  V30 6017 H 550.911 2.94346 -5.35883 0
M  V30 6018 H 555.085 2.87321 -6.34366 0
M  V30 6019 H 552.712 2.83586 -7.05325 0
M  V30 6020 N 554.287 1.06798 1.15896 0
M  V30 6021 C 555.536 0.782796 1.8589 0
M  V30 6022 C 555.849 -0.693498 1.82893 0
M  V30 6023 O 557.055 -1.09325 2.48516 0
M  V30 6024 C 555.511 1.3502 3.33613 0
M  V30 6025 C 555.119 2.8571 3.45071 0
M  V30 6026 C 556.863 1.14278 4.08829 0
M  V30 6027 C 554.77 3.35669 4.86909 0
M  V30 6028 H 553.7 0.289149 0.696354 0
M  V30 6029 H 556.351 1.28734 1.30766 0
M  V30 6030 H 554.733 0.773407 3.88374 0
M  V30 6031 H 555.907 3.49385 3.00445 0
M  V30 6032 H 554.222 3.05178 2.83294 0
M  V30 6033 H 556.819 1.49087 5.13495 0
M  V30 6034 H 557.162 0.0814575 4.1622 0
M  V30 6035 H 557.695 1.68563 3.60321 0
M  V30 6036 H 554.434 4.41302 4.84698 0
M  V30 6037 H 553.954 2.76745 5.32139 0
M  V30 6038 H 555.633 3.31296 5.55745 0
M  V30 6039 N 555.766 -1.3263 0.851289 0
M  V30 6040 C 556.699 -2.26952 0.238318 0
M  V30 6041 C 557.677 -1.50243 -0.621757 0
M  V30 6042 O 558.861 -1.79378 -0.579298 0
M  V30 6043 C 555.988 -3.32124 -0.664178 0
M  V30 6044 C 555.034 -4.26325 0.122067 0
M  V30 6045 S 555.867 -5.14404 1.48824 0
M  V30 6046 C 557.023 -6.231 0.591372 0
M  V30 6047 H 557.256 -2.78594 1.03791 0
M  V30 6048 H 554.789 -1.4011 0.648731 0
M  V30 6049 H 556.747 -3.93197 -1.17924 0
M  V30 6050 H 555.408 -2.79273 -1.43755 0
M  V30 6051 H 554.601 -5.00821 -0.565181 0
M  V30 6052 H 554.203 -3.69652 0.568602 0
M  V30 6053 H 556.495 -6.77187 -0.205762 0
M  V30 6054 H 557.438 -6.95936 1.30687 0
M  V30 6055 H 557.846 -5.64252 0.167206 0
M  V30 6056 N 557.244 -0.608902 -1.45362 0
M  V30 6057 C 558.521 -0.0365378 -1.95566 0
M  V30 6058 C 558.901 1.43169 -1.55131 0
M  V30 6059 O 558.249 2.1349 -0.814513 0
M  V30 6060 C 558.459 -0.236026 -3.48201 0
M  V30 6061 C 559.807 -0.117518 -4.24437 0
M  V30 6062 O 560.831 -0.166217 -3.55812 0
M  V30 6063 O 559.69 -0.00372127 -5.465 0
M  V30 6064 H 556.784 0.0349874 -0.82626 0
M  V30 6065 H 559.33 -0.679055 -1.55521 0
M  V30 6066 H 558.102 -1.25569 -3.70605 0
M  V30 6067 H 557.725 0.441691 -3.95139 0
M  V30 6068 N 558.722 1.53707 -0.348139 0
M  V30 6069 C 559.652 2.28111 0.498766 0
M  V30 6070 C 560.633 1.29851 1.09876 0
M  V30 6071 O 561.818 1.587 1.11928 0
M  V30 6072 C 558.948 3.05735 1.64753 0
M  V30 6073 C 557.902 4.11537 1.17565 0
M  V30 6074 C 557.228 4.77142 2.4133 0
M  V30 6075 C 558.528 5.21587 0.272844 0
M  V30 6076 H 560.222 2.99152 -0.121934 0
M  V30 6077 H 557.768 1.43875 -0.0600842 0
M  V30 6078 H 559.721 3.56526 2.24649 0
M  V30 6079 H 558.445 2.32354 2.2952 0
M  V30 6080 H 557.104 3.61665 0.599483 0
M  V30 6081 H 556.752 4.0035 3.04514 0
M  V30 6082 H 556.452 5.48626 2.10436 0
M  V30 6083 H 557.976 5.30719 3.01943 0
M  V30 6084 H 559.39 5.67986 0.778779 0
M  V30 6085 H 557.787 6.00074 0.0555849 0
M  V30 6086 H 558.857 4.79969 -0.689785 0
M  V30 6087 N 560.2 0.0768682 1.57412 0
M  V30 6088 C 561.446 -0.591961 1.93968 0
M  V30 6089 C 561.779 -1.68954 0.9575 0
M  V30 6090 O 561.054 -1.94496 -0.0124675 0
M  V30 6091 C 561.337 -1.16418 3.40762 0
M  V30 6092 C 561.19 -0.0728933 4.49741 0
M  V30 6093 C 562.509 -2.06814 3.88479 0
M  V30 6094 H 559.628 -0.213716 0.705333 0
M  V30 6095 H 562.27 0.14387 1.89455 0
M  V30 6096 H 560.42 -1.79128 3.4474 0
M  V30 6097 H 562.092 0.560446 4.57883 0
M  V30 6098 H 560.335 0.595859 4.29688 0
M  V30 6099 H 561.006 -0.513755 5.49604 0
M  V30 6100 H 563.482 -1.54033 3.8654 0
M  V30 6101 H 562.358 -2.43785 4.91793 0
M  V30 6102 H 562.619 -2.97844 3.26713 0
M  V30 6103 N 561.678 -1.56367 -0.196722 0
M  V30 6104 C 562.903 -1.84991 -0.937714 0
M  V30 6105 C 563.328 -0.660244 -1.76132 0
M  V30 6106 O 562.686 0.390967 -1.77034 0
M  V30 6107 C 562.734 -3.11828 -1.81096 0
M  V30 6108 O 561.838 -2.92266 -2.90955 0
M  V30 6109 H 561.179 -0.609193 -0.264159 0
M  V30 6110 H 563.709 -2.03595 -0.202529 0
M  V30 6111 H 563.719 -3.42579 -2.21594 0
M  V30 6112 H 562.394 -3.98037 -1.2058 0
M  V30 6113 H 560.971 -2.72809 -2.54224 0
M  V30 6114 N 563.156 0.464375 -1.50603 0
M  V30 6115 C 564.381 1.24372 -1.65971 0
M  V30 6116 C 564.806 1.84901 -0.345453 0
M  V30 6117 O 564.164 1.67596 0.691457 0
M  V30 6118 C 564.212 2.32331 -2.7578 0
M  V30 6119 O 563.316 3.37146 -2.375 0
M  V30 6120 H 562.657 0.365604 -0.554283 0
M  V30 6121 H 565.187 0.55183 -1.97018 0
M  V30 6122 H 565.197 2.77539 -2.99059 0
M  V30 6123 H 563.872 1.87648 -3.71162 0
M  V30 6124 H 562.449 2.97602 -2.24694 0
M  V30 6125 N 564.634 1.40294 0.718013 0
M  V30 6126 C 565.564 1.43118 1.84498 0
M  V30 6127 C 566.545 0.292403 1.67568 0
M  V30 6128 O 567.73 0.500675 1.87635 0
M  V30 6129 C 564.86 1.29065 3.22427 0
M  V30 6130 C 563.814 2.40521 3.54025 0
M  V30 6131 C 563.14 2.11546 4.91073 0
M  V30 6132 C 564.44 3.82859 3.55269 0
M  V30 6133 H 566.134 2.37432 1.82391 0
M  V30 6134 H 563.68 1.14283 0.87609 0
M  V30 6135 H 565.633 1.29658 4.00957 0
M  V30 6136 H 564.357 0.312271 3.25104 0
M  V30 6137 H 563.016 2.39173 2.77834 0
M  V30 6138 H 562.664 1.12104 4.90348 0
M  V30 6139 H 562.364 2.86216 5.1318 0
M  V30 6140 H 563.888 2.13817 5.71939 0
M  V30 6141 H 565.302 3.86044 4.23843 0
M  V30 6142 H 563.699 4.57029 3.88902 0
M  V30 6143 H 564.769 4.12617 2.54706 0
M  V30 6144 N 566.112 -0.949982 1.2575 0
M  V30 6145 C 567.337 -1.73503 1.13628 0
M  V30 6146 C 567.762 -1.85601 -0.30559 0
M  V30 6147 O 567.12 -1.33984 -1.22139 0
M  V30 6148 C 567.168 -3.1243 1.80055 0
M  V30 6149 O 566.272 -3.97916 1.08336 0
M  V30 6150 H 565.613 -0.532665 0.396439 0
M  V30 6151 H 568.143 -1.19043 1.66403 0
M  V30 6152 H 568.153 -3.62866 1.86527 0
M  V30 6153 H 566.828 -3.02941 2.84956 0
M  V30 6154 H 565.405 -3.56375 1.09777 0
M  V30 6155 N 567.59 -1.07411 -1.15328 0
M  V30 6156 C 569.006 -0.799759 -1.38116 0
M  V30 6157 C 569.206 0.59572 -1.92493 0
M  V30 6158 O 568.262 1.35433 -2.13106 0
M  V30 6159 C 569.575 -1.87407 -2.35158 0
M  V30 6160 C 571.123 -1.89889 -2.48819 0
M  V30 6161 C 571.598 -2.96406 -3.49153 0
M  V30 6162 N 573.089 -2.95512 -3.56689 0
M  V30 6163 C 573.824 -3.74575 -4.34144 0
M  V30 6164 N 573.32 -4.63488 -5.14928 0
M  V30 6165 N 575.113 -3.62919 -4.29239 0
M  V30 6166 H 567.264 -1.97411 -0.78374 0
M  V30 6167 H 569.527 -0.856113 -0.407154 0
M  V30 6168 H 569.233 -2.8768 -2.0232 0
M  V30 6169 H 569.107 -1.73471 -3.34944 0
M  V30 6170 H 571.494 -0.902677 -2.80955 0
M  V30 6171 H 571.575 -2.07904 -1.49029 0
M  V30 6172 H 571.219 -3.96227 -3.17752 0
M  V30 6173 H 571.149 -2.75638 -4.48699 0
M  V30 6174 H 573.64 -2.31061 -2.99031 0
M  V30 6175 H 573.953 -5.20445 -5.71276 0
M  V30 6176 H 572.298 -4.67537 -5.14232 0
M  V30 6177 H 575.489 -2.92833 -3.65194 0
M  V30 6178 H 575.662 -4.24777 -4.89355 0
M  V30 6179 N 569.068 1.32177 -0.85831 0
M  V30 6180 C 570.296 2.01313 -0.477582 0
M  V30 6181 C 570.711 1.6449 0.926736 0
M  V30 6182 O 570.068 0.868096 1.60531 0
M  V30 6183 C 570.119 3.56293 -0.611337 0
M  V30 6184 O 569.84 3.91794 -1.96034 0
M  V30 6185 C 571.341 4.42702 -0.230093 0
M  V30 6186 H 568.561 0.644323 -0.187322 0
M  V30 6187 H 571.105 1.68674 -1.15626 0
M  V30 6188 H 569.26 3.87395 0.0196494 0
M  V30 6189 H 569.674 4.86513 -1.95973 0
M  V30 6190 H 571.148 5.50727 -0.374674 0
M  V30 6191 H 571.625 4.3129 0.829779 0
M  V30 6192 H 572.231 4.16997 -0.836302 0
M  V30 6193 N 570.547 0.616602 1.45037 0
M  V30 6194 C 571.777 0.121791 2.06241 0
M  V30 6195 C 572.185 -1.20289 1.46038 0
M  V30 6196 O 571.528 -1.7456 0.572242 0
M  V30 6197 C 571.59 -0.0827345 3.59405 0
M  V30 6198 C 571.254 1.16153 4.41993 0
M  V30 6199 C 572.251 2.08183 4.76399 0
M  V30 6200 C 569.936 1.39288 4.82601 0
M  V30 6201 C 571.93 3.21668 5.5028 0
M  V30 6202 C 569.617 2.53073 5.56235 0
M  V30 6203 C 570.615 3.44091 5.89992 0
M  V30 6204 O 570.303 4.55894 6.6213 0
M  V30 6205 H 570.035 0.0701667 0.672349 0
M  V30 6206 H 572.589 0.846877 1.87129 0
M  V30 6207 H 570.819 -0.862812 3.76952 0
M  V30 6208 H 572.508 -0.530273 4.02421 0
M  V30 6209 H 573.274 1.91538 4.45576 0
M  V30 6210 H 569.153 0.693396 4.55755 0
M  V30 6211 H 572.697 3.92733 5.76547 0
M  V30 6212 H 568.594 2.69667 5.86472 0
M  V30 6213 H 569.362 4.5469 6.80587 0
M  V30 6214 N 572.025 -1.5352 0.356285 0
M  V30 6215 C 572.972 -2.25439 -0.494569 0
M  V30 6216 C 573.942 -1.25752 -1.08516 0
M  V30 6217 O 575.127 -1.54513 -1.1194 0
M  V30 6218 C 572.267 -3.04011 -1.63313 0
M  V30 6219 C 571.38 -4.18574 -1.06862 0
M  V30 6220 C 570.515 -4.84607 -2.17552 0
M  V30 6221 C 569.554 -5.91218 -1.58518 0
M  V30 6222 N 568.691 -6.50979 -2.63003 0
M  V30 6223 H 573.531 -2.97737 0.125244 0
M  V30 6224 H 571.068 -1.46916 0.0735789 0
M  V30 6225 H 573.026 -3.47834 -2.30363 0
M  V30 6226 H 571.656 -2.33986 -2.22374 0
M  V30 6227 H 570.708 -3.79303 -0.288672 0
M  V30 6228 H 572.02 -4.95215 -0.596924 0
M  V30 6229 H 571.174 -5.31566 -2.92442 0
M  V30 6230 H 569.913 -4.07418 -2.6807 0
M  V30 6231 H 568.918 -5.4363 -0.821391 0
M  V30 6232 H 570.143 -6.70322 -1.08836 0
M  V30 6233 H 568.089 -5.76648 -3.12751 0
M  V30 6234 H 568.006 -7.23131 -2.20493 0
M  V30 6235 H 569.274 -7.02589 -3.37623 0
M  V30 6236 N 573.503 -0.0852151 -1.57369 0
M  V30 6237 C 574.413 0.891712 -2.16992 0
M  V30 6238 C 575.429 1.3174 -1.13669 0
M  V30 6239 O 576.605 1.38735 -1.45995 0
M  V30 6240 C 573.67 2.13635 -2.73059 0
M  V30 6241 C 572.731 1.7658 -3.91303 0
M  V30 6242 C 571.964 2.95111 -4.44686 0
M  V30 6243 O 572.187 4.09539 -3.97032 0
M  V30 6244 O 571.121 2.74149 -5.35841 0
M  V30 6245 H 574.947 0.414477 -3.00858 0
M  V30 6246 H 572.532 0.138598 -1.48756 0
M  V30 6247 H 574.414 2.86595 -3.08935 0
M  V30 6248 H 573.089 2.6043 -1.92244 0
M  V30 6249 H 571.996 1.00831 -3.60255 0
M  V30 6250 H 573.329 1.34557 -4.7345 0
M  V30 6251 N 574.981 1.5647 0.188427 0
M  V30 6252 C 576.206 1.85486 0.927891 0
M  V30 6253 C 576.631 0.669575 1.75779 0
M  V30 6254 O 575.989 -0.381573 1.77239 0
M  V30 6255 C 576.037 3.12784 1.7944 0
M  V30 6256 O 575.141 2.93805 2.894 0
M  V30 6257 H 574.482 0.610585 0.260925 0
M  V30 6258 H 577.012 2.037 0.191729 0
M  V30 6259 H 577.022 3.43749 2.19774 0
M  V30 6260 H 575.697 3.98671 1.18468 0
M  V30 6261 H 574.274 2.74153 2.52774 0
M  V30 6262 N 576.459 -0.456382 1.50847 0
M  V30 6263 C 577.875 -0.791345 1.386 0
M  V30 6264 C 578.075 -1.9633 0.453498 0
M  V30 6265 O 577.131 -2.52308 -0.0984353 0
M  V30 6266 C 578.444 -1.08959 2.80265 0
M  V30 6267 C 579.992 -1.19517 2.89283 0
M  V30 6268 C 580.467 -1.52647 4.31814 0
M  V30 6269 N 581.958 -1.59609 4.34832 0
M  V30 6270 C 582.693 -1.86777 5.42127 0
M  V30 6271 N 582.189 -2.11866 6.59609 0
M  V30 6272 N 583.982 -1.88402 5.29586 0
M  V30 6273 H 576.133 0.315746 2.1004 0
M  V30 6274 H 578.396 0.0787916 0.94472 0
M  V30 6275 H 578.102 -0.301355 3.50407 0
M  V30 6276 H 577.976 -2.02211 3.18419 0
M  V30 6277 H 580.363 -1.97406 2.19351 0
M  V30 6278 H 580.444 -0.242111 2.54652 0
M  V30 6279 H 580.088 -0.752922 5.02288 0
M  V30 6280 H 580.018 -2.49127 4.63943 0
M  V30 6281 H 582.509 -1.42201 3.50125 0
M  V30 6282 H 582.822 -2.31912 7.37182 0
M  V30 6283 H 581.167 -2.09228 6.62758 0
M  V30 6284 H 584.358 -1.68307 4.36795 0
M  V30 6285 H 584.531 -2.09238 6.13289 0
M  V30 6286 N 577.937 -1.40673 -0.710563 0
M  V30 6287 C 578.885 -1.41517 -1.84596 0
M  V30 6288 C 579.879 -0.295043 -1.66811 0
M  V30 6289 O 581.085 -0.466331 -1.73854 0
M  V30 6290 H 577.46 -0.442467 -0.608052 0
M  V30 6291 H 579.431 -2.37238 -1.80999 0
M  V30 6292 C 578.18 -1.29957 -3.225 0
M  V30 6293 H 577.503 -2.15429 -3.36794 0
M  V30 6294 H 578.943 -1.34608 -4.02066 0
M  V30 6295 C 577.402 -0.0103164 -3.36898 0
M  V30 6296 O 577.932 0.950707 -3.90288 0
M  V30 6297 N 576.138 0.0608409 -2.90536 0
M  V30 6298 H 575.685 -0.721943 -2.47277 0
M  V30 6299 H 575.643 0.92292 -3.00549 0
M  V30 6300 N 579.415 0.9433 -1.26252 0
M  V30 6301 C 580.378 2.02326 -1.07689 0
M  V30 6302 C 581.378 1.60779 -0.0259174 0
M  V30 6303 O 582.568 1.72108 -0.269134 0
M  V30 6304 C 579.7 3.34886 -0.63752 0
M  V30 6305 H 580.893 2.20225 -2.0357 0
M  V30 6306 H 578.446 1.12197 -1.08819 0
M  V30 6307 H 579.181 3.22684 0.323377 0
M  V30 6308 H 578.966 3.66393 -1.39637 0
M  V30 6309 H 580.456 4.14231 -0.529418 0
M  V30 6310 N 580.893 1.08022 1.14757 0
M  V30 6311 C 582.14 0.807509 1.85703 0
M  V30 6312 C 582.468 -0.666617 1.8272 0
M  V30 6313 O 581.723 -1.50562 1.25018 0
M  V30 6314 C 582.022 1.26964 3.34088 0
M  V30 6315 C 581.688 2.7509 3.57262 0
M  V30 6316 C 580.35 3.15547 3.63296 0
M  V30 6317 C 582.702 3.70667 3.66409 0
M  V30 6318 C 580.03 4.50384 3.75994 0
M  V30 6319 C 582.382 5.05274 3.80632 0
M  V30 6320 C 581.046 5.45342 3.84913 0
M  V30 6321 H 580.316 0.295488 0.679535 0
M  V30 6322 H 582.963 1.35245 1.35577 0
M  V30 6323 H 581.268 0.644216 3.86467 0
M  V30 6324 H 582.965 1.03544 3.87401 0
M  V30 6325 H 579.555 2.42775 3.53212 0
M  V30 6326 H 583.739 3.40533 3.61041 0
M  V30 6327 H 578.995 4.80886 3.77569 0
M  V30 6328 H 583.169 5.79201 3.86652 0
M  V30 6329 H 580.796 6.49823 3.94505 0
M  V30 6330 N 582.371 -1.3172 0.865308 0
M  V30 6331 C 583.787 -1.4958 0.556596 0
M  V30 6332 C 583.987 -1.79763 -0.910353 0
M  V30 6333 O 583.043 -1.87351 -1.6928 0
M  V30 6334 C 584.356 -2.63277 1.45279 0
M  V30 6335 C 585.904 -2.77161 1.45433 0
M  V30 6336 C 586.379 -3.93949 2.33598 0
M  V30 6337 N 587.87 -4.01228 2.31453 0
M  V30 6338 C 588.605 -4.90855 2.96393 0
M  V30 6339 N 588.101 -5.85416 3.70486 0
M  V30 6340 N 589.894 -4.84063 2.85726 0
M  V30 6341 H 582.045 -1.10396 1.81456 0
M  V30 6342 H 584.308 -0.54507 0.775631 0
M  V30 6343 H 584.014 -2.47734 2.49641 0
M  V30 6344 H 583.888 -3.59309 1.14792 0
M  V30 6345 H 586.275 -2.9212 0.41831 0
M  V30 6346 H 586.356 -1.8181 1.79941 0
M  V30 6347 H 586 -3.79748 3.37274 0
M  V30 6348 H 585.93 -4.88598 1.96417 0
M  V30 6349 H 588.421 -3.3357 1.77593 0
M  V30 6350 H 588.734 -6.50525 4.17178 0
M  V30 6351 H 587.079 -5.85409 3.74594 0
M  V30 6352 H 590.27 -4.09163 2.27384 0
M  V30 6353 H 590.443 -5.53708 3.36617 0
M  V30 6354 N 583.85 -0.624285 -1.44708 0
M  V30 6355 C 584.797 0.0847135 -2.30644 0
M  V30 6356 C 585.767 0.843575 -1.43084 0
M  V30 6357 O 586.952 0.825982 -1.71995 0
M  V30 6358 C 584.091 1.06495 -3.28257 0
M  V30 6359 C 583.205 0.305224 -4.3092 0
M  V30 6360 C 582.34 1.27667 -5.1563 0
M  V30 6361 C 581.379 0.505706 -6.10007 0
M  V30 6362 N 580.516 1.42727 -6.8744 0
M  V30 6363 H 585.356 -0.654068 -2.90733 0
M  V30 6364 H 582.893 -0.334334 -1.4325 0
M  V30 6365 H 584.851 1.64658 -3.83332 0
M  V30 6366 H 583.481 1.77094 -2.69884 0
M  V30 6367 H 582.533 -0.392207 -3.78373 0
M  V30 6368 H 583.845 -0.295553 -4.97924 0
M  V30 6369 H 582.999 1.92984 -5.75189 0
M  V30 6370 H 581.738 1.91137 -4.48685 0
M  V30 6371 H 580.743 -0.160999 -5.49564 0
M  V30 6372 H 581.968 -0.124183 -6.78986 0
M  V30 6373 H 579.913 2.04931 -6.23169 0
M  V30 6374 H 579.831 0.880345 -7.50857 0
M  V30 6375 H 581.099 2.0695 -7.51526 0
M  V30 6376 N 585.328 1.53329 -0.364422 0
M  V30 6377 C 586.291 2.24323 0.470292 0
M  V30 6378 C 587.291 1.25068 1.01067 0
M  V30 6379 O 588.481 1.49354 0.896605 0
M  V30 6380 C 585.613 2.97908 1.65722 0
M  V30 6381 H 586.806 2.9952 -0.150917 0
M  V30 6382 H 584.359 1.55868 -0.116092 0
M  V30 6383 H 585.094 2.2695 2.31655 0
M  V30 6384 H 584.879 3.70732 1.27671 0
M  V30 6385 H 586.369 3.5188 2.24878 0
M  V30 6386 N 586.806 0.0935595 1.57322 0
M  V30 6387 C 587.736 -0.863062 2.16964 0
M  V30 6388 C 588.717 -1.29528 1.10256 0
M  V30 6389 O 589.902 -1.36245 1.38387 0
M  V30 6390 C 587.032 -2.12276 2.74875 0
M  V30 6391 C 585.986 -1.82921 3.86942 0
M  V30 6392 C 585.312 -3.15707 4.31548 0
M  V30 6393 C 586.612 -1.11737 5.10208 0
M  V30 6394 H 588.306 -0.366145 2.97153 0
M  V30 6395 H 585.852 -0.174673 1.42937 0
M  V30 6396 H 587.805 -2.79634 3.1525 0
M  V30 6397 H 586.529 -2.64248 1.91938 0
M  V30 6398 H 585.188 -1.17961 3.47103 0
M  V30 6399 H 584.836 -3.65563 3.45504 0
M  V30 6400 H 584.536 -2.96849 5.07104 0
M  V30 6401 H 586.06 -3.84226 4.74555 0
M  V30 6402 H 587.474 -1.69203 5.47762 0
M  V30 6403 H 585.871 -1.03064 5.91183 0
M  V30 6404 H 586.941 -0.0998818 4.84797 0
M  V30 6405 N 588.284 -1.56567 -0.180126 0
M  V30 6406 C 589.514 -1.85349 -0.912647 0
M  V30 6407 C 589.922 -0.675795 -1.76719 0
M  V30 6408 O 589.265 0.3645 -1.80047 0
M  V30 6409 C 589.327 -3.08431 -1.84691 0
M  V30 6410 C 588.991 -4.41694 -1.17284 0
M  V30 6411 C 589.988 -5.17062 -0.542532 0
M  V30 6412 C 587.673 -4.8843 -1.17223 0
M  V30 6413 C 589.667 -6.37351 0.0793953 0
M  V30 6414 C 587.354 -6.08652 -0.54647 0
M  V30 6415 C 588.352 -6.82955 0.0782458 0
M  V30 6416 O 588.04 -8.00897 0.694158 0
M  V30 6417 H 587.772 -0.619286 -0.271036 0
M  V30 6418 H 590.326 -2.0454 -0.187768 0
M  V30 6419 H 588.556 -2.85163 -2.61188 0
M  V30 6420 H 590.245 -3.23733 -2.44851 0
M  V30 6421 H 591.011 -4.8204 -0.535045 0
M  V30 6422 H 586.89 -4.30542 -1.64788 0
M  V30 6423 H 590.434 -6.95287 0.567612 0
M  V30 6424 H 586.331 -6.4314 -0.55151 0
M  V30 6425 H 587.099 -8.16352 0.592537 0
M  V30 6426 N 589.762 0.448376 -1.51087 0
M  V30 6427 C 591.01 1.19635 -1.62886 0
M  V30 6428 C 591.331 1.91977 -0.342024 0
M  V30 6429 O 590.601 1.85094 0.641636 0
M  V30 6430 H 589.181 0.444598 -0.600285 0
M  V30 6431 H 591.843 0.515138 -1.87969 0
M  V30 6432 H 590.939 1.93194 -2.45117 0
M  V30 6433 N 591.24 1.41047 0.703093 0
M  V30 6434 C 592.468 1.4334 1.49202 0
M  V30 6435 C 592.883 0.0365596 1.88765 0
M  V30 6436 O 592.24 -0.942419 1.56284 0
M  V30 6437 C 592.291 2.33538 2.75939 0
M  V30 6438 O 592.012 3.67786 2.38045 0
M  V30 6439 C 593.513 2.44555 3.6974 0
M  V30 6440 H 590.733 0.488472 0.460039 0
M  V30 6441 H 593.277 1.85245 0.86629 0
M  V30 6442 H 591.432 1.94962 3.34766 0
M  V30 6443 H 591.846 4.15816 3.19683 0
M  V30 6444 H 593.32 3.11849 4.55471 0
M  V30 6445 H 593.797 1.47447 4.1371 0
M  V30 6446 H 594.403 2.83735 3.16819 0
M  V30 6447 N 592.718 -0.936591 1.26751 0
M  V30 6448 C 593.946 -1.71758 1.15355 0
M  V30 6449 C 594.361 -1.86549 -0.290683 0
M  V30 6450 O 593.718 -1.37616 -1.19868 0
M  V30 6451 C 593.769 -3.12193 1.82258 0
M  V30 6452 O 593.49 -2.98105 3.21038 0
M  V30 6453 C 594.991 -4.06485 1.76875 0
M  V30 6454 H 592.211 -0.537636 0.401483 0
M  V30 6455 H 594.755 -1.17382 1.67457 0
M  V30 6456 H 592.91 -3.63456 1.34083 0
M  V30 6457 H 593.324 -3.86824 3.54214 0
M  V30 6458 H 594.798 -5.02569 2.28316 0
M  V30 6459 H 595.275 -4.32986 0.736216 0
M  V30 6460 H 595.881 -3.61144 2.24623 0
M  V30 6461 N 594.196 -1.08629 -1.14182 0
M  V30 6462 C 595.421 -0.83902 -1.89671 0
M  V30 6463 C 595.846 0.603332 -1.78161 0
M  V30 6464 O 595.204 1.42301 -1.12339 0
M  V30 6465 C 595.252 -1.26854 -3.37551 0
M  V30 6466 O 594.356 -0.42188 -4.10236 0
M  V30 6467 H 593.697 -0.304545 -0.590041 0
M  V30 6468 H 596.227 -1.4483 -1.44518 0
M  V30 6469 H 596.237 -1.25038 -3.88368 0
M  V30 6470 H 594.912 -2.31901 -3.45246 0
M  V30 6471 H 593.489 -0.503654 -3.69483 0
M  V30 6472 N 595.674 1.31259 -0.872281 0
M  V30 6473 C 596.584 2.32221 -0.333255 0
M  V30 6474 C 597.6 1.6481 0.558013 0
M  V30 6475 O 598.776 1.96212 0.454175 0
M  V30 6476 C 595.841 3.43708 0.454479 0
M  V30 6477 C 594.902 4.26774 -0.465024 0
M  V30 6478 C 594.135 5.32937 0.28521 0
M  V30 6479 O 594.358 5.49968 1.513 0
M  V30 6480 O 593.292 6.00834 -0.358126 0
M  V30 6481 H 597.118 2.80252 -1.17016 0
M  V30 6482 H 594.703 1.352 -0.635724 0
M  V30 6483 H 596.585 4.11656 0.900963 0
M  V30 6484 H 595.26 2.97836 1.26789 0
M  V30 6485 H 594.167 3.61571 -0.960055 0
M  V30 6486 H 595.5 4.76217 -1.2441 0
M  V30 6487 N 597.152 0.631951 1.44375 0
M  V30 6488 C 598.38 0.143867 2.06399 0
M  V30 6489 C 598.795 -1.18188 1.47231 0
M  V30 6490 O 598.152 -1.72511 0.595498 0
M  V30 6491 C 598.203 0.0238253 3.61492 0
M  V30 6492 O 597.924 1.29715 4.18456 0
M  V30 6493 C 599.425 -0.492856 4.40552 0
M  V30 6494 H 596.645 0.0800542 0.666207 0
M  V30 6495 H 599.189 0.866586 1.85231 0
M  V30 6496 H 597.344 -0.649338 3.81919 0
M  V30 6497 H 597.758 1.14252 5.11905 0
M  V30 6498 H 599.232 -0.525861 5.49489 0
M  V30 6499 H 599.709 -1.52006 4.12057 0
M  V30 6500 H 600.315 0.147085 4.25046 0
M  V30 6501 N 598.631 -1.53133 0.372548 0
M  V30 6502 C 599.594 -2.24569 -0.458389 0
M  V30 6503 C 600.594 -1.25603 -1.00402 0
M  V30 6504 O 601.784 -1.49827 -0.888672 0
M  V30 6505 C 598.916 -2.98783 -1.6414 0
M  V30 6506 H 600.109 -2.99436 0.166799 0
M  V30 6507 H 597.662 -1.55805 0.124357 0
M  V30 6508 H 598.397 -2.28176 -2.30448 0
M  V30 6509 H 598.182 -3.71404 -1.25704 0
M  V30 6510 H 599.672 -3.53068 -2.23008 0
M  V30 6511 N 600.109 -0.101901 -1.5727 0
M  V30 6512 C 601.337 0.568392 -1.98939 0
M  V30 6513 C 601.752 1.61301 -0.981194 0
M  V30 6514 O 601.109 1.82478 0.0282869 0
M  V30 6515 C 601.16 1.20997 -3.40649 0
M  V30 6516 O 600.881 0.207129 -4.3761 0
M  V30 6517 C 602.382 1.96523 -3.97358 0
M  V30 6518 H 599.602 0.15186 -0.65359 0
M  V30 6519 H 602.146 -0.183198 -2.03678 0
M  V30 6520 H 600.301 1.91245 -3.36904 0
M  V30 6521 H 600.715 0.671071 -5.20189 0
M  V30 6522 H 602.189 2.36764 -4.98645 0
M  V30 6523 H 602.666 2.83376 -3.35552 0
M  V30 6524 H 603.272 1.31076 -4.04598 0
M  V30 6525 N 601.587 1.56661 0.17182 0
M  V30 6526 C 602.833 1.8313 0.88516 0
M  V30 6527 C 603.188 0.682376 1.79893 0
M  V30 6528 O 602.481 -0.321215 1.88888 0
M  V30 6529 C 602.675 3.13435 1.71736 0
M  V30 6530 C 602.504 4.40892 0.885659 0
M  V30 6531 C 601.274 5.02177 0.560939 0
M  V30 6532 C 603.472 5.13797 0.227454 0
M  V30 6533 N 601.454 6.13229 -0.286953 0
M  V30 6534 C 602.825 6.18127 -0.481625 0
M  V30 6535 C 604.88 4.97687 0.145567 0
M  V30 6536 C 603.583 7.08092 -1.26482 0
M  V30 6537 C 605.609 5.88096 -0.624298 0
M  V30 6538 C 604.971 6.91888 -1.32174 0
M  V30 6539 H 601.07 0.721107 0.302536 0
M  V30 6540 H 603.654 1.94104 0.152178 0
M  V30 6541 H 601.825 3.03653 2.42176 0
M  V30 6542 H 603.557 3.27903 2.37196 0
M  V30 6543 H 600.312 4.65145 0.890902 0
M  V30 6544 H 600.736 6.73359 -0.701193 0
M  V30 6545 H 605.378 4.17451 0.670426 0
M  V30 6546 H 603.096 7.87774 -1.80103 0
M  V30 6547 H 606.682 5.77702 -0.689321 0
M  V30 6548 H 605.562 7.60637 -1.90791 0
M  V30 6549 N 603.065 -0.440357 1.51323 0
M  V30 6550 C 604.481 -0.7766 1.39431 0
M  V30 6551 C 604.681 -1.95838 0.474296 0
M  V30 6552 O 603.737 -2.52398 -0.0716692 0
M  V30 6553 C 605.05 -1.05981 2.81405 0
M  V30 6554 C 606.598 -1.16442 2.90534 0
M  V30 6555 C 607.073 -1.48058 4.33408 0
M  V30 6556 N 608.564 -1.54988 4.36501 0
M  V30 6557 C 609.299 -1.81017 5.44078 0
M  V30 6558 N 608.795 -2.04858 6.61819 0
M  V30 6559 N 610.588 -1.82774 5.31554 0
M  V30 6560 H 602.739 0.338006 2.09693 0
M  V30 6561 H 605.002 0.0888072 0.943831 0
M  V30 6562 H 604.708 -0.264173 3.50706 0
M  V30 6563 H 604.582 -1.98822 3.20546 0
M  V30 6564 H 606.969 -1.95068 2.21432 0
M  V30 6565 H 607.05 -0.215088 2.54894 0
M  V30 6566 H 606.694 -0.699605 5.03059 0
M  V30 6567 H 606.624 -2.44192 4.66559 0
M  V30 6568 H 609.115 -1.38479 3.51613 0
M  V30 6569 H 609.428 -2.2408 7.396 0
M  V30 6570 H 607.773 -2.02187 6.6494 0
M  V30 6571 H 610.964 -1.63665 4.38556 0
M  V30 6572 H 611.137 -2.02722 6.15474 0
M  V30 6573 N 604.543 -1.41418 -0.695603 0
M  V30 6574 C 605.959 -1.23887 -1.00619 0
M  V30 6575 C 606.159 -0.128206 -2.01092 0
M  V30 6576 O 605.215 0.507408 -2.47349 0
M  V30 6577 C 606.528 -2.58816 -1.53083 0
M  V30 6578 C 608.076 -2.65998 -1.64967 0
M  V30 6579 C 608.551 -4.01244 -2.20833 0
M  V30 6580 N 610.042 -4.0309 -2.28194 0
M  V30 6581 C 610.777 -5.04539 -2.72448 0
M  V30 6582 N 610.273 -6.16378 -3.16306 0
M  V30 6583 N 612.066 -4.91901 -2.72011 0
M  V30 6584 H 604.217 -2.12379 -0.0300061 0
M  V30 6585 H 606.48 -0.944958 -0.0758797 0
M  V30 6586 H 606.186 -3.40842 -0.867147 0
M  V30 6587 H 606.06 -2.81299 -2.51298 0
M  V30 6588 H 608.447 -1.84331 -2.30448 0
M  V30 6589 H 608.528 -2.47325 -0.652982 0
M  V30 6590 H 608.172 -4.83359 -1.55968 0
M  V30 6591 H 608.102 -4.17257 -3.21254 0
M  V30 6592 H 610.593 -3.22341 -1.97242 0
M  V30 6593 H 610.906 -6.89658 -3.487 0
M  V30 6594 H 609.251 -6.19914 -3.14215 0
M  V30 6595 H 612.442 -4.03613 -2.37095 0
M  V30 6596 H 612.615 -5.71102 -3.06181 0
M  V30 6597 N 606.021 0.929856 -1.27246 0
M  V30 6598 C 607.261 1.6919 -1.14691 0
M  V30 6599 C 607.625 1.896 0.302621 0
M  V30 6600 O 608.826 2.63102 0.550543 0
M  V30 6601 C 607.097 3.02291 -1.9067 0
M  V30 6602 S 608.656 3.93436 -1.94303 0
M  V30 6603 H 605.474 0.581248 -0.409477 0
M  V30 6604 H 608.076 1.10722 -1.61124 0
M  V30 6605 H 606.78 2.85125 -2.95181 0
M  V30 6606 H 606.311 3.65813 -1.44723 0
M  V30 6607 H 608.326 4.85224 -1.0379 0
M  V30 6608 N 607.499 1.09233 1.13605 0
M  V30 6609 C 608.462 0.733553 2.17144 0
M  V30 6610 C 609.462 -0.235873 1.59061 0
M  V30 6611 O 610.652 -0.0143167 1.74194 0
M  V30 6612 C 607.784 0.084471 3.40795 0
M  V30 6613 H 608.977 1.65049 2.50397 0
M  V30 6614 H 606.53 0.891264 1.28399 0
M  V30 6615 H 607.265 -0.843795 3.1313 0
M  V30 6616 H 607.05 0.781985 3.84223 0
M  V30 6617 H 608.54 -0.151216 4.17326 0
M  V30 6618 N 608.977 -1.30795 0.87923 0
M  V30 6619 C 609.925 -2.30231 0.331112 0
M  V30 6620 C 610.919 -1.59918 -0.558794 0
M  V30 6621 O 612.125 -1.74441 -0.443866 0
M  V30 6622 H 608.5 -0.746785 0.088409 0
M  V30 6623 H 610.471 -2.73925 1.18353 0
M  V30 6624 C 609.22 -3.44848 -0.444401 0
M  V30 6625 H 608.543 -3.99131 0.231106 0
M  V30 6626 H 609.983 -4.16516 -0.793109 0
M  V30 6627 C 608.442 -2.94329 -1.63926 0
M  V30 6628 O 608.972 -2.93875 -2.73862 0
M  V30 6629 N 607.178 -2.50413 -1.4745 0
M  V30 6630 H 606.725 -2.50982 -0.58015 0
M  V30 6631 H 606.683 -2.16969 -2.27534 0
M  V30 6632 N 610.455 -0.639598 -1.44038 0
M  V30 6633 C 611.685 -0.154586 -2.06021 0
M  V30 6634 C 612.093 1.17951 -1.47933 0
M  V30 6635 O 611.436 1.73627 -0.59994 0
M  V30 6636 C 611.498 0.0255459 -3.59491 0
M  V30 6637 C 611.162 -1.2317 -4.40089 0
M  V30 6638 C 612.159 -2.15735 -4.73027 0
M  V30 6639 C 609.844 -1.46949 -4.80324 0
M  V30 6640 C 611.838 -3.30382 -5.45093 0
M  V30 6641 C 609.525 -2.61891 -5.52138 0
M  V30 6642 C 610.523 -3.53433 -5.84443 0
M  V30 6643 O 610.211 -4.6637 -6.54793 0
M  V30 6644 H 609.943 -0.0808543 -0.671147 0
M  V30 6645 H 612.497 -0.876541 -1.85758 0
M  V30 6646 H 610.727 0.802733 -3.78276 0
M  V30 6647 H 612.416 0.466184 -4.03214 0
M  V30 6648 H 613.182 -1.98602 -4.42473 0
M  V30 6649 H 609.061 -0.765815 -4.54595 0
M  V30 6650 H 612.605 -4.01856 -5.70226 0
M  V30 6651 H 608.502 -2.78964 -5.82108 0
M  V30 6652 H 609.27 -4.6546 -6.73267 0
M  V30 6653 N 611.933 1.52934 -0.380664 0
M  V30 6654 C 613.179 2.01765 0.20458 0
M  V30 6655 C 613.512 1.26696 1.47179 0
M  V30 6656 O 612.787 0.364936 1.91046 0
M  V30 6657 C 613.07 3.56869 0.481269 0
M  V30 6658 C 612.923 4.42617 -0.800629 0
M  V30 6659 C 614.242 4.2121 1.27554 0
M  V30 6660 H 611.361 0.733388 0.0728803 0
M  V30 6661 H 614.003 1.83068 -0.50853 0
M  V30 6662 H 612.153 3.72932 1.08875 0
M  V30 6663 H 613.825 4.38323 -1.43773 0
M  V30 6664 H 612.068 4.09977 -1.4178 0
M  V30 6665 H 612.739 5.49134 -0.561791 0
M  V30 6666 H 615.215 4.09072 0.761514 0
M  V30 6667 H 614.091 5.29732 1.43788 0
M  V30 6668 H 614.352 3.78269 2.28833 0
M  V30 6669 N 613.412 0.11024 1.57214 0
M  V30 6670 C 614.36 -0.860586 2.16094 0
M  V30 6671 C 615.354 -1.28156 1.1078 0
M  V30 6672 O 616.56 -1.25433 1.29099 0
M  V30 6673 H 612.935 -0.295606 0.691463 0
M  V30 6674 H 614.906 -0.33942 2.96463 0
M  V30 6675 C 613.655 -2.10421 2.768 0
M  V30 6676 H 612.978 -1.7892 3.5753 0
M  V30 6677 H 614.418 -2.76375 3.21547 0
M  V30 6678 C 612.877 -2.88823 1.73444 0
M  V30 6679 O 613.407 -3.839 1.18251 0
M  V30 6680 N 611.613 -2.52649 1.43586 0
M  V30 6681 H 611.16 -1.754 1.8866 0
M  V30 6682 H 611.118 -3.05403 0.746735 0
M  V30 6683 N 614.89 -1.56749 -0.16351 0
M  V30 6684 C 616.138 -1.82074 -0.87713 0
M  V30 6685 C 616.459 -0.688503 -1.82441 0
M  V30 6686 O 615.729 0.291085 -1.93725 0
M  V30 6687 H 614.309 -0.671677 -0.326893 0
M  V30 6688 H 616.971 -1.9423 -0.161459 0
M  V30 6689 H 616.067 -2.76407 -1.44934 0
M  V30 6690 N 616.368 0.432326 -1.51554 0
M  V30 6691 C 617.316 1.54572 -1.73811 0
M  V30 6692 C 618.31 1.58246 -0.604539 0
M  V30 6693 O 619.516 1.6193 -0.786041 0
M  V30 6694 H 615.891 0.513626 -0.549265 0
M  V30 6695 H 617.862 1.32977 -2.67132 0
M  V30 6696 C 616.611 2.92181 -1.88483 0
M  V30 6697 H 615.934 2.90088 -2.75116 0
M  V30 6698 H 617.374 3.69439 -2.08065 0
M  V30 6699 C 615.833 3.3065 -0.645909 0
M  V30 6700 O 616.363 4.01216 0.197093 0
M  V30 6701 N 614.569 2.86464 -0.488538 0
M  V30 6702 H 614.116 2.29209 -1.17562 0
M  V30 6703 H 614.074 3.12565 0.339156 0
M  V30 6704 N 617.846 1.41785 0.688094 0
M  V30 6705 C 618.779 1.38643 1.81255 0
M  V30 6706 C 619.757 0.252583 1.60626 0
M  V30 6707 O 620.941 0.440691 1.83276 0
M  V30 6708 C 618.068 1.16449 3.18053 0
M  V30 6709 C 617.114 2.32651 3.57457 0
M  V30 6710 S 617.947 3.95152 3.61407 0
M  V30 6711 C 619.103 3.75275 5.00919 0
M  V30 6712 H 619.336 2.33799 1.83644 0
M  V30 6713 H 616.869 1.28398 0.857513 0
M  V30 6714 H 618.827 1.0433 3.97021 0
M  V30 6715 H 617.488 0.229002 3.13264 0
M  V30 6716 H 616.681 2.12835 4.56856 0
M  V30 6717 H 616.283 2.41215 2.85817 0
M  V30 6718 H 618.575 3.35443 5.88629 0
M  V30 6719 H 619.518 4.74302 5.25778 0
M  V30 6720 H 619.926 3.08401 4.7281 0
M  V30 6721 N 619.324 -0.923095 1.27737 0
M  V30 6722 C 620.234 -2.05765 1.12685 0
M  V30 6723 C 621.25 -1.73911 0.0557197 0
M  V30 6724 O 622.426 -1.99674 0.263137 0
M  V30 6725 C 619.491 -3.37804 0.780363 0
M  V30 6726 C 618.552 -3.83326 1.93286 0
M  V30 6727 C 617.785 -5.09064 1.60281 0
M  V30 6728 O 618.008 -5.6809 0.512828 0
M  V30 6729 O 616.942 -5.50071 2.44347 0
M  V30 6730 H 620.768 -2.21378 2.07907 0
M  V30 6731 H 618.353 -1.04299 1.06968 0
M  V30 6732 H 620.235 -4.17097 0.600668 0
M  V30 6733 H 618.91 -3.23387 -0.142291 0
M  V30 6734 H 617.817 -3.049 2.16764 0
M  V30 6735 H 619.15 -4.02292 2.83588 0
M  V30 6736 N 620.802 -1.09834 -1.13024 0
M  V30 6737 C 621.75 -0.736283 -2.20639 0
M  V30 6738 C 622.744 0.264725 -1.67319 0
M  V30 6739 O 623.95 0.125745 -1.7956 0
M  V30 6740 H 620.325 -0.220136 -0.719058 0
M  V30 6741 H 622.296 -1.65295 -2.48436 0
M  V30 6742 C 621.045 -0.177544 -3.47246 0
M  V30 6743 H 620.368 -0.939009 -3.88616 0
M  V30 6744 H 621.808 0.0378007 -4.23983 0
M  V30 6745 C 620.267 1.08824 -3.1884 0
M  V30 6746 O 620.797 2.1708 -3.37993 0
M  V30 6747 N 619.003 1.00442 -2.7269 0
M  V30 6748 H 618.55 0.123383 -2.57304 0
M  V30 6749 H 618.508 1.85206 -2.5406 0
M  V30 6750 N 622.28 1.30327 -0.886154 0
M  V30 6751 C 623.243 2.26376 -0.358687 0
M  V30 6752 C 624.243 1.52845 0.499498 0
M  V30 6753 O 625.433 1.71483 0.306485 0
M  V30 6754 C 622.565 3.37379 0.488726 0
M  V30 6755 H 623.758 2.74547 -1.20681 0
M  V30 6756 H 621.311 1.41536 -0.663113 0
M  V30 6757 H 622.046 2.94526 1.35739 0
M  V30 6758 H 621.831 3.91897 -0.126003 0
M  V30 6759 H 623.321 4.08868 0.84952 0
M  V30 6760 N 623.758 0.647228 1.43697 0
M  V30 6761 C 625.004 0.158422 2.0218 0
M  V30 6762 C 625.337 -1.22233 1.50907 0
M  V30 6763 O 624.612 -1.81478 0.699702 0
M  V30 6764 C 624.895 0.1627 3.59732 0
M  V30 6765 C 624.748 1.57694 4.21251 0
M  V30 6766 C 626.067 -0.504138 4.37203 0
M  V30 6767 H 623.186 0.059042 0.734631 0
M  V30 6768 H 625.828 0.826772 1.71069 0
M  V30 6769 H 623.978 -0.406414 3.86368 0
M  V30 6770 H 625.65 2.19618 4.05667 0
M  V30 6771 H 623.893 2.12603 3.7813 0
M  V30 6772 H 624.564 1.53183 5.3032 0
M  V30 6773 H 627.04 -0.0199841 4.16095 0
M  V30 6774 H 625.916 -0.470394 5.46881 0
M  V30 6775 H 626.177 -1.57726 4.13007 0
M  V30 6776 N 625.236 -1.5273 0.388769 0
M  V30 6777 C 626.484 -2.01174 -0.193208 0
M  V30 6778 C 626.805 -1.27705 -1.47365 0
M  V30 6779 O 626.075 -0.396966 -1.91836 0
M  V30 6780 H 624.655 -0.743287 -0.0743871 0
M  V30 6781 H 627.317 -1.87826 0.520336 0
M  V30 6782 H 626.413 -3.09477 -0.403803 0
M  V30 6783 N 626.714 -0.118576 -1.57153 0
M  V30 6784 C 628.13 0.238014 -1.57815 0
M  V30 6785 C 628.33 1.66747 -1.13127 0
M  V30 6786 O 627.386 2.38867 -0.818462 0
M  V30 6787 C 628.699 0.00508207 -3.007 0
M  V30 6788 C 630.247 0.0710139 -3.12919 0
M  V30 6789 C 630.722 -0.13422 -4.57803 0
M  V30 6790 N 632.213 -0.0801755 -4.63131 0
M  V30 6791 C 632.948 -0.213885 -5.73001 0
M  V30 6792 N 632.444 -0.403742 -6.91623 0
M  V30 6793 N 634.237 -0.15349 -5.6189 0
M  V30 6794 H 626.388 -1.05226 -1.84503 0
M  V30 6795 H 628.651 -0.414318 -0.852669 0
M  V30 6796 H 628.357 -0.983125 -3.3768 0
M  V30 6797 H 628.231 0.73714 -3.69927 0
M  V30 6798 H 630.618 1.04975 -2.75798 0
M  V30 6799 H 630.699 -0.692918 -2.46236 0
M  V30 6800 H 630.343 -1.10992 -4.95624 0
M  V30 6801 H 630.273 0.649692 -5.22577 0
M  V30 6802 H 632.764 0.0630689 -3.77847 0
M  V30 6803 H 633.077 -0.496645 -7.71202 0
M  V30 6804 H 631.422 -0.43971 -6.93608 0
M  V30 6805 H 634.613 -0.00613174 -4.681 0
M  V30 6806 H 634.786 -0.261138 -6.47474 0
M  V30 6807 N 628.193 1.56834 0.155195 0
M  V30 6808 C 629.123 2.00678 1.19376 0
M  V30 6809 C 630.104 0.884973 1.45266 0
M  V30 6810 O 631.289 1.1522 1.56326 0
M  V30 6811 C 628.419 2.38042 2.5289 0
M  V30 6812 C 627.373 3.53332 2.41538 0
M  V30 6813 C 626.699 3.76485 3.79688 0
M  V30 6814 C 627.999 4.86265 1.9064 0
M  V30 6815 H 629.693 2.87688 0.829232 0
M  V30 6816 H 627.239 1.38407 0.397445 0
M  V30 6817 H 629.192 2.67314 3.25763 0
M  V30 6818 H 627.916 1.4796 2.91162 0
M  V30 6819 H 626.575 3.24213 1.71117 0
M  V30 6820 H 626.223 2.83667 4.15382 0
M  V30 6821 H 625.923 4.54068 3.72956 0
M  V30 6822 H 627.447 4.08174 4.54122 0
M  V30 6823 H 628.861 5.14308 2.53299 0
M  V30 6824 H 627.258 5.67597 1.94818 0
M  V30 6825 H 628.328 4.77184 0.861596 0
M  V30 6826 N 629.671 -0.424282 1.51781 0
M  V30 6827 C 630.901 -1.19297 1.68677 0
M  V30 6828 C 631.309 -1.85152 0.389258 0
M  V30 6829 O 630.652 -1.72067 -0.643311 0
M  V30 6830 C 630.714 -2.30929 2.75521 0
M  V30 6831 C 630.378 -1.85335 4.17732 0
M  V30 6832 C 631.375 -1.34951 5.0208 0
M  V30 6833 C 629.06 -1.92629 4.63896 0
M  V30 6834 C 631.054 -0.924636 6.30658 0
M  V30 6835 C 628.741 -1.49754 5.92467 0
M  V30 6836 C 629.739 -0.997543 6.75676 0
M  V30 6837 O 629.427 -0.57492 8.01842 0
M  V30 6838 H 629.159 -0.36512 0.568914 0
M  V30 6839 H 631.713 -0.507327 1.99036 0
M  V30 6840 H 629.943 -3.02811 2.40505 0
M  V30 6841 H 631.632 -2.92748 2.81165 0
M  V30 6842 H 632.398 -1.287 4.67612 0
M  V30 6843 H 628.277 -2.30491 3.99243 0
M  V30 6844 H 631.821 -0.533682 6.95556 0
M  V30 6845 H 627.718 -1.55679 6.26446 0
M  V30 6846 H 628.486 -0.699597 8.15505 0
M  V30 6847 N 631.149 -1.42148 -0.680565 0
M  V30 6848 C 632.395 -1.42521 -1.44277 0
M  V30 6849 C 632.728 -0.0393718 -1.9416 0
M  V30 6850 O 632.003 0.935425 -1.70529 0
M  V30 6851 C 632.286 -2.44475 -2.64394 0
M  V30 6852 C 632.139 -3.92226 -2.20179 0
M  V30 6853 C 633.458 -2.43491 -3.66606 0
M  V30 6854 H 630.577 -0.518985 -0.523282 0
M  V30 6855 H 633.219 -1.73524 -0.773914 0
M  V30 6856 H 631.369 -2.18168 -3.21458 0
M  V30 6857 H 633.041 -4.29493 -1.68327 0
M  V30 6858 H 631.284 -4.0637 -1.5181 0
M  V30 6859 H 631.955 -4.59133 -3.06433 0
M  V30 6860 H 634.431 -2.66872 -3.19247 0
M  V30 6861 H 633.307 -3.16816 -4.4824 0
M  V30 6862 H 633.568 -1.45881 -4.17338 0
M  V30 6863 N 632.627 0.916307 -1.28225 0
M  V30 6864 C 633.537 2.05165 -1.13775 0
M  V30 6865 C 634.553 1.73879 -0.0649418 0
M  V30 6866 O 635.729 1.99531 -0.273722 0
M  V30 6867 C 632.794 3.37385 -0.798267 0
M  V30 6868 C 631.855 3.82296 -1.95316 0
M  V30 6869 C 631.088 5.08206 -1.62978 0
M  V30 6870 O 631.311 5.6781 -0.542948 0
M  V30 6871 O 630.245 5.48768 -2.47261 0
M  V30 6872 H 634.071 2.20273 -2.09078 0
M  V30 6873 H 631.656 1.0373 -1.07519 0
M  V30 6874 H 633.538 4.16773 -0.62278 0
M  V30 6875 H 632.213 3.23458 0.125139 0
M  V30 6876 H 631.12 3.03746 -2.18378 0
M  V30 6877 H 632.453 4.00782 -2.85718 0
M  V30 6878 N 634.105 1.10431 1.1244 0
M  V30 6879 C 635.068 0.756542 2.16354 0
M  V30 6880 C 636.068 -0.21899 1.59302 0
M  V30 6881 O 637.258 0.00415969 1.742 0
M  V30 6882 C 634.39 0.120612 3.40687 0
M  V30 6883 H 635.583 1.67696 2.48632 0
M  V30 6884 H 633.136 0.904832 1.27446 0
M  V30 6885 H 633.871 -0.810536 3.14008 0
M  V30 6886 H 633.656 0.822693 3.83372 0
M  V30 6887 H 635.146 -0.106945 4.17463 0
M  V30 6888 N 635.583 -1.29855 0.893053 0
M  V30 6889 C 636.546 -2.26183 0.370687 0
M  V30 6890 C 637.546 -1.53108 -0.491385 0
M  V30 6891 O 638.736 -1.71643 -0.297386 0
M  V30 6892 C 635.868 -3.37633 -0.470827 0
M  V30 6893 H 637.061 -2.73903 1.22135 0
M  V30 6894 H 634.614 -1.41183 0.67061 0
M  V30 6895 H 635.349 -2.95241 -1.34175 0
M  V30 6896 H 635.134 -3.91825 0.146784 0
M  V30 6897 H 636.624 -4.09313 -0.827825 0
M  V30 6898 N 637.061 -0.65484 -1.43351 0
M  V30 6899 C 638.308 -0.168892 -2.01794 0
M  V30 6900 C 638.636 1.2177 -1.51665 0
M  V30 6901 O 637.891 1.82717 -0.70092 0
M  V30 6902 C 638.19 -0.130424 -3.57162 0
M  V30 6903 C 637.856 -1.45898 -4.26643 0
M  V30 6904 C 636.518 -1.82279 -4.4534 0
M  V30 6905 C 638.87 -2.33485 -4.65976 0
M  V30 6906 C 636.198 -3.0591 -5.00635 0
M  V30 6907 C 638.55 -3.5641 -5.22642 0
M  V30 6908 C 637.214 -3.92985 -5.39555 0
M  V30 6909 H 636.484 -0.061802 -0.738418 0
M  V30 6910 H 639.131 -0.845869 -1.71806 0
M  V30 6911 H 637.436 0.630008 -3.86702 0
M  V30 6912 H 639.133 0.262465 -4.0014 0
M  V30 6913 H 635.723 -1.16591 -4.12437 0
M  V30 6914 H 639.907 -2.06668 -4.51223 0
M  V30 6915 H 635.163 -3.34295 -5.11915 0
M  V30 6916 H 639.337 -4.24495 -5.52066 0
M  V30 6917 H 636.964 -4.88862 -5.82167 0
M  V30 6918 N 638.539 1.52521 -0.396863 0
M  V30 6919 C 639.502 2.2527 0.422604 0
M  V30 6920 C 640.502 1.27184 0.983913 0
M  V30 6921 O 641.692 1.51222 0.864723 0
M  V30 6922 C 638.824 3.01356 1.59365 0
M  V30 6923 H 640.017 2.99133 -0.214416 0
M  V30 6924 H 637.57 1.55587 -0.149128 0
M  V30 6925 H 638.305 2.31813 2.26789 0
M  V30 6926 H 638.09 3.73357 1.19779 0
M  V30 6927 H 639.58 3.56571 2.17363 0
M  V30 6928 N 640.017 0.126909 1.57088 0
M  V30 6929 C 641.265 -0.528123 1.95078 0
M  V30 6930 C 641.586 -1.66708 1.0116 0
M  V30 6931 O 640.856 -1.95777 0.0693527 0
M  V30 6932 H 639.436 -0.198087 0.720257 0
M  V30 6933 H 642.098 0.197703 1.93895 0
M  V30 6934 H 641.194 -0.917507 2.98309 0
M  V30 6935 N 641.495 -1.56914 -0.146875 0
M  V30 6936 C 642.405 -2.0154 -1.20079 0
M  V30 6937 C 643.421 -0.930838 -1.47008 0
M  V30 6938 O 644.597 -1.24032 -1.58676 0
M  V30 6939 C 641.662 -2.38715 -2.51428 0
M  V30 6940 C 640.723 -3.6112 -2.32145 0
M  V30 6941 C 639.956 -3.96512 -3.57231 0
M  V30 6942 O 640.179 -3.32566 -4.63418 0
M  V30 6943 O 639.113 -4.89758 -3.49887 0
M  V30 6944 H 642.939 -2.91506 -0.851924 0
M  V30 6945 H 640.524 -1.45106 -0.355607 0
M  V30 6946 H 642.406 -2.63485 -3.28867 0
M  V30 6947 H 641.081 -1.51903 -2.85845 0
M  V30 6948 H 639.988 -3.41536 -1.52656 0
M  V30 6949 H 641.321 -4.48549 -2.02644 0
M  V30 6950 N 642.974 0.416227 -1.52004 0
M  V30 6951 C 644.199 1.19029 -1.69843 0
M  V30 6952 C 644.624 1.83708 -0.404103 0
M  V30 6953 O 643.982 1.69711 0.637787 0
M  V30 6954 C 644.03 2.23439 -2.83032 0
M  V30 6955 O 643.134 3.29419 -2.48106 0
M  V30 6956 H 642.475 0.347785 -0.565634 0
M  V30 6957 H 645.005 0.488871 -1.98674 0
M  V30 6958 H 645.015 2.67884 -3.07737 0
M  V30 6959 H 643.69 1.75745 -3.76944 0
M  V30 6960 H 642.267 2.90303 -2.34048 0
M  V30 6961 N 644.452 1.42507 0.673017 0
M  V30 6962 C 645.399 1.46124 1.78651 0
M  V30 6963 C 646.369 0.313007 1.63124 0
M  V30 6964 O 647.554 0.517337 1.83653 0
M  V30 6965 C 644.694 1.3711 3.16694 0
M  V30 6966 C 643.807 2.61983 3.43495 0
M  V30 6967 C 642.942 2.45098 4.71275 0
M  V30 6968 C 641.981 3.65336 4.91117 0
M  V30 6969 N 641.118 3.47383 6.10139 0
M  V30 6970 H 645.958 2.4128 1.74895 0
M  V30 6971 H 643.495 1.19788 0.853766 0
M  V30 6972 H 645.453 1.29881 3.96468 0
M  V30 6973 H 644.083 0.45549 3.1957 0
M  V30 6974 H 643.135 2.79571 2.57961 0
M  V30 6975 H 644.447 3.51355 3.5405 0
M  V30 6976 H 643.601 2.35466 5.59143 0
M  V30 6977 H 642.34 1.53219 4.63007 0
M  V30 6978 H 641.345 3.754 4.0169 0
M  V30 6979 H 642.57 4.58199 5.01229 0
M  V30 6980 H 640.516 2.58222 6.0304 0
M  V30 6981 H 640.433 4.30344 6.21563 0
M  V30 6982 H 641.701 3.41565 7.00681 0
M  V30 6983 N 645.93 -0.909495 1.28709 0
M  V30 6984 C 646.88 -1.9991 1.09636 0
M  V30 6985 C 647.864 -1.60889 0.01872 0
M  V30 6986 O 649.056 -1.75374 0.239338 0
M  V30 6987 C 646.185 -3.34675 0.764702 0
M  V30 6988 C 645.271 -3.80085 1.8814 0
M  V30 6989 N 645.662 -3.97824 3.12361 0
M  V30 6990 C 643.96 -4.09278 1.77221 0
M  V30 6991 C 644.661 -4.35928 3.85151 0
M  V30 6992 N 643.637 -4.44426 3.13028 0
M  V30 6993 H 647.439 -2.11681 2.03883 0
M  V30 6994 H 644.953 -1.09763 1.1969 0
M  V30 6995 H 646.95 -4.12426 0.609132 0
M  V30 6996 H 645.61 -3.24255 -0.169952 0
M  V30 6997 H 646.621 -3.83626 3.47925 0
M  V30 6998 H 643.298 -4.0747 0.909621 0
M  V30 6999 H 644.688 -4.57581 4.92006 0
M  V30 7000 N 647.408 -1.11026 -1.11852 0
M  V30 7001 C 648.654 -0.857729 -1.83768 0
M  V30 7002 C 648.987 0.615143 -1.842 0
M  V30 7003 O 648.262 1.45391 -1.29196 0
M  V30 7004 C 648.545 -1.41453 -3.31154 0
M  V30 7005 C 648.398 -2.95471 -3.39142 0
M  V30 7006 C 649.717 -1.0619 -4.27097 0
M  V30 7007 H 646.836 -0.313044 -0.667212 0
M  V30 7008 H 649.478 -1.37443 -1.31185 0
M  V30 7009 H 647.628 -0.975052 -3.76065 0
M  V30 7010 H 649.3 -3.4799 -3.02821 0
M  V30 7011 H 647.543 -3.31759 -2.79497 0
M  V30 7012 H 648.214 -3.29515 -4.42859 0
M  V30 7013 H 650.69 -1.44122 -3.90344 0
M  V30 7014 H 649.566 -1.47832 -5.28618 0
M  V30 7015 H 649.827 0.0278912 -4.42091 0
M  V30 7016 N 648.886 1.2938 -0.899927 0
M  V30 7017 C 650.132 1.9584 -0.526742 0
M  V30 7018 C 650.465 1.70774 0.924651 0
M  V30 7019 O 649.74 1.02084 1.65557 0
M  V30 7020 C 650.023 3.50638 -0.820062 0
M  V30 7021 C 649.876 3.85161 -2.32317 0
M  V30 7022 C 651.195 4.3903 -0.30671 0
M  V30 7023 H 648.314 0.711322 -0.192848 0
M  V30 7024 H 650.956 1.52992 -1.12665 0
M  V30 7025 H 649.106 3.87265 -0.309491 0
M  V30 7026 H 650.778 3.58477 -2.9033 0
M  V30 7027 H 649.021 3.32696 -2.78381 0
M  V30 7028 H 649.692 4.93204 -2.47898 0
M  V30 7029 H 652.168 4.09396 -0.743908 0
M  V30 7030 H 651.044 5.46226 -0.541144 0
M  V30 7031 H 651.305 4.34937 0.792588 0
M  V30 7032 N 650.364 0.662433 1.43002 0
M  V30 7033 C 651.274 -0.0239199 2.34588 0
M  V30 7034 C 652.29 -0.802255 1.54402 0
M  V30 7035 O 653.466 -0.747401 1.87018 0
M  V30 7036 C 650.531 -0.972098 3.32793 0
M  V30 7037 C 649.592 -0.189673 4.28881 0
M  V30 7038 C 648.825 -1.09269 5.22395 0
M  V30 7039 O 649.048 -2.33209 5.20547 0
M  V30 7040 O 647.982 -0.560136 5.99288 0
M  V30 7041 H 651.808 0.730171 2.94792 0
M  V30 7042 H 649.393 0.422635 1.43297 0
M  V30 7043 H 651.275 -1.51676 3.93157 0
M  V30 7044 H 649.95 -1.70626 2.75079 0
M  V30 7045 H 648.857 0.398794 3.71968 0
M  V30 7046 H 650.19 0.50511 4.89601 0
M  V30 7047 N 651.842 -1.52309 0.404946 0
M  V30 7048 C 653.119 -1.94237 -0.230544 0
M  V30 7049 C 653.499 -1.34154 -1.6299 0
M  V30 7050 O 652.847 -0.515713 -2.22604 0
M  V30 7051 C 653.057 -3.48166 -0.241106 0
M  V30 7052 C 654.405 -4.22074 -0.462488 0
M  V30 7053 O 655.429 -3.54754 -0.320644 0
M  V30 7054 O 654.288 -5.41443 -0.741708 0
M  V30 7055 H 651.382 -0.813766 -0.147358 0
M  V30 7056 H 653.928 -1.6333 0.460587 0
M  V30 7057 H 652.7 -3.84269 0.738467 0
M  V30 7058 H 652.323 -3.85422 -0.97651 0
M  V30 7059 N 653.32 -0.135238 -1.57019 0
M  V30 7060 C 654.25 0.805235 -2.19176 0
M  V30 7061 C 655.231 1.2656 -1.13651 0
M  V30 7062 O 656.416 1.32528 -1.4195 0
M  V30 7063 C 653.546 2.04914 -2.80406 0
M  V30 7064 C 652.5 1.72598 -3.91655 0
M  V30 7065 C 651.826 3.04154 -4.39766 0
M  V30 7066 C 653.126 0.981709 -5.12991 0
M  V30 7067 H 654.82 0.287232 -2.98019 0
M  V30 7068 H 652.366 0.136714 -1.4335 0
M  V30 7069 H 654.319 2.71178 -3.22553 0
M  V30 7070 H 653.043 2.59067 -1.98877 0
M  V30 7071 H 651.702 1.08717 -3.50109 0
M  V30 7072 H 651.35 3.56274 -3.55075 0
M  V30 7073 H 651.05 2.83299 -5.14796 0
M  V30 7074 H 652.574 3.71509 -4.84576 0
M  V30 7075 H 653.988 1.5462 -5.52056 0
M  V30 7076 H 652.385 0.873533 -5.93708 0
M  V30 7077 H 653.455 -0.0286887 -4.84892 0
M  V30 7078 N 654.798 1.5699 0.138552 0
M  V30 7079 C 656.047 1.82998 0.848205 0
M  V30 7080 C 656.36 0.717829 1.81952 0
M  V30 7081 O 657.566 0.863756 2.57394 0
M  V30 7082 C 656.022 3.24379 1.55904 0
M  V30 7083 C 655.63 4.43552 0.62971 0
M  V30 7084 C 657.374 3.59654 2.25498 0
M  V30 7085 C 655.281 5.75957 1.34266 0
M  V30 7086 H 654.211 0.682495 0.320495 0
M  V30 7087 H 656.862 1.83222 0.100924 0
M  V30 7088 H 655.244 3.18567 2.35226 0
M  V30 7089 H 656.418 4.6062 -0.128882 0
M  V30 7090 H 654.733 4.16379 0.0417526 0
M  V30 7091 H 657.33 4.55837 2.79493 0
M  V30 7092 H 657.673 2.86124 3.02388 0
M  V30 7093 H 658.206 3.67164 1.53087 0
M  V30 7094 H 654.945 6.52604 0.615441 0
M  V30 7095 H 654.465 5.62811 2.07375 0
M  V30 7096 H 656.144 6.19046 1.88126 0
M  V30 7097 N 656.276 -0.40816 1.52223 0
M  V30 7098 C 657.239 -1.48 1.7501 0
M  V30 7099 C 658.239 -1.48367 0.619996 0
M  V30 7100 O 659.429 -1.49874 0.887881 0
M  V30 7101 C 656.561 -2.87403 1.83336 0
M  V30 7102 H 657.754 -1.29086 2.70697 0
M  V30 7103 H 655.307 -0.638715 1.42654 0
M  V30 7104 H 656.042 -3.11686 0.895677 0
M  V30 7105 H 655.827 -2.8854 2.65494 0
M  V30 7106 H 657.317 -3.65103 2.02705 0
M  V30 7107 N 657.755 -1.42862 -0.66545 0
M  V30 7108 C 658.687 -1.43026 -1.79098 0
M  V30 7109 C 659.7 -0.32803 -1.59461 0
M  V30 7110 O 660.889 -0.591709 -1.68407 0
M  V30 7111 C 657.989 -1.21566 -3.16346 0
M  V30 7112 C 657.162 -2.44399 -3.62751 0
M  V30 7113 C 656.221 -2.18344 -4.78761 0
M  V30 7114 O 655.247 -2.91611 -4.88827 0
M  V30 7115 N 656.449 -1.1924 -5.68122 0
M  V30 7116 H 659.214 -2.40045 -1.79439 0
M  V30 7117 H 656.775 -1.37861 -0.848872 0
M  V30 7118 H 658.767 -1.02037 -3.91625 0
M  V30 7119 H 657.337 -0.330368 -3.10849 0
M  V30 7120 H 656.557 -2.79433 -2.78048 0
M  V30 7121 H 657.845 -3.26173 -3.90498 0
M  V30 7122 H 657.243 -0.586603 -5.6265 0
M  V30 7123 H 655.8 -1.05698 -6.43173 0
M  V30 7124 N 659.233 0.902656 -1.29189 0
M  V30 7125 C 660.482 1.6475 -1.16362 0
M  V30 7126 C 660.795 1.93517 0.284682 0
M  V30 7127 O 662.001 2.66192 0.534229 0
M  V30 7128 C 660.457 2.96848 -2.03493 0
M  V30 7129 C 660.065 2.75687 -3.5313 0
M  V30 7130 C 661.809 3.74762 -1.99383 0
M  V30 7131 C 659.716 4.03492 -4.32375 0
M  V30 7132 H 658.646 0.618041 -0.431904 0
M  V30 7133 H 661.297 1.0008 -1.53806 0
M  V30 7134 H 659.679 3.62715 -1.58916 0
M  V30 7135 H 660.853 2.18431 -4.05739 0
M  V30 7136 H 659.168 2.11171 -3.58881 0
M  V30 7137 H 661.765 4.69515 -2.5585 0
M  V30 7138 H 662.108 4.04767 -0.973123 0
M  V30 7139 H 662.641 3.15732 -2.41988 0
M  V30 7140 H 659.38 3.78656 -5.3507 0
M  V30 7141 H 658.9 4.60318 -3.84535 0
M  V30 7142 H 660.579 4.71662 -4.42881 0
M  V30 7143 N 660.711 1.11618 1.11262 0
M  V30 7144 C 662.127 0.850468 1.35053 0
M  V30 7145 C 662.327 -0.523868 1.94571 0
M  V30 7146 O 661.383 -1.2743 2.17986 0
M  V30 7147 C 662.696 1.96005 2.28041 0
M  V30 7148 C 664.244 1.98993 2.416 0
M  V30 7149 C 664.719 3.0916 3.37911 0
M  V30 7150 N 666.21 3.08547 3.45475 0
M  V30 7151 C 666.945 3.9043 4.19943 0
M  V30 7152 N 666.441 4.8228 4.97371 0
M  V30 7153 N 668.234 3.786 4.15474 0
M  V30 7154 H 660.385 2.00184 0.709932 0
M  V30 7155 H 662.648 0.870635 0.375099 0
M  V30 7156 H 662.354 2.9499 1.91503 0
M  V30 7157 H 662.228 1.85782 3.28275 0
M  V30 7158 H 664.615 1.00633 2.77411 0
M  V30 7159 H 664.696 2.13292 1.4121 0
M  V30 7160 H 664.34 4.07748 3.02827 0
M  V30 7161 H 664.27 2.92102 4.3816 0
M  V30 7162 H 666.761 2.42 2.90249 0
M  V30 7163 H 667.074 5.41289 5.51567 0
M  V30 7164 H 665.419 4.863 4.96525 0
M  V30 7165 H 668.61 3.06185 3.54074 0
M  V30 7166 H 668.783 4.42647 4.73253 0
M  V30 7167 N 662.189 -1.289 0.906776 0
M  V30 7168 C 663.099 -2.31256 0.394707 0
M  V30 7169 C 664.115 -1.66231 -0.514121 0
M  V30 7170 O 665.291 -1.97347 -0.401994 0
M  V30 7171 C 662.356 -3.44792 -0.363191 0
M  V30 7172 C 661.417 -4.25391 0.578012 0
M  V30 7173 C 660.65 -5.33506 -0.143811 0
M  V30 7174 O 660.873 -5.53786 -1.36665 0
M  V30 7175 O 659.807 -5.99673 0.5173 0
M  V30 7176 H 663.633 -2.77051 1.24405 0
M  V30 7177 H 661.218 -1.33466 0.671346 0
M  V30 7178 H 663.1 -4.139 -0.791503 0
M  V30 7179 H 661.775 -3.01093 -1.18848 0
M  V30 7180 H 660.682 -3.58899 1.05558 0
M  V30 7181 H 662.015 -4.72752 1.36992 0
M  V30 7182 N 663.667 -0.670007 -1.42649 0
M  V30 7183 C 664.913 -0.190568 -2.01903 0
M  V30 7184 C 665.246 1.19817 -1.52832 0
M  V30 7185 O 664.521 1.80342 -0.728485 0
M  V30 7186 C 664.804 -0.21991 -3.59428 0
M  V30 7187 C 664.657 -1.64376 -4.18689 0
M  V30 7188 C 665.976 0.434519 -4.3795 0
M  V30 7189 H 663.095 -0.0707219 -0.733599 0
M  V30 7190 H 665.737 -0.853883 -1.69732 0
M  V30 7191 H 663.887 0.344894 -3.86966 0
M  V30 7192 H 665.559 -2.26044 -4.02122 0
M  V30 7193 H 663.802 -2.18591 -3.747 0
M  V30 7194 H 664.473 -1.61601 -5.27815 0
M  V30 7195 H 666.949 -0.0462156 -4.16074 0
M  V30 7196 H 665.825 0.38333 -5.4756 0
M  V30 7197 H 666.086 1.51135 -4.15464 0
M  V30 7198 N 665.145 1.52092 -0.413018 0
M  V30 7199 C 666.392 2.01855 0.161497 0
M  V30 7200 C 666.72 1.29845 1.44812 0
M  V30 7201 O 665.975 0.394471 1.91683 0
M  V30 7202 C 666.274 3.54529 0.4521 0
M  V30 7203 C 665.94 4.4469 -0.745788 0
M  V30 7204 C 664.602 4.69053 -1.07435 0
M  V30 7205 C 666.954 4.97742 -1.54604 0
M  V30 7206 C 664.282 5.43717 -2.20429 0
M  V30 7207 C 666.634 5.73642 -2.66678 0
M  V30 7208 C 665.298 5.96277 -3.00016 0
M  V30 7209 H 664.568 0.73864 0.0590961 0
M  V30 7210 H 667.215 1.83274 -0.555234 0
M  V30 7211 H 665.52 3.7131 1.25045 0
M  V30 7212 H 667.217 3.90546 0.909647 0
M  V30 7213 H 663.807 4.25907 -0.479725 0
M  V30 7214 H 667.991 4.78824 -1.30543 0
M  V30 7215 H 663.247 5.59462 -2.46602 0
M  V30 7216 H 667.421 6.13746 -3.29072 0
M  V30 7217 H 665.048 6.53913 -3.87688 0
M  V30 7218 N 666.623 0.143563 1.56945 0
M  V30 7219 C 667.872 -0.50835 1.95189 0
M  V30 7220 C 668.185 -1.66239 1.03073 0
M  V30 7221 O 669.391 -2.3787 1.30882 0
M  V30 7222 C 667.847 -0.955735 3.46978 0
M  V30 7223 C 667.455 0.171183 4.47673 0
M  V30 7224 C 669.199 -1.57763 3.94095 0
M  V30 7225 C 667.106 -0.294279 5.90667 0
M  V30 7226 H 666.036 -0.193679 0.728701 0
M  V30 7227 H 668.687 0.227357 1.82086 0
M  V30 7228 H 667.069 -1.7466 3.55401 0
M  V30 7229 H 668.243 0.948049 4.50942 0
M  V30 7230 H 666.558 0.701273 4.10452 0
M  V30 7231 H 669.155 -1.93745 4.98364 0
M  V30 7232 H 669.498 -2.46531 3.35452 0
M  V30 7233 H 670.031 -0.851728 3.88575 0
M  V30 7234 H 666.77 0.557939 6.53121 0
M  V30 7235 H 666.29 -1.0371 5.90766 0
M  V30 7236 H 667.969 -0.747426 6.42668 0
M  V30 7237 N 668.101 -1.57061 -0.130224 0
M  V30 7238 C 669.033 -1.96147 -1.18571 0
M  V30 7239 C 670.046 -0.859347 -1.38272 0
M  V30 7240 O 671.235 -1.13769 -1.37545 0
M  V30 7241 C 668.335 -2.23484 -2.54771 0
M  V30 7242 C 667.508 -3.54786 -2.55824 0
M  V30 7243 C 666.567 -3.70467 -3.73686 0
M  V30 7244 O 665.593 -4.42693 -3.57787 0
M  V30 7245 N 666.795 -3.08389 -4.91809 0
M  V30 7246 H 669.56 -2.87295 -0.853333 0
M  V30 7247 H 667.121 -1.58714 -0.319621 0
M  V30 7248 H 669.113 -2.312 -3.32158 0
M  V30 7249 H 667.683 -1.38518 -2.80235 0
M  V30 7250 H 666.903 -3.5836 -1.64232 0
M  V30 7251 H 668.191 -4.4111 -2.53573 0
M  V30 7252 H 667.589 -2.49656 -5.0763 0
M  V30 7253 H 666.146 -3.21642 -5.66912 0
M  V30 7254 N 669.579 0.400081 -1.52437 0
M  V30 7255 C 670.807 1.16768 -1.70801 0
M  V30 7256 C 671.222 1.84036 -0.421462 0
M  V30 7257 O 670.579 1.72242 0.603228 0
M  V30 7258 C 670.63 2.22403 -2.8499 0
M  V30 7259 O 670.351 1.57879 -4.08663 0
M  V30 7260 C 671.852 3.11974 -3.1494 0
M  V30 7261 H 669.072 0.350533 -0.57216 0
M  V30 7262 H 671.616 0.469534 -1.99037 0
M  V30 7263 H 669.771 2.87871 -2.59247 0
M  V30 7264 H 670.185 2.27982 -4.7236 0
M  V30 7265 H 671.659 3.82148 -3.9833 0
M  V30 7266 H 672.136 3.74858 -2.28863 0
M  V30 7267 H 672.742 2.52165 -3.42481 0
M  V30 7268 N 671.057 1.43213 0.657864 0
M  V30 7269 C 671.987 1.50815 1.78262 0
M  V30 7270 C 672.968 0.363211 1.66177 0
M  V30 7271 O 674.153 0.579806 1.85343 0
M  V30 7272 C 671.283 1.42625 3.16663 0
M  V30 7273 C 670.237 2.5532 3.43505 0
M  V30 7274 C 669.563 2.32184 4.81658 0
M  V30 7275 C 670.863 3.97583 3.38711 0
M  V30 7276 H 672.557 2.44954 1.72157 0
M  V30 7277 H 670.103 1.17896 0.82683 0
M  V30 7278 H 672.056 1.46548 3.95097 0
M  V30 7279 H 670.78 0.449877 3.23487 0
M  V30 7280 H 669.439 2.50742 2.6744 0
M  V30 7281 H 669.087 1.32801 4.85153 0
M  V30 7282 H 668.787 3.07724 5.00579 0
M  V30 7283 H 670.311 2.37883 5.62356 0
M  V30 7284 H 671.725 4.03673 4.07089 0
M  V30 7285 H 670.122 4.73112 3.69168 0
M  V30 7286 H 671.192 4.23049 2.36976 0
M  V30 7287 N 672.536 -0.895792 1.29666 0
M  V30 7288 C 673.813 -1.62723 1.08538 0
M  V30 7289 C 674.193 -2.07848 -0.369119 0
M  V30 7290 O 673.541 -1.8372 -1.35864 0
M  V30 7291 C 673.751 -2.80505 2.07648 0
M  V30 7292 C 675.099 -3.51098 2.3878 0
M  V30 7293 O 676.123 -2.90679 2.05874 0
M  V30 7294 O 674.982 -4.60028 2.9502 0
M  V30 7295 H 672.076 -0.714692 0.416106 0
M  V30 7296 H 674.622 -0.943517 1.41053 0
M  V30 7297 H 673.394 -2.44386 3.05599 0
M  V30 7298 H 673.017 -3.5658 1.75887 0
M  V30 7299 N 674.014 -1.12206 -1.10668 0
M  V30 7300 C 675.291 -0.787382 -1.79052 0
M  V30 7301 C 675.671 0.723267 -1.98323 0
M  V30 7302 O 675.019 1.6561 -1.57434 0
M  V30 7303 C 675.229 -1.55968 -3.1221 0
M  V30 7304 C 676.577 -1.74413 -3.87125 0
M  V30 7305 O 677.601 -1.5246 -3.21923 0
M  V30 7306 O 676.46 -2.10952 -5.04144 0
M  V30 7307 H 673.554 -0.286137 -0.775922 0
M  V30 7308 H 676.1 -1.22595 -1.1734 0
M  V30 7309 H 674.872 -2.58692 -2.93588 0
M  V30 7310 H 674.495 -1.1152 -3.8164 0
M  V30 7311 N 675.492 1.28418 -0.913599 0
M  V30 7312 C 676.422 2.29713 -0.418847 0
M  V30 7313 C 677.403 1.62165 0.513469 0
M  V30 7314 O 678.588 1.89576 0.421235 0
M  V30 7315 C 675.718 3.45612 0.342042 0
M  V30 7316 C 674.672 4.25056 -0.501123 0
M  V30 7317 C 673.998 5.3329 0.388097 0
M  V30 7318 C 675.298 4.91814 -1.75831 0
M  V30 7319 H 676.992 2.71346 -1.26538 0
M  V30 7320 H 674.538 1.30446 -0.609903 0
M  V30 7321 H 676.491 4.15562 0.699 0
M  V30 7322 H 675.215 3.02858 1.22248 0
M  V30 7323 H 673.874 3.56833 -0.840598 0
M  V30 7324 H 673.522 4.8678 1.26707 0
M  V30 7325 H 673.222 5.87347 -0.172459 0
M  V30 7326 H 674.746 6.06088 0.74094 0
M  V30 7327 H 676.16 5.54126 -1.47026 0
M  V30 7328 H 674.557 5.55866 -2.26126 0
M  V30 7329 H 675.627 4.16313 -2.4862 0
M  V30 7330 N 676.97 0.677563 1.42291 0
M  V30 7331 C 678.198 0.209459 2.05837 0
M  V30 7332 C 678.613 -1.13444 1.50917 0
M  V30 7333 O 677.97 -1.70529 0.65008 0
M  V30 7334 C 678.021 0.138819 3.61233 0
M  V30 7335 O 677.742 1.42962 4.14118 0
M  V30 7336 C 679.243 -0.352449 4.41897 0
M  V30 7337 H 676.463 0.101209 0.663323 0
M  V30 7338 H 679.007 0.925077 1.8238 0
M  V30 7339 H 677.162 -0.527505 3.83792 0
M  V30 7340 H 677.576 1.3048 5.08011 0
M  V30 7341 H 679.05 -0.350778 5.50884 0
M  V30 7342 H 679.527 -1.3882 4.16684 0
M  V30 7343 H 680.133 0.282236 4.24362 0
M  V30 7344 N 678.448 -1.51871 0.421078 0
M  V30 7345 C 679.694 -2.02894 -0.143346 0
M  V30 7346 C 680.049 -1.30054 -1.41787 0
M  V30 7347 O 679.342 -0.401776 -1.8734 0
M  V30 7348 C 679.536 -3.54764 -0.433292 0
M  V30 7349 C 679.365 -4.42316 0.811584 0
M  V30 7350 C 678.135 -4.872 1.34033 0
M  V30 7351 C 680.333 -4.85631 1.69313 0
M  V30 7352 N 678.315 -5.58915 2.53944 0
M  V30 7353 C 679.686 -5.56248 2.7384 0
M  V30 7354 C 681.741 -4.67634 1.70947 0
M  V30 7355 C 680.444 -6.10777 3.79927 0
M  V30 7356 C 682.47 -5.23068 2.7596 0
M  V30 7357 C 681.832 -5.93617 3.79207 0
M  V30 7358 H 677.931 -0.78188 -0.0137104 0
M  V30 7359 H 680.515 -1.85919 0.578105 0
M  V30 7360 H 678.686 -3.71787 -1.12378 0
M  V30 7361 H 680.418 -3.92464 -0.987644 0
M  V30 7362 H 677.173 -4.65035 0.896606 0
M  V30 7363 H 677.597 -5.99408 3.14704 0
M  V30 7364 H 682.239 -4.12566 0.9246 0
M  V30 7365 H 679.957 -6.64909 4.59262 0
M  V30 7366 H 683.543 -5.11005 2.78147 0
M  V30 7367 H 682.423 -6.35743 4.5913 0
M  V30 7368 N 679.926 -0.151884 -1.56866 0
M  V30 7369 C 680.859 0.824094 -2.128 0
M  V30 7370 C 681.837 1.2391 -1.05286 0
M  V30 7371 O 683.021 1.33433 -1.33146 0
M  V30 7372 C 680.148 2.1072 -2.65169 0
M  V30 7373 C 679.194 1.83774 -3.84876 0
M  V30 7374 S 680.027 1.02436 -5.25611 0
M  V30 7375 C 681.183 2.31855 -5.81373 0
M  V30 7376 H 681.416 0.348456 -2.95251 0
M  V30 7377 H 678.949 0.0624794 -1.54274 0
M  V30 7378 H 680.907 2.84428 -2.95992 0
M  V30 7379 H 679.568 2.55398 -1.8284 0
M  V30 7380 H 678.761 2.78929 -4.19779 0
M  V30 7381 H 678.363 1.18172 -3.5484 0
M  V30 7382 H 680.655 3.27469 -5.93102 0
M  V30 7383 H 681.598 2.01449 -6.7884 0
M  V30 7384 H 682.006 2.42727 -5.09651 0
M  V30 7385 N 681.404 1.57128 0.121893 0
M  V30 7386 C 682.681 1.75664 0.860327 0
M  V30 7387 C 683.061 0.726585 1.98202 0
M  V30 7388 O 682.409 -0.24999 2.27128 0
M  V30 7389 C 682.619 3.20571 1.37968 0
M  V30 7390 C 683.967 3.82988 1.83317 0
M  V30 7391 O 684.991 3.24156 1.47654 0
M  V30 7392 O 683.85 4.86393 2.49168 0
M  V30 7393 H 680.944 0.719153 0.408348 0
M  V30 7394 H 683.49 1.6937 0.105859 0
M  V30 7395 H 682.262 3.87056 0.57477 0
M  V30 7396 H 681.885 3.31392 2.19694 0
M  V30 7397 N 682.882 -0.391992 1.52647 0
M  V30 7398 C 683.845 -1.46135 1.7657 0
M  V30 7399 C 684.845 -1.47701 0.635698 0
M  V30 7400 O 686.035 -1.48924 0.903728 0
M  V30 7401 C 683.167 -2.85443 1.86374 0
M  V30 7402 H 684.36 -1.26208 2.72051 0
M  V30 7403 H 681.913 -0.623549 1.43323 0
M  V30 7404 H 682.648 -3.10718 0.928685 0
M  V30 7405 H 682.433 -2.85708 2.68539 0
M  V30 7406 H 683.923 -3.62933 2.06566 0
M  V30 7407 N 684.36 -1.4356 -0.65026 0
M  V30 7408 C 685.27 -1.514 -1.79207 0
M  V30 7409 C 686.286 -0.400895 -1.69319 0
M  V30 7410 O 687.462 -0.655458 -1.90436 0
M  V30 7411 C 684.527 -1.43737 -3.155 0
M  V30 7412 C 683.588 -2.65743 -3.37163 0
M  V30 7413 C 682.821 -2.58436 -4.66954 0
M  V30 7414 O 683.044 -1.63374 -5.46503 0
M  V30 7415 O 681.978 -3.48984 -4.90402 0
M  V30 7416 H 685.804 -2.47825 -1.75547 0
M  V30 7417 H 683.389 -1.25594 -0.809111 0
M  V30 7418 H 685.271 -1.41916 -3.96784 0
M  V30 7419 H 683.946 -0.504488 -3.19745 0
M  V30 7420 H 682.853 -2.73136 -2.55632 0
M  V30 7421 H 684.186 -3.58014 -3.37768 0
M  V30 7422 N 685.838 0.888903 -1.30139 0
M  V30 7423 C 687.066 1.67358 -1.21651 0
M  V30 7424 C 687.481 1.87499 0.221246 0
M  V30 7425 O 686.838 1.41969 1.14677 0
M  V30 7426 C 686.889 3.05213 -1.93719 0
M  V30 7427 O 686.61 2.85984 -3.31881 0
M  V30 7428 C 688.111 3.9964 -1.9184 0
M  V30 7429 H 685.331 0.522365 -0.42116 0
M  V30 7430 H 687.875 1.11086 -1.71698 0
M  V30 7431 H 686.03 3.5823 -1.4748 0
M  V30 7432 H 686.444 3.73411 -3.68327 0
M  V30 7433 H 687.918 4.93749 -2.46811 0
M  V30 7434 H 688.395 4.29955 -0.896409 0
M  V30 7435 H 689.001 3.52558 -2.37872 0
M  V30 7436 N 687.317 1.12792 1.10072 0
M  V30 7437 C 688.264 0.79921 2.16521 0
M  V30 7438 C 689.234 -0.235726 1.64419 0
M  V30 7439 O 690.419 -0.109457 1.90486 0
M  V30 7440 C 687.559 0.264091 3.44088 0
M  V30 7441 C 686.672 1.35729 4.10124 0
M  V30 7442 C 685.807 0.781212 5.25424 0
M  V30 7443 C 684.846 1.85327 5.8337 0
M  V30 7444 N 683.983 1.29564 6.90042 0
M  V30 7445 H 688.823 1.71105 2.43981 0
M  V30 7446 H 686.36 0.854225 1.19756 0
M  V30 7447 H 688.318 -0.0642423 4.17151 0
M  V30 7448 H 686.948 -0.610901 3.16967 0
M  V30 7449 H 686 1.80234 3.34993 0
M  V30 7450 H 687.312 2.16782 4.4923 0
M  V30 7451 H 686.466 0.403769 6.05355 0
M  V30 7452 H 685.205 -0.0604686 4.87663 0
M  V30 7453 H 684.21 2.23986 5.02106 0
M  V30 7454 H 685.435 2.69824 6.23195 0
M  V30 7455 H 683.381 0.475844 6.54272 0
M  V30 7456 H 683.298 2.04271 7.2788 0
M  V30 7457 H 684.566 0.945545 7.73744 0
M  V30 7458 N 688.795 -1.27931 0.920396 0
M  V30 7459 C 689.742 -2.27085 0.412422 0
M  V30 7460 C 690.712 -1.57858 -0.516725 0
M  V30 7461 O 691.897 -1.85717 -0.437475 0
M  V30 7462 C 689.037 -3.43466 -0.335399 0
M  V30 7463 C 688.15 -4.27425 0.627017 0
M  V30 7464 C 687.285 -5.31016 -0.139916 0
M  V30 7465 C 686.324 -6.06641 0.815683 0
M  V30 7466 N 685.461 -7.02052 0.0818439 0
M  V30 7467 H 690.301 -2.69913 1.26298 0
M  V30 7468 H 687.838 -1.32732 0.634076 0
M  V30 7469 H 689.796 -4.09744 -0.785226 0
M  V30 7470 H 688.426 -3.01611 -1.15025 0
M  V30 7471 H 687.478 -3.6113 1.19537 0
M  V30 7472 H 688.79 -4.79969 1.35763 0
M  V30 7473 H 687.944 -6.03208 -0.649998 0
M  V30 7474 H 686.683 -4.79257 -0.903543 0
M  V30 7475 H 685.688 -5.33294 1.33708 0
M  V30 7476 H 686.913 -6.60489 1.57897 0
M  V30 7477 H 684.859 -6.52634 -0.663671 0
M  V30 7478 H 684.776 -7.52249 0.752163 0
M  V30 7479 H 686.044 -7.78432 -0.407825 0
M  V30 7480 N 690.273 -0.685099 -1.4193 0
M  V30 7481 C 691.689 -0.355632 -1.55587 0
M  V30 7482 C 691.889 1.13823 -1.66273 0
M  V30 7483 O 690.945 1.92387 -1.63534 0
M  V30 7484 C 692.258 -1.09498 -2.80055 0
M  V30 7485 C 693.806 -1.07831 -2.93839 0
M  V30 7486 C 694.281 -1.79919 -4.21181 0
M  V30 7487 N 695.772 -1.76837 -4.28115 0
M  V30 7488 C 696.507 -2.29463 -5.25485 0
M  V30 7489 N 696.003 -2.90516 -6.28945 0
M  V30 7490 N 697.796 -2.19779 -5.17353 0
M  V30 7491 H 689.947 -1.65412 -1.33239 0
M  V30 7492 H 692.21 -0.697453 -0.642078 0
M  V30 7493 H 691.916 -2.14997 -2.78333 0
M  V30 7494 H 691.79 -0.666813 -3.71259 0
M  V30 7495 H 694.177 -0.0316152 -2.95083 0
M  V30 7496 H 694.258 -1.54545 -2.03837 0
M  V30 7497 H 693.902 -2.84562 -4.20698 0
M  V30 7498 H 693.832 -1.30647 -5.10136 0
M  V30 7499 H 696.323 -1.32315 -3.53979 0
M  V30 7500 H 696.636 -3.28266 -6.99615 0
M  V30 7501 H 694.981 -2.94589 -6.29478 0
M  V30 7502 H 698.172 -1.71763 -4.35448 0
M  V30 7503 H 698.345 -2.61097 -5.9307 0
M  V30 7504 N 691.751 1.51645 -0.429126 0
M  V30 7505 C 692.714 2.26116 0.374726 0
M  V30 7506 C 693.714 1.29242 0.956714 0
M  V30 7507 O 694.904 1.53022 0.832452 0
M  V30 7508 C 692.036 3.04669 1.52937 0
M  V30 7509 H 693.229 2.9861 -0.277818 0
M  V30 7510 H 690.782 1.55236 -0.182097 0
M  V30 7511 H 691.517 2.36571 2.21821 0
M  V30 7512 H 691.302 3.75814 1.11833 0
M  V30 7513 H 692.792 3.61102 2.09751 0
M  V30 7514 N 693.229 0.160201 1.56784 0
M  V30 7515 C 694.139 -0.787167 2.21 0
M  V30 7516 C 695.155 -1.26167 1.19825 0
M  V30 7517 O 696.331 -1.31611 1.52448 0
M  V30 7518 C 693.396 -2.00364 2.8294 0
M  V30 7519 C 692.457 -1.5771 3.99282 0
M  V30 7520 C 691.69 -2.73558 4.58259 0
M  V30 7521 O 691.913 -3.90129 4.16119 0
M  V30 7522 O 690.847 -2.48271 5.48311 0
M  V30 7523 H 694.673 -0.270462 3.02493 0
M  V30 7524 H 692.258 -0.0674666 1.49248 0
M  V30 7525 H 694.14 -2.71529 3.22257 0
M  V30 7526 H 692.815 -2.50961 2.04451 0
M  V30 7527 H 691.722 -0.835274 3.64656 0
M  V30 7528 H 693.055 -1.11815 4.79331 0
M  V30 7529 N 694.707 -1.5719 -0.113559 0
M  V30 7530 C 695.617 -2.04041 -1.15777 0
M  V30 7531 C 696.633 -0.961812 -1.45001 0
M  V30 7532 O 697.809 -1.2737 -1.56009 0
M  V30 7533 C 694.874 -2.43994 -2.46308 0
M  V30 7534 C 693.935 -3.65962 -2.24433 0
M  V30 7535 C 693.168 -4.04 -3.4874 0
M  V30 7536 O 693.391 -3.42321 -4.56259 0
M  V30 7537 O 692.325 -4.97069 -3.3942 0
M  V30 7538 H 696.151 -2.93248 -0.789899 0
M  V30 7539 H 693.736 -1.45828 -0.324748 0
M  V30 7540 H 695.618 -2.70401 -3.23204 0
M  V30 7541 H 694.293 -1.57932 -2.82558 0
M  V30 7542 H 693.2 -3.44697 -1.45377 0
M  V30 7543 H 694.533 -4.52746 -1.93084 0
M  V30 7544 N 696.185 0.383891 -1.52853 0
M  V30 7545 C 697.132 1.46924 -1.77995 0
M  V30 7546 C 698.102 1.53958 -0.623396 0
M  V30 7547 O 699.287 1.70134 -0.863657 0
M  V30 7548 C 696.427 2.84093 -1.95921 0
M  V30 7549 C 695.54 2.86171 -3.23621 0
M  V30 7550 C 694.675 4.14799 -3.31836 0
M  V30 7551 C 693.714 4.10948 -4.53639 0
M  V30 7552 N 692.851 5.31192 -4.59107 0
M  V30 7553 H 697.691 1.24786 -2.70615 0
M  V30 7554 H 695.228 0.605265 -1.34071 0
M  V30 7555 H 697.186 3.63755 -2.04299 0
M  V30 7556 H 695.816 3.04671 -1.06656 0
M  V30 7557 H 694.868 1.9885 -3.24288 0
M  V30 7558 H 696.18 2.79194 -4.13343 0
M  V30 7559 H 695.334 5.02867 -3.39425 0
M  V30 7560 H 694.073 4.24505 -2.40097 0
M  V30 7561 H 693.078 3.21268 -4.46169 0
M  V30 7562 H 694.303 4.0286 -5.467 0
M  V30 7563 H 692.249 5.41518 -3.70262 0
M  V30 7564 H 692.166 5.26311 -5.42708 0
M  V30 7565 H 693.434 6.21143 -4.70958 0
M  V30 7566 N 697.663 1.43903 0.642637 0
M  V30 7567 C 698.626 1.49538 1.73698 0
M  V30 7568 C 699.626 0.378776 1.56275 0
M  V30 7569 O 700.816 0.64095 1.6198 0
M  V30 7570 C 697.948 1.35821 3.12675 0
M  V30 7571 H 699.141 2.47008 1.70079 0
M  V30 7572 H 696.694 1.30824 0.85526 0
M  V30 7573 H 697.429 0.393994 3.21898 0
M  V30 7574 H 697.214 2.16776 3.26727 0
M  V30 7575 H 698.704 1.4272 3.92455 0
M  V30 7576 N 699.141 -0.881989 1.30609 0
M  V30 7577 C 700.071 -2.00413 1.1982 0
M  V30 7578 C 701.052 -1.69871 0.0881538 0
M  V30 7579 O 702.237 -1.92304 0.2707 0
M  V30 7580 C 699.367 -3.35641 0.89233 0
M  V30 7581 C 698.321 -3.80451 1.96064 0
M  V30 7582 C 697.647 -5.13003 1.5077 0
M  V30 7583 C 698.947 -3.98855 3.37213 0
M  V30 7584 H 700.641 -2.09698 2.13699 0
M  V30 7585 H 698.187 -1.00754 1.02882 0
M  V30 7586 H 700.14 -4.13669 0.803497 0
M  V30 7587 H 698.864 -3.26497 -0.0821381 0
M  V30 7588 H 697.523 -3.04654 2.03916 0
M  V30 7589 H 697.171 -5.0029 0.521417 0
M  V30 7590 H 696.871 -5.43956 2.22229 0
M  V30 7591 H 698.395 -5.93554 1.43271 0
M  V30 7592 H 699.809 -4.67312 3.32103 0
M  V30 7593 H 698.206 -4.41188 4.06784 0
M  V30 7594 H 699.276 -3.02614 3.78883 0
M  V30 7595 N 700.619 -1.13374 -1.09472 0
M  V30 7596 C 701.582 -0.813639 -2.14272 0
M  V30 7597 C 702.582 0.176677 -1.59826 0
M  V30 7598 O 703.772 -0.0503441 -1.74127 0
M  V30 7599 C 700.904 -0.210897 -3.40247 0
M  V30 7600 H 702.097 -1.74229 -2.44099 0
M  V30 7601 H 699.65 -0.938304 -1.25002 0
M  V30 7602 H 700.385 0.726998 -3.16046 0
M  V30 7603 H 700.17 -0.924048 -3.81056 0
M  V30 7604 H 701.66 -0.00377603 -4.176 0
M  V30 7605 N 702.098 1.27442 -0.927168 0
M  V30 7606 C 703.347 1.93679 -0.563146 0
M  V30 7607 C 703.66 1.73673 0.899837 0
M  V30 7608 O 704.866 2.34247 1.37262 0
M  V30 7609 C 703.322 3.46961 -0.95636 0
M  V30 7610 C 702.93 3.75724 -2.43999 0
M  V30 7611 C 704.674 4.19282 -0.663565 0
M  V30 7612 C 702.581 5.22378 -2.77263 0
M  V30 7613 H 701.511 0.725059 -0.206894 0
M  V30 7614 H 704.162 1.44743 -1.12791 0
M  V30 7615 H 702.544 3.94703 -0.320254 0
M  V30 7616 H 703.718 3.38741 -3.12396 0
M  V30 7617 H 702.033 3.16605 -2.70463 0
M  V30 7618 H 704.63 5.27265 -0.888596 0
M  V30 7619 H 704.973 4.14382 0.399198 0
M  V30 7620 H 705.506 3.7736 -1.25875 0
M  V30 7621 H 702.245 5.32367 -3.82446 0
M  V30 7622 H 701.765 5.6051 -2.13516 0
M  V30 7623 H 703.444 5.9025 -2.64979 0
M  V30 7624 N 703.576 0.692616 1.41565 0
M  V30 7625 C 704.523 0.0254264 2.30786 0
M  V30 7626 C 705.493 -0.774347 1.46946 0
M  V30 7627 O 706.678 -0.742981 1.7574 0
M  V30 7628 C 703.818 -0.907123 3.32964 0
M  V30 7629 C 702.931 -0.0992784 4.31886 0
M  V30 7630 C 702.066 -1.0292 5.21134 0
M  V30 7631 C 701.105 -0.214088 6.11725 0
M  V30 7632 N 700.242 -1.09766 6.93467 0
M  V30 7633 H 705.082 0.792036 2.87282 0
M  V30 7634 H 702.619 0.4023 1.41492 0
M  V30 7635 H 704.577 -1.46181 3.90752 0
M  V30 7636 H 703.207 -1.64016 2.78026 0
M  V30 7637 H 702.259 0.572287 3.76071 0
M  V30 7638 H 703.571 0.532782 4.95946 0
M  V30 7639 H 702.725 -1.65321 5.83741 0
M  V30 7640 H 701.464 -1.69512 4.57293 0
M  V30 7641 H 700.469 0.42302 5.4817 0
M  V30 7642 H 701.694 0.447995 6.77621 0
M  V30 7643 H 699.64 -1.74965 6.32237 0
M  V30 7644 H 699.557 -0.521099 7.54202 0
M  V30 7645 H 700.825 -1.70858 7.60544 0
M  V30 7646 N 705.054 -1.51416 0.437162 0
M  V30 7647 C 705.964 -2.31493 -0.380537 0
M  V30 7648 C 706.98 -1.40399 -1.02782 0
M  V30 7649 O 708.156 -1.73471 -1.02323 0
M  V30 7650 C 705.221 -3.1413 -1.46709 0
M  V30 7651 C 704.282 -4.21003 -0.839953 0
M  V30 7652 C 703.515 -4.9969 -1.87473 0
M  V30 7653 O 703.738 -4.79008 -3.09689 0
M  V30 7654 O 702.672 -5.8379 -1.46536 0
M  V30 7655 H 706.498 -3.02469 0.273183 0
M  V30 7656 H 704.083 -1.48059 0.199706 0
M  V30 7657 H 705.965 -3.65505 -2.09724 0
M  V30 7658 H 704.64 -2.45919 -2.10489 0
M  V30 7659 H 703.547 -3.73706 -0.171752 0
M  V30 7660 H 704.88 -4.91587 -0.245638 0
M  V30 7661 N 706.532 -0.168513 -1.56696 0
M  V30 7662 C 707.948 0.187686 -1.58493 0
M  V30 7663 C 708.148 1.63063 -1.18375 0
M  V30 7664 O 707.204 2.36142 -0.894042 0
M  V30 7665 C 708.517 -0.0905858 -3.00564 0
M  V30 7666 C 710.065 -0.028575 -3.12987 0
M  V30 7667 C 710.54 -0.279799 -4.57145 0
M  V30 7668 N 712.031 -0.227476 -4.62641 0
M  V30 7669 C 712.766 -0.396073 -5.7203 0
M  V30 7670 N 712.262 -0.623572 -6.89988 0
M  V30 7671 N 714.055 -0.332173 -5.61118 0
M  V30 7672 H 706.206 -1.11042 -1.81062 0
M  V30 7673 H 708.469 -0.441235 -0.839056 0
M  V30 7674 H 708.175 -1.09006 -3.34381 0
M  V30 7675 H 708.049 0.619078 -3.72085 0
M  V30 7676 H 710.436 0.961471 -2.78998 0
M  V30 7677 H 710.517 -0.770905 -2.43907 0
M  V30 7678 H 710.161 -1.26704 -4.91842 0
M  V30 7679 H 710.091 0.48311 -5.24379 0
M  V30 7680 H 712.582 -0.0571723 -3.77857 0
M  V30 7681 H 712.895 -0.741745 -7.69232 0
M  V30 7682 H 711.24 -0.660153 -6.91858 0
M  V30 7683 H 714.431 -0.155051 -4.67843 0
M  V30 7684 H 714.604 -0.466994 -6.46315 0
M  V30 7685 N 708.01 1.57248 0.105221 0
M  V30 7686 C 709.259 1.84756 0.809198 0
M  V30 7687 C 709.572 0.756262 1.80389 0
M  V30 7688 O 710.778 0.918158 2.55504 0
M  V30 7689 C 709.234 3.27613 1.48989 0
M  V30 7690 C 708.842 4.44788 0.535484 0
M  V30 7691 C 710.586 3.64356 2.17819 0
M  V30 7692 C 708.493 5.78676 1.22019 0
M  V30 7693 H 707.423 0.689139 0.305946 0
M  V30 7694 H 710.074 1.83395 0.0620371 0
M  V30 7695 H 708.456 3.23485 2.28415 0
M  V30 7696 H 709.63 4.60243 -0.226557 0
M  V30 7697 H 707.945 4.16374 -0.0465769 0
M  V30 7698 H 710.542 4.61663 2.69761 0
M  V30 7699 H 710.885 2.92474 2.96251 0
M  V30 7700 H 711.418 3.70328 1.45264 0
M  V30 7701 H 708.157 6.53763 0.476875 0
M  V30 7702 H 707.677 5.67083 1.9539 0
M  V30 7703 H 709.356 6.22897 1.74952 0
M  V30 7704 N 709.488 -0.375779 1.53054 0
M  V30 7705 C 710.736 -1.11727 1.68409 0
M  V30 7706 C 711.057 -1.90127 0.43323 0
M  V30 7707 O 710.327 -1.87945 -0.552595 0
M  V30 7708 H 708.907 -0.415451 0.620813 0
M  V30 7709 H 711.569 -0.424869 1.90213 0
M  V30 7710 H 710.665 -1.8128 2.54055 0
M  V30 7711 N 710.966 -1.44241 -0.634997 0
M  V30 7712 C 712.196 -1.50078 -1.41987 0
M  V30 7713 C 712.604 -0.123072 -1.88799 0
M  V30 7714 O 711.947 0.880552 -1.6122 0
M  V30 7715 C 712.009 -2.40033 -2.67628 0
M  V30 7716 C 711.673 -3.87268 -2.42637 0
M  V30 7717 C 712.67 -4.77902 -2.04708 0
M  V30 7718 C 710.355 -4.31933 -2.56396 0
M  V30 7719 C 712.349 -6.11202 -1.80862 0
M  V30 7720 C 710.036 -5.65281 -2.32164 0
M  V30 7721 C 711.034 -6.54734 -1.94455 0
M  V30 7722 O 710.722 -7.85613 -1.7049 0
M  V30 7723 H 710.454 -0.51146 -0.442023 0
M  V30 7724 H 713.008 -1.89843 -0.784138 0
M  V30 7725 H 711.238 -1.95188 -3.33824 0
M  V30 7726 H 712.927 -2.36863 -3.29622 0
M  V30 7727 H 713.693 -4.44668 -1.93638 0
M  V30 7728 H 709.572 -3.62569 -2.84719 0
M  V30 7729 H 713.116 -6.80983 -1.51353 0
M  V30 7730 H 709.013 -5.98078 -2.42843 0
M  V30 7731 H 709.781 -7.97373 -1.84767 0
M  V30 7732 N 712.444 0.87505 -1.31075 0
M  V30 7733 C 713.855 1.4433 -1.18431 0
M  V30 7734 C 714.206 1.9506 0.211189 0
M  V30 7735 O 713.331 1.85847 1.10859 0
M  V30 7736 C 713.926 2.62341 -2.14389 0
M  V30 7737 C 712.485 3.15225 -2.05694 0
M  V30 7738 C 711.632 1.87929 -2.03907 0
M  V30 7739 H 714.583 0.684061 -1.432 0
M  V30 7740 H 714.604 3.3887 -1.73053 0
M  V30 7741 H 714.116 2.25388 -3.15946 0
M  V30 7742 H 712.217 3.56812 -1.07314 0
M  V30 7743 H 712.33 3.77853 -2.94558 0
M  V30 7744 H 710.694 2.06679 -1.48849 0
M  V30 7745 H 711.477 1.53221 -3.07211 0
M  V30 7746 N 713.922 1.13953 1.08869 0
M  V30 7747 C 715.199 0.815768 1.77777 0
M  V30 7748 C 715.579 -0.691624 1.99449 0
M  V30 7749 O 714.927 -1.63085 1.60049 0
M  V30 7750 C 715.137 1.60916 3.09689 0
M  V30 7751 C 716.485 1.80549 3.84301 0
M  V30 7752 O 717.509 1.57562 3.19457 0
M  V30 7753 O 716.368 2.18946 5.00724 0
M  V30 7754 H 713.462 0.298445 0.771271 0
M  V30 7755 H 716.008 1.24446 1.15374 0
M  V30 7756 H 714.78 2.6333 2.89435 0
M  V30 7757 H 714.403 1.17578 3.79817 0
M  V30 7758 N 715.4 -1.26948 0.933913 0
M  V30 7759 C 716.677 -1.89212 0.495784 0
M  V30 7760 C 717.057 -1.84469 -1.02637 0
M  V30 7761 O 716.405 -1.29409 -1.88323 0
M  V30 7762 C 716.615 -3.32865 1.0489 0
M  V30 7763 C 717.963 -4.09749 1.11315 0
M  V30 7764 O 718.987 -3.41905 0.998966 0
M  V30 7765 O 717.846 -5.31061 1.28983 0
M  V30 7766 H 714.94 -0.811284 0.160459 0
M  V30 7767 H 717.486 -1.35171 1.02601 0
M  V30 7768 H 716.258 -3.30642 2.09265 0
M  V30 7769 H 715.881 -3.94435 0.500692 0
M  V30 7770 N 716.879 -0.700114 -1.41195 0
M  V30 7771 C 718.128 -0.230082 -2.00383 0
M  V30 7772 C 718.441 1.17857 -1.56106 0
M  V30 7773 O 719.647 1.74631 -2.07885 0
M  V30 7774 C 718.103 -0.360447 -3.5809 0
M  V30 7775 C 717.711 -1.77475 -4.11347 0
M  V30 7776 C 719.455 0.0495799 -4.24471 0
M  V30 7777 C 717.362 -1.85653 -5.61504 0
M  V30 7778 H 716.292 -0.0822633 -0.749499 0
M  V30 7779 H 718.943 -0.868969 -1.6162 0
M  V30 7780 H 717.325 0.346768 -3.94479 0
M  V30 7781 H 718.499 -2.51109 -3.86369 0
M  V30 7782 H 716.814 -2.13486 -3.57509 0
M  V30 7783 H 719.411 0.00898219 -5.34699 0
M  V30 7784 H 719.754 1.08904 -4.01803 0
M  V30 7785 H 720.287 -0.607521 -3.93134 0
M  V30 7786 H 717.026 -2.87667 -5.89006 0
M  V30 7787 H 716.546 -1.1641 -5.88395 0
M  V30 7788 H 718.225 -1.62151 -6.26351 0
M  V30 7789 N 718.357 1.51182 -0.445186 0
M  V30 7790 C 719.603 2.02452 0.11882 0
M  V30 7791 C 719.936 1.32824 1.41673 0
M  V30 7792 O 719.211 0.445637 1.89326 0
M  V30 7793 C 719.494 3.5859 0.329475 0
M  V30 7794 C 719.347 4.38823 -0.987638 0
M  V30 7795 C 720.666 4.26241 1.09575 0
M  V30 7796 H 717.785 0.735819 0.0417092 0
M  V30 7797 H 720.427 1.80747 -0.585718 0
M  V30 7798 H 718.577 3.77214 0.9296 0
M  V30 7799 H 720.249 4.3183 -1.62235 0
M  V30 7800 H 718.492 4.03594 -1.59041 0
M  V30 7801 H 719.163 5.46257 -0.794192 0
M  V30 7802 H 721.639 4.11934 0.587328 0
M  V30 7803 H 720.515 5.35354 1.21191 0
M  V30 7804 H 720.776 3.87635 2.12584 0
M  V30 7805 N 719.835 0.176821 1.56605 0
M  V30 7806 C 721.06 -0.47599 2.01864 0
M  V30 7807 C 721.485 -1.55645 1.05623 0
M  V30 7808 O 720.843 -1.81263 0.0366729 0
M  V30 7809 C 720.891 -1.02619 3.4569 0
M  V30 7810 O 719.995 -2.13996 3.52533 0
M  V30 7811 H 719.336 -0.113363 0.654251 0
M  V30 7812 H 721.866 0.28233 2.02643 0
M  V30 7813 H 721.876 -1.34742 3.85109 0
M  V30 7814 H 720.551 -0.235138 4.15235 0
M  V30 7815 H 719.128 -1.82876 3.24978 0
M  V30 7816 N 721.313 -1.57302 -0.09688 0
M  V30 7817 C 722.261 -2.02942 -1.13654 0
M  V30 7818 C 723.255 -0.930173 -1.41577 0
M  V30 7819 O 724.461 -1.11535 -1.41279 0
M  V30 7820 H 720.836 -0.646726 -0.383731 0
M  V30 7821 H 722.807 -2.89452 -0.725267 0
M  V30 7822 C 721.556 -2.46815 -2.44903 0
M  V30 7823 H 720.879 -3.30979 -2.24261 0
M  V30 7824 H 722.319 -2.82527 -3.16156 0
M  V30 7825 C 720.778 -1.34071 -3.09074 0
M  V30 7826 O 721.308 -0.668856 -3.96092 0
M  V30 7827 N 719.514 -1.09214 -2.69296 0
M  V30 7828 H 719.061 -1.64029 -1.98626 0
M  V30 7829 H 719.019 -0.339785 -3.12559 0
M  V30 7830 N 722.791 0.367657 -1.53252 0
M  V30 7831 C 724.068 1.12606 -1.59935 0
M  V30 7832 C 724.448 2.07167 -0.405606 0
M  V30 7833 O 723.796 2.20364 0.604323 0
M  V30 7834 C 724.006 1.86699 -2.94863 0
M  V30 7835 C 725.354 2.41306 -3.49366 0
M  V30 7836 O 726.378 1.96828 -2.96879 0
M  V30 7837 O 725.237 3.2261 -4.41118 0
M  V30 7838 H 722.331 0.516438 -0.645926 0
M  V30 7839 H 724.877 0.371088 -1.65593 0
M  V30 7840 H 723.649 1.17674 -3.73187 0
M  V30 7841 H 723.272 2.6911 -2.92687 0
M  V30 7842 N 724.269 1.44576 0.627338 0
M  V30 7843 C 725.217 1.52039 1.76031 0
M  V30 7844 C 726.211 0.391796 1.64807 0
M  V30 7845 O 727.417 0.5669 1.7084 0
M  V30 7846 H 723.792 0.477165 0.581221 0
M  V30 7847 H 725.763 2.47387 1.6686 0
M  V30 7848 C 724.512 1.48539 3.14375 0
M  V30 7849 H 723.835 2.34699 3.23661 0
M  V30 7850 H 725.275 1.57821 3.93534 0
M  V30 7851 C 723.734 0.20672 3.36265 0
M  V30 7852 O 724.264 -0.72154 3.95167 0
M  V30 7853 N 722.47 0.108654 2.90397 0
M  V30 7854 H 722.017 0.864884 2.42647 0
M  V30 7855 H 721.975 -0.746121 3.05418 0
M  V30 7856 N 725.747 -0.868086 1.31537 0
M  V30 7857 C 726.694 -1.97548 1.19346 0
M  V30 7858 C 727.664 -1.65913 0.0787922 0
M  V30 7859 O 728.849 -1.89129 0.251985 0
M  V30 7860 C 725.989 -3.32922 0.908692 0
M  V30 7861 C 725.102 -3.77141 2.10687 0
M  V30 7862 C 724.237 -5.01241 1.75873 0
M  V30 7863 C 723.276 -5.37914 2.92088 0
M  V30 7864 N 722.413 -6.53192 2.57457 0
M  V30 7865 H 727.253 -2.07307 2.14074 0
M  V30 7866 H 724.79 -1.01483 1.06487 0
M  V30 7867 H 726.748 -4.10867 0.724138 0
M  V30 7868 H 725.378 -3.228 -0.0017611 0
M  V30 7869 H 724.43 -2.94961 2.40213 0
M  V30 7870 H 725.742 -4.00248 2.97663 0
M  V30 7871 H 724.896 -5.86858 1.53891 0
M  V30 7872 H 723.635 -4.80041 0.86091 0
M  V30 7873 H 722.64 -4.50814 3.14717 0
M  V30 7874 H 723.865 -5.61077 3.82582 0
M  V30 7875 H 721.811 -6.33536 1.702 0
M  V30 7876 H 721.728 -6.76252 3.37963 0
M  V30 7877 H 722.996 -7.41997 2.38873 0
M  V30 7878 N 727.225 -1.14528 -1.08264 0
M  V30 7879 C 728.155 -0.856356 -2.1723 0
M  V30 7880 C 729.136 0.189251 -1.69044 0
M  V30 7881 O 730.321 0.0456119 -1.94146 0
M  V30 7882 C 727.451 -0.334662 -3.45684 0
M  V30 7883 C 726.405 -1.31588 -4.0727 0
M  V30 7884 C 725.731 -0.653428 -5.30692 0
M  V30 7885 C 727.031 -2.67866 -4.48381 0
M  V30 7886 H 728.725 -1.76755 -2.41657 0
M  V30 7887 H 726.271 -0.851287 -1.16143 0
M  V30 7888 H 728.224 -0.120128 -4.21229 0
M  V30 7889 H 726.948 0.611967 -3.20815 0
M  V30 7890 H 725.607 -1.51661 -3.33758 0
M  V30 7891 H 725.255 0.299054 -5.0211 0
M  V30 7892 H 724.955 -1.30817 -5.72853 0
M  V30 7893 H 726.479 -0.448453 -6.08951 0
M  V30 7894 H 727.893 -2.51692 -5.15096 0
M  V30 7895 H 726.29 -3.29627 -5.01464 0
M  V30 7896 H 727.36 -3.24632 -3.60198 0
M  V30 7897 N 728.703 1.26451 -0.940633 0
M  V30 7898 C 729.651 2.28389 -0.440581 0
M  V30 7899 C 730.645 1.62402 0.481859 0
M  V30 7900 O 731.851 1.76361 0.360132 0
M  V30 7901 H 728.226 0.741716 -0.123938 0
M  V30 7902 H 730.197 2.67967 -1.31288 0
M  V30 7903 C 728.946 3.46576 0.279364 0
M  V30 7904 H 728.269 3.97574 -0.421274 0
M  V30 7905 H 729.709 4.19826 0.59348 0
M  V30 7906 C 728.168 3.01815 1.49697 0
M  V30 7907 O 728.698 3.06607 2.59529 0
M  V30 7908 N 726.904 2.57163 1.35334 0
M  V30 7909 H 726.451 2.53464 0.459743 0
M  V30 7910 H 726.409 2.27578 2.16923 0
M  V30 7911 N 730.181 0.707592 1.40822 0
M  V30 7912 C 731.129 0.0386643 2.32568 0
M  V30 7913 C 732.123 -0.755653 1.51612 0
M  V30 7914 O 733.329 -0.659921 1.67467 0
M  V30 7915 H 729.704 -0.00629912 0.751974 0
M  V30 7916 H 731.675 0.8293 2.86645 0
M  V30 7917 C 730.424 -0.87496 3.36511 0
M  V30 7918 H 729.747 -0.273157 3.98866 0
M  V30 7919 H 731.187 -1.31111 4.03219 0
M  V30 7920 C 729.646 -1.99672 2.71353 0
M  V30 7921 O 730.176 -3.08676 2.57064 0
M  V30 7922 N 728.382 -1.77799 2.29861 0
M  V30 7923 H 727.929 -0.89147 2.41683 0
M  V30 7924 H 727.887 -2.53036 1.86601 0
M  V30 7925 N 731.66 -1.50943 0.453197 0
M  V30 7926 C 732.57 -2.31884 -0.355963 0
M  V30 7927 C 733.586 -1.41481 -1.01287 0
M  V30 7928 O 734.762 -1.74546 -1.00477 0
M  V30 7929 C 731.827 -3.15668 -1.43369 0
M  V30 7930 C 730.888 -4.2187 -0.795253 0
M  V30 7931 C 730.121 -5.0165 -1.82162 0
M  V30 7932 O 730.344 -4.82266 -3.04592 0
M  V30 7933 O 729.278 -5.85311 -1.40336 0
M  V30 7934 H 733.104 -3.02162 0.305248 0
M  V30 7935 H 730.689 -1.47839 0.215398 0
M  V30 7936 H 732.571 -3.67709 -2.05836 0
M  V30 7937 H 731.246 -2.48137 -2.07869 0
M  V30 7938 H 730.153 -3.73867 -0.132106 0
M  V30 7939 H 731.486 -4.9182 -0.193484 0
M  V30 7940 N 733.138 -0.185124 -1.56509 0
M  V30 7941 C 734.368 0.461469 -2.0138 0
M  V30 7942 C 734.776 1.56417 -1.06445 0
M  V30 7943 O 734.119 1.83603 -0.0597515 0
M  V30 7944 C 734.181 1.08731 -3.42663 0
M  V30 7945 C 733.845 0.124581 -4.5683 0
M  V30 7946 C 734.842 -0.662295 -5.15664 0
M  V30 7947 C 732.527 0.0163947 -5.02297 0
M  V30 7948 C 734.521 -1.54442 -6.18406 0
M  V30 7949 C 732.208 -0.869301 -6.04885 0
M  V30 7950 C 733.206 -1.64828 -6.62813 0
M  V30 7951 O 732.894 -2.51915 -7.63409 0
M  V30 7952 H 732.626 0.1212 -0.665046 0
M  V30 7953 H 735.18 -0.288119 -2.03369 0
M  V30 7954 H 733.41 1.8853 -3.37629 0
M  V30 7955 H 735.099 1.63753 -3.71403 0
M  V30 7956 H 735.865 -0.588963 -4.81411 0
M  V30 7957 H 731.744 0.61253 -4.56913 0
M  V30 7958 H 735.288 -2.15289 -6.63548 0
M  V30 7959 H 731.185 -0.943786 -6.38563 0
M  V30 7960 H 731.953 -2.45584 -7.80789 0
M  V30 7961 N 734.616 1.57351 0.0885366 0
M  V30 7962 C 735.546 2.05561 1.10757 0
M  V30 7963 C 736.527 0.945789 1.41382 0
M  V30 7964 O 737.712 1.21747 1.51299 0
M  V30 7965 C 734.842 2.48554 2.42566 0
M  V30 7966 C 733.796 3.63259 2.26334 0
M  V30 7967 C 733.122 3.9225 3.63378 0
M  V30 7968 C 734.422 4.93913 1.69844 0
M  V30 7969 H 736.116 2.90946 0.706468 0
M  V30 7970 H 733.662 1.39968 0.338385 0
M  V30 7971 H 735.615 2.8089 3.14132 0
M  V30 7972 H 734.339 1.60176 2.84625 0
M  V30 7973 H 732.998 3.31179 1.57213 0
M  V30 7974 H 732.646 3.0103 4.02976 0
M  V30 7975 H 732.346 4.69478 3.53362 0
M  V30 7976 H 733.87 4.27067 4.36401 0
M  V30 7977 H 735.284 5.24588 2.31258 0
M  V30 7978 H 733.681 5.75349 1.70569 0
M  V30 7979 H 734.751 4.80409 0.65843 0
M  V30 7980 N 736.094 -0.359525 1.53444 0
M  V30 7981 C 737.004 -1.46445 1.83278 0
M  V30 7982 C 738.02 -1.5833 0.721629 0
M  V30 7983 O 739.196 -1.7411 1.01231 0
M  V30 7984 C 736.261 -2.81638 2.02191 0
M  V30 7985 C 735.322 -2.7923 3.26082 0
M  V30 7986 C 734.555 -4.07974 3.44082 0
M  V30 7987 O 734.778 -5.04447 2.66251 0
M  V30 7988 O 733.712 -4.13417 4.37458 0
M  V30 7989 H 737.538 -1.24156 2.77162 0
M  V30 7990 H 735.123 -0.550201 1.389 0
M  V30 7991 H 737.005 -3.61732 2.16167 0
M  V30 7992 H 735.68 -3.03892 1.11496 0
M  V30 7993 H 734.587 -1.97813 3.17523 0
M  V30 7994 H 735.92 -2.6193 4.16718 0
M  V30 7995 N 737.572 -1.44907 -0.619662 0
M  V30 7996 C 738.502 -1.55488 -1.742 0
M  V30 7997 C 739.483 -0.407143 -1.65156 0
M  V30 7998 O 740.668 -0.628743 -1.8374 0
M  V30 7999 C 737.798 -1.5097 -3.1277 0
M  V30 8000 C 736.752 -2.64337 -3.36615 0
M  V30 8001 C 736.078 -2.44872 -4.75333 0
M  V30 8002 C 737.378 -4.06423 -3.28051 0
M  V30 8003 H 739.072 -2.49432 -1.65602 0
M  V30 8004 H 736.618 -1.20047 -0.795281 0
M  V30 8005 H 738.571 -1.56971 -3.91073 0
M  V30 8006 H 737.295 -0.535486 -3.2218 0
M  V30 8007 H 735.954 -2.57744 -2.60698 0
M  V30 8008 H 735.602 -1.45617 -4.81461 0
M  V30 8009 H 735.302 -3.20888 -4.92244 0
M  V30 8010 H 736.826 -2.52709 -5.55851 0
M  V30 8011 H 738.24 -4.14324 -3.96243 0
M  V30 8012 H 736.637 -4.82733 -3.56495 0
M  V30 8013 H 737.707 -4.29183 -2.25676 0
M  V30 8014 N 739.05 0.861098 -1.31996 0
M  V30 8015 C 739.998 1.99052 -1.20337 0
M  V30 8016 C 740.992 1.69045 -0.109623 0
M  V30 8017 O 742.198 1.77931 -0.272117 0
M  V30 8018 H 738.573 0.653064 -0.372843 0
M  V30 8019 H 740.544 2.06015 -2.15872 0
M  V30 8020 C 739.293 3.34846 -0.936663 0
M  V30 8021 H 738.616 3.58462 -1.77045 0
M  V30 8022 H 740.056 4.1444 -0.895302 0
M  V30 8023 C 738.515 3.34965 0.360607 0
M  V30 8024 O 739.045 3.7745 1.37456 0
M  V30 8025 N 737.251 2.88101 0.380296 0
M  V30 8026 H 736.798 2.53721 -0.445351 0
M  V30 8027 H 736.756 2.88563 1.24816 0
M  V30 8028 N 740.528 1.15101 1.07655 0
M  V30 8029 C 741.758 0.946357 1.83651 0
M  V30 8030 C 742.166 -0.508641 1.82235 0
M  V30 8031 O 741.509 -1.36445 1.22997 0
M  V30 8032 C 741.571 1.37945 3.31981 0
M  V30 8033 C 741.235 2.85155 3.57122 0
M  V30 8034 C 742.232 3.83234 3.51323 0
M  V30 8035 C 739.917 3.2275 3.84887 0
M  V30 8036 C 741.911 5.16914 3.72932 0
M  V30 8037 C 739.598 4.56604 4.06148 0
M  V30 8038 C 740.596 5.53495 4.00165 0
M  V30 8039 O 740.284 6.84931 4.20861 0
M  V30 8040 H 740.016 0.336368 0.586372 0
M  V30 8041 H 742.57 1.53198 1.36819 0
M  V30 8042 H 740.8 0.737205 3.79608 0
M  V30 8043 H 742.489 1.14439 3.89434 0
M  V30 8044 H 743.255 3.55535 3.29878 0
M  V30 8045 H 739.134 2.47921 3.88659 0
M  V30 8046 H 742.678 5.92529 3.68178 0
M  V30 8047 H 738.575 4.84019 4.27078 0
M  V30 8048 H 739.343 6.91304 4.38226 0
M  V30 8049 N 742.006 -1.2595 0.947325 0
M  V30 8050 C 742.953 -2.26159 0.460497 0
M  V30 8051 C 743.923 -1.58919 -0.483125 0
M  V30 8052 O 745.108 -1.86603 -0.397983 0
M  V30 8053 C 742.248 -3.441 -0.26247 0
M  V30 8054 C 741.361 -4.25999 0.717539 0
M  V30 8055 C 740.496 -5.31193 -0.0272486 0
M  V30 8056 C 739.535 -6.04774 0.944177 0
M  V30 8057 N 738.672 -7.01721 0.230741 0
M  V30 8058 H 743.512 -2.67173 1.31995 0
M  V30 8059 H 741.049 -1.31358 0.662088 0
M  V30 8060 H 743.007 -4.11317 -0.698137 0
M  V30 8061 H 741.637 -3.03983 -1.08602 0
M  V30 8062 H 740.689 -3.58513 1.27171 0
M  V30 8063 H 742.001 -4.76981 1.45913 0
M  V30 8064 H 741.155 -6.04451 -0.521903 0
M  V30 8065 H 739.894 -4.81066 -0.801682 0
M  V30 8066 H 738.899 -5.30338 1.4499 0
M  V30 8067 H 740.124 -6.56991 1.71872 0
M  V30 8068 H 738.07 -6.53895 -0.525088 0
M  V30 8069 H 737.987 -7.50484 0.911556 0
M  V30 8070 H 739.255 -7.79122 -0.242616 0
M  V30 8071 N 743.484 -0.715051 -1.40445 0
M  V30 8072 C 744.394 -0.0631624 -2.34515 0
M  V30 8073 C 745.41 0.744397 -1.57273 0
M  V30 8074 O 746.586 0.677475 -1.89663 0
M  V30 8075 C 743.651 0.847915 -3.36172 0
M  V30 8076 C 742.712 0.0303655 -4.29289 0
M  V30 8077 C 741.945 0.898051 -5.2609 0
M  V30 8078 O 742.168 2.13729 -5.28844 0
M  V30 8079 O 741.102 0.337328 -6.00954 0
M  V30 8080 H 744.928 -0.839078 -2.91879 0
M  V30 8081 H 742.513 -0.475527 -1.4163 0
M  V30 8082 H 744.395 1.3698 -3.98515 0
M  V30 8083 H 743.07 1.60299 -2.81222 0
M  V30 8084 H 741.977 -0.536573 -3.70232 0
M  V30 8085 H 743.31 -0.686474 -4.87389 0
M  V30 8086 N 744.962 1.50701 -0.461195 0
M  V30 8087 C 746.239 1.94958 0.158296 0
M  V30 8088 C 746.619 1.40111 1.57899 0
M  V30 8089 O 745.967 0.597976 2.20537 0
M  V30 8090 C 746.177 3.48821 0.11172 0
M  V30 8091 C 747.525 4.23499 0.30552 0
M  V30 8092 O 748.549 3.557 0.188758 0
M  V30 8093 O 747.408 5.43823 0.540244 0
M  V30 8094 H 744.502 0.818674 0.117054 0
M  V30 8095 H 747.048 1.61508 -0.520888 0
M  V30 8096 H 745.82 3.81263 -0.880577 0
M  V30 8097 H 745.443 3.88781 0.832791 0
M  V30 8098 N 746.441 0.193421 1.56409 0
M  V30 8099 C 747.351 -0.740112 2.2262 0
M  V30 8100 C 748.367 -1.23597 1.22474 0
M  V30 8101 O 749.543 -1.28348 1.55206 0
M  V30 8102 C 746.608 -1.94317 2.87127 0
M  V30 8103 C 745.669 -1.49205 4.02538 0
M  V30 8104 C 744.902 -2.63776 4.63959 0
M  V30 8105 O 745.125 -3.81215 4.24301 0
M  V30 8106 O 744.059 -2.36585 5.53454 0
M  V30 8107 H 747.885 -0.206238 3.02999 0
M  V30 8108 H 745.47 -0.0357938 1.49357 0
M  V30 8109 H 747.352 -2.64633 3.27944 0
M  V30 8110 H 746.027 -2.46568 2.09728 0
M  V30 8111 H 744.934 -0.757738 3.66346 0
M  V30 8112 H 746.267 -1.01622 4.81595 0
M  V30 8113 N 747.919 -1.57396 -0.0801906 0
M  V30 8114 C 749.149 -1.90778 -0.792924 0
M  V30 8115 C 749.557 -0.786814 -1.72064 0
M  V30 8116 O 748.9 0.249259 -1.82001 0
M  V30 8117 C 748.962 -3.19552 -1.64702 0
M  V30 8118 C 748.626 -4.48259 -0.889567 0
M  V30 8119 C 749.623 -5.19465 -0.212602 0
M  V30 8120 C 747.308 -4.94896 -0.859229 0
M  V30 8121 C 749.302 -6.35555 0.484566 0
M  V30 8122 C 746.989 -6.10895 -0.158284 0
M  V30 8123 C 747.987 -6.81075 0.512421 0
M  V30 8124 O 747.675 -7.94862 1.20209 0
M  V30 8125 H 747.407 -0.63527 -0.231103 0
M  V30 8126 H 749.961 -2.0532 -0.0573081 0
M  V30 8127 H 748.191 -3.01196 -2.42524 0
M  V30 8128 H 749.88 -3.38649 -2.23767 0
M  V30 8129 H 750.646 -4.84467 -0.227403 0
M  V30 8130 H 746.525 -4.4015 -1.37073 0
M  V30 8131 H 750.069 -6.9027 1.00864 0
M  V30 8132 H 745.966 -6.45345 -0.141381 0
M  V30 8133 H 746.734 -8.10932 1.11051 0
M  V30 8134 N 749.397 0.351382 -1.53633 0
M  V30 8135 C 750.644 1.0925 -1.70502 0
M  V30 8136 C 750.972 1.88881 -0.464123 0
M  V30 8137 O 750.227 1.87693 0.554077 0
M  V30 8138 C 750.526 2.06744 -2.91533 0
M  V30 8139 C 750.192 1.43484 -4.27461 0
M  V30 8140 C 748.854 1.2596 -4.64422 0
M  V30 8141 C 751.206 0.978436 -5.11934 0
M  V30 8142 C 748.534 0.614017 -5.83478 0
M  V30 8143 C 750.886 0.346795 -6.31649 0
M  V30 8144 C 749.55 0.15917 -6.6731 0
M  V30 8145 H 748.82 0.399773 -0.623909 0
M  V30 8146 H 751.467 0.372656 -1.87839 0
M  V30 8147 H 749.772 2.85082 -2.68767 0
M  V30 8148 H 751.469 2.64066 -3.01778 0
M  V30 8149 H 748.059 1.5812 -3.98367 0
M  V30 8150 H 752.243 1.1017 -4.83918 0
M  V30 8151 H 747.499 0.457194 -6.09688 0
M  V30 8152 H 751.673 -0.0149864 -6.96398 0
M  V30 8153 H 749.3 -0.343129 -7.59425 0
M  V30 8154 N 750.875 1.45233 0.611969 0
M  V30 8155 C 751.785 1.56098 1.7513 0
M  V30 8156 C 752.801 0.445646 1.68196 0
M  V30 8157 O 753.977 0.705718 1.88631 0
M  V30 8158 C 751.042 1.52052 3.11579 0
M  V30 8159 C 750.103 2.74589 3.29999 0
M  V30 8160 C 749.336 2.70726 4.59938 0
M  V30 8161 O 749.559 1.77806 5.41979 0
M  V30 8162 O 748.493 3.61864 4.80976 0
M  V30 8163 H 752.319 2.52392 1.68914 0
M  V30 8164 H 749.904 1.27695 0.775528 0
M  V30 8165 H 751.786 1.52387 3.92882 0
M  V30 8166 H 750.461 0.589085 3.18295 0
M  V30 8167 H 749.368 2.79817 2.48301 0
M  V30 8168 H 750.701 3.66843 3.28157 0
M  V30 8169 N 752.353 -0.854086 1.3245 0
M  V30 8170 C 753.301 -1.98411 1.21391 0
M  V30 8171 C 754.295 -1.68984 0.118586 0
M  V30 8172 O 755.501 -1.77784 0.281549 0
M  V30 8173 H 751.876 -0.651077 0.376301 0
M  V30 8174 H 753.847 -2.04867 2.16961 0
M  V30 8175 C 752.596 -3.34345 0.954407 0
M  V30 8176 H 751.919 -3.57518 1.78944 0
M  V30 8177 H 753.359 -4.13959 0.917269 0
M  V30 8178 C 751.818 -3.35151 -0.342838 0
M  V30 8179 O 752.348 -3.78174 -1.35452 0
M  V30 8180 N 750.554 -2.88298 -0.365012 0
M  V30 8181 H 750.101 -2.53481 0.4588 0
M  V30 8182 H 750.059 -2.8922 -1.23284 0
M  V30 8183 N 753.831 -1.1567 -1.07043 0
M  V30 8184 C 755.08 -0.928039 -1.79082 0
M  V30 8185 C 755.393 0.545968 -1.87826 0
M  V30 8186 O 756.599 0.892308 -2.56418 0
M  V30 8187 C 755.055 -1.61103 -3.21829 0
M  V30 8188 C 754.663 -3.12228 -3.21275 0
M  V30 8189 C 756.407 -1.46404 -3.98455 0
M  V30 8190 C 754.314 -3.733 -4.58695 0
M  V30 8191 H 753.244 -0.34357 -0.671175 0
M  V30 8192 H 755.895 -1.38718 -1.20123 0
M  V30 8193 H 754.277 -1.07958 -3.81 0
M  V30 8194 H 755.451 -3.72155 -2.71731 0
M  V30 8195 H 753.766 -3.26725 -2.58147 0
M  V30 8196 H 756.363 -1.8942 -5.00024 0
M  V30 8197 H 756.706 -0.41195 -4.14257 0
M  V30 8198 H 757.239 -1.96663 -3.45787 0
M  V30 8199 H 753.978 -4.78423 -4.48098 0
M  V30 8200 H 753.498 -3.18157 -5.08465 0
M  V30 8201 H 755.177 -3.7441 -5.27661 0
M  V30 8202 N 755.309 1.25446 -0.953992 0
M  V30 8203 C 756.558 1.92441 -0.604101 0
M  V30 8204 C 756.871 1.75543 0.862796 0
M  V30 8205 O 758.077 2.37106 1.32262 0
M  V30 8206 C 756.533 3.44854 -1.02974 0
M  V30 8207 C 756.141 3.70464 -2.51914 0
M  V30 8208 C 757.885 4.1778 -0.752352 0
M  V30 8209 C 755.792 5.1638 -2.88281 0
M  V30 8210 H 754.722 0.720508 -0.222227 0
M  V30 8211 H 757.373 1.42318 -1.15836 0
M  V30 8212 H 755.755 3.93935 -0.403904 0
M  V30 8213 H 756.929 3.32038 -3.19511 0
M  V30 8214 H 755.244 3.10797 -2.77117 0
M  V30 8215 H 757.841 5.25261 -1.00024 0
M  V30 8216 H 758.184 4.15135 0.311212 0
M  V30 8217 H 758.717 3.74605 -1.33851 0
M  V30 8218 H 755.456 5.24135 -3.93653 0
M  V30 8219 H 754.976 5.55855 -2.25357 0
M  V30 8220 H 756.655 5.84497 -2.77439 0
M  V30 8221 N 756.787 0.722489 1.40064 0
M  V30 8222 C 757.719 0.0349057 2.29173 0
M  V30 8223 C 758.732 -0.716571 1.46182 0
M  V30 8224 O 759.921 -0.562806 1.69395 0
M  V30 8225 C 757.021 -0.974839 3.24577 0
M  V30 8226 C 756.194 -0.287471 4.36454 0
M  V30 8227 C 755.253 -1.20356 5.12251 0
M  V30 8228 O 754.279 -0.685753 5.65054 0
M  V30 8229 N 755.481 -2.53422 5.22262 0
M  V30 8230 H 758.246 0.800058 2.88824 0
M  V30 8231 H 755.807 0.57068 1.51509 0
M  V30 8232 H 757.799 -1.59002 3.72157 0
M  V30 8233 H 756.369 -1.6413 2.66046 0
M  V30 8234 H 755.589 0.508008 3.90913 0
M  V30 8235 H 756.877 0.189382 5.08447 0
M  V30 8236 H 756.275 -2.97981 4.80857 0
M  V30 8237 H 754.832 -3.10067 5.73325 0
M  V30 8238 N 758.265 -1.50454 0.469181 0
M  V30 8239 C 759.213 -2.30101 -0.340033 0
M  V30 8240 C 760.207 -1.37306 -0.992135 0
M  V30 8241 O 761.413 -1.54506 -0.923458 0
M  V30 8242 H 757.788 -0.740941 -0.128495 0
M  V30 8243 H 759.759 -2.96315 0.352144 0
M  V30 8244 C 758.508 -3.17804 -1.41052 0
M  V30 8245 H 757.831 -3.89115 -0.918124 0
M  V30 8246 H 759.271 -3.76533 -1.94934 0
M  V30 8247 C 757.73 -2.35272 -2.4114 0
M  V30 8248 O 758.26 -2.03448 -3.4637 0
M  V30 8249 N 756.466 -1.97889 -2.1281 0
M  V30 8250 H 756.013 -2.2397 -1.27261 0
M  V30 8251 H 755.971 -1.42971 -2.80012 0
M  V30 8252 N 759.743 -0.201713 -1.56304 0
M  V30 8253 C 760.673 0.71155 -2.22394 0
M  V30 8254 C 761.654 1.21625 -1.18917 0
M  V30 8255 O 762.839 1.26388 -1.47444 0
M  V30 8256 C 759.969 1.92837 -2.88845 0
M  V30 8257 C 758.923 1.55831 -3.98623 0
M  V30 8258 C 758.249 2.85228 -4.52271 0
M  V30 8259 C 759.549 0.763249 -5.16693 0
M  V30 8260 H 761.243 0.160573 -2.98969 0
M  V30 8261 H 758.789 0.0757916 -1.438 0
M  V30 8262 H 760.742 2.57253 -3.33764 0
M  V30 8263 H 759.466 2.50398 -2.09686 0
M  V30 8264 H 758.125 0.9377 -3.54405 0
M  V30 8265 H 757.773 3.40893 -3.69866 0
M  V30 8266 H 757.473 2.6121 -5.26349 0
M  V30 8267 H 758.997 3.50622 -4.99897 0
M  V30 8268 H 760.411 1.31066 -5.58117 0
M  V30 8269 H 758.808 0.620935 -5.96879 0
M  V30 8270 H 759.878 -0.234322 -4.84334 0
M  V30 8271 N 761.222 1.57436 0.0718424 0
M  V30 8272 C 762.169 2.03686 1.08539 0
M  V30 8273 C 763.139 0.917474 1.38462 0
M  V30 8274 O 764.324 1.18513 1.4953 0
M  V30 8275 C 761.464 2.48566 2.39393 0
M  V30 8276 C 760.577 3.74122 2.16001 0
M  V30 8277 C 759.712 4.07786 3.40418 0
M  V30 8278 C 758.751 5.26383 3.1239 0
M  V30 8279 N 757.888 5.55685 4.29138 0
M  V30 8280 H 762.728 2.90043 0.684018 0
M  V30 8281 H 760.265 1.43438 0.326183 0
M  V30 8282 H 762.223 2.72639 3.15791 0
M  V30 8283 H 760.853 1.65186 2.77333 0
M  V30 8284 H 759.905 3.57389 1.30296 0
M  V30 8285 H 761.217 4.60659 1.91298 0
M  V30 8286 H 760.371 4.32759 4.25211 0
M  V30 8287 H 759.11 3.19817 3.68197 0
M  V30 8288 H 758.115 5.01206 2.25993 0
M  V30 8289 H 759.34 6.1597 2.85934 0
M  V30 8290 H 757.286 4.70675 4.56948 0
M  V30 8291 H 757.203 6.3664 4.07708 0
M  V30 8292 H 758.471 5.85209 5.14928 0
M  V30 8293 N 762.7 -0.34323 1.53817 0
M  V30 8294 C 763.947 -1.08344 1.71079 0
M  V30 8295 C 764.275 -1.88633 0.474133 0
M  V30 8296 O 763.53 -1.87984 -0.544116 0
M  V30 8297 C 763.829 -2.05195 2.92626 0
M  V30 8298 C 763.495 -1.41215 4.28216 0
M  V30 8299 C 762.157 -1.23495 4.65083 0
M  V30 8300 C 764.509 -0.951273 5.12445 0
M  V30 8301 C 761.837 -0.583065 5.83796 0
M  V30 8302 C 764.189 -0.313292 6.31824 0
M  V30 8303 C 762.853 -0.123779 6.67385 0
M  V30 8304 H 762.123 -0.396458 0.626021 0
M  V30 8305 H 764.77 -0.362689 1.88034 0
M  V30 8306 H 763.075 -2.83653 2.70275 0
M  V30 8307 H 764.772 -2.62462 3.03175 0
M  V30 8308 H 761.362 -1.56005 3.992 0
M  V30 8309 H 765.546 -1.07602 4.84495 0
M  V30 8310 H 760.802 -0.424854 6.09922 0
M  V30 8311 H 764.976 0.0519179 6.96381 0
M  V30 8312 H 762.603 0.383398 7.59233 0
M  V30 8313 N 764.178 -1.45556 -0.604258 0
M  V30 8314 C 765.403 -1.53509 -1.39462 0
M  V30 8315 C 765.828 -0.169638 -1.87333 0
M  V30 8316 O 765.186 0.846346 -1.60333 0
M  V30 8317 C 765.234 -2.52654 -2.5729 0
M  V30 8318 O 764.338 -2.04666 -3.5803 0
M  V30 8319 H 763.679 -0.517355 -0.416221 0
M  V30 8320 H 766.209 -1.90939 -0.735072 0
M  V30 8321 H 766.219 -2.71568 -3.04491 0
M  V30 8322 H 764.894 -3.51823 -2.21797 0
M  V30 8323 H 763.471 -1.95643 -3.17456 0
M  V30 8324 N 765.656 0.84705 -1.32902 0
M  V30 8325 C 766.588 1.96308 -1.18304 0
M  V30 8326 C 767.601 1.62386 -0.116082 0
M  V30 8327 O 768.79 1.74713 -0.365751 0
M  V30 8328 C 765.89 3.29556 -0.790305 0
M  V30 8329 C 765.063 3.91668 -1.94717 0
M  V30 8330 C 764.122 5.0326 -1.53674 0
M  V30 8331 O 763.148 5.22847 -2.24989 0
M  V30 8332 N 764.35 5.78852 -0.437075 0
M  V30 8333 H 767.115 2.09369 -2.14441 0
M  V30 8334 H 764.676 1.02233 -1.25539 0
M  V30 8335 H 766.668 4.01624 -0.49799 0
M  V30 8336 H 765.238 3.12497 0.0801286 0
M  V30 8337 H 764.458 3.12292 -2.40557 0
M  V30 8338 H 765.746 4.299 -2.72146 0
M  V30 8339 H 765.144 5.65484 0.156316 0
M  V30 8340 H 763.701 6.51479 -0.204399 0
M  V30 8341 N 767.134 1.16236 1.06428 0
M  V30 8342 C 768.359 0.967688 1.83441 0
M  V30 8343 C 768.784 -0.479167 1.81894 0
M  V30 8344 O 768.142 -1.34224 1.21875 0
M  V30 8345 C 768.19 1.49806 3.2801 0
M  V30 8346 O 767.294 0.703481 4.06356 0
M  V30 8347 H 766.635 0.344468 0.56766 0
M  V30 8348 H 769.165 1.54442 1.34197 0
M  V30 8349 H 769.175 1.51495 3.78831 0
M  V30 8350 H 767.85 2.55133 3.2845 0
M  V30 8351 H 766.427 0.756986 3.65136 0
M  V30 8352 N 768.612 -1.24939 0.960631 0
M  V30 8353 C 769.559 -2.25658 0.484459 0
M  V30 8354 C 770.529 -1.59422 -0.466242 0
M  V30 8355 O 771.714 -1.87015 -0.378169 0
M  V30 8356 C 768.854 -3.44359 -0.225958 0
M  V30 8357 C 767.967 -4.25214 0.762682 0
M  V30 8358 C 767.102 -5.31192 0.0290931 0
M  V30 8359 C 766.141 -6.03739 1.00827 0
M  V30 8360 N 765.278 -7.01437 0.305155 0
M  V30 8361 H 770.118 -2.65758 1.34821 0
M  V30 8362 H 767.655 -1.30648 0.675983 0
M  V30 8363 H 769.613 -4.12035 -0.654472 0
M  V30 8364 H 768.243 -3.05118 -1.05371 0
M  V30 8365 H 767.295 -3.57144 1.30966 0
M  V30 8366 H 768.607 -4.75406 1.50964 0
M  V30 8367 H 767.761 -6.04971 -0.457763 0
M  V30 8368 H 766.5 -4.81889 -0.750614 0
M  V30 8369 H 765.505 -5.2877 1.50607 0
M  V30 8370 H 766.73 -6.55131 1.7883 0
M  V30 8371 H 764.676 -6.54415 -0.455704 0
M  V30 8372 H 764.593 -7.49475 0.991104 0
M  V30 8373 H 765.861 -7.79336 -0.159966 0
M  V30 8374 N 770.09 -0.729906 -1.39679 0
M  V30 8375 C 771.022 -0.0470588 -2.29152 0
M  V30 8376 C 772.035 0.708808 -1.4656 0
M  V30 8377 O 773.224 0.553815 -1.69691 0
M  V30 8378 C 770.324 0.957612 -3.25089 0
M  V30 8379 C 769.497 0.264321 -4.36601 0
M  V30 8380 C 768.556 1.17638 -5.12882 0
M  V30 8381 O 767.582 0.655777 -5.6541 0
M  V30 8382 N 768.784 2.50649 -5.23598 0
M  V30 8383 H 771.549 -0.815364 -2.88395 0
M  V30 8384 H 769.11 -0.578707 -1.51204 0
M  V30 8385 H 771.102 1.57026 -3.72995 0
M  V30 8386 H 769.672 1.62716 -2.66912 0
M  V30 8387 H 768.892 -0.528732 -3.90638 0
M  V30 8388 H 770.18 -0.216344 -5.0834 0
M  V30 8389 H 769.578 2.95427 -4.82431 0
M  V30 8390 H 768.135 3.07022 -5.74961 0
M  V30 8391 N 771.568 1.50203 -0.477153 0
M  V30 8392 C 772.498 2.31517 0.303646 0
M  V30 8393 C 773.479 1.38696 0.984753 0
M  V30 8394 O 774.664 1.67615 0.980758 0
M  V30 8395 C 771.794 3.18598 1.38249 0
M  V30 8396 C 770.748 4.2002 0.822645 0
M  V30 8397 C 770.074 4.95878 2.00024 0
M  V30 8398 C 771.374 5.22023 -0.170185 0
M  V30 8399 H 773.068 2.97042 -0.375027 0
M  V30 8400 H 770.614 1.42848 -0.181802 0
M  V30 8401 H 772.567 3.74282 1.93625 0
M  V30 8402 H 771.291 2.5097 2.09002 0
M  V30 8403 H 769.95 3.65445 0.290813 0
M  V30 8404 H 769.598 4.24717 2.69489 0
M  V30 8405 H 769.298 5.64487 1.63183 0
M  V30 8406 H 770.822 5.54399 2.55878 0
M  V30 8407 H 772.236 5.72543 0.294606 0
M  V30 8408 H 770.633 5.98386 -0.453181 0
M  V30 8409 H 771.703 4.72396 -1.09408 0
M  V30 8410 N 773.046 0.209999 1.56195 0
M  V30 8411 C 773.993 -0.704854 2.19774 0
M  V30 8412 C 774.963 -1.19886 1.14964 0
M  V30 8413 O 776.148 -1.26005 1.43274 0
M  V30 8414 C 773.288 -1.91241 2.87265 0
M  V30 8415 C 772.401 -1.45838 4.06639 0
M  V30 8416 C 771.536 -2.6226 4.61945 0
M  V30 8417 C 770.575 -2.13537 5.73645 0
M  V30 8418 N 769.712 -3.2319 6.23292 0
M  V30 8419 H 774.552 -0.155944 2.97592 0
M  V30 8420 H 772.089 -0.0652235 1.46955 0
M  V30 8421 H 774.047 -2.62123 3.24573 0
M  V30 8422 H 772.677 -2.43439 2.11985 0
M  V30 8423 H 771.729 -0.644897 3.74894 0
M  V30 8424 H 773.041 -1.06103 4.87384 0
M  V30 8425 H 772.195 -3.41243 5.01636 0
M  V30 8426 H 770.934 -3.05278 3.80338 0
M  V30 8427 H 769.939 -1.33013 5.33468 0
M  V30 8428 H 771.164 -1.71533 6.57079 0
M  V30 8429 H 769.11 -3.65711 5.44602 0
M  V30 8430 H 769.027 -2.8767 6.99129 0
M  V30 8431 H 770.295 -4.02342 6.67639 0
M  V30 8432 N 774.524 -1.57472 -0.0634922 0
M  V30 8433 C 775.471 -2.04258 -1.07457 0
M  V30 8434 C 776.441 -0.924804 -1.37973 0
M  V30 8435 O 777.626 -1.19305 -1.48899 0
M  V30 8436 C 774.766 -2.49832 -2.38071 0
M  V30 8437 C 773.879 -3.75263 -2.14014 0
M  V30 8438 C 773.014 -4.09585 -3.38251 0
M  V30 8439 C 772.053 -5.28032 -3.09594 0
M  V30 8440 N 771.19 -5.57953 -4.26185 0
M  V30 8441 H 776.03 -2.90402 -0.668626 0
M  V30 8442 H 773.567 -1.43609 -0.318572 0
M  V30 8443 H 775.525 -2.7431 -3.14341 0
M  V30 8444 H 774.155 -1.66654 -2.76453 0
M  V30 8445 H 773.207 -3.58075 -1.28399 0
M  V30 8446 H 774.519 -4.61667 -1.88852 0
M  V30 8447 H 773.673 -4.35008 -4.2291 0
M  V30 8448 H 772.412 -3.21765 -3.66495 0
M  V30 8449 H 771.417 -5.02397 -2.23332 0
M  V30 8450 H 772.642 -6.17477 -2.82663 0
M  V30 8451 H 770.588 -4.73092 -4.54445 0
M  V30 8452 H 770.505 -6.38793 -4.04326 0
M  V30 8453 H 771.773 -5.87931 -5.11817 0
M  V30 8454 N 776.003 0.335068 -1.53997 0
M  V30 8455 C 776.933 1.41727 -1.85568 0
M  V30 8456 C 777.914 1.54505 -0.7115 0
M  V30 8457 O 779.099 1.68573 -0.964191 0
M  V30 8458 C 776.229 2.7866 -2.07282 0
M  V30 8459 C 775.183 2.80682 -3.23112 0
M  V30 8460 C 774.509 4.20581 -3.30175 0
M  V30 8461 C 775.809 2.45458 -4.61029 0
M  V30 8462 H 777.503 1.15555 -2.76202 0
M  V30 8463 H 775.049 0.554445 -1.32898 0
M  V30 8464 H 777.002 3.54423 -2.27952 0
M  V30 8465 H 775.726 3.06286 -1.13387 0
M  V30 8466 H 774.385 2.07373 -3.02311 0
M  V30 8467 H 774.033 4.4533 -2.33859 0
M  V30 8468 H 773.733 4.22843 -4.08016 0
M  V30 8469 H 775.257 4.98174 -3.53066 0
M  V30 8470 H 776.671 3.10934 -4.81656 0
M  V30 8471 H 775.068 2.5899 -5.41336 0
M  V30 8472 H 776.138 1.40628 -4.6406 0
M  V30 8473 N 777.481 1.45874 0.596531 0
M  V30 8474 C 778.897 1.30524 0.918459 0
M  V30 8475 C 779.097 0.266429 1.99731 0
M  V30 8476 O 778.153 -0.335809 2.50257 0
M  V30 8477 C 779.466 2.68747 1.3489 0
M  V30 8478 C 781.014 2.7673 1.46251 0
M  V30 8479 C 781.489 4.15504 1.92667 0
M  V30 8480 N 782.98 4.17853 1.99883 0
M  V30 8481 C 783.715 5.22109 2.37044 0
M  V30 8482 N 783.211 6.36704 2.73094 0
M  V30 8483 N 785.004 5.09471 2.37479 0
M  V30 8484 H 777.155 2.12081 -0.116368 0
M  V30 8485 H 779.418 0.947941 0.0106033 0
M  V30 8486 H 779.124 3.46006 0.630288 0
M  V30 8487 H 778.998 2.97942 2.31323 0
M  V30 8488 H 781.385 1.99768 2.17202 0
M  V30 8489 H 781.466 2.51236 0.481054 0
M  V30 8490 H 781.11 4.92956 1.223 0
M  V30 8491 H 781.04 4.38396 2.91747 0
M  V30 8492 H 783.531 3.35163 1.74568 0
M  V30 8493 H 783.844 7.12041 3.00362 0
M  V30 8494 H 782.189 6.40087 2.70764 0
M  V30 8495 H 785.38 4.18987 2.08728 0
M  V30 8496 H 785.553 5.90837 2.66112 0
M  V30 8497 N 778.959 -0.83999 1.33349 0
M  V30 8498 C 779.869 -1.98182 1.25543 0
M  V30 8499 C 780.885 -1.73204 0.166208 0
M  V30 8500 O 782.061 -1.97596 0.389589 0
M  V30 8501 C 779.126 -3.32157 0.993614 0
M  V30 8502 C 778.187 -3.70258 2.17273 0
M  V30 8503 C 777.42 -4.9784 1.92331 0
M  V30 8504 O 777.643 -5.63679 0.873074 0
M  V30 8505 O 776.577 -5.33418 2.78835 0
M  V30 8506 H 780.403 -2.07708 2.21565 0
M  V30 8507 H 777.988 -0.972852 1.13384 0
M  V30 8508 H 779.87 -4.12433 0.864711 0
M  V30 8509 H 778.545 -3.23637 0.0636596 0
M  V30 8510 H 777.452 -2.90497 2.35716 0
M  V30 8511 H 778.785 -3.83442 3.08598 0
M  V30 8512 N 780.437 -1.16799 -1.0581 0
M  V30 8513 C 781.384 -0.87902 -2.13405 0
M  V30 8514 C 782.354 0.174541 -1.6518 0
M  V30 8515 O 783.539 0.0386843 -1.90761 0
M  V30 8516 C 780.679 -0.391616 -3.42871 0
M  V30 8517 C 779.792 -1.50857 -4.04804 0
M  V30 8518 C 778.927 -0.975682 -5.22163 0
M  V30 8519 C 777.966 -2.06851 -5.76089 0
M  V30 8520 N 777.103 -1.55085 -6.84758 0
M  V30 8521 H 781.943 -1.80043 -2.37463 0
M  V30 8522 H 779.48 -0.898083 -1.16503 0
M  V30 8523 H 781.438 -0.0906247 -4.17102 0
M  V30 8524 H 780.068 0.49284 -3.19016 0
M  V30 8525 H 779.12 -1.92542 -3.28073 0
M  V30 8526 H 780.432 -2.33305 -4.40874 0
M  V30 8527 H 779.586 -0.628165 -6.03439 0
M  V30 8528 H 778.325 -0.120566 -4.87551 0
M  V30 8529 H 777.33 -2.42467 -4.93447 0
M  V30 8530 H 778.555 -2.92768 -6.12751 0
M  V30 8531 H 776.501 -0.718345 -6.52055 0
M  V30 8532 H 776.418 -2.31145 -7.19797 0
M  V30 8533 H 777.686 -1.23206 -7.69702 0
M  V30 8534 N 781.915 1.24427 -0.967243 0
M  V30 8535 C 783.161 1.92772 -0.629812 0
M  V30 8536 C 783.494 1.75436 0.832827 0
M  V30 8537 O 782.769 1.10716 1.59913 0
M  V30 8538 C 783.052 3.45798 -1.00477 0
M  V30 8539 C 782.905 3.72304 -2.52407 0
M  V30 8540 C 784.224 4.36787 -0.538999 0
M  V30 8541 H 781.343 0.700099 -0.230282 0
M  V30 8542 H 783.985 1.46805 -1.20616 0
M  V30 8543 H 782.135 3.8508 -0.514336 0
M  V30 8544 H 783.807 3.42584 -3.08924 0
M  V30 8545 H 782.05 3.17472 -2.95625 0
M  V30 8546 H 782.721 4.7937 -2.73693 0
M  V30 8547 H 785.197 4.04877 -0.959874 0
M  V30 8548 H 784.073 5.4259 -0.829926 0
M  V30 8549 H 784.334 4.38527 0.560923 0
M  V30 8550 N 783.393 0.737304 1.3929 0
M  V30 8551 C 784.67 0.212464 1.94443 0
M  V30 8552 C 785.05 -1.28621 1.67391 0
M  V30 8553 O 784.398 -2.0529 1.00342 0
M  V30 8554 C 784.608 0.548565 3.44662 0
M  V30 8555 C 785.956 0.499177 4.21656 0
M  V30 8556 O 786.98 0.485892 3.5287 0
M  V30 8557 O 785.839 0.495739 5.44247 0
M  V30 8558 H 782.933 0.0395457 0.826054 0
M  V30 8559 H 785.479 0.816319 1.48776 0
M  V30 8560 H 784.251 1.58426 3.57795 0
M  V30 8561 H 783.874 -0.0841399 3.97511 0
M  V30 8562 N 784.871 -1.49948 0.485112 0
M  V30 8563 C 785.818 -2.28819 -0.301729 0
M  V30 8564 C 786.788 -1.34496 -0.974683 0
M  V30 8565 O 787.973 -1.63444 -0.984418 0
M  V30 8566 C 785.113 -3.16758 -1.36961 0
M  V30 8567 C 784.226 -4.26125 -0.710027 0
M  V30 8568 C 783.361 -5.01302 -1.75699 0
M  V30 8569 C 782.4 -6.02525 -1.07841 0
M  V30 8570 N 781.537 -6.70927 -2.06886 0
M  V30 8571 H 786.377 -2.95604 0.377127 0
M  V30 8572 H 783.914 -1.45764 0.197826 0
M  V30 8573 H 785.872 -3.66106 -2.00056 0
M  V30 8574 H 784.502 -2.51991 -2.01744 0
M  V30 8575 H 783.554 -3.80385 0.0338278 0
M  V30 8576 H 784.866 -4.98493 -0.175079 0
M  V30 8577 H 784.02 -5.54438 -2.46339 0
M  V30 8578 H 782.759 -4.28672 -2.32577 0
M  V30 8579 H 781.764 -5.48635 -0.357706 0
M  V30 8580 H 782.989 -6.77134 -0.516345 0
M  V30 8581 H 780.935 -6.01079 -2.62755 0
M  V30 8582 H 780.852 -7.39216 -1.58414 0
M  V30 8583 H 782.12 -7.28675 -2.76863 0
M  V30 8584 N 786.349 -0.21828 -1.56081 0
M  V30 8585 C 787.626 0.463143 -1.90038 0
M  V30 8586 C 788.006 1.77982 -1.13515 0
M  V30 8587 O 787.354 2.27199 -0.24345 0
M  V30 8588 C 787.564 0.659292 -3.42716 0
M  V30 8589 C 788.912 0.968203 -4.13414 0
M  V30 8590 O 789.936 0.746195 -3.48296 0
M  V30 8591 O 788.795 1.38936 -5.28544 0
M  V30 8592 H 785.889 0.244435 -0.790051 0
M  V30 8593 H 788.435 -0.260221 -1.67693 0
M  V30 8594 H 787.207 -0.269584 -3.9037 0
M  V30 8595 H 786.83 1.43426 -3.7083 0
M  V30 8596 N 787.827 1.57504 0.0551401 0
M  V30 8597 C 788.737 2.08198 1.08124 0
M  V30 8598 C 789.753 1.01496 1.41331 0
M  V30 8599 O 790.929 1.33073 1.51174 0
M  V30 8600 C 787.994 2.52968 2.37083 0
M  V30 8601 C 787.055 3.7404 2.10696 0
M  V30 8602 C 786.288 4.16665 3.33505 0
M  V30 8603 O 786.511 3.59019 4.4324 0
M  V30 8604 O 785.445 5.09324 3.20737 0
M  V30 8605 H 789.271 2.95977 0.680518 0
M  V30 8606 H 786.856 1.46933 0.270401 0
M  V30 8607 H 788.738 2.82211 3.12946 0
M  V30 8608 H 787.413 1.6831 2.76502 0
M  V30 8609 H 786.32 3.49855 1.32484 0
M  V30 8610 H 787.653 4.59601 1.76148 0
M  V30 8611 N 789.305 -0.326896 1.54172 0
M  V30 8612 C 790.551 -1.06304 1.7341 0
M  V30 8613 C 790.906 -1.85791 0.499935 0
M  V30 8614 O 790.199 -1.84753 -0.507625 0
M  V30 8615 C 790.393 -2.0208 2.94785 0
M  V30 8616 C 790.222 -1.32009 4.29888 0
M  V30 8617 C 788.992 -1.05798 4.941 0
M  V30 8618 C 791.19 -0.737721 5.08982 0
M  V30 8619 N 789.172 -0.324836 6.1304 0
M  V30 8620 C 790.543 -0.136006 6.19851 0
M  V30 8621 C 792.598 -0.640206 4.93767 0
M  V30 8622 C 791.301 0.553757 7.17165 0
M  V30 8623 C 793.327 0.0358492 5.91389 0
M  V30 8624 C 792.689 0.626522 7.01608 0
M  V30 8625 H 788.788 -0.372808 0.687414 0
M  V30 8626 H 791.372 -0.34462 1.91626 0
M  V30 8627 H 789.543 -2.71197 2.78041 0
M  V30 8628 H 791.275 -2.68655 3.02666 0
M  V30 8629 H 788.03 -1.34945 4.53968 0
M  V30 8630 H 788.454 0.0274982 6.76994 0
M  V30 8631 H 793.096 -1.0826 4.08705 0
M  V30 8632 H 790.814 1.00799 8.01789 0
M  V30 8633 H 794.4 0.110895 5.81694 0
M  V30 8634 H 793.28 1.14135 7.7585 0
M  V30 8635 N 790.784 -1.46188 -0.588786 0
M  V30 8636 C 792.033 -1.50452 -1.34339 0
M  V30 8637 C 792.346 -0.158096 -1.9496 0
M  V30 8638 O 793.552 -0.0784918 -2.71387 0
M  V30 8639 C 792.008 -2.65074 -2.43441 0
M  V30 8640 C 791.616 -4.06111 -1.8915 0
M  V30 8641 C 793.36 -2.78603 -3.20282 0
M  V30 8642 C 791.267 -5.12084 -2.95845 0
M  V30 8643 H 790.197 -0.559905 -0.504997 0
M  V30 8644 H 792.848 -1.72382 -0.629014 0
M  V30 8645 H 791.23 -2.36462 -3.1765 0
M  V30 8646 H 792.404 -4.44487 -1.21524 0
M  V30 8647 H 790.719 -3.97197 -1.24995 0
M  V30 8648 H 793.316 -3.54944 -3.99898 0
M  V30 8649 H 793.659 -1.85902 -3.72486 0
M  V30 8650 H 794.192 -3.06832 -2.53178 0
M  V30 8651 H 790.931 -6.06556 -2.48535 0
M  V30 8652 H 790.451 -4.78259 -3.61979 0
M  V30 8653 H 792.13 -5.37661 -3.59902 0
M  V30 8654 N 792.262 0.832906 -1.33792 0
M  V30 8655 C 793.487 1.62568 -1.28788 0
M  V30 8656 C 793.912 1.87599 0.137246 0
M  V30 8657 O 793.27 1.44436 1.0958 0
M  V30 8658 C 793.318 2.9495 -2.07453 0
M  V30 8659 O 792.422 3.86546 -1.43722 0
M  V30 8660 H 791.763 0.494809 -0.442787 0
M  V30 8661 H 794.293 1.03578 -1.76445 0
M  V30 8662 H 794.303 3.44599 -2.1844 0
M  V30 8663 H 792.978 2.76055 -3.11073 0
M  V30 8664 H 791.555 3.45044 -1.41417 0
M  V30 8665 N 793.74 1.17359 1.05189 0
M  V30 8666 C 794.988 0.960087 1.77839 0
M  V30 8667 C 795.309 -0.512554 1.88143 0
M  V30 8668 O 794.579 -1.3721 1.39822 0
M  V30 8669 H 793.159 0.352234 0.658741 0
M  V30 8670 H 795.821 1.47834 1.27008 0
M  V30 8671 H 794.917 1.38843 2.79516 0
M  V30 8672 N 795.218 -1.23913 0.973828 0
M  V30 8673 C 796.181 -2.23367 0.51378 0
M  V30 8674 C 797.181 -1.55923 -0.39302 0
M  V30 8675 O 798.371 -1.73187 -0.187626 0
M  V30 8676 C 795.503 -3.39944 -0.255152 0
M  V30 8677 H 796.696 -2.65581 1.39307 0
M  V30 8678 H 794.249 -1.36632 0.759039 0
M  V30 8679 H 794.984 -3.03177 -1.15127 0
M  V30 8680 H 794.769 -3.90098 0.395673 0
M  V30 8681 H 796.259 -4.13749 -0.565842 0
M  V30 8682 N 796.696 -0.74468 -1.38897 0
M  V30 8683 C 797.659 -0.11945 -2.28889 0
M  V30 8684 C 798.659 0.656942 -1.46768 0
M  V30 8685 O 799.849 0.484525 -1.67326 0
M  V30 8686 C 796.981 0.839635 -3.30398 0
M  V30 8687 H 798.174 -0.912414 -2.85683 0
M  V30 8688 H 795.727 -0.511119 -1.47707 0
M  V30 8689 H 796.462 1.6586 -2.78677 0
M  V30 8690 H 796.247 0.285432 -3.9106 0
M  V30 8691 H 797.737 1.27337 -3.97712 0
M  V30 8692 N 798.174 1.49689 -0.493057 0
M  V30 8693 C 799.42 2.02727 0.0543518 0
M  V30 8694 C 799.753 1.37264 1.37376 0
M  V30 8695 O 799.028 0.505644 1.87812 0
M  V30 8696 C 799.311 3.59456 0.215226 0
M  V30 8697 C 799.164 4.35459 -1.12675 0
M  V30 8698 C 800.483 4.29511 0.959586 0
M  V30 8699 H 797.602 0.736773 0.0182786 0
M  V30 8700 H 800.244 1.78792 -0.642924 0
M  V30 8701 H 798.394 3.79981 0.809122 0
M  V30 8702 H 800.066 4.2645 -1.75891 0
M  V30 8703 H 798.309 3.9833 -1.71801 0
M  V30 8704 H 798.98 5.43454 -0.967578 0
M  V30 8705 H 801.456 4.13594 0.455977 0
M  V30 8706 H 800.332 5.38939 1.04098 0
M  V30 8707 H 800.593 3.94202 2.00144 0
M  V30 8708 N 799.652 0.226554 1.55963 0
M  V30 8709 C 800.898 -0.404387 1.98727 0
M  V30 8710 C 801.231 -1.59059 1.11418 0
M  V30 8711 O 800.506 -1.93729 0.172971 0
M  V30 8712 C 800.789 -0.834081 3.50307 0
M  V30 8713 C 800.642 0.356104 4.48388 0
M  V30 8714 C 801.961 -1.68845 4.06423 0
M  V30 8715 H 799.08 -0.145515 0.722492 0
M  V30 8716 H 801.722 0.323791 1.87221 0
M  V30 8717 H 799.872 -1.45454 3.60244 0
M  V30 8718 H 801.544 0.99432 4.50456 0
M  V30 8719 H 799.787 1.0027 4.22053 0
M  V30 8720 H 800.458 0.0124333 5.51999 0
M  V30 8721 H 802.934 -1.16489 3.99461 0
M  V30 8722 H 801.81 -1.958 5.1279 0
M  V30 8723 H 802.071 -2.65347 3.53615 0
M  V30 8724 N 801.13 -1.57531 -0.0467866 0
M  V30 8725 C 802.078 -2.06455 -1.0714 0
M  V30 8726 C 803.072 -0.974744 -1.38546 0
M  V30 8727 O 804.278 -1.15974 -1.37659 0
M  V30 8728 H 800.653 -0.658607 -0.362962 0
M  V30 8729 H 802.624 -2.91613 -0.632813 0
M  V30 8730 C 801.373 -2.54481 -2.36927 0
M  V30 8731 H 800.696 -3.37946 -2.13617 0
M  V30 8732 H 802.136 -2.92442 -3.07007 0
M  V30 8733 C 800.595 -1.43836 -3.04652 0
M  V30 8734 O 801.125 -0.794531 -3.93764 0
M  V30 8735 N 799.331 -1.17727 -2.65686 0
M  V30 8736 H 798.878 -1.70265 -1.93307 0
M  V30 8737 H 798.836 -0.439051 -3.11319 0
M  V30 8738 N 802.608 0.318715 -1.54344 0
M  V30 8739 C 803.571 1.37545 -1.83342 0
M  V30 8740 C 804.571 1.445 -0.705444 0
M  V30 8741 O 805.761 1.44443 -0.973752 0
M  V30 8742 C 802.893 2.76225 -1.99781 0
M  V30 8743 H 804.086 1.13084 -2.77762 0
M  V30 8744 H 801.639 0.554457 -1.46135 0
M  V30 8745 H 802.374 3.05934 -1.07588 0
M  V30 8746 H 802.159 2.7257 -2.81865 0
M  V30 8747 H 803.649 3.52664 -2.23647 0
M  V30 8748 N 804.086 1.46499 0.581025 0
M  V30 8749 C 805.333 1.51896 1.33918 0
M  V30 8750 C 805.661 0.171361 1.93744 0
M  V30 8751 O 804.916 -0.833178 1.77078 0
M  V30 8752 C 805.215 2.56686 2.48691 0
M  V30 8753 C 804.881 4.00656 2.06847 0
M  V30 8754 C 803.543 4.39852 1.9515 0
M  V30 8755 C 805.895 4.91089 1.74589 0
M  V30 8756 C 803.223 5.67345 1.49456 0
M  V30 8757 C 805.575 6.1902 1.30373 0
M  V30 8758 C 804.239 6.57121 1.17255 0
M  V30 8759 H 803.509 0.555826 0.490039 0
M  V30 8760 H 806.156 1.79983 0.654092 0
M  V30 8761 H 804.461 2.22266 3.22653 0
M  V30 8762 H 806.158 2.58091 3.06904 0
M  V30 8763 H 802.748 3.69674 2.16886 0
M  V30 8764 H 806.932 4.61523 1.8251 0
M  V30 8765 H 802.188 5.95635 1.37944 0
M  V30 8766 H 806.362 6.8852 1.04467 0
M  V30 8767 H 803.989 7.55805 0.816236 0
M  V30 8768 N 805.565 -0.825799 1.34232 0
M  V30 8769 C 806.795 -1.61129 1.29309 0
M  V30 8770 C 807.203 -1.88714 -0.135589 0
M  V30 8771 O 806.546 -1.47703 -1.09222 0
M  V30 8772 C 806.608 -2.97866 2.01287 0
M  V30 8773 C 806.272 -2.9319 3.50555 0
M  V30 8774 C 807.269 -2.67978 4.45515 0
M  V30 8775 C 804.954 -3.12913 3.92926 0
M  V30 8776 C 806.948 -2.62536 5.80822 0
M  V30 8777 C 804.635 -3.07096 5.28333 0
M  V30 8778 C 805.633 -2.8194 6.22092 0
M  V30 8779 O 805.321 -2.7605 7.55018 0
M  V30 8780 H 805.053 -0.507652 0.446391 0
M  V30 8781 H 807.607 -1.03575 1.77374 0
M  V30 8782 H 805.837 -3.57327 1.47832 0
M  V30 8783 H 807.526 -3.58848 1.89691 0
M  V30 8784 H 808.292 -2.52478 4.14101 0
M  V30 8785 H 804.171 -3.3151 3.20347 0
M  V30 8786 H 807.715 -2.42821 6.53975 0
M  V30 8787 H 803.612 -3.22148 5.59367 0
M  V30 8788 H 804.38 -2.91798 7.6472 0
M  V30 8789 N 807.043 -1.17915 -1.04565 0
M  V30 8790 C 808.268 -0.996749 -1.81878 0
M  V30 8791 C 808.693 0.450169 -1.82634 0
M  V30 8792 O 808.051 1.32268 -1.23995 0
M  V30 8793 C 808.099 -1.55005 -3.25585 0
M  V30 8794 O 807.203 -0.76804 -4.05185 0
M  V30 8795 H 806.544 -0.353456 -0.562108 0
M  V30 8796 H 809.074 -1.56557 -1.31723 0
M  V30 8797 H 809.084 -1.57503 -3.76373 0
M  V30 8798 H 807.759 -2.60327 -3.2435 0
M  V30 8799 H 806.336 -0.81498 -3.63885 0
M  V30 8800 N 808.521 1.23394 -0.980386 0
M  V30 8801 C 809.746 1.96384 -0.666935 0
M  V30 8802 C 810.171 1.72087 0.759456 0
M  V30 8803 O 809.529 0.992328 1.51732 0
M  V30 8804 C 809.577 3.47499 -0.963177 0
M  V30 8805 O 808.681 4.12363 -0.0552051 0
M  V30 8806 H 808.022 0.614797 -0.250839 0
M  V30 8807 H 810.552 1.56831 -1.31398 0
M  V30 8808 H 810.562 3.97953 -0.899877 0
M  V30 8809 H 809.237 3.6451 -2.00264 0
M  V30 8810 H 807.814 3.72499 -0.172914 0
M  V30 8811 N 809.999 0.752036 1.385 0
M  V30 8812 C 811.247 0.306895 1.99756 0
M  V30 8813 C 811.568 -1.11478 1.59992 0
M  V30 8814 O 810.838 -1.76206 0.856045 0
M  V30 8815 H 809.418 0.11048 0.738785 0
M  V30 8816 H 812.08 0.965785 1.69289 0
M  V30 8817 H 811.176 0.368797 3.09913 0
M  V30 8818 N 811.477 -1.49425 0.500989 0
M  V30 8819 C 812.893 -1.58826 0.156951 0
M  V30 8820 C 813.093 -1.50622 -1.33848 0
M  V30 8821 O 812.149 -1.38016 -2.11442 0
M  V30 8822 C 813.462 -2.91611 0.73374 0
M  V30 8823 C 815.01 -3.05076 0.699846 0
M  V30 8824 C 815.485 -4.40479 1.2547 0
M  V30 8825 N 816.976 -4.4697 1.2154 0
M  V30 8826 C 817.711 -5.50189 1.6149 0
M  V30 8827 N 817.207 -6.60512 2.09034 0
M  V30 8828 N 819 -5.40903 1.52907 0
M  V30 8829 H 811.151 -1.53001 1.47324 0
M  V30 8830 H 813.414 -0.724765 0.61108 0
M  V30 8831 H 813.12 -3.03182 1.78251 0
M  V30 8832 H 812.994 -3.767 0.19417 0
M  V30 8833 H 815.381 -2.93134 -0.340085 0
M  V30 8834 H 815.462 -2.2167 1.27656 0
M  V30 8835 H 815.106 -4.53172 2.29341 0
M  V30 8836 H 815.036 -5.22524 0.653921 0
M  V30 8837 H 817.527 -3.67819 0.867043 0
M  V30 8838 H 817.84 -7.35372 2.37588 0
M  V30 8839 H 816.185 -6.61553 2.13008 0
M  V30 8840 H 819.376 -4.53606 1.15583 0
M  V30 8841 H 819.549 -6.21219 1.84365 0
M  V30 8842 N 812.955 -0.234822 -1.55841 0
M  V30 8843 C 813.903 0.686145 -2.22249 0
M  V30 8844 C 814.897 1.18948 -1.20614 0
M  V30 8845 O 816.103 1.14777 -1.38659 0
M  V30 8846 H 812.478 0.239724 -0.712767 0
M  V30 8847 H 814.449 0.102762 -2.98223 0
M  V30 8848 C 813.198 1.8776 -2.92646 0
M  V30 8849 H 812.521 1.49943 -3.70617 0
M  V30 8850 H 813.961 2.4995 -3.42493 0
M  V30 8851 C 812.42 2.74127 -1.95847 0
M  V30 8852 O 812.95 3.7329 -1.48384 0
M  V30 8853 N 811.156 2.4044 -1.63209 0
M  V30 8854 H 810.703 1.59854 -2.02001 0
M  V30 8855 H 810.661 2.98504 -0.987063 0
M  V30 8856 N 814.433 1.57553 0.0384317 0
M  V30 8857 C 815.365 2.02726 1.06934 0
M  V30 8858 C 816.378 0.938502 1.33026 0
M  V30 8859 O 817.567 1.21595 1.30678 0
M  V30 8860 C 814.667 2.37958 2.41308 0
M  V30 8861 C 813.84 3.69098 2.34703 0
M  V30 8862 C 812.899 3.91623 3.51451 0
M  V30 8863 O 811.925 4.628 3.31368 0
M  V30 8864 N 813.127 3.36538 4.72993 0
M  V30 8865 H 815.892 2.91781 0.684381 0
M  V30 8866 H 813.453 1.60307 0.226542 0
M  V30 8867 H 815.445 2.50172 3.18113 0
M  V30 8868 H 814.015 1.54621 2.71682 0
M  V30 8869 H 813.235 3.67325 1.43059 0
M  V30 8870 H 814.523 4.55144 2.27424 0
M  V30 8871 H 813.921 2.78828 4.92211 0
M  V30 8872 H 812.478 3.54148 5.47195 0
M  V30 8873 N 815.911 -0.310526 1.54511 0
M  V30 8874 C 817.16 -1.0445 1.72549 0
M  V30 8875 C 817.473 -1.88748 0.513172 0
M  V30 8876 O 818.679 -2.65338 0.575165 0
M  V30 8877 C 817.135 -1.90665 3.05246 0
M  V30 8878 C 816.743 -1.11415 4.33925 0
M  V30 8879 C 818.487 -2.63719 3.32645 0
M  V30 8880 C 816.394 -1.96852 5.57677 0
M  V30 8881 H 815.324 -0.393676 0.643067 0
M  V30 8882 H 817.975 -0.302003 1.80998 0
M  V30 8883 H 816.357 -2.68864 2.90737 0
M  V30 8884 H 817.531 -0.378956 4.59239 0
M  V30 8885 H 815.846 -0.499853 4.13389 0
M  V30 8886 H 818.443 -3.27974 4.223 0
M  V30 8887 H 818.786 -3.32047 2.51098 0
M  V30 8888 H 819.319 -1.92574 3.48081 0
M  V30 8889 H 816.058 -1.33009 6.41864 0
M  V30 8890 H 815.578 -2.68069 5.36562 0
M  V30 8891 H 817.257 -2.55127 5.94575 0
M  V30 8892 N 817.389 -1.46805 -0.573248 0
M  V30 8893 C 818.635 -1.5283 -1.33307 0
M  V30 8894 C 818.968 -0.183287 -1.93333 0
M  V30 8895 O 818.243 0.806354 -1.76998 0
M  V30 8896 C 818.526 -2.63414 -2.45531 0
M  V30 8897 C 818.379 -4.07478 -1.90478 0
M  V30 8898 C 819.698 -2.70014 -3.47535 0
M  V30 8899 H 816.817 -0.556371 -0.483343 0
M  V30 8900 H 819.459 -1.78787 -0.643066 0
M  V30 8901 H 817.609 -2.41412 -3.04389 0
M  V30 8902 H 819.281 -4.40795 -1.36004 0
M  V30 8903 H 817.524 -4.16511 -1.21248 0
M  V30 8904 H 818.195 -4.80598 -2.71531 0
M  V30 8905 H 820.671 -2.89817 -2.98572 0
M  V30 8906 H 819.547 -3.49192 -4.23504 0
M  V30 8907 H 819.808 -1.76436 -4.05367 0
M  V30 8908 N 818.867 0.818669 -1.34668 0
M  V30 8909 C 820.114 1.57512 -1.27264 0
M  V30 8910 C 820.442 1.93871 0.156254 0
M  V30 8911 O 819.697 1.60582 1.11857 0
M  V30 8912 C 819.996 2.88245 -2.11304 0
M  V30 8913 C 819.662 2.71159 -3.60255 0
M  V30 8914 C 818.324 2.66207 -4.00858 0
M  V30 8915 C 820.676 2.54538 -4.54819 0
M  V30 8916 C 818.004 2.4256 -5.34211 0
M  V30 8917 C 820.356 2.32421 -5.88356 0
M  V30 8918 C 819.02 2.25884 -6.28118 0
M  V30 8919 H 818.29 0.576378 -0.465692 0
M  V30 8920 H 820.937 0.9469 -1.66451 0
M  V30 8921 H 819.242 3.55381 -1.64958 0
M  V30 8922 H 820.939 3.45869 -2.02919 0
M  V30 8923 H 817.529 2.75856 -3.28027 0
M  V30 8924 H 821.713 2.57384 -4.24343 0
M  V30 8925 H 816.969 2.35959 -5.64033 0
M  V30 8926 H 821.143 2.18548 -6.61218 0
M  V30 8927 H 818.77 2.07322 -7.31383 0
M  V30 8928 N 820.346 1.18468 1.03938 0
M  V30 8929 C 821.757 0.984808 1.58614 0
M  V30 8930 C 822.108 -0.465165 1.90606 0
M  V30 8931 O 821.233 -1.34274 1.69704 0
M  V30 8932 C 821.828 1.78135 2.8819 0
M  V30 8933 C 820.387 1.62579 3.39478 0
M  V30 8934 C 819.534 1.77501 2.13046 0
M  V30 8935 H 822.485 1.32993 0.865944 0
M  V30 8936 H 822.506 1.27119 3.58638 0
M  V30 8937 H 822.018 2.83661 2.64874 0
M  V30 8938 H 820.119 0.59595 3.67803 0
M  V30 8939 H 820.232 2.42463 4.13217 0
M  V30 8940 H 818.596 1.2046 2.24414 0
M  V30 8941 H 819.379 2.84464 1.92185 0
M  V30 8942 N 821.824 -1.22873 0.986916 0
M  V30 8943 C 822.787 -2.2281 0.537442 0
M  V30 8944 C 823.787 -1.56331 -0.37646 0
M  V30 8945 O 824.977 -1.73376 -0.169247 0
M  V30 8946 C 822.109 -3.40195 -0.219082 0
M  V30 8947 H 823.302 -2.64089 1.42116 0
M  V30 8948 H 820.855 -1.35819 0.773488 0
M  V30 8949 H 821.59 -3.04381 -1.11905 0
M  V30 8950 H 821.375 -3.89657 0.437026 0
M  V30 8951 H 822.865 -4.14326 -0.521926 0
M  V30 8952 N 823.302 -0.75937 -1.38099 0
M  V30 8953 C 824.55 -0.317485 -1.99591 0
M  V30 8954 C 824.871 1.10628 -1.60581 0
M  V30 8955 O 824.141 1.7575 -0.865378 0
M  V30 8956 H 822.721 -0.114397 -0.738189 0
M  V30 8957 H 825.383 -0.974749 -1.68774 0
M  V30 8958 H 824.479 -0.385227 -3.09713 0
M  V30 8959 N 824.78 1.49157 -0.508906 0
M  V30 8960 C 826.029 2.0167 0.0346854 0
M  V30 8961 C 826.342 1.39302 1.37311 0
M  V30 8962 O 827.548 1.83189 2.00385 0
M  V30 8963 C 826.004 3.59725 0.112261 0
M  V30 8964 C 825.612 4.31069 -1.21999 0
M  V30 8965 C 827.356 4.20155 0.605798 0
M  V30 8966 C 825.263 5.81001 -1.10415 0
M  V30 8967 H 824.193 0.753814 0.0167355 0
M  V30 8968 H 826.844 1.7162 -0.649518 0
M  V30 8969 H 825.226 3.86525 0.861087 0
M  V30 8970 H 826.4 4.15962 -1.98273 0
M  V30 8971 H 824.715 3.82418 -1.64759 0
M  V30 8972 H 827.312 5.29964 0.710102 0
M  V30 8973 H 827.655 3.84051 1.60656 0
M  V30 8974 H 828.188 3.97705 -0.0867239 0
M  V30 8975 H 824.927 6.21643 -2.07941 0
M  V30 8976 H 824.447 5.9858 -0.382428 0
M  V30 8977 H 826.126 6.42207 -0.786116 0
M  V30 8978 N 826.258 0.243083 1.55714 0
M  V30 8979 C 827.188 -0.652336 2.24203 0
M  V30 8980 C 828.169 -1.1843 1.221 0
M  V30 8981 O 829.354 -1.22435 1.50743 0
M  V30 8982 C 826.484 -1.85111 2.93856 0
M  V30 8983 C 825.438 -1.45208 4.02615 0
M  V30 8984 C 824.764 -2.73137 4.59674 0
M  V30 8985 C 826.064 -0.625988 5.18535 0
M  V30 8986 H 827.758 -0.0812504 2.9929 0
M  V30 8987 H 825.304 -0.0376388 1.43951 0
M  V30 8988 H 827.257 -2.48314 3.40468 0
M  V30 8989 H 825.981 -2.44751 2.16251 0
M  V30 8990 H 824.64 -0.843406 3.56766 0
M  V30 8991 H 824.288 -3.30967 3.78774 0
M  V30 8992 H 823.988 -2.47163 5.33089 0
M  V30 8993 H 825.512 -3.37245 5.09017 0
M  V30 8994 H 826.926 -1.16223 5.61396 0
M  V30 8995 H 825.323 -0.462465 5.98315 0
M  V30 8996 H 826.393 0.362652 4.83542 0
M  V30 8997 N 827.736 -1.57571 -0.0300757 0
M  V30 8998 C 828.668 -2.0329 -1.05857 0
M  V30 8999 C 829.681 -0.945543 -1.32527 0
M  V30 9000 O 830.87 -1.22287 -1.30032 0
M  V30 9001 C 827.97 -2.39234 -2.40042 0
M  V30 9002 C 827.143 -3.70337 -2.32743 0
M  V30 9003 C 826.202 -3.93482 -3.49369 0
M  V30 9004 O 825.228 -4.64551 -3.28909 0
M  V30 9005 N 826.43 -3.39042 -4.71201 0
M  V30 9006 H 829.195 -2.9214 -0.668897 0
M  V30 9007 H 826.756 -1.60425 -0.218038 0
M  V30 9008 H 828.748 -2.51856 -3.16782 0
M  V30 9009 H 827.318 -1.5606 -2.70858 0
M  V30 9010 H 826.538 -3.68079 -1.41109 0
M  V30 9011 H 827.826 -4.56343 -2.25007 0
M  V30 9012 H 827.224 -2.81434 -4.90725 0
M  V30 9013 H 825.781 -3.57045 -5.45309 0
M  V30 9014 N 829.214 0.302327 -1.54673 0
M  V30 9015 C 830.625 0.875409 -1.64904 0
M  V30 9016 C 830.976 1.88132 -0.55684 0
M  V30 9017 O 830.101 2.14215 0.306754 0
M  V30 9018 C 830.696 1.59457 -2.9893 0
M  V30 9019 C 829.255 2.11607 -3.11287 0
M  V30 9020 C 828.402 0.948324 -2.6058 0
M  V30 9021 H 831.353 0.079362 -1.58501 0
M  V30 9022 H 831.374 2.46005 -2.90279 0
M  V30 9023 H 830.886 0.8622 -3.78402 0
M  V30 9024 H 828.987 2.87895 -2.36532 0
M  V30 9025 H 829.1 2.35151 -4.17422 0
M  V30 9026 H 827.464 1.33352 -2.17001 0
M  V30 9027 H 828.247 0.229936 -3.42529 0
M  V30 9028 N 830.692 1.47107 0.565454 0
M  V30 9029 C 832.103 1.47266 1.1476 0
M  V30 9030 C 832.454 0.222841 1.9493 0
M  V30 9031 O 831.579 -0.672862 2.05673 0
M  V30 9032 C 832.174 2.66822 2.08785 0
M  V30 9033 C 830.733 2.69967 2.62288 0
M  V30 9034 C 829.88 2.40236 1.38499 0
M  V30 9035 H 832.831 1.54736 0.352479 0
M  V30 9036 H 832.852 2.43323 2.92531 0
M  V30 9037 H 832.364 3.5777 1.50408 0
M  V30 9038 H 830.465 1.83137 3.24487 0
M  V30 9039 H 830.578 3.70426 3.03845 0
M  V30 9040 H 828.942 1.90648 1.68895 0
M  V30 9041 H 829.725 3.33381 0.819274 0
M  V30 9042 N 832.17 -0.811516 1.35101 0
M  V30 9043 C 833.417 -1.56835 1.28098 0
M  V30 9044 C 833.745 -1.93951 -0.14597 0
M  V30 9045 O 833 -1.61173 -1.11004 0
M  V30 9046 C 833.299 -2.87121 2.1283 0
M  V30 9047 C 832.965 -2.69245 3.61688 0
M  V30 9048 C 831.627 -2.64078 4.02264 0
M  V30 9049 C 833.979 -2.52122 4.56162 0
M  V30 9050 C 831.307 -2.39724 5.3549 0
M  V30 9051 C 833.659 -2.29298 5.89581 0
M  V30 9052 C 832.323 -2.2255 6.29307 0
M  V30 9053 H 831.593 -0.5739 0.468742 0
M  V30 9054 H 834.24 -0.93806 1.66951 0
M  V30 9055 H 832.545 -3.54502 1.66841 0
M  V30 9056 H 834.242 -3.44788 2.0475 0
M  V30 9057 H 830.832 -2.74112 3.29485 0
M  V30 9058 H 835.016 -2.5513 4.25702 0
M  V30 9059 H 830.272 -2.32965 5.65276 0
M  V30 9060 H 834.446 -2.15038 6.62368 0
M  V30 9061 H 832.073 -2.0344 7.32473 0
M  V30 9062 N 833.648 -1.19017 -1.03309 0
M  V30 9063 C 834.895 -0.990214 -1.76638 0
M  V30 9064 C 835.223 0.479435 -1.88498 0
M  V30 9065 O 834.478 1.37223 -1.39529 0
M  V30 9066 C 834.777 -1.59927 -3.19622 0
M  V30 9067 C 834.443 -3.09632 -3.27779 0
M  V30 9068 C 833.105 -3.50491 -3.29712 0
M  V30 9069 C 835.457 -4.05644 -3.27264 0
M  V30 9070 C 832.785 -4.85921 -3.28782 0
M  V30 9071 C 835.137 -5.41 -3.27875 0
M  V30 9072 C 833.801 -5.81295 -3.28104 0
M  V30 9073 H 833.071 -0.362345 -0.646364 0
M  V30 9074 H 835.718 -1.48197 -1.21284 0
M  V30 9075 H 834.023 -1.0297 -3.78027 0
M  V30 9076 H 835.72 -1.41989 -3.7502 0
M  V30 9077 H 832.31 -2.77073 -3.26999 0
M  V30 9078 H 836.494 -3.75124 -3.24955 0
M  V30 9079 H 831.75 -5.16427 -3.27281 0
M  V30 9080 H 835.924 -6.15157 -3.26428 0
M  V30 9081 H 833.551 -6.86211 -3.27138 0
M  V30 9082 N 835.127 1.22348 -0.993418 0
M  V30 9083 C 836.352 1.95666 -0.687727 0
M  V30 9084 C 836.777 1.72883 0.741161 0
M  V30 9085 O 836.135 1.00837 1.50671 0
M  V30 9086 C 836.183 3.46457 -0.99998 0
M  V30 9087 O 835.287 4.12281 -0.0989386 0
M  V30 9088 H 834.628 0.612102 -0.257346 0
M  V30 9089 H 837.158 1.55428 -1.33054 0
M  V30 9090 H 837.168 3.96976 -0.942035 0
M  V30 9091 H 835.843 3.62365 -2.04118 0
M  V30 9092 H 834.42 3.72295 -0.212413 0
M  V30 9093 N 836.605 0.766683 1.37694 0
M  V30 9094 C 837.568 0.155849 2.2867 0
M  V30 9095 C 838.568 -0.633509 1.47795 0
M  V30 9096 O 839.758 -0.457844 1.68076 0
M  V30 9097 C 836.89 -0.786965 3.31692 0
M  V30 9098 H 838.083 0.957748 2.84196 0
M  V30 9099 H 835.636 0.534554 1.46875 0
M  V30 9100 H 836.371 -1.61406 2.8128 0
M  V30 9101 H 836.156 -0.223182 3.91464 0
M  V30 9102 H 837.646 -1.20994 3.99688 0
M  V30 9103 N 838.083 -1.48885 0.516809 0
M  V30 9104 C 839.015 -2.27357 -0.290061 0
M  V30 9105 C 840.028 -1.34558 -0.916406 0
M  V30 9106 O 841.217 -1.59715 -0.797073 0
M  V30 9107 C 838.317 -3.07496 -1.42476 0
M  V30 9108 C 837.49 -4.27982 -0.902793 0
M  V30 9109 C 836.549 -4.90038 -1.91701 0
M  V30 9110 O 835.575 -5.49643 -1.47922 0
M  V30 9111 N 836.777 -4.811 -3.24843 0
M  V30 9112 H 839.542 -2.97244 0.382884 0
M  V30 9113 H 837.103 -1.58064 0.35032 0
M  V30 9114 H 839.095 -3.45882 -2.10113 0
M  V30 9115 H 837.665 -2.40115 -2.00159 0
M  V30 9116 H 836.885 -3.94167 -0.0508272 0
M  V30 9117 H 838.173 -5.06003 -0.532723 0
M  V30 9118 H 837.571 -4.33801 -3.63088 0
M  V30 9119 H 836.128 -5.23625 -3.8815 0
M  V30 9120 N 839.561 -0.251338 -1.55583 0
M  V30 9121 C 840.493 0.679167 -2.18906 0
M  V30 9122 C 841.506 1.13545 -1.16667 0
M  V30 9123 O 842.695 1.06146 -1.4351 0
M  V30 9124 C 839.795 1.93544 -2.78198 0
M  V30 9125 C 838.968 1.62987 -4.05899 0
M  V30 9126 C 838.027 2.73618 -4.49466 0
M  V30 9127 O 837.053 2.40815 -5.15749 0
M  V30 9128 N 838.255 4.03204 -4.1762 0
M  V30 9129 H 841.02 0.137328 -2.99385 0
M  V30 9130 H 838.581 -0.0714754 -1.61742 0
M  V30 9131 H 840.573 2.66804 -3.04299 0
M  V30 9132 H 839.143 2.38695 -2.0185 0
M  V30 9133 H 838.363 0.732237 -3.8734 0
M  V30 9134 H 839.651 1.40041 -4.89148 0
M  V30 9135 H 839.049 4.32686 -3.64416 0
M  V30 9136 H 837.606 4.72916 -4.48547 0
M  V30 9137 N 841.039 1.57585 0.0217189 0
M  V30 9138 C 842.264 1.94267 0.726309 0
M  V30 9139 C 842.689 0.851904 1.67703 0
M  V30 9140 O 842.047 -0.191792 1.80283 0
M  V30 9141 C 842.095 3.30023 1.45318 0
M  V30 9142 O 841.199 3.22791 2.5667 0
M  V30 9143 H 840.54 0.634777 0.194818 0
M  V30 9144 H 843.07 2.04585 -0.0249985 0
M  V30 9145 H 843.08 3.65084 1.82147 0
M  V30 9146 H 841.755 4.08972 0.755962 0
M  V30 9147 H 840.332 2.99373 2.2233 0
M  V30 9148 N 842.517 -0.29412 1.54831 0
M  V30 9149 C 843.465 -1.38296 1.87021 0
M  V30 9150 C 844.459 -1.5216 0.744557 0
M  V30 9151 O 845.665 -1.54196 0.92864 0
M  V30 9152 H 842.04 -0.462088 0.593278 0
M  V30 9153 H 844.011 -1.08386 2.7802 0
M  V30 9154 C 842.76 -2.74024 2.14023 0
M  V30 9155 H 842.083 -2.6414 3.00117 0
M  V30 9156 H 843.523 -3.49205 2.40482 0
M  V30 9157 C 841.982 -3.23492 0.940982 0
M  V30 9158 O 842.512 -4.01361 0.164937 0
M  V30 9159 N 840.718 -2.80902 0.744467 0
M  V30 9160 H 840.265 -2.17694 1.37721 0
M  V30 9161 H 840.223 -3.14349 -0.0563652 0
M  V30 9162 N 843.995 -1.47404 -0.557645 0
M  V30 9163 C 845.22 -1.57868 -1.34508 0
M  V30 9164 C 845.645 -0.229151 -1.86699 0
M  V30 9165 O 845.003 0.794908 -1.62944 0
M  V30 9166 C 845.051 -2.60712 -2.49122 0
M  V30 9167 O 844.155 -2.15952 -3.51338 0
M  V30 9168 H 843.496 -0.530335 -0.399551 0
M  V30 9169 H 846.026 -1.93181 -0.673954 0
M  V30 9170 H 846.036 -2.81118 -2.95697 0
M  V30 9171 H 844.711 -3.58701 -2.10491 0
M  V30 9172 H 843.288 -2.05644 -3.11071 0
M  V30 9173 N 845.473 0.80434 -1.35529 0
M  V30 9174 C 846.403 1.93086 -1.31301 0
M  V30 9175 C 847.384 1.69068 -0.187044 0
M  V30 9176 O 848.569 1.90399 -0.382359 0
M  V30 9177 C 845.699 3.29867 -1.0865 0
M  V30 9178 C 844.653 3.68373 -2.17911 0
M  V30 9179 C 843.979 5.0334 -1.80423 0
M  V30 9180 C 845.279 3.78516 -3.59893 0
M  V30 9181 H 846.973 1.96882 -2.25561 0
M  V30 9182 H 844.519 0.945841 -1.08581 0
M  V30 9183 H 846.472 4.08281 -1.04331 0
M  V30 9184 H 845.196 3.2642 -0.108359 0
M  V30 9185 H 843.855 2.92247 -2.21331 0
M  V30 9186 H 843.503 4.96399 -0.812213 0
M  V30 9187 H 843.203 5.30074 -2.53565 0
M  V30 9188 H 844.727 5.84191 -1.77633 0
M  V30 9189 H 846.141 4.47155 -3.58783 0
M  V30 9190 H 844.538 4.16721 -4.31814 0
M  V30 9191 H 845.608 2.8001 -3.95882 0
M  V30 9192 N 846.951 1.19563 1.02676 0
M  V30 9193 C 847.899 0.931942 2.13114 0
M  V30 9194 C 848.893 -0.113007 1.69023 0
M  V30 9195 O 850.099 0.0364298 1.79963 0
M  V30 9196 H 846.474 0.283981 0.696318 0
M  V30 9197 H 848.445 1.86991 2.32545 0
M  V30 9198 C 847.194 0.489461 3.44238 0
M  V30 9199 H 846.517 1.28508 3.78584 0
M  V30 9200 H 847.957 0.34408 4.22602 0
M  V30 9201 C 846.416 -0.796761 3.27343 0
M  V30 9202 O 846.946 -1.85767 3.56165 0
M  V30 9203 N 845.152 -0.754824 2.80626 0
M  V30 9204 H 844.699 0.108778 2.5737 0
M  V30 9205 H 844.657 -1.6158 2.69702 0
M  V30 9206 N 848.429 -1.21819 0.999893 0
M  V30 9207 C 849.659 -1.94475 0.697346 0
M  V30 9208 C 850.067 -1.73991 -0.743228 0
M  V30 9209 O 849.41 -1.04042 -1.51397 0
M  V30 9210 C 849.472 -3.47204 0.932181 0
M  V30 9211 C 849.136 -3.91432 2.3586 0
M  V30 9212 C 850.133 -3.98545 3.33853 0
M  V30 9213 C 847.818 -4.23888 2.69489 0
M  V30 9214 C 849.812 -4.37499 4.63545 0
M  V30 9215 C 847.499 -4.62519 3.99399 0
M  V30 9216 C 848.497 -4.69294 4.96238 0
M  V30 9217 O 848.185 -5.07048 6.23825 0
M  V30 9218 H 847.917 -0.625419 0.256567 0
M  V30 9219 H 850.471 -1.55728 1.33933 0
M  V30 9220 H 848.701 -3.85997 0.233025 0
M  V30 9221 H 850.39 -4.01078 0.623807 0
M  V30 9222 H 851.156 -3.73654 3.09205 0
M  V30 9223 H 847.035 -4.17815 1.94812 0
M  V30 9224 H 850.579 -4.42702 5.3913 0
M  V30 9225 H 846.476 -4.86864 4.23833 0
M  V30 9226 H 847.244 -5.25098 6.27865 0
M  V30 9227 N 849.908 -0.773975 -1.37286 0
M  V30 9228 C 851.156 -0.338636 -1.99243 0
M  V30 9229 C 851.477 1.08919 -1.61746 0
M  V30 9230 O 850.747 1.74822 -0.88397 0
M  V30 9231 H 849.327 -0.12222 -0.736934 0
M  V30 9232 H 851.989 -0.992595 -1.67731 0
M  V30 9233 H 851.085 -0.418055 -3.09287 0
M  V30 9234 N 851.386 1.48609 -0.524698 0
M  V30 9235 C 852.634 2.02097 0.0112991 0
M  V30 9236 C 852.955 1.40455 1.35268 0
M  V30 9237 O 852.225 0.56807 1.87483 0
M  V30 9238 H 850.805 0.746966 0.00716426 0
M  V30 9239 H 853.467 1.82378 -0.687329 0
M  V30 9240 H 852.563 3.11855 0.123531 0
M  V30 9241 N 852.864 0.259585 1.55447 0
M  V30 9242 C 854.113 -0.362163 1.98422 0
M  V30 9243 C 854.426 -1.58135 1.1512 0
M  V30 9244 O 855.632 -2.27506 1.48166 0
M  V30 9245 C 854.088 -0.695722 3.53111 0
M  V30 9246 C 853.696 0.502784 4.4517 0
M  V30 9247 C 855.44 -1.28096 4.04712 0
M  V30 9248 C 853.347 0.144674 5.91223 0
M  V30 9249 H 852.277 -0.139092 0.74106 0
M  V30 9250 H 854.928 0.361798 1.79898 0
M  V30 9251 H 853.31 -1.47816 3.67378 0
M  V30 9252 H 854.484 1.27994 4.42667 0
M  V30 9253 H 852.799 1.0038 4.0412 0
M  V30 9254 H 855.396 -1.56243 5.11363 0
M  V30 9255 H 855.739 -2.20969 3.52815 0
M  V30 9256 H 856.272 -0.561146 3.93822 0
M  V30 9257 H 853.011 1.04087 6.47183 0
M  V30 9258 H 852.531 -0.596023 5.96831 0
M  V30 9259 H 854.21 -0.268651 6.46442 0
M  V30 9260 N 854.342 -1.57594 -0.0133615 0
M  V30 9261 C 855.59 -1.89605 -0.699596 0
M  V30 9262 C 855.911 -0.85926 -1.75048 0
M  V30 9263 O 855.181 0.105112 -1.95618 0
M  V30 9264 H 853.761 -0.699776 -0.261385 0
M  V30 9265 H 856.423 -1.94885 0.0244044 0
M  V30 9266 H 855.519 -2.88962 -1.17928 0
M  V30 9267 N 855.82 0.285905 -1.54985 0
M  V30 9268 C 856.753 1.37817 -1.81884 0
M  V30 9269 C 857.731 1.4811 -0.670988 0
M  V30 9270 O 858.915 1.64936 -0.912595 0
M  V30 9271 C 856.042 2.75587 -1.969 0
M  V30 9272 C 855.088 2.82643 -3.19398 0
M  V30 9273 S 855.921 2.43199 -4.7709 0
M  V30 9274 C 857.077 3.82969 -4.95061 0
M  V30 9275 H 857.31 1.14794 -2.74244 0
M  V30 9276 H 854.843 0.484843 -1.4659 0
M  V30 9277 H 856.801 3.54932 -2.06236 0
M  V30 9278 H 855.462 2.9587 -1.05451 0
M  V30 9279 H 854.655 3.8373 -3.26753 0
M  V30 9280 H 854.257 2.11306 -3.08586 0
M  V30 9281 H 856.549 4.78117 -4.80011 0
M  V30 9282 H 857.492 3.80575 -5.97133 0
M  V30 9283 H 857.9 3.73673 -4.23118 0
M  V30 9284 N 857.298 1.47698 0.54982 0
M  V30 9285 C 858.544 1.54931 1.30859 0
M  V30 9286 C 858.877 0.214021 1.93017 0
M  V30 9287 O 858.152 -0.778093 1.78258 0
M  V30 9288 C 858.435 2.67286 2.41309 0
M  V30 9289 C 858.288 4.10457 1.83971 0
M  V30 9290 C 859.607 2.75509 3.43195 0
M  V30 9291 H 856.726 0.56399 0.474431 0
M  V30 9292 H 859.368 1.79787 0.614541 0
M  V30 9293 H 857.518 2.46224 3.0051 0
M  V30 9294 H 859.19 4.42903 1.28974 0
M  V30 9295 H 857.433 4.18387 1.14606 0
M  V30 9296 H 858.104 4.84857 2.63851 0
M  V30 9297 H 860.58 2.94531 2.93923 0
M  V30 9298 H 859.456 3.55886 4.17895 0
M  V30 9299 H 859.717 1.82863 4.02509 0
M  V30 9300 N 858.776 -0.797141 1.35954 0
M  V30 9301 C 860.025 -1.54983 1.29086 0
M  V30 9302 C 860.338 -1.95167 -0.130003 0
M  V30 9303 O 861.544 -2.69596 -0.32101 0
M  V30 9304 C 860 -2.79738 2.26439 0
M  V30 9305 C 859.608 -2.46753 3.73921 0
M  V30 9306 C 861.352 -3.57733 2.28533 0
M  V30 9307 C 859.259 -3.67858 4.63071 0
M  V30 9308 H 858.189 -0.581766 0.479651 0
M  V30 9309 H 860.84 -0.87541 1.61273 0
M  V30 9310 H 859.222 -3.48939 1.87236 0
M  V30 9311 H 860.396 -1.85499 4.21814 0
M  V30 9312 H 858.711 -1.81985 3.74527 0
M  V30 9313 H 861.308 -4.47699 2.92351 0
M  V30 9314 H 861.651 -3.95754 1.29169 0
M  V30 9315 H 862.184 -2.95504 2.66313 0
M  V30 9316 H 858.923 -3.34939 5.63468 0
M  V30 9317 H 858.443 -4.28305 4.19898 0
M  V30 9318 H 860.122 -4.34977 4.78961 0
M  V30 9319 N 860.254 -1.20106 -1.0204 0
M  V30 9320 C 861.502 -1.0069 -1.75231 0
M  V30 9321 C 861.823 0.462491 -1.89436 0
M  V30 9322 O 861.093 1.33455 -1.4341 0
M  V30 9323 H 859.673 -0.369576 -0.649171 0
M  V30 9324 H 862.335 -1.51149 -1.23044 0
M  V30 9325 H 861.431 -1.46205 -2.75736 0
M  V30 9326 N 861.732 1.21287 -1.00634 0
M  V30 9327 C 862.682 2.21541 -0.53886 0
M  V30 9328 C 863.666 1.55842 0.400256 0
M  V30 9329 O 864.858 1.75566 0.224889 0
M  V30 9330 C 861.987 3.43047 0.131796 0
M  V30 9331 C 861.073 4.1593 -0.828419 0
M  V30 9332 N 861.464 4.65359 -1.98178 0
M  V30 9333 C 859.762 4.41281 -0.647083 0
M  V30 9334 C 860.463 5.21079 -2.58557 0
M  V30 9335 N 859.439 5.10531 -1.86705 0
M  V30 9336 H 863.241 2.57413 -1.41831 0
M  V30 9337 H 860.755 1.37109 -0.870338 0
M  V30 9338 H 862.752 4.14079 0.484178 0
M  V30 9339 H 861.412 3.08683 1.00721 0
M  V30 9340 H 862.423 4.60896 -2.3621 0
M  V30 9341 H 859.1 4.17107 0.181139 0
M  V30 9342 H 860.49 5.6977 -3.56107 0
M  V30 9343 N 863.21 0.781244 1.36873 0
M  V30 9344 C 864.12 0.174981 2.33947 0
M  V30 9345 C 865.136 -0.668512 1.60645 0
M  V30 9346 O 866.312 -0.586213 1.9268 0
M  V30 9347 C 863.377 -0.686557 3.39834 0
M  V30 9348 C 862.438 0.174489 4.28945 0
M  V30 9349 C 861.671 -0.646024 5.29776 0
M  V30 9350 O 861.894 -1.88254 5.38439 0
M  V30 9351 O 860.828 -0.0502214 6.01879 0
M  V30 9352 H 864.654 0.977382 2.87543 0
M  V30 9353 H 862.239 0.542559 1.392 0
M  V30 9354 H 864.121 -1.1781 4.04597 0
M  V30 9355 H 862.796 -1.46699 2.8855 0
M  V30 9356 H 861.703 0.712604 3.6725 0
M  V30 9357 H 863.036 0.918232 4.83559 0
M  V30 9358 N 864.689 -1.48329 0.532571 0
M  V30 9359 C 865.938 -2.017 -0.00259705 0
M  V30 9360 C 866.251 -1.41469 -1.35077 0
M  V30 9361 O 867.457 -1.86354 -1.97445 0
M  V30 9362 C 865.913 -3.59858 -0.0550179 0
M  V30 9363 C 865.521 -4.29073 1.28842 0
M  V30 9364 C 867.265 -4.21066 -0.538878 0
M  V30 9365 C 865.172 -5.79171 1.19644 0
M  V30 9366 H 864.102 -0.753985 -0.00474081 0
M  V30 9367 H 866.753 -1.70565 0.676739 0
M  V30 9368 H 865.135 -3.87846 -0.799486 0
M  V30 9369 H 866.309 -4.12755 2.04865 0
M  V30 9370 H 864.624 -3.79748 1.70822 0
M  V30 9371 H 867.221 -5.31026 -0.6257 0
M  V30 9372 H 867.564 -3.86559 -1.54525 0
M  V30 9373 H 868.097 -3.97517 0.149984 0
M  V30 9374 H 864.836 -6.18257 2.17805 0
M  V30 9375 H 864.356 -5.97895 0.477609 0
M  V30 9376 H 866.035 -6.40875 0.888186 0
M  V30 9377 N 866.167 -0.267825 -1.55308 0
M  V30 9378 C 867.395 0.354587 -2.03839 0
M  V30 9379 C 867.81 1.50007 -1.14644 0
M  V30 9380 O 867.167 1.81752 -0.165055 0
M  V30 9381 C 867.218 0.84254 -3.51544 0
M  V30 9382 O 866.939 -0.257318 -4.37344 0
M  V30 9383 C 868.44 1.53351 -4.15931 0
M  V30 9384 H 865.66 0.0818131 -0.665994 0
M  V30 9385 H 868.204 -0.397795 -2.00594 0
M  V30 9386 H 866.359 1.54503 -3.55257 0
M  V30 9387 H 866.773 0.116593 -5.2437 0
M  V30 9388 H 868.247 1.82643 -5.20908 0
M  V30 9389 H 868.724 2.4626 -3.63666 0
M  V30 9390 H 869.33 0.87506 -4.162 0
M  V30 9391 N 867.645 1.57599 0.00500368 0
M  V30 9392 C 868.595 2.04585 1.00643 0
M  V30 9393 C 869.579 0.939622 1.30614 0
M  V30 9394 O 870.771 1.20342 1.29796 0
M  V30 9395 C 867.9 2.5486 2.30002 0
M  V30 9396 C 866.986 3.7235 2.03017 0
M  V30 9397 N 867.377 4.84218 1.46173 0
M  V30 9398 C 865.675 3.80185 2.33185 0
M  V30 9399 C 866.376 5.65688 1.35544 0
M  V30 9400 N 865.352 5.11536 1.83933 0
M  V30 9401 H 869.154 2.8849 0.561332 0
M  V30 9402 H 866.668 1.61026 0.210808 0
M  V30 9403 H 868.665 2.86794 3.0258 0
M  V30 9404 H 867.325 1.72372 2.75169 0
M  V30 9405 H 868.336 5.0517 1.1412 0
M  V30 9406 H 865.013 3.08543 2.81261 0
M  V30 9407 H 866.403 6.65588 0.918791 0
M  V30 9408 N 869.123 -0.277682 1.55134 0
M  V30 9409 C 870.371 -1.00791 1.75173 0
M  V30 9410 C 870.692 -1.86987 0.553266 0
M  V30 9411 O 869.962 -1.91079 -0.43195 0
M  V30 9412 H 868.542 -0.375129 0.645978 0
M  V30 9413 H 871.204 -0.303041 1.9253 0
M  V30 9414 H 870.3 -1.64756 2.6507 0
M  V30 9415 N 870.601 -1.47988 -0.541979 0
M  V30 9416 C 871.848 -1.55393 -1.29843 0
M  V30 9417 C 872.176 -0.222668 -1.93221 0
M  V30 9418 O 871.431 0.785936 -1.79225 0
M  V30 9419 C 871.73 -2.63189 -2.41798 0
M  V30 9420 C 871.396 -4.05999 -1.96151 0
M  V30 9421 C 870.058 -4.44872 -1.83419 0
M  V30 9422 C 872.41 -4.95545 -1.61507 0
M  V30 9423 C 869.738 -5.71108 -1.34361 0
M  V30 9424 C 872.09 -6.22259 -1.13915 0
M  V30 9425 C 870.754 -6.59998 -0.997911 0
M  V30 9426 H 870.024 -0.568623 -0.47513 0
M  V30 9427 H 872.671 -1.81654 -0.606142 0
M  V30 9428 H 870.976 -2.30743 -3.16647 0
M  V30 9429 H 872.673 -2.66138 -2.99953 0
M  V30 9430 H 869.263 -3.75294 -2.07008 0
M  V30 9431 H 873.447 -4.662 -1.70209 0
M  V30 9432 H 868.703 -5.99083 -1.22103 0
M  V30 9433 H 872.877 -6.91048 -0.861755 0
M  V30 9434 H 870.504 -7.57704 -0.615561 0
M  V30 9435 N 872.079 0.78992 -1.36375 0
M  V30 9436 C 873.356 1.53584 -1.21126 0
M  V30 9437 C 873.736 2.10124 0.202785 0
M  V30 9438 O 873.084 1.93936 1.20835 0
M  V30 9439 C 873.294 2.63117 -2.29282 0
M  V30 9440 C 874.642 3.31013 -2.65924 0
M  V30 9441 O 875.666 2.734 -2.28321 0
M  V30 9442 O 874.525 4.35129 -3.30643 0
M  V30 9443 H 871.619 0.679366 -0.471583 0
M  V30 9444 H 874.165 0.828446 -1.48104 0
M  V30 9445 H 872.937 2.19329 -3.24053 0
M  V30 9446 H 872.56 3.41476 -2.03666 0
M  V30 9447 N 873.557 1.20646 1.01402 0
M  V30 9448 C 874.834 0.927176 1.72229 0
M  V30 9449 C 875.214 -0.563382 2.03443 0
M  V30 9450 O 874.562 -1.52576 1.70096 0
M  V30 9451 C 874.772 1.80285 2.98828 0
M  V30 9452 C 876.12 2.04624 3.72041 0
M  V30 9453 O 877.144 1.77559 3.0879 0
M  V30 9454 O 876.003 2.50347 4.85787 0
M  V30 9455 H 873.097 0.346891 0.75073 0
M  V30 9456 H 875.643 1.31532 1.07227 0
M  V30 9457 H 874.415 2.81204 2.72102 0
M  V30 9458 H 874.038 1.41495 3.71571 0
M  V30 9459 N 875.035 -1.20752 1.01276 0
M  V30 9460 C 875.983 -2.25432 0.572989 0
M  V30 9461 C 876.977 -1.64935 -0.386354 0
M  V30 9462 O 878.183 -1.7816 -0.256696 0
M  V30 9463 H 874.558 -0.733229 0.166972 0
M  V30 9464 H 876.529 -2.59856 1.46687 0
M  V30 9465 C 875.278 -3.47615 -0.0768249 0
M  V30 9466 H 874.601 -3.94442 0.652354 0
M  V30 9467 H 876.041 -4.22572 -0.3477 0
M  V30 9468 C 874.5 -3.1003 -1.31845 0
M  V30 9469 O 875.03 -3.21216 -2.41211 0
M  V30 9470 N 873.236 -2.64616 -1.20111 0
M  V30 9471 H 872.783 -2.55714 -0.311184 0
M  V30 9472 H 872.741 -2.39838 -2.03286 0
M  V30 9473 N 876.513 -0.788492 -1.36457 0
M  V30 9474 C 877.761 -0.359749 -1.98872 0
M  V30 9475 C 878.082 1.07197 -1.62892 0
M  V30 9476 O 877.352 1.73875 -0.902463 0
M  V30 9477 H 875.932 -0.130029 -0.735596 0
M  V30 9478 H 878.594 -1.01033 -1.66668 0
M  V30 9479 H 877.69 -0.450835 -3.08827 0
M  V30 9480 N 877.991 1.48044 -0.54043 0
M  V30 9481 C 879.407 1.58354 -0.199006 0
M  V30 9482 C 879.607 1.54118 1.29807 0
M  V30 9483 O 878.663 1.43573 2.07709 0
M  V30 9484 C 879.976 2.89563 -0.810797 0
M  V30 9485 C 881.524 3.03113 -0.780486 0
M  V30 9486 C 881.999 4.36997 -1.37104 0
M  V30 9487 N 883.49 4.43591 -1.33347 0
M  V30 9488 C 884.225 5.45714 -1.76021 0
M  V30 9489 N 883.721 6.54738 -2.26473 0
M  V30 9490 N 885.514 5.36659 -1.67194 0
M  V30 9491 H 877.665 1.49041 -1.51329 0
M  V30 9492 H 879.928 0.708309 -0.630081 0
M  V30 9493 H 879.634 2.9835 -1.86227 0
M  V30 9494 H 879.508 3.76053 -0.293977 0
M  V30 9495 H 881.895 2.93932 0.262246 0
M  V30 9496 H 881.976 2.18207 -1.33489 0
M  V30 9497 H 881.62 4.46932 -2.41276 0
M  V30 9498 H 881.55 5.20607 -0.792229 0
M  V30 9499 H 884.041 3.65391 -0.964259 0
M  V30 9500 H 884.354 7.28814 -2.57002 0
M  V30 9501 H 882.699 6.55673 -2.30473 0
M  V30 9502 H 885.89 4.50382 -1.27569 0
M  V30 9503 H 886.063 6.16113 -2.00771 0
M  V30 9504 N 879.47 0.276058 1.55163 0
M  V30 9505 C 880.418 -0.626978 2.2399 0
M  V30 9506 C 881.412 -1.15708 1.23725 0
M  V30 9507 O 882.618 -1.1106 1.41653 0
M  V30 9508 H 878.993 -0.220742 0.718872 0
M  V30 9509 H 880.964 -0.0236569 2.98391 0
M  V30 9510 C 879.713 -1.79935 2.97521 0
M  V30 9511 H 879.036 -1.40064 3.74463 0
M  V30 9512 H 880.476 -2.40781 3.48999 0
M  V30 9513 C 878.935 -2.68838 2.03046 0
M  V30 9514 O 879.465 -3.69224 1.58229 0
M  V30 9515 N 877.671 -2.36028 1.69527 0
M  V30 9516 H 877.218 -1.54442 2.06169 0
M  V30 9517 H 877.176 -2.95782 1.06586 0
M  V30 9518 N 880.948 -1.576 0.00335426 0
M  V30 9519 C 882.195 -1.90713 -0.680791 0
M  V30 9520 C 882.523 -0.877263 -1.73592 0
M  V30 9521 O 881.778 0.117497 -1.95347 0
M  V30 9522 C 882.077 -3.3058 -1.35837 0
M  V30 9523 C 881.743 -4.48786 -0.436111 0
M  V30 9524 C 880.405 -4.80855 -0.182195 0
M  V30 9525 C 882.757 -5.20821 0.198677 0
M  V30 9526 C 880.085 -5.8233 0.714747 0
M  V30 9527 C 882.437 -6.23252 1.08351 0
M  V30 9528 C 881.101 -6.53776 1.34658 0
M  V30 9529 H 880.371 -0.697869 -0.249119 0
M  V30 9530 H 883.018 -1.91407 0.0596011 0
M  V30 9531 H 881.323 -3.26026 -2.17289 0
M  V30 9532 H 883.02 -3.53462 -1.89383 0
M  V30 9533 H 879.61 -4.23731 -0.644186 0
M  V30 9534 H 883.794 -4.96298 0.0155259 0
M  V30 9535 H 879.05 -6.04339 0.926529 0
M  V30 9536 H 883.224 -6.78199 1.58172 0
M  V30 9537 H 880.851 -7.32225 2.04328 0
M  V30 9538 N 882.426 0.269451 -1.5528 0
M  V30 9539 C 883.374 1.35303 -1.89198 0
M  V30 9540 C 884.368 1.50956 -0.768671 0
M  V30 9541 O 885.574 1.52699 -0.953054 0
M  V30 9542 H 881.949 0.452591 -0.600554 0
M  V30 9543 H 883.92 1.03949 -2.79709 0
M  V30 9544 C 882.669 2.70585 -2.18356 0
M  V30 9545 H 881.992 2.59332 -3.04281 0
M  V30 9546 H 883.432 3.45335 -2.46007 0
M  V30 9547 C 881.891 3.21954 -0.992327 0
M  V30 9548 O 882.421 4.01048 -0.228769 0
M  V30 9549 N 880.627 2.79682 -0.789062 0
M  V30 9550 H 880.174 2.15475 -1.41167 0
M  V30 9551 H 880.132 3.14399 0.00634776 0
M  V30 9552 N 883.904 1.48273 0.534124 0
M  V30 9553 C 884.851 1.62487 1.6391 0
M  V30 9554 C 885.821 0.467062 1.59398 0
M  V30 9555 O 887.006 0.690029 1.77885 0
M  V30 9556 C 884.146 1.66671 3.02183 0
M  V30 9557 C 883.259 2.9353 3.16961 0
M  V30 9558 C 882.394 2.88902 4.45768 0
M  V30 9559 C 881.433 4.10483 4.54059 0
M  V30 9560 N 880.57 4.03956 5.74251 0
M  V30 9561 H 885.41 2.56851 1.51101 0
M  V30 9562 H 882.947 1.27381 0.735704 0
M  V30 9563 H 884.905 1.67079 3.82283 0
M  V30 9564 H 883.535 0.758011 3.13774 0
M  V30 9565 H 882.587 3.02886 2.3014 0
M  V30 9566 H 883.899 3.83501 3.18949 0
M  V30 9567 H 883.053 2.87688 5.34154 0
M  V30 9568 H 881.792 1.96652 4.46295 0
M  V30 9569 H 880.797 4.11977 3.64081 0
M  V30 9570 H 882.022 5.03887 4.55274 0
M  V30 9571 H 879.968 3.14525 5.75682 0
M  V30 9572 H 879.885 4.87628 5.77715 0
M  V30 9573 H 881.153 4.06795 6.64935 0
M  V30 9574 N 885.382 -0.782676 1.36792 0
M  V30 9575 C 886.659 -1.52939 1.21939 0
M  V30 9576 C 887.039 -2.10228 -0.191639 0
M  V30 9577 O 886.387 -1.94574 -1.19805 0
M  V30 9578 C 886.597 -2.61898 2.30674 0
M  V30 9579 C 887.945 -3.29598 2.67676 0
M  V30 9580 O 888.969 -2.72186 2.29768 0
M  V30 9581 O 887.828 -4.3337 3.32946 0
M  V30 9582 H 884.922 -0.676856 0.47518 0
M  V30 9583 H 887.468 -0.82058 1.48542 0
M  V30 9584 H 886.24 -2.17607 3.25212 0
M  V30 9585 H 885.863 -3.40391 2.05475 0
M  V30 9586 N 886.86 -1.21182 -1.00761 0
M  V30 9587 C 888.108 -1.02543 -1.74153 0
M  V30 9588 C 888.429 0.442372 -1.89916 0
M  V30 9589 O 887.699 1.31927 -1.44818 0
M  V30 9590 H 886.279 -0.37644 -0.645214 0
M  V30 9591 H 888.941 -1.52446 -1.21434 0
M  V30 9592 H 888.037 -1.49122 -2.7417 0
M  V30 9593 N 888.338 1.20213 -1.01915 0
M  V30 9594 C 889.615 1.85348 -0.62495 0
M  V30 9595 C 889.995 1.91101 0.896854 0
M  V30 9596 O 889.343 1.42075 1.78961 0
M  V30 9597 C 889.553 3.24849 -1.27571 0
M  V30 9598 C 890.901 4.01107 -1.39277 0
M  V30 9599 O 891.925 3.34211 -1.23212 0
M  V30 9600 O 890.784 5.20914 -1.6526 0
M  V30 9601 H 887.878 0.798303 -0.215965 0
M  V30 9602 H 890.424 1.27782 -1.11669 0
M  V30 9603 H 889.196 3.1544 -2.31545 0
M  V30 9604 H 888.819 3.90049 -0.77122 0
M  V30 9605 N 889.816 0.795718 1.36037 0
M  V30 9606 C 890.746 0.212803 2.32528 0
M  V30 9607 C 891.727 -0.655716 1.56953 0
M  V30 9608 O 892.912 -0.588238 1.85077 0
M  V30 9609 C 890.042 -0.648189 3.41198 0
M  V30 9610 C 888.996 0.120948 4.27829 0
M  V30 9611 C 888.322 -0.861044 5.27722 0
M  V30 9612 C 889.622 1.31375 5.05508 0
M  V30 9613 H 891.316 1.01893 2.81528 0
M  V30 9614 H 888.862 0.491422 1.35355 0
M  V30 9615 H 890.815 -1.06597 4.07695 0
M  V30 9616 H 889.539 -1.48709 2.9078 0
M  V30 9617 H 888.198 0.519777 3.62897 0
M  V30 9618 H 887.846 -1.69515 4.73575 0
M  V30 9619 H 887.546 -0.350808 5.86552 0
M  V30 9620 H 889.07 -1.27726 5.97092 0
M  V30 9621 H 890.484 0.971406 5.6501 0
M  V30 9622 H 888.881 1.75772 5.73781 0
M  V30 9623 H 889.951 2.10593 4.36782 0
M  V30 9624 N 891.294 -1.47756 0.548274 0
M  V30 9625 C 892.54 -2.02789 0.0209265 0
M  V30 9626 C 892.873 -1.42268 -1.32187 0
M  V30 9627 O 892.148 -0.575001 -1.85806 0
M  V30 9628 C 892.431 -3.60007 -0.0816674 0
M  V30 9629 C 892.284 -4.30977 1.28759 0
M  V30 9630 C 893.603 -4.32777 -0.799515 0
M  V30 9631 H 890.722 -0.736944 0.00907884 0
M  V30 9632 H 893.364 -1.76282 0.708839 0
M  V30 9633 H 891.514 -3.82722 -0.667537 0
M  V30 9634 H 893.186 -4.19629 1.91597 0
M  V30 9635 H 891.429 -3.9168 1.86466 0
M  V30 9636 H 892.1 -5.39488 1.16861 0
M  V30 9637 H 894.576 -4.15001 -0.30216 0
M  V30 9638 H 893.452 -5.42431 -0.840239 0
M  V30 9639 H 893.713 -4.01358 -1.85375 0
M  V30 9640 N 892.772 -0.284283 -1.55015 0
M  V30 9641 C 894.049 0.382125 -1.91831 0
M  V30 9642 C 894.429 1.73007 -1.20962 0
M  V30 9643 O 893.777 2.25962 -0.339594 0
M  V30 9644 C 893.987 0.513341 -3.45204 0
M  V30 9645 C 895.335 0.791989 -4.17148 0
M  V30 9646 O 896.359 0.597799 -3.51148 0
M  V30 9647 O 895.218 1.16394 -5.33961 0
M  V30 9648 H 892.312 0.210707 -0.799707 0
M  V30 9649 H 894.858 -0.331111 -1.66438 0
M  V30 9650 H 893.63 -0.434911 -3.88876 0
M  V30 9651 H 893.253 1.27569 -3.76579 0
M  V30 9652 N 894.251 1.57596 -0.0117121 0
M  V30 9653 C 895.497 1.92189 0.665966 0
M  V30 9654 C 895.852 0.887145 1.70726 0
M  V30 9655 O 895.145 -0.099151 1.91343 0
M  V30 9656 C 895.339 3.31296 1.34082 0
M  V30 9657 C 895.168 4.48205 0.366406 0
M  V30 9658 C 893.938 5.05293 -0.0274458 0
M  V30 9659 C 896.136 5.12951 -0.37219 0
M  V30 9660 N 894.118 6.0572 -0.998846 0
M  V30 9661 C 895.489 6.08318 -1.1979 0
M  V30 9662 C 897.544 4.95998 -0.434768 0
M  V30 9663 C 896.247 6.88555 -2.0805 0
M  V30 9664 C 898.273 5.7683 -1.30464 0
M  V30 9665 C 897.635 6.71798 -2.11816 0
M  V30 9666 H 893.734 0.751422 0.216537 0
M  V30 9667 H 896.318 1.94556 -0.0748079 0
M  V30 9668 H 894.489 3.2978 2.05182 0
M  V30 9669 H 896.221 3.53285 1.97413 0
M  V30 9670 H 892.976 4.72354 0.343382 0
M  V30 9671 H 893.4 6.60619 -1.48027 0
M  V30 9672 H 898.042 4.22417 0.179925 0
M  V30 9673 H 895.76 7.61453 -2.70581 0
M  V30 9674 H 899.346 5.6575 -1.35712 0
M  V30 9675 H 898.226 7.33256 -2.78037 0
M  V30 9676 N 895.729 -0.261212 1.5542 0
M  V30 9677 C 896.975 -0.988533 1.77763 0
M  V30 9678 C 897.33 -1.83504 0.578286 0
M  V30 9679 O 896.623 -1.8674 -0.428808 0
M  V30 9680 C 896.817 -1.89395 3.03091 0
M  V30 9681 C 896.646 -1.13658 4.351 0
M  V30 9682 C 895.416 -0.847467 4.98143 0
M  V30 9683 C 897.614 -0.52118 5.11652 0
M  V30 9684 N 895.596 -0.0645324 6.13866 0
M  V30 9685 C 896.967 0.127016 6.1987 0
M  V30 9686 C 899.022 -0.430206 4.96038 0
M  V30 9687 C 897.725 0.857433 7.14171 0
M  V30 9688 C 899.751 0.286645 5.90705 0
M  V30 9689 C 899.113 0.923534 6.9832 0
M  V30 9690 H 895.212 -0.343317 0.702608 0
M  V30 9691 H 897.796 -0.263035 1.92915 0
M  V30 9692 H 895.967 -2.5916 2.89293 0
M  V30 9693 H 897.699 -2.55576 3.13788 0
M  V30 9694 H 894.454 -1.15569 4.59283 0
M  V30 9695 H 894.878 0.31461 6.76269 0
M  V30 9696 H 899.52 -0.908278 4.12929 0
M  V30 9697 H 897.238 1.34715 7.96792 0
M  V30 9698 H 900.824 0.357511 5.80701 0
M  V30 9699 H 899.704 1.46939 7.70311 0
M  V30 9700 N 897.207 -1.48554 -0.526253 0
M  V30 9701 C 898.435 -1.60429 -1.30652 0
M  V30 9702 C 898.85 -0.265963 -1.86917 0
M  V30 9703 O 898.207 0.745262 -1.6659 0
M  V30 9704 C 898.258 -2.65377 -2.45473 0
M  V30 9705 O 897.979 -3.94017 -1.91527 0
M  V30 9706 C 899.48 -2.87726 -3.37237 0
M  V30 9707 H 896.7 -0.540817 -0.397187 0
M  V30 9708 H 899.244 -1.94409 -0.634461 0
M  V30 9709 H 897.399 -2.34246 -3.08557 0
M  V30 9710 H 897.813 -4.51623 -2.66715 0
M  V30 9711 H 899.287 -3.64951 -4.14144 0
M  V30 9712 H 899.764 -1.96688 -3.92696 0
M  V30 9713 H 900.37 -3.20176 -2.79942 0
M  V30 9714 N 898.685 0.775411 -1.37205 0
M  V30 9715 C 899.617 1.89761 -1.28544 0
M  V30 9716 C 900.63 1.61542 -0.201996 0
M  V30 9717 O 901.819 1.72528 -0.457848 0
M  V30 9718 C 898.919 3.24904 -0.963885 0
M  V30 9719 C 898.092 3.80796 -2.15205 0
M  V30 9720 C 897.151 4.94407 -1.80135 0
M  V30 9721 O 896.177 5.10185 -2.52388 0
M  V30 9722 N 897.379 5.75722 -0.743298 0
M  V30 9723 H 900.144 1.97708 -2.25237 0
M  V30 9724 H 897.705 0.954348 -1.30782 0
M  V30 9725 H 899.697 3.9842 -0.710182 0
M  V30 9726 H 898.267 3.12483 -0.085632 0
M  V30 9727 H 897.487 2.99101 -2.56773 0
M  V30 9728 H 898.775 4.1487 -2.94552 0
M  V30 9729 H 898.173 5.65518 -0.143655 0
M  V30 9730 H 896.73 6.4948 -0.549446 0
M  V30 9731 N 900.163 1.21714 1.00117 0
M  V30 9732 C 901.095 0.937627 2.09144 0
M  V30 9733 C 902.108 -0.0806291 1.626 0
M  V30 9734 O 903.297 0.152348 1.77849 0
M  V30 9735 C 900.397 0.387036 3.36683 0
M  V30 9736 C 899.57 1.46054 4.12295 0
M  V30 9737 C 898.629 0.918505 5.18122 0
M  V30 9738 O 897.655 1.60282 5.46167 0
M  V30 9739 N 898.857 -0.264308 5.79898 0
M  V30 9740 H 901.622 1.87622 2.33705 0
M  V30 9741 H 899.183 1.12291 1.16629 0
M  V30 9742 H 901.175 0.00992825 4.04699 0
M  V30 9743 H 899.745 -0.456467 3.09249 0
M  V30 9744 H 898.965 2.01133 3.39027 0
M  V30 9745 H 900.253 2.18306 4.59587 0
M  V30 9746 H 899.651 -0.837242 5.5947 0
M  V30 9747 H 898.208 -0.582886 6.49188 0
M  V30 9748 N 901.641 -1.19671 1.02551 0
M  V30 9749 C 902.866 -1.93774 0.739363 0
M  V30 9750 C 903.291 -1.74787 -0.695064 0
M  V30 9751 O 902.649 -1.04796 -1.47944 0
M  V30 9752 C 902.697 -3.43684 1.09149 0
M  V30 9753 O 901.801 -4.11874 0.208213 0
M  V30 9754 H 901.142 -0.605064 0.273484 0
M  V30 9755 H 903.672 -1.51846 1.37128 0
M  V30 9756 H 903.682 -3.94339 1.04695 0
M  V30 9757 H 902.357 -3.56826 2.13654 0
M  V30 9758 H 900.934 -3.716 0.311045 0
M  V30 9759 N 903.119 -0.802921 -1.35613 0
M  V30 9760 C 904.082 -0.216422 -2.28176 0
M  V30 9761 C 905.082 0.594101 -1.49422 0
M  V30 9762 O 906.272 0.41312 -1.6923 0
M  V30 9763 C 903.404 0.698746 -3.33662 0
M  V30 9764 H 904.597 -1.03276 -2.81557 0
M  V30 9765 H 902.15 -0.573307 -1.45406 0
M  V30 9766 H 902.885 1.53891 -2.85461 0
M  V30 9767 H 902.67 0.119314 -3.91918 0
M  V30 9768 H 904.16 1.10354 -4.02755 0
M  V30 9769 N 904.597 1.47463 -0.556102 0
M  V30 9770 C 905.822 2.07371 -0.0344729 0
M  V30 9771 C 906.247 1.40621 1.2493 0
M  V30 9772 O 905.605 0.48082 1.74808 0
M  V30 9773 C 905.653 3.60306 0.145563 0
M  V30 9774 O 904.757 3.94299 1.20839 0
M  V30 9775 H 904.098 0.662052 -0.0508274 0
M  V30 9776 H 906.628 1.89498 -0.771469 0
M  V30 9777 H 906.638 4.06408 0.360112 0
M  V30 9778 H 905.313 4.08288 -0.792089 0
M  V30 9779 H 903.89 3.59944 0.97442 0
M  V30 9780 N 906.075 0.2925 1.54862 0
M  V30 9781 C 907.023 -0.603186 2.24643 0
M  V30 9782 C 908.017 -1.1439 1.24946 0
M  V30 9783 O 909.223 -1.09552 1.42823 0
M  V30 9784 H 905.598 -0.213105 0.721173 0
M  V30 9785 H 907.569 0.00799278 2.98399 0
M  V30 9786 C 906.318 -1.76769 2.99413 0
M  V30 9787 H 905.641 -1.36084 3.75927 0
M  V30 9788 H 907.081 -2.37066 3.51533 0
M  V30 9789 C 905.54 -2.66669 2.05886 0
M  V30 9790 O 906.07 -3.67525 1.62136 0
M  V30 9791 N 904.276 -2.34216 1.7202 0
M  V30 9792 H 903.823 -1.52246 2.07795 0
M  V30 9793 H 903.781 -2.94635 1.09717 0
M  V30 9794 N 907.553 -1.57587 0.0200696 0
M  V30 9795 C 908.8 -1.91424 -0.660525 0
M  V30 9796 C 909.128 -0.895626 -1.72652 0
M  V30 9797 O 908.383 0.096771 -1.95461 0
M  V30 9798 C 908.682 -3.32002 -1.32323 0
M  V30 9799 C 908.348 -4.49223 -0.388487 0
M  V30 9800 C 907.01 -4.81021 -0.131184 0
M  V30 9801 C 909.362 -5.20581 0.253906 0
M  V30 9802 C 906.69 -5.81539 0.776471 0
M  V30 9803 C 909.042 -6.22067 1.14956 0
M  V30 9804 C 907.706 -6.52311 1.41584 0
M  V30 9805 H 906.976 -0.700472 -0.241703 0
M  V30 9806 H 909.623 -1.91333 0.0798991 0
M  V30 9807 H 907.928 -3.28312 -2.13819 0
M  V30 9808 H 909.625 -3.5545 -1.85623 0
M  V30 9809 H 906.215 -4.24391 -0.599207 0
M  V30 9810 H 910.399 -4.96253 0.068164 0
M  V30 9811 H 905.655 -6.03322 0.990575 0
M  V30 9812 H 909.829 -6.76484 1.65357 0
M  V30 9813 H 907.456 -7.30017 2.12083 0
M  V30 9814 N 909.032 0.252966 -1.55557 0
M  V30 9815 C 909.979 1.3131 -1.89806 0
M  V30 9816 C 910.949 1.48121 -0.751633 0
M  V30 9817 O 912.134 1.62202 -1.00474 0
M  V30 9818 C 909.274 2.66467 -2.19293 0
M  V30 9819 C 908.387 2.57714 -3.46709 0
M  V30 9820 C 907.522 3.85184 -3.65796 0
M  V30 9821 C 906.561 3.71023 -4.86835 0
M  V30 9822 N 905.698 4.90371 -5.02474 0
M  V30 9823 H 910.538 1.01402 -2.80217 0
M  V30 9824 H 908.075 0.489462 -1.38718 0
M  V30 9825 H 910.033 3.45132 -2.34392 0
M  V30 9826 H 908.663 2.94536 -1.32093 0
M  V30 9827 H 907.715 1.70651 -3.39974 0
M  V30 9828 H 909.027 2.43158 -4.35517 0
M  V30 9829 H 908.181 4.72292 -3.80822 0
M  V30 9830 H 906.92 4.0263 -2.7521 0
M  V30 9831 H 905.925 2.82299 -4.71792 0
M  V30 9832 H 907.15 3.55078 -5.78875 0
M  V30 9833 H 905.096 5.0819 -4.14824 0
M  V30 9834 H 905.013 4.78423 -5.85361 0
M  V30 9835 H 906.281 5.78995 -5.21905 0
M  V30 9836 N 910.51 1.48831 0.518367 0
M  V30 9837 C 911.42 1.6692 1.64848 0
M  V30 9838 C 912.436 0.551711 1.65022 0
M  V30 9839 O 913.612 0.824251 1.83761 0
M  V30 9840 C 910.677 1.71559 3.01278 0
M  V30 9841 C 909.738 2.9502 3.11868 0
M  V30 9842 C 908.971 2.99428 4.4179 0
M  V30 9843 O 909.194 2.11914 5.29574 0
M  V30 9844 O 908.128 3.91719 4.5699 0
M  V30 9845 H 911.954 2.62623 1.52521 0
M  V30 9846 H 909.539 1.32368 0.692749 0
M  V30 9847 H 911.421 1.77064 3.82396 0
M  V30 9848 H 910.096 0.790316 3.13904 0
M  V30 9849 H 909.003 2.95042 2.30003 0
M  V30 9850 H 910.336 3.8697 3.04163 0
M  V30 9851 N 911.988 -0.768124 1.37614 0
M  V30 9852 C 912.92 -1.89076 1.29548 0
M  V30 9853 C 913.933 -1.61433 0.21056 0
M  V30 9854 O 915.122 -1.72283 0.466992 0
M  V30 9855 C 912.222 -3.24388 0.981102 0
M  V30 9856 C 911.395 -3.79649 2.17222 0
M  V30 9857 C 910.454 -4.93444 1.82754 0
M  V30 9858 O 909.48 -5.0884 2.5509 0
M  V30 9859 N 910.682 -5.75319 0.773819 0
M  V30 9860 H 913.447 -1.9651 2.26283 0
M  V30 9861 H 911.008 -0.947399 1.31286 0
M  V30 9862 H 913 -3.98038 0.731301 0
M  V30 9863 H 911.57 -3.12433 0.102203 0
M  V30 9864 H 910.79 -2.97735 2.58355 0
M  V30 9865 H 912.078 -4.13302 2.96748 0
M  V30 9866 H 911.476 -5.65433 0.173644 0
M  V30 9867 H 910.033 -6.4918 0.583882 0
M  V30 9868 N 913.466 -1.22244 -0.994698 0
M  V30 9869 C 914.691 -1.07299 -1.77487 0
M  V30 9870 C 915.116 0.372302 -1.84379 0
M  V30 9871 O 914.474 1.2689 -1.29494 0
M  V30 9872 C 914.522 -1.68675 -3.18718 0
M  V30 9873 O 913.626 -0.939202 -4.01563 0
M  V30 9874 H 912.967 -0.376979 -0.546611 0
M  V30 9875 H 915.497 -1.62003 -1.24965 0
M  V30 9876 H 915.507 -1.73324 -3.69354 0
M  V30 9877 H 914.182 -2.73849 -3.13017 0
M  V30 9878 H 912.759 -0.968583 -3.60101 0
M  V30 9879 N 914.944 1.19125 -1.03184 0
M  V30 9880 C 915.876 2.21914 -0.573294 0
M  V30 9881 C 916.889 1.5894 0.352397 0
M  V30 9882 O 918.078 1.77883 0.148318 0
M  V30 9883 C 915.178 3.38403 0.18355 0
M  V30 9884 C 914.351 4.3096 -0.747817 0
M  V30 9885 C 913.41 5.26188 -0.0358489 0
M  V30 9886 O 912.436 5.65321 -0.663388 0
M  V30 9887 N 913.638 5.67235 1.23387 0
M  V30 9888 H 916.403 2.61881 -1.45734 0
M  V30 9889 H 913.964 1.33821 -0.911231 0
M  V30 9890 H 915.956 3.99124 0.669468 0
M  V30 9891 H 914.526 2.97201 0.969043 0
M  V30 9892 H 913.746 3.67976 -1.41377 0
M  V30 9893 H 915.034 4.89708 -1.38071 0
M  V30 9894 H 914.432 5.37481 1.76439 0
M  V30 9895 H 912.989 6.30196 1.66423 0
M  V30 9896 N 916.422 0.810101 1.35185 0
M  V30 9897 C 917.662 0.397802 2.00492 0
M  V30 9898 C 918.026 -1.01684 1.62863 0
M  V30 9899 O 919.227 -1.53133 2.20916 0
M  V30 9900 C 917.498 0.579524 3.5267 0
M  V30 9901 S 919.057 0.258169 4.3804 0
M  V30 9902 H 915.875 0.150904 0.694801 0
M  V30 9903 H 918.477 1.05312 1.64711 0
M  V30 9904 H 917.181 1.60901 3.77543 0
M  V30 9905 H 916.712 -0.0909886 3.93295 0
M  V30 9906 H 918.727 -0.932882 4.87352 0
M  V30 9907 N 917.9 -1.47166 0.563914 0
M  V30 9908 C 918.833 -2.27058 -0.227989 0
M  V30 9909 C 919.811 -1.34468 -0.914179 0
M  V30 9910 O 920.995 -1.63857 -0.931829 0
M  V30 9911 C 918.122 -3.11689 -1.32543 0
M  V30 9912 C 917.168 -4.19906 -0.747084 0
M  V30 9913 S 918.001 -5.33916 0.41153 0
M  V30 9914 C 919.157 -6.22112 -0.687566 0
M  V30 9915 H 919.39 -2.93876 0.449939 0
M  V30 9916 H 916.923 -1.50372 0.350382 0
M  V30 9917 H 918.881 -3.61017 -1.95389 0
M  V30 9918 H 917.542 -2.44221 -1.97522 0
M  V30 9919 H 916.735 -4.78876 -1.57141 0
M  V30 9920 H 916.337 -3.73493 -0.194671 0
M  V30 9921 H 918.629 -6.58867 -1.578 0
M  V30 9922 H 919.572 -7.07971 -0.135058 0
M  V30 9923 H 919.98 -5.55871 -0.983255 0
M  V30 9924 N 919.378 -0.300708 -1.54705 0
M  V30 9925 C 920.624 0.309111 -2.0043 0
M  V30 9926 C 920.957 1.53562 -1.1888 0
M  V30 9927 O 920.232 1.92683 -0.265205 0
M  V30 9928 C 920.515 0.665995 -3.53888 0
M  V30 9929 C 920.368 -0.56963 -4.46178 0
M  V30 9930 C 921.687 1.49262 -4.14016 0
M  V30 9931 H 918.806 0.110878 -0.728612 0
M  V30 9932 H 921.448 -0.412748 -1.85463 0
M  V30 9933 H 919.598 1.281 -3.66773 0
M  V30 9934 H 921.27 -1.20811 -4.45199 0
M  V30 9935 H 919.513 -1.20292 -4.16788 0
M  V30 9936 H 920.184 -0.275785 -5.51311 0
M  V30 9937 H 922.66 0.972979 -4.04564 0
M  V30 9938 H 921.536 1.71111 -5.21548 0
M  V30 9939 H 921.797 2.48174 -3.65872 0
M  V30 9940 N 920.856 1.57574 -0.0284266 0
M  V30 9941 C 922.086 1.95787 0.659617 0
M  V30 9942 C 922.494 0.903475 1.66235 0
M  V30 9943 O 921.837 -0.12329 1.83286 0
M  V30 9944 C 921.899 3.30139 1.42298 0
M  V30 9945 C 921.563 4.53322 0.578658 0
M  V30 9946 C 922.56 5.19696 -0.145751 0
M  V30 9947 C 920.245 4.9964 0.516264 0
M  V30 9948 C 922.239 6.30708 -0.921235 0
M  V30 9949 C 919.926 6.10534 -0.262925 0
M  V30 9950 C 920.924 6.75927 -0.980382 0
M  V30 9951 O 920.612 7.84692 -1.7468 0
M  V30 9952 H 920.344 0.649681 0.186792 0
M  V30 9953 H 922.898 2.05227 -0.0842687 0
M  V30 9954 H 921.128 3.17188 2.21199 0
M  V30 9955 H 922.817 3.53259 1.99906 0
M  V30 9956 H 923.583 4.84882 -0.106876 0
M  V30 9957 H 919.462 4.48547 1.06427 0
M  V30 9958 H 923.006 6.81682 -1.48176 0
M  V30 9959 H 918.903 6.44786 -0.303519 0
M  V30 9960 H 919.671 8.01355 -1.6665 0
M  V30 9961 N 922.334 -0.244713 1.55689 0
M  V30 9962 C 923.266 -1.32595 1.86952 0
M  V30 9963 C 924.279 -1.44185 0.755948 0
M  V30 9964 O 925.468 -1.45496 1.03408 0
M  V30 9965 C 922.568 -2.70429 2.04258 0
M  V30 9966 C 921.741 -2.8108 3.35131 0
M  V30 9967 C 920.8 -3.99773 3.42152 0
M  V30 9968 O 919.826 -3.89197 4.15348 0
M  V30 9969 N 921.028 -5.13041 2.71604 0
M  V30 9970 H 923.793 -1.06111 2.80287 0
M  V30 9971 H 921.354 -0.434811 1.55952 0
M  V30 9972 H 923.346 -3.48173 2.06295 0
M  V30 9973 H 921.916 -2.89612 1.17658 0
M  V30 9974 H 921.136 -1.89994 3.45392 0
M  V30 9975 H 922.424 -2.85147 4.21389 0
M  V30 9976 H 921.822 -5.24525 2.11872 0
M  V30 9977 H 920.379 -5.88912 2.79331 0
M  V30 9978 N 923.813 -1.49104 -0.510467 0
M  V30 9979 C 925.043 -1.61571 -1.28757 0
M  V30 9980 C 925.451 -0.282638 -1.87077 0
M  V30 9981 O 924.794 0.740749 -1.68103 0
M  V30 9982 C 924.856 -2.61851 -2.46322 0
M  V30 9983 C 924.52 -4.06438 -2.08942 0
M  V30 9984 C 925.517 -4.93532 -1.63469 0
M  V30 9985 C 923.202 -4.52109 -2.18867 0
M  V30 9986 C 925.196 -6.24331 -1.28411 0
M  V30 9987 C 922.883 -5.82924 -1.83421 0
M  V30 9988 C 923.881 -6.68858 -1.38267 0
M  V30 9989 O 923.569 -7.97236 -1.03296 0
M  V30 9990 H 923.301 -0.547082 -0.397086 0
M  V30 9991 H 925.855 -1.95806 -0.620424 0
M  V30 9992 H 924.085 -2.22777 -3.16081 0
M  V30 9993 H 925.774 -2.63947 -3.08362 0
M  V30 9994 H 926.54 -4.59479 -1.55255 0
M  V30 9995 H 922.419 -3.85395 -2.52966 0
M  V30 9996 H 925.963 -6.9136 -0.930946 0
M  V30 9997 H 921.86 -6.16507 -1.91282 0
M  V30 9998 H 922.628 -8.10163 -1.16525 0
M  V30 9999 N 925.291 0.760815 -1.38019 0
M  V30 10000 C 926.539 1.51673 -1.33566 0
M  V30 10001 C 926.86 1.94852 0.076024 0
M  V30 10002 O 926.13 1.67112 1.02227 0
M  V30 10003 H 924.71 0.562581 -0.491438 0
M  V30 10004 H 927.372 0.904832 -1.72623 0
M  V30 10005 H 926.468 2.41102 -1.98182 0
M  V30 10006 N 926.769 1.22769 0.988202 0
M  V30 10007 C 927.717 0.999271 2.10041 0
M  V30 10008 C 928.711 -0.0591767 1.69297 0
M  V30 10009 O 929.917 0.0936653 1.79756 0
M  V30 10010 H 926.292 0.30599 0.686931 0
M  V30 10011 H 928.263 1.94294 2.26478 0
M  V30 10012 C 927.012 0.59873 3.42506 0
M  V30 10013 H 926.335 1.40487 3.74304 0
M  V30 10014 H 927.775 0.478353 4.21293 0
M  V30 10015 C 926.234 -0.692216 3.29712 0
M  V30 10016 O 926.764 -1.74342 3.61895 0
M  V30 10017 N 924.97 -0.665163 2.82885 0
M  V30 10018 H 924.517 0.190604 2.56894 0
M  V30 10019 H 924.475 -1.52917 2.74706 0
M  V30 10020 N 928.247 -1.18576 1.03814 0
M  V30 10021 C 929.494 -1.88493 0.740036 0
M  V30 10022 C 929.822 -1.80198 -0.732056 0
M  V30 10023 O 929.077 -1.19509 -1.54971 0
M  V30 10024 C 929.376 -3.38448 1.14837 0
M  V30 10025 C 929.042 -3.66947 2.62031 0
M  V30 10026 C 927.704 -3.74435 3.02244 0
M  V30 10027 C 930.056 -3.79534 3.57217 0
M  V30 10028 C 927.384 -3.91986 4.36536 0
M  V30 10029 C 929.736 -3.986 4.91223 0
M  V30 10030 C 928.4 -4.04323 5.31111 0
M  V30 10031 H 927.67 -0.689746 0.270798 0
M  V30 10032 H 930.317 -1.40364 1.3027 0
M  V30 10033 H 928.622 -3.88539 0.504472 0
M  V30 10034 H 930.319 -3.90882 0.89511 0
M  V30 10035 H 926.909 -3.61734 2.29883 0
M  V30 10036 H 931.093 -3.73083 3.27296 0
M  V30 10037 H 926.349 -3.9466 4.66962 0
M  V30 10038 H 930.523 -4.07281 5.64885 0
M  V30 10039 H 928.15 -4.17676 6.35178 0
M  V30 10040 N 929.725 -0.817259 -1.34754 0
M  V30 10041 C 930.95 -0.414423 -2.03217 0
M  V30 10042 C 931.375 0.970037 -1.61158 0
M  V30 10043 O 930.733 1.63016 -0.793436 0
M  V30 10044 C 930.781 -0.518087 -3.56859 0
M  V30 10045 O 929.885 0.464314 -4.09778 0
M  V30 10046 H 929.226 -0.171454 -0.641482 0
M  V30 10047 H 931.756 -1.10611 -1.72123 0
M  V30 10048 H 931.766 -0.391779 -4.06115 0
M  V30 10049 H 930.441 -1.52786 -3.86819 0
M  V30 10050 H 929.018 0.297361 -3.71712 0
M  V30 10051 N 931.203 1.46865 -0.571711 0
M  V30 10052 C 932.449 2.03307 -0.0614759 0
M  V30 10053 C 932.804 1.43657 1.27986 0
M  V30 10054 O 932.097 0.588186 1.82348 0
M  V30 10055 C 932.291 3.57323 0.0742311 0
M  V30 10056 C 932.12 4.31909 -1.2524 0
M  V30 10057 C 930.89 4.71246 -1.82361 0
M  V30 10058 C 933.088 4.66137 -2.17304 0
M  V30 10059 N 931.07 5.30535 -3.08878 0
M  V30 10060 C 932.441 5.25881 -3.28404 0
M  V30 10061 C 934.496 4.48066 -2.1712 0
M  V30 10062 C 933.199 5.69461 -4.39439 0
M  V30 10063 C 935.225 4.92656 -3.27176 0
M  V30 10064 C 934.587 5.52461 -4.36997 0
M  V30 10065 H 930.686 0.779293 -0.0650098 0
M  V30 10066 H 933.27 1.79161 -0.762192 0
M  V30 10067 H 931.441 3.81206 0.744095 0
M  V30 10068 H 933.173 4.00408 0.587849 0
M  V30 10069 H 929.928 4.53658 -1.35985 0
M  V30 10070 H 930.352 5.64711 -3.73404 0
M  V30 10071 H 934.994 4.01173 -1.33492 0
M  V30 10072 H 932.712 6.15338 -5.23817 0
M  V30 10073 H 936.298 4.80433 -3.28139 0
M  V30 10074 H 935.178 5.86334 -5.20752 0
M  V30 10075 N 932.681 0.308908 1.54543 0
M  V30 10076 C 933.958 -0.351558 1.92415 0
M  V30 10077 C 934.338 -1.71061 1.23699 0
M  V30 10078 O 933.686 -2.25394 0.3755 0
M  V30 10079 C 933.896 -0.458357 3.45977 0
M  V30 10080 C 935.244 -0.725524 4.18355 0
M  V30 10081 O 936.268 -0.541859 3.52054 0
M  V30 10082 O 935.127 -1.07884 5.35745 0
M  V30 10083 H 932.221 -0.197957 0.802958 0
M  V30 10084 H 934.767 0.357548 1.65891 0
M  V30 10085 H 933.539 0.496723 3.88134 0
M  V30 10086 H 933.162 -1.21562 3.78561 0
M  V30 10087 N 934.159 -1.57557 0.0367827 0
M  V30 10088 C 935.089 -2.13712 -0.940719 0
M  V30 10089 C 936.07 -1.05515 -1.33419 0
M  V30 10090 O 937.255 -1.33385 -1.41146 0
M  V30 10091 C 934.385 -2.67043 -2.22048 0
M  V30 10092 C 933.339 -3.80096 -1.96752 0
M  V30 10093 C 932.665 -4.19886 -3.31059 0
M  V30 10094 C 933.965 -5.05848 -1.30058 0
M  V30 10095 H 935.659 -2.9564 -0.473033 0
M  V30 10096 H 933.205 -1.42214 -0.226089 0
M  V30 10097 H 935.158 -3.04964 -2.90818 0
M  V30 10098 H 933.882 -1.82287 -2.70996 0
M  V30 10099 H 932.541 -3.42625 -1.30398 0
M  V30 10100 H 932.189 -3.32101 -3.77781 0
M  V30 10101 H 931.889 -4.96073 -3.14937 0
M  V30 10102 H 933.413 -4.60395 -4.01084 0
M  V30 10103 H 934.827 -5.41306 -1.8884 0
M  V30 10104 H 933.224 -5.87084 -1.24309 0
M  V30 10105 H 934.294 -4.84122 -0.274591 0
M  V30 10106 N 935.637 0.236453 -1.55816 0
M  V30 10107 C 936.6 1.27633 -1.90375 0
M  V30 10108 C 937.6 1.40557 -0.781048 0
M  V30 10109 O 938.79 1.39078 -1.04895 0
M  V30 10110 C 935.922 2.65247 -2.14142 0
M  V30 10111 H 937.115 0.982019 -2.83366 0
M  V30 10112 H 934.668 0.476215 -1.48869 0
M  V30 10113 H 935.403 2.99801 -1.23653 0
M  V30 10114 H 935.188 2.57246 -2.95917 0
M  V30 10115 H 936.678 3.40313 -2.42026 0
M  V30 10116 N 937.115 1.49373 0.502552 0
M  V30 10117 C 938.363 1.58467 1.25429 0
M  V30 10118 C 938.684 0.272593 1.93085 0
M  V30 10119 O 937.954 -0.707947 1.82661 0
M  V30 10120 H 936.534 0.583866 0.46595 0
M  V30 10121 H 939.196 1.8599 0.582568 0
M  V30 10122 H 938.292 2.37993 2.01906 0
M  V30 10123 N 938.594 -0.753485 1.38421 0
M  V30 10124 C 939.842 -1.50962 1.34368 0
M  V30 10125 C 940.163 -1.94889 -0.0656895 0
M  V30 10126 O 939.433 -1.67652 -1.01339 0
M  V30 10127 H 938.013 -0.559967 0.494415 0
M  V30 10128 H 940.675 -0.895665 1.73101 0
M  V30 10129 H 939.771 -2.40048 1.99458 0
M  V30 10130 N 940.072 -1.23292 -0.981677 0
M  V30 10131 C 941.004 -0.970782 -2.07626 0
M  V30 10132 C 942.017 0.0547506 -1.62708 0
M  V30 10133 O 943.206 -0.180623 -1.77584 0
M  V30 10134 C 940.306 -0.44055 -3.36024 0
M  V30 10135 C 939.479 -1.52595 -4.09919 0
M  V30 10136 C 938.538 -1.00082 -5.16595 0
M  V30 10137 O 937.564 -1.68951 -5.43548 0
M  V30 10138 N 938.766 0.172017 -5.80245 0
M  V30 10139 H 941.531 -1.91316 -2.30691 0
M  V30 10140 H 939.092 -1.14133 -1.14828 0
M  V30 10141 H 941.084 -0.0743111 -4.04632 0
M  V30 10142 H 939.654 0.407211 -3.09936 0
M  V30 10143 H 938.874 -2.06501 -3.35784 0
M  V30 10144 H 940.162 -2.2559 -4.56055 0
M  V30 10145 H 939.56 0.748129 -5.60731 0
M  V30 10146 H 938.117 0.479532 -6.50034 0
M  V30 10147 N 941.55 1.18024 -1.04442 0
M  V30 10148 C 942.5 2.19714 -0.609069 0
M  V30 10149 C 943.484 1.57037 0.350473 0
M  V30 10150 O 944.676 1.76192 0.16892 0
M  V30 10151 C 941.805 3.43293 0.0225911 0
M  V30 10152 C 940.891 4.13084 -0.960325 0
M  V30 10153 N 941.282 4.58819 -2.12883 0
M  V30 10154 C 939.58 4.38999 -0.787146 0
M  V30 10155 C 940.281 5.12589 -2.75004 0
M  V30 10156 N 939.257 5.04333 -2.02853 0
M  V30 10157 H 943.059 2.5277 -1.49948 0
M  V30 10158 H 940.573 1.34271 -0.913517 0
M  V30 10159 H 942.57 4.1541 0.352196 0
M  V30 10160 H 941.23 3.11731 0.908495 0
M  V30 10161 H 942.241 4.53148 -2.50754 0
M  V30 10162 H 938.918 4.17472 0.048348 0
M  V30 10163 H 940.308 5.58152 -3.74053 0
M  V30 10164 N 943.028 0.824394 1.34319 0
M  V30 10165 C 943.958 0.262077 2.32025 0
M  V30 10166 C 944.939 -0.622277 1.58309 0
M  V30 10167 O 946.124 -0.548848 1.86283 0
M  V30 10168 C 943.254 -0.57567 3.42496 0
M  V30 10169 C 942.208 0.21167 4.27476 0
M  V30 10170 C 941.534 -0.748913 5.29429 0
M  V30 10171 C 942.834 1.42068 5.02607 0
M  V30 10172 H 944.528 1.07842 2.79304 0
M  V30 10173 H 942.074 0.520022 1.34282 0
M  V30 10174 H 944.027 -0.979251 4.09864 0
M  V30 10175 H 942.751 -1.42508 2.93869 0
M  V30 10176 H 941.41 0.596636 3.61712 0
M  V30 10177 H 941.058 -1.59432 4.77064 0
M  V30 10178 H 940.758 -0.226313 5.87164 0
M  V30 10179 H 942.282 -1.15032 5.99667 0
M  V30 10180 H 943.696 1.09103 5.62823 0
M  V30 10181 H 942.093 1.87903 5.69923 0
M  V30 10182 H 943.163 2.1981 4.32217 0
M  V30 10183 N 944.506 -1.46559 0.579492 0
M  V30 10184 C 945.454 -2.3199 -0.168413 0
M  V30 10185 C 946.448 -1.44288 -0.887551 0
M  V30 10186 O 947.654 -1.60931 -0.806305 0
M  V30 10187 H 944.029 -0.748431 -0.0731799 0
M  V30 10188 H 946 -2.92886 0.570973 0
M  V30 10189 C 944.749 -3.27392 -1.1709 0
M  V30 10190 H 944.072 -3.94853 -0.626958 0
M  V30 10191 H 945.512 -3.89955 -1.66467 0
M  V30 10192 C 943.971 -2.52511 -2.23024 0
M  V30 10193 O 944.501 -2.2858 -3.30324 0
M  V30 10194 N 942.707 -2.1313 -1.97545 0
M  V30 10195 H 942.254 -2.32793 -1.10297 0
M  V30 10196 H 942.212 -1.63348 -2.68635 0
M  V30 10197 N 945.984 -0.3171 -1.54377 0
M  V30 10198 C 947.232 0.286842 -2.00054 0
M  V30 10199 C 947.553 1.53161 -1.20692 0
M  V30 10200 O 946.823 1.93479 -0.307045 0
M  V30 10201 H 945.403 0.108979 -0.739008 0
M  V30 10202 H 948.065 -0.432152 -1.90049 0
M  V30 10203 H 947.161 0.547729 -3.07256 0
M  V30 10204 N 947.462 1.57535 -0.0451378 0
M  V30 10205 C 948.711 1.91628 0.629415 0
M  V30 10206 C 949.024 0.924754 1.72359 0
M  V30 10207 O 950.23 1.15751 2.45589 0
M  V30 10208 C 948.686 3.40322 1.17084 0
M  V30 10209 C 948.294 4.47867 0.109101 0
M  V30 10210 C 950.038 3.83458 1.82099 0
M  V30 10211 C 947.945 5.87671 0.663072 0
M  V30 10212 H 946.875 0.715163 0.238868 0
M  V30 10213 H 949.526 1.83151 -0.113046 0
M  V30 10214 H 947.908 3.43783 1.96543 0
M  V30 10215 H 949.082 4.55988 -0.664201 0
M  V30 10216 H 947.397 4.14034 -0.443227 0
M  V30 10217 H 949.994 4.85273 2.2453 0
M  V30 10218 H 950.337 3.19379 2.67026 0
M  V30 10219 H 950.87 3.82488 1.09305 0
M  V30 10220 H 947.609 6.55332 -0.148423 0
M  V30 10221 H 947.129 5.83124 1.4045 0
M  V30 10222 H 948.808 6.36737 1.14785 0
M  V30 10223 N 948.94 -0.228186 1.55939 0
M  V30 10224 C 949.888 -1.30239 1.92719 0
M  V30 10225 C 950.882 -1.48865 0.808424 0
M  V30 10226 O 952.088 -1.50118 0.993204 0
M  V30 10227 H 948.463 -0.436509 0.612343 0
M  V30 10228 H 950.434 -0.964965 2.82367 0
M  V30 10229 C 949.183 -2.647 2.25453 0
M  V30 10230 H 948.506 -2.51173 3.1105 0
M  V30 10231 H 949.946 -3.38691 2.55077 0
M  V30 10232 C 948.405 -3.1921 1.07734 0
M  V30 10233 O 948.935 -4.00301 0.335019 0
M  V30 10234 N 947.141 -2.77492 0.862938 0
M  V30 10235 H 946.688 -2.11657 1.4683 0
M  V30 10236 H 946.646 -3.14306 0.0770119 0
M  V30 10237 N 950.418 -1.49637 -0.494624 0
M  V30 10238 C 951.646 -1.63164 -1.2722 0
M  V30 10239 C 952.061 -0.305552 -1.86311 0
M  V30 10240 O 951.418 0.709758 -1.68133 0
M  V30 10241 C 951.469 -2.70524 -2.39789 0
M  V30 10242 O 951.19 -3.97991 -1.83126 0
M  V30 10243 C 952.691 -2.94814 -3.31058 0
M  V30 10244 H 949.911 -0.54912 -0.385627 0
M  V30 10245 H 952.455 -1.95711 -0.593081 0
M  V30 10246 H 950.61 -2.40738 -3.03519 0
M  V30 10247 H 951.024 -4.57179 -2.57075 0
M  V30 10248 H 952.498 -3.73653 -4.06309 0
M  V30 10249 H 952.975 -2.04974 -3.88436 0
M  V30 10250 H 953.581 -3.26042 -2.73088 0
M  V30 10251 N 951.896 0.746133 -1.38819 0
M  V30 10252 C 952.826 1.87344 -1.39372 0
M  V30 10253 C 953.807 1.68123 -0.258583 0
M  V30 10254 O 954.992 1.88606 -0.462769 0
M  V30 10255 C 952.122 3.24962 -1.22543 0
M  V30 10256 C 951.076 3.58799 -2.33339 0
M  V30 10257 C 950.402 4.95235 -2.01609 0
M  V30 10258 C 951.702 3.62911 -3.75624 0
M  V30 10259 H 953.396 1.87138 -2.33709 0
M  V30 10260 H 950.942 0.898937 -1.12495 0
M  V30 10261 H 952.895 4.03488 -1.21554 0
M  V30 10262 H 951.619 3.25667 -0.246707 0
M  V30 10263 H 950.278 2.82596 -2.33527 0
M  V30 10264 H 949.926 4.92508 -1.02202 0
M  V30 10265 H 949.626 5.18843 -2.75819 0
M  V30 10266 H 951.15 5.76131 -2.02251 0
M  V30 10267 H 952.564 4.31535 -3.77426 0
M  V30 10268 H 950.961 3.98031 -4.491 0
M  V30 10269 H 952.031 2.62967 -4.07402 0
M  V30 10270 N 953.375 1.23811 0.975125 0
M  V30 10271 C 954.623 1.07124 1.71373 0
M  V30 10272 C 954.944 -0.391864 1.91022 0
M  V30 10273 O 954.214 -1.28041 1.48265 0
M  V30 10274 H 952.794 0.393415 0.635007 0
M  V30 10275 H 955.456 1.55612 1.17349 0
M  V30 10276 H 954.552 1.56338 2.7012 0
M  V30 10277 N 954.853 -1.17469 1.05066 0
M  V30 10278 C 955.763 -2.25089 0.661222 0
M  V30 10279 C 956.779 -1.71086 -0.31712 0
M  V30 10280 O 957.955 -2.00685 -0.169534 0
M  V30 10281 C 955.02 -3.46676 0.0406415 0
M  V30 10282 C 954.081 -4.15771 1.06927 0
M  V30 10283 C 953.314 -5.31553 0.478208 0
M  V30 10284 O 953.537 -5.6593 -0.712714 0
M  V30 10285 O 952.471 -5.89574 1.21185 0
M  V30 10286 H 956.297 -2.60685 1.5581 0
M  V30 10287 H 953.882 -1.24744 0.822147 0
M  V30 10288 H 955.764 -4.203 -0.304312 0
M  V30 10289 H 954.439 -3.1288 -0.829909 0
M  V30 10290 H 953.346 -3.44171 1.46619 0
M  V30 10291 H 954.679 -4.53591 1.91092 0
M  V30 10292 N 956.331 -0.831506 -1.3388 0
M  V30 10293 C 957.279 -0.247896 -2.31275 0
M  V30 10294 C 958.273 0.616083 -1.578 0
M  V30 10295 O 959.479 0.506465 -1.72728 0
M  V30 10296 H 955.854 -0.0614293 -0.749487 0
M  V30 10297 H 957.825 -1.08401 -2.78014 0
M  V30 10298 C 956.574 0.568434 -3.43022 0
M  V30 10299 H 955.897 -0.0870654 -3.99705 0
M  V30 10300 H 957.337 0.942751 -4.13386 0
M  V30 10301 C 955.796 1.74431 -2.88228 0
M  V30 10302 O 956.326 2.84278 -2.83811 0
M  V30 10303 N 954.532 1.56382 -2.44935 0
M  V30 10304 H 954.079 0.670255 -2.48727 0
M  V30 10305 H 954.037 2.35208 -2.08625 0
M  V30 10306 N 957.809 1.4625 -0.587256 0
M  V30 10307 C 959.058 2.01571 -0.0722643 0
M  V30 10308 C 959.371 1.46385 1.29733 0
M  V30 10309 O 960.577 1.93554 1.90392 0
M  V30 10310 C 959.033 3.59814 -0.078579 0
M  V30 10311 C 958.641 4.23996 -1.44678 0
M  V30 10312 C 960.385 4.22776 0.382231 0
M  V30 10313 C 958.292 5.74332 -1.41057 0
M  V30 10314 H 957.222 0.753642 -0.0232461 0
M  V30 10315 H 959.873 1.67936 -0.739577 0
M  V30 10316 H 958.255 3.90546 0.654988 0
M  V30 10317 H 959.429 4.04867 -2.20043 0
M  V30 10318 H 957.744 3.73147 -1.84799 0
M  V30 10319 H 960.341 5.32983 0.428182 0
M  V30 10320 H 960.684 3.92027 1.40072 0
M  V30 10321 H 961.217 3.96687 -0.297417 0
M  V30 10322 H 957.956 6.09747 -2.40601 0
M  V30 10323 H 957.476 5.95711 -0.699185 0
M  V30 10324 H 959.155 6.37137 -1.12543 0
M  V30 10325 N 959.287 0.325282 1.54207 0
M  V30 10326 C 960.25 -0.527228 2.23054 0
M  V30 10327 C 961.25 -1.04217 1.22456 0
M  V30 10328 O 962.44 -0.934325 1.47024 0
M  V30 10329 C 959.572 -1.7325 2.93594 0
M  V30 10330 H 960.765 0.0746423 2.99807 0
M  V30 10331 H 958.318 0.0763872 1.56113 0
M  V30 10332 H 959.053 -2.37356 2.20981 0
M  V30 10333 H 958.838 -1.37065 3.67363 0
M  V30 10334 H 960.328 -2.3376 3.46043 0
M  V30 10335 N 960.765 -1.57509 0.0534917 0
M  V30 10336 C 962.042 -1.84137 -0.659767 0
M  V30 10337 C 962.422 -0.942362 -1.88899 0
M  V30 10338 O 961.77 -0.00398566 -2.285 0
M  V30 10339 C 961.98 -3.33919 -1.01486 0
M  V30 10340 C 963.328 -4.00989 -1.39616 0
M  V30 10341 O 964.352 -3.38557 -1.10713 0
M  V30 10342 O 963.211 -5.11071 -1.93567 0
M  V30 10343 H 960.305 -0.760081 -0.325893 0
M  V30 10344 H 962.851 -1.69497 0.0830315 0
M  V30 10345 H 961.623 -3.91046 -0.141041 0
M  V30 10346 H 961.246 -3.53755 -1.81503 0
M  V30 10347 N 962.243 0.219913 -1.56058 0
M  V30 10348 C 963.191 1.29215 -1.93407 0
M  V30 10349 C 964.185 1.48434 -0.816307 0
M  V30 10350 O 965.391 1.49589 -1.00115 0
M  V30 10351 H 961.766 0.433256 -0.614649 0
M  V30 10352 H 963.737 0.949977 -2.82875 0
M  V30 10353 C 962.486 2.63501 -2.26854 0
M  V30 10354 H 961.809 2.4952 -3.12377 0
M  V30 10355 H 963.249 3.37334 -2.56869 0
M  V30 10356 C 961.708 3.18634 -1.09425 0
M  V30 10357 O 962.238 4.00117 -0.356243 0
M  V30 10358 N 960.444 2.7703 -0.877642 0
M  V30 10359 H 959.991 2.10875 -1.47951 0
M  V30 10360 H 959.949 3.1426 -0.0936792 0
M  V30 10361 N 963.721 1.49897 0.486681 0
M  V30 10362 C 964.969 1.59789 1.23742 0
M  V30 10363 C 965.29 0.293056 1.92785 0
M  V30 10364 O 964.56 -0.688534 1.83401 0
M  V30 10365 H 963.14 0.588775 0.459731 0
M  V30 10366 H 965.802 1.86597 0.562808 0
M  V30 10367 H 964.898 2.40121 1.9937 0
M  V30 10368 N 965.199 -0.738761 1.39212 0
M  V30 10369 C 966.447 -1.49529 1.35962 0
M  V30 10370 C 966.768 -1.94948 -0.0450152 0
M  V30 10371 O 966.038 -1.68717 -0.995552 0
M  V30 10372 H 964.618 -0.554692 0.500326 0
M  V30 10373 H 967.28 -0.877255 1.74041 0
M  V30 10374 H 966.376 -2.37919 2.01993 0
M  V30 10375 N 966.677 -1.24326 -0.968545 0
M  V30 10376 C 967.607 -1.05951 -2.08079 0
M  V30 10377 C 968.588 0.0272666 -1.70078 0
M  V30 10378 O 969.773 -0.139644 -1.93697 0
M  V30 10379 C 966.903 -0.662623 -3.4092 0
M  V30 10380 C 965.857 -1.69807 -3.92873 0
M  V30 10381 C 965.183 -1.15628 -5.22048 0
M  V30 10382 C 966.483 -3.09383 -4.20808 0
M  V30 10383 H 968.177 -1.98984 -2.23709 0
M  V30 10384 H 965.723 -0.958112 -1.075 0
M  V30 10385 H 967.676 -0.521071 -4.18166 0
M  V30 10386 H 966.4 0.303399 -3.25188 0
M  V30 10387 H 965.059 -1.82783 -3.17783 0
M  V30 10388 H 964.707 -0.180888 -5.02675 0
M  V30 10389 H 964.407 -1.84822 -5.57776 0
M  V30 10390 H 965.931 -1.02683 -6.01904 0
M  V30 10391 H 967.345 -2.99642 -4.88761 0
M  V30 10392 H 965.742 -3.75923 -4.67763 0
M  V30 10393 H 966.812 -3.57486 -3.27616 0
M  V30 10394 N 968.156 1.1691 -1.05688 0
M  V30 10395 C 969.404 1.86922 -0.768409 0
M  V30 10396 C 969.725 1.81735 0.706921 0
M  V30 10397 O 968.995 1.24671 1.51109 0
M  V30 10398 H 967.575 0.69203 -0.281253 0
M  V30 10399 H 970.237 1.41803 -1.33708 0
M  V30 10400 H 969.333 2.92528 -1.08783 0
M  V30 10401 N 969.634 0.838594 1.33437 0
M  V30 10402 C 970.566 0.229006 2.28053 0
M  V30 10403 C 971.579 -0.590103 1.51729 0
M  V30 10404 O 972.768 -0.417218 1.73556 0
M  V30 10405 C 969.868 -0.696251 3.31671 0
M  V30 10406 C 969.041 0.0834606 4.3732 0
M  V30 10407 C 968.1 -0.765097 5.20608 0
M  V30 10408 O 967.126 -0.2044 5.68833 0
M  V30 10409 N 968.328 -2.08249 5.4186 0
M  V30 10410 H 971.093 1.04196 2.81004 0
M  V30 10411 H 968.654 0.697031 1.46127 0
M  V30 10412 H 970.646 -1.26889 3.84293 0
M  V30 10413 H 969.216 -1.40992 2.78998 0
M  V30 10414 H 968.436 0.837481 3.85201 0
M  V30 10415 H 969.724 0.619613 5.05013 0
M  V30 10416 H 969.122 -2.56156 5.04381 0
M  V30 10417 H 967.679 -2.60362 5.97541 0
M  V30 10418 N 971.112 -1.45937 0.595003 0
M  V30 10419 C 972.075 -2.2888 -0.121102 0
M  V30 10420 C 973.075 -1.39075 -0.807149 0
M  V30 10421 O 974.265 -1.61326 -0.657228 0
M  V30 10422 C 971.397 -3.19778 -1.1813 0
M  V30 10423 H 972.59 -2.93673 0.607968 0
M  V30 10424 H 970.143 -1.5225 0.353495 0
M  V30 10425 H 970.878 -2.59759 -1.94154 0
M  V30 10426 H 970.663 -3.85914 -0.693724 0
M  V30 10427 H 972.153 -3.82176 -1.68319 0
M  V30 10428 N 972.59 -0.333456 -1.54032 0
M  V30 10429 C 973.82 0.267425 -2.04862 0
M  V30 10430 C 974.228 1.45559 -1.20869 0
M  V30 10431 O 973.571 1.82197 -0.234478 0
M  V30 10432 C 973.633 0.755759 -3.51466 0
M  V30 10433 C 973.297 -0.311409 -4.55938 0
M  V30 10434 C 974.294 -1.15078 -5.07004 0
M  V30 10435 C 971.979 -0.462439 -5.00167 0
M  V30 10436 C 973.973 -2.12682 -6.0087 0
M  V30 10437 C 971.66 -1.44188 -5.93846 0
M  V30 10438 C 972.658 -2.27253 -6.44085 0
M  V30 10439 O 972.346 -3.23532 -7.35923 0
M  V30 10440 H 972.078 0.0572596 -0.673571 0
M  V30 10441 H 974.632 -0.480646 -1.99697 0
M  V30 10442 H 972.862 1.55491 -3.54062 0
M  V30 10443 H 974.551 1.27607 -3.8532 0
M  V30 10444 H 975.317 -1.04513 -4.73605 0
M  V30 10445 H 971.196 0.17424 -4.60671 0
M  V30 10446 H 974.74 -2.77555 -6.40007 0
M  V30 10447 H 970.637 -1.54813 -6.2666 0
M  V30 10448 H 971.405 -3.18886 -7.53826 0
M  V30 10449 N 974.068 1.57479 -0.061844 0
M  V30 10450 C 975.484 1.56855 0.294753 0
M  V30 10451 C 975.684 1.07042 1.70717 0
M  V30 10452 O 974.74 0.731817 2.41662 0
M  V30 10453 C 976.053 3.00486 0.113484 0
M  V30 10454 C 977.601 3.1246 0.183778 0
M  V30 10455 C 978.076 4.5799 0.0309092 0
M  V30 10456 N 979.567 4.63119 0.0868393 0
M  V30 10457 C 980.302 5.734 -0.00717446 0
M  V30 10458 N 979.798 6.92628 -0.154144 0
M  V30 10459 N 981.591 5.62078 0.0491763 0
M  V30 10460 H 973.742 1.88176 -0.985058 0
M  V30 10461 H 976.005 0.867051 -0.383309 0
M  V30 10462 H 975.711 3.41004 -0.86075 0
M  V30 10463 H 975.585 3.67029 0.870023 0
M  V30 10464 H 977.972 2.71834 1.14849 0
M  V30 10465 H 978.053 2.48574 -0.603697 0
M  V30 10466 H 977.697 4.99303 -0.930526 0
M  V30 10467 H 977.627 5.19895 0.837664 0
M  V30 10468 H 980.118 3.77374 0.199245 0
M  V30 10469 H 980.431 7.72492 -0.218296 0
M  V30 10470 H 978.776 6.94742 -0.189372 0
M  V30 10471 H 981.967 4.67817 0.162626 0
M  V30 10472 H 982.14 6.47994 -0.0275478 0
M  V30 10473 N 975.546 -0.211634 1.56173 0
M  V30 10474 C 976.509 -1.24588 1.92381 0
M  V30 10475 C 977.509 -1.39297 0.803311 0
M  V30 10476 O 978.699 -1.37392 1.07094 0
M  V30 10477 C 975.831 -2.61807 2.18335 0
M  V30 10478 H 977.024 -0.936814 2.84893 0
M  V30 10479 H 974.577 -0.452471 1.49607 0
M  V30 10480 H 975.312 -2.97795 1.28407 0
M  V30 10481 H 975.097 -2.52506 2.99972 0
M  V30 10482 H 976.587 -3.3642 2.4741 0
M  V30 10483 N 977.024 -1.50153 -0.478725 0
M  V30 10484 C 978.254 -1.64266 -1.253 0
M  V30 10485 C 978.662 -0.322256 -1.86435 0
M  V30 10486 O 978.005 0.704925 -1.69636 0
M  V30 10487 C 978.067 -2.67017 -2.40712 0
M  V30 10488 C 977.731 -4.10779 -2.00274 0
M  V30 10489 C 978.728 -4.96889 -1.52963 0
M  V30 10490 C 976.413 -4.5665 -2.09228 0
M  V30 10491 C 978.407 -6.26914 -1.15139 0
M  V30 10492 C 976.094 -5.86683 -1.71015 0
M  V30 10493 C 977.092 -6.71641 -1.24048 0
M  V30 10494 O 976.78 -7.99248 -0.863617 0
M  V30 10495 H 976.512 -0.555382 -0.385392 0
M  V30 10496 H 979.066 -1.97078 -0.578751 0
M  V30 10497 H 977.296 -2.29432 -3.11284 0
M  V30 10498 H 978.985 -2.70428 -3.02694 0
M  V30 10499 H 979.751 -4.62669 -1.45474 0
M  V30 10500 H 975.63 -3.90674 -2.44735 0
M  V30 10501 H 979.174 -6.93179 -0.784089 0
M  V30 10502 H 975.071 -6.20426 -1.78162 0
M  V30 10503 H 975.839 -8.12452 -0.993139 0
M  V30 10504 N 978.502 0.731368 -1.39602 0
M  V30 10505 C 979.434 1.85575 -1.34516 0
M  V30 10506 C 980.447 1.60818 -0.253287 0
M  V30 10507 O 981.636 1.70984 -0.512505 0
M  V30 10508 C 978.736 3.21673 -1.06676 0
M  V30 10509 C 977.909 3.73757 -2.27211 0
M  V30 10510 C 976.968 4.88426 -1.95773 0
M  V30 10511 O 975.994 5.01898 -2.68491 0
M  V30 10512 N 977.196 5.73065 -0.926083 0
M  V30 10513 H 979.961 1.90442 -2.31413 0
M  V30 10514 H 977.522 0.912258 -1.33752 0
M  V30 10515 H 979.514 3.95959 -0.836577 0
M  V30 10516 H 978.084 3.12052 -0.185003 0
M  V30 10517 H 977.304 2.90781 -2.66158 0
M  V30 10518 H 978.592 4.05289 -3.07601 0
M  V30 10519 H 977.99 5.64774 -0.323497 0
M  V30 10520 H 976.547 6.47403 -0.755795 0
M  V30 10521 N 979.98 1.24838 0.961938 0
M  V30 10522 C 980.928 1.0436 2.07874 0
M  V30 10523 C 981.922 -0.0232531 1.69384 0
M  V30 10524 O 983.128 0.131773 1.79517 0
M  V30 10525 H 979.503 0.320492 0.680286 0
M  V30 10526 H 981.474 1.99055 2.22306 0
M  V30 10527 C 980.223 0.671246 3.41159 0
M  V30 10528 H 979.546 1.48395 3.7124 0
M  V30 10529 H 980.986 0.567608 4.20184 0
M  V30 10530 C 979.445 -0.622124 3.31106 0
M  V30 10531 O 979.975 -1.66627 3.65511 0
M  V30 10532 N 978.181 -0.605009 2.84232 0
M  V30 10533 H 977.728 0.245052 2.56432 0
M  V30 10534 H 977.686 -1.47056 2.77888 0
M  V30 10535 N 981.458 -1.16348 1.06306 0
M  V30 10536 C 982.688 -1.90505 0.799453 0
M  V30 10537 C 983.096 -1.77686 -0.649955 0
M  V30 10538 O 982.439 -1.11921 -1.45669 0
M  V30 10539 C 982.501 -3.41775 1.11492 0
M  V30 10540 C 982.165 -3.7838 2.56277 0
M  V30 10541 C 983.162 -3.80288 3.54509 0
M  V30 10542 C 980.847 -4.09007 2.9158 0
M  V30 10543 C 982.841 -4.12312 4.86084 0
M  V30 10544 C 980.528 -4.40697 4.23354 0
M  V30 10545 C 981.526 -4.4233 5.20416 0
M  V30 10546 O 981.214 -4.73267 6.49826 0
M  V30 10547 H 980.946 -0.61094 0.289359 0
M  V30 10548 H 983.5 -1.48409 1.41999 0
M  V30 10549 H 981.73 -3.84219 0.437306 0
M  V30 10550 H 983.419 -3.97207 0.835533 0
M  V30 10551 H 984.185 -3.56738 3.28577 0
M  V30 10552 H 980.064 -4.06901 2.16686 0
M  V30 10553 H 983.608 -4.13501 5.61838 0
M  V30 10554 H 979.505 -4.63713 4.49044 0
M  V30 10555 H 980.273 -4.91078 6.54817 0
M  V30 10556 N 982.937 -0.845659 -1.3299 0
M  V30 10557 C 984.186 -0.440928 -1.96822 0
M  V30 10558 C 984.499 1.00668 -1.67706 0
M  V30 10559 O 985.705 1.51641 -2.25205 0
M  V30 10560 C 984.161 -0.73752 -3.52262 0
M  V30 10561 C 983.769 -2.20026 -3.90247 0
M  V30 10562 C 985.513 -0.400072 -4.22611 0
M  V30 10563 C 983.42 -2.44054 -5.38694 0
M  V30 10564 H 982.35 -0.161148 -0.736578 0
M  V30 10565 H 985.001 -1.03519 -1.51513 0
M  V30 10566 H 983.383 -0.0728025 -3.95933 0
M  V30 10567 H 984.557 -2.90602 -3.57613 0
M  V30 10568 H 982.872 -2.50135 -3.32899 0
M  V30 10569 H 985.469 -0.557136 -5.3179 0
M  V30 10570 H 985.812 0.657547 -4.11074 0
M  V30 10571 H 986.345 -1.0203 -3.84493 0
M  V30 10572 H 983.084 -3.48407 -5.55241 0
M  V30 10573 H 982.604 -1.78047 -5.72765 0
M  V30 10574 H 984.283 -2.27549 -6.05665 0
M  V30 10575 N 984.415 1.45619 -0.602734 0
M  V30 10576 C 985.362 2.30493 0.118944 0
M  V30 10577 C 986.332 1.41816 0.864723 0
M  V30 10578 O 987.517 1.7075 0.851424 0
M  V30 10579 C 984.657 3.2664 1.11356 0
M  V30 10580 C 983.77 4.3042 0.369161 0
M  V30 10581 C 982.905 5.13678 1.35307 0
M  V30 10582 C 981.944 6.09189 0.596207 0
M  V30 10583 N 981.081 6.85245 1.52916 0
M  V30 10584 H 985.921 2.91672 -0.610836 0
M  V30 10585 H 983.458 1.43731 -0.313032 0
M  V30 10586 H 985.416 3.80846 1.7033 0
M  V30 10587 H 984.046 2.67225 1.81081 0
M  V30 10588 H 983.098 3.78913 -0.335994 0
M  V30 10589 H 984.41 4.98307 -0.221603 0
M  V30 10590 H 983.564 5.7226 2.01502 0
M  V30 10591 H 982.303 4.45798 1.97777 0
M  V30 10592 H 981.308 5.49743 -0.0793984 0
M  V30 10593 H 982.533 6.79096 -0.0233734 0
M  V30 10594 H 980.479 6.20058 2.14159 0
M  V30 10595 H 980.396 7.49467 0.991713 0
M  V30 10596 H 981.664 7.48371 2.18083 0
M  V30 10597 N 985.893 0.34162 1.53853 0
M  V30 10598 C 986.84 -0.516058 2.24957 0
M  V30 10599 C 987.81 -1.09711 1.2471 0
M  V30 10600 O 988.995 -1.13409 1.53438 0
M  V30 10601 C 986.135 -1.66207 3.02439 0
M  V30 10602 C 985.248 -1.10851 4.17536 0
M  V30 10603 C 984.383 -2.22167 4.82509 0
M  V30 10604 C 983.422 -1.64152 5.89678 0
M  V30 10605 N 982.559 -2.69203 6.4844 0
M  V30 10606 H 987.399 0.0968275 2.97843 0
M  V30 10607 H 984.936 0.0595565 1.46979 0
M  V30 10608 H 986.894 -2.33672 3.4562 0
M  V30 10609 H 985.524 -2.24597 2.31853 0
M  V30 10610 H 984.576 -0.324853 3.7901 0
M  V30 10611 H 985.888 -0.644151 4.94623 0
M  V30 10612 H 985.042 -2.97501 5.28751 0
M  V30 10613 H 983.781 -2.71946 4.04842 0
M  V30 10614 H 982.786 -0.873228 5.42821 0
M  V30 10615 H 984.011 -1.15228 6.69253 0
M  V30 10616 H 981.957 -3.1824 5.73637 0
M  V30 10617 H 981.874 -2.27383 7.20994 0
M  V30 10618 H 983.142 -3.44312 6.99335 0
M  V30 10619 N 987.371 -1.57444 0.0701946 0
M  V30 10620 C 988.319 -2.13834 -0.915302 0
M  V30 10621 C 989.313 -1.07483 -1.30934 0
M  V30 10622 O 990.519 -1.25865 -1.28678 0
M  V30 10623 H 986.894 -0.683716 -0.313108 0
M  V30 10624 H 988.865 -2.95503 -0.414758 0
M  V30 10625 C 987.614 -2.71355 -2.17398 0
M  V30 10626 H 986.937 -3.52861 -1.87961 0
M  V30 10627 H 988.377 -3.1441 -2.84469 0
M  V30 10628 C 986.836 -1.66038 -2.93143 0
M  V30 10629 O 987.366 -1.08443 -3.86786 0
M  V30 10630 N 985.572 -1.3711 -2.56221 0
M  V30 10631 H 985.119 -1.84135 -1.80145 0
M  V30 10632 H 985.077 -0.66877 -3.07205 0
M  V30 10633 N 988.849 0.203349 -1.56283 0
M  V30 10634 C 990.097 0.923183 -1.79782 0
M  V30 10635 C 990.418 1.84134 -0.64185 0
M  V30 10636 O 989.688 1.92922 0.340292 0
M  V30 10637 H 988.268 0.343881 -0.66314 0
M  V30 10638 H 990.93 0.210837 -1.93756 0
M  V30 10639 H 990.026 1.51921 -2.72629 0
M  V30 10640 N 990.327 1.50405 0.470755 0
M  V30 10641 C 991.237 1.7208 1.59454 0
M  V30 10642 C 992.253 0.603932 1.63183 0
M  V30 10643 O 993.429 0.882296 1.81046 0
M  V30 10644 C 990.494 1.81057 2.95667 0
M  V30 10645 C 989.555 3.04792 3.02324 0
M  V30 10646 C 988.788 3.13332 4.3204 0
M  V30 10647 O 989.011 2.28655 5.22564 0
M  V30 10648 O 987.945 4.0606 4.44296 0
M  V30 10649 H 991.771 2.67343 1.44089 0
M  V30 10650 H 989.356 1.34505 0.650286 0
M  V30 10651 H 991.238 1.8914 3.76569 0
M  V30 10652 H 989.913 0.889782 3.11231 0
M  V30 10653 H 988.82 3.0221 2.205 0
M  V30 10654 H 990.153 3.96451 2.91698 0
M  V30 10655 N 991.805 -0.723954 1.39988 0
M  V30 10656 C 992.715 -1.86829 1.41887 0
M  V30 10657 C 993.731 -1.71173 0.312401 0
M  V30 10658 O 994.907 -1.93583 0.555651 0
M  V30 10659 C 991.972 -3.22541 1.27154 0
M  V30 10660 C 991.033 -3.50512 2.47871 0
M  V30 10661 C 990.266 -4.79749 2.33831 0
M  V30 10662 O 990.489 -5.54251 1.34765 0
M  V30 10663 O 989.423 -5.07868 3.23039 0
M  V30 10664 H 993.249 -1.88183 2.38371 0
M  V30 10665 H 990.834 -0.873259 1.21221 0
M  V30 10666 H 992.716 -4.0362 1.21114 0
M  V30 10667 H 991.391 -3.21933 0.337715 0
M  V30 10668 H 990.298 -2.69475 2.59488 0
M  V30 10669 H 991.631 -3.55909 3.39985 0
M  V30 10670 N 993.283 -1.25346 -0.955304 0
M  V30 10671 C 994.23 -1.05672 -2.05188 0
M  V30 10672 C 995.2 0.0339217 -1.66065 0
M  V30 10673 O 996.385 -0.123126 -1.90402 0
M  V30 10674 C 993.525 -0.680791 -3.38318 0
M  V30 10675 C 992.638 -1.84622 -3.90562 0
M  V30 10676 C 991.773 -1.41471 -5.12015 0
M  V30 10677 C 990.812 -2.54931 -5.56486 0
M  V30 10678 N 989.949 -2.1256 -6.69151 0
M  V30 10679 H 994.789 -1.9952 -2.2135 0
M  V30 10680 H 992.326 -0.993588 -1.08472 0
M  V30 10681 H 994.284 -0.443794 -4.14833 0
M  V30 10682 H 992.914 0.2207 -3.22045 0
M  V30 10683 H 991.966 -2.19654 -3.10574 0
M  V30 10684 H 993.278 -2.6983 -4.19515 0
M  V30 10685 H 992.432 -1.13732 -5.95945 0
M  V30 10686 H 991.171 -0.533334 -4.84775 0
M  V30 10687 H 990.176 -2.83415 -4.71122 0
M  V30 10688 H 991.401 -3.43645 -5.85734 0
M  V30 10689 H 989.347 -1.26838 -6.43621 0
M  V30 10690 H 989.264 -2.91317 -6.97618 0
M  V30 10691 H 990.532 -1.87996 -7.5649 0
M  V30 10692 N 994.761 1.15782 -1.06922 0
M  V30 10693 C 995.691 2.22538 -0.707045 0
M  V30 10694 C 996.672 1.67371 0.303471 0
M  V30 10695 O 997.857 1.9339 0.177189 0
M  V30 10696 C 994.987 3.47158 -0.0994269 0
M  V30 10697 C 993.941 4.15257 -1.03661 0
M  V30 10698 C 993.267 5.33902 -0.291974 0
M  V30 10699 C 994.567 4.65516 -2.36837 0
M  V30 10700 H 996.261 2.53089 -1.59958 0
M  V30 10701 H 993.807 1.21649 -0.770552 0
M  V30 10702 H 995.76 4.21073 0.165852 0
M  V30 10703 H 994.484 3.15926 0.828155 0
M  V30 10704 H 993.143 3.43276 -1.28674 0
M  V30 10705 H 992.791 4.98926 0.638928 0
M  V30 10706 H 992.491 5.80407 -0.916613 0
M  V30 10707 H 994.015 6.1059 -0.0343915 0
M  V30 10708 H 995.429 5.30981 -2.16175 0
M  V30 10709 H 993.826 5.22666 -2.94856 0
M  V30 10710 H 994.896 3.81387 -2.99453 0
M  V30 10711 N 996.239 0.8527 1.3254 0
M  V30 10712 C 997.169 0.311234 2.31416 0
M  V30 10713 C 998.15 -0.588557 1.59593 0
M  V30 10714 O 999.335 -0.509211 1.87405 0
M  V30 10715 C 996.465 -0.502892 3.4364 0
M  V30 10716 C 995.419 0.302296 4.26931 0
M  V30 10717 C 994.745 -0.636445 5.30899 0
M  V30 10718 C 996.045 1.52697 4.99481 0
M  V30 10719 H 997.739 1.13742 2.76953 0
M  V30 10720 H 995.285 0.548389 1.33149 0
M  V30 10721 H 997.238 -0.892092 4.11849 0
M  V30 10722 H 995.962 -1.36242 2.96826 0
M  V30 10723 H 994.621 0.673226 3.60365 0
M  V30 10724 H 994.269 -1.49277 4.80339 0
M  V30 10725 H 993.969 -0.101716 5.87512 0
M  V30 10726 H 995.493 -1.02286 6.01972 0
M  V30 10727 H 996.907 1.21017 5.60382 0
M  V30 10728 H 995.304 1.9995 5.65809 0
M  V30 10729 H 996.374 2.28929 4.27457 0
M  V30 10730 N 997.718 -1.45297 0.610449 0
M  V30 10731 C 999.129 -1.85715 0.191488 0
M  V30 10732 C 999.48 -1.51036 -1.25229 0
M  V30 10733 O 998.605 -0.938422 -1.94994 0
M  V30 10734 C 999.2 -3.37082 0.340747 0
M  V30 10735 C 997.759 -3.76393 -0.0235433 0
M  V30 10736 C 996.906 -2.69237 0.663849 0
M  V30 10737 H 999.857 -1.36058 0.816948 0
M  V30 10738 H 999.878 -3.78105 -0.426233 0
M  V30 10739 H 999.39 -3.62291 1.39164 0
M  V30 10740 H 997.491 -3.56801 -1.07351 0
M  V30 10741 H 997.604 -4.77653 0.372102 0
M  V30 10742 H 995.968 -2.54499 0.101204 0
M  V30 10743 H 996.751 -2.97281 1.71694 0
M  V30 10744 N 999.196 -0.349774 -1.5367 0
M  V30 10745 C 1000.44 0.244343 -2.00617 0
M  V30 10746 C 1000.76 1.50567 -1.23914 0
M  V30 10747 O 1000.03 1.92784 -0.348016 0
M  V30 10748 H 998.615 0.0932792 -0.741153 0
M  V30 10749 H 1001.28 -0.472367 -1.89089 0
M  V30 10750 H 1000.37 0.482433 -3.08349 0
M  V30 10751 N 1000.67 1.57404 -0.0785433 0
M  V30 10752 C 1001.6 2.16131 0.883726 0
M  V30 10753 C 1002.58 1.09015 1.30575 0
M  V30 10754 O 1003.77 1.3708 1.37559 0
M  V30 10755 C 1000.9 2.72836 2.1489 0
M  V30 10756 C 999.854 3.85178 1.86605 0
M  V30 10757 C 999.18 4.28516 3.1981 0
M  V30 10758 C 1000.48 5.09118 1.16601 0
M  V30 10759 H 1002.17 2.9679 0.394484 0
M  V30 10760 H 999.72 1.42763 0.188304 0
M  V30 10761 H 1001.67 3.12567 2.8263 0
M  V30 10762 H 1000.4 1.89408 2.66068 0
M  V30 10763 H 999.056 3.45962 1.21268 0
M  V30 10764 H 998.704 3.42 3.68843 0
M  V30 10765 H 998.404 5.04249 3.01674 0
M  V30 10766 H 999.928 4.70868 3.88737 0
M  V30 10767 H 1001.34 5.46123 1.74422 0
M  V30 10768 H 999.739 5.90173 1.087 0
M  V30 10769 H 1000.81 4.8468 0.146138 0
M  V30 10770 N 1002.15 -0.195058 1.56388 0
M  V30 10771 C 1003.43 -0.941335 1.71459 0
M  V30 10772 C 1003.81 -2.01375 0.633336 0
M  V30 10773 O 1003.16 -2.25715 -0.35567 0
M  V30 10774 C 1003.37 -1.52772 3.13786 0
M  V30 10775 C 1004.71 -2.00983 3.7402 0
M  V30 10776 O 1005.74 -1.62614 3.16915 0
M  V30 10777 O 1004.6 -2.71586 4.7424 0
M  V30 10778 H 1001.69 -0.441451 0.699321 0
M  V30 10779 H 1004.24 -0.184752 1.68691 0
M  V30 10780 H 1003.01 -0.754699 3.83953 0
M  V30 10781 H 1002.63 -2.34914 3.20782 0
M  V30 10782 N 1003.63 -1.50653 -0.462772 0
M  V30 10783 C 1004.56 -1.73056 -1.5676 0
M  V30 10784 C 1005.54 -0.579699 -1.59917 0
M  V30 10785 O 1006.73 -0.819729 -1.76051 0
M  V30 10786 C 1003.86 -1.83234 -2.9503 0
M  V30 10787 C 1002.81 -2.98488 -3.06739 0
M  V30 10788 C 1002.14 -2.93818 -4.46738 0
M  V30 10789 C 1003.44 -4.38869 -2.83181 0
M  V30 10790 H 1005.13 -2.65562 -1.38265 0
M  V30 10791 H 1002.68 -1.27792 -0.663722 0
M  V30 10792 H 1004.63 -1.97491 -3.72257 0
M  V30 10793 H 1003.35 -0.873558 -3.14701 0
M  V30 10794 H 1002.01 -2.83895 -2.31946 0
M  V30 10795 H 1001.66 -1.95769 -4.63339 0
M  V30 10796 H 1001.36 -3.71197 -4.55507 0
M  V30 10797 H 1002.88 -3.10135 -5.25974 0
M  V30 10798 H 1004.3 -4.53945 -3.50153 0
M  V30 10799 H 1002.69 -5.17762 -3.03386 0
M  V30 10800 H 1003.76 -4.50663 -1.78972 0
M  V30 10801 N 1005.11 0.71652 -1.4037 0
M  V30 10802 C 1006.06 1.85194 -1.40734 0
M  V30 10803 C 1007.05 1.66934 -0.287969 0
M  V30 10804 O 1008.26 1.74051 -0.458957 0
M  V30 10805 H 1004.63 0.609922 -0.439885 0
M  V30 10806 H 1006.6 1.82003 -2.36468 0
M  V30 10807 C 1005.35 3.23048 -1.28589 0
M  V30 10808 H 1004.67 3.37704 -2.13999 0
M  V30 10809 H 1006.11 4.02633 -1.32902 0
M  V30 10810 C 1004.57 3.369 0.00396512 0
M  V30 10811 O 1005.1 3.89881 0.967243 0
M  V30 10812 N 1003.31 2.90508 0.0731565 0
M  V30 10813 H 1002.86 2.4758 -0.711454 0
M  V30 10814 H 1002.81 3.00155 0.935652 0
M  V30 10815 N 1006.59 1.25851 0.948643 0
M  V30 10816 C 1007.54 1.03437 2.03187 0
M  V30 10817 C 1008.52 -0.0307632 1.60871 0
M  V30 10818 O 1009.71 0.185296 1.76027 0
M  V30 10819 C 1006.84 0.661426 3.36868 0
M  V30 10820 C 1005.93 1.76363 3.8569 0
M  V30 10821 N 1006.32 2.9998 4.07241 0
M  V30 10822 C 1004.62 1.64552 4.14534 0
M  V30 10823 C 1005.32 3.71564 4.47566 0
M  V30 10824 N 1004.29 2.99214 4.53841 0
M  V30 10825 H 1008.1 1.97277 2.17851 0
M  V30 10826 H 1005.61 1.16258 1.13392 0
M  V30 10827 H 1007.61 0.482021 4.14104 0
M  V30 10828 H 1006.27 -0.269582 3.23579 0
M  V30 10829 H 1007.28 3.35963 3.94143 0
M  V30 10830 H 1003.95 0.783891 4.10075 0
M  V30 10831 H 1005.34 4.77702 4.72494 0
M  V30 10832 N 1008.06 -1.15214 1.07534 0
M  V30 10833 C 1009.01 -2.20013 0.697337 0
M  V30 10834 C 1009.98 -1.6314 -0.312168 0
M  V30 10835 O 1011.17 -1.89768 -0.198196 0
M  V30 10836 C 1008.31 -3.44945 0.103293 0
M  V30 10837 C 1007.42 -4.16009 1.1645 0
M  V30 10838 C 1006.55 -5.28496 0.535261 0
M  V30 10839 C 1005.59 -5.9138 1.57912 0
M  V30 10840 N 1004.73 -6.95335 0.972332 0
M  V30 10841 H 1009.57 -2.51698 1.59538 0
M  V30 10842 H 1007.11 -1.2361 0.797431 0
M  V30 10843 H 1009.07 -4.16397 -0.258766 0
M  V30 10844 H 1007.7 -3.13772 -0.758096 0
M  V30 10845 H 1006.75 -3.43035 1.64411 0
M  V30 10846 H 1008.06 -4.58853 1.9559 0
M  V30 10847 H 1007.21 -6.06579 0.120942 0
M  V30 10848 H 1005.95 -4.8685 -0.287889 0
M  V30 10849 H 1004.96 -5.12008 2.0032 0
M  V30 10850 H 1006.18 -6.35103 2.40459 0
M  V30 10851 H 1004.13 -6.55779 0.170119 0
M  V30 10852 H 1004.05 -7.36616 1.70095 0
M  V30 10853 H 1005.31 -7.77312 0.583577 0
M  V30 10854 N 1009.54 -0.859717 -1.32086 0
M  V30 10855 C 1010.47 -0.265258 -2.2766 0
M  V30 10856 C 1011.49 0.565889 -1.52648 0
M  V30 10857 O 1012.68 0.389554 -1.74197 0
M  V30 10858 C 1009.78 0.643397 -3.32737 0
M  V30 10859 C 1008.95 -0.153024 -4.37132 0
M  V30 10860 C 1008.01 0.682176 -5.21759 0
M  V30 10861 O 1007.03 0.113878 -5.69086 0
M  V30 10862 N 1008.24 1.99602 -5.45105 0
M  V30 10863 H 1011 -1.08653 -2.79311 0
M  V30 10864 H 1008.56 -0.720191 -1.45 0
M  V30 10865 H 1010.55 1.20759 -3.86263 0
M  V30 10866 H 1009.12 1.36535 -2.81206 0
M  V30 10867 H 1008.34 -0.898657 -3.8382 0
M  V30 10868 H 1009.63 -0.699877 -5.03963 0
M  V30 10869 H 1009.03 2.481 -5.08393 0
M  V30 10870 H 1007.59 2.50823 -6.01607 0
M  V30 10871 N 1011.02 1.44971 -0.618145 0
M  V30 10872 C 1011.95 2.33357 0.0815955 0
M  V30 10873 C 1012.93 1.47451 0.848072 0
M  V30 10874 O 1014.12 1.762 0.816532 0
M  V30 10875 C 1011.25 3.30324 1.07253 0
M  V30 10876 C 1010.2 4.25948 0.418563 0
M  V30 10877 C 1009.53 5.12685 1.51849 0
M  V30 10878 C 1010.83 5.18024 -0.66697 0
M  V30 10879 H 1012.52 2.92115 -0.656442 0
M  V30 10880 H 1010.07 1.40465 -0.317129 0
M  V30 10881 H 1012.02 3.91033 1.57069 0
M  V30 10882 H 1010.74 2.69748 1.8413 0
M  V30 10883 H 1009.4 3.66553 -0.0588308 0
M  V30 10884 H 1009.05 4.4847 2.2778 0
M  V30 10885 H 1008.75 5.7747 1.08637 0
M  V30 10886 H 1010.27 5.76264 2.01871 0
M  V30 10887 H 1011.69 5.72744 -0.252448 0
M  V30 10888 H 1010.09 5.91343 -1.02146 0
M  V30 10889 H 1011.16 4.59817 -1.53936 0
M  V30 10890 N 1012.5 0.357919 1.53482 0
M  V30 10891 C 1013.75 -0.234163 2.01142 0
M  V30 10892 C 1014.07 -1.49399 1.2454 0
M  V30 10893 O 1013.33 -1.92981 0.325111 0
M  V30 10894 C 1013.63 -0.579617 3.52669 0
M  V30 10895 C 1013.29 0.584988 4.47089 0
M  V30 10896 C 1011.96 0.904558 4.72622 0
M  V30 10897 C 1014.31 1.3656 5.02992 0
M  V30 10898 C 1011.64 2.00685 5.5131 0
M  V30 10899 C 1013.99 2.45824 5.82884 0
M  V30 10900 C 1012.65 2.78325 6.06706 0
M  V30 10901 H 1011.92 -0.0856863 0.736029 0
M  V30 10902 H 1014.57 0.488801 1.85157 0
M  V30 10903 H 1012.87 -1.38349 3.66561 0
M  V30 10904 H 1014.57 -1.04985 3.87013 0
M  V30 10905 H 1011.16 0.32587 4.27359 0
M  V30 10906 H 1015.34 1.13196 4.83219 0
M  V30 10907 H 1010.6 2.26272 5.67988 0
M  V30 10908 H 1014.77 3.06732 6.25211 0
M  V30 10909 H 1012.4 3.63862 6.67464 0
M  V30 10910 N 1013.98 -1.5736 0.0868897 0
M  V30 10911 C 1015.22 -1.94054 -0.578741 0
M  V30 10912 C 1015.55 -0.968047 -1.68698 0
M  V30 10913 O 1014.81 0.0137824 -1.95695 0
M  V30 10914 C 1015.11 -3.37316 -1.18123 0
M  V30 10915 C 1014.77 -4.50467 -0.197607 0
M  V30 10916 C 1013.43 -4.81145 0.072952 0
M  V30 10917 C 1015.79 -5.19036 0.474473 0
M  V30 10918 C 1013.11 -5.77723 1.02242 0
M  V30 10919 C 1015.47 -6.16632 1.41236 0
M  V30 10920 C 1014.13 -6.45719 1.69124 0
M  V30 10921 H 1013.4 -0.710093 -0.211776 0
M  V30 10922 H 1016.05 -1.90822 0.160978 0
M  V30 10923 H 1014.35 -3.37085 -1.99701 0
M  V30 10924 H 1016.05 -3.63003 -1.7038 0
M  V30 10925 H 1012.64 -4.2655 -0.418669 0
M  V30 10926 H 1016.82 -4.95518 0.278581 0
M  V30 10927 H 1012.08 -5.98578 1.24557 0
M  V30 10928 H 1016.25 -6.68862 1.939 0
M  V30 10929 H 1013.88 -7.20365 2.42855 0
M  V30 10930 N 1015.45 0.186762 -1.56489 0
M  V30 10931 C 1016.38 1.23395 -1.98232 0
M  V30 10932 C 1017.37 1.4702 -0.855526 0
M  V30 10933 O 1018.55 1.58616 -1.12048 0
M  V30 10934 C 1015.68 2.57635 -2.32898 0
M  V30 10935 C 1014.63 2.48607 -3.48394 0
M  V30 10936 C 1013.96 3.87196 -3.68759 0
M  V30 10937 C 1015.26 2.00398 -4.82325 0
M  V30 10938 H 1016.95 0.887026 -2.85958 0
M  V30 10939 H 1014.5 0.42525 -1.37578 0
M  V30 10940 H 1016.45 3.31082 -2.60696 0
M  V30 10941 H 1015.18 2.94084 -1.42064 0
M  V30 10942 H 1013.84 1.77615 -3.207 0
M  V30 10943 H 1013.48 4.21012 -2.75241 0
M  V30 10944 H 1013.18 3.82029 -4.46462 0
M  V30 10945 H 1014.71 4.62253 -3.98941 0
M  V30 10946 H 1016.12 2.6361 -5.091 0
M  V30 10947 H 1014.52 2.06214 -5.63556 0
M  V30 10948 H 1015.59 0.957562 -4.75351 0
M  V30 10949 N 1016.93 1.50896 0.454776 0
M  V30 10950 C 1017.88 1.71497 1.57136 0
M  V30 10951 C 1018.87 0.58098 1.59126 0
M  V30 10952 O 1020.08 0.761916 1.63079 0
M  V30 10953 H 1016.46 0.54158 0.521724 0
M  V30 10954 H 1018.43 2.65129 1.36928 0
M  V30 10955 C 1017.18 1.84125 2.94947 0
M  V30 10956 H 1016.5 2.7078 2.9414 0
M  V30 10957 H 1017.94 2.02558 3.72487 0
M  V30 10958 C 1016.4 0.596752 3.31573 0
M  V30 10959 O 1016.93 -0.256632 4.00879 0
M  V30 10960 N 1015.13 0.445958 2.87158 0
M  V30 10961 H 1014.68 1.14146 2.30929 0
M  V30 10962 H 1014.64 -0.385519 3.12027 0
M  V30 10963 N 1018.41 -0.709066 1.40748 0
M  V30 10964 C 1019.66 -1.46901 1.39378 0
M  V30 10965 C 1019.99 -1.945 -0.0016993 0
M  V30 10966 O 1019.24 -1.68963 -0.987426 0
M  V30 10967 C 1019.54 -2.70543 2.33541 0
M  V30 10968 C 1019.21 -2.41674 3.80663 0
M  V30 10969 C 1017.87 -2.33511 4.20745 0
M  V30 10970 C 1020.22 -2.1759 4.73607 0
M  V30 10971 C 1017.55 -1.99342 5.51797 0
M  V30 10972 C 1019.9 -1.84933 6.04965 0
M  V30 10973 C 1018.56 -1.75256 6.44082 0
M  V30 10974 H 1017.83 -0.537549 0.510021 0
M  V30 10975 H 1020.48 -0.811635 1.7345 0
M  V30 10976 H 1018.79 -3.41149 1.92677 0
M  V30 10977 H 1020.48 -3.2865 2.29761 0
M  V30 10978 H 1017.07 -2.48917 3.4891 0
M  V30 10979 H 1021.26 -2.22849 4.43454 0
M  V30 10980 H 1016.51 -1.90392 5.81 0
M  V30 10981 H 1020.69 -1.65313 6.76494 0
M  V30 10982 H 1018.31 -1.48547 7.45545 0
M  V30 10983 N 1019.89 -1.26353 -0.941956 0
M  V30 10984 C 1020.85 -1.07904 -2.02211 0
M  V30 10985 C 1021.85 -0.0276283 -1.60776 0
M  V30 10986 O 1023.04 -0.270965 -1.7208 0
M  V30 10987 C 1020.17 -0.641084 -3.34818 0
M  V30 10988 H 1021.37 -2.03804 -2.20009 0
M  V30 10989 H 1018.92 -1.08939 -1.12081 0
M  V30 10990 H 1019.66 0.319943 -3.22718 0
M  V30 10991 H 1019.44 -1.40027 -3.66244 0
M  V30 10992 H 1020.93 -0.533826 -4.14174 0
M  V30 10993 N 1021.37 1.14642 -1.08144 0
M  V30 10994 C 1022.3 2.19283 -0.6669 0
M  V30 10995 C 1023.31 1.60292 0.284668 0
M  V30 10996 O 1024.5 1.78352 0.0727383 0
M  V30 10997 C 1021.6 3.38877 0.0398572 0
M  V30 10998 C 1020.77 4.274 -0.929929 0
M  V30 10999 C 1019.83 5.25562 -0.258991 0
M  V30 11000 O 1018.86 5.61999 -0.902563 0
M  V30 11001 N 1020.06 5.71958 0.992177 0
M  V30 11002 H 1022.83 2.55464 -1.5671 0
M  V30 11003 H 1020.39 1.29836 -0.96717 0
M  V30 11004 H 1022.38 4.01605 0.499583 0
M  V30 11005 H 1020.95 3.01043 0.842118 0
M  V30 11006 H 1020.17 3.61649 -1.56857 0
M  V30 11007 H 1021.46 4.83411 -1.58717 0
M  V30 11008 H 1020.86 5.44481 1.53484 0
M  V30 11009 H 1019.41 6.36687 1.39544 0
M  V30 11010 N 1022.85 0.866709 1.31628 0
M  V30 11011 C 1024.09 0.476731 1.97117 0
M  V30 11012 C 1024.42 -0.967813 1.68366 0
M  V30 11013 O 1023.7 -1.68101 0.978377 0
M  V30 11014 C 1023.98 0.730561 3.52611 0
M  V30 11015 C 1023.84 2.2244 3.90948 0
M  V30 11016 C 1025.15 0.19488 4.39668 0
M  V30 11017 H 1022.27 0.174682 0.715999 0
M  V30 11018 H 1024.92 1.08735 1.5581 0
M  V30 11019 H 1023.07 0.210834 3.87927 0
M  V30 11020 H 1024.74 2.81113 3.6575 0
M  V30 11021 H 1022.98 2.69824 3.39673 0
M  V30 11022 H 1023.65 2.35266 4.99353 0
M  V30 11023 H 1026.13 0.639478 4.11157 0
M  V30 11024 H 1025 0.401958 5.47426 0
M  V30 11025 H 1025.26 -0.90302 4.32779 0
M  V30 11026 N 1024.32 -1.44642 0.625825 0
M  V30 11027 C 1025.57 -2.02939 0.13689 0
M  V30 11028 C 1025.92 -1.48308 -1.22566 0
M  V30 11029 O 1025.22 -0.655458 -1.8004 0
M  V30 11030 C 1025.41 -3.57352 0.0584381 0
M  V30 11031 C 1025.24 -4.26963 1.41184 0
M  V30 11032 C 1024.01 -4.64153 1.99725 0
M  V30 11033 C 1026.21 -4.5775 2.34455 0
M  V30 11034 N 1024.19 -5.18706 3.28356 0
M  V30 11035 C 1025.56 -5.1333 3.47696 0
M  V30 11036 C 1027.62 -4.39699 2.336 0
M  V30 11037 C 1026.32 -5.5276 4.60271 0
M  V30 11038 C 1028.35 -4.80173 3.45235 0
M  V30 11039 C 1027.71 -5.35862 4.572 0
M  V30 11040 H 1023.81 -0.776343 0.0938879 0
M  V30 11041 H 1026.39 -1.76209 0.828162 0
M  V30 11042 H 1024.56 -3.83705 -0.6021 0
M  V30 11043 H 1026.29 -4.02314 -0.438835 0
M  V30 11044 H 1023.05 -4.48298 1.52728 0
M  V30 11045 H 1023.47 -5.50464 3.94105 0
M  V30 11046 H 1028.11 -3.95942 1.48289 0
M  V30 11047 H 1025.83 -5.95473 5.46294 0
M  V30 11048 H 1029.42 -4.67924 3.45743 0
M  V30 11049 H 1028.3 -5.66602 5.42154 0
M  V30 11050 N 1025.8 -0.366053 -1.5329 0
M  V30 11051 C 1027.04 0.223558 -2.03174 0
M  V30 11052 C 1027.41 1.45955 -1.24745 0
M  V30 11053 O 1028.61 2.12481 -1.64637 0
M  V30 11054 C 1026.88 0.507899 -3.53773 0
M  V30 11055 S 1028.44 1.07111 -4.25526 0
M  V30 11056 H 1025.25 0.0650309 -0.70802 0
M  V30 11057 H 1027.86 -0.509028 -1.88757 0
M  V30 11058 H 1026.56 -0.39913 -4.08455 0
M  V30 11059 H 1026.09 1.26954 -3.72352 0
M  V30 11060 H 1028.11 2.35533 -4.36737 0
M  V30 11061 N 1027.28 1.57312 -0.0952337 0
M  V30 11062 C 1028.53 1.93974 0.567319 0
M  V30 11063 C 1028.85 0.977805 1.68713 0
M  V30 11064 O 1028.12 0.0298944 1.95877 0
M  V30 11065 H 1026.7 0.71612 0.212558 0
M  V30 11066 H 1029.36 1.94254 -0.158598 0
M  V30 11067 H 1028.46 2.964 0.977423 0
M  V30 11068 N 1028.76 -0.17846 1.56586 0
M  V30 11069 C 1029.99 -0.911996 1.85715 0
M  V30 11070 C 1030.4 -1.76138 0.679766 0
M  V30 11071 O 1029.76 -1.79088 -0.351266 0
M  V30 11072 C 1029.81 -1.79459 3.1381 0
M  V30 11073 O 1029.53 -0.979476 4.2701 0
M  V30 11074 C 1031.03 -2.6384 3.56235 0
M  V30 11075 H 1028.25 -0.265299 0.616326 0
M  V30 11076 H 1030.79 -0.180704 2.037 0
M  V30 11077 H 1028.95 -2.4793 2.97673 0
M  V30 11078 H 1029.36 -1.58244 5.00059 0
M  V30 11079 H 1030.84 -3.21396 4.48786 0
M  V30 11080 H 1031.31 -3.38363 2.80013 0
M  V30 11081 H 1031.92 -2.00712 3.7496 0
M  V30 11082 N 1030.24 -1.51135 -0.446768 0
M  V30 11083 C 1031.47 -1.66887 -1.21788 0
M  V30 11084 C 1031.87 -0.361729 -1.8571 0
M  V30 11085 O 1031.22 0.668784 -1.71093 0
M  V30 11086 C 1031.28 -2.72062 -2.34994 0
M  V30 11087 C 1030.94 -4.14935 -1.91516 0
M  V30 11088 C 1031.94 -5.00021 -1.42389 0
M  V30 11089 C 1029.62 -4.60985 -1.99495 0
M  V30 11090 C 1031.62 -6.29216 -1.01816 0
M  V30 11091 C 1029.31 -5.90179 -1.58532 0
M  V30 11092 C 1030.3 -6.74121 -1.09774 0
M  V30 11093 O 1029.99 -8.009 -0.69389 0
M  V30 11094 H 1029.72 -0.563431 -0.373525 0
M  V30 11095 H 1032.28 -1.98261 -0.536818 0
M  V30 11096 H 1030.51 -2.35983 -3.06348 0
M  V30 11097 H 1032.2 -2.76788 -2.96889 0
M  V30 11098 H 1032.96 -4.6565 -1.35627 0
M  V30 11099 H 1028.84 -3.95777 -2.36393 0
M  V30 11100 H 1032.39 -6.94687 -0.636879 0
M  V30 11101 H 1028.28 -6.24066 -1.64962 0
M  V30 11102 H 1029.05 -8.14376 -0.820582 0
M  V30 11103 N 1031.71 0.701592 -1.41122 0
M  V30 11104 C 1033.13 1.01143 -1.23459 0
M  V30 11105 C 1033.33 2.01144 -0.11968 0
M  V30 11106 O 1032.39 2.47132 0.517889 0
M  V30 11107 C 1033.7 1.54179 -2.58165 0
M  V30 11108 C 1035.25 1.66093 -2.65296 0
M  V30 11109 C 1035.72 2.22532 -4.00304 0
M  V30 11110 N 1037.21 2.299 -4.0212 0
M  V30 11111 C 1037.95 2.74584 -5.0338 0
M  V30 11112 N 1037.44 3.18917 -6.15032 0
M  V30 11113 N 1039.24 2.74094 -4.90743 0
M  V30 11114 H 1031.39 0.0390087 -2.12364 0
M  V30 11115 H 1033.65 0.0798848 -0.944628 0
M  V30 11116 H 1033.36 0.881587 -3.40472 0
M  V30 11117 H 1033.23 2.52488 -2.80231 0
M  V30 11118 H 1035.62 2.31227 -1.83352 0
M  V30 11119 H 1035.7 0.663461 -2.47046 0
M  V30 11120 H 1035.34 1.58016 -4.82694 0
M  V30 11121 H 1035.27 3.2302 -4.15891 0
M  V30 11122 H 1037.76 1.98607 -3.21502 0
M  V30 11123 H 1038.08 3.5162 -6.88174 0
M  V30 11124 H 1036.42 3.1684 -6.18577 0
M  V30 11125 H 1039.61 2.38804 -4.02604 0
M  V30 11126 H 1039.79 3.086 -5.69798 0
M  V30 11127 N 1033.19 1.2685 0.935242 0
M  V30 11128 C 1034.6 1.11569 1.49697 0
M  V30 11129 C 1034.95 -0.301952 1.93863 0
M  V30 11130 O 1034.08 -1.19408 1.80473 0
M  V30 11131 C 1034.67 2.01918 2.72056 0
M  V30 11132 C 1033.23 1.90765 3.24477 0
M  V30 11133 C 1032.38 1.94918 1.97237 0
M  V30 11134 H 1035.33 1.39853 0.750116 0
M  V30 11135 H 1035.35 1.57056 3.46574 0
M  V30 11136 H 1034.86 3.05088 2.39881 0
M  V30 11137 H 1032.96 0.905521 3.61429 0
M  V30 11138 H 1033.08 2.76611 3.91182 0
M  V30 11139 H 1031.44 1.39046 2.13397 0
M  V30 11140 H 1032.22 2.99729 1.67385 0
M  V30 11141 N 1034.67 -1.14067 1.0875 0
M  V30 11142 C 1035.58 -2.22871 0.732498 0
M  V30 11143 C 1036.6 -1.72008 -0.26253 0
M  V30 11144 O 1037.77 -2.01123 -0.105601 0
M  V30 11145 C 1034.84 -3.46371 0.150913 0
M  V30 11146 C 1033.9 -4.12158 1.201 0
M  V30 11147 C 1033.13 -5.29763 0.647075 0
M  V30 11148 O 1033.35 -5.67911 -0.532307 0
M  V30 11149 O 1032.29 -5.8542 1.3988 0
M  V30 11150 H 1036.11 -2.55596 1.64025 0
M  V30 11151 H 1033.7 -1.22065 0.861417 0
M  V30 11152 H 1035.58 -4.21055 -0.170442 0
M  V30 11153 H 1034.26 -3.15362 -0.729948 0
M  V30 11154 H 1033.16 -3.39332 1.57494 0
M  V30 11155 H 1034.5 -4.47282 2.05426 0
M  V30 11156 N 1036.15 -0.873678 -1.31166 0
M  V30 11157 C 1037.38 -0.500317 -2.0045 0
M  V30 11158 C 1037.79 0.912716 -1.65729 0
M  V30 11159 O 1037.13 1.61001 -0.884563 0
M  V30 11160 C 1037.19 -0.58197 -3.54758 0
M  V30 11161 C 1036.86 -1.95728 -4.12964 0
M  V30 11162 C 1037.85 -2.92526 -4.29796 0
M  V30 11163 C 1035.54 -2.2596 -4.48606 0
M  V30 11164 C 1037.53 -4.17697 -4.81464 0
M  V30 11165 C 1035.22 -3.5138 -4.99976 0
M  V30 11166 C 1036.22 -4.47064 -5.16356 0
M  V30 11167 O 1035.9 -5.70259 -5.66621 0
M  V30 11168 H 1035.64 -0.193044 -0.64785 0
M  V30 11169 H 1038.19 -1.17768 -1.68285 0
M  V30 11170 H 1036.42 0.152326 -3.864 0
M  V30 11171 H 1038.11 -0.221506 -4.05295 0
M  V30 11172 H 1038.88 -2.70479 -4.02574 0
M  V30 11173 H 1034.75 -1.52258 -4.3513 0
M  V30 11174 H 1038.3 -4.92389 -4.94165 0
M  V30 11175 H 1034.2 -3.73269 -5.26631 0
M  V30 11176 H 1034.96 -5.72483 -5.84983 0
M  V30 11177 N 1037.63 1.44308 -0.633487 0
M  V30 11178 C 1038.59 2.2912 0.060376 0
M  V30 11179 C 1039.59 1.41166 0.769992 0
M  V30 11180 O 1040.78 1.63012 0.614224 0
M  V30 11181 C 1037.91 3.22798 1.0961 0
M  V30 11182 H 1039.1 2.91958 -0.685617 0
M  V30 11183 H 1036.66 1.51259 -0.393738 0
M  V30 11184 H 1037.39 2.64815 1.87199 0
M  V30 11185 H 1037.18 3.87618 0.591161 0
M  V30 11186 H 1038.67 3.86504 1.58127 0
M  V30 11187 N 1039.1 0.374177 1.53094 0
M  V30 11188 C 1040.35 -0.213131 2.01677 0
M  V30 11189 C 1040.68 -1.47715 1.26071 0
M  V30 11190 O 1039.96 -1.91199 0.356834 0
M  V30 11191 C 1040.24 -0.496392 3.56662 0
M  V30 11192 C 1040.09 0.781859 4.42953 0
M  V30 11193 C 1041.41 -1.29339 4.20666 0
M  V30 11194 H 1038.53 -0.0759885 0.733072 0
M  V30 11195 H 1041.17 0.500765 1.83282 0
M  V30 11196 H 1039.32 -1.10455 3.72467 0
M  V30 11197 H 1041 1.41914 4.38928 0
M  V30 11198 H 1039.24 1.40041 4.10574 0
M  V30 11199 H 1039.91 0.538508 5.49367 0
M  V30 11200 H 1042.39 -0.778848 4.08746 0
M  V30 11201 H 1041.26 -1.46033 5.29118 0
M  V30 11202 H 1041.52 -2.30435 3.77296 0
M  V30 11203 N 1040.58 -1.57259 0.103575 0
M  V30 11204 C 1041.53 -2.15727 -0.869739 0
M  V30 11205 C 1042.52 -1.10236 -1.28625 0
M  V30 11206 O 1043.73 -1.28567 -1.25979 0
M  V30 11207 H 1040.11 -0.690204 -0.298535 0
M  V30 11208 H 1042.08 -2.96317 -0.351984 0
M  V30 11209 C 1040.83 -2.75905 -2.11593 0
M  V30 11210 H 1040.15 -3.56768 -1.80434 0
M  V30 11211 H 1041.59 -3.20373 -2.77736 0
M  V30 11212 C 1040.05 -1.72218 -2.89556 0
M  V30 11213 O 1040.58 -1.16623 -3.84398 0
M  V30 11214 N 1038.78 -1.42514 -2.53255 0
M  V30 11215 H 1038.33 -1.87914 -1.76198 0
M  V30 11216 H 1038.29 -0.733782 -3.05717 0
M  V30 11217 N 1042.06 0.170153 -1.56679 0
M  V30 11218 C 1043.29 0.90618 -1.86556 0
M  V30 11219 C 1043.71 1.74986 -0.690044 0
M  V30 11220 O 1043.07 1.77672 0.360862 0
M  V30 11221 C 1043.12 1.75777 -3.14857 0
M  V30 11222 O 1042.22 2.85952 -2.97162 0
M  V30 11223 H 1041.56 0.253781 -0.613589 0
M  V30 11224 H 1044.09 0.167943 -2.0391 0
M  V30 11225 H 1044.1 2.15747 -3.46291 0
M  V30 11226 H 1042.78 1.13807 -4.00026 0
M  V30 11227 H 1041.35 2.49557 -2.77084 0
M  V30 11228 N 1043.54 1.5137 0.438746 0
M  V30 11229 C 1044.79 1.63202 1.18524 0
M  V30 11230 C 1045.1 0.353408 1.92381 0
M  V30 11231 O 1046.31 0.351086 2.6922 0
M  V30 11232 C 1044.76 2.88218 2.15542 0
M  V30 11233 C 1044.37 4.23078 1.47339 0
M  V30 11234 C 1046.11 3.09407 2.90633 0
M  V30 11235 C 1044.02 5.39246 2.42833 0
M  V30 11236 H 1042.95 0.607864 0.446114 0
M  V30 11237 H 1045.6 1.77835 0.452421 0
M  V30 11238 H 1043.98 2.67216 2.92253 0
M  V30 11239 H 1045.16 4.54457 0.761964 0
M  V30 11240 H 1043.47 4.07755 0.844065 0
M  V30 11241 H 1046.07 3.9337 3.62165 0
M  V30 11242 H 1046.41 2.22428 3.51897 0
M  V30 11243 H 1046.95 3.30743 2.21029 0
M  V30 11244 H 1043.69 6.2848 1.8626 0
M  V30 11245 H 1043.21 5.12245 3.12034 0
M  V30 11246 H 1044.88 5.71137 3.03992 0
M  V30 11247 N 1045.02 -0.694098 1.41492 0
M  V30 11248 C 1045.96 -1.80801 1.43456 0
M  V30 11249 C 1046.93 -1.63571 0.288757 0
M  V30 11250 O 1048.12 -1.844 0.490017 0
M  V30 11251 C 1045.26 -3.18694 1.32394 0
M  V30 11252 C 1044.37 -3.47346 2.56855 0
M  V30 11253 C 1043.51 -4.74862 2.38075 0
M  V30 11254 C 1042.55 -4.96486 3.58005 0
M  V30 11255 N 1041.68 -6.15229 3.38287 0
M  V30 11256 H 1046.52 -1.78457 2.38657 0
M  V30 11257 H 1044.06 -0.871455 1.18508 0
M  V30 11258 H 1046.02 -3.98352 1.23982 0
M  V30 11259 H 1044.65 -3.20211 0.407999 0
M  V30 11260 H 1043.7 -2.62083 2.75711 0
M  V30 11261 H 1045.01 -3.59226 3.4606 0
M  V30 11262 H 1044.17 -5.62577 2.27139 0
M  V30 11263 H 1042.9 -4.6523 1.46329 0
M  V30 11264 H 1041.91 -4.07219 3.69395 0
M  V30 11265 H 1043.13 -5.07976 4.50708 0
M  V30 11266 H 1041.08 -6.06807 2.49242 0
M  V30 11267 H 1041 -6.27883 4.21069 0
M  V30 11268 H 1042.27 -7.05674 3.31126 0
M  V30 11269 N 1046.49 -1.27344 -0.928501 0
M  V30 11270 C 1047.72 -1.16447 -1.7102 0
M  V30 11271 C 1048.14 0.278799 -1.8673 0
M  V30 11272 O 1047.49 1.18989 -1.38376 0
M  V30 11273 C 1047.55 -1.84242 -3.11026 0
M  V30 11274 O 1047.27 -3.2293 -2.96054 0
M  V30 11275 C 1048.77 -1.7946 -4.05351 0
M  V30 11276 H 1045.99 -0.404898 -0.535069 0
M  V30 11277 H 1048.53 -1.68201 -1.16313 0
M  V30 11278 H 1046.69 -1.36395 -3.62595 0
M  V30 11279 H 1047.1 -3.5667 -3.8456 0
M  V30 11280 H 1048.57 -2.31511 -5.01105 0
M  V30 11281 H 1049.05 -0.763771 -4.32508 0
M  V30 11282 H 1049.66 -2.26918 -3.59706 0
M  V30 11283 N 1047.97 1.13488 -1.09353 0
M  V30 11284 C 1049.25 1.80998 -0.741559 0
M  V30 11285 C 1049.63 1.96418 0.773505 0
M  V30 11286 O 1048.98 1.53168 1.69563 0
M  V30 11287 C 1049.19 3.16078 -1.47972 0
M  V30 11288 C 1050.54 3.91438 -1.64504 0
M  V30 11289 O 1051.56 3.25699 -1.44218 0
M  V30 11290 O 1050.42 5.0935 -1.98054 0
M  V30 11291 H 1047.51 0.782953 -0.266297 0
M  V30 11292 H 1050.06 1.20422 -1.19569 0
M  V30 11293 H 1048.83 3.00076 -2.51137 0
M  V30 11294 H 1048.45 3.84354 -1.01772 0
M  V30 11295 N 1049.45 0.880621 1.30701 0
M  V30 11296 C 1050.7 0.497611 1.966 0
M  V30 11297 C 1051.03 -0.949901 1.69383 0
M  V30 11298 O 1050.31 -1.67054 0.996152 0
M  V30 11299 C 1050.59 0.767919 3.51817 0
M  V30 11300 C 1050.44 2.26574 3.88567 0
M  V30 11301 C 1051.76 0.241502 4.39437 0
M  V30 11302 H 1048.88 0.182267 0.714106 0
M  V30 11303 H 1051.52 1.10382 1.54648 0
M  V30 11304 H 1049.67 0.251967 3.87682 0
M  V30 11305 H 1051.34 2.84977 3.62748 0
M  V30 11306 H 1049.59 2.73411 3.36792 0
M  V30 11307 H 1050.26 2.40549 4.9683 0
M  V30 11308 H 1052.73 0.683051 4.10455 0
M  V30 11309 H 1051.61 0.459997 5.46969 0
M  V30 11310 H 1051.87 -0.857068 4.33713 0
M  V30 11311 N 1050.93 -1.4397 0.641131 0
M  V30 11312 C 1051.88 -2.2786 -0.079879 0
M  V30 11313 C 1052.86 -1.39227 -0.80651 0
M  V30 11314 O 1054.06 -1.62956 -0.690969 0
M  V30 11315 C 1051.18 -3.26722 -1.05394 0
M  V30 11316 C 1050.27 -4.22842 -0.326411 0
M  V30 11317 N 1050.66 -5.016 0.650464 0
M  V30 11318 C 1048.96 -4.42349 -0.569507 0
M  V30 11319 C 1049.66 -5.71563 1.08121 0
M  V30 11320 N 1048.64 -5.41991 0.417932 0
M  V30 11321 H 1052.44 -2.86163 0.669906 0
M  V30 11322 H 1049.95 -1.55528 0.467433 0
M  V30 11323 H 1051.95 -3.85588 -1.58517 0
M  V30 11324 H 1050.61 -2.69979 -1.80392 0
M  V30 11325 H 1051.62 -5.07581 1.0287 0
M  V30 11326 H 1048.3 -3.96693 -1.30159 0
M  V30 11327 H 1049.69 -6.44805 1.88883 0
M  V30 11328 N 1052.41 -0.382291 -1.52893 0
M  V30 11329 C 1053.63 0.204961 -2.06385 0
M  V30 11330 C 1054.06 1.40316 -1.25271 0
M  V30 11331 O 1053.42 1.79187 -0.275969 0
M  V30 11332 C 1053.46 0.560205 -3.56222 0
M  V30 11333 O 1052.57 1.65515 -3.77728 0
M  V30 11334 H 1051.91 0.0258798 -0.663495 0
M  V30 11335 H 1054.44 -0.547733 -1.97132 0
M  V30 11336 H 1054.45 0.826501 -3.99541 0
M  V30 11337 H 1053.12 -0.31584 -4.14699 0
M  V30 11338 H 1051.7 1.38311 -3.46301 0
M  V30 11339 N 1053.89 1.57202 -0.111913 0
M  V30 11340 C 1055.3 1.82039 0.414591 0
M  V30 11341 C 1055.65 1.02863 1.67074 0
M  V30 11342 O 1054.77 0.263068 2.14795 0
M  V30 11343 C 1055.37 3.3019 0.758953 0
M  V30 11344 C 1053.93 3.55732 1.23012 0
M  V30 11345 C 1053.07 2.76301 0.235226 0
M  V30 11346 H 1056.02 1.55078 -0.337142 0
M  V30 11347 H 1056.05 3.44431 1.61701 0
M  V30 11348 H 1055.56 3.87788 -0.155473 0
M  V30 11349 H 1053.66 3.03483 2.16169 0
M  V30 11350 H 1053.77 4.64333 1.18034 0
M  V30 11351 H 1052.14 2.44287 0.720822 0
M  V30 11352 H 1052.92 3.36655 -0.672173 0
M  V30 11353 N 1055.36 -0.161842 1.56767 0
M  V30 11354 C 1056.61 -0.875192 1.82167 0
M  V30 11355 C 1056.93 -1.82367 0.690444 0
M  V30 11356 O 1056.2 -1.93756 -0.289023 0
M  V30 11357 H 1054.78 -0.326178 0.672024 0
M  V30 11358 H 1057.44 -0.159392 1.94247 0
M  V30 11359 H 1056.54 -1.44639 2.76561 0
M  V30 11360 N 1056.84 -1.516 -0.430713 0
M  V30 11361 C 1057.79 -1.73975 -1.54387 0
M  V30 11362 C 1058.78 -0.606222 -1.58181 0
M  V30 11363 O 1059.99 -0.787764 -1.61846 0
M  V30 11364 H 1056.36 -0.549811 -0.513041 0
M  V30 11365 H 1058.34 -2.67274 -1.32692 0
M  V30 11366 C 1057.08 -1.88794 -2.9198 0
M  V30 11367 H 1056.41 -2.75425 -2.89795 0
M  V30 11368 H 1057.85 -2.08458 -3.69217 0
M  V30 11369 C 1056.31 -0.649427 -3.30581 0
M  V30 11370 O 1056.84 0.192823 -4.01237 0
M  V30 11371 N 1055.04 -0.491586 -2.86412 0
M  V30 11372 H 1054.59 -1.17806 -2.29084 0
M  V30 11373 H 1054.55 0.33583 -3.12601 0
M  V30 11374 N 1058.32 0.686584 -1.41858 0
M  V30 11375 C 1059.57 1.44665 -1.41698 0
M  V30 11376 C 1059.89 1.94478 -0.0292442 0
M  V30 11377 O 1059.15 1.70512 0.960421 0
M  V30 11378 C 1059.45 2.66793 -2.37816 0
M  V30 11379 C 1059.11 2.35587 -3.8446 0
M  V30 11380 C 1057.78 2.26788 -4.24406 0
M  V30 11381 C 1060.13 2.10028 -4.77009 0
M  V30 11382 C 1057.46 1.90538 -5.54898 0
M  V30 11383 C 1059.81 1.75285 -6.07831 0
M  V30 11384 C 1058.47 1.64987 -6.46789 0
M  V30 11385 H 1057.74 0.529367 -0.518509 0
M  V30 11386 H 1060.39 0.783938 -1.74719 0
M  V30 11387 H 1058.69 3.38041 -1.9808 0
M  V30 11388 H 1060.39 3.24953 -2.34961 0
M  V30 11389 H 1056.98 2.43334 -3.52826 0
M  V30 11390 H 1061.17 2.15766 -4.46944 0
M  V30 11391 H 1056.42 1.81125 -5.83955 0
M  V30 11392 H 1060.6 1.5453 -6.79039 0
M  V30 11393 H 1058.22 1.36667 -7.47814 0
M  V30 11394 N 1059.8 1.27835 0.921735 0
M  V30 11395 C 1061.21 1.05369 1.19873 0
M  V30 11396 C 1061.41 -0.208997 2.00413 0
M  V30 11397 O 1060.47 -0.912861 2.35421 0
M  V30 11398 C 1061.78 2.29658 1.94108 0
M  V30 11399 C 1063.33 2.34756 2.07023 0
M  V30 11400 C 1063.81 3.5879 2.84664 0
M  V30 11401 N 1065.3 3.59383 2.9223 0
M  V30 11402 C 1066.03 4.52029 3.52785 0
M  V30 11403 N 1065.53 5.54986 4.14683 0
M  V30 11404 N 1067.32 4.39641 3.50246 0
M  V30 11405 H 1059.47 2.08903 0.383819 0
M  V30 11406 H 1061.73 0.919065 0.232429 0
M  V30 11407 H 1061.44 3.21604 1.4235 0
M  V30 11408 H 1061.31 2.35444 2.94696 0
M  V30 11409 H 1063.7 1.43312 2.57965 0
M  V30 11410 H 1063.78 2.32969 1.05636 0
M  V30 11411 H 1063.43 4.50574 2.34404 0
M  V30 11412 H 1063.36 3.57829 3.86349 0
M  V30 11413 H 1065.85 2.84927 2.48244 0
M  V30 11414 H 1066.16 6.21837 4.58845 0
M  V30 11415 H 1064.51 5.58822 4.13211 0
M  V30 11416 H 1067.7 3.58413 3.01094 0
M  V30 11417 H 1067.87 5.12033 3.97148 0
M  V30 11418 N 1061.28 -1.12907 1.09954 0
M  V30 11419 C 1062.52 -1.83661 0.833761 0
M  V30 11420 C 1062.84 -1.84736 -0.642798 0
M  V30 11421 O 1064.04 -2.51437 -1.0243 0
M  V30 11422 C 1062.5 -3.29763 1.44168 0
M  V30 11423 C 1062.11 -3.3706 2.95118 0
M  V30 11424 C 1063.85 -4.05522 1.25509 0
M  V30 11425 C 1061.76 -4.77467 3.48969 0
M  V30 11426 H 1060.69 -0.688115 0.308242 0
M  V30 11427 H 1063.34 -1.27166 1.32291 0
M  V30 11428 H 1061.72 -3.86094 0.880215 0
M  V30 11429 H 1062.9 -2.90695 3.57537 0
M  V30 11430 H 1061.21 -2.7477 3.12874 0
M  V30 11431 H 1063.81 -5.09188 1.63191 0
M  V30 11432 H 1064.15 -4.15837 0.196208 0
M  V30 11433 H 1064.68 -3.55536 1.78435 0
M  V30 11434 H 1061.42 -4.72344 4.54501 0
M  V30 11435 H 1060.94 -5.24305 2.91315 0
M  V30 11436 H 1062.62 -5.46397 3.46495 0
M  V30 11437 N 1062.75 -0.88754 -1.30232 0
M  V30 11438 C 1064 -0.503322 -1.95319 0
M  V30 11439 C 1064.32 0.952817 -1.70824 0
M  V30 11440 O 1065.52 1.444 -2.29915 0
M  V30 11441 C 1063.98 -0.849216 -3.49738 0
M  V30 11442 C 1063.59 -2.3233 -3.83049 0
M  V30 11443 C 1065.33 -0.53432 -4.21124 0
M  V30 11444 C 1063.24 -2.61069 -5.30657 0
M  V30 11445 H 1062.17 -0.1845 -0.731078 0
M  V30 11446 H 1064.82 -1.08287 -1.48143 0
M  V30 11447 H 1063.2 -0.198729 -3.95501 0
M  V30 11448 H 1064.37 -3.01832 -3.48187 0
M  V30 11449 H 1062.69 -2.60599 -3.24773 0
M  V30 11450 H 1065.29 -0.726039 -5.29748 0
M  V30 11451 H 1065.63 0.526434 -4.12958 0
M  V30 11452 H 1066.16 -1.14211 -3.81052 0
M  V30 11453 H 1062.9 -3.65895 -5.43876 0
M  V30 11454 H 1062.42 -1.96179 -5.6681 0
M  V30 11455 H 1064.1 -2.46703 -5.98119 0
M  V30 11456 N 1064.23 1.43628 -0.648757 0
M  V30 11457 C 1065.48 2.01465 -0.16002 0
M  V30 11458 C 1065.8 1.51413 1.22878 0
M  V30 11459 O 1065.07 0.724919 1.81994 0
M  V30 11460 H 1063.65 0.744885 -0.0561672 0
M  V30 11461 H 1066.31 1.75897 -0.839422 0
M  V30 11462 H 1065.41 3.1178 -0.141213 0
M  V30 11463 N 1065.71 0.390394 1.52688 0
M  V30 11464 C 1066.94 -0.191485 2.06012 0
M  V30 11465 C 1067.35 -1.40422 1.26202 0
M  V30 11466 O 1066.71 -1.79866 0.308963 0
M  V30 11467 C 1066.76 -0.560521 3.57128 0
M  V30 11468 O 1066.48 0.60404 4.33916 0
M  V30 11469 C 1067.98 -1.19814 4.26801 0
M  V30 11470 H 1065.2 -0.0286311 0.670389 0
M  V30 11471 H 1067.75 0.555939 1.96798 0
M  V30 11472 H 1065.9 -1.25784 3.66411 0
M  V30 11473 H 1066.32 0.300467 5.23639 0
M  V30 11474 H 1067.79 -1.40672 5.33775 0
M  V30 11475 H 1068.27 -2.16582 3.82085 0
M  V30 11476 H 1068.87 -0.541558 4.21838 0
M  V30 11477 N 1067.19 -1.57141 0.120249 0
M  V30 11478 C 1068.12 -2.18398 -0.826112 0
M  V30 11479 C 1069.1 -1.12439 -1.27638 0
M  V30 11480 O 1070.28 -1.40679 -1.33877 0
M  V30 11481 C 1067.41 -2.78438 -2.0758 0
M  V30 11482 C 1066.37 -3.89991 -1.76327 0
M  V30 11483 C 1065.69 -4.36844 -3.08336 0
M  V30 11484 C 1066.99 -5.12031 -1.03062 0
M  V30 11485 H 1068.69 -2.97731 -0.315656 0
M  V30 11486 H 1066.23 -1.43213 -0.150387 0
M  V30 11487 H 1068.19 -3.19951 -2.74243 0
M  V30 11488 H 1066.91 -1.96396 -2.60953 0
M  V30 11489 H 1065.57 -3.49055 -1.12053 0
M  V30 11490 H 1065.22 -3.51659 -3.59646 0
M  V30 11491 H 1064.92 -5.1207 -2.88199 0
M  V30 11492 H 1066.44 -4.81009 -3.76116 0
M  V30 11493 H 1067.86 -5.50555 -1.59881 0
M  V30 11494 H 1066.25 -5.92848 -0.930146 0
M  V30 11495 H 1067.32 -4.84897 -0.017582 0
M  V30 11496 N 1068.67 0.153526 -1.5685 0
M  V30 11497 C 1069.6 1.2147 -1.94365 0
M  V30 11498 C 1070.61 1.39532 -0.838726 0
M  V30 11499 O 1071.8 1.39219 -1.11715 0
M  V30 11500 C 1068.9 2.5806 -2.19677 0
M  V30 11501 C 1068.07 2.61062 -3.50949 0
M  V30 11502 C 1067.13 3.79144 -3.64878 0
M  V30 11503 O 1066.16 3.64319 -4.37333 0
M  V30 11504 N 1067.36 4.96333 -3.01054 0
M  V30 11505 H 1070.13 0.895889 -2.85996 0
M  V30 11506 H 1067.69 0.343147 -1.58222 0
M  V30 11507 H 1069.68 3.35553 -2.26243 0
M  V30 11508 H 1068.25 2.8226 -1.34343 0
M  V30 11509 H 1067.47 1.69533 -3.55882 0
M  V30 11510 H 1068.76 2.60094 -4.37297 0
M  V30 11511 H 1068.15 5.1128 -2.42093 0
M  V30 11512 H 1066.71 5.71625 -3.13191 0
M  V30 11513 N 1070.14 1.51827 0.422667 0
M  V30 11514 C 1071.09 1.74791 1.53463 0
M  V30 11515 C 1072.09 0.614602 1.57858 0
M  V30 11516 O 1073.29 0.796336 1.61426 0
M  V30 11517 H 1069.67 0.552524 0.510118 0
M  V30 11518 H 1071.64 2.67974 1.31273 0
M  V30 11519 C 1070.39 1.90339 2.90975 0
M  V30 11520 H 1069.71 2.76958 2.8833 0
M  V30 11521 H 1071.15 2.10413 3.68106 0
M  V30 11522 C 1069.61 0.66695 3.30232 0
M  V30 11523 O 1070.14 -0.171542 4.01334 0
M  V30 11524 N 1068.35 0.506768 2.86147 0
M  V30 11525 H 1067.89 1.19019 2.28456 0
M  V30 11526 H 1067.85 -0.319247 3.12775 0
M  V30 11527 N 1071.62 -0.679052 1.4222 0
M  V30 11528 C 1072.85 -1.47248 1.46058 0
M  V30 11529 C 1073.27 -1.87962 0.0720987 0
M  V30 11530 O 1072.63 -1.5572 -0.928488 0
M  V30 11531 C 1072.68 -2.70067 2.38948 0
M  V30 11532 O 1071.78 -3.68178 1.85791 0
M  V30 11533 H 1071.12 -0.442533 0.495036 0
M  V30 11534 H 1073.65 -0.833263 1.86863 0
M  V30 11535 H 1073.66 -3.18187 2.55385 0
M  V30 11536 H 1072.34 -2.39773 3.39826 0
M  V30 11537 H 1070.92 -3.2719 1.78889 0
M  V30 11538 N 1073.1 -1.28322 -0.914942 0
M  V30 11539 C 1074.06 -1.12169 -1.99877 0
M  V30 11540 C 1075.06 -0.0617252 -1.60681 0
M  V30 11541 O 1076.25 -0.307405 -1.71466 0
M  V30 11542 C 1073.39 -0.711959 -3.33383 0
M  V30 11543 H 1074.58 -2.08425 -2.15636 0
M  V30 11544 H 1072.13 -1.11291 -1.09745 0
M  V30 11545 H 1072.87 0.251418 -3.23324 0
M  V30 11546 H 1072.65 -1.47764 -3.63192 0
M  V30 11547 H 1074.14 -0.621558 -4.12948 0
M  V30 11548 N 1074.58 1.12322 -1.10551 0
M  V30 11549 C 1075.49 2.21678 -0.767862 0
M  V30 11550 C 1076.5 1.72404 0.235132 0
M  V30 11551 O 1077.68 2.01266 0.0735912 0
M  V30 11552 C 1074.75 3.46087 -0.205999 0
M  V30 11553 C 1073.81 4.10195 -1.26642 0
M  V30 11554 C 1073.04 5.28666 -0.731274 0
M  V30 11555 O 1073.26 5.68686 0.44189 0
M  V30 11556 O 1072.2 5.83121 -1.49176 0
M  V30 11557 H 1076.02 2.52955 -1.6807 0
M  V30 11558 H 1073.61 1.2068 -0.880728 0
M  V30 11559 H 1075.49 4.21273 0.103435 0
M  V30 11560 H 1074.16 3.16484 0.679685 0
M  V30 11561 H 1073.07 3.36784 -1.62873 0
M  V30 11562 H 1074.4 4.43957 -2.12516 0
M  V30 11563 N 1076.06 0.894434 1.2976 0
M  V30 11564 C 1077.3 0.517669 1.95771 0
M  V30 11565 C 1077.63 -0.935028 1.70551 0
M  V30 11566 O 1076.89 -1.67722 1.00835 0
M  V30 11567 C 1077.19 0.750307 3.49435 0
M  V30 11568 C 1076.85 2.17955 3.94723 0
M  V30 11569 C 1075.51 2.57036 4.068 0
M  V30 11570 C 1077.87 3.11053 4.18205 0
M  V30 11571 C 1075.19 3.88406 4.39724 0
M  V30 11572 C 1077.55 4.41966 4.52602 0
M  V30 11573 C 1076.21 4.80927 4.62888 0
M  V30 11574 H 1075.48 0.189428 0.716378 0
M  V30 11575 H 1078.13 1.13209 1.54454 0
M  V30 11576 H 1076.43 0.0529242 3.91764 0
M  V30 11577 H 1078.13 0.438251 3.98598 0
M  V30 11578 H 1074.72 1.86622 3.85837 0
M  V30 11579 H 1078.9 2.82076 4.08347 0
M  V30 11580 H 1074.16 4.18321 4.4589 0
M  V30 11581 H 1078.33 5.14134 4.69722 0
M  V30 11582 H 1075.96 5.82759 4.88156 0
M  V30 11583 N 1077.53 -1.43282 0.656365 0
M  V30 11584 C 1078.76 -2.06641 0.177245 0
M  V30 11585 C 1079.18 -1.48893 -1.14946 0
M  V30 11586 O 1078.54 -0.600099 -1.7108 0
M  V30 11587 C 1078.59 -3.60453 0.10299 0
M  V30 11588 O 1077.69 -4.01687 -0.933895 0
M  V30 11589 H 1077.04 -0.656978 0.096314 0
M  V30 11590 H 1079.57 -1.83733 0.900178 0
M  V30 11591 H 1079.58 -4.07923 -0.079291 0
M  V30 11592 H 1078.25 -4.01861 1.07147 0
M  V30 11593 H 1076.83 -3.65801 -0.724148 0
M  V30 11594 N 1079.01 -0.398486 -1.52479 0
M  V30 11595 C 1079.92 0.439328 -2.3045 0
M  V30 11596 C 1080.94 1.06322 -1.37738 0
M  V30 11597 O 1082.12 1.06704 -1.7081 0
M  V30 11598 C 1079.18 1.54655 -3.10294 0
M  V30 11599 C 1078.24 0.946824 -4.18729 0
M  V30 11600 C 1077.47 2.00129 -4.94757 0
M  V30 11601 O 1077.7 3.2178 -4.70971 0
M  V30 11602 O 1076.63 1.61345 -5.79872 0
M  V30 11603 H 1080.46 -0.196118 -3.03066 0
M  V30 11604 H 1078.04 -0.161961 -1.4852 0
M  V30 11605 H 1079.92 2.18958 -3.60049 0
M  V30 11606 H 1078.6 2.1668 -2.40482 0
M  V30 11607 H 1077.51 0.266802 -3.73147 0
M  V30 11608 H 1078.84 0.370664 -4.90802 0
M  V30 11609 N 1080.49 1.57075 -0.12858 0
M  V30 11610 C 1081.45 2.14643 0.803813 0
M  V30 11611 C 1082.45 1.08363 1.18803 0
M  V30 11612 O 1083.64 1.34093 1.11197 0
M  V30 11613 C 1080.78 2.6945 2.08829 0
M  V30 11614 H 1081.97 2.98362 0.303347 0
M  V30 11615 H 1079.52 1.55833 0.120735 0
M  V30 11616 H 1080.26 1.89345 2.63285 0
M  V30 11617 H 1080.04 3.47187 1.82218 0
M  V30 11618 H 1081.53 3.13865 2.7546 0
M  V30 11619 N 1081.97 -0.145205 1.5693 0
M  V30 11620 C 1083.22 -0.857516 1.83447 0
M  V30 11621 C 1083.54 -1.81088 0.709739 0
M  V30 11622 O 1082.8 -1.9337 -0.301097 0
M  V30 11623 C 1083.1 -1.66391 3.16305 0
M  V30 11624 C 1082.76 -0.857171 4.42678 0
M  V30 11625 C 1081.43 -0.634611 4.76997 0
M  V30 11626 C 1083.78 -0.293105 5.20375 0
M  V30 11627 C 1081.11 0.162693 5.86474 0
M  V30 11628 C 1083.46 0.491248 6.3069 0
M  V30 11629 C 1082.12 0.724368 6.63558 0
M  V30 11630 H 1081.39 -0.313787 0.671281 0
M  V30 11631 H 1084.04 -0.121074 1.91117 0
M  V30 11632 H 1082.34 -2.47051 3.04094 0
M  V30 11633 H 1084.04 -2.21855 3.34038 0
M  V30 11634 H 1080.63 -1.0407 4.15773 0
M  V30 11635 H 1084.82 -0.452326 4.94234 0
M  V30 11636 H 1080.07 0.352788 6.10381 0
M  V30 11637 H 1084.25 0.935449 6.90089 0
M  V30 11638 H 1081.87 1.34403 7.48224 0
M  V30 11639 N 1083.45 -1.52049 -0.414609 0
M  V30 11640 C 1084.4 -1.7138 -1.50376 0
M  V30 11641 C 1085.38 -0.567692 -1.50553 0
M  V30 11642 O 1086.57 -0.824541 -1.56622 0
M  V30 11643 C 1083.7 -1.86291 -2.88358 0
M  V30 11644 C 1082.79 -3.06757 -2.9285 0
M  V30 11645 N 1083.18 -4.29557 -2.67048 0
M  V30 11646 C 1081.48 -3.06478 -3.24018 0
M  V30 11647 C 1082.18 -5.10988 -2.77968 0
M  V30 11648 N 1081.15 -4.46117 -3.10613 0
M  V30 11649 H 1084.96 -2.63972 -1.29213 0
M  V30 11650 H 1082.47 -1.50006 -0.622244 0
M  V30 11651 H 1084.47 -1.98256 -3.66743 0
M  V30 11652 H 1083.13 -0.948959 -3.10524 0
M  V30 11653 H 1084.14 -4.58122 -2.41546 0
M  V30 11654 H 1080.82 -2.24799 -3.51812 0
M  V30 11655 H 1082.21 -6.18806 -2.6178 0
M  V30 11656 N 1084.93 0.6715 -1.42579 0
M  V30 11657 C 1086.17 1.44353 -1.44712 0
M  V30 11658 C 1086.53 1.91898 -0.0626628 0
M  V30 11659 O 1087.73 2.68768 0.0412789 0
M  V30 11660 C 1086 2.60616 -2.44569 0
M  V30 11661 S 1087.56 3.49416 -2.65431 0
M  V30 11662 H 1084.38 0.492985 -0.512334 0
M  V30 11663 H 1086.98 0.781349 -1.79207 0
M  V30 11664 H 1085.68 2.23931 -3.43923 0
M  V30 11665 H 1085.22 3.31703 -2.1151 0
M  V30 11666 H 1087.23 4.56712 -1.9398 0
M  V30 11667 N 1086.4 1.28806 0.908124 0
M  V30 11668 C 1087.82 1.06634 1.18749 0
M  V30 11669 C 1088.02 -0.187729 2.00624 0
M  V30 11670 O 1087.08 -0.88784 2.36376 0
M  V30 11671 C 1088.39 2.31703 1.91661 0
M  V30 11672 C 1089.94 2.36939 2.04521 0
M  V30 11673 C 1090.41 3.61789 2.80843 0
M  V30 11674 N 1091.9 3.62462 2.88402 0
M  V30 11675 C 1092.64 4.55746 3.47971 0
M  V30 11676 N 1092.13 5.59353 4.08774 0
M  V30 11677 N 1093.93 4.43331 3.45564 0
M  V30 11678 H 1086.08 2.09299 0.36164 0
M  V30 11679 H 1088.34 0.921479 0.222668 0
M  V30 11680 H 1088.05 3.23096 1.38931 0
M  V30 11681 H 1087.92 2.38556 2.92183 0
M  V30 11682 H 1090.31 1.4604 2.5643 0
M  V30 11683 H 1090.39 2.34077 1.03159 0
M  V30 11684 H 1090.03 4.53035 2.29612 0
M  V30 11685 H 1089.96 3.61907 3.82532 0
M  V30 11686 H 1092.45 2.87544 2.45208 0
M  V30 11687 H 1092.77 6.26668 4.52224 0
M  V30 11688 H 1091.11 5.63173 4.07261 0
M  V30 11689 H 1094.3 3.61587 2.97276 0
M  V30 11690 H 1094.48 5.16216 3.91695 0
M  V30 11691 N 1087.88 -1.11734 1.11145 0
M  V30 11692 C 1088.83 -2.17683 0.766979 0
M  V30 11693 C 1089.8 -1.64051 -0.260108 0
M  V30 11694 O 1090.98 -1.90302 -0.137723 0
M  V30 11695 C 1088.12 -3.44442 0.212982 0
M  V30 11696 C 1087.24 -4.12094 1.29626 0
M  V30 11697 C 1086.37 -5.26526 0.703127 0
M  V30 11698 C 1085.41 -5.86057 1.76647 0
M  V30 11699 N 1084.55 -6.91889 1.19306 0
M  V30 11700 H 1089.39 -2.46495 1.67465 0
M  V30 11701 H 1086.92 -1.21011 0.836353 0
M  V30 11702 H 1088.88 -4.17009 -0.126162 0
M  V30 11703 H 1087.51 -3.16025 -0.657888 0
M  V30 11704 H 1086.56 -3.37631 1.75241 0
M  V30 11705 H 1087.88 -4.52398 2.10089 0
M  V30 11706 H 1087.03 -6.05888 0.313859 0
M  V30 11707 H 1085.77 -4.87519 -0.132856 0
M  V30 11708 H 1084.77 -5.05375 2.16508 0
M  V30 11709 H 1086 -6.27132 2.60543 0
M  V30 11710 H 1083.95 -6.54906 0.378664 0
M  V30 11711 H 1083.86 -7.30832 1.93443 0
M  V30 11712 H 1085.13 -7.75062 0.830578 0
M  V30 11713 N 1089.36 -0.901303 -1.29284 0
M  V30 11714 C 1090.31 -0.370142 -2.29636 0
M  V30 11715 C 1091.3 0.53157 -1.60844 0
M  V30 11716 O 1092.51 0.414194 -1.7517 0
M  V30 11717 H 1088.88 -0.101072 -0.745177 0
M  V30 11718 H 1090.85 -1.22985 -2.71877 0
M  V30 11719 C 1089.6 0.385806 -3.45553 0
M  V30 11720 H 1088.93 -0.298818 -3.98682 0
M  V30 11721 H 1090.37 0.722299 -4.17802 0
M  V30 11722 C 1088.82 1.58907 -2.97069 0
M  V30 11723 O 1089.35 2.68835 -2.98481 0
M  V30 11724 N 1087.56 1.43178 -2.5288 0
M  V30 11725 H 1087.11 0.537467 -2.51931 0
M  V30 11726 H 1087.07 2.23819 -2.208 0
M  V30 11727 N 1090.84 1.42931 -0.663954 0
M  V30 11728 C 1092.06 2.06544 -0.188201 0
M  V30 11729 C 1092.49 1.495 1.14155 0
M  V30 11730 O 1091.85 0.609164 1.7076 0
M  V30 11731 C 1091.89 3.60393 -0.122105 0
M  V30 11732 O 1091 4.02176 0.91258 0
M  V30 11733 H 1090.34 0.656458 -0.0997967 0
M  V30 11734 H 1092.87 1.83253 -0.909909 0
M  V30 11735 H 1092.88 4.07959 0.0576568 0
M  V30 11736 H 1091.55 4.01287 -1.09276 0
M  V30 11737 H 1090.13 3.6618 0.704738 0
M  V30 11738 N 1092.32 0.406567 1.52266 0
M  V30 11739 C 1093.55 -0.169378 2.05905 0
M  V30 11740 C 1093.95 -1.39626 1.27676 0
M  V30 11741 O 1093.3 -1.80871 0.32114 0
M  V30 11742 C 1093.36 -0.587209 3.54672 0
M  V30 11743 C 1093.02 0.528588 4.53933 0
M  V30 11744 C 1094.02 1.39137 5.00936 0
M  V30 11745 C 1091.7 0.700549 4.97391 0
M  V30 11746 C 1093.7 2.41108 5.90039 0
M  V30 11747 C 1091.39 1.72357 5.8629 0
M  V30 11748 C 1092.38 2.57725 6.32509 0
M  V30 11749 O 1092.07 3.58275 7.19649 0
M  V30 11750 H 1091.8 -0.0250574 0.675535 0
M  V30 11751 H 1094.36 0.575377 1.97177 0
M  V30 11752 H 1092.59 -1.38421 3.61077 0
M  V30 11753 H 1094.28 -1.09078 3.90969 0
M  V30 11754 H 1095.04 1.26991 4.68079 0
M  V30 11755 H 1090.92 0.0457503 4.60977 0
M  V30 11756 H 1094.47 3.07774 6.26036 0
M  V30 11757 H 1090.36 1.84535 6.1856 0
M  V30 11758 H 1091.13 3.54489 7.37753 0
M  V30 11759 N 1093.79 -1.57004 0.136909 0
M  V30 11760 C 1094.73 -2.12004 -0.844362 0
M  V30 11761 C 1095.71 -1.04099 -1.24909 0
M  V30 11762 O 1096.89 -1.31866 -1.34698 0
M  V30 11763 C 1094.02 -2.63147 -2.13241 0
M  V30 11764 C 1093.06 -3.83105 -1.87438 0
M  V30 11765 S 1093.9 -5.2461 -1.07447 0
M  V30 11766 C 1095.05 -5.79134 -2.37392 0
M  V30 11767 H 1095.28 -2.94905 -0.376614 0
M  V30 11768 H 1092.82 -1.54207 -0.0771977 0
M  V30 11769 H 1094.78 -2.93264 -2.87239 0
M  V30 11770 H 1093.44 -1.80395 -2.57131 0
M  V30 11771 H 1092.63 -4.17099 -2.82922 0
M  V30 11772 H 1092.23 -3.53696 -1.21553 0
M  V30 11773 H 1094.52 -5.8995 -3.33114 0
M  V30 11774 H 1095.47 -6.76887 -2.07918 0
M  V30 11775 H 1095.87 -5.07311 -2.47579 0
M  V30 11776 N 1095.27 0.136881 -1.57004 0
M  V30 11777 C 1096.22 1.18782 -1.99984 0
M  V30 11778 C 1097.21 1.43899 -0.893841 0
M  V30 11779 O 1098.42 1.44072 -1.07904 0
M  V30 11780 H 1094.8 0.400065 -0.636751 0
M  V30 11781 H 1096.77 0.798696 -2.87512 0
M  V30 11782 C 1095.52 2.51105 -2.40502 0
M  V30 11783 H 1094.84 2.32611 -3.25165 0
M  V30 11784 H 1096.28 3.23244 -2.74389 0
M  V30 11785 C 1094.74 3.12386 -1.26161 0
M  V30 11786 O 1095.27 3.97666 -0.567836 0
M  V30 11787 N 1093.47 2.71989 -1.02326 0
M  V30 11788 H 1093.02 2.02736 -1.58921 0
M  V30 11789 H 1092.98 3.13322 -0.26013 0
M  V30 11790 N 1096.75 1.52266 0.40654 0
M  V30 11791 C 1098.16 1.58587 0.985241 0
M  V30 11792 C 1098.51 0.427955 1.91476 0
M  V30 11793 O 1097.64 -0.451341 2.11641 0
M  V30 11794 C 1098.23 2.87426 1.79365 0
M  V30 11795 C 1096.79 2.96217 2.32233 0
M  V30 11796 C 1095.94 2.53548 1.12288 0
M  V30 11797 H 1098.89 1.57598 0.186685 0
M  V30 11798 H 1098.91 2.72925 2.65127 0
M  V30 11799 H 1098.42 3.71682 1.11687 0
M  V30 11800 H 1096.52 2.1646 3.03275 0
M  V30 11801 H 1096.64 4.00511 2.62922 0
M  V30 11802 H 1095 2.07457 1.47763 0
M  V30 11803 H 1095.78 3.40181 0.461731 0
M  V30 11804 N 1098.23 -0.663929 1.42933 0
M  V30 11805 C 1099.14 -1.80643 1.49683 0
M  V30 11806 C 1100.15 -1.69694 0.38472 0
M  V30 11807 O 1101.33 -1.91052 0.637256 0
M  V30 11808 C 1098.4 -3.16858 1.4072 0
M  V30 11809 C 1097.46 -3.39684 2.62514 0
M  V30 11810 C 1096.69 -4.69399 2.53969 0
M  V30 11811 O 1096.91 -5.48037 1.58152 0
M  V30 11812 O 1095.85 -4.93709 3.44289 0
M  V30 11813 H 1099.67 -1.77903 2.46138 0
M  V30 11814 H 1097.26 -0.821059 1.24816 0
M  V30 11815 H 1099.14 -3.9812 1.38124 0
M  V30 11816 H 1097.81 -3.20211 0.473954 0
M  V30 11817 H 1096.72 -2.58227 2.70684 0
M  V30 11818 H 1098.05 -3.41169 3.54774 0
M  V30 11819 N 1099.71 -1.29285 -0.901281 0
M  V30 11820 C 1100.65 -1.1428 -2.00521 0
M  V30 11821 C 1101.62 -0.0365428 -1.6606 0
M  V30 11822 O 1102.81 -0.203771 -1.89709 0
M  V30 11823 C 1099.95 -0.823671 -3.35126 0
M  V30 11824 C 1099.06 -2.01021 -3.8238 0
M  V30 11825 C 1098.2 -1.6306 -5.05554 0
M  V30 11826 C 1097.24 -2.78304 -5.45173 0
M  V30 11827 N 1096.37 -2.4075 -6.59533 0
M  V30 11828 H 1101.21 -2.08729 -2.12688 0
M  V30 11829 H 1098.75 -1.0387 -1.04161 0
M  V30 11830 H 1100.71 -0.61934 -4.12577 0
M  V30 11831 H 1099.34 0.0839113 -3.22691 0
M  V30 11832 H 1098.39 -2.32629 -3.00978 0
M  V30 11833 H 1099.7 -2.8738 -4.07694 0
M  V30 11834 H 1098.86 -1.38906 -5.90584 0
M  V30 11835 H 1097.59 -0.738464 -4.82077 0
M  V30 11836 H 1096.6 -3.03142 -4.58678 0
M  V30 11837 H 1097.82 -3.68179 -5.70632 0
M  V30 11838 H 1095.77 -1.54022 -6.37662 0
M  V30 11839 H 1095.69 -3.20643 -6.84634 0
M  V30 11840 H 1096.96 -2.19912 -7.47836 0
M  V30 11841 N 1101.18 1.11143 -1.11736 0
M  V30 11842 C 1102.13 2.17274 -0.778513 0
M  V30 11843 C 1103.1 1.64186 0.251405 0
M  V30 11844 O 1104.29 1.90373 0.127629 0
M  V30 11845 C 1101.43 3.44324 -0.231246 0
M  V30 11846 C 1100.54 4.114 -1.31809 0
M  V30 11847 C 1099.67 5.26146 -0.73104 0
M  V30 11848 C 1098.71 5.85112 -1.79752 0
M  V30 11849 N 1097.85 6.91247 -1.22973 0
M  V30 11850 H 1102.69 2.45603 -1.68769 0
M  V30 11851 H 1100.23 1.20565 -0.842759 0
M  V30 11852 H 1102.19 4.1707 0.104045 0
M  V30 11853 H 1100.82 3.16369 0.641119 0
M  V30 11854 H 1099.87 3.36697 -1.77029 0
M  V30 11855 H 1101.18 4.51278 -2.12485 0
M  V30 11856 H 1100.33 6.05713 -0.345987 0
M  V30 11857 H 1099.07 4.87583 0.107 0
M  V30 11858 H 1098.08 5.0422 -2.19185 0
M  V30 11859 H 1099.3 6.25741 -2.63865 0
M  V30 11860 H 1097.25 6.54696 -0.41339 0
M  V30 11861 H 1097.17 7.29796 -1.97316 0
M  V30 11862 H 1098.43 7.74611 -0.87167 0
M  V30 11863 N 1102.66 0.908147 1.28804 0
M  V30 11864 C 1103.9 0.545425 1.96989 0
M  V30 11865 C 1104.27 -0.893226 1.69957 0
M  V30 11866 O 1105.47 -1.36324 2.31666 0
M  V30 11867 C 1103.74 0.83953 3.474 0
M  V30 11868 S 1105.3 0.582385 4.34918 0
M  V30 11869 H 1102.12 0.202027 0.681693 0
M  V30 11870 H 1104.72 1.1724 1.56445 0
M  V30 11871 H 1103.42 1.88463 3.64568 0
M  V30 11872 H 1102.95 0.200999 3.92886 0
M  V30 11873 H 1104.97 -0.568807 4.92929 0
M  V30 11874 N 1104.14 -1.42577 0.671525 0
M  V30 11875 C 1105.56 -1.5592 0.340769 0
M  V30 11876 C 1105.76 -1.65179 -1.15405 0
M  V30 11877 O 1104.81 -1.61691 -1.93939 0
M  V30 11878 C 1106.13 -2.81087 1.06821 0
M  V30 11879 C 1107.67 -2.94855 1.05022 0
M  V30 11880 C 1108.15 -4.22878 1.75892 0
M  V30 11881 N 1109.64 -4.29783 1.72744 0
M  V30 11882 C 1110.37 -5.2765 2.24439 0
M  V30 11883 N 1109.87 -6.31689 2.84501 0
M  V30 11884 N 1111.66 -5.19426 2.14832 0
M  V30 11885 H 1103.81 -1.34811 1.64133 0
M  V30 11886 H 1106.08 -0.648704 0.691294 0
M  V30 11887 H 1105.78 -2.80371 2.12332 0
M  V30 11888 H 1105.66 -3.71879 0.631356 0
M  V30 11889 H 1108.04 -2.951 0.00345633 0
M  V30 11890 H 1108.13 -2.05303 1.52592 0
M  V30 11891 H 1107.77 -4.23394 2.80535 0
M  V30 11892 H 1107.7 -5.1136 1.25773 0
M  V30 11893 H 1110.19 -3.55225 1.28932 0
M  V30 11894 H 1110.5 -7.02715 3.21575 0
M  V30 11895 H 1108.85 -6.3226 2.88569 0
M  V30 11896 H 1112.04 -4.37067 1.676 0
M  V30 11897 H 1112.21 -5.95535 2.55426 0
M  V30 11898 N 1105.62 -0.414636 -1.52048 0
M  V30 11899 C 1106.86 0.159585 -2.02171 0
M  V30 11900 C 1107.2 1.44321 -1.29943 0
M  V30 11901 O 1106.47 1.90185 -0.407402 0
M  V30 11902 C 1106.76 0.401655 -3.57853 0
M  V30 11903 C 1106.61 -0.899026 -4.40724 0
M  V30 11904 C 1107.93 1.1814 -4.23947 0
M  V30 11905 H 1105.05 0.0565257 -0.734829 0
M  V30 11906 H 1107.69 -0.549183 -1.8189 0
M  V30 11907 H 1105.84 1.00541 -3.75265 0
M  V30 11908 H 1107.51 -1.53502 -4.35011 0
M  V30 11909 H 1105.75 -1.50877 -4.06717 0
M  V30 11910 H 1106.42 -0.683974 -5.47746 0
M  V30 11911 H 1108.9 0.670203 -4.10667 0
M  V30 11912 H 1107.78 1.31953 -5.32804 0
M  V30 11913 H 1108.04 2.2035 -3.83273 0
M  V30 11914 N 1107.1 1.56929 -0.145233 0
M  V30 11915 C 1108.34 1.97141 0.500689 0
M  V30 11916 C 1108.7 1.02864 1.62594 0
M  V30 11917 O 1107.99 0.0633701 1.91495 0
M  V30 11918 C 1108.18 3.41467 1.05522 0
M  V30 11919 C 1108.01 4.49698 -0.0147676 0
M  V30 11920 C 1106.78 5.03242 -0.455585 0
M  V30 11921 C 1108.98 5.07952 -0.80558 0
M  V30 11922 N 1106.96 5.95075 -1.5086 0
M  V30 11923 C 1108.33 5.95977 -1.70914 0
M  V30 11924 C 1110.39 4.90529 -0.853564 0
M  V30 11925 C 1109.09 6.68445 -2.65656 0
M  V30 11926 C 1111.12 5.63698 -1.78881 0
M  V30 11927 C 1110.48 6.5143 -2.6799 0
M  V30 11928 H 1106.58 0.767071 0.152075 0
M  V30 11929 H 1109.16 1.93222 -0.239426 0
M  V30 11930 H 1107.33 3.45983 1.76495 0
M  V30 11931 H 1109.07 3.68745 1.66762 0
M  V30 11932 H 1105.82 4.73564 -0.0581751 0
M  V30 11933 H 1106.25 6.45697 -2.03482 0
M  V30 11934 H 1110.89 4.22422 -0.178723 0
M  V30 11935 H 1108.61 7.35782 -3.34141 0
M  V30 11936 H 1112.19 5.52213 -1.83172 0
M  V30 11937 H 1111.07 7.07054 -3.39181 0
M  V30 11938 O 1108.61 0.00658954 1.61499 0
M  V30 11939 H 1109.3 -0.609168 1.83872 0
M  V30 END ATOM
M  V30 BEGIN BOND
M  V30 END BOND
M  V30 END CTAB
M  END
$$$$
