drugbank_target|P08519 Apolipoprotein(a) (DB00513)
 OpenBabel12092119513D

  0  0  0     0  0            999 V3000
M  V30 BEGIN CTAB
M  V30 COUNTS 67470 68619 0 0 0
M  V30 BEGIN ATOM
M  V30 1 H -0.908 1.98254 -0.117106 0
M  V30 2 N 0 1.576 0 0
M  V30 3 C 0.933 2.03868 1.02534 0
M  V30 4 C 1.911 0.928543 1.3348 0
M  V30 5 O 3.095 1.19667 1.45644 0
M  V30 6 C 0.222 2.43627 2.35294 0
M  V30 7 C -0.732 3.65373 2.2001 0
M  V30 8 S 0.101 5.13292 1.52614 0
M  V30 9 C 1.257 5.56322 2.86805 0
M  V30 10 H 1.49 2.90518 0.631377 0
M  V30 11 H -0.977 1.52953 0.210867 0
M  V30 12 H 0.981 2.67203 3.11629 0
M  V30 13 H -0.358 1.57376 2.7183 0
M  V30 14 H -1.165 3.90944 3.18086 0
M  V30 15 H -1.563 3.418 1.51819 0
M  V30 16 H 0.729 5.58782 3.83104 0
M  V30 17 H 1.672 6.56266 2.65933 0
M  V30 18 H 2.08 4.83886 2.90714 0
M  V30 19 N 1.4781 -0.272755 1.55222 0
M  V30 20 C 2.3881 -1.35918 1.91216 0
M  V30 21 C 3.4041 -1.54026 0.809436 0
M  V30 22 O 4.5801 -1.68148 1.10852 0
M  V30 23 C 1.6451 -2.69834 2.17693 0
M  V30 24 C 0.7061 -2.6047 3.41253 0
M  V30 25 C -0.0609 -3.88 3.66458 0
M  V30 26 O 0.1621 -4.88693 2.94169 0
M  V30 27 O -0.9039 -3.88189 4.59992 0
M  V30 28 H 2.9221 -1.0839 2.83699 0
M  V30 29 H 0.5071 -0.471301 1.41771 0
M  V30 30 H 2.3891 -3.49017 2.36147 0
M  V30 31 H 1.0641 -2.97148 1.28392 0
M  V30 32 H -0.0289 -1.79663 3.28134 0
M  V30 33 H 1.3041 -2.38106 4.30774 0
M  V30 34 N 2.9562 -1.48159 -0.537278 0
M  V30 35 C 3.9062 -1.5854 -1.63857 0
M  V30 36 C 4.8902 -0.442969 -1.54682 0
M  V30 37 O 6.0822 -0.69401 -1.62827 0
M  V30 38 C 3.2112 -1.62144 -3.02596 0
M  V30 39 C 2.2972 -2.81841 -3.16901 0
M  V30 40 N 2.6882 -4.06337 -3.01204 0
M  V30 41 C 0.9862 -2.79021 -3.47942 0
M  V30 42 C 1.6872 -4.86606 -3.18731 0
M  V30 43 N 0.6632 -4.19288 -3.45974 0
M  V30 44 H 4.4652 -2.5255 -1.50319 0
M  V30 45 H 1.9792 -1.4443 -0.742555 0
M  V30 46 H 3.9762 -1.67674 -3.81695 0
M  V30 47 H 2.6362 -0.69245 -3.17231 0
M  V30 48 H 3.6472 -4.36888 -2.78117 0
M  V30 49 H 0.3242 -1.95347 -3.6898 0
M  V30 50 H 1.7142 -5.95385 -3.11394 0
M  V30 51 N 4.4343 0.785586 -1.36625 0
M  V30 52 C 5.3813 1.89838 -1.31264 0
M  V30 53 C 6.3513 1.65115 -0.180633 0
M  V30 54 O 7.5363 1.87222 -0.36777 0
M  V30 55 C 4.6763 3.26706 -1.11163 0
M  V30 56 C 3.7893 3.63476 -2.33472 0
M  V30 57 C 2.9243 4.89481 -2.06353 0
M  V30 58 C 1.9633 5.18941 -3.24602 0
M  V30 59 N 1.1003 6.36131 -2.97123 0
M  V30 60 H 5.9403 1.93756 -2.26413 0
M  V30 61 H 3.4773 0.947454 -1.12524 0
M  V30 62 H 5.4353 4.05639 -0.975337 0
M  V30 63 H 4.0653 3.222 -0.196674 0
M  V30 64 H 3.1173 2.79636 -2.57891 0
M  V30 65 H 4.4293 3.81193 -3.21704 0
M  V30 66 H 3.5833 5.76288 -1.89675 0
M  V30 67 H 2.3223 4.73841 -1.15437 0
M  V30 68 H 1.3273 4.30615 -3.41834 0
M  V30 69 H 2.5523 5.36498 -4.16349 0
M  V30 70 H 0.4983 6.21875 -2.08823 0
M  V30 71 H 0.4153 6.54198 -3.78894 0
M  V30 72 H 1.6833 7.2591 -2.84033 0
M  V30 73 N 5.9124 1.20967 1.01018 0
M  V30 74 C 6.8224 0.980157 2.13143 0
M  V30 75 C 7.8384 -0.0660665 1.73875 0
M  V30 76 O 9.0144 0.122821 2.01025 0
M  V30 77 C 6.0794 0.54216 3.42435 0
M  V30 78 C 5.1404 1.65999 3.95908 0
M  V30 79 C 4.3734 1.2428 5.19028 0
M  V30 80 O 4.5964 0.114196 5.70286 0
M  V30 81 O 3.5304 2.05271 5.65816 0
M  V30 82 H 7.3564 1.91913 2.35379 0
M  V30 83 H 4.9414 0.994099 1.11526 0
M  V30 84 H 6.8234 0.30744 4.20277 0
M  V30 85 H 5.4984 -0.36815 3.216 0
M  V30 86 H 4.4054 1.94906 3.19316 0
M  V30 87 H 5.7384 2.54753 4.21143 0
M  V30 88 N 7.3905 -1.2043 1.01659 0
M  V30 89 C 8.6365 -1.90079 0.706963 0
M  V30 90 C 8.9695 -1.78648 -0.761474 0
M  V30 91 O 8.2445 -1.17069 -1.55323 0
M  V30 92 C 8.5275 -3.41469 1.14327 0
M  V30 93 C 8.3805 -3.61833 2.67201 0
M  V30 94 C 9.6995 -4.34261 0.714529 0
M  V30 95 H 6.8185 -0.690254 0.2583 0
M  V30 96 H 9.4605 -1.41826 1.26433 0
M  V30 97 H 7.6105 -3.82696 0.669056 0
M  V30 98 H 9.2825 -3.2986 3.22475 0
M  V30 99 H 7.5255 -3.05304 3.08175 0
M  V30 100 H 8.1965 -4.67955 2.92783 0
M  V30 101 H 10.6725 -4.00682 1.12221 0
M  V30 102 H 9.5485 -5.38806 1.04784 0
M  V30 103 H 9.8095 -4.40431 -0.383799 0
M  V30 104 N 8.8686 -0.792821 -1.36206 0
M  V30 105 C 10.1146 -0.36733 -1.99446 0
M  V30 106 C 10.4476 1.05917 -1.62774 0
M  V30 107 O 9.7226 1.7324 -0.88421 0
M  V30 108 C 10.0056 -0.535044 -3.56103 0
M  V30 109 C 9.8586 -2.00548 -4.02617 0
M  V30 110 C 11.1776 0.0478191 -4.40074 0
M  V30 111 H 8.2966 -0.134941 -0.724541 0
M  V30 112 H 10.9386 -0.999794 -1.61568 0
M  V30 113 H 9.0886 0.00336329 -3.885 0
M  V30 114 H 10.7606 -2.60521 -3.80692 0
M  V30 115 H 9.0036 -2.50686 -3.54032 0
M  V30 116 H 9.6746 -2.07377 -5.11565 0
M  V30 117 H 12.1506 -0.411822 -4.14057 0
M  V30 118 H 11.0266 -0.0995336 -5.4881 0
M  V30 119 H 11.2876 1.14025 -4.27142 0
M  V30 120 N 10.3467 1.47872 -0.545128 0
M  V30 121 C 11.2767 2.32661 0.197793 0
M  V30 122 C 12.2577 1.43041 0.920504 0
M  V30 123 O 13.4427 1.71912 0.90333 0
M  V30 124 C 10.5727 3.24569 1.23582 0
M  V30 125 C 9.5267 4.23333 0.630323 0
M  V30 126 C 8.8527 5.0448 1.77211 0
M  V30 127 C 10.1527 5.20704 -0.407974 0
M  V30 128 H 11.8467 2.95024 -0.510045 0
M  V30 129 H 9.3927 1.4187 -0.246731 0
M  V30 130 H 11.3457 3.8272 1.76362 0
M  V30 131 H 10.0697 2.60236 1.97344 0
M  V30 132 H 8.7287 3.6639 0.123922 0
M  V30 133 H 8.3767 4.36561 2.49847 0
M  V30 134 H 8.0767 5.71339 1.37281 0
M  V30 135 H 9.6007 5.65487 2.3034 0
M  V30 136 H 11.0147 5.7329 0.033305 0
M  V30 137 H 9.4117 5.95699 -0.725486 0
M  V30 138 H 10.4817 4.66917 -1.30828 0
M  V30 139 N 11.8248 0.280983 1.55075 0
M  V30 140 C 12.7548 -0.597469 2.25727 0
M  V30 141 C 13.7358 -1.15417 1.24952 0
M  V30 142 O 14.9208 -1.18722 1.53684 0
M  V30 143 C 12.0508 -1.7789 2.98283 0
M  V30 144 C 11.0048 -1.35347 4.06036 0
M  V30 145 C 10.3308 -2.61846 4.66198 0
M  V30 146 C 11.6308 -0.499354 5.19907 0
M  V30 147 H 13.3248 -0.00824265 2.99399 0
M  V30 148 H 10.8708 -0.0025244 1.44 0
M  V30 149 H 12.8238 -2.39937 3.46422 0
M  V30 150 H 11.5478 -2.39405 2.22155 0
M  V30 151 H 10.2068 -0.756156 3.58717 0
M  V30 152 H 9.8548 -3.21632 3.86732 0
M  V30 153 H 9.5548 -2.3409 5.38958 0
M  V30 154 H 11.0788 -3.24732 5.1709 0
M  V30 155 H 12.4928 -1.02498 5.64063 0
M  V30 156 H 10.8898 -0.316424 5.99265 0
M  V30 157 H 11.9598 0.480459 4.82514 0
M  V30 158 N 13.3029 -1.57598 0.00835791 0
M  V30 159 C 14.2329 -2.1198 -0.979113 0
M  V30 160 C 15.2139 -1.03091 -1.35301 0
M  V30 161 O 16.3989 -1.30818 -1.43528 0
M  V30 162 C 13.5289 -2.62995 -2.26828 0
M  V30 163 C 12.4829 -3.76485 -2.03576 0
M  V30 164 C 11.8089 -4.13846 -3.38579 0
M  V30 165 C 13.1089 -5.0342 -1.39161 0
M  V30 166 H 14.8029 -2.94738 -0.526281 0
M  V30 167 H 12.3489 -1.41783 -0.251704 0
M  V30 168 H 14.3019 -2.99669 -2.96271 0
M  V30 169 H 13.0259 -1.7737 -2.7424 0
M  V30 170 H 11.6849 -3.40217 -1.36557 0
M  V30 171 H 11.3329 -3.25232 -3.83709 0
M  V30 172 H 11.0329 -4.90312 -3.23834 0
M  V30 173 H 12.5569 -4.53086 -4.09323 0
M  V30 174 H 13.9709 -5.37812 -1.98573 0
M  V30 175 H 12.3679 -5.84746 -1.34878 0
M  V30 176 H 13.4379 -4.83548 -0.361868 0
M  V30 177 N 14.781 0.264519 -1.55364 0
M  V30 178 C 15.711 1.33121 -1.91836 0
M  V30 179 C 16.692 1.51101 -0.781192 0
M  V30 180 O 17.877 1.64003 -1.04003 0
M  V30 181 C 15.007 2.68921 -2.19769 0
M  V30 182 C 13.961 2.65661 -3.35571 0
M  V30 183 C 13.287 4.05093 -3.49004 0
M  V30 184 C 14.587 2.24187 -4.71739 0
M  V30 185 H 16.281 1.02844 -2.81182 0
M  V30 186 H 13.827 0.493286 -1.35287 0
M  V30 187 H 15.78 3.43663 -2.43872 0
M  V30 188 H 14.504 3.00799 -1.27231 0
M  V30 189 H 13.163 1.93377 -3.1145 0
M  V30 190 H 12.811 4.34206 -2.53917 0
M  V30 191 H 12.511 4.03804 -4.26868 0
M  V30 192 H 14.035 4.81561 -3.75408 0
M  V30 193 H 15.449 2.88654 -4.9533 0
M  V30 194 H 13.846 2.34044 -5.52579 0
M  V30 195 H 14.916 1.19327 -4.69988 0
M  V30 196 N 16.2591 1.48442 0.529413 0
M  V30 197 C 17.1891 1.65902 1.64313 0
M  V30 198 C 18.1701 0.507897 1.6234 0
M  V30 199 O 19.3551 0.740503 1.79528 0
M  V30 200 C 16.4851 1.69911 3.02898 0
M  V30 201 C 15.4391 2.8453 3.19729 0
M  V30 202 C 14.7651 2.73629 4.59381 0
M  V30 203 C 16.0651 4.25821 3.02447 0
M  V30 204 H 17.7591 2.5914 1.49955 0
M  V30 205 H 15.3051 1.24709 0.719982 0
M  V30 206 H 17.2581 1.80715 3.80684 0
M  V30 207 H 15.9821 0.732524 3.18279 0
M  V30 208 H 14.6411 2.73283 2.44361 0
M  V30 209 H 14.2891 1.74938 4.71599 0
M  V30 210 H 13.9891 3.50541 4.71588 0
M  V30 211 H 15.5131 2.86401 5.39265 0
M  V30 212 H 16.9271 4.37898 3.70024 0
M  V30 213 H 15.3241 5.03735 3.26146 0
M  V30 214 H 16.3941 4.42244 1.98867 0
M  V30 215 N 17.7372 -0.778329 1.37039 0
M  V30 216 C 18.9842 -1.53665 1.31884 0
M  V30 217 C 19.3122 -1.9425 -0.0986303 0
M  V30 218 O 18.5672 -1.63832 -1.07041 0
M  V30 219 C 18.8662 -2.81845 2.19768 0
M  V30 220 C 18.5322 -2.60345 3.68146 0
M  V30 221 C 17.1942 -2.5419 4.08584 0
M  V30 222 C 19.5462 -2.40923 4.62175 0
M  V30 223 C 16.8742 -2.26594 5.41177 0
M  V30 224 C 19.2262 -2.14852 5.94997 0
M  V30 225 C 17.8902 -2.07137 6.34547 0
M  V30 226 H 17.1602 -0.562299 0.482598 0
M  V30 227 H 19.8072 -0.897069 1.69189 0
M  V30 228 H 18.1122 -3.50328 1.75436 0
M  V30 229 H 19.8092 -3.39692 2.13097 0
M  V30 230 H 16.3992 -2.65996 3.36072 0
M  V30 231 H 20.5832 -2.44673 4.31797 0
M  V30 232 H 15.8392 -2.19111 5.70789 0
M  V30 233 H 20.0132 -1.98822 6.67415 0
M  V30 234 H 17.6402 -1.85518 7.37216 0
M  V30 235 N 19.2153 -1.21501 -1.00376 0
M  V30 236 C 20.1453 -0.999478 -2.11028 0
M  V30 237 C 21.1263 0.0759671 -1.6993 0
M  V30 238 O 22.3113 -0.0841106 -1.94018 0
M  V30 239 C 19.4413 -0.564709 -3.42678 0
M  V30 240 C 18.3953 -1.58486 -3.97576 0
M  V30 241 C 17.7213 -1.00628 -5.25146 0
M  V30 242 C 19.0213 -2.97204 -4.29496 0
M  V30 243 H 20.7153 -1.92495 -2.29317 0
M  V30 244 H 18.2613 -0.92693 -1.102 0
M  V30 245 H 20.2143 -0.401091 -4.19487 0
M  V30 246 H 18.9383 0.396411 -3.24185 0
M  V30 247 H 17.5973 -1.73606 -3.22888 0
M  V30 248 H 17.2453 -0.0368439 -5.02987 0
M  V30 249 H 16.9453 -1.68771 -5.62841 0
M  V30 250 H 18.4693 -0.854015 -6.04598 0
M  V30 251 H 19.8833 -2.8552 -4.97143 0
M  V30 252 H 18.2803 -3.62372 -4.78338 0
M  V30 253 H 19.3503 -3.47956 -3.3772 0
M  V30 254 N 20.6934 1.19889 -1.02296 0
M  V30 255 C 21.6404 2.22901 -0.598651 0
M  V30 256 C 22.6104 1.61588 0.384521 0
M  V30 257 O 23.7954 1.88697 0.282522 0
M  V30 258 C 20.9354 3.45063 0.0504476 0
M  V30 259 C 20.0484 4.20783 -0.978053 0
M  V30 260 C 19.1834 5.30356 -0.299338 0
M  V30 261 C 18.2224 5.97826 -1.31416 0
M  V30 262 N 17.3594 6.98975 -0.661667 0
M  V30 263 H 22.1994 2.58554 -1.48169 0
M  V30 264 H 19.7364 1.27039 -0.741584 0
M  V30 265 H 21.6944 4.14831 0.443971 0
M  V30 266 H 20.3244 3.10084 0.897097 0
M  V30 267 H 19.3764 3.50018 -1.48969 0
M  V30 268 H 20.6884 4.67109 -1.74958 0
M  V30 269 H 19.8424 6.06516 0.149347 0
M  V30 270 H 18.5814 4.85084 0.504445 0
M  V30 271 H 17.5864 5.20422 -1.77317 0
M  V30 272 H 18.8114 6.45183 -2.11933 0
M  V30 273 H 16.7574 6.55886 0.122132 0
M  V30 274 H 16.6744 7.43461 -1.37117 0
M  V30 275 H 17.9424 7.7914 -0.236785 0
M  V30 276 N 22.1715 0.800033 1.35784 0
M  V30 277 C 23.3965 0.388511 2.03729 0
M  V30 278 C 23.8215 -0.990481 1.5991 0
M  V30 279 O 23.1795 -1.64013 0.772612 0
M  V30 280 C 23.2275 0.4726 3.5749 0
M  V30 281 O 22.3315 -0.51646 4.09153 0
M  V30 282 H 21.6725 0.163271 0.643614 0
M  V30 283 H 24.2025 1.0841 1.73518 0
M  V30 284 H 24.2125 0.34003 4.06581 0
M  V30 285 H 22.8875 1.47848 3.88734 0
M  V30 286 H 21.4645 -0.344673 3.71304 0
M  V30 287 N 23.6496 -1.47581 0.552962 0
M  V30 288 C 24.6126 -2.28439 -0.186605 0
M  V30 289 C 25.6126 -1.36706 -0.84665 0
M  V30 290 O 26.8026 -1.59378 -0.703164 0
M  V30 291 C 23.9346 -3.16264 -1.2724 0
M  V30 292 H 25.1276 -2.95294 0.523609 0
M  V30 293 H 22.6806 -1.532 0.309745 0
M  V30 294 H 23.4156 -2.54091 -2.01514 0
M  V30 295 H 23.2006 -3.83769 -0.803968 0
M  V30 296 H 24.6906 -3.77198 -1.79196 0
M  V30 297 N 25.1277 -0.289203 -1.54924 0
M  V30 298 C 26.0907 0.579144 -2.21762 0
M  V30 299 C 27.0907 1.07047 -1.1999 0
M  V30 300 O 28.2807 0.968384 -1.44803 0
M  V30 301 C 25.4127 1.80055 -2.8947 0
M  V30 302 H 26.6057 -0.00464908 -2.999 0
M  V30 303 H 24.1587 -0.0399306 -1.56249 0
M  V30 304 H 24.8937 2.42449 -2.15381 0
M  V30 305 H 24.6787 1.45602 -3.64064 0
M  V30 306 H 26.1687 2.41773 -3.40493 0
M  V30 307 N 26.6058 1.57591 -0.0167156 0
M  V30 308 C 28.0168 1.79201 0.523834 0
M  V30 309 C 28.3678 0.925796 1.72984 0
M  V30 310 O 27.4928 0.132792 2.15992 0
M  V30 311 C 28.0878 3.25 0.957091 0
M  V30 312 C 26.6468 3.47648 1.44283 0
M  V30 313 C 25.7938 2.74374 0.401757 0
M  V30 314 H 28.7448 1.56831 -0.242816 0
M  V30 315 H 28.7658 3.34031 1.82219 0
M  V30 316 H 28.2778 3.88019 0.0791415 0
M  V30 317 H 26.3788 2.89866 2.34113 0
M  V30 318 H 26.4918 4.56352 1.45877 0
M  V30 319 H 24.8558 2.39485 0.867121 0
M  V30 320 H 25.6388 3.40102 -0.467513 0
M  V30 321 N 28.0839 -0.256276 1.55502 0
M  V30 322 C 28.9939 -1.33882 1.92647 0
M  V30 323 C 30.0099 -1.53159 0.825727 0
M  V30 324 O 31.1859 -1.66963 1.12629 0
M  V30 325 C 28.2509 -2.6751 2.20543 0
M  V30 326 C 27.3119 -2.56836 3.43997 0
M  V30 327 C 26.5449 -3.84092 3.70553 0
M  V30 328 O 26.7679 -4.85545 2.99336 0
M  V30 329 O 25.7019 -3.83288 4.64084 0
M  V30 330 H 29.5279 -1.05374 2.84833 0
M  V30 331 H 27.1129 -0.456237 1.42263 0
M  V30 332 H 28.9949 -3.46492 2.39835 0
M  V30 333 H 27.6699 -2.9577 1.31536 0
M  V30 334 H 26.5769 -1.76172 3.30021 0
M  V30 335 H 27.9099 -2.33523 4.33275 0
M  V30 336 N 29.562 -1.4872 -0.521534 0
M  V30 337 C 30.494 -1.59968 -1.64143 0
M  V30 338 C 31.507 -0.483463 -1.55456 0
M  V30 339 O 32.696 -0.75467 -1.61762 0
M  V30 340 C 29.796 -1.52127 -3.02838 0
M  V30 341 C 28.969 -2.78932 -3.36921 0
M  V30 342 C 28.028 -2.64428 -4.54933 0
M  V30 343 O 27.054 -3.38331 -4.57735 0
M  V30 344 N 28.256 -1.74606 -5.53618 0
M  V30 345 H 31.021 -2.56548 -1.54929 0
M  V30 346 H 28.582 -1.45551 -0.708988 0
M  V30 347 H 30.574 -1.40106 -3.79674 0
M  V30 348 H 29.144 -0.634868 -3.06085 0
M  V30 349 H 28.364 -3.05455 -2.4918 0
M  V30 350 H 29.652 -3.63041 -3.56481 0
M  V30 351 H 29.05 -1.13782 -5.54139 0
M  V30 352 H 27.607 -1.6852 -6.29638 0
M  V30 353 N 31.0401 0.771051 -1.3745 0
M  V30 354 C 32.2651 1.56529 -1.36065 0
M  V30 355 C 32.6901 1.88029 0.0515859 0
M  V30 356 O 32.0481 1.49282 1.02882 0
M  V30 357 C 32.0961 2.85187 -2.20683 0
M  V30 358 O 31.2001 3.79593 -1.61193 0
M  V30 359 H 30.5411 0.47411 -0.464883 0
M  V30 360 H 33.0711 0.954269 -1.80983 0
M  V30 361 H 33.0811 3.34283 -2.33921 0
M  V30 362 H 31.7561 2.61588 -3.23334 0
M  V30 363 H 30.3331 3.38239 -1.56999 0
M  V30 364 N 32.5182 1.22032 0.997298 0
M  V30 365 C 33.4682 0.953838 2.07089 0
M  V30 366 C 34.4522 -0.0938669 1.60626 0
M  V30 367 O 35.6442 0.116078 1.76619 0
M  V30 368 C 32.7732 0.528726 3.39204 0
M  V30 369 C 31.8592 1.61092 3.92314 0
M  V30 370 N 32.2502 2.83768 4.18699 0
M  V30 371 C 30.5482 1.48158 4.20672 0
M  V30 372 C 31.2492 3.53715 4.61802 0
M  V30 373 N 30.2252 2.81174 4.65233 0
M  V30 374 H 34.0272 1.88577 2.25424 0
M  V30 375 H 31.5412 1.11719 1.17867 0
M  V30 376 H 33.5382 0.31915 4.15677 0
M  V30 377 H 32.1982 -0.39635 3.22272 0
M  V30 378 H 33.2092 3.20238 4.07023 0
M  V30 379 H 29.8862 0.622369 4.12835 0
M  V30 380 H 31.2762 4.58793 4.90875 0
M  V30 381 N 33.9963 -1.19345 1.0293 0
M  V30 382 C 35.2423 -1.89318 0.727083 0
M  V30 383 C 35.5753 -1.79446 -0.742483 0
M  V30 384 O 34.8503 -1.1871 -1.54072 0
M  V30 385 C 35.1333 -3.40238 1.17942 0
M  V30 386 C 34.9863 -3.58979 2.71024 0
M  V30 387 C 36.3053 -4.33479 0.760548 0
M  V30 388 H 33.4243 -0.687475 0.265606 0
M  V30 389 H 36.0663 -1.40477 1.2793 0
M  V30 390 H 34.2163 -3.81964 0.709608 0
M  V30 391 H 35.8883 -3.26421 3.25955 0
M  V30 392 H 34.1313 -3.02018 3.11396 0
M  V30 393 H 34.8023 -4.64823 2.9773 0
M  V30 394 H 37.2783 -3.99469 1.16464 0
M  V30 395 H 36.1543 -5.37664 1.10493 0
M  V30 396 H 36.4153 -4.40813 -0.337063 0
M  V30 397 N 35.4744 -0.807222 -1.35358 0
M  V30 398 C 36.7204 -0.388463 -1.99045 0
M  V30 399 C 37.0534 1.04184 -1.63888 0
M  V30 400 O 36.3284 1.72292 -0.902535 0
M  V30 401 C 36.6114 -0.572783 -3.55515 0
M  V30 402 C 36.4644 -2.04807 -4.00468 0
M  V30 403 C 37.7834 0.00114064 -4.401 0
M  V30 404 H 34.9024 -0.142619 -0.723069 0
M  V30 405 H 37.5444 -1.01687 -1.60498 0
M  V30 406 H 35.6944 -0.0378425 -3.88482 0
M  V30 407 H 37.3664 -2.64544 -3.77908 0
M  V30 408 H 35.6094 -2.54427 -3.51353 0
M  V30 409 H 36.2804 -2.12792 -5.09337 0
M  V30 410 H 38.7564 -0.455716 -4.13597 0
M  V30 411 H 37.6324 -0.157737 -5.48673 0
M  V30 412 H 37.8934 1.09488 -4.28328 0
M  V30 413 N 36.9525 1.47285 -0.560781 0
M  V30 414 C 37.8845 2.28118 0.222438 0
M  V30 415 C 38.8975 1.37219 0.876056 0
M  V30 416 O 40.0865 1.62011 0.749307 0
M  V30 417 C 37.1865 3.1159 1.33285 0
M  V30 418 C 36.3595 4.30473 0.77534 0
M  V30 419 C 35.4185 4.95513 1.77069 0
M  V30 420 O 34.4445 5.53792 1.31539 0
M  V30 421 N 35.6465 4.90531 3.10418 0
M  V30 422 H 38.4115 2.95976 -0.470958 0
M  V30 423 H 35.9725 1.56955 -0.39709 0
M  V30 424 H 37.9645 3.51967 1.99752 0
M  V30 425 H 36.5345 2.45951 1.92943 0
M  V30 426 H 35.7545 3.94144 -0.0662113 0
M  V30 427 H 37.0425 5.07362 0.382272 0
M  V30 428 H 36.4405 4.44389 3.5005 0
M  V30 429 H 34.9975 5.34917 3.72434 0
M  V30 430 N 38.4306 0.297415 1.54768 0
M  V30 431 C 39.7076 -0.365847 1.92148 0
M  V30 432 C 40.0876 -1.71975 1.22424 0
M  V30 433 O 39.4356 -2.25666 0.358739 0
M  V30 434 C 39.6456 -0.484056 3.45627 0
M  V30 435 C 40.9936 -0.756594 4.17805 0
M  V30 436 O 42.0176 -0.568007 3.51642 0
M  V30 437 O 40.8766 -1.11863 5.34929 0
M  V30 438 H 37.9706 -0.203919 0.801465 0
M  V30 439 H 40.5166 0.34521 1.66152 0
M  V30 440 H 39.2886 0.467865 3.88493 0
M  V30 441 H 38.9116 -1.24372 3.77647 0
M  V30 442 N 39.9087 -1.5758 0.0250728 0
M  V30 443 C 41.1487 -1.93497 -0.65865 0
M  V30 444 C 41.5127 -0.901409 -1.69525 0
M  V30 445 O 42.7137 -1.14664 -2.43116 0
M  V30 446 C 40.9847 -3.34352 -1.26267 0
M  V30 447 S 42.5437 -3.92191 -1.96803 0
M  V30 448 H 39.3617 -0.67709 -0.216958 0
M  V30 449 H 41.9637 -1.95303 0.0877692 0
M  V30 450 H 40.6677 -4.07395 -0.495741 0
M  V30 451 H 40.1987 -3.3598 -2.04648 0
M  V30 452 H 42.2137 -3.75298 -3.24601 0
M  V30 453 N 41.3868 0.248026 -1.55636 0
M  V30 454 C 42.6168 0.992367 -1.81206 0
M  V30 455 C 43.0248 1.7949 -0.598324 0
M  V30 456 O 42.3678 1.78292 0.442434 0
M  V30 457 C 42.4298 1.97926 -3.00109 0
M  V30 458 C 42.0938 1.36377 -4.36177 0
M  V30 459 C 43.0908 0.76682 -5.14214 0
M  V30 460 C 40.7758 1.38347 -4.82872 0
M  V30 461 C 42.7698 0.197778 -6.37093 0
M  V30 462 C 40.4568 0.810574 -6.057 0
M  V30 463 C 41.4548 0.218754 -6.8265 0
M  V30 464 O 41.1428 -0.345298 -8.03158 0
M  V30 465 H 40.8748 0.297704 -0.606917 0
M  V30 466 H 43.4288 0.276517 -2.0353 0
M  V30 467 H 41.6588 2.73339 -2.73538 0
M  V30 468 H 43.3478 2.58694 -3.12781 0
M  V30 469 H 44.1138 0.744114 -4.79258 0
M  V30 470 H 39.9928 1.8335 -4.2297 0
M  V30 471 H 43.5368 -0.264788 -6.97097 0
M  V30 472 H 39.4338 0.830604 -6.40134 0
M  V30 473 H 40.2018 -0.237055 -8.18157 0
M  V30 474 N 42.8649 1.48995 0.513639 0
M  V30 475 C 43.8149 1.61127 1.61314 0
M  V30 476 C 44.7989 0.467521 1.53958 0
M  V30 477 O 45.9909 0.719826 1.61702 0
M  V30 478 C 43.1199 1.66937 2.99978 0
M  V30 479 C 42.2059 2.86847 3.12377 0
M  V30 480 N 42.5969 4.11078 2.94701 0
M  V30 481 C 40.8949 2.84521 3.43459 0
M  V30 482 C 41.5959 4.91615 3.10949 0
M  V30 483 N 40.5719 4.24739 3.3926 0
M  V30 484 H 44.3739 2.54909 1.46282 0
M  V30 485 H 41.8879 1.45593 0.719483 0
M  V30 486 H 43.8849 1.73725 3.78979 0
M  V30 487 H 42.5449 0.742831 3.16089 0
M  V30 488 H 43.5559 4.41258 2.71131 0
M  V30 489 H 40.2329 2.01192 3.65825 0
M  V30 490 H 41.6229 6.00264 3.01882 0
M  V30 491 N 44.343 -0.763751 1.37857 0
M  V30 492 C 45.591 -1.51957 1.33243 0
M  V30 493 C 45.912 -1.94835 -0.0801709 0
M  V30 494 O 45.182 -1.66894 -1.02582 0
M  V30 495 H 43.762 -0.563626 0.49024 0
M  V30 496 H 46.424 -0.908504 1.7243 0
M  V30 497 H 45.52 -2.41523 1.97669 0
M  V30 498 N 45.8211 -1.22559 -0.990812 0
M  V30 499 C 47.0981 -0.959875 -1.70428 0
M  V30 500 C 47.4781 0.524455 -2.04481 0
M  V30 501 O 46.8261 1.49302 -1.72977 0
M  V30 502 C 47.0361 -1.85955 -2.95333 0
M  V30 503 C 48.3841 -2.11687 -3.68068 0
M  V30 504 O 49.4081 -1.8342 -3.05345 0
M  V30 505 O 48.2671 -2.59572 -4.80921 0
M  V30 506 H 45.3611 -0.361154 -0.743974 0
M  V30 507 H 47.9071 -1.33554 -1.04697 0
M  V30 508 H 46.6791 -2.86346 -2.66687 0
M  V30 509 H 46.3021 -1.4856 -3.68803 0
M  V30 510 N 47.2992 1.18797 -1.03562 0
M  V30 511 C 48.5472 1.88278 -0.734569 0
M  V30 512 C 48.8682 1.8043 0.739586 0
M  V30 513 O 48.1382 1.21925 1.53333 0
M  V30 514 H 46.7182 0.696991 -0.268725 0
M  V30 515 H 49.3802 1.44192 -1.31129 0
M  V30 516 H 48.4762 2.94443 -1.03489 0
M  V30 517 N 48.7773 0.814389 1.34928 0
M  V30 518 C 49.7093 0.187834 2.28429 0
M  V30 519 C 50.7223 -0.617374 1.5064 0
M  V30 520 O 51.9113 -0.448454 1.72775 0
M  V30 521 C 49.0113 -0.755962 3.30361 0
M  V30 522 C 48.1843 0.00456686 4.374 0
M  V30 523 C 47.2433 -0.858876 5.19143 0
M  V30 524 O 46.2693 -0.306968 5.68372 0
M  V30 525 N 47.4713 -2.17988 5.38016 0
M  V30 526 H 50.2363 0.991105 2.82838 0
M  V30 527 H 47.7973 0.670561 1.4736 0
M  V30 528 H 49.7893 -1.338 3.81942 0
M  V30 529 H 48.3593 -1.46001 2.7641 0
M  V30 530 H 47.5793 0.767865 3.86649 0
M  V30 531 H 48.8673 0.528422 5.06049 0
M  V30 532 H 48.2653 -2.65212 4.99679 0
M  V30 533 H 46.8223 -2.71098 5.92747 0
M  V30 534 N 50.2554 -1.46986 0.568584 0
M  V30 535 C 51.4804 -2.07335 0.0520528 0
M  V30 536 C 51.9054 -1.41675 -1.23733 0
M  V30 537 O 51.2634 -0.495623 -1.74394 0
M  V30 538 C 51.3114 -3.60417 -0.11501 0
M  V30 539 O 50.4154 -3.95309 -1.17492 0
M  V30 540 H 49.7564 -0.661597 0.0564385 0
M  V30 541 H 52.2864 -1.88837 0.787507 0
M  V30 542 H 52.2964 -4.06698 -0.325644 0
M  V30 543 H 50.9714 -4.07601 0.826675 0
M  V30 544 H 49.5484 -3.60757 -0.943869 0
M  V30 545 N 51.7335 -0.305618 -1.54608 0
M  V30 546 C 52.9635 0.304333 -2.04346 0
M  V30 547 C 53.3715 1.47715 -1.18224 0
M  V30 548 O 52.7145 1.82591 -0.201577 0
M  V30 549 C 52.7765 0.819031 -3.50046 0
M  V30 550 C 52.4405 -0.22912 -4.56425 0
M  V30 551 C 53.4375 -1.05914 -5.08997 0
M  V30 552 C 51.1225 -0.372148 -5.0092 0
M  V30 553 C 53.1165 -2.01809 -6.04609 0
M  V30 554 C 50.8035 -1.33454 -5.9635 0
M  V30 555 C 51.8015 -2.15599 -6.48079 0
M  V30 556 O 51.4895 -3.10205 -7.41639 0
M  V30 557 H 51.2215 0.0693996 -0.672428 0
M  V30 558 H 53.7755 -0.444548 -2.00532 0
M  V30 559 H 52.0055 1.61852 -3.51199 0
M  V30 560 H 53.6945 1.34537 -3.82955 0
M  V30 561 H 54.4605 -0.959538 -4.75413 0
M  V30 562 H 50.3395 0.257304 -4.60281 0
M  V30 563 H 53.8835 -2.65966 -6.44909 0
M  V30 564 H 49.7805 -1.43485 -6.29351 0
M  V30 565 H 50.5485 -3.05237 -7.59455 0
M  V30 566 N 53.2116 1.57565 -0.0334293 0
M  V30 567 C 54.6276 1.56297 0.322997 0
M  V30 568 C 54.8276 1.03945 1.7262 0
M  V30 569 O 53.8836 0.688109 2.42943 0
M  V30 570 C 55.1966 3.00232 0.167664 0
M  V30 571 C 56.7446 3.12078 0.240107 0
M  V30 572 C 57.2196 4.57859 0.113513 0
M  V30 573 N 58.7106 4.62887 0.170359 0
M  V30 574 C 59.4456 5.73319 0.0962517 0
M  V30 575 N 58.9416 6.92794 -0.0291881 0
M  V30 576 N 60.7346 5.61898 0.150551 0
M  V30 577 H 52.8856 1.89923 -0.950956 0
M  V30 578 H 55.1486 0.873824 -0.367608 0
M  V30 579 H 54.8546 3.42501 -0.799102 0
M  V30 580 H 54.7286 3.654 0.936083 0
M  V30 581 H 57.1156 2.69718 1.19733 0
M  V30 582 H 57.1966 2.49623 -0.558763 0
M  V30 583 H 56.8406 5.009 -0.840314 0
M  V30 584 H 56.7706 5.18299 0.931302 0
M  V30 585 H 59.2616 3.76954 0.26728 0
M  V30 586 H 59.5746 7.7276 -0.0789252 0
M  V30 587 H 57.9196 6.94971 -0.0640299 0
M  V30 588 H 61.1106 4.67448 0.246981 0
M  V30 589 H 61.2836 6.47938 0.0893365 0
M  V30 590 N 54.6897 -0.239769 1.55765 0
M  V30 591 C 55.9377 -0.964892 1.77579 0
M  V30 592 C 56.2587 -1.85582 0.598699 0
M  V30 593 O 55.5287 -1.92075 -0.385226 0
M  V30 594 H 54.1087 -0.359265 0.654933 0
M  V30 595 H 56.7707 -0.256001 1.93211 0
M  V30 596 H 55.8667 -1.58243 2.69009 0
M  V30 597 N 56.1678 -1.49265 -0.50573 0
M  V30 598 C 57.3958 -1.62215 -1.28429 0
M  V30 599 C 57.8108 -0.291697 -1.86533 0
M  V30 600 O 57.1678 0.722233 -1.67601 0
M  V30 601 C 57.2188 -2.68735 -2.41793 0
M  V30 602 O 56.9398 -3.96619 -1.86078 0
M  V30 603 C 58.4408 -2.92346 -3.3324 0
M  V30 604 H 55.6608 -0.546239 -0.389697 0
M  V30 605 H 58.2048 -1.95265 -0.607609 0
M  V30 606 H 56.3598 -2.38476 -3.053 0
M  V30 607 H 56.7738 -4.55256 -2.60465 0
M  V30 608 H 58.2478 -3.70623 -4.09075 0
M  V30 609 H 58.7248 -2.02081 -3.89948 0
M  V30 610 H 59.3308 -3.24003 -2.75503 0
M  V30 611 N 57.6459 0.756429 -1.3826 0
M  V30 612 C 58.8759 1.54341 -1.3734 0
M  V30 613 C 59.2839 1.89159 0.0393917 0
M  V30 614 O 58.6269 1.5307 1.01565 0
M  V30 615 C 58.6889 2.87238 -2.16182 0
M  V30 616 C 58.3529 2.74973 -3.65019 0
M  V30 617 C 59.3499 2.44962 -4.58574 0
M  V30 618 C 57.0349 2.92515 -4.08338 0
M  V30 619 C 59.0289 2.32642 -5.93428 0
M  V30 620 C 56.7159 2.79815 -5.43274 0
M  V30 621 C 57.7139 2.49921 -6.35632 0
M  V30 622 O 57.4019 2.37275 -7.68086 0
M  V30 623 H 57.1339 0.484281 -0.471643 0
M  V30 624 H 59.6879 0.944152 -1.82414 0
M  V30 625 H 57.9179 3.49342 -1.65822 0
M  V30 626 H 59.6069 3.48731 -2.07705 0
M  V30 627 H 60.3729 2.31081 -4.26412 0
M  V30 628 H 56.2519 3.14781 -3.368 0
M  V30 629 H 59.7959 2.0923 -6.65484 0
M  V30 630 H 55.6929 2.93269 -5.75034 0
M  V30 631 H 56.4609 2.52509 -7.78577 0
M  V30 632 N 59.124 1.23083 0.984299 0
M  V30 633 C 60.349 1.088 1.76571 0
M  V30 634 C 60.774 -0.356657 1.84688 0
M  V30 635 O 60.132 -1.25788 1.30565 0
M  V30 636 C 60.18 1.71371 3.17277 0
M  V30 637 O 59.284 0.973213 4.00752 0
M  V30 638 H 58.625 0.381599 0.543395 0
M  V30 639 H 61.155 1.63057 1.23587 0
M  V30 640 H 61.165 1.76449 3.67872 0
M  V30 641 H 59.84 2.76493 3.10684 0
M  V30 642 H 58.417 0.999078 3.59267 0
M  V30 643 N 60.6021 -1.18246 1.0419 0
M  V30 644 C 61.8301 -1.92195 0.766072 0
M  V30 645 C 62.2451 -1.76247 -0.676933 0
M  V30 646 O 61.6021 -1.09293 -1.46155 0
M  V30 647 C 61.6531 -3.43568 1.12442 0
M  V30 648 O 61.3741 -3.59015 2.51078 0
M  V30 649 C 62.8751 -4.34613 0.873275 0
M  V30 650 H 60.0951 -0.610114 0.279288 0
M  V30 651 H 62.6391 -1.50007 1.38989 0
M  V30 652 H 60.7941 -3.8354 0.545542 0
M  V30 653 H 61.2081 -4.5273 2.64831 0
M  V30 654 H 62.6821 -5.39374 1.17385 0
M  V30 655 H 63.1591 -4.38781 -0.191909 0
M  V30 656 H 63.7651 -4.00341 1.43551 0
M  V30 657 N 62.0802 -0.821533 -1.34494 0
M  V30 658 C 63.3082 -0.421884 -2.02553 0
M  V30 659 C 63.7232 0.971745 -1.61872 0
M  V30 660 O 63.0802 1.62864 -0.823496 0
M  V30 661 C 63.1312 -0.51285 -3.57844 0
M  V30 662 O 62.8522 -1.85155 -3.97051 0
M  V30 663 C 64.3532 -0.107921 -4.43169 0
M  V30 664 H 61.5732 -0.169482 -0.649243 0
M  V30 665 H 64.1172 -1.1093 -1.71798 0
M  V30 666 H 62.2722 0.126474 -3.87193 0
M  V30 667 H 62.6862 -1.82482 -4.91732 0
M  V30 668 H 64.1602 -0.222657 -5.51551 0
M  V30 669 H 64.6372 0.948401 -4.28838 0
M  V30 670 H 65.2432 -0.720989 -4.19144 0
M  V30 671 N 63.5583 1.46682 -0.576371 0
M  V30 672 C 64.8043 2.02712 -0.0596221 0
M  V30 673 C 65.1373 1.44765 1.29448 0
M  V30 674 O 64.4123 0.610355 1.84675 0
M  V30 675 C 64.6953 3.60098 0.0129503 0
M  V30 676 C 64.5483 4.28441 -1.3696 0
M  V30 677 C 65.8673 4.34224 0.71678 0
M  V30 678 H 62.9863 0.736637 -0.0231407 0
M  V30 679 H 65.6283 1.74898 -0.742351 0
M  V30 680 H 63.7783 3.83926 0.594378 0
M  V30 681 H 65.4503 4.15896 -1.9957 0
M  V30 682 H 63.6933 3.8805 -1.93907 0
M  V30 683 H 64.3643 5.3716 -1.27135 0
M  V30 684 H 66.8403 4.15503 0.222908 0
M  V30 685 H 65.7163 5.43936 0.73657 0
M  V30 686 H 65.9773 4.04823 1.77682 0
M  V30 687 N 65.0364 0.313813 1.54444 0
M  V30 688 C 66.2644 -0.293918 2.04802 0
M  V30 689 C 66.6794 -1.46537 1.19047 0
M  V30 690 O 66.0364 -1.81182 0.218939 0
M  V30 691 C 66.0874 -0.737806 3.53891 0
M  V30 692 O 65.8084 0.387038 4.36387 0
M  V30 693 C 67.3094 -1.40936 4.203 0
M  V30 694 H 64.5294 -0.0620057 0.668129 0
M  V30 695 H 67.0734 0.457169 1.99324 0
M  V30 696 H 65.2284 -1.43889 3.59687 0
M  V30 697 H 65.6424 0.0391274 5.24485 0
M  V30 698 H 67.1164 -1.67099 5.26101 0
M  V30 699 H 67.5934 -2.35355 3.70816 0
M  V30 700 H 68.1994 -0.751117 4.18615 0
M  V30 701 N 66.5145 -1.57545 0.0417849 0
M  V30 702 C 67.7625 -1.91937 -0.632829 0
M  V30 703 C 68.0835 -0.919978 -1.71934 0
M  V30 704 O 67.3535 0.0366064 -1.95866 0
M  V30 705 H 65.9335 -0.708493 -0.236742 0
M  V30 706 H 68.5955 -1.9468 0.0925745 0
M  V30 707 H 67.6915 -2.92912 -1.07746 0
M  V30 708 N 67.9926 0.231505 -1.5589 0
M  V30 709 C 69.4086 0.580748 -1.48659 0
M  V30 710 C 69.6086 1.87617 -0.73498 0
M  V30 711 O 68.6646 2.51046 -0.270586 0
M  V30 712 C 69.9776 0.669202 -2.93159 0
M  V30 713 C 71.5256 0.760499 -3.03621 0
M  V30 714 C 72.0006 0.880383 -4.49459 0
M  V30 715 N 73.4916 0.944861 -4.53461 0
M  V30 716 C 74.2266 1.05716 -5.63571 0
M  V30 717 N 73.7226 1.13403 -6.83456 0
M  V30 718 N 75.5156 1.09152 -5.514 0
M  V30 719 H 67.6666 -0.618695 -2.03189 0
M  V30 720 H 69.9296 -0.215728 -0.923128 0
M  V30 721 H 69.6356 -0.212904 -3.51055 0
M  V30 722 H 69.5096 1.5361 -3.44505 0
M  V30 723 H 71.8966 1.63305 -2.45796 0
M  V30 724 H 71.9776 -0.131864 -2.5546 0
M  V30 725 H 71.6216 0.0123284 -5.07899 0
M  V30 726 H 71.5516 1.78802 -4.95316 0
M  V30 727 H 74.0426 0.896176 -3.6712 0
M  V30 728 H 74.3556 1.21921 -7.63122 0
M  V30 729 H 72.7006 1.10333 -6.86186 0
M  V30 730 H 75.8916 1.02805 -4.56671 0
M  V30 731 H 76.0646 1.17558 -6.37247 0
M  V30 732 N 69.4707 1.49531 0.497807 0
M  V30 733 C 70.6987 1.62893 1.27567 0
M  V30 734 C 71.1137 0.301585 1.86376 0
M  V30 735 O 70.4707 -0.713335 1.67982 0
M  V30 736 C 70.5217 2.70013 2.40364 0
M  V30 737 O 70.2427 3.976 1.83972 0
M  V30 738 C 71.7437 2.94109 3.31685 0
M  V30 739 H 68.9637 0.548298 0.386794 0
M  V30 740 H 71.5077 1.95584 0.597245 0
M  V30 741 H 69.6627 2.40092 3.04031 0
M  V30 742 H 70.0767 4.56631 2.58047 0
M  V30 743 H 71.5507 3.72788 4.07104 0
M  V30 744 H 72.0277 2.04147 3.88871 0
M  V30 745 H 72.6337 3.2546 2.73781 0
M  V30 746 N 70.9488 -0.749086 1.3866 0
M  V30 747 C 72.1888 -1.52112 1.36534 0
M  V30 748 C 72.5528 -1.91951 -0.0432316 0
M  V30 749 O 73.7538 -2.68132 -0.189396 0
M  V30 750 C 72.0248 -2.73704 2.29828 0
M  V30 751 S 73.5838 -3.63519 2.45763 0
M  V30 752 H 70.4018 -0.520482 0.484375 0
M  V30 753 H 73.0038 -0.878963 1.74627 0
M  V30 754 H 71.7078 -2.42552 3.31054 0
M  V30 755 H 71.2388 -3.4286 1.929 0
M  V30 756 H 73.2538 -4.66712 1.68505 0
M  V30 757 N 72.4269 -1.23603 -0.977757 0
M  V30 758 C 73.3589 -0.977369 -2.07317 0
M  V30 759 C 74.3719 0.0495845 -1.62724 0
M  V30 760 O 75.5609 -0.186261 -1.77526 0
M  V30 761 C 72.6609 -0.451216 -3.35883 0
M  V30 762 C 71.8339 -1.53896 -4.09432 0
M  V30 763 C 70.8929 -1.01721 -5.16274 0
M  V30 764 O 69.9189 -1.70676 -5.43009 0
M  V30 765 N 71.1209 0.153594 -5.80297 0
M  V30 766 H 73.8859 -1.92047 -2.30082 0
M  V30 767 H 71.4469 -1.14497 -1.14465 0
M  V30 768 H 73.4389 -0.0871574 -4.04606 0
M  V30 769 H 72.0089 0.397368 -3.10064 0
M  V30 770 H 71.2289 -2.07566 -3.35127 0
M  V30 771 H 72.5169 -2.27037 -4.55337 0
M  V30 772 H 71.9149 0.730323 -5.60966 0
M  V30 773 H 70.4719 0.458892 -6.50183 0
M  V30 774 N 73.905 1.17692 -1.04816 0
M  V30 775 C 74.868 2.19787 -0.650117 0
M  V30 776 C 75.868 1.58044 0.296427 0
M  V30 777 O 77.058 1.74012 0.0808097 0
M  V30 778 C 74.19 3.40869 0.0456987 0
M  V30 779 H 75.383 2.56516 -1.5537 0
M  V30 780 H 72.936 1.31708 -0.841594 0
M  V30 781 H 73.671 3.09681 0.962726 0
M  V30 782 H 73.456 3.86928 -0.634727 0
M  V30 783 H 74.946 4.16445 0.310432 0
M  V30 784 N 75.3831 0.828654 1.34056 0
M  V30 785 C 76.6291 0.429279 1.98818 0
M  V30 786 C 76.9841 -0.998011 1.64492 0
M  V30 787 O 76.2771 -1.68652 0.909228 0
M  V30 788 C 76.4711 0.575226 3.52741 0
M  V30 789 C 76.3001 2.01515 4.02022 0
M  V30 790 C 75.0701 2.64825 4.30344 0
M  V30 791 C 77.2681 2.98261 4.18981 0
M  V30 792 N 75.2501 3.99998 4.65698 0
M  V30 793 C 76.6211 4.18356 4.57578 0
M  V30 794 C 78.6761 2.94802 4.01243 0
M  V30 795 C 77.3791 5.35454 4.80293 0
M  V30 796 C 79.4051 4.11121 4.25128 0
M  V30 797 C 78.7671 5.29969 4.64018 0
M  V30 798 H 74.8661 0.205304 0.754569 0
M  V30 799 H 77.4501 1.07457 1.62361 0
M  V30 800 H 75.6211 -0.0401962 3.88379 0
M  V30 801 H 77.3531 0.148292 4.04428 0
M  V30 802 H 74.1081 2.16027 4.21461 0
M  V30 803 H 74.5321 4.69653 4.87601 0
M  V30 804 H 79.1741 2.04054 3.70299 0
M  V30 805 H 76.8921 6.26755 5.10102 0
M  V30 806 H 80.4781 4.0985 4.12934 0
M  V30 807 H 79.3581 6.18479 4.82134 0
M  V30 808 N 76.8612 -1.46375 0.584142 0
M  V30 809 C 78.0862 -2.07268 0.0740405 0
M  V30 810 C 78.5112 -1.42979 -1.22223 0
M  V30 811 O 77.8692 -0.514092 -1.73859 0
M  V30 812 C 77.9172 -3.60518 -0.0767769 0
M  V30 813 O 77.0212 -3.96533 -1.13292 0
M  V30 814 H 76.3622 -0.660961 0.0634524 0
M  V30 815 H 78.8922 -1.87991 0.807492 0
M  V30 816 H 78.9022 -4.07021 -0.282489 0
M  V30 817 H 77.5772 -4.06702 0.86986 0
M  V30 818 H 76.1542 -3.61738 -0.905553 0
M  V30 819 N 78.3393 -0.321999 -1.54275 0
M  V30 820 C 79.5643 0.285791 -2.05422 0
M  V30 821 C 79.9893 1.45124 -1.19669 0
M  V30 822 O 79.3473 1.80132 -0.205441 0
M  V30 823 C 79.3953 0.69956 -3.53749 0
M  V30 824 O 78.4993 1.8021 -3.70942 0
M  V30 825 H 77.8403 0.0518962 -0.661969 0
M  V30 826 H 80.3703 -0.469954 -1.9913 0
M  V30 827 H 80.3803 0.982649 -3.9599 0
M  V30 828 H 79.0553 -0.152864 -4.15619 0
M  V30 829 H 77.6323 1.51794 -3.40607 0
M  V30 830 N 79.8174 1.5752 -0.0501392 0
M  V30 831 C 80.7504 2.07026 0.959962 0
M  V30 832 C 81.7284 0.970539 1.30458 0
M  V30 833 O 82.9124 1.2424 1.41763 0
M  V30 834 C 80.0394 2.5099 2.27424 0
M  V30 835 C 79.0854 3.72188 2.08275 0
M  V30 836 S 79.9184 5.17888 1.36207 0
M  V30 837 C 81.0744 5.65165 2.6896 0
M  V30 838 H 81.3074 2.9238 0.538631 0
M  V30 839 H 78.8404 1.53547 0.162099 0
M  V30 840 H 80.7984 2.76982 3.02971 0
M  V30 841 H 79.4594 1.65944 2.66686 0
M  V30 842 H 78.6524 4.00866 3.05487 0
M  V30 843 H 78.2544 3.46457 1.40868 0
M  V30 844 H 80.5464 5.70687 3.65133 0
M  V30 845 H 81.4894 6.64394 2.4492 0
M  V30 846 H 81.8974 4.9289 2.75172 0
M  V30 847 N 81.2955 -0.223234 1.56011 0
M  V30 848 C 82.5235 -0.964812 1.83027 0
M  V30 849 C 82.9385 -1.78013 0.62904 0
M  V30 850 O 82.2955 -1.78008 -0.402414 0
M  V30 851 C 82.3465 -1.88373 3.08542 0
M  V30 852 O 82.0675 -1.10137 4.2403 0
M  V30 853 C 83.5685 -2.73934 3.48533 0
M  V30 854 H 80.7885 -0.282842 0.608475 0
M  V30 855 H 83.3325 -0.238971 2.03099 0
M  V30 856 H 81.4875 -2.56354 2.9045 0
M  V30 857 H 81.9015 -1.72501 4.95322 0
M  V30 858 H 83.3755 -3.34117 4.39397 0
M  V30 859 H 83.8525 -3.46244 2.70207 0
M  V30 860 H 84.4585 -2.11369 3.69057 0
M  V30 861 N 82.7736 -1.49793 -0.48987 0
M  V30 862 C 84.1846 -1.52914 -1.07118 0
M  V30 863 C 84.5356 -0.321738 -1.93544 0
M  V30 864 O 83.6606 0.567338 -2.08831 0
M  V30 865 C 84.2556 -2.771 -1.94938 0
M  V30 866 C 82.8146 -2.82963 -2.48212 0
M  V30 867 C 81.9616 -2.46972 -1.26096 0
M  V30 868 H 84.9126 -1.56329 -0.273289 0
M  V30 869 H 84.9336 -2.57892 -2.79771 0
M  V30 870 H 84.4456 -3.64959 -1.32009 0
M  V30 871 H 82.5466 -1.99411 -3.14748 0
M  V30 872 H 82.6596 -3.85406 -2.84603 0
M  V30 873 H 81.0236 -1.98994 -1.58976 0
M  V30 874 H 81.8066 -3.37118 -0.648581 0
M  V30 875 N 84.2517 0.741722 -1.39055 0
M  V30 876 C 85.2017 1.84661 -1.33732 0
M  V30 877 C 86.1857 1.59397 -0.219401 0
M  V30 878 O 87.3777 1.71015 -0.456375 0
M  V30 879 C 84.5067 3.22512 -1.17647 0
M  V30 880 C 83.5927 3.53628 -2.34112 0
M  V30 881 N 83.9837 3.55723 -3.59576 0
M  V30 882 C 82.2817 3.83956 -2.26923 0
M  V30 883 C 82.9827 3.84443 -4.36553 0
M  V30 884 N 81.9587 4.01877 -3.66055 0
M  V30 885 H 85.7607 1.84576 -2.28711 0
M  V30 886 H 83.2747 0.939647 -1.32455 0
M  V30 887 H 85.2717 4.01597 -1.11917 0
M  V30 888 H 83.9317 3.2384 -0.236124 0
M  V30 889 H 84.9427 3.37196 -3.93089 0
M  V30 890 H 81.6197 3.92929 -1.41113 0
M  V30 891 H 83.0097 3.92588 -5.45274 0
M  V30 892 N 85.7298 1.2412 0.971189 0
M  V30 893 C 86.6618 0.988349 2.06795 0
M  V30 894 C 87.6748 -0.0409541 1.62748 0
M  V30 895 O 88.8638 0.195673 1.77424 0
M  V30 896 C 85.9638 0.469023 3.35639 0
M  V30 897 C 85.1368 1.56065 4.08611 0
M  V30 898 C 84.1958 1.04458 5.15728 0
M  V30 899 O 83.2218 1.73553 5.42096 0
M  V30 900 N 84.4238 -0.122817 5.8037 0
M  V30 901 H 87.1888 1.93265 2.29061 0
M  V30 902 H 84.7498 1.15102 1.13856 0
M  V30 903 H 86.7418 0.108613 4.04554 0
M  V30 904 H 85.3118 -0.380919 3.1027 0
M  V30 905 H 84.5318 2.09341 3.34021 0
M  V30 906 H 85.8198 2.29449 4.54126 0
M  V30 907 H 85.2178 -0.700563 5.61345 0
M  V30 908 H 83.7748 -0.424404 6.50417 0
M  V30 909 N 87.2079 -1.17134 1.05439 0
M  V30 910 C 88.1579 -2.1919 0.627675 0
M  V30 911 C 89.1419 -1.57328 -0.337147 0
M  V30 912 O 90.3339 -1.76329 -0.153976 0
M  V30 913 C 87.4629 -3.43299 0.00651435 0
M  V30 914 C 86.5489 -4.12255 0.995312 0
M  V30 915 N 86.9399 -4.56997 2.16765 0
M  V30 916 C 85.2379 -4.38316 0.824336 0
M  V30 917 C 85.9389 -5.10239 2.7934 0
M  V30 918 N 84.9149 -5.02595 2.07122 0
M  V30 919 H 88.7169 -2.5149 1.52086 0
M  V30 920 H 86.2309 -1.33491 0.924868 0
M  V30 921 H 88.2279 -4.15693 -0.316965 0
M  V30 922 H 86.8879 -3.1249 -0.882033 0
M  V30 923 H 87.8989 -4.51006 2.54587 0
M  V30 924 H 84.5759 -4.17498 -0.0129526 0
M  V30 925 H 85.9659 -5.54961 3.78772 0
M  V30 926 N 88.686 -0.835752 -1.33615 0
M  V30 927 C 89.634 -0.255238 -2.31195 0
M  V30 928 C 90.628 0.61107 -1.57995 0
M  V30 929 O 91.834 0.500979 -1.72888 0
M  V30 930 H 88.209 -0.0638085 -0.749288 0
M  V30 931 H 90.18 -1.09283 -2.77669 0
M  V30 932 C 88.929 0.55754 -3.43201 0
M  V30 933 H 88.252 -0.0997553 -3.99676 0
M  V30 934 H 89.692 0.929622 -4.13683 0
M  V30 935 C 88.151 1.73515 -2.88781 0
M  V30 936 O 88.681 2.83376 -2.84712 0
M  V30 937 N 86.887 1.55603 -2.4543 0
M  V30 938 H 86.434 0.662354 -2.48939 0
M  V30 939 H 86.392 2.34545 -2.09371 0
M  V30 940 N 90.1641 1.46063 -0.591896 0
M  V30 941 C 91.5801 1.57561 -0.254288 0
M  V30 942 C 91.7801 1.58565 1.24336 0
M  V30 943 O 90.8361 1.50753 2.02558 0
M  V30 944 C 92.1491 2.86549 -0.911611 0
M  V30 945 C 93.6971 3.00197 -0.886059 0
M  V30 946 C 94.1721 4.31933 -1.5231 0
M  V30 947 N 95.6631 4.38654 -1.48786 0
M  V30 948 C 96.3981 5.39222 -1.95006 0
M  V30 949 N 95.8941 6.46414 -2.49241 0
M  V30 950 N 97.6871 5.3048 -1.85868 0
M  V30 951 H 89.8381 1.43655 -1.56451 0
M  V30 952 H 92.1011 0.68583 -0.654478 0
M  V30 953 H 91.8071 2.91651 -1.96551 0
M  V30 954 H 91.6811 3.74794 -0.425368 0
M  V30 955 H 94.0681 2.9467 0.159246 0
M  V30 956 H 94.1491 2.13403 -1.41041 0
M  V30 957 H 93.7931 4.38217 -2.56765 0
M  V30 958 H 93.7231 5.17516 -0.973891 0
M  V30 959 H 96.2141 3.61793 -1.09151 0
M  V30 960 H 96.5271 7.19376 -2.82344 0
M  V30 961 H 94.8721 6.47208 -2.53272 0
M  V30 962 H 98.0631 4.45643 -1.43248 0
M  V30 963 H 98.2361 6.08711 -2.22204 0
M  V30 964 N 91.6422 0.330177 1.54103 0
M  V30 965 C 92.8702 -0.272179 2.05102 0
M  V30 966 C 93.2852 -1.45267 1.20595 0
M  V30 967 O 92.6422 -1.8094 0.238144 0
M  V30 968 C 92.6932 -0.70023 3.54653 0
M  V30 969 O 92.4142 0.433301 4.35952 0
M  V30 970 C 93.9152 -1.3647 4.21771 0
M  V30 971 H 91.1352 -0.0549159 0.668749 0
M  V30 972 H 93.6792 0.478285 1.98828 0
M  V30 973 H 91.8342 -1.40066 3.61193 0
M  V30 974 H 92.2482 0.0947539 5.24414 0
M  V30 975 H 93.7222 -1.61509 5.27843 0
M  V30 976 H 94.1992 -2.31409 3.73292 0
M  V30 977 H 94.8052 -0.706675 4.19388 0
M  V30 978 N 93.1203 -1.57491 0.0584922 0
M  V30 979 C 94.3483 -1.97296 -0.623037 0
M  V30 980 C 94.7633 -0.936338 -1.63946 0
M  V30 981 O 94.1203 0.0785981 -1.82331 0
M  V30 982 C 94.1713 -3.37183 -1.30345 0
M  V30 983 O 93.8923 -4.36872 -0.32773 0
M  V30 984 C 95.3933 -3.91788 -2.07406 0
M  V30 985 H 92.6133 -0.649153 -0.169826 0
M  V30 986 H 95.1573 -2.04106 0.12696 0
M  V30 987 H 93.3123 -3.31502 -2.00463 0
M  V30 988 H 93.7263 -5.18141 -0.814269 0
M  V30 989 H 95.2003 -4.91926 -2.50425 0
M  V30 990 H 95.6773 -3.27609 -2.92521 0
M  V30 991 H 96.2833 -4.00829 -1.42184 0
M  V30 992 N 94.5984 0.214957 -1.56127 0
M  V30 993 C 95.5084 1.28727 -1.96129 0
M  V30 994 C 96.5244 1.50916 -0.866044 0
M  V30 995 O 97.7004 1.63918 -1.17016 0
M  V30 996 C 94.7654 2.61569 -2.27558 0
M  V30 997 C 93.8264 2.47625 -3.50685 0
M  V30 998 C 93.0594 3.74132 -3.80606 0
M  V30 999 O 93.2824 4.77438 -3.12104 0
M  V30 1000 O 92.2164 3.70849 -4.74083 0
M  V30 1001 H 96.0424 0.977855 -2.87527 0
M  V30 1002 H 93.6274 0.418358 -1.43423 0
M  V30 1003 H 95.5094 3.40012 -2.48938 0
M  V30 1004 H 94.1844 2.92178 -1.39332 0
M  V30 1005 H 93.0914 1.67361 -3.34576 0
M  V30 1006 H 94.4244 2.21954 -4.39315 0
M  V30 1007 N 96.0765 1.50051 0.48192 0
M  V30 1008 C 97.0245 1.68635 1.60203 0
M  V30 1009 C 98.0185 0.552184 1.60148 0
M  V30 1010 O 99.2245 0.732377 1.64427 0
M  V30 1011 H 95.5995 0.532081 0.531407 0
M  V30 1012 H 97.5705 2.62616 1.41688 0
M  V30 1013 C 96.3195 1.78775 2.9822 0
M  V30 1014 H 95.6425 2.6543 2.98976 0
M  V30 1015 H 97.0825 1.95806 3.7608 0
M  V30 1016 C 95.5415 0.536849 3.32595 0
M  V30 1017 O 96.0715 -0.328897 4.00351 0
M  V30 1018 N 94.2775 0.394091 2.87915 0
M  V30 1019 H 93.8245 1.09962 2.32951 0
M  V30 1020 H 93.7825 -0.441737 3.11281 0
M  V30 1021 N 97.5546 -0.734337 1.39446 0
M  V30 1022 C 98.7846 -1.52137 1.39778 0
M  V30 1023 C 99.1926 -1.89198 -0.00929312 0
M  V30 1024 O 98.5356 -1.54666 -0.991168 0
M  V30 1025 C 98.5976 -2.83762 2.20724 0
M  V30 1026 C 98.2616 -2.69131 3.69347 0
M  V30 1027 C 99.2586 -2.37635 4.62413 0
M  V30 1028 C 96.9436 -2.85982 4.1294 0
M  V30 1029 C 98.9376 -2.23172 5.97054 0
M  V30 1030 C 96.6246 -2.71137 5.47657 0
M  V30 1031 C 97.6226 -2.39777 6.39528 0
M  V30 1032 O 97.3106 -2.25026 7.71763 0
M  V30 1033 H 97.0426 -0.476717 0.479288 0
M  V30 1034 H 99.5966 -0.915012 1.83893 0
M  V30 1035 H 97.8266 -3.4666 1.71359 0
M  V30 1036 H 99.5156 -3.45383 2.13226 0
M  V30 1037 H 100.282 -2.24267 4.30034 0
M  V30 1038 H 96.1606 -3.09383 3.41765 0
M  V30 1039 H 99.7046 -1.98617 6.68728 0
M  V30 1040 H 95.6016 -2.84083 5.79626 0
M  V30 1041 H 96.3696 -2.40091 7.82495 0
M  V30 1042 N 99.0327 -1.24633 -0.964593 0
M  V30 1043 C 100.444 -1.08045 -1.5226 0
M  V30 1044 C 100.795 0.347116 -1.93105 0
M  V30 1045 O 99.9197 1.23588 -1.77637 0
M  V30 1046 C 100.515 -1.95514 -2.76695 0
M  V30 1047 C 99.0737 -1.8314 -3.28841 0
M  V30 1048 C 98.2207 -1.90262 -2.01732 0
M  V30 1049 H 101.172 -1.38064 -0.782553 0
M  V30 1050 H 101.193 -1.48925 -3.50145 0
M  V30 1051 H 100.705 -2.99407 -2.46936 0
M  V30 1052 H 98.8057 -0.82092 -3.63444 0
M  V30 1053 H 98.9187 -2.67406 -3.97531 0
M  V30 1054 H 97.2827 -1.34027 -2.16584 0
M  V30 1055 H 98.0657 -2.9574 -1.74334 0
M  V30 1056 N 100.511 1.16574 -1.06058 0
M  V30 1057 C 101.459 2.22941 -0.663343 0
M  V30 1058 C 102.453 1.66358 0.319593 0
M  V30 1059 O 103.659 1.7905 0.184713 0
M  V30 1060 H 100.034 0.725907 -0.196376 0
M  V30 1061 H 102.005 2.53736 -1.57037 0
M  V30 1062 C 100.754 3.47642 -0.0632808 0
M  V30 1063 H 100.077 3.91493 -0.810733 0
M  V30 1064 H 101.517 4.2363 0.177177 0
M  V30 1065 C 99.9758 3.1509 1.19248 0
M  V30 1066 O 100.506 3.30673 2.28075 0
M  V30 1067 N 98.7118 2.6924 1.09353 0
M  V30 1068 H 98.2588 2.5676 0.207912 0
M  V30 1069 H 98.2168 2.47833 1.93458 0
M  V30 1070 N 101.989 0.842826 1.3317 0
M  V30 1071 C 102.952 0.284065 2.27433 0
M  V30 1072 C 103.952 -0.54948 1.5112 0
M  V30 1073 O 105.142 -0.362699 1.70382 0
M  V30 1074 C 102.274 -0.599384 3.35589 0
M  V30 1075 H 103.467 1.11589 2.78366 0
M  V30 1076 H 101.02 0.616221 1.4364 0
M  V30 1077 H 101.755 -1.45349 2.89904 0
M  V30 1078 H 101.54 -0.00291266 3.921 0
M  V30 1079 H 103.03 -0.983488 4.05854 0
M  V30 1080 N 103.467 -1.45747 0.599634 0
M  V30 1081 C 104.715 -2.01893 0.0915472 0
M  V30 1082 C 105.036 -1.47155 -1.27946 0
M  V30 1083 O 104.306 -0.66273 -1.84349 0
M  V30 1084 H 102.886 -0.746363 0.0308524 0
M  V30 1085 H 105.548 -1.78645 0.779237 0
M  V30 1086 H 104.644 -3.1208 0.0353086 0
M  V30 1087 N 104.945 -0.338344 -1.53925 0
M  V30 1088 C 105.875 0.51328 -2.27789 0
M  V30 1089 C 106.856 1.107 -1.29149 0
M  V30 1090 O 108.041 1.12937 -1.57984 0
M  V30 1091 C 105.171 1.66697 -3.04679 0
M  V30 1092 C 104.125 1.20183 -4.1078 0
M  V30 1093 C 103.451 2.44363 -4.75595 0
M  V30 1094 C 104.751 0.30605 -5.21403 0
M  V30 1095 H 106.445 -0.102883 -2.99223 0
M  V30 1096 H 103.991 -0.0509219 -1.4391 0
M  V30 1097 H 105.944 2.26915 -3.55088 0
M  V30 1098 H 104.668 2.30995 -2.30887 0
M  V30 1099 H 103.327 0.622499 -3.61276 0
M  V30 1100 H 102.975 3.07057 -3.98403 0
M  V30 1101 H 102.675 2.13925 -5.47275 0
M  V30 1102 H 104.199 3.05317 -5.28786 0
M  V30 1103 H 105.613 0.814929 -5.67478 0
M  V30 1104 H 104.01 0.0937929 -6.00027 0
M  V30 1105 H 105.08 -0.65921 -4.80398 0
M  V30 1106 N 106.423 1.57458 -0.0668435 0
M  V30 1107 C 107.672 1.92477 0.602947 0
M  V30 1108 C 107.985 0.948419 1.71068 0
M  V30 1109 O 109.191 1.19124 2.43971 0
M  V30 1110 C 107.647 3.41903 1.12383 0
M  V30 1111 C 107.255 4.47975 0.04737 0
M  V30 1112 C 108.999 3.85931 1.76797 0
M  V30 1113 C 106.906 5.88529 0.582022 0
M  V30 1114 H 105.836 0.718387 0.22899 0
M  V30 1115 H 108.487 1.82978 -0.138276 0
M  V30 1116 H 106.869 3.46459 1.91787 0
M  V30 1117 H 108.043 4.55029 -0.726978 0
M  V30 1118 H 106.358 4.13384 -0.500243 0
M  V30 1119 H 108.955 4.88322 2.17821 0
M  V30 1120 H 109.298 3.23029 2.62599 0
M  V30 1121 H 109.831 3.83958 1.04024 0
M  V30 1122 H 106.57 6.55065 -0.238721 0
M  V30 1123 H 106.09 5.85004 1.324 0
M  V30 1124 H 107.769 6.38258 1.05999 0
M  V30 1125 N 107.901 -0.206675 1.56239 0
M  V30 1126 C 108.834 -1.28383 1.88661 0
M  V30 1127 C 109.812 -1.44504 0.745481 0
M  V30 1128 O 110.996 -1.60079 0.995336 0
M  V30 1129 C 108.123 -2.65211 2.10667 0
M  V30 1130 C 107.169 -2.66025 3.33366 0
M  V30 1131 S 108.002 -2.18609 4.88846 0
M  V30 1132 C 109.158 -3.57283 5.13906 0
M  V30 1133 H 109.391 -1.00691 2.7973 0
M  V30 1134 H 106.924 -0.409627 1.48867 0
M  V30 1135 H 108.882 -3.43979 2.24029 0
M  V30 1136 H 107.543 -2.90121 1.20369 0
M  V30 1137 H 106.736 -3.66607 3.45855 0
M  V30 1138 H 106.338 -1.95331 3.18938 0
M  V30 1139 H 108.63 -4.53074 5.03717 0
M  V30 1140 H 109.573 -3.49699 6.15724 0
M  V30 1141 H 109.981 -3.51659 4.41583 0
M  V30 1142 N 109.379 -1.50304 -0.473955 0
M  V30 1143 C 110.327 -1.69482 -1.59307 0
M  V30 1144 C 111.321 -0.560669 -1.59853 0
M  V30 1145 O 112.527 -0.741087 -1.64036 0
M  V30 1146 H 108.902 -0.534892 -0.528578 0
M  V30 1147 H 110.873 -2.63364 -1.40293 0
M  V30 1148 C 109.622 -1.80354 -2.97267 0
M  V30 1149 H 108.945 -2.67012 -2.97564 0
M  V30 1150 H 110.385 -1.97798 -3.75036 0
M  V30 1151 C 108.844 -0.55448 -3.32306 0
M  V30 1152 O 109.374 0.307661 -4.0052 0
M  V30 1153 N 107.58 -0.409354 -2.87702 0
M  V30 1154 H 107.127 -1.11196 -2.32364 0
M  V30 1155 H 107.085 0.425223 -3.11511 0
M  V30 1156 N 110.857 0.726932 -1.39834 0
M  V30 1157 C 112.087 1.51393 -1.40583 0
M  V30 1158 C 112.495 1.892 -0.000740625 0
M  V30 1159 O 111.838 1.55189 0.982951 0
M  V30 1160 C 111.9 2.82588 -2.22226 0
M  V30 1161 C 111.564 2.67169 -3.70769 0
M  V30 1162 C 112.561 2.3518 -4.63666 0
M  V30 1163 C 110.246 2.83788 -4.14451 0
M  V30 1164 C 112.24 2.20002 -5.98229 0
M  V30 1165 C 109.927 2.68229 -5.49087 0
M  V30 1166 C 110.925 2.36382 -6.4079 0
M  V30 1167 O 110.613 2.2093 -7.72946 0
M  V30 1168 H 110.345 0.474168 -0.48181 0
M  V30 1169 H 112.899 0.905247 -1.84376 0
M  V30 1170 H 111.129 3.45746 -1.73195 0
M  V30 1171 H 112.818 3.44247 -2.15055 0
M  V30 1172 H 113.584 2.21984 -4.31217 0
M  V30 1173 H 109.463 3.07566 -3.43401 0
M  V30 1174 H 113.007 1.95067 -6.69772 0
M  V30 1175 H 108.904 2.81006 -5.81125 0
M  V30 1176 H 109.672 2.35937 -7.83757 0
M  V30 1177 N 112.336 1.25143 0.95797 0
M  V30 1178 C 113.576 1.10893 1.71703 0
M  V30 1179 C 113.94 -0.34478 1.88879 0
M  V30 1180 O 115.141 -0.609014 2.6181 0
M  V30 1181 C 113.412 1.83889 3.06463 0
M  V30 1182 S 114.971 1.85491 3.97666 0
M  V30 1183 H 111.789 0.396428 0.590226 0
M  V30 1184 H 114.391 1.58618 1.14283 0
M  V30 1185 H 113.095 2.88756 2.9163 0
M  V30 1186 H 112.626 1.36538 3.68946 0
M  V30 1187 H 114.641 0.929553 4.87415 0
M  V30 1188 N 113.814 -1.1601 1.06675 0
M  V30 1189 C 115.23 -1.38622 0.790948 0
M  V30 1190 C 115.43 -1.92109 -0.607965 0
M  V30 1191 O 114.486 -2.12239 -1.36787 0
M  V30 1192 C 115.799 -2.36347 1.85905 0
M  V30 1193 C 117.347 -2.50023 1.88301 0
M  V30 1194 C 117.822 -3.51033 2.94176 0
M  V30 1195 N 119.313 -3.58563 2.93235 0
M  V30 1196 C 120.048 -4.36521 3.71803 0
M  V30 1197 N 119.544 -5.17869 4.602 0
M  V30 1198 N 121.337 -4.31541 3.60178 0
M  V30 1199 H 113.488 -0.796294 1.96908 0
M  V30 1200 H 115.751 -0.412597 0.853503 0
M  V30 1201 H 115.457 -2.04147 2.86386 0
M  V30 1202 H 115.331 -3.36042 1.71334 0
M  V30 1203 H 117.718 -2.81524 0.884769 0
M  V30 1204 H 117.799 -1.5035 2.06951 0
M  V30 1205 H 117.443 -3.20268 3.94196 0
M  V30 1206 H 117.373 -4.50445 2.72776 0
M  V30 1207 H 119.864 -3.00496 2.29152 0
M  V30 1208 H 120.177 -5.74578 5.16797 0
M  V30 1209 H 118.522 -5.17199 4.64253 0
M  V30 1210 H 121.713 -3.67051 2.90502 0
M  V30 1211 H 121.886 -4.9205 4.21653 0
M  V30 1212 N 115.292 -0.849877 -1.32721 0
M  V30 1213 C 116.24 -0.279745 -2.30912 0
M  V30 1214 C 117.234 0.594278 -1.58634 0
M  V30 1215 O 118.44 0.482613 -1.73409 0
M  V30 1216 H 114.815 -0.0717521 -0.748569 0
M  V30 1217 H 116.786 -1.12222 -2.76494 0
M  V30 1218 C 115.535 0.521108 -3.43773 0
M  V30 1219 H 114.858 -0.142141 -3.99547 0
M  V30 1220 H 116.298 0.885693 -4.14646 0
M  V30 1221 C 114.757 1.70442 -2.90605 0
M  V30 1222 O 115.287 2.8034 -2.87702 0
M  V30 1223 N 113.493 1.52991 -2.47067 0
M  V30 1224 H 113.04 0.635914 -2.49628 0
M  V30 1225 H 112.998 2.32311 -2.11847 0
M  V30 1226 N 116.77 1.45427 -0.607355 0
M  V30 1227 C 118.181 1.85756 -0.187535 0
M  V30 1228 C 118.532 1.5077 1.25551 0
M  V30 1229 O 117.657 0.93427 1.95193 0
M  V30 1230 C 118.252 3.37154 -0.333572 0
M  V30 1231 C 116.811 3.76387 0.0315542 0
M  V30 1232 C 115.958 2.69377 -0.658117 0
M  V30 1233 H 118.909 1.36231 -0.81405 0
M  V30 1234 H 118.93 3.78014 0.43428 0
M  V30 1235 H 118.442 3.62586 -1.38393 0
M  V30 1236 H 116.543 3.56571 1.0811 0
M  V30 1237 H 116.656 4.77731 -0.361935 0
M  V30 1238 H 115.02 2.5452 -0.0957873 0
M  V30 1239 H 115.803 2.97646 -1.7106 0
M  V30 1240 N 118.248 0.346503 1.53744 0
M  V30 1241 C 119.525 -0.304532 1.93215 0
M  V30 1242 C 119.905 -1.67993 1.27834 0
M  V30 1243 O 119.253 -2.24411 0.430352 0
M  V30 1244 C 119.463 -0.373852 3.46992 0
M  V30 1245 C 120.811 -0.62329 4.2 0
M  V30 1246 O 121.835 -0.455847 3.53271 0
M  V30 1247 O 120.694 -0.947879 5.38217 0
M  V30 1248 H 117.788 -0.178318 0.807547 0
M  V30 1249 H 120.334 0.397895 1.64969 0
M  V30 1250 H 119.106 0.591224 3.86808 0
M  V30 1251 H 118.729 -1.12294 3.81413 0
M  V30 1252 N 119.726 -1.57421 0.075193 0
M  V30 1253 C 120.689 -2.11791 -0.876203 0
M  V30 1254 C 121.689 -1.04268 -1.22412 0
M  V30 1255 O 122.879 -1.30242 -1.15684 0
M  V30 1256 C 120.011 -2.62207 -2.17854 0
M  V30 1257 H 121.204 -2.9716 -0.40444 0
M  V30 1258 H 118.757 -1.55333 -0.173557 0
M  V30 1259 H 119.492 -1.803 -2.6956 0
M  V30 1260 H 119.277 -3.40802 -1.93897 0
M  V30 1261 H 120.767 -3.04335 -2.85955 0
M  V30 1262 N 121.204 0.198386 -1.56346 0
M  V30 1263 C 122.45 0.920648 -1.80698 0
M  V30 1264 C 122.783 1.83045 -0.648697 0
M  V30 1265 O 122.058 1.91308 0.350925 0
M  V30 1266 C 122.341 1.73971 -3.15287 0
M  V30 1267 C 122.194 0.85485 -4.41602 0
M  V30 1268 C 123.513 2.71296 -3.46535 0
M  V30 1269 H 120.632 0.333261 -0.657348 0
M  V30 1270 H 123.274 0.188198 -1.89066 0
M  V30 1271 H 121.424 2.36416 -3.08285 0
M  V30 1272 H 123.096 0.245362 -4.60647 0
M  V30 1273 H 121.339 0.161398 -4.335 0
M  V30 1274 H 122.01 1.46286 -5.32264 0
M  V30 1275 H 124.486 2.18983 -3.53816 0
M  V30 1276 H 123.362 3.2569 -4.41834 0
M  V30 1277 H 123.623 3.5018 -2.69864 0
M  V30 1278 N 122.682 1.50554 0.465978 0
M  V30 1279 C 123.645 1.69233 1.54574 0
M  V30 1280 C 124.645 0.562901 1.50626 0
M  V30 1281 O 125.835 0.830016 1.53155 0
M  V30 1282 C 122.967 1.7223 2.94193 0
M  V30 1283 H 124.16 2.65571 1.39327 0
M  V30 1284 H 121.713 1.40111 0.692711 0
M  V30 1285 H 122.448 0.77603 3.14878 0
M  V30 1286 H 122.233 2.54285 2.98466 0
M  V30 1287 H 123.723 1.88618 3.72576 0
M  V30 1288 N 124.16 -0.719506 1.40217 0
M  V30 1289 C 125.123 -1.8153 1.39927 0
M  V30 1290 C 126.123 -1.58095 0.293723 0
M  V30 1291 O 127.313 -1.65209 0.552429 0
M  V30 1292 C 124.445 -3.19561 1.18716 0
M  V30 1293 H 125.638 -1.83186 2.37451 0
M  V30 1294 H 123.191 -0.924746 1.26008 0
M  V30 1295 H 123.926 -3.23557 0.219366 0
M  V30 1296 H 123.711 -3.3797 1.98793 0
M  V30 1297 H 125.201 -3.99598 1.21291 0
M  V30 1298 N 125.638 -1.25649 -0.95132 0
M  V30 1299 C 127.049 -1.09654 -1.51106 0
M  V30 1300 C 127.4 0.326615 -1.93462 0
M  V30 1301 O 126.525 1.21697 -1.78938 0
M  V30 1302 C 127.12 -1.98437 -2.74605 0
M  V30 1303 C 125.679 -1.86618 -3.2688 0
M  V30 1304 C 124.826 -1.9239 -1.99703 0
M  V30 1305 H 127.777 -1.38887 -0.767865 0
M  V30 1306 H 127.798 -1.5263 -3.48546 0
M  V30 1307 H 127.31 -3.02009 -2.43746 0
M  V30 1308 H 125.411 -0.859421 -3.62553 0
M  V30 1309 H 125.524 -2.71607 -3.94673 0
M  V30 1310 H 123.888 -1.36317 -2.15151 0
M  V30 1311 H 124.671 -2.97573 -1.71188 0
M  V30 1312 N 127.117 1.15442 -1.07289 0
M  V30 1313 C 128.347 1.89821 -0.815576 0
M  V30 1314 C 128.755 1.7823 0.634867 0
M  V30 1315 O 128.098 1.13152 1.44715 0
M  V30 1316 C 128.16 3.40817 -1.14385 0
M  V30 1317 C 127.824 3.76193 -2.59476 0
M  V30 1318 C 128.821 3.77269 -3.57721 0
M  V30 1319 C 126.506 4.0652 -2.95037 0
M  V30 1320 C 128.5 4.08176 -4.89562 0
M  V30 1321 C 126.187 4.37092 -4.27076 0
M  V30 1322 C 127.185 4.37902 -5.24148 0
M  V30 1323 O 126.873 4.67741 -6.53815 0
M  V30 1324 H 126.605 0.608465 -0.294528 0
M  V30 1325 H 129.159 1.472 -1.43252 0
M  V30 1326 H 127.389 3.83835 -0.469865 0
M  V30 1327 H 129.078 3.96485 -0.869179 0
M  V30 1328 H 129.844 3.5394 -3.3159 0
M  V30 1329 H 125.723 4.05049 -2.20128 0
M  V30 1330 H 129.267 4.08723 -5.65324 0
M  V30 1331 H 125.164 4.59889 -4.5296 0
M  V30 1332 H 125.932 4.85509 -6.58957 0
M  V30 1333 N 128.595 0.856903 1.32268 0
M  V30 1334 C 129.835 0.467705 1.98977 0
M  V30 1335 C 130.199 -0.959231 1.66321 0
M  V30 1336 O 131.4 -1.4531 2.26138 0
M  V30 1337 C 129.671 0.70256 3.50427 0
M  V30 1338 S 131.23 0.411269 4.36868 0
M  V30 1339 H 128.048 0.175121 0.689096 0
M  V30 1340 H 130.65 1.1101 1.60925 0
M  V30 1341 H 129.354 1.74012 3.71683 0
M  V30 1342 H 128.885 0.0466707 3.93372 0
M  V30 1343 H 130.9 -0.761799 4.90317 0
M  V30 1344 N 130.073 -1.45103 0.615059 0
M  V30 1345 C 131.303 -2.06254 0.119596 0
M  V30 1346 C 131.711 -1.4591 -1.20445 0
M  V30 1347 O 131.054 -0.570384 -1.7462 0
M  V30 1348 C 131.116 -3.59396 -0.0865591 0
M  V30 1349 C 130.78 -4.42116 1.15683 0
M  V30 1350 C 131.777 -4.7662 2.07676 0
M  V30 1351 C 129.462 -4.82749 1.38775 0
M  V30 1352 C 131.456 -5.50622 3.21082 0
M  V30 1353 C 129.143 -5.56504 2.52481 0
M  V30 1354 C 130.141 -5.90358 3.43463 0
M  V30 1355 O 129.829 -6.62615 4.55189 0
M  V30 1356 H 129.561 -0.672423 0.0694512 0
M  V30 1357 H 132.115 -1.87219 0.844885 0
M  V30 1358 H 130.345 -3.76859 -0.866823 0
M  V30 1359 H 132.034 -4.02365 -0.534555 0
M  V30 1360 H 132.8 -4.4578 1.91063 0
M  V30 1361 H 128.679 -4.55829 0.688545 0
M  V30 1362 H 132.223 -5.76965 3.92119 0
M  V30 1363 H 128.12 -5.86759 2.69043 0
M  V30 1364 H 128.888 -6.81071 4.53966 0
M  V30 1365 N 131.551 -0.354651 -1.53558 0
M  V30 1366 C 132.779 0.239515 -2.05509 0
M  V30 1367 C 133.194 1.4333 -1.2289 0
M  V30 1368 O 132.551 1.80538 -0.266899 0
M  V30 1369 C 132.602 0.643719 -3.55723 0
M  V30 1370 O 132.323 -0.502602 -4.35207 0
M  V30 1371 C 133.824 1.29743 -4.23889 0
M  V30 1372 H 131.044 0.0442697 -0.669538 0
M  V30 1373 H 133.588 -0.509856 -1.98042 0
M  V30 1374 H 131.743 1.34302 -3.63376 0
M  V30 1375 H 132.157 -0.178172 -5.24197 0
M  V30 1376 H 133.631 1.53091 -5.30346 0
M  V30 1377 H 134.108 2.25441 -3.76926 0
M  V30 1378 H 134.714 0.639865 -4.20459 0
M  V30 1379 N 133.029 1.57378 -0.0835403 0
M  V30 1380 C 134.445 1.57246 0.273109 0
M  V30 1381 C 134.645 1.09385 1.69225 0
M  V30 1382 O 133.701 0.765051 2.40631 0
M  V30 1383 C 135.014 3.00614 0.0720628 0
M  V30 1384 C 136.562 3.12684 0.1407 0
M  V30 1385 C 137.037 4.57989 -0.0322094 0
M  V30 1386 N 138.528 4.63194 0.0230085 0
M  V30 1387 C 139.263 5.73335 -0.0861941 0
M  V30 1388 N 138.759 6.9235 -0.24958 0
M  V30 1389 N 140.552 5.62093 -0.0282886 0
M  V30 1390 H 132.703 1.86801 -1.0109 0
M  V30 1391 H 134.966 0.861687 -0.395222 0
M  V30 1392 H 134.672 3.39786 -0.907662 0
M  V30 1393 H 134.546 3.68193 0.81936 0
M  V30 1394 H 136.933 2.73391 1.11092 0
M  V30 1395 H 137.014 2.47719 -0.637896 0
M  V30 1396 H 136.658 4.97973 -0.999247 0
M  V30 1397 H 136.588 5.21 0.765937 0
M  V30 1398 H 139.079 3.77613 0.14722 0
M  V30 1399 H 139.392 7.72117 -0.324733 0
M  V30 1400 H 137.737 6.94415 -0.285097 0
M  V30 1401 H 140.928 4.67997 0.0981408 0
M  V30 1402 H 141.101 6.47895 -0.116845 0
M  V30 1403 N 134.507 -0.190092 1.56449 0
M  V30 1404 C 135.784 -0.935886 1.71757 0
M  V30 1405 C 136.164 -2.01173 0.639726 0
M  V30 1406 O 135.512 -2.25827 -0.348502 0
M  V30 1407 C 135.722 -1.51775 3.1427 0
M  V30 1408 C 137.07 -1.99794 3.74656 0
M  V30 1409 O 138.094 -1.61607 3.1743 0
M  V30 1410 O 136.953 -2.70079 4.751 0
M  V30 1411 H 134.047 -0.439229 0.700719 0
M  V30 1412 H 136.593 -0.179395 1.68749 0
M  V30 1413 H 135.365 -0.742505 3.84191 0
M  V30 1414 H 134.988 -2.33894 3.21527 0
M  V30 1415 N 135.985 -1.50799 -0.457987 0
M  V30 1416 C 137.396 -1.55152 -1.0385 0
M  V30 1417 C 137.747 -0.362719 -1.92818 0
M  V30 1418 O 136.872 0.522915 -2.09987 0
M  V30 1419 C 137.467 -2.81173 -1.89017 0
M  V30 1420 C 136.026 -2.88164 -2.42154 0
M  V30 1421 C 135.173 -2.49591 -1.20829 0
M  V30 1422 H 138.124 -1.56874 -0.240068 0
M  V30 1423 H 138.145 -2.63769 -2.74238 0
M  V30 1424 H 137.657 -3.67677 -1.24238 0
M  V30 1425 H 135.758 -2.06042 -3.10447 0
M  V30 1426 H 135.871 -3.91356 -2.76364 0
M  V30 1427 H 134.235 -2.02322 -1.54719 0
M  V30 1428 H 135.018 -3.38418 -0.576927 0
M  V30 1429 N 137.463 0.71206 -1.40597 0
M  V30 1430 C 138.711 1.46907 -1.38791 0
M  V30 1431 C 139.032 1.94998 0.00780391 0
M  V30 1432 O 138.302 1.70587 0.963174 0
M  V30 1433 H 136.882 0.545043 -0.51082 0
M  V30 1434 H 139.544 0.843882 -1.75683 0
M  V30 1435 H 138.64 2.34021 -2.06496 0
M  V30 1436 N 138.941 1.26152 0.944643 0
M  V30 1437 C 140.187 1.11657 1.69294 0
M  V30 1438 C 140.52 -0.339926 1.91202 0
M  V30 1439 O 139.795 -1.24994 1.49019 0
M  V30 1440 C 140.078 1.88236 3.06984 0
M  V30 1441 C 139.931 3.41772 2.92424 0
M  V30 1442 C 141.25 1.67343 4.07043 0
M  V30 1443 H 138.369 0.407004 0.614424 0
M  V30 1444 H 141.011 1.55106 1.09737 0
M  V30 1445 H 139.161 1.51308 3.57824 0
M  V30 1446 H 140.833 3.88433 2.48832 0
M  V30 1447 H 139.076 3.68974 2.28124 0
M  V30 1448 H 139.747 3.90579 3.90067 0
M  V30 1449 H 142.223 1.99509 3.65151 0
M  V30 1450 H 141.099 2.23346 5.01406 0
M  V30 1451 H 141.36 0.617158 4.37771 0
M  V30 1452 N 140.419 -1.14872 1.07899 0
M  V30 1453 C 141.835 -1.37776 0.805606 0
M  V30 1454 C 142.035 -1.92743 -0.587555 0
M  V30 1455 O 141.091 -2.13678 -1.34528 0
M  V30 1456 C 142.404 -2.34361 1.88402 0
M  V30 1457 C 143.952 -2.48012 1.90942 0
M  V30 1458 C 144.427 -3.47893 2.97883 0
M  V30 1459 N 145.918 -3.55433 2.97021 0
M  V30 1460 C 146.653 -4.32553 3.76412 0
M  V30 1461 N 146.149 -5.12959 4.65666 0
M  V30 1462 N 147.942 -4.27697 3.64735 0
M  V30 1463 H 140.093 -0.775365 1.97742 0
M  V30 1464 H 142.356 -0.403521 0.857831 0
M  V30 1465 H 142.062 -2.01098 2.88535 0
M  V30 1466 H 141.936 -3.34206 1.74889 0
M  V30 1467 H 144.323 -2.8057 0.914579 0
M  V30 1468 H 144.404 -1.48147 2.08534 0
M  V30 1469 H 144.048 -3.16069 3.97571 0
M  V30 1470 H 143.978 -4.47527 2.77538 0
M  V30 1471 H 146.469 -2.98048 2.32326 0
M  V30 1472 H 146.782 -5.69065 5.22862 0
M  V30 1473 H 145.127 -5.12245 4.69712 0
M  V30 1474 H 148.318 -3.63949 2.94378 0
M  V30 1475 H 148.491 -4.8755 4.26848 0
M  V30 1476 N 141.898 -0.863906 -1.31812 0
M  V30 1477 C 143.144 -0.481841 -1.9761 0
M  V30 1478 C 143.499 0.954048 -1.6708 0
M  V30 1479 O 142.792 1.66182 -0.953624 0
M  V30 1480 C 142.986 -0.668547 -3.51091 0
M  V30 1481 C 142.815 -2.12103 -3.96538 0
M  V30 1482 C 141.585 -2.76141 -4.23171 0
M  V30 1483 C 143.783 -3.09265 -4.10925 0
M  V30 1484 N 141.765 -4.12205 -4.54929 0
M  V30 1485 C 143.136 -4.30341 -4.46326 0
M  V30 1486 C 145.191 -3.05337 -3.93286 0
M  V30 1487 C 143.894 -5.48 -4.65928 0
M  V30 1488 C 145.92 -4.22248 -4.14078 0
M  V30 1489 C 145.282 -5.42085 -4.49804 0
M  V30 1490 H 141.381 -0.225238 -0.74886 0
M  V30 1491 H 143.965 -1.11723 -1.59455 0
M  V30 1492 H 142.136 -0.0627898 -3.88349 0
M  V30 1493 H 143.868 -0.255467 -4.03893 0
M  V30 1494 H 140.623 -2.27125 -4.15585 0
M  V30 1495 H 141.047 -4.82416 -4.74978 0
M  V30 1496 H 145.689 -2.138 -3.64759 0
M  V30 1497 H 143.407 -6.40059 -4.93305 0
M  V30 1498 H 146.993 -4.20654 -4.01922 0
M  V30 1499 H 145.873 -6.31044 -4.65567 0
M  V30 1500 N 143.376 1.44774 -0.622745 0
M  V30 1501 C 144.286 2.34433 0.0886031 0
M  V30 1502 C 145.302 1.52131 0.844529 0
M  V30 1503 O 146.478 1.84886 0.798691 0
M  V30 1504 C 143.543 3.29986 1.0635 0
M  V30 1505 C 142.604 4.28195 0.307873 0
M  V30 1506 C 141.837 5.19183 1.23633 0
M  V30 1507 O 142.06 5.13918 2.47476 0
M  V30 1508 O 140.994 5.97515 0.725189 0
M  V30 1509 H 144.82 2.96693 -0.648599 0
M  V30 1510 H 142.405 1.44408 -0.382957 0
M  V30 1511 H 144.287 3.88825 1.6246 0
M  V30 1512 H 142.962 2.70269 1.78146 0
M  V30 1513 H 141.869 3.72927 -0.296064 0
M  V30 1514 H 143.202 4.90808 -0.3699 0
M  V30 1515 N 144.854 0.36279 1.53368 0
M  V30 1516 C 146.084 -0.228281 2.05335 0
M  V30 1517 C 146.492 -1.43226 1.23625 0
M  V30 1518 O 145.835 -1.81717 0.269206 0
M  V30 1519 C 145.897 -0.688549 3.52845 0
M  V30 1520 C 145.561 0.398362 4.5526 0
M  V30 1521 C 146.558 1.24732 5.04716 0
M  V30 1522 C 144.243 0.557805 4.99193 0
M  V30 1523 C 146.237 2.2411 5.96702 0
M  V30 1524 C 143.924 1.55495 5.90986 0
M  V30 1525 C 144.922 2.39503 6.39631 0
M  V30 1526 O 144.61 3.37517 7.29615 0
M  V30 1527 H 144.342 -0.044395 0.674541 0
M  V30 1528 H 146.896 0.518668 1.98744 0
M  V30 1529 H 145.126 -1.48706 3.56964 0
M  V30 1530 H 146.815 -1.20231 3.87685 0
M  V30 1531 H 147.581 1.13532 4.71525 0
M  V30 1532 H 143.46 -0.0862959 4.60919 0
M  V30 1533 H 147.004 2.89718 6.34594 0
M  V30 1534 H 142.901 1.66744 6.23592 0
M  V30 1535 H 143.669 3.33213 7.47604 0
M  V30 1536 N 146.332 -1.57332 0.0918853 0
M  V30 1537 C 147.572 -1.96117 -0.575988 0
M  V30 1538 C 147.936 -0.972499 -1.65549 0
M  V30 1539 O 149.137 -1.24872 -2.38034 0
M  V30 1540 C 147.408 -3.39407 -1.11973 0
M  V30 1541 S 148.967 -4.00185 -1.79992 0
M  V30 1542 H 145.785 -0.685682 -0.188045 0
M  V30 1543 H 148.387 -1.94755 0.170525 0
M  V30 1544 H 147.091 -4.09131 -0.322504 0
M  V30 1545 H 146.622 -3.44358 -1.90214 0
M  V30 1546 H 148.637 -3.88728 -3.08391 0
M  V30 1547 N 147.81 0.181792 -1.56548 0
M  V30 1548 C 148.758 1.24461 -1.965 0
M  V30 1549 C 149.752 1.464 -0.852261 0
M  V30 1550 O 150.958 1.47103 -1.03733 0
M  V30 1551 H 147.333 0.418138 -0.625031 0
M  V30 1552 H 149.304 0.880714 -2.85107 0
M  V30 1553 C 148.053 2.57891 -2.33212 0
M  V30 1554 H 147.376 2.41829 -3.18369 0
M  V30 1555 H 148.816 3.3097 -2.65019 0
M  V30 1556 C 147.275 3.15871 -1.17163 0
M  V30 1557 O 147.805 3.9913 -0.453708 0
M  V30 1558 N 146.011 2.74808 -0.944936 0
M  V30 1559 H 145.558 2.07205 -1.53049 0
M  V30 1560 H 145.516 3.13939 -0.170286 0
M  V30 1561 N 149.288 1.51039 0.449983 0
M  V30 1562 C 150.218 1.74379 1.55288 0
M  V30 1563 C 151.199 0.593236 1.5942 0
M  V30 1564 O 152.384 0.834625 1.7535 0
M  V30 1565 C 149.514 1.85728 2.93466 0
M  V30 1566 C 148.468 3.01078 3.04197 0
M  V30 1567 C 147.794 2.97595 4.44231 0
M  V30 1568 C 149.094 4.41254 2.7945 0
M  V30 1569 H 150.788 2.66725 1.36008 0
M  V30 1570 H 148.334 1.2835 0.652864 0
M  V30 1571 H 150.287 2.0064 3.70569 0
M  V30 1572 H 149.011 0.900207 3.13949 0
M  V30 1573 H 147.67 2.85851 2.29531 0
M  V30 1574 H 147.318 1.99691 4.61663 0
M  V30 1575 H 147.018 3.75046 4.52343 0
M  V30 1576 H 148.542 3.14583 5.23326 0
M  V30 1577 H 149.956 4.56897 3.46292 0
M  V30 1578 H 148.353 5.20315 2.98985 0
M  V30 1579 H 149.423 4.52164 1.75144 0
M  V30 1580 N 150.766 -0.704594 1.40972 0
M  V30 1581 C 151.994 -1.49354 1.43182 0
M  V30 1582 C 152.409 -1.88768 0.0345508 0
M  V30 1583 O 151.766 -1.56184 -0.944081 0
M  V30 1584 C 151.817 -2.76187 2.33244 0
M  V30 1585 O 151.538 -2.38436 3.67532 0
M  V30 1586 C 153.039 -3.7 2.44162 0
M  V30 1587 H 150.259 -0.460559 0.487982 0
M  V30 1588 H 152.803 -0.868261 1.85153 0
M  V30 1589 H 150.958 -3.34974 1.94606 0
M  V30 1590 H 151.372 -3.20126 4.15475 0
M  V30 1591 H 152.846 -4.55803 3.11364 0
M  V30 1592 H 153.323 -4.13867 1.47006 0
M  V30 1593 H 153.929 -3.17121 2.83398 0
M  V30 1594 N 152.244 -1.26651 -0.937939 0
M  V30 1595 C 153.176 -1.04283 -2.04102 0
M  V30 1596 C 154.189 -0.00221014 -1.628 0
M  V30 1597 O 155.378 -0.242645 -1.76843 0
M  V30 1598 C 152.478 -0.557846 -3.34277 0
M  V30 1599 C 151.651 -1.66843 -4.04329 0
M  V30 1600 C 150.71 -1.18095 -5.12777 0
M  V30 1601 O 149.736 -1.87865 -5.37304 0
M  V30 1602 N 150.938 -0.0311006 -5.80492 0
M  V30 1603 H 153.703 -1.9927 -2.23856 0
M  V30 1604 H 151.264 -1.1808 -1.10764 0
M  V30 1605 H 153.256 -0.215836 -4.04124 0
M  V30 1606 H 151.826 0.298523 -3.11171 0
M  V30 1607 H 151.046 -2.18123 -3.28353 0
M  V30 1608 H 152.334 -2.41408 -4.47883 0
M  V30 1609 H 151.732 0.551486 -5.63005 0
M  V30 1610 H 150.289 0.251809 -6.51313 0
M  V30 1611 N 153.722 1.14298 -1.08507 0
M  V30 1612 C 154.962 1.87016 -0.824894 0
M  V30 1613 C 155.326 1.81099 0.637735 0
M  V30 1614 O 156.527 2.48963 1.01345 0
M  V30 1615 C 154.798 3.31584 -1.33368 0
M  V30 1616 S 156.357 4.21903 -1.20596 0
M  V30 1617 H 153.175 0.645259 -0.2986 0
M  V30 1618 H 155.777 1.37822 -1.38656 0
M  V30 1619 H 154.481 3.33439 -2.39262 0
M  V30 1620 H 154.012 3.85836 -0.767734 0
M  V30 1621 H 156.027 4.95971 -0.150891 0
M  V30 1622 N 155.201 0.870884 1.31352 0
M  V30 1623 C 156.426 0.495957 2.01383 0
M  V30 1624 C 156.851 -0.904324 1.64935 0
M  V30 1625 O 156.209 -1.59687 0.858466 0
M  V30 1626 C 156.257 0.661433 3.54482 0
M  V30 1627 O 155.361 -0.298851 4.11316 0
M  V30 1628 H 154.702 0.197158 0.634054 0
M  V30 1629 H 157.232 1.17455 1.67527 0
M  V30 1630 H 157.242 0.555072 4.04207 0
M  V30 1631 H 155.917 1.68246 3.8035 0
M  V30 1632 H 154.494 -0.147368 3.72609 0
M  V30 1633 N 156.679 -1.44442 0.630414 0
M  V30 1634 C 157.956 -1.9549 0.0655657 0
M  V30 1635 C 158.336 -1.5724 -1.40851 0
M  V30 1636 O 157.684 -0.846116 -2.12257 0
M  V30 1637 C 157.894 -3.47812 0.287691 0
M  V30 1638 C 159.242 -4.24216 0.180513 0
M  V30 1639 O 160.266 -3.55526 0.219019 0
M  V30 1640 O 159.125 -5.46434 0.0848493 0
M  V30 1641 H 156.219 -0.826688 -0.0227177 0
M  V30 1642 H 158.765 -1.54496 0.702068 0
M  V30 1643 H 157.537 -3.687 1.31056 0
M  V30 1644 H 157.16 -3.95751 -0.382984 0
M  V30 1645 N 158.157 -0.370918 -1.53173 0
M  V30 1646 C 159.12 0.460778 -2.24521 0
M  V30 1647 C 160.12 1.00536 -1.25496 0
M  V30 1648 O 161.31 0.890266 -1.49733 0
M  V30 1649 C 158.442 1.64457 -2.98608 0
M  V30 1650 H 159.635 -0.163613 -2.99453 0
M  V30 1651 H 157.188 -0.122699 -1.55818 0
M  V30 1652 H 157.923 2.30691 -2.2793 0
M  V30 1653 H 157.708 1.26099 -3.7127 0
M  V30 1654 H 159.198 2.23384 -3.5283 0
M  V30 1655 N 159.635 1.57281 -0.100228 0
M  V30 1656 C 160.545 2.17833 0.870965 0
M  V30 1657 C 161.561 1.14921 1.30649 0
M  V30 1658 O 162.737 1.47313 1.37335 0
M  V30 1659 C 159.802 2.75085 2.1102 0
M  V30 1660 C 158.863 3.9297 1.72838 0
M  V30 1661 C 158.096 4.47482 2.90854 0
M  V30 1662 O 158.319 4.00922 4.05731 0
M  V30 1663 O 157.253 5.38433 2.69023 0
M  V30 1664 H 161.079 3.0124 0.38575 0
M  V30 1665 H 158.664 1.48881 0.124397 0
M  V30 1666 H 160.546 3.11656 2.83634 0
M  V30 1667 H 159.221 1.94721 2.58584 0
M  V30 1668 H 158.128 3.61201 0.973883 0
M  V30 1669 H 159.461 4.74713 1.30033 0
M  V30 1670 N 161.113 -0.173488 1.56642 0
M  V30 1671 C 162.361 -0.888706 1.81512 0
M  V30 1672 C 162.682 -1.82875 0.676872 0
M  V30 1673 O 161.952 -1.93536 -0.303414 0
M  V30 1674 H 160.532 -0.331164 0.669582 0
M  V30 1675 H 163.194 -0.173823 1.94123 0
M  V30 1676 H 162.29 -1.46691 2.75478 0
M  V30 1677 N 162.591 -1.51276 -0.441967 0
M  V30 1678 C 163.819 -1.67516 -1.21434 0
M  V30 1679 C 164.234 -0.37055 -1.85128 0
M  V30 1680 O 163.591 0.650498 -1.70513 0
M  V30 1681 C 163.642 -2.78748 -2.30177 0
M  V30 1682 O 163.363 -4.04154 -1.69089 0
M  V30 1683 C 164.864 -3.06217 -3.20541 0
M  V30 1684 H 162.084 -0.562276 -0.366178 0
M  V30 1685 H 164.628 -1.97666 -0.524244 0
M  V30 1686 H 162.783 -2.5121 -2.94911 0
M  V30 1687 H 163.197 -4.65894 -2.40922 0
M  V30 1688 H 164.671 -3.8764 -3.92987 0
M  V30 1689 H 165.148 -2.18439 -3.81026 0
M  V30 1690 H 165.754 -3.35397 -2.61513 0
M  V30 1691 N 164.069 0.697108 -1.41344 0
M  V30 1692 C 165.032 1.79281 -1.42797 0
M  V30 1693 C 166.032 1.57607 -0.318837 0
M  V30 1694 O 167.222 1.64309 -0.578642 0
M  V30 1695 C 164.354 3.17632 -1.23785 0
M  V30 1696 H 165.547 1.79385 -2.40335 0
M  V30 1697 H 163.1 0.904582 -1.27464 0
M  V30 1698 H 163.835 3.23167 -0.270814 0
M  V30 1699 H 163.62 3.34765 -2.04144 0
M  V30 1700 H 165.11 3.97617 -1.27633 0
M  V30 1701 N 165.547 1.27147 0.931209 0
M  V30 1702 C 166.793 1.13446 1.68101 0
M  V30 1703 C 167.126 -0.319628 1.91552 0
M  V30 1704 O 166.401 -1.23407 1.50336 0
M  V30 1705 C 166.684 1.91482 3.0497 0
M  V30 1706 C 166.537 3.44855 2.88782 0
M  V30 1707 C 167.856 1.71651 4.05246 0
M  V30 1708 H 164.975 0.413498 0.610072 0
M  V30 1709 H 167.617 1.56261 1.08086 0
M  V30 1710 H 165.767 1.55095 3.56199 0
M  V30 1711 H 167.439 3.9105 2.44698 0
M  V30 1712 H 165.682 3.71373 2.24198 0
M  V30 1713 H 166.353 3.94694 3.85902 0
M  V30 1714 H 168.829 2.0337 3.63015 0
M  V30 1715 H 167.705 2.28651 4.99009 0
M  V30 1716 H 167.966 0.663555 4.37092 0
M  V30 1717 N 167.025 -1.13721 1.09112 0
M  V30 1718 C 167.988 -2.17222 0.731241 0
M  V30 1719 C 168.988 -1.59035 -0.237566 0
M  V30 1720 O 170.178 -1.74192 -0.0161704 0
M  V30 1721 C 167.31 -3.40804 0.0808443 0
M  V30 1722 H 168.503 -2.50573 1.64783 0
M  V30 1723 H 166.056 -1.28493 0.889897 0
M  V30 1724 H 166.791 -3.1304 -0.847127 0
M  V30 1725 H 166.576 -3.84306 0.777896 0
M  V30 1726 H 168.066 -4.1731 -0.155657 0
M  V30 1727 N 168.503 -0.877838 -1.30888 0
M  V30 1728 C 169.914 -0.544193 -1.78593 0
M  V30 1729 C 170.265 0.939301 -1.72254 0
M  V30 1730 O 169.39 1.7337 -1.29505 0
M  V30 1731 C 169.985 -0.98105 -3.24285 0
M  V30 1732 C 168.544 -0.698935 -3.69854 0
M  V30 1733 C 167.691 -1.168 -2.51502 0
M  V30 1734 H 170.642 -1.06278 -1.17859 0
M  V30 1735 H 170.663 -0.307009 -3.79259 0
M  V30 1736 H 170.175 -2.06079 -3.28866 0
M  V30 1737 H 168.276 0.369112 -3.70767 0
M  V30 1738 H 168.389 -1.28148 -4.61644 0
M  V30 1739 H 166.753 -0.587535 -2.47831 0
M  V30 1740 H 167.536 -2.25533 -2.58824 0
M  V30 1741 N 169.982 1.44106 -0.638065 0
M  V30 1742 C 171.393 1.85316 -0.226894 0
M  V30 1743 C 171.744 1.53399 1.22324 0
M  V30 1744 O 170.869 0.975463 1.93167 0
M  V30 1745 C 171.464 3.3637 -0.405013 0
M  V30 1746 C 170.023 3.76369 -0.0482902 0
M  V30 1747 C 169.17 2.67921 -0.715108 0
M  V30 1748 H 172.121 1.34474 -0.842764 0
M  V30 1749 H 172.142 3.7885 0.354 0
M  V30 1750 H 171.654 3.59569 -1.46053 0
M  V30 1751 H 169.755 3.58784 1.00522 0
M  V30 1752 H 169.868 4.76856 -0.463187 0
M  V30 1753 H 168.232 2.54259 -0.149753 0
M  V30 1754 H 169.015 2.93951 -1.77335 0
M  V30 1755 N 171.46 0.379036 1.52974 0
M  V30 1756 C 172.688 -0.20679 2.05864 0
M  V30 1757 C 173.103 -1.41356 1.25155 0
M  V30 1758 O 172.46 -1.8009 0.295588 0
M  V30 1759 C 172.511 -0.587045 3.56702 0
M  V30 1760 O 172.232 0.571776 4.34353 0
M  V30 1761 C 173.733 -1.22983 4.25899 0
M  V30 1762 H 170.953 -0.0336123 0.670158 0
M  V30 1763 H 173.497 0.541298 1.97206 0
M  V30 1764 H 171.652 -1.28504 3.65466 0
M  V30 1765 H 172.066 0.261544 5.23847 0
M  V30 1766 H 173.54 -1.44635 5.32715 0
M  V30 1767 H 174.017 -2.19416 3.80465 0
M  V30 1768 H 174.623 -0.572892 4.21424 0
M  V30 1769 N 172.938 -1.57226 0.108567 0
M  V30 1770 C 174.184 -1.95121 -0.552761 0
M  V30 1771 C 174.517 -0.991345 -1.66991 0
M  V30 1772 O 173.792 -0.0267211 -1.94482 0
M  V30 1773 C 174.075 -3.43039 -1.09528 0
M  V30 1774 C 173.928 -4.49797 0.0177332 0
M  V30 1775 C 175.247 -3.92567 -1.98945 0
M  V30 1776 H 172.366 -0.709496 -0.199461 0
M  V30 1777 H 175.008 -1.89126 0.182011 0
M  V30 1778 H 173.158 -3.48279 -1.72146 0
M  V30 1779 H 174.83 -4.56661 0.652584 0
M  V30 1780 H 173.073 -4.284 0.682309 0
M  V30 1781 H 173.744 -5.50528 -0.402919 0
M  V30 1782 H 176.22 -3.89565 -1.46214 0
M  V30 1783 H 175.096 -4.96605 -2.33827 0
M  V30 1784 H 175.357 -3.32648 -2.91201 0
M  V30 1785 N 174.416 0.165178 -1.56732 0
M  V30 1786 C 175.644 0.896218 -1.86482 0
M  V30 1787 C 176.059 1.75555 -0.694675 0
M  V30 1788 O 175.416 1.79379 0.33607 0
M  V30 1789 C 175.467 1.76792 -3.1532 0
M  V30 1790 O 175.188 0.943239 -4.27825 0
M  V30 1791 C 176.689 2.6081 -3.58459 0
M  V30 1792 H 173.909 0.260064 -0.618553 0
M  V30 1793 H 176.453 0.163428 -2.03846 0
M  V30 1794 H 174.608 2.45398 -2.99764 0
M  V30 1795 H 175.022 1.53998 -5.01383 0
M  V30 1796 H 176.496 3.17579 -4.51495 0
M  V30 1797 H 176.973 3.35977 -2.82872 0
M  V30 1798 H 177.579 1.97526 -3.76648 0
M  V30 1799 N 175.894 1.51508 0.433938 0
M  V30 1800 C 177.305 1.56784 1.01369 0
M  V30 1801 C 177.656 0.393349 1.92217 0
M  V30 1802 O 176.781 -0.489441 2.10792 0
M  V30 1803 C 177.376 2.84144 1.8452 0
M  V30 1804 C 175.935 2.9198 2.37539 0
M  V30 1805 C 175.082 2.51482 1.16843 0
M  V30 1806 H 178.033 1.57236 0.215081 0
M  V30 1807 H 178.054 2.68098 2.70007 0
M  V30 1808 H 177.566 3.69607 1.18373 0
M  V30 1809 H 175.667 2.10955 3.0713 0
M  V30 1810 H 175.78 3.95704 2.70103 0
M  V30 1811 H 174.144 2.04758 1.51481 0
M  V30 1812 H 174.927 3.39293 0.523015 0
M  V30 1813 N 177.372 -0.689602 1.41712 0
M  V30 1814 C 178.618 -1.45181 1.41599 0
M  V30 1815 C 178.951 -1.94181 0.0270081 0
M  V30 1816 O 178.226 -1.6993 -0.946265 0
M  V30 1817 C 178.509 -2.65945 2.42787 0
M  V30 1818 C 178.362 -2.22672 3.90816 0
M  V30 1819 C 179.681 -3.68149 2.41151 0
M  V30 1820 H 176.8 -0.526576 0.515642 0
M  V30 1821 H 179.442 -0.784947 1.73028 0
M  V30 1822 H 177.592 -3.2284 2.16116 0
M  V30 1823 H 179.264 -1.71058 4.28412 0
M  V30 1824 H 177.507 -1.54394 4.05395 0
M  V30 1825 H 178.178 -3.0935 4.57172 0
M  V30 1826 H 180.654 -3.2094 2.64834 0
M  V30 1827 H 179.53 -4.50248 3.13955 0
M  V30 1828 H 179.791 -4.18259 1.43221 0
M  V30 1829 N 178.85 -1.27639 -0.924453 0
M  V30 1830 C 180.261 -1.12834 -1.48746 0
M  V30 1831 C 180.612 0.285505 -1.94112 0
M  V30 1832 O 179.737 1.17874 -1.81479 0
M  V30 1833 C 180.332 -2.04217 -2.70334 0
M  V30 1834 C 178.891 -1.93509 -3.22848 0
M  V30 1835 C 178.038 -1.96583 -1.95577 0
M  V30 1836 H 180.989 -1.40484 -0.738233 0
M  V30 1837 H 181.01 -1.59989 -3.4523 0
M  V30 1838 H 180.522 -3.07111 -2.37285 0
M  V30 1839 H 178.623 -0.936131 -3.60649 0
M  V30 1840 H 178.736 -2.79917 -3.88823 0
M  V30 1841 H 177.1 -1.4085 -2.12211 0
M  V30 1842 H 177.883 -3.01137 -1.64837 0
M  V30 1843 N 180.328 1.1314 -1.09713 0
M  V30 1844 C 181.553 1.88862 -0.857081 0
M  V30 1845 C 181.978 1.78729 0.586304 0
M  V30 1846 O 181.336 1.13692 1.41222 0
M  V30 1847 C 181.384 3.36325 -1.30069 0
M  V30 1848 O 180.488 4.09815 -0.461007 0
M  V30 1849 H 179.829 0.587108 -0.310162 0
M  V30 1850 H 182.359 1.43129 -1.46203 0
M  V30 1851 H 182.369 3.87157 -1.28738 0
M  V30 1852 H 181.044 3.43017 -2.35185 0
M  V30 1853 H 179.621 3.68986 -0.538888 0
M  V30 1854 N 181.806 0.884767 1.30421 0
M  V30 1855 C 182.736 0.367574 2.30589 0
M  V30 1856 C 183.717 -0.549464 1.60981 0
M  V30 1857 O 184.902 -0.46336 1.88591 0
M  V30 1858 C 182.032 -0.418944 3.44764 0
M  V30 1859 C 180.986 0.406316 4.26067 0
M  V30 1860 C 180.312 -0.506793 5.32293 0
M  V30 1861 C 181.612 1.64832 4.95608 0
M  V30 1862 H 183.306 1.20462 2.74097 0
M  V30 1863 H 180.852 0.580695 1.31772 0
M  V30 1864 H 182.805 -0.791395 4.13902 0
M  V30 1865 H 181.529 -1.28964 3.0006 0
M  V30 1866 H 180.188 0.760903 3.58617 0
M  V30 1867 H 179.836 -1.37519 4.83836 0
M  V30 1868 H 179.536 0.0415828 5.87585 0
M  V30 1869 H 181.06 -0.875764 6.04287 0
M  V30 1870 H 182.474 1.34646 5.57264 0
M  V30 1871 H 180.871 2.13688 5.60765 0
M  V30 1872 H 181.941 2.39284 4.21748 0
M  V30 1873 N 183.284 -1.43765 0.645699 0
M  V30 1874 C 184.194 -2.34544 -0.0512957 0
M  V30 1875 C 185.21 -1.53455 -0.82022 0
M  V30 1876 O 186.386 -1.86133 -0.769176 0
M  V30 1877 C 183.451 -3.31636 -1.01087 0
M  V30 1878 C 182.512 -4.2863 -0.239712 0
M  V30 1879 C 181.745 -5.21084 -1.15358 0
M  V30 1880 O 181.968 -5.1779 -2.39269 0
M  V30 1881 O 180.902 -5.98593 -0.630038 0
M  V30 1882 H 184.728 -2.95624 0.695718 0
M  V30 1883 H 182.313 -1.43781 0.405882 0
M  V30 1884 H 184.195 -3.9136 -1.56254 0
M  V30 1885 H 182.87 -2.73069 -1.73824 0
M  V30 1886 H 181.777 -3.72408 0.355356 0
M  V30 1887 H 183.11 -4.90157 0.447936 0
M  V30 1888 N 184.763 -0.387143 -1.52771 0
M  V30 1889 C 185.726 0.436939 -2.24997 0
M  V30 1890 C 186.726 0.991991 -1.26555 0
M  V30 1891 O 187.916 0.874335 -1.50669 0
M  V30 1892 C 185.048 1.61281 -3.00335 0
M  V30 1893 H 186.241 -0.195365 -2.99263 0
M  V30 1894 H 183.794 -0.139218 -1.55679 0
M  V30 1895 H 184.529 2.2826 -2.30364 0
M  V30 1896 H 184.314 1.22154 -3.72587 0
M  V30 1897 H 185.804 2.19629 -3.5518 0
M  V30 1898 N 186.241 1.57166 -0.116904 0
M  V30 1899 C 187.652 1.82169 0.408809 0
M  V30 1900 C 188.003 1.03393 1.66746 0
M  V30 1901 O 187.128 0.269886 2.1471 0
M  V30 1902 C 187.723 3.30429 0.748466 0
M  V30 1903 C 186.282 3.5612 1.21882 0
M  V30 1904 C 185.429 2.76374 0.226452 0
M  V30 1905 H 188.38 1.5497 -0.342063 0
M  V30 1906 H 188.401 3.44943 1.60607 0
M  V30 1907 H 187.913 3.87737 -0.167784 0
M  V30 1908 H 186.014 3.04168 2.15204 0
M  V30 1909 H 186.127 4.64705 1.16559 0
M  V30 1910 H 184.491 2.44515 0.713063 0
M  V30 1911 H 185.274 3.3644 -0.682859 0
M  V30 1912 N 187.719 -0.156864 1.56817 0
M  V30 1913 C 188.944 -0.890331 1.87318 0
M  V30 1914 C 189.369 -1.74394 0.704855 0
M  V30 1915 O 188.727 -1.77972 -0.345786 0
M  V30 1916 C 188.775 -1.73102 3.16336 0
M  V30 1917 O 187.879 -2.83422 2.99576 0
M  V30 1918 H 187.22 -0.24857 0.615718 0
M  V30 1919 H 189.75 -0.150649 2.04045 0
M  V30 1920 H 189.76 -2.12803 3.48107 0
M  V30 1921 H 188.435 -1.10412 4.00976 0
M  V30 1922 H 187.012 -2.47199 2.7919 0
M  V30 1923 N 189.197 -1.51736 -0.425897 0
M  V30 1924 C 190.107 -1.76738 -1.54275 0
M  V30 1925 C 191.123 -0.65211 -1.61318 0
M  V30 1926 O 192.299 -0.935654 -1.78346 0
M  V30 1927 C 189.364 -1.89755 -2.90162 0
M  V30 1928 C 188.425 -3.13633 -2.93143 0
M  V30 1929 C 187.658 -3.2602 -4.22548 0
M  V30 1930 O 187.881 -2.44067 -5.15546 0
M  V30 1931 O 186.815 -4.19071 -4.32046 0
M  V30 1932 H 190.641 -2.71502 -1.36089 0
M  V30 1933 H 188.226 -1.36376 -0.610069 0
M  V30 1934 H 190.108 -2.00236 -3.70788 0
M  V30 1935 H 188.783 -0.981785 -3.08452 0
M  V30 1936 H 187.69 -3.08622 -2.11431 0
M  V30 1937 H 189.023 -4.04936 -2.798 0
M  V30 1938 N 190.675 0.682077 -1.42076 0
M  V30 1939 C 191.607 1.80755 -1.40926 0
M  V30 1940 C 192.62 1.59833 -0.309398 0
M  V30 1941 O 193.809 1.69087 -0.572014 0
M  V30 1942 C 190.909 3.17744 -1.17865 0
M  V30 1943 C 190.082 3.65578 -2.40149 0
M  V30 1944 C 189.141 4.81277 -2.12742 0
M  V30 1945 O 188.167 4.92197 -2.85887 0
M  V30 1946 N 189.369 5.69474 -1.12602 0
M  V30 1947 H 192.134 1.82229 -2.37935 0
M  V30 1948 H 189.695 0.864903 -1.36861 0
M  V30 1949 H 191.687 3.9279 -0.9746 0
M  V30 1950 H 190.257 3.11214 -0.294068 0
M  V30 1951 H 189.477 2.81291 -2.76169 0
M  V30 1952 H 190.765 3.94278 -3.21593 0
M  V30 1953 H 190.163 5.63297 -0.520899 0
M  V30 1954 H 188.72 6.44363 -0.981842 0
M  V30 1955 N 192.153 1.28127 0.917671 0
M  V30 1956 C 193.116 1.11744 2.00115 0
M  V30 1957 C 194.116 0.0583052 1.60694 0
M  V30 1958 O 195.306 0.303755 1.71531 0
M  V30 1959 C 192.438 0.704862 3.33533 0
M  V30 1960 H 193.631 2.07966 2.16079 0
M  V30 1961 H 191.184 1.11058 1.09981 0
M  V30 1962 H 191.919 -0.258299 3.2327 0
M  V30 1963 H 191.704 1.4699 3.63505 0
M  V30 1964 H 193.194 0.612768 4.1308 0
M  V30 1965 N 193.631 -1.12557 1.10312 0
M  V30 1966 C 195.042 -1.65574 0.862678 0
M  V30 1967 C 195.393 -1.86566 -0.607256 0
M  V30 1968 O 194.518 -1.59121 -1.46662 0
M  V30 1969 C 195.113 -3.00776 1.55947 0
M  V30 1970 C 193.672 -3.50748 1.36576 0
M  V30 1971 C 192.819 -2.25797 1.60968 0
M  V30 1972 H 195.77 -0.963552 1.26101 0
M  V30 1973 H 195.791 -3.67185 0.997753 0
M  V30 1974 H 195.303 -2.85465 2.62928 0
M  V30 1975 H 193.404 -3.71245 0.317531 0
M  V30 1976 H 193.517 -4.30289 2.10686 0
M  V30 1977 H 191.881 -2.32841 1.03234 0
M  V30 1978 H 192.664 -2.13043 2.69198 0
M  V30 1979 N 195.109 -0.891671 -1.2995 0
M  V30 1980 C 196.337 -0.52866 -2.00032 0
M  V30 1981 C 196.752 0.884574 -1.66795 0
M  V30 1982 O 196.109 1.5827 -0.908669 0
M  V30 1983 C 196.16 -0.701814 -3.54622 0
M  V30 1984 O 195.881 -2.05942 -3.86678 0
M  V30 1985 C 197.382 -0.342683 -4.41973 0
M  V30 1986 H 194.602 -0.203659 -0.639347 0
M  V30 1987 H 197.146 -1.19881 -1.65677 0
M  V30 1988 H 195.301 -0.0789468 -3.8732 0
M  V30 1989 H 195.715 -2.08291 -4.81368 0
M  V30 1990 H 197.189 -0.514709 -5.49595 0
M  V30 1991 H 197.666 0.71975 -4.33262 0
M  V30 1992 H 198.272 -0.942154 -4.14733 0
M  V30 1993 N 196.587 1.43421 -0.653314 0
M  V30 1994 C 197.497 2.34568 0.0388565 0
M  V30 1995 C 198.513 1.53888 0.81207 0
M  V30 1996 O 199.689 1.86539 0.759294 0
M  V30 1997 C 196.754 3.32167 0.993269 0
M  V30 1998 C 195.815 4.28751 0.216977 0
M  V30 1999 C 195.048 5.21688 1.12593 0
M  V30 2000 O 195.271 5.19052 2.36519 0
M  V30 2001 O 194.205 5.98919 0.598284 0
M  V30 2002 H 198.031 2.95251 -0.711386 0
M  V30 2003 H 195.616 1.43564 -0.413502 0
M  V30 2004 H 197.498 3.92183 1.54176 0
M  V30 2005 H 196.173 2.73987 1.72374 0
M  V30 2006 H 195.08 3.72215 -0.375101 0
M  V30 2007 H 196.413 4.89913 -0.473924 0
M  V30 2008 N 198.065 0.39524 1.52563 0
M  V30 2009 C 198.997 -0.472201 2.24283 0
M  V30 2010 C 200.01 -1.02178 1.26742 0
M  V30 2011 O 201.199 -0.923097 1.52778 0
M  V30 2012 C 198.299 -1.66775 2.95024 0
M  V30 2013 C 197.472 -1.2445 4.19322 0
M  V30 2014 C 196.531 -2.30539 4.7301 0
M  V30 2015 O 195.557 -1.91702 5.35947 0
M  V30 2016 N 196.759 -3.6253 4.53379 0
M  V30 2017 H 199.524 0.142282 2.99362 0
M  V30 2018 H 197.085 0.2219 1.60372 0
M  V30 2019 H 199.077 -2.37283 3.27839 0
M  V30 2020 H 197.647 -2.18845 2.23217 0
M  V30 2021 H 196.867 -0.368069 3.92478 0
M  V30 2022 H 198.155 -0.938457 5.0007 0
M  V30 2023 H 197.553 -3.96841 4.03154 0
M  V30 2024 H 196.11 -4.29055 4.90668 0
M  V30 2025 N 199.544 -1.57102 0.125237 0
M  V30 2026 C 200.96 -1.57915 -0.231322 0
M  V30 2027 C 201.16 -1.13833 -1.66266 0
M  V30 2028 O 200.216 -0.828581 -2.38518 0
M  V30 2029 C 201.529 -3.00699 0.00766489 0
M  V30 2030 C 203.077 -3.12947 -0.0577483 0
M  V30 2031 C 203.552 -4.57742 0.153626 0
M  V30 2032 N 205.043 -4.63092 0.0998073 0
M  V30 2033 C 205.778 -5.72905 0.238174 0
M  V30 2034 N 205.274 -6.91445 0.433057 0
M  V30 2035 N 207.067 -5.6182 0.177308 0
M  V30 2036 H 199.218 -1.84055 1.06007 0
M  V30 2037 H 201.481 -0.850905 0.417929 0
M  V30 2038 H 201.187 -3.3726 0.997431 0
M  V30 2039 H 201.061 -3.70236 -0.721452 0
M  V30 2040 H 203.448 -2.7624 -1.03804 0
M  V30 2041 H 203.529 -2.4594 0.70335 0
M  V30 2042 H 203.173 -4.95149 1.13092 0
M  V30 2043 H 203.103 -5.22848 -0.627534 0
M  V30 2044 H 205.594 -3.77871 -0.047051 0
M  V30 2045 H 205.907 -7.70985 0.529332 0
M  V30 2046 H 204.252 -6.93415 0.469109 0
M  V30 2047 H 207.443 -4.68093 0.0259748 0
M  V30 2048 H 207.616 -6.47357 0.288582 0
M  V30 2049 N 201.022 0.148545 -1.56898 0
M  V30 2050 C 202.433 0.708766 -1.72723 0
M  V30 2051 C 202.784 1.81734 -0.739395 0
M  V30 2052 O 201.909 2.16194 0.0943169 0
M  V30 2053 C 202.504 1.29245 -3.13179 0
M  V30 2054 C 201.063 1.79925 -3.30611 0
M  V30 2055 C 200.21 0.687111 -2.68652 0
M  V30 2056 H 203.161 -0.0771063 -1.58513 0
M  V30 2057 H 203.182 2.16224 -3.13093 0
M  V30 2058 H 202.694 0.485382 -3.85053 0
M  V30 2059 H 200.795 2.63203 -2.63732 0
M  V30 2060 H 200.908 1.92903 -4.38549 0
M  V30 2061 H 199.272 1.11335 -2.29078 0
M  V30 2062 H 200.055 -0.108483 -3.43129 0
M  V30 2063 N 202.5 1.5196 0.417844 0
M  V30 2064 C 203.748 1.65263 1.16329 0
M  V30 2065 C 204.069 0.380634 1.91249 0
M  V30 2066 O 203.339 -0.604214 1.86349 0
M  V30 2067 H 201.919 0.60912 0.432414 0
M  V30 2068 H 204.581 1.88969 0.477162 0
M  V30 2069 H 203.677 2.4896 1.88217 0
M  V30 2070 N 203.978 -0.674533 1.42435 0
M  V30 2071 C 205.224 -1.43671 1.43131 0
M  V30 2072 C 205.557 -1.94142 0.0476021 0
M  V30 2073 O 204.832 -1.70924 -0.928188 0
M  V30 2074 C 205.115 -2.63355 2.45594 0
M  V30 2075 C 204.968 -2.18514 3.93156 0
M  V30 2076 C 206.287 -3.65571 2.45043 0
M  V30 2077 H 203.406 -0.521077 0.521198 0
M  V30 2078 H 206.048 -0.766551 1.7385 0
M  V30 2079 H 204.198 -3.2053 2.19528 0
M  V30 2080 H 205.87 -1.66504 4.30202 0
M  V30 2081 H 204.113 -1.50086 4.07009 0
M  V30 2082 H 204.784 -3.04484 4.60428 0
M  V30 2083 H 207.26 -3.18113 2.68223 0
M  V30 2084 H 206.136 -4.46893 3.18713 0
M  V30 2085 H 206.397 -4.16716 1.47649 0
M  V30 2086 N 205.456 -1.28612 -0.910864 0
M  V30 2087 C 206.388 -1.08589 -2.01844 0
M  V30 2088 C 207.401 -0.0367419 -1.62759 0
M  V30 2089 O 208.59 -0.280101 -1.76289 0
M  V30 2090 C 205.69 -0.628626 -3.33019 0
M  V30 2091 C 204.863 -1.75382 -4.00699 0
M  V30 2092 C 203.922 -1.28945 -5.10156 0
M  V30 2093 O 202.948 -1.9922 -5.33198 0
M  V30 2094 N 204.15 -0.154224 -5.80295 0
M  V30 2095 H 206.915 -2.03973 -2.19579 0
M  V30 2096 H 204.476 -1.20403 -1.08234 0
M  V30 2097 H 206.468 -0.301508 -4.03575 0
M  V30 2098 H 205.038 0.232451 -3.11735 0
M  V30 2099 H 204.258 -2.25039 -3.23653 0
M  V30 2100 H 205.546 -2.50854 -4.42662 0
M  V30 2101 H 204.944 0.43194 -5.64049 0
M  V30 2102 H 203.501 0.113599 -6.51701 0
M  V30 2103 N 206.934 1.1197 -1.10907 0
M  V30 2104 C 207.844 2.21433 -0.774896 0
M  V30 2105 C 208.86 1.72478 0.229657 0
M  V30 2106 O 210.036 2.01288 0.0672008 0
M  V30 2107 C 207.101 3.4602 -0.216986 0
M  V30 2108 C 206.162 4.09791 -1.27944 0
M  V30 2109 C 205.395 5.28431 -0.748055 0
M  V30 2110 O 205.618 5.68823 0.423833 0
M  V30 2111 O 204.552 5.82644 -1.51027 0
M  V30 2112 H 208.378 2.5242 -1.68873 0
M  V30 2113 H 205.963 1.20399 -0.884555 0
M  V30 2114 H 207.845 4.21304 0.090059 0
M  V30 2115 H 206.52 3.16698 0.669633 0
M  V30 2116 H 205.427 3.36265 -1.63941 0
M  V30 2117 H 206.76 4.4328 -2.13925 0
M  V30 2118 N 208.412 0.89855 1.29475 0
M  V30 2119 C 209.652 0.530771 1.97388 0
M  V30 2120 C 210.016 -0.905832 1.69289 0
M  V30 2121 O 211.217 -1.38042 2.30646 0
M  V30 2122 C 209.488 0.81369 3.48014 0
M  V30 2123 S 211.047 0.550048 4.35339 0
M  V30 2124 H 207.865 0.196956 0.683176 0
M  V30 2125 H 210.467 1.16074 1.57312 0
M  V30 2126 H 209.171 1.85749 3.65958 0
M  V30 2127 H 208.702 0.171795 3.93025 0
M  V30 2128 H 210.717 -0.605423 4.92493 0
M  V30 2129 N 209.89 -1.43072 0.660911 0
M  V30 2130 C 211.12 -2.05769 0.185153 0
M  V30 2131 C 211.528 -1.49668 -1.15742 0
M  V30 2132 O 210.871 -0.625649 -1.72717 0
M  V30 2133 C 210.933 -3.59489 0.0278237 0
M  V30 2134 C 210.597 -4.38212 1.2969 0
M  V30 2135 C 211.594 -4.69772 2.22734 0
M  V30 2136 C 209.279 -4.7809 1.54063 0
M  V30 2137 C 211.273 -5.40129 3.38437 0
M  V30 2138 C 208.96 -5.4819 2.70058 0
M  V30 2139 C 209.958 -5.79132 3.62071 0
M  V30 2140 O 209.646 -6.47798 4.76039 0
M  V30 2141 H 209.378 -0.669873 0.0908086 0
M  V30 2142 H 211.932 -1.84436 0.90402 0
M  V30 2143 H 210.162 -3.79426 -0.746489 0
M  V30 2144 H 211.851 -4.03862 -0.406275 0
M  V30 2145 H 212.617 -4.39476 2.05149 0
M  V30 2146 H 208.496 -4.53408 0.833215 0
M  V30 2147 H 212.04 -5.64198 4.10277 0
M  V30 2148 H 207.937 -5.77902 2.87574 0
M  V30 2149 H 208.705 -6.66283 4.75404 0
M  V30 2150 N 211.368 -0.403325 -1.52352 0
M  V30 2151 C 212.318 0.442244 -2.2367 0
M  V30 2152 C 213.302 1.01823 -1.24583 0
M  V30 2153 O 214.494 0.942005 -1.49851 0
M  V30 2154 C 211.623 1.5615 -3.05732 0
M  V30 2155 C 210.709 0.996575 -4.12225 0
M  V30 2156 N 211.1 0.157804 -5.05554 0
M  V30 2157 C 209.398 1.26767 -4.27605 0
M  V30 2158 C 210.099 -0.155853 -5.81491 0
M  V30 2159 N 209.075 0.451775 -5.41719 0
M  V30 2160 H 212.877 -0.204964 -2.93184 0
M  V30 2161 H 210.391 -0.213418 -1.60992 0
M  V30 2162 H 212.388 2.17981 -3.55373 0
M  V30 2163 H 211.048 2.21139 -2.37755 0
M  V30 2164 H 212.059 -0.206049 -5.1749 0
M  V30 2165 H 208.736 1.91757 -3.70858 0
M  V30 2166 H 210.126 -0.836329 -6.66675 0
M  V30 2167 N 212.846 1.57033 -0.133567 0
M  V30 2168 C 214.094 1.953 0.519848 0
M  V30 2169 C 214.415 1.01866 1.66278 0
M  V30 2170 O 213.685 0.0776513 1.95746 0
M  V30 2171 H 212.265 0.721091 0.195032 0
M  V30 2172 H 214.927 1.93809 -0.205921 0
M  V30 2173 H 214.023 2.98695 0.904854 0
M  V30 2174 N 214.325 -0.140222 1.56975 0
M  V30 2175 C 215.273 -1.19207 1.99731 0
M  V30 2176 C 216.267 -1.44089 0.890777 0
M  V30 2177 O 217.473 -1.44301 1.07597 0
M  V30 2178 H 213.848 -0.40142 0.635898 0
M  V30 2179 H 215.819 -0.804813 2.87342 0
M  V30 2180 C 214.568 -2.51617 2.39967 0
M  V30 2181 H 213.891 -2.33303 3.24669 0
M  V30 2182 H 215.331 -3.23827 2.73701 0
M  V30 2183 C 213.79 -3.12654 1.25496 0
M  V30 2184 O 214.32 -3.97786 0.559371 0
M  V30 2185 N 212.526 -2.72206 1.01746 0
M  V30 2186 H 212.073 -2.03074 1.58489 0
M  V30 2187 H 212.031 -3.13377 0.253461 0
M  V30 2188 N 215.803 -1.52179 -0.40978 0
M  V30 2189 C 217.051 -1.65878 -1.15451 0
M  V30 2190 C 217.372 -0.390771 -1.91044 0
M  V30 2191 O 216.642 0.594323 -1.86667 0
M  V30 2192 H 215.222 -0.611405 -0.429177 0
M  V30 2193 H 217.884 -1.89219 -0.467134 0
M  V30 2194 H 216.98 -2.49954 -1.86894 0
M  V30 2195 N 217.281 0.66697 -1.42791 0
M  V30 2196 C 218.213 1.7925 -1.42836 0
M  V30 2197 C 219.226 1.59496 -0.326333 0
M  V30 2198 O 220.415 1.6847 -0.589916 0
M  V30 2199 C 217.515 3.16476 -1.21229 0
M  V30 2200 C 216.688 3.63011 -2.44013 0
M  V30 2201 C 215.747 4.78993 -2.17834 0
M  V30 2202 O 214.773 4.89137 -2.91091 0
M  V30 2203 N 215.975 5.68248 -1.18635 0
M  V30 2204 H 218.74 1.79695 -2.39854 0
M  V30 2205 H 216.301 0.850338 -1.37771 0
M  V30 2206 H 218.293 3.91734 -1.01621 0
M  V30 2207 H 216.863 3.10884 -0.32706 0
M  V30 2208 H 216.083 2.78346 -2.79137 0
M  V30 2209 H 217.371 3.90845 -3.25757 0
M  V30 2210 H 216.769 5.62712 -0.580615 0
M  V30 2211 H 215.326 6.43285 -1.05013 0
M  V30 2212 N 218.759 1.29093 0.90403 0
M  V30 2213 C 219.984 1.19809 1.69294 0
M  V30 2214 C 220.409 -0.238481 1.86582 0
M  V30 2215 O 219.767 -1.1723 1.383 0
M  V30 2216 C 219.815 1.91202 3.05736 0
M  V30 2217 O 218.919 1.22611 3.93752 0
M  V30 2218 H 218.26 0.415385 0.518027 0
M  V30 2219 H 220.79 1.70586 1.12967 0
M  V30 2220 H 220.8 1.99487 3.55906 0
M  V30 2221 H 219.475 2.95692 2.92471 0
M  V30 2222 H 218.052 1.22554 3.52186 0
M  V30 2223 N 220.237 -1.11381 1.11499 0
M  V30 2224 C 221.467 -1.86663 0.885464 0
M  V30 2225 C 221.875 -1.80464 -0.568281 0
M  V30 2226 O 221.218 -1.18445 -1.40415 0
M  V30 2227 C 221.28 -3.36337 1.26956 0
M  V30 2228 C 220.944 -3.66304 2.73259 0
M  V30 2229 C 221.941 -3.63733 3.71476 0
M  V30 2230 C 219.626 -3.9529 3.09921 0
M  V30 2231 C 221.62 -3.89725 5.04374 0
M  V30 2232 C 219.307 -4.20941 4.43004 0
M  V30 2233 C 220.305 -4.18147 5.40039 0
M  V30 2234 O 219.993 -4.43153 6.70724 0
M  V30 2235 H 219.725 -0.597114 0.316908 0
M  V30 2236 H 222.279 -1.41782 1.48617 0
M  V30 2237 H 220.509 -3.81826 0.611999 0
M  V30 2238 H 222.198 -3.92986 1.01573 0
M  V30 2239 H 222.964 -3.41389 3.44498 0
M  V30 2240 H 218.843 -3.966 2.35009 0
M  V30 2241 H 222.387 -3.8746 5.80104 0
M  V30 2242 H 218.284 -4.42761 4.69716 0
M  V30 2243 H 219.052 -4.60717 6.76522 0
M  V30 2244 N 221.715 -0.905404 -1.28997 0
M  V30 2245 C 223.131 -0.60233 -1.47798 0
M  V30 2246 C 223.331 0.854645 -1.82478 0
M  V30 2247 O 222.387 1.63439 -1.92468 0
M  V30 2248 C 223.7 -1.53306 -2.58685 0
M  V30 2249 C 225.248 -1.53887 -2.72558 0
M  V30 2250 C 225.723 -2.45602 -3.86579 0
M  V30 2251 N 227.214 -2.43681 -3.93921 0
M  V30 2252 C 227.949 -3.11347 -4.81509 0
M  V30 2253 N 227.445 -3.88313 -5.73746 0
M  V30 2254 N 229.238 -3.00476 -4.75048 0
M  V30 2255 H 221.389 -1.84765 -1.04764 0
M  V30 2256 H 223.652 -0.792025 -0.520961 0
M  V30 2257 H 223.358 -2.57141 -2.39941 0
M  V30 2258 H 223.232 -1.25787 -3.55609 0
M  V30 2259 H 225.619 -0.507941 -2.90696 0
M  V30 2260 H 225.7 -1.85447 -1.76191 0
M  V30 2261 H 225.344 -3.48792 -3.69197 0
M  V30 2262 H 225.274 -2.11349 -4.82327 0
M  V30 2263 H 227.765 -1.87767 -3.27951 0
M  V30 2264 H 228.078 -4.36985 -6.37389 0
M  V30 2265 H 226.423 -3.92419 -5.73614 0
M  V30 2266 H 229.614 -2.39858 -4.01977 0
M  V30 2267 H 229.787 -3.53485 -5.43095 0
M  V30 2268 N 223.193 1.4272 -0.668489 0
M  V30 2269 C 224.441 2.01226 -0.187769 0
M  V30 2270 C 224.762 1.53092 1.2078 0
M  V30 2271 O 224.032 0.74993 1.80977 0
M  V30 2272 H 222.612 0.744041 -0.0664272 0
M  V30 2273 H 225.274 1.74723 -0.863583 0
M  V30 2274 H 224.37 3.11556 -0.184166 0
M  V30 2275 N 224.671 0.411399 1.52136 0
M  V30 2276 C 225.899 -0.163076 2.06256 0
M  V30 2277 C 226.314 -1.3867 1.28125 0
M  V30 2278 O 225.671 -1.79423 0.333721 0
M  V30 2279 C 225.722 -0.511252 3.57867 0
M  V30 2280 O 225.443 0.66378 4.33042 0
M  V30 2281 C 226.944 -1.13921 4.28412 0
M  V30 2282 H 224.164 -0.0193897 0.67072 0
M  V30 2283 H 226.708 0.583007 1.96013 0
M  V30 2284 H 224.863 -1.20723 3.6811 0
M  V30 2285 H 225.277 0.372601 5.23175 0
M  V30 2286 H 226.751 -1.33302 5.35663 0
M  V30 2287 H 227.228 -2.11296 3.85033 0
M  V30 2288 H 227.834 -0.483373 4.22544 0
M  V30 2289 N 226.149 -1.5696 0.141893 0
M  V30 2290 C 227.379 -2.00031 -0.516828 0
M  V30 2291 C 227.787 -1.02091 -1.59293 0
M  V30 2292 O 227.13 -0.00909657 -1.83698 0
M  V30 2293 C 227.192 -3.39534 -1.1814 0
M  V30 2294 C 226.856 -4.56313 -0.250513 0
M  V30 2295 C 227.853 -5.17295 0.519839 0
M  V30 2296 C 225.538 -5.02061 -0.154907 0
M  V30 2297 C 227.532 -6.2243 1.3733 0
M  V30 2298 C 225.219 -6.07053 0.702161 0
M  V30 2299 C 226.217 -6.67106 1.46487 0
M  V30 2300 O 225.905 -7.70066 2.30767 0
M  V30 2301 H 225.637 -0.661451 -0.139493 0
M  V30 2302 H 228.191 -2.04086 0.231926 0
M  V30 2303 H 226.421 -3.32302 -1.97769 0
M  V30 2304 H 228.11 -3.66745 -1.73933 0
M  V30 2305 H 228.876 -4.82852 0.45598 0
M  V30 2306 H 224.755 -4.5505 -0.7383 0
M  V30 2307 H 228.299 -6.69233 1.96909 0
M  V30 2308 H 224.196 -6.40923 0.76733 0
M  V30 2309 H 224.964 -7.87264 2.23959 0
M  V30 2310 N 227.627 0.131896 -1.57047 0
M  V30 2311 C 228.852 0.860418 -1.8871 0
M  V30 2312 C 229.277 1.73251 -0.73251 0
M  V30 2313 O 228.635 1.785 0.317429 0
M  V30 2314 C 228.683 1.68047 -3.19049 0
M  V30 2315 O 227.787 2.7862 -3.04047 0
M  V30 2316 H 227.128 0.238743 -0.619595 0
M  V30 2317 H 229.658 0.118169 -2.04258 0
M  V30 2318 H 229.668 2.07238 -3.51449 0
M  V30 2319 H 228.343 1.04018 -4.02682 0
M  V30 2320 H 226.92 2.42726 -2.83088 0
M  V30 2321 N 229.106 1.52395 0.401703 0
M  V30 2322 C 230.334 1.70676 1.16949 0
M  V30 2323 C 230.749 0.419503 1.8408 0
M  V30 2324 O 230.106 -0.605061 1.72178 0
M  V30 2325 C 230.157 2.84753 2.22706 0
M  V30 2326 O 229.878 4.08495 1.58314 0
M  V30 2327 C 231.379 3.14608 3.12309 0
M  V30 2328 H 228.599 0.571787 0.351142 0
M  V30 2329 H 231.143 1.98987 0.471652 0
M  V30 2330 H 229.298 2.58941 2.88147 0
M  V30 2331 H 229.712 4.72117 2.28485 0
M  V30 2332 H 231.186 3.97923 3.82572 0
M  V30 2333 H 231.663 2.28464 3.75101 0
M  V30 2334 H 232.269 3.42212 2.52529 0
M  V30 2335 N 230.584 -0.659388 1.43143 0
M  V30 2336 C 231.812 -1.44723 1.47861 0
M  V30 2337 C 232.227 -1.88563 0.0945886 0
M  V30 2338 O 231.584 -1.59108 -0.893915 0
M  V30 2339 C 231.635 -2.68627 2.41913 0
M  V30 2340 O 231.356 -2.26623 3.74932 0
M  V30 2341 C 232.857 -3.62045 2.55809 0
M  V30 2342 H 230.077 -0.444801 0.502387 0
M  V30 2343 H 232.621 -0.808916 1.87821 0
M  V30 2344 H 230.776 -3.28613 2.05164 0
M  V30 2345 H 231.19 -3.06745 4.2545 0
M  V30 2346 H 232.664 -4.45666 3.25708 0
M  V30 2347 H 233.141 -4.08981 1.60099 0
M  V30 2348 H 233.747 -3.07944 2.93344 0
M  V30 2349 N 232.062 -1.29571 -0.897171 0
M  V30 2350 C 233.308 -1.17863 -1.65034 0
M  V30 2351 C 233.641 0.268729 -1.92332 0
M  V30 2352 O 232.916 1.19378 -1.53555 0
M  V30 2353 C 233.199 -1.995 -2.99786 0
M  V30 2354 C 233.052 -3.5239 -2.79538 0
M  V30 2355 C 234.371 -1.82335 -4.00552 0
M  V30 2356 H 231.49 -0.429528 -0.598895 0
M  V30 2357 H 234.132 -1.59072 -1.03905 0
M  V30 2358 H 232.282 -1.64485 -3.51962 0
M  V30 2359 H 233.954 -3.97401 -2.34244 0
M  V30 2360 H 232.197 -3.77187 -2.14273 0
M  V30 2361 H 232.868 -4.04787 -3.75302 0
M  V30 2362 H 235.344 -2.12924 -3.57495 0
M  V30 2363 H 234.22 -2.41801 -4.92771 0
M  V30 2364 H 234.481 -0.779209 -4.35179 0
M  V30 2365 N 233.54 1.10788 -1.12088 0
M  V30 2366 C 234.768 1.86461 -0.896651 0
M  V30 2367 C 235.183 1.80492 0.553912 0
M  V30 2368 O 234.54 1.19102 1.38278 0
M  V30 2369 C 234.591 3.35006 -1.35843 0
M  V30 2370 O 234.312 3.40866 -2.75213 0
M  V30 2371 C 235.813 4.27565 -1.1706 0
M  V30 2372 H 233.033 0.589425 -0.320654 0
M  V30 2373 H 235.577 1.40076 -1.48993 0
M  V30 2374 H 233.732 3.7887 -0.808458 0
M  V30 2375 H 234.146 4.33411 -2.9539 0
M  V30 2376 H 235.62 5.30007 -1.54263 0
M  V30 2377 H 236.097 4.3906 -0.110814 0
M  V30 2378 H 236.703 3.89501 -1.70789 0
M  V30 2379 N 235.018 0.912232 1.28515 0
M  V30 2380 C 236.266 0.543523 1.94654 0
M  V30 2381 C 236.587 -0.9155 1.72173 0
M  V30 2382 O 235.857 -1.64708 1.06058 0
M  V30 2383 H 234.437 0.198017 0.720277 0
M  V30 2384 H 237.099 1.16126 1.56527 0
M  V30 2385 H 236.195 0.736684 3.03281 0
M  V30 2386 N 236.496 -1.42363 0.676048 0
M  V30 2387 C 237.912 -1.55811 0.345718 0
M  V30 2388 C 238.112 -1.65544 -1.14879 0
M  V30 2389 O 237.168 -1.62306 -1.93424 0
M  V30 2390 C 238.481 -2.80746 1.07713 0
M  V30 2391 C 240.029 -2.9452 1.05958 0
M  V30 2392 C 240.504 -4.22318 1.77233 0
M  V30 2393 N 241.995 -4.29233 1.74108 0
M  V30 2394 C 242.73 -5.26935 2.26113 0
M  V30 2395 N 242.226 -6.30783 2.86505 0
M  V30 2396 N 244.019 -5.18741 2.1648 0
M  V30 2397 H 236.17 -1.34289 1.6456 0
M  V30 2398 H 238.433 -0.646506 0.69335 0
M  V30 2399 H 238.139 -2.79696 2.13221 0
M  V30 2400 H 238.013 -3.71676 0.64316 0
M  V30 2401 H 240.4 -2.95097 0.0128255 0
M  V30 2402 H 240.481 -2.04817 1.53244 0
M  V30 2403 H 240.125 -4.22502 2.81877 0
M  V30 2404 H 240.055 -5.10958 1.27396 0
M  V30 2405 H 242.546 -3.54814 1.30059 0
M  V30 2406 H 242.859 -7.01691 3.23805 0
M  V30 2407 H 241.204 -6.31341 2.90575 0
M  V30 2408 H 244.395 -4.36533 1.68987 0
M  V30 2409 H 244.568 -5.94721 2.57316 0
M  V30 2410 N 237.974 -0.419461 -1.51915 0
M  V30 2411 C 239.202 0.152136 -2.0634 0
M  V30 2412 C 239.617 1.37988 -1.28859 0
M  V30 2413 O 238.974 1.79243 -0.343232 0
M  V30 2414 C 239.025 0.492266 -3.58133 0
M  V30 2415 O 238.746 -0.686736 -4.32684 0
M  V30 2416 C 240.247 1.11648 -4.2901 0
M  V30 2417 H 237.467 0.0158325 -0.670813 0
M  V30 2418 H 240.011 -0.593394 -1.95702 0
M  V30 2419 H 238.166 1.18769 -3.68745 0
M  V30 2420 H 238.58 -0.400341 -5.2297 0
M  V30 2421 H 240.054 1.3046 -5.36362 0
M  V30 2422 H 240.531 2.09251 -3.86148 0
M  V30 2423 H 241.137 0.460958 -4.22795 0
M  V30 2424 N 239.452 1.56882 -0.150215 0
M  V30 2425 C 240.692 1.98119 0.502804 0
M  V30 2426 C 241.056 1.03327 1.61826 0
M  V30 2427 O 242.257 1.33621 2.33236 0
M  V30 2428 C 240.528 3.43329 0.992988 0
M  V30 2429 S 242.087 4.0659 1.65015 0
M  V30 2430 H 238.905 0.692189 0.162467 0
M  V30 2431 H 241.507 1.93988 -0.242689 0
M  V30 2432 H 240.211 4.10046 0.170436 0
M  V30 2433 H 239.742 3.5118 1.77303 0
M  V30 2434 H 241.757 3.99906 2.93752 0
M  V30 2435 N 240.93 -0.123565 1.57115 0
M  V30 2436 C 241.862 -1.17739 1.96648 0
M  V30 2437 C 242.875 -1.37906 0.865201 0
M  V30 2438 O 244.064 -1.37062 1.14351 0
M  V30 2439 C 241.164 -2.53821 2.24562 0
M  V30 2440 C 240.337 -2.54317 3.55867 0
M  V30 2441 C 239.396 -3.72112 3.72047 0
M  V30 2442 O 238.422 -3.55907 4.44206 0
M  V30 2443 N 239.624 -4.90498 3.10471 0
M  V30 2444 H 242.389 -0.841147 2.87654 0
M  V30 2445 H 239.95 -0.31289 1.58848 0
M  V30 2446 H 241.942 -3.31175 2.32606 0
M  V30 2447 H 240.512 -2.79645 1.39705 0
M  V30 2448 H 239.732 -1.62711 3.59053 0
M  V30 2449 H 241.02 -2.51701 4.42181 0
M  V30 2450 H 240.418 -5.06567 2.51806 0
M  V30 2451 H 238.975 -5.65544 3.24043 0
M  V30 2452 N 242.408 -1.52605 -0.393616 0
M  V30 2453 C 243.371 -1.76415 -1.46323 0
M  V30 2454 C 244.371 -0.634126 -1.47768 0
M  V30 2455 O 245.561 -0.902142 -1.4902 0
M  V30 2456 C 242.693 -1.8607 -2.85641 0
M  V30 2457 H 243.886 -2.71916 -1.26498 0
M  V30 2458 H 241.439 -1.43257 -0.625073 0
M  V30 2459 H 242.174 -0.925378 -3.10817 0
M  V30 2460 H 241.959 -2.68235 -2.85993 0
M  V30 2461 H 243.449 -2.06179 -3.63153 0
M  V30 2462 N 243.887 0.651787 -1.4349 0
M  V30 2463 C 245.133 1.4121 -1.46395 0
M  V30 2464 C 245.488 1.92202 -0.087366 0
M  V30 2465 O 244.781 1.69452 0.894231 0
M  V30 2466 C 244.975 2.60914 -2.44251 0
M  V30 2467 C 244.804 2.21639 -3.91288 0
M  V30 2468 C 243.574 2.09897 -4.59643 0
M  V30 2469 C 245.772 1.81835 -4.81083 0
M  V30 2470 N 243.754 1.63967 -5.91598 0
M  V30 2471 C 245.125 1.46998 -6.02322 0
M  V30 2472 C 247.18 1.69031 -4.6833 0
M  V30 2473 C 245.883 1.00638 -7.12225 0
M  V30 2474 C 247.909 1.24077 -5.78238 0
M  V30 2475 C 247.271 0.901772 -6.98604 0
M  V30 2476 H 243.37 0.512322 -0.590805 0
M  V30 2477 H 245.954 0.74989 -1.7968 0
M  V30 2478 H 244.125 3.24792 -2.1299 0
M  V30 2479 H 245.857 3.27622 -2.37584 0
M  V30 2480 H 242.612 2.297 -4.14168 0
M  V30 2481 H 243.036 1.43359 -6.61647 0
M  V30 2482 H 247.678 1.93878 -3.75727 0
M  V30 2483 H 245.396 0.745399 -8.04655 0
M  V30 2484 H 248.982 1.14657 -5.7039 0
M  V30 2485 H 247.862 0.559226 -7.82203 0
M  V30 2486 N 245.365 1.30045 0.890287 0
M  V30 2487 C 246.59 1.21598 1.68014 0
M  V30 2488 C 247.015 -0.218678 1.86825 0
M  V30 2489 O 246.373 -1.15756 1.39536 0
M  V30 2490 C 246.421 1.94434 3.03691 0
M  V30 2491 O 245.525 1.2678 3.92429 0
M  V30 2492 H 244.866 0.420856 0.513592 0
M  V30 2493 H 247.396 1.71775 1.11151 0
M  V30 2494 H 247.406 2.03251 3.5377 0
M  V30 2495 H 246.081 2.98777 2.89318 0
M  V30 2496 H 244.658 1.26282 3.50866 0
M  V30 2497 N 246.843 -1.10192 1.12674 0
M  V30 2498 C 248.068 -1.86523 0.906853 0
M  V30 2499 C 248.493 -1.80221 -0.538711 0
M  V30 2500 O 247.851 -1.17396 -1.38158 0
M  V30 2501 C 247.899 -3.32758 1.3894 0
M  V30 2502 O 247.003 -4.08449 0.5695 0
M  V30 2503 H 246.344 -0.578678 0.325619 0
M  V30 2504 H 248.874 -1.39203 1.49946 0
M  V30 2505 H 248.884 -3.83608 1.38958 0
M  V30 2506 H 247.559 -3.36661 2.44197 0
M  V30 2507 H 246.136 -3.67427 0.636528 0
M  V30 2508 N 248.321 -0.919034 -1.28029 0
M  V30 2509 C 249.254 -0.355887 -2.25408 0
M  V30 2510 C 250.232 0.542874 -1.5327 0
M  V30 2511 O 251.416 0.485338 -1.82145 0
M  V30 2512 C 248.543 0.490759 -3.35126 0
M  V30 2513 C 247.589 -0.343358 -4.25116 0
M  V30 2514 S 248.422 -1.75344 -5.05979 0
M  V30 2515 C 249.578 -0.914244 -6.19187 0
M  V30 2516 H 249.811 -1.18123 -2.72826 0
M  V30 2517 H 247.344 -0.720636 -1.36551 0
M  V30 2518 H 249.302 0.973404 -3.98792 0
M  V30 2519 H 247.963 1.29054 -2.86363 0
M  V30 2520 H 247.156 0.304266 -5.03081 0
M  V30 2521 H 246.758 -0.759851 -3.662 0
M  V30 2522 H 249.05 -0.146282 -6.77342 0
M  V30 2523 H 249.993 -1.66661 -6.88208 0
M  V30 2524 H 250.401 -0.460082 -5.62622 0
M  V30 2525 N 249.799 1.42003 -0.683588 0
M  V30 2526 C 251.027 2.05746 -0.218182 0
M  V30 2527 C 251.442 1.51396 1.12804 0
M  V30 2528 O 250.799 0.657303 1.70252 0
M  V30 2529 C 250.85 3.61171 -0.154131 0
M  V30 2530 O 250.571 4.13508 -1.44716 0
M  V30 2531 C 252.072 4.42042 0.333713 0
M  V30 2532 H 249.292 0.662888 -0.10402 0
M  V30 2533 H 251.836 1.81987 -0.9328 0
M  V30 2534 H 249.991 3.84012 0.511231 0
M  V30 2535 H 250.405 5.07453 -1.32632 0
M  V30 2536 H 251.879 5.51028 0.327423 0
M  V30 2537 H 252.356 4.17269 1.37053 0
M  V30 2538 H 252.962 4.24239 -0.300222 0
M  V30 2539 N 251.277 0.427512 1.51691 0
M  V30 2540 C 252.688 -0.0378867 1.86662 0
M  V30 2541 C 253.039 -1.42819 1.34525 0
M  V30 2542 O 252.164 -2.05037 0.692014 0
M  V30 2543 C 252.759 -0.0755266 3.38716 0
M  V30 2544 C 251.318 -0.485309 3.73258 0
M  V30 2545 C 250.465 0.328399 2.75349 0
M  V30 2546 H 253.416 0.64379 1.45055 0
M  V30 2547 H 253.437 -0.887056 3.70016 0
M  V30 2548 H 252.949 0.936487 3.76632 0
M  V30 2549 H 251.05 -1.50329 3.40928 0
M  V30 2550 H 251.163 -0.21693 4.78609 0
M  V30 2551 H 249.527 -0.211905 2.53817 0
M  V30 2552 H 250.31 1.3391 3.16106 0
M  V30 2553 N 252.755 -1.56801 0.158532 0
M  V30 2554 C 253.705 -2.13923 -0.788738 0
M  V30 2555 C 254.689 -1.07006 -1.2016 0
M  V30 2556 O 255.881 -1.33159 -1.1661 0
M  V30 2557 C 253.01 -2.77348 -2.02319 0
M  V30 2558 C 252.096 -3.91404 -1.6329 0
M  V30 2559 N 252.487 -4.9677 -0.951463 0
M  V30 2560 C 250.785 -4.02326 -1.92482 0
M  V30 2561 C 251.486 -5.76698 -0.761221 0
M  V30 2562 N 250.462 -5.27859 -1.29869 0
M  V30 2563 H 254.264 -2.92757 -0.258995 0
M  V30 2564 H 251.778 -1.62344 -0.0426055 0
M  V30 2565 H 253.775 -3.16639 -2.71192 0
M  V30 2566 H 252.435 -1.99991 -2.558 0
M  V30 2567 H 253.446 -5.14284 -0.610928 0
M  V30 2568 H 250.123 -3.36059 -2.47732 0
M  V30 2569 H 251.513 -6.71529 -0.223284 0
M  V30 2570 N 254.233 0.115231 -1.57178 0
M  V30 2571 C 255.458 0.840354 -1.89612 0
M  V30 2572 C 255.883 1.72464 -0.750845 0
M  V30 2573 O 255.241 1.78826 0.298478 0
M  V30 2574 C 255.289 1.64654 -3.20814 0
M  V30 2575 O 254.393 2.7538 -3.06985 0
M  V30 2576 H 253.734 0.232158 -0.622092 0
M  V30 2577 H 256.264 0.0964977 -2.04372 0
M  V30 2578 H 256.274 2.03499 -3.53627 0
M  V30 2579 H 254.949 0.997416 -4.03763 0
M  V30 2580 H 253.526 2.3971 -2.85646 0
M  V30 2581 N 255.711 1.52812 0.385517 0
M  V30 2582 C 256.661 1.74219 1.47078 0
M  V30 2583 C 257.645 0.59632 1.49442 0
M  V30 2584 O 258.837 0.85428 1.5502 0
M  V30 2585 C 255.966 1.9176 2.84751 0
M  V30 2586 C 255.052 3.12289 2.86943 0
M  V30 2587 N 255.443 4.34575 2.58802 0
M  V30 2588 C 253.741 3.12605 3.1811 0
M  V30 2589 C 254.442 5.162 2.68166 0
M  V30 2590 N 253.418 4.51964 3.02043 0
M  V30 2591 H 257.22 2.6639 1.24152 0
M  V30 2592 H 254.734 1.51166 0.593504 0
M  V30 2593 H 256.731 2.05218 3.62893 0
M  V30 2594 H 255.391 1.00805 3.08656 0
M  V30 2595 H 256.402 4.62649 2.32759 0
M  V30 2596 H 253.079 2.31472 3.47458 0
M  V30 2597 H 254.469 6.23689 2.49923 0
M  V30 2598 N 257.189 -0.644168 1.43834 0
M  V30 2599 C 258.414 -1.43642 1.49605 0
M  V30 2600 C 258.839 -1.8773 0.117913 0
M  V30 2601 O 258.197 -1.57938 -0.890239 0
M  V30 2602 C 258.245 -2.6416 2.45463 0
M  V30 2603 O 257.349 -3.63538 1.94714 0
M  V30 2604 H 256.69 -0.430329 0.50568 0
M  V30 2605 H 259.22 -0.787448 1.8884 0
M  V30 2606 H 259.23 -3.11864 2.63068 0
M  V30 2607 H 257.905 -2.31414 3.45572 0
M  V30 2608 H 256.482 -3.2273 1.86814 0
M  V30 2609 N 258.668 -1.30515 -0.883378 0
M  V30 2610 C 260.084 -1.08881 -1.16692 0
M  V30 2611 C 260.284 0.149409 -2.00945 0
M  V30 2612 O 259.34 0.84257 -2.38027 0
M  V30 2613 C 260.653 -2.35319 -1.87204 0
M  V30 2614 C 262.201 -2.40799 -1.99962 0
M  V30 2615 C 262.676 -3.67083 -2.73887 0
M  V30 2616 N 264.167 -3.679 -2.81432 0
M  V30 2617 C 264.902 -4.62303 -3.3921 0
M  V30 2618 N 264.398 -5.67052 -3.98025 0
M  V30 2619 N 266.191 -4.49845 -3.3704 0
M  V30 2620 H 258.342 -2.09951 -0.321633 0
M  V30 2621 H 260.605 -0.92556 -0.205043 0
M  V30 2622 H 260.311 -3.25689 -1.3274 0
M  V30 2623 H 260.185 -2.44089 -2.87577 0
M  V30 2624 H 262.572 -1.50907 -2.53597 0
M  V30 2625 H 262.653 -2.36003 -0.98673 0
M  V30 2626 H 262.297 -4.57334 -2.20925 0
M  V30 2627 H 262.227 -3.69141 -3.75556 0
M  V30 2628 H 264.718 -2.92171 -2.39676 0
M  V30 2629 H 265.031 -6.35184 -4.40183 0
M  V30 2630 H 263.376 -5.70842 -3.96439 0
M  V30 2631 H 266.567 -3.67194 -2.90321 0
M  V30 2632 H 266.74 -5.23597 -3.81772 0
M  V30 2633 N 260.146 1.09593 -1.13257 0
M  V30 2634 C 261.374 1.855 -0.916378 0
M  V30 2635 C 261.789 1.81069 0.534738 0
M  V30 2636 O 261.146 1.20562 1.37007 0
M  V30 2637 C 261.197 3.33546 -1.39388 0
M  V30 2638 O 260.918 3.37927 -2.78813 0
M  V30 2639 C 262.419 4.26299 -1.21588 0
M  V30 2640 H 259.639 0.585991 -0.326887 0
M  V30 2641 H 262.183 1.38488 -1.5047 0
M  V30 2642 H 260.338 3.77992 -0.848597 0
M  V30 2643 H 260.752 4.30254 -2.9997 0
M  V30 2644 H 262.226 5.28341 -1.59876 0
M  V30 2645 H 262.703 4.38918 -0.157376 0
M  V30 2646 H 263.309 3.87668 -1.7491 0
M  V30 2647 N 261.624 0.925811 1.2754 0
M  V30 2648 C 263.035 0.610102 1.7645 0
M  V30 2649 C 263.386 -0.874723 1.75622 0
M  V30 2650 O 262.511 -1.68444 1.35851 0
M  V30 2651 C 263.106 1.10073 3.20421 0
M  V30 2652 C 261.665 0.835723 3.67005 0
M  V30 2653 C 260.812 1.26054 2.46993 0
M  V30 2654 H 263.763 1.10579 1.13833 0
M  V30 2655 H 263.784 0.447557 3.77859 0
M  V30 2656 H 263.296 2.18143 3.20991 0
M  V30 2657 H 261.397 -0.231249 3.71882 0
M  V30 2658 H 261.51 1.45193 4.56569 0
M  V30 2659 H 259.874 0.679111 2.45479 0
M  V30 2660 H 260.657 2.34984 2.50275 0
M  V30 2661 N 263.102 -1.41638 0.69111 0
M  V30 2662 C 264.012 -2.34588 0.0233487 0
M  V30 2663 C 265.028 -1.55987 -0.770984 0
M  V30 2664 O 266.204 -1.88486 -0.709569 0
M  V30 2665 C 263.269 -3.34684 -0.904851 0
M  V30 2666 C 262.33 -4.29176 -0.103225 0
M  V30 2667 C 261.563 -5.2449 -0.987216 0
M  V30 2668 O 261.786 -5.2514 -2.22674 0
M  V30 2669 O 260.72 -6.00295 -0.439281 0
M  V30 2670 H 264.546 -2.93261 0.789416 0
M  V30 2671 H 262.131 -1.42417 0.45142 0
M  V30 2672 H 264.013 -3.96133 -1.43724 0
M  V30 2673 H 262.688 -2.78461 -1.65049 0
M  V30 2674 H 261.595 -3.71089 0.473655 0
M  V30 2675 H 262.928 -4.88484 0.60365 0
M  V30 2676 N 264.58 -0.43555 -1.51462 0
M  V30 2677 C 265.81 0.130053 -2.0619 0
M  V30 2678 C 266.218 1.37164 -1.30317 0
M  V30 2679 O 265.561 1.80225 -0.355598 0
M  V30 2680 C 265.623 0.519418 -3.55728 0
M  V30 2681 C 265.287 -0.615119 -4.52841 0
M  V30 2682 C 266.284 -1.48671 -4.9819 0
M  V30 2683 C 263.969 -0.795341 -4.95963 0
M  V30 2684 C 265.963 -2.52324 -5.8533 0
M  V30 2685 C 263.65 -1.83514 -5.82894 0
M  V30 2686 C 264.648 -2.69748 -6.27475 0
M  V30 2687 O 264.336 -3.71944 -7.1268 0
M  V30 2688 H 264.068 0.0121612 -0.675891 0
M  V30 2689 H 266.622 -0.6129 -1.96043 0
M  V30 2690 H 264.852 1.31505 -3.63653 0
M  V30 2691 H 266.541 1.01597 -3.92979 0
M  V30 2692 H 267.307 -1.359 -4.65571 0
M  V30 2693 H 263.186 -0.133713 -4.60806 0
M  V30 2694 H 266.73 -3.19665 -6.20048 0
M  V30 2695 H 262.627 -1.96306 -6.14926 0
M  V30 2696 H 263.395 -3.68503 -7.30854 0
M  V30 2697 N 266.058 1.56714 -0.166846 0
M  V30 2698 C 267.288 2.00828 0.48494 0
M  V30 2699 C 267.696 1.04612 1.57648 0
M  V30 2700 O 267.039 0.0383201 1.8366 0
M  V30 2701 C 267.101 3.4137 1.12723 0
M  V30 2702 C 266.765 4.56654 0.177886 0
M  V30 2703 C 267.762 5.16402 -0.60207 0
M  V30 2704 C 265.447 5.02244 0.0750139 0
M  V30 2705 C 267.441 6.20167 -1.47215 0
M  V30 2706 C 265.128 6.05859 -0.798649 0
M  V30 2707 C 266.126 6.64691 -1.57082 0
M  V30 2708 O 265.814 7.66297 -2.42989 0
M  V30 2709 H 265.546 0.663587 0.128953 0
M  V30 2710 H 268.1 2.03692 -0.264365 0
M  V30 2711 H 266.33 3.35406 1.92457 0
M  V30 2712 H 268.019 3.69466 1.68076 0
M  V30 2713 H 268.785 4.82065 -0.53274 0
M  V30 2714 H 264.664 4.56167 0.665812 0
M  V30 2715 H 268.208 6.66016 -2.07531 0
M  V30 2716 H 264.105 6.39621 -0.869199 0
M  V30 2717 H 264.873 7.83601 -2.36455 0
M  V30 2718 N 267.536 -0.106894 1.57237 0
M  V30 2719 C 268.947 -0.662723 1.74542 0
M  V30 2720 C 269.298 -1.7971 0.787319 0
M  V30 2721 O 268.423 -2.16368 -0.0369636 0
M  V30 2722 C 269.018 -1.20896 3.16496 0
M  V30 2723 C 267.577 -1.71096 3.35266 0
M  V30 2724 C 266.724 -0.615642 2.7038 0
M  V30 2725 H 269.675 0.119106 1.58252 0
M  V30 2726 H 269.696 -2.07847 3.18716 0
M  V30 2727 H 269.208 -0.383122 3.86204 0
M  V30 2728 H 267.309 -2.56119 2.70618 0
M  V30 2729 H 267.422 -1.81208 4.43509 0
M  V30 2730 H 265.786 -1.05222 2.31949 0
M  V30 2731 H 266.569 0.199419 3.4272 0
M  V30 2732 N 269.014 -1.53014 -0.377408 0
M  V30 2733 C 269.962 -1.7927 -1.48206 0
M  V30 2734 C 270.956 -0.661195 -1.55963 0
M  V30 2735 O 272.162 -0.843908 -1.58991 0
M  V30 2736 H 268.537 -0.567425 -0.493491 0
M  V30 2737 H 270.508 -2.71753 -1.2326 0
M  V30 2738 C 269.257 -1.98894 -2.85196 0
M  V30 2739 H 268.58 -2.85395 -2.79981 0
M  V30 2740 H 270.02 -2.21249 -3.61698 0
M  V30 2741 C 268.479 -0.764691 -3.28107 0
M  V30 2742 O 269.009 0.0523226 -4.01666 0
M  V30 2743 N 267.215 -0.591493 -2.84517 0
M  V30 2744 H 266.762 -1.25749 -2.24822 0
M  V30 2745 H 266.72 0.226253 -3.13585 0
M  V30 2746 N 270.492 0.636531 -1.44174 0
M  V30 2747 C 271.455 1.73063 -1.50273 0
M  V30 2748 C 272.455 1.56113 -0.385397 0
M  V30 2749 O 273.645 1.61707 -0.64781 0
M  V30 2750 C 270.777 3.12096 -1.37145 0
M  V30 2751 H 271.97 1.69031 -2.47727 0
M  V30 2752 H 269.523 0.849706 -1.31186 0
M  V30 2753 H 270.258 3.21728 -0.407636 0
M  V30 2754 H 270.043 3.25805 -2.18159 0
M  V30 2755 H 271.533 3.91846 -1.44382 0
M  V30 2756 N 271.97 1.30982 0.876444 0
M  V30 2757 C 273.218 1.20058 1.62575 0
M  V30 2758 C 273.539 -0.242947 1.93481 0
M  V30 2759 O 272.809 -1.1619 1.57724 0
M  V30 2760 H 271.389 0.44135 0.602677 0
M  V30 2761 H 274.051 1.64222 1.04962 0
M  V30 2762 H 273.147 1.76762 2.57219 0
M  V30 2763 N 273.449 -1.08991 1.13837 0
M  V30 2764 C 274.379 -2.17771 0.842507 0
M  V30 2765 C 275.36 -1.6892 -0.20001 0
M  V30 2766 O 276.545 -1.94113 -0.0579731 0
M  V30 2767 C 273.675 -3.4589 0.312644 0
M  V30 2768 C 272.629 -4.08099 1.28992 0
M  V30 2769 C 271.955 -5.31098 0.619623 0
M  V30 2770 C 273.255 -4.50077 2.65005 0
M  V30 2771 H 274.949 -2.42777 1.75213 0
M  V30 2772 H 272.495 -1.16682 0.843875 0
M  V30 2773 H 274.448 -4.21297 0.0933043 0
M  V30 2774 H 273.172 -3.20419 -0.632382 0
M  V30 2775 H 271.831 -3.34717 1.49533 0
M  V30 2776 H 271.479 -5.0191 -0.33102 0
M  V30 2777 H 271.179 -5.73674 1.27167 0
M  V30 2778 H 272.703 -6.09224 0.409669 0
M  V30 2779 H 274.117 -5.16688 2.48407 0
M  V30 2780 H 272.514 -5.03553 3.26427 0
M  V30 2781 H 273.584 -3.62257 3.22332 0
M  V30 2782 N 274.927 -0.932562 -1.27047 0
M  V30 2783 C 276.176 -0.571351 -1.93439 0
M  V30 2784 C 276.489 0.892467 -1.74053 0
M  V30 2785 O 277.695 1.36267 -2.34826 0
M  V30 2786 C 276.151 -0.97106 -3.46552 0
M  V30 2787 C 275.759 -2.4559 -3.74686 0
M  V30 2788 C 277.503 -0.681333 -4.18997 0
M  V30 2789 C 275.41 -2.79475 -5.21198 0
M  V30 2790 H 274.34 -0.209966 -0.724176 0
M  V30 2791 H 276.991 -1.13403 -1.44263 0
M  V30 2792 H 275.373 -0.336983 -3.94564 0
M  V30 2793 H 276.547 -3.13829 -3.37414 0
M  V30 2794 H 274.862 -2.71802 -3.15456 0
M  V30 2795 H 277.459 -0.910939 -5.26883 0
M  V30 2796 H 277.802 0.381628 -4.14547 0
M  V30 2797 H 278.335 -1.27473 -3.76823 0
M  V30 2798 H 275.074 -3.847 -5.30741 0
M  V30 2799 H 274.594 -2.1589 -5.596 0
M  V30 2800 H 276.273 -2.67478 -5.89122 0
M  V30 2801 N 276.405 1.4127 -0.698611 0
M  V30 2802 C 277.338 2.28195 0.0153898 0
M  V30 2803 C 278.316 1.42402 0.784883 0
M  V30 2804 O 279.5 1.71828 0.775067 0
M  V30 2805 C 276.627 3.22685 1.02918 0
M  V30 2806 C 275.673 4.25041 0.352501 0
M  V30 2807 S 276.506 5.27757 -0.907322 0
M  V30 2808 C 277.662 6.25812 0.104796 0
M  V30 2809 H 277.895 2.88403 -0.721858 0
M  V30 2810 H 275.428 1.46452 -0.488996 0
M  V30 2811 H 277.386 3.77655 1.60893 0
M  V30 2812 H 276.047 2.61566 1.73902 0
M  V30 2813 H 275.24 4.91437 1.11828 0
M  V30 2814 H 274.842 3.73682 -0.154254 0
M  V30 2815 H 277.134 6.70705 0.957103 0
M  V30 2816 H 278.077 7.06149 -0.525323 0
M  V30 2817 H 278.485 5.62615 0.460931 0
M  V30 2818 N 277.883 0.443576 1.51229 0
M  V30 2819 C 278.831 -0.37904 2.29491 0
M  V30 2820 C 279.825 -1.0153 1.35603 0
M  V30 2821 O 281.031 -0.94955 1.52917 0
M  V30 2822 H 277.406 -0.141053 0.738653 0
M  V30 2823 H 279.377 0.301799 2.9687 0
M  V30 2824 C 278.126 -1.46426 3.15364 0
M  V30 2825 H 277.449 -0.984037 3.87501 0
M  V30 2826 H 278.889 -2.01297 3.7317 0
M  V30 2827 C 277.348 -2.45099 2.31146 0
M  V30 2828 O 277.878 -3.49773 1.9754 0
M  V30 2829 N 276.084 -2.16139 1.94249 0
M  V30 2830 H 275.631 -1.31044 2.21777 0
M  V30 2831 H 275.589 -2.82398 1.38198 0
M  V30 2832 N 279.361 -1.56624 0.175154 0
M  V30 2833 C 280.591 -2.01082 -0.474283 0
M  V30 2834 C 280.999 -1.05447 -1.57091 0
M  V30 2835 O 280.342 -0.0480595 -1.83637 0
M  V30 2836 C 280.404 -3.41963 -1.10911 0
M  V30 2837 C 280.068 -4.56742 -0.153666 0
M  V30 2838 C 281.065 -5.16076 0.629448 0
M  V30 2839 C 278.75 -5.02277 -0.0483776 0
M  V30 2840 C 280.744 -6.19377 1.50501 0
M  V30 2841 C 278.431 -6.05427 0.830768 0
M  V30 2842 C 279.429 -6.63849 1.60605 0
M  V30 2843 O 279.117 -7.64998 2.47049 0
M  V30 2844 H 278.849 -0.664261 -0.125432 0
M  V30 2845 H 281.403 -2.03549 0.275163 0
M  V30 2846 H 279.633 -3.36422 -1.90676 0
M  V30 2847 H 281.322 -3.70352 -1.66114 0
M  V30 2848 H 282.088 -4.81776 0.558297 0
M  V30 2849 H 277.967 -4.56513 -0.641611 0
M  V30 2850 H 281.511 -6.64906 2.1106 0
M  V30 2851 H 277.408 -6.39151 0.903107 0
M  V30 2852 H 278.176 -7.82336 2.40607 0
M  V30 2853 N 280.839 0.0985539 -1.57292 0
M  V30 2854 C 282.079 0.808332 -1.87737 0
M  V30 2855 C 282.443 1.7607 -0.76572 0
M  V30 2856 O 283.644 2.51358 -0.952499 0
M  V30 2857 C 281.915 1.52093 -3.23423 0
M  V30 2858 S 283.474 2.26947 -3.75554 0
M  V30 2859 H 280.292 0.269377 -0.657995 0
M  V30 2860 H 282.894 0.0656269 -1.9539 0
M  V30 2861 H 281.598 0.81363 -4.02254 0
M  V30 2862 H 281.129 2.30361 -3.189 0
M  V30 2863 H 283.144 3.53027 -3.48692 0
M  V30 2864 N 282.317 1.53212 0.369288 0
M  V30 2865 C 283.733 1.42902 0.710712 0
M  V30 2866 C 283.933 0.565135 1.93413 0
M  V30 2867 O 282.989 0.0461484 2.52458 0
M  V30 2868 C 284.302 2.86042 0.927382 0
M  V30 2869 C 285.85 2.9565 1.02762 0
M  V30 2870 C 286.325 4.39843 1.27679 0
M  V30 2871 N 287.816 4.43256 1.34457 0
M  V30 2872 C 288.551 5.51929 1.55439 0
M  V30 2873 N 288.047 6.70655 1.73762 0
M  V30 2874 N 289.84 5.39502 1.57779 0
M  V30 2875 H 281.991 2.07888 -0.435457 0
M  V30 2876 H 284.254 0.938661 -0.132739 0
M  V30 2877 H 283.96 3.51557 0.100287 0
M  V30 2878 H 283.834 3.29472 1.83653 0
M  V30 2879 H 286.221 2.30291 1.84527 0
M  V30 2880 H 286.302 2.5562 0.0959504 0
M  V30 2881 H 285.946 5.05774 0.464175 0
M  V30 2882 H 285.876 4.77443 2.22162 0
M  V30 2883 H 288.367 3.5769 1.21926 0
M  V30 2884 H 288.68 7.49248 1.89335 0
M  V30 2885 H 287.025 6.73648 1.70948 0
M  V30 2886 H 290.216 4.45713 1.43029 0
M  V30 2887 H 290.389 6.2426 1.7379 0
M  V30 2888 N 283.795 -0.628877 1.44509 0
M  V30 2889 C 284.743 -1.76193 1.51852 0
M  V30 2890 C 285.737 -1.64849 0.390042 0
M  V30 2891 O 286.943 -1.709 0.565082 0
M  V30 2892 H 283.318 -0.581728 0.476547 0
M  V30 2893 H 285.289 -1.67123 2.47209 0
M  V30 2894 C 284.038 -3.14533 1.48204 0
M  V30 2895 H 283.361 -3.23911 2.34354 0
M  V30 2896 H 284.801 -3.93701 1.57402 0
M  V30 2897 C 283.26 -3.36287 0.203142 0
M  V30 2898 O 283.79 -3.9509 -0.725745 0
M  V30 2899 N 281.996 -2.90408 0.105563 0
M  V30 2900 H 281.543 -2.42739 0.862301 0
M  V30 2901 H 281.501 -3.05339 -0.749371 0
M  V30 2902 N 285.273 -1.31445 -0.869486 0
M  V30 2903 C 286.684 -1.19042 -1.43826 0
M  V30 2904 C 287.035 0.202919 -1.95148 0
M  V30 2905 O 286.16 1.10071 -1.86315 0
M  V30 2906 C 286.755 -2.15499 -2.6143 0
M  V30 2907 C 285.314 -2.07028 -3.14351 0
M  V30 2908 C 284.461 -2.04701 -1.87063 0
M  V30 2909 H 287.412 -1.43489 -0.677984 0
M  V30 2910 H 287.433 -1.74488 -3.38134 0
M  V30 2911 H 286.945 -3.16899 -2.24046 0
M  V30 2912 H 285.046 -1.08825 -3.56354 0
M  V30 2913 H 285.159 -2.96157 -3.766 0
M  V30 2914 H 283.523 -1.49724 -2.06046 0
M  V30 2915 H 284.306 -3.07857 -1.51917 0
M  V30 2916 N 286.751 1.08385 -1.14413 0
M  V30 2917 C 288.028 1.77429 -0.823297 0
M  V30 2918 C 288.408 1.9974 0.683163 0
M  V30 2919 O 287.756 1.60739 1.62405 0
M  V30 2920 C 287.966 3.09004 -1.62227 0
M  V30 2921 C 289.314 3.83532 -1.82177 0
M  V30 2922 O 290.338 3.18786 -1.58915 0
M  V30 2923 O 289.197 4.99792 -2.21067 0
M  V30 2924 H 286.291 0.769999 -0.301712 0
M  V30 2925 H 288.837 1.14846 -1.24934 0
M  V30 2926 H 287.609 2.88316 -2.64555 0
M  V30 2927 H 287.232 3.79316 -1.19187 0
M  V30 2928 N 288.23 0.939286 1.26551 0
M  V30 2929 C 289.193 0.451987 2.24699 0
M  V30 2930 C 290.193 -0.435869 1.5478 0
M  V30 2931 O 291.383 -0.235314 1.72603 0
M  V30 2932 C 288.515 -0.348801 3.39111 0
M  V30 2933 H 289.708 1.3193 2.69322 0
M  V30 2934 H 287.261 0.721072 1.38673 0
M  V30 2935 H 287.996 -1.23444 2.99887 0
M  V30 2936 H 287.781 0.287945 3.91041 0
M  V30 2937 H 289.271 -0.679726 4.12031 0
M  V30 2938 N 289.708 -1.40897 0.706093 0
M  V30 2939 C 290.954 -2.01352 0.241889 0
M  V30 2940 C 291.287 -1.55832 -1.15888 0
M  V30 2941 O 290.562 -0.774145 -1.7843 0
M  V30 2942 C 290.845 -3.58752 0.311311 0
M  V30 2943 C 290.698 -4.1437 1.74978 0
M  V30 2944 C 292.017 -4.38914 -0.322922 0
M  V30 2945 H 289.136 -0.731562 0.0893687 0
M  V30 2946 H 291.778 -1.67504 0.896802 0
M  V30 2947 H 289.928 -3.87718 -0.246302 0
M  V30 2948 H 291.6 -3.96239 2.36205 0
M  V30 2949 H 289.843 -3.69016 2.28057 0
M  V30 2950 H 290.514 -5.23532 1.74981 0
M  V30 2951 H 292.99 -4.15822 0.152089 0
M  V30 2952 H 291.866 -5.48358 -0.243855 0
M  V30 2953 H 292.127 -4.19176 -1.40513 0
M  V30 2954 N 291.186 -0.45159 -1.50991 0
M  V30 2955 C 292.149 0.341117 -2.26647 0
M  V30 2956 C 293.149 0.937422 -1.30649 0
M  V30 2957 O 294.339 0.809644 -1.54241 0
M  V30 2958 C 291.471 1.48398 -3.06905 0
M  V30 2959 H 292.664 -0.322117 -2.98165 0
M  V30 2960 H 290.217 -0.205122 -1.54948 0
M  V30 2961 H 290.952 2.18284 -2.39838 0
M  V30 2962 H 290.737 1.06241 -3.77432 0
M  V30 2963 H 292.227 2.04367 -3.64176 0
M  V30 2964 N 292.664 1.56529 -0.183458 0
M  V30 2965 C 293.627 2.17324 0.728223 0
M  V30 2966 C 294.627 1.12453 1.14939 0
M  V30 2967 O 295.817 1.37902 1.06437 0
M  V30 2968 C 292.949 2.76591 1.99274 0
M  V30 2969 H 294.142 2.99241 0.198772 0
M  V30 2970 H 291.695 1.5616 0.0661391 0
M  V30 2971 H 292.43 1.98441 2.56499 0
M  V30 2972 H 292.215 3.5335 1.69959 0
M  V30 2973 H 293.705 3.23311 2.6431 0
M  V30 2974 N 294.142 -0.090211 1.57342 0
M  V30 2975 C 295.553 -0.644173 1.75235 0
M  V30 2976 C 295.904 -1.78865 0.806335 0
M  V30 2977 O 295.029 -2.16395 -0.0140128 0
M  V30 2978 C 295.624 -1.17532 3.1776 0
M  V30 2979 C 294.183 -1.67531 3.37061 0
M  V30 2980 C 293.33 -0.58693 2.71017 0
M  V30 2981 H 296.281 0.135884 1.58117 0
M  V30 2982 H 296.302 -2.04455 3.20902 0
M  V30 2983 H 295.814 -0.342138 3.86589 0
M  V30 2984 H 293.915 -2.53234 2.73319 0
M  V30 2985 H 294.028 -1.76493 4.45406 0
M  V30 2986 H 292.392 -1.02756 2.33052 0
M  V30 2987 H 293.175 0.235758 3.4249 0
M  V30 2988 N 295.62 -1.53406 -0.361157 0
M  V30 2989 C 296.85 -1.73465 -1.1222 0
M  V30 2990 C 297.258 -0.465486 -1.83384 0
M  V30 2991 O 296.601 0.571611 -1.7458 0
M  V30 2992 C 296.663 -2.84834 -2.19339 0
M  V30 2993 C 296.327 -4.25038 -1.67903 0
M  V30 2994 C 297.324 -5.07231 -1.14074 0
M  V30 2995 C 295.009 -4.71464 -1.73282 0
M  V30 2996 C 297.003 -6.33942 -0.663068 0
M  V30 2997 C 294.69 -5.98153 -1.25127 0
M  V30 2998 C 295.688 -6.79223 -0.717296 0
M  V30 2999 O 295.376 -8.03533 -0.242865 0
M  V30 3000 H 295.108 -0.583526 -0.341283 0
M  V30 3001 H 297.662 -2.00964 -0.424591 0
M  V30 3002 H 295.892 -2.5282 -2.92607 0
M  V30 3003 H 297.581 -2.9303 -2.80871 0
M  V30 3004 H 298.347 -4.72534 -1.09254 0
M  V30 3005 H 294.226 -4.08432 -2.13786 0
M  V30 3006 H 297.77 -6.97167 -0.245612 0
M  V30 3007 H 293.667 -6.32347 -1.29642 0
M  V30 3008 H 294.435 -8.177 -0.361786 0
M  V30 3009 N 297.098 0.621204 -1.44841 0
M  V30 3010 C 298.338 1.39201 -1.49674 0
M  V30 3011 C 298.702 1.91561 -0.129764 0
M  V30 3012 O 299.903 2.68748 -0.0527814 0
M  V30 3013 C 298.174 2.519 -2.53537 0
M  V30 3014 S 299.733 3.39916 -2.77494 0
M  V30 3015 H 296.551 0.474758 -0.529269 0
M  V30 3016 H 299.153 0.718171 -1.81831 0
M  V30 3017 H 297.857 2.11761 -3.51547 0
M  V30 3018 H 297.388 3.241 -2.22986 0
M  V30 3019 H 299.403 4.49646 -2.0984 0
M  V30 3020 N 298.576 1.31904 0.862503 0
M  V30 3021 C 299.806 1.24817 1.64634 0
M  V30 3022 C 300.214 -0.187579 1.88268 0
M  V30 3023 O 299.557 -1.13253 1.44635 0
M  V30 3024 C 299.619 1.92996 3.03303 0
M  V30 3025 C 299.283 3.42336 3.02746 0
M  V30 3026 C 300.28 4.37956 2.80162 0
M  V30 3027 C 297.965 3.84147 3.2363 0
M  V30 3028 C 299.959 5.73361 2.78453 0
M  V30 3029 C 297.646 5.19663 3.21549 0
M  V30 3030 C 298.644 6.14081 2.98988 0
M  V30 3031 O 298.332 7.47118 2.96766 0
M  V30 3032 H 298.064 0.432222 0.519769 0
M  V30 3033 H 300.618 1.7445 1.08427 0
M  V30 3034 H 298.848 1.37922 3.61268 0
M  V30 3035 H 300.537 1.79723 3.63943 0
M  V30 3036 H 301.303 4.06981 2.63802 0
M  V30 3037 H 297.182 3.11083 3.40218 0
M  V30 3038 H 300.726 6.4703 2.60763 0
M  V30 3039 H 296.623 5.5027 3.37451 0
M  V30 3040 H 297.391 7.56382 3.12775 0
M  V30 3041 N 300.054 -1.07777 1.14986 0
M  V30 3042 C 301.282 -1.84018 0.945773 0
M  V30 3043 C 301.697 -1.81897 -0.505863 0
M  V30 3044 O 301.054 -1.22726 -1.35072 0
M  V30 3045 C 301.105 -3.31287 1.44677 0
M  V30 3046 O 300.826 -3.33449 2.84154 0
M  V30 3047 C 302.327 -4.24311 1.28355 0
M  V30 3048 H 299.547 -0.580716 0.336169 0
M  V30 3049 H 302.091 -1.36077 1.52654 0
M  V30 3050 H 300.246 -3.76594 0.908625 0
M  V30 3051 H 300.66 -4.25427 3.06777 0
M  V30 3052 H 302.134 -5.2573 1.68261 0
M  V30 3053 H 302.611 -4.38612 0.227184 0
M  V30 3054 H 303.217 -3.84836 1.81056 0
M  V30 3055 N 301.532 -0.945985 -1.26051 0
M  V30 3056 C 302.948 -0.649045 -1.45807 0
M  V30 3057 C 303.148 0.796158 -1.85104 0
M  V30 3058 O 302.204 1.57233 -1.97571 0
M  V30 3059 C 303.517 -1.61458 -2.53677 0
M  V30 3060 C 305.065 -1.62481 -2.67524 0
M  V30 3061 C 305.54 -2.57776 -3.7857 0
M  V30 3062 N 307.031 -2.5609 -3.85969 0
M  V30 3063 C 307.766 -3.26508 -4.7136 0
M  V30 3064 N 307.262 -4.0637 -5.61102 0
M  V30 3065 N 309.055 -3.15437 -4.65248 0
M  V30 3066 H 301.206 -1.88005 -0.988328 0
M  V30 3067 H 303.469 -0.808198 -0.4955 0
M  V30 3068 H 303.175 -2.64644 -2.31638 0
M  V30 3069 H 303.049 -1.37036 -3.51427 0
M  V30 3070 H 305.436 -0.600167 -2.88933 0
M  V30 3071 H 305.517 -1.90958 -1.70202 0
M  V30 3072 H 305.161 -3.60361 -3.57913 0
M  V30 3073 H 305.091 -2.26587 -4.75359 0
M  V30 3074 H 307.582 -1.98105 -3.21812 0
M  V30 3075 H 307.895 -4.57042 -6.23164 0
M  V30 3076 H 306.24 -4.10469 -5.60839 0
M  V30 3077 H 309.431 -2.52525 -3.94143 0
M  V30 3078 H 309.604 -3.70584 -5.31575 0
M  V30 3079 N 303.011 1.40521 -0.713556 0
M  V30 3080 C 304.288 1.94775 -0.17943 0
M  V30 3081 C 304.668 1.65184 1.31444 0
M  V30 3082 O 304.016 0.968429 2.06963 0
M  V30 3083 C 304.226 3.45543 -0.489986 0
M  V30 3084 C 305.574 4.22442 -0.427536 0
M  V30 3085 O 306.598 3.53644 -0.425929 0
M  V30 3086 O 305.457 5.4501 -0.403292 0
M  V30 3087 H 302.551 0.826606 -0.0255192 0
M  V30 3088 H 305.097 1.5014 -0.790949 0
M  V30 3089 H 303.869 3.60432 -1.5233 0
M  V30 3090 H 303.492 3.97311 0.151598 0
M  V30 3091 N 304.489 0.459591 1.5075 0
M  V30 3092 C 305.9 0.00171547 1.867 0
M  V30 3093 C 306.251 -1.39934 1.37525 0
M  V30 3094 O 305.376 -2.03523 0.735349 0
M  V30 3095 C 305.971 -0.00366298 3.388 0
M  V30 3096 C 304.53 -0.406026 3.74204 0
M  V30 3097 C 303.677 0.38673 2.7459 0
M  V30 3098 H 306.628 0.674413 1.43657 0
M  V30 3099 H 306.649 -0.808371 3.71814 0
M  V30 3100 H 306.161 1.01617 3.74561 0
M  V30 3101 H 304.262 -1.43063 3.4404 0
M  V30 3102 H 304.375 -0.115362 4.78961 0
M  V30 3103 H 302.739 -0.158019 2.54209 0
M  V30 3104 H 303.522 1.40585 3.13194 0
M  V30 3105 N 305.967 -1.56429 0.191757 0
M  V30 3106 C 307.215 -1.97095 -0.447006 0
M  V30 3107 C 307.536 -1.07967 -1.62383 0
M  V30 3108 O 306.806 -0.150248 -1.95323 0
M  V30 3109 H 305.386 -0.727832 -0.168135 0
M  V30 3110 H 308.048 -1.92911 0.27771 0
M  V30 3111 H 307.144 -3.01848 -0.793371 0
M  V30 3112 N 307.445 0.0818655 -1.57387 0
M  V30 3113 C 308.691 0.784074 -1.8703 0
M  V30 3114 C 309.024 1.77729 -0.782689 0
M  V30 3115 O 308.299 1.93384 0.208051 0
M  V30 3116 C 308.582 1.50105 -3.27323 0
M  V30 3117 C 308.435 0.524925 -4.46727 0
M  V30 3118 C 309.754 2.44843 -3.65705 0
M  V30 3119 H 306.873 0.283582 -0.680257 0
M  V30 3120 H 309.515 0.0474352 -1.89941 0
M  V30 3121 H 307.665 2.12897 -3.24972 0
M  V30 3122 H 309.337 -0.0970111 -4.61198 0
M  V30 3123 H 307.58 -0.160606 -4.33503 0
M  V30 3124 H 308.251 1.064 -5.41648 0
M  V30 3125 H 310.727 1.92135 -3.69085 0
M  V30 3126 H 309.603 2.92018 -4.64776 0
M  V30 3127 H 309.864 3.29197 -2.95096 0
M  V30 3128 N 308.923 1.53595 0.353017 0
M  V30 3129 C 310.339 1.43648 0.695516 0
M  V30 3130 C 310.539 0.585617 1.92802 0
M  V30 3131 O 309.595 0.0729223 2.52395 0
M  V30 3132 C 310.908 2.8701 0.896991 0
M  V30 3133 C 312.456 2.96723 0.996209 0
M  V30 3134 C 312.931 4.41173 1.23007 0
M  V30 3135 N 314.422 4.44657 1.29749 0
M  V30 3136 C 315.157 5.53547 1.49577 0
M  V30 3137 N 314.653 6.72461 1.66639 0
M  V30 3138 N 316.446 5.41145 1.52048 0
M  V30 3139 H 308.597 2.07415 -0.457481 0
M  V30 3140 H 310.86 0.9372 -0.142687 0
M  V30 3141 H 310.566 3.51644 0.0629938 0
M  V30 3142 H 310.44 3.31401 1.80148 0
M  V30 3143 H 312.827 2.32235 1.82074 0
M  V30 3144 H 312.908 2.55707 0.0688331 0
M  V30 3145 H 312.552 5.06238 0.410505 0
M  V30 3146 H 312.482 4.79772 2.17086 0
M  V30 3147 H 314.973 3.58963 1.18126 0
M  V30 3148 H 315.286 7.51214 1.81378 0
M  V30 3149 H 313.631 6.75423 1.63794 0
M  V30 3150 H 316.822 4.47205 1.38294 0
M  V30 3151 H 316.995 6.26068 1.67159 0
M  V30 3152 N 310.401 -0.613514 1.45168 0
M  V30 3153 C 311.647 -1.37279 1.50087 0
M  V30 3154 C 312.002 -1.91902 0.138294 0
M  V30 3155 O 311.295 -1.71764 -0.84899 0
M  V30 3156 C 311.489 -2.54347 2.51083 0
M  V30 3157 C 311.318 -2.11186 3.97027 0
M  V30 3158 C 310.088 -1.97636 4.65046 0
M  V30 3159 C 312.286 -1.69016 4.85735 0
M  V30 3160 N 310.268 -1.48224 5.95737 0
M  V30 3161 C 311.639 -1.30976 6.06008 0
M  V30 3162 C 313.694 -1.56555 4.72647 0
M  V30 3163 C 312.397 -0.817197 7.14643 0
M  V30 3164 C 314.423 -1.08702 5.81324 0
M  V30 3165 C 313.785 -0.716233 7.00749 0
M  V30 3166 H 309.884 -0.496478 0.60418 0
M  V30 3167 H 312.468 -0.701988 1.81605 0
M  V30 3168 H 310.639 -3.19031 2.21527 0
M  V30 3169 H 312.371 -3.21208 2.46187 0
M  V30 3170 H 309.126 -2.18638 4.20112 0
M  V30 3171 H 309.55 -1.25767 6.65216 0
M  V30 3172 H 314.192 -1.83849 3.80736 0
M  V30 3173 H 311.91 -0.531797 8.06348 0
M  V30 3174 H 315.496 -0.994943 5.7323 0
M  V30 3175 H 314.376 -0.351642 7.83411 0
M  V30 3176 N 311.879 -1.3236 -0.855495 0
M  V30 3177 C 312.789 -1.23221 -1.99634 0
M  V30 3178 C 313.805 -0.145983 -1.73387 0
M  V30 3179 O 314.981 -0.366502 -1.98037 0
M  V30 3180 C 312.046 -0.954782 -3.33294 0
M  V30 3181 C 311.107 -2.12937 -3.72769 0
M  V30 3182 C 310.34 -1.86508 -5.00051 0
M  V30 3183 O 310.563 -0.807231 -5.64659 0
M  V30 3184 O 309.497 -2.72591 -5.36636 0
M  V30 3185 H 313.323 -2.19126 -2.1028 0
M  V30 3186 H 310.908 -1.12241 -0.986018 0
M  V30 3187 H 312.79 -0.816519 -4.13414 0
M  V30 3188 H 311.465 -0.0258854 -3.2369 0
M  V30 3189 H 310.372 -2.3231 -2.93228 0
M  V30 3190 H 311.705 -3.04102 -3.87018 0
M  V30 3191 N 313.357 1.07166 -1.15556 0
M  V30 3192 C 314.587 1.83248 -0.954133 0
M  V30 3193 C 314.995 1.82449 0.500911 0
M  V30 3194 O 314.338 1.23575 1.35923 0
M  V30 3195 C 314.4 3.31393 -1.39351 0
M  V30 3196 C 314.064 3.5591 -2.86666 0
M  V30 3197 C 315.061 3.49695 -3.8472 0
M  V30 3198 C 312.746 3.83515 -3.24379 0
M  V30 3199 C 314.74 3.70737 -5.18491 0
M  V30 3200 C 312.427 4.04209 -4.58321 0
M  V30 3201 C 313.425 3.97815 -5.55186 0
M  V30 3202 O 313.113 4.17954 -6.86709 0
M  V30 3203 H 312.845 0.584941 -0.338851 0
M  V30 3204 H 315.399 1.36169 -1.53777 0
M  V30 3205 H 313.629 3.79292 -0.75329 0
M  V30 3206 H 315.318 3.88945 -1.16089 0
M  V30 3207 H 316.084 3.28368 -3.56931 0
M  V30 3208 H 311.963 3.87605 -2.49567 0
M  V30 3209 H 315.507 3.65663 -5.94085 0
M  V30 3210 H 311.404 4.25023 -4.85825 0
M  V30 3211 H 312.172 4.35291 -6.93155 0
M  V30 3212 N 314.835 0.952656 1.25548 0
M  V30 3213 C 316.075 0.614013 1.9496 0
M  V30 3214 C 316.439 -0.833215 1.72978 0
M  V30 3215 O 317.64 -1.28135 2.36294 0
M  V30 3216 C 315.911 0.960562 3.4425 0
M  V30 3217 S 317.47 0.734195 4.32614 0
M  V30 3218 H 314.288 0.225754 0.674208 0
M  V30 3219 H 316.89 1.22641 1.52248 0
M  V30 3220 H 315.594 2.01103 3.57751 0
M  V30 3221 H 315.125 0.338336 3.91942 0
M  V30 3222 H 317.14 -0.395995 4.94617 0
M  V30 3223 N 316.313 -1.40141 0.720998 0
M  V30 3224 C 317.261 -2.3252 0.0608547 0
M  V30 3225 C 318.255 -1.52326 -0.741152 0
M  V30 3226 O 319.461 -1.68089 -0.643911 0
M  V30 3227 H 315.836 -0.751999 0.000876664 0
M  V30 3228 H 317.807 -2.8584 0.856614 0
M  V30 3229 C 316.556 -3.37331 -0.842809 0
M  V30 3230 H 315.879 -3.99108 -0.235084 0
M  V30 3231 H 317.319 -4.04452 -1.27257 0
M  V30 3232 C 315.778 -2.73246 -1.97074 0
M  V30 3233 O 316.308 -2.59998 -3.06209 0
M  V30 3234 N 314.514 -2.31547 -1.75597 0
M  V30 3235 H 314.061 -2.42522 -0.868368 0
M  V30 3236 H 314.019 -1.89007 -2.51244 0
M  V30 3237 N 317.792 -0.46758 -1.50504 0
M  V30 3238 C 318.722 0.318381 -2.31319 0
M  V30 3239 C 319.703 0.993564 -1.38066 0
M  V30 3240 O 320.888 0.991411 -1.66987 0
M  V30 3241 C 318.018 1.40275 -3.17711 0
M  V30 3242 C 316.972 0.849373 -4.19487 0
M  V30 3243 C 316.298 2.03177 -4.94594 0
M  V30 3244 C 317.598 -0.136942 -5.2212 0
M  V30 3245 H 319.292 -0.356106 -2.97275 0
M  V30 3246 H 316.838 -0.172703 -1.42961 0
M  V30 3247 H 318.791 1.96004 -3.73042 0
M  V30 3248 H 317.515 2.10596 -2.49634 0
M  V30 3249 H 316.174 0.314076 -3.65252 0
M  V30 3250 H 315.822 2.72187 -4.22993 0
M  V30 3251 H 315.522 1.66774 -5.63436 0
M  V30 3252 H 317.046 2.59403 -5.52759 0
M  V30 3253 H 318.46 0.331056 -5.72343 0
M  V30 3254 H 316.857 -0.41507 -5.98663 0
M  V30 3255 H 317.927 -1.06398 -4.73083 0
M  V30 3256 N 319.27 1.56325 -0.20005 0
M  V30 3257 C 320.498 2.02105 0.442874 0
M  V30 3258 C 320.913 1.08014 1.5485 0
M  V30 3259 O 320.27 0.0858797 1.82298 0
M  V30 3260 C 320.321 3.47549 0.994583 0
M  V30 3261 O 320.042 4.38049 -0.0669322 0
M  V30 3262 C 321.543 4.0887 1.7129 0
M  V30 3263 H 318.763 0.661807 0.110691 0
M  V30 3264 H 321.307 2.02134 -0.310207 0
M  V30 3265 H 319.462 3.48204 1.69803 0
M  V30 3266 H 319.876 5.23368 0.344462 0
M  V30 3267 H 321.35 5.12475 2.05118 0
M  V30 3268 H 321.827 3.52615 2.61838 0
M  V30 3269 H 322.433 4.12002 1.05518 0
M  V30 3270 N 320.748 -0.0735177 1.57428 0
M  V30 3271 C 321.68 -1.11423 2.00294 0
M  V30 3272 C 322.693 -1.35084 0.908637 0
M  V30 3273 O 323.882 -1.33355 1.18654 0
M  V30 3274 C 320.982 -2.46548 2.32523 0
M  V30 3275 C 320.155 -2.42867 3.63778 0
M  V30 3276 C 319.214 -3.60087 3.83697 0
M  V30 3277 O 318.24 -3.41595 4.55304 0
M  V30 3278 N 319.442 -4.80372 3.25919 0
M  V30 3279 H 322.207 -0.749206 2.90184 0
M  V30 3280 H 319.768 -0.262195 1.59763 0
M  V30 3281 H 321.76 -3.23607 2.43024 0
M  V30 3282 H 320.33 -2.75059 1.48531 0
M  V30 3283 H 319.55 -1.51206 3.64047 0
M  V30 3284 H 320.838 -2.37506 4.49965 0
M  V30 3285 H 320.236 -4.983 2.67795 0
M  V30 3286 H 318.793 -5.54948 3.41871 0
M  V30 3287 N 322.226 -1.5378 -0.344866 0
M  V30 3288 C 323.466 -1.72677 -1.09371 0
M  V30 3289 C 323.83 -0.479084 -1.85927 0
M  V30 3290 O 325.031 -0.54505 -2.63216 0
M  V30 3291 C 323.302 -2.95457 -2.01097 0
M  V30 3292 S 324.861 -3.35158 -2.83222 0
M  V30 3293 H 321.679 -0.607402 -0.369573 0
M  V30 3294 H 324.281 -1.91922 -0.372307 0
M  V30 3295 H 322.985 -3.84437 -1.43655 0
M  V30 3296 H 322.516 -2.78673 -2.77678 0
M  V30 3297 H 324.531 -2.88789 -4.03504 0
M  V30 3298 N 323.704 0.605807 -1.45491 0
M  V30 3299 C 324.929 1.39625 -1.53361 0
M  V30 3300 C 325.354 1.87351 -0.167645 0
M  V30 3301 O 324.712 1.60243 0.848051 0
M  V30 3302 C 324.76 2.57559 -2.5238 0
M  V30 3303 O 323.864 3.58248 -2.04285 0
M  V30 3304 H 323.205 0.416771 -0.516912 0
M  V30 3305 H 325.735 0.737103 -1.90861 0
M  V30 3306 H 325.745 3.0478 -2.71244 0
M  V30 3307 H 324.42 2.22171 -3.51586 0
M  V30 3308 H 322.997 3.17664 -1.95305 0
M  V30 3309 N 325.182 1.32811 0.848464 0
M  V30 3310 C 326.459 1.14334 1.58704 0
M  V30 3311 C 326.839 -0.293948 2.09043 0
M  V30 3312 O 326.187 -1.29153 1.88499 0
M  V30 3313 C 326.397 2.17626 2.72837 0
M  V30 3314 C 327.745 2.51282 3.42261 0
M  V30 3315 O 328.769 2.16219 2.83068 0
M  V30 3316 O 327.628 3.11413 4.49093 0
M  V30 3317 H 324.722 0.441601 0.699226 0
M  V30 3318 H 327.268 1.44362 0.892053 0
M  V30 3319 H 326.04 3.14211 2.3321 0
M  V30 3320 H 325.663 1.88628 3.50008 0
M  V30 3321 N 326.66 -1.06551 1.16123 0
M  V30 3322 C 327.623 -2.12132 0.867906 0
M  V30 3323 C 328.623 -1.60224 -0.135944 0
M  V30 3324 O 329.813 -1.73943 0.0946422 0
M  V30 3325 C 326.945 -3.396 0.297419 0
M  V30 3326 H 328.138 -2.39586 1.80385 0
M  V30 3327 H 325.691 -1.22574 0.969812 0
M  V30 3328 H 326.426 -3.17794 -0.64633 0
M  V30 3329 H 326.211 -3.78581 1.02073 0
M  V30 3330 H 327.701 -4.17455 0.110052 0
M  V30 3331 N 328.138 -0.959301 -1.25041 0
M  V30 3332 C 329.048 -0.489994 -2.29426 0
M  V30 3333 C 330.064 0.444944 -1.68215 0
M  V30 3334 O 331.24 0.320046 -1.98841 0
M  V30 3335 C 328.305 0.220309 -3.45999 0
M  V30 3336 C 327.366 -0.753418 -4.22637 0
M  V30 3337 C 326.599 -0.076918 -5.33645 0
M  V30 3338 O 326.822 1.13649 -5.58963 0
M  V30 3339 O 325.756 -0.764824 -5.97021 0
M  V30 3340 H 329.582 -1.35755 -2.71669 0
M  V30 3341 H 327.167 -0.725961 -1.30576 0
M  V30 3342 H 329.049 0.619677 -4.16819 0
M  V30 3343 H 327.724 1.06296 -3.0575 0
M  V30 3344 H 326.631 -1.20308 -3.54227 0
M  V30 3345 H 327.964 -1.56423 -4.66683 0
M  V30 3346 N 329.616 1.39756 -0.72842 0
M  V30 3347 C 330.864 2.00248 -0.272946 0
M  V30 3348 C 331.185 1.58077 1.14178 0
M  V30 3349 O 330.455 0.826014 1.77634 0
M  V30 3350 H 329.035 0.740554 -0.0979247 0
M  V30 3351 H 331.697 1.70903 -0.936912 0
M  V30 3352 H 330.793 3.10495 -0.316142 0
M  V30 3353 N 331.094 0.475555 1.50254 0
M  V30 3354 C 332.322 -0.0754493 2.06762 0
M  V30 3355 C 332.737 -1.33111 1.33891 0
M  V30 3356 O 332.094 -1.77846 0.40952 0
M  V30 3357 C 332.145 -0.359008 3.59713 0
M  V30 3358 O 331.866 0.846851 4.29837 0
M  V30 3359 C 333.367 -0.956484 4.32858 0
M  V30 3360 H 330.587 0.00907525 0.670939 0
M  V30 3361 H 333.131 0.665618 1.93364 0
M  V30 3362 H 331.286 -1.05001 3.72899 0
M  V30 3363 H 331.7 0.594162 5.21124 0
M  V30 3364 H 333.174 -1.10463 5.40834 0
M  V30 3365 H 333.651 -1.94775 3.93649 0
M  V30 3366 H 334.257 -0.303723 4.24214 0
M  V30 3367 N 332.573 -1.56217 0.208337 0
M  V30 3368 C 333.536 -2.18455 -0.693557 0
M  V30 3369 C 334.536 -1.14268 -1.13135 0
M  V30 3370 O 335.726 -1.39577 -1.0423 0
M  V30 3371 C 332.858 -2.79727 -1.94848 0
M  V30 3372 H 334.051 -2.99519 -0.15114 0
M  V30 3373 H 331.604 -1.56245 -0.041287 0
M  V30 3374 H 332.339 -2.02497 -2.53309 0
M  V30 3375 H 332.124 -3.56009 -1.64316 0
M  V30 3376 H 333.614 -3.27475 -2.59133 0
M  V30 3377 N 334.051 0.0651679 -1.57465 0
M  V30 3378 C 335.297 0.764193 -1.87851 0
M  V30 3379 C 335.63 1.76889 -0.801495 0
M  V30 3380 O 334.905 1.93594 0.187528 0
M  V30 3381 C 335.188 1.46625 -3.28897 0
M  V30 3382 C 335.041 0.477515 -4.47258 0
M  V30 3383 C 336.36 2.4095 -3.68281 0
M  V30 3384 H 333.479 0.276351 -0.683227 0
M  V30 3385 H 336.121 0.0272868 -1.8998 0
M  V30 3386 H 334.271 2.09438 -3.27212 0
M  V30 3387 H 335.943 -0.145922 -4.61069 0
M  V30 3388 H 334.186 -0.206576 -4.33308 0
M  V30 3389 H 334.857 1.0065 -5.42746 0
M  V30 3390 H 337.333 1.88209 -3.71102 0
M  V30 3391 H 336.209 2.87072 -4.67847 0
M  V30 3392 H 336.47 3.26049 -2.98571 0
M  V30 3393 N 335.529 1.53961 0.336706 0
M  V30 3394 C 336.492 1.81724 1.39675 0
M  V30 3395 C 337.492 0.688532 1.45313 0
M  V30 3396 O 338.682 0.956829 1.45569 0
M  V30 3397 C 335.814 1.96543 2.78538 0
M  V30 3398 H 337.007 2.76424 1.16318 0
M  V30 3399 H 334.56 1.45478 0.571474 0
M  V30 3400 H 335.295 1.0401 3.07168 0
M  V30 3401 H 335.08 2.78665 2.75841 0
M  V30 3402 H 336.57 2.19516 3.5525 0
M  V30 3403 N 337.007 -0.598083 1.45811 0
M  V30 3404 C 338.418 -1.18011 1.44673 0
M  V30 3405 C 338.769 -1.95378 0.179364 0
M  V30 3406 O 337.894 -2.04124 -0.718509 0
M  V30 3407 C 338.489 -2.14677 2.62105 0
M  V30 3408 C 337.048 -2.68236 2.64057 0
M  V30 3409 C 336.195 -1.43816 2.37091 0
M  V30 3410 H 339.146 -0.38686 1.53913 0
M  V30 3411 H 339.167 -2.97878 2.36746 0
M  V30 3412 H 338.679 -1.5834 3.5433 0
M  V30 3413 H 336.78 -3.28486 1.75864 0
M  V30 3414 H 336.893 -3.12021 3.63566 0
M  V30 3415 H 335.257 -1.731 1.86838 0
M  V30 3416 H 336.04 -0.893333 3.31473 0
M  V30 3417 N 338.485 -1.33259 -0.841409 0
M  V30 3418 C 339.896 -1.22066 -1.41269 0
M  V30 3419 C 340.247 0.161479 -1.95534 0
M  V30 3420 O 339.372 1.06094 -1.88608 0
M  V30 3421 C 339.967 -2.20996 -2.568 0
M  V30 3422 C 338.526 -2.13649 -3.09888 0
M  V30 3423 C 337.673 -2.08623 -1.82679 0
M  V30 3424 H 340.624 -1.44895 -0.647395 0
M  V30 3425 H 340.645 -1.81621 -3.34356 0
M  V30 3426 H 340.157 -3.2158 -2.17274 0
M  V30 3427 H 338.258 -1.16359 -3.53965 0
M  V30 3428 H 338.371 -3.04079 -3.70234 0
M  V30 3429 H 336.735 -1.54061 -2.02824 0
M  V30 3430 H 337.518 -3.1101 -1.45353 0
M  V30 3431 N 339.963 1.05934 -1.16686 0
M  V30 3432 C 341.191 1.8249 -0.974929 0
M  V30 3433 C 341.606 1.82679 0.476861 0
M  V30 3434 O 340.963 1.2486 1.33103 0
M  V30 3435 C 341.014 3.28943 -1.49929 0
M  V30 3436 O 340.735 3.28886 -2.89423 0
M  V30 3437 C 342.236 4.22215 -1.35089 0
M  V30 3438 H 339.456 0.575295 -0.345365 0
M  V30 3439 H 342 1.33631 -1.548 0
M  V30 3440 H 340.155 3.751 -0.968423 0
M  V30 3441 H 340.569 4.20493 -3.13506 0
M  V30 3442 H 342.043 5.22987 -1.76603 0
M  V30 3443 H 342.52 4.38195 -0.296935 0
M  V30 3444 H 343.126 3.81907 -1.87155 0
M  V30 3445 N 341.441 0.965919 1.2453 0
M  V30 3446 C 342.687 0.62776 1.92839 0
M  V30 3447 C 343.02 -0.834694 1.75347 0
M  V30 3448 O 342.295 -1.60031 1.10546 0
M  V30 3449 C 342.578 1.00109 3.45905 0
M  V30 3450 C 342.431 2.52011 3.72573 0
M  V30 3451 C 343.75 0.53435 4.36844 0
M  V30 3452 H 340.869 0.229537 0.700344 0
M  V30 3453 H 343.511 1.2046 1.46933 0
M  V30 3454 H 341.661 0.510238 3.85135 0
M  V30 3455 H 343.333 3.08559 3.42912 0
M  V30 3456 H 341.576 2.95287 3.17786 0
M  V30 3457 H 342.247 2.73183 4.79661 0
M  V30 3458 H 344.723 0.955565 4.04979 0
M  V30 3459 H 343.599 0.824152 5.42678 0
M  V30 3460 H 343.86 -0.565589 4.38467 0
M  V30 3461 N 342.919 -1.39368 0.735821 0
M  V30 3462 C 344.147 -2.04795 0.294393 0
M  V30 3463 C 344.562 -1.55478 -1.07107 0
M  V30 3464 O 343.919 -0.720038 -1.67695 0
M  V30 3465 C 343.97 -3.6035 0.288071 0
M  V30 3466 O 343.691 -4.07852 1.59963 0
M  V30 3467 C 345.192 -4.42976 -0.169422 0
M  V30 3468 H 342.412 -0.658571 0.128551 0
M  V30 3469 H 344.956 -1.78399 0.999701 0
M  V30 3470 H 343.111 -3.85645 -0.368355 0
M  V30 3471 H 343.525 -5.02181 1.51375 0
M  V30 3472 H 344.999 -5.51864 -0.122687 0
M  V30 3473 H 345.476 -4.22068 -1.21472 0
M  V30 3474 H 346.082 -4.22832 0.457469 0
M  V30 3475 N 344.397 -0.483516 -1.5 0
M  V30 3476 C 345.808 -0.0314176 -1.86674 0
M  V30 3477 C 346.159 1.37728 -1.39733 0
M  V30 3478 O 345.284 2.02327 -0.767635 0
M  V30 3479 C 345.879 -0.0502376 -3.38763 0
M  V30 3480 C 344.438 0.346442 -3.74802 0
M  V30 3481 C 343.585 -0.430366 -2.7394 0
M  V30 3482 H 346.536 -0.697182 -1.42566 0
M  V30 3483 H 346.557 0.749116 -3.73053 0
M  V30 3484 H 346.069 -1.07563 -3.72897 0
M  V30 3485 H 344.17 1.37572 -3.46273 0
M  V30 3486 H 344.283 0.0391486 -4.79084 0
M  V30 3487 H 342.647 0.117557 -2.54429 0
M  V30 3488 H 343.43 -1.4555 -3.10918 0
M  V30 3489 N 345.875 1.56104 -0.216619 0
M  V30 3490 C 347.121 1.98466 0.417033 0
M  V30 3491 C 347.454 1.10403 1.59765 0
M  V30 3492 O 346.729 0.160632 1.93836 0
M  V30 3493 C 347.012 3.49769 0.85637 0
M  V30 3494 C 346.865 4.48606 -0.327546 0
M  V30 3495 C 348.184 4.05339 1.7143 0
M  V30 3496 H 345.303 0.721551 0.150112 0
M  V30 3497 H 347.945 1.87423 -0.311864 0
M  V30 3498 H 346.095 3.5931 1.47745 0
M  V30 3499 H 347.767 4.5108 -0.965618 0
M  V30 3500 H 346.01 4.22682 -0.975805 0
M  V30 3501 H 346.681 5.51995 0.0227149 0
M  V30 3502 H 349.157 3.98712 1.19031 0
M  V30 3503 H 348.033 5.11533 1.99061 0
M  V30 3504 H 348.294 3.51918 2.67593 0
M  V30 3505 N 347.353 -0.0568162 1.57498 0
M  V30 3506 C 348.764 -0.606858 1.76562 0
M  V30 3507 C 349.115 -1.77114 0.844094 0
M  V30 3508 O 348.24 -2.16376 0.0318911 0
M  V30 3509 C 348.835 -1.10766 3.20182 0
M  V30 3510 C 347.394 -1.60344 3.40539 0
M  V30 3511 C 346.541 -0.529311 2.72201 0
M  V30 3512 H 349.492 0.169393 1.57793 0
M  V30 3513 H 349.513 -1.97602 3.25167 0
M  V30 3514 H 349.025 -0.26006 3.87228 0
M  V30 3515 H 347.126 -2.47379 2.78629 0
M  V30 3516 H 347.239 -1.67006 4.4905 0
M  V30 3517 H 345.603 -0.977893 2.35179 0
M  V30 3518 H 346.386 0.308352 3.41912 0
M  V30 3519 N 348.832 -1.54138 -0.328536 0
M  V30 3520 C 350.057 -1.76378 -1.09112 0
M  V30 3521 C 350.482 -0.508596 -1.81094 0
M  V30 3522 O 349.84 0.539598 -1.73084 0
M  V30 3523 C 349.888 -2.95358 -2.06872 0
M  V30 3524 O 348.992 -2.66556 -3.14677 0
M  V30 3525 H 348.333 -0.584614 -0.314838 0
M  V30 3526 H 350.863 -2.01146 -0.374348 0
M  V30 3527 H 350.873 -3.22566 -2.4983 0
M  V30 3528 H 349.548 -3.86385 -1.5388 0
M  V30 3529 H 348.125 -2.50282 -2.7643 0
M  V30 3530 N 350.31 0.590341 -1.46126 0
M  V30 3531 C 351.24 1.71032 -1.58966 0
M  V30 3532 C 352.221 1.64302 -0.440335 0
M  V30 3533 O 353.406 1.82436 -0.665634 0
M  V30 3534 C 350.536 3.09665 -1.57241 0
M  V30 3535 C 349.49 3.31221 -2.71066 0
M  V30 3536 C 348.816 4.70303 -2.54399 0
M  V30 3537 C 350.116 3.19796 -4.1295 0
M  V30 3538 H 351.81 1.60543 -2.52718 0
M  V30 3539 H 349.356 0.770933 -1.21625 0
M  V30 3540 H 351.309 3.87831 -1.64819 0
M  V30 3541 H 350.033 3.21036 -0.600289 0
M  V30 3542 H 348.692 2.55452 -2.62944 0
M  V30 3543 H 348.34 4.78429 -1.55288 0
M  V30 3544 H 348.04 4.85679 -3.30741 0
M  V30 3545 H 349.564 5.50647 -2.63857 0
M  V30 3546 H 350.978 3.87815 -4.22223 0
M  V30 3547 H 349.375 3.46696 -4.89818 0
M  V30 3548 H 350.445 2.16983 -4.33643 0
M  V30 3549 N 351.788 1.33704 0.83433 0
M  V30 3550 C 352.698 1.26382 1.97648 0
M  V30 3551 C 353.714 0.173548 1.73132 0
M  V30 3552 O 354.89 0.397962 1.97429 0
M  V30 3553 C 351.955 1.00769 3.31733 0
M  V30 3554 C 351.016 2.1884 3.69334 0
M  V30 3555 C 350.249 1.9444 4.9702 0
M  V30 3556 O 350.472 0.896961 5.63303 0
M  V30 3557 O 349.406 2.81093 5.32231 0
M  V30 3558 H 353.232 2.22444 2.06767 0
M  V30 3559 H 350.817 1.13795 0.968037 0
M  V30 3560 H 352.699 0.882186 4.12062 0
M  V30 3561 H 351.374 0.0773783 3.23608 0
M  V30 3562 H 350.281 2.36946 2.89495 0
M  V30 3563 H 351.614 3.10221 3.82131 0
M  V30 3564 N 353.266 -1.05314 1.17247 0
M  V30 3565 C 354.229 -2.112 0.890357 0
M  V30 3566 C 355.229 -1.60359 -0.118943 0
M  V30 3567 O 356.419 -1.73833 0.113086 0
M  V30 3568 C 353.551 -3.39266 0.333422 0
M  V30 3569 H 354.744 -2.37659 1.82916 0
M  V30 3570 H 352.297 -1.21538 0.982758 0
M  V30 3571 H 353.032 -3.18462 -0.612587 0
M  V30 3572 H 352.817 -3.77477 1.06082 0
M  V30 3573 H 354.307 -4.17315 0.154322 0
M  V30 3574 N 354.744 -0.972509 -1.24016 0
M  V30 3575 C 356.155 -0.67517 -1.74064 0
M  V30 3576 C 356.506 0.808939 -1.78747 0
M  V30 3577 O 355.631 1.63286 -1.42009 0
M  V30 3578 C 356.226 -1.21889 -3.16115 0
M  V30 3579 C 354.785 -0.971358 -3.6365 0
M  V30 3580 C 353.932 -1.35134 -2.42145 0
M  V30 3581 H 356.883 -1.14727 -1.09651 0
M  V30 3582 H 356.904 -0.587489 -3.75937 0
M  V30 3583 H 356.416 -2.29906 -3.12674 0
M  V30 3584 H 354.517 0.0930686 -3.72484 0
M  V30 3585 H 354.63 -1.62039 -4.50866 0
M  V30 3586 H 352.994 -0.769751 -2.4279 0
M  V30 3587 H 353.777 -2.4411 -2.41381 0
M  V30 3588 N 356.222 1.38976 -0.743202 0
M  V30 3589 C 357.447 2.05161 -0.303936 0
M  V30 3590 C 357.872 1.55677 1.05576 0
M  V30 3591 O 357.23 0.704131 1.67068 0
M  V30 3592 C 357.278 3.59138 -0.324373 0
M  V30 3593 O 356.382 4.06668 0.685204 0
M  V30 3594 H 355.723 0.649815 -0.136518 0
M  V30 3595 H 358.253 1.77852 -1.01142 0
M  V30 3596 H 358.263 4.07639 -0.171618 0
M  V30 3597 H 356.938 3.94515 -1.31647 0
M  V30 3598 H 355.515 3.69561 0.497913 0
M  V30 3599 N 357.7 0.491464 1.49741 0
M  V30 3600 C 358.61 -0.296835 2.32715 0
M  V30 3601 C 359.626 -0.976536 1.44013 0
M  V30 3602 O 360.802 -0.960023 1.77047 0
M  V30 3603 C 357.867 -1.35288 3.19215 0
M  V30 3604 C 356.928 -0.687632 4.23757 0
M  V30 3605 C 356.161 -1.69336 5.06123 0
M  V30 3606 O 356.384 -2.92219 4.89861 0
M  V30 3607 O 355.318 -1.25394 5.88693 0
M  V30 3608 H 359.144 0.382048 3.01287 0
M  V30 3609 H 356.729 0.252953 1.47243 0
M  V30 3610 H 358.611 -1.96411 3.72828 0
M  V30 3611 H 357.286 -2.01487 2.53347 0
M  V30 3612 H 356.193 -0.0369159 3.74082 0
M  V30 3613 H 357.526 -0.0682566 4.92153 0
M  V30 3614 N 359.178 -1.55987 0.224894 0
M  V30 3615 C 360.11 -2.17722 -0.716224 0
M  V30 3616 C 361.123 -1.14723 -1.15509 0
M  V30 3617 O 362.312 -1.41688 -1.08567 0
M  V30 3618 C 359.412 -2.74873 -1.98238 0
M  V30 3619 C 358.585 -4.03074 -1.69853 0
M  V30 3620 C 357.644 -4.44757 -2.81208 0
M  V30 3621 O 356.67 -5.11587 -2.49534 0
M  V30 3622 N 357.872 -4.10716 -4.10235 0
M  V30 3623 H 360.637 -2.99109 -0.188123 0
M  V30 3624 H 358.198 -1.6184 0.0440123 0
M  V30 3625 H 360.19 -2.99727 -2.7193 0
M  V30 3626 H 358.76 -1.9777 -2.42086 0
M  V30 3627 H 357.98 -3.86041 -0.797875 0
M  V30 3628 H 359.268 -4.86701 -1.48324 0
M  V30 3629 H 358.666 -3.57019 -4.38809 0
M  V30 3630 H 357.223 -4.40455 -4.80461 0
M  V30 3631 N 360.656 0.0484629 -1.57525 0
M  V30 3632 C 361.619 1.03956 -2.04269 0
M  V30 3633 C 362.619 1.30211 -0.943496 0
M  V30 3634 O 363.809 1.25539 -1.20771 0
M  V30 3635 C 360.941 2.37742 -2.44319 0
M  V30 3636 H 362.134 0.636182 -2.93075 0
M  V30 3637 H 359.687 0.294811 -1.53494 0
M  V30 3638 H 360.422 2.82866 -1.5861 0
M  V30 3639 H 360.207 2.20021 -3.24551 0
M  V30 3640 H 361.697 3.08936 -2.80978 0
M  V30 3641 N 362.134 1.5431 0.320358 0
M  V30 3642 C 363.545 1.63872 0.894594 0
M  V30 3643 C 363.896 0.534847 1.88769 0
M  V30 3644 O 363.021 -0.331732 2.13842 0
M  V30 3645 C 363.616 2.97049 1.62934 0
M  V30 3646 C 362.175 3.08796 2.15226 0
M  V30 3647 C 361.322 2.59456 0.978671 0
M  V30 3648 H 364.273 1.58398 0.0978544 0
M  V30 3649 H 364.294 2.87388 2.49376 0
M  V30 3650 H 363.806 3.7737 0.906302 0
M  V30 3651 H 361.907 2.33156 2.90636 0
M  V30 3652 H 362.02 4.14649 2.40006 0
M  V30 3653 H 360.384 2.1543 1.35875 0
M  V30 3654 H 361.167 3.42237 0.269895 0
M  V30 3655 N 363.613 -0.582584 1.46437 0
M  V30 3656 C 364.841 -1.36682 1.55324 0
M  V30 3657 C 365.256 -1.87796 0.194409 0
M  V30 3658 O 364.613 -1.63623 -0.808318 0
M  V30 3659 C 364.664 -2.55426 2.55812 0
M  V30 3660 O 364.385 -2.0643 3.86417 0
M  V30 3661 C 365.886 -3.47976 2.74641 0
M  V30 3662 H 363.106 -0.417545 0.525259 0
M  V30 3663 H 365.65 -0.708219 1.91845 0
M  V30 3664 H 363.805 -3.17275 2.22295 0
M  V30 3665 H 364.219 -2.83762 4.41111 0
M  V30 3666 H 365.693 -4.27775 3.48874 0
M  V30 3667 H 366.17 -3.99919 1.81553 0
M  V30 3668 H 366.776 -2.91962 3.09255 0
M  V30 3669 N 365.091 -1.34144 -0.827227 0
M  V30 3670 C 366.001 -1.27428 -1.96975 0
M  V30 3671 C 367.017 -0.182728 -1.73038 0
M  V30 3672 O 368.193 -0.408426 -1.97215 0
M  V30 3673 C 365.258 -1.02526 -3.31194 0
M  V30 3674 C 364.319 -2.20796 -3.68168 0
M  V30 3675 C 363.552 -1.97073 -4.95982 0
M  V30 3676 O 363.775 -0.926822 -5.6282 0
M  V30 3677 O 362.709 -2.83912 -5.30733 0
M  V30 3678 H 366.535 -2.23537 -2.05584 0
M  V30 3679 H 364.12 -1.14307 -0.961989 0
M  V30 3680 H 366.002 -0.904026 -4.11589 0
M  V30 3681 H 364.677 -0.0945389 -3.23562 0
M  V30 3682 H 363.584 -2.38477 -2.88235 0
M  V30 3683 H 364.917 -3.12243 -3.8048 0
M  V30 3684 N 366.569 1.04691 -1.17803 0
M  V30 3685 C 367.501 2.12571 -0.857097 0
M  V30 3686 C 368.514 1.62174 0.142647 0
M  V30 3687 O 369.703 1.78301 -0.0843387 0
M  V30 3688 C 366.803 3.37915 -0.258216 0
M  V30 3689 C 365.976 4.1757 -1.30207 0
M  V30 3690 C 365.035 5.2125 -0.720029 0
M  V30 3691 O 364.061 5.51888 -1.39314 0
M  V30 3692 N 365.263 5.78466 0.485507 0
M  V30 3693 H 368.028 2.40698 -1.78562 0
M  V30 3694 H 365.589 1.20831 -1.07757 0
M  V30 3695 H 367.581 4.04442 0.144584 0
M  V30 3696 H 366.151 3.07281 0.574199 0
M  V30 3697 H 365.371 3.46458 -1.88043 0
M  V30 3698 H 366.659 4.67586 -2.00601 0
M  V30 3699 H 366.057 5.55866 1.05022 0
M  V30 3700 H 364.614 6.4649 0.830307 0
M  V30 3701 N 368.047 0.979072 1.23499 0
M  V30 3702 C 369.463 0.687475 1.44034 0
M  V30 3703 C 369.663 -0.746801 1.8715 0
M  V30 3704 O 368.719 -1.51939 2.0167 0
M  V30 3705 C 370.032 1.68127 2.49307 0
M  V30 3706 C 371.58 1.69516 2.63122 0
M  V30 3707 C 372.055 2.67723 3.71603 0
M  V30 3708 N 373.546 2.66233 3.79044 0
M  V30 3709 C 374.281 3.38891 4.62537 0
M  V30 3710 N 373.777 4.21103 5.50131 0
M  V30 3711 N 375.57 3.27661 4.56721 0
M  V30 3712 H 367.721 1.90559 0.938135 0
M  V30 3713 H 369.984 0.821051 0.473897 0
M  V30 3714 H 369.69 2.70693 2.2454 0
M  V30 3715 H 369.564 1.46306 3.4767 0
M  V30 3716 H 371.951 0.676561 2.8724 0
M  V30 3717 H 372.032 1.95404 1.65079 0
M  V30 3718 H 371.676 3.69724 3.48233 0
M  V30 3719 H 371.606 2.39111 4.69184 0
M  V30 3720 H 374.097 2.06568 3.16446 0
M  V30 3721 H 374.41 4.73403 6.10827 0
M  V30 3722 H 372.755 4.25195 5.49759 0
M  V30 3723 H 375.946 2.62887 3.87309 0
M  V30 3724 H 376.119 3.84547 5.21562 0
M  V30 3725 N 369.525 -1.3858 0.750561 0
M  V30 3726 C 370.936 -1.82927 0.373438 0
M  V30 3727 C 371.287 -1.62634 -1.09748 0
M  V30 3728 O 370.412 -1.12588 -1.84805 0
M  V30 3729 C 371.007 -3.32088 0.671029 0
M  V30 3730 C 369.566 -3.74795 0.34722 0
M  V30 3731 C 368.713 -2.61391 0.92575 0
M  V30 3732 H 371.664 -1.27351 0.946958 0
M  V30 3733 H 371.685 -3.80465 -0.0518269 0
M  V30 3734 H 371.197 -3.46826 1.74164 0
M  V30 3735 H 369.298 -3.65638 -0.716933 0
M  V30 3736 H 369.411 -4.71667 0.840656 0
M  V30 3737 H 367.775 -2.52265 0.351327 0
M  V30 3738 H 368.558 -2.78929 2.00133 0
M  V30 3739 N 371.003 -0.499398 -1.49478 0
M  V30 3740 C 372.251 0.0455996 -2.02049 0
M  V30 3741 C 372.572 1.37633 -1.38138 0
M  V30 3742 O 371.842 1.8842 -0.536166 0
M  V30 3743 H 370.422 0.0198416 -0.746736 0
M  V30 3744 H 373.084 -0.656274 -1.83519 0
M  V30 3745 H 372.18 0.176445 -3.11601 0
M  V30 3746 N 372.481 1.55866 -0.233164 0
M  V30 3747 C 373.727 1.98897 0.395959 0
M  V30 3748 C 374.06 1.12091 1.58585 0
M  V30 3749 O 373.335 0.181182 1.93654 0
M  V30 3750 C 373.618 3.50658 0.819224 0
M  V30 3751 C 373.471 4.48233 -0.375109 0
M  V30 3752 C 374.79 4.07135 1.67121 0
M  V30 3753 H 371.909 0.723102 0.142451 0
M  V30 3754 H 374.551 1.87082 -0.331725 0
M  V30 3755 H 372.701 3.60857 1.43925 0
M  V30 3756 H 374.373 4.50031 -1.01341 0
M  V30 3757 H 372.616 4.21624 -1.02058 0
M  V30 3758 H 373.287 5.51988 -0.0358328 0
M  V30 3759 H 375.763 3.99952 1.14795 0
M  V30 3760 H 374.639 5.13615 1.93625 0
M  V30 3761 H 374.9 3.54736 2.63846 0
M  V30 3762 N 373.959 -0.0401083 1.57549 0
M  V30 3763 C 374.891 -1.07149 2.02612 0
M  V30 3764 C 375.904 -1.33126 0.937085 0
M  V30 3765 O 377.093 -1.30808 1.21456 0
M  V30 3766 C 374.193 -2.41561 2.37701 0
M  V30 3767 C 373.366 -2.35096 3.68848 0
M  V30 3768 C 372.425 -3.51867 3.91249 0
M  V30 3769 O 371.451 -3.3186 4.62447 0
M  V30 3770 N 372.653 -4.73351 3.36035 0
M  V30 3771 H 375.418 -0.687485 2.91708 0
M  V30 3772 H 372.979 -0.228248 1.60283 0
M  V30 3773 H 374.971 -3.18379 2.49833 0
M  V30 3774 H 373.541 -2.71846 1.54332 0
M  V30 3775 H 372.761 -1.4345 3.67173 0
M  V30 3776 H 374.049 -2.27908 4.54901 0
M  V30 3777 H 373.447 -4.92507 2.78304 0
M  V30 3778 H 372.004 -5.47572 3.53565 0
M  V30 3779 N 375.437 -1.54477 -0.31217 0
M  V30 3780 C 376.347 -1.87695 -1.4074 0
M  V30 3781 C 377.363 -0.769975 -1.56036 0
M  V30 3782 O 378.539 -1.06537 -1.70915 0
M  V30 3783 C 375.604 -2.10755 -2.75287 0
M  V30 3784 C 374.665 -3.34514 -2.69071 0
M  V30 3785 C 373.898 -3.56465 -3.97201 0
M  V30 3786 O 374.121 -2.81637 -4.96021 0
M  V30 3787 O 373.055 -4.49964 -3.9977 0
M  V30 3788 H 376.881 -2.80849 -1.15574 0
M  V30 3789 H 374.466 -1.40526 -0.507228 0
M  V30 3790 H 376.348 -2.27188 -3.54913 0
M  V30 3791 H 375.023 -1.20788 -3.0032 0
M  V30 3792 H 373.93 -3.23456 -1.87955 0
M  V30 3793 H 375.263 -4.24575 -2.48992 0
M  V30 3794 N 376.915 0.57481 -1.46744 0
M  V30 3795 C 378.155 1.34369 -1.54027 0
M  V30 3796 C 378.519 1.91051 -0.190642 0
M  V30 3797 O 379.72 2.68444 -0.138255 0
M  V30 3798 C 377.991 2.43706 -2.61423 0
M  V30 3799 S 379.55 3.30915 -2.88167 0
M  V30 3800 H 376.368 0.45768 -0.544105 0
M  V30 3801 H 378.97 0.659959 -1.84024 0
M  V30 3802 H 377.674 2.0047 -3.58106 0
M  V30 3803 H 377.205 3.16842 -2.33184 0
M  V30 3804 H 379.22 4.42742 -2.24039 0
M  V30 3805 N 378.394 1.34581 0.820102 0
M  V30 3806 C 379.624 1.29991 1.6058 0
M  V30 3807 C 380.032 -0.127588 1.88769 0
M  V30 3808 O 379.375 -1.08595 1.48165 0
M  V30 3809 C 379.437 2.02548 2.9701 0
M  V30 3810 C 379.101 3.51794 2.91701 0
M  V30 3811 C 380.098 4.46647 2.66087 0
M  V30 3812 C 377.783 3.94249 3.11245 0
M  V30 3813 C 379.777 5.81929 2.60071 0
M  V30 3814 C 377.464 5.2963 3.04853 0
M  V30 3815 C 378.462 6.23282 2.793 0
M  V30 3816 O 378.15 7.56181 2.72847 0
M  V30 3817 H 377.882 0.448539 0.505756 0
M  V30 3818 H 380.436 1.77811 1.02822 0
M  V30 3819 H 378.666 1.49345 3.56697 0
M  V30 3820 H 380.355 1.91211 3.58041 0
M  V30 3821 H 381.121 4.15168 2.5072 0
M  V30 3822 H 377 3.21749 3.30149 0
M  V30 3823 H 380.544 6.54999 2.40046 0
M  V30 3824 H 376.441 5.60727 3.19774 0
M  V30 3825 H 377.209 7.6595 2.88553 0
M  V30 3826 N 379.872 -1.04064 1.18357 0
M  V30 3827 C 380.822 -2.10393 0.878561 0
M  V30 3828 C 381.806 -1.60183 -0.151713 0
M  V30 3829 O 382.998 -1.76923 0.0523303 0
M  V30 3830 C 380.127 -3.4089 0.406096 0
M  V30 3831 C 379.213 -3.97866 1.46844 0
M  V30 3832 N 379.604 -4.28657 2.68489 0
M  V30 3833 C 377.902 -4.2574 1.32896 0
M  V30 3834 C 378.603 -4.74253 3.36836 0
M  V30 3835 N 377.579 -4.75068 2.64219 0
M  V30 3836 H 381.381 -2.32076 1.80327 0
M  V30 3837 H 378.895 -1.21818 1.07397 0
M  V30 3838 H 380.892 -4.16557 0.169088 0
M  V30 3839 H 379.552 -3.20633 -0.512275 0
M  V30 3840 H 380.563 -4.18304 3.05356 0
M  V30 3841 H 377.24 -4.1481 0.473134 0
M  V30 3842 H 378.63 -5.07096 4.40798 0
M  V30 3843 N 381.35 -0.985608 -1.22978 0
M  V30 3844 C 382.598 -0.656087 -1.91154 0
M  V30 3845 C 382.919 0.813561 -1.77218 0
M  V30 3846 O 382.189 1.58244 -1.1548 0
M  V30 3847 H 380.769 -0.239674 -0.707506 0
M  V30 3848 H 383.431 -1.25054 -1.49491 0
M  V30 3849 H 382.527 -0.912253 -2.9847 0
M  V30 3850 N 382.828 1.3818 -0.7579 0
M  V30 3851 C 383.776 2.32277 -0.122482 0
M  V30 3852 C 384.77 1.54238 0.700505 0
M  V30 3853 O 385.976 1.69737 0.599119 0
M  V30 3854 H 382.351 0.751712 -0.0208143 0
M  V30 3855 H 384.322 2.83469 -0.932099 0
M  V30 3856 C 383.071 3.39447 0.753076 0
M  V30 3857 H 382.394 3.99591 0.129184 0
M  V30 3858 H 383.834 4.07684 1.16489 0
M  V30 3859 C 382.293 2.78375 1.8976 0
M  V30 3860 O 382.823 2.68025 2.99208 0
M  V30 3861 N 381.029 2.36121 1.69397 0
M  V30 3862 H 380.576 2.4474 0.803762 0
M  V30 3863 H 380.534 1.95602 2.46145 0
M  V30 3864 N 384.306 0.507319 1.49211 0
M  V30 3865 C 385.554 -0.0348839 2.0207 0
M  V30 3866 C 385.875 -1.36898 1.38866 0
M  V30 3867 O 385.145 -1.88133 0.546151 0
M  V30 3868 H 383.725 -0.0158812 0.746831 0
M  V30 3869 H 386.387 0.665998 1.83168 0
M  V30 3870 H 385.483 -0.159917 3.1169 0
M  V30 3871 N 385.784 -1.5574 0.241426 0
M  V30 3872 C 386.716 -2.18469 -0.693091 0
M  V30 3873 C 387.729 -1.15942 -1.14286 0
M  V30 3874 O 388.918 -1.42832 -1.07058 0
M  V30 3875 C 386.018 -2.7696 -1.95311 0
M  V30 3876 C 385.191 -4.04853 -1.65568 0
M  V30 3877 C 384.25 -4.47715 -2.76474 0
M  V30 3878 O 383.276 -5.14205 -2.44094 0
M  V30 3879 N 384.478 -4.15044 -4.05855 0
M  V30 3880 H 387.243 -2.99292 -0.156388 0
M  V30 3881 H 384.804 -1.61784 0.0611752 0
M  V30 3882 H 386.796 -3.02594 -2.68736 0
M  V30 3883 H 385.366 -2.00326 -2.39975 0
M  V30 3884 H 384.586 -3.86865 -0.756886 0
M  V30 3885 H 385.874 -4.88246 -1.43153 0
M  V30 3886 H 385.272 -3.61654 -4.34998 0
M  V30 3887 H 383.829 -4.45526 -4.75762 0
M  V30 3888 N 387.262 0.0317525 -1.57568 0
M  V30 3889 C 388.487 0.738664 -1.938 0
M  V30 3890 C 388.912 1.68242 -0.841208 0
M  V30 3891 O 388.27 1.80157 0.203267 0
M  V30 3892 C 388.318 1.47417 -3.29091 0
M  V30 3893 O 387.422 2.5872 -3.2115 0
M  V30 3894 H 386.763 0.198856 -0.633524 0
M  V30 3895 H 389.293 -0.0119713 -2.04596 0
M  V30 3896 H 389.303 1.84468 -3.63917 0
M  V30 3897 H 387.978 0.781988 -4.08482 0
M  V30 3898 H 386.555 2.24231 -2.97951 0
M  V30 3899 N 388.74 1.54641 0.303973 0
M  V30 3900 C 389.97 1.77511 1.05705 0
M  V30 3901 C 390.378 0.533228 1.81531 0
M  V30 3902 O 389.721 -0.506423 1.76582 0
M  V30 3903 C 389.783 2.92779 2.08617 0
M  V30 3904 C 389.447 4.30977 1.52013 0
M  V30 3905 C 390.444 5.11115 0.9517 0
M  V30 3906 C 388.129 4.77571 1.55665 0
M  V30 3907 C 390.123 6.35966 0.427327 0
M  V30 3908 C 387.81 6.02384 1.02841 0
M  V30 3909 C 388.808 6.81417 0.464713 0
M  V30 3910 O 388.496 8.03881 -0.0555283 0
M  V30 3911 H 388.228 0.59579 0.319391 0
M  V30 3912 H 390.782 2.02401 0.349712 0
M  V30 3913 H 389.012 2.63506 2.83022 0
M  V30 3914 H 390.701 3.03252 2.69802 0
M  V30 3915 H 391.467 4.76264 0.916407 0
M  V30 3916 H 387.346 4.16085 1.9848 0
M  V30 3917 H 390.89 6.97599 -0.0133062 0
M  V30 3918 H 386.787 6.36723 1.06084 0
M  V30 3919 H 387.555 8.18479 0.0580522 0
M  V30 3920 N 390.218 -0.567019 1.47046 0
M  V30 3921 C 391.634 -0.891975 1.32348 0
M  V30 3922 C 391.834 -1.99154 0.306616 0
M  V30 3923 O 390.89 -2.50883 -0.28532 0
M  V30 3924 C 392.203 -1.29449 2.7141 0
M  V30 3925 C 393.751 -1.40646 2.79621 0
M  V30 3926 C 394.226 -1.84257 4.19301 0
M  V30 3927 N 395.717 -1.91424 4.21795 0
M  V30 3928 C 396.452 -2.26476 5.26779 0
M  V30 3929 N 395.948 -2.60211 6.42077 0
M  V30 3930 N 397.741 -2.27166 5.14152 0
M  V30 3931 H 389.892 0.159074 2.11803 0
M  V30 3932 H 392.155 0.00849752 0.947962 0
M  V30 3933 H 391.861 -0.560448 3.47206 0
M  V30 3934 H 391.735 -2.25273 3.02542 0
M  V30 3935 H 394.122 -2.13133 2.04104 0
M  V30 3936 H 394.203 -0.430339 2.52154 0
M  V30 3937 H 393.847 -1.12343 4.95319 0
M  V30 3938 H 393.777 -2.82855 4.44185 0
M  V30 3939 H 396.268 -1.6778 3.38612 0
M  V30 3940 H 396.581 -2.85956 7.17948 0
M  V30 3941 H 394.926 -2.57813 6.45413 0
M  V30 3942 H 398.117 -2.00244 4.23107 0
M  V30 3943 H 398.29 -2.54154 5.96079 0
M  V30 3944 N 391.696 -1.35014 -0.812953 0
M  V30 3945 C 392.944 -1.27678 -1.56661 0
M  V30 3946 C 393.265 0.150359 -1.94419 0
M  V30 3947 O 392.535 1.08532 -1.63088 0
M  V30 3948 H 391.115 -0.469602 -0.580933 0
M  V30 3949 H 393.777 -1.69043 -0.970076 0
M  V30 3950 H 392.873 -1.88833 -2.48492 0
M  V30 3951 N 393.175 1.03435 -1.18907 0
M  V30 3952 C 394.403 1.80381 -1.01342 0
M  V30 3953 C 394.818 1.83649 0.438005 0
M  V30 3954 O 394.175 1.27655 1.30424 0
M  V30 3955 C 394.226 3.25689 -1.56873 0
M  V30 3956 O 393.947 3.22673 -2.96334 0
M  V30 3957 C 395.448 4.19255 -1.44014 0
M  V30 3958 H 392.668 0.56784 -0.35749 0
M  V30 3959 H 395.212 1.30317 -1.576 0
M  V30 3960 H 393.367 3.72962 -1.04777 0
M  V30 3961 H 393.781 4.13748 -3.22355 0
M  V30 3962 H 395.255 5.19123 -1.87657 0
M  V30 3963 H 395.732 4.37467 -0.389815 0
M  V30 3964 H 396.338 3.77851 -1.95214 0
M  V30 3965 N 394.653 0.992116 1.22453 0
M  V30 3966 C 395.883 0.684949 1.94915 0
M  V30 3967 C 396.291 -0.754292 1.73514 0
M  V30 3968 O 395.634 -1.52056 1.03076 0
M  V30 3969 C 395.696 0.910054 3.47791 0
M  V30 3970 C 395.36 2.33363 3.92926 0
M  V30 3971 C 396.357 3.31308 4.00663 0
M  V30 3972 C 394.042 2.66785 4.25595 0
M  V30 3973 C 396.036 4.6075 4.40441 0
M  V30 3974 C 393.723 3.96446 4.65053 0
M  V30 3975 C 394.721 4.9324 4.72444 0
M  V30 3976 O 394.409 6.20584 5.1101 0
M  V30 3977 H 394.141 0.25258 0.62704 0
M  V30 3978 H 396.695 1.32939 1.56577 0
M  V30 3979 H 394.925 0.208443 3.86138 0
M  V30 3980 H 396.614 0.598257 4.01467 0
M  V30 3981 H 397.38 3.0682 3.75615 0
M  V30 3982 H 393.259 1.92148 4.19047 0
M  V30 3983 H 396.803 5.363 4.46126 0
M  V30 3984 H 392.7 4.20724 4.89552 0
M  V30 3985 H 393.468 6.24509 5.29085 0
M  V30 3986 N 396.131 -1.37776 0.765217 0
M  V30 3987 C 397.356 -2.04651 0.336537 0
M  V30 3988 C 397.781 -1.57337 -1.03086 0
M  V30 3989 O 397.139 -0.730621 -1.65927 0
M  V30 3990 C 397.187 -3.58577 0.381468 0
M  V30 3991 O 396.291 -4.07706 -0.62042 0
M  V30 3992 H 395.632 -0.64756 0.146838 0
M  V30 3993 H 398.162 -1.76221 1.03959 0
M  V30 3994 H 398.172 -4.07314 0.236448 0
M  V30 3995 H 396.847 -3.9237 1.37907 0
M  V30 3996 H 395.424 -3.70306 -0.439056 0
M  V30 3997 N 397.609 -0.515225 -1.4894 0
M  V30 3998 C 398.837 0.0206034 -2.0689 0
M  V30 3999 C 399.252 1.29514 -1.37374 0
M  V30 4000 O 398.609 1.76698 -0.456529 0
M  V30 4001 C 398.66 0.26351 -3.60538 0
M  V30 4002 O 398.381 -0.960517 -4.27441 0
M  V30 4003 C 399.882 0.841383 -4.35242 0
M  V30 4004 H 397.102 -0.0268608 -0.670462 0
M  V30 4005 H 399.646 -0.716651 -1.91532 0
M  V30 4006 H 397.801 0.950777 -3.75552 0
M  V30 4007 H 398.215 -0.73212 -5.19365 0
M  V30 4008 H 399.689 0.96085 -5.43573 0
M  V30 4009 H 400.166 1.8427 -3.98674 0
M  V30 4010 H 400.772 0.191143 -4.2487 0
M  V30 4011 N 399.087 1.5561 -0.249682 0
M  V30 4012 C 400.315 2.03411 0.378352 0
M  V30 4013 C 400.73 1.12886 1.51335 0
M  V30 4014 O 400.087 0.143833 1.81932 0
M  V30 4015 C 400.138 3.50537 0.88351 0
M  V30 4016 O 399.859 4.37614 -0.20626 0
M  V30 4017 C 401.36 4.14113 1.58195 0
M  V30 4018 H 398.58 0.664994 0.08958 0
M  V30 4019 H 401.124 2.01044 -0.374357 0
M  V30 4020 H 399.279 3.5343 1.58639 0
M  V30 4021 H 399.693 5.24199 0.177782 0
M  V30 4022 H 401.167 5.18741 1.8871 0
M  V30 4023 H 401.644 3.60767 2.50487 0
M  V30 4024 H 402.25 4.15151 0.923573 0
M  V30 4025 N 400.565 -0.0233959 1.57583 0
M  V30 4026 C 401.811 -0.714119 1.89811 0
M  V30 4027 C 402.144 -1.74702 0.848113 0
M  V30 4028 O 401.419 -1.94023 -0.136135 0
M  V30 4029 C 401.702 -1.37853 3.32669 0
M  V30 4030 C 401.555 -0.358764 4.48367 0
M  V30 4031 C 402.874 -2.31101 3.7454 0
M  V30 4032 H 399.993 -0.25814 0.690314 0
M  V30 4033 H 402.635 0.0230927 1.89986 0
M  V30 4034 H 400.785 -2.00689 3.3265 0
M  V30 4035 H 402.457 0.268115 4.6052 0
M  V30 4036 H 400.7 0.321387 4.32608 0
M  V30 4037 H 401.371 -0.862242 5.45224 0
M  V30 4038 H 403.847 -1.78304 3.75961 0
M  V30 4039 H 402.723 -2.74567 4.75294 0
M  V30 4040 H 402.984 -3.18018 3.0711 0
M  V30 4041 N 402.043 -1.548 -0.295768 0
M  V30 4042 C 403.271 -1.78327 -1.04914 0
M  V30 4043 C 403.686 -0.545316 -1.80753 0
M  V30 4044 O 403.043 0.485013 -1.75937 0
M  V30 4045 C 403.094 -2.99418 -2.02561 0
M  V30 4046 O 402.815 -4.18431 -1.29798 0
M  V30 4047 C 404.316 -3.35375 -2.89895 0
M  V30 4048 H 401.536 -0.594618 -0.310918 0
M  V30 4049 H 404.08 -2.01763 -0.333454 0
M  V30 4050 H 402.235 -2.78175 -2.69624 0
M  V30 4051 H 402.649 -4.86736 -1.95419 0
M  V30 4052 H 404.123 -4.23332 -3.54251 0
M  V30 4053 H 404.6 -2.53761 -3.58472 0
M  V30 4054 H 405.206 -3.58796 -2.28355 0
M  V30 4055 N 403.521 0.559213 -1.47345 0
M  V30 4056 C 404.769 1.31388 -1.53563 0
M  V30 4057 C 405.09 1.93985 -0.198678 0
M  V30 4058 O 404.36 1.79825 0.777167 0
M  V30 4059 H 402.94 0.487901 -0.565652 0
M  V30 4060 H 405.602 0.65315 -1.8363 0
M  V30 4061 H 404.698 2.10844 -2.30111 0
M  V30 4062 N 404.999 1.35443 0.805782 0
M  V30 4063 C 406.415 1.15499 1.10146 0
M  V30 4064 C 406.615 -0.0319975 2.01475 0
M  V30 4065 O 405.671 -0.70236 2.42535 0
M  V30 4066 C 406.984 2.45833 1.73166 0
M  V30 4067 C 408.532 2.52047 1.85583 0
M  V30 4068 C 409.007 3.82427 2.52019 0
M  V30 4069 N 410.498 3.83682 2.59504 0
M  V30 4070 C 411.233 4.81294 3.11679 0
M  V30 4071 N 410.729 5.89294 3.64287 0
M  V30 4072 N 412.522 4.6873 3.1024 0
M  V30 4073 H 404.673 2.11469 0.198678 0
M  V30 4074 H 406.936 0.93594 0.150731 0
M  V30 4075 H 406.642 3.32874 1.13526 0
M  V30 4076 H 406.516 2.6044 2.72857 0
M  V30 4077 H 408.903 1.65435 2.44367 0
M  V30 4078 H 408.984 2.41354 0.847455 0
M  V30 4079 H 408.628 4.69437 1.93885 0
M  V30 4080 H 408.558 3.90409 3.53395 0
M  V30 4081 H 411.049 3.05648 2.22234 0
M  V30 4082 H 411.362 6.59768 4.02401 0
M  V30 4083 H 409.707 5.92985 3.62483 0
M  V30 4084 H 412.898 3.83496 2.68419 0
M  V30 4085 H 413.071 5.44965 3.50596 0
M  V30 4086 N 406.477 -1.02803 1.19454 0
M  V30 4087 C 407.705 -1.79841 1.02297 0
M  V30 4088 C 408.12 -1.83879 -0.428259 0
M  V30 4089 O 407.477 -1.28345 -1.29745 0
M  V30 4090 C 407.528 -3.24852 1.58598 0
M  V30 4091 O 407.249 -3.21097 2.98041 0
M  V30 4092 C 408.75 -4.18485 1.46236 0
M  V30 4093 H 405.97 -0.565936 0.360496 0
M  V30 4094 H 408.514 -1.2948 1.58288 0
M  V30 4095 H 406.669 -3.72401 1.06753 0
M  V30 4096 H 407.083 -4.12033 3.24545 0
M  V30 4097 H 408.557 -5.18121 1.90407 0
M  V30 4098 H 409.034 -4.37254 0.41301 0
M  V30 4099 H 409.64 -3.76811 1.97215 0
M  V30 4100 N 407.956 -0.998596 -1.21925 0
M  V30 4101 C 409.196 -0.685948 -1.92546 0
M  V30 4102 C 409.56 0.768441 -1.75952 0
M  V30 4103 O 410.761 1.19277 -2.40887 0
M  V30 4104 C 409.032 -1.08767 -3.40448 0
M  V30 4105 S 410.591 -0.894251 -4.29591 0
M  V30 4106 H 407.409 -0.250622 -0.665364 0
M  V30 4107 H 410.011 -1.28207 -1.47591 0
M  V30 4108 H 408.715 -2.14242 -3.50041 0
M  V30 4109 H 408.246 -0.48357 -3.90417 0
M  V30 4110 H 410.261 0.212149 -4.95746 0
M  V30 4111 N 409.434 1.37368 -0.772513 0
M  V30 4112 C 410.366 2.28899 -0.117502 0
M  V30 4113 C 411.379 1.4867 0.663405 0
M  V30 4114 O 412.568 1.71314 0.501372 0
M  V30 4115 C 409.668 3.2788 0.857192 0
M  V30 4116 C 408.841 4.37207 0.129938 0
M  V30 4117 C 407.9 5.16257 1.01811 0
M  V30 4118 O 406.926 5.67159 0.481601 0
M  V30 4119 N 408.128 5.31058 2.3443 0
M  V30 4120 H 410.893 2.85752 -0.903662 0
M  V30 4121 H 408.454 1.49353 -0.62493 0
M  V30 4122 H 410.446 3.77647 1.45482 0
M  V30 4123 H 409.016 2.7179 1.54432 0
M  V30 4124 H 408.236 3.88827 -0.648605 0
M  V30 4125 H 409.524 5.07434 -0.372559 0
M  V30 4126 H 408.922 4.91287 2.80452 0
M  V30 4127 H 407.479 5.84131 2.89197 0
M  V30 4128 N 410.912 0.523116 1.48665 0
M  V30 4129 C 411.875 -0.232592 2.28017 0
M  V30 4130 C 412.875 -0.874021 1.34972 0
M  V30 4131 O 414.065 -0.735132 1.57929 0
M  V30 4132 C 411.197 -1.33586 3.13636 0
M  V30 4133 H 412.39 0.464008 2.96289 0
M  V30 4134 H 409.943 0.278816 1.53793 0
M  V30 4135 H 410.678 -2.06593 2.4998 0
M  V30 4136 H 410.463 -0.881125 3.82071 0
M  V30 4137 H 411.953 -1.86759 3.73511 0
M  V30 4138 N 412.39 -1.55475 0.257931 0
M  V30 4139 C 413.636 -2.00237 -0.357338 0
M  V30 4140 C 413.991 -1.14313 -1.54759 0
M  V30 4141 O 413.284 -0.201187 -1.90541 0
M  V30 4142 C 413.478 -3.48183 -0.806433 0
M  V30 4143 C 413.307 -4.48422 0.338758 0
M  V30 4144 C 412.077 -4.98651 0.817011 0
M  V30 4145 C 414.275 -5.00827 1.16949 0
M  V30 4146 N 412.257 -5.82658 1.93346 0
M  V30 4147 C 413.628 -5.82113 2.13413 0
M  V30 4148 C 415.683 -4.83104 1.2048 0
M  V30 4149 C 414.386 -6.47566 3.13131 0
M  V30 4150 C 416.412 -5.49343 2.19034 0
M  V30 4151 C 415.774 -6.30427 3.14232 0
M  V30 4152 H 411.873 -0.776034 -0.0964083 0
M  V30 4153 H 414.457 -1.90995 0.37803 0
M  V30 4154 H 412.628 -3.57801 -1.51107 0
M  V30 4155 H 414.36 -3.79802 -1.39758 0
M  V30 4156 H 411.115 -4.71914 0.39925 0
M  V30 4157 H 411.539 -6.29356 2.49478 0
M  V30 4158 H 416.181 -4.20036 0.482634 0
M  V30 4159 H 413.899 -7.09793 3.8629 0
M  V30 4160 H 417.485 -5.37579 2.22485 0
M  V30 4161 H 416.365 -6.80777 3.89246 0
M  V30 4162 N 413.868 0.0150385 -1.57593 0
M  V30 4163 C 415.093 0.718067 -1.94573 0
M  V30 4164 C 415.518 1.6734 -0.859005 0
M  V30 4165 O 414.876 1.80362 0.184147 0
M  V30 4166 C 414.924 1.43918 -3.30636 0
M  V30 4167 O 414.028 2.55299 -3.23876 0
M  V30 4168 H 413.369 0.192125 -0.635597 0
M  V30 4169 H 415.899 -0.0336708 -2.04572 0
M  V30 4170 H 415.909 1.80598 -3.65853 0
M  V30 4171 H 414.584 0.738619 -4.09289 0
M  V30 4172 H 413.161 2.21058 -3.00312 0
M  V30 4173 N 415.346 1.54954 0.287554 0
M  V30 4174 C 416.571 1.79209 1.04397 0
M  V30 4175 C 416.996 0.556431 1.79682 0
M  V30 4176 O 416.354 -0.493518 1.74454 0
M  V30 4177 C 416.402 3.00739 1.98969 0
M  V30 4178 O 415.506 2.74805 3.075 0
M  V30 4179 H 414.847 0.592755 0.299227 0
M  V30 4180 H 417.377 2.02068 0.320886 0
M  V30 4181 H 417.387 3.29077 2.4119 0
M  V30 4182 H 416.062 3.90329 1.43582 0
M  V30 4183 H 414.639 2.57523 2.69697 0
M  V30 4184 N 416.824 -0.551391 1.4764 0
M  V30 4185 C 417.757 -1.6738 1.5511 0
M  V30 4186 C 418.735 -1.5753 0.402856 0
M  V30 4187 O 419.919 -1.78307 0.611475 0
M  V30 4188 C 417.046 -3.05661 1.45908 0
M  V30 4189 C 416.092 -3.33938 2.65307 0
M  V30 4190 S 416.925 -3.22553 4.27457 0
M  V30 4191 C 418.081 -4.63317 4.20818 0
M  V30 4192 H 418.314 -1.6079 2.50068 0
M  V30 4193 H 415.847 -0.732674 1.35909 0
M  V30 4194 H 417.805 -3.8542 1.41286 0
M  V30 4195 H 416.466 -3.09711 0.523248 0
M  V30 4196 H 415.659 -4.34761 2.54948 0
M  V30 4197 H 415.261 -2.61809 2.67081 0
M  V30 4198 H 417.553 -5.54391 3.89431 0
M  V30 4199 H 418.496 -4.78732 5.21748 0
M  V30 4200 H 418.904 -4.41636 3.51593 0
M  V30 4201 N 418.302 -1.35869 -0.798587 0
M  V30 4202 C 419.53 -1.32722 -1.58722 0
M  V30 4203 C 419.945 0.0935631 -1.88568 0
M  V30 4204 O 419.302 1.04784 -1.49421 0
M  V30 4205 C 419.353 -2.13974 -2.91371 0
M  V30 4206 O 419.074 -3.50514 -2.62815 0
M  V30 4207 C 420.575 -2.18504 -3.85708 0
M  V30 4208 H 417.795 -0.45562 -0.492596 0
M  V30 4209 H 420.339 -1.78837 -0.991843 0
M  V30 4210 H 418.494 -1.71438 -3.47402 0
M  V30 4211 H 418.908 -3.92806 -3.47568 0
M  V30 4212 H 420.382 -2.79732 -4.75872 0
M  V30 4213 H 420.859 -1.18597 -4.22885 0
M  V30 4214 H 421.465 -2.61236 -3.35612 0
M  V30 4215 N 419.78 1.02168 -1.19998 0
M  V30 4216 C 421.191 1.57135 -1.00825 0
M  V30 4217 C 421.542 1.91276 0.436818 0
M  V30 4218 O 420.667 1.71679 1.3174 0
M  V30 4219 C 421.262 2.85514 -1.82393 0
M  V30 4220 C 419.821 3.37027 -1.67601 0
M  V30 4221 C 418.968 2.10388 -1.80644 0
M  V30 4222 H 421.919 0.846106 -1.34264 0
M  V30 4223 H 421.94 3.56711 -1.32429 0
M  V30 4224 H 421.452 2.60634 -2.87561 0
M  V30 4225 H 419.553 3.66878 -0.650485 0
M  V30 4226 H 419.666 4.09572 -2.4857 0
M  V30 4227 H 418.03 2.22601 -1.23778 0
M  V30 4228 H 418.813 1.8794 -2.87286 0
M  V30 4229 N 421.258 1.00505 1.21394 0
M  V30 4230 C 422.208 0.536503 2.21598 0
M  V30 4231 C 423.192 -0.401914 1.55799 0
M  V30 4232 O 424.384 -0.226757 1.75541 0
M  V30 4233 C 421.513 -0.135446 3.43033 0
M  V30 4234 C 420.599 0.823992 4.16018 0
M  V30 4235 N 420.99 1.97683 4.6557 0
M  V30 4236 C 419.288 0.642387 4.4135 0
M  V30 4237 C 419.989 2.58003 5.21354 0
M  V30 4238 N 418.965 1.86162 5.1073 0
M  V30 4239 H 422.767 1.41557 2.57563 0
M  V30 4240 H 420.281 0.868878 1.37202 0
M  V30 4241 H 422.278 -0.488584 4.14027 0
M  V30 4242 H 420.938 -1.01049 3.08576 0
M  V30 4243 H 421.949 2.3572 4.61147 0
M  V30 4244 H 418.626 -0.185578 4.17087 0
M  V30 4245 H 420.016 3.555 5.70149 0
M  V30 4246 N 422.737 -1.36956 0.779787 0
M  V30 4247 C 423.962 -2.04283 0.358224 0
M  V30 4248 C 424.387 -1.58422 -1.01411 0
M  V30 4249 O 423.745 -0.748179 -1.65142 0
M  V30 4250 C 423.793 -3.58152 0.419479 0
M  V30 4251 O 422.897 -4.08342 -0.577142 0
M  V30 4252 H 422.238 -0.645967 0.153698 0
M  V30 4253 H 424.768 -1.75108 1.05822 0
M  V30 4254 H 424.778 -4.07041 0.279636 0
M  V30 4255 H 423.453 -3.90886 1.42061 0
M  V30 4256 H 422.03 -3.70751 -0.399755 0
M  V30 4257 N 424.215 -0.530993 -1.48385 0
M  V30 4258 C 425.165 0.251092 -2.26613 0
M  V30 4259 C 426.149 0.908977 -1.32765 0
M  V30 4260 O 427.341 0.811616 -1.57295 0
M  V30 4261 C 424.47 1.29677 -3.17866 0
M  V30 4262 C 423.556 0.643627 -4.19188 0
M  V30 4263 N 423.947 -0.271223 -5.05072 0
M  V30 4264 C 422.245 0.900711 -4.3681 0
M  V30 4265 C 422.946 -0.648109 -5.78078 0
M  V30 4266 N 421.922 -0.00895987 -5.43599 0
M  V30 4267 H 425.724 -0.452702 -2.90393 0
M  V30 4268 H 423.238 -0.349091 -1.58604 0
M  V30 4269 H 425.235 1.87079 -3.72568 0
M  V30 4270 H 423.895 2.00193 -2.55642 0
M  V30 4271 H 424.906 -0.643883 -5.13882 0
M  V30 4272 H 421.583 1.59636 -3.85775 0
M  V30 4273 H 422.973 -1.39833 -6.57188 0
M  V30 4274 N 425.693 1.55336 -0.266172 0
M  V30 4275 C 426.918 2.04258 0.359661 0
M  V30 4276 C 427.343 1.14359 1.49344 0
M  V30 4277 O 426.701 0.140369 1.80756 0
M  V30 4278 C 426.749 3.50997 0.826635 0
M  V30 4279 O 425.853 3.64204 1.93466 0
M  V30 4280 H 425.194 0.659668 0.075727 0
M  V30 4281 H 427.724 2.00694 -0.39786 0
M  V30 4282 H 427.734 3.9219 1.12477 0
M  V30 4283 H 426.409 4.159 -0.00293032 0
M  V30 4284 H 424.986 3.34913 1.63974 0
M  V30 4285 N 427.171 -0.0066808 1.57599 0
M  V30 4286 C 428.587 -0.36267 1.55425 0
M  V30 4287 C 428.787 -1.75209 0.995187 0
M  V30 4288 O 427.843 -2.44616 0.626058 0
M  V30 4289 C 429.156 -0.244017 2.99708 0
M  V30 4290 C 430.704 -0.319451 3.11366 0
M  V30 4291 C 431.179 -0.229998 4.57422 0
M  V30 4292 N 432.67 -0.288105 4.62303 0
M  V30 4293 C 433.405 -0.242127 5.72889 0
M  V30 4294 N 432.901 -0.147133 6.92644 0
M  V30 4295 N 434.694 -0.293502 5.61333 0
M  V30 4296 H 426.845 0.902314 1.92281 0
M  V30 4297 H 429.108 0.34525 0.882896 0
M  V30 4298 H 428.814 0.711678 3.44424 0
M  V30 4299 H 428.688 -1.02877 3.629 0
M  V30 4300 H 431.075 -1.26559 2.66584 0
M  V30 4301 H 431.156 0.495055 2.50964 0
M  V30 4302 H 430.8 0.712566 5.02877 0
M  V30 4303 H 430.73 -1.0629 5.15761 0
M  V30 4304 H 433.221 -0.363126 3.76151 0
M  V30 4305 H 433.534 -0.117763 7.7271 0
M  V30 4306 H 431.879 -0.112857 6.94908 0
M  V30 4307 H 435.07 -0.365864 4.66668 0
M  V30 4308 H 435.243 -0.254204 6.47501 0
M  V30 4309 N 428.649 -1.55105 -0.279332 0
M  V30 4310 C 429.877 -1.7943 -1.03017 0
M  V30 4311 C 430.292 -0.564456 -1.80165 0
M  V30 4312 O 429.649 0.466326 -1.76442 0
M  V30 4313 C 429.7 -3.0155 -1.99374 0
M  V30 4314 O 429.421 -4.19784 -1.25352 0
M  V30 4315 C 430.922 -3.3843 -2.86321 0
M  V30 4316 H 428.142 -0.597882 -0.304594 0
M  V30 4317 H 430.686 -2.02105 -0.312035 0
M  V30 4318 H 428.841 -2.81019 -2.66659 0
M  V30 4319 H 429.255 -4.88781 -1.90246 0
M  V30 4320 H 430.729 -4.27066 -3.49741 0
M  V30 4321 H 431.206 -2.57549 -3.5576 0
M  V30 4322 H 431.812 -3.61197 -2.24536 0
M  V30 4323 N 430.127 0.543554 -1.4793 0
M  V30 4324 C 431.538 1.12561 -1.48953 0
M  V30 4325 C 431.889 1.94578 -0.251754 0
M  V30 4326 O 431.014 2.0665 0.642255 0
M  V30 4327 C 431.609 2.04801 -2.69892 0
M  V30 4328 C 430.168 2.58251 -2.73831 0
M  V30 4329 C 429.315 1.34918 -2.42265 0
M  V30 4330 H 432.266 0.32947 -1.55242 0
M  V30 4331 H 432.287 2.88886 -2.47639 0
M  V30 4332 H 431.799 1.4508 -3.59963 0
M  V30 4333 H 429.9 3.21732 -1.87934 0
M  V30 4334 H 430.013 2.98312 -3.74895 0
M  V30 4335 H 428.377 1.66046 -1.93134 0
M  V30 4336 H 429.16 0.769693 -3.3456 0
M  V30 4337 N 431.605 1.3629 0.791371 0
M  V30 4338 C 432.515 1.32606 1.93527 0
M  V30 4339 C 433.531 0.228541 1.72493 0
M  V30 4340 O 434.707 0.460571 1.96063 0
M  V30 4341 C 431.772 1.11271 3.28359 0
M  V30 4342 C 430.833 2.3048 3.62185 0
M  V30 4343 C 430.066 2.10154 4.90583 0
M  V30 4344 O 430.289 1.07572 5.60165 0
M  V30 4345 O 429.223 2.97884 5.23019 0
M  V30 4346 H 433.049 2.28909 1.99585 0
M  V30 4347 H 430.634 1.16818 0.931344 0
M  V30 4348 H 432.516 1.01283 4.09047 0
M  V30 4349 H 431.191 0.180292 3.23198 0
M  V30 4350 H 430.098 2.46036 2.81811 0
M  V30 4351 H 431.431 3.22221 3.72068 0
M  V30 4352 N 433.083 -1.0153 1.20538 0
M  V30 4353 C 434.313 -1.78487 1.04048 0
M  V30 4354 C 434.721 -1.84631 -0.413292 0
M  V30 4355 O 434.064 -1.29919 -1.29872 0
M  V30 4356 C 434.126 -3.24367 1.55003 0
M  V30 4357 C 433.79 -3.41827 3.0332 0
M  V30 4358 C 434.787 -3.30941 4.00966 0
M  V30 4359 C 432.472 -3.67602 3.42307 0
M  V30 4360 C 434.466 -3.45577 5.35589 0
M  V30 4361 C 432.153 -3.81881 4.77085 0
M  V30 4362 C 433.151 -3.70874 5.73534 0
M  V30 4363 O 432.839 -3.84714 7.05868 0
M  V30 4364 H 432.571 -0.568108 0.366373 0
M  V30 4365 H 435.125 -1.28677 1.60098 0
M  V30 4366 H 433.355 -3.75266 0.933397 0
M  V30 4367 H 435.044 -3.82963 1.34514 0
M  V30 4368 H 435.81 -3.10964 3.72191 0
M  V30 4369 H 431.689 -3.75256 2.67776 0
M  V30 4370 H 435.233 -3.36902 6.10854 0
M  V30 4371 H 431.13 -4.01359 5.0555 0
M  V30 4372 H 431.898 -4.01724 7.13134 0
M  V30 4373 N 434.561 -1.01147 -1.20859 0
M  V30 4374 C 435.791 -0.715872 -1.93801 0
M  V30 4375 C 436.199 0.726592 -1.74692 0
M  V30 4376 O 435.542 1.50397 -1.05482 0
M  V30 4377 C 435.604 -0.965269 -3.46299 0
M  V30 4378 C 435.268 -2.39584 -3.89164 0
M  V30 4379 C 436.265 -3.3764 -3.95342 0
M  V30 4380 C 433.95 -2.73522 -4.21297 0
M  V30 4381 C 435.944 -4.67698 -4.33056 0
M  V30 4382 C 433.631 -4.03794 -4.58687 0
M  V30 4383 C 434.629 -5.00693 -4.64538 0
M  V30 4384 O 434.317 -6.28635 -5.01072 0
M  V30 4385 H 434.049 -0.262524 -0.622942 0
M  V30 4386 H 436.603 -1.35413 -1.54443 0
M  V30 4387 H 434.833 -0.269847 -3.85757 0
M  V30 4388 H 436.522 -0.662051 -4.00464 0
M  V30 4389 H 437.288 -3.12757 -3.70686 0
M  V30 4390 H 433.167 -1.9879 -4.15937 0
M  V30 4391 H 436.711 -5.4333 -4.37537 0
M  V30 4392 H 432.608 -4.28459 -4.82797 0
M  V30 4393 H 433.376 -6.32847 -5.19083 0
M  V30 4394 N 436.039 1.36541 -0.78704 0
M  V30 4395 C 437.45 1.81873 -0.421807 0
M  V30 4396 C 437.801 1.65487 1.05397 0
M  V30 4397 O 436.926 1.17448 1.81755 0
M  V30 4398 C 437.521 3.30192 -0.758841 0
M  V30 4399 C 436.08 3.73743 -0.446468 0
M  V30 4400 C 435.227 2.58844 -0.994728 0
M  V30 4401 H 438.178 1.24796 -0.98039 0
M  V30 4402 H 438.199 3.80468 -0.0490648 0
M  V30 4403 H 437.711 3.42087 -1.83299 0
M  V30 4404 H 435.812 3.6741 0.619739 0
M  V30 4405 H 435.925 4.69272 -0.965415 0
M  V30 4406 H 434.289 2.51245 -0.418087 0
M  V30 4407 H 435.072 2.73525 -2.07458 0
M  V30 4408 N 437.518 0.538854 1.48102 0
M  V30 4409 C 438.466 -0.232325 2.31437 0
M  V30 4410 C 439.46 -0.927004 1.41785 0
M  V30 4411 O 440.666 -0.850378 1.58646 0
M  V30 4412 H 437.041 -0.0937916 0.746128 0
M  V30 4413 H 439.012 0.489986 2.9435 0
M  V30 4414 C 437.761 -1.26074 3.24038 0
M  V30 4415 H 437.084 -0.735609 3.92974 0
M  V30 4416 H 438.524 -1.77157 3.85216 0
M  V30 4417 C 436.983 -2.29902 2.46265 0
M  V30 4418 O 437.513 -3.36502 2.19384 0
M  V30 4419 N 435.719 -2.03348 2.07601 0
M  V30 4420 H 435.266 -1.16675 2.29662 0
M  V30 4421 H 435.224 -2.73038 1.55877 0
M  V30 4422 N 438.996 -1.55193 0.274407 0
M  V30 4423 C 439.959 -2.212 -0.600279 0
M  V30 4424 C 440.959 -1.18963 -1.08187 0
M  V30 4425 O 442.149 -1.43873 -0.982158 0
M  V30 4426 C 439.281 -2.87739 -1.82809 0
M  V30 4427 H 440.474 -2.9989 -0.0239682 0
M  V30 4428 H 438.027 -1.5628 0.0250192 0
M  V30 4429 H 438.762 -2.13058 -2.44493 0
M  V30 4430 H 438.547 -3.62658 -1.49069 0
M  V30 4431 H 440.037 -3.38171 -2.45011 0
M  V30 4432 N 440.474 -0.00167713 -1.576 0
M  V30 4433 C 441.722 0.681471 -1.90264 0
M  V30 4434 C 442.043 1.7422 -0.875924 0
M  V30 4435 O 441.313 1.95709 0.0864412 0
M  V30 4436 H 439.893 0.254696 -0.702239 0
M  V30 4437 H 442.555 -0.0429996 -1.94853 0
M  V30 4438 H 441.651 1.15166 -2.90075 0
M  V30 4439 N 441.952 1.55251 0.271103 0
M  V30 4440 C 442.882 1.9127 1.33933 0
M  V30 4441 C 443.863 0.77478 1.5143 0
M  V30 4442 O 445.048 1.03307 1.64442 0
M  V30 4443 C 442.178 2.18627 2.69851 0
M  V30 4444 C 441.132 3.34442 2.67081 0
M  V30 4445 C 440.458 3.47284 4.06569 0
M  V30 4446 C 441.758 4.70784 2.26185 0
M  V30 4447 H 443.452 2.80744 1.04035 0
M  V30 4448 H 440.998 1.35077 0.499017 0
M  V30 4449 H 442.951 2.42413 3.44694 0
M  V30 4450 H 441.675 1.25955 3.01335 0
M  V30 4451 H 440.334 3.10627 1.94695 0
M  V30 4452 H 439.982 2.52074 4.35279 0
M  V30 4453 H 439.682 4.25152 4.0561 0
M  V30 4454 H 441.206 3.73363 4.83148 0
M  V30 4455 H 442.62 4.94102 2.90751 0
M  V30 4456 H 441.017 5.51582 2.36384 0
M  V30 4457 H 442.087 4.69478 1.21319 0
M  V30 4458 N 443.43 -0.535701 1.48216 0
M  V30 4459 C 444.679 -1.28828 1.55197 0
M  V30 4460 C 444.992 -1.94263 0.228278 0
M  V30 4461 O 446.198 -2.70927 0.176278 0
M  V30 4462 C 444.654 -2.33727 2.73678 0
M  V30 4463 C 444.262 -1.74386 4.12666 0
M  V30 4464 C 446.006 -3.1003 2.89968 0
M  V30 4465 C 443.913 -2.77192 5.22416 0
M  V30 4466 H 442.843 -0.484484 0.577747 0
M  V30 4467 H 445.494 -0.56646 1.74538 0
M  V30 4468 H 443.876 -3.08919 2.4776 0
M  V30 4469 H 445.05 -1.05421 4.48579 0
M  V30 4470 H 443.365 -1.10595 4.01445 0
M  V30 4471 H 445.962 -3.86842 3.6913 0
M  V30 4472 H 446.305 -3.65542 1.9921 0
M  V30 4473 H 446.838 -2.41952 3.15759 0
M  V30 4474 H 443.577 -2.26507 6.15122 0
M  V30 4475 H 443.097 -3.44502 4.90998 0
M  V30 4476 H 444.776 -3.40285 5.50286 0
M  V30 4477 N 444.908 -1.36708 -0.784132 0
M  V30 4478 C 445.841 -1.25827 -1.90375 0
M  V30 4479 C 446.819 -0.141331 -1.61985 0
M  V30 4480 O 448.003 -0.313389 -1.85877 0
M  V30 4481 C 445.13 -0.942621 -3.25319 0
M  V30 4482 C 444.176 -2.07474 -3.72635 0
M  V30 4483 S 445.009 -3.69317 -3.8777 0
M  V30 4484 C 446.165 -3.39876 -5.25581 0
M  V30 4485 H 446.398 -2.20593 -1.99314 0
M  V30 4486 H 443.931 -1.22186 -0.943926 0
M  V30 4487 H 445.889 -0.767321 -4.03265 0
M  V30 4488 H 444.55 -0.0126566 -3.14097 0
M  V30 4489 H 443.743 -1.80858 -4.70432 0
M  V30 4490 H 443.345 -2.20953 -3.01754 0
M  V30 4491 H 445.637 -2.94097 -6.10339 0
M  V30 4492 H 446.58 -4.36956 -5.57203 0
M  V30 4493 H 446.988 -2.75098 -4.92931 0
M  V30 4494 N 446.386 1.0089 -1.21074 0
M  V30 4495 C 447.334 2.11707 -0.963476 0
M  V30 4496 C 448.328 1.69172 0.0879032 0
M  V30 4497 O 449.534 1.79889 -0.0631415 0
M  V30 4498 H 445.909 0.692026 -0.294287 0
M  V30 4499 H 447.88 2.29743 -1.90422 0
M  V30 4500 C 446.629 3.43473 -0.540509 0
M  V30 4501 H 445.952 3.76634 -1.34114 0
M  V30 4502 H 447.392 4.22044 -0.406777 0
M  V30 4503 C 445.851 3.2849 0.748079 0
M  V30 4504 O 446.381 3.58883 1.8046 0
M  V30 4505 N 444.587 2.81715 0.713081 0
M  V30 4506 H 444.134 2.5718 -0.146973 0
M  V30 4507 H 444.092 2.72071 1.57558 0
M  V30 4508 N 447.864 1.01787 1.20321 0
M  V30 4509 C 449.094 0.72614 1.93419 0
M  V30 4510 C 449.502 -0.717317 1.75075 0
M  V30 4511 O 448.845 -1.49836 1.06278 0
M  V30 4512 C 448.907 0.983621 3.45782 0
M  V30 4513 C 448.571 2.41645 3.87888 0
M  V30 4514 C 449.568 3.39732 3.93545 0
M  V30 4515 C 447.253 2.75752 4.19841 0
M  V30 4516 C 449.247 4.69988 4.30569 0
M  V30 4517 C 446.934 4.06221 4.56539 0
M  V30 4518 C 447.932 5.0315 4.61876 0
M  V30 4519 O 447.62 6.31284 4.97731 0
M  V30 4520 H 447.352 0.265824 0.621541 0
M  V30 4521 H 449.906 1.3623 1.53722 0
M  V30 4522 H 448.136 0.290301 3.85609 0
M  V30 4523 H 449.825 0.683279 4.00108 0
M  V30 4524 H 450.591 3.14718 3.69022 0
M  V30 4525 H 446.47 2.00993 4.14877 0
M  V30 4526 H 450.014 5.45642 4.3465 0
M  V30 4527 H 445.911 4.31013 4.80518 0
M  V30 4528 H 446.679 6.35591 5.15719 0
M  V30 4529 N 449.342 -1.36122 0.79427 0
M  V30 4530 C 450.582 -2.00942 0.374376 0
M  V30 4531 C 450.946 -1.61666 -1.03577 0
M  V30 4532 O 452.147 -2.19113 -1.55701 0
M  V30 4533 C 450.418 -3.53323 0.538327 0
M  V30 4534 S 451.977 -4.38311 0.20703 0
M  V30 4535 H 448.795 -0.696515 0.142785 0
M  V30 4536 H 451.397 -1.65929 1.03382 0
M  V30 4537 H 450.101 -3.79395 1.56484 0
M  V30 4538 H 449.632 -3.93162 -0.136882 0
M  V30 4539 H 451.647 -4.8623 -0.989695 0
M  V30 4540 N 450.82 -0.546701 -1.47814 0
M  V30 4541 C 452.236 -0.205717 -1.58269 0
M  V30 4542 C 452.436 1.29153 -1.54667 0
M  V30 4543 O 451.492 2.07098 -1.44453 0
M  V30 4544 C 452.805 -0.823065 -2.89216 0
M  V30 4545 C 454.353 -0.793328 -3.02779 0
M  V30 4546 C 454.828 -1.38955 -4.36412 0
M  V30 4547 N 456.319 -1.35227 -4.43021 0
M  V30 4548 C 457.054 -1.78333 -5.44963 0
M  V30 4549 N 456.55 -2.29246 -6.53772 0
M  V30 4550 N 458.343 -1.69467 -5.35945 0
M  V30 4551 H 450.494 -1.5196 -1.48398 0
M  V30 4552 H 452.757 -0.633078 -0.705632 0
M  V30 4553 H 452.463 -1.8749 -2.97558 0
M  V30 4554 H 452.337 -0.309915 -3.75925 0
M  V30 4555 H 454.724 0.249784 -2.94041 0
M  V30 4556 H 454.805 -1.34412 -2.17639 0
M  V30 4557 H 454.449 -2.43168 -4.45906 0
M  V30 4558 H 454.379 -0.814291 -5.20266 0
M  V30 4559 H 456.87 -0.979739 -3.64979 0
M  V30 4560 H 457.183 -2.60089 -7.27718 0
M  V30 4561 H 455.528 -2.3325 -6.5469 0
M  V30 4562 H 458.719 -1.29477 -4.49837 0
M  V30 4563 H 458.892 -2.03381 -6.15256 0
M  V30 4564 N 452.299 1.55045 -0.282633 0
M  V30 4565 C 453.247 2.24254 0.617478 0
M  V30 4566 C 454.241 1.24215 1.15183 0
M  V30 4567 O 455.447 1.42123 1.10459 0
M  V30 4568 H 451.822 0.719801 0.217693 0
M  V30 4569 H 453.793 2.98398 0.0110076 0
M  V30 4570 C 452.542 2.98281 1.78672 0
M  V30 4571 H 451.865 3.75053 1.38475 0
M  V30 4572 H 453.305 3.50017 2.393 0
M  V30 4573 C 451.764 2.04184 2.67975 0
M  V30 4574 O 452.294 1.59792 3.6855 0
M  V30 4575 N 450.5 1.70526 2.35307 0
M  V30 4576 H 450.047 2.06821 1.53567 0
M  V30 4577 H 450.005 1.07839 2.95327 0
M  V30 4578 N 453.777 0.010035 1.57597 0
M  V30 4579 C 455.188 -0.531426 1.78977 0
M  V30 4580 C 455.539 -1.73375 0.918454 0
M  V30 4581 O 454.664 -2.16047 0.123635 0
M  V30 4582 C 455.259 -0.97086 3.24592 0
M  V30 4583 C 453.818 -1.45756 3.47033 0
M  V30 4584 C 452.965 -0.413384 2.74201 0
M  V30 4585 H 455.916 0.236166 1.56933 0
M  V30 4586 H 455.937 -1.83633 3.33255 0
M  V30 4587 H 455.449 -0.0955893 3.87982 0
M  V30 4588 H 453.55 -2.35339 2.88871 0
M  V30 4589 H 453.663 -1.4781 4.55729 0
M  V30 4590 H 452.027 -0.877266 2.39115 0
M  V30 4591 H 452.81 0.453092 3.40297 0
M  V30 4592 N 455.255 -1.55392 -0.262866 0
M  V30 4593 C 456.532 -1.67204 -1.01499 0
M  V30 4594 C 456.912 -0.545186 -2.03939 0
M  V30 4595 O 456.26 0.453467 -2.23955 0
M  V30 4596 C 456.47 -3.06847 -1.6627 0
M  V30 4597 C 457.818 -3.64928 -2.17054 0
M  V30 4598 O 458.842 -3.09545 -1.76239 0
M  V30 4599 O 457.701 -4.61984 -2.91947 0
M  V30 4600 H 454.795 -0.679467 -0.471438 0
M  V30 4601 H 457.341 -1.67729 -0.257918 0
M  V30 4602 H 456.113 -3.80309 -0.920915 0
M  V30 4603 H 455.736 -3.10266 -2.48638 0
M  V30 4604 N 456.733 0.527833 -1.48498 0
M  V30 4605 C 457.696 1.61439 -1.62696 0
M  V30 4606 C 458.696 1.52824 -0.500136 0
M  V30 4607 O 459.886 1.56456 -0.765976 0
M  V30 4608 C 457.018 3.01063 -1.59918 0
M  V30 4609 H 458.211 1.50189 -2.59583 0
M  V30 4610 H 455.764 0.750055 -1.37127 0
M  V30 4611 H 456.499 3.17818 -0.645163 0
M  V30 4612 H 456.284 3.08725 -2.41726 0
M  V30 4613 H 457.774 3.80057 -1.73051 0
M  V30 4614 N 458.211 1.37122 0.776871 0
M  V30 4615 C 459.457 1.32243 1.53752 0
M  V30 4616 C 459.79 -0.0944745 1.9397 0
M  V30 4617 O 459.065 -1.05068 1.6368 0
M  V30 4618 C 459.348 2.25681 2.80607 0
M  V30 4619 C 459.201 3.76127 2.46676 0
M  V30 4620 C 460.52 2.17657 3.82509 0
M  V30 4621 H 457.639 0.481704 0.557791 0
M  V30 4622 H 460.281 1.6778 0.891612 0
M  V30 4623 H 458.431 1.95505 3.35723 0
M  V30 4624 H 460.103 4.16877 1.97513 0
M  V30 4625 H 458.346 3.94946 1.79443 0
M  V30 4626 H 459.017 4.36933 3.37333 0
M  V30 4627 H 461.493 2.44245 3.36873 0
M  V30 4628 H 460.369 2.85185 4.69 0
M  V30 4629 H 460.63 1.16785 4.26396 0
M  V30 4630 N 459.689 -1.00246 1.21608 0
M  V30 4631 C 460.652 -2.07233 0.979133 0
M  V30 4632 C 461.652 -1.6072 -0.0508219 0
M  V30 4633 O 462.842 -1.73196 0.186712 0
M  V30 4634 C 459.974 -3.37546 0.477016 0
M  V30 4635 H 461.167 -2.29687 1.92831 0
M  V30 4636 H 458.72 -1.17261 1.03342 0
M  V30 4637 H 459.455 -3.20773 -0.476966 0
M  V30 4638 H 459.24 -3.72638 1.21997 0
M  V30 4639 H 460.73 -4.16285 0.331181 0
M  V30 4640 N 461.167 -1.02423 -1.1978 0
M  V30 4641 C 462.13 -0.605703 -2.21052 0
M  V30 4642 C 463.13 0.328209 -1.57415 0
M  V30 4643 O 464.32 0.115853 -1.73814 0
M  V30 4644 C 461.452 0.114366 -3.40708 0
M  V30 4645 H 462.645 -1.5017 -2.59594 0
M  V30 4646 H 460.198 -0.814888 -1.33376 0
M  V30 4647 H 460.933 1.02492 -3.07678 0
M  V30 4648 H 460.718 -0.556641 -3.88129 0
M  V30 4649 H 462.208 0.394272 -4.15735 0
M  V30 4650 N 462.645 1.35699 -0.801477 0
M  V30 4651 C 464.056 1.81415 -0.441073 0
M  V30 4652 C 464.407 1.66595 1.03636 0
M  V30 4653 O 463.532 1.19369 1.80499 0
M  V30 4654 C 464.127 3.29369 -0.793819 0
M  V30 4655 C 462.686 3.73248 -0.486083 0
M  V30 4656 C 461.833 2.57775 -1.02213 0
M  V30 4657 H 464.784 1.23749 -0.993572 0
M  V30 4658 H 464.805 3.80395 -0.0894158 0
M  V30 4659 H 464.317 3.40123 -1.86917 0
M  V30 4660 H 462.418 3.68046 0.580735 0
M  V30 4661 H 462.531 4.68222 -1.01513 0
M  V30 4662 H 460.895 2.50788 -0.444712 0
M  V30 4663 H 461.678 2.71309 -2.10348 0
M  V30 4664 N 464.123 0.554532 1.47522 0
M  V30 4665 C 465.353 0.0342074 2.06572 0
M  V30 4666 C 465.761 -1.26375 1.40805 0
M  V30 4667 O 465.104 -1.7683 0.49769 0
M  V30 4668 C 465.166 -0.235096 3.5873 0
M  V30 4669 C 464.83 0.973024 4.46521 0
M  V30 4670 C 465.827 1.8779 4.848 0
M  V30 4671 C 463.512 1.18694 4.88075 0
M  V30 4672 C 465.506 2.98039 5.63428 0
M  V30 4673 C 463.193 2.29254 5.66468 0
M  V30 4674 C 464.191 3.18757 6.04055 0
M  V30 4675 O 463.879 4.27401 6.8087 0
M  V30 4676 H 463.611 0.041587 0.67472 0
M  V30 4677 H 466.165 0.766748 1.90552 0
M  V30 4678 H 464.395 -1.02191 3.72953 0
M  V30 4679 H 466.084 -0.700477 3.9981 0
M  V30 4680 H 466.85 1.72467 4.53299 0
M  V30 4681 H 462.729 0.49947 4.58286 0
M  V30 4682 H 466.273 3.67926 5.92685 0
M  V30 4683 H 462.17 2.4455 5.97382 0
M  V30 4684 H 462.938 4.25415 6.9926 0
M  V30 4685 N 465.601 -1.54893 0.290851 0
M  V30 4686 C 466.841 -2.01842 -0.322388 0
M  V30 4687 C 467.205 -1.17477 -1.51865 0
M  V30 4688 O 468.406 -1.54077 -2.20258 0
M  V30 4689 C 466.677 -3.50874 -0.679844 0
M  V30 4690 S 468.236 -4.19796 -1.27739 0
M  V30 4691 H 465.054 -0.704005 -0.0994866 0
M  V30 4692 H 467.656 -1.91015 0.416358 0
M  V30 4693 H 466.36 -4.09915 0.199435 0
M  V30 4694 H 465.891 -3.65717 -1.44964 0
M  V30 4695 H 467.906 -4.24729 -2.56554 0
M  V30 4696 N 467.08 -0.0183926 -1.57589 0
M  V30 4697 C 468.31 0.67207 -1.95363 0
M  V30 4698 C 468.718 1.66807 -0.892872 0
M  V30 4699 O 468.061 1.83204 0.134958 0
M  V30 4700 C 468.123 1.44397 -3.29226 0
M  V30 4701 C 467.787 0.607511 -4.52944 0
M  V30 4702 C 468.784 -0.112657 -5.19778 0
M  V30 4703 C 466.469 0.548068 -4.99301 0
M  V30 4704 C 468.463 -0.881057 -6.31281 0
M  V30 4705 C 466.15 -0.224044 -6.10689 0
M  V30 4706 C 467.148 -0.937323 -6.76538 0
M  V30 4707 O 466.836 -1.6968 -7.85789 0
M  V30 4708 H 466.568 0.190925 -0.648478 0
M  V30 4709 H 469.122 -0.0711994 -2.05277 0
M  V30 4710 H 467.352 2.23214 -3.15773 0
M  V30 4711 H 469.041 2.02152 -3.51979 0
M  V30 4712 H 469.807 -0.0759998 -4.8494 0
M  V30 4713 H 465.686 1.09281 -4.4786 0
M  V30 4714 H 469.23 -1.43832 -6.82611 0
M  V30 4715 H 465.127 -0.262457 -6.44966 0
M  V30 4716 H 465.895 -1.61544 -8.024 0
M  V30 4717 N 468.558 1.5553 0.254621 0
M  V30 4718 C 469.786 1.81046 1.00149 0
M  V30 4719 C 470.201 0.593047 1.79244 0
M  V30 4720 O 469.558 -0.438196 1.77161 0
M  V30 4721 C 469.609 3.04684 1.94551 0
M  V30 4722 O 469.33 4.21725 1.18658 0
M  V30 4723 C 470.831 3.42943 2.80901 0
M  V30 4724 H 468.051 0.602653 0.295044 0
M  V30 4725 H 470.595 2.02576 0.279842 0
M  V30 4726 H 468.75 2.85226 2.62154 0
M  V30 4727 H 469.164 4.91746 1.82445 0
M  V30 4728 H 470.638 4.32576 3.42902 0
M  V30 4729 H 471.115 2.63176 3.51617 0
M  V30 4730 H 471.721 3.64724 2.18762 0
M  V30 4731 N 470.036 -0.519951 1.48776 0
M  V30 4732 C 471.452 -0.849418 1.35119 0
M  V30 4733 C 471.652 -1.98077 0.36982 0
M  V30 4734 O 470.708 -2.51664 -0.205359 0
M  V30 4735 C 472.021 -1.20748 2.75391 0
M  V30 4736 C 473.569 -1.31679 2.83954 0
M  V30 4737 C 474.044 -1.70824 4.24951 0
M  V30 4738 N 475.535 -1.77908 4.27672 0
M  V30 4739 C 476.27 -2.09603 5.33717 0
M  V30 4740 N 475.766 -2.39652 6.5003 0
M  V30 4741 N 477.559 -2.10694 5.21119 0
M  V30 4742 H 469.71 0.226377 2.1119 0
M  V30 4743 H 471.973 0.0386519 0.947212 0
M  V30 4744 H 471.679 -0.449703 3.48813 0
M  V30 4745 H 471.553 -2.15534 3.09556 0
M  V30 4746 H 473.94 -2.06532 2.10781 0
M  V30 4747 H 474.021 -0.3499 2.53396 0
M  V30 4748 H 473.665 -0.965282 4.98643 0
M  V30 4749 H 473.595 -2.6858 4.52959 0
M  V30 4750 H 476.086 -1.56923 3.43779 0
M  V30 4751 H 476.399 -2.6297 7.26682 0
M  V30 4752 H 474.744 -2.37149 6.53288 0
M  V30 4753 H 477.935 -1.86682 4.29264 0
M  V30 4754 H 478.108 -2.35062 6.03863 0
M  V30 4755 N 471.514 -1.37532 -0.769588 0
M  V30 4756 C 472.791 -1.23392 -1.51768 0
M  V30 4757 C 473.171 0.17157 -2.10402 0
M  V30 4758 O 472.519 1.17943 -1.95708 0
M  V30 4759 C 472.729 -2.33163 -2.59685 0
M  V30 4760 C 474.077 -2.70809 -3.27028 0
M  V30 4761 O 475.101 -2.32355 -2.69981 0
M  V30 4762 O 473.96 -3.37066 -4.30173 0
M  V30 4763 H 471.054 -0.481617 -0.67229 0
M  V30 4764 H 473.6 -1.49318 -0.806368 0
M  V30 4765 H 472.372 -3.27273 -2.14494 0
M  V30 4766 H 471.995 -2.08713 -3.38415 0
M  V30 4767 N 472.992 0.995999 -1.22138 0
M  V30 4768 C 474.403 1.54961 -1.04135 0
M  V30 4769 C 474.754 1.92159 0.396147 0
M  V30 4770 O 473.879 1.74435 1.28069 0
M  V30 4771 C 474.474 2.81581 -1.88408 0
M  V30 4772 C 473.033 3.33396 -1.74712 0
M  V30 4773 C 472.18 2.06509 -1.85066 0
M  V30 4774 H 475.131 0.817436 -1.36028 0
M  V30 4775 H 475.152 3.53822 -1.39966 0
M  V30 4776 H 474.664 2.54476 -2.93025 0
M  V30 4777 H 472.765 3.65416 -0.728159 0
M  V30 4778 H 472.878 4.04208 -2.57202 0
M  V30 4779 H 471.242 2.19925 -1.28472 0
M  V30 4780 H 472.025 1.81804 -2.91208 0
M  V30 4781 N 474.47 1.03057 1.19235 0
M  V30 4782 C 475.718 0.726581 1.88587 0
M  V30 4783 C 476.039 -0.747227 1.80115 0
M  V30 4784 O 475.309 -1.53849 1.21274 0
M  V30 4785 H 473.889 0.265768 0.698124 0
M  V30 4786 H 476.551 1.30516 1.44746 0
M  V30 4787 H 475.647 1.0224 2.94879 0
M  V30 4788 N 475.948 -1.35272 0.808662 0
M  V30 4789 C 477.194 -1.99003 0.390581 0
M  V30 4790 C 477.527 -1.63999 -1.0401 0
M  V30 4791 O 476.802 -0.904368 -1.72196 0
M  V30 4792 C 477.085 -3.55454 0.576566 0
M  V30 4793 C 476.938 -4.00249 2.05233 0
M  V30 4794 C 478.257 -4.401 0.00354277 0
M  V30 4795 H 475.376 -0.722917 0.143388 0
M  V30 4796 H 478.018 -1.6039 1.01858 0
M  V30 4797 H 476.168 -3.88477 0.0419766 0
M  V30 4798 H 477.84 -3.77626 2.64946 0
M  V30 4799 H 476.083 -3.51082 2.54801 0
M  V30 4800 H 476.754 -5.0911 2.13333 0
M  V30 4801 H 479.23 -4.13548 0.460117 0
M  V30 4802 H 478.106 -5.48656 0.163575 0
M  V30 4803 H 478.367 -4.28444 -1.09032 0
M  V30 4804 N 477.426 -0.562348 -1.47226 0
M  V30 4805 C 478.842 -0.222492 -1.58042 0
M  V30 4806 C 479.042 1.27505 -1.56028 0
M  V30 4807 O 478.098 2.05555 -1.46641 0
M  V30 4808 C 479.411 -0.853694 -2.88327 0
M  V30 4809 C 480.959 -0.825397 -3.01921 0
M  V30 4810 C 481.434 -1.43576 -4.34914 0
M  V30 4811 N 482.925 -1.39918 -4.41562 0
M  V30 4812 C 483.66 -1.84103 -5.43041 0
M  V30 4813 N 483.156 -2.36167 -6.51304 0
M  V30 4814 N 484.949 -1.75142 -5.34118 0
M  V30 4815 H 477.1 -1.53525 -1.46778 0
M  V30 4816 H 479.363 -0.640527 -0.698877 0
M  V30 4817 H 479.069 -1.90635 -2.95552 0
M  V30 4818 H 478.943 -0.34977 -3.75575 0
M  V30 4819 H 481.33 0.218583 -2.94289 0
M  V30 4820 H 481.411 -1.36713 -2.16202 0
M  V30 4821 H 481.055 -2.47884 -4.43301 0
M  V30 4822 H 480.985 -0.869427 -5.19373 0
M  V30 4823 H 483.476 -1.0184 -3.63919 0
M  V30 4824 H 483.789 -2.67793 -7.24919 0
M  V30 4825 H 482.134 -2.40181 -6.52179 0
M  V30 4826 H 485.325 -1.34241 -4.48439 0
M  V30 4827 H 485.498 -2.09895 -6.13065 0
M  V30 4828 N 478.904 1.54736 -0.299062 0
M  V30 4829 C 480.15 2.01114 0.304123 0
M  V30 4830 C 480.505 1.18376 1.51674 0
M  V30 4831 O 479.798 0.251635 1.8994 0
M  V30 4832 C 479.992 3.50199 0.713835 0
M  V30 4833 C 479.821 4.47366 -0.457531 0
M  V30 4834 C 478.591 4.9631 -0.948933 0
M  V30 4835 C 480.789 4.9755 -1.30186 0
M  V30 4836 N 478.771 5.77327 -2.08726 0
M  V30 4837 C 480.142 5.7625 -2.28771 0
M  V30 4838 C 482.197 4.79739 -1.33246 0
M  V30 4839 C 480.9 6.39036 -3.3019 0
M  V30 4840 C 482.926 5.43343 -2.33521 0
M  V30 4841 C 482.288 6.21874 -3.30836 0
M  V30 4842 H 478.387 0.778318 0.0757992 0
M  V30 4843 H 480.971 1.89925 -0.428536 0
M  V30 4844 H 479.142 3.61681 1.41567 0
M  V30 4845 H 480.874 3.83374 1.29639 0
M  V30 4846 H 477.629 4.7069 -0.52423 0
M  V30 4847 H 478.053 6.22521 -2.66077 0
M  V30 4848 H 482.695 4.18609 -0.59383 0
M  V30 4849 H 480.413 6.99302 -4.04973 0
M  V30 4850 H 483.999 5.31492 -2.3666 0
M  V30 4851 H 482.879 6.70217 -4.07159 0
M  V30 4852 N 480.382 0.0267497 1.57577 0
M  V30 4853 C 481.292 -0.971633 2.13533 0
M  V30 4854 C 482.308 -1.35868 1.08701 0
M  V30 4855 O 483.484 -1.44058 1.40746 0
M  V30 4856 C 480.549 -2.23622 2.64941 0
M  V30 4857 C 479.61 -1.90982 3.8448 0
M  V30 4858 C 478.843 -3.11411 4.33427 0
M  V30 4859 O 479.066 -4.23992 3.81558 0
M  V30 4860 O 478 -2.93848 5.25297 0
M  V30 4861 H 481.826 -0.525853 2.99113 0
M  V30 4862 H 479.411 -0.193712 1.48139 0
M  V30 4863 H 481.293 -2.97864 2.98086 0
M  V30 4864 H 479.968 -2.67386 1.82446 0
M  V30 4865 H 478.875 -1.14132 3.56265 0
M  V30 4866 H 480.208 -1.52036 4.6813 0
M  V30 4867 N 481.861 -1.55662 -0.24637 0
M  V30 4868 C 483.091 -1.81312 -0.990438 0
M  V30 4869 C 483.499 -0.600234 -1.79426 0
M  V30 4870 O 482.842 0.440537 -1.78339 0
M  V30 4871 C 482.904 -3.0032 -1.97607 0
M  V30 4872 C 482.568 -4.36322 -1.35912 0
M  V30 4873 C 483.565 -5.14295 -0.761348 0
M  V30 4874 C 481.25 -4.83019 -1.37833 0
M  V30 4875 C 483.244 -6.37114 -0.190998 0
M  V30 4876 C 480.931 -6.05786 -0.804128 0
M  V30 4877 C 481.929 -6.82672 -0.211489 0
M  V30 4878 O 481.617 -8.03121 0.353845 0
M  V30 4879 H 481.349 -0.607233 -0.297058 0
M  V30 4880 H 483.903 -2.0356 -0.274351 0
M  V30 4881 H 482.133 -2.73829 -2.73047 0
M  V30 4882 H 483.822 -3.13057 -2.58361 0
M  V30 4883 H 484.588 -4.79337 -0.739013 0
M  V30 4884 H 480.467 -4.23165 -1.829 0
M  V30 4885 H 484.011 -6.97069 0.272206 0
M  V30 4886 H 479.908 -6.40222 -0.823792 0
M  V30 4887 H 480.676 -8.18131 0.245761 0
M  V30 4888 N 483.339 0.512053 -1.4905 0
M  V30 4889 C 484.579 1.27715 -1.59588 0
M  V30 4890 C 484.943 1.90071 -0.271502 0
M  V30 4891 O 486.144 2.67616 -0.251987 0
M  V30 4892 C 484.415 2.32399 -2.71524 0
M  V30 4893 S 485.974 3.18396 -3.01943 0
M  V30 4894 H 482.792 0.43419 -0.563027 0
M  V30 4895 H 485.394 0.581315 -1.86657 0
M  V30 4896 H 484.098 1.85101 -3.66287 0
M  V30 4897 H 483.629 3.06667 -2.46412 0
M  V30 4898 H 485.644 4.32842 -2.42616 0
M  V30 4899 N 484.817 1.37938 0.762283 0
M  V30 4900 C 485.765 1.34569 1.89721 0
M  V30 4901 C 486.759 0.232929 1.67791 0
M  V30 4902 O 487.965 0.401485 1.75465 0
M  V30 4903 H 484.34 0.419594 0.624055 0
M  V30 4904 H 486.311 2.30357 1.8968 0
M  V30 4905 C 485.06 1.17898 3.27101 0
M  V30 4906 H 484.383 2.02781 3.44558 0
M  V30 4907 H 485.823 1.19593 4.06784 0
M  V30 4908 C 484.282 -0.114728 3.36705 0
M  V30 4909 O 484.812 -1.0949 3.8649 0
M  V30 4910 N 483.018 -0.16863 2.9011 0
M  V30 4911 H 482.565 0.62967 2.49786 0
M  V30 4912 H 482.523 -1.03383 2.96916 0
M  V30 4913 N 486.295 -0.989507 1.22664 0
M  V30 4914 C 487.225 -2.09847 1.02404 0
M  V30 4915 C 488.206 -1.70007 -0.0561303 0
M  V30 4916 O 489.391 -1.93906 0.106748 0
M  V30 4917 C 486.521 -3.41996 0.604663 0
M  V30 4918 C 485.475 -3.95699 1.63115 0
M  V30 4919 C 484.801 -5.23936 1.0675 0
M  V30 4920 C 486.101 -4.25999 3.02196 0
M  V30 4921 H 487.795 -2.27054 1.95158 0
M  V30 4922 H 485.341 -1.09111 0.939727 0
M  V30 4923 H 487.294 -4.1899 0.45002 0
M  V30 4924 H 486.018 -3.24626 -0.35855 0
M  V30 4925 H 484.677 -3.2084 1.77362 0
M  V30 4926 H 484.325 -5.02909 0.0955422 0
M  V30 4927 H 484.025 -5.60833 1.75328 0
M  V30 4928 H 485.549 -6.0356 0.924516 0
M  V30 4929 H 486.963 -4.93777 2.91303 0
M  V30 4930 H 485.36 -4.74076 3.67929 0
M  V30 4931 H 486.43 -3.33636 3.51873 0
M  V30 4932 N 487.773 -1.03688 -1.18687 0
M  V30 4933 C 489.001 -0.757918 -1.92518 0
M  V30 4934 C 489.416 0.684398 -1.75959 0
M  V30 4935 O 488.773 1.46617 -1.08673 0
M  V30 4936 C 488.824 -1.10985 -3.44042 0
M  V30 4937 O 488.545 -2.49554 -3.60076 0
M  V30 4938 C 490.046 -0.854844 -4.3498 0
M  V30 4939 H 487.266 -0.276699 -0.611293 0
M  V30 4940 H 489.81 -1.38352 -1.50595 0
M  V30 4941 H 487.965 -0.529279 -3.83767 0
M  V30 4942 H 488.379 -2.6291 -4.53849 0
M  V30 4943 H 489.853 -1.15098 -5.39867 0
M  V30 4944 H 490.33 0.210507 -4.38695 0
M  V30 4945 H 490.936 -1.41853 -4.00946 0
M  V30 4946 N 489.251 1.34841 -0.815825 0
M  V30 4947 C 490.183 2.28409 -0.190265 0
M  V30 4948 C 491.196 1.50705 0.615771 0
M  V30 4949 O 492.385 1.72822 0.446616 0
M  V30 4950 C 489.485 3.30441 0.752446 0
M  V30 4951 C 488.658 4.37399 -0.00922152 0
M  V30 4952 C 487.717 5.19234 0.853351 0
M  V30 4953 O 486.743 5.68404 0.300919 0
M  V30 4954 N 487.945 5.38248 2.17416 0
M  V30 4955 H 490.71 2.82732 -0.994114 0
M  V30 4956 H 488.271 1.47289 -0.672129 0
M  V30 4957 H 490.263 3.82084 1.33394 0
M  V30 4958 H 488.833 2.76565 1.45707 0
M  V30 4959 H 488.053 3.86567 -0.771979 0
M  V30 4960 H 489.341 5.05992 -0.533807 0
M  V30 4961 H 488.739 4.99961 2.6468 0
M  V30 4962 H 487.296 5.93035 2.70467 0
M  V30 4963 N 490.729 0.570148 1.46925 0
M  V30 4964 C 491.969 0.0534743 2.0433 0
M  V30 4965 C 492.333 -1.27729 1.4335 0
M  V30 4966 O 493.534 -1.88244 1.91879 0
M  V30 4967 C 491.805 -0.0244296 3.57392 0
M  V30 4968 S 493.364 -0.485351 4.36108 0
M  V30 4969 H 490.182 0.0313908 0.710307 0
M  V30 4970 H 492.784 0.759808 1.80131 0
M  V30 4971 H 491.488 0.948261 3.99295 0
M  V30 4972 H 491.019 -0.753922 3.86108 0
M  V30 4973 H 493.034 -1.74258 4.64595 0
M  V30 4974 N 492.207 -1.54576 0.307264 0
M  V30 4975 C 493.432 -2.05139 -0.305379 0
M  V30 4976 C 493.857 -1.18278 -1.46259 0
M  V30 4977 O 493.215 -0.188243 -1.8032 0
M  V30 4978 C 493.263 -3.53066 -0.733283 0
M  V30 4979 O 492.367 -3.69206 -1.83741 0
M  V30 4980 H 491.708 -0.661444 -0.0582105 0
M  V30 4981 H 494.238 -1.99569 0.450931 0
M  V30 4982 H 494.248 -3.95034 -1.02039 0
M  V30 4983 H 492.923 -4.15746 0.113198 0
M  V30 4984 H 491.5 -3.39143 -1.55037 0
M  V30 4985 N 493.685 -0.035106 -1.57561 0
M  V30 4986 C 494.962 0.681212 -1.83354 0
M  V30 4987 C 495.342 1.89986 -0.920252 0
M  V30 4988 O 494.69 2.28489 0.0226815 0
M  V30 4989 C 494.9 1.05376 -3.32712 0
M  V30 4990 C 496.248 1.44286 -3.99333 0
M  V30 4991 O 497.272 1.14656 -3.37242 0
M  V30 4992 O 496.131 1.99518 -5.08778 0
M  V30 4993 H 493.225 0.334741 -0.756226 0
M  V30 4994 H 495.771 -0.0632448 -1.69582 0
M  V30 4995 H 494.543 0.186668 -3.90854 0
M  V30 4996 H 494.166 1.85619 -3.51613 0
M  V30 4997 N 495.163 1.55791 0.238111 0
M  V30 4998 C 496.126 1.90239 1.27835 0
M  V30 4999 C 497.126 0.779552 1.4064 0
M  V30 5000 O 498.316 1.04747 1.3919 0
M  V30 5001 C 495.448 2.13859 2.65475 0
M  V30 5002 H 496.641 2.83262 0.985034 0
M  V30 5003 H 494.194 1.48818 0.477799 0
M  V30 5004 H 494.929 1.23334 2.99932 0
M  V30 5005 H 494.714 2.95643 2.57561 0
M  V30 5006 H 496.204 2.41664 3.40571 0
M  V30 5007 N 496.642 -0.504142 1.49319 0
M  V30 5008 C 497.552 -1.63248 1.68486 0
M  V30 5009 C 498.568 -1.64488 0.567432 0
M  V30 5010 O 499.744 -1.82966 0.841749 0
M  V30 5011 C 496.809 -2.99627 1.74426 0
M  V30 5012 C 495.87 -3.09039 2.97982 0
M  V30 5013 C 495.103 -4.38913 3.0363 0
M  V30 5014 O 495.326 -5.27528 2.16958 0
M  V30 5015 O 494.26 -4.53231 3.96062 0
M  V30 5016 H 498.086 -1.50008 2.64067 0
M  V30 5017 H 495.671 -0.680086 1.33023 0
M  V30 5018 H 497.553 -3.80689 1.80705 0
M  V30 5019 H 496.228 -3.13136 0.820233 0
M  V30 5020 H 495.135 -2.27177 2.97223 0
M  V30 5021 H 496.468 -3.00456 3.89855 0
M  V30 5022 N 498.12 -1.38341 -0.754957 0
M  V30 5023 C 499.368 -1.34208 -1.51105 0
M  V30 5024 C 499.689 0.0677634 -1.94882 0
M  V30 5025 O 498.959 1.01517 -1.67544 0
M  V30 5026 H 497.539 -0.493819 -0.560493 0
M  V30 5027 H 500.201 -1.73005 -0.897507 0
M  V30 5028 H 499.297 -1.99203 -2.4026 0
M  V30 5029 N 499.598 0.982988 -1.23187 0
M  V30 5030 C 500.826 1.75921 -1.08901 0
M  V30 5031 C 501.241 1.85341 0.359719 0
M  V30 5032 O 500.598 1.33072 1.24892 0
M  V30 5033 C 500.649 3.18742 -1.70545 0
M  V30 5034 O 500.37 3.09814 -3.09753 0
M  V30 5035 C 501.871 4.1277 -1.61667 0
M  V30 5036 H 499.091 0.552166 -0.381252 0
M  V30 5037 H 501.635 1.23516 -1.62985 0
M  V30 5038 H 499.79 3.68182 -1.20501 0
M  V30 5039 H 500.204 3.99703 -3.39614 0
M  V30 5040 H 501.678 5.10697 -2.09506 0
M  V30 5041 H 502.155 4.3542 -0.575009 0
M  V30 5042 H 502.761 3.69232 -2.11064 0
M  V30 5043 N 501.076 1.04316 1.18135 0
M  V30 5044 C 502.039 0.640794 2.2006 0
M  V30 5045 C 503.039 -0.303124 1.57917 0
M  V30 5046 O 504.229 -0.0881855 1.73977 0
M  V30 5047 C 501.361 -0.060148 3.40847 0
M  V30 5048 H 502.554 1.54281 2.57172 0
M  V30 5049 H 500.107 0.836004 1.32063 0
M  V30 5050 H 500.842 -0.975845 3.0927 0
M  V30 5051 H 500.627 0.618319 3.87194 0
M  V30 5052 H 502.117 -0.328082 4.16309 0
M  V30 5053 N 502.554 -1.34406 0.822964 0
M  V30 5054 C 503.8 -1.98578 0.411666 0
M  V30 5055 C 504.133 -1.65093 -1.02264 0
M  V30 5056 O 503.408 -0.92258 -1.71227 0
M  V30 5057 C 503.691 -3.54823 0.614235 0
M  V30 5058 C 503.544 -3.9805 2.09466 0
M  V30 5059 C 504.863 -4.40071 0.050221 0
M  V30 5060 H 501.982 -0.721355 0.151047 0
M  V30 5061 H 504.624 -1.59301 1.03554 0
M  V30 5062 H 502.774 -3.88411 0.0831774 0
M  V30 5063 H 504.446 -3.74795 2.68936 0
M  V30 5064 H 502.689 -3.4836 2.5851 0
M  V30 5065 H 503.36 -5.06819 2.18721 0
M  V30 5066 H 505.836 -4.13037 0.503953 0
M  V30 5067 H 504.712 -5.48452 0.221759 0
M  V30 5068 H 504.973 -4.29576 -1.04482 0
M  V30 5069 N 504.032 -0.577932 -1.46621 0
M  V30 5070 C 504.995 0.147805 -2.28723 0
M  V30 5071 C 505.995 0.823325 -1.38123 0
M  V30 5072 O 507.185 0.676011 -1.60548 0
M  V30 5073 C 504.317 1.21853 -3.18378 0
M  V30 5074 H 505.51 -0.573654 -2.94362 0
M  V30 5075 H 503.063 -0.335703 -1.52652 0
M  V30 5076 H 503.798 1.97173 -2.57475 0
M  V30 5077 H 503.583 0.738714 -3.85078 0
M  V30 5078 H 505.073 1.72768 -3.80186 0
M  V30 5079 N 505.51 1.54411 -0.315457 0
M  V30 5080 C 506.921 1.85885 0.174265 0
M  V30 5081 C 507.272 1.23723 1.52273 0
M  V30 5082 O 506.397 0.540246 2.09548 0
M  V30 5083 C 506.992 3.37257 0.322981 0
M  V30 5084 C 505.551 3.68711 0.756922 0
M  V30 5085 C 504.698 2.77013 -0.126195 0
M  V30 5086 H 507.649 1.49374 -0.536007 0
M  V30 5087 H 507.67 3.62539 1.15522 0
M  V30 5088 H 507.182 3.82471 -0.658602 0
M  V30 5089 H 505.283 3.29024 1.74854 0
M  V30 5090 H 505.396 4.75741 0.566291 0
M  V30 5091 H 503.76 2.51588 0.39692 0
M  V30 5092 H 504.543 3.25051 -1.1044 0
M  V30 5093 N 506.988 0.0434614 1.5754 0
M  V30 5094 C 508.399 -0.493343 1.80064 0
M  V30 5095 C 508.75 -1.71388 0.955023 0
M  V30 5096 O 507.875 -2.15736 0.169434 0
M  V30 5097 C 508.47 -0.90179 3.26578 0
M  V30 5098 C 507.029 -1.38362 3.50047 0
M  V30 5099 C 506.176 -0.355129 2.75017 0
M  V30 5100 H 509.127 0.2694 1.56397 0
M  V30 5101 H 509.148 -1.76523 3.37075 0
M  V30 5102 H 508.66 -0.013271 3.88098 0
M  V30 5103 H 506.761 -2.29159 2.93798 0
M  V30 5104 H 506.874 -1.3811 4.58762 0
M  V30 5105 H 505.238 -0.826348 2.40922 0
M  V30 5106 H 506.021 0.525172 3.39259 0
M  V30 5107 N 508.466 -1.55915 -0.229846 0
M  V30 5108 C 509.694 -1.82617 -0.972562 0
M  V30 5109 C 510.109 -0.621488 -1.78278 0
M  V30 5110 O 509.466 0.409956 -1.77836 0
M  V30 5111 C 509.517 -3.0774 -1.89679 0
M  V30 5112 O 509.238 -4.23559 -1.11934 0
M  V30 5113 C 510.739 -3.47368 -2.75409 0
M  V30 5114 H 507.959 -0.60727 -0.285419 0
M  V30 5115 H 510.503 -2.02996 -0.247579 0
M  V30 5116 H 508.658 -2.89361 -2.57583 0
M  V30 5117 H 509.072 -4.94586 -1.74599 0
M  V30 5118 H 510.546 -4.37977 -3.35977 0
M  V30 5119 H 511.023 -2.68737 -3.47386 0
M  V30 5120 H 511.629 -3.68158 -2.12931 0
M  V30 5121 N 509.944 0.496216 -1.49584 0
M  V30 5122 C 511.19 1.25189 -1.59548 0
M  V30 5123 C 511.523 1.9212 -0.283466 0
M  V30 5124 O 510.798 1.80947 0.713324 0
M  V30 5125 C 511.081 2.31516 -2.75812 0
M  V30 5126 C 510.934 1.69054 -4.16822 0
M  V30 5127 C 512.253 3.3304 -2.87702 0
M  V30 5128 H 509.372 0.45379 -0.580727 0
M  V30 5129 H 512.014 0.549327 -1.81886 0
M  V30 5130 H 510.164 2.91438 -2.56897 0
M  V30 5131 H 511.836 1.12923 -4.47265 0
M  V30 5132 H 510.079 0.994485 -4.22247 0
M  V30 5133 H 510.75 2.462 -4.94054 0
M  V30 5134 H 513.226 2.83114 -3.04936 0
M  V30 5135 H 512.102 4.04794 -3.7072 0
M  V30 5136 H 512.363 3.95655 -1.97255 0
M  V30 5137 N 511.423 1.38739 0.74761 0
M  V30 5138 C 512.651 1.38521 1.53686 0
M  V30 5139 C 513.066 -0.0235129 1.88785 0
M  V30 5140 O 512.423 -0.991662 1.53207 0
M  V30 5141 C 512.474 2.24641 2.83229 0
M  V30 5142 O 512.195 3.60026 2.49625 0
M  V30 5143 C 513.696 2.32669 3.77333 0
M  V30 5144 H 510.916 0.473589 0.475347 0
M  V30 5145 H 513.46 1.82395 0.924786 0
M  V30 5146 H 511.615 1.84213 3.40799 0
M  V30 5147 H 512.029 4.05435 3.3275 0
M  V30 5148 H 513.503 2.97201 4.65162 0
M  V30 5149 H 513.98 1.3421 4.18192 0
M  V30 5150 H 514.586 2.73512 3.25685 0
M  V30 5151 N 512.901 -0.976442 1.23707 0
M  V30 5152 C 514.312 -1.53284 1.06587 0
M  V30 5153 C 514.663 -1.92765 -0.365526 0
M  V30 5154 O 513.788 -1.7645 -1.25277 0
M  V30 5155 C 514.383 -2.78548 1.92864 0
M  V30 5156 C 512.942 -3.30574 1.79994 0
M  V30 5157 C 512.089 -2.03538 1.88328 0
M  V30 5158 H 515.04 -0.795692 1.37311 0
M  V30 5159 H 515.061 -3.5155 1.45577 0
M  V30 5160 H 514.573 -2.49782 2.97037 0
M  V30 5161 H 512.674 -3.64211 0.786202 0
M  V30 5162 H 512.787 -4.00065 2.636 0
M  V30 5163 H 511.151 -2.17853 1.31954 0
M  V30 5164 H 511.934 -1.77149 2.94063 0
M  V30 5165 N 514.379 -1.04941 -1.1758 0
M  V30 5166 C 515.625 -0.759112 -1.88057 0
M  V30 5167 C 515.958 0.711918 -1.8068 0
M  V30 5168 O 515.233 1.52035 -1.21308 0
M  V30 5169 C 515.516 -1.237 -3.38187 0
M  V30 5170 C 515.369 -2.77078 -3.54327 0
M  V30 5171 C 516.688 -0.834014 -4.32125 0
M  V30 5172 H 513.807 -0.277237 -0.682868 0
M  V30 5173 H 516.449 -1.30296 -1.38286 0
M  V30 5174 H 514.599 -0.774337 -3.80705 0
M  V30 5175 H 516.271 -3.31449 -3.20842 0
M  V30 5176 H 514.514 -3.16477 -2.96689 0
M  V30 5177 H 515.185 -3.05577 -4.59703 0
M  V30 5178 H 517.661 -1.23228 -3.97434 0
M  V30 5179 H 516.537 -1.19603 -5.35711 0
M  V30 5180 H 516.798 0.262195 -4.41322 0
M  V30 5181 N 515.857 1.33968 -0.830081 0
M  V30 5182 C 517.268 1.80439 -0.479455 0
M  V30 5183 C 517.619 1.68756 1.00079 0
M  V30 5184 O 516.744 1.23171 1.77927 0
M  V30 5185 C 517.339 3.27611 -0.863505 0
M  V30 5186 C 515.898 3.72133 -0.565145 0
M  V30 5187 C 515.045 2.55549 -1.07657 0
M  V30 5188 H 517.996 1.21614 -1.0196 0
M  V30 5189 H 518.017 3.8012 -0.170083 0
M  V30 5190 H 517.529 3.36082 -1.94089 0
M  V30 5191 H 515.63 3.69196 0.502536 0
M  V30 5192 H 515.743 4.65963 -1.11422 0
M  V30 5193 H 514.107 2.49788 -0.497807 0
M  V30 5194 H 514.89 2.66786 -2.16055 0
M  V30 5195 N 517.335 0.585699 1.46312 0
M  V30 5196 C 518.56 0.0762461 2.0726 0
M  V30 5197 C 518.985 -1.22071 1.43109 0
M  V30 5198 O 518.343 -1.73804 0.515942 0
M  V30 5199 C 518.391 -0.0729404 3.60526 0
M  V30 5200 O 517.495 -1.1287 3.96654 0
M  V30 5201 H 516.836 0.0641558 0.660893 0
M  V30 5202 H 519.366 0.809492 1.87905 0
M  V30 5203 H 519.376 -0.278158 4.07051 0
M  V30 5204 H 518.051 0.874188 4.06609 0
M  V30 5205 H 516.628 -0.901703 3.61834 0
M  V30 5206 N 518.813 -1.54241 0.323641 0
M  V30 5207 C 519.743 -2.27289 -0.534993 0
M  V30 5208 C 520.724 -1.28087 -1.11927 0
M  V30 5209 O 521.909 -1.56899 -1.14439 0
M  V30 5210 C 519.039 -3.03075 -1.69596 0
M  V30 5211 C 517.993 -4.09614 -1.24098 0
M  V30 5212 C 517.319 -4.73242 -2.4889 0
M  V30 5213 C 518.619 -5.21087 -0.355789 0
M  V30 5214 H 520.313 -2.99308 0.0743257 0
M  V30 5215 H 517.859 -1.43952 0.0371874 0
M  V30 5216 H 519.812 -3.52907 -2.30293 0
M  V30 5217 H 518.536 -2.28673 -2.33187 0
M  V30 5218 H 517.195 -3.60666 -0.656945 0
M  V30 5219 H 516.843 -3.95455 -3.10845 0
M  V30 5220 H 516.543 -5.45209 -2.19138 0
M  V30 5221 H 518.067 -5.25848 -3.10348 0
M  V30 5222 H 519.481 -5.66675 -0.869042 0
M  V30 5223 H 517.878 -5.9991 -0.151045 0
M  V30 5224 H 518.948 -4.81005 0.613339 0
M  V30 5225 N 520.291 -0.0518155 -1.57515 0
M  V30 5226 C 521.201 0.937539 -2.15052 0
M  V30 5227 C 522.217 1.34121 -1.10849 0
M  V30 5228 O 523.393 1.418 -1.4302 0
M  V30 5229 C 520.458 2.19379 -2.68466 0
M  V30 5230 C 519.519 1.84841 -3.87469 0
M  V30 5231 C 518.752 3.04477 -4.38326 0
M  V30 5232 O 518.975 4.17868 -3.88256 0
M  V30 5233 O 517.909 2.85453 -5.29906 0
M  V30 5234 H 521.735 0.478201 -2.99912 0
M  V30 5235 H 519.32 0.17012 -1.48428 0
M  V30 5236 H 521.202 2.93084 -3.02787 0
M  V30 5237 H 519.877 2.64449 -1.86677 0
M  V30 5238 H 518.784 1.08449 -3.58036 0
M  V30 5239 H 520.117 1.44569 -4.7049 0
M  V30 5240 N 521.769 1.56035 0.221574 0
M  V30 5241 C 522.732 1.91584 1.2581 0
M  V30 5242 C 523.732 0.794425 1.39805 0
M  V30 5243 O 524.922 1.06217 1.38071 0
M  V30 5244 C 522.054 2.16663 2.63192 0
M  V30 5245 H 523.247 2.8429 0.954935 0
M  V30 5246 H 520.8 1.49316 0.461988 0
M  V30 5247 H 521.535 1.26508 2.98607 0
M  V30 5248 H 521.32 2.98358 2.5441 0
M  V30 5249 H 522.81 2.45262 3.37988 0
M  V30 5250 N 523.247 -0.488276 1.49845 0
M  V30 5251 C 524.658 -1.06955 1.53028 0
M  V30 5252 C 525.009 -1.9351 0.323797 0
M  V30 5253 O 524.134 -2.08891 -0.565116 0
M  V30 5254 C 524.729 -1.94643 2.77307 0
M  V30 5255 C 523.288 -2.4791 2.83227 0
M  V30 5256 C 522.435 -1.25833 2.47106 0
M  V30 5257 H 525.386 -0.271626 1.56358 0
M  V30 5258 H 525.407 -2.79496 2.5819 0
M  V30 5259 H 524.919 -1.31621 3.65099 0
M  V30 5260 H 523.02 -3.14535 1.99745 0
M  V30 5261 H 523.133 -2.84193 3.85709 0
M  V30 5262 H 521.497 -1.58764 1.99163 0
M  V30 5263 H 522.28 -0.644993 3.37186 0
M  V30 5264 N 524.725 -1.39134 -0.740242 0
M  V30 5265 C 525.95 -1.39518 -1.53459 0
M  V30 5266 C 526.375 0.00968883 -1.88098 0
M  V30 5267 O 525.733 0.995312 -1.51536 0
M  V30 5268 C 525.781 -2.26981 -2.802 0
M  V30 5269 O 524.885 -1.69609 -3.75908 0
M  V30 5270 H 524.226 -0.475328 -0.463637 0
M  V30 5271 H 526.756 -1.83064 -0.913717 0
M  V30 5272 H 526.766 -2.41309 -3.28989 0
M  V30 5273 H 525.441 -3.29081 -2.5432 0
M  V30 5274 H 524.018 -1.64495 -3.34658 0
M  V30 5275 N 526.204 0.969867 -1.24223 0
M  V30 5276 C 527.114 2.09806 -1.0497 0
M  V30 5277 C 528.13 1.73998 0.00886455 0
M  V30 5278 O 529.306 2.00513 -0.188848 0
M  V30 5279 C 526.371 3.40467 -0.654452 0
M  V30 5280 C 525.432 3.90236 -1.78926 0
M  V30 5281 C 524.665 5.14662 -1.41277 0
M  V30 5282 O 524.888 5.69602 -0.301632 0
M  V30 5283 O 523.822 5.58761 -2.23763 0
M  V30 5284 H 527.648 2.28942 -1.99548 0
M  V30 5285 H 525.233 1.08197 -1.03023 0
M  V30 5286 H 527.115 4.19039 -0.445452 0
M  V30 5287 H 525.79 3.22636 0.262216 0
M  V30 5288 H 524.697 3.12735 -2.05299 0
M  V30 5289 H 526.03 4.1254 -2.68462 0
M  V30 5290 N 527.682 1.05563 1.17022 0
M  V30 5291 C 528.614 0.617888 2.20714 0
M  V30 5292 C 529.627 -0.320303 1.59618 0
M  V30 5293 O 530.816 -0.112449 1.78145 0
M  V30 5294 C 527.916 -0.115333 3.38704 0
M  V30 5295 C 527.089 0.834493 4.29366 0
M  V30 5296 C 526.148 0.141855 5.26009 0
M  V30 5297 O 525.174 0.777151 5.6387 0
M  V30 5298 N 526.376 -1.11934 5.69606 0
M  V30 5299 H 529.141 1.50981 2.58892 0
M  V30 5300 H 526.702 0.938008 1.31958 0
M  V30 5301 H 528.694 -0.588918 4.00392 0
M  V30 5302 H 527.264 -0.908967 2.99093 0
M  V30 5303 H 526.484 1.48762 3.65053 0
M  V30 5304 H 527.772 1.4791 4.86827 0
M  V30 5305 H 527.17 -1.65574 5.40927 0
M  V30 5306 H 525.727 -1.53692 6.33421 0
M  V30 5307 N 529.16 -1.33526 0.837174 0
M  V30 5308 C 530.123 -2.27551 0.274421 0
M  V30 5309 C 531.123 -1.50886 -0.555881 0
M  V30 5310 O 532.313 -1.70227 -0.369918 0
M  V30 5311 C 529.445 -3.35332 -0.613605 0
M  V30 5312 H 530.638 -2.78837 1.10408 0
M  V30 5313 H 528.191 -1.439 0.610126 0
M  V30 5314 H 528.926 -2.89285 -1.46577 0
M  V30 5315 H 528.711 -3.92095 -0.0195341 0
M  V30 5316 H 530.201 -4.05433 -1.00068 0
M  V30 5317 N 530.638 -0.59345 -1.46 0
M  V30 5318 C 532.049 -0.169801 -1.85926 0
M  V30 5319 C 532.4 1.26984 -1.49565 0
M  V30 5320 O 531.525 1.96076 -0.915602 0
M  V30 5321 C 532.12 -0.301385 -3.37457 0
M  V30 5322 C 530.679 0.0674684 -3.7634 0
M  V30 5323 C 529.826 -0.632383 -2.69993 0
M  V30 5324 H 532.777 -0.801014 -1.37002 0
M  V30 5325 H 532.798 0.470331 -3.77582 0
M  V30 5326 H 532.31 -1.34927 -3.63891 0
M  V30 5327 H 530.411 1.11507 -3.55523 0
M  V30 5328 H 530.524 -0.316332 -4.78055 0
M  V30 5329 H 528.888 -0.0714961 -2.546 0
M  V30 5330 H 529.671 -1.68212 -2.99265 0
M  V30 5331 N 532.116 1.54067 -0.331816 0
M  V30 5332 C 533.344 2.05131 0.269996 0
M  V30 5333 C 533.759 1.20749 1.45138 0
M  V30 5334 O 533.116 0.240069 1.80914 0
M  V30 5335 C 533.167 3.54728 0.696456 0
M  V30 5336 O 532.888 4.35906 -0.43794 0
M  V30 5337 C 534.389 4.21916 1.36021 0
M  V30 5338 H 531.609 0.668807 0.0542042 0
M  V30 5339 H 534.153 1.98777 -0.4804 0
M  V30 5340 H 532.308 3.61342 1.39681 0
M  V30 5341 H 532.722 5.24404 -0.100334 0
M  V30 5342 H 534.196 5.28015 1.60947 0
M  V30 5343 H 534.673 3.73538 2.31011 0
M  V30 5344 H 535.279 4.19463 0.702212 0
M  V30 5345 N 533.594 0.0601682 1.57485 0
M  V30 5346 C 534.504 -0.926121 2.15546 0
M  V30 5347 C 535.52 -1.33532 1.11558 0
M  V30 5348 O 536.696 -1.4104 1.4377 0
M  V30 5349 C 533.761 -2.17952 2.69625 0
M  V30 5350 C 532.822 -1.82783 3.88444 0
M  V30 5351 C 532.055 -3.02148 4.39935 0
M  V30 5352 O 532.278 -4.15803 3.90466 0
M  V30 5353 O 531.212 -2.82639 5.31412 0
M  V30 5354 H 535.038 -0.462289 3.00161 0
M  V30 5355 H 532.623 -0.162246 1.48516 0
M  V30 5356 H 534.505 -2.91474 3.04337 0
M  V30 5357 H 533.18 -2.63456 1.88077 0
M  V30 5358 H 532.087 -1.06549 3.58606 0
M  V30 5359 H 533.42 -1.42072 4.7125 0
M  V30 5360 N 535.072 -1.5615 -0.213296 0
M  V30 5361 C 536.004 -1.89586 -1.28802 0
M  V30 5362 C 537.017 -0.784844 -1.42633 0
M  V30 5363 O 538.206 -1.06319 -1.43383 0
M  V30 5364 C 535.306 -2.09665 -2.66259 0
M  V30 5365 C 534.479 -3.40726 -2.7427 0
M  V30 5366 C 533.538 -3.50137 -3.92798 0
M  V30 5367 O 532.564 -4.23105 -3.8075 0
M  V30 5368 N 533.766 -2.81886 -5.07465 0
M  V30 5369 H 536.531 -2.82368 -1.00442 0
M  V30 5370 H 534.092 -1.56796 -0.403302 0
M  V30 5371 H 536.084 -2.13268 -3.43946 0
M  V30 5372 H 534.654 -1.23469 -2.87183 0
M  V30 5373 H 533.874 -3.4915 -1.82997 0
M  V30 5374 H 535.162 -4.27048 -2.76599 0
M  V30 5375 H 534.56 -2.22397 -5.2015 0
M  V30 5376 H 533.117 -2.91139 -5.83165 0
M  V30 5377 N 536.55 0.480323 -1.50102 0
M  V30 5378 C 537.966 0.813295 -1.37323 0
M  V30 5379 C 538.166 1.97027 -0.422206 0
M  V30 5380 O 537.222 2.5212 0.138563 0
M  V30 5381 C 538.535 1.13404 -2.78496 0
M  V30 5382 C 540.083 1.24104 -2.87345 0
M  V30 5383 C 540.558 1.59497 -4.29331 0
M  V30 5384 N 542.049 1.66507 -4.32238 0
M  V30 5385 C 542.784 1.95378 -5.39087 0
M  V30 5386 N 542.28 2.22333 -6.56155 0
M  V30 5387 N 544.073 1.96803 -5.26522 0
M  V30 5388 H 536.224 -0.282291 -2.10516 0
M  V30 5389 H 538.487 -0.063752 -0.945854 0
M  V30 5390 H 538.193 0.357064 -3.49883 0
M  V30 5391 H 538.067 2.07251 -3.15162 0
M  V30 5392 H 540.454 2.00871 -2.16183 0
M  V30 5393 H 540.535 0.282593 -2.54234 0
M  V30 5394 H 540.179 0.832736 -5.01027 0
M  V30 5395 H 540.109 2.56477 -4.59921 0
M  V30 5396 H 542.6 1.47753 -3.47818 0
M  V30 5397 H 542.913 2.43611 -7.33399 0
M  V30 5398 H 541.258 2.19745 -6.59346 0
M  V30 5399 H 544.449 1.75235 -4.34062 0
M  V30 5400 H 544.622 2.18969 -6.09883 0
M  V30 5401 N 538.028 1.39524 0.732853 0
M  V30 5402 C 539.439 1.32905 1.31122 0
M  V30 5403 C 539.79 -0.00558708 1.96199 0
M  V30 5404 O 538.915 -0.907706 1.96443 0
M  V30 5405 C 539.51 2.40704 2.38426 0
M  V30 5406 C 538.069 2.37599 2.91931 0
M  V30 5407 C 537.216 2.2248 1.65523 0
M  V30 5408 H 540.167 1.49581 0.530207 0
M  V30 5409 H 540.188 2.07616 3.18867 0
M  V30 5410 H 539.7 3.37829 1.91033 0
M  V30 5411 H 537.801 1.44119 3.43599 0
M  V30 5412 H 537.914 3.32538 3.44899 0
M  V30 5413 H 536.278 1.69691 1.8994 0
M  V30 5414 H 537.061 3.21577 1.20178 0
M  V30 5415 N 539.506 -0.963266 1.24736 0
M  V30 5416 C 540.754 -1.70343 1.08755 0
M  V30 5417 C 541.075 -1.91387 -0.373619 0
M  V30 5418 O 540.345 -1.4948 -1.2662 0
M  V30 5419 H 538.925 -0.631224 0.399456 0
M  V30 5420 H 541.587 -1.15859 1.56725 0
M  V30 5421 H 540.683 -2.68616 1.58909 0
M  V30 5422 N 540.985 -1.06182 -1.16461 0
M  V30 5423 C 542.231 -0.779015 -1.87241 0
M  V30 5424 C 542.564 0.692715 -1.81425 0
M  V30 5425 O 541.839 1.5074 -1.22913 0
M  V30 5426 C 542.122 -1.2728 -3.36856 0
M  V30 5427 C 541.975 -2.80821 -3.51368 0
M  V30 5428 C 543.294 -0.879799 -4.31216 0
M  V30 5429 H 540.413 -0.284464 -0.679889 0
M  V30 5430 H 543.055 -1.31755 -1.36896 0
M  V30 5431 H 541.205 -0.814673 -3.79862 0
M  V30 5432 H 542.877 -3.34833 -3.17308 0
M  V30 5433 H 541.12 -3.19606 -2.93316 0
M  V30 5434 H 541.791 -3.10435 -4.56436 0
M  V30 5435 H 544.267 -1.27436 -3.96105 0
M  V30 5436 H 543.143 -1.25278 -5.34412 0
M  V30 5437 H 543.404 0.215372 -4.41575 0
M  V30 5438 N 542.463 1.3308 -0.844243 0
M  V30 5439 C 543.395 2.27954 -0.238671 0
M  V30 5440 C 544.408 1.51978 0.583665 0
M  V30 5441 O 545.597 1.73731 0.409857 0
M  V30 5442 C 542.697 3.31963 0.682185 0
M  V30 5443 C 541.87 4.37281 -0.101998 0
M  V30 5444 C 540.929 5.20928 0.743022 0
M  V30 5445 O 539.955 5.68914 0.180285 0
M  V30 5446 N 541.157 5.42738 2.0595 0
M  V30 5447 H 543.922 2.8056 -1.05386 0
M  V30 5448 H 541.483 1.4583 -0.70322 0
M  V30 5449 H 543.475 3.84828 1.25259 0
M  V30 5450 H 542.045 2.79594 1.39808 0
M  V30 5451 H 541.265 3.84843 -0.853802 0
M  V30 5452 H 542.553 5.04746 -0.641015 0
M  V30 5453 H 541.951 5.05463 2.54016 0
M  V30 5454 H 540.508 5.98639 2.57827 0
M  V30 5455 N 543.941 0.601185 1.45683 0
M  V30 5456 C 544.851 -0.123395 2.34275 0
M  V30 5457 C 545.867 -0.86702 1.5086 0
M  V30 5458 O 547.043 -0.826049 1.8368 0
M  V30 5459 C 544.108 -1.11237 3.2837 0
M  V30 5460 C 543.169 -0.371405 4.2769 0
M  V30 5461 C 542.402 -1.31327 5.1729 0
M  V30 5462 O 542.625 -2.55078 5.10188 0
M  V30 5463 O 541.559 -0.813811 5.96373 0
M  V30 5464 H 545.385 0.604483 2.97623 0
M  V30 5465 H 542.97 0.361477 1.44961 0
M  V30 5466 H 544.852 -1.68214 3.8637 0
M  V30 5467 H 543.527 -1.82139 2.67595 0
M  V30 5468 H 542.434 0.24067 3.73325 0
M  V30 5469 H 543.767 0.296998 4.91303 0
M  V30 5470 N 545.419 -1.53889 0.339982 0
M  V30 5471 C 546.659 -2.02765 -0.258011 0
M  V30 5472 C 547.023 -1.22249 -1.48051 0
M  V30 5473 O 548.224 -1.61007 -2.15245 0
M  V30 5474 C 546.495 -3.5286 -0.567872 0
M  V30 5475 S 548.054 -4.23647 -1.14318 0
M  V30 5476 H 544.872 -0.706814 -0.0770389 0
M  V30 5477 H 547.474 -1.89594 0.476917 0
M  V30 5478 H 546.178 -4.09073 0.329745 0
M  V30 5479 H 545.709 -3.70144 -1.33256 0
M  V30 5480 H 547.724 -4.32676 -2.42911 0
M  V30 5481 N 546.897 -0.0685191 -1.57451 0
M  V30 5482 C 548.127 0.609577 -1.97402 0
M  V30 5483 C 548.535 1.63882 -0.945489 0
M  V30 5484 O 547.878 1.8354 0.0766052 0
M  V30 5485 C 547.94 1.3385 -3.33653 0
M  V30 5486 C 547.604 0.463103 -4.54648 0
M  V30 5487 C 548.601 -0.277964 -5.19156 0
M  V30 5488 C 546.286 0.388941 -5.00792 0
M  V30 5489 C 548.28 -1.08145 -6.28159 0
M  V30 5490 C 545.967 -0.418217 -6.09667 0
M  V30 5491 C 546.965 -1.15208 -6.73213 0
M  V30 5492 O 546.653 -1.94594 -7.79993 0
M  V30 5493 H 546.385 0.170197 -0.654224 0
M  V30 5494 H 548.939 -0.13647 -2.04946 0
M  V30 5495 H 547.169 2.13055 -3.22714 0
M  V30 5496 H 548.858 1.90851 -3.58233 0
M  V30 5497 H 549.624 -0.230241 -4.84453 0
M  V30 5498 H 545.503 0.949769 -4.5111 0
M  V30 5499 H 549.047 -1.65476 -6.7769 0
M  V30 5500 H 544.944 -0.467515 -6.43805 0
M  V30 5501 H 545.712 -1.8699 -7.96854 0
M  V30 5502 N 548.375 1.56261 0.205012 0
M  V30 5503 C 549.325 1.90155 1.25798 0
M  V30 5504 C 550.309 0.766227 1.41484 0
M  V30 5505 O 551.501 1.02893 1.44021 0
M  V30 5506 C 548.63 2.23603 2.60493 0
M  V30 5507 C 547.716 3.43568 2.48639 0
M  V30 5508 N 548.107 4.61747 2.06455 0
M  V30 5509 C 546.405 3.4751 2.79558 0
M  V30 5510 C 547.106 5.43907 2.06253 0
M  V30 5511 N 546.082 4.84051 2.47377 0
M  V30 5512 H 549.884 2.79031 0.922986 0
M  V30 5513 H 547.398 1.57048 0.413501 0
M  V30 5514 H 549.395 2.46067 3.36537 0
M  V30 5515 H 548.055 1.36049 2.94823 0
M  V30 5516 H 549.066 4.86598 1.77321 0
M  V30 5517 H 545.743 2.70345 3.18151 0
M  V30 5518 H 547.133 6.48542 1.75622 0
M  V30 5519 N 549.853 -0.472356 1.50355 0
M  V30 5520 C 551.101 -1.22211 1.60962 0
M  V30 5521 C 551.422 -1.92497 0.311439 0
M  V30 5522 O 550.692 -1.8405 -0.671002 0
M  V30 5523 H 549.272 -0.454092 0.593135 0
M  V30 5524 H 551.934 -0.544977 1.87126 0
M  V30 5525 H 551.03 -1.9707 2.42012 0
M  V30 5526 N 551.331 -1.39911 -0.725443 0
M  V30 5527 C 552.279 -1.39552 -1.86086 0
M  V30 5528 C 553.273 -0.277334 -1.67114 0
M  V30 5529 O 554.479 -0.447865 -1.74339 0
M  V30 5530 H 550.854 -0.435993 -0.612711 0
M  V30 5531 H 552.825 -2.35305 -1.83505 0
M  V30 5532 C 551.574 -1.26529 -3.2386 0
M  V30 5533 H 550.897 -2.11845 -3.3906 0
M  V30 5534 H 552.337 -1.30336 -4.03471 0
M  V30 5535 C 550.796 0.0254168 -3.3689 0
M  V30 5536 O 551.326 0.992048 -3.89257 0
M  V30 5537 N 549.532 0.0916528 -2.90455 0
M  V30 5538 H 549.079 -0.695675 -2.48028 0
M  V30 5539 H 549.037 0.954745 -2.99553 0
M  V30 5540 N 552.809 0.956637 -1.25245 0
M  V30 5541 C 554.057 1.69764 -1.09657 0
M  V30 5542 C 554.378 1.91583 0.363464 0
M  V30 5543 O 553.648 1.50149 1.25825 0
M  V30 5544 H 552.228 0.629097 -0.402798 0
M  V30 5545 H 554.89 1.15026 -1.57337 0
M  V30 5546 H 553.986 2.67769 -1.60331 0
M  V30 5547 N 554.287 1.06798 1.15896 0
M  V30 5548 C 555.219 0.641263 2.20046 0
M  V30 5549 C 556.232 -0.303355 1.59949 0
M  V30 5550 O 557.421 -0.0935478 1.78255 0
M  V30 5551 C 554.521 -0.0794029 3.38807 0
M  V30 5552 C 553.694 0.879986 4.28457 0
M  V30 5553 C 552.753 0.197638 5.25829 0
M  V30 5554 O 551.779 0.836913 5.63014 0
M  V30 5555 N 552.981 -1.05886 5.70761 0
M  V30 5556 H 555.746 1.53718 2.57276 0
M  V30 5557 H 553.307 0.951951 1.30956 0
M  V30 5558 H 555.299 -0.546418 4.00994 0
M  V30 5559 H 553.869 -0.877193 3.0004 0
M  V30 5560 H 553.089 1.52625 3.63454 0
M  V30 5561 H 554.377 1.53065 4.8523 0
M  V30 5562 H 553.775 -1.59828 5.42652 0
M  V30 5563 H 552.332 -1.46965 6.35015 0
M  V30 5564 N 555.766 -1.3263 0.851289 0
M  V30 5565 C 556.991 -2.02097 0.466006 0
M  V30 5566 C 557.416 -1.63574 -0.928709 0
M  V30 5567 O 556.774 -0.834665 -1.60944 0
M  V30 5568 C 556.822 -3.55425 0.608737 0
M  V30 5569 O 555.926 -4.10827 -0.359878 0
M  V30 5570 H 555.267 -0.636911 0.187724 0
M  V30 5571 H 557.797 -1.69253 1.14955 0
M  V30 5572 H 557.807 -4.04986 0.495006 0
M  V30 5573 H 556.482 -3.82806 1.62581 0
M  V30 5574 H 555.059 -3.72349 -0.202666 0
M  V30 5575 N 557.244 -0.608902 -1.45362 0
M  V30 5576 C 558.474 -0.110852 -2.06302 0
M  V30 5577 C 558.882 1.21062 -1.45398 0
M  V30 5578 O 558.225 1.74861 -0.562976 0
M  V30 5579 C 558.287 0.101793 -3.59356 0
M  V30 5580 C 557.951 -1.13808 -4.42602 0
M  V30 5581 C 558.948 -2.05653 -4.77496 0
M  V30 5582 C 556.633 -1.36727 -4.83333 0
M  V30 5583 C 558.627 -3.18745 -5.51978 0
M  V30 5584 C 556.314 -2.5012 -5.57569 0
M  V30 5585 C 557.312 -3.40957 -5.91809 0
M  V30 5586 O 557 -4.52376 -6.64538 0
M  V30 5587 H 556.732 -0.0666001 -0.672711 0
M  V30 5588 H 559.286 -0.836942 -1.87575 0
M  V30 5589 H 557.516 0.88279 -3.76489 0
M  V30 5590 H 559.205 0.551607 -4.02134 0
M  V30 5591 H 559.971 -1.89172 -4.46586 0
M  V30 5592 H 555.85 -0.669216 -4.56117 0
M  V30 5593 H 559.394 -3.8967 -5.78622 0
M  V30 5594 H 555.291 -2.66553 -5.87894 0
M  V30 5595 H 556.059 -4.51075 -6.82989 0
M  V30 5596 N 558.722 1.53707 -0.348139 0
M  V30 5597 C 560.138 1.596 0.00361134 0
M  V30 5598 C 560.338 1.36394 1.4832 0
M  V30 5599 O 559.394 1.16046 2.24253 0
M  V30 5600 C 560.707 2.97512 -0.436682 0
M  V30 5601 C 562.255 3.10568 -0.389416 0
M  V30 5602 C 562.73 4.50866 -0.805249 0
M  V30 5603 N 564.221 4.56929 -0.759616 0
M  V30 5604 C 564.956 5.63643 -1.05327 0
M  V30 5605 N 564.452 6.78189 -1.41531 0
M  V30 5606 N 566.245 5.5354 -0.977207 0
M  V30 5607 H 558.396 1.67044 -1.31187 0
M  V30 5608 H 560.659 0.782559 -0.535075 0
M  V30 5609 H 560.365 3.19575 -1.46849 0
M  V30 5610 H 560.239 3.76742 0.185744 0
M  V30 5611 H 562.626 2.88226 0.633228 0
M  V30 5612 H 562.707 2.33387 -1.04711 0
M  V30 5613 H 562.351 4.73943 -1.82593 0
M  V30 5614 H 562.281 5.26452 -0.124989 0
M  V30 5615 H 564.772 3.74675 -0.49265 0
M  V30 5616 H 565.085 7.55541 -1.62411 0
M  V30 5617 H 563.43 6.79624 -1.45381 0
M  V30 5618 H 566.621 4.62932 -0.693675 0
M  V30 5619 H 566.794 6.36614 -1.2094 0
M  V30 5620 N 560.2 0.0768682 1.57412 0
M  V30 5621 C 561.448 -0.589918 1.93299 0
M  V30 5622 C 561.769 -1.69842 0.958049 0
M  V30 5623 O 561.039 -1.95899 0.00703261 0
M  V30 5624 H 559.619 -0.220901 0.713591 0
M  V30 5625 H 562.281 0.135917 1.94425 0
M  V30 5626 H 561.377 -1.01195 2.95239 0
M  V30 5627 N 561.678 -1.56367 -0.196722 0
M  V30 5628 C 562.906 -1.84639 -0.933608 0
M  V30 5629 C 563.321 -0.659164 -1.76919 0
M  V30 5630 O 562.678 0.372142 -1.78665 0
M  V30 5631 C 562.729 -3.11694 -1.83109 0
M  V30 5632 O 562.45 -4.25838 -1.02924 0
M  V30 5633 C 563.951 -3.53132 -2.67979 0
M  V30 5634 H 561.171 -0.613188 -0.272473 0
M  V30 5635 H 563.715 -2.03475 -0.204465 0
M  V30 5636 H 561.87 -2.94759 -2.51387 0
M  V30 5637 H 562.284 -4.98178 -1.64069 0
M  V30 5638 H 563.758 -4.45005 -3.26611 0
M  V30 5639 H 564.235 -2.76045 -3.41608 0
M  V30 5640 H 564.841 -3.72592 -2.05074 0
M  V30 5641 N 563.156 0.464375 -1.50603 0
M  V30 5642 C 564.386 1.23727 -1.65454 0
M  V30 5643 C 564.794 1.86119 -0.340032 0
M  V30 5644 O 564.137 1.70301 0.688706 0
M  V30 5645 C 564.199 2.38153 -2.69301 0
M  V30 5646 C 563.863 1.96345 -4.12671 0
M  V30 5647 C 564.86 1.48215 -4.98326 0
M  V30 5648 C 562.545 2.04861 -4.58625 0
M  V30 5649 C 564.539 1.09152 -6.27985 0
M  V30 5650 C 562.226 1.65409 -5.88288 0
M  V30 5651 C 563.224 1.17634 -6.72794 0
M  V30 5652 O 562.912 0.787312 -8.00035 0
M  V30 5653 H 562.644 0.380075 -0.559034 0
M  V30 5654 H 565.198 0.559919 -1.97621 0
M  V30 5655 H 563.428 3.09081 -2.32392 0
M  V30 5656 H 565.117 3.00099 -2.73304 0
M  V30 5657 H 565.883 1.41052 -4.64036 0
M  V30 5658 H 561.762 2.40996 -3.92991 0
M  V30 5659 H 565.306 0.717909 -6.93896 0
M  V30 5660 H 561.203 1.72233 -6.22098 0
M  V30 5661 H 561.971 0.915567 -8.13363 0
M  V30 5662 N 564.634 1.40294 0.718013 0
M  V30 5663 C 565.859 1.41941 1.5122 0
M  V30 5664 C 566.284 0.0202371 1.88089 0
M  V30 5665 O 565.642 -0.971078 1.53101 0
M  V30 5666 C 565.69 2.3141 2.76554 0
M  V30 5667 O 564.794 1.75567 3.73162 0
M  V30 5668 H 564.135 0.482644 0.456016 0
M  V30 5669 H 566.665 1.84494 0.884478 0
M  V30 5670 H 566.675 2.46513 3.25108 0
M  V30 5671 H 565.35 3.33085 2.49053 0
M  V30 5672 H 563.927 1.69798 3.31999 0
M  V30 5673 N 566.112 -0.949982 1.2575 0
M  V30 5674 C 567.34 -1.72972 1.13527 0
M  V30 5675 C 567.755 -1.8623 -0.310453 0
M  V30 5676 O 567.112 -1.36336 -1.2132 0
M  V30 5677 C 567.163 -3.14108 1.78936 0
M  V30 5678 O 566.884 -3.01493 3.17858 0
M  V30 5679 C 568.385 -4.08338 1.72554 0
M  V30 5680 H 565.605 -0.541864 0.395758 0
M  V30 5681 H 568.149 -1.19151 1.66202 0
M  V30 5682 H 566.304 -3.64858 1.30221 0
M  V30 5683 H 566.718 -3.90559 3.50092 0
M  V30 5684 H 568.192 -5.04963 2.22973 0
M  V30 5685 H 568.669 -4.33742 0.690251 0
M  V30 5686 H 569.275 -3.63506 2.2078 0
M  V30 5687 N 567.59 -1.07411 -1.15328 0
M  V30 5688 C 568.818 -0.818782 -1.90009 0
M  V30 5689 C 569.233 0.628072 -1.78047 0
M  V30 5690 O 568.59 1.43085 -1.13282 0
M  V30 5691 C 568.641 -1.21874 -3.40337 0
M  V30 5692 O 568.362 -2.60883 -3.51954 0
M  V30 5693 C 569.863 -0.992796 -4.3204 0
M  V30 5694 H 567.083 -0.296007 -0.60218 0
M  V30 5695 H 569.627 -1.43073 -1.46117 0
M  V30 5696 H 567.782 -0.651103 -3.81889 0
M  V30 5697 H 568.196 -2.77216 -4.45255 0
M  V30 5698 H 569.67 -1.32215 -5.35932 0
M  V30 5699 H 570.147 0.0708331 -4.39143 0
M  V30 5700 H 570.753 -1.54537 -3.9623 0
M  V30 5701 N 569.068 1.32177 -0.85831 0
M  V30 5702 C 570.314 1.97417 -0.46417 0
M  V30 5703 C 570.647 1.67746 0.978514 0
M  V30 5704 O 569.922 0.967654 1.68721 0
M  V30 5705 C 570.205 3.53069 -0.708094 0
M  V30 5706 C 570.058 3.92357 -2.19946 0
M  V30 5707 C 571.377 4.39783 -0.166881 0
M  V30 5708 H 568.496 0.717097 -0.17012 0
M  V30 5709 H 571.138 1.56499 -1.07741 0
M  V30 5710 H 569.288 3.88054 -0.186128 0
M  V30 5711 H 570.96 3.67533 -2.78779 0
M  V30 5712 H 569.203 3.41384 -2.67656 0
M  V30 5713 H 569.874 5.00841 -2.32082 0
M  V30 5714 H 572.35 4.11556 -0.613285 0
M  V30 5715 H 571.226 5.47671 -0.367093 0
M  V30 5716 H 571.487 4.32196 0.930559 0
M  V30 5717 N 570.547 0.616602 1.45037 0
M  V30 5718 C 571.775 0.121968 2.0654 0
M  V30 5719 C 572.19 -1.19743 1.45969 0
M  V30 5720 O 571.547 -1.73133 0.577168 0
M  V30 5721 C 571.598 -0.0145171 3.61497 0
M  V30 5722 O 571.319 1.25269 4.19809 0
M  V30 5723 C 572.82 -0.539555 4.40004 0
M  V30 5724 H 570.04 0.0729837 0.667019 0
M  V30 5725 H 572.584 0.846891 1.8614 0
M  V30 5726 H 570.739 -0.689809 3.81209 0
M  V30 5727 H 571.153 1.08816 5.13088 0
M  V30 5728 H 572.627 -0.584112 5.48901 0
M  V30 5729 H 573.104 -1.56368 4.10421 0
M  V30 5730 H 573.71 0.101995 4.25178 0
M  V30 5731 N 572.025 -1.5352 0.356285 0
M  V30 5732 C 573.273 -2.00719 -0.235837 0
M  V30 5733 C 573.594 -1.24551 -1.5004 0
M  V30 5734 O 572.864 -0.356185 -1.92635 0
M  V30 5735 H 571.444 -0.741542 -0.0901366 0
M  V30 5736 H 574.106 -1.88887 0.480378 0
M  V30 5737 H 573.202 -3.08551 -0.469357 0
M  V30 5738 N 573.503 -0.0852151 -1.57369 0
M  V30 5739 C 574.919 0.271436 -1.57275 0
M  V30 5740 C 575.119 1.69109 -1.09565 0
M  V30 5741 O 574.175 2.40549 -0.767611 0
M  V30 5742 C 575.488 0.0688638 -3.00621 0
M  V30 5743 C 577.036 0.137373 -3.12698 0
M  V30 5744 C 577.511 -0.0370832 -4.57985 0
M  V30 5745 N 579.002 0.0180794 -4.63196 0
M  V30 5746 C 579.737 -0.0922953 -5.73326 0
M  V30 5747 N 579.233 -0.256948 -6.92323 0
M  V30 5748 N 581.026 -0.0342702 -5.6209 0
M  V30 5749 H 573.177 -1.01288 -1.86693 0
M  V30 5750 H 575.44 -0.396138 -0.861266 0
M  V30 5751 H 575.146 -0.911277 -3.39689 0
M  V30 5752 H 575.02 0.815442 -3.6828 0
M  V30 5753 H 577.407 1.10801 -2.73509 0
M  V30 5754 H 577.488 -0.640532 -2.47651 0
M  V30 5755 H 577.132 -1.00455 -4.97867 0
M  V30 5756 H 577.062 0.760392 -5.21081 0
M  V30 5757 H 579.553 0.143202 -3.77629 0
M  V30 5758 H 579.866 -0.332949 -7.72082 0
M  V30 5759 H 578.211 -0.292487 -6.94384 0
M  V30 5760 H 581.402 0.0931605 -4.68007 0
M  V30 5761 H 581.575 -0.12374 -6.47882 0
M  V30 5762 N 574.981 1.5647 0.188427 0
M  V30 5763 C 576.209 1.85131 0.923803 0
M  V30 5764 C 576.624 0.668537 1.76567 0
M  V30 5765 O 575.981 -0.362662 1.7886 0
M  V30 5766 C 576.032 3.12661 1.81453 0
M  V30 5767 O 575.753 4.26378 1.00665 0
M  V30 5768 C 577.254 3.54548 2.66103 0
M  V30 5769 H 574.474 0.614624 0.269218 0
M  V30 5770 H 577.018 2.03581 0.193671 0
M  V30 5771 H 575.173 2.96088 2.49821 0
M  V30 5772 H 575.587 4.99041 1.61425 0
M  V30 5773 H 577.061 4.4673 3.24247 0
M  V30 5774 H 577.538 2.77853 3.40139 0
M  V30 5775 H 578.144 3.73674 2.03096 0
M  V30 5776 N 576.459 -0.456382 1.50847 0
M  V30 5777 C 577.699 -1.21704 1.64218 0
M  V30 5778 C 578.063 -1.88932 0.341859 0
M  V30 5779 O 579.264 -2.66497 0.351137 0
M  V30 5780 C 577.535 -2.22162 2.79962 0
M  V30 5781 S 579.094 -3.0697 3.13552 0
M  V30 5782 H 575.912 -0.412995 0.578754 0
M  V30 5783 H 578.514 -0.511637 1.88686 0
M  V30 5784 H 577.218 -1.71379 3.72904 0
M  V30 5785 H 576.749 -2.9731 2.57624 0
M  V30 5786 H 578.764 -4.23539 2.58513 0
M  V30 5787 N 577.937 -1.40673 -0.710563 0
M  V30 5788 C 578.869 -1.37256 -1.83558 0
M  V30 5789 C 579.882 -0.277133 -1.60424 0
M  V30 5790 O 581.071 -0.537831 -1.70205 0
M  V30 5791 C 578.171 -1.1144 -3.20054 0
M  V30 5792 C 577.344 -2.32734 -3.70342 0
M  V30 5793 C 576.403 -2.03002 -4.85465 0
M  V30 5794 O 575.429 -2.75912 -4.97857 0
M  V30 5795 N 576.631 -1.01105 -5.71627 0
M  V30 5796 H 579.396 -2.34215 -1.86985 0
M  V30 5797 H 576.957 -1.35091 -0.892301 0
M  V30 5798 H 578.949 -0.895265 -3.94673 0
M  V30 5799 H 577.519 -0.231307 -3.11743 0
M  V30 5800 H 576.739 -2.70446 -2.86798 0
M  V30 5801 H 578.027 -3.13584 -4.00678 0
M  V30 5802 H 577.425 -0.407303 -5.64232 0
M  V30 5803 H 575.982 -0.85182 -6.4621 0
M  V30 5804 N 579.415 0.9433 -1.26252 0
M  V30 5805 C 580.378 2.02326 -1.07689 0
M  V30 5806 C 581.378 1.60779 -0.0259174 0
M  V30 5807 O 582.568 1.72108 -0.269134 0
M  V30 5808 C 579.7 3.34886 -0.63752 0
M  V30 5809 H 580.893 2.20225 -2.0357 0
M  V30 5810 H 578.446 1.12197 -1.08819 0
M  V30 5811 H 579.181 3.22684 0.323377 0
M  V30 5812 H 578.966 3.66393 -1.39637 0
M  V30 5813 H 580.456 4.14231 -0.529418 0
M  V30 5814 N 580.893 1.08022 1.14757 0
M  V30 5815 C 582.139 0.818552 1.86202 0
M  V30 5816 C 582.494 -0.648563 1.81139 0
M  V30 5817 O 581.787 -1.4704 1.22841 0
M  V30 5818 C 581.981 1.26964 3.34088 0
M  V30 5819 C 581.81 2.77907 3.5355 0
M  V30 5820 C 580.58 3.45604 3.68627 0
M  V30 5821 C 582.778 3.7609 3.50801 0
M  V30 5822 N 580.76 4.85119 3.76209 0
M  V30 5823 C 582.131 5.0148 3.64579 0
M  V30 5824 C 584.186 3.6915 3.34115 0
M  V30 5825 C 582.889 6.20755 3.63395 0
M  V30 5826 C 584.915 4.87896 3.34233 0
M  V30 5827 C 584.277 6.12123 3.48547 0
M  V30 5828 H 580.376 0.352186 0.698204 0
M  V30 5829 H 582.96 1.37781 1.37567 0
M  V30 5830 H 581.131 0.738008 3.81324 0
M  V30 5831 H 582.863 0.954806 3.93275 0
M  V30 5832 H 579.618 2.96016 3.69691 0
M  V30 5833 H 580.042 5.57748 3.83726 0
M  V30 5834 H 584.684 2.74045 3.21961 0
M  V30 5835 H 582.402 7.16175 3.74326 0
M  V30 5836 H 585.988 4.8421 3.2254 0
M  V30 5837 H 584.868 7.02468 3.48581 0
M  V30 5838 N 582.371 -1.3172 0.865308 0
M  V30 5839 C 583.596 -2.01591 0.487415 0
M  V30 5840 C 584.021 -1.6455 -0.911307 0
M  V30 5841 O 583.379 -0.851689 -1.6005 0
M  V30 5842 C 583.427 -3.54759 0.646401 0
M  V30 5843 O 582.531 -4.11185 -0.316284 0
M  V30 5844 H 581.872 -0.634884 0.194468 0
M  V30 5845 H 584.402 -1.68024 1.16744 0
M  V30 5846 H 584.412 -4.04438 0.537932 0
M  V30 5847 H 583.087 -3.8106 1.66632 0
M  V30 5848 H 581.664 -3.72543 -0.163162 0
M  V30 5849 N 583.85 -0.624285 -1.44708 0
M  V30 5850 C 585.075 -0.131171 -2.06985 0
M  V30 5851 C 585.5 1.18234 -1.46295 0
M  V30 5852 O 584.858 1.72375 -0.561842 0
M  V30 5853 C 584.906 -0.0226724 -3.60593 0
M  V30 5854 O 584.01 1.02314 -3.99507 0
M  V30 5855 H 583.351 -0.0816556 -0.65896 0
M  V30 5856 H 585.88 -0.859027 -1.85693 0
M  V30 5857 H 585.891 0.170138 -4.07645 0
M  V30 5858 H 584.566 -0.981685 -4.04148 0
M  V30 5859 H 583.143 0.805452 -3.64097 0
M  V30 5860 N 585.328 1.53329 -0.364422 0
M  V30 5861 C 586.261 2.22052 0.526145 0
M  V30 5862 C 587.239 1.21203 1.08391 0
M  V30 5863 O 588.423 1.50101 1.14026 0
M  V30 5864 C 585.55 2.91432 1.72583 0
M  V30 5865 C 584.596 4.06345 1.29562 0
M  V30 5866 S 585.429 5.34671 0.297885 0
M  V30 5867 C 586.585 6.07563 1.50392 0
M  V30 5868 H 586.818 2.97244 -0.0575055 0
M  V30 5869 H 584.351 1.53684 -0.148525 0
M  V30 5870 H 586.309 3.3202 2.41398 0
M  V30 5871 H 584.97 2.15966 2.28073 0
M  V30 5872 H 584.163 4.53901 2.19067 0
M  V30 5873 H 583.765 3.67642 0.686696 0
M  V30 5874 H 586.057 6.32224 2.43513 0
M  V30 5875 H 587 6.99973 1.06977 0
M  V30 5876 H 587.408 5.37994 1.70945 0
M  V30 5877 N 586.806 0.0935595 1.57322 0
M  V30 5878 C 588.034 -0.578934 1.98635 0
M  V30 5879 C 588.449 -1.61819 0.972626 0
M  V30 5880 O 587.806 -1.82461 -0.0379638 0
M  V30 5881 C 587.857 -1.22802 3.40003 0
M  V30 5882 O 587.578 -0.230334 4.37494 0
M  V30 5883 C 589.079 -1.98627 3.96311 0
M  V30 5884 H 586.299 -0.155324 0.652775 0
M  V30 5885 H 588.843 0.172393 2.03772 0
M  V30 5886 H 586.998 -1.93029 3.35885 0
M  V30 5887 H 587.412 -0.698649 5.19826 0
M  V30 5888 H 588.886 -2.39405 4.97382 0
M  V30 5889 H 589.363 -2.85151 3.34044 0
M  V30 5890 H 589.969 -1.3322 4.03897 0
M  V30 5891 N 588.284 -1.56567 -0.180126 0
M  V30 5892 C 589.695 -1.7126 -0.743422 0
M  V30 5893 C 590.046 -0.70263 -1.83187 0
M  V30 5894 O 589.171 0.137856 -2.1596 0
M  V30 5895 C 589.766 -3.10512 -1.35528 0
M  V30 5896 C 588.325 -3.26919 -1.8655 0
M  V30 5897 C 587.472 -2.67213 -0.741099 0
M  V30 5898 H 590.423 -1.58636 0.0451543 0
M  V30 5899 H 590.444 -3.08673 -2.22489 0
M  V30 5900 H 589.956 -3.83997 -0.562862 0
M  V30 5901 H 588.057 -2.58376 -2.68464 0
M  V30 5902 H 588.17 -4.34574 -2.01699 0
M  V30 5903 H 586.534 -2.26788 -1.15927 0
M  V30 5904 H 587.317 -3.43277 0.0393291 0
M  V30 5905 N 589.762 0.448376 -1.51087 0
M  V30 5906 C 590.712 1.54156 -1.67988 0
M  V30 5907 C 591.696 1.5178 -0.534015 0
M  V30 5908 O 592.888 1.58419 -0.789448 0
M  V30 5909 C 590.017 2.92437 -1.79822 0
M  V30 5910 C 589.103 2.99611 -3.00157 0
M  V30 5911 N 589.494 2.7655 -4.23502 0
M  V30 5912 C 587.792 3.30764 -2.99184 0
M  V30 5913 C 588.493 2.89281 -5.0467 0
M  V30 5914 N 587.469 3.20473 -4.39088 0
M  V30 5915 H 591.271 1.35061 -2.61028 0
M  V30 5916 H 588.785 0.655504 -1.48583 0
M  V30 5917 H 590.782 3.71068 -1.90037 0
M  V30 5918 H 589.442 3.1256 -0.879554 0
M  V30 5919 H 590.453 2.5169 -4.52628 0
M  V30 5920 H 587.13 3.56732 -2.16907 0
M  V30 5921 H 588.52 2.75499 -6.12821 0
M  V30 5922 N 591.24 1.41047 0.703093 0
M  V30 5923 C 592.465 1.43537 1.49706 0
M  V30 5924 C 592.89 0.0401853 1.88057 0
M  V30 5925 O 592.248 -0.954785 1.54122 0
M  V30 5926 C 592.296 2.3433 2.74084 0
M  V30 5927 O 591.4 1.79515 3.71279 0
M  V30 5928 H 590.741 0.487454 0.450871 0
M  V30 5929 H 593.271 1.85422 0.86486 0
M  V30 5930 H 593.281 2.49947 3.22476 0
M  V30 5931 H 591.956 3.35708 2.45506 0
M  V30 5932 H 590.533 1.7331 3.30179 0
M  V30 5933 N 592.718 -0.936591 1.26751 0
M  V30 5934 C 593.668 -2.0219 1.05371 0
M  V30 5935 C 594.652 -1.60893 -0.0154112 0
M  V30 5936 O 595.844 -1.75843 0.202085 0
M  V30 5937 C 592.973 -3.36222 0.693541 0
M  V30 5938 C 592.059 -3.8399 1.80035 0
M  V30 5939 N 592.45 -4.0436 3.03852 0
M  V30 5940 C 590.748 -4.12945 1.685 0
M  V30 5941 C 591.449 -4.44 3.75818 0
M  V30 5942 N 590.425 -4.50966 3.03531 0
M  V30 5943 H 594.227 -2.15958 1.99347 0
M  V30 5944 H 591.741 -1.12277 1.17335 0
M  V30 5945 H 593.738 -4.13625 0.521513 0
M  V30 5946 H 592.398 -3.23821 -0.238693 0
M  V30 5947 H 593.409 -3.9092 3.39709 0
M  V30 5948 H 590.086 -4.09308 0.822986 0
M  V30 5949 H 591.476 -4.67914 4.82189 0
M  V30 5950 N 594.196 -1.08629 -1.14182 0
M  V30 5951 C 595.421 -0.83902 -1.89671 0
M  V30 5952 C 595.846 0.603332 -1.78161 0
M  V30 5953 O 595.204 1.42301 -1.12339 0
M  V30 5954 C 595.252 -1.26854 -3.37551 0
M  V30 5955 O 594.356 -0.42188 -4.10236 0
M  V30 5956 H 593.697 -0.304545 -0.590041 0
M  V30 5957 H 596.227 -1.4483 -1.44518 0
M  V30 5958 H 596.237 -1.25038 -3.88368 0
M  V30 5959 H 594.912 -2.31901 -3.45246 0
M  V30 5960 H 593.489 -0.503654 -3.69483 0
M  V30 5961 N 595.674 1.31259 -0.872281 0
M  V30 5962 C 597.09 1.49283 -0.564521 0
M  V30 5963 C 597.29 1.80243 0.900807 0
M  V30 5964 O 596.346 1.88246 1.68284 0
M  V30 5965 C 597.659 2.62503 -1.46673 0
M  V30 5966 C 599.207 2.76386 -1.46901 0
M  V30 5967 C 599.682 3.92705 -2.35684 0
M  V30 5968 N 601.173 3.99995 -2.33577 0
M  V30 5969 C 601.908 4.89276 -2.98992 0
M  V30 5970 N 601.404 5.83443 -3.73585 0
M  V30 5971 N 603.197 4.82541 -2.88289 0
M  V30 5972 H 595.348 1.09432 -1.82039 0
M  V30 5973 H 597.611 0.540949 -0.77851 0
M  V30 5974 H 597.317 2.46407 -2.50951 0
M  V30 5975 H 597.191 3.58695 -1.16696 0
M  V30 5976 H 599.578 2.91894 -0.433796 0
M  V30 5977 H 599.659 1.80853 -1.80903 0
M  V30 5978 H 599.303 3.77954 -3.39283 0
M  V30 5979 H 599.233 4.87549 -1.99006 0
M  V30 5980 H 601.724 3.32624 -1.7936 0
M  V30 5981 H 602.037 6.48303 -4.20622 0
M  V30 5982 H 600.382 5.83415 -3.77694 0
M  V30 5983 H 603.573 4.07951 -2.2955 0
M  V30 5984 H 603.746 5.51916 -3.39549 0
M  V30 5985 N 597.152 0.631951 1.44375 0
M  V30 5986 C 598.38 0.143867 2.06399 0
M  V30 5987 C 598.795 -1.18188 1.47231 0
M  V30 5988 O 598.152 -1.72511 0.595498 0
M  V30 5989 C 598.203 0.0238253 3.61492 0
M  V30 5990 O 597.924 1.29715 4.18456 0
M  V30 5991 C 599.425 -0.492856 4.40552 0
M  V30 5992 H 596.645 0.0800542 0.666207 0
M  V30 5993 H 599.189 0.866586 1.85231 0
M  V30 5994 H 597.344 -0.649338 3.81919 0
M  V30 5995 H 597.758 1.14252 5.11905 0
M  V30 5996 H 599.232 -0.525861 5.49489 0
M  V30 5997 H 599.709 -1.52006 4.12057 0
M  V30 5998 H 600.315 0.147085 4.25046 0
M  V30 5999 N 598.631 -1.53133 0.372548 0
M  V30 6000 C 600.042 -1.86404 -0.105155 0
M  V30 6001 C 600.393 -1.29289 -1.47576 0
M  V30 6002 O 599.518 -0.617646 -2.07398 0
M  V30 6003 C 600.113 -3.38223 -0.197588 0
M  V30 6004 C 598.672 -3.71266 -0.619556 0
M  V30 6005 C 597.819 -2.76353 0.228919 0
M  V30 6006 H 600.77 -1.47282 0.591077 0
M  V30 6007 H 600.791 -3.66577 -1.01987 0
M  V30 6008 H 600.303 -3.79763 0.800099 0
M  V30 6009 H 598.404 -3.35287 -1.62522 0
M  V30 6010 H 598.517 -4.77515 -0.389332 0
M  V30 6011 H 596.881 -2.52888 -0.303271 0
M  V30 6012 H 597.664 -3.20728 1.22428 0
M  V30 6013 N 600.109 -0.101901 -1.5727 0
M  V30 6014 C 601.019 0.868647 -2.17926 0
M  V30 6015 C 602.035 1.30527 -1.1506 0
M  V30 6016 O 603.211 1.37178 -1.47459 0
M  V30 6017 C 600.276 2.10727 -2.75309 0
M  V30 6018 C 599.337 1.7242 -3.93154 0
M  V30 6019 C 598.57 2.90377 -4.47791 0
M  V30 6020 O 598.793 4.05305 -4.01353 0
M  V30 6021 O 597.727 2.6845 -5.38719 0
M  V30 6022 H 601.553 0.382544 -3.01281 0
M  V30 6023 H 599.138 0.122812 -1.48894 0
M  V30 6024 H 601.02 2.83303 -3.11958 0
M  V30 6025 H 599.695 2.58376 -1.94996 0
M  V30 6026 H 598.602 0.970039 -3.61305 0
M  V30 6027 H 599.935 1.29528 -4.74851 0
M  V30 6028 N 601.587 1.56661 0.17182 0
M  V30 6029 C 602.817 1.85831 0.902804 0
M  V30 6030 C 603.225 0.685157 1.76358 0
M  V30 6031 O 602.568 -0.354947 1.80238 0
M  V30 6032 C 602.63 3.09406 1.83053 0
M  V30 6033 C 602.294 4.4231 1.1494 0
M  V30 6034 C 603.291 5.17342 0.515104 0
M  V30 6035 C 600.976 4.89045 1.14631 0
M  V30 6036 C 602.97 6.37299 -0.113194 0
M  V30 6037 C 600.657 6.08933 0.514184 0
M  V30 6038 C 601.655 6.82904 -0.114463 0
M  V30 6039 O 601.343 8.00518 -0.736622 0
M  V30 6040 H 601.075 0.620715 0.267748 0
M  V30 6041 H 603.629 2.04637 0.176918 0
M  V30 6042 H 601.859 2.86544 2.59672 0
M  V30 6043 H 603.548 3.25027 2.4313 0
M  V30 6044 H 604.314 4.82317 0.509474 0
M  V30 6045 H 600.193 4.31409 1.62502 0
M  V30 6046 H 603.737 6.94976 -0.604477 0
M  V30 6047 H 599.634 6.43423 0.517395 0
M  V30 6048 H 600.402 8.16027 -0.635822 0
M  V30 6049 N 603.065 -0.440357 1.51323 0
M  V30 6050 C 604.295 -1.21079 1.67402 0
M  V30 6051 C 604.703 -1.85555 0.369599 0
M  V30 6052 O 604.046 -1.71375 -0.661525 0
M  V30 6053 C 604.108 -2.33839 2.73056 0
M  V30 6054 C 603.772 -1.89755 4.15743 0
M  V30 6055 C 604.769 -1.40268 5.0062 0
M  V30 6056 C 602.454 -1.97539 4.61826 0
M  V30 6057 C 604.448 -0.991474 6.29642 0
M  V30 6058 C 602.135 -1.56029 5.90845 0
M  V30 6059 C 603.133 -1.06915 6.7458 0
M  V30 6060 O 602.821 -0.659933 8.01187 0
M  V30 6061 H 602.553 -0.371133 0.56501 0
M  V30 6062 H 605.107 -0.528409 1.98487 0
M  V30 6063 H 603.337 -3.05345 2.37279 0
M  V30 6064 H 605.026 -2.95713 2.78044 0
M  V30 6065 H 605.792 -1.33652 4.66221 0
M  V30 6066 H 601.671 -2.34713 3.96776 0
M  V30 6067 H 605.215 -0.607425 6.9495 0
M  V30 6068 H 601.112 -1.62315 6.24759 0
M  V30 6069 H 601.88 -0.786052 8.14717 0
M  V30 6070 N 604.543 -1.41418 -0.695603 0
M  V30 6071 C 605.954 -1.36335 -1.27552 0
M  V30 6072 C 606.305 -0.0464336 -1.96145 0
M  V30 6073 O 605.43 0.855304 -1.9878 0
M  V30 6074 C 606.025 -2.46941 -2.3196 0
M  V30 6075 C 604.584 -2.45256 -2.85529 0
M  V30 6076 C 603.731 -2.2679 -1.59566 0
M  V30 6077 H 606.682 -1.50934 -0.490362 0
M  V30 6078 H 606.703 -2.15997 -3.1325 0
M  V30 6079 H 606.215 -3.42775 -1.82008 0
M  V30 6080 H 604.316 -1.53179 -3.39657 0
M  V30 6081 H 604.429 -3.41565 -3.35961 0
M  V30 6082 H 602.793 -1.74667 -1.85374 0
M  V30 6083 H 603.576 -3.24651 -1.1161 0
M  V30 6084 N 606.021 0.929856 -1.27246 0
M  V30 6085 C 606.969 2.05151 -1.09616 0
M  V30 6086 C 607.963 1.69388 -0.0198617 0
M  V30 6087 O 609.169 1.79124 -0.177417 0
M  V30 6088 H 605.544 0.671909 -0.337701 0
M  V30 6089 H 607.515 2.17168 -2.04648 0
M  V30 6090 C 606.264 3.3934 -0.757851 0
M  V30 6091 H 605.587 3.67343 -1.57795 0
M  V30 6092 H 607.027 4.18603 -0.674358 0
M  V30 6093 C 605.486 3.32582 0.537658 0
M  V30 6094 O 606.016 3.69633 1.57271 0
M  V30 6095 N 604.222 2.8568 0.532478 0
M  V30 6096 H 603.769 2.55725 -0.310233 0
M  V30 6097 H 603.727 2.81541 1.39936 0
M  V30 6098 N 607.499 1.09233 1.13605 0
M  V30 6099 C 608.462 0.733553 2.17144 0
M  V30 6100 C 609.462 -0.235873 1.59061 0
M  V30 6101 O 610.652 -0.0143167 1.74194 0
M  V30 6102 C 607.784 0.084471 3.40795 0
M  V30 6103 H 608.977 1.65049 2.50397 0
M  V30 6104 H 606.53 0.891264 1.28399 0
M  V30 6105 H 607.265 -0.843795 3.1313 0
M  V30 6106 H 607.05 0.781985 3.84223 0
M  V30 6107 H 608.54 -0.151216 4.17326 0
M  V30 6108 N 608.977 -1.30795 0.87923 0
M  V30 6109 C 610.225 -1.95974 0.493809 0
M  V30 6110 C 610.546 -1.69787 -0.959021 0
M  V30 6111 O 609.816 -1.01832 -1.67353 0
M  V30 6112 H 608.396 -0.725083 0.179622 0
M  V30 6113 H 611.058 -1.59432 1.12105 0
M  V30 6114 H 610.154 -3.05058 0.659263 0
M  V30 6115 N 610.455 -0.639598 -1.44038 0
M  V30 6116 C 611.385 0.0469443 -2.33453 0
M  V30 6117 C 612.366 0.82609 -1.48694 0
M  V30 6118 O 613.551 0.790285 -1.77393 0
M  V30 6119 C 610.681 1.02338 -3.3188 0
M  V30 6120 C 609.635 0.355284 -4.26523 0
M  V30 6121 C 608.961 1.44221 -5.14883 0
M  V30 6122 C 610.261 -0.743798 -5.16977 0
M  V30 6123 H 611.955 -0.699735 -2.91108 0
M  V30 6124 H 609.501 -0.337946 -1.39978 0
M  V30 6125 H 611.454 1.51247 -3.93322 0
M  V30 6126 H 610.178 1.80105 -2.72451 0
M  V30 6127 H 608.837 -0.113239 -3.66425 0
M  V30 6128 H 608.485 2.21097 -4.51802 0
M  V30 6129 H 608.185 1.00052 -5.79019 0
M  V30 6130 H 609.709 1.93295 -5.79197 0
M  V30 6131 H 611.123 -0.337444 -5.72306 0
M  V30 6132 H 609.52 -1.10914 -5.89761 0
M  V30 6133 H 610.59 -1.60745 -4.57481 0
M  V30 6134 N 611.933 1.52934 -0.380664 0
M  V30 6135 C 613.182 2.00651 0.205477 0
M  V30 6136 C 613.495 1.27164 1.48623 0
M  V30 6137 O 614.701 1.65547 2.15189 0
M  V30 6138 C 613.157 3.57479 0.416726 0
M  V30 6139 C 612.765 4.39857 -0.850268 0
M  V30 6140 C 614.509 4.13509 0.959702 0
M  V30 6141 C 612.416 5.88269 -0.607773 0
M  V30 6142 H 611.346 0.749684 0.0805614 0
M  V30 6143 H 613.997 1.76508 -0.501732 0
M  V30 6144 H 612.379 3.77836 1.18557 0
M  V30 6145 H 613.553 4.31269 -1.62307 0
M  V30 6146 H 611.868 3.95005 -1.31756 0
M  V30 6147 H 614.465 5.22039 1.15669 0
M  V30 6148 H 614.808 3.69054 1.92626 0
M  V30 6149 H 615.341 3.9701 0.250645 0
M  V30 6150 H 612.08 6.3703 -1.54509 0
M  V30 6151 H 611.6 5.99667 0.126247 0
M  V30 6152 H 613.279 6.46558 -0.239014 0
M  V30 6153 N 613.412 0.11024 1.57214 0
M  V30 6154 C 614.345 -0.880224 2.1054 0
M  V30 6155 C 615.323 -1.26658 1.01964 0
M  V30 6156 O 616.507 -1.36917 1.29561 0
M  V30 6157 C 613.634 -2.17676 2.59489 0
M  V30 6158 C 612.68 -1.93914 3.79868 0
M  V30 6159 S 613.513 -1.16336 5.2271 0
M  V30 6160 C 614.669 -2.47188 5.75021 0
M  V30 6161 H 614.902 -0.426614 2.94223 0
M  V30 6162 H 612.435 -0.10336 1.54054 0
M  V30 6163 H 614.393 -2.92175 2.88347 0
M  V30 6164 H 613.054 -2.60156 1.76005 0
M  V30 6165 H 612.247 -2.8996 4.12236 0
M  V30 6166 H 611.849 -1.27539 3.51582 0
M  V30 6167 H 614.141 -3.43079 5.84211 0
M  V30 6168 H 615.084 -2.19377 6.7326 0
M  V30 6169 H 615.492 -2.56154 5.03036 0
M  V30 6170 N 614.89 -1.56749 -0.16351 0
M  V30 6171 C 615.838 -1.97939 -1.22159 0
M  V30 6172 C 616.832 -0.869288 -1.45395 0
M  V30 6173 O 618.038 -1.05443 -1.45883 0
M  V30 6174 H 614.413 -0.629869 -0.410815 0
M  V30 6175 H 616.384 -2.86115 -0.847381 0
M  V30 6176 C 615.133 -2.36206 -2.55151 0
M  V30 6177 H 614.456 -3.2117 -2.38097 0
M  V30 6178 H 615.896 -2.68863 -3.27854 0
M  V30 6179 C 614.355 -1.20841 -3.14482 0
M  V30 6180 O 614.885 -0.500258 -3.98573 0
M  V30 6181 N 613.091 -0.976943 -2.73686 0
M  V30 6182 H 612.638 -1.55457 -2.05404 0
M  V30 6183 H 612.596 -0.206912 -3.13718 0
M  V30 6184 N 616.368 0.432326 -1.51554 0
M  V30 6185 C 617.598 1.2019 -1.68042 0
M  V30 6186 C 618.006 1.85356 -0.379434 0
M  V30 6187 O 617.349 1.71724 0.652427 0
M  V30 6188 C 617.411 2.32387 -2.74292 0
M  V30 6189 C 617.075 1.87548 -4.16743 0
M  V30 6190 C 618.072 1.37611 -5.01357 0
M  V30 6191 C 615.757 1.95087 -4.62868 0
M  V30 6192 C 617.751 0.958069 -6.30159 0
M  V30 6193 C 615.438 1.52894 -5.91664 0
M  V30 6194 C 616.436 1.03336 -6.75137 0
M  V30 6195 O 616.124 0.617435 -8.01525 0
M  V30 6196 H 615.856 0.368132 -0.56697 0
M  V30 6197 H 618.41 0.517875 -1.98764 0
M  V30 6198 H 616.64 3.04082 -2.38895 0
M  V30 6199 H 618.329 2.94235 -2.79608 0
M  V30 6200 H 619.095 1.31178 -4.66923 0
M  V30 6201 H 614.974 2.32606 -3.98015 0
M  V30 6202 H 618.518 0.570562 -6.95263 0
M  V30 6203 H 614.415 1.58999 -6.25611 0
M  V30 6204 H 615.183 0.742835 -8.15122 0
M  V30 6205 N 617.846 1.41785 0.688094 0
M  V30 6206 C 619.086 1.43018 1.46032 0
M  V30 6207 C 619.45 0.0402632 1.91958 0
M  V30 6208 O 620.651 -0.0726425 2.68702 0
M  V30 6209 C 618.922 2.4151 2.63453 0
M  V30 6210 S 620.481 2.61335 3.5249 0
M  V30 6211 H 617.299 0.506546 0.498931 0
M  V30 6212 H 619.901 1.78283 0.80221 0
M  V30 6213 H 618.605 3.41286 2.27929 0
M  V30 6214 H 618.136 2.07624 3.34149 0
M  V30 6215 H 620.151 1.88637 4.58945 0
M  V30 6216 N 619.324 -0.923095 1.27737 0
M  V30 6217 C 620.74 -1.19985 1.05241 0
M  V30 6218 C 620.94 -2.00391 -0.21113 0
M  V30 6219 O 619.996 -2.35324 -0.915366 0
M  V30 6220 C 621.309 -1.94352 2.29451 0
M  V30 6221 C 622.857 -2.07273 2.34536 0
M  V30 6222 C 623.332 -2.85046 3.58487 0
M  V30 6223 N 624.823 -2.92612 3.59072 0
M  V30 6224 C 625.558 -3.53266 4.51654 0
M  V30 6225 N 625.054 -4.15274 5.54545 0
M  V30 6226 N 626.847 -3.50714 4.39268 0
M  V30 6227 H 618.998 -0.386042 2.08862 0
M  V30 6228 H 621.261 -0.233407 0.918817 0
M  V30 6229 H 620.967 -1.42692 3.21453 0
M  V30 6230 H 620.841 -2.94947 2.3513 0
M  V30 6231 H 623.228 -2.58117 1.43037 0
M  V30 6232 H 623.309 -1.05884 2.32857 0
M  V30 6233 H 622.953 -2.34884 4.50324 0
M  V30 6234 H 622.883 -3.8673 3.57418 0
M  V30 6235 H 625.374 -2.48547 2.84663 0
M  V30 6236 H 625.687 -4.59507 6.21348 0
M  V30 6237 H 624.032 -4.13806 5.58382 0
M  V30 6238 H 627.223 -3.01475 3.58093 0
M  V30 6239 H 627.396 -3.97693 5.1161 0
M  V30 6240 N 620.802 -1.09834 -1.13024 0
M  V30 6241 C 621.75 -0.736283 -2.20639 0
M  V30 6242 C 622.744 0.264725 -1.67319 0
M  V30 6243 O 623.95 0.125745 -1.7956 0
M  V30 6244 H 620.325 -0.220136 -0.719058 0
M  V30 6245 H 622.296 -1.65295 -2.48436 0
M  V30 6246 C 621.045 -0.177544 -3.47246 0
M  V30 6247 H 620.368 -0.939009 -3.88616 0
M  V30 6248 H 621.808 0.0378007 -4.23983 0
M  V30 6249 C 620.267 1.08824 -3.1884 0
M  V30 6250 O 620.797 2.1708 -3.37993 0
M  V30 6251 N 619.003 1.00442 -2.7269 0
M  V30 6252 H 618.55 0.123383 -2.57304 0
M  V30 6253 H 618.508 1.85206 -2.5406 0
M  V30 6254 N 622.28 1.30327 -0.886154 0
M  V30 6255 C 623.691 1.78243 -0.555554 0
M  V30 6256 C 624.042 1.72849 0.928314 0
M  V30 6257 O 623.167 1.30607 1.72542 0
M  V30 6258 C 623.762 3.23654 -1.00168 0
M  V30 6259 C 622.321 3.69401 -0.722471 0
M  V30 6260 C 621.468 2.50753 -1.18399 0
M  V30 6261 H 624.419 1.1718 -1.07026 0
M  V30 6262 H 624.44 3.79056 -0.331152 0
M  V30 6263 H 623.952 3.27548 -2.08169 0
M  V30 6264 H 622.053 3.70995 0.345496 0
M  V30 6265 H 622.166 4.60818 -1.31085 0
M  V30 6266 H 620.53 2.47452 -0.603303 0
M  V30 6267 H 621.313 2.57383 -2.27176 0
M  V30 6268 N 623.758 0.647228 1.43697 0
M  V30 6269 C 625.035 0.0883758 1.954 0
M  V30 6270 C 625.415 -1.39006 1.58873 0
M  V30 6271 O 624.763 -2.11255 0.87083 0
M  V30 6272 C 624.973 0.328263 3.47453 0
M  V30 6273 C 626.321 0.230009 4.23977 0
M  V30 6274 O 627.345 0.260496 3.55246 0
M  V30 6275 O 626.204 0.148615 5.46298 0
M  V30 6276 H 623.298 -0.0130683 0.826897 0
M  V30 6277 H 625.844 0.72005 1.53666 0
M  V30 6278 H 624.616 1.3535 3.67146 0
M  V30 6279 H 624.239 -0.336772 3.96171 0
M  V30 6280 N 625.236 -1.5273 0.388769 0
M  V30 6281 C 626.199 -2.25043 -0.434544 0
M  V30 6282 C 627.199 -1.26661 -0.990644 0
M  V30 6283 O 628.389 -1.50762 -0.872731 0
M  V30 6284 C 625.521 -3.00507 -1.60961 0
M  V30 6285 H 626.714 -2.99242 0.198549 0
M  V30 6286 H 624.267 -1.55664 0.140875 0
M  V30 6287 H 625.002 -2.30607 -2.28015 0
M  V30 6288 H 624.787 -3.72716 -1.21757 0
M  V30 6289 H 626.277 -3.55413 -2.19251 0
M  V30 6290 N 626.714 -0.118576 -1.57153 0
M  V30 6291 C 627.96 0.540326 -1.95469 0
M  V30 6292 C 628.293 1.66356 -1.00196 0
M  V30 6293 O 627.568 1.94461 -0.039104 0
M  V30 6294 C 627.851 1.07342 -3.43729 0
M  V30 6295 C 627.704 -0.0463732 -4.49776 0
M  V30 6296 C 629.023 1.96442 -3.93826 0
M  V30 6297 H 626.142 0.19494 -0.710751 0
M  V30 6298 H 628.784 -0.19405 -1.89006 0
M  V30 6299 H 626.934 1.69925 -3.49368 0
M  V30 6300 H 628.606 -0.681648 -4.56236 0
M  V30 6301 H 626.849 -0.709574 -4.27957 0
M  V30 6302 H 627.52 0.367856 -5.50773 0
M  V30 6303 H 629.996 1.43731 -3.90488 0
M  V30 6304 H 628.872 2.3066 -4.98084 0
M  V30 6305 H 629.133 2.89077 -3.34495 0
M  V30 6306 N 628.193 1.56834 0.155195 0
M  V30 6307 C 629.156 1.96748 1.17571 0
M  V30 6308 C 630.156 0.853006 1.3631 0
M  V30 6309 O 631.346 1.11978 1.33441 0
M  V30 6310 C 628.478 2.27631 2.53765 0
M  V30 6311 H 629.671 2.88085 0.833498 0
M  V30 6312 H 627.224 1.51141 0.398242 0
M  V30 6313 H 627.959 1.39059 2.92973 0
M  V30 6314 H 627.744 3.0888 2.41527 0
M  V30 6315 H 629.234 2.59377 3.27282 0
M  V30 6316 N 629.671 -0.424282 1.51781 0
M  V30 6317 C 630.634 -1.49848 1.73431 0
M  V30 6318 C 631.634 -1.49016 0.604225 0
M  V30 6319 O 632.824 -1.50808 0.871935 0
M  V30 6320 C 629.956 -2.89332 1.80277 0
M  V30 6321 H 631.149 -1.3195 2.69312 0
M  V30 6322 H 628.702 -0.653809 1.41968 0
M  V30 6323 H 629.437 -3.12618 0.862568 0
M  V30 6324 H 629.222 -2.9134 2.62419 0
M  V30 6325 H 630.712 -3.67233 1.98821 0
M  V30 6326 N 631.149 -1.42148 -0.680565 0
M  V30 6327 C 632.56 -1.3768 -1.26099 0
M  V30 6328 C 632.911 -0.0672348 -1.96085 0
M  V30 6329 O 632.036 0.834172 -1.99676 0
M  V30 6330 C 632.631 -2.49387 -2.29328 0
M  V30 6331 C 631.19 -2.4827 -2.82911 0
M  V30 6332 C 630.337 -2.2847 -1.57152 0
M  V30 6333 H 633.288 -1.51446 -0.474326 0
M  V30 6334 H 633.309 -2.19307 -3.10941 0
M  V30 6335 H 632.821 -3.44686 -1.78363 0
M  V30 6336 H 630.922 -1.56773 -3.38013 0
M  V30 6337 H 631.035 -3.45109 -3.3232 0
M  V30 6338 H 629.399 -1.76623 -1.83511 0
M  V30 6339 H 630.182 -3.25816 -1.0816 0
M  V30 6340 N 632.627 0.916307 -1.28225 0
M  V30 6341 C 633.857 1.69654 -1.17902 0
M  V30 6342 C 634.265 1.87331 0.265268 0
M  V30 6343 O 633.608 1.39828 1.19137 0
M  V30 6344 C 633.67 3.11024 -1.80289 0
M  V30 6345 C 633.334 3.16643 -3.29525 0
M  V30 6346 C 634.331 2.98032 -4.25997 0
M  V30 6347 C 632.016 3.39238 -3.70436 0
M  V30 6348 C 634.01 3.01924 -5.61356 0
M  V30 6349 C 631.697 3.42762 -5.05922 0
M  V30 6350 C 632.695 3.24125 -6.01192 0
M  V30 6351 O 632.383 3.27406 -7.34208 0
M  V30 6352 H 632.115 0.537197 -0.41036 0
M  V30 6353 H 634.669 1.15547 -1.69817 0
M  V30 6354 H 632.899 3.66662 -1.22865 0
M  V30 6355 H 634.588 3.71063 -1.6452 0
M  V30 6356 H 635.354 2.80405 -3.95725 0
M  V30 6357 H 631.233 3.52791 -2.96749 0
M  V30 6358 H 634.777 2.87295 -6.35694 0
M  V30 6359 H 630.674 3.59916 -5.35846 0
M  V30 6360 H 631.442 3.43784 -7.42802 0
M  V30 6361 N 634.105 1.10431 1.1244 0
M  V30 6362 C 635.345 0.856518 1.85589 0
M  V30 6363 C 635.709 -0.606905 1.82156 0
M  V30 6364 O 636.91 -0.97105 2.50647 0
M  V30 6365 C 635.181 1.38977 3.29272 0
M  V30 6366 S 636.74 1.27739 4.19795 0
M  V30 6367 H 633.558 0.309509 0.640098 0
M  V30 6368 H 636.16 1.40975 1.35449 0
M  V30 6369 H 634.864 2.44887 3.2933 0
M  V30 6370 H 634.395 0.833112 3.84477 0
M  V30 6371 H 636.41 0.235051 4.95643 0
M  V30 6372 N 635.583 -1.29855 0.893053 0
M  V30 6373 C 636.813 -1.99686 0.530019 0
M  V30 6374 C 637.221 -1.67066 -0.888012 0
M  V30 6375 O 636.564 -0.908366 -1.5967 0
M  V30 6376 C 636.626 -3.53855 0.63457 0
M  V30 6377 C 636.29 -4.10013 2.01837 0
M  V30 6378 C 637.287 -4.25406 2.98874 0
M  V30 6379 C 634.972 -4.45202 2.32595 0
M  V30 6380 C 636.966 -4.7521 4.24799 0
M  V30 6381 C 634.653 -4.94704 3.58763 0
M  V30 6382 C 635.651 -5.09662 4.5468 0
M  V30 6383 O 635.339 -5.58093 5.78608 0
M  V30 6384 H 635.071 -0.644913 0.20264 0
M  V30 6385 H 637.625 -1.66518 1.20253 0
M  V30 6386 H 635.855 -3.86583 -0.0949477 0
M  V30 6387 H 637.544 -4.04922 0.281648 0
M  V30 6388 H 638.31 -3.98515 2.76425 0
M  V30 6389 H 634.189 -4.32822 1.58701 0
M  V30 6390 H 637.733 -4.86801 4.99671 0
M  V30 6391 H 633.63 -5.21032 3.81046 0
M  V30 6392 H 634.398 -5.7642 5.81104 0
M  V30 6393 N 637.061 -0.65484 -1.43351 0
M  V30 6394 C 638.289 -0.176685 -2.06144 0
M  V30 6395 C 638.704 1.15831 -1.49093 0
M  V30 6396 O 638.061 1.71542 -0.622868 0
M  V30 6397 C 638.112 -0.0813326 -3.61408 0
M  V30 6398 O 637.833 -1.36355 -4.1634 0
M  V30 6399 C 639.334 0.422706 -4.4128 0
M  V30 6400 H 636.554 -0.0906429 -0.66485 0
M  V30 6401 H 639.098 -0.895945 -1.83829 0
M  V30 6402 H 637.253 0.588496 -3.82904 0
M  V30 6403 H 637.667 -1.22381 -5.10023 0
M  V30 6404 H 639.141 0.438375 -5.50257 0
M  V30 6405 H 639.618 1.45432 -4.14423 0
M  V30 6406 H 640.224 -0.214687 -4.24758 0
M  V30 6407 N 638.539 1.52521 -0.396863 0
M  V30 6408 C 639.955 1.5953 -0.0471659 0
M  V30 6409 C 640.155 1.41044 1.43906 0
M  V30 6410 O 639.211 1.23122 2.20448 0
M  V30 6411 C 640.524 2.95972 -0.531113 0
M  V30 6412 C 642.072 3.09172 -0.488024 0
M  V30 6413 C 642.547 4.48075 -0.948281 0
M  V30 6414 N 644.038 4.54281 -0.9046 0
M  V30 6415 C 644.773 5.60007 -1.23205 0
M  V30 6416 N 644.269 6.73343 -1.63036 0
M  V30 6417 N 646.062 5.50151 -1.15282 0
M  V30 6418 H 638.213 1.62786 -1.36435 0
M  V30 6419 H 640.476 0.76514 -0.559701 0
M  V30 6420 H 640.182 3.14741 -1.56942 0
M  V30 6421 H 640.056 3.77143 0.0657922 0
M  V30 6422 H 642.443 2.90095 0.541211 0
M  V30 6423 H 642.524 2.29937 -1.12083 0
M  V30 6424 H 642.168 4.67894 -1.97578 0
M  V30 6425 H 642.098 5.25788 -0.292412 0
M  V30 6426 H 644.589 3.72918 -0.6116 0
M  V30 6427 H 644.902 7.49992 -1.86365 0
M  V30 6428 H 643.247 6.74655 -1.66929 0
M  V30 6429 H 646.438 4.6049 -0.840602 0
M  V30 6430 H 646.611 6.32444 -1.41133 0
M  V30 6431 N 640.017 0.126909 1.57088 0
M  V30 6432 C 641.294 -0.573152 1.87014 0
M  V30 6433 C 641.674 -1.84297 1.02945 0
M  V30 6434 O 641.022 -2.28232 0.110573 0
M  V30 6435 C 641.232 -0.857984 3.38289 0
M  V30 6436 C 642.58 -1.20759 4.07066 0
M  V30 6437 O 643.604 -0.947992 3.43353 0
M  V30 6438 O 642.463 -1.69516 5.19545 0
M  V30 6439 H 639.557 -0.290082 0.774456 0
M  V30 6440 H 642.103 0.162008 1.68925 0
M  V30 6441 H 640.875 0.0415286 3.91278 0
M  V30 6442 H 640.498 -1.64803 3.61837 0
M  V30 6443 N 641.495 -1.56914 -0.146875 0
M  V30 6444 C 642.906 -1.72799 -0.706928 0
M  V30 6445 C 643.257 -0.741329 -1.81656 0
M  V30 6446 O 642.382 0.0920162 -2.16204 0
M  V30 6447 C 642.977 -3.13317 -1.28911 0
M  V30 6448 C 641.536 -3.30803 -1.79573 0
M  V30 6449 C 640.683 -2.68725 -0.684252 0
M  V30 6450 H 643.634 -1.58504 0.0787931 0
M  V30 6451 H 643.655 -3.13323 -2.15891 0
M  V30 6452 H 643.167 -3.85104 -0.481284 0
M  V30 6453 H 641.268 -2.64012 -2.62923 0
M  V30 6454 H 641.381 -4.38754 -1.92436 0
M  V30 6455 H 639.745 -2.29196 -1.11091 0
M  V30 6456 H 640.528 -3.43117 0.112134 0
M  V30 6457 N 642.974 0.416227 -1.52004 0
M  V30 6458 C 644.222 1.16153 -1.65387 0
M  V30 6459 C 644.543 1.91208 -0.382669 0
M  V30 6460 O 643.813 1.86413 0.602231 0
M  V30 6461 H 642.393 0.431765 -0.60958 0
M  V30 6462 H 645.055 0.475151 -1.89019 0
M  V30 6463 H 644.151 1.87952 -2.4916 0
M  V30 6464 N 644.452 1.42507 0.673017 0
M  V30 6465 C 645.698 1.43284 1.43519 0
M  V30 6466 C 646.031 0.049668 1.94136 0
M  V30 6467 O 645.306 -0.926369 1.71022 0
M  V30 6468 C 645.589 2.45874 2.63093 0
M  V30 6469 C 645.442 3.93388 2.18096 0
M  V30 6470 C 646.761 2.45431 3.6531 0
M  V30 6471 H 643.88 0.521752 0.520522 0
M  V30 6472 H 646.522 1.73932 0.764701 0
M  V30 6473 H 644.672 2.19869 3.20296 0
M  V30 6474 H 646.344 4.30379 1.66046 0
M  V30 6475 H 644.587 4.07169 1.49652 0
M  V30 6476 H 645.258 4.60752 3.03993 0
M  V30 6477 H 647.734 2.68561 3.17827 0
M  V30 6478 H 646.61 3.19189 4.46553 0
M  V30 6479 H 646.871 1.48092 4.16559 0
M  V30 6480 N 645.93 -0.909495 1.28709 0
M  V30 6481 C 647.346 -1.18862 1.06508 0
M  V30 6482 C 647.546 -2.00604 -0.189864 0
M  V30 6483 O 646.602 -2.36281 -0.890355 0
M  V30 6484 C 647.915 -1.91908 2.31499 0
M  V30 6485 C 649.463 -2.04773 2.36721 0
M  V30 6486 C 649.938 -2.81228 3.6149 0
M  V30 6487 N 651.429 -2.88787 3.62155 0
M  V30 6488 C 652.164 -3.48455 4.55375 0
M  V30 6489 N 651.66 -4.09369 5.58918 0
M  V30 6490 N 653.453 -3.46035 4.42963 0
M  V30 6491 H 645.604 -0.363867 2.0926 0
M  V30 6492 H 647.867 -0.223649 0.921241 0
M  V30 6493 H 647.573 -1.39275 3.22948 0
M  V30 6494 H 647.447 -2.92436 2.38245 0
M  V30 6495 H 649.834 -2.56585 1.45767 0
M  V30 6496 H 649.915 -1.03408 2.33967 0
M  V30 6497 H 649.559 -2.30094 4.5279 0
M  V30 6498 H 649.489 -3.82917 3.61499 0
M  V30 6499 H 651.98 -2.45514 2.87283 0
M  V30 6500 H 652.293 -4.52891 6.26187 0
M  V30 6501 H 650.638 -4.0786 5.62739 0
M  V30 6502 H 653.829 -2.9766 3.6127 0
M  V30 6503 H 654.002 -3.92244 5.15799 0
M  V30 6504 N 647.408 -1.11026 -1.11852 0
M  V30 6505 C 648.654 -0.867633 -1.83967 0
M  V30 6506 C 649.009 0.600309 -1.82795 0
M  V30 6507 O 648.302 1.43731 -1.26696 0
M  V30 6508 C 648.496 -1.35777 -3.30604 0
M  V30 6509 C 648.325 -2.87183 -3.46058 0
M  V30 6510 C 647.095 -3.55256 -3.59334 0
M  V30 6511 C 649.293 -3.85258 -3.40706 0
M  V30 6512 N 647.275 -4.94923 -3.63215 0
M  V30 6513 C 648.646 -5.1097 -3.51155 0
M  V30 6514 C 650.701 -3.77879 -3.2421 0
M  V30 6515 C 649.404 -6.30171 -3.46809 0
M  V30 6516 C 651.43 -4.96586 -3.2118 0
M  V30 6517 C 650.792 -6.21149 -3.32196 0
M  V30 6518 H 646.891 -0.370574 -0.688621 0
M  V30 6519 H 649.475 -1.41379 -1.33865 0
M  V30 6520 H 647.646 -0.83885 -3.79233 0
M  V30 6521 H 649.378 -1.05874 -3.90606 0
M  V30 6522 H 646.133 -3.05714 -3.61713 0
M  V30 6523 H 646.557 -5.67726 -3.68804 0
M  V30 6524 H 651.199 -2.82485 -3.14582 0
M  V30 6525 H 648.917 -7.25847 -3.55206 0
M  V30 6526 H 652.503 -4.92591 -3.09589 0
M  V30 6527 H 651.383 -7.11463 -3.29834 0
M  V30 6528 N 648.886 1.2938 -0.899927 0
M  V30 6529 C 649.796 2.31462 -0.382437 0
M  V30 6530 C 650.812 1.65956 0.522929 0
M  V30 6531 O 651.988 1.97131 0.412454 0
M  V30 6532 C 649.053 3.44595 0.381472 0
M  V30 6533 C 648.114 4.25692 -0.555444 0
M  V30 6534 C 647.347 5.33422 0.172102 0
M  V30 6535 O 647.57 5.53053 1.396 0
M  V30 6536 O 646.504 5.99939 -0.485491 0
M  V30 6537 H 650.33 2.77706 -1.22934 0
M  V30 6538 H 647.915 1.33821 -0.664259 0
M  V30 6539 H 649.797 4.13474 0.813442 0
M  V30 6540 H 648.472 3.00458 1.20443 0
M  V30 6541 H 647.379 3.59453 -1.03653 0
M  V30 6542 H 648.712 4.73471 -1.34483 0
M  V30 6543 N 650.364 0.662433 1.43002 0
M  V30 6544 C 651.594 0.187343 2.05749 0
M  V30 6545 C 652.002 -1.15582 1.49791 0
M  V30 6546 O 651.345 -1.72651 0.627487 0
M  V30 6547 C 651.407 0.0316493 3.59486 0
M  V30 6548 C 651.071 1.30156 4.38073 0
M  V30 6549 C 652.068 2.23234 4.69535 0
M  V30 6550 C 649.753 1.54572 4.77926 0
M  V30 6551 C 651.747 3.39012 5.39768 0
M  V30 6552 C 649.434 2.70641 5.47902 0
M  V30 6553 C 650.432 3.62687 5.78746 0
M  V30 6554 O 650.12 4.76728 6.47291 0
M  V30 6555 H 649.852 0.0915214 0.669776 0
M  V30 6556 H 652.406 0.905982 1.8434 0
M  V30 6557 H 650.636 -0.742451 3.79506 0
M  V30 6558 H 652.325 -0.401977 4.03905 0
M  V30 6559 H 653.091 2.05616 4.39257 0
M  V30 6560 H 648.97 0.83804 4.53319 0
M  V30 6561 H 652.514 4.10877 5.63761 0
M  V30 6562 H 648.411 2.88189 5.77596 0
M  V30 6563 H 649.179 4.76113 6.65777 0
M  V30 6564 N 651.842 -1.52309 0.404946 0
M  V30 6565 C 653.082 -2.03677 -0.171779 0
M  V30 6566 C 653.446 -1.28419 -1.42733 0
M  V30 6567 O 654.647 -1.69991 -2.08222 0
M  V30 6568 C 652.918 -3.54951 -0.417701 0
M  V30 6569 S 654.477 -4.28114 -0.962472 0
M  V30 6570 H 651.295 -0.709445 -0.0469912 0
M  V30 6571 H 653.897 -1.874 0.556901 0
M  V30 6572 H 652.601 -4.07306 0.50295 0
M  V30 6573 H 652.132 -3.75462 -1.17437 0
M  V30 6574 H 654.147 -4.42589 -2.24342 0
M  V30 6575 N 653.32 -0.135238 -1.57019 0
M  V30 6576 C 654.268 0.826099 -2.17436 0
M  V30 6577 C 655.262 1.26378 -1.12805 0
M  V30 6578 O 656.468 1.23363 -1.31079 0
M  V30 6579 H 652.843 0.284568 -0.696078 0
M  V30 6580 H 654.814 0.292212 -2.96966 0
M  V30 6581 C 653.563 2.05991 -2.80112 0
M  V30 6582 H 652.886 1.73209 -3.60331 0
M  V30 6583 H 654.326 2.71225 -3.25903 0
M  V30 6584 C 652.785 2.86027 -1.78017 0
M  V30 6585 O 653.315 3.81971 -1.24344 0
M  V30 6586 N 651.521 2.50332 -1.47588 0
M  V30 6587 H 651.068 1.72377 -1.91426 0
M  V30 6588 H 651.026 3.04177 -0.795228 0
M  V30 6589 N 654.798 1.5699 0.138552 0
M  V30 6590 C 655.728 2.01933 1.17241 0
M  V30 6591 C 656.709 0.90033 1.44319 0
M  V30 6592 O 657.894 1.16872 1.55095 0
M  V30 6593 C 655.024 2.40711 2.50351 0
M  V30 6594 C 653.978 3.55874 2.37776 0
M  V30 6595 C 653.304 3.80491 3.75674 0
M  V30 6596 C 654.604 4.8826 1.85472 0
M  V30 6597 H 656.298 2.88551 0.798672 0
M  V30 6598 H 653.844 1.3882 0.382743 0
M  V30 6599 H 655.797 2.70754 3.22909 0
M  V30 6600 H 654.521 1.5104 2.89576 0
M  V30 6601 H 653.18 3.2601 1.67669 0
M  V30 6602 H 652.828 2.88057 4.12349 0
M  V30 6603 H 652.528 4.57998 3.68119 0
M  V30 6604 H 654.052 4.12967 4.49767 0
M  V30 6605 H 655.466 5.16965 2.4783 0
M  V30 6606 H 653.863 5.69631 1.88787 0
M  V30 6607 H 654.933 4.78071 0.810935 0
M  V30 6608 N 656.276 -0.40816 1.52223 0
M  V30 6609 C 657.504 -1.17672 1.70179 0
M  V30 6610 C 657.919 -1.84257 0.411696 0
M  V30 6611 O 657.276 -1.7192 -0.612354 0
M  V30 6612 C 657.327 -2.23911 2.83806 0
M  V30 6613 O 657.048 -1.60044 4.0782 0
M  V30 6614 C 658.549 -3.1364 3.13281 0
M  V30 6615 H 655.769 -0.353562 0.570293 0
M  V30 6616 H 658.313 -0.480083 1.98785 0
M  V30 6617 H 656.468 -2.89242 2.57717 0
M  V30 6618 H 656.882 -2.30484 4.71145 0
M  V30 6619 H 658.356 -3.84255 3.96298 0
M  V30 6620 H 658.833 -3.76066 2.26872 0
M  V30 6621 H 659.439 -2.53977 3.41139 0
M  V30 6622 N 657.755 -1.42862 -0.66545 0
M  V30 6623 C 658.687 -1.43026 -1.79098 0
M  V30 6624 C 659.7 -0.32803 -1.59461 0
M  V30 6625 O 660.889 -0.591709 -1.68407 0
M  V30 6626 C 657.989 -1.21566 -3.16346 0
M  V30 6627 C 657.162 -2.44399 -3.62751 0
M  V30 6628 C 656.221 -2.18344 -4.78761 0
M  V30 6629 O 655.247 -2.91611 -4.88827 0
M  V30 6630 N 656.449 -1.1924 -5.68122 0
M  V30 6631 H 659.214 -2.40045 -1.79439 0
M  V30 6632 H 656.775 -1.37861 -0.848872 0
M  V30 6633 H 658.767 -1.02037 -3.91625 0
M  V30 6634 H 657.337 -0.330368 -3.10849 0
M  V30 6635 H 656.557 -2.79433 -2.78048 0
M  V30 6636 H 657.845 -3.26173 -3.90498 0
M  V30 6637 H 657.243 -0.586603 -5.6265 0
M  V30 6638 H 655.8 -1.05698 -6.43173 0
M  V30 6639 N 659.233 0.902656 -1.29189 0
M  V30 6640 C 660.473 1.6672 -1.18254 0
M  V30 6641 C 660.837 1.90199 0.262336 0
M  V30 6642 O 662.038 2.6421 0.494612 0
M  V30 6643 C 660.309 2.98178 -1.9704 0
M  V30 6644 S 661.868 3.89226 -2.02605 0
M  V30 6645 H 658.686 0.572432 -0.421714 0
M  V30 6646 H 661.288 1.07279 -1.63436 0
M  V30 6647 H 659.992 2.788 -3.01163 0
M  V30 6648 H 659.523 3.62661 -1.5245 0
M  V30 6649 H 661.538 4.82913 -1.14059 0
M  V30 6650 N 660.711 1.11618 1.11262 0
M  V30 6651 C 661.936 0.889013 1.8738 0
M  V30 6652 C 662.361 -0.555884 1.79698 0
M  V30 6653 O 661.719 -1.39272 1.16073 0
M  V30 6654 C 661.767 1.35759 3.34069 0
M  V30 6655 O 660.871 0.530499 4.08974 0
M  V30 6656 H 660.212 0.320082 0.581759 0
M  V30 6657 H 662.742 1.48611 1.40627 0
M  V30 6658 H 662.752 1.35291 3.84916 0
M  V30 6659 H 661.427 2.40973 3.38976 0
M  V30 6660 H 660.004 0.601439 3.68018 0
M  V30 6661 N 662.189 -1.289 0.906776 0
M  V30 6662 C 663.466 -1.90221 0.455537 0
M  V30 6663 C 663.846 -1.82251 -1.06527 0
M  V30 6664 O 663.194 -1.25385 -1.91026 0
M  V30 6665 C 663.404 -3.35015 0.97806 0
M  V30 6666 C 664.752 -4.12018 1.02598 0
M  V30 6667 O 665.776 -3.43947 0.926218 0
M  V30 6668 O 664.635 -5.33677 1.17689 0
M  V30 6669 H 661.729 -0.814505 0.143214 0
M  V30 6670 H 664.275 -1.37317 0.997104 0
M  V30 6671 H 663.047 -3.35006 2.02204 0
M  V30 6672 H 662.67 -3.95408 0.416914 0
M  V30 6673 N 663.667 -0.670007 -1.42649 0
M  V30 6674 C 664.63 0.00204659 -2.292 0
M  V30 6675 C 665.63 0.733817 -1.4308 0
M  V30 6676 O 666.82 0.57254 -1.64522 0
M  V30 6677 C 663.952 1.01359 -3.25483 0
M  V30 6678 H 665.145 -0.759696 -2.90118 0
M  V30 6679 H 662.698 -0.432105 -1.50208 0
M  V30 6680 H 663.433 1.80399 -2.69493 0
M  V30 6681 H 663.218 0.492323 -3.88997 0
M  V30 6682 H 664.708 1.4824 -3.90403 0
M  V30 6683 N 665.145 1.52092 -0.413018 0
M  V30 6684 C 666.055 2.30858 0.417318 0
M  V30 6685 C 667.071 1.38746 1.05003 0
M  V30 6686 O 668.247 1.71821 1.05069 0
M  V30 6687 C 665.312 3.11756 1.51687 0
M  V30 6688 C 664.373 4.19613 0.906825 0
M  V30 6689 C 663.606 4.96644 1.95399 0
M  V30 6690 O 663.829 4.7402 3.17271 0
M  V30 6691 O 662.763 5.81385 1.55805 0
M  V30 6692 H 666.589 3.02865 -0.225028 0
M  V30 6693 H 664.174 1.48358 -0.176126 0
M  V30 6694 H 666.056 3.62122 2.15512 0
M  V30 6695 H 664.731 2.42539 2.14375 0
M  V30 6696 H 663.638 3.73385 0.231183 0
M  V30 6697 H 664.971 4.91134 0.323814 0
M  V30 6698 N 666.623 0.143563 1.56945 0
M  V30 6699 C 667.871 -0.507402 1.95627 0
M  V30 6700 C 668.192 -1.65626 1.02922 0
M  V30 6701 O 667.462 -1.95693 0.0901136 0
M  V30 6702 H 666.042 -0.190436 0.722318 0
M  V30 6703 H 668.704 0.218257 1.93674 0
M  V30 6704 H 667.8 -0.885816 2.99265 0
M  V30 6705 N 668.101 -1.57061 -0.130224 0
M  V30 6706 C 669.329 -1.88432 -0.854456 0
M  V30 6707 C 669.744 -0.733608 -1.73964 0
M  V30 6708 O 669.101 0.296029 -1.80083 0
M  V30 6709 C 669.152 -3.1918 -1.69724 0
M  V30 6710 O 668.873 -4.2982 -0.847705 0
M  V30 6711 C 670.374 -3.6418 -2.5276 0
M  V30 6712 H 667.594 -0.624193 -0.246221 0
M  V30 6713 H 670.138 -2.04159 -0.11798 0
M  V30 6714 H 668.293 -3.05156 -2.3866 0
M  V30 6715 H 668.707 -5.04689 -1.42792 0
M  V30 6716 H 670.181 -4.58457 -3.07443 0
M  V30 6717 H 670.658 -2.90285 -3.29592 0
M  V30 6718 H 671.264 -3.80954 -1.89087 0
M  V30 6719 N 669.579 0.400081 -1.52437 0
M  V30 6720 C 670.542 1.4707 -1.75793 0
M  V30 6721 C 671.542 1.48036 -0.627856 0
M  V30 6722 O 672.732 1.49401 -0.895817 0
M  V30 6723 C 669.864 2.86427 -1.84858 0
M  V30 6724 H 671.057 1.27649 -2.71377 0
M  V30 6725 H 668.61 0.631141 -1.42991 0
M  V30 6726 H 669.345 3.11207 -0.912194 0
M  V30 6727 H 669.13 2.87128 -2.6702 0
M  V30 6728 H 670.62 3.64023 -2.04638 0
M  V30 6729 N 671.057 1.43213 0.657864 0
M  V30 6730 C 672.303 1.44798 1.41991 0
M  V30 6731 C 672.636 0.070256 1.94073 0
M  V30 6732 O 671.911 -0.908177 1.71995 0
M  V30 6733 C 672.194 2.4865 2.60471 0
M  V30 6734 C 672.047 3.95679 2.13911 0
M  V30 6735 C 673.366 2.49292 3.62686 0
M  V30 6736 H 670.485 0.527244 0.514959 0
M  V30 6737 H 673.127 1.74733 0.74621 0
M  V30 6738 H 671.277 2.23254 3.17946 0
M  V30 6739 H 672.949 4.32116 1.61472 0
M  V30 6740 H 671.192 4.08733 1.45325 0
M  V30 6741 H 671.863 4.6395 2.99089 0
M  V30 6742 H 674.339 2.71917 3.14961 0
M  V30 6743 H 673.215 3.23907 4.43143 0
M  V30 6744 H 673.476 1.52502 4.14964 0
M  V30 6745 N 672.536 -0.895792 1.29666 0
M  V30 6746 C 673.499 -1.98189 1.15124 0
M  V30 6747 C 674.499 -1.60572 0.0855717 0
M  V30 6748 O 675.689 -1.70991 0.332826 0
M  V30 6749 C 672.821 -3.32289 0.761372 0
M  V30 6750 H 674.014 -2.12518 2.11603 0
M  V30 6751 H 671.567 -1.0808 1.12908 0
M  V30 6752 H 672.302 -3.23662 -0.203393 0
M  V30 6753 H 672.087 -3.60958 1.53139 0
M  V30 6754 H 673.577 -4.1198 0.682792 0
M  V30 6755 N 674.014 -1.12206 -1.10668 0
M  V30 6756 C 675.425 -0.890657 -1.64086 0
M  V30 6757 C 675.776 0.575502 -1.8757 0
M  V30 6758 O 674.901 1.4394 -1.61587 0
M  V30 6759 C 675.496 -1.61029 -2.98085 0
M  V30 6760 C 674.055 -1.4251 -3.48379 0
M  V30 6761 C 673.202 -1.64778 -2.23033 0
M  V30 6762 H 676.153 -1.27718 -0.94201 0
M  V30 6763 H 676.174 -1.05993 -3.65439 0
M  V30 6764 H 675.686 -2.67735 -2.80962 0
M  V30 6765 H 673.787 -0.380497 -3.70652 0
M  V30 6766 H 673.9 -2.17959 -4.26651 0
M  V30 6767 H 672.264 -1.07171 -2.31055 0
M  V30 6768 H 673.047 -2.72776 -2.08443 0
M  V30 6769 N 675.492 1.28418 -0.913599 0
M  V30 6770 C 676.903 1.77024 -0.593237 0
M  V30 6771 C 677.254 1.74779 0.891441 0
M  V30 6772 O 676.379 1.34237 1.69733 0
M  V30 6773 C 676.974 3.21456 -1.07011 0
M  V30 6774 C 675.533 3.67786 -0.800664 0
M  V30 6775 C 674.68 2.48185 -1.23691 0
M  V30 6776 H 677.631 1.14883 -1.09487 0
M  V30 6777 H 677.652 3.78269 -0.411481 0
M  V30 6778 H 677.164 3.23058 -2.1507 0
M  V30 6779 H 675.265 3.71644 0.266725 0
M  V30 6780 H 675.378 4.57934 -1.4083 0
M  V30 6781 H 673.742 2.46116 -0.655655 0
M  V30 6782 H 674.525 2.52506 -2.32585 0
M  V30 6783 N 676.97 0.677563 1.42291 0
M  V30 6784 C 678.198 0.209459 2.05837 0
M  V30 6785 C 678.613 -1.13444 1.50917 0
M  V30 6786 O 677.97 -1.70529 0.65008 0
M  V30 6787 C 678.021 0.138819 3.61233 0
M  V30 6788 O 677.742 1.42962 4.14118 0
M  V30 6789 C 679.243 -0.352449 4.41897 0
M  V30 6790 H 676.463 0.101209 0.663323 0
M  V30 6791 H 679.007 0.925077 1.8238 0
M  V30 6792 H 677.162 -0.527505 3.83792 0
M  V30 6793 H 677.576 1.3048 5.08011 0
M  V30 6794 H 679.05 -0.350778 5.50884 0
M  V30 6795 H 679.527 -1.3882 4.16684 0
M  V30 6796 H 680.133 0.282236 4.24362 0
M  V30 6797 N 678.448 -1.51871 0.421078 0
M  V30 6798 C 679.694 -2.02237 -0.151014 0
M  V30 6799 C 680.027 -1.30554 -1.43768 0
M  V30 6800 O 679.302 -0.41546 -1.90011 0
M  V30 6801 C 679.585 -3.5802 -0.386482 0
M  V30 6802 C 679.438 -4.40339 0.9177 0
M  V30 6803 C 680.757 -4.24444 -1.16342 0
M  V30 6804 H 677.876 -0.735062 -0.0534102 0
M  V30 6805 H 680.518 -1.81656 0.556888 0
M  V30 6806 H 678.668 -3.75688 -0.989494 0
M  V30 6807 H 680.34 -4.34357 1.55344 0
M  V30 6808 H 678.583 -4.06073 1.526 0
M  V30 6809 H 679.254 -5.47451 0.707187 0
M  V30 6810 H 681.73 -4.10948 -0.652788 0
M  V30 6811 H 680.606 -5.33358 -1.29693 0
M  V30 6812 H 680.867 -3.84204 -2.18724 0
M  V30 6813 N 679.926 -0.151884 -1.56866 0
M  V30 6814 C 681.154 0.504813 -2.00647 0
M  V30 6815 C 681.569 1.58098 -1.03201 0
M  V30 6816 O 680.926 1.82476 -0.0297814 0
M  V30 6817 C 680.977 1.10099 -3.44326 0
M  V30 6818 O 680.698 0.0678021 -4.38048 0
M  V30 6819 C 682.199 1.83782 -4.03409 0
M  V30 6820 H 679.419 0.130989 -0.65809 0
M  V30 6821 H 681.963 -0.247903 -2.02992 0
M  V30 6822 H 680.118 1.8043 -3.42817 0
M  V30 6823 H 680.532 0.505237 -5.22061 0
M  V30 6824 H 682.006 2.2078 -5.05925 0
M  V30 6825 H 682.483 2.72557 -3.44397 0
M  V30 6826 H 683.089 1.18138 -4.08563 0
M  V30 6827 N 681.404 1.57128 0.121893 0
M  V30 6828 C 682.815 1.73902 0.679348 0
M  V30 6829 C 683.166 0.770135 1.80453 0
M  V30 6830 O 682.291 -0.0576083 2.16323 0
M  V30 6831 C 682.886 3.15328 1.2391 0
M  V30 6832 C 681.445 3.33618 1.74288 0
M  V30 6833 C 680.592 2.6978 0.641414 0
M  V30 6834 H 683.543 1.58359 -0.104 0
M  V30 6835 H 683.564 3.16718 2.10879 0
M  V30 6836 H 683.076 3.85821 0.419957 0
M  V30 6837 H 681.177 2.68162 2.58689 0
M  V30 6838 H 681.29 4.4176 1.85432 0
M  V30 6839 H 679.654 2.30935 1.0743 0
M  V30 6840 H 680.437 3.42895 -0.166707 0
M  V30 6841 N 682.882 -0.391992 1.52647 0
M  V30 6842 C 684.128 -1.139 1.67793 0
M  V30 6843 C 684.461 -1.89711 0.41514 0
M  V30 6844 O 683.736 -1.85431 -0.586979 0
M  V30 6845 C 684.019 -2.11966 2.91105 0
M  V30 6846 C 683.872 -1.39939 4.27478 0
M  V30 6847 C 685.191 -3.1243 3.09961 0
M  V30 6848 H 682.31 -0.412707 0.610608 0
M  V30 6849 H 684.952 -0.422725 1.85238 0
M  V30 6850 H 683.102 -2.73048 2.76364 0
M  V30 6851 H 684.774 -0.818439 4.53982 0
M  V30 6852 H 683.017 -0.701246 4.28095 0
M  V30 6853 H 683.688 -2.1158 5.09841 0
M  V30 6854 H 686.164 -2.61435 3.23714 0
M  V30 6855 H 685.04 -3.78294 3.97725 0
M  V30 6856 H 685.301 -3.81127 2.24042 0
M  V30 6857 N 684.36 -1.4356 -0.65026 0
M  V30 6858 C 685.771 -1.40324 -1.2315 0
M  V30 6859 C 686.122 -0.108812 -1.95898 0
M  V30 6860 O 685.247 0.79163 -2.01401 0
M  V30 6861 C 685.842 -2.54195 -2.23987 0
M  V30 6862 C 684.401 -2.54215 -2.77582 0
M  V30 6863 C 683.548 -2.31752 -1.5227 0
M  V30 6864 H 686.499 -1.52418 -0.442095 0
M  V30 6865 H 686.52 -2.25854 -3.0622 0
M  V30 6866 H 686.032 -3.48392 -1.71011 0
M  V30 6867 H 684.133 -1.63907 -3.34612 0
M  V30 6868 H 684.246 -3.52081 -3.24925 0
M  V30 6869 H 682.61 -1.80476 -1.79723 0
M  V30 6870 H 683.393 -3.28037 -1.01225 0
M  V30 6871 N 685.838 0.888903 -1.30139 0
M  V30 6872 C 687.063 1.67884 -1.21777 0
M  V30 6873 C 687.488 1.86848 0.216689 0
M  V30 6874 O 686.846 1.39659 1.15608 0
M  V30 6875 C 686.894 3.03483 -1.94757 0
M  V30 6876 O 685.998 3.92294 -1.27198 0
M  V30 6877 H 685.339 0.513144 -0.421402 0
M  V30 6878 H 687.869 1.10968 -1.71893 0
M  V30 6879 H 687.879 3.53553 -2.03627 0
M  V30 6880 H 686.554 2.89 -2.99085 0
M  V30 6881 H 685.131 3.50732 -1.26655 0
M  V30 6882 N 687.317 1.12792 1.10072 0
M  V30 6883 C 688.247 0.821688 2.18565 0
M  V30 6884 C 689.228 -0.21612 1.68721 0
M  V30 6885 O 690.413 -0.0764932 1.94049 0
M  V30 6886 C 687.543 0.279624 3.46172 0
M  V30 6887 C 686.497 1.25092 4.09312 0
M  V30 6888 C 685.823 0.568916 5.31665 0
M  V30 6889 C 687.123 2.60699 4.52585 0
M  V30 6890 H 688.817 1.72888 2.44438 0
M  V30 6891 H 686.363 0.832702 1.17482 0
M  V30 6892 H 688.316 0.053099 4.21367 0
M  V30 6893 H 687.04 -0.662929 3.19801 0
M  V30 6894 H 685.699 1.46332 3.36129 0
M  V30 6895 H 685.347 -0.378898 5.01571 0
M  V30 6896 H 685.047 1.21687 5.74862 0
M  V30 6897 H 686.571 0.351517 6.09587 0
M  V30 6898 H 687.985 2.43465 5.19035 0
M  V30 6899 H 686.382 3.21608 5.06644 0
M  V30 6900 H 687.452 3.1886 3.65317 0
M  V30 6901 N 688.795 -1.27931 0.920396 0
M  V30 6902 C 689.705 -2.30824 0.419212 0
M  V30 6903 C 690.721 -1.66767 -0.496461 0
M  V30 6904 O 691.897 -1.97763 -0.38104 0
M  V30 6905 C 688.962 -3.45158 -0.326601 0
M  V30 6906 C 688.023 -4.24754 0.623098 0
M  V30 6907 C 687.256 -5.33629 -0.0872172 0
M  V30 6908 O 687.479 -5.55204 -1.30784 0
M  V30 6909 O 686.413 -5.99091 0.580875 0
M  V30 6910 H 690.239 -2.75716 1.27337 0
M  V30 6911 H 687.824 -1.32747 0.685465 0
M  V30 6912 H 689.706 -4.14716 -0.747559 0
M  V30 6913 H 688.381 -3.02336 -1.15648 0
M  V30 6914 H 687.288 -3.57759 1.09359 0
M  V30 6915 H 688.621 -4.71272 1.41998 0
M  V30 6916 N 690.273 -0.685099 -1.4193 0
M  V30 6917 C 691.236 -0.0222632 -2.29189 0
M  V30 6918 C 692.236 0.7186 -1.4385 0
M  V30 6919 O 693.426 0.555058 -1.6512 0
M  V30 6920 C 690.558 0.979013 -3.2654 0
M  V30 6921 H 691.751 -0.790424 -2.89296 0
M  V30 6922 H 689.304 -0.448012 -1.49742 0
M  V30 6923 H 690.039 1.77531 -2.71392 0
M  V30 6924 H 689.824 0.451037 -3.89497 0
M  V30 6925 H 691.314 1.44091 -3.91954 0
M  V30 6926 N 691.751 1.51645 -0.429126 0
M  V30 6927 C 693.162 1.86665 0.0359003 0
M  V30 6928 C 693.513 1.34677 1.42676 0
M  V30 6929 O 692.638 0.694195 2.04963 0
M  V30 6930 C 693.233 3.38724 0.0719221 0
M  V30 6931 C 691.792 3.7331 0.481336 0
M  V30 6932 C 690.939 2.75313 -0.331329 0
M  V30 6933 H 693.89 1.44987 -0.645333 0
M  V30 6934 H 693.911 3.7011 0.883118 0
M  V30 6935 H 693.423 3.76532 -0.940495 0
M  V30 6936 H 691.524 3.41088 1.49966 0
M  V30 6937 H 691.637 4.78631 0.211837 0
M  V30 6938 H 690.001 2.53839 0.209204 0
M  V30 6939 H 690.784 3.15963 -1.34247 0
M  V30 6940 N 693.229 0.160201 1.56784 0
M  V30 6941 C 694.454 -0.497373 2.01348 0
M  V30 6942 C 694.879 -1.56757 1.03966 0
M  V30 6943 O 694.237 -1.81292 0.0174455 0
M  V30 6944 C 694.285 -1.0628 3.44582 0
M  V30 6945 O 693.389 -2.17723 3.50244 0
M  V30 6946 H 692.73 -0.120295 0.653012 0
M  V30 6947 H 695.26 0.260821 2.02931 0
M  V30 6948 H 695.27 -1.38819 3.83658 0
M  V30 6949 H 693.945 -0.279166 4.14962 0
M  V30 6950 H 692.522 -1.86313 3.2302 0
M  V30 6951 N 694.707 -1.5719 -0.113559 0
M  V30 6952 C 695.617 -2.04041 -1.15777 0
M  V30 6953 C 696.633 -0.961812 -1.45001 0
M  V30 6954 O 697.809 -1.2737 -1.56009 0
M  V30 6955 C 694.874 -2.43994 -2.46308 0
M  V30 6956 C 693.935 -3.65962 -2.24433 0
M  V30 6957 C 693.168 -4.04 -3.4874 0
M  V30 6958 O 693.391 -3.42321 -4.56259 0
M  V30 6959 O 692.325 -4.97069 -3.3942 0
M  V30 6960 H 696.151 -2.93248 -0.789899 0
M  V30 6961 H 693.736 -1.45828 -0.324748 0
M  V30 6962 H 695.618 -2.70401 -3.23204 0
M  V30 6963 H 694.293 -1.57932 -2.82558 0
M  V30 6964 H 693.2 -3.44697 -1.45377 0
M  V30 6965 H 694.533 -4.52746 -1.93084 0
M  V30 6966 N 696.185 0.383891 -1.52853 0
M  V30 6967 C 697.117 1.48889 -1.74255 0
M  V30 6968 C 698.13 1.50405 -0.623063 0
M  V30 6969 O 699.319 1.54215 -0.898887 0
M  V30 6970 C 696.419 2.87721 -1.79081 0
M  V30 6971 C 695.592 3.10111 -3.08464 0
M  V30 6972 C 694.651 4.28954 -3.0477 0
M  V30 6973 O 693.677 4.25012 -3.78621 0
M  V30 6974 N 694.879 5.35411 -2.24311 0
M  V30 6975 H 697.644 1.30915 -2.69595 0
M  V30 6976 H 695.205 0.573454 -1.51404 0
M  V30 6977 H 697.197 3.65333 -1.7411 0
M  V30 6978 H 695.767 2.99029 -0.911052 0
M  V30 6979 H 694.987 2.20319 -3.26884 0
M  V30 6980 H 696.275 3.21928 -3.94005 0
M  V30 6981 H 695.673 5.41471 -1.63787 0
M  V30 6982 H 694.23 6.1167 -2.25175 0
M  V30 6983 N 697.663 1.43903 0.642637 0
M  V30 6984 C 698.626 1.49538 1.73698 0
M  V30 6985 C 699.626 0.378776 1.56275 0
M  V30 6986 O 700.816 0.64095 1.6198 0
M  V30 6987 C 697.948 1.35821 3.12675 0
M  V30 6988 H 699.141 2.47008 1.70079 0
M  V30 6989 H 696.694 1.30824 0.85526 0
M  V30 6990 H 697.429 0.393994 3.21898 0
M  V30 6991 H 697.214 2.16776 3.26727 0
M  V30 6992 H 698.704 1.4272 3.92455 0
M  V30 6993 N 699.141 -0.881989 1.30609 0
M  V30 6994 C 700.552 -1.44956 1.17664 0
M  V30 6995 C 700.903 -1.94945 -0.221531 0
M  V30 6996 O 700.028 -1.85257 -1.11844 0
M  V30 6997 C 700.623 -2.63474 2.12995 0
M  V30 6998 C 699.182 -3.16312 2.04019 0
M  V30 6999 C 698.329 -1.89008 2.02907 0
M  V30 7000 H 701.28 -0.691645 1.42835 0
M  V30 7001 H 701.301 -3.39783 1.71253 0
M  V30 7002 H 700.813 -2.2706 3.14746 0
M  V30 7003 H 698.914 -3.57376 1.0542 0
M  V30 7004 H 699.027 -3.79409 2.9255 0
M  V30 7005 H 697.391 -2.07465 1.47751 0
M  V30 7006 H 698.174 -1.54848 3.06394 0
M  V30 7007 N 700.619 -1.13374 -1.09472 0
M  V30 7008 C 701.847 -0.918351 -1.85402 0
M  V30 7009 C 702.262 0.53281 -1.81126 0
M  V30 7010 O 701.619 1.36879 -1.20708 0
M  V30 7011 C 701.67 -1.39743 -3.33398 0
M  V30 7012 O 701.391 -2.79172 -3.37631 0
M  V30 7013 C 702.892 -1.22042 -4.2617 0
M  V30 7014 H 700.112 -0.327511 -0.585643 0
M  V30 7015 H 702.656 -1.50617 -1.38328 0
M  V30 7016 H 700.811 -0.852619 -3.77901 0
M  V30 7017 H 701.225 -3.00428 -4.29934 0
M  V30 7018 H 702.699 -1.60438 -5.2817 0
M  V30 7019 H 703.176 -0.162047 -4.38901 0
M  V30 7020 H 703.782 -1.75323 -3.87482 0
M  V30 7021 N 702.098 1.27442 -0.927168 0
M  V30 7022 C 703.008 2.30599 -0.431448 0
M  V30 7023 C 704.024 1.67028 0.48761 0
M  V30 7024 O 705.2 1.97962 0.370546 0
M  V30 7025 C 702.265 3.45327 0.308292 0
M  V30 7026 C 701.326 4.24418 -0.645615 0
M  V30 7027 C 700.559 5.33667 0.0589164 0
M  V30 7028 O 700.782 5.5589 1.27838 0
M  V30 7029 O 699.716 5.98774 -0.612638 0
M  V30 7030 H 703.542 2.75036 -1.28797 0
M  V30 7031 H 701.127 1.32382 -0.692495 0
M  V30 7032 H 703.009 4.15107 0.725555 0
M  V30 7033 H 701.684 3.02945 1.14043 0
M  V30 7034 H 700.591 3.57174 -1.11255 0
M  V30 7035 H 701.924 4.70512 -1.44496 0
M  V30 7036 N 703.576 0.692616 1.41565 0
M  V30 7037 C 704.508 -0.0137132 2.29196 0
M  V30 7038 C 705.521 -0.747417 1.44629 0
M  V30 7039 O 706.71 -0.598611 1.68163 0
M  V30 7040 C 703.81 -1.04347 3.22436 0
M  V30 7041 C 702.983 -0.379985 4.35746 0
M  V30 7042 C 702.042 -1.31195 5.09583 0
M  V30 7043 O 701.068 -0.805455 5.63472 0
M  V30 7044 N 702.27 -2.64443 5.16769 0
M  V30 7045 H 705.035 0.738614 2.90456 0
M  V30 7046 H 702.596 0.538415 1.52685 0
M  V30 7047 H 704.588 -1.6686 3.687 0
M  V30 7048 H 703.158 -1.69736 2.62504 0
M  V30 7049 H 702.378 0.424975 3.91903 0
M  V30 7050 H 703.666 0.0814904 5.08735 0
M  V30 7051 H 703.064 -3.08114 4.74428 0
M  V30 7052 H 701.621 -3.22159 5.66619 0
M  V30 7053 N 705.054 -1.51416 0.437162 0
M  V30 7054 C 706.47 -1.59349 0.0894459 0
M  V30 7055 C 706.67 -1.44809 -1.40116 0
M  V30 7056 O 705.726 -1.28924 -2.17106 0
M  V30 7057 C 707.039 -2.9446 0.609398 0
M  V30 7058 C 708.587 -3.07769 0.569824 0
M  V30 7059 C 709.062 -4.45404 1.06675 0
M  V30 7060 N 710.553 -4.51723 1.02473 0
M  V30 7061 C 711.288 -5.56544 1.3801 0
M  V30 7062 N 710.784 -6.68784 1.80831 0
M  V30 7063 N 712.577 -5.46901 1.29828 0
M  V30 7064 H 704.728 -1.59112 1.40703 0
M  V30 7065 H 706.991 -0.750031 0.579791 0
M  V30 7066 H 706.697 -3.1047 1.65231 0
M  V30 7067 H 706.571 -3.77184 0.0342236 0
M  V30 7068 H 708.958 -2.91428 -0.464107 0
M  V30 7069 H 709.039 -2.26885 1.1814 0
M  V30 7070 H 708.683 -4.62492 2.09914 0
M  V30 7071 H 708.613 -5.24827 0.431712 0
M  V30 7072 H 711.104 -3.71165 0.710258 0
M  V30 7073 H 711.417 -7.44787 2.06185 0
M  V30 7074 H 709.762 -6.69992 1.84757 0
M  V30 7075 H 712.953 -4.581 0.962397 0
M  V30 7076 H 713.126 -6.2848 1.57851 0
M  V30 7077 N 706.532 -0.168513 -1.56696 0
M  V30 7078 C 707.943 0.348694 -1.83415 0
M  V30 7079 C 708.294 1.63257 -1.0882 0
M  V30 7080 O 707.419 2.13707 -0.340333 0
M  V30 7081 C 708.014 0.639423 -3.32711 0
M  V30 7082 C 706.573 1.10108 -3.59935 0
M  V30 7083 C 705.72 0.135464 -2.76969 0
M  V30 7084 H 708.671 -0.392829 -1.53761 0
M  V30 7085 H 708.692 1.49179 -3.50037 0
M  V30 7086 H 708.204 -0.295173 -3.86976 0
M  V30 7087 H 706.305 2.05088 -3.11079 0
M  V30 7088 H 706.418 1.01218 -4.68286 0
M  V30 7089 H 704.782 0.632286 -2.46727 0
M  V30 7090 H 705.565 -0.793104 -3.34013 0
M  V30 7091 N 708.01 1.57248 0.105221 0
M  V30 7092 C 709.258 1.85204 0.808951 0
M  V30 7093 C 709.579 0.75574 1.7976 0
M  V30 7094 O 708.849 -0.218984 1.94672 0
M  V30 7095 H 707.429 0.683346 0.301739 0
M  V30 7096 H 710.091 1.94695 0.0892605 0
M  V30 7097 H 709.187 2.81595 1.34575 0
M  V30 7098 N 709.488 -0.375779 1.53054 0
M  V30 7099 C 710.734 -1.12114 1.68992 0
M  V30 7100 C 711.067 -1.8926 0.435238 0
M  V30 7101 O 710.342 -1.86044 -0.567278 0
M  V30 7102 C 710.625 -2.08867 2.93337 0
M  V30 7103 C 710.478 -1.35397 4.28938 0
M  V30 7104 C 711.797 -3.09124 3.13257 0
M  V30 7105 H 708.916 -0.406207 0.614951 0
M  V30 7106 H 711.558 -0.403054 1.85676 0
M  V30 7107 H 709.708 -2.70102 2.79244 0
M  V30 7108 H 711.38 -0.770242 4.54824 0
M  V30 7109 H 709.623 -0.655801 4.28814 0
M  V30 7110 H 710.294 -2.06161 5.12056 0
M  V30 7111 H 712.77 -2.57987 3.26469 0
M  V30 7112 H 711.646 -3.74054 4.01715 0
M  V30 7113 H 711.907 -3.78729 2.28072 0
M  V30 7114 N 710.966 -1.44241 -0.634997 0
M  V30 7115 C 711.898 -1.46793 -1.76024 0
M  V30 7116 C 712.911 -0.361781 -1.58729 0
M  V30 7117 O 714.1 -0.627297 -1.67114 0
M  V30 7118 C 711.2 -1.28248 -3.13697 0
M  V30 7119 C 710.373 -2.52038 -3.57485 0
M  V30 7120 C 709.432 -2.2845 -4.74022 0
M  V30 7121 O 708.458 -3.01915 -4.82531 0
M  V30 7122 N 709.66 -1.31264 -5.65464 0
M  V30 7123 H 712.425 -2.43797 -1.74307 0
M  V30 7124 H 709.986 -1.39631 -0.819438 0
M  V30 7125 H 711.978 -1.10321 -3.89373 0
M  V30 7126 H 710.548 -0.39623 -3.10079 0
M  V30 7127 H 709.768 -2.85268 -2.72059 0
M  V30 7128 H 711.056 -3.34382 -3.83492 0
M  V30 7129 H 710.454 -0.705817 -5.6128 0
M  V30 7130 H 709.011 -1.19316 -6.40786 0
M  V30 7131 N 712.444 0.87505 -1.31075 0
M  V30 7132 C 713.354 2.01441 -1.20244 0
M  V30 7133 C 714.37 1.73584 -0.120227 0
M  V30 7134 O 715.546 1.98559 -0.337063 0
M  V30 7135 C 712.611 3.34675 -0.905199 0
M  V30 7136 C 711.672 3.75889 -2.0738 0
M  V30 7137 C 710.905 5.02764 -1.79064 0
M  V30 7138 O 711.128 5.65795 -0.723318 0
M  V30 7139 O 710.062 5.40623 -2.64594 0
M  V30 7140 H 713.888 2.13509 -2.1598 0
M  V30 7141 H 711.473 1.00257 -1.10765 0
M  V30 7142 H 713.355 4.1458 -0.755057 0
M  V30 7143 H 712.03 3.23692 0.0221695 0
M  V30 7144 H 710.937 2.96645 -2.27931 0
M  V30 7145 H 712.27 3.91489 -2.98324 0
M  V30 7146 N 713.922 1.13953 1.08869 0
M  V30 7147 C 715.162 0.915128 1.8277 0
M  V30 7148 C 715.526 -0.548647 1.83994 0
M  V30 7149 O 716.727 -0.890817 2.5361 0
M  V30 7150 C 714.998 1.49382 3.24684 0
M  V30 7151 S 716.557 1.4103 4.15519 0
M  V30 7152 H 713.375 0.329716 0.629927 0
M  V30 7153 H 715.977 1.45213 1.30895 0
M  V30 7154 H 714.681 2.55241 3.21372 0
M  V30 7155 H 714.212 0.955008 3.81632 0
M  V30 7156 H 716.227 0.392617 4.94644 0
M  V30 7157 N 715.4 -1.26948 0.933913 0
M  V30 7158 C 716.63 -1.97898 0.593279 0
M  V30 7159 C 717.038 -1.69806 -0.834412 0
M  V30 7160 O 716.381 -0.958704 -1.56699 0
M  V30 7161 C 716.443 -3.51657 0.746825 0
M  V30 7162 C 716.107 -4.03384 2.14779 0
M  V30 7163 C 717.104 -4.15682 3.12257 0
M  V30 7164 C 714.789 -4.37577 2.46641 0
M  V30 7165 C 716.783 -4.61455 4.39702 0
M  V30 7166 C 714.47 -4.8304 3.7432 0
M  V30 7167 C 715.468 -4.94939 4.70664 0
M  V30 7168 O 715.156 -5.39403 5.96071 0
M  V30 7169 H 714.888 -0.63814 0.223055 0
M  V30 7170 H 717.442 -1.62608 1.2549 0
M  V30 7171 H 715.672 -3.8669 0.0280889 0
M  V30 7172 H 717.361 -4.03821 0.410328 0
M  V30 7173 H 718.127 -3.89519 2.88964 0
M  V30 7174 H 714.006 -4.27554 1.72391 0
M  V30 7175 H 717.55 -4.70658 5.14905 0
M  V30 7176 H 713.447 -5.08646 3.97429 0
M  V30 7177 H 714.215 -5.57641 5.99148 0
M  V30 7178 N 716.879 -0.700114 -1.41195 0
M  V30 7179 C 717.829 -0.0144098 -2.27995 0
M  V30 7180 C 718.813 0.748249 -1.42443 0
M  V30 7181 O 720.005 0.622995 -1.65674 0
M  V30 7182 C 717.134 0.917938 -3.308 0
M  V30 7183 C 716.22 0.151286 -4.2383 0
M  V30 7184 N 716.611 -0.85732 -4.98481 0
M  V30 7185 C 714.909 0.386108 -4.44326 0
M  V30 7186 C 715.61 -1.31663 -5.66604 0
M  V30 7187 N 714.586 -0.641689 -5.39799 0
M  V30 7188 H 718.388 -0.787662 -2.83149 0
M  V30 7189 H 715.902 -0.531344 -1.53462 0
M  V30 7190 H 717.899 1.42437 -3.91813 0
M  V30 7191 H 716.559 1.69074 -2.77208 0
M  V30 7192 H 717.57 -1.2377 -5.02893 0
M  V30 7193 H 714.247 1.13644 -4.01735 0
M  V30 7194 H 715.637 -2.15384 -6.36443 0
M  V30 7195 N 718.357 1.51182 -0.445186 0
M  V30 7196 C 719.605 2.01753 0.11841 0
M  V30 7197 C 719.926 1.33087 1.42523 0
M  V30 7198 O 719.196 0.467891 1.9023 0
M  V30 7199 H 717.776 0.745536 0.0467492 0
M  V30 7200 H 720.438 1.85765 -0.589688 0
M  V30 7201 H 719.534 3.10762 0.288665 0
M  V30 7202 N 719.835 0.176821 1.56605 0
M  V30 7203 C 720.783 -0.768159 2.1955 0
M  V30 7204 C 721.777 -1.23343 1.16116 0
M  V30 7205 O 722.983 -1.19844 1.34303 0
M  V30 7206 H 719.358 -0.266013 0.703378 0
M  V30 7207 H 721.329 -0.213374 2.97636 0
M  V30 7208 C 720.078 -1.98492 2.85475 0
M  V30 7209 H 719.401 -1.63595 3.64797 0
M  V30 7210 H 720.841 -2.62489 3.3298 0
M  V30 7211 C 719.3 -2.81207 1.85538 0
M  V30 7212 O 719.83 -3.7854 1.34427 0
M  V30 7213 N 718.036 -2.46331 1.54173 0
M  V30 7214 H 717.583 -1.67241 1.95929 0
M  V30 7215 H 717.541 -3.01961 0.875595 0
M  V30 7216 N 721.313 -1.57302 -0.09688 0
M  V30 7217 C 722.561 -1.8563 -0.799117 0
M  V30 7218 C 722.882 -0.765263 -1.79356 0
M  V30 7219 O 722.152 0.208657 -1.94786 0
M  V30 7220 H 720.732 -0.684937 -0.298111 0
M  V30 7221 H 723.394 -1.9474 -0.0789341 0
M  V30 7222 H 722.49 -2.82305 -1.3308 0
M  V30 7223 N 722.791 0.367657 -1.53252 0
M  V30 7224 C 723.723 1.47032 -1.75824 0
M  V30 7225 C 724.736 1.49736 -0.63898 0
M  V30 7226 O 725.925 1.53253 -0.915193 0
M  V30 7227 C 723.025 2.85805 -1.82122 0
M  V30 7228 C 722.198 3.06822 -3.11736 0
M  V30 7229 C 721.257 4.25698 -3.09302 0
M  V30 7230 O 720.283 4.20972 -3.83107 0
M  V30 7231 N 721.485 5.33002 -2.29977 0
M  V30 7232 H 724.25 1.28048 -2.70968 0
M  V30 7233 H 721.811 0.557363 -1.52004 0
M  V30 7234 H 723.803 3.63465 -1.77975 0
M  V30 7235 H 722.373 2.98046 -0.942716 0
M  V30 7236 H 721.593 2.1684 -3.29202 0
M  V30 7237 H 722.881 3.17731 -3.97397 0
M  V30 7238 H 722.279 5.39703 -1.69521 0
M  V30 7239 H 720.836 6.09247 -2.3165 0
M  V30 7240 N 724.269 1.44576 0.627338 0
M  V30 7241 C 725.494 1.51271 1.41887 0
M  V30 7242 C 725.919 0.139814 1.8758 0
M  V30 7243 O 725.277 -0.871746 1.58966 0
M  V30 7244 C 725.325 2.48529 2.61277 0
M  V30 7245 O 724.429 1.98944 3.61241 0
M  V30 7246 H 723.77 0.510668 0.424399 0
M  V30 7247 H 726.3 1.89746 0.765356 0
M  V30 7248 H 726.31 2.66689 3.08773 0
M  V30 7249 H 724.985 3.48249 2.27366 0
M  V30 7250 H 723.562 1.90568 3.20528 0
M  V30 7251 N 725.747 -0.868086 1.31537 0
M  V30 7252 C 726.977 -1.65162 1.24118 0
M  V30 7253 C 727.385 -1.88187 -0.195558 0
M  V30 7254 O 726.728 -1.44154 -1.13866 0
M  V30 7255 C 726.79 -3.04119 1.91708 0
M  V30 7256 C 726.454 -3.04194 3.4105 0
M  V30 7257 C 727.451 -2.82016 4.36764 0
M  V30 7258 C 725.136 -3.25256 3.82772 0
M  V30 7259 C 727.13 -2.80881 5.72175 0
M  V30 7260 C 724.817 -3.23749 5.18295 0
M  V30 7261 C 725.815 -3.01589 6.12808 0
M  V30 7262 O 725.503 -2.9993 7.45853 0
M  V30 7263 H 725.235 -0.521597 0.430015 0
M  V30 7264 H 727.789 -1.09165 1.73989 0
M  V30 7265 H 726.019 -3.61849 1.36389 0
M  V30 7266 H 727.708 -3.64701 1.78179 0
M  V30 7267 H 728.474 -2.65525 4.05859 0
M  V30 7268 H 724.353 -3.41534 3.09638 0
M  V30 7269 H 727.897 -2.63503 6.45919 0
M  V30 7270 H 723.794 -3.39781 5.48834 0
M  V30 7271 H 724.562 -3.15979 7.55049 0
M  V30 7272 N 727.225 -1.14528 -1.08264 0
M  V30 7273 C 728.641 -0.885976 -1.3275 0
M  V30 7274 C 728.841 0.472096 -1.95892 0
M  V30 7275 O 727.897 1.21606 -2.21288 0
M  V30 7276 C 729.21 -2.01982 -2.22764 0
M  V30 7277 C 730.758 -2.05329 -2.36239 0
M  V30 7278 C 731.233 -3.1801 -3.29596 0
M  V30 7279 N 732.724 -3.17598 -3.37173 0
M  V30 7280 C 733.459 -4.01426 -4.09444 0
M  V30 7281 N 732.955 -4.95297 -4.8441 0
M  V30 7282 N 734.748 -3.89482 -4.0529 0
M  V30 7283 H 726.899 -2.01996 -0.656607 0
M  V30 7284 H 729.162 -0.880274 -0.351884 0
M  V30 7285 H 728.868 -2.99964 -1.83615 0
M  V30 7286 H 728.742 -1.94421 -3.23234 0
M  V30 7287 H 731.129 -1.07953 -2.74646 0
M  V30 7288 H 731.21 -2.1696 -1.35506 0
M  V30 7289 H 730.854 -4.15633 -2.9191 0
M  V30 7290 H 730.784 -3.03616 -4.30261 0
M  V30 7291 H 733.275 -2.4961 -2.83731 0
M  V30 7292 H 733.588 -5.55723 -5.37021 0
M  V30 7293 H 731.933 -4.99293 -4.83457 0
M  V30 7294 H 735.124 -3.15465 -3.45832 0
M  V30 7295 H 735.297 -4.55039 -4.6135 0
M  V30 7296 N 728.703 1.26451 -0.940633 0
M  V30 7297 C 729.951 1.93395 -0.586748 0
M  V30 7298 C 730.272 1.7417 0.876921 0
M  V30 7299 O 729.542 1.097 1.62304 0
M  V30 7300 H 728.122 0.715687 -0.214012 0
M  V30 7301 H 730.784 1.53902 -1.19584 0
M  V30 7302 H 729.88 3.01565 -0.804059 0
M  V30 7303 N 730.181 0.707592 1.40822 0
M  V30 7304 C 731.409 0.253073 2.05346 0
M  V30 7305 C 731.824 -1.10218 1.53289 0
M  V30 7306 O 731.181 -1.69112 0.686105 0
M  V30 7307 C 731.232 0.215411 3.60858 0
M  V30 7308 O 730.953 1.51714 4.10992 0
M  V30 7309 C 732.454 -0.258636 4.42545 0
M  V30 7310 H 729.674 0.115256 0.661027 0
M  V30 7311 H 732.218 0.963555 1.80377 0
M  V30 7312 H 730.373 -0.445978 3.84824 0
M  V30 7313 H 730.787 1.41226 5.05129 0
M  V30 7314 H 732.261 -0.233849 5.51504 0
M  V30 7315 H 732.738 -1.2995 4.19535 0
M  V30 7316 H 733.344 0.372186 4.23668 0
M  V30 7317 N 731.66 -1.50943 0.453197 0
M  V30 7318 C 732.89 -2.06328 -0.105981 0
M  V30 7319 C 733.298 -1.31909 -1.35634 0
M  V30 7320 O 732.641 -0.376607 -1.79798 0
M  V30 7321 C 732.703 -3.5631 -0.477868 0
M  V30 7322 C 732.367 -4.52093 0.667925 0
M  V30 7323 C 733.364 -4.96421 1.54475 0
M  V30 7324 C 731.049 -4.95001 0.853168 0
M  V30 7325 C 733.043 -5.82346 2.59138 0
M  V30 7326 C 730.73 -5.80713 1.90305 0
M  V30 7327 C 731.728 -6.24284 2.77053 0
M  V30 7328 O 731.416 -7.08291 3.80236 0
M  V30 7329 H 731.148 -0.675986 -0.00427247 0
M  V30 7330 H 733.702 -1.95314 0.635738 0
M  V30 7331 H 731.932 -3.65163 -1.27252 0
M  V30 7332 H 733.621 -3.94138 -0.970039 0
M  V30 7333 H 734.387 -4.63953 1.41324 0
M  V30 7334 H 730.266 -4.60619 0.187482 0
M  V30 7335 H 733.81 -6.16276 3.2688 0
M  V30 7336 H 729.707 -6.12593 2.03469 0
M  V30 7337 H 730.475 -7.26504 3.77007 0
M  V30 7338 N 733.138 -0.185124 -1.56509 0
M  V30 7339 C 734.363 0.465278 -2.02114 0
M  V30 7340 C 734.788 1.55083 -1.06447 0
M  V30 7341 O 734.146 1.81241 -0.0462852 0
M  V30 7342 C 734.194 1.00784 -3.46229 0
M  V30 7343 O 733.298 2.12123 -3.53663 0
M  V30 7344 H 732.639 0.109891 -0.654843 0
M  V30 7345 H 735.169 -0.293072 -2.0249 0
M  V30 7346 H 735.179 1.32697 -3.85818 0
M  V30 7347 H 733.854 0.213113 -4.15354 0
M  V30 7348 H 732.431 1.8115 -3.25943 0
M  V30 7349 N 734.616 1.57351 0.0885366 0
M  V30 7350 C 735.844 1.90631 0.804196 0
M  V30 7351 C 736.259 0.779474 1.71958 0
M  V30 7352 O 735.616 -0.248179 1.80805 0
M  V30 7353 C 735.667 3.23568 1.61202 0
M  V30 7354 O 735.388 4.31917 0.733447 0
M  V30 7355 C 736.889 3.70753 2.43016 0
M  V30 7356 H 734.109 0.630501 0.229585 0
M  V30 7357 H 736.653 2.044 0.0638092 0
M  V30 7358 H 734.808 3.11377 2.30485 0
M  V30 7359 H 735.222 5.08297 1.29361 0
M  V30 7360 H 736.696 4.66447 2.9518 0
M  V30 7361 H 737.173 2.98922 3.2178 0
M  V30 7362 H 737.779 3.85834 1.7892 0
M  V30 7363 N 736.094 -0.359525 1.53444 0
M  V30 7364 C 737.322 -1.12198 1.73837 0
M  V30 7365 C 737.737 -1.82854 0.470107 0
M  V30 7366 O 737.094 -1.73781 -0.557349 0
M  V30 7367 C 737.145 -2.14769 2.90786 0
M  V30 7368 O 736.866 -1.46989 4.12706 0
M  V30 7369 C 738.367 -3.03514 3.231 0
M  V30 7370 H 735.587 -0.33524 0.581253 0
M  V30 7371 H 738.131 -0.416598 2.00212 0
M  V30 7372 H 736.286 -2.80896 2.66788 0
M  V30 7373 H 736.7 -2.15378 4.78239 0
M  V30 7374 H 738.174 -3.71453 4.08322 0
M  V30 7375 H 738.651 -3.68658 2.38721 0
M  V30 7376 H 739.257 -2.42996 3.49046 0
M  V30 7377 N 737.572 -1.44907 -0.619662 0
M  V30 7378 C 738.818 -1.48512 -1.38102 0
M  V30 7379 C 739.151 -0.121686 -1.93818 0
M  V30 7380 O 738.426 0.862256 -1.74343 0
M  V30 7381 C 738.709 -2.55469 -2.53787 0
M  V30 7382 C 738.562 -4.01212 -2.03345 0
M  V30 7383 C 739.881 -2.58821 -3.55949 0
M  V30 7384 H 737 -0.540712 -0.500799 0
M  V30 7385 H 739.642 -1.7665 -0.69962 0
M  V30 7386 H 737.792 -2.31606 -3.11915 0
M  V30 7387 H 739.464 -4.36245 -1.49959 0
M  V30 7388 H 737.707 -4.12443 -1.34438 0
M  V30 7389 H 738.378 -4.71717 -2.86683 0
M  V30 7390 H 740.854 -2.80172 -3.07641 0
M  V30 7391 H 739.73 -3.35542 -4.34399 0
M  V30 7392 H 739.991 -1.63451 -4.10775 0
M  V30 7393 N 739.05 0.861098 -1.31996 0
M  V30 7394 C 740.278 1.6474 -1.25173 0
M  V30 7395 C 740.693 1.87926 0.181425 0
M  V30 7396 O 740.05 1.4437 1.1164 0
M  V30 7397 C 740.101 3.01036 -2.0015 0
M  V30 7398 O 739.822 2.7888 -3.37872 0
M  V30 7399 C 741.323 3.95481 -2.00273 0
M  V30 7400 H 738.543 0.513314 -0.432146 0
M  V30 7401 H 741.087 1.07419 -1.74016 0
M  V30 7402 H 739.242 3.55021 -1.55046 0
M  V30 7403 H 739.656 3.65514 -3.76165 0
M  V30 7404 H 741.13 4.88403 -2.57229 0
M  V30 7405 H 741.607 4.27957 -0.987407 0
M  V30 7406 H 742.213 3.47433 -2.45296 0
M  V30 7407 N 740.528 1.15101 1.07655 0
M  V30 7408 C 741.776 0.922149 1.79836 0
M  V30 7409 C 742.097 -0.552346 1.87014 0
M  V30 7410 O 741.367 -1.40145 1.3688 0
M  V30 7411 H 739.947 0.338182 0.666064 0
M  V30 7412 H 742.609 1.45107 1.30115 0
M  V30 7413 H 741.705 1.32883 2.82398 0
M  V30 7414 N 742.006 -1.2595 0.947325 0
M  V30 7415 C 743.422 -1.45737 0.650597 0
M  V30 7416 C 743.622 -1.85189 -0.794188 0
M  V30 7417 O 742.678 -1.97738 -1.57022 0
M  V30 7418 C 743.991 -2.53505 1.61728 0
M  V30 7419 C 745.539 -2.67351 1.62765 0
M  V30 7420 C 746.014 -3.78296 2.58179 0
M  V30 7421 N 747.505 -3.85696 2.56501 0
M  V30 7422 C 748.24 -4.71012 3.2701 0
M  V30 7423 N 747.736 -5.60669 4.06966 0
M  V30 7424 N 749.529 -4.64912 3.15932 0
M  V30 7425 H 741.68 -0.986327 1.8811 0
M  V30 7426 H 743.943 -0.494639 0.808725 0
M  V30 7427 H 743.649 -2.31357 2.6489 0
M  V30 7428 H 743.523 -3.51281 1.3741 0
M  V30 7429 H 745.91 -2.88869 0.603241 0
M  V30 7430 H 745.991 -1.69998 1.91139 0
M  V30 7431 H 745.635 -3.5753 3.60742 0
M  V30 7432 H 745.565 -4.75117 2.27093 0
M  V30 7433 H 748.056 -3.21601 1.98447 0
M  V30 7434 H 748.369 -6.22677 4.57704 0
M  V30 7435 H 746.714 -5.60402 4.11066 0
M  V30 7436 H 749.905 -3.93874 2.52945 0
M  V30 7437 H 750.078 -5.3118 3.71149 0
M  V30 7438 N 743.484 -0.715051 -1.40445 0
M  V30 7439 C 744.712 -0.263959 -2.05209 0
M  V30 7440 C 745.127 1.09403 -1.53871 0
M  V30 7441 O 744.484 1.68746 -0.695064 0
M  V30 7442 C 744.535 -0.234545 -3.60738 0
M  V30 7443 O 744.256 -1.53891 -4.10182 0
M  V30 7444 C 745.757 0.235164 -4.42676 0
M  V30 7445 H 742.977 -0.11876 -0.660407 0
M  V30 7446 H 745.521 -0.973107 -1.79864 0
M  V30 7447 H 743.676 0.425563 -3.85055 0
M  V30 7448 H 744.09 -1.43903 -5.04373 0
M  V30 7449 H 745.564 0.204598 -5.51621 0
M  V30 7450 H 746.041 1.27724 -4.20218 0
M  V30 7451 H 746.647 -0.394649 -4.23465 0
M  V30 7452 N 744.962 1.50701 -0.461195 0
M  V30 7453 C 746.202 2.04174 0.0960673 0
M  V30 7454 C 746.566 1.33628 1.37868 0
M  V30 7455 O 747.767 1.77602 2.0177 0
M  V30 7456 C 746.038 3.56256 0.285676 0
M  V30 7457 S 747.597 4.31392 0.802917 0
M  V30 7458 H 744.415 0.710701 0.0206282 0
M  V30 7459 H 747.017 1.85204 -0.62607 0
M  V30 7460 H 745.721 4.05159 -0.653773 0
M  V30 7461 H 745.252 3.79562 1.03421 0
M  V30 7462 H 747.267 4.50611 2.07761 0
M  V30 7463 N 746.441 0.193421 1.56409 0
M  V30 7464 C 747.373 -0.759944 2.16235 0
M  V30 7465 C 748.386 -1.17797 1.12373 0
M  V30 7466 O 749.575 -1.11399 1.39472 0
M  V30 7467 C 746.675 -2.03735 2.70823 0
M  V30 7468 C 745.848 -1.77939 3.9957 0
M  V30 7469 C 744.907 -2.90111 4.39001 0
M  V30 7470 O 743.933 -2.59791 5.06456 0
M  V30 7471 N 745.135 -4.18426 4.02368 0
M  V30 7472 H 747.9 -0.248348 2.98669 0
M  V30 7473 H 745.461 0.0113966 1.61896 0
M  V30 7474 H 747.453 -2.77914 2.94187 0
M  V30 7475 H 746.023 -2.46022 1.92852 0
M  V30 7476 H 745.243 -0.875491 3.84355 0
M  V30 7477 H 746.531 -1.58099 4.83614 0
M  V30 7478 H 745.929 -4.45913 3.48106 0
M  V30 7479 H 744.486 -4.89237 4.30686 0
M  V30 7480 N 747.919 -1.57396 -0.0801906 0
M  V30 7481 C 748.882 -2.02133 -1.0805 0
M  V30 7482 C 749.882 -0.91707 -1.32085 0
M  V30 7483 O 751.072 -1.18217 -1.27947 0
M  V30 7484 C 748.204 -2.39479 -2.42616 0
M  V30 7485 H 749.397 -2.91733 -0.6951 0
M  V30 7486 H 746.95 -1.52869 -0.325677 0
M  V30 7487 H 747.685 -1.52879 -2.86004 0
M  V30 7488 H 747.47 -3.20052 -2.26515 0
M  V30 7489 H 748.96 -2.74697 -3.14534 0
M  V30 7490 N 749.397 0.351382 -1.53633 0
M  V30 7491 C 750.643 1.09049 -1.71697 0
M  V30 7492 C 750.998 1.86563 -0.470314 0
M  V30 7493 O 750.291 1.83922 0.536954 0
M  V30 7494 C 750.485 2.06744 -2.91533 0
M  V30 7495 C 750.314 1.38832 -4.27733 0
M  V30 7496 C 749.084 1.13646 -4.92354 0
M  V30 7497 C 751.282 0.818602 -5.07743 0
M  V30 7498 N 749.264 0.422324 -6.12446 0
M  V30 7499 C 750.635 0.234602 -6.19556 0
M  V30 7500 C 752.69 0.718679 -4.92686 0
M  V30 7501 C 751.393 -0.439592 -7.17955 0
M  V30 7502 C 753.419 0.0582402 -5.91371 0
M  V30 7503 C 752.781 -0.514823 -7.02516 0
M  V30 7504 H 748.88 0.383697 -0.681396 0
M  V30 7505 H 751.464 0.375063 -1.91053 0
M  V30 7506 H 749.635 2.75586 -2.73691 0
M  V30 7507 H 751.367 2.73436 -2.98353 0
M  V30 7508 H 748.122 1.4215 -4.51764 0
M  V30 7509 H 748.546 0.0802092 -6.76952 0
M  V30 7510 H 753.188 1.14748 -4.06931 0
M  V30 7511 H 750.906 -0.880307 -8.03291 0
M  V30 7512 H 754.492 -0.0183382 -5.81797 0
M  V30 7513 H 753.372 -1.01777 -7.77567 0
M  V30 7514 N 750.875 1.45233 0.611969 0
M  V30 7515 C 752.1 1.52767 1.40274 0
M  V30 7516 C 752.525 0.159701 1.87421 0
M  V30 7517 O 751.883 -0.854837 1.59882 0
M  V30 7518 C 751.931 2.51286 2.58626 0
M  V30 7519 O 751.035 2.02764 3.59111 0
M  V30 7520 H 750.376 0.515141 0.418958 0
M  V30 7521 H 752.906 1.90547 0.745188 0
M  V30 7522 H 752.916 2.69949 3.05927 0
M  V30 7523 H 751.591 3.50641 2.23659 0
M  V30 7524 H 750.168 1.93957 3.18489 0
M  V30 7525 N 752.353 -0.854086 1.3245 0
M  V30 7526 C 753.578 -1.64597 1.26185 0
M  V30 7527 C 754.003 -1.87357 -0.167074 0
M  V30 7528 O 753.361 -1.42675 -1.11864 0
M  V30 7529 C 753.409 -2.98213 2.02734 0
M  V30 7530 O 752.513 -3.88784 1.37554 0
M  V30 7531 H 751.854 -0.50179 0.434859 0
M  V30 7532 H 754.384 -1.06372 1.74775 0
M  V30 7533 H 754.394 -3.4803 2.1293 0
M  V30 7534 H 753.069 -2.80969 3.06642 0
M  V30 7535 H 751.646 -3.4725 1.3591 0
M  V30 7536 N 753.831 -1.1567 -1.07043 0
M  V30 7537 C 754.764 -0.799867 -2.13723 0
M  V30 7538 C 755.742 0.225098 -1.61034 0
M  V30 7539 O 756.926 0.11093 -1.88173 0
M  V30 7540 C 754.053 -0.18997 -3.38167 0
M  V30 7541 C 753.099 -1.18733 -4.0964 0
M  V30 7542 S 753.932 -2.73074 -4.60642 0
M  V30 7543 C 755.088 -2.13512 -5.88356 0
M  V30 7544 H 755.321 -1.70342 -2.43661 0
M  V30 7545 H 752.854 -0.979377 -1.19363 0
M  V30 7546 H 754.812 0.155471 -4.10205 0
M  V30 7547 H 753.473 0.691229 -3.064 0
M  V30 7548 H 752.666 -0.708873 -4.9899 0
M  V30 7549 H 752.268 -1.47747 -3.43579 0
M  V30 7550 H 754.56 -1.49911 -6.60706 0
M  V30 7551 H 755.503 -3.01042 -6.40921 0
M  V30 7552 H 755.911 -1.57693 -5.42027 0
M  V30 7553 N 755.309 1.25446 -0.953992 0
M  V30 7554 C 756.537 1.97215 -0.625595 0
M  V30 7555 C 756.952 1.70911 0.802168 0
M  V30 7556 O 756.309 0.984782 1.5365 0
M  V30 7557 C 756.36 3.50777 -0.873943 0
M  V30 7558 O 756.081 3.76173 -2.24556 0
M  V30 7559 C 757.582 4.39776 -0.557845 0
M  V30 7560 H 754.802 0.628652 -0.2346 0
M  V30 7561 H 757.346 1.59632 -1.27819 0
M  V30 7562 H 755.501 3.86474 -0.267765 0
M  V30 7563 H 755.915 4.70636 -2.31522 0
M  V30 7564 H 757.389 5.46431 -0.782157 0
M  V30 7565 H 757.866 4.36257 0.507573 0
M  V30 7566 H 758.472 4.09644 -1.14332 0
M  V30 7567 N 756.787 0.722489 1.40064 0
M  V30 7568 C 758.198 0.336507 1.83642 0
M  V30 7569 C 758.549 -1.13002 1.6039 0
M  V30 7570 O 757.674 -1.87036 1.08842 0
M  V30 7571 C 758.269 0.603985 3.33373 0
M  V30 7572 C 756.828 0.271637 3.75419 0
M  V30 7573 C 755.975 0.872898 2.63203 0
M  V30 7574 H 758.926 0.921108 1.29233 0
M  V30 7575 H 758.947 -0.128471 3.80283 0
M  V30 7576 H 758.459 1.67141 3.50265 0
M  V30 7577 H 756.56 -0.790455 3.64119 0
M  V30 7578 H 756.673 0.745457 4.73265 0
M  V30 7579 H 755.037 0.300431 2.52922 0
M  V30 7580 H 755.82 1.94473 2.82905 0
M  V30 7581 N 758.265 -1.50454 0.469181 0
M  V30 7582 C 759.215 -2.25381 -0.344582 0
M  V30 7583 C 760.199 -1.28892 -0.963098 0
M  V30 7584 O 761.391 -1.53805 -0.875964 0
M  V30 7585 C 758.52 -3.12232 -1.4271 0
M  V30 7586 C 757.606 -4.16168 -0.816411 0
M  V30 7587 N 757.997 -5.05762 0.0621424 0
M  V30 7588 C 756.295 -4.32712 -1.08056 0
M  V30 7589 C 756.996 -5.80264 0.408519 0
M  V30 7590 N 755.972 -5.43171 -0.215827 0
M  V30 7591 H 759.774 -2.92016 0.332237 0
M  V30 7592 H 757.288 -1.59911 0.283209 0
M  V30 7593 H 759.285 -3.64514 -2.02324 0
M  V30 7594 H 757.945 -2.47145 -2.10593 0
M  V30 7595 H 758.956 -5.16105 0.430841 0
M  V30 7596 H 755.633 -3.78844 -1.75452 0
M  V30 7597 H 757.023 -6.62408 1.12539 0
M  V30 7598 N 759.743 -0.201713 -1.56304 0
M  V30 7599 C 760.968 0.443815 -2.02596 0
M  V30 7600 C 761.393 1.53945 -1.08086 0
M  V30 7601 O 760.751 1.81182 -0.0655056 0
M  V30 7602 C 760.799 0.971066 -3.47279 0
M  V30 7603 O 759.903 2.0836 -3.55893 0
M  V30 7604 H 759.244 0.10294 -0.655972 0
M  V30 7605 H 761.774 -0.314533 -2.02168 0
M  V30 7606 H 761.784 1.28598 -3.87204 0
M  V30 7607 H 760.459 0.169048 -4.15556 0
M  V30 7608 H 759.036 1.77683 -3.27846 0
M  V30 7609 N 761.222 1.57436 0.0718424 0
M  V30 7610 C 762.172 2.00132 1.09229 0
M  V30 7611 C 763.156 0.883379 1.34481 0
M  V30 7612 O 764.348 1.14728 1.34783 0
M  V30 7613 C 761.477 2.44876 2.40605 0
M  V30 7614 C 760.563 3.63405 2.18627 0
M  V30 7615 N 760.954 4.77583 1.66579 0
M  V30 7616 C 759.252 3.69953 2.491 0
M  V30 7617 C 759.953 5.5943 1.59415 0
M  V30 7618 N 758.929 5.03275 2.05464 0
M  V30 7619 H 762.731 2.85849 0.683185 0
M  V30 7620 H 760.245 1.59987 0.278914 0
M  V30 7621 H 762.242 2.73703 3.14471 0
M  V30 7622 H 760.902 1.60546 2.82232 0
M  V30 7623 H 761.913 4.99875 1.35443 0
M  V30 7624 H 758.59 2.96336 2.94094 0
M  V30 7625 H 759.98 6.61093 1.20026 0
M  V30 7626 N 762.7 -0.34323 1.53817 0
M  V30 7627 C 763.925 -1.1079 1.75329 0
M  V30 7628 C 764.35 -1.81571 0.491293 0
M  V30 7629 O 763.708 -1.72561 -0.556089 0
M  V30 7630 C 763.756 -2.09681 2.9337 0
M  V30 7631 O 762.86 -3.17207 2.63541 0
M  V30 7632 H 762.201 -0.320402 0.581583 0
M  V30 7633 H 764.731 -0.393525 2.0078 0
M  V30 7634 H 764.741 -2.52897 3.20168 0
M  V30 7635 H 763.416 -1.5756 3.84899 0
M  V30 7636 H 761.993 -2.78806 2.47632 0
M  V30 7637 N 764.178 -1.45556 -0.604258 0
M  V30 7638 C 765.594 -1.30035 -0.925368 0
M  V30 7639 C 765.794 -0.255833 -1.99869 0
M  V30 7640 O 764.85 0.349076 -2.50075 0
M  V30 7641 C 766.163 -2.68028 -1.36314 0
M  V30 7642 C 767.711 -2.75951 -1.47717 0
M  V30 7643 C 768.186 -4.14476 -1.94868 0
M  V30 7644 N 769.677 -4.16787 -2.02097 0
M  V30 7645 C 770.412 -5.20845 -2.39809 0
M  V30 7646 N 769.908 -6.35246 -2.76467 0
M  V30 7647 N 771.701 -5.08204 -2.40177 0
M  V30 7648 H 763.852 -2.1214 0.10512 0
M  V30 7649 H 766.115 -0.947871 -0.0156303 0
M  V30 7650 H 765.821 -3.45667 -0.648628 0
M  V30 7651 H 765.695 -2.96711 -2.329 0
M  V30 7652 H 768.082 -1.98613 -2.18258 0
M  V30 7653 H 768.163 -2.50977 -0.494371 0
M  V30 7654 H 767.807 -4.923 -1.24912 0
M  V30 7655 H 767.737 -4.36843 -2.94068 0
M  V30 7656 H 770.228 -3.34233 -1.76343 0
M  V30 7657 H 770.541 -7.10438 -3.04134 0
M  V30 7658 H 768.886 -6.38642 -2.74155 0
M  V30 7659 H 772.077 -4.17874 -2.10947 0
M  V30 7660 H 772.25 -5.89417 -2.69242 0
M  V30 7661 N 765.656 0.84705 -1.32902 0
M  V30 7662 C 766.884 1.63403 -1.26913 0
M  V30 7663 C 767.299 1.88108 0.161483 0
M  V30 7664 O 766.656 1.45546 1.10103 0
M  V30 7665 C 766.707 2.98896 -2.03331 0
M  V30 7666 O 766.428 2.75281 -3.40811 0
M  V30 7667 C 767.929 3.93335 -2.04457 0
M  V30 7668 H 765.149 0.508701 -0.437566 0
M  V30 7669 H 767.693 1.05567 -1.75145 0
M  V30 7670 H 765.848 3.53356 -1.58802 0
M  V30 7671 H 766.262 3.61504 -3.8002 0
M  V30 7672 H 767.736 4.85647 -2.62394 0
M  V30 7673 H 768.213 4.26885 -1.03274 0
M  V30 7674 H 768.819 3.44812 -2.48967 0
M  V30 7675 N 767.134 1.16236 1.06428 0
M  V30 7676 C 768.545 0.950942 1.60667 0
M  V30 7677 C 768.896 -0.505491 1.89576 0
M  V30 7678 O 768.021 -1.37843 1.66818 0
M  V30 7679 C 768.616 1.71982 2.91904 0
M  V30 7680 C 767.175 1.55342 3.4285 0
M  V30 7681 C 766.322 1.72942 2.16763 0
M  V30 7682 H 769.273 1.31126 0.893959 0
M  V30 7683 H 769.294 1.19483 3.61253 0
M  V30 7684 H 768.806 2.77978 2.70831 0
M  V30 7685 H 766.907 0.5178 3.68985 0
M  V30 7686 H 767.02 2.33643 4.18267 0
M  V30 7687 H 765.384 1.15673 2.26918 0
M  V30 7688 H 766.167 2.80324 1.98175 0
M  V30 7689 N 768.612 -1.24939 0.960631 0
M  V30 7690 C 769.522 -2.29374 0.492435 0
M  V30 7691 C 770.538 -1.68262 -0.443154 0
M  V30 7692 O 771.714 -1.98875 -0.31793 0
M  V30 7693 C 768.779 -3.46023 -0.216626 0
M  V30 7694 C 767.84 -4.22557 0.757915 0
M  V30 7695 C 767.073 -5.33636 0.0825969 0
M  V30 7696 O 767.296 -5.59084 -1.13054 0
M  V30 7697 O 766.23 -5.96939 0.771177 0
M  V30 7698 H 770.056 -2.71525 1.36044 0
M  V30 7699 H 767.641 -1.30499 0.72735 0
M  V30 7700 H 769.523 -4.16885 -0.615241 0
M  V30 7701 H 768.198 -3.05862 -1.05971 0
M  V30 7702 H 767.105 -3.54099 1.20685 0
M  V30 7703 H 768.438 -4.66516 1.5692 0
M  V30 7704 N 770.09 -0.729906 -1.39679 0
M  V30 7705 C 771.32 -0.285295 -2.04621 0
M  V30 7706 C 771.728 1.08304 -1.55135 0
M  V30 7707 O 771.071 1.6946 -0.709146 0
M  V30 7708 C 771.133 -0.203129 -3.58926 0
M  V30 7709 C 770.797 -1.50909 -4.31365 0
M  V30 7710 C 771.794 -2.45381 -4.58349 0
M  V30 7711 C 769.479 -1.77198 -4.70007 0
M  V30 7712 C 771.473 -3.64379 -5.22979 0
M  V30 7713 C 769.16 -2.96474 -5.34365 0
M  V30 7714 C 770.158 -3.89886 -5.60783 0
M  V30 7715 O 769.846 -5.07069 -6.23808 0
M  V30 7716 H 769.578 -0.123373 -0.664647 0
M  V30 7717 H 772.132 -0.992901 -1.79807 0
M  V30 7718 H 770.362 0.560538 -3.82616 0
M  V30 7719 H 772.051 0.208811 -4.05363 0
M  V30 7720 H 772.817 -2.2634 -4.28947 0
M  V30 7721 H 768.696 -1.05337 -4.48804 0
M  V30 7722 H 772.24 -4.37307 -5.43515 0
M  V30 7723 H 768.137 -3.15419 -5.63188 0
M  V30 7724 H 768.905 -5.07335 -6.42303 0
M  V30 7725 N 771.568 1.50203 -0.477153 0
M  V30 7726 C 772.798 2.0647 0.0731427 0
M  V30 7727 C 773.206 1.3405 1.33518 0
M  V30 7728 O 772.549 0.405164 1.79176 0
M  V30 7729 C 772.611 3.57025 0.421121 0
M  V30 7730 C 772.275 4.50973 -0.739765 0
M  V30 7731 C 773.272 4.939 -1.62353 0
M  V30 7732 C 770.957 4.93581 -0.93181 0
M  V30 7733 C 772.951 5.78149 -2.6837 0
M  V30 7734 C 770.638 5.77612 -1.99519 0
M  V30 7735 C 771.636 6.19798 -2.86949 0
M  V30 7736 O 771.324 7.02152 -3.91456 0
M  V30 7737 H 771.056 0.675969 -0.00648243 0
M  V30 7738 H 773.61 1.94278 -0.66673 0
M  V30 7739 H 771.84 3.67141 1.21426 0
M  V30 7740 H 773.529 3.95632 0.907213 0
M  V30 7741 H 774.295 4.61646 -1.48687 0
M  V30 7742 H 770.174 4.60262 -0.260739 0
M  V30 7743 H 773.718 6.10997 -3.36643 0
M  V30 7744 H 769.615 6.09279 -2.13189 0
M  V30 7745 H 770.383 7.20414 -3.88518 0
M  V30 7746 N 773.046 0.209999 1.56195 0
M  V30 7747 C 774.457 -0.299943 1.84275 0
M  V30 7748 C 774.808 -1.60314 1.1311 0
M  V30 7749 O 773.933 -2.1273 0.396874 0
M  V30 7750 C 774.528 -0.550986 3.3429 0
M  V30 7751 C 773.087 -1.00526 3.62728 0
M  V30 7752 C 772.234 -0.0619828 2.77231 0
M  V30 7753 H 775.185 0.433458 1.52666 0
M  V30 7754 H 775.206 -1.39846 3.53869 0
M  V30 7755 H 774.718 0.397669 3.86057 0
M  V30 7756 H 772.819 -1.96768 3.16407 0
M  V30 7757 H 772.932 -0.887664 4.70805 0
M  V30 7758 H 771.296 -0.566648 2.48317 0
M  V30 7759 H 772.079 0.881383 3.31793 0
M  V30 7760 N 774.524 -1.57472 -0.0634922 0
M  V30 7761 C 775.472 -2.05307 -1.09323 0
M  V30 7762 C 776.466 -0.959995 -1.39572 0
M  V30 7763 O 777.672 -1.14507 -1.38882 0
M  V30 7764 H 774.047 -0.65472 -0.369927 0
M  V30 7765 H 776.018 -2.90925 -0.663707 0
M  V30 7766 C 774.767 -2.51954 -2.39613 0
M  V30 7767 H 774.09 -3.35662 -2.1719 0
M  V30 7768 H 775.53 -2.89169 -3.10092 0
M  V30 7769 C 773.989 -1.40596 -3.06161 0
M  V30 7770 O 774.519 -0.752722 -3.94585 0
M  V30 7771 N 772.725 -1.14902 -2.66919 0
M  V30 7772 H 772.272 -1.68205 -1.95102 0
M  V30 7773 H 772.23 -0.406006 -3.11767 0
M  V30 7774 N 776.003 0.335068 -1.53997 0
M  V30 7775 C 776.966 1.39481 -1.81872 0
M  V30 7776 C 777.966 1.4524 -0.690078 0
M  V30 7777 O 779.156 1.45467 -0.958377 0
M  V30 7778 C 776.288 2.78329 -1.9684 0
M  V30 7779 H 777.481 1.16024 -2.76547 0
M  V30 7780 H 775.034 0.569926 -1.45539 0
M  V30 7781 H 775.769 3.07058 -1.04337 0
M  V30 7782 H 775.554 2.75544 -2.78958 0
M  V30 7783 H 777.044 3.55016 -2.19894 0
M  V30 7784 N 777.481 1.45874 0.596531 0
M  V30 7785 C 778.729 1.5017 1.35253 0
M  V30 7786 C 779.05 0.149246 1.94428 0
M  V30 7787 O 778.32 -0.82268 1.77789 0
M  V30 7788 H 776.9 0.553052 0.502138 0
M  V30 7789 H 779.562 1.81908 0.699671 0
M  V30 7790 H 778.658 2.24671 2.16632 0
M  V30 7791 N 778.959 -0.83999 1.33349 0
M  V30 7792 C 779.889 -1.965 1.26135 0
M  V30 7793 C 780.87 -1.69505 0.142152 0
M  V30 7794 O 782.055 -1.91346 0.331743 0
M  V30 7795 C 779.185 -3.32632 0.99866 0
M  V30 7796 C 778.139 -3.74021 2.08068 0
M  V30 7797 C 777.465 -5.07947 1.67014 0
M  V30 7798 C 778.765 -3.87925 3.49731 0
M  V30 7799 H 780.459 -2.02793 2.20262 0
M  V30 7800 H 778.005 -0.974297 1.06035 0
M  V30 7801 H 779.958 -4.10903 0.934696 0
M  V30 7802 H 778.682 -3.26593 0.0217759 0
M  V30 7803 H 777.341 -2.98012 2.13505 0
M  V30 7804 H 776.989 -4.98378 0.680316 0
M  V30 7805 H 776.689 -5.36611 2.39422 0
M  V30 7806 H 778.213 -5.88695 1.62082 0
M  V30 7807 H 779.627 -4.5651 3.46802 0
M  V30 7808 H 778.024 -4.28023 4.20614 0
M  V30 7809 H 779.094 -2.90407 3.88319 0
M  V30 7810 N 780.437 -1.16799 -1.0581 0
M  V30 7811 C 781.686 -0.94698 -1.78088 0
M  V30 7812 C 781.999 0.526016 -1.88394 0
M  V30 7813 O 783.205 0.865061 -2.5735 0
M  V30 7814 C 781.661 -1.64508 -3.20102 0
M  V30 7815 C 781.269 -3.15618 -3.17946 0
M  V30 7816 C 783.013 -1.50622 -3.96879 0
M  V30 7817 C 780.92 -3.78144 -4.5471 0
M  V30 7818 H 779.85 -0.35067 -0.667493 0
M  V30 7819 H 782.501 -1.39985 -1.18645 0
M  V30 7820 H 780.883 -1.11993 -3.79834 0
M  V30 7821 H 782.057 -3.75016 -2.67768 0
M  V30 7822 H 780.372 -3.29444 -2.54667 0
M  V30 7823 H 782.969 -1.94713 -4.97987 0
M  V30 7824 H 783.312 -0.455864 -4.13797 0
M  V30 7825 H 783.845 -2.00319 -3.43682 0
M  V30 7826 H 780.584 -4.83149 -4.42998 0
M  V30 7827 H 780.104 -3.23532 -5.05062 0
M  V30 7828 H 781.783 -3.79986 -5.2366 0
M  V30 7829 N 781.915 1.24427 -0.967243 0
M  V30 7830 C 782.848 2.23885 -0.441683 0
M  V30 7831 C 783.826 1.55231 0.483963 0
M  V30 7832 O 785.01 1.83865 0.415445 0
M  V30 7833 C 782.137 3.36755 0.362458 0
M  V30 7834 C 781.183 4.23495 -0.505407 0
M  V30 7835 S 782.016 4.98916 -1.94534 0
M  V30 7836 C 783.172 6.15245 -1.14997 0
M  V30 7837 H 783.405 2.68118 -1.28453 0
M  V30 7838 H 780.938 1.337 -0.772243 0
M  V30 7839 H 782.896 4.02218 0.820445 0
M  V30 7840 H 781.557 2.91081 1.18027 0
M  V30 7841 H 780.75 5.03876 0.111979 0
M  V30 7842 H 780.352 3.63032 -0.899104 0
M  V30 7843 H 782.644 6.7629 -0.404769 0
M  V30 7844 H 783.587 6.81343 -1.92814 0
M  V30 7845 H 783.995 5.60455 -0.674543 0
M  V30 7846 N 783.393 0.737304 1.3929 0
M  V30 7847 C 784.341 0.0879867 2.32434 0
M  V30 7848 C 785.335 -0.723324 1.53181 0
M  V30 7849 O 786.541 -0.624251 1.68829 0
M  V30 7850 H 782.916 0.00965277 0.751938 0
M  V30 7851 H 784.887 0.889915 2.84821 0
M  V30 7852 C 783.636 -0.803384 3.38291 0
M  V30 7853 H 782.959 -0.18849 3.99355 0
M  V30 7854 H 784.399 -1.22528 4.0591 0
M  V30 7855 C 782.858 -1.93872 2.75527 0
M  V30 7856 O 783.388 -3.03154 2.63553 0
M  V30 7857 N 781.594 -1.72883 2.3358 0
M  V30 7858 H 781.141 -0.840005 2.43519 0
M  V30 7859 H 781.099 -2.49021 1.91927 0
M  V30 7860 N 784.871 -1.49948 0.485112 0
M  V30 7861 C 786.101 -2.06506 -0.0621921 0
M  V30 7862 C 786.509 -1.34756 -1.32806 0
M  V30 7863 O 785.852 -0.41466 -1.78959 0
M  V30 7864 C 785.914 -3.57243 -0.402182 0
M  V30 7865 C 785.578 -4.50574 0.763671 0
M  V30 7866 C 786.575 -4.93032 1.6497 0
M  V30 7867 C 784.26 -4.9308 0.957973 0
M  V30 7868 C 786.254 -5.76718 2.71432 0
M  V30 7869 C 783.941 -5.76546 2.0258 0
M  V30 7870 C 784.939 -6.18267 2.90232 0
M  V30 7871 O 784.627 -7.00066 3.95174 0
M  V30 7872 H 784.359 -0.675925 0.0100672 0
M  V30 7873 H 786.913 -1.93922 0.677023 0
M  V30 7874 H 785.143 -3.6778 -1.19478 0
M  V30 7875 H 786.832 -3.96107 -0.886219 0
M  V30 7876 H 787.598 -4.60851 1.51134 0
M  V30 7877 H 783.477 -4.60117 0.285144 0
M  V30 7878 H 787.021 -6.09203 3.39878 0
M  V30 7879 H 782.918 -6.0814 2.16417 0
M  V30 7880 H 783.686 -7.18343 3.92333 0
M  V30 7881 N 786.349 -0.21828 -1.56081 0
M  V30 7882 C 787.589 0.416193 -2.00118 0
M  V30 7883 C 787.953 1.5718 -1.10265 0
M  V30 7884 O 789.154 2.27206 -1.43635 0
M  V30 7885 C 787.425 0.842781 -3.47321 0
M  V30 7886 S 788.984 1.47182 -4.1338 0
M  V30 7887 H 785.802 0.132219 -0.698598 0
M  V30 7888 H 788.404 -0.326799 -1.92749 0
M  V30 7889 H 787.108 -0.00799925 -4.10399 0
M  V30 7890 H 786.639 1.61867 -3.58556 0
M  V30 7891 H 788.654 2.76087 -4.12299 0
M  V30 7892 N 787.827 1.57504 0.0551401 0
M  V30 7893 C 789.243 1.54236 0.410292 0
M  V30 7894 C 789.443 0.940839 1.78187 0
M  V30 7895 O 788.499 0.550541 2.46425 0
M  V30 7896 C 789.812 2.98816 0.336064 0
M  V30 7897 C 791.36 3.10236 0.415047 0
M  V30 7898 C 791.835 4.56499 0.37055 0
M  V30 7899 N 793.326 4.61199 0.43013 0
M  V30 7900 C 794.061 5.71873 0.418179 0
M  V30 7901 N 793.557 6.91864 0.360056 0
M  V30 7902 N 795.35 5.60165 0.465977 0
M  V30 7903 H 787.501 1.94965 -0.842759 0
M  V30 7904 H 789.764 0.893096 -0.317937 0
M  V30 7905 H 789.47 3.4645 -0.605429 0
M  V30 7906 H 789.344 3.59564 1.13988 0
M  V30 7907 H 791.731 2.62566 1.34697 0
M  V30 7908 H 791.812 2.52367 -0.417648 0
M  V30 7909 H 791.456 5.0483 -0.557592 0
M  V30 7910 H 791.386 5.12249 1.221 0
M  V30 7911 H 793.877 3.74857 0.478623 0
M  V30 7912 H 794.19 7.71983 0.35532 0
M  V30 7913 H 792.535 6.94233 0.326492 0
M  V30 7914 H 795.726 4.65322 0.509194 0
M  V30 7915 H 795.899 6.46413 0.453194 0
M  V30 7916 N 789.305 -0.326896 1.54172 0
M  V30 7917 C 790.253 -1.42232 1.84046 0
M  V30 7918 C 791.247 -1.53705 0.712115 0
M  V30 7919 O 792.453 -1.56131 0.895724 0
M  V30 7920 H 788.828 -0.474568 0.583343 0
M  V30 7921 H 790.799 -1.14259 2.75658 0
M  V30 7922 C 789.548 -2.78502 2.08163 0
M  V30 7923 H 788.871 -2.70447 2.94446 0
M  V30 7924 H 790.311 -3.54228 2.33021 0
M  V30 7925 C 788.77 -3.25415 0.872152 0
M  V30 7926 O 789.3 -4.01621 0.0797648 0
M  V30 7927 N 787.506 -2.82418 0.684716 0
M  V30 7928 H 787.053 -2.20566 1.33072 0
M  V30 7929 H 787.011 -3.14159 -0.123031 0
M  V30 7930 N 790.784 -1.46188 -0.588786 0
M  V30 7931 C 792.195 -1.45421 -1.17088 0
M  V30 7932 C 792.546 -0.191801 -1.9526 0
M  V30 7933 O 791.671 0.705497 -2.04577 0
M  V30 7934 C 792.266 -2.63467 -2.13004 0
M  V30 7935 C 790.825 -2.6576 -2.6655 0
M  V30 7936 C 789.972 -2.38002 -1.42304 0
M  V30 7937 H 792.923 -1.54156 -0.377052 0
M  V30 7938 H 792.944 -2.38638 -2.96365 0
M  V30 7939 H 792.456 -3.55331 -1.56081 0
M  V30 7940 H 790.557 -1.77952 -3.27359 0
M  V30 7941 H 790.67 -3.65545 -3.09699 0
M  V30 7942 H 789.034 -1.87936 -1.71907 0
M  V30 7943 H 789.817 -3.32035 -0.872209 0
M  V30 7944 N 792.262 0.832906 -1.33792 0
M  V30 7945 C 793.539 1.57359 -1.16178 0
M  V30 7946 C 793.919 2.09372 0.269532 0
M  V30 7947 O 793.267 1.89993 1.26944 0
M  V30 7948 C 793.477 2.70279 -2.20795 0
M  V30 7949 C 794.825 3.39305 -2.55259 0
M  V30 7950 O 795.849 2.80526 -2.19508 0
M  V30 7951 O 794.708 4.45428 -3.16632 0
M  V30 7952 H 791.802 0.694025 -0.449731 0
M  V30 7953 H 794.348 0.875144 -1.45394 0
M  V30 7954 H 793.12 2.29527 -3.16911 0
M  V30 7955 H 792.743 3.47782 -1.927 0
M  V30 7956 N 793.74 1.17359 1.05189 0
M  V30 7957 C 794.703 0.892604 2.11105 0
M  V30 7958 C 795.703 -0.117236 1.60372 0
M  V30 7959 O 796.893 0.114936 1.7382 0
M  V30 7960 C 794.025 0.337032 3.3923 0
M  V30 7961 H 795.218 1.83169 2.37464 0
M  V30 7962 H 792.771 0.984051 1.21434 0
M  V30 7963 H 793.506 -0.609198 3.18527 0
M  V30 7964 H 793.291 1.06484 3.77364 0
M  V30 7965 H 794.781 0.158763 4.17298 0
M  V30 7966 N 795.218 -1.23913 0.973828 0
M  V30 7967 C 796.464 -1.92436 0.640026 0
M  V30 7968 C 796.797 -1.75875 -0.823512 0
M  V30 7969 O 796.072 -1.11563 -1.59323 0
M  V30 7970 C 796.355 -3.4526 1.0231 0
M  V30 7971 C 796.208 -3.70961 2.54378 0
M  V30 7972 C 797.527 -4.36495 0.562155 0
M  V30 7973 H 794.646 -0.698868 0.233992 0
M  V30 7974 H 797.288 -1.46163 1.21393 0
M  V30 7975 H 795.438 -3.84802 0.534751 0
M  V30 7976 H 797.11 -3.40941 3.10737 0
M  V30 7977 H 795.353 -3.15899 2.97305 0
M  V30 7978 H 796.024 -4.77912 2.76232 0
M  V30 7979 H 798.5 -4.04363 0.981333 0
M  V30 7980 H 797.376 -5.42142 0.858689 0
M  V30 7981 H 797.637 -4.38818 -0.537659 0
M  V30 7982 N 796.696 -0.74468 -1.38897 0
M  V30 7983 C 797.659 -0.11945 -2.28889 0
M  V30 7984 C 798.659 0.656942 -1.46768 0
M  V30 7985 O 799.849 0.484525 -1.67326 0
M  V30 7986 C 796.981 0.839635 -3.30398 0
M  V30 7987 H 798.174 -0.912414 -2.85683 0
M  V30 7988 H 795.727 -0.511119 -1.47707 0
M  V30 7989 H 796.462 1.6586 -2.78677 0
M  V30 7990 H 796.247 0.285432 -3.9106 0
M  V30 7991 H 797.737 1.27337 -3.97712 0
M  V30 7992 N 798.174 1.49689 -0.493057 0
M  V30 7993 C 799.137 2.27502 0.278485 0
M  V30 7994 C 800.137 1.33184 0.901037 0
M  V30 7995 O 801.327 1.56415 0.766801 0
M  V30 7996 C 798.459 3.10881 1.39878 0
M  V30 7997 H 799.652 2.97163 -0.404219 0
M  V30 7998 H 797.205 1.54324 -0.247774 0
M  V30 7999 H 797.94 2.45767 2.11587 0
M  V30 8000 H 797.725 3.80219 0.957924 0
M  V30 8001 H 799.215 3.69673 1.94247 0
M  V30 8002 N 799.652 0.226554 1.55963 0
M  V30 8003 C 801.063 -0.280381 1.84583 0
M  V30 8004 C 801.414 -1.59105 1.14804 0
M  V30 8005 O 800.539 -2.12297 0.419414 0
M  V30 8006 C 801.134 -0.515499 3.34855 0
M  V30 8007 C 799.693 -0.966733 3.63774 0
M  V30 8008 C 798.84 -0.0325753 2.77281 0
M  V30 8009 H 801.791 0.449626 1.52197 0
M  V30 8010 H 801.812 -1.36085 3.55332 0
M  V30 8011 H 801.324 0.438594 3.85614 0
M  V30 8012 H 799.425 -1.93401 3.18476 0
M  V30 8013 H 799.538 -0.837679 4.7172 0
M  V30 8014 H 797.902 -0.540279 2.48904 0
M  V30 8015 H 798.685 0.916524 3.30839 0
M  V30 8016 N 801.13 -1.57531 -0.0467866 0
M  V30 8017 C 802.36 -1.92417 -0.752279 0
M  V30 8018 C 802.768 -0.823134 -1.70356 0
M  V30 8019 O 802.111 0.210598 -1.82489 0
M  V30 8020 C 802.173 -3.22974 -1.57887 0
M  V30 8021 C 801.837 -4.50045 -0.794285 0
M  V30 8022 C 802.834 -5.19799 -0.102368 0
M  V30 8023 C 800.519 -4.96608 -0.754061 0
M  V30 8024 C 802.513 -6.34385 0.619267 0
M  V30 8025 C 800.2 -6.11093 -0.0286682 0
M  V30 8026 C 801.198 -6.79835 0.656772 0
M  V30 8027 O 800.886 -7.92133 1.37042 0
M  V30 8028 H 800.618 -0.640029 -0.217576 0
M  V30 8029 H 803.172 -2.05395 -0.0137438 0
M  V30 8030 H 801.402 -3.06273 -2.3608 0
M  V30 8031 H 803.091 -3.43319 -2.16533 0
M  V30 8032 H 803.857 -4.8484 -0.124589 0
M  V30 8033 H 799.736 -4.42958 -1.27706 0
M  V30 8034 H 803.28 -6.87975 1.15483 0
M  V30 8035 H 799.177 -6.455 -0.00446214 0
M  V30 8036 H 799.945 -8.08394 1.28227 0
M  V30 8037 N 802.608 0.318715 -1.54344 0
M  V30 8038 C 803.848 1.06425 -1.74508 0
M  V30 8039 C 804.212 1.85087 -0.510572 0
M  V30 8040 O 805.413 2.62253 -0.589647 0
M  V30 8041 C 803.684 1.96054 -2.98827 0
M  V30 8042 S 805.243 2.77493 -3.39916 0
M  V30 8043 H 802.061 0.35921 -0.613587 0
M  V30 8044 H 804.663 0.339679 -1.92526 0
M  V30 8045 H 803.367 1.37109 -3.8682 0
M  V30 8046 H 802.898 2.72908 -2.83346 0
M  V30 8047 H 804.913 3.98544 -2.95596 0
M  V30 8048 N 804.086 1.46499 0.581025 0
M  V30 8049 C 805.316 1.55244 1.36319 0
M  V30 8050 C 805.724 0.193059 1.88212 0
M  V30 8051 O 805.067 -0.820109 1.64377 0
M  V30 8052 C 805.129 2.498 2.58535 0
M  V30 8053 C 804.793 3.96007 2.28096 0
M  V30 8054 C 805.79 4.85171 1.8683 0
M  V30 8055 C 803.475 4.41152 2.40189 0
M  V30 8056 C 805.469 6.17493 1.58053 0
M  V30 8057 C 803.156 5.73508 2.11024 0
M  V30 8058 C 804.154 6.615 1.70021 0
M  V30 8059 O 803.842 7.914 1.41215 0
M  V30 8060 H 803.574 0.527513 0.422736 0
M  V30 8061 H 806.128 1.92623 0.713139 0
M  V30 8062 H 804.358 2.07443 3.2635 0
M  V30 8063 H 806.047 2.48934 3.20604 0
M  V30 8064 H 806.813 4.51548 1.77001 0
M  V30 8065 H 802.692 3.72886 2.71066 0
M  V30 8066 H 806.236 6.86131 1.25974 0
M  V30 8067 H 802.133 6.06679 2.20478 0
M  V30 8068 H 802.901 8.03681 1.55046 0
M  V30 8069 N 805.565 -0.825799 1.34232 0
M  V30 8070 C 806.793 -1.61363 1.29497 0
M  V30 8071 C 807.208 -1.88341 -0.131536 0
M  V30 8072 O 806.565 -1.47279 -1.07773 0
M  V30 8073 C 806.616 -2.95623 2.08061 0
M  V30 8074 O 806.337 -2.69824 3.45147 0
M  V30 8075 C 807.838 -3.90032 2.10688 0
M  V30 8076 H 805.058 -0.501676 0.445603 0
M  V30 8077 H 807.602 -1.02767 1.76803 0
M  V30 8078 H 805.757 -3.50785 1.64404 0
M  V30 8079 H 806.171 -3.55412 3.85723 0
M  V30 8080 H 807.645 -4.81411 2.70087 0
M  V30 8081 H 808.122 -4.25188 1.10052 0
M  V30 8082 H 808.728 -3.40807 2.54422 0
M  V30 8083 N 807.043 -1.17915 -1.04565 0
M  V30 8084 C 808.459 -0.927761 -1.29864 0
M  V30 8085 C 808.659 0.409536 -1.97294 0
M  V30 8086 O 807.715 1.14505 -2.25044 0
M  V30 8087 C 809.028 -2.08967 -2.16225 0
M  V30 8088 C 810.576 -2.12741 -2.29587 0
M  V30 8089 C 811.051 -3.28335 -3.19312 0
M  V30 8090 N 812.542 -3.28164 -3.26898 0
M  V30 8091 C 813.277 -4.14249 -3.96466 0
M  V30 8092 N 812.773 -5.10457 -4.68407 0
M  V30 8093 N 814.566 -4.02179 -3.92694 0
M  V30 8094 H 806.717 -2.03983 -0.592011 0
M  V30 8095 H 808.98 -0.891023 -0.323701 0
M  V30 8096 H 808.686 -3.05654 -1.73979 0
M  V30 8097 H 808.56 -2.04606 -3.16885 0
M  V30 8098 H 810.947 -1.16636 -2.71072 0
M  V30 8099 H 811.028 -2.21162 -1.28535 0
M  V30 8100 H 810.672 -4.2471 -2.78539 0
M  V30 8101 H 810.602 -3.17151 -4.20384 0
M  V30 8102 H 813.093 -2.58511 -2.75646 0
M  V30 8103 H 813.406 -5.72526 -5.1907 0
M  V30 8104 H 811.751 -5.14422 -4.67328 0
M  V30 8105 H 814.942 -3.26308 -3.3562 0
M  V30 8106 H 815.115 -4.69486 -4.4664 0
M  V30 8107 N 808.521 1.23394 -0.980386 0
M  V30 8108 C 809.798 1.87242 -0.565667 0
M  V30 8109 C 810.178 1.88151 0.957197 0
M  V30 8110 O 809.526 1.36309 1.8339 0
M  V30 8111 C 809.736 3.28743 -1.17172 0
M  V30 8112 C 811.084 4.05335 -1.26446 0
M  V30 8113 O 812.108 3.37962 -1.12517 0
M  V30 8114 O 810.967 5.25908 -1.48604 0
M  V30 8115 H 808.061 0.80477 -0.190459 0
M  V30 8116 H 810.607 1.3127 -1.07547 0
M  V30 8117 H 809.379 3.22647 -2.21392 0
M  V30 8118 H 809.002 3.92305 -0.646739 0
M  V30 8119 N 809.999 0.752036 1.385 0
M  V30 8120 C 811.41 0.375385 1.82887 0
M  V30 8121 C 811.761 -1.09575 1.62751 0
M  V30 8122 O 810.886 -1.84685 1.12785 0
M  V30 8123 C 811.481 0.674563 3.32017 0
M  V30 8124 C 810.04 0.351208 3.74758 0
M  V30 8125 C 809.187 0.928531 2.61292 0
M  V30 8126 H 812.138 0.948313 1.27251 0
M  V30 8127 H 812.159 -0.0477781 3.8047 0
M  V30 8128 H 811.671 1.74533 3.46641 0
M  V30 8129 H 809.772 -0.713042 3.65714 0
M  V30 8130 H 809.885 0.845675 4.71577 0
M  V30 8131 H 808.249 0.354012 2.52228 0
M  V30 8132 H 809.032 2.0043 2.78716 0
M  V30 8133 N 811.477 -1.49425 0.500989 0
M  V30 8134 C 812.725 -2.02053 -0.0434495 0
M  V30 8135 C 813.046 -1.38285 -1.37486 0
M  V30 8136 O 812.316 -0.538171 -1.88363 0
M  V30 8137 H 810.896 -0.746757 -0.0190469 0
M  V30 8138 H 813.558 -1.83449 0.658227 0
M  V30 8139 H 812.654 -3.11619 -0.173129 0
M  V30 8140 N 812.955 -0.234822 -1.55841 0
M  V30 8141 C 814.201 0.393843 -1.98939 0
M  V30 8142 C 814.534 1.58466 -1.1226 0
M  V30 8143 O 813.809 1.93635 -0.183242 0
M  V30 8144 C 814.092 0.815492 -3.50745 0
M  V30 8145 C 813.945 -0.379878 -4.48193 0
M  V30 8146 C 815.264 1.66687 -4.07312 0
M  V30 8147 H 812.383 0.141681 -0.723253 0
M  V30 8148 H 815.025 -0.333716 -1.87046 0
M  V30 8149 H 813.175 1.43541 -3.6101 0
M  V30 8150 H 814.847 -1.0182 -4.49923 0
M  V30 8151 H 813.09 -1.02507 -4.21515 0
M  V30 8152 H 813.761 -0.0417069 -5.51984 0
M  V30 8153 H 816.237 1.14369 -4.00074 0
M  V30 8154 H 815.113 1.93078 -5.13821 0
M  V30 8155 H 815.374 2.63468 -3.55017 0
M  V30 8156 N 814.433 1.57553 0.0384317 0
M  V30 8157 C 815.849 1.54663 0.39391 0
M  V30 8158 C 816.049 0.959685 1.77179 0
M  V30 8159 O 815.105 0.576647 2.45827 0
M  V30 8160 C 816.418 2.99156 0.304352 0
M  V30 8161 C 817.966 3.10659 0.382119 0
M  V30 8162 C 818.441 4.56866 0.322111 0
M  V30 8163 N 819.932 4.61629 0.38119 0
M  V30 8164 C 820.667 5.72284 0.357501 0
M  V30 8165 N 820.163 6.92207 0.286654 0
M  V30 8166 N 821.956 5.60628 0.406538 0
M  V30 8167 H 814.107 1.9406 -0.86339 0
M  V30 8168 H 816.37 0.889673 -0.327392 0
M  V30 8169 H 816.076 3.45788 -0.642141 0
M  V30 8170 H 815.95 3.60753 1.10168 0
M  V30 8171 H 818.337 2.6398 1.31904 0
M  V30 8172 H 818.418 2.5191 -0.444391 0
M  V30 8173 H 818.062 5.0421 -0.611104 0
M  V30 8174 H 817.992 5.13515 1.1666 0
M  V30 8175 H 820.483 3.75343 0.438838 0
M  V30 8176 H 820.796 7.72316 0.273421 0
M  V30 8177 H 819.141 6.9454 0.252841 0
M  V30 8178 H 822.332 4.65836 0.459812 0
M  V30 8179 H 822.505 6.46858 0.384608 0
M  V30 8180 N 815.911 -0.310526 1.54511 0
M  V30 8181 C 817.157 -1.04459 1.74528 0
M  V30 8182 C 817.512 -1.85251 0.519613 0
M  V30 8183 O 816.805 -1.85281 -0.488001 0
M  V30 8184 C 816.999 -1.98942 2.96912 0
M  V30 8185 C 816.828 -1.27442 4.31264 0
M  V30 8186 C 815.598 -1.00552 4.95194 0
M  V30 8187 C 817.796 -0.683695 5.09735 0
M  V30 8188 N 815.778 -0.259797 6.1335 0
M  V30 8189 C 817.149 -0.0702549 6.1996 0
M  V30 8190 C 819.204 -0.587799 4.94418 0
M  V30 8191 C 817.907 0.629791 7.16538 0
M  V30 8192 C 819.933 0.0985719 5.91318 0
M  V30 8193 C 819.295 0.700902 7.00904 0
M  V30 8194 H 815.394 -0.365496 0.69133 0
M  V30 8195 H 817.978 -0.324277 1.91981 0
M  V30 8196 H 816.149 -2.68233 2.80902 0
M  V30 8197 H 817.881 -2.6543 3.05498 0
M  V30 8198 H 814.636 -1.30123 4.55374 0
M  V30 8199 H 815.06 0.099301 6.76927 0
M  V30 8200 H 819.702 -1.03919 4.0983 0
M  V30 8201 H 817.42 1.09298 8.00674 0
M  V30 8202 H 821.006 0.172585 5.81544 0
M  V30 8203 H 819.886 1.22357 7.74596 0
M  V30 8204 N 817.389 -1.46805 -0.573248 0
M  V30 8205 C 818.299 -1.60687 -1.70929 0
M  V30 8206 C 819.315 -0.490084 -1.66956 0
M  V30 8207 O 820.491 -0.755482 -1.86693 0
M  V30 8208 C 817.556 -1.60259 -3.07438 0
M  V30 8209 C 816.617 -2.83242 -3.22603 0
M  V30 8210 C 815.85 -2.82825 -4.52599 0
M  V30 8211 O 816.073 -1.92113 -5.37074 0
M  V30 8212 O 815.007 -3.74489 -4.71213 0
M  V30 8213 H 818.833 -2.56782 -1.62163 0
M  V30 8214 H 816.418 -1.29706 -0.741399 0
M  V30 8215 H 818.3 -1.6275 -3.88704 0
M  V30 8216 H 816.975 -0.673268 -3.16621 0
M  V30 8217 H 815.882 -2.86302 -2.40794 0
M  V30 8218 H 817.215 -3.75415 -3.18315 0
M  V30 8219 N 818.867 0.818669 -1.34668 0
M  V30 8220 C 820.097 1.60441 -1.30162 0
M  V30 8221 C 820.505 1.88783 0.125579 0
M  V30 8222 O 819.848 1.48281 1.08437 0
M  V30 8223 C 819.91 2.96794 -2.02864 0
M  V30 8224 C 819.574 2.91327 -3.52105 0
M  V30 8225 C 820.571 2.65611 -4.4693 0
M  V30 8226 C 818.256 3.10825 -3.9458 0
M  V30 8227 C 820.25 2.59452 -5.82206 0
M  V30 8228 C 817.937 3.0429 -5.29954 0
M  V30 8229 C 818.935 2.78637 -6.23579 0
M  V30 8230 O 818.623 2.72042 -7.56471 0
M  V30 8231 H 818.355 0.505278 -0.449077 0
M  V30 8232 H 820.909 1.02632 -1.77921 0
M  V30 8233 H 819.139 3.56538 -1.49725 0
M  V30 8234 H 820.828 3.57837 -1.91592 0
M  V30 8235 H 821.594 2.50278 -4.15434 0
M  V30 8236 H 817.473 3.29807 -3.221 0
M  V30 8237 H 821.017 2.39349 -6.55254 0
M  V30 8238 H 816.914 3.19177 -5.61067 0
M  V30 8239 H 817.682 2.87738 -7.66257 0
M  V30 8240 N 820.346 1.18468 1.03938 0
M  V30 8241 C 821.586 0.991823 1.78724 0
M  V30 8242 C 821.95 -0.470115 1.86156 0
M  V30 8243 O 823.151 -0.782451 2.5716 0
M  V30 8244 C 821.422 1.63018 3.18056 0
M  V30 8245 S 822.981 1.58527 4.09163 0
M  V30 8246 H 819.799 0.356137 0.615376 0
M  V30 8247 H 822.401 1.50634 1.24618 0
M  V30 8248 H 821.105 2.68642 3.10258 0
M  V30 8249 H 820.636 1.11601 3.77238 0
M  V30 8250 H 822.651 0.602059 4.92534 0
M  V30 8251 N 821.824 -1.22873 0.986916 0
M  V30 8252 C 822.772 -2.26597 0.525043 0
M  V30 8253 C 823.766 -1.64079 -0.421252 0
M  V30 8254 O 824.972 -1.77576 -0.294429 0
M  V30 8255 H 821.347 -0.736606 0.151381 0
M  V30 8256 H 823.318 -2.62909 1.41142 0
M  V30 8257 C 822.067 -3.47374 -0.150542 0
M  V30 8258 H 821.39 -3.95737 0.568541 0
M  V30 8259 H 822.83 -4.21739 -0.437256 0
M  V30 8260 C 821.289 -3.07163 -1.38392 0
M  V30 8261 O 821.819 -3.16028 -2.47971 0
M  V30 8262 N 820.025 -2.62009 -1.25697 0
M  V30 8263 H 819.572 -2.54996 -0.365355 0
M  V30 8264 H 819.53 -2.35472 -2.08327 0
M  V30 8265 N 823.302 -0.75937 -1.38099 0
M  V30 8266 C 824.232 -0.151077 -2.33011 0
M  V30 8267 C 825.213 0.697099 -1.5516 0
M  V30 8268 O 826.398 0.637101 -1.83452 0
M  V30 8269 C 823.528 0.738423 -3.39359 0
M  V30 8270 C 822.482 -0.0074741 -4.27999 0
M  V30 8271 C 821.808 1.00066 -5.25253 0
M  V30 8272 C 823.108 -1.17926 -5.08813 0
M  V30 8273 H 824.802 -0.943933 -2.84131 0
M  V30 8274 H 822.348 -0.455362 -1.36611 0
M  V30 8275 H 824.301 1.17369 -4.04725 0
M  V30 8276 H 823.025 1.56366 -2.86735 0
M  V30 8277 H 821.684 -0.423379 -3.64147 0
M  V30 8278 H 821.332 1.82012 -4.68914 0
M  V30 8279 H 821.032 0.506199 -5.85416 0
M  V30 8280 H 822.556 1.43512 -5.93495 0
M  V30 8281 H 823.97 -0.821262 -5.67387 0
M  V30 8282 H 822.367 -1.60497 -5.78239 0
M  V30 8283 H 823.437 -1.98938 -4.42212 0
M  V30 8284 N 824.78 1.49157 -0.508906 0
M  V30 8285 C 826.008 2.06879 0.0293734 0
M  V30 8286 C 826.423 1.36823 1.30095 0
M  V30 8287 O 825.78 0.449034 1.7689 0
M  V30 8288 C 825.831 3.60423 0.278791 0
M  V30 8289 O 825.552 4.27844 -0.942389 0
M  V30 8290 C 827.053 4.34881 0.859825 0
M  V30 8291 H 824.273 0.67057 -0.0240184 0
M  V30 8292 H 826.817 1.91834 -0.708526 0
M  V30 8293 H 824.972 3.75145 0.966689 0
M  V30 8294 H 825.386 5.19671 -0.710097 0
M  V30 8295 H 826.86 5.43161 0.983884 0
M  V30 8296 H 827.337 3.9789 1.85958 0
M  V30 8297 H 827.943 4.24785 0.209152 0
M  V30 8298 N 826.258 0.243083 1.55714 0
M  V30 8299 C 827.19 -0.690766 2.18543 0
M  V30 8300 C 828.203 -1.14163 1.16064 0
M  V30 8301 O 829.392 -1.06906 1.42946 0
M  V30 8302 C 826.492 -1.95016 2.77168 0
M  V30 8303 C 825.665 -1.65137 4.05029 0
M  V30 8304 C 824.724 -2.75998 4.48009 0
M  V30 8305 O 823.75 -2.43547 5.14464 0
M  V30 8306 N 824.952 -4.05414 4.15476 0
M  V30 8307 H 827.717 -0.153203 2.99308 0
M  V30 8308 H 825.278 0.0628968 1.61778 0
M  V30 8309 H 827.27 -2.68414 3.0288 0
M  V30 8310 H 825.84 -2.39762 2.00582 0
M  V30 8311 H 825.06 -0.752768 3.86946 0
M  V30 8312 H 826.348 -1.42633 4.88399 0
M  V30 8313 H 825.746 -4.34613 3.62116 0
M  V30 8314 H 824.303 -4.75288 4.46032 0
M  V30 8315 N 827.736 -1.57571 -0.0300757 0
M  V30 8316 C 828.976 -1.91074 -0.725946 0
M  V30 8317 C 829.34 -0.841545 -1.72575 0
M  V30 8318 O 830.541 -1.06088 -2.46979 0
M  V30 8319 C 828.812 -3.2973 -1.37888 0
M  V30 8320 S 830.371 -3.85065 -2.10405 0
M  V30 8321 H 827.189 -0.669084 -0.240515 0
M  V30 8322 H 829.791 -1.9549 0.019384 0
M  V30 8323 H 828.495 -4.05411 -0.637974 0
M  V30 8324 H 828.026 -3.28614 -2.16278 0
M  V30 8325 H 830.041 -3.63711 -3.37533 0
M  V30 8326 N 829.214 0.302327 -1.54673 0
M  V30 8327 C 830.439 1.06103 -1.78205 0
M  V30 8328 C 830.864 1.80204 -0.53926 0
M  V30 8329 O 830.222 1.73975 0.510142 0
M  V30 8330 C 830.27 2.01829 -2.98827 0
M  V30 8331 O 829.374 3.10108 -2.71858 0
M  V30 8332 H 828.715 0.30487 -0.589873 0
M  V30 8333 H 831.245 0.340153 -2.01753 0
M  V30 8334 H 831.255 2.44319 -3.2676 0
M  V30 8335 H 829.93 1.473 -3.88942 0
M  V30 8336 H 828.507 2.72142 -2.54937 0
M  V30 8337 N 830.692 1.47107 0.565454 0
M  V30 8338 C 831.969 1.43787 1.32607 0
M  V30 8339 C 832.349 0.130428 2.10697 0
M  V30 8340 O 831.697 -0.888086 2.10536 0
M  V30 8341 C 831.907 2.67833 2.23755 0
M  V30 8342 C 833.255 3.14704 2.85037 0
M  V30 8343 O 834.279 2.68503 2.34061 0
M  V30 8344 O 833.138 3.95002 3.77671 0
M  V30 8345 H 830.232 0.572623 0.596684 0
M  V30 8346 H 832.778 1.59296 0.58504 0
M  V30 8347 H 831.55 3.54532 1.65597 0
M  V30 8348 H 831.173 2.54869 3.05168 0
M  V30 8349 N 832.17 -0.811516 1.35101 0
M  V30 8350 C 833.133 -1.90467 1.27495 0
M  V30 8351 C 834.133 -1.59703 0.187516 0
M  V30 8352 O 835.323 -1.68528 0.440896 0
M  V30 8353 C 832.455 -3.26774 0.971154 0
M  V30 8354 H 833.648 -1.98631 2.2469 0
M  V30 8355 H 831.201 -1.00681 1.19553 0
M  V30 8356 H 831.936 -3.243 0.0028557 0
M  V30 8357 H 831.721 -3.50488 1.75785 0
M  V30 8358 H 833.211 -4.06804 0.943414 0
M  V30 8359 N 833.648 -1.19017 -1.03309 0
M  V30 8360 C 834.558 -0.939303 -2.14975 0
M  V30 8361 C 835.574 0.0992359 -1.73717 0
M  V30 8362 O 836.75 -0.0844362 -2.01223 0
M  V30 8363 C 833.815 -0.476712 -3.43407 0
M  V30 8364 C 832.876 -1.58413 -3.99003 0
M  V30 8365 C 832.109 -1.14352 -5.21305 0
M  V30 8366 O 832.332 -0.00534408 -5.704 0
M  V30 8367 O 831.266 -1.94436 -5.6963 0
M  V30 8368 H 835.092 -1.87386 -2.38998 0
M  V30 8369 H 832.677 -0.972635 -1.13403 0
M  V30 8370 H 834.559 -0.22718 -4.20787 0
M  V30 8371 H 833.234 0.429455 -3.20839 0
M  V30 8372 H 832.141 -1.88777 -3.22977 0
M  V30 8373 H 833.474 -2.4667 -4.25928 0
M  V30 8374 N 835.127 1.22348 -0.993418 0
M  V30 8375 C 836.375 1.90733 -0.668246 0
M  V30 8376 C 836.696 1.77732 0.802261 0
M  V30 8377 O 835.966 1.16486 1.57505 0
M  V30 8378 H 834.546 0.705966 -0.244174 0
M  V30 8379 H 837.208 1.48691 -1.26004 0
M  V30 8380 H 836.304 2.97883 -0.931239 0
M  V30 8381 N 836.605 0.766683 1.37694 0
M  V30 8382 C 837.833 0.339939 2.04088 0
M  V30 8383 C 838.248 -1.03617 1.57826 0
M  V30 8384 O 837.605 -1.6605 0.757214 0
M  V30 8385 C 837.656 0.368269 3.59619 0
M  V30 8386 O 837.377 1.69009 4.04188 0
M  V30 8387 C 838.878 -0.0707053 4.43244 0
M  V30 8388 H 836.098 0.143189 0.655544 0
M  V30 8389 H 838.642 1.03919 1.76128 0
M  V30 8390 H 836.797 -0.282359 3.8637 0
M  V30 8391 H 837.211 1.62523 4.98685 0
M  V30 8392 H 838.685 0.000273538 5.52 0
M  V30 8393 H 839.162 -1.1204 4.24669 0
M  V30 8394 H 839.768 0.551543 4.21709 0
M  V30 8395 N 838.083 -1.48885 0.516809 0
M  V30 8396 C 839.046 -2.27916 -0.242256 0
M  V30 8397 C 840.046 -1.34601 -0.879735 0
M  V30 8398 O 841.236 -1.57616 -0.74182 0
M  V30 8399 C 838.368 -3.13067 -1.34914 0
M  V30 8400 H 839.561 -2.96483 0.451444 0
M  V30 8401 H 837.114 -1.5391 0.272294 0
M  V30 8402 H 837.849 -2.49102 -2.07651 0
M  V30 8403 H 837.634 -3.81695 -0.897313 0
M  V30 8404 H 839.124 -3.72716 -1.88341 0
M  V30 8405 N 839.561 -0.251338 -1.55583 0
M  V30 8406 C 840.807 0.37272 -1.99346 0
M  V30 8407 C 841.14 1.57266 -1.13934 0
M  V30 8408 O 840.415 1.9343 -0.20377 0
M  V30 8409 C 840.698 0.778245 -3.5159 0
M  V30 8410 C 840.551 -0.427394 -4.47765 0
M  V30 8411 C 841.87 1.62358 -4.09057 0
M  V30 8412 H 838.989 0.134002 -0.724715 0
M  V30 8413 H 841.631 -0.353536 -1.86682 0
M  V30 8414 H 839.781 1.39704 -3.62512 0
M  V30 8415 H 841.453 -1.06586 -4.48818 0
M  V30 8416 H 839.696 -1.06972 -4.20404 0
M  V30 8417 H 840.367 -0.10025 -5.51909 0
M  V30 8418 H 842.843 1.1012 -4.01264 0
M  V30 8419 H 841.719 1.87617 -5.1584 0
M  V30 8420 H 841.98 2.59688 -3.57791 0
M  V30 8421 N 841.039 1.57585 0.0217189 0
M  V30 8422 C 842.002 2.06004 1.00474 0
M  V30 8423 C 843.002 0.965461 1.2859 0
M  V30 8424 O 844.192 1.22884 1.23471 0
M  V30 8425 C 841.324 2.48319 2.33561 0
M  V30 8426 H 842.517 2.94112 0.586346 0
M  V30 8427 H 840.07 1.53973 0.268716 0
M  V30 8428 H 840.805 1.63389 2.80133 0
M  V30 8429 H 840.59 3.28239 2.1448 0
M  V30 8430 H 842.08 2.86181 3.04122 0
M  V30 8431 N 842.517 -0.29412 1.54831 0
M  V30 8432 C 843.928 -0.866651 1.65366 0
M  V30 8433 C 844.279 -1.87834 0.56681 0
M  V30 8434 O 843.404 -2.14374 -0.295389 0
M  V30 8435 C 843.999 -1.57869 2.99771 0
M  V30 8436 C 842.558 -2.09954 3.12404 0
M  V30 8437 C 841.705 -0.934492 2.6108 0
M  V30 8438 H 844.656 -0.0709551 1.58541 0
M  V30 8439 H 844.677 -2.44462 2.91579 0
M  V30 8440 H 844.189 -0.84212 3.78853 0
M  V30 8441 H 842.29 -2.86637 2.38055 0
M  V30 8442 H 842.403 -2.32934 4.18663 0
M  V30 8443 H 840.767 -1.32199 2.17705 0
M  V30 8444 H 841.55 -0.211768 3.42646 0
M  V30 8445 N 843.995 -1.47404 -0.557645 0
M  V30 8446 C 845.406 -1.47872 -1.13977 0
M  V30 8447 C 845.757 -0.233176 -1.94809 0
M  V30 8448 O 844.882 0.661945 -2.06027 0
M  V30 8449 C 845.477 -2.67926 -2.07368 0
M  V30 8450 C 844.036 -2.71354 -2.60852 0
M  V30 8451 C 843.183 -2.40967 -1.37223 0
M  V30 8452 H 846.134 -1.54921 -0.344268 0
M  V30 8453 H 846.155 -2.44871 -2.91236 0
M  V30 8454 H 845.667 -3.58562 -1.48509 0
M  V30 8455 H 843.768 -1.84855 -3.23511 0
M  V30 8456 H 843.881 -3.72032 -3.01876 0
M  V30 8457 H 842.245 -1.91541 -1.67882 0
M  V30 8458 H 843.028 -3.33811 -0.801583 0
M  V30 8459 N 845.473 0.80434 -1.35529 0
M  V30 8460 C 846.701 1.59283 -1.32048 0
M  V30 8461 C 847.116 1.88527 0.101556 0
M  V30 8462 O 846.473 1.48975 1.05417 0
M  V30 8463 C 846.524 2.92276 -2.12737 0
M  V30 8464 O 846.245 2.64299 -3.49396 0
M  V30 8465 C 847.746 3.86631 -2.16867 0
M  V30 8466 H 844.966 0.494523 -0.453528 0
M  V30 8467 H 847.51 0.999415 -1.78415 0
M  V30 8468 H 845.665 3.48125 -1.69964 0
M  V30 8469 H 846.079 3.4923 -3.91329 0
M  V30 8470 H 847.553 4.77053 -2.77712 0
M  V30 8471 H 848.03 4.23384 -1.16803 0
M  V30 8472 H 848.636 3.36717 -2.59811 0
M  V30 8473 N 846.951 1.19563 1.02676 0
M  V30 8474 C 848.197 1.00105 1.76371 0
M  V30 8475 C 848.53 -0.466823 1.88506 0
M  V30 8476 O 847.805 -1.34665 1.40341 0
M  V30 8477 C 848.088 1.67321 3.18866 0
M  V30 8478 C 847.941 3.21486 3.1459 0
M  V30 8479 C 849.26 1.39794 4.17308 0
M  V30 8480 H 846.379 0.365075 0.640226 0
M  V30 8481 H 849.021 1.47433 1.19848 0
M  V30 8482 H 847.171 1.27081 3.67128 0
M  V30 8483 H 848.843 3.70953 2.7421 0
M  V30 8484 H 847.086 3.5292 2.52249 0
M  V30 8485 H 847.757 3.63665 4.15273 0
M  V30 8486 H 850.233 1.74685 3.77657 0
M  V30 8487 H 849.109 1.89371 5.15199 0
M  V30 8488 H 849.37 0.323505 4.40915 0
M  V30 8489 N 848.429 -1.21819 0.999893 0
M  V30 8490 C 849.657 -1.94758 0.698359 0
M  V30 8491 C 850.072 -1.73771 -0.738183 0
M  V30 8492 O 849.429 -1.04113 -1.49889 0
M  V30 8493 C 849.48 -3.47292 1.00353 0
M  V30 8494 O 849.201 -3.67579 2.38363 0
M  V30 8495 C 850.702 -4.37403 0.72068 0
M  V30 8496 H 847.922 -0.619512 0.257771 0
M  V30 8497 H 850.466 -1.54778 1.33656 0
M  V30 8498 H 848.621 -3.85213 0.411018 0
M  V30 8499 H 849.035 -4.61719 2.48829 0
M  V30 8500 H 850.509 -5.43151 0.984422 0
M  V30 8501 H 850.986 -4.3784 -0.345309 0
M  V30 8502 H 851.592 -4.05119 1.29456 0
M  V30 8503 N 849.908 -0.773975 -1.37286 0
M  V30 8504 C 851.319 -0.404433 -1.82267 0
M  V30 8505 C 851.67 1.06971 -1.64474 0
M  V30 8506 O 850.795 1.82867 -1.15708 0
M  V30 8507 C 851.39 -0.727298 -3.30902 0
M  V30 8508 C 849.949 -0.410784 -3.74152 0
M  V30 8509 C 849.096 -0.969983 -2.59782 0
M  V30 8510 H 852.047 -0.968437 -1.25726 0
M  V30 8511 H 852.068 -0.0127575 -3.80498 0
M  V30 8512 H 851.58 -1.80026 -3.4382 0
M  V30 8513 H 849.681 0.65477 -3.66802 0
M  V30 8514 H 849.794 -0.920592 -4.70172 0
M  V30 8515 H 848.158 -0.394094 -2.51633 0
M  V30 8516 H 848.941 -2.04839 -2.75492 0
M  V30 8517 N 851.386 1.48609 -0.524698 0
M  V30 8518 C 852.632 2.02797 0.0113382 0
M  V30 8519 C 852.965 1.40147 1.34433 0
M  V30 8520 O 852.24 0.545368 1.86698 0
M  V30 8521 C 852.523 3.59832 0.138931 0
M  V30 8522 C 852.376 4.32971 -1.21886 0
M  V30 8523 C 853.695 4.3145 0.868265 0
M  V30 8524 H 850.814 0.736995 0.00264645 0
M  V30 8525 H 853.456 1.77388 -0.680704 0
M  V30 8526 H 851.606 3.81612 0.72834 0
M  V30 8527 H 853.278 4.22624 -1.84897 0
M  V30 8528 H 851.521 3.94597 -1.80211 0
M  V30 8529 H 852.192 5.41279 -1.08263 0
M  V30 8530 H 854.668 4.14468 0.368145 0
M  V30 8531 H 853.544 5.41025 0.926428 0
M  V30 8532 H 853.805 3.98358 1.91737 0
M  V30 8533 N 852.864 0.259585 1.55447 0
M  V30 8534 C 854.275 -0.241165 1.85136 0
M  V30 8535 C 854.626 -1.56634 1.18153 0
M  V30 8536 O 853.751 -2.11359 0.464351 0
M  V30 8537 C 854.346 -0.444355 3.35873 0
M  V30 8538 C 852.905 -0.889354 3.65742 0
M  V30 8539 C 852.052 0.0262474 2.77288 0
M  V30 8540 H 855.003 0.481808 1.51209 0
M  V30 8541 H 855.024 -1.28517 3.58139 0
M  V30 8542 H 854.536 0.520289 3.84597 0
M  V30 8543 H 852.637 -1.86602 3.22507 0
M  V30 8544 H 852.75 -0.737432 4.73391 0
M  V30 8545 H 851.114 -0.487361 2.49994 0
M  V30 8546 H 851.897 0.986494 3.28821 0
M  V30 8547 N 854.342 -1.57594 -0.0133615 0
M  V30 8548 C 855.567 -1.94649 -0.715996 0
M  V30 8549 C 855.992 -0.860786 -1.67249 0
M  V30 8550 O 855.35 0.182228 -1.80382 0
M  V30 8551 C 855.398 -3.30789 -1.43566 0
M  V30 8552 O 854.502 -3.24148 -2.54955 0
M  V30 8553 H 853.843 -0.635801 -0.191449 0
M  V30 8554 H 856.373 -2.04569 0.0358478 0
M  V30 8555 H 856.383 -3.66045 -1.80208 0
M  V30 8556 H 855.058 -4.09367 -0.734263 0
M  V30 8557 H 853.635 -3.00548 -2.20739 0
M  V30 8558 N 855.82 0.285905 -1.54985 0
M  V30 8559 C 856.75 1.35752 -1.89983 0
M  V30 8560 C 857.731 1.52163 -0.760295 0
M  V30 8561 O 858.916 1.65421 -1.01733 0
M  V30 8562 C 856.046 2.71925 -2.16042 0
M  V30 8563 C 855 2.70261 -3.31878 0
M  V30 8564 C 854.326 4.09864 -3.43388 0
M  V30 8565 C 855.626 2.30667 -4.68604 0
M  V30 8566 H 857.32 1.06709 -2.79738 0
M  V30 8567 H 854.866 0.511884 -1.34595 0
M  V30 8568 H 856.819 3.46992 -2.39113 0
M  V30 8569 H 855.543 3.02523 -1.23074 0
M  V30 8570 H 854.202 1.97651 -3.08755 0
M  V30 8571 H 853.85 4.37664 -2.47909 0
M  V30 8572 H 853.55 4.09648 -4.21262 0
M  V30 8573 H 855.074 4.86689 -3.68736 0
M  V30 8574 H 856.488 2.95453 -4.91305 0
M  V30 8575 H 854.885 2.41637 -5.49301 0
M  V30 8576 H 855.955 1.25793 -4.68299 0
M  V30 8577 N 857.298 1.47698 0.54982 0
M  V30 8578 C 858.208 1.63386 1.68351 0
M  V30 8579 C 859.224 0.516583 1.66155 0
M  V30 8580 O 860.4 0.785088 1.85468 0
M  V30 8581 C 857.465 1.6513 3.04849 0
M  V30 8582 C 856.526 2.88338 3.18056 0
M  V30 8583 C 855.759 2.8999 4.48042 0
M  V30 8584 O 855.982 2.00633 5.3395 0
M  V30 8585 O 854.916 3.81938 4.65196 0
M  V30 8586 H 858.742 2.59329 1.58057 0
M  V30 8587 H 856.327 1.30869 0.72067 0
M  V30 8588 H 858.209 1.68913 3.86065 0
M  V30 8589 H 856.884 0.723555 3.1551 0
M  V30 8590 H 855.791 2.90097 2.36209 0
M  V30 8591 H 857.124 3.80431 3.12302 0
M  V30 8592 N 858.776 -0.797141 1.35954 0
M  V30 8593 C 859.739 -1.89104 1.29508 0
M  V30 8594 C 860.739 -1.59495 0.204444 0
M  V30 8595 O 861.929 -1.68051 0.458746 0
M  V30 8596 C 859.061 -3.25726 1.00576 0
M  V30 8597 H 860.254 -1.96237 2.26785 0
M  V30 8598 H 857.807 -0.994075 1.20614 0
M  V30 8599 H 858.542 -3.24279 0.0372519 0
M  V30 8600 H 858.327 -3.48604 1.79492 0
M  V30 8601 H 859.817 -4.0578 0.986508 0
M  V30 8602 N 860.254 -1.20106 -1.0204 0
M  V30 8603 C 861.665 -1.00992 -1.57027 0
M  V30 8604 C 862.016 0.434782 -1.91322 0
M  V30 8605 O 861.141 1.31557 -1.71819 0
M  V30 8606 C 861.736 -1.82697 -2.85319 0
M  V30 8607 C 860.295 -1.67959 -3.36848 0
M  V30 8608 C 859.442 -1.80868 -2.10195 0
M  V30 8609 H 862.393 -1.34354 -0.844676 0
M  V30 8610 H 862.414 -1.32809 -3.5657 0
M  V30 8611 H 861.926 -2.87839 -2.60328 0
M  V30 8612 H 860.027 -0.654389 -3.66809 0
M  V30 8613 H 860.14 -2.49006 -4.09308 0
M  V30 8614 H 858.504 -1.24015 -2.22469 0
M  V30 8615 H 859.287 -2.87486 -1.87635 0
M  V30 8616 N 861.732 1.21287 -1.00634 0
M  V30 8617 C 862.957 1.94925 -0.708441 0
M  V30 8618 C 863.382 1.73659 0.722783 0
M  V30 8619 O 862.74 1.02429 1.49593 0
M  V30 8620 C 862.788 3.45377 -1.03667 0
M  V30 8621 O 861.892 4.12153 -0.142661 0
M  V30 8622 H 861.233 0.609338 -0.263824 0
M  V30 8623 H 863.763 1.54008 -1.34695 0
M  V30 8624 H 863.773 3.95954 -0.984086 0
M  V30 8625 H 862.448 3.6018 -2.0795 0
M  V30 8626 H 861.025 3.72048 -0.251888 0
M  V30 8627 N 863.21 0.781244 1.36873 0
M  V30 8628 C 864.12 0.174981 2.33947 0
M  V30 8629 C 865.136 -0.668512 1.60645 0
M  V30 8630 O 866.312 -0.586213 1.9268 0
M  V30 8631 C 863.377 -0.686557 3.39834 0
M  V30 8632 C 862.438 0.174489 4.28945 0
M  V30 8633 C 861.671 -0.646024 5.29776 0
M  V30 8634 O 861.894 -1.88254 5.38439 0
M  V30 8635 O 860.828 -0.0502214 6.01879 0
M  V30 8636 H 864.654 0.977382 2.87543 0
M  V30 8637 H 862.239 0.542559 1.392 0
M  V30 8638 H 864.121 -1.1781 4.04597 0
M  V30 8639 H 862.796 -1.46699 2.8855 0
M  V30 8640 H 861.703 0.712604 3.6725 0
M  V30 8641 H 863.036 0.918232 4.83559 0
M  V30 8642 N 864.689 -1.48329 0.532571 0
M  V30 8643 C 865.621 -2.27652 -0.265931 0
M  V30 8644 C 866.634 -1.35522 -0.902083 0
M  V30 8645 O 867.823 -1.60552 -0.780088 0
M  V30 8646 C 864.923 -3.0899 -1.39207 0
M  V30 8647 C 864.096 -4.28915 -0.857349 0
M  V30 8648 C 863.155 -4.92044 -1.86493 0
M  V30 8649 O 862.181 -5.51181 -1.42084 0
M  V30 8650 N 863.383 -4.84518 -3.19723 0
M  V30 8651 H 866.148 -2.96821 0.414389 0
M  V30 8652 H 863.709 -1.57684 0.367066 0
M  V30 8653 H 865.701 -3.48091 -2.06433 0
M  V30 8654 H 864.271 -2.42224 -1.97601 0
M  V30 8655 H 863.491 -3.94199 -0.00901765 0
M  V30 8656 H 864.779 -5.0654 -0.479025 0
M  V30 8657 H 864.177 -4.37628 -3.58467 0
M  V30 8658 H 862.734 -5.27712 -3.82575 0
M  V30 8659 N 866.167 -0.267825 -1.55308 0
M  V30 8660 C 867.13 0.60965 -2.20943 0
M  V30 8661 C 868.13 1.0869 -1.18504 0
M  V30 8662 O 869.32 0.988248 -1.43455 0
M  V30 8663 C 866.452 1.84027 -2.86961 0
M  V30 8664 H 867.645 0.0366806 -2.99878 0
M  V30 8665 H 865.198 -0.0183941 -1.56289 0
M  V30 8666 H 865.933 2.45394 -2.1202 0
M  V30 8667 H 865.718 1.50605 -3.62023 0
M  V30 8668 H 867.208 2.46442 -3.37129 0
M  V30 8669 N 867.645 1.57599 0.00500368 0
M  V30 8670 C 869.056 1.78462 0.54848 0
M  V30 8671 C 869.407 0.901869 1.74243 0
M  V30 8672 O 868.532 0.103014 2.16155 0
M  V30 8673 C 869.127 3.2365 1.00179 0
M  V30 8674 C 867.686 3.45627 1.49061 0
M  V30 8675 C 866.833 2.73794 0.439531 0
M  V30 8676 H 869.784 1.57151 -0.22118 0
M  V30 8677 H 869.805 3.31488 1.86805 0
M  V30 8678 H 869.317 3.87873 0.132607 0
M  V30 8679 H 867.418 2.86612 2.38085 0
M  V30 8680 H 867.531 4.54298 1.52152 0
M  V30 8681 H 865.895 2.38267 0.900043 0
M  V30 8682 H 866.678 3.40714 -0.420599 0
M  V30 8683 N 869.123 -0.277682 1.55134 0
M  V30 8684 C 870.351 -1.02826 1.7954 0
M  V30 8685 C 870.766 -1.80105 0.566373 0
M  V30 8686 O 870.123 -1.76491 -0.464448 0
M  V30 8687 C 870.174 -1.99053 3.01762 0
M  V30 8688 O 869.895 -1.24906 4.19917 0
M  V30 8689 C 871.396 -2.85961 3.38735 0
M  V30 8690 H 868.616 -0.303958 0.598206 0
M  V30 8691 H 871.16 -0.309884 2.02138 0
M  V30 8692 H 869.315 -2.66359 2.81303 0
M  V30 8693 H 869.729 -1.89725 4.88983 0
M  V30 8694 H 871.203 -3.49286 4.27438 0
M  V30 8695 H 871.68 -3.55486 2.57928 0
M  V30 8696 H 872.286 -2.24152 3.61436 0
M  V30 8697 N 870.601 -1.47988 -0.541979 0
M  V30 8698 C 871.511 -1.64276 -1.67483 0
M  V30 8699 C 872.527 -0.525387 -1.65879 0
M  V30 8700 O 873.703 -0.794912 -1.85049 0
M  V30 8701 C 870.768 -1.66744 -3.03969 0
M  V30 8702 C 869.829 -2.90021 -3.16522 0
M  V30 8703 C 869.062 -2.92362 -4.46498 0
M  V30 8704 O 869.285 -2.03462 -5.32878 0
M  V30 8705 O 868.219 -3.84399 -4.63164 0
M  V30 8706 H 872.045 -2.60164 -1.5668 0
M  V30 8707 H 869.63 -1.31249 -0.71372 0
M  V30 8708 H 871.512 -1.70958 -3.85164 0
M  V30 8709 H 870.187 -0.740277 -3.15122 0
M  V30 8710 H 869.094 -2.91345 -2.34667 0
M  V30 8711 H 870.427 -3.82082 -3.10281 0
M  V30 8712 N 872.079 0.78992 -1.36375 0
M  V30 8713 C 873.011 1.91113 -1.26524 0
M  V30 8714 C 874.024 1.61747 -0.184851 0
M  V30 8715 O 875.213 1.73004 -0.439524 0
M  V30 8716 C 872.313 3.25908 -0.92937 0
M  V30 8717 C 871.486 3.83057 -2.11154 0
M  V30 8718 C 870.545 4.96289 -1.74881 0
M  V30 8719 O 869.571 5.12834 -2.46962 0
M  V30 8720 N 870.773 5.76478 -0.682193 0
M  V30 8721 H 873.538 2.00085 -2.23128 0
M  V30 8722 H 871.099 0.968165 -1.29762 0
M  V30 8723 H 873.091 3.99151 -0.667884 0
M  V30 8724 H 871.661 3.12556 -0.0524843 0
M  V30 8725 H 870.881 3.01808 -2.53586 0
M  V30 8726 H 872.169 4.1797 -2.90135 0
M  V30 8727 H 871.567 5.65638 -0.0836661 0
M  V30 8728 H 870.124 6.50026 -0.480529 0
M  V30 8729 N 873.557 1.20646 1.01402 0
M  V30 8730 C 874.973 0.961866 1.27359 0
M  V30 8731 C 875.173 -0.357083 1.98311 0
M  V30 8732 O 874.229 -1.08498 2.28001 0
M  V30 8733 C 875.542 2.14627 2.10609 0
M  V30 8734 C 877.09 2.18753 2.23866 0
M  V30 8735 C 877.565 3.36686 3.10494 0
M  V30 8736 N 879.056 3.36716 3.18083 0
M  V30 8737 C 879.791 4.24615 3.85343 0
M  V30 8738 N 879.287 5.22697 4.54708 0
M  V30 8739 N 881.08 4.12449 3.81893 0
M  V30 8740 H 873.231 2.05481 0.537721 0
M  V30 8741 H 875.494 0.899292 0.299963 0
M  V30 8742 H 875.2 3.10159 1.65814 0
M  V30 8743 H 875.074 2.12935 3.11349 0
M  V30 8744 H 877.461 1.23782 2.67885 0
M  V30 8745 H 877.542 2.24492 1.22626 0
M  V30 8746 H 877.186 4.31945 2.67181 0
M  V30 8747 H 877.116 3.28185 4.11828 0
M  V30 8748 H 879.607 2.65728 2.68695 0
M  V30 8749 H 879.92 5.86087 5.03708 0
M  V30 8750 H 878.265 5.26631 4.53525 0
M  V30 8751 H 881.456 3.35091 3.26851 0
M  V30 8752 H 881.629 4.81162 4.34035 0
M  V30 8753 N 875.035 -1.20752 1.01276 0
M  V30 8754 C 876.446 -1.7175 0.732033 0
M  V30 8755 C 876.797 -1.8131 -0.749733 0
M  V30 8756 O 875.922 -1.47301 -1.58529 0
M  V30 8757 C 876.517 -3.11936 1.32217 0
M  V30 8758 C 875.076 -3.6026 1.09039 0
M  V30 8759 C 874.223 -2.37571 1.43022 0
M  V30 8760 H 877.174 -1.0582 1.1827 0
M  V30 8761 H 877.195 -3.73802 0.710771 0
M  V30 8762 H 876.707 -3.04946 2.40061 0
M  V30 8763 H 874.808 -3.72588 0.0294464 0
M  V30 8764 H 874.921 -4.45295 1.76775 0
M  V30 8765 H 873.285 -2.40128 0.849159 0
M  V30 8766 H 874.068 -2.33225 2.51915 0
M  V30 8767 N 876.513 -0.788492 -1.36457 0
M  V30 8768 C 877.761 -0.359749 -1.98872 0
M  V30 8769 C 878.082 1.07197 -1.62892 0
M  V30 8770 O 877.352 1.73875 -0.902463 0
M  V30 8771 H 875.932 -0.130029 -0.735596 0
M  V30 8772 H 878.594 -1.01033 -1.66668 0
M  V30 8773 H 877.69 -0.450835 -3.08827 0
M  V30 8774 N 877.991 1.48044 -0.54043 0
M  V30 8775 C 879.237 2.02797 -0.0101718 0
M  V30 8776 C 879.57 1.41565 1.32939 0
M  V30 8777 O 878.845 0.565139 1.86109 0
M  V30 8778 C 879.128 3.59959 0.100758 0
M  V30 8779 C 878.981 4.31654 -1.26471 0
M  V30 8780 C 880.3 4.32347 0.822455 0
M  V30 8781 H 877.419 0.736982 -0.00517052 0
M  V30 8782 H 880.061 1.76656 -0.69948 0
M  V30 8783 H 878.211 3.82363 0.687824 0
M  V30 8784 H 879.883 4.20639 -1.89369 0
M  V30 8785 H 878.126 3.92663 -1.84386 0
M  V30 8786 H 878.797 5.401 -1.13998 0
M  V30 8787 H 881.273 4.14835 0.324164 0
M  V30 8788 H 880.149 5.41978 0.868993 0
M  V30 8789 H 880.41 4.00369 1.87501 0
M  V30 8790 N 879.47 0.276058 1.55163 0
M  V30 8791 C 880.402 -0.644254 2.19959 0
M  V30 8792 C 881.415 -1.11675 1.18459 0
M  V30 8793 O 882.604 -1.0385 1.45181 0
M  V30 8794 C 879.704 -1.89093 2.81242 0
M  V30 8795 C 878.877 -1.56509 4.08441 0
M  V30 8796 C 877.936 -2.66433 4.53762 0
M  V30 8797 O 876.962 -2.32579 5.19515 0
M  V30 8798 N 878.164 -3.96509 4.23982 0
M  V30 8799 H 880.929 -0.0896808 2.99566 0
M  V30 8800 H 878.49 0.0971981 1.61608 0
M  V30 8801 H 880.482 -2.61929 3.08505 0
M  V30 8802 H 879.052 -2.35453 2.05622 0
M  V30 8803 H 878.272 -0.670522 3.88455 0
M  V30 8804 H 879.56 -1.32242 4.91314 0
M  V30 8805 H 878.958 -4.26834 3.71254 0
M  V30 8806 H 877.515 -4.6572 4.56014 0
M  V30 8807 N 880.948 -1.576 0.00335426 0
M  V30 8808 C 881.858 -2.12067 -1.00322 0
M  V30 8809 C 882.874 -1.06672 -1.37467 0
M  V30 8810 O 884.05 -1.38592 -1.46131 0
M  V30 8811 C 881.115 -2.61593 -2.27531 0
M  V30 8812 C 880.176 -3.81602 -1.96668 0
M  V30 8813 C 879.409 -4.28756 -3.17811 0
M  V30 8814 O 879.632 -3.75222 -4.2961 0
M  V30 8815 O 878.566 -5.20877 -3.01613 0
M  V30 8816 H 882.392 -2.98299 -0.570199 0
M  V30 8817 H 879.977 -1.47835 -0.215682 0
M  V30 8818 H 881.859 -2.93631 -3.02256 0
M  V30 8819 H 880.534 -1.78457 -2.70065 0
M  V30 8820 H 879.441 -3.54531 -1.19408 0
M  V30 8821 H 880.774 -4.65822 -1.58968 0
M  V30 8822 N 882.426 0.269451 -1.5528 0
M  V30 8823 C 883.666 1.00819 -1.77806 0
M  V30 8824 C 884.03 1.83369 -0.569198 0
M  V30 8825 O 885.231 2.60244 -0.672783 0
M  V30 8826 C 883.502 1.86447 -3.04913 0
M  V30 8827 S 885.061 2.66538 -3.48573 0
M  V30 8828 H 881.879 0.339508 -0.624704 0
M  V30 8829 H 884.481 0.278256 -1.9351 0
M  V30 8830 H 883.185 1.24733 -3.90986 0
M  V30 8831 H 882.716 2.63755 -2.91885 0
M  V30 8832 H 884.731 3.88938 -3.08126 0
M  V30 8833 N 883.904 1.48273 0.534124 0
M  V30 8834 C 885.134 1.59503 1.31311 0
M  V30 8835 C 885.542 0.25284 1.87503 0
M  V30 8836 O 884.885 -0.767399 1.66903 0
M  V30 8837 C 884.947 2.57899 2.50456 0
M  V30 8838 C 884.611 4.03063 2.15382 0
M  V30 8839 C 885.608 4.90869 1.713 0
M  V30 8840 C 883.293 4.4857 2.26032 0
M  V30 8841 C 885.287 6.22209 1.38328 0
M  V30 8842 C 882.974 5.79932 1.92672 0
M  V30 8843 C 883.972 6.66574 1.4889 0
M  V30 8844 O 883.66 7.95492 1.15966 0
M  V30 8845 H 883.392 0.540695 0.405739 0
M  V30 8846 H 885.946 1.94794 0.651497 0
M  V30 8847 H 884.176 2.1772 3.19585 0
M  V30 8848 H 885.865 2.59008 3.12522 0
M  V30 8849 H 886.631 4.56951 1.62545 0
M  V30 8850 H 882.51 3.81321 2.59066 0
M  V30 8851 H 886.054 6.89792 1.04082 0
M  V30 8852 H 881.951 6.13386 2.01066 0
M  V30 8853 H 882.719 8.08207 1.29399 0
M  V30 8854 N 885.382 -0.782676 1.36792 0
M  V30 8855 C 886.332 -1.8855 1.28191 0
M  V30 8856 C 887.316 -1.59978 0.171984 0
M  V30 8857 O 888.508 -1.72295 0.405405 0
M  V30 8858 C 885.637 -3.25862 1.08021 0
M  V30 8859 C 884.723 -3.60422 2.2351 0
M  V30 8860 N 885.114 -3.66241 3.48857 0
M  V30 8861 C 883.412 -3.90523 2.15424 0
M  V30 8862 C 884.113 -3.97233 4.24948 0
M  V30 8863 N 883.089 -4.12567 3.53963 0
M  V30 8864 H 886.891 -1.91285 2.23131 0
M  V30 8865 H 884.405 -0.978554 1.29607 0
M  V30 8866 H 886.402 -4.04742 0.999458 0
M  V30 8867 H 885.062 -3.24399 0.139882 0
M  V30 8868 H 886.073 -3.48717 3.82906 0
M  V30 8869 H 882.75 -3.96945 1.29386 0
M  V30 8870 H 884.14 -4.08602 5.33379 0
M  V30 8871 N 886.86 -1.21182 -1.00761 0
M  V30 8872 C 888.108 -1.02543 -1.74153 0
M  V30 8873 C 888.429 0.442372 -1.89916 0
M  V30 8874 O 887.699 1.31927 -1.44818 0
M  V30 8875 H 886.279 -0.37644 -0.645214 0
M  V30 8876 H 888.941 -1.52446 -1.21434 0
M  V30 8877 H 888.037 -1.49122 -2.7417 0
M  V30 8878 N 888.338 1.20213 -1.01915 0
M  V30 8879 C 889.286 2.25125 -0.584936 0
M  V30 8880 C 890.28 1.65138 0.377602 0
M  V30 8881 O 891.486 1.78294 0.247245 0
M  V30 8882 H 887.861 0.732333 -0.170858 0
M  V30 8883 H 889.832 2.59075 -1.48063 0
M  V30 8884 C 888.581 3.47651 0.058389 0
M  V30 8885 H 887.904 3.9409 -0.673263 0
M  V30 8886 H 889.344 4.2275 0.325285 0
M  V30 8887 C 887.803 3.10725 1.30199 0
M  V30 8888 O 888.333 3.22491 2.39505 0
M  V30 8889 N 886.539 2.6525 1.18706 0
M  V30 8890 H 886.086 2.55875 0.297618 0
M  V30 8891 H 886.044 2.40913 2.02011 0
M  V30 8892 N 889.816 0.795718 1.36037 0
M  V30 8893 C 891.064 0.370291 1.98679 0
M  V30 8894 C 891.385 -1.06332 1.63458 0
M  V30 8895 O 890.655 -1.73394 0.911671 0
M  V30 8896 H 889.235 0.133928 0.734896 0
M  V30 8897 H 891.897 1.01915 1.6613 0
M  V30 8898 H 890.993 0.467207 3.08583 0
M  V30 8899 N 891.294 -1.47756 0.548274 0
M  V30 8900 C 892.226 -2.27921 -0.24177 0
M  V30 8901 C 893.239 -1.36471 -0.887658 0
M  V30 8902 O 894.428 -1.6137 -0.763016 0
M  V30 8903 C 891.528 -3.10449 -1.35922 0
M  V30 8904 C 890.701 -4.298 -0.811808 0
M  V30 8905 C 889.76 -4.93994 -1.81264 0
M  V30 8906 O 888.786 -5.52657 -1.3623 0
M  V30 8907 N 889.988 -4.87882 -3.14566 0
M  V30 8908 H 892.753 -2.96365 0.445848 0
M  V30 8909 H 890.314 -1.57286 0.383769 0
M  V30 8910 H 892.306 -3.50261 -2.02729 0
M  V30 8911 H 890.876 -2.44306 -1.95021 0
M  V30 8912 H 890.096 -3.94186 0.0327929 0
M  V30 8913 H 891.384 -5.0702 -0.425272 0
M  V30 8914 H 890.782 -4.41405 -3.53805 0
M  V30 8915 H 889.339 -5.3174 -3.76956 0
M  V30 8916 N 892.772 -0.284283 -1.55015 0
M  V30 8917 C 893.997 0.335799 -2.04664 0
M  V30 8918 C 894.422 1.47999 -1.16094 0
M  V30 8919 O 893.78 1.8058 -0.161454 0
M  V30 8920 C 893.828 0.785615 -3.51938 0
M  V30 8921 O 892.932 1.89202 -3.66437 0
M  V30 8922 H 892.273 0.0680233 -0.660506 0
M  V30 8923 H 894.803 -0.421255 -2.00216 0
M  V30 8924 H 894.813 1.07892 -3.93476 0
M  V30 8925 H 893.488 -0.0514675 -4.15868 0
M  V30 8926 H 892.065 1.60055 -3.36804 0
M  V30 8927 N 894.251 1.57596 -0.0117121 0
M  V30 8928 C 895.481 1.95077 0.680346 0
M  V30 8929 C 895.889 0.885793 1.67184 0
M  V30 8930 O 895.232 -0.142723 1.83145 0
M  V30 8931 C 895.294 3.28611 1.45791 0
M  V30 8932 C 894.958 4.52682 0.626706 0
M  V30 8933 C 895.955 5.19821 -0.0906223 0
M  V30 8934 C 893.64 4.99064 0.569229 0
M  V30 8935 C 895.634 6.31649 -0.854289 0
M  V30 8936 C 893.321 6.10779 -0.198155 0
M  V30 8937 C 894.319 6.76929 -0.908636 0
M  V30 8938 O 894.007 7.86501 -1.66348 0
M  V30 8939 H 893.739 0.647663 0.193672 0
M  V30 8940 H 896.293 2.05305 -0.0624969 0
M  V30 8941 H 894.523 3.14824 2.2455 0
M  V30 8942 H 896.212 3.51119 2.03642 0
M  V30 8943 H 896.978 4.84968 -0.0554421 0
M  V30 8944 H 892.857 4.47393 1.11178 0
M  V30 8945 H 896.401 6.83215 -1.40937 0
M  V30 8946 H 892.298 6.45072 -0.235114 0
M  V30 8947 H 893.066 8.03078 -1.58141 0
M  V30 8948 N 895.729 -0.261212 1.5542 0
M  V30 8949 C 897.145 -0.609012 1.47524 0
M  V30 8950 C 897.345 -1.88986 0.699042 0
M  V30 8951 O 896.401 -2.51517 0.222628 0
M  V30 8952 C 897.714 -0.725025 2.91828 0
M  V30 8953 C 899.262 -0.818302 3.02114 0
M  V30 8954 C 899.737 -0.965996 4.47697 0
M  V30 8955 N 901.228 -1.03123 4.51575 0
M  V30 8956 C 901.963 -1.16451 5.6145 0
M  V30 8957 N 901.459 -1.26425 6.81167 0
M  V30 8958 N 903.252 -1.19655 5.49217 0
M  V30 8959 H 895.403 0.579807 2.04333 0
M  V30 8960 H 897.666 0.198072 0.927077 0
M  V30 8961 H 897.372 0.145871 3.51397 0
M  V30 8962 H 897.246 -1.60156 3.41511 0
M  V30 8963 H 899.633 -1.67966 2.42634 0
M  V30 8964 H 899.714 0.0830895 2.55665 0
M  V30 8965 H 899.358 -0.109251 5.07782 0
M  V30 8966 H 899.288 -1.88221 4.91813 0
M  V30 8967 H 901.779 -0.966072 3.65343 0
M  V30 8968 H 902.092 -1.36462 7.60656 0
M  V30 8969 H 900.437 -1.23408 6.83956 0
M  V30 8970 H 903.628 -1.11501 4.54626 0
M  V30 8971 H 903.801 -1.29698 6.34888 0
M  V30 8972 N 897.207 -1.48554 -0.526253 0
M  V30 8973 C 898.455 -1.56452 -1.27935 0
M  V30 8974 C 898.776 -0.24184 -1.93495 0
M  V30 8975 O 898.046 0.736917 -1.81511 0
M  V30 8976 H 896.626 -0.576379 -0.47518 0
M  V30 8977 H 899.288 -1.85039 -0.612083 0
M  V30 8978 H 898.384 -2.34751 -2.05666 0
M  V30 8979 N 898.685 0.775411 -1.37205 0
M  V30 8980 C 899.913 1.56446 -1.35397 0
M  V30 8981 C 900.328 1.887 0.0615437 0
M  V30 8982 O 899.685 1.51178 1.02233 0
M  V30 8983 C 899.736 2.87697 -2.18889 0
M  V30 8984 O 899.457 2.56828 -3.54924 0
M  V30 8985 C 900.958 3.81944 -2.25019 0
M  V30 8986 H 898.178 0.484792 -0.463916 0
M  V30 8987 H 900.722 0.961346 -1.80495 0
M  V30 8988 H 898.877 3.44442 -1.7731 0
M  V30 8989 H 899.291 3.40851 -3.98649 0
M  V30 8990 H 900.765 4.71055 -2.87769 0
M  V30 8991 H 901.242 4.20811 -1.25757 0
M  V30 8992 H 901.848 3.3113 -2.66895 0
M  V30 8993 N 900.163 1.21714 1.00117 0
M  V30 8994 C 901.393 1.06124 1.77261 0
M  V30 8995 C 901.801 -0.391717 1.85101 0
M  V30 8996 O 901.144 -1.28347 1.31426 0
M  V30 8997 C 901.206 1.58778 3.22536 0
M  V30 8998 C 900.87 3.07289 3.38264 0
M  V30 8999 C 901.867 4.04801 3.26239 0
M  V30 9000 C 899.552 3.46574 3.63582 0
M  V30 9001 C 901.546 5.39585 3.39303 0
M  V30 9002 C 899.233 4.81509 3.76288 0
M  V30 9003 C 900.231 5.77824 3.64155 0
M  V30 9004 O 899.919 7.1031 3.7645 0
M  V30 9005 H 899.651 0.372979 0.563793 0
M  V30 9006 H 902.205 1.61589 1.26799 0
M  V30 9007 H 900.435 0.977129 3.74151 0
M  V30 9008 H 902.124 1.38974 3.81367 0
M  V30 9009 H 902.89 3.75795 3.066 0
M  V30 9010 H 898.769 2.72137 3.72106 0
M  V30 9011 H 902.313 6.14744 3.2975 0
M  V30 9012 H 898.21 5.102 3.95432 0
M  V30 9013 H 898.978 7.17774 3.93374 0
M  V30 9014 N 901.641 -1.19671 1.02551 0
M  V30 9015 C 902.866 -1.93774 0.739363 0
M  V30 9016 C 903.291 -1.74787 -0.695064 0
M  V30 9017 O 902.649 -1.04796 -1.47944 0
M  V30 9018 C 902.697 -3.43684 1.09149 0
M  V30 9019 O 901.801 -4.11874 0.208213 0
M  V30 9020 H 901.142 -0.605064 0.273484 0
M  V30 9021 H 903.672 -1.51846 1.37128 0
M  V30 9022 H 903.682 -3.94339 1.04695 0
M  V30 9023 H 902.357 -3.56826 2.13654 0
M  V30 9024 H 900.934 -3.716 0.311045 0
M  V30 9025 N 903.119 -0.802921 -1.35613 0
M  V30 9026 C 904.347 -0.39393 -2.03115 0
M  V30 9027 C 904.762 0.993961 -1.60517 0
M  V30 9028 O 904.119 1.63984 -0.800973 0
M  V30 9029 C 904.17 -0.463486 -3.58516 0
M  V30 9030 O 903.891 -1.79666 -3.99565 0
M  V30 9031 C 905.392 -0.0468377 -4.43275 0
M  V30 9032 H 902.612 -0.160519 -0.651517 0
M  V30 9033 H 905.156 -1.08552 -1.73311 0
M  V30 9034 H 903.311 0.179821 -3.86982 0
M  V30 9035 H 903.725 -1.75688 -4.942 0
M  V30 9036 H 905.199 -0.146626 -5.51805 0
M  V30 9037 H 905.676 1.00741 -4.2749 0
M  V30 9038 H 906.282 -0.663158 -4.20098 0
M  V30 9039 N 904.597 1.47463 -0.556102 0
M  V30 9040 C 905.825 2.06868 -0.0364585 0
M  V30 9041 C 906.24 1.40893 1.25677 0
M  V30 9042 O 905.597 0.505083 1.75371 0
M  V30 9043 C 905.648 3.61128 0.163984 0
M  V30 9044 O 905.369 4.24629 -1.07803 0
M  V30 9045 C 906.87 4.37397 0.721036 0
M  V30 9046 H 904.09 0.669466 -0.0453399 0
M  V30 9047 H 906.634 1.89482 -0.769198 0
M  V30 9048 H 904.789 3.78031 0.84685 0
M  V30 9049 H 905.203 5.17149 -0.875067 0
M  V30 9050 H 906.677 5.46016 0.810584 0
M  V30 9051 H 907.154 4.03604 1.73206 0
M  V30 9052 H 907.76 4.25236 0.073904 0
M  V30 9053 N 906.075 0.2925 1.54862 0
M  V30 9054 C 907.321 -0.319736 2.00264 0
M  V30 9055 C 907.654 -1.5419 1.18064 0
M  V30 9056 O 906.929 -1.92821 0.254983 0
M  V30 9057 C 907.212 -0.684753 3.5353 0
M  V30 9058 C 907.065 0.545961 4.46474 0
M  V30 9059 C 908.384 -1.51456 4.13218 0
M  V30 9060 H 905.503 -0.11474 0.728014 0
M  V30 9061 H 908.145 0.402907 1.85679 0
M  V30 9062 H 906.295 -1.30044 3.66089 0
M  V30 9063 H 907.967 1.18448 4.45834 0
M  V30 9064 H 906.21 1.1808 4.1742 0
M  V30 9065 H 906.881 0.246544 5.51449 0
M  V30 9066 H 909.357 -0.994421 4.04043 0
M  V30 9067 H 908.233 -1.73875 5.20633 0
M  V30 9068 H 908.494 -2.5011 3.64551 0
M  V30 9069 N 907.553 -1.57587 0.0200696 0
M  V30 9070 C 908.781 -1.95718 -0.670964 0
M  V30 9071 C 909.196 -0.896081 -1.6618 0
M  V30 9072 O 908.553 0.123037 -1.82085 0
M  V30 9073 C 908.604 -3.33904 -1.38529 0
M  V30 9074 O 908.325 -4.35943 -0.434167 0
M  V30 9075 C 909.826 -3.86614 -2.16898 0
M  V30 9076 H 907.046 -0.644819 -0.185606 0
M  V30 9077 H 909.59 -2.04354 0.0771495 0
M  V30 9078 H 907.745 -3.26515 -2.08487 0
M  V30 9079 H 908.159 -5.16001 -0.940378 0
M  V30 9080 H 909.633 -4.85673 -2.62346 0
M  V30 9081 H 910.11 -3.20379 -3.00423 0
M  V30 9082 H 910.716 -3.97243 -1.51916 0
M  V30 9083 N 909.032 0.252966 -1.55557 0
M  V30 9084 C 910.28 0.979912 -1.76754 0
M  V30 9085 C 910.601 1.86083 -0.582944 0
M  V30 9086 O 909.871 1.91742 0.401497 0
M  V30 9087 H 908.451 0.364805 -0.651864 0
M  V30 9088 H 911.113 0.272372 -1.92987 0
M  V30 9089 H 910.209 1.60518 -2.67657 0
M  V30 9090 N 910.51 1.48831 0.518367 0
M  V30 9091 C 911.926 1.35209 0.847979 0
M  V30 9092 C 912.126 0.371927 1.98038 0
M  V30 9093 O 911.182 -0.202681 2.51685 0
M  V30 9094 C 912.495 2.7552 1.20455 0
M  V30 9095 C 914.043 2.84094 1.31377 0
M  V30 9096 C 914.518 4.25132 1.70372 0
M  V30 9097 N 916.009 4.27861 1.77453 0
M  V30 9098 C 916.744 5.3394 2.09035 0
M  V30 9099 N 916.24 6.50285 2.3896 0
M  V30 9100 N 918.033 5.21343 2.10139 0
M  V30 9101 H 910.184 2.11166 -0.228624 0
M  V30 9102 H 912.447 0.94717 -0.0396599 0
M  V30 9103 H 912.153 3.48861 0.445991 0
M  V30 9104 H 912.027 3.09785 2.15204 0
M  V30 9105 H 914.414 2.11001 2.06307 0
M  V30 9106 H 914.495 2.53433 0.347203 0
M  V30 9107 H 914.139 4.98745 0.959975 0
M  V30 9108 H 914.069 4.53245 2.68098 0
M  V30 9109 H 916.56 3.43945 1.56557 0
M  V30 9110 H 916.873 7.26961 2.62196 0
M  V30 9111 H 915.218 6.5354 2.36454 0
M  V30 9112 H 918.409 4.29462 1.86225 0
M  V30 9113 H 918.582 6.04112 2.34419 0
M  V30 9114 N 911.988 -0.768124 1.37614 0
M  V30 9115 C 913.216 -1.55726 1.36224 0
M  V30 9116 C 913.631 -1.8873 -0.0515357 0
M  V30 9117 O 912.988 -1.51718 -1.0143 0
M  V30 9118 C 913.039 -2.86533 2.20412 0
M  V30 9119 O 912.76 -2.54942 3.56281 0
M  V30 9120 C 914.261 -3.80745 2.27041 0
M  V30 9121 H 911.481 -0.482325 0.46648 0
M  V30 9122 H 914.025 -0.95176 1.81002 0
M  V30 9123 H 912.18 -3.43496 1.79134 0
M  V30 9124 H 912.594 -3.38732 4.00451 0
M  V30 9125 H 914.068 -4.69523 2.90263 0
M  V30 9126 H 914.545 -4.20138 1.27987 0
M  V30 9127 H 915.151 -3.2971 2.68647 0
M  V30 9128 N 913.466 -1.22244 -0.994698 0
M  V30 9129 C 914.706 -1.05747 -1.7492 0
M  V30 9130 C 915.07 0.4007 -1.87772 0
M  V30 9131 O 916.271 0.686469 -2.59887 0
M  V30 9132 C 914.542 -1.7471 -3.11787 0
M  V30 9133 S 916.101 -1.73604 -4.02998 0
M  V30 9134 H 912.919 -0.378731 -0.601734 0
M  V30 9135 H 915.521 -1.55155 -1.18942 0
M  V30 9136 H 914.225 -2.79972 -3.00073 0
M  V30 9137 H 913.756 -1.25525 -3.72836 0
M  V30 9138 H 915.771 -0.784445 -4.8996 0
M  V30 9139 N 914.944 1.19125 -1.03184 0
M  V30 9140 C 915.876 2.21914 -0.573294 0
M  V30 9141 C 916.889 1.5894 0.352397 0
M  V30 9142 O 918.078 1.77883 0.148318 0
M  V30 9143 C 915.178 3.38403 0.18355 0
M  V30 9144 C 914.351 4.3096 -0.747817 0
M  V30 9145 C 913.41 5.26188 -0.0358489 0
M  V30 9146 O 912.436 5.65321 -0.663388 0
M  V30 9147 N 913.638 5.67235 1.23387 0
M  V30 9148 H 916.403 2.61881 -1.45734 0
M  V30 9149 H 913.964 1.33821 -0.911231 0
M  V30 9150 H 915.956 3.99124 0.669468 0
M  V30 9151 H 914.526 2.97201 0.969043 0
M  V30 9152 H 913.746 3.67976 -1.41377 0
M  V30 9153 H 915.034 4.89708 -1.38071 0
M  V30 9154 H 914.432 5.37481 1.76439 0
M  V30 9155 H 912.989 6.30196 1.66423 0
M  V30 9156 N 916.422 0.810101 1.35185 0
M  V30 9157 C 917.385 0.22852 2.28058 0
M  V30 9158 C 918.385 -0.586168 1.49735 0
M  V30 9159 O 919.575 -0.40414 1.69447 0
M  V30 9160 C 916.707 -0.681041 3.34028 0
M  V30 9161 H 917.9 1.04768 2.81005 0
M  V30 9162 H 915.453 0.58101 1.451 0
M  V30 9163 H 916.188 -1.52375 2.86273 0
M  V30 9164 H 915.973 -0.0985276 3.91976 0
M  V30 9165 H 917.463 -1.08217 4.03335 0
M  V30 9166 N 917.9 -1.47166 0.563914 0
M  V30 9167 C 919.146 -2.03337 0.0506932 0
M  V30 9168 C 919.501 -1.42976 -1.28746 0
M  V30 9169 O 918.794 -0.578508 -1.82658 0
M  V30 9170 C 918.988 -3.57279 -0.0931797 0
M  V30 9171 C 918.817 -4.32567 1.22948 0
M  V30 9172 C 917.587 -4.72206 1.79859 0
M  V30 9173 C 919.785 -4.67282 2.14829 0
M  V30 9174 N 917.767 -5.32166 3.0606 0
M  V30 9175 C 919.138 -5.27615 3.25611 0
M  V30 9176 C 921.193 -4.49211 2.14741 0
M  V30 9177 C 919.896 -5.71784 4.36412 0
M  V30 9178 C 921.922 -4.94384 3.24559 0
M  V30 9179 C 921.284 -5.54771 4.34061 0
M  V30 9180 H 917.383 -0.779627 0.0608761 0
M  V30 9181 H 919.967 -1.79563 0.75268 0
M  V30 9182 H 918.138 -3.80806 -0.764301 0
M  V30 9183 H 919.87 -4.0009 -0.609075 0
M  V30 9184 H 916.625 -4.54372 1.33577 0
M  V30 9185 H 917.049 -5.66684 3.70404 0
M  V30 9186 H 921.691 -4.01875 1.31362 0
M  V30 9187 H 919.409 -6.18108 5.20546 0
M  V30 9188 H 922.995 -4.82167 3.25586 0
M  V30 9189 H 921.875 -5.89087 5.17635 0
M  V30 9190 N 919.378 -0.300708 -1.54705 0
M  V30 9191 C 920.603 0.314073 -2.05008 0
M  V30 9192 C 921.028 1.46759 -1.17657 0
M  V30 9193 O 920.386 1.80398 -0.180598 0
M  V30 9194 C 920.434 0.748243 -3.52752 0
M  V30 9195 O 919.538 1.85305 -3.68424 0
M  V30 9196 H 918.879 0.0610139 -0.661191 0
M  V30 9197 H 921.409 -0.442467 -1.99758 0
M  V30 9198 H 921.419 1.03713 -3.94598 0
M  V30 9199 H 920.094 -0.095573 -4.1579 0
M  V30 9200 H 918.671 1.56473 -3.38483 0
M  V30 9201 N 920.856 1.57574 -0.0284266 0
M  V30 9202 C 922.081 1.96479 0.664137 0
M  V30 9203 C 922.506 0.904826 1.64908 0
M  V30 9204 O 921.864 -0.134339 1.80802 0
M  V30 9205 C 921.912 3.34479 1.34745 0
M  V30 9206 O 921.016 3.30794 2.46271 0
M  V30 9207 H 920.357 0.640654 0.174524 0
M  V30 9208 H 922.887 2.04402 -0.0900729 0
M  V30 9209 H 922.897 3.70694 1.7044 0
M  V30 9210 H 921.572 4.1117 0.625468 0
M  V30 9211 H 920.149 3.06294 2.12693 0
M  V30 9212 N 922.334 -0.244713 1.55689 0
M  V30 9213 C 923.267 -1.32946 1.85474 0
M  V30 9214 C 924.245 -1.46279 0.710021 0
M  V30 9215 O 925.429 -1.62459 0.956004 0
M  V30 9216 C 922.556 -2.7027 2.04137 0
M  V30 9217 C 921.602 -2.74075 3.2678 0
M  V30 9218 S 922.435 -2.30465 4.8337 0
M  V30 9219 C 923.591 -3.69709 5.05041 0
M  V30 9220 H 923.824 -1.07482 2.77191 0
M  V30 9221 H 921.357 -0.445807 1.47824 0
M  V30 9222 H 923.315 -3.4934 2.15574 0
M  V30 9223 H 921.976 -2.9297 1.13259 0
M  V30 9224 H 921.169 -3.74932 3.36812 0
M  V30 9225 H 920.771 -2.03051 3.1408 0
M  V30 9226 H 923.063 -4.65222 4.92518 0
M  V30 9227 H 924.006 -3.6461 6.07014 0
M  V30 9228 H 924.414 -3.62323 4.32877 0
M  V30 9229 N 923.813 -1.49104 -0.510467 0
M  V30 9230 C 925.041 -1.61806 -1.28944 0
M  V30 9231 C 925.456 -0.285774 -1.86625 0
M  V30 9232 O 924.813 0.727551 -1.67371 0
M  V30 9233 C 924.864 -2.67966 -2.42645 0
M  V30 9234 O 924.585 -3.96026 -1.87337 0
M  V30 9235 C 926.086 -2.91286 -3.34166 0
M  V30 9236 H 923.306 -0.544999 -0.391429 0
M  V30 9237 H 925.85 -1.95071 -0.613805 0
M  V30 9238 H 924.005 -2.37505 -3.06056 0
M  V30 9239 H 924.419 -4.54427 -2.61909 0
M  V30 9240 H 925.893 -3.69323 -4.1025 0
M  V30 9241 H 926.37 -2.00842 -3.90588 0
M  V30 9242 H 926.976 -3.23127 -2.76531 0
M  V30 9243 N 925.291 0.760815 -1.38019 0
M  V30 9244 C 926.702 1.33773 -1.30237 0
M  V30 9245 C 927.053 1.96148 0.0451153 0
M  V30 9246 O 926.178 1.94574 0.9471 0
M  V30 9247 C 926.773 2.43227 -2.35851 0
M  V30 9248 C 925.332 2.96659 -2.31669 0
M  V30 9249 C 924.479 1.69972 -2.191 0
M  V30 9250 H 927.43 0.560237 -1.48482 0
M  V30 9251 H 927.451 3.22985 -2.01149 0
M  V30 9252 H 926.963 1.978 -3.33911 0
M  V30 9253 H 925.064 3.46433 -1.37167 0
M  V30 9254 H 925.177 3.51529 -3.25521 0
M  V30 9255 H 923.541 1.9332 -1.65829 0
M  V30 9256 H 924.324 1.26633 -3.19091 0
M  V30 9257 N 926.769 1.22769 0.988202 0
M  V30 9258 C 927.719 0.969202 2.06375 0
M  V30 9259 C 928.703 -0.0819274 1.60691 0
M  V30 9260 O 929.895 0.129201 1.76528 0
M  V30 9261 C 927.024 0.553919 3.38802 0
M  V30 9262 C 926.11 1.64003 3.91106 0
M  V30 9263 N 926.501 2.86872 4.16579 0
M  V30 9264 C 924.799 1.5128 4.1956 0
M  V30 9265 C 925.5 3.57137 4.5916 0
M  V30 9266 N 924.476 2.84624 4.63131 0
M  V30 9267 H 928.278 1.90247 2.24017 0
M  V30 9268 H 925.792 1.12592 1.17033 0
M  V30 9269 H 927.789 0.350033 4.15428 0
M  V30 9270 H 926.449 -0.37239 3.22558 0
M  V30 9271 H 927.46 3.23254 4.04632 0
M  V30 9272 H 924.137 0.653032 4.12361 0
M  V30 9273 H 925.527 4.62428 4.87452 0
M  V30 9274 N 928.247 -1.18576 1.03814 0
M  V30 9275 C 929.472 -1.92978 0.759873 0
M  V30 9276 C 929.897 -1.75514 -0.676486 0
M  V30 9277 O 929.255 -1.06359 -1.46824 0
M  V30 9278 C 929.303 -3.42507 1.12788 0
M  V30 9279 O 928.407 -4.1163 0.251886 0
M  V30 9280 H 927.748 -0.602129 0.279886 0
M  V30 9281 H 930.278 -1.50383 1.3873 0
M  V30 9282 H 930.288 -3.93206 1.08872 0
M  V30 9283 H 928.963 -3.5454 2.17427 0
M  V30 9284 H 927.54 -3.7125 0.350441 0
M  V30 9285 N 929.725 -0.817259 -1.34754 0
M  V30 9286 C 930.675 -0.207585 -2.27053 0
M  V30 9287 C 931.659 0.624836 -1.48272 0
M  V30 9288 O 932.851 0.480344 -1.70358 0
M  V30 9289 C 929.98 0.634281 -3.3739 0
M  V30 9290 C 929.066 -0.208456 -4.23587 0
M  V30 9291 N 929.457 -1.2767 -4.89422 0
M  V30 9292 C 927.755 0.00815096 -4.45999 0
M  V30 9293 C 928.456 -1.79209 -5.53407 0
M  V30 9294 N 927.432 -1.09686 -5.32419 0
M  V30 9295 H 931.234 -1.0248 -2.75454 0
M  V30 9296 H 928.748 -0.659492 -1.48406 0
M  V30 9297 H 930.745 1.08718 -4.02475 0
M  V30 9298 H 929.405 1.44972 -2.90539 0
M  V30 9299 H 930.416 -1.65945 -4.90594 0
M  V30 9300 H 927.093 0.791879 -4.09921 0
M  V30 9301 H 928.483 -2.68548 -6.15899 0
M  V30 9302 N 931.203 1.46865 -0.571711 0
M  V30 9303 C 932.428 2.07323 -0.0564655 0
M  V30 9304 C 932.853 1.41938 1.23431 0
M  V30 9305 O 932.211 0.499334 1.74288 0
M  V30 9306 C 932.259 3.6044 0.107339 0
M  V30 9307 O 931.363 3.95558 1.1665 0
M  V30 9308 H 930.704 0.661475 -0.0578465 0
M  V30 9309 H 933.234 1.88669 -0.791524 0
M  V30 9310 H 933.244 4.06767 0.316987 0
M  V30 9311 H 931.919 4.07425 -0.835348 0
M  V30 9312 H 930.496 3.60957 0.936189 0
M  V30 9313 N 932.681 0.308908 1.54543 0
M  V30 9314 C 934.097 -0.0442273 1.59539 0
M  V30 9315 C 934.297 -1.51743 1.32575 0
M  V30 9316 O 933.353 -2.27134 1.10302 0
M  V30 9317 C 934.666 0.360826 2.98527 0
M  V30 9318 C 936.214 0.310252 3.11459 0
M  V30 9319 C 936.689 0.690246 4.52769 0
M  V30 9320 N 938.18 0.643084 4.58714 0
M  V30 9321 C 938.915 0.909483 5.66141 0
M  V30 9322 N 938.411 1.24226 6.81572 0
M  V30 9323 N 940.204 0.836018 5.55848 0
M  V30 9324 H 932.355 1.26893 1.70329 0
M  V30 9325 H 934.618 0.514986 0.795923 0
M  V30 9326 H 934.324 1.38669 3.23209 0
M  V30 9327 H 934.198 -0.281563 3.76148 0
M  V30 9328 H 936.585 -0.706375 2.86521 0
M  V30 9329 H 936.666 0.987373 2.35976 0
M  V30 9330 H 936.31 1.70472 4.78437 0
M  V30 9331 H 936.24 -0.00903075 5.26599 0
M  V30 9332 H 938.731 0.397138 3.75807 0
M  V30 9333 H 939.044 1.4313 7.5943 0
M  V30 9334 H 937.389 1.28038 6.83104 0
M  V30 9335 H 940.58 0.575637 4.64547 0
M  V30 9336 H 940.753 1.047 6.39486 0
M  V30 9337 N 934.159 -1.57557 0.0367827 0
M  V30 9338 C 935.387 -1.96419 -0.650168 0
M  V30 9339 C 935.802 -0.913656 -1.6522 0
M  V30 9340 O 935.159 0.103718 -1.82205 0
M  V30 9341 C 935.21 -3.35355 -1.3498 0
M  V30 9342 O 934.931 -4.36379 -0.387905 0
M  V30 9343 C 936.432 -3.88892 -2.12786 0
M  V30 9344 H 933.652 -0.646751 -0.178756 0
M  V30 9345 H 936.196 -2.04261 0.0988197 0
M  V30 9346 H 934.351 -3.28708 -2.05012 0
M  V30 9347 H 934.765 -5.16969 -0.885596 0
M  V30 9348 H 936.239 -4.88428 -2.5718 0
M  V30 9349 H 936.716 -3.23547 -2.97008 0
M  V30 9350 H 937.322 -3.98831 -1.47694 0
M  V30 9351 N 935.637 0.236453 -1.55816 0
M  V30 9352 C 937.048 0.80468 -1.68469 0
M  V30 9353 C 937.399 1.85601 -0.636133 0
M  V30 9354 O 936.524 2.15323 0.215622 0
M  V30 9355 C 937.119 1.46634 -3.05424 0
M  V30 9356 C 935.678 1.98214 -3.19981 0
M  V30 9357 C 934.825 0.83695 -2.64368 0
M  V30 9358 H 937.776 0.0120647 -1.58695 0
M  V30 9359 H 937.797 2.33472 -3.00451 0
M  V30 9360 H 937.309 0.700931 -3.81718 0
M  V30 9361 H 935.41 2.77604 -2.4853 0
M  V30 9362 H 935.523 2.17235 -4.2702 0
M  V30 9363 H 933.887 1.24028 -2.22462 0
M  V30 9364 H 934.67 0.084451 -3.43196 0
M  V30 9365 N 937.115 1.49373 0.502552 0
M  V30 9366 C 938.025 1.68659 1.63068 0
M  V30 9367 C 939.041 0.569182 1.64427 0
M  V30 9368 O 940.217 0.843695 1.82876 0
M  V30 9369 C 937.282 1.74745 2.99441 0
M  V30 9370 C 936.343 2.98311 3.08721 0
M  V30 9371 C 935.576 3.04097 4.38589 0
M  V30 9372 O 935.799 2.17519 5.27297 0
M  V30 9373 O 934.733 3.96544 4.52809 0
M  V30 9374 H 938.559 2.64226 1.49727 0
M  V30 9375 H 936.144 1.33096 0.67867 0
M  V30 9376 H 938.026 1.8111 3.80496 0
M  V30 9377 H 936.701 0.823565 3.13048 0
M  V30 9378 H 935.608 2.97465 2.2686 0
M  V30 9379 H 936.941 3.90174 3.00041 0
M  V30 9380 N 938.594 -0.753485 1.38421 0
M  V30 9381 C 939.824 -1.54049 1.37669 0
M  V30 9382 C 940.232 -1.89167 -0.0353656 0
M  V30 9383 O 939.575 -1.53285 -1.01239 0
M  V30 9384 C 939.637 -2.86777 2.16793 0
M  V30 9385 C 939.301 -2.74196 3.65603 0
M  V30 9386 C 940.298 -2.43985 4.59094 0
M  V30 9387 C 937.983 -2.91645 4.0896 0
M  V30 9388 C 939.977 -2.31379 5.93921 0
M  V30 9389 C 937.664 -2.78658 5.43868 0
M  V30 9390 C 938.662 -2.48568 6.36163 0
M  V30 9391 O 938.35 -2.3564 7.68589 0
M  V30 9392 H 938.082 -0.483276 0.472673 0
M  V30 9393 H 940.636 -0.940267 1.82615 0
M  V30 9394 H 938.866 -3.48988 1.66565 0
M  V30 9395 H 940.555 -3.48289 2.08446 0
M  V30 9396 H 941.321 -2.30172 4.26902 0
M  V30 9397 H 937.2 -3.14063 3.37469 0
M  V30 9398 H 940.744 -2.07813 6.65927 0
M  V30 9399 H 936.641 -2.92044 5.75656 0
M  V30 9400 H 937.409 -2.50851 7.79112 0
M  V30 9401 N 940.072 -1.23292 -0.981677 0
M  V30 9402 C 941.302 -1.0893 -1.7555 0
M  V30 9403 C 941.71 0.362219 -1.857 0
M  V30 9404 O 941.053 1.2624 -1.33451 0
M  V30 9405 C 941.115 -1.6389 -3.19969 0
M  V30 9406 C 940.779 -3.12632 -3.33332 0
M  V30 9407 C 941.776 -4.0994 -3.19758 0
M  V30 9408 C 939.461 -3.52314 -3.58022 0
M  V30 9409 C 941.455 -5.44915 -3.30676 0
M  V30 9410 C 939.142 -4.87434 -3.6858 0
M  V30 9411 C 940.14 -5.83544 -3.54916 0
M  V30 9412 O 939.828 -7.16209 -3.65102 0
M  V30 9413 H 939.56 -0.381901 -0.557788 0
M  V30 9414 H 942.114 -1.63586 -1.24213 0
M  V30 9415 H 940.344 -1.03653 -3.72549 0
M  V30 9416 H 942.033 -1.45023 -3.79108 0
M  V30 9417 H 942.799 -3.80625 -3.00582 0
M  V30 9418 H 938.678 -2.78022 -3.67729 0
M  V30 9419 H 942.222 -6.19913 -3.19928 0
M  V30 9420 H 938.119 -5.16426 -3.87265 0
M  V30 9421 H 938.887 -7.23941 -3.81905 0
M  V30 9422 N 941.55 1.18024 -1.04442 0
M  V30 9423 C 942.961 1.69749 -0.777312 0
M  V30 9424 C 943.312 1.83234 0.701399 0
M  V30 9425 O 942.437 1.51452 1.54568 0
M  V30 9426 C 943.032 3.08321 -1.40441 0
M  V30 9427 C 941.591 3.57243 -1.18553 0
M  V30 9428 C 940.738 2.33695 -1.49271 0
M  V30 9429 H 943.689 1.02647 -1.21035 0
M  V30 9430 H 943.71 3.71787 -0.809628 0
M  V30 9431 H 943.222 2.98474 -2.48062 0
M  V30 9432 H 941.323 3.72379 -0.128221 0
M  V30 9433 H 941.436 4.40451 -1.88519 0
M  V30 9434 H 939.8 2.37792 -0.912526 0
M  V30 9435 H 940.583 2.26464 -2.5801 0
M  V30 9436 N 943.028 0.824394 1.34319 0
M  V30 9437 C 943.976 0.235628 2.31403 0
M  V30 9438 C 944.97 -0.624443 1.57471 0
M  V30 9439 O 946.176 -0.515618 1.72457 0
M  V30 9440 H 942.551 0.0574537 0.749802 0
M  V30 9441 H 944.522 1.06925 2.78585 0
M  V30 9442 C 943.271 -0.586617 3.42716 0
M  V30 9443 H 942.594 0.0658669 3.99746 0
M  V30 9444 H 944.034 -0.964661 4.1288 0
M  V30 9445 C 942.493 -1.75957 2.87299 0
M  V30 9446 O 943.023 -2.8578 2.82299 0
M  V30 9447 N 941.229 -1.57678 2.44102 0
M  V30 9448 H 940.776 -0.683436 2.48369 0
M  V30 9449 H 940.734 -2.36311 2.07375 0
M  V30 9450 N 944.506 -1.46559 0.579492 0
M  V30 9451 C 945.469 -2.28739 -0.145371 0
M  V30 9452 C 946.469 -1.38211 -0.821854 0
M  V30 9453 O 947.659 -1.6062 -0.674302 0
M  V30 9454 C 944.791 -3.18507 -1.21515 0
M  V30 9455 H 945.984 -2.94301 0.576786 0
M  V30 9456 H 943.537 -1.52616 0.337327 0
M  V30 9457 H 944.272 -2.57685 -1.96899 0
M  V30 9458 H 944.057 -3.85157 -0.734616 0
M  V30 9459 H 945.547 -3.80369 -1.72363 0
M  V30 9460 N 945.984 -0.3171 -1.54377 0
M  V30 9461 C 947.232 0.286842 -2.00054 0
M  V30 9462 C 947.553 1.53161 -1.20692 0
M  V30 9463 O 946.823 1.93479 -0.307045 0
M  V30 9464 H 945.403 0.108979 -0.739008 0
M  V30 9465 H 948.065 -0.432152 -1.90049 0
M  V30 9466 H 947.161 0.547729 -3.07256 0
M  V30 9467 N 947.462 1.57535 -0.0451378 0
M  V30 9468 C 948.392 2.14208 0.929372 0
M  V30 9469 C 949.373 1.06221 1.32858 0
M  V30 9470 O 950.558 1.34132 1.40436 0
M  V30 9471 C 947.688 2.68217 2.20629 0
M  V30 9472 C 946.642 3.81134 1.94734 0
M  V30 9473 C 945.968 4.21636 3.28828 0
M  V30 9474 C 947.268 5.06531 1.27374 0
M  V30 9475 H 948.962 2.95886 0.457348 0
M  V30 9476 H 946.508 1.42332 0.218544 0
M  V30 9477 H 948.461 3.06502 2.89196 0
M  V30 9478 H 947.185 1.83722 2.70026 0
M  V30 9479 H 945.844 3.43312 1.28579 0
M  V30 9480 H 945.492 3.34099 3.76014 0
M  V30 9481 H 945.192 4.97736 3.12302 0
M  V30 9482 H 946.716 4.62516 3.98637 0
M  V30 9483 H 948.13 5.423 1.85967 0
M  V30 9484 H 946.527 5.87735 1.21194 0
M  V30 9485 H 947.597 4.84261 0.248913 0
M  V30 9486 N 948.94 -0.228186 1.55939 0
M  V30 9487 C 950.189 -0.951563 1.77843 0
M  V30 9488 C 950.502 -1.85763 0.612501 0
M  V30 9489 O 951.708 -2.61916 0.715006 0
M  V30 9490 C 950.164 -1.74216 3.14923 0
M  V30 9491 C 949.772 -0.882569 4.39221 0
M  V30 9492 C 951.516 -2.45715 3.46156 0
M  V30 9493 C 949.423 -1.67014 5.67327 0
M  V30 9494 H 948.353 -0.359035 0.663031 0
M  V30 9495 H 951.004 -0.205636 1.82344 0
M  V30 9496 H 949.386 -2.53075 3.0458 0
M  V30 9497 H 950.56 -0.13499 4.60602 0
M  V30 9498 H 948.875 -0.280022 4.15457 0
M  V30 9499 H 951.472 -3.05127 4.39092 0
M  V30 9500 H 951.815 -3.1827 2.68346 0
M  V30 9501 H 952.348 -1.73852 3.57799 0
M  V30 9502 H 949.087 -0.987985 6.48012 0
M  V30 9503 H 948.607 -2.3925 5.50018 0
M  V30 9504 H 950.286 -2.23252 6.07262 0
M  V30 9505 N 950.418 -1.49637 -0.494624 0
M  V30 9506 C 951.351 -1.61387 -1.61337 0
M  V30 9507 C 952.329 -0.462704 -1.55878 0
M  V30 9508 O 953.513 -0.679103 -1.75842 0
M  V30 9509 C 950.64 -1.57471 -2.99867 0
M  V30 9510 C 949.686 -2.77863 -3.23565 0
M  V30 9511 S 950.519 -4.3946 -3.05999 0
M  V30 9512 C 951.675 -4.382 -4.46914 0
M  V30 9513 H 951.908 -2.56024 -1.51126 0
M  V30 9514 H 949.441 -1.38607 -0.680253 0
M  V30 9515 H 951.399 -1.55898 -3.79745 0
M  V30 9516 H 950.06 -0.641107 -3.07488 0
M  V30 9517 H 949.253 -2.71361 -4.24711 0
M  V30 9518 H 948.855 -2.76882 -2.51421 0
M  V30 9519 H 951.147 -4.10312 -5.3912 0
M  V30 9520 H 952.09 -5.39645 -4.58464 0
M  V30 9521 H 952.498 -3.68197 -4.27891 0
M  V30 9522 N 951.896 0.746133 -1.38819 0
M  V30 9523 C 952.844 1.88137 -1.36774 0
M  V30 9524 C 953.838 1.67508 -0.252495 0
M  V30 9525 O 955.044 1.74985 -0.421935 0
M  V30 9526 H 951.419 0.619116 -0.426849 0
M  V30 9527 H 953.39 1.86978 -2.32555 0
M  V30 9528 C 952.139 3.25703 -1.21708 0
M  V30 9529 H 951.462 3.42168 -2.06788 0
M  V30 9530 H 952.902 4.05361 -1.24332 0
M  V30 9531 C 951.361 3.36816 0.0754257 0
M  V30 9532 O 951.891 3.87742 1.04972 0
M  V30 9533 N 950.097 2.90287 0.134761 0
M  V30 9534 H 949.644 2.49034 -0.658779 0
M  V30 9535 H 949.602 2.98103 0.999109 0
M  V30 9536 N 953.375 1.23811 0.975125 0
M  V30 9537 C 954.605 1.0986 1.7497 0
M  V30 9538 C 955.013 -0.352366 1.8589 0
M  V30 9539 O 954.356 -1.2553 1.34119 0
M  V30 9540 C 954.418 1.65584 3.19096 0
M  V30 9541 C 954.082 3.14395 3.3167 0
M  V30 9542 C 955.079 4.1163 3.17579 0
M  V30 9543 C 952.764 3.54208 3.56149 0
M  V30 9544 C 954.758 5.46661 3.27781 0
M  V30 9545 C 952.445 4.89382 3.65989 0
M  V30 9546 C 953.443 5.85418 3.51817 0
M  V30 9547 O 953.131 7.18135 3.61299 0
M  V30 9548 H 952.863 0.384854 0.555755 0
M  V30 9549 H 955.417 1.64242 1.23343 0
M  V30 9550 H 953.647 1.05627 3.71994 0
M  V30 9551 H 955.336 1.47032 3.78334 0
M  V30 9552 H 956.102 3.82214 2.98559 0
M  V30 9553 H 951.981 2.79968 3.66249 0
M  V30 9554 H 955.525 6.21601 3.16636 0
M  V30 9555 H 951.422 5.18473 3.84521 0
M  V30 9556 H 952.19 7.25956 3.78061 0
M  V30 9557 N 954.853 -1.17469 1.05066 0
M  V30 9558 C 956.093 -1.89382 0.769012 0
M  V30 9559 C 956.457 -1.79126 -0.691217 0
M  V30 9560 O 957.658 -2.45845 -1.08692 0
M  V30 9561 C 955.929 -3.35397 1.23465 0
M  V30 9562 S 957.488 -4.25297 1.08018 0
M  V30 9563 H 954.306 -0.653839 0.279312 0
M  V30 9564 H 956.908 -1.41877 1.34503 0
M  V30 9565 H 955.612 -3.40395 2.29258 0
M  V30 9566 H 955.143 -3.87945 0.652853 0
M  V30 9567 H 957.158 -4.962 0.00358573 0
M  V30 9568 N 956.331 -0.831506 -1.3388 0
M  V30 9569 C 957.747 -0.518349 -1.50948 0
M  V30 9570 C 957.947 0.955807 -1.77388 0
M  V30 9571 O 957.003 1.73993 -1.82983 0
M  V30 9572 C 958.316 -1.38531 -2.66889 0
M  V30 9573 C 959.864 -1.38332 -2.80772 0
M  V30 9574 C 960.339 -2.23497 -3.99766 0
M  V30 9575 N 961.83 -2.21167 -4.06988 0
M  V30 9576 C 962.565 -2.83805 -4.98239 0
M  V30 9577 N 962.061 -3.55468 -5.94655 0
M  V30 9578 N 963.854 -2.73314 -4.91178 0
M  V30 9579 H 956.005 -1.78588 -1.14978 0
M  V30 9580 H 958.268 -0.761508 -0.564633 0
M  V30 9581 H 957.974 -2.43255 -2.54007 0
M  V30 9582 H 957.848 -1.05611 -3.62114 0
M  V30 9583 H 960.235 -0.343832 -2.9309 0
M  V30 9584 H 960.316 -1.75256 -1.86331 0
M  V30 9585 H 959.96 -3.27501 -3.88208 0
M  V30 9586 H 959.89 -1.83919 -4.93438 0
M  V30 9587 H 962.381 -1.69046 -3.37982 0
M  V30 9588 H 962.694 -4.00487 -6.60931 0
M  V30 9589 H 961.039 -3.59575 -5.94753 0
M  V30 9590 H 964.23 -2.16897 -4.14817 0
M  V30 9591 H 964.403 -3.22416 -5.62096 0
M  V30 9592 N 957.809 1.4625 -0.587256 0
M  V30 9593 C 958.757 2.32076 0.156108 0
M  V30 9594 C 959.751 1.44756 0.879887 0
M  V30 9595 O 960.957 1.61356 0.797759 0
M  V30 9596 H 957.332 0.748808 0.0692098 0
M  V30 9597 H 959.303 2.9258 -0.586497 0
M  V30 9598 C 958.052 3.28008 1.15352 0
M  V30 9599 H 957.375 3.9518 0.60601 0
M  V30 9600 H 958.815 3.90832 1.64396 0
M  V30 9601 C 957.274 2.53691 2.21681 0
M  V30 9602 O 957.804 2.30329 3.29107 0
M  V30 9603 N 956.01 2.14174 1.96412 0
M  V30 9604 H 955.557 2.33374 1.09061 0
M  V30 9605 H 955.515 1.6477 2.67765 0
M  V30 9606 N 959.287 0.325282 1.54207 0
M  V30 9607 C 960.698 -0.162426 1.85992 0
M  V30 9608 C 961.049 -1.51482 1.2469 0
M  V30 9609 O 960.174 -2.092 0.553578 0
M  V30 9610 C 960.769 -0.3015 3.37456 0
M  V30 9611 C 959.328 -0.73343 3.69185 0
M  V30 9612 C 958.475 0.143831 2.76927 0
M  V30 9613 H 961.426 0.545508 1.4903 0
M  V30 9614 H 961.447 -1.13212 3.63268 0
M  V30 9615 H 960.959 0.682942 3.82044 0
M  V30 9616 H 959.06 -1.72755 3.30131 0
M  V30 9617 H 959.173 -0.535987 4.76092 0
M  V30 9618 H 957.537 -0.380892 2.51836 0
M  V30 9619 H 958.32 1.12507 3.24341 0
M  V30 9620 N 960.765 -1.57509 0.0534917 0
M  V30 9621 C 962.042 -1.84137 -0.659767 0
M  V30 9622 C 962.422 -0.942362 -1.88899 0
M  V30 9623 O 961.77 -0.00398566 -2.285 0
M  V30 9624 C 961.98 -3.33919 -1.01486 0
M  V30 9625 C 963.328 -4.00989 -1.39616 0
M  V30 9626 O 964.352 -3.38557 -1.10713 0
M  V30 9627 O 963.211 -5.11071 -1.93567 0
M  V30 9628 H 960.305 -0.760081 -0.325893 0
M  V30 9629 H 962.851 -1.69497 0.0830315 0
M  V30 9630 H 961.623 -3.91046 -0.141041 0
M  V30 9631 H 961.246 -3.53755 -1.81503 0
M  V30 9632 N 962.243 0.219913 -1.56058 0
M  V30 9633 C 963.206 1.25606 -1.91718 0
M  V30 9634 C 964.206 1.39721 -0.795912 0
M  V30 9635 O 965.396 1.37958 -1.06364 0
M  V30 9636 C 962.528 2.62961 -2.16943 0
M  V30 9637 H 963.721 0.951909 -2.84392 0
M  V30 9638 H 961.274 0.460398 -1.49365 0
M  V30 9639 H 962.009 2.98472 -1.26826 0
M  V30 9640 H 961.794 2.54093 -2.98629 0
M  V30 9641 H 963.284 3.37727 -2.45622 0
M  V30 9642 N 963.721 1.49897 0.486681 0
M  V30 9643 C 964.967 1.60342 1.2417 0
M  V30 9644 C 965.3 0.295694 1.91936 0
M  V30 9645 O 964.575 -0.701788 1.81398 0
M  V30 9646 C 964.858 2.77281 2.29755 0
M  V30 9647 C 964.711 4.1789 1.66397 0
M  V30 9648 C 966.03 2.89817 3.31201 0
M  V30 9649 H 963.149 0.583605 0.450083 0
M  V30 9650 H 965.791 1.82232 0.537734 0
M  V30 9651 H 963.941 2.58748 2.89796 0
M  V30 9652 H 965.613 4.47975 1.10073 0
M  V30 9653 H 963.856 4.22872 0.967579 0
M  V30 9654 H 964.527 4.95612 2.43049 0
M  V30 9655 H 967.003 3.06732 2.81167 0
M  V30 9656 H 965.879 3.7329 4.02425 0
M  V30 9657 H 966.14 1.9977 3.94391 0
M  V30 9658 N 965.199 -0.738761 1.39212 0
M  V30 9659 C 966.162 -1.83441 1.37412 0
M  V30 9660 C 967.162 -1.58484 0.271908 0
M  V30 9661 O 968.352 -1.65954 0.529609 0
M  V30 9662 C 965.484 -3.21167 1.143 0
M  V30 9663 H 966.677 -1.86441 2.34904 0
M  V30 9664 H 964.23 -0.942023 1.24722 0
M  V30 9665 H 964.965 -3.23829 0.174756 0
M  V30 9666 H 964.75 -3.40678 1.94116 0
M  V30 9667 H 966.24 -4.01231 1.15773 0
M  V30 9668 N 966.677 -1.24326 -0.968545 0
M  V30 9669 C 967.64 -1.03591 -2.04454 0
M  V30 9670 C 968.64 0.0064809 -1.60799 0
M  V30 9671 O 969.83 -0.234404 -1.72616 0
M  V30 9672 C 966.962 -0.56992 -3.36102 0
M  V30 9673 H 968.155 -1.99092 -2.24282 0
M  V30 9674 H 965.708 -1.06537 -1.14366 0
M  V30 9675 H 966.443 0.388325 -3.21967 0
M  V30 9676 H 966.228 -1.32227 -3.69132 0
M  V30 9677 H 967.718 -0.445854 -4.15213 0
M  V30 9678 N 968.156 1.1691 -1.05688 0
M  V30 9679 C 969.567 1.68915 -0.795273 0
M  V30 9680 C 969.918 1.83968 0.681925 0
M  V30 9681 O 969.043 1.53083 1.52953 0
M  V30 9682 C 969.638 3.06814 -1.43703 0
M  V30 9683 C 968.197 3.55965 -1.22335 0
M  V30 9684 C 967.344 2.32099 -1.51741 0
M  V30 9685 H 970.295 1.01357 -1.22116 0
M  V30 9686 H 970.316 3.70907 -0.849016 0
M  V30 9687 H 969.828 2.95826 -2.51214 0
M  V30 9688 H 967.929 3.72222 -0.16771 0
M  V30 9689 H 968.042 4.38427 -1.9318 0
M  V30 9690 H 966.406 2.36811 -0.937696 0
M  V30 9691 H 967.189 2.23715 -2.60397 0
M  V30 9692 N 969.634 0.838594 1.33437 0
M  V30 9693 C 970.864 0.446995 2.01707 0
M  V30 9694 C 971.272 -0.956335 1.63251 0
M  V30 9695 O 970.615 -1.63289 0.841566 0
M  V30 9696 C 970.677 0.487707 3.56176 0
M  V30 9697 C 970.341 1.8471 4.18009 0
M  V30 9698 C 971.338 2.81028 4.374 0
M  V30 9699 C 969.023 2.13987 4.54439 0
M  V30 9700 C 971.017 4.04785 4.92369 0
M  V30 9701 C 968.704 3.38 5.09116 0
M  V30 9702 C 969.702 4.33216 5.28027 0
M  V30 9703 O 969.39 5.55036 5.81541 0
M  V30 9704 H 969.122 0.175799 0.652741 0
M  V30 9705 H 971.676 1.13265 1.71348 0
M  V30 9706 H 969.906 -0.254719 3.8586 0
M  V30 9707 H 971.595 0.113971 4.0574 0
M  V30 9708 H 972.361 2.5971 4.09604 0
M  V30 9709 H 968.24 1.40668 4.39014 0
M  V30 9710 H 971.784 4.79114 5.07046 0
M  V30 9711 H 967.681 3.59175 5.36343 0
M  V30 9712 H 968.449 5.56772 5.99956 0
M  V30 9713 N 971.112 -1.45937 0.595003 0
M  V30 9714 C 972.352 -2.0421 0.0881479 0
M  V30 9715 C 972.716 -1.45498 -1.25277 0
M  V30 9716 O 973.917 -1.95047 -1.8496 0
M  V30 9717 C 972.188 -3.57382 0.0362346 0
M  V30 9718 S 973.747 -4.36869 -0.41126 0
M  V30 9719 H 970.565 -0.709672 0.0434424 0
M  V30 9720 H 973.167 -1.78815 0.790273 0
M  V30 9721 H 971.871 -3.97628 1.0159 0
M  V30 9722 H 971.402 -3.87332 -0.688278 0
M  V30 9723 H 973.417 -4.67486 -1.66347 0
M  V30 9724 N 972.59 -0.333456 -1.54032 0
M  V30 9725 C 973.82 0.267425 -2.04862 0
M  V30 9726 C 974.228 1.45559 -1.20869 0
M  V30 9727 O 973.571 1.82197 -0.234478 0
M  V30 9728 C 973.633 0.755759 -3.51466 0
M  V30 9729 C 973.297 -0.311409 -4.55938 0
M  V30 9730 C 974.294 -1.15078 -5.07004 0
M  V30 9731 C 971.979 -0.462439 -5.00167 0
M  V30 9732 C 973.973 -2.12682 -6.0087 0
M  V30 9733 C 971.66 -1.44188 -5.93846 0
M  V30 9734 C 972.658 -2.27253 -6.44085 0
M  V30 9735 O 972.346 -3.23532 -7.35923 0
M  V30 9736 H 972.078 0.0572596 -0.673571 0
M  V30 9737 H 974.632 -0.480646 -1.99697 0
M  V30 9738 H 972.862 1.55491 -3.54062 0
M  V30 9739 H 974.551 1.27607 -3.8532 0
M  V30 9740 H 975.317 -1.04513 -4.73605 0
M  V30 9741 H 971.196 0.17424 -4.60671 0
M  V30 9742 H 974.74 -2.77555 -6.40007 0
M  V30 9743 H 970.637 -1.54813 -6.2666 0
M  V30 9744 H 971.405 -3.18886 -7.53826 0
M  V30 9745 N 974.068 1.57479 -0.061844 0
M  V30 9746 C 975.296 1.97429 0.618837 0
M  V30 9747 C 975.711 0.939826 1.63746 0
M  V30 9748 O 975.068 -0.0747173 1.82347 0
M  V30 9749 C 975.119 3.3746 1.29628 0
M  V30 9750 O 974.84 4.36941 0.318431 0
M  V30 9751 C 976.341 3.92228 2.06572 0
M  V30 9752 H 973.561 0.649513 0.168444 0
M  V30 9753 H 976.105 2.04078 -0.131303 0
M  V30 9754 H 974.26 3.31928 1.99757 0
M  V30 9755 H 974.674 5.18313 0.803239 0
M  V30 9756 H 976.148 4.92458 2.49377 0
M  V30 9757 H 976.625 3.28231 2.91824 0
M  V30 9758 H 977.231 4.01131 1.4133 0
M  V30 9759 N 975.546 -0.211634 1.56173 0
M  V30 9760 C 976.962 -0.56177 1.49386 0
M  V30 9761 C 977.162 -1.86666 0.758813 0
M  V30 9762 O 976.218 -2.50681 0.302534 0
M  V30 9763 C 977.531 -0.631815 2.93987 0
M  V30 9764 C 979.079 -0.721773 3.04564 0
M  V30 9765 C 979.554 -0.823075 4.50544 0
M  V30 9766 N 981.045 -0.887038 4.54627 0
M  V30 9767 C 981.78 -0.985304 5.64871 0
M  V30 9768 N 981.276 -1.0469 6.84844 0
M  V30 9769 N 983.069 -1.02121 5.52746 0
M  V30 9770 H 975.22 0.64452 2.02385 0
M  V30 9771 H 977.483 0.227466 0.920306 0
M  V30 9772 H 977.189 0.257592 3.50755 0
M  V30 9773 H 977.063 -1.4921 3.46433 0
M  V30 9774 H 979.45 -1.60162 2.47855 0
M  V30 9775 H 979.531 0.164385 2.55271 0
M  V30 9776 H 979.175 0.0523511 5.07873 0
M  V30 9777 H 979.105 -1.72479 4.97552 0
M  V30 9778 H 981.596 -0.849352 3.68231 0
M  V30 9779 H 981.909 -1.12193 7.64613 0
M  V30 9780 H 980.254 -1.01586 6.87536 0
M  V30 9781 H 983.445 -0.969814 4.57943 0
M  V30 9782 H 983.618 -1.09434 6.38693 0
M  V30 9783 N 977.024 -1.50153 -0.478725 0
M  V30 9784 C 978.301 -1.51274 -1.23999 0
M  V30 9785 C 978.681 -0.253048 -2.09578 0
M  V30 9786 O 978.029 0.763827 -2.15355 0
M  V30 9787 C 978.239 -2.80423 -2.07759 0
M  V30 9788 C 979.587 -3.30788 -2.66204 0
M  V30 9789 O 980.611 -2.81693 -2.18008 0
M  V30 9790 O 979.47 -4.1635 -3.53999 0
M  V30 9791 H 976.564 -0.606438 -0.562283 0
M  V30 9792 H 979.11 -1.62436 -0.491171 0
M  V30 9793 H 977.882 -3.63584 -1.44645 0
M  V30 9794 H 977.505 -2.72228 -2.89789 0
M  V30 9795 N 978.502 0.731368 -1.39602 0
M  V30 9796 C 979.913 1.30981 -1.33045 0
M  V30 9797 C 980.264 1.962 0.00349918 0
M  V30 9798 O 979.389 1.96539 0.905615 0
M  V30 9799 C 979.984 2.3817 -2.40958 0
M  V30 9800 C 978.543 2.91678 -2.3791 0
M  V30 9801 C 977.69 1.65286 -2.22656 0
M  V30 9802 H 980.641 0.528615 -1.49637 0
M  V30 9803 H 980.662 3.18645 -2.07955 0
M  V30 9804 H 980.174 1.90673 -3.38032 0
M  V30 9805 H 978.275 3.43446 -1.44485 0
M  V30 9806 H 978.388 3.44545 -3.32904 0
M  V30 9807 H 976.752 1.89759 -1.69893 0
M  V30 9808 H 977.535 1.19836 -3.21705 0
M  V30 9809 N 979.98 1.24838 0.961938 0
M  V30 9810 C 981.228 1.08936 1.70227 0
M  V30 9811 C 981.549 -0.371582 1.91427 0
M  V30 9812 O 980.819 -1.26461 1.49614 0
M  V30 9813 H 979.399 0.400128 0.630799 0
M  V30 9814 H 982.061 1.56848 1.15692 0
M  V30 9815 H 981.157 1.59195 2.68446 0
M  V30 9816 N 981.458 -1.16348 1.06306 0
M  V30 9817 C 982.704 -1.87158 0.781007 0
M  V30 9818 C 983.037 -1.81499 -0.690784 0
M  V30 9819 O 982.312 -1.23074 -1.50609 0
M  V30 9820 C 982.595 -3.3672 1.27639 0
M  V30 9821 C 982.448 -3.51069 2.81194 0
M  V30 9822 C 983.767 -4.31122 0.884388 0
M  V30 9823 H 980.886 -0.679586 0.285187 0
M  V30 9824 H 983.528 -1.36756 1.31901 0
M  V30 9825 H 981.678 -3.79775 0.818715 0
M  V30 9826 H 983.35 -3.16952 3.35171 0
M  V30 9827 H 981.593 -2.92976 3.19918 0
M  V30 9828 H 982.264 -4.56105 3.10921 0
M  V30 9829 H 984.74 -3.95969 1.27858 0
M  V30 9830 H 983.616 -5.34279 1.25847 0
M  V30 9831 H 983.877 -4.41598 -0.210673 0
M  V30 9832 N 982.937 -0.845659 -1.3299 0
M  V30 9833 C 984.353 -0.53433 -1.5039 0
M  V30 9834 C 984.553 0.936939 -1.78392 0
M  V30 9835 O 983.609 1.72043 -1.84818 0
M  V30 9836 C 984.922 -1.41354 -2.65404 0
M  V30 9837 C 986.47 -1.41303 -2.79289 0
M  V30 9838 C 986.945 -2.27724 -3.97373 0
M  V30 9839 N 988.436 -2.25471 -4.0462 0
M  V30 9840 C 989.171 -2.89074 -4.95201 0
M  V30 9841 N 988.667 -3.61755 -5.90851 0
M  V30 9842 N 990.46 -2.78508 -4.88251 0
M  V30 9843 H 982.611 -1.79798 -1.13078 0
M  V30 9844 H 984.874 -0.767454 -0.556524 0
M  V30 9845 H 984.58 -2.45936 -2.51413 0
M  V30 9846 H 984.454 -1.09445 -3.60973 0
M  V30 9847 H 986.841 -0.374899 -2.92709 0
M  V30 9848 H 986.922 -1.77222 -1.84461 0
M  V30 9849 H 986.566 -3.316 -3.84713 0
M  V30 9850 H 986.496 -1.89142 -4.9146 0
M  V30 9851 H 988.987 -1.72622 -3.3617 0
M  V30 9852 H 989.3 -4.07475 -6.56646 0
M  V30 9853 H 987.645 -3.65863 -5.90906 0
M  V30 9854 H 990.836 -2.21285 -4.12493 0
M  V30 9855 H 991.009 -3.2836 -5.58645 0
M  V30 9856 N 984.415 1.45619 -0.602734 0
M  V30 9857 C 985.661 2.03131 -0.104587 0
M  V30 9858 C 986.016 1.4634 1.2491 0
M  V30 9859 O 985.309 0.626733 1.8106 0
M  V30 9860 C 985.503 3.574 -0.00157909 0
M  V30 9861 C 985.332 4.29155 -1.34373 0
M  V30 9862 C 984.102 4.67272 -1.92316 0
M  V30 9863 C 986.3 4.61422 -2.27143 0
M  V30 9864 N 984.282 5.23864 -3.20062 0
M  V30 9865 C 985.653 5.18796 -3.39485 0
M  V30 9866 C 987.708 4.4336 -2.26575 0
M  V30 9867 C 986.411 5.60012 -4.51419 0
M  V30 9868 C 988.437 4.85605 -3.37553 0
M  V30 9869 C 987.799 5.43068 -4.48617 0
M  V30 9870 H 983.898 0.777739 -0.0815251 0
M  V30 9871 H 986.482 1.77504 -0.800024 0
M  V30 9872 H 984.653 3.82698 0.663068 0
M  V30 9873 H 986.385 4.01565 0.502784 0
M  V30 9874 H 983.14 4.50671 -1.45577 0
M  V30 9875 H 983.564 5.56664 -3.85298 0
M  V30 9876 H 988.206 3.98251 -1.41971 0
M  V30 9877 H 985.924 6.04089 -5.36751 0
M  V30 9878 H 989.51 4.73365 -3.38255 0
M  V30 9879 H 988.39 5.75156 -5.33072 0
M  V30 9880 N 985.893 0.34162 1.53853 0
M  V30 9881 C 986.803 -0.524555 2.2866 0
M  V30 9882 C 987.819 -1.1136 1.33697 0
M  V30 9883 O 988.995 -1.1297 1.66732 0
M  V30 9884 C 986.06 -1.66065 3.04341 0
M  V30 9885 C 985.121 -1.10158 4.14926 0
M  V30 9886 C 984.354 -2.18353 4.86988 0
M  V30 9887 O 984.577 -3.39038 4.58704 0
M  V30 9888 O 983.511 -1.82756 5.73484 0
M  V30 9889 H 987.337 0.0835014 3.03585 0
M  V30 9890 H 984.922 0.106727 1.49018 0
M  V30 9891 H 986.804 -2.3217 3.51674 0
M  V30 9892 H 985.479 -2.25456 2.32275 0
M  V30 9893 H 984.386 -0.405109 3.719 0
M  V30 9894 H 985.719 -0.552567 4.89088 0
M  V30 9895 N 987.371 -1.57444 0.0701946 0
M  V30 9896 C 988.601 -1.97467 -0.607476 0
M  V30 9897 C 989.009 -0.947232 -1.63781 0
M  V30 9898 O 988.352 0.074652 -1.83548 0
M  V30 9899 C 988.414 -3.33795 -1.33495 0
M  V30 9900 C 988.078 -4.54697 -0.458265 0
M  V30 9901 C 989.075 -5.19127 0.283488 0
M  V30 9902 C 986.76 -5.00833 -0.383612 0
M  V30 9903 C 988.754 -6.28043 1.08813 0
M  V30 9904 C 986.441 -6.09622 0.424705 0
M  V30 9905 C 987.439 -6.7309 1.15925 0
M  V30 9906 O 987.127 -7.79785 1.95423 0
M  V30 9907 H 986.859 -0.654405 -0.169501 0
M  V30 9908 H 989.413 -2.04931 0.138651 0
M  V30 9909 H 987.643 -3.22941 -2.12711 0
M  V30 9910 H 989.332 -3.58435 -1.9047 0
M  V30 9911 H 990.098 -4.84428 0.235397 0
M  V30 9912 H 985.977 -4.51211 -0.944968 0
M  V30 9913 H 989.521 -6.77513 1.66197 0
M  V30 9914 H 985.418 -6.43755 0.474366 0
M  V30 9915 H 986.186 -7.96655 1.87838 0
M  V30 9916 N 988.849 0.203349 -1.56283 0
M  V30 9917 C 990.089 0.931871 -1.81922 0
M  V30 9918 C 990.453 1.8079 -0.646459 0
M  V30 9919 O 991.654 2.57157 -0.782556 0
M  V30 9920 C 989.925 1.73347 -3.12547 0
M  V30 9921 S 991.484 2.51514 -3.59564 0
M  V30 9922 H 988.302 0.312706 -0.638542 0
M  V30 9923 H 990.904 0.195931 -1.94516 0
M  V30 9924 H 989.608 1.08038 -3.95924 0
M  V30 9925 H 989.139 2.51138 -3.02809 0
M  V30 9926 H 991.154 3.7552 -3.24345 0
M  V30 9927 N 990.327 1.50405 0.470755 0
M  V30 9928 C 991.275 1.6982 1.58946 0
M  V30 9929 C 992.269 0.56407 1.59733 0
M  V30 9930 O 993.475 0.744576 1.63878 0
M  V30 9931 H 989.85 0.536016 0.527438 0
M  V30 9932 H 991.821 2.63662 1.39732 0
M  V30 9933 C 990.57 1.80986 2.96883 0
M  V30 9934 H 989.893 2.67645 2.96996 0
M  V30 9935 H 991.333 1.98596 3.74614 0
M  V30 9936 C 989.792 0.561551 3.32187 0
M  V30 9937 O 990.322 -0.299136 4.00585 0
M  V30 9938 N 988.528 0.415476 2.87615 0
M  V30 9939 H 988.075 1.11691 2.32127 0
M  V30 9940 H 988.033 -0.418592 3.11601 0
M  V30 9941 N 991.805 -0.723954 1.39988 0
M  V30 9942 C 992.735 -1.85103 1.42335 0
M  V30 9943 C 993.716 -1.6769 0.285297 0
M  V30 9944 O 994.901 -1.87846 0.492716 0
M  V30 9945 C 992.031 -3.22972 1.27697 0
M  V30 9946 C 990.985 -3.55041 2.39018 0
M  V30 9947 C 990.311 -4.91965 2.09462 0
M  V30 9948 C 991.611 -3.56889 3.8135 0
M  V30 9949 H 993.305 -1.83396 2.36656 0
M  V30 9950 H 990.851 -0.880926 1.13911 0
M  V30 9951 H 992.804 -4.01503 1.27958 0
M  V30 9952 H 991.528 -3.25233 0.298487 0
M  V30 9953 H 990.187 -2.78845 2.37993 0
M  V30 9954 H 989.835 -4.90819 1.10025 0
M  V30 9955 H 989.535 -5.14389 2.84038 0
M  V30 9956 H 991.059 -5.7284 2.11391 0
M  V30 9957 H 992.473 -4.25476 3.84243 0
M  V30 9958 H 990.87 -3.90836 4.55376 0
M  V30 9959 H 991.94 -2.56452 4.11534 0
M  V30 9960 N 993.283 -1.25346 -0.955304 0
M  V30 9961 C 994.511 -1.12793 -1.73451 0
M  V30 9962 C 994.926 0.318344 -1.86097 0
M  V30 9963 O 994.283 1.21897 -1.35821 0
M  V30 9964 C 994.334 -1.77603 -3.14864 0
M  V30 9965 O 994.055 -3.16577 -3.02837 0
M  V30 9966 C 995.556 -1.70821 -4.09066 0
M  V30 9967 H 992.776 -0.393457 -0.543537 0
M  V30 9968 H 995.32 -1.65696 -1.19855 0
M  V30 9969 H 993.475 -1.28673 -3.65407 0
M  V30 9970 H 993.889 -3.48433 -3.92039 0
M  V30 9971 H 995.363 -2.2083 -5.05903 0
M  V30 9972 H 995.84 -0.671858 -4.34031 0
M  V30 9973 H 996.446 -2.19237 -3.64438 0
M  V30 9974 N 994.761 1.15782 -1.06922 0
M  V30 9975 C 995.693 2.19978 -0.643604 0
M  V30 9976 C 996.706 1.59981 0.301653 0
M  V30 9977 O 997.895 1.78265 0.0916508 0
M  V30 9978 C 994.995 3.38815 0.0757973 0
M  V30 9979 C 994.168 4.28363 -0.884545 0
M  V30 9980 C 993.227 5.25807 -0.203233 0
M  V30 9981 O 992.253 5.62924 -0.842904 0
M  V30 9982 N 993.455 5.70874 1.05279 0
M  V30 9983 H 996.22 2.57112 -1.53992 0
M  V30 9984 H 993.781 1.30855 -0.953344 0
M  V30 9985 H 995.773 4.01052 0.542151 0
M  V30 9986 H 994.343 3.00133 0.874 0
M  V30 9987 H 993.563 3.63292 -1.53012 0
M  V30 9988 H 994.851 4.85067 -1.53581 0
M  V30 9989 H 994.249 5.42822 1.5925 0
M  V30 9990 H 992.806 6.35171 1.46289 0
M  V30 9991 N 996.239 0.8527 1.3254 0
M  V30 9992 C 997.479 0.461385 1.99125 0
M  V30 9993 C 997.843 -0.964507 1.66016 0
M  V30 9994 O 999.044 -1.46027 2.25676 0
M  V30 9995 C 997.315 0.69143 3.50648 0
M  V30 9996 S 998.874 0.397397 4.36997 0
M  V30 9997 H 995.692 0.172933 0.689649 0
M  V30 9998 H 998.294 1.10499 1.61277 0
M  V30 9999 H 996.998 1.72831 3.72233 0
M  V30 10000 H 996.529 0.0341812 3.93385 0
M  V30 10001 H 998.544 -0.777363 4.90073 0
M  V30 10002 N 997.718 -1.45297 0.610449 0
M  V30 10003 C 998.943 -2.07101 0.111414 0
M  V30 10004 C 999.368 -1.45161 -1.19625 0
M  V30 10005 O 998.726 -0.545368 -1.72903 0
M  V30 10006 C 998.774 -3.60598 -0.0117372 0
M  V30 10007 O 997.878 -3.98512 -1.06122 0
M  V30 10008 H 997.219 -0.659709 0.075364 0
M  V30 10009 H 999.749 -1.86504 0.841269 0
M  V30 10010 H 999.759 -4.07464 -0.209028 0
M  V30 10011 H 998.434 -4.05067 0.943076 0
M  V30 10012 H 997.011 -3.63312 -0.840158 0
M  V30 10013 N 999.196 -0.349774 -1.5367 0
M  V30 10014 C 1000.47 0.300419 -1.93279 0
M  V30 10015 C 1000.85 1.67721 -1.28191 0
M  V30 10016 O 1000.2 2.24319 -0.435127 0
M  V30 10017 C 1000.41 0.366466 -3.47071 0
M  V30 10018 C 1001.76 0.614349 -4.20132 0
M  V30 10019 O 1002.78 0.448327 -3.53367 0
M  V30 10020 O 1001.64 0.936421 -5.38417 0
M  V30 10021 H 998.736 0.176599 -0.807924 0
M  V30 10022 H 1001.28 -0.401405 -1.64884 0
M  V30 10023 H 1000.05 -0.599455 -3.86681 0
M  V30 10024 H 999.677 1.11482 -3.81651 0
M  V30 10025 N 1000.67 1.57404 -0.0785433 0
M  V30 10026 C 1001.64 2.11977 0.871693 0
M  V30 10027 C 1002.64 1.04529 1.2219 0
M  V30 10028 O 1003.83 1.30488 1.15406 0
M  V30 10029 C 1000.96 2.6267 2.17296 0
M  V30 10030 H 1002.15 2.97246 0.398115 0
M  V30 10031 H 999.705 1.5537 0.170251 0
M  V30 10032 H 1000.44 1.80873 2.69175 0
M  V30 10033 H 1000.22 3.41214 1.93171 0
M  V30 10034 H 1001.71 3.04943 2.85306 0
M  V30 10035 N 1002.15 -0.195058 1.56388 0
M  V30 10036 C 1003.06 -1.26219 1.97752 0
M  V30 10037 C 1004.08 -1.49801 0.885192 0
M  V30 10038 O 1005.25 -1.62415 1.19094 0
M  V30 10039 C 1002.32 -2.5865 2.3087 0
M  V30 10040 C 1001.38 -2.4314 3.5381 0
M  V30 10041 C 1000.61 -3.69255 3.85339 0
M  V30 10042 O 1000.84 -4.73425 3.18159 0
M  V30 10043 O 999.77 -3.64782 4.78767 0
M  V30 10044 H 1003.6 -0.941161 2.88749 0
M  V30 10045 H 1001.18 -0.40006 1.43944 0
M  V30 10046 H 1003.06 -3.36814 2.53247 0
M  V30 10047 H 1001.74 -2.9038 1.43042 0
M  V30 10048 H 1000.64 -1.63086 3.3668 0
M  V30 10049 H 1001.98 -2.16341 4.42105 0
M  V30 10050 N 1003.63 -1.50653 -0.462772 0
M  V30 10051 C 1004.88 -1.61737 -1.21184 0
M  V30 10052 C 1005.2 -0.32369 -1.92295 0
M  V30 10053 O 1004.47 0.659269 -1.84473 0
M  V30 10054 H 1003.05 -0.596015 -0.450306 0
M  V30 10055 H 1005.71 -1.87469 -0.533051 0
M  V30 10056 H 1004.81 -2.43262 -1.95525 0
M  V30 10057 N 1005.11 0.71652 -1.4037 0
M  V30 10058 C 1006.34 1.50563 -1.4191 0
M  V30 10059 C 1006.75 1.88791 -0.0185456 0
M  V30 10060 O 1006.11 1.55378 0.957289 0
M  V30 10061 C 1006.16 2.78155 -2.30894 0
M  V30 10062 O 1005.88 2.41543 -3.65497 0
M  V30 10063 C 1007.38 3.72057 -2.41016 0
M  V30 10064 H 1004.6 0.464679 -0.48406 0
M  V30 10065 H 1007.15 0.883927 -1.8441 0
M  V30 10066 H 1005.3 3.36611 -1.91759 0
M  V30 10067 H 1005.71 3.23636 -4.12747 0
M  V30 10068 H 1007.19 4.58426 -3.07489 0
M  V30 10069 H 1007.67 4.15098 -1.43492 0
M  V30 10070 H 1008.27 3.19512 -2.80699 0
M  V30 10071 N 1006.59 1.25851 0.948643 0
M  V30 10072 C 1007.55 1.0683 2.0278 0
M  V30 10073 C 1008.55 0.0191016 1.60789 0
M  V30 10074 O 1009.74 0.261836 1.72221 0
M  V30 10075 C 1006.87 0.623318 3.35153 0
M  V30 10076 H 1008.06 2.02635 2.21086 0
M  V30 10077 H 1005.62 1.08343 1.12657 0
M  V30 10078 H 1006.35 -0.337053 3.22544 0
M  V30 10079 H 1006.14 1.38082 3.66982 0
M  V30 10080 H 1007.63 0.511854 4.14451 0
M  V30 10081 N 1008.06 -1.15214 1.07534 0
M  V30 10082 C 1009.31 -1.86319 0.800814 0
M  V30 10083 C 1009.64 -1.82221 -0.671494 0
M  V30 10084 O 1008.92 -1.24664 -1.49295 0
M  V30 10085 C 1009.2 -3.35347 1.31203 0
M  V30 10086 C 1009.05 -3.48067 2.84902 0
M  V30 10087 C 1010.37 -4.3016 0.930064 0
M  V30 10088 H 1007.49 -0.676523 0.292379 0
M  V30 10089 H 1010.13 -1.35349 1.33344 0
M  V30 10090 H 1008.28 -3.78886 0.858949 0
M  V30 10091 H 1009.96 -3.13379 3.38514 0
M  V30 10092 H 1008.2 -2.89566 3.23008 0
M  V30 10093 H 1008.87 -4.52782 3.15741 0
M  V30 10094 H 1011.35 -3.94591 1.3205 0
M  V30 10095 H 1010.22 -5.32914 1.31507 0
M  V30 10096 H 1010.48 -4.41796 -0.163824 0
M  V30 10097 N 1009.54 -0.859717 -1.32086 0
M  V30 10098 C 1010.51 -0.313005 -2.27053 0
M  V30 10099 C 1011.51 0.530191 -1.51808 0
M  V30 10100 O 1012.7 0.340972 -1.7083 0
M  V30 10101 C 1009.83 0.5566 -3.36325 0
M  V30 10102 H 1011.02 -1.15125 -2.76923 0
M  V30 10103 H 1008.57 -0.634463 -1.42843 0
M  V30 10104 H 1009.31 1.41645 -2.91731 0
M  V30 10105 H 1009.09 -0.0470197 -3.92072 0
M  V30 10106 H 1010.58 0.931725 -4.07073 0
M  V30 10107 N 1011.02 1.44971 -0.618145 0
M  V30 10108 C 1012.43 1.85611 -0.201334 0
M  V30 10109 C 1012.78 1.51698 1.24427 0
M  V30 10110 O 1011.91 0.94875 1.94493 0
M  V30 10111 C 1012.5 3.36897 -0.358619 0
M  V30 10112 C 1011.06 3.764 0.00358196 0
M  V30 10113 C 1010.21 2.68881 -0.678118 0
M  V30 10114 H 1013.16 1.35622 -0.824152 0
M  V30 10115 H 1013.18 3.78326 0.406176 0
M  V30 10116 H 1012.69 3.61548 -1.41084 0
M  V30 10117 H 1010.79 3.57365 1.05457 0
M  V30 10118 H 1010.91 4.77449 -0.397427 0
M  V30 10119 H 1009.27 2.54442 -0.114699 0
M  V30 10120 H 1010.05 2.96367 -1.73268 0
M  V30 10121 N 1012.5 0.357919 1.53482 0
M  V30 10122 C 1013.91 -0.122938 1.86295 0
M  V30 10123 C 1014.26 -1.48803 1.27875 0
M  V30 10124 O 1013.39 -2.07978 0.597828 0
M  V30 10125 C 1013.98 -0.229853 3.38019 0
M  V30 10126 C 1012.54 -0.654955 3.70658 0
M  V30 10127 C 1011.69 0.202539 2.76559 0
M  V30 10128 H 1014.64 0.576997 1.47839 0
M  V30 10129 H 1014.66 -1.05481 3.65587 0
M  V30 10130 H 1014.17 0.763825 3.80509 0
M  V30 10131 H 1012.27 -1.65714 3.33721 0
M  V30 10132 H 1012.38 -0.43488 4.77122 0
M  V30 10133 H 1010.75 -0.327388 2.52587 0
M  V30 10134 H 1011.53 1.19361 3.21882 0
M  V30 10135 N 1013.98 -1.5736 0.0868897 0
M  V30 10136 C 1015.2 -1.98388 -0.587349 0
M  V30 10137 C 1015.62 -0.965757 -1.6223 0
M  V30 10138 O 1014.98 0.0456981 -1.82443 0
M  V30 10139 C 1015.03 -3.39479 -1.24242 0
M  V30 10140 O 1014.75 -4.37393 -0.248878 0
M  V30 10141 C 1016.25 -3.95465 -2.00305 0
M  V30 10142 H 1013.47 -0.652111 -0.15809 0
M  V30 10143 H 1016.01 -2.03843 0.163754 0
M  V30 10144 H 1014.17 -3.35063 -1.94451 0
M  V30 10145 H 1014.58 -5.19525 -0.720678 0
M  V30 10146 H 1016.06 -4.96363 -2.41511 0
M  V30 10147 H 1016.53 -3.32832 -2.86565 0
M  V30 10148 H 1017.14 -4.03328 -1.34931 0
M  V30 10149 N 1015.45 0.186762 -1.56489 0
M  V30 10150 C 1016.7 0.907194 -1.81378 0
M  V30 10151 C 1017.03 1.82558 -0.662283 0
M  V30 10152 O 1016.31 1.91564 0.336699 0
M  V30 10153 C 1016.59 1.71624 -3.16571 0
M  V30 10154 C 1016.44 0.822009 -4.42225 0
M  V30 10155 C 1017.76 2.68713 -3.48542 0
M  V30 10156 H 1014.88 0.328366 -0.659806 0
M  V30 10157 H 1017.52 0.174142 -1.892 0
M  V30 10158 H 1015.67 2.34119 -3.10033 0
M  V30 10159 H 1017.35 0.211122 -4.60817 0
M  V30 10160 H 1015.59 0.129178 -4.33608 0
M  V30 10161 H 1016.26 1.42326 -5.33336 0
M  V30 10162 H 1018.74 2.16348 -3.55433 0
M  V30 10163 H 1017.61 3.22397 -4.44242 0
M  V30 10164 H 1017.87 3.48165 -2.72459 0
M  V30 10165 N 1016.93 1.50896 0.454776 0
M  V30 10166 C 1018.16 1.6648 1.22849 0
M  V30 10167 C 1018.58 0.354841 1.85435 0
M  V30 10168 O 1017.93 -0.664931 1.69956 0
M  V30 10169 C 1017.98 2.76787 2.32532 0
M  V30 10170 O 1017.7 4.02706 1.72509 0
M  V30 10171 C 1019.21 3.03488 3.23125 0
M  V30 10172 H 1016.43 0.559152 0.370932 0
M  V30 10173 H 1018.97 1.97215 0.540983 0
M  V30 10174 H 1017.12 2.48701 2.9703 0
M  V30 10175 H 1017.54 4.63834 2.44863 0
M  V30 10176 H 1019.01 3.84294 3.9626 0
M  V30 10177 H 1019.49 2.152 3.82865 0
M  V30 10178 H 1020.1 3.33167 2.64347 0
M  V30 10179 N 1018.41 -0.709066 1.40748 0
M  V30 10180 C 1019.82 -1.28847 1.35112 0
M  V30 10181 C 1020.17 -1.9618 0.0277149 0
M  V30 10182 O 1019.3 -1.97955 -0.874233 0
M  V30 10183 C 1019.89 -2.34306 2.44716 0
M  V30 10184 C 1018.45 -2.87856 2.4252 0
M  V30 10185 C 1017.6 -1.61723 2.25257 0
M  V30 10186 H 1020.55 -0.504742 1.50459 0
M  V30 10187 H 1020.57 -3.15297 2.12998 0
M  V30 10188 H 1020.08 -1.85271 3.41022 0
M  V30 10189 H 1018.18 -3.41103 1.49931 0
M  V30 10190 H 1018.3 -3.39205 3.38344 0
M  V30 10191 H 1016.66 -1.87032 1.7289 0
M  V30 10192 H 1017.44 -1.14703 3.23571 0
M  V30 10193 N 1019.89 -1.26353 -0.941956 0
M  V30 10194 C 1021.14 -1.12017 -1.69056 0
M  V30 10195 C 1021.47 0.335856 -1.91274 0
M  V30 10196 O 1020.74 1.24677 -1.49285 0
M  V30 10197 C 1021.03 -1.88889 -3.06583 0
M  V30 10198 C 1020.88 -3.42394 -2.91696 0
M  V30 10199 C 1022.2 -1.68209 -4.06686 0
M  V30 10200 H 1019.32 -0.408311 -0.613556 0
M  V30 10201 H 1021.96 -1.55339 -1.09407 0
M  V30 10202 H 1020.11 -1.5207 -3.57501 0
M  V30 10203 H 1021.78 -3.88962 -2.48005 0
M  V30 10204 H 1020.02 -3.69459 -2.27338 0
M  V30 10205 H 1020.7 -3.91408 -3.89235 0
M  V30 10206 H 1023.17 -2.00286 -3.64726 0
M  V30 10207 H 1022.05 -2.24412 -5.00929 0
M  V30 10208 H 1022.31 -0.626474 -4.37639 0
M  V30 10209 N 1021.37 1.14642 -1.08144 0
M  V30 10210 C 1022.78 1.6719 -0.830923 0
M  V30 10211 C 1023.13 1.85373 0.642749 0
M  V30 10212 O 1022.25 1.56293 1.49671 0
M  V30 10213 C 1022.85 3.03697 -1.50179 0
M  V30 10214 C 1021.41 3.5329 -1.29858 0
M  V30 10215 C 1020.56 2.28828 -1.5663 0
M  V30 10216 H 1023.51 0.987441 -1.24239 0
M  V30 10217 H 1023.53 3.69023 -0.9275 0
M  V30 10218 H 1023.04 2.90431 -2.57432 0
M  V30 10219 H 1021.14 3.71783 -0.246626 0
M  V30 10220 H 1021.25 4.34231 -2.02436 0
M  V30 10221 H 1019.62 2.34769 -0.987716 0
M  V30 10222 H 1020.4 2.18141 -2.65084 0
M  V30 10223 N 1022.85 0.866709 1.31628 0
M  V30 10224 C 1024.07 0.48956 2.01539 0
M  V30 10225 C 1024.5 -0.909556 1.64647 0
M  V30 10226 O 1023.85 -1.59959 0.853391 0
M  V30 10227 C 1023.9 0.650176 3.5469 0
M  V30 10228 O 1023.01 -0.311908 4.11219 0
M  V30 10229 H 1022.35 0.195144 0.634677 0
M  V30 10230 H 1024.88 1.16923 1.679 0
M  V30 10231 H 1024.89 0.542236 4.04381 0
M  V30 10232 H 1023.56 1.67038 3.80882 0
M  V30 10233 H 1022.14 -0.159197 3.7256 0
M  V30 10234 N 1024.32 -1.44642 0.625825 0
M  V30 10235 C 1025.25 -2.33397 -0.0692188 0
M  V30 10236 C 1026.23 -1.47898 -0.840241 0
M  V30 10237 O 1027.42 -1.7663 -0.807176 0
M  V30 10238 C 1024.55 -3.30888 -1.055 0
M  V30 10239 C 1023.5 -4.26164 -0.395968 0
M  V30 10240 C 1022.83 -5.13483 -1.49128 0
M  V30 10241 C 1024.13 -5.17663 0.694433 0
M  V30 10242 H 1025.82 -2.91763 0.671925 0
M  V30 10243 H 1023.37 -1.40294 0.324573 0
M  V30 10244 H 1025.32 -3.91861 -1.54993 0
M  V30 10245 H 1024.05 -2.7072 -1.82696 0
M  V30 10246 H 1022.71 -3.66516 0.0782691 0
M  V30 10247 H 1022.35 -4.49672 -2.25399 0
M  V30 10248 H 1022.05 -5.78038 -1.05573 0
M  V30 10249 H 1023.58 -5.77327 -1.98813 0
M  V30 10250 H 1024.99 -5.72602 0.282818 0
M  V30 10251 H 1023.39 -5.90793 1.05281 0
M  V30 10252 H 1024.46 -4.58994 1.56372 0
M  V30 10253 N 1025.8 -0.366053 -1.5329 0
M  V30 10254 C 1026.71 0.488111 -2.29466 0
M  V30 10255 C 1027.73 1.09219 -1.35452 0
M  V30 10256 O 1028.9 1.10303 -1.68509 0
M  V30 10257 C 1025.97 1.61202 -3.06944 0
M  V30 10258 C 1025.03 1.03543 -4.16626 0
M  V30 10259 C 1024.26 2.10578 -4.904 0
M  V30 10260 O 1024.49 3.31697 -4.6404 0
M  V30 10261 O 1023.42 1.73609 -5.76319 0
M  V30 10262 H 1027.25 -0.131789 -3.03414 0
M  V30 10263 H 1024.83 -0.130421 -1.4883 0
M  V30 10264 H 1026.71 2.26546 -3.55324 0
M  V30 10265 H 1025.39 2.21732 -2.35832 0
M  V30 10266 H 1024.29 0.345892 -3.72498 0
M  V30 10267 H 1025.63 0.474687 -4.89906 0
M  V30 10268 N 1027.28 1.57312 -0.0952337 0
M  V30 10269 C 1028.24 2.12889 0.849161 0
M  V30 10270 C 1029.24 1.05819 1.21075 0
M  V30 10271 O 1030.43 1.31704 1.14016 0
M  V30 10272 C 1027.56 2.6496 2.14498 0
M  V30 10273 H 1028.76 2.97651 0.366566 0
M  V30 10274 H 1026.31 1.55542 0.153762 0
M  V30 10275 H 1027.05 1.83718 2.67242 0
M  V30 10276 H 1026.83 3.43244 1.89542 0
M  V30 10277 H 1028.32 3.07952 2.82056 0
M  V30 10278 N 1028.76 -0.17846 1.56586 0
M  V30 10279 C 1030.17 -0.741599 1.71339 0
M  V30 10280 C 1030.52 -1.83112 0.704579 0
M  V30 10281 O 1029.64 -2.15975 -0.135557 0
M  V30 10282 C 1030.24 -1.35198 3.10656 0
M  V30 10283 C 1028.8 -1.86202 3.27118 0
M  V30 10284 C 1027.95 -0.738255 2.67292 0
M  V30 10285 H 1030.9 0.0468424 1.58631 0
M  V30 10286 H 1030.92 -2.2216 3.0891 0
M  V30 10287 H 1030.43 -0.558776 3.84056 0
M  V30 10288 H 1028.53 -2.68188 2.58661 0
M  V30 10289 H 1028.64 -2.01237 4.34788 0
M  V30 10290 H 1027.01 -1.15686 2.26912 0
M  V30 10291 H 1027.79 0.0429821 3.43273 0
M  V30 10292 N 1030.24 -1.51135 -0.446768 0
M  V30 10293 C 1031.46 -1.67411 -1.22427 0
M  V30 10294 C 1031.89 -0.367009 -1.84485 0
M  V30 10295 O 1031.24 0.67185 -1.68392 0
M  V30 10296 C 1031.29 -2.78473 -2.29096 0
M  V30 10297 O 1030.4 -2.41419 -3.34351 0
M  V30 10298 H 1029.74 -0.558512 -0.359111 0
M  V30 10299 H 1032.27 -1.97648 -0.5288 0
M  V30 10300 H 1032.28 -3.02277 -2.7403 0
M  V30 10301 H 1030.95 -3.73326 -1.83304 0
M  V30 10302 H 1029.53 -2.28152 -2.9496 0
M  V30 10303 N 1031.71 0.701592 -1.41122 0
M  V30 10304 C 1032.62 1.84548 -1.44841 0
M  V30 10305 C 1033.64 1.70654 -0.339594 0
M  V30 10306 O 1034.82 1.92675 -0.586378 0
M  V30 10307 C 1031.88 3.20477 -1.3227 0
M  V30 10308 C 1030.94 3.46524 -2.53415 0
M  V30 10309 C 1030.17 4.75968 -2.41434 0
M  V30 10310 O 1030.4 5.52037 -1.43566 0
M  V30 10311 O 1029.33 5.02664 -3.31078 0
M  V30 10312 H 1033.16 1.84367 -2.41335 0
M  V30 10313 H 1030.74 0.853863 -1.22595 0
M  V30 10314 H 1032.62 4.01642 -1.2752 0
M  V30 10315 H 1031.3 3.21355 -0.388889 0
M  V30 10316 H 1030.21 2.65313 -2.63742 0
M  V30 10317 H 1031.54 3.50455 -3.45604 0
M  V30 10318 N 1033.19 1.2685 0.935242 0
M  V30 10319 C 1034.12 1.04717 2.0388 0
M  V30 10320 C 1035.14 0.00567507 1.62799 0
M  V30 10321 O 1036.33 0.246408 1.76791 0
M  V30 10322 C 1033.43 0.56496 3.34158 0
M  V30 10323 C 1032.6 1.67704 4.03973 0
M  V30 10324 C 1031.66 1.19186 5.12524 0
M  V30 10325 O 1030.68 1.89008 5.36903 0
M  V30 10326 N 1031.89 0.0434554 5.80484 0
M  V30 10327 H 1034.65 1.99746 2.23431 0
M  V30 10328 H 1032.21 1.18316 1.10512 0
M  V30 10329 H 1034.2 0.224436 4.04077 0
M  V30 10330 H 1032.77 -0.291899 3.11234 0
M  V30 10331 H 1031.99 2.18821 3.27889 0
M  V30 10332 H 1033.28 2.42361 4.47368 0
M  V30 10333 H 1032.68 -0.539502 5.63122 0
M  V30 10334 H 1031.24 -0.237946 6.51366 0
M  V30 10335 N 1034.67 -1.14067 1.0875 0
M  V30 10336 C 1035.63 -2.17453 0.724341 0
M  V30 10337 C 1036.63 -1.58959 -0.242614 0
M  V30 10338 O 1037.82 -1.74186 -0.0217008 0
M  V30 10339 C 1034.96 -3.40828 0.0700236 0
M  V30 10340 H 1036.15 -2.51094 1.63987 0
M  V30 10341 H 1033.7 -1.28775 0.885813 0
M  V30 10342 H 1034.44 -3.1277 -0.857061 0
M  V30 10343 H 1034.22 -3.84551 0.76569 0
M  V30 10344 H 1035.71 -4.17258 -0.168905 0
M  V30 10345 N 1036.15 -0.873678 -1.31166 0
M  V30 10346 C 1037.56 -0.53852 -1.78765 0
M  V30 10347 C 1037.91 0.944765 -1.71955 0
M  V30 10348 O 1037.04 1.73781 -1.28954 0
M  V30 10349 C 1037.63 -0.970749 -3.24595 0
M  V30 10350 C 1036.19 -0.687189 -3.70074 0
M  V30 10351 C 1035.34 -1.16001 -2.51871 0
M  V30 10352 H 1038.29 -1.05903 -1.18196 0
M  V30 10353 H 1038.31 -0.294966 -3.79355 0
M  V30 10354 H 1037.82 -2.05034 -3.29519 0
M  V30 10355 H 1035.92 0.380881 -3.70648 0
M  V30 10356 H 1036.03 -1.26682 -4.62048 0
M  V30 10357 H 1034.4 -0.579663 -2.48016 0
M  V30 10358 H 1035.18 -2.2471 -2.59539 0
M  V30 10359 N 1037.63 1.44308 -0.633487 0
M  V30 10360 C 1038.85 2.06384 -0.146063 0
M  V30 10361 C 1039.27 1.47357 1.18031 0
M  V30 10362 O 1038.63 0.597334 1.72448 0
M  V30 10363 C 1038.68 3.61489 -0.0276722 0
M  V30 10364 O 1038.4 4.18318 -1.3016 0
M  V30 10365 C 1039.9 4.40604 0.488168 0
M  V30 10366 H 1037.12 0.666122 -0.0807632 0
M  V30 10367 H 1039.66 1.85139 -0.868557 0
M  V30 10368 H 1037.82 3.81988 0.645273 0
M  V30 10369 H 1038.23 5.11783 -1.14797 0
M  V30 10370 H 1039.71 5.49545 0.520013 0
M  V30 10371 H 1040.18 4.12218 1.51568 0
M  V30 10372 H 1040.79 4.2503 -0.151608 0
M  V30 10373 N 1039.1 0.374177 1.53094 0
M  V30 10374 C 1040.01 -0.475935 2.29722 0
M  V30 10375 C 1041.03 -1.085 1.36029 0
M  V30 10376 O 1042.21 -1.09408 1.69091 0
M  V30 10377 C 1039.27 -1.59572 3.07795 0
M  V30 10378 C 1038.33 -1.01332 4.17169 0
M  V30 10379 C 1037.57 -2.07975 4.9151 0
M  V30 10380 O 1037.79 -3.29232 4.65793 0
M  V30 10381 O 1036.72 -1.7055 5.77232 0
M  V30 10382 H 1040.55 0.147877 3.0334 0
M  V30 10383 H 1038.13 0.138312 1.48758 0
M  V30 10384 H 1040.02 -2.24658 3.5652 0
M  V30 10385 H 1038.69 -2.20478 2.37005 0
M  V30 10386 H 1037.6 -0.326133 3.72676 0
M  V30 10387 H 1038.93 -0.4487 4.90151 0
M  V30 10388 N 1040.58 -1.57259 0.103575 0
M  V30 10389 C 1041.51 -2.1153 -0.882472 0
M  V30 10390 C 1042.53 -1.05446 -1.24036 0
M  V30 10391 O 1043.72 -1.32867 -1.192 0
M  V30 10392 C 1040.82 -2.58717 -2.18903 0
M  V30 10393 C 1039.99 -3.8873 -2.00519 0
M  V30 10394 C 1039.05 -4.21675 -3.14764 0
M  V30 10395 O 1038.07 -4.90755 -2.88355 0
M  V30 10396 N 1039.28 -3.77757 -4.40772 0
M  V30 10397 H 1042.04 -2.96758 -0.418901 0
M  V30 10398 H 1039.6 -1.61696 -0.0812921 0
M  V30 10399 H 1041.59 -2.77797 -2.94297 0
M  V30 10400 H 1040.16 -1.78454 -2.56657 0
M  V30 10401 H 1039.38 -3.78714 -1.09406 0
M  V30 10402 H 1040.67 -4.73771 -1.85522 0
M  V30 10403 H 1040.07 -3.22011 -4.65108 0
M  V30 10404 H 1038.63 -4.01975 -5.13088 0
M  V30 10405 N 1042.06 0.170153 -1.56679 0
M  V30 10406 C 1043.48 0.521966 -1.50823 0
M  V30 10407 C 1043.68 1.84589 -0.808037 0
M  V30 10408 O 1042.73 2.49791 -0.368891 0
M  V30 10409 C 1044.05 0.553648 -2.95559 0
M  V30 10410 C 1045.59 0.640769 -3.06371 0
M  V30 10411 C 1046.07 0.703332 -4.52567 0
M  V30 10412 N 1047.56 0.76619 -4.56819 0
M  V30 10413 C 1048.29 0.835192 -5.67285 0
M  V30 10414 N 1047.79 0.864957 -6.87379 0
M  V30 10415 N 1049.58 0.874302 -5.55259 0
M  V30 10416 H 1041.73 -0.697952 -2.00605 0
M  V30 10417 H 1044 -0.251787 -0.913952 0
M  V30 10418 H 1043.7 -0.350498 -3.49949 0
M  V30 10419 H 1043.58 1.39973 -3.50268 0
M  V30 10420 H 1045.96 1.53534 -2.52015 0
M  V30 10421 H 1046.05 -0.232008 -2.54746 0
M  V30 10422 H 1045.69 -0.186986 -5.07556 0
M  V30 10423 H 1045.62 1.59227 -5.0195 0
M  V30 10424 H 1048.11 0.751424 -3.70354 0
M  V30 10425 H 1048.42 0.918814 -7.67318 0
M  V30 10426 H 1046.77 0.833215 -6.89987 0
M  V30 10427 H 1049.96 0.848057 -4.60354 0
M  V30 10428 H 1050.13 0.924615 -6.4137 0
M  V30 10429 N 1043.54 1.5137 0.438746 0
M  V30 10430 C 1044.95 1.56462 1.01866 0
M  V30 10431 C 1045.3 0.387244 1.9234 0
M  V30 10432 O 1044.43 -0.496131 2.10636 0
M  V30 10433 C 1045.02 2.83557 1.85421 0
M  V30 10434 C 1043.58 2.91224 2.38464 0
M  V30 10435 C 1042.73 2.51109 1.17641 0
M  V30 10436 H 1045.68 1.57167 0.220072 0
M  V30 10437 H 1045.7 2.6724 2.70857 0
M  V30 10438 H 1045.21 3.69229 1.19546 0
M  V30 10439 H 1043.31 2.09979 3.07798 0
M  V30 10440 H 1043.42 3.94844 2.71358 0
M  V30 10441 H 1041.79 2.04276 1.5213 0
M  V30 10442 H 1042.57 3.39125 0.533785 0
M  V30 10443 N 1045.02 -0.694098 1.41492 0
M  V30 10444 C 1046.26 -1.45127 1.4065 0
M  V30 10445 C 1046.59 -1.94993 0.0170289 0
M  V30 10446 O 1045.86 -1.71799 -0.941372 0
M  V30 10447 H 1044.44 -0.538493 0.51772 0
M  V30 10448 H 1047.1 -0.821441 1.76744 0
M  V30 10449 H 1046.19 -2.31372 2.0946 0
M  V30 10450 N 1046.49 -1.27344 -0.928501 0
M  V30 10451 C 1047.74 -1.13804 -1.67859 0
M  V30 10452 C 1048.07 0.31555 -1.91619 0
M  V30 10453 O 1047.35 1.23087 -1.50599 0
M  V30 10454 C 1047.63 -1.9213 -3.04562 0
M  V30 10455 C 1047.48 -3.45468 -2.88048 0
M  V30 10456 C 1048.8 -1.72513 -4.04879 0
M  V30 10457 H 1045.92 -0.414796 -0.609191 0
M  V30 10458 H 1048.56 -1.5649 -1.07753 0
M  V30 10459 H 1046.71 -1.55853 -3.55868 0
M  V30 10460 H 1048.39 -3.9157 -2.43865 0
M  V30 10461 H 1046.63 -3.71849 -2.23407 0
M  V30 10462 H 1047.3 -3.95515 -3.85061 0
M  V30 10463 H 1049.78 -2.04143 -3.62581 0
M  V30 10464 H 1048.65 -2.29713 -4.98521 0
M  V30 10465 H 1048.91 -0.672856 -4.3695 0
M  V30 10466 N 1047.97 1.13488 -1.09353 0
M  V30 10467 C 1048.9 2.18563 -0.69012 0
M  V30 10468 C 1049.92 1.60585 0.267651 0
M  V30 10469 O 1051.11 1.78419 0.0538176 0
M  V30 10470 C 1048.21 3.389 0.00391255 0
M  V30 10471 C 1047.38 4.2639 -0.975209 0
M  V30 10472 C 1046.44 5.25258 -0.314719 0
M  V30 10473 O 1045.46 5.6101 -0.962119 0
M  V30 10474 N 1046.67 5.72978 0.931458 0
M  V30 10475 H 1049.43 2.53788 -1.59411 0
M  V30 10476 H 1046.99 1.28803 -0.980886 0
M  V30 10477 H 1048.98 4.02112 0.45696 0
M  V30 10478 H 1047.55 3.0192 0.81014 0
M  V30 10479 H 1046.77 3.59964 -1.60684 0
M  V30 10480 H 1048.06 4.817 -1.63836 0
M  V30 10481 H 1047.46 5.46078 1.477 0
M  V30 10482 H 1046.02 6.38131 1.32784 0
M  V30 10483 N 1049.45 0.880621 1.30701 0
M  V30 10484 C 1050.36 0.348034 2.32004 0
M  V30 10485 C 1051.38 -0.547508 1.65162 0
M  V30 10486 O 1052.55 -0.441673 1.96497 0
M  V30 10487 C 1049.62 -0.432585 3.43991 0
M  V30 10488 C 1048.68 0.492189 4.26469 0
M  V30 10489 C 1047.91 -0.25127 5.33108 0
M  V30 10490 O 1048.14 -1.47795 5.5092 0
M  V30 10491 O 1047.07 0.396376 6.00593 0
M  V30 10492 H 1050.9 1.18798 2.79501 0
M  V30 10493 H 1048.48 0.64432 1.34792 0
M  V30 10494 H 1050.36 -0.874733 4.12221 0
M  V30 10495 H 1049.04 -1.2489 2.98637 0
M  V30 10496 H 1047.94 0.983058 3.60953 0
M  V30 10497 H 1049.28 1.27439 4.75416 0
M  V30 10498 N 1050.93 -1.4397 0.641131 0
M  V30 10499 C 1052.17 -2.03826 0.153071 0
M  V30 10500 C 1052.53 -1.4941 -1.20585 0
M  V30 10501 O 1053.73 -2.00832 -1.78661 0
M  V30 10502 C 1052.01 -3.57085 0.149914 0
M  V30 10503 S 1053.56 -4.37956 -0.272065 0
M  V30 10504 H 1050.38 -0.70793 0.0659981 0
M  V30 10505 H 1052.98 -1.76211 0.846761 0
M  V30 10506 H 1051.69 -3.94194 1.14188 0
M  V30 10507 H 1051.22 -3.89326 -0.564703 0
M  V30 10508 H 1053.23 -4.72542 -1.5139 0
M  V30 10509 N 1052.41 -0.382291 -1.52893 0
M  V30 10510 C 1053.64 0.202114 -2.05609 0
M  V30 10511 C 1054.05 1.4164 -1.25438 0
M  V30 10512 O 1053.39 1.81359 -0.292324 0
M  V30 10513 C 1053.45 0.64356 -3.53693 0
M  V30 10514 C 1053.11 -0.456305 -4.54716 0
M  V30 10515 C 1054.11 -1.3115 -5.03086 0
M  V30 10516 C 1051.8 -0.621329 -4.98442 0
M  V30 10517 C 1053.79 -2.3169 -5.938 0
M  V30 10518 C 1051.48 -1.63008 -5.88958 0
M  V30 10519 C 1052.48 -2.47629 -6.36529 0
M  V30 10520 O 1052.16 -3.46781 -7.25257 0
M  V30 10521 H 1051.9 0.0358014 -0.675051 0
M  V30 10522 H 1054.45 -0.543935 -1.98067 0
M  V30 10523 H 1052.68 1.44148 -3.58829 0
M  V30 10524 H 1054.37 1.15284 -3.89184 0
M  V30 10525 H 1055.13 -1.19528 -4.70041 0
M  V30 10526 H 1051.01 0.027593 -4.60992 0
M  V30 10527 H 1054.56 -2.97776 -6.30853 0
M  V30 10528 H 1050.45 -1.74671 -6.21418 0
M  V30 10529 H 1051.22 -3.42707 -7.433 0
M  V30 10530 N 1053.89 1.57202 -0.111913 0
M  V30 10531 C 1054.84 2.11487 0.851897 0
M  V30 10532 C 1055.82 1.03392 1.23284 0
M  V30 10533 O 1057.01 1.29638 1.20511 0
M  V30 10534 C 1054.14 2.71219 2.10464 0
M  V30 10535 C 1053.23 3.86384 1.74838 0
M  V30 10536 N 1053.62 4.93727 1.09852 0
M  V30 10537 C 1051.92 3.96435 2.04341 0
M  V30 10538 C 1052.62 5.74184 0.93209 0
M  V30 10539 N 1051.59 5.23771 1.45482 0
M  V30 10540 H 1055.39 2.91859 0.345791 0
M  V30 10541 H 1052.91 1.62146 0.0907816 0
M  V30 10542 H 1054.91 3.08449 2.80472 0
M  V30 10543 H 1053.57 1.92308 2.61625 0
M  V30 10544 H 1054.58 5.12244 0.763334 0
M  V30 10545 H 1051.25 3.28556 2.57599 0
M  V30 10546 H 1052.64 6.7057 0.422542 0
M  V30 10547 N 1055.36 -0.161842 1.56767 0
M  V30 10548 C 1056.61 -0.875192 1.82167 0
M  V30 10549 C 1056.93 -1.82367 0.690444 0
M  V30 10550 O 1056.2 -1.93756 -0.289023 0
M  V30 10551 H 1054.78 -0.326178 0.672024 0
M  V30 10552 H 1057.44 -0.159392 1.94247 0
M  V30 10553 H 1056.54 -1.44639 2.76561 0
M  V30 10554 N 1056.84 -1.516 -0.430713 0
M  V30 10555 C 1057.79 -1.73975 -1.54387 0
M  V30 10556 C 1058.78 -0.606222 -1.58181 0
M  V30 10557 O 1059.99 -0.787764 -1.61846 0
M  V30 10558 H 1056.36 -0.549811 -0.513041 0
M  V30 10559 H 1058.34 -2.67274 -1.32692 0
M  V30 10560 C 1057.08 -1.88794 -2.9198 0
M  V30 10561 H 1056.41 -2.75425 -2.89795 0
M  V30 10562 H 1057.85 -2.08458 -3.69217 0
M  V30 10563 C 1056.31 -0.649427 -3.30581 0
M  V30 10564 O 1056.84 0.192823 -4.01237 0
M  V30 10565 N 1055.04 -0.491586 -2.86412 0
M  V30 10566 H 1054.59 -1.17806 -2.29084 0
M  V30 10567 H 1054.55 0.33583 -3.12601 0
M  V30 10568 N 1058.32 0.686584 -1.41858 0
M  V30 10569 C 1059.57 1.44379 -1.41418 0
M  V30 10570 C 1059.89 1.94981 -0.0273696 0
M  V30 10571 O 1059.16 1.72296 0.932248 0
M  V30 10572 H 1057.74 0.53574 -0.520568 0
M  V30 10573 H 1060.4 0.812056 -1.77177 0
M  V30 10574 H 1059.5 2.30258 -2.10684 0
M  V30 10575 N 1059.8 1.27835 0.921735 0
M  V30 10576 C 1060.73 1.06874 2.02758 0
M  V30 10577 C 1061.74 0.0229418 1.62784 0
M  V30 10578 O 1062.93 0.265145 1.7652 0
M  V30 10579 C 1060.03 0.60037 3.3354 0
M  V30 10580 C 1059.2 1.71979 4.02172 0
M  V30 10581 C 1058.26 1.24615 5.11231 0
M  V30 10582 O 1057.29 1.94692 5.34868 0
M  V30 10583 N 1058.49 0.105021 5.80405 0
M  V30 10584 H 1061.26 2.02105 2.213 0
M  V30 10585 H 1058.82 1.19481 1.09251 0
M  V30 10586 H 1060.81 0.267281 4.03816 0
M  V30 10587 H 1059.38 -0.258872 3.11526 0
M  V30 10588 H 1058.6 2.22287 3.25549 0
M  V30 10589 H 1059.89 2.47092 4.44773 0
M  V30 10590 H 1059.29 -0.479745 5.63662 0
M  V30 10591 H 1057.84 -0.168846 6.51581 0
M  V30 10592 N 1061.28 -1.12907 1.09954 0
M  V30 10593 C 1062.5 -1.88679 0.861099 0
M  V30 10594 C 1062.93 -1.78853 -0.582499 0
M  V30 10595 O 1062.28 -1.13992 -1.4098 0
M  V30 10596 C 1062.33 -3.36047 1.30785 0
M  V30 10597 O 1061.44 -4.09716 0.469728 0
M  V30 10598 H 1060.78 -0.586447 0.31141 0
M  V30 10599 H 1063.31 -1.42818 1.46507 0
M  V30 10600 H 1063.32 -3.86882 1.29562 0
M  V30 10601 H 1061.99 -3.42516 2.35914 0
M  V30 10602 H 1060.57 -3.6887 0.54674 0
M  V30 10603 N 1062.75 -0.88754 -1.30232 0
M  V30 10604 C 1063.98 -0.521549 -1.99909 0
M  V30 10605 C 1064.39 0.895086 -1.66688 0
M  V30 10606 O 1063.73 1.60053 -0.90159 0
M  V30 10607 C 1063.8 -0.619564 -3.54121 0
M  V30 10608 C 1063.46 -2.00097 -4.10865 0
M  V30 10609 C 1064.46 -2.97068 -4.26669 0
M  V30 10610 C 1062.14 -2.30706 -4.46184 0
M  V30 10611 C 1064.14 -4.2278 -4.77007 0
M  V30 10612 C 1061.82 -3.56663 -4.96221 0
M  V30 10613 C 1062.82 -4.52515 -5.11585 0
M  V30 10614 O 1062.51 -5.76237 -5.60541 0
M  V30 10615 H 1062.24 -0.199904 -0.645766 0
M  V30 10616 H 1064.8 -1.19546 -1.67027 0
M  V30 10617 H 1063.03 0.111334 -3.8654 0
M  V30 10618 H 1064.71 -0.26448 -4.05037 0
M  V30 10619 H 1065.48 -2.74734 -3.99683 0
M  V30 10620 H 1061.36 -1.56865 -4.33491 0
M  V30 10621 H 1064.9 -4.97603 -4.88914 0
M  V30 10622 H 1060.8 -3.78834 -5.22643 0
M  V30 10623 H 1061.57 -5.78655 -5.78879 0
M  V30 10624 N 1064.23 1.43628 -0.648757 0
M  V30 10625 C 1065.65 1.56442 -0.315921 0
M  V30 10626 C 1065.85 1.63322 1.18018 0
M  V30 10627 O 1064.9 1.58585 1.96487 0
M  V30 10628 C 1066.22 2.82751 -1.02335 0
M  V30 10629 C 1067.77 2.96488 -1.00318 0
M  V30 10630 C 1068.24 4.25623 -1.69142 0
M  V30 10631 N 1069.73 4.32477 -1.65885 0
M  V30 10632 C 1070.47 5.31154 -2.16016 0
M  V30 10633 N 1069.96 6.36135 -2.74415 0
M  V30 10634 N 1071.76 5.22778 -2.06541 0
M  V30 10635 H 1063.91 1.37405 -1.61968 0
M  V30 10636 H 1066.17 0.65962 -0.680886 0
M  V30 10637 H 1065.88 2.83714 -2.07844 0
M  V30 10638 H 1065.75 3.72836 -0.572114 0
M  V30 10639 H 1068.14 2.95068 0.0434919 0
M  V30 10640 H 1068.22 2.07704 -1.49307 0
M  V30 10641 H 1067.86 4.27804 -2.73763 0
M  V30 10642 H 1067.79 5.13296 -1.17622 0
M  V30 10643 H 1070.28 3.57232 -1.23264 0
M  V30 10644 H 1070.6 7.07743 -3.10355 0
M  V30 10645 H 1068.94 6.36771 -2.78474 0
M  V30 10646 H 1072.13 4.39678 -1.60625 0
M  V30 10647 H 1072.3 5.99523 -2.45919 0
M  V30 10648 N 1065.71 0.390394 1.52688 0
M  V30 10649 C 1066.96 -0.191067 2.01195 0
M  V30 10650 C 1067.28 -1.47229 1.27862 0
M  V30 10651 O 1066.55 -1.91793 0.399007 0
M  V30 10652 H 1065.13 -0.073596 0.743366 0
M  V30 10653 H 1067.79 0.522334 1.8777 0
M  V30 10654 H 1066.89 -0.40051 3.0952 0
M  V30 10655 N 1067.19 -1.57141 0.120249 0
M  V30 10656 C 1068.42 -1.99589 -0.545136 0
M  V30 10657 C 1068.83 -0.999951 -1.60145 0
M  V30 10658 O 1068.19 0.00698897 -1.82499 0
M  V30 10659 C 1068.24 -3.42038 -1.17014 0
M  V30 10660 O 1067.96 -4.37822 -0.156044 0
M  V30 10661 C 1069.46 -3.99625 -1.91872 0
M  V30 10662 H 1066.68 -0.655318 -0.144222 0
M  V30 10663 H 1069.23 -2.0345 0.206955 0
M  V30 10664 H 1067.38 -3.39113 -1.873 0
M  V30 10665 H 1067.79 -5.20937 -0.610317 0
M  V30 10666 H 1069.27 -5.01374 -2.30928 0
M  V30 10667 H 1069.75 -3.38836 -2.7944 0
M  V30 10668 H 1070.35 -4.061 -1.26345 0
M  V30 10669 N 1068.67 0.153526 -1.5685 0
M  V30 10670 C 1069.9 0.881055 -1.86872 0
M  V30 10671 C 1070.3 1.75547 -0.705692 0
M  V30 10672 O 1069.65 1.8064 0.333888 0
M  V30 10673 C 1069.71 1.79429 -3.11521 0
M  V30 10674 C 1069.37 1.0977 -4.43621 0
M  V30 10675 C 1070.37 0.454693 -5.17908 0
M  V30 10676 C 1068.06 1.08915 -4.9035 0
M  V30 10677 C 1070.05 -0.187562 -6.37124 0
M  V30 10678 C 1067.74 0.443084 -6.09492 0
M  V30 10679 C 1068.73 -0.194154 -6.82724 0
M  V30 10680 O 1068.42 -0.829995 -7.99604 0
M  V30 10681 H 1068.15 0.260486 -0.623797 0
M  V30 10682 H 1070.71 0.153024 -2.04829 0
M  V30 10683 H 1068.94 2.5631 -2.89555 0
M  V30 10684 H 1070.63 2.39321 -3.27842 0
M  V30 10685 H 1071.39 0.453151 -4.82878 0
M  V30 10686 H 1067.27 1.57456 -4.33276 0
M  V30 10687 H 1070.82 -0.685542 -6.94223 0
M  V30 10688 H 1066.71 0.44227 -6.43983 0
M  V30 10689 H 1067.48 -0.731013 -8.15229 0
M  V30 10690 N 1070.14 1.51827 0.422667 0
M  V30 10691 C 1071.37 1.69337 1.19748 0
M  V30 10692 C 1071.79 0.396312 1.83878 0
M  V30 10693 O 1071.15 -0.644976 1.6944 0
M  V30 10694 C 1071.2 2.82082 2.24637 0
M  V30 10695 O 1070.3 2.46708 3.30468 0
M  V30 10696 H 1069.65 0.564154 0.35018 0
M  V30 10697 H 1072.18 1.98465 0.497289 0
M  V30 10698 H 1072.19 3.06599 2.69186 0
M  V30 10699 H 1070.86 3.76195 1.77341 0
M  V30 10700 H 1069.44 2.32815 2.91293 0
M  V30 10701 N 1071.62 -0.679052 1.4222 0
M  V30 10702 C 1072.85 -1.46747 1.45852 0
M  V30 10703 C 1073.27 -1.88675 0.0685937 0
M  V30 10704 O 1072.62 -1.57861 -0.915757 0
M  V30 10705 C 1072.67 -2.71935 2.38188 0
M  V30 10706 O 1072.39 -2.31768 3.71773 0
M  V30 10707 C 1073.9 -3.65536 2.50796 0
M  V30 10708 H 1071.12 -0.451682 0.49621 0
M  V30 10709 H 1073.66 -0.834723 1.86689 0
M  V30 10710 H 1071.81 -3.31409 2.00616 0
M  V30 10711 H 1072.23 -3.12579 4.21182 0
M  V30 10712 H 1073.7 -4.50113 3.19535 0
M  V30 10713 H 1074.18 -4.11148 1.54447 0
M  V30 10714 H 1074.79 -3.11957 2.89072 0
M  V30 10715 N 1073.1 -1.28322 -0.914942 0
M  V30 10716 C 1074.33 -1.18254 -1.69775 0
M  V30 10717 C 1074.74 0.258978 -1.87015 0
M  V30 10718 O 1074.1 1.17514 -1.3963 0
M  V30 10719 C 1074.15 -1.8753 -3.09054 0
M  V30 10720 O 1073.87 -3.26051 -2.92613 0
M  V30 10721 C 1075.37 -1.83749 -4.03424 0
M  V30 10722 H 1072.59 -0.41055 -0.530744 0
M  V30 10723 H 1075.14 -1.69425 -1.14523 0
M  V30 10724 H 1073.29 -1.40233 -3.61128 0
M  V30 10725 H 1073.71 -3.60729 -3.80756 0
M  V30 10726 H 1075.18 -2.36813 -4.98622 0
M  V30 10727 H 1075.66 -0.809601 -4.31674 0
M  V30 10728 H 1076.26 -2.3072 -3.57279 0
M  V30 10729 N 1074.58 1.12322 -1.10551 0
M  V30 10730 C 1075.82 1.8413 -0.849932 0
M  V30 10731 C 1076.16 1.83938 0.622946 0
M  V30 10732 O 1075.43 1.28579 1.45937 0
M  V30 10733 C 1075.72 3.31751 -1.40048 0
M  V30 10734 C 1075.57 3.40391 -2.9403 0
M  V30 10735 C 1076.89 4.27543 -1.04379 0
M  V30 10736 H 1074.01 0.668533 -0.310213 0
M  V30 10737 H 1076.65 1.31766 -1.36886 0
M  V30 10738 H 1074.8 3.76475 -0.959102 0
M  V30 10739 H 1076.47 3.04294 -3.46703 0
M  V30 10740 H 1074.71 2.809 -3.30571 0
M  V30 10741 H 1075.38 4.44252 -3.27635 0
M  V30 10742 H 1077.86 3.90951 -1.42466 0
M  V30 10743 H 1076.74 5.2924 -1.4559 0
M  V30 10744 H 1077 4.42075 0.0466316 0
M  V30 10745 N 1076.06 0.894434 1.2976 0
M  V30 10746 C 1077.28 0.532916 1.99919 0
M  V30 10747 C 1077.7 -0.881022 1.66983 0
M  V30 10748 O 1077.06 -1.58076 0.912035 0
M  V30 10749 C 1077.11 0.70936 3.54472 0
M  V30 10750 O 1076.83 2.06764 3.86239 0
M  V30 10751 C 1078.33 0.352089 4.419 0
M  V30 10752 H 1075.55 0.205019 0.638912 0
M  V30 10753 H 1078.09 1.20233 1.65421 0
M  V30 10754 H 1076.25 0.0871901 3.87302 0
M  V30 10755 H 1076.66 2.09315 4.80924 0
M  V30 10756 H 1078.14 0.526405 5.49484 0
M  V30 10757 H 1078.61 -0.710527 4.33415 0
M  V30 10758 H 1079.22 0.950979 4.14532 0
M  V30 10759 N 1077.53 -1.43282 0.656365 0
M  V30 10760 C 1078.78 -2.01378 0.170702 0
M  V30 10761 C 1079.1 -1.52063 -1.22073 0
M  V30 10762 O 1078.37 -0.73456 -1.81607 0
M  V30 10763 H 1076.95 -0.744577 0.0601168 0
M  V30 10764 H 1079.62 -1.75449 0.848739 0
M  V30 10765 H 1078.71 -3.11701 0.157745 0
M  V30 10766 N 1079.01 -0.398486 -1.52479 0
M  V30 10767 C 1080.43 -0.0488635 -1.59525 0
M  V30 10768 C 1080.63 1.43756 -1.41197 0
M  V30 10769 O 1079.69 2.20317 -1.23357 0
M  V30 10770 C 1081 -0.534262 -2.95916 0
M  V30 10771 C 1082.55 -0.491314 -3.0912 0
M  V30 10772 C 1083.02 -0.953049 -4.47974 0
M  V30 10773 N 1084.51 -0.909434 -4.54184 0
M  V30 10774 C 1085.25 -1.23801 -5.59876 0
M  V30 10775 N 1084.74 -1.63752 -6.73169 0
M  V30 10776 N 1086.54 -1.15867 -5.50028 0
M  V30 10777 H 1078.69 -1.36608 -1.62641 0
M  V30 10778 H 1080.95 -0.560515 -0.764544 0
M  V30 10779 H 1080.66 -1.57277 -3.14574 0
M  V30 10780 H 1080.53 0.0617787 -3.77149 0
M  V30 10781 H 1082.92 0.538123 -2.90152 0
M  V30 10782 H 1083 -1.12327 -2.29818 0
M  V30 10783 H 1082.64 -1.98076 -4.67684 0
M  V30 10784 H 1082.57 -0.298007 -5.25756 0
M  V30 10785 H 1085.06 -0.615569 -3.72853 0
M  V30 10786 H 1085.38 -1.87163 -7.49793 0
M  V30 10787 H 1083.72 -1.67647 -6.74477 0
M  V30 10788 H 1086.91 -0.845502 -4.60401 0
M  V30 10789 H 1087.09 -1.41805 -6.32294 0
M  V30 10790 N 1080.49 1.57075 -0.12858 0
M  V30 10791 C 1081.72 1.99876 0.534544 0
M  V30 10792 C 1082.13 1.00843 1.59612 0
M  V30 10793 O 1081.49 0.00268947 1.825 0
M  V30 10794 C 1081.54 3.42654 1.15198 0
M  V30 10795 O 1081.26 4.37899 0.132823 0
M  V30 10796 C 1082.76 4.00637 1.8975 0
M  V30 10797 H 1079.98 0.656073 0.140744 0
M  V30 10798 H 1082.53 2.03337 -0.217742 0
M  V30 10799 H 1080.68 3.40101 1.85499 0
M  V30 10800 H 1081.1 5.21253 0.582682 0
M  V30 10801 H 1082.57 5.02592 2.28266 0
M  V30 10802 H 1083.05 3.40313 2.7764 0
M  V30 10803 H 1083.65 4.06764 1.2419 0
M  V30 10804 N 1081.97 -0.145205 1.5693 0
M  V30 10805 C 1083.21 -0.863709 1.85255 0
M  V30 10806 C 1083.57 -1.78266 0.713112 0
M  V30 10807 O 1084.77 -2.54075 0.877459 0
M  V30 10808 C 1083.05 -1.61628 3.18765 0
M  V30 10809 S 1084.6 -2.37996 3.68651 0
M  V30 10810 H 1081.42 -0.288792 0.649708 0
M  V30 10811 H 1084.02 -0.123603 1.95109 0
M  V30 10812 H 1082.73 -0.932688 3.99661 0
M  V30 10813 H 1082.26 -2.39726 3.11921 0
M  V30 10814 H 1084.27 -3.63223 3.38058 0
M  V30 10815 N 1083.45 -1.52049 -0.414609 0
M  V30 10816 C 1084.38 -1.7122 -1.52369 0
M  V30 10817 C 1085.39 -0.592634 -1.5163 0
M  V30 10818 O 1086.58 -0.867634 -1.55995 0
M  V30 10819 C 1083.68 -1.73247 -2.91271 0
M  V30 10820 C 1082.85 -3.02153 -3.16263 0
M  V30 10821 C 1081.91 -2.96066 -4.35007 0
M  V30 10822 O 1080.94 -3.69981 -4.32554 0
M  V30 10823 N 1082.14 -2.13478 -5.39822 0
M  V30 10824 H 1084.91 -2.66902 -1.3632 0
M  V30 10825 H 1082.47 -1.50218 -0.603842 0
M  V30 10826 H 1084.46 -1.66714 -3.68766 0
M  V30 10827 H 1083.03 -0.85062 -3.00804 0
M  V30 10828 H 1082.25 -3.22379 -2.2686 0
M  V30 10829 H 1083.54 -3.87439 -3.29801 0
M  V30 10830 H 1082.94 -1.52844 -5.44661 0
M  V30 10831 H 1081.49 -2.12805 -6.16082 0
M  V30 10832 N 1084.93 0.6715 -1.42579 0
M  V30 10833 C 1085.89 1.76676 -1.46008 0
M  V30 10834 C 1086.89 1.57007 -0.347213 0
M  V30 10835 O 1088.08 1.63238 -0.608185 0
M  V30 10836 C 1085.21 3.15348 -1.29494 0
M  V30 10837 H 1086.4 1.75021 -2.43531 0
M  V30 10838 H 1083.96 0.881444 -1.29075 0
M  V30 10839 H 1084.69 3.22626 -0.32906 0
M  V30 10840 H 1084.48 3.31028 -2.10149 0
M  V30 10841 H 1085.97 3.95251 -1.34784 0
M  V30 10842 N 1086.4 1.28806 0.908124 0
M  V30 10843 C 1087.65 1.17469 1.6605 0
M  V30 10844 C 1088 -0.272864 1.90455 0
M  V30 10845 O 1087.3 -1.19476 1.49787 0
M  V30 10846 C 1087.49 1.91267 3.01914 0
M  V30 10847 C 1087.32 3.43051 2.90769 0
M  V30 10848 C 1086.09 4.12395 2.9199 0
M  V30 10849 C 1088.29 4.38696 2.68422 0
M  V30 10850 N 1086.27 5.50604 2.71493 0
M  V30 10851 C 1087.64 5.64307 2.56823 0
M  V30 10852 C 1089.7 4.28557 2.53463 0
M  V30 10853 C 1088.4 6.80931 2.31789 0
M  V30 10854 C 1090.43 5.44923 2.2981 0
M  V30 10855 C 1089.79 6.69501 2.1897 0
M  V30 10856 H 1085.89 0.484813 0.61358 0
M  V30 10857 H 1088.47 1.62528 1.07204 0
M  V30 10858 H 1086.64 1.48634 3.58835 0
M  V30 10859 H 1088.37 1.72267 3.66205 0
M  V30 10860 H 1085.13 3.64024 3.02958 0
M  V30 10861 H 1085.55 6.23269 2.6432 0
M  V30 10862 H 1090.19 3.32944 2.60592 0
M  V30 10863 H 1087.91 7.76607 2.23399 0
M  V30 10864 H 1091.5 5.38971 2.19092 0
M  V30 10865 H 1090.38 7.58025 2.00918 0
M  V30 10866 N 1087.88 -1.11734 1.11145 0
M  V30 10867 C 1089.11 -1.87755 0.881062 0
M  V30 10868 C 1089.53 -1.79461 -0.563496 0
M  V30 10869 O 1088.89 -1.15481 -1.39763 0
M  V30 10870 C 1088.94 -3.34641 1.34342 0
M  V30 10871 O 1088.04 -4.09195 0.513157 0
M  V30 10872 H 1087.38 -0.583111 0.317613 0
M  V30 10873 H 1089.91 -1.41256 1.48013 0
M  V30 10874 H 1089.92 -3.85486 1.33658 0
M  V30 10875 H 1088.6 -3.39994 2.39534 0
M  V30 10876 H 1087.17 -3.68269 0.585833 0
M  V30 10877 N 1089.36 -0.901303 -1.29284 0
M  V30 10878 C 1090.58 -0.542823 -2.0017 0
M  V30 10879 C 1091.01 0.865583 -1.67001 0
M  V30 10880 O 1090.37 1.5764 -0.895502 0
M  V30 10881 C 1090.42 -0.743987 -3.52842 0
M  V30 10882 O 1089.52 0.202771 -4.11901 0
M  V30 10883 H 1088.86 -0.211903 -0.62928 0
M  V30 10884 H 1091.39 -1.21333 -1.64741 0
M  V30 10885 H 1091.4 -0.64926 -4.02801 0
M  V30 10886 H 1090.08 -1.77077 -3.7632 0
M  V30 10887 H 1088.65 0.0603637 -3.72851 0
M  V30 10888 N 1090.84 1.42931 -0.663954 0
M  V30 10889 C 1091.77 2.28089 0.0710318 0
M  V30 10890 C 1092.75 1.40446 0.819375 0
M  V30 10891 O 1093.93 1.69887 0.816738 0
M  V30 10892 C 1091.06 3.20079 1.10756 0
M  V30 10893 C 1090.11 4.24055 0.456045 0
M  V30 10894 S 1090.94 5.29813 -0.778356 0
M  V30 10895 C 1092.09 6.25371 0.257373 0
M  V30 10896 H 1092.33 2.90078 -0.651315 0
M  V30 10897 H 1089.86 1.47601 -0.453137 0
M  V30 10898 H 1091.82 3.7362 1.70055 0
M  V30 10899 H 1090.48 2.57248 1.80229 0
M  V30 10900 H 1089.67 4.88564 1.23779 0
M  V30 10901 H 1089.27 3.73947 -0.0630832 0
M  V30 10902 H 1091.57 6.68172 1.12037 0
M  V30 10903 H 1092.51 7.0722 -0.352969 0
M  V30 10904 H 1092.92 5.61324 0.597991 0
M  V30 10905 N 1092.32 0.406567 1.52266 0
M  V30 10906 C 1093.54 -0.169624 2.06204 0
M  V30 10907 C 1093.96 -1.39076 1.27684 0
M  V30 10908 O 1093.32 -1.79528 0.328023 0
M  V30 10909 C 1093.37 -0.522611 3.57702 0
M  V30 10910 O 1093.09 0.650028 4.33251 0
M  V30 10911 C 1094.59 -1.15281 4.28048 0
M  V30 10912 H 1091.81 -0.0215191 0.670655 0
M  V30 10913 H 1094.35 0.576781 1.96198 0
M  V30 10914 H 1092.51 -1.21891 3.67725 0
M  V30 10915 H 1092.92 0.355989 5.23291 0
M  V30 10916 H 1094.4 -1.35002 5.35237 0
M  V30 10917 H 1094.87 -2.12517 3.84361 0
M  V30 10918 H 1095.48 -0.496786 4.22389 0
M  V30 10919 N 1093.79 -1.57004 0.136909 0
M  V30 10920 C 1095.21 -1.82675 -0.385577 0
M  V30 10921 C 1095.56 -1.05508 -1.65416 0
M  V30 10922 O 1094.68 -0.297207 -2.14349 0
M  V30 10923 C 1095.28 -3.31356 -0.706326 0
M  V30 10924 C 1093.84 -3.57644 -1.17337 0
M  V30 10925 C 1092.98 -2.7664 -0.191239 0
M  V30 10926 H 1095.93 -1.54522 0.36177 0
M  V30 10927 H 1095.95 -3.4696 -1.56201 0
M  V30 10928 H 1095.47 -3.87492 0.217147 0
M  V30 10929 H 1093.57 -3.06883 -2.11313 0
M  V30 10930 H 1093.68 -4.66152 -1.10632 0
M  V30 10931 H 1092.04 -2.45403 -0.681867 0
M  V30 10932 H 1092.83 -3.35543 0.725647 0
M  V30 10933 N 1095.27 0.136881 -1.57004 0
M  V30 10934 C 1096.22 1.17411 -1.95445 0
M  V30 10935 C 1097.21 1.38019 -0.827015 0
M  V30 10936 O 1098.4 1.39412 -1.09057 0
M  V30 10937 C 1095.53 2.50525 -2.34717 0
M  V30 10938 C 1094.61 2.33467 -3.54054 0
M  V30 10939 N 1095 1.86184 -4.70286 0
M  V30 10940 C 1093.3 2.64185 -3.59336 0
M  V30 10941 C 1094 1.82411 -5.5236 0
M  V30 10942 N 1092.98 2.26098 -4.94349 0
M  V30 10943 H 1096.78 0.8008 -2.8278 0
M  V30 10944 H 1094.3 0.344831 -1.58697 0
M  V30 10945 H 1096.29 3.2552 -2.60465 0
M  V30 10946 H 1094.95 2.8863 -1.48738 0
M  V30 10947 H 1095.96 1.55998 -4.93847 0
M  V30 10948 H 1092.64 3.06096 -2.83922 0
M  V30 10949 H 1094.03 1.4726 -6.55564 0
M  V30 10950 N 1096.75 1.52266 0.40654 0
M  V30 10951 C 1097.98 1.70598 1.17945 0
M  V30 10952 C 1098.4 0.415793 1.83447 0
M  V30 10953 O 1097.76 -0.626968 1.70114 0
M  V30 10954 C 1097.81 2.84449 2.21633 0
M  V30 10955 O 1096.91 2.50199 3.27833 0
M  V30 10956 H 1096.25 0.567837 0.344177 0
M  V30 10957 H 1098.78 1.98981 0.476211 0
M  V30 10958 H 1098.79 3.09436 2.65919 0
M  V30 10959 H 1097.47 3.78055 1.73341 0
M  V30 10960 H 1096.04 2.35892 2.88807 0
M  V30 10961 N 1098.23 -0.663929 1.42933 0
M  V30 10962 C 1099.18 -1.77007 1.4371 0
M  V30 10963 C 1100.16 -1.57945 0.306948 0
M  V30 10964 O 1101.35 -1.68239 0.549967 0
M  V30 10965 C 1098.48 -3.15535 1.3525 0
M  V30 10966 C 1097.57 -3.40183 2.53252 0
M  V30 10967 N 1097.96 -3.35357 3.78641 0
M  V30 10968 C 1096.26 -3.70861 2.47746 0
M  V30 10969 C 1096.96 -3.5979 4.57085 0
M  V30 10970 N 1095.94 -3.81084 3.87655 0
M  V30 10971 H 1099.74 -1.71686 2.3854 0
M  V30 10972 H 1097.25 -0.865191 1.37434 0
M  V30 10973 H 1099.25 -3.94816 1.33888 0
M  V30 10974 H 1097.91 -3.22046 0.414308 0
M  V30 10975 H 1098.92 -3.15011 4.11082 0
M  V30 10976 H 1095.6 -3.84552 1.62561 0
M  V30 10977 H 1096.99 -3.61928 5.6609 0
M  V30 10978 N 1099.71 -1.29285 -0.901281 0
M  V30 10979 C 1100.93 -1.20169 -1.69039 0
M  V30 10980 C 1101.36 0.234509 -1.86632 0
M  V30 10981 O 1100.71 1.16935 -1.38549 0
M  V30 10982 C 1100.76 -1.91852 -3.05328 0
M  V30 10983 O 1099.87 -1.23448 -3.9349 0
M  V30 10984 H 1099.21 -0.416486 -0.517141 0
M  V30 10985 H 1101.74 -1.70826 -1.12603 0
M  V30 10986 H 1101.75 -2.00244 -3.5548 0
M  V30 10987 H 1100.42 -2.96313 -2.91841 0
M  V30 10988 H 1099 -1.23303 -3.51924 0
M  V30 10989 N 1101.18 1.11143 -1.11736 0
M  V30 10990 C 1102.6 1.34962 -0.851905 0
M  V30 10991 C 1102.8 1.94627 0.521797 0
M  V30 10992 O 1101.86 2.18121 1.27198 0
M  V30 10993 C 1103.17 2.27832 -1.96248 0
M  V30 10994 C 1104.72 2.41388 -1.9925 0
M  V30 10995 C 1105.19 3.37582 -3.09519 0
M  V30 10996 N 1106.68 3.45147 -3.08914 0
M  V30 10997 C 1107.42 4.19527 -3.90876 0
M  V30 10998 N 1106.91 4.96858 -4.82809 0
M  V30 10999 N 1108.71 4.15071 -3.79042 0
M  V30 11000 H 1100.86 0.707801 -2.0026 0
M  V30 11001 H 1103.12 0.374172 -0.871033 0
M  V30 11002 H 1102.83 1.91189 -2.95194 0
M  V30 11003 H 1102.7 3.28078 -1.86132 0
M  V30 11004 H 1105.09 2.77304 -1.00928 0
M  V30 11005 H 1105.17 1.40983 -2.13442 0
M  V30 11006 H 1104.81 3.02393 -4.0807 0
M  V30 11007 H 1104.74 4.37849 -2.92568 0
M  V30 11008 H 1107.23 2.89991 -2.42309 0
M  V30 11009 H 1107.55 5.5099 -5.41876 0
M  V30 11010 H 1105.89 4.96008 -4.86828 0
M  V30 11011 H 1109.08 3.53748 -3.06562 0
M  V30 11012 H 1109.26 4.72781 -4.4315 0
M  V30 11013 N 1102.66 0.908147 1.28804 0
M  V30 11014 C 1103.89 0.55409 1.99343 0
M  V30 11015 C 1104.31 -0.863262 1.67908 0
M  V30 11016 O 1103.66 -1.571 0.92875 0
M  V30 11017 C 1103.71 0.746916 3.537 0
M  V30 11018 O 1103.43 2.10849 3.84024 0
M  V30 11019 C 1104.94 0.398939 4.41501 0
M  V30 11020 H 1102.16 0.211784 0.636701 0
M  V30 11021 H 1104.7 1.21981 1.64137 0
M  V30 11022 H 1102.85 0.128264 3.87188 0
M  V30 11023 H 1103.27 2.14404 4.78676 0
M  V30 11024 H 1104.74 0.584656 5.48895 0
M  V30 11025 H 1105.22 -0.664517 4.34144 0
M  V30 11026 H 1105.83 0.994892 4.135 0
M  V30 11027 N 1104.14 -1.42577 0.671525 0
M  V30 11028 C 1105.55 -1.84736 0.270084 0
M  V30 11029 C 1105.9 -1.56212 -1.18711 0
M  V30 11030 O 1105.03 -1.02028 -1.90838 0
M  V30 11031 C 1105.62 -3.35334 0.483409 0
M  V30 11032 C 1104.18 -3.76154 0.136119 0
M  V30 11033 C 1103.33 -2.66179 0.777444 0
M  V30 11034 H 1106.28 -1.3247 0.873919 0
M  V30 11035 H 1106.3 -3.79573 -0.265483 0
M  V30 11036 H 1105.81 -3.56063 1.54405 0
M  V30 11037 H 1103.91 -3.61033 -0.921209 0
M  V30 11038 H 1104.03 -4.75645 0.574356 0
M  V30 11039 H 1102.39 -2.53841 0.209055 0
M  V30 11040 H 1103.17 -2.89732 1.84148 0
M  V30 11041 N 1105.62 -0.414636 -1.52048 0
M  V30 11042 C 1106.53 0.414861 -2.30903 0
M  V30 11043 C 1107.54 1.04855 -1.38858 0
M  V30 11044 O 1108.72 1.04886 -1.71933 0
M  V30 11045 C 1105.79 1.51356 -3.11917 0
M  V30 11046 C 1104.85 0.902359 -4.19709 0
M  V30 11047 C 1104.08 1.9487 -4.96852 0
M  V30 11048 O 1104.3 3.16766 -4.74358 0
M  V30 11049 O 1103.24 1.55186 -5.8155 0
M  V30 11050 H 1107.06 -0.228251 -3.02841 0
M  V30 11051 H 1104.65 -0.177704 -1.48339 0
M  V30 11052 H 1106.53 2.15127 -3.62351 0
M  V30 11053 H 1105.2 2.14117 -2.42767 0
M  V30 11054 H 1104.11 0.22721 -3.73409 0
M  V30 11055 H 1105.44 0.318587 -4.91168 0
M  V30 11056 N 1107.1 1.56929 -0.145233 0
M  V30 11057 C 1108.33 2.00141 0.51257 0
M  V30 11058 C 1108.73 1.0243 1.59075 0
M  V30 11059 O 1108.08 0.0130063 1.83695 0
M  V30 11060 C 1108.14 3.39785 1.17417 0
M  V30 11061 C 1107.8 4.56365 0.240801 0
M  V30 11062 C 1108.8 5.17183 -0.530847 0
M  V30 11063 C 1106.49 5.02093 0.144221 0
M  V30 11064 C 1108.48 6.22136 -1.38654 0
M  V30 11065 C 1106.17 6.06902 -0.71508 0
M  V30 11066 C 1107.16 6.66793 -1.47907 0
M  V30 11067 O 1106.85 7.69573 -2.32405 0
M  V30 11068 H 1106.58 0.661747 0.138085 0
M  V30 11069 H 1109.14 2.04037 -0.236269 0
M  V30 11070 H 1107.37 3.32722 1.97061 0
M  V30 11071 H 1109.06 3.67115 1.73152 0
M  V30 11072 H 1109.82 4.82754 -0.466256 0
M  V30 11073 H 1105.7 4.55206 0.728613 0
M  V30 11074 H 1109.25 6.68812 -1.98333 0
M  V30 11075 H 1105.14 6.40758 -0.78097 0
M  V30 11076 H 1105.91 7.86786 -2.25634 0
M  V30 11077 N 1108.58 -0.128553 1.57075 0
M  V30 11078 C 1109.81 -0.851214 1.8825 0
M  V30 11079 C 1110.21 -1.74402 0.733531 0
M  V30 11080 O 1109.56 -1.81149 -0.305108 0
M  V30 11081 C 1109.62 -1.74451 3.14336 0
M  V30 11082 C 1109.28 -1.02699 4.45311 0
M  V30 11083 C 1110.28 -0.37224 5.18566 0
M  V30 11084 C 1107.96 -1.01101 4.9202 0
M  V30 11085 C 1109.96 0.2889 6.36745 0
M  V30 11086 C 1107.65 -0.346063 6.10119 0
M  V30 11087 C 1108.64 0.302744 6.82329 0
M  V30 11088 O 1108.33 0.9571 7.98182 0
M  V30 11089 H 1108.06 -0.250529 0.627863 0
M  V30 11090 H 1110.62 -0.120418 2.05047 0
M  V30 11091 H 1108.85 -2.51671 2.93596 0
M  V30 11092 H 1110.54 -2.34075 3.31608 0
M  V30 11093 H 1111.3 -0.376271 4.83538 0
M  V30 11094 H 1107.18 -1.50543 4.35727 0
M  V30 11095 H 1110.73 0.795901 6.93045 0
M  V30 11096 H 1106.62 -0.339762 6.44605 0
M  V30 11097 H 1107.39 0.860616 8.13963 0
M  V30 11098 N 1110.05 -1.5248 -0.398459 0
M  V30 11099 C 1111.46 -1.59107 -0.976817 0
M  V30 11100 C 1111.82 -0.438104 -1.91246 0
M  V30 11101 O 1110.94 0.440111 -2.11877 0
M  V30 11102 C 1111.54 -2.88373 -1.77838 0
M  V30 11103 C 1110.09 -2.97445 -2.30659 0
M  V30 11104 C 1109.24 -2.5414 -1.10942 0
M  V30 11105 H 1112.19 -1.57695 -0.178324 0
M  V30 11106 H 1112.21 -2.74327 -2.63676 0
M  V30 11107 H 1111.73 -3.72269 -1.09714 0
M  V30 11108 H 1109.83 -2.18066 -3.02123 0
M  V30 11109 H 1109.94 -4.019 -2.60794 0
M  V30 11110 H 1108.3 -2.08237 -1.46661 0
M  V30 11111 H 1109.09 -3.40421 -0.443684 0
M  V30 11112 N 1111.53 0.65634 -1.43283 0
M  V30 11113 C 1112.48 1.79058 -1.48462 0
M  V30 11114 C 1113.47 1.65563 -0.358512 0
M  V30 11115 O 1114.68 1.71947 -0.532365 0
M  V30 11116 H 1111.05 0.590716 -0.465358 0
M  V30 11117 H 1113.03 1.7181 -2.43975 0
M  V30 11118 C 1111.77 3.17304 -1.42175 0
M  V30 11119 H 1111.1 3.28324 -2.2813 0
M  V30 11120 H 1112.54 3.96633 -1.4986 0
M  V30 11121 C 1111 3.36613 -0.138929 0
M  V30 11122 O 1111.53 3.93633 0.80101 0
M  V30 11123 N 1109.73 2.90557 -0.0501237 0
M  V30 11124 H 1109.28 2.4434 -0.815821 0
M  V30 11125 H 1109.24 3.03853 0.807504 0
M  V30 11126 N 1113.01 1.29761 0.894412 0
M  V30 11127 C 1113.97 1.15335 1.98067 0
M  V30 11128 C 1114.97 0.0872804 1.60563 0
M  V30 11129 O 1116.16 0.334645 1.70955 0
M  V30 11130 C 1113.29 0.764907 3.32208 0
M  V30 11131 H 1114.49 2.11829 2.12293 0
M  V30 11132 H 1112.04 1.13023 1.0796 0
M  V30 11133 H 1112.78 -0.199948 3.23683 0
M  V30 11134 H 1112.56 1.53523 3.60795 0
M  V30 11135 H 1114.05 0.687176 4.11907 0
M  V30 11136 N 1114.49 -1.10549 1.12324 0
M  V30 11137 C 1115.74 -1.82124 0.876083 0
M  V30 11138 C 1116.06 -1.85547 -0.599761 0
M  V30 11139 O 1115.33 -1.33269 -1.43584 0
M  V30 11140 H 1113.91 -0.674455 0.321122 0
M  V30 11141 H 1116.57 -1.33766 1.41748 0
M  V30 11142 H 1115.66 -2.85688 1.25653 0
M  V30 11143 N 1115.97 -0.914965 -1.28321 0
M  V30 11144 C 1116.9 -0.421292 -2.29668 0
M  V30 11145 C 1117.88 0.511743 -1.6222 0
M  V30 11146 O 1119.06 0.419218 -1.89621 0
M  V30 11147 C 1116.19 0.338364 -3.45648 0
M  V30 11148 C 1115.15 -0.505646 -4.25003 0
M  V30 11149 C 1114.47 0.382421 -5.33331 0
M  V30 11150 C 1115.77 -1.76354 -4.91626 0
M  V30 11151 H 1117.47 -1.26826 -2.71211 0
M  V30 11152 H 1115.01 -0.611291 -1.30381 0
M  V30 11153 H 1116.96 0.694578 -4.15636 0
M  V30 11154 H 1115.69 1.21925 -3.02988 0
M  V30 11155 H 1114.35 -0.844395 -3.56743 0
M  V30 11156 H 1114 1.26189 -4.86914 0
M  V30 11157 H 1113.7 -0.17871 -5.87328 0
M  V30 11158 H 1115.22 0.73449 -6.06166 0
M  V30 11159 H 1116.63 -1.47616 -5.5397 0
M  V30 11160 H 1115.03 -2.26717 -5.55625 0
M  V30 11161 H 1116.1 -2.49063 -4.16048 0
M  V30 11162 N 1117.44 1.42219 -0.679077 0
M  V30 11163 C 1118.69 2.00703 -0.200309 0
M  V30 11164 C 1119.01 1.54339 1.20161 0
M  V30 11165 O 1120.21 2.0527 1.77698 0
M  V30 11166 C 1118.67 3.58586 -0.307248 0
M  V30 11167 C 1118.28 4.13937 -1.71349 0
M  V30 11168 C 1120.02 4.24351 0.112588 0
M  V30 11169 C 1117.93 5.64198 -1.77297 0
M  V30 11170 H 1116.86 0.750638 -0.0711279 0
M  V30 11171 H 1119.51 1.62893 -0.844881 0
M  V30 11172 H 1117.89 3.93921 0.40529 0
M  V30 11173 H 1119.06 3.90054 -2.45346 0
M  V30 11174 H 1117.38 3.60639 -2.08155 0
M  V30 11175 H 1119.98 5.34627 0.0883578 0
M  V30 11176 H 1120.32 4.00142 1.14857 0
M  V30 11177 H 1120.85 3.93992 -0.549093 0
M  V30 11178 H 1117.59 5.93211 -2.78892 0
M  V30 11179 H 1117.11 5.90058 -1.07662 0
M  V30 11180 H 1118.79 6.2869 -1.52835 0
M  V30 11181 N 1118.92 0.422693 1.51826 0
M  V30 11182 C 1119.85 -0.440987 2.23899 0
M  V30 11183 C 1120.83 -1.03685 1.25252 0
M  V30 11184 O 1122.02 -1.08212 1.54345 0
M  V30 11185 C 1119.14 -1.61331 2.97809 0
M  V30 11186 C 1118.19 -1.13954 4.10995 0
M  V30 11187 S 1119.02 -0.0935426 5.35418 0
M  V30 11188 C 1120.18 -1.27087 6.12862 0
M  V30 11189 H 1120.41 0.170945 2.96808 0
M  V30 11190 H 1117.94 0.20709 1.53005 0
M  V30 11191 H 1119.9 -2.28546 3.40994 0
M  V30 11192 H 1118.56 -2.19662 2.24516 0
M  V30 11193 H 1117.76 -2.01578 4.61933 0
M  V30 11194 H 1117.36 -0.545838 3.69995 0
M  V30 11195 H 1119.65 -2.19199 6.4106 0
M  V30 11196 H 1120.59 -0.801752 7.03546 0
M  V30 11197 H 1121 -1.50281 5.44129 0
M  V30 11198 N 1120.4 -1.5685 0.153553 0
M  V30 11199 C 1121.35 -2.18385 -0.800667 0
M  V30 11200 C 1122.34 -1.14272 -1.25053 0
M  V30 11201 O 1123.55 -1.32509 -1.21825 0
M  V30 11202 H 1119.92 -0.699352 -0.276425 0
M  V30 11203 H 1121.89 -2.97287 -0.257535 0
M  V30 11204 C 1120.64 -2.82497 -2.02708 0
M  V30 11205 H 1119.97 -3.62328 -1.68992 0
M  V30 11206 H 1121.41 -3.29047 -2.67403 0
M  V30 11207 C 1119.86 -1.81343 -2.8393 0
M  V30 11208 O 1120.39 -1.28793 -3.80493 0
M  V30 11209 N 1118.6 -1.50499 -2.48593 0
M  V30 11210 H 1118.15 -1.93425 -1.70131 0
M  V30 11211 H 1118.11 -0.830672 -3.03228 0
M  V30 11212 N 1121.88 0.120221 -1.57141 0
M  V30 11213 C 1123.11 0.841219 -1.88698 0
M  V30 11214 C 1123.52 1.7401 -0.74277 0
M  V30 11215 O 1122.86 1.81308 0.295497 0
M  V30 11216 C 1122.92 1.72781 -3.15257 0
M  V30 11217 C 1122.58 1.00336 -4.45849 0
M  V30 11218 C 1123.58 0.344734 -5.18756 0
M  V30 11219 C 1121.27 0.984899 -4.9255 0
M  V30 11220 C 1123.26 -0.322664 -6.36583 0
M  V30 11221 C 1120.95 0.313702 -6.10294 0
M  V30 11222 C 1121.95 -0.338926 -6.82159 0
M  V30 11223 O 1121.63 -0.999416 -7.97663 0
M  V30 11224 H 1121.37 0.247195 -0.629182 0
M  V30 11225 H 1123.92 0.109542 -2.05108 0
M  V30 11226 H 1122.15 2.5011 -2.94927 0
M  V30 11227 H 1123.84 2.32313 -3.32845 0
M  V30 11228 H 1124.6 0.350623 -4.83731 0
M  V30 11229 H 1120.48 1.4823 -4.36519 0
M  V30 11230 H 1124.03 -0.832643 -6.92613 0
M  V30 11231 H 1119.92 0.305572 -6.44776 0
M  V30 11232 H 1120.69 -0.90377 -8.13495 0
M  V30 11233 N 1123.36 1.52689 0.390367 0
M  V30 11234 C 1124.6 1.69354 1.1445 0
M  V30 11235 C 1124.96 0.423677 1.87267 0
M  V30 11236 O 1126.16 0.466669 2.64718 0
M  V30 11237 C 1124.43 2.89356 2.0978 0
M  V30 11238 S 1125.99 3.26602 2.93047 0
M  V30 11239 H 1122.81 0.596162 0.387442 0
M  V30 11240 H 1125.41 1.90732 0.429119 0
M  V30 11241 H 1124.12 3.80003 1.55004 0
M  V30 11242 H 1123.65 2.70307 2.85828 0
M  V30 11243 H 1125.66 2.76683 4.11899 0
M  V30 11244 N 1124.83 -0.648732 1.43629 0
M  V30 11245 C 1126.25 -0.964917 1.27128 0
M  V30 11246 C 1126.45 -2.00561 0.194251 0
M  V30 11247 O 1125.51 -2.48884 -0.42581 0
M  V30 11248 C 1126.82 -1.44491 2.6371 0
M  V30 11249 C 1128.37 -1.56133 2.71278 0
M  V30 11250 C 1128.84 -2.07521 4.08288 0
M  V30 11251 N 1130.33 -2.14817 4.10375 0
M  V30 11252 C 1131.07 -2.55712 5.13224 0
M  V30 11253 N 1130.56 -2.9587 6.26444 0
M  V30 11254 N 1132.36 -2.55691 5.00578 0
M  V30 11255 H 1124.51 0.0398357 2.12363 0
M  V30 11256 H 1126.77 -0.0447705 0.946942 0
M  V30 11257 H 1126.48 -0.754616 3.43509 0
M  V30 11258 H 1126.35 -2.41914 2.89409 0
M  V30 11259 H 1128.74 -2.24263 1.91808 0
M  V30 11260 H 1128.82 -0.571314 2.49338 0
M  V30 11261 H 1128.46 -1.39992 4.88226 0
M  V30 11262 H 1128.39 -3.07362 4.27594 0
M  V30 11263 H 1130.88 -1.86538 3.28652 0
M  V30 11264 H 1131.2 -3.25837 7.0075 0
M  V30 11265 H 1129.54 -2.93664 6.2991 0
M  V30 11266 H 1132.73 -2.23697 4.1119 0
M  V30 11267 H 1132.91 -2.87239 5.80859 0
M  V30 11268 N 1126.31 -1.30234 -0.887518 0
M  V30 11269 C 1127.26 -1.16302 -2.01436 0
M  V30 11270 C 1128.25 -0.0755422 -1.69231 0
M  V30 11271 O 1129.46 -0.236213 -1.78443 0
M  V30 11272 H 1125.84 -0.35961 -0.660443 0
M  V30 11273 H 1127.81 -2.11677 -2.10322 0
M  V30 11274 C 1126.56 -0.869009 -3.36665 0
M  V30 11275 H 1125.88 -1.69787 -3.61956 0
M  V30 11276 H 1127.32 -0.811621 -4.16159 0
M  V30 11277 C 1125.78 0.428021 -3.3417 0
M  V30 11278 O 1126.31 1.45033 -3.74604 0
M  V30 11279 N 1124.51 0.438264 -2.87276 0
M  V30 11280 H 1124.06 -0.394142 -2.54567 0
M  V30 11281 H 1124.02 1.30604 -2.85989 0
M  V30 11282 N 1127.79 1.09952 -1.12909 0
M  V30 11283 C 1129.2 1.63516 -0.901087 0
M  V30 11284 C 1129.55 1.87932 0.563547 0
M  V30 11285 O 1128.68 1.625 1.42908 0
M  V30 11286 C 1129.27 2.97054 -1.62924 0
M  V30 11287 C 1127.83 3.47464 -1.44725 0
M  V30 11288 C 1126.98 2.21979 -1.66194 0
M  V30 11289 H 1129.93 0.933858 -1.28315 0
M  V30 11290 H 1129.95 3.64757 -1.08318 0
M  V30 11291 H 1129.46 2.79251 -2.69519 0
M  V30 11292 H 1127.56 3.70402 -0.40409 0
M  V30 11293 H 1127.68 4.25254 -2.20671 0
M  V30 11294 H 1126.04 2.30368 -1.0864 0
M  V30 11295 H 1126.82 2.06702 -2.74097 0
M  V30 11296 N 1129.27 0.921757 1.27833 0
M  V30 11297 C 1130.55 0.477706 1.89677 0
M  V30 11298 C 1130.93 -1.04392 1.83481 0
M  V30 11299 O 1130.27 -1.89549 1.27606 0
M  V30 11300 C 1130.48 1.01709 3.33851 0
M  V30 11301 C 1131.83 1.074 4.10792 0
M  V30 11302 O 1132.86 0.966295 3.42843 0
M  V30 11303 O 1131.71 1.23909 5.32268 0
M  V30 11304 H 1128.81 0.15271 0.812778 0
M  V30 11305 H 1131.35 1.01306 1.36144 0
M  V30 11306 H 1130.13 2.061 3.32623 0
M  V30 11307 H 1129.75 0.463031 3.94895 0
M  V30 11308 N 1130.75 -1.41857 0.686609 0
M  V30 11309 C 1131.71 -2.29187 0.0247022 0
M  V30 11310 C 1132.71 -1.43926 -0.717069 0
M  V30 11311 O 1133.9 -1.65179 -0.5533 0
M  V30 11312 C 1131.03 -3.26644 -0.975537 0
M  V30 11313 H 1132.22 -2.89212 0.793503 0
M  V30 11314 H 1129.78 -1.49694 0.449605 0
M  V30 11315 H 1130.51 -2.7158 -1.77242 0
M  V30 11316 H 1130.3 -3.89545 -0.446892 0
M  V30 11317 H 1131.79 -3.92107 -1.43673 0
M  V30 11318 N 1132.22 -0.430739 -1.51599 0
M  V30 11319 C 1133.47 0.138133 -2.02329 0
M  V30 11320 C 1133.8 1.42934 -1.31466 0
M  V30 11321 O 1133.08 1.89743 -0.427551 0
M  V30 11322 C 1133.36 0.363677 -3.58259 0
M  V30 11323 C 1133.21 -0.94572 -4.39746 0
M  V30 11324 C 1134.53 1.13637 -4.25176 0
M  V30 11325 H 1131.65 0.0487287 -0.735387 0
M  V30 11326 H 1134.29 -0.568444 -1.81297 0
M  V30 11327 H 1132.44 0.965552 -3.7631 0
M  V30 11328 H 1134.12 -1.58107 -4.33359 0
M  V30 11329 H 1132.36 -1.55183 -4.05094 0
M  V30 11330 H 1133.03 -0.742031 -5.4699 0
M  V30 11331 H 1135.51 0.626608 -4.11355 0
M  V30 11332 H 1134.38 1.26294 -5.34173 0
M  V30 11333 H 1134.64 2.16273 -3.85588 0
M  V30 11334 N 1133.7 1.56767 -0.161869 0
M  V30 11335 C 1134.67 2.16299 0.758104 0
M  V30 11336 C 1135.67 1.10859 1.16478 0
M  V30 11337 O 1136.86 1.36422 1.08327 0
M  V30 11338 C 1133.99 2.73819 2.03067 0
M  V30 11339 H 1135.18 2.98938 0.239992 0
M  V30 11340 H 1132.73 1.56054 0.0876532 0
M  V30 11341 H 1133.47 1.94887 2.59209 0
M  V30 11342 H 1133.25 3.50974 1.74813 0
M  V30 11343 H 1134.74 3.19638 2.68741 0
M  V30 11344 N 1135.18 -0.111886 1.57202 0
M  V30 11345 C 1136.14 -1.12101 1.99915 0
M  V30 11346 C 1137.14 -1.33906 0.890272 0
M  V30 11347 O 1138.33 -1.30303 1.15615 0
M  V30 11348 C 1135.47 -2.47392 2.34543 0
M  V30 11349 H 1136.66 -0.753736 2.90274 0
M  V30 11350 H 1134.21 -0.35641 1.52182 0
M  V30 11351 H 1134.95 -2.89026 1.47086 0
M  V30 11352 H 1134.73 -2.32917 3.15423 0
M  V30 11353 H 1136.22 -3.20004 2.68304 0
M  V30 11354 N 1136.66 -1.52894 -0.382264 0
M  V30 11355 C 1138.07 -1.60135 -0.959887 0
M  V30 11356 C 1138.42 -0.458363 -1.90771 0
M  V30 11357 O 1137.55 0.417614 -2.12332 0
M  V30 11358 C 1138.14 -2.90243 -1.74769 0
M  V30 11359 C 1136.7 -2.99874 -2.27491 0
M  V30 11360 C 1135.85 -2.55302 -1.0824 0
M  V30 11361 H 1138.8 -1.57875 -0.161589 0
M  V30 11362 H 1138.82 -2.77108 -2.60751 0
M  V30 11363 H 1138.33 -3.73412 -1.0576 0
M  V30 11364 H 1136.43 -2.21258 -2.99793 0
M  V30 11365 H 1136.54 -4.04643 -2.56516 0
M  V30 11366 H 1134.91 -2.09781 -1.44444 0
M  V30 11367 H 1135.69 -3.40872 -0.407553 0
M  V30 11368 N 1138.14 0.641106 -1.43971 0
M  V30 11369 C 1139.37 1.42622 -1.49475 0
M  V30 11370 C 1139.78 1.8885 -0.115068 0
M  V30 11371 O 1139.12 1.60846 0.887378 0
M  V30 11372 C 1139.18 2.68643 -2.38896 0
M  V30 11373 C 1138.84 2.44276 -3.86236 0
M  V30 11374 C 1139.84 2.06732 -4.7703 0
M  V30 11375 C 1137.53 2.58225 -4.30842 0
M  V30 11376 C 1139.52 1.83451 -6.1043 0
M  V30 11377 C 1137.21 2.34559 -5.64292 0
M  V30 11378 C 1138.21 1.97229 -6.53903 0
M  V30 11379 O 1137.89 1.73819 -7.84884 0
M  V30 11380 H 1137.63 0.444187 -0.509582 0
M  V30 11381 H 1140.18 0.792179 -1.89509 0
M  V30 11382 H 1138.41 3.34649 -1.93771 0
M  V30 11383 H 1140.1 3.30623 -2.35464 0
M  V30 11384 H 1140.86 1.95521 -4.43843 0
M  V30 11385 H 1136.74 2.86253 -3.61359 0
M  V30 11386 H 1140.29 1.54238 -6.80335 0
M  V30 11387 H 1136.18 2.45376 -5.97043 0
M  V30 11388 H 1136.95 1.88146 -7.96582 0
M  V30 11389 N 1139.62 1.30703 0.880598 0
M  V30 11390 C 1140.86 1.21066 1.64688 0
M  V30 11391 C 1141.22 -0.230015 1.90617 0
M  V30 11392 O 1142.42 -0.449696 2.65012 0
M  V30 11393 C 1140.69 2.02072 2.94791 0
M  V30 11394 S 1142.25 2.09182 3.85731 0
M  V30 11395 H 1139.07 0.431369 0.565192 0
M  V30 11396 H 1141.67 1.65234 1.04489 0
M  V30 11397 H 1140.37 3.05851 2.73648 0
M  V30 11398 H 1139.91 1.58583 3.60021 0
M  V30 11399 H 1141.92 1.22239 4.80908 0
M  V30 11400 N 1141.09 -1.09351 1.1349 0
M  V30 11401 C 1142.32 -1.85036 0.918989 0
M  V30 11402 C 1142.73 -1.8146 -0.535638 0
M  V30 11403 O 1142.07 -1.20958 -1.38256 0
M  V30 11404 C 1142.14 -3.33992 1.33001 0
M  V30 11405 C 1141.8 -3.61315 2.79822 0
M  V30 11406 C 1142.8 -3.56973 3.77976 0
M  V30 11407 C 1140.48 -3.89636 3.17001 0
M  V30 11408 C 1142.48 -3.80564 5.11321 0
M  V30 11409 C 1140.16 -4.12882 4.50524 0
M  V30 11410 C 1141.16 -4.08338 5.47494 0
M  V30 11411 O 1140.85 -4.30983 6.78608 0
M  V30 11412 H 1140.58 -0.591301 0.327627 0
M  V30 11413 H 1143.14 -1.39078 1.5115 0
M  V30 11414 H 1141.37 -3.8066 0.68077 0
M  V30 11415 H 1143.05 -3.9109 1.08645 0
M  V30 11416 H 1143.82 -3.3512 3.50599 0
M  V30 11417 H 1139.7 -3.92297 2.42124 0
M  V30 11418 H 1143.24 -3.76933 5.86998 0
M  V30 11419 H 1139.14 -4.34216 4.77626 0
M  V30 11420 H 1139.91 -4.4844 6.84722 0
M  V30 11421 N 1142.57 -0.928524 -1.27343 0
M  V30 11422 C 1143.8 -0.585734 -1.98436 0
M  V30 11423 C 1144.21 0.83644 -1.69261 0
M  V30 11424 O 1143.57 1.55603 -0.953626 0
M  V30 11425 C 1143.62 -0.803092 -3.52467 0
M  V30 11426 O 1143.34 -2.16932 -3.80621 0
M  V30 11427 C 1144.84 -0.469127 -4.40811 0
M  V30 11428 H 1142.06 -0.221887 -0.633251 0
M  V30 11429 H 1144.61 -1.24577 -1.62175 0
M  V30 11430 H 1142.76 -0.189846 -3.86935 0
M  V30 11431 H 1143.18 -2.21992 -4.75205 0
M  V30 11432 H 1144.65 -0.671906 -5.47895 0
M  V30 11433 H 1145.13 0.595365 -4.35146 0
M  V30 11434 H 1145.73 -1.06055 -4.11865 0
M  V30 11435 N 1144.05 1.41491 -0.694123 0
M  V30 11436 C 1145.47 1.55358 -0.365532 0
M  V30 11437 C 1145.67 1.66994 1.12762 0
M  V30 11438 O 1144.72 1.64756 1.91342 0
M  V30 11439 C 1146.03 2.79352 -1.11279 0
M  V30 11440 C 1147.58 2.93147 -1.097 0
M  V30 11441 C 1148.06 4.20027 -1.82597 0
M  V30 11442 N 1149.55 4.26981 -1.7956 0
M  V30 11443 C 1150.28 5.24013 -2.32805 0
M  V30 11444 N 1149.78 6.27083 -2.94515 0
M  V30 11445 N 1151.57 5.15943 -2.23069 0
M  V30 11446 H 1143.72 1.32183 -1.66257 0
M  V30 11447 H 1145.99 0.637624 -0.701527 0
M  V30 11448 H 1145.69 2.76958 -2.16765 0
M  V30 11449 H 1145.57 3.70827 -0.690439 0
M  V30 11450 H 1147.95 2.95057 -0.0504037 0
M  V30 11451 H 1148.03 2.02849 -1.55839 0
M  V30 11452 H 1147.68 4.18878 -2.87235 0
M  V30 11453 H 1147.61 5.09294 -1.33893 0
M  V30 11454 H 1150.1 3.53129 -1.34567 0
M  V30 11455 H 1150.41 6.97511 -3.32714 0
M  V30 11456 H 1148.76 6.27589 -2.98592 0
M  V30 11457 H 1151.95 4.34346 -1.74532 0
M  V30 11458 H 1152.12 5.91396 -2.64868 0
M  V30 11459 N 1145.53 0.438773 1.51369 0
M  V30 11460 C 1146.8 -0.18722 1.94702 0
M  V30 11461 C 1147.18 -1.59962 1.37752 0
M  V30 11462 O 1146.53 -2.214 0.565171 0
M  V30 11463 C 1146.74 -0.163491 3.48617 0
M  V30 11464 C 1148.09 -0.368355 4.22999 0
M  V30 11465 O 1149.11 -0.241541 3.5538 0
M  V30 11466 O 1147.97 -0.620916 5.42961 0
M  V30 11467 H 1145.07 -0.129194 0.816846 0
M  V30 11468 H 1147.61 0.496855 1.62263 0
M  V30 11469 H 1146.39 0.823882 3.82528 0
M  V30 11470 H 1146.01 -0.890414 3.87501 0
M  V30 11471 N 1147.01 -1.56678 0.170181 0
M  V30 11472 C 1148.42 -1.83452 -0.346742 0
M  V30 11473 C 1148.77 -1.08993 -1.63141 0
M  V30 11474 O 1147.89 -0.342607 -2.13671 0
M  V30 11475 C 1148.49 -3.32779 -0.635882 0
M  V30 11476 C 1147.05 -3.60052 -1.09725 0
M  V30 11477 C 1146.19 -2.76983 -0.132516 0
M  V30 11478 H 1149.14 -1.53719 0.394465 0
M  V30 11479 H 1149.17 -3.50195 -1.48806 0
M  V30 11480 H 1148.68 -3.86944 0.299291 0
M  V30 11481 H 1146.78 -3.11297 -2.04756 0
M  V30 11482 H 1146.89 -4.68393 -1.00719 0
M  V30 11483 H 1145.26 -2.46794 -0.62966 0
M  V30 11484 H 1146.04 -3.33929 0.796658 0
M  V30 11485 N 1148.48 0.103547 -1.57259 0
M  V30 11486 C 1149.73 0.806979 -1.8529 0
M  V30 11487 C 1150.05 1.79679 -0.757653 0
M  V30 11488 O 1149.32 1.94695 0.216913 0
M  V30 11489 H 1147.9 0.301012 -0.683667 0
M  V30 11490 H 1150.56 0.0871886 -1.94705 0
M  V30 11491 H 1149.66 1.34275 -2.81738 0
M  V30 11492 N 1149.96 1.53094 0.37415 0
M  V30 11493 C 1151.21 1.69111 1.11934 0
M  V30 11494 C 1151.54 0.437252 1.89213 0
M  V30 11495 O 1150.82 -0.565298 1.86104 0
M  V30 11496 C 1151.1 2.93559 2.08554 0
M  V30 11497 C 1150.95 4.29082 1.3494 0
M  V30 11498 C 1152.27 3.13586 3.08791 0
M  V30 11499 H 1149.39 0.615383 0.405553 0
M  V30 11500 H 1152.03 1.85719 0.401078 0
M  V30 11501 H 1150.18 2.79531 2.69805 0
M  V30 11502 H 1151.85 4.54906 0.765402 0
M  V30 11503 H 1150.1 4.28884 0.651238 0
M  V30 11504 H 1150.77 5.12275 2.05616 0
M  V30 11505 H 1153.24 3.26743 2.57639 0
M  V30 11506 H 1152.12 4.02112 3.73627 0
M  V30 11507 H 1152.38 2.28475 3.78486 0
M  V30 11508 N 1151.44 -0.633461 1.44309 0
M  V30 11509 C 1152.86 -0.951379 1.28144 0
M  V30 11510 C 1153.06 -2.00344 0.215512 0
M  V30 11511 O 1152.11 -2.49321 -0.399389 0
M  V30 11512 C 1153.42 -1.41686 2.65227 0
M  V30 11513 C 1154.97 -1.53247 2.72918 0
M  V30 11514 C 1155.45 -2.03179 4.10466 0
M  V30 11515 N 1156.94 -2.10453 4.1263 0
M  V30 11516 C 1157.67 -2.50254 5.15907 0
M  V30 11517 N 1157.17 -2.89209 6.29547 0
M  V30 11518 N 1158.96 -2.50368 5.03262 0
M  V30 11519 H 1151.11 0.0623574 2.12308 0
M  V30 11520 H 1153.38 -0.0347244 0.947364 0
M  V30 11521 H 1153.08 -0.71814 3.4429 0
M  V30 11522 H 1152.96 -2.3883 2.91959 0
M  V30 11523 H 1155.34 -2.22216 1.94176 0
M  V30 11524 H 1155.42 -0.544836 2.4993 0
M  V30 11525 H 1155.07 -1.34806 4.89683 0
M  V30 11526 H 1155 -3.02809 4.3083 0
M  V30 11527 H 1157.49 -1.83042 3.30612 0
M  V30 11528 H 1157.8 -3.18386 7.04166 0
M  V30 11529 H 1156.15 -2.86966 6.32989 0
M  V30 11530 H 1159.34 -2.19324 4.13539 0
M  V30 11531 H 1159.51 -2.81062 5.83873 0
M  V30 11532 N 1152.92 -1.31168 -0.873655 0
M  V30 11533 C 1154.16 -1.21831 -1.62877 0
M  V30 11534 C 1154.52 0.222272 -1.91112 0
M  V30 11535 O 1153.81 1.15463 -1.52902 0
M  V30 11536 C 1154.01 -1.99204 -2.96736 0
M  V30 11537 C 1153.84 -3.50639 -2.81571 0
M  V30 11538 C 1152.61 -4.19992 -2.80953 0
M  V30 11539 C 1154.8 -4.45658 -2.56697 0
M  V30 11540 N 1152.79 -5.57609 -2.56799 0
M  V30 11541 C 1154.16 -5.70917 -2.41771 0
M  V30 11542 C 1156.21 -4.35126 -2.42012 0
M  V30 11543 C 1154.91 -6.86837 -2.13654 0
M  V30 11544 C 1156.94 -5.50825 -2.15282 0
M  V30 11545 C 1156.3 -6.75071 -2.01142 0
M  V30 11546 H 1152.4 -0.500911 -0.60051 0
M  V30 11547 H 1154.99 -1.65313 -1.02857 0
M  V30 11548 H 1153.16 -1.58096 -3.54768 0
M  V30 11549 H 1154.89 -1.81916 -3.61509 0
M  V30 11550 H 1151.64 -3.71928 -2.932 0
M  V30 11551 H 1152.07 -6.30058 -2.47703 0
M  V30 11552 H 1156.71 -3.39736 -2.51673 0
M  V30 11553 H 1154.43 -7.82257 -2.0273 0
M  V30 11554 H 1158.01 -5.44591 -2.04725 0
M  V30 11555 H 1156.89 -7.63085 -1.8075 0
M  V30 11556 N 1154.4 1.08748 -1.14068 0
M  V30 11557 C 1155.31 2.19123 -0.837998 0
M  V30 11558 C 1156.32 1.73065 0.180164 0
M  V30 11559 O 1157.5 2.01398 0.00952285 0
M  V30 11560 C 1154.56 3.45257 -0.316 0
M  V30 11561 C 1153.62 4.05959 -1.39628 0
M  V30 11562 C 1152.86 5.26072 -0.899095 0
M  V30 11563 O 1153.08 5.69804 0.260744 0
M  V30 11564 O 1152.01 5.7808 -1.67652 0
M  V30 11565 H 1155.84 2.4748 -1.76033 0
M  V30 11566 H 1153.43 1.17816 -0.918675 0
M  V30 11567 H 1155.31 4.21389 -0.0306425 0
M  V30 11568 H 1153.98 3.18486 0.578654 0
M  V30 11569 H 1152.89 3.31432 -1.73505 0
M  V30 11570 H 1154.22 4.36971 -2.26533 0
M  V30 11571 N 1155.87 0.935264 1.26849 0
M  V30 11572 C 1157.1 0.595384 1.97835 0
M  V30 11573 C 1157.51 -0.832605 1.69895 0
M  V30 11574 O 1156.86 -1.56597 0.960371 0
M  V30 11575 C 1156.92 0.750567 3.51578 0
M  V30 11576 C 1156.58 2.15208 4.03156 0
M  V30 11577 C 1157.58 3.12699 4.15349 0
M  V30 11578 C 1155.26 2.47106 4.37314 0
M  V30 11579 C 1157.26 4.40193 4.60987 0
M  V30 11580 C 1154.94 3.74834 4.82641 0
M  V30 11581 C 1155.94 4.7119 4.94438 0
M  V30 11582 O 1155.63 5.96644 5.38768 0
M  V30 11583 H 1155.36 0.223734 0.637902 0
M  V30 11584 H 1157.92 1.25663 1.62475 0
M  V30 11585 H 1156.15 0.0322039 3.86687 0
M  V30 11586 H 1157.84 0.414625 4.03777 0
M  V30 11587 H 1158.6 2.89378 3.89211 0
M  V30 11588 H 1154.48 1.72846 4.2737 0
M  V30 11589 H 1158.02 5.15406 4.70109 0
M  V30 11590 H 1153.92 3.9797 5.08222 0
M  V30 11591 H 1154.69 5.99741 5.57003 0
M  V30 11592 N 1157.35 -1.41121 0.701616 0
M  V30 11593 C 1158.59 -2.02993 0.239383 0
M  V30 11594 C 1158.96 -1.5439 -1.1414 0
M  V30 11595 O 1160.16 -2.08229 -1.69982 0
M  V30 11596 C 1158.43 -3.56128 0.301232 0
M  V30 11597 S 1159.99 -4.38716 -0.0860681 0
M  V30 11598 H 1156.81 -0.704494 0.0959645 0
M  V30 11599 H 1159.41 -1.72461 0.920736 0
M  V30 11600 H 1158.11 -3.88996 1.30805 0
M  V30 11601 H 1157.64 -3.91371 -0.399069 0
M  V30 11602 H 1159.66 -4.78537 -1.31212 0
M  V30 11603 N 1158.83 -0.446794 -1.51134 0
M  V30 11604 C 1159.78 0.374154 -2.29571 0
M  V30 11605 C 1160.77 1.01241 -1.35818 0
M  V30 11606 O 1161.98 0.946293 -1.53119 0
M  V30 11607 H 1158.35 0.13948 -0.738951 0
M  V30 11608 H 1160.32 -0.308117 -2.96805 0
M  V30 11609 C 1159.07 1.45754 -3.15675 0
M  V30 11610 H 1158.4 0.975787 -3.87709 0
M  V30 11611 H 1159.84 2.00502 -3.73597 0
M  V30 11612 C 1158.3 2.44606 -2.31667 0
M  V30 11613 O 1158.83 3.49352 -1.98284 0
M  V30 11614 N 1157.03 2.15725 -1.94708 0
M  V30 11615 H 1156.58 1.30572 -2.22056 0
M  V30 11616 H 1156.54 2.82103 -1.38798 0
M  V30 11617 N 1160.31 1.56586 -0.178487 0
M  V30 11618 C 1161.24 2.21313 0.744486 0
M  V30 11619 C 1162.22 1.17098 1.23377 0
M  V30 11620 O 1163.4 1.45551 1.28563 0
M  V30 11621 C 1160.53 2.8595 1.97103 0
M  V30 11622 C 1159.49 3.96266 1.61732 0
M  V30 11623 C 1158.81 4.47987 2.91911 0
M  V30 11624 C 1160.11 5.15503 0.839868 0
M  V30 11625 H 1161.81 2.98698 0.204938 0
M  V30 11626 H 1159.35 1.43672 0.0971306 0
M  V30 11627 H 1161.31 3.29909 2.6218 0
M  V30 11628 H 1160.03 2.05946 2.53484 0
M  V30 11629 H 1158.69 3.52974 0.990208 0
M  V30 11630 H 1158.34 3.64765 3.46346 0
M  V30 11631 H 1158.04 5.22413 2.68995 0
M  V30 11632 H 1159.56 4.94637 3.58004 0
M  V30 11633 H 1160.98 5.5611 1.39337 0
M  V30 11634 H 1159.37 5.95891 0.709473 0
M  V30 11635 H 1160.44 4.84628 -0.162396 0
M  V30 11636 N 1161.79 -0.095206 1.57312 0
M  V30 11637 C 1163.01 -0.81227 1.90289 0
M  V30 11638 C 1163.43 -1.72287 0.772178 0
M  V30 11639 O 1162.79 -1.80698 -0.255841 0
M  V30 11640 C 1162.84 -1.62572 3.22882 0
M  V30 11641 O 1162.56 -0.75175 4.31602 0
M  V30 11642 C 1164.06 -2.44585 3.6972 0
M  V30 11643 H 1161.28 -0.232256 0.629522 0
M  V30 11644 H 1163.82 -0.0724733 2.04372 0
M  V30 11645 H 1161.98 -2.31803 3.10397 0
M  V30 11646 H 1162.39 -1.31514 5.07744 0
M  V30 11647 H 1163.87 -2.97155 4.65191 0
M  V30 11648 H 1164.34 -3.23044 2.97555 0
M  V30 11649 H 1164.95 -1.80554 3.85072 0
M  V30 11650 N 1163.26 -1.53291 -0.366026 0
M  V30 11651 C 1164.2 -1.75981 -1.46845 0
M  V30 11652 C 1165.21 -0.640574 -1.49668 0
M  V30 11653 O 1166.4 -0.916823 -1.53155 0
M  V30 11654 C 1163.5 -1.82426 -2.85611 0
M  V30 11655 C 1162.67 -3.12062 -3.0649 0
M  V30 11656 C 1161.73 -3.09755 -4.25368 0
M  V30 11657 O 1160.76 -3.83555 -4.20564 0
M  V30 11658 N 1161.96 -2.30544 -5.32757 0
M  V30 11659 H 1164.72 -2.71104 -1.2776 0
M  V30 11660 H 1162.28 -1.52063 -0.555745 0
M  V30 11661 H 1164.28 -1.78361 -3.63276 0
M  V30 11662 H 1162.85 -0.945888 -2.97946 0
M  V30 11663 H 1162.07 -3.29433 -2.16489 0
M  V30 11664 H 1163.35 -3.97735 -3.17308 0
M  V30 11665 H 1162.75 -1.70095 -5.39522 0
M  V30 11666 H 1161.31 -2.32298 -6.09 0
M  V30 11667 N 1164.74 0.6258 -1.44643 0
M  V30 11668 C 1165.98 1.39676 -1.49232 0
M  V30 11669 C 1166.35 1.91601 -0.123682 0
M  V30 11670 O 1167.55 2.68764 -0.0442486 0
M  V30 11671 C 1165.82 2.52704 -2.52736 0
M  V30 11672 S 1167.38 3.40795 -2.76413 0
M  V30 11673 H 1164.2 0.476436 -0.527759 0
M  V30 11674 H 1166.8 0.72394 -1.81602 0
M  V30 11675 H 1165.5 2.12876 -3.50873 0
M  V30 11676 H 1165.03 3.24806 -2.21956 0
M  V30 11677 H 1167.05 4.5031 -2.08412 0
M  V30 11678 N 1166.22 1.31629 0.866686 0
M  V30 11679 C 1167.45 1.24609 1.65793 0
M  V30 11680 C 1167.87 -0.184944 1.87189 0
M  V30 11681 O 1167.23 -1.1322 1.41601 0
M  V30 11682 C 1167.28 1.9988 3.00134 0
M  V30 11683 O 1166.38 1.33838 3.90079 0
M  V30 11684 H 1165.72 0.430051 0.505917 0
M  V30 11685 H 1168.25 1.73752 1.08035 0
M  V30 11686 H 1168.26 2.09599 3.50046 0
M  V30 11687 H 1166.94 3.03947 2.83882 0
M  V30 11688 H 1165.51 1.3259 3.48532 0
M  V30 11689 N 1167.7 -1.08142 1.14644 0
M  V30 11690 C 1168.98 -1.77254 0.827071 0
M  V30 11691 C 1169.36 -1.99885 -0.67891 0
M  V30 11692 O 1168.7 -1.61084 -1.62062 0
M  V30 11693 C 1168.91 -3.08658 1.62884 0
M  V30 11694 C 1170.26 -3.83143 1.82993 0
M  V30 11695 O 1171.29 -3.18447 1.59593 0
M  V30 11696 O 1170.15 -4.9932 2.2213 0
M  V30 11697 H 1167.24 -0.769356 0.30335 0
M  V30 11698 H 1169.79 -1.1458 1.25178 0
M  V30 11699 H 1168.56 -2.87753 2.65168 0
M  V30 11700 H 1168.18 -3.79061 1.19994 0
M  V30 11701 N 1169.18 -0.941978 -1.26351 0
M  V30 11702 C 1170.14 -0.456768 -2.24602 0
M  V30 11703 C 1171.14 0.432574 -1.54872 0
M  V30 11704 O 1172.33 0.23164 -1.72653 0
M  V30 11705 C 1169.46 0.341583 -3.39184 0
M  V30 11706 H 1170.66 -1.32503 -2.69041 0
M  V30 11707 H 1168.21 -0.724021 -1.38519 0
M  V30 11708 H 1168.94 1.22806 -3.00149 0
M  V30 11709 H 1168.73 -0.296268 -3.90979 0
M  V30 11710 H 1170.22 0.670955 -4.12175 0
M  V30 11711 N 1170.66 1.40747 -0.709091 0
M  V30 11712 C 1171.57 2.3454 -0.0532205 0
M  V30 11713 C 1172.58 1.56956 0.751057 0
M  V30 11714 O 1173.76 1.89375 0.685509 0
M  V30 11715 C 1170.82 3.35809 0.862157 0
M  V30 11716 C 1169.88 4.29273 0.0485632 0
M  V30 11717 C 1169.12 5.25705 0.920345 0
M  V30 11718 O 1169.34 5.27933 2.15969 0
M  V30 11719 O 1168.27 6.00806 0.3628 0
M  V30 11720 H 1172.1 2.92232 -0.826698 0
M  V30 11721 H 1169.68 1.4183 -0.469519 0
M  V30 11722 H 1171.57 3.97931 1.38668 0
M  V30 11723 H 1170.24 2.8054 1.61489 0
M  V30 11724 H 1169.15 3.70456 -0.520873 0
M  V30 11725 H 1170.48 4.87676 -0.665807 0
M  V30 11726 N 1172.13 0.454803 1.50895 0
M  V30 11727 C 1173.38 -0.105562 2.01824 0
M  V30 11728 C 1173.7 -1.41673 1.33992 0
M  V30 11729 O 1172.97 -1.89929 0.479994 0
M  V30 11730 H 1171.55 -0.0420011 0.745818 0
M  V30 11731 H 1174.21 0.601504 1.85386 0
M  V30 11732 H 1173.31 -0.268872 3.1094 0
M  V30 11733 N 1173.61 -1.56489 0.186789 0
M  V30 11734 C 1174.84 -2.01722 -0.459993 0
M  V30 11735 C 1175.25 -1.06697 -1.5576 0
M  V30 11736 O 1174.61 -0.0704212 -1.82364 0
M  V30 11737 C 1174.66 -3.46693 -1.02401 0
M  V30 11738 O 1174.38 -4.3809 0.0297916 0
M  V30 11739 C 1175.88 -4.07403 -1.7475 0
M  V30 11740 H 1173.1 -0.660845 -0.116298 0
M  V30 11741 H 1175.65 -2.02389 0.293059 0
M  V30 11742 H 1173.8 -3.46752 -1.72749 0
M  V30 11743 H 1174.22 -5.23057 -0.388821 0
M  V30 11744 H 1175.69 -5.10718 -2.09455 0
M  V30 11745 H 1176.17 -3.50383 -2.64818 0
M  V30 11746 H 1176.77 -4.11093 -1.09007 0
M  V30 11747 N 1175.09 0.086862 -1.5736 0
M  V30 11748 C 1176.05 1.08906 -2.01673 0
M  V30 11749 C 1177.05 1.32473 -0.911463 0
M  V30 11750 O 1178.24 1.28447 -1.17673 0
M  V30 11751 C 1175.37 2.43629 -2.38449 0
M  V30 11752 H 1176.57 0.707461 -2.91436 0
M  V30 11753 H 1174.12 0.332154 -1.5273 0
M  V30 11754 H 1174.86 2.8665 -1.51665 0
M  V30 11755 H 1174.64 2.2787 -3.19089 0
M  V30 11756 H 1176.13 3.15695 -2.73361 0
M  V30 11757 N 1176.57 1.53483 0.357892 0
M  V30 11758 C 1177.81 1.70289 1.10134 0
M  V30 11759 C 1178.15 0.457296 1.88739 0
M  V30 11760 O 1177.42 -0.545527 1.86693 0
M  V30 11761 C 1177.7 2.95755 2.05429 0
M  V30 11762 C 1177.56 4.30489 1.30382 0
M  V30 11763 C 1178.88 3.16844 3.05447 0
M  V30 11764 H 1176 0.61965 0.399003 0
M  V30 11765 H 1178.64 1.86133 0.381357 0
M  V30 11766 H 1176.79 2.82377 2.66825 0
M  V30 11767 H 1178.46 4.55692 0.71711 0
M  V30 11768 H 1176.7 4.2955 0.605712 0
M  V30 11769 H 1177.37 5.14427 2.00171 0
M  V30 11770 H 1179.85 3.29458 2.54159 0
M  V30 11771 H 1178.73 4.06053 3.69341 0
M  V30 11772 H 1178.99 2.32476 3.76041 0
M  V30 11773 N 1178.05 -0.61812 1.44973 0
M  V30 11774 C 1179.01 -1.71135 1.52465 0
M  V30 11775 C 1180.01 -1.5561 0.405246 0
M  V30 11776 O 1181.2 -1.60869 0.668351 0
M  V30 11777 C 1178.33 -3.10324 1.41108 0
M  V30 11778 H 1179.52 -1.65862 2.49859 0
M  V30 11779 H 1177.08 -0.832932 1.32257 0
M  V30 11780 H 1177.81 -3.21183 0.448574 0
M  V30 11781 H 1177.6 -3.23001 2.2229 0
M  V30 11782 H 1179.09 -3.89976 1.49361 0
M  V30 11783 N 1179.52 -1.32087 -0.859693 0
M  V30 11784 C 1180.93 -1.20107 -1.42938 0
M  V30 11785 C 1181.29 0.188411 -1.95293 0
M  V30 11786 O 1180.41 1.08683 -1.87128 0
M  V30 11787 C 1181.01 -2.17436 -2.59821 0
M  V30 11788 C 1179.56 -2.09359 -3.12803 0
M  V30 11789 C 1178.71 -2.06086 -1.85537 0
M  V30 11790 H 1181.66 -1.43989 -0.667302 0
M  V30 11791 H 1181.68 -1.76996 -3.36828 0
M  V30 11792 H 1181.2 -3.18555 -2.21685 0
M  V30 11793 H 1179.3 -1.1147 -3.55535 0
M  V30 11794 H 1179.41 -2.98947 -3.74389 0
M  V30 11795 H 1177.77 -1.51251 -2.04928 0
M  V30 11796 H 1178.56 -3.08978 -1.49625 0
M  V30 11797 N 1181 1.07532 -1.15215 0
M  V30 11798 C 1182.41 1.61567 -0.935568 0
M  V30 11799 C 1182.76 1.89085 0.523557 0
M  V30 11800 O 1181.89 1.65495 1.39429 0
M  V30 11801 C 1182.48 2.93531 -1.69189 0
M  V30 11802 C 1181.04 3.44316 -1.52063 0
M  V30 11803 C 1180.19 2.18404 -1.70866 0
M  V30 11804 H 1183.14 0.906431 -1.30267 0
M  V30 11805 H 1183.16 3.62377 -1.16031 0
M  V30 11806 H 1182.67 2.73471 -2.75381 0
M  V30 11807 H 1180.77 3.69462 -0.482567 0
M  V30 11808 H 1180.89 4.20478 -2.29642 0
M  V30 11809 H 1179.25 2.28012 -1.13502 0
M  V30 11810 H 1180.03 2.00841 -2.7842 0
M  V30 11811 N 1182.48 0.948665 1.2585 0
M  V30 11812 C 1183.71 0.617229 1.97479 0
M  V30 11813 C 1184.12 -0.809406 1.7057 0
M  V30 11814 O 1183.48 -1.54066 0.97826 0
M  V30 11815 C 1183.53 0.859065 3.51144 0
M  V30 11816 O 1183.25 2.2296 3.77121 0
M  V30 11817 C 1184.75 0.539197 4.40009 0
M  V30 11818 H 1181.97 0.231933 0.629641 0
M  V30 11819 H 1184.52 1.27141 1.60173 0
M  V30 11820 H 1182.67 0.25138 3.86584 0
M  V30 11821 H 1183.09 2.29524 4.71613 0
M  V30 11822 H 1184.56 0.758986 5.46757 0
M  V30 11823 H 1185.04 -0.526062 4.36038 0
M  V30 11824 H 1185.64 1.12594 4.10125 0
M  V30 11825 N 1183.96 -1.40369 0.716545 0
M  V30 11826 C 1185.2 -2.01167 0.256846 0
M  V30 11827 C 1185.54 -1.56689 -1.14727 0
M  V30 11828 O 1184.81 -0.787384 -1.7785 0
M  V30 11829 C 1185.1 -3.58511 0.337963 0
M  V30 11830 C 1184.95 -4.13059 1.78052 0
M  V30 11831 C 1186.27 -4.39142 -0.290295 0
M  V30 11832 H 1183.39 -0.730877 0.0948028 0
M  V30 11833 H 1186.03 -1.66833 0.909225 0
M  V30 11834 H 1184.18 -3.87891 -0.217482 0
M  V30 11835 H 1185.85 -3.94472 2.39143 0
M  V30 11836 H 1184.09 -3.67311 2.30793 0
M  V30 11837 H 1184.76 -5.22217 1.78867 0
M  V30 11838 H 1187.24 -4.15697 0.182987 0
M  V30 11839 H 1186.12 -5.48524 -0.203097 0
M  V30 11840 H 1186.38 -4.20209 -1.37394 0
M  V30 11841 N 1185.44 -0.462799 -1.50652 0
M  V30 11842 C 1186.66 0.0929761 -2.06691 0
M  V30 11843 C 1187.08 1.34241 -1.32758 0
M  V30 11844 O 1186.44 1.78187 -0.394427 0
M  V30 11845 C 1186.49 0.389492 -3.59396 0
M  V30 11846 O 1186.21 -0.810379 -4.3054 0
M  V30 11847 C 1187.71 0.993147 -4.32032 0
M  V30 11848 H 1184.93 -0.00338664 -0.670991 0
M  V30 11849 H 1187.47 -0.649201 -1.93922 0
M  V30 11850 H 1185.63 1.08159 -3.71995 0
M  V30 11851 H 1186.04 -0.54996 -5.21609 0
M  V30 11852 H 1187.52 1.15044 -5.39878 0
M  V30 11853 H 1187.99 1.98106 -3.91983 0
M  V30 11854 H 1188.6 0.339677 -4.23941 0
M  V30 11855 N 1186.91 1.56388 -0.195085 0
M  V30 11856 C 1188.33 1.8398 0.317513 0
M  V30 11857 C 1188.68 1.11575 1.61386 0
M  V30 11858 O 1187.8 0.376557 2.13099 0
M  V30 11859 C 1188.4 3.33749 0.582859 0
M  V30 11860 C 1186.96 3.61752 1.03983 0
M  V30 11861 C 1186.1 2.77159 0.088434 0
M  V30 11862 H 1189.05 1.53072 -0.418871 0
M  V30 11863 H 1189.07 3.52519 1.43216 0
M  V30 11864 H 1188.59 3.86419 -0.360813 0
M  V30 11865 H 1186.69 3.14515 1.99778 0
M  V30 11866 H 1186.8 4.69937 0.932549 0
M  V30 11867 H 1185.16 2.47765 0.590317 0
M  V30 11868 H 1185.95 3.32619 -0.849682 0
M  V30 11869 N 1188.39 -0.0785156 1.57404 0
M  V30 11870 C 1189.64 -0.780092 1.87196 0
M  V30 11871 C 1189.97 -1.77562 0.78647 0
M  V30 11872 O 1189.25 -1.93428 -0.203935 0
M  V30 11873 C 1189.53 -1.49408 3.27642 0
M  V30 11874 C 1189.38 -0.515416 4.46837 0
M  V30 11875 C 1190.7 -2.44064 3.66225 0
M  V30 11876 H 1187.82 -0.282134 0.680859 0
M  V30 11877 H 1190.46 -0.0433926 1.8995 0
M  V30 11878 H 1188.61 -2.12205 3.25425 0
M  V30 11879 H 1190.28 0.106827 4.61176 0
M  V30 11880 H 1188.53 0.169832 4.33467 0
M  V30 11881 H 1189.2 -1.05247 5.41874 0
M  V30 11882 H 1191.67 -1.91349 3.69493 0
M  V30 11883 H 1190.55 -2.91029 4.65396 0
M  V30 11884 H 1190.81 -3.28569 2.95796 0
M  V30 11885 N 1189.87 -1.5367 -0.349747 0
M  V30 11886 C 1191.28 -1.62135 -0.925704 0
M  V30 11887 C 1191.63 -0.498725 -1.89756 0
M  V30 11888 O 1190.76 0.372481 -2.1317 0
M  V30 11889 C 1191.35 -2.93885 -1.68573 0
M  V30 11890 C 1189.91 -3.04632 -2.2108 0
M  V30 11891 C 1189.06 -2.57541 -1.02801 0
M  V30 11892 H 1192.01 -1.58182 -0.128065 0
M  V30 11893 H 1192.03 -2.82577 -2.54815 0
M  V30 11894 H 1191.54 -3.75571 -0.978153 0
M  V30 11895 H 1189.64 -2.27567 -2.95032 0
M  V30 11896 H 1189.76 -4.09993 -2.47876 0
M  V30 11897 H 1188.12 -2.12798 -1.39962 0
M  V30 11898 H 1188.9 -3.4166 -0.335157 0
M  V30 11899 N 1191.35 0.610423 -1.45298 0
M  V30 11900 C 1192.57 1.40112 -1.52917 0
M  V30 11901 C 1193 1.87404 -0.161696 0
M  V30 11902 O 1192.36 1.59973 0.853135 0
M  V30 11903 C 1192.4 2.58359 -2.51561 0
M  V30 11904 O 1191.51 3.58895 -2.03146 0
M  V30 11905 H 1190.85 0.41841 -0.515586 0
M  V30 11906 H 1193.38 0.743159 -1.90626 0
M  V30 11907 H 1193.39 3.0564 -2.70275 0
M  V30 11908 H 1192.06 2.23286 -3.50879 0
M  V30 11909 H 1190.64 3.18282 -1.94296 0
M  V30 11910 N 1192.83 1.32541 0.852676 0
M  V30 11911 C 1193.76 1.24254 1.97694 0
M  V30 11912 C 1194.74 0.125971 1.69633 0
M  V30 11913 O 1195.92 0.31347 1.91653 0
M  V30 11914 C 1193.05 0.966874 3.3357 0
M  V30 11915 C 1192.01 2.0449 3.75989 0
M  V30 11916 C 1191.33 1.6216 5.09518 0
M  V30 11917 C 1192.63 3.46013 3.91244 0
M  V30 11918 H 1194.33 2.18317 2.04886 0
M  V30 11919 H 1191.87 1.05101 0.984371 0
M  V30 11920 H 1193.83 0.895444 4.11776 0
M  V30 11921 H 1192.55 -0.0093893 3.26599 0
M  V30 11922 H 1191.21 2.10651 3.00036 0
M  V30 11923 H 1190.86 0.632729 4.99005 0
M  V30 11924 H 1190.56 2.3429 5.38871 0
M  V30 11925 H 1192.08 1.56457 5.90215 0
M  V30 11926 H 1193.49 3.4243 4.59799 0
M  V30 11927 H 1191.89 4.1651 4.32017 0
M  V30 11928 H 1192.96 3.8553 2.941 0
M  V30 11929 N 1194.3 -1.0692 1.15784 0
M  V30 11930 C 1195.21 -2.17762 0.872753 0
M  V30 11931 C 1196.23 -1.73329 -0.152608 0
M  V30 11932 O 1197.41 -2.01387 0.022519 0
M  V30 11933 C 1194.47 -3.4471 0.370887 0
M  V30 11934 C 1193.53 -4.03686 1.46069 0
M  V30 11935 C 1192.77 -5.24575 0.982675 0
M  V30 11936 O 1192.99 -5.70146 -0.17006 0
M  V30 11937 O 1191.92 -5.7534 1.76828 0
M  V30 11938 H 1195.75 -2.44648 1.79948 0
M  V30 11939 H 1193.33 -1.1634 0.937303 0
M  V30 11940 H 1195.22 -4.21287 0.0976779 0
M  V30 11941 H 1193.89 -3.19366 -0.527912 0
M  V30 11942 H 1192.8 -3.28629 1.78756 0
M  V30 11943 H 1194.13 -4.33312 2.33456 0
M  V30 11944 N 1195.78 -0.955326 -1.25345 0
M  V30 11945 C 1196.75 -0.480564 -2.24105 0
M  V30 11946 C 1197.75 0.416123 -1.55322 0
M  V30 11947 O 1198.94 0.213315 -1.72889 0
M  V30 11948 C 1196.07 0.305589 -3.39528 0
M  V30 11949 H 1197.26 -1.35349 -2.6762 0
M  V30 11950 H 1194.81 -0.738673 -1.37744 0
M  V30 11951 H 1195.55 1.19615 -3.01434 0
M  V30 11952 H 1195.33 -0.337719 -3.90643 0
M  V30 11953 H 1196.82 0.627201 -4.12863 0
M  V30 11954 N 1197.26 1.39987 -0.723979 0
M  V30 11955 C 1198.67 1.83606 -0.338461 0
M  V30 11956 C 1199.02 1.6051 1.12831 0
M  V30 11957 O 1198.15 1.09041 1.8692 0
M  V30 11958 C 1198.74 3.33308 -0.607533 0
M  V30 11959 C 1197.3 3.75389 -0.275632 0
M  V30 11960 C 1196.45 2.6311 -0.875699 0
M  V30 11961 H 1199.4 1.29135 -0.922483 0
M  V30 11962 H 1199.42 3.80297 0.124424 0
M  V30 11963 H 1198.93 3.50087 -1.67514 0
M  V30 11964 H 1197.03 3.64203 0.786579 0
M  V30 11965 H 1197.15 4.73185 -0.750492 0
M  V30 11966 H 1195.51 2.5289 -0.303122 0
M  V30 11967 H 1196.29 2.82698 -1.94774 0
M  V30 11968 N 1198.74 0.470782 1.50404 0
M  V30 11969 C 1199.96 -0.084284 2.07229 0
M  V30 11970 C 1200.39 -1.32774 1.33239 0
M  V30 11971 O 1199.75 -1.77274 0.379971 0
M  V30 11972 C 1199.8 -0.351565 3.58882 0
M  V30 11973 O 1198.9 -1.43211 3.86736 0
M  V30 11974 H 1198.24 0.0128479 0.663876 0
M  V30 11975 H 1200.77 0.661735 1.93603 0
M  V30 11976 H 1200.78 -0.592151 4.0368 0
M  V30 11977 H 1199.46 0.557084 4.12152 0
M  V30 11978 H 1198.03 -1.17886 3.53776 0
M  V30 11979 N 1200.22 -1.56282 0.203376 0
M  V30 11980 C 1201.13 -2.23086 -0.725922 0
M  V30 11981 C 1202.14 -1.23258 -1.22814 0
M  V30 11982 O 1203.32 -1.5602 -1.27357 0
M  V30 11983 C 1200.38 -2.88358 -1.92485 0
M  V30 11984 C 1199.45 -4.03479 -1.46639 0
M  V30 11985 C 1198.68 -4.65629 -2.60816 0
M  V30 11986 O 1198.9 -4.2672 -3.78506 0
M  V30 11987 O 1197.84 -5.54949 -2.33056 0
M  V30 11988 H 1201.66 -3.03124 -0.18694 0
M  V30 11989 H 1199.25 -1.49377 -0.0262829 0
M  V30 11990 H 1201.13 -3.29623 -2.62539 0
M  V30 11991 H 1199.8 -2.11294 -2.45228 0
M  V30 11992 H 1198.71 -3.66821 -0.734396 0
M  V30 11993 H 1200.04 -4.82232 -0.985535 0
M  V30 11994 N 1201.7 0.070167 -1.57444 0
M  V30 11995 C 1202.63 1.10996 -2.0053 0
M  V30 11996 C 1203.64 1.3489 -0.91151 0
M  V30 11997 O 1204.83 1.33102 -1.18938 0
M  V30 11998 C 1201.93 2.46053 -2.33048 0
M  V30 11999 C 1201.1 2.42092 -3.64294 0
M  V30 12000 C 1200.16 3.5927 -3.84463 0
M  V30 12001 O 1199.19 3.40625 -4.5603 0
M  V30 12002 N 1200.39 4.79677 -3.26941 0
M  V30 12003 H 1203.15 0.743029 -2.90343 0
M  V30 12004 H 1200.72 0.258794 -1.59818 0
M  V30 12005 H 1202.71 3.23089 -2.43712 0
M  V30 12006 H 1201.28 2.74742 -1.49116 0
M  V30 12007 H 1200.5 1.5043 -3.64368 0
M  V30 12008 H 1201.79 2.36548 -4.50469 0
M  V30 12009 H 1201.18 4.97729 -2.68855 0
M  V30 12010 H 1199.74 5.54219 -3.43051 0
M  V30 12011 N 1203.17 1.53854 0.341593 0
M  V30 12012 C 1204.14 1.8128 1.40251 0
M  V30 12013 C 1205.14 0.683915 1.45531 0
M  V30 12014 O 1206.33 0.952202 1.45872 0
M  V30 12015 C 1203.46 1.95658 2.79161 0
M  V30 12016 H 1204.65 2.76053 1.17195 0
M  V30 12017 H 1202.2 1.45296 0.57609 0
M  V30 12018 H 1202.94 1.03034 3.07497 0
M  V30 12019 H 1202.72 2.77788 2.76724 0
M  V30 12020 H 1204.21 2.18387 3.55945 0
M  V30 12021 N 1204.65 -0.602709 1.4562 0
M  V30 12022 C 1206.06 -1.1847 1.44297 0
M  V30 12023 C 1206.41 -1.95434 0.17316 0
M  V30 12024 O 1205.54 -2.03894 -0.724986 0
M  V30 12025 C 1206.13 -2.15508 2.61422 0
M  V30 12026 C 1204.69 -2.69073 2.63204 0
M  V30 12027 C 1203.84 -1.44568 2.36633 0
M  V30 12028 H 1206.79 -0.391745 1.53789 0
M  V30 12029 H 1206.81 -2.98628 2.35799 0
M  V30 12030 H 1206.32 -1.59464 3.53826 0
M  V30 12031 H 1204.42 -3.29042 1.7482 0
M  V30 12032 H 1204.54 -3.13173 3.62573 0
M  V30 12033 H 1202.9 -1.73692 1.86287 0
M  V30 12034 H 1203.68 -0.903852 3.31188 0
M  V30 12035 N 1206.13 -1.32992 -0.845635 0
M  V30 12036 C 1207.36 -1.27087 -1.63268 0
M  V30 12037 C 1207.77 0.159481 -1.88125 0
M  V30 12038 O 1207.13 1.09948 -1.45663 0
M  V30 12039 C 1207.18 -2.03649 -2.98679 0
M  V30 12040 O 1206.9 -3.41104 -2.74918 0
M  V30 12041 C 1208.4 -2.04875 -3.93117 0
M  V30 12042 H 1205.62 -0.438107 -0.508236 0
M  V30 12043 H 1208.17 -1.75257 -1.05381 0
M  V30 12044 H 1206.32 -1.59178 -3.53187 0
M  V30 12045 H 1206.74 -3.80405 -3.61099 0
M  V30 12046 H 1208.21 -2.62911 -4.85368 0
M  V30 12047 H 1208.69 -1.03728 -4.26775 0
M  V30 12048 H 1209.29 -2.49334 -3.44547 0
M  V30 12049 N 1207.61 1.06304 -1.1635 0
M  V30 12050 C 1208.52 2.17296 -0.884289 0
M  V30 12051 C 1209.53 1.73408 0.143414 0
M  V30 12052 O 1210.71 2.01373 -0.0331987 0
M  V30 12053 C 1207.77 3.44509 -0.389163 0
M  V30 12054 C 1206.84 4.02906 -1.48208 0
M  V30 12055 C 1206.07 5.24047 -1.01048 0
M  V30 12056 O 1206.29 5.70229 0.139821 0
M  V30 12057 O 1205.23 5.74394 -1.79876 0
M  V30 12058 H 1209.05 2.4369 -1.81243 0
M  V30 12059 H 1206.64 1.15841 -0.943459 0
M  V30 12060 H 1208.52 4.21229 -0.120018 0
M  V30 12061 H 1207.19 3.19642 0.510968 0
M  V30 12062 H 1206.1 3.27677 -1.80496 0
M  V30 12063 H 1207.43 4.32068 -2.35751 0
M  V30 12064 N 1209.09 0.96196 1.24836 0
M  V30 12065 C 1210.02 0.445329 2.24832 0
M  V30 12066 C 1211.03 -0.442797 1.56663 0
M  V30 12067 O 1212.22 -0.249896 1.76742 0
M  V30 12068 C 1209.32 -0.376953 3.36797 0
M  V30 12069 C 1208.49 0.499908 4.34534 0
M  V30 12070 C 1207.55 -0.265402 5.2553 0
M  V30 12071 O 1206.58 0.338707 5.68191 0
M  V30 12072 N 1207.78 -1.55654 5.59243 0
M  V30 12073 H 1210.54 1.30505 2.69793 0
M  V30 12074 H 1208.11 0.833137 1.38818 0
M  V30 12075 H 1210.1 -0.896831 3.94638 0
M  V30 12076 H 1208.67 -1.13757 2.91167 0
M  V30 12077 H 1207.89 1.20082 3.75465 0
M  V30 12078 H 1209.18 1.09814 4.96808 0
M  V30 12079 H 1208.57 -2.06916 5.265 0
M  V30 12080 H 1207.13 -2.02223 6.19636 0
M  V30 12081 N 1210.56 -1.39601 0.731392 0
M  V30 12082 C 1211.98 -1.54334 0.406594 0
M  V30 12083 C 1212.18 -1.69925 -1.08295 0
M  V30 12084 O 1211.24 -1.69771 -1.86906 0
M  V30 12085 C 1212.55 -2.76303 1.18647 0
M  V30 12086 C 1214.1 -2.90135 1.17433 0
M  V30 12087 C 1214.57 -4.15038 1.93669 0
M  V30 12088 N 1216.06 -4.2207 1.90817 0
M  V30 12089 C 1216.8 -5.17656 2.46616 0
M  V30 12090 N 1216.29 -6.19054 3.11037 0
M  V30 12091 N 1218.09 -5.09847 2.3667 0
M  V30 12092 H 1210.24 -1.27728 1.69703 0
M  V30 12093 H 1212.5 -0.6188 0.718186 0
M  V30 12094 H 1212.21 -2.71113 2.24032 0
M  V30 12095 H 1212.08 -3.68866 0.788514 0
M  V30 12096 H 1214.47 -2.9482 0.128615 0
M  V30 12097 H 1214.55 -1.98646 1.61163 0
M  V30 12098 H 1214.19 -4.11115 2.9824 0
M  V30 12099 H 1214.12 -5.05565 1.47349 0
M  V30 12100 H 1216.61 -3.49437 1.43882 0
M  V30 12101 H 1216.93 -6.88444 3.51091 0
M  V30 12102 H 1215.27 -6.19452 3.15126 0
M  V30 12103 H 1218.46 -4.29566 1.85987 0
M  V30 12104 H 1218.64 -5.84165 2.80455 0
M  V30 12105 N 1212.04 -0.478751 -1.50152 0
M  V30 12106 C 1213.45 -0.0254907 -1.86683 0
M  V30 12107 C 1213.8 1.38171 -1.39295 0
M  V30 12108 O 1212.93 2.0257 -0.761207 0
M  V30 12109 C 1213.52 -0.0394819 -3.38777 0
M  V30 12110 C 1212.08 0.35834 -3.7469 0
M  V30 12111 C 1211.23 -0.421667 -2.74075 0
M  V30 12112 H 1214.18 -0.692653 -1.42787 0
M  V30 12113 H 1214.2 0.760957 -3.72813 0
M  V30 12114 H 1213.71 -1.06378 -3.73236 0
M  V30 12115 H 1211.82 1.38671 -3.45834 0
M  V30 12116 H 1211.93 0.0543589 -4.79069 0
M  V30 12117 H 1210.29 0.125634 -2.5439 0
M  V30 12118 H 1211.08 -1.44562 -3.11379 0
M  V30 12119 N 1213.52 1.56172 -0.211661 0
M  V30 12120 C 1214.77 1.97648 0.421871 0
M  V30 12121 C 1215.09 1.10026 1.60995 0
M  V30 12122 O 1214.36 0.175109 1.95116 0
M  V30 12123 H 1212.94 0.729914 0.158852 0
M  V30 12124 H 1215.6 1.92542 -0.302254 0
M  V30 12125 H 1214.7 3.02834 0.754868 0
M  V30 12126 N 1215 -0.0618163 1.57479 0
M  V30 12127 C 1216.24 -0.760193 1.88013 0
M  V30 12128 C 1216.58 -1.76718 0.805258 0
M  V30 12129 O 1215.85 -1.93633 -0.183408 0
M  V30 12130 C 1216.14 -1.45924 3.29208 0
M  V30 12131 C 1215.99 -0.467994 4.47359 0
M  V30 12132 C 1217.31 -2.40166 3.68793 0
M  V30 12133 H 1214.43 -0.274896 0.683814 0
M  V30 12134 H 1217.07 -0.0232433 1.89986 0
M  V30 12135 H 1215.22 -2.08741 3.27657 0
M  V30 12136 H 1216.89 0.155735 4.61037 0
M  V30 12137 H 1215.13 0.215797 4.33263 0
M  V30 12138 H 1215.8 -0.994942 5.42959 0
M  V30 12139 H 1218.28 -1.87419 3.71501 0
M  V30 12140 H 1217.16 -2.86076 4.68457 0
M  V30 12141 H 1217.42 -3.25413 2.99264 0
M  V30 12142 N 1216.48 -1.54033 -0.333429 0
M  V30 12143 C 1217.41 -1.79056 -1.43079 0
M  V30 12144 C 1218.42 -0.672176 -1.48276 0
M  V30 12145 O 1219.61 -0.949103 -1.51176 0
M  V30 12146 C 1216.71 -1.88443 -2.81678 0
M  V30 12147 C 1215.88 -3.18493 -2.99802 0
M  V30 12148 C 1214.94 -3.18708 -4.18702 0
M  V30 12149 O 1213.97 -3.92389 -4.12334 0
M  V30 12150 N 1215.17 -2.41792 -5.27747 0
M  V30 12151 H 1217.94 -2.73753 -1.21981 0
M  V30 12152 H 1215.5 -1.53207 -0.523365 0
M  V30 12153 H 1217.49 -1.86027 -3.59411 0
M  V30 12154 H 1216.06 -1.00887 -2.95872 0
M  V30 12155 H 1215.28 -3.33951 -2.09453 0
M  V30 12156 H 1216.57 -4.04376 -3.088 0
M  V30 12157 H 1215.96 -1.81501 -5.35793 0
M  V30 12158 H 1214.52 -2.45163 -6.03936 0
M  V30 12159 N 1217.95 0.594978 -1.45938 0
M  V30 12160 C 1218.86 1.73296 -1.58132 0
M  V30 12161 C 1219.88 1.67665 -0.465245 0
M  V30 12162 O 1221.06 1.87794 -0.727684 0
M  V30 12163 C 1218.12 3.09783 -1.55677 0
M  V30 12164 C 1217.18 3.26772 -2.78422 0
M  V30 12165 C 1216.42 4.56748 -2.76075 0
M  V30 12166 O 1216.64 5.39867 -1.84119 0
M  V30 12167 O 1215.57 4.76721 -3.67452 0
M  V30 12168 H 1219.4 1.65957 -2.54346 0
M  V30 12169 H 1216.98 0.760572 -1.28591 0
M  V30 12170 H 1218.87 3.91077 -1.56961 0
M  V30 12171 H 1217.54 3.17585 -0.626191 0
M  V30 12172 H 1216.45 2.45018 -2.82696 0
M  V30 12173 H 1217.78 3.23853 -3.70648 0
M  V30 12174 N 1219.43 1.33438 0.838571 0
M  V30 12175 C 1220.67 1.26245 1.60753 0
M  V30 12176 C 1221.04 -0.169255 1.91253 0
M  V30 12177 O 1222.24 -0.365157 2.66308 0
M  V30 12178 C 1220.51 2.11348 2.88213 0
M  V30 12179 S 1222.07 2.21348 3.78881 0
M  V30 12180 H 1218.89 0.449132 0.551182 0
M  V30 12181 H 1221.49 1.68474 0.991798 0
M  V30 12182 H 1220.19 3.14402 2.63779 0
M  V30 12183 H 1219.72 1.69957 3.54793 0
M  V30 12184 H 1221.74 1.37477 4.76775 0
M  V30 12185 N 1220.91 -1.05686 1.16912 0
M  V30 12186 C 1222.14 -1.82018 0.977392 0
M  V30 12187 C 1222.55 -1.83072 -0.477636 0
M  V30 12188 O 1221.89 -1.25296 -1.34338 0
M  V30 12189 C 1221.95 -3.29592 1.4356 0
M  V30 12190 C 1221.62 -3.5223 2.91175 0
M  V30 12191 C 1222.61 -3.44767 3.89142 0
M  V30 12192 C 1220.3 -3.79353 3.29236 0
M  V30 12193 C 1222.29 -3.64104 5.2317 0
M  V30 12194 C 1219.98 -3.98339 4.63432 0
M  V30 12195 C 1220.98 -3.90713 5.60207 0
M  V30 12196 O 1220.67 -4.09175 6.91976 0
M  V30 12197 H 1220.4 -0.580578 0.346273 0
M  V30 12198 H 1222.95 -1.34199 1.55498 0
M  V30 12199 H 1221.18 -3.78302 0.80153 0
M  V30 12200 H 1222.87 -3.87435 1.21032 0
M  V30 12201 H 1223.64 -3.23796 3.61083 0
M  V30 12202 H 1219.52 -3.84395 2.54482 0
M  V30 12203 H 1223.06 -3.58068 5.98693 0
M  V30 12204 H 1218.96 -4.18801 4.91198 0
M  V30 12205 H 1219.73 -4.26429 6.98642 0
M  V30 12206 N 1222.39 -0.968567 -1.24324 0
M  V30 12207 C 1223.34 -0.470481 -2.23093 0
M  V30 12208 C 1224.32 0.447989 -1.54538 0
M  V30 12209 O 1225.51 0.27877 -1.74791 0
M  V30 12210 C 1222.64 0.237222 -3.42479 0
M  V30 12211 C 1221.73 -0.700126 -4.18281 0
M  V30 12212 N 1222.12 -1.83775 -4.71233 0
M  V30 12213 C 1220.42 -0.51108 -4.43062 0
M  V30 12214 C 1221.12 -2.42411 -5.28783 0
M  V30 12215 N 1220.1 -1.70918 -5.16031 0
M  V30 12216 H 1223.9 -1.33848 -2.61652 0
M  V30 12217 H 1221.41 -0.827764 -1.39721 0
M  V30 12218 H 1223.41 0.61128 -4.12394 0
M  V30 12219 H 1222.07 1.10166 -3.0544 0
M  V30 12220 H 1223.08 -2.21926 -4.67942 0
M  V30 12221 H 1219.76 0.309316 -4.16353 0
M  V30 12222 H 1221.15 -3.38417 -5.80451 0
M  V30 12223 N 1223.87 1.39211 -0.738786 0
M  V30 12224 C 1225.11 2.0004 -0.28782 0
M  V30 12225 C 1225.44 1.58921 1.13 0
M  V30 12226 O 1224.71 0.839193 1.77015 0
M  V30 12227 H 1223.29 0.739805 -0.103425 0
M  V30 12228 H 1225.95 1.70202 -0.949587 0
M  V30 12229 H 1225.04 3.10251 -0.339208 0
M  V30 12230 N 1225.34 0.486708 1.49896 0
M  V30 12231 C 1226.29 -0.313156 2.30482 0
M  V30 12232 C 1227.29 -0.976043 1.38455 0
M  V30 12233 O 1228.49 -0.905364 1.55574 0
M  V30 12234 H 1224.87 -0.119839 0.74239 0
M  V30 12235 H 1226.84 0.386701 2.95884 0
M  V30 12236 C 1225.59 -1.37334 3.19429 0
M  V30 12237 H 1224.91 -0.87265 3.9016 0
M  V30 12238 H 1226.35 -1.90526 3.78782 0
M  V30 12239 C 1224.81 -2.38378 2.38071 0
M  V30 12240 O 1225.34 -3.43972 2.07476 0
M  V30 12241 N 1223.55 -2.10486 2.00359 0
M  V30 12242 H 1223.09 -1.24638 2.2544 0
M  V30 12243 H 1223.05 -2.78324 1.46229 0
M  V30 12244 N 1226.82 -1.56058 0.219941 0
M  V30 12245 C 1228.07 -1.97869 -0.411383 0
M  V30 12246 C 1228.39 -1.10878 -1.60409 0
M  V30 12247 O 1227.66 -0.185454 -1.9502 0
M  V30 12248 H 1226.24 -0.730747 -0.154979 0
M  V30 12249 H 1228.9 -1.92379 0.312461 0
M  V30 12250 H 1228 -3.0323 -0.738798 0
M  V30 12251 N 1228.3 0.053464 -1.57509 0
M  V30 12252 C 1229.23 1.08863 -2.01696 0
M  V30 12253 C 1230.25 1.33916 -0.925765 0
M  V30 12254 O 1231.44 1.31833 -1.20343 0
M  V30 12255 C 1228.54 2.43567 -2.35644 0
M  V30 12256 C 1227.71 2.38215 -3.66841 0
M  V30 12257 C 1226.77 3.55172 -3.88252 0
M  V30 12258 O 1225.79 3.35769 -4.59617 0
M  V30 12259 N 1227 4.76182 -3.3201 0
M  V30 12260 H 1229.76 0.712192 -2.91115 0
M  V30 12261 H 1227.32 0.241829 -1.60084 0
M  V30 12262 H 1229.31 3.20486 -2.47125 0
M  V30 12263 H 1227.88 2.73145 -1.52022 0
M  V30 12264 H 1227.1 1.46557 -3.65943 0
M  V30 12265 H 1228.39 2.31757 -4.52953 0
M  V30 12266 H 1227.79 4.94849 -2.74118 0
M  V30 12267 H 1226.35 5.5055 -3.4891 0
M  V30 12268 N 1229.78 1.54207 0.325255 0
M  V30 12269 C 1231 1.7661 1.08736 0
M  V30 12270 C 1231.43 0.512449 1.80985 0
M  V30 12271 O 1230.79 -0.535913 1.73198 0
M  V30 12272 C 1230.84 2.95797 2.06243 0
M  V30 12273 O 1229.94 2.67225 3.14109 0
M  V30 12274 H 1229.28 0.585282 0.313593 0
M  V30 12275 H 1231.81 2.01225 0.370066 0
M  V30 12276 H 1231.82 3.23097 2.49143 0
M  V30 12277 H 1230.5 3.86712 1.53058 0
M  V30 12278 H 1229.07 2.50869 2.75897 0
M  V30 12279 N 1231.26 -0.58723 1.46251 0
M  V30 12280 C 1232.49 -1.36976 1.54665 0
M  V30 12281 C 1232.9 -1.88293 0.185079 0
M  V30 12282 O 1232.24 -1.64028 -0.82707 0
M  V30 12283 C 1232.3 -2.59591 2.48702 0
M  V30 12284 C 1231.96 -2.29773 3.95036 0
M  V30 12285 C 1232.96 -1.88885 4.84374 0
M  V30 12286 C 1230.65 -2.42057 4.40129 0
M  V30 12287 C 1232.64 -1.60669 6.16818 0
M  V30 12288 C 1230.33 -2.13454 5.72609 0
M  V30 12289 C 1231.33 -1.72824 6.60773 0
M  V30 12290 O 1231.01 -1.44569 7.90794 0
M  V30 12291 H 1230.75 -0.424968 0.525717 0
M  V30 12292 H 1233.3 -0.721298 1.92319 0
M  V30 12293 H 1231.53 -3.27226 2.06058 0
M  V30 12294 H 1233.22 -3.21656 2.47573 0
M  V30 12295 H 1233.98 -1.78913 4.50794 0
M  V30 12296 H 1229.86 -2.72644 3.71734 0
M  V30 12297 H 1233.41 -1.28882 6.85591 0
M  V30 12298 H 1229.3 -2.23048 6.05739 0
M  V30 12299 H 1230.07 -1.58452 8.03016 0
M  V30 12300 N 1232.74 -1.33881 -0.831482 0
M  V30 12301 C 1234.15 -1.13376 -1.1233 0
M  V30 12302 C 1234.35 0.0704402 -2.01377 0
M  V30 12303 O 1233.41 0.748516 -2.4115 0
M  V30 12304 C 1234.72 -2.42484 -1.77826 0
M  V30 12305 C 1236.27 -2.4846 -1.90359 0
M  V30 12306 C 1236.74 -3.77548 -2.59272 0
M  V30 12307 N 1238.23 -3.7866 -2.66778 0
M  V30 12308 C 1238.97 -4.75258 -3.20807 0
M  V30 12309 N 1238.47 -5.82234 -3.75466 0
M  V30 12310 N 1240.26 -4.62724 -3.19128 0
M  V30 12311 H 1232.41 -2.11051 -0.238998 0
M  V30 12312 H 1234.67 -0.932893 -0.168565 0
M  V30 12313 H 1234.38 -3.30647 -1.19857 0
M  V30 12314 H 1234.25 -2.55186 -2.77777 0
M  V30 12315 H 1236.64 -1.60742 -2.47479 0
M  V30 12316 H 1236.72 -2.39693 -0.893359 0
M  V30 12317 H 1236.36 -4.65651 -2.02808 0
M  V30 12318 H 1236.29 -3.83594 -3.60781 0
M  V30 12319 H 1238.79 -3.01351 -2.28026 0
M  V30 12320 H 1239.1 -6.51968 -4.14918 0
M  V30 12321 H 1237.44 -5.85959 -3.73733 0
M  V30 12322 H 1240.63 -3.78303 -2.75688 0
M  V30 12323 H 1240.81 -5.38175 -3.60932 0
M  V30 12324 N 1234.21 1.05064 -1.1747 0
M  V30 12325 C 1235.46 1.77737 -0.961979 0
M  V30 12326 C 1235.78 1.88198 0.510551 0
M  V30 12327 O 1235.05 1.39968 1.37062 0
M  V30 12328 H 1233.63 0.658366 -0.352935 0
M  V30 12329 H 1236.29 1.26851 -1.47969 0
M  V30 12330 H 1235.39 2.79368 -1.39141 0
M  V30 12331 N 1235.69 0.975146 1.23809 0
M  V30 12332 C 1236.92 0.658978 1.96125 0
M  V30 12333 C 1237.33 -0.773044 1.72248 0
M  V30 12334 O 1236.69 -1.51956 1.01072 0
M  V30 12335 C 1236.74 0.933355 3.49243 0
M  V30 12336 O 1236.46 2.30909 3.72307 0
M  V30 12337 C 1237.96 0.632408 4.38766 0
M  V30 12338 H 1235.18 0.245237 0.62458 0
M  V30 12339 H 1237.73 1.3051 1.5744 0
M  V30 12340 H 1235.88 0.333323 3.85963 0
M  V30 12341 H 1236.3 2.39476 4.66638 0
M  V30 12342 H 1237.77 0.874791 5.45024 0
M  V30 12343 H 1238.25 -0.433453 4.37056 0
M  V30 12344 H 1238.85 1.21268 4.07645 0
M  V30 12345 N 1237.17 -1.38817 0.746158 0
M  V30 12346 C 1238.4 -2.04274 0.309156 0
M  V30 12347 C 1238.81 -1.56389 -1.06486 0
M  V30 12348 O 1238.15 -0.728875 -1.68621 0
M  V30 12349 C 1238.21 -3.58664 0.245003 0
M  V30 12350 C 1237.88 -4.29574 1.55933 0
M  V30 12351 C 1238.87 -4.55454 2.50714 0
M  V30 12352 C 1236.56 -4.67907 1.82671 0
M  V30 12353 C 1238.55 -5.18691 3.70458 0
M  V30 12354 C 1236.24 -5.30869 3.0269 0
M  V30 12355 C 1237.24 -5.56195 3.96404 0
M  V30 12356 O 1236.93 -6.17848 5.14314 0
M  V30 12357 H 1236.66 -0.663162 0.131121 0
M  V30 12358 H 1239.21 -1.78636 1.01382 0
M  V30 12359 H 1237.44 -3.83244 -0.515847 0
M  V30 12360 H 1239.13 -4.05579 -0.16149 0
M  V30 12361 H 1239.9 -4.26276 2.3133 0
M  V30 12362 H 1235.78 -4.47544 1.10568 0
M  V30 12363 H 1239.32 -5.38375 4.4362 0
M  V30 12364 H 1235.22 -5.59469 3.2197 0
M  V30 12365 H 1235.98 -6.36338 5.14797 0
M  V30 12366 N 1238.65 -0.49465 -1.49636 0
M  V30 12367 C 1239.87 0.051305 -2.07337 0
M  V30 12368 C 1240.3 1.30637 -1.35335 0
M  V30 12369 O 1239.66 1.76647 -0.408126 0
M  V30 12370 C 1239.7 0.294425 -3.59396 0
M  V30 12371 O 1238.81 1.3704 -3.88965 0
M  V30 12372 H 1238.15 -0.023408 -0.663587 0
M  V30 12373 H 1240.68 -0.692451 -1.92526 0
M  V30 12374 H 1240.69 0.527854 -4.04571 0
M  V30 12375 H 1239.36 -0.622583 -4.11214 0
M  V30 12376 H 1237.94 1.12242 -3.55607 0
M  V30 12377 N 1240.13 1.55939 -0.228214 0
M  V30 12378 C 1241.35 2.0287 0.406348 0
M  V30 12379 C 1241.77 1.1079 1.52876 0
M  V30 12380 O 1241.13 0.118747 1.82113 0
M  V30 12381 C 1241.18 3.49286 0.931734 0
M  V30 12382 O 1240.9 4.37857 -0.145933 0
M  V30 12383 C 1242.4 4.11893 1.63887 0
M  V30 12384 H 1239.62 0.663696 0.0987358 0
M  V30 12385 H 1242.16 2.01541 -0.346616 0
M  V30 12386 H 1240.32 3.5121 1.63494 0
M  V30 12387 H 1240.73 5.23904 0.250005 0
M  V30 12388 H 1242.21 5.16091 1.95841 0
M  V30 12389 H 1242.68 3.57281 2.55435 0
M  V30 12390 H 1243.29 4.13839 0.980697 0
M  V30 12391 N 1241.6 -0.0451101 1.57535 0
M  V30 12392 C 1242.83 -0.75132 1.92777 0
M  V30 12393 C 1243.25 -1.69743 0.826599 0
M  V30 12394 O 1242.6 -1.8142 -0.198224 0
M  V30 12395 C 1242.66 -1.52218 3.2789 0
M  V30 12396 O 1242.38 -0.614059 4.33775 0
M  V30 12397 C 1243.88 -2.32699 3.77314 0
M  V30 12398 H 1241.1 -0.21211 0.636593 0
M  V30 12399 H 1243.64 -0.0074174 2.04499 0
M  V30 12400 H 1241.8 -2.2181 3.17614 0
M  V30 12401 H 1242.21 -1.15294 5.11671 0
M  V30 12402 H 1243.68 -2.82205 4.7441 0
M  V30 12403 H 1244.16 -3.13414 3.07682 0
M  V30 12404 H 1244.77 -1.68212 3.90621 0
M  V30 12405 N 1243.08 -1.54377 -0.317073 0
M  V30 12406 C 1244.33 -1.73149 -1.05581 0
M  V30 12407 C 1244.66 -0.507176 -1.8746 0
M  V30 12408 O 1243.94 0.495837 -1.88074 0
M  V30 12409 C 1244.22 -3.01098 -1.97515 0
M  V30 12410 C 1244.07 -4.33794 -1.18922 0
M  V30 12411 C 1245.39 -3.24831 -2.9694 0
M  V30 12412 H 1242.51 -0.630011 -0.382434 0
M  V30 12413 H 1245.15 -1.87079 -0.331873 0
M  V30 12414 H 1243.3 -2.89352 -2.59244 0
M  V30 12415 H 1244.97 -4.57433 -0.596039 0
M  V30 12416 H 1243.22 -4.31005 -0.491612 0
M  V30 12417 H 1243.89 -5.19554 -1.86462 0
M  V30 12418 H 1246.36 -3.3608 -2.45335 0
M  V30 12419 H 1245.24 -4.15702 -3.58445 0
M  V30 12420 H 1245.5 -2.42365 -3.69745 0
M  V30 12421 N 1244.56 0.579466 -1.4656 0
M  V30 12422 C 1245.79 1.36351 -1.55615 0
M  V30 12423 C 1246.2 1.87755 -0.198405 0
M  V30 12424 O 1245.56 1.63795 0.804834 0
M  V30 12425 C 1245.61 2.54881 -2.56355 0
M  V30 12426 O 1245.33 2.05607 -3.86856 0
M  V30 12427 C 1246.83 3.47391 -2.75381 0
M  V30 12428 H 1244.05 0.416426 -0.526147 0
M  V30 12429 H 1246.6 0.704134 -1.91995 0
M  V30 12430 H 1244.75 3.16802 -2.2297 0
M  V30 12431 H 1245.17 2.82823 -4.41714 0
M  V30 12432 H 1246.64 4.27031 -3.49783 0
M  V30 12433 H 1247.12 3.99532 -1.82403 0
M  V30 12434 H 1247.72 2.91303 -3.09875 0
M  V30 12435 N 1246.04 1.3432 0.824371 0
M  V30 12436 C 1247.29 1.26345 1.57738 0
M  V30 12437 C 1247.61 -0.166836 1.94285 0
M  V30 12438 O 1246.88 -1.09911 1.62162 0
M  V30 12439 H 1245.46 0.46466 0.584893 0
M  V30 12440 H 1248.12 1.68214 0.984373 0
M  V30 12441 H 1247.22 1.8672 2.50084 0
M  V30 12442 N 1247.52 -1.0444 1.18026 0
M  V30 12443 C 1248.93 -1.29766 0.929143 0
M  V30 12444 C 1249.13 -1.97338 -0.407436 0
M  V30 12445 O 1248.19 -2.25166 -1.14265 0
M  V30 12446 C 1249.5 -2.16002 2.09197 0
M  V30 12447 C 1251.05 -2.29361 2.12985 0
M  V30 12448 C 1251.52 -3.18962 3.28675 0
M  V30 12449 N 1253.02 -3.26549 3.28512 0
M  V30 12450 C 1253.75 -3.96025 4.14671 0
M  V30 12451 N 1253.25 -4.67863 5.10956 0
M  V30 12452 N 1255.04 -3.92266 4.02597 0
M  V30 12453 H 1247.19 -0.58984 2.04046 0
M  V30 12454 H 1249.45 -0.322752 0.891367 0
M  V30 12455 H 1249.16 -1.73653 3.05839 0
M  V30 12456 H 1249.03 -3.16667 2.04943 0
M  V30 12457 H 1251.42 -2.70948 1.16924 0
M  V30 12458 H 1251.5 -1.28299 2.21298 0
M  V30 12459 H 1251.15 -2.78087 4.25006 0
M  V30 12460 H 1251.08 -4.20047 3.17598 0
M  V30 12461 H 1253.57 -2.75371 2.58804 0
M  V30 12462 H 1253.88 -5.1846 5.73079 0
M  V30 12463 H 1252.22 -4.6678 5.14919 0
M  V30 12464 H 1255.42 -3.35273 3.26665 0
M  V30 12465 H 1255.59 -4.4614 4.69961 0
M  V30 12466 N 1248.99 -0.981699 -1.2329 0
M  V30 12467 C 1250.22 -0.66937 -1.95773 0
M  V30 12468 C 1250.64 0.763898 -1.72656 0
M  V30 12469 O 1249.99 1.51418 -1.01876 0
M  V30 12470 C 1250.05 -0.951863 -3.48743 0
M  V30 12471 O 1249.77 -2.3288 -3.71078 0
M  V30 12472 C 1251.27 -0.655668 -4.38424 0
M  V30 12473 H 1248.49 -0.248545 -0.623271 0
M  V30 12474 H 1251.03 -1.31343 -1.56746 0
M  V30 12475 H 1249.19 -0.353787 -3.85781 0
M  V30 12476 H 1249.6 -2.41948 -4.65362 0
M  V30 12477 H 1251.07 -0.903683 -5.44553 0
M  V30 12478 H 1251.55 0.410269 -4.3728 0
M  V30 12479 H 1252.16 -1.23428 -4.06996 0
M  V30 12480 N 1250.47 1.3842 -0.753509 0
M  V30 12481 C 1251.71 2.01965 -0.314558 0
M  V30 12482 C 1252.08 1.58519 1.08331 0
M  V30 12483 O 1253.28 2.14395 1.62137 0
M  V30 12484 C 1251.55 3.54765 -0.433199 0
M  V30 12485 S 1253.11 4.38733 -0.0768176 0
M  V30 12486 H 1249.93 0.700447 -0.122045 0
M  V30 12487 H 1252.53 1.68925 -0.98411 0
M  V30 12488 H 1251.23 3.83874 -1.45152 0
M  V30 12489 H 1250.76 3.92582 0.253539 0
M  V30 12490 H 1252.78 4.83077 1.13361 0
M  V30 12491 N 1251.95 0.502579 1.49372 0
M  V30 12492 C 1252.88 -0.311743 2.2707 0
M  V30 12493 C 1253.9 -0.929204 1.33677 0
M  V30 12494 O 1255.08 -0.812277 1.58948 0
M  V30 12495 C 1252.18 -1.45404 3.06122 0
M  V30 12496 C 1251.36 -0.943591 4.27101 0
M  V30 12497 C 1250.42 -1.96368 4.88186 0
M  V30 12498 O 1249.44 -1.5316 5.48207 0
M  V30 12499 N 1250.64 -3.29419 4.77978 0
M  V30 12500 H 1253.41 0.354503 2.97596 0
M  V30 12501 H 1250.97 0.335222 1.58392 0
M  V30 12502 H 1252.96 -2.13404 3.43862 0
M  V30 12503 H 1251.53 -2.02441 2.38194 0
M  V30 12504 H 1250.75 -0.0884372 3.94101 0
M  V30 12505 H 1252.04 -0.580983 5.05472 0
M  V30 12506 H 1251.44 -3.67211 4.30317 0
M  V30 12507 H 1250 -3.93129 5.19897 0
M  V30 12508 N 1253.43 -1.55816 0.23648 0
M  V30 12509 C 1254.39 -2.1967 -0.654041 0
M  V30 12510 C 1255.39 -1.1629 -1.11056 0
M  V30 12511 O 1256.58 -1.41435 -1.01695 0
M  V30 12512 C 1253.71 -2.83196 -1.89771 0
M  V30 12513 H 1254.91 -2.99743 -0.0970911 0
M  V30 12514 H 1252.46 -1.56295 -0.013098 0
M  V30 12515 H 1253.19 -2.07033 -2.49616 0
M  V30 12516 H 1252.98 -3.58915 -1.57868 0
M  V30 12517 H 1254.47 -3.32095 -2.53184 0
M  V30 12518 N 1254.91 0.036755 -1.57557 0
M  V30 12519 C 1256.15 0.72475 -1.9005 0
M  V30 12520 C 1256.51 1.73374 -0.834226 0
M  V30 12521 O 1255.8 1.90948 0.157943 0
M  V30 12522 C 1255.99 1.44206 -3.27016 0
M  V30 12523 C 1255.82 0.504059 -4.46866 0
M  V30 12524 C 1254.59 0.127948 -5.05138 0
M  V30 12525 C 1256.79 -0.214278 -5.13853 0
M  V30 12526 N 1254.77 -0.812111 -6.08505 0
M  V30 12527 C 1256.14 -1.01027 -6.11714 0
M  V30 12528 C 1258.2 -0.28204 -4.97101 0
M  V30 12529 C 1256.9 -1.86778 -6.94627 0
M  V30 12530 C 1258.93 -1.12664 -5.80569 0
M  V30 12531 C 1258.29 -1.91058 -6.77994 0
M  V30 12532 H 1254.39 0.239542 -0.744408 0
M  V30 12533 H 1256.97 -0.0149454 -1.94694 0
M  V30 12534 H 1255.14 2.15226 -3.23314 0
M  V30 12535 H 1256.88 2.08183 -3.47047 0
M  V30 12536 H 1253.63 0.488471 -4.71074 0
M  V30 12537 H 1254.06 -1.27642 -6.64858 0
M  V30 12538 H 1258.7 0.309735 -4.21664 0
M  V30 12539 H 1256.42 -2.47038 -7.69414 0
M  V30 12540 H 1260 -1.18251 -5.69656 0
M  V30 12541 H 1258.88 -2.55358 -7.41459 0
M  V30 12542 N 1256.39 1.54543 0.308881 0
M  V30 12543 C 1257.61 1.77753 1.06857 0
M  V30 12544 C 1258.04 0.531616 1.80431 0
M  V30 12545 O 1257.39 -0.517513 1.73757 0
M  V30 12546 C 1257.44 2.97968 2.03094 0
M  V30 12547 O 1256.55 2.70541 3.11257 0
M  V30 12548 H 1255.89 0.588576 0.307368 0
M  V30 12549 H 1258.42 2.01607 0.348703 0
M  V30 12550 H 1258.43 3.25722 2.45702 0
M  V30 12551 H 1257.1 3.88314 1.48948 0
M  V30 12552 H 1255.68 2.53781 2.7322 0
M  V30 12553 N 1257.86 -0.571685 1.46866 0
M  V30 12554 C 1259.09 -1.36008 1.56578 0
M  V30 12555 C 1259.51 -1.86909 0.211326 0
M  V30 12556 O 1258.87 -1.62179 -0.810421 0
M  V30 12557 C 1258.92 -2.51598 2.58323 0
M  V30 12558 O 1258.02 -3.53383 2.1259 0
M  V30 12559 H 1257.36 -0.404593 0.526498 0
M  V30 12560 H 1259.89 -0.692357 1.92529 0
M  V30 12561 H 1259.9 -2.98366 2.78283 0
M  V30 12562 H 1258.58 -2.13904 3.56676 0
M  V30 12563 H 1257.16 -3.13019 2.02666 0
M  V30 12564 N 1259.34 -1.34755 -0.817236 0
M  V30 12565 C 1260.27 -1.21147 -1.93387 0
M  V30 12566 C 1261.25 -0.101788 -1.62281 0
M  V30 12567 O 1262.44 -0.267968 -1.86586 0
M  V30 12568 C 1259.56 -0.86301 -3.27521 0
M  V30 12569 C 1258.61 -1.98325 -3.77584 0
M  V30 12570 S 1259.44 -3.59751 -3.9666 0
M  V30 12571 C 1260.6 -3.26959 -5.33712 0
M  V30 12572 H 1260.83 -2.15667 -2.04634 0
M  V30 12573 H 1258.36 -1.19848 -0.973441 0
M  V30 12574 H 1260.32 -0.668754 -4.05016 0
M  V30 12575 H 1258.98 0.0639417 -3.14035 0
M  V30 12576 H 1258.18 -1.69332 -4.74703 0
M  V30 12577 H 1257.78 -2.13529 -3.07053 0
M  V30 12578 H 1260.07 -2.79126 -6.17329 0
M  V30 12579 H 1261.01 -4.23238 -5.67693 0
M  V30 12580 H 1261.42 -2.62996 -4.99493 0
M  V30 12581 N 1260.82 1.03812 -1.18578 0
M  V30 12582 C 1262.05 1.80702 -1.00769 0
M  V30 12583 C 1262.46 1.83509 0.443833 0
M  V30 12584 O 1261.82 1.2724 1.30829 0
M  V30 12585 C 1261.87 3.26185 -1.55838 0
M  V30 12586 O 1261.59 3.23612 -2.95308 0
M  V30 12587 C 1263.09 4.1971 -1.42682 0
M  V30 12588 H 1260.31 0.568972 -0.355685 0
M  V30 12589 H 1262.86 1.30817 -1.57185 0
M  V30 12590 H 1261.01 3.73293 -1.03592 0
M  V30 12591 H 1261.43 4.14769 -3.2104 0
M  V30 12592 H 1262.9 5.19716 -1.86008 0
M  V30 12593 H 1263.38 4.37588 -0.375924 0
M  V30 12594 H 1263.98 3.78469 -1.94013 0
M  V30 12595 N 1262.3 0.988223 1.22768 0
M  V30 12596 C 1263.71 0.697281 1.7319 0
M  V30 12597 C 1264.06 -0.786111 1.79763 0
M  V30 12598 O 1263.18 -1.61465 1.44077 0
M  V30 12599 C 1263.78 1.25905 3.14537 0
M  V30 12600 C 1262.34 1.01759 3.62384 0
M  V30 12601 C 1261.49 1.38207 2.40404 0
M  V30 12602 H 1264.44 1.16114 1.08181 0
M  V30 12603 H 1264.46 0.635315 3.75159 0
M  V30 12604 H 1263.97 2.33869 3.09721 0
M  V30 12605 H 1262.07 -0.045627 3.72572 0
M  V30 12606 H 1262.18 1.67767 4.48766 0
M  V30 12607 H 1260.55 0.800607 2.4179 0
M  V30 12608 H 1261.33 2.47165 2.38253 0
M  V30 12609 N 1263.78 -1.38018 0.760839 0
M  V30 12610 C 1264.73 -2.27717 0.113521 0
M  V30 12611 C 1265.71 -1.45562 -0.685613 0
M  V30 12612 O 1266.9 -1.68226 -0.550377 0
M  V30 12613 C 1264.03 -3.34478 -0.77325 0
M  V30 12614 C 1263.12 -4.24087 0.0331238 0
M  V30 12615 N 1263.51 -4.94283 1.07323 0
M  V30 12616 C 1261.81 -4.45584 -0.192565 0
M  V30 12617 C 1262.51 -5.60344 1.56172 0
M  V30 12618 N 1261.48 -5.36499 0.875768 0
M  V30 12619 H 1265.28 -2.79456 0.910021 0
M  V30 12620 H 1262.8 -1.51006 0.597561 0
M  V30 12621 H 1264.8 -3.97635 -1.25268 0
M  V30 12622 H 1263.46 -2.84296 -1.56862 0
M  V30 12623 H 1264.47 -4.97036 1.45517 0
M  V30 12624 H 1261.14 -4.06296 -0.960704 0
M  V30 12625 H 1262.53 -6.26477 2.42851 0
M  V30 12626 N 1265.25 -0.510493 -1.49103 0
M  V30 12627 C 1266.48 0.0293113 -2.07379 0
M  V30 12628 C 1266.9 1.29195 -1.36713 0
M  V30 12629 O 1266.26 1.76204 -0.426838 0
M  V30 12630 C 1266.31 0.25629 -3.59688 0
M  V30 12631 O 1265.41 1.32907 -3.90397 0
M  V30 12632 H 1264.75 -0.0304449 -0.663302 0
M  V30 12633 H 1267.28 -0.712832 -1.91781 0
M  V30 12634 H 1267.29 0.484915 -4.05108 0
M  V30 12635 H 1265.97 -0.666163 -4.1053 0
M  V30 12636 H 1264.55 1.08464 -3.56777 0
M  V30 12637 N 1266.73 1.55688 -0.24474 0
M  V30 12638 C 1267.68 2.17946 0.669596 0
M  V30 12639 C 1268.67 1.13468 1.14078 0
M  V30 12640 O 1269.86 1.39385 1.09091 0
M  V30 12641 C 1266.99 2.8808 1.86721 0
M  V30 12642 C 1266.07 3.99811 1.41463 0
M  V30 12643 N 1266.46 5.01261 0.676131 0
M  V30 12644 C 1264.76 4.12327 1.70008 0
M  V30 12645 C 1265.46 5.80017 0.442113 0
M  V30 12646 N 1264.44 5.34216 1.00569 0
M  V30 12647 H 1268.24 2.93739 0.0971953 0
M  V30 12648 H 1265.75 1.62332 -0.0469646 0
M  V30 12649 H 1267.75 3.31109 2.53322 0
M  V30 12650 H 1266.41 2.13789 2.44385 0
M  V30 12651 H 1267.42 5.1687 0.326459 0
M  V30 12652 H 1264.1 3.49206 2.28827 0
M  V30 12653 H 1265.49 6.71739 -0.14729 0
M  V30 12654 N 1268.21 -0.0283989 1.57574 0
M  V30 12655 C 1269.43 -0.734537 1.93957 0
M  V30 12656 C 1269.86 -1.68062 0.844787 0
M  V30 12657 O 1269.22 -1.802 -0.199432 0
M  V30 12658 C 1269.27 -1.46716 3.29404 0
M  V30 12659 O 1268.37 -2.58036 3.217 0
M  V30 12660 H 1267.71 -0.197507 0.633946 0
M  V30 12661 H 1270.24 0.0163258 2.04593 0
M  V30 12662 H 1270.25 -1.83693 3.64309 0
M  V30 12663 H 1268.93 -0.773292 4.08648 0
M  V30 12664 H 1267.5 -2.23597 2.98427 0
M  V30 12665 N 1269.69 -1.54705 -0.300681 0
M  V30 12666 C 1271.1 -1.45926 -0.646359 0
M  V30 12667 C 1271.3 -0.65072 -1.90704 0
M  V30 12668 O 1270.36 -0.158547 -2.52002 0
M  V30 12669 C 1271.67 -2.89889 -0.799059 0
M  V30 12670 C 1273.22 -2.99934 -0.894923 0
M  V30 12671 C 1273.7 -4.45093 -1.07962 0
M  V30 12672 N 1275.19 -4.48804 -1.14581 0
M  V30 12673 C 1275.92 -5.58305 -1.30702 0
M  V30 12674 N 1275.42 -6.77729 -1.43719 0
M  V30 12675 N 1277.21 -5.45994 -1.33593 0
M  V30 12676 H 1269.36 -2.05742 0.527617 0
M  V30 12677 H 1271.62 -0.931817 0.174415 0
M  V30 12678 H 1271.33 -3.51655 0.0563954 0
M  V30 12679 H 1271.2 -3.37325 -1.68796 0
M  V30 12680 H 1273.59 -2.38281 -1.74086 0
M  V30 12681 H 1273.67 -2.55794 0.0179973 0
M  V30 12682 H 1273.32 -5.0734 -0.238444 0
M  V30 12683 H 1273.25 -4.86864 -2.00677 0
M  V30 12684 H 1275.74 -3.62766 -1.05874 0
M  V30 12685 H 1276.05 -7.56937 -1.55776 0
M  V30 12686 H 1274.4 -6.80594 -1.40774 0
M  V30 12687 H 1277.59 -4.51641 -1.23035 0
M  V30 12688 H 1277.76 -6.31381 -1.45813 0
M  V30 12689 N 1271.17 0.563888 -1.47167 0
M  V30 12690 C 1272.39 1.34693 -1.57052 0
M  V30 12691 C 1272.81 1.87534 -0.218308 0
M  V30 12692 O 1272.17 1.64639 0.787416 0
M  V30 12693 C 1272.22 2.52148 -2.59044 0
M  V30 12694 O 1271.94 2.01492 -3.89015 0
M  V30 12695 C 1273.44 3.4445 -2.7905 0
M  V30 12696 H 1270.66 0.410822 -0.530534 0
M  V30 12697 H 1273.2 0.683731 -1.92731 0
M  V30 12698 H 1271.36 3.14419 -2.26317 0
M  V30 12699 H 1271.77 2.78122 -4.44689 0
M  V30 12700 H 1273.25 4.23297 -3.54293 0
M  V30 12701 H 1273.72 3.97575 -1.86631 0
M  V30 12702 H 1274.33 2.88 -3.12948 0
M  V30 12703 N 1272.64 1.35187 0.810078 0
M  V30 12704 C 1274.06 1.25329 1.38381 0
M  V30 12705 C 1274.41 -0.115799 1.95858 0
M  V30 12706 O 1273.53 -1.01663 1.91033 0
M  V30 12707 C 1274.13 2.2693 2.51572 0
M  V30 12708 C 1272.69 2.20824 3.04818 0
M  V30 12709 C 1271.83 2.1283 1.7776 0
M  V30 12710 H 1274.78 1.46366 0.613402 0
M  V30 12711 H 1274.8 1.89375 3.30026 0
M  V30 12712 H 1274.32 3.26563 2.09709 0
M  V30 12713 H 1272.42 1.24589 3.51153 0
M  V30 12714 H 1272.53 3.12637 3.63036 0
M  V30 12715 H 1270.89 1.58752 1.99173 0
M  V30 12716 H 1271.68 3.14318 1.38054 0
M  V30 12717 N 1274.12 -1.03182 1.19127 0
M  V30 12718 C 1275.03 -2.14875 0.94159 0
M  V30 12719 C 1276.05 -1.73727 -0.0973872 0
M  V30 12720 O 1277.22 -2.01214 0.0865775 0
M  V30 12721 C 1274.29 -3.43356 0.480366 0
M  V30 12722 C 1273.35 -3.98835 1.58838 0
M  V30 12723 C 1272.58 -5.21183 1.14907 0
M  V30 12724 O 1272.81 -5.70399 0.0114141 0
M  V30 12725 O 1271.74 -5.69423 1.95042 0
M  V30 12726 H 1275.57 -2.38799 1.8764 0
M  V30 12727 H 1273.15 -1.13299 0.973841 0
M  V30 12728 H 1275.03 -4.20763 0.231658 0
M  V30 12729 H 1273.71 -3.20884 -0.426041 0
M  V30 12730 H 1272.62 -3.22776 1.8912 0
M  V30 12731 H 1273.95 -4.25665 2.47123 0
M  V30 12732 N 1275.6 -0.99472 -1.22242 0
M  V30 12733 C 1276.83 -0.689096 -1.94769 0
M  V30 12734 C 1277.24 0.750597 -1.73674 0
M  V30 12735 O 1276.58 1.51836 -1.03399 0
M  V30 12736 C 1276.64 -0.917454 -3.47596 0
M  V30 12737 C 1276.31 -2.34198 -3.92429 0
M  V30 12738 C 1277.3 -3.3216 -3.99957 0
M  V30 12739 C 1274.99 -2.6769 -4.25026 0
M  V30 12740 C 1276.98 -4.61686 -4.3946 0
M  V30 12741 C 1274.67 -3.97435 -4.64208 0
M  V30 12742 C 1275.67 -4.94244 -4.71394 0
M  V30 12743 O 1275.36 -6.2167 -5.09688 0
M  V30 12744 H 1275.09 -0.253914 -0.626501 0
M  V30 12745 H 1277.64 -1.33271 -1.56294 0
M  V30 12746 H 1275.87 -0.21666 -3.86093 0
M  V30 12747 H 1277.56 -0.6068 -4.01339 0
M  V30 12748 H 1278.33 -3.07619 -3.74961 0
M  V30 12749 H 1274.21 -1.93039 -4.18637 0
M  V30 12750 H 1277.75 -5.37248 -4.44983 0
M  V30 12751 H 1273.65 -4.21765 -4.88656 0
M  V30 12752 H 1274.42 -6.25634 -5.27755 0
M  V30 12753 N 1277.08 1.37613 -0.768148 0
M  V30 12754 C 1278.31 2.03756 -0.341615 0
M  V30 12755 C 1278.72 1.58063 1.03984 0
M  V30 12756 O 1278.06 0.755609 1.6744 0
M  V30 12757 C 1278.12 3.58229 -0.302032 0
M  V30 12758 C 1277.79 4.27039 -1.62747 0
M  V30 12759 C 1278.78 4.51408 -2.57928 0
M  V30 12760 C 1276.47 4.64941 -1.90092 0
M  V30 12761 C 1278.46 5.12731 -3.78663 0
M  V30 12762 C 1276.15 5.25986 -3.11098 0
M  V30 12763 C 1277.15 5.49818 -4.05203 0
M  V30 12764 O 1276.83 6.09588 -5.24078 0
M  V30 12765 H 1276.57 0.660992 -0.141655 0
M  V30 12766 H 1279.12 1.77001 -1.04211 0
M  V30 12767 H 1277.35 3.84016 0.454811 0
M  V30 12768 H 1279.04 4.05784 0.0969452 0
M  V30 12769 H 1279.81 4.22542 -2.38083 0
M  V30 12770 H 1275.68 4.45729 -1.17674 0
M  V30 12771 H 1279.23 5.31249 -4.52129 0
M  V30 12772 H 1275.13 5.54276 -3.3083 0
M  V30 12773 H 1275.89 6.28068 -5.24855 0
M  V30 12774 N 1278.56 0.518393 1.4883 0
M  V30 12775 C 1279.97 0.0749773 1.86549 0
M  V30 12776 C 1280.32 -1.34429 1.4291 0
M  V30 12777 O 1279.44 -2.00481 0.814648 0
M  V30 12778 C 1280.04 0.129289 3.38553 0
M  V30 12779 C 1278.6 -0.258871 3.75509 0
M  V30 12780 C 1277.74 0.494185 2.72861 0
M  V30 12781 H 1280.7 0.730266 1.409 0
M  V30 12782 H 1280.72 -0.661844 3.747 0
M  V30 12783 H 1280.23 1.16237 3.70285 0
M  V30 12784 H 1278.33 -1.29453 3.49389 0
M  V30 12785 H 1278.44 0.0726769 4.79045 0
M  V30 12786 H 1276.81 -0.0581428 2.54634 0
M  V30 12787 H 1277.59 1.52767 3.07436 0
M  V30 12788 N 1280.03 -1.55556 0.252993 0
M  V30 12789 C 1280.98 -2.23035 -0.660161 0
M  V30 12790 C 1281.98 -1.21994 -1.17532 0
M  V30 12791 O 1283.18 -1.39989 -1.13151 0
M  V30 12792 H 1279.56 -0.715516 -0.23139 0
M  V30 12793 H 1281.53 -2.98323 -0.0679506 0
M  V30 12794 C 1280.28 -2.94817 -1.84332 0
M  V30 12795 H 1279.6 -3.72342 -1.45607 0
M  V30 12796 H 1281.04 -3.45386 -2.45936 0
M  V30 12797 C 1279.5 -1.99033 -2.71822 0
M  V30 12798 O 1280.03 -1.5273 -3.71533 0
M  V30 12799 N 1278.24 -1.66004 -2.38518 0
M  V30 12800 H 1277.78 -2.03853 -1.57485 0
M  V30 12801 H 1277.74 -1.02183 -2.97331 0
M  V30 12802 N 1281.51 0.0200419 -1.57587 0
M  V30 12803 C 1282.48 1.00255 -2.06111 0
M  V30 12804 C 1283.48 1.28488 -0.966829 0
M  V30 12805 O 1284.67 1.2334 -1.23015 0
M  V30 12806 C 1281.8 2.33296 -2.48567 0
M  V30 12807 H 1282.99 0.583216 -2.94174 0
M  V30 12808 H 1280.54 0.267077 -1.54001 0
M  V30 12809 H 1281.28 2.79959 -1.63687 0
M  V30 12810 H 1281.06 2.14131 -3.28467 0
M  V30 12811 H 1282.55 3.03817 -2.86505 0
M  V30 12812 N 1282.99 1.54862 0.292472 0
M  V30 12813 C 1284.24 1.74203 1.02458 0
M  V30 12814 C 1284.56 0.535398 1.87506 0
M  V30 12815 O 1283.83 -0.450164 1.90658 0
M  V30 12816 H 1282.41 0.642369 0.381276 0
M  V30 12817 H 1285.07 1.92232 0.321398 0
M  V30 12818 H 1284.17 2.63486 1.67277 0
M  V30 12819 N 1284.47 -0.556076 1.47464 0
M  V30 12820 C 1285.4 -1.67275 1.62915 0
M  V30 12821 C 1286.38 -1.63229 0.478562 0
M  V30 12822 O 1287.56 -1.80833 0.708032 0
M  V30 12823 C 1284.69 -3.05911 1.64426 0
M  V30 12824 C 1283.65 -3.24804 2.78722 0
M  V30 12825 C 1282.97 -4.64238 2.65307 0
M  V30 12826 C 1284.27 -3.10071 4.20302 0
M  V30 12827 H 1285.97 -1.54601 2.56396 0
M  V30 12828 H 1283.51 -0.742337 1.23391 0
M  V30 12829 H 1285.47 -3.83878 1.73826 0
M  V30 12830 H 1284.19 -3.19547 0.675053 0
M  V30 12831 H 1282.85 -2.49246 2.68835 0
M  V30 12832 H 1282.5 -4.74675 1.66412 0
M  V30 12833 H 1282.2 -4.77828 3.41986 0
M  V30 12834 H 1283.72 -5.44339 2.76637 0
M  V30 12835 H 1285.14 -3.77855 4.3116 0
M  V30 12836 H 1283.53 -3.3517 4.97776 0
M  V30 12837 H 1284.6 -2.06803 4.38589 0
M  V30 12838 N 1285.95 -1.35615 -0.802897 0
M  V30 12839 C 1287.2 -1.28428 -1.55528 0
M  V30 12840 C 1287.51 0.138275 -1.95111 0
M  V30 12841 O 1288.72 0.332435 -2.69457 0
M  V30 12842 C 1287.17 -2.25251 -2.80696 0
M  V30 12843 C 1286.78 -3.72871 -2.48336 0
M  V30 12844 C 1288.52 -2.27014 -3.58699 0
M  V30 12845 C 1286.43 -4.61507 -3.69817 0
M  V30 12846 H 1285.36 -0.47718 -0.583794 0
M  V30 12847 H 1288.01 -1.609 -0.882238 0
M  V30 12848 H 1286.39 -1.85755 -3.4973 0
M  V30 12849 H 1287.57 -4.21024 -1.87285 0
M  V30 12850 H 1285.88 -3.73752 -1.83571 0
M  V30 12851 H 1288.48 -2.90451 -4.48935 0
M  V30 12852 H 1288.82 -1.27491 -3.96298 0
M  V30 12853 H 1289.36 -2.65058 -2.9663 0
M  V30 12854 H 1286.09 -5.62043 -3.37324 0
M  V30 12855 H 1285.61 -4.18079 -4.30081 0
M  V30 12856 H 1287.29 -4.77113 -4.37004 0
M  V30 12857 N 1287.43 1.02549 -1.19673 0
M  V30 12858 C 1288.36 2.10513 -0.880879 0
M  V30 12859 C 1289.34 1.61776 0.163455 0
M  V30 12860 O 1290.52 1.8846 0.0390085 0
M  V30 12861 C 1287.65 3.37195 -0.318936 0
M  V30 12862 C 1286.69 4.04808 -1.34286 0
M  V30 12863 S 1287.53 4.49881 -2.90461 0
M  V30 12864 C 1288.68 5.79776 -2.35819 0
M  V30 12865 H 1288.92 2.3698 -1.7952 0
M  V30 12866 H 1286.45 1.15537 -1.02423 0
M  V30 12867 H 1288.41 4.105 -0.00124931 0
M  V30 12868 H 1287.07 3.08815 0.573749 0
M  V30 12869 H 1286.26 4.9592 -0.898859 0
M  V30 12870 H 1285.86 3.37688 -1.60756 0
M  V30 12871 H 1288.15 6.54501 -1.75026 0
M  V30 12872 H 1289.1 6.2896 -3.25292 0
M  V30 12873 H 1289.51 5.35611 -1.78272 0
M  V30 12874 N 1288.9 1.00119 1.21713 0
M  V30 12875 C 1289.85 0.551452 2.25969 0
M  V30 12876 C 1290.85 -0.402075 1.64559 0
M  V30 12877 O 1292.05 -0.273685 1.77907 0
M  V30 12878 H 1288.43 0.159968 0.734789 0
M  V30 12879 H 1290.4 1.44201 2.61244 0
M  V30 12880 C 1289.15 -0.109992 3.47526 0
M  V30 12881 H 1288.47 0.614686 3.95046 0
M  V30 12882 H 1289.91 -0.388007 4.22221 0
M  V30 12883 C 1288.37 -1.34798 3.08757 0
M  V30 12884 O 1288.9 -2.44266 3.189 0
M  V30 12885 N 1287.1 -1.2263 2.63458 0
M  V30 12886 H 1286.65 -0.335571 2.55405 0
M  V30 12887 H 1286.61 -2.05565 2.37887 0
M  V30 12888 N 1290.38 -1.37203 0.775435 0
M  V30 12889 C 1291.61 -2.03572 0.352416 0
M  V30 12890 C 1292.02 -1.58612 -1.03145 0
M  V30 12891 O 1291.36 -0.764478 -1.67037 0
M  V30 12892 C 1291.42 -3.58064 0.321026 0
M  V30 12893 C 1291.09 -4.2617 1.6501 0
M  V30 12894 C 1292.09 -4.50034 2.60318 0
M  V30 12895 C 1289.77 -4.63927 1.92555 0
M  V30 12896 C 1291.76 -5.10716 3.81376 0
M  V30 12897 C 1289.45 -5.24329 3.13883 0
M  V30 12898 C 1290.45 -5.47661 4.08113 0
M  V30 12899 O 1290.14 -6.068 5.27304 0
M  V30 12900 H 1289.87 -0.660231 0.145159 0
M  V30 12901 H 1292.42 -1.76446 1.05148 0
M  V30 12902 H 1290.65 -3.84252 -0.434439 0
M  V30 12903 H 1292.34 -4.0583 -0.0754241 0
M  V30 12904 H 1293.11 -4.21273 2.4032 0
M  V30 12905 H 1288.99 -4.45098 1.20036 0
M  V30 12906 H 1292.53 -5.28844 4.5494 0
M  V30 12907 H 1288.43 -5.52514 3.33765 0
M  V30 12908 H 1289.2 -6.25276 5.28179 0
M  V30 12909 N 1291.86 -0.526279 -1.48553 0
M  V30 12910 C 1293.1 0.00720852 -2.04399 0
M  V30 12911 C 1293.46 1.31928 -1.39495 0
M  V30 12912 O 1294.66 1.93857 -1.86206 0
M  V30 12913 C 1292.94 0.130517 -3.57162 0
M  V30 12914 S 1294.49 0.614604 -4.34474 0
M  V30 12915 H 1291.31 -0.0102902 -0.710926 0
M  V30 12916 H 1293.91 -0.705998 -1.82307 0
M  V30 12917 H 1292.62 -0.829304 -4.01934 0
M  V30 12918 H 1292.15 0.868213 -3.837 0
M  V30 12919 H 1294.16 1.87973 -4.59217 0
M  V30 12920 N 1293.34 1.5542 -0.261239 0
M  V30 12921 C 1294.75 1.59327 0.0932655 0
M  V30 12922 C 1294.95 1.27846 1.55748 0
M  V30 12923 O 1294.01 1.03265 2.30418 0
M  V30 12924 C 1295.32 2.99496 -0.268856 0
M  V30 12925 C 1296.87 3.12265 -0.21433 0
M  V30 12926 C 1297.35 4.54677 -0.55069 0
M  V30 12927 N 1298.84 4.60475 -0.501723 0
M  V30 12928 C 1299.57 5.6867 -0.734961 0
M  V30 12929 N 1299.07 6.85069 -1.03209 0
M  V30 12930 N 1300.86 5.58156 -0.664696 0
M  V30 12931 H 1293.01 1.7415 -1.21595 0
M  V30 12932 H 1295.27 0.811382 -0.490268 0
M  V30 12933 H 1294.98 3.2732 -1.28664 0
M  V30 12934 H 1294.85 3.75104 0.397097 0
M  V30 12935 H 1297.24 2.84213 0.794148 0
M  V30 12936 H 1297.32 2.389 -0.914342 0
M  V30 12937 H 1296.97 4.83453 -1.55679 0
M  V30 12938 H 1296.9 5.26322 0.170959 0
M  V30 12939 H 1299.39 3.76851 -0.281387 0
M  V30 12940 H 1299.7 7.63472 -1.19709 0
M  V30 12941 H 1298.05 6.86718 -1.06971 0
M  V30 12942 H 1301.24 4.66098 -0.432513 0
M  V30 12943 H 1301.41 6.42403 -0.849857 0
M  V30 12944 N 1294.82 -0.0116844 1.57596 0
M  V30 12945 C 1295.76 -1.02514 2.08791 0
M  V30 12946 C 1296.76 -1.36341 1.00536 0
M  V30 12947 O 1297.96 -1.35042 1.19011 0
M  V30 12948 H 1294.34 -0.348201 0.666528 0
M  V30 12949 H 1296.31 -0.567698 2.9295 0
M  V30 12950 C 1295.06 -2.312 2.59696 0
M  V30 12951 H 1294.38 -2.06036 3.42621 0
M  V30 12952 H 1295.82 -3.00417 2.99208 0
M  V30 12953 C 1294.28 -3.01372 1.50586 0
M  V30 12954 O 1294.81 -3.91896 0.882046 0
M  V30 12955 N 1293.02 -2.62997 1.23616 0
M  V30 12956 H 1292.56 -1.89466 1.74529 0
M  V30 12957 H 1292.52 -3.10264 0.508289 0
M  V30 12958 N 1296.29 -1.55015 -0.284256 0
M  V30 12959 C 1297.7 -1.65915 -0.856104 0
M  V30 12960 C 1298.06 -0.578758 -1.8747 0
M  V30 12961 O 1297.18 0.281733 -2.14558 0
M  V30 12962 C 1297.78 -3.0077 -1.55957 0
M  V30 12963 C 1296.33 -3.13735 -2.0796 0
M  V30 12964 C 1295.48 -2.61669 -0.917849 0
M  V30 12965 H 1298.43 -1.58583 -0.0608587 0
M  V30 12966 H 1298.45 -2.9313 -2.42601 0
M  V30 12967 H 1297.97 -3.79382 -0.81798 0
M  V30 12968 H 1296.07 -2.39875 -2.85115 0
M  V30 12969 H 1296.18 -4.20138 -2.30263 0
M  V30 12970 H 1294.54 -2.18542 -1.3081 0
M  V30 12971 H 1295.33 -3.42774 -0.189946 0
M  V30 12972 N 1297.77 0.548248 -1.47757 0
M  V30 12973 C 1299.05 1.3092 -1.45325 0
M  V30 12974 C 1299.43 2.1053 -0.155008 0
M  V30 12975 O 1298.78 2.11558 0.863455 0
M  V30 12976 C 1298.99 2.20614 -2.70426 0
M  V30 12977 C 1300.33 2.81345 -3.18009 0
M  V30 12978 O 1301.36 2.30911 -2.71216 0
M  V30 12979 O 1300.22 3.73036 -3.99383 0
M  V30 12980 H 1297.31 0.58996 -0.579548 0
M  V30 12981 H 1299.86 0.56641 -1.59968 0
M  V30 12982 H 1298.63 1.61449 -3.56441 0
M  V30 12983 H 1298.25 3.02173 -2.58413 0
M  V30 12984 N 1299.25 1.36039 0.795694 0
M  V30 12985 C 1300.21 1.29709 1.88966 0
M  V30 12986 C 1301.21 0.206142 1.59473 0
M  V30 12987 O 1302.4 0.460534 1.68002 0
M  V30 12988 C 1299.53 1.00922 3.25619 0
M  V30 12989 H 1300.73 2.26993 1.95995 0
M  V30 12990 H 1298.28 1.2072 0.992791 0
M  V30 12991 H 1299.02 0.0407027 3.24274 0
M  V30 12992 H 1298.8 1.79863 3.48413 0
M  V30 12993 H 1300.29 0.990826 4.05675 0
M  V30 12994 N 1300.73 -1.01913 1.20215 0
M  V30 12995 C 1301.97 -1.7573 1.01226 0
M  V30 12996 C 1302.31 -1.88799 -0.45481 0
M  V30 12997 O 1301.58 -1.41196 -1.33768 0
M  V30 12998 C 1301.87 -3.17795 1.69348 0
M  V30 12999 C 1301.72 -3.12536 3.23483 0
M  V30 13000 C 1303.04 -4.16409 1.42448 0
M  V30 13001 H 1300.16 -0.637889 0.369144 0
M  V30 13002 H 1302.8 -1.18907 1.48193 0
M  V30 13003 H 1300.95 -3.66311 1.29416 0
M  V30 13004 H 1302.62 -2.71843 3.72692 0
M  V30 13005 H 1300.86 -2.49997 3.54519 0
M  V30 13006 H 1301.53 -4.12949 3.66302 0
M  V30 13007 H 1304.01 -3.76537 1.77086 0
M  V30 13008 H 1302.89 -5.13983 1.92648 0
M  V30 13009 H 1303.15 -4.407 0.351574 0
M  V30 13010 N 1302.21 -1.00763 -1.2118 0
M  V30 13011 C 1303.17 -0.575183 -2.21865 0
M  V30 13012 C 1304.17 0.349871 -1.56948 0
M  V30 13013 O 1305.36 0.139795 -1.73638 0
M  V30 13014 C 1302.49 0.161308 -3.40518 0
M  V30 13015 H 1303.68 -1.46578 -2.61639 0
M  V30 13016 H 1301.24 -0.79643 -1.34487 0
M  V30 13017 H 1301.97 1.06723 -3.06236 0
M  V30 13018 H 1301.76 -0.503101 -3.88859 0
M  V30 13019 H 1303.25 0.451527 -4.15152 0
M  V30 13020 N 1303.68 1.3679 -0.7827 0
M  V30 13021 C 1304.65 2.28472 -0.182525 0
M  V30 13022 C 1305.65 1.48524 0.616217 0
M  V30 13023 O 1306.84 1.68599 0.438197 0
M  V30 13024 C 1303.97 3.32588 0.748202 0
M  V30 13025 H 1305.16 2.83059 -0.99085 0
M  V30 13026 H 1302.72 1.46241 -0.551658 0
M  V30 13027 H 1303.45 2.83145 1.58112 0
M  V30 13028 H 1303.24 3.91698 0.177481 0
M  V30 13029 H 1304.73 4.01073 1.16321 0
M  V30 13030 N 1305.16 0.53415 1.48272 0
M  V30 13031 C 1306.57 0.0947592 1.86459 0
M  V30 13032 C 1306.92 -1.32906 1.44328 0
M  V30 13033 O 1306.05 -1.99605 0.835866 0
M  V30 13034 C 1306.64 0.16519 3.38397 0
M  V30 13035 C 1305.2 -0.219029 3.75762 0
M  V30 13036 C 1304.35 0.523097 2.72321 0
M  V30 13037 H 1307.3 0.74517 1.40117 0
M  V30 13038 H 1307.32 -0.622065 3.75381 0
M  V30 13039 H 1306.83 1.20157 3.69031 0
M  V30 13040 H 1304.94 -1.2574 3.50742 0
M  V30 13041 H 1305.05 0.123482 4.78941 0
M  V30 13042 H 1303.41 -0.0311323 2.54681 0
M  V30 13043 H 1304.2 1.56019 3.05799 0
M  V30 13044 N 1306.64 -1.55279 0.269478 0
M  V30 13045 C 1307.87 -2.03581 -0.351907 0
M  V30 13046 C 1308.28 -1.14747 -1.50432 0
M  V30 13047 O 1307.62 -0.158939 -1.83011 0
M  V30 13048 C 1307.68 -3.48041 -0.900444 0
M  V30 13049 C 1307.35 -4.56835 0.122612 0
M  V30 13050 C 1308.34 -5.11329 0.940149 0
M  V30 13051 C 1306.03 -5.01651 0.255224 0
M  V30 13052 C 1308.02 -6.09151 1.87654 0
M  V30 13053 C 1305.71 -5.993 1.19509 0
M  V30 13054 C 1306.71 -6.52931 2.00426 0
M  V30 13055 O 1306.4 -7.48671 2.92825 0
M  V30 13056 H 1306.13 -0.670627 -0.0850629 0
M  V30 13057 H 1308.68 -2.01514 0.39766 0
M  V30 13058 H 1306.91 -3.47329 -1.69998 0
M  V30 13059 H 1308.6 -3.79713 -1.43431 0
M  V30 13060 H 1309.37 -4.77522 0.848402 0
M  V30 13061 H 1305.25 -4.59556 -0.364579 0
M  V30 13062 H 1308.79 -6.50937 2.50853 0
M  V30 13063 H 1304.69 -6.32526 1.28768 0
M  V30 13064 H 1305.46 -7.66368 2.87442 0
M  V30 13065 N 1308.12 0.00332656 -1.576 0
M  V30 13066 C 1309.36 0.69341 -1.92279 0
M  V30 13067 C 1309.72 1.71121 -0.870715 0
M  V30 13068 O 1310.92 2.45143 -1.10265 0
M  V30 13069 C 1309.19 1.32272 -3.32022 0
M  V30 13070 S 1310.75 2.03838 -3.88581 0
M  V30 13071 H 1307.57 0.229123 -0.67307 0
M  V30 13072 H 1310.17 -0.0525621 -1.95429 0
M  V30 13073 H 1308.88 0.569071 -4.06435 0
M  V30 13074 H 1308.41 2.10669 -3.32238 0
M  V30 13075 H 1310.42 3.31311 -3.69388 0
M  V30 13076 N 1309.6 1.55164 0.276031 0
M  V30 13077 C 1310.83 1.79388 1.02486 0
M  V30 13078 C 1311.23 0.565884 1.80539 0
M  V30 13079 O 1310.58 -0.47449 1.77466 0
M  V30 13080 C 1310.64 2.96494 2.03302 0
M  V30 13081 C 1310.3 4.33649 1.44214 0
M  V30 13082 C 1311.3 5.12749 0.859355 0
M  V30 13083 C 1308.99 4.80301 1.47026 0
M  V30 13084 C 1310.98 6.36633 0.312548 0
M  V30 13085 C 1308.67 6.04141 0.919587 0
M  V30 13086 C 1309.66 6.82145 0.341729 0
M  V30 13087 O 1309.35 8.0365 -0.200517 0
M  V30 13088 H 1309.08 0.601454 0.308592 0
M  V30 13089 H 1311.64 2.02999 0.313148 0
M  V30 13090 H 1309.87 2.68568 2.78223 0
M  V30 13091 H 1311.56 3.08069 2.64288 0
M  V30 13092 H 1312.32 4.77839 0.830353 0
M  V30 13093 H 1308.2 4.19597 1.90942 0
M  V30 13094 H 1311.75 6.97461 -0.139131 0
M  V30 13095 H 1307.64 6.38533 0.945819 0
M  V30 13096 H 1308.41 8.18451 -0.0895877 0
M  V30 13097 N 1311.07 -0.540404 1.48045 0
M  V30 13098 C 1312.3 -1.32177 1.59175 0
M  V30 13099 C 1312.72 -1.87163 0.248115 0
M  V30 13100 O 1312.07 -1.65871 -0.761124 0
M  V30 13101 C 1312.13 -2.47995 2.63023 0
M  V30 13102 O 1311.85 -1.95278 3.92171 0
M  V30 13103 C 1313.35 -3.39967 2.84495 0
M  V30 13104 H 1310.57 -0.40233 0.537002 0
M  V30 13105 H 1313.11 -0.652983 1.93795 0
M  V30 13106 H 1311.27 -3.10779 2.31291 0
M  V30 13107 H 1311.68 -2.71012 4.49058 0
M  V30 13108 H 1313.15 -4.17607 3.60982 0
M  V30 13109 H 1313.63 -3.94555 1.92932 0
M  V30 13110 H 1314.24 -2.82985 3.1749 0
M  V30 13111 N 1312.55 -1.36459 -0.788468 0
M  V30 13112 C 1313.97 -1.16893 -1.08666 0
M  V30 13113 C 1314.17 0.00633808 -2.01499 0
M  V30 13114 O 1313.22 0.671417 -2.4341 0
M  V30 13115 C 1314.54 -2.48018 -1.70022 0
M  V30 13116 C 1316.09 -2.5439 -1.82358 0
M  V30 13117 C 1316.56 -3.85605 -2.47129 0
M  V30 13118 N 1318.05 -3.86956 -2.54597 0
M  V30 13119 C 1318.79 -4.85224 -3.05525 0
M  V30 13120 N 1318.28 -5.93885 -3.56753 0
M  V30 13121 N 1320.08 -4.72643 -3.04246 0
M  V30 13122 H 1312.23 -2.11705 -0.171733 0
M  V30 13123 H 1314.49 -0.937784 -0.1388 0
M  V30 13124 H 1314.2 -3.34292 -1.09277 0
M  V30 13125 H 1314.07 -2.63894 -2.69518 0
M  V30 13126 H 1316.46 -1.68534 -2.4224 0
M  V30 13127 H 1316.54 -2.42414 -0.816651 0
M  V30 13128 H 1316.18 -4.71868 -1.87891 0
M  V30 13129 H 1316.11 -3.94878 -3.48395 0
M  V30 13130 H 1318.6 -3.08453 -2.18323 0
M  V30 13131 H 1318.92 -6.64839 -3.93966 0
M  V30 13132 H 1317.26 -5.97553 -3.54902 0
M  V30 13133 H 1320.45 -3.86883 -2.63513 0
M  V30 13134 H 1320.62 -5.49385 -3.43627 0
M  V30 13135 N 1314.03 1.01274 -1.20754 0
M  V30 13136 C 1315.31 1.7213 -0.929008 0
M  V30 13137 C 1315.69 2.03503 0.561217 0
M  V30 13138 O 1315.04 1.70259 1.52395 0
M  V30 13139 C 1315.25 2.98636 -1.80603 0
M  V30 13140 C 1316.59 3.71823 -2.0502 0
M  V30 13141 O 1317.62 3.08601 -1.77888 0
M  V30 13142 O 1316.48 4.8552 -2.50864 0
M  V30 13143 H 1313.57 0.750361 -0.347689 0
M  V30 13144 H 1316.12 1.07086 -1.31646 0
M  V30 13145 H 1314.89 2.71803 -2.81494 0
M  V30 13146 H 1314.51 3.7142 -1.4189 0
M  V30 13147 N 1315.51 1.01404 1.20644 0
M  V30 13148 C 1316.92 0.73386 1.71672 0
M  V30 13149 C 1317.27 -0.747803 1.8139 0
M  V30 13150 O 1316.4 -1.58372 1.47469 0
M  V30 13151 C 1316.99 1.32549 3.11795 0
M  V30 13152 C 1315.55 1.09423 3.60144 0
M  V30 13153 C 1314.7 1.43275 2.37419 0
M  V30 13154 H 1317.65 1.18383 1.05694 0
M  V30 13155 H 1317.67 0.714749 3.73727 0
M  V30 13156 H 1317.18 2.40386 3.0469 0
M  V30 13157 H 1315.28 0.0334113 3.72585 0
M  V30 13158 H 1315.4 1.77248 4.45107 0
M  V30 13159 H 1313.76 0.851714 2.40037 0
M  V30 13160 H 1314.54 2.52163 2.32957 0
M  V30 13161 N 1316.99 -1.36373 0.789944 0
M  V30 13162 C 1318.24 -1.98834 0.361866 0
M  V30 13163 C 1318.56 -1.63006 -1.07024 0
M  V30 13164 O 1317.83 -0.904312 -1.73779 0
M  V30 13165 H 1316.41 -0.735457 0.130812 0
M  V30 13166 H 1319.07 -1.66561 1.0121 0
M  V30 13167 H 1318.16 -3.08778 0.454122 0
M  V30 13168 N 1318.47 -0.542005 -1.47987 0
M  V30 13169 C 1319.71 -0.0123299 -2.02796 0
M  V30 13170 C 1320.04 1.32789 -1.41707 0
M  V30 13171 O 1319.32 1.86048 -0.567119 0
M  V30 13172 C 1319.6 0.0969277 -3.5997 0
M  V30 13173 C 1319.46 -1.26931 -4.31519 0
M  V30 13174 C 1320.77 0.817854 -4.32434 0
M  V30 13175 H 1317.89 -0.00595479 -0.736976 0
M  V30 13176 H 1320.54 -0.70136 -1.76581 0
M  V30 13177 H 1318.69 0.683755 -3.82436 0
M  V30 13178 H 1320.36 -1.89817 -4.20437 0
M  V30 13179 H 1318.6 -1.84804 -3.92467 0
M  V30 13180 H 1319.27 -1.14573 -5.39979 0
M  V30 13181 H 1321.75 0.319749 -4.1487 0
M  V30 13182 H 1320.62 0.863225 -5.4207 0
M  V30 13183 H 1320.88 1.87075 -4.00569 0
M  V30 13184 N 1319.94 1.55134 -0.277709 0
M  V30 13185 C 1321.36 1.59417 0.0763615 0
M  V30 13186 C 1321.56 1.29491 1.54384 0
M  V30 13187 O 1320.62 1.05703 2.2931 0
M  V30 13188 C 1321.93 2.99194 -0.300607 0
M  V30 13189 C 1323.48 3.1202 -0.247438 0
M  V30 13190 C 1323.95 4.54068 -0.598884 0
M  V30 13191 N 1325.44 4.59917 -0.550534 0
M  V30 13192 C 1326.18 5.67859 -0.795235 0
M  V30 13193 N 1325.67 6.83936 -1.10469 0
M  V30 13194 N 1327.47 5.5742 -0.723859 0
M  V30 13195 H 1319.62 1.72851 -1.23435 0
M  V30 13196 H 1321.88 0.806137 -0.498846 0
M  V30 13197 H 1321.59 3.25937 -1.32129 0
M  V30 13198 H 1321.46 3.75504 0.35729 0
M  V30 13199 H 1323.85 2.8504 0.763959 0
M  V30 13200 H 1323.93 2.37917 -0.939629 0
M  V30 13201 H 1323.57 4.81774 -1.60798 0
M  V30 13202 H 1323.5 5.26474 0.115126 0
M  V30 13203 H 1325.99 3.76531 -0.321341 0
M  V30 13204 H 1326.31 7.62159 -1.278 0
M  V30 13205 H 1324.65 6.85545 -1.14249 0
M  V30 13206 H 1327.84 4.65613 -0.481925 0
M  V30 13207 H 1328.02 6.41465 -0.917944 0
M  V30 13208 N 1321.42 0.00503138 1.57599 0
M  V30 13209 C 1322.67 -0.674107 1.91905 0
M  V30 13210 C 1323.02 -1.71101 0.8799 0
M  V30 13211 O 1322.32 -1.913 -0.107261 0
M  V30 13212 C 1322.51 -1.35485 3.30724 0
M  V30 13213 C 1322.34 -0.385403 4.48045 0
M  V30 13214 C 1321.11 0.00602574 5.053 0
M  V30 13215 C 1323.31 0.350442 5.13105 0
M  V30 13216 N 1321.29 0.97316 6.06138 0
M  V30 13217 C 1322.66 1.1721 6.0882 0
M  V30 13218 C 1324.71 0.413738 4.96178 0
M  V30 13219 C 1323.42 2.05129 6.89431 0
M  V30 13220 C 1325.44 1.28018 5.77378 0
M  V30 13221 C 1324.81 2.08967 6.7269 0
M  V30 13222 H 1320.9 -0.219721 0.750498 0
M  V30 13223 H 1323.49 0.0665598 1.94586 0
M  V30 13224 H 1321.66 -2.06578 3.28907 0
M  V30 13225 H 1323.39 -1.98909 3.52445 0
M  V30 13226 H 1320.15 -0.363403 4.72204 0
M  V30 13227 H 1320.57 1.45225 6.6124 0
M  V30 13228 H 1325.21 -0.19783 4.22337 0
M  V30 13229 H 1322.93 2.67351 7.62594 0
M  V30 13230 H 1326.52 1.33313 5.66321 0
M  V30 13231 H 1325.4 2.74926 7.34428 0
M  V30 13232 N 1322.9 -1.55308 -0.267798 0
M  V30 13233 C 1323.81 -1.91649 -1.35307 0
M  V30 13234 C 1324.83 -0.814349 -1.53767 0
M  V30 13235 O 1326 -1.11388 -1.67793 0
M  V30 13236 C 1323.07 -2.18553 -2.69138 0
M  V30 13237 C 1322.13 -3.42083 -2.5938 0
M  V30 13238 C 1321.36 -3.67695 -3.86828 0
M  V30 13239 O 1321.58 -2.95728 -4.87751 0
M  V30 13240 O 1320.52 -4.61229 -3.86718 0
M  V30 13241 H 1324.34 -2.84044 -1.07483 0
M  V30 13242 H 1321.93 -1.41921 -0.466772 0
M  V30 13243 H 1323.81 -2.3726 -3.48261 0
M  V30 13244 H 1322.49 -1.2934 -2.96737 0
M  V30 13245 H 1321.39 -3.28706 -1.78614 0
M  V30 13246 H 1322.73 -4.31532 -2.36729 0
M  V30 13247 N 1324.38 0.532545 -1.4833 0
M  V30 13248 C 1325.61 1.31141 -1.59642 0
M  V30 13249 C 1326.02 1.87476 -0.254835 0
M  V30 13250 O 1325.36 1.66985 0.765622 0
M  V30 13251 C 1325.42 2.50182 -2.58165 0
M  V30 13252 C 1325.08 2.14953 -4.03292 0
M  V30 13253 C 1326.08 1.70777 -4.91051 0
M  V30 13254 C 1323.77 2.25555 -4.4881 0
M  V30 13255 C 1325.76 1.37665 -6.22356 0
M  V30 13256 C 1323.45 1.92055 -5.80136 0
M  V30 13257 C 1324.45 1.48181 -6.66732 0
M  V30 13258 O 1324.13 1.15119 -7.95615 0
M  V30 13259 H 1323.87 0.405164 -0.541127 0
M  V30 13260 H 1326.42 0.649423 -1.94863 0
M  V30 13261 H 1324.65 3.19353 -2.1806 0
M  V30 13262 H 1326.34 3.12246 -2.5934 0
M  V30 13263 H 1327.1 1.62059 -4.57124 0
M  V30 13264 H 1322.98 2.5866 -3.81597 0
M  V30 13265 H 1326.53 1.03348 -6.89902 0
M  V30 13266 H 1322.42 2.00413 -6.136 0
M  V30 13267 H 1323.19 1.28539 -8.08344 0
M  V30 13268 N 1325.86 1.36875 0.78122 0
M  V30 13269 C 1327.1 1.32949 1.55254 0
M  V30 13270 C 1327.46 -0.0879862 1.91798 0
M  V30 13271 O 1328.66 -0.251878 2.67617 0
M  V30 13272 C 1326.93 2.23382 2.78989 0
M  V30 13273 S 1328.49 2.37218 3.69152 0
M  V30 13274 H 1325.31 0.472105 0.531637 0
M  V30 13275 H 1327.91 1.72529 0.91945 0
M  V30 13276 H 1326.61 3.25307 2.50207 0
M  V30 13277 H 1326.15 1.84852 3.47266 0
M  V30 13278 H 1328.16 1.57575 4.70515 0
M  V30 13279 N 1327.33 -1.00632 1.21289 0
M  V30 13280 C 1328.28 -2.11502 0.96798 0
M  V30 13281 C 1329.28 -1.6919 -0.0843024 0
M  V30 13282 O 1330.48 -1.79875 0.06697 0
M  V30 13283 H 1326.86 -0.691398 0.295759 0
M  V30 13284 H 1328.83 -2.29337 1.90911 0
M  V30 13285 C 1327.58 -3.43357 0.547818 0
M  V30 13286 H 1326.9 -3.76348 1.34915 0
M  V30 13287 H 1328.34 -4.21957 0.415759 0
M  V30 13288 C 1326.8 -3.28648 -0.741086 0
M  V30 13289 O 1327.33 -3.59267 -1.79695 0
M  V30 13290 N 1325.53 -2.81866 -0.707084 0
M  V30 13291 H 1325.08 -2.57149 0.152447 0
M  V30 13292 H 1325.04 -2.72406 -1.56979 0
M  V30 13293 N 1328.81 -1.02043 -1.20104 0
M  V30 13294 C 1329.74 -0.614421 -2.25271 0
M  V30 13295 C 1330.72 0.37242 -1.65973 0
M  V30 13296 O 1331.91 0.257005 -1.92492 0
M  V30 13297 C 1329.04 0.0442085 -3.47272 0
M  V30 13298 C 1327.99 -0.864019 -4.19188 0
M  V30 13299 C 1327.32 -0.0709551 -5.34653 0
M  V30 13300 C 1328.62 -2.17385 -4.74912 0
M  V30 13301 H 1330.31 -1.49355 -2.59487 0
M  V30 13302 H 1327.86 -0.719591 -1.24731 0
M  V30 13303 H 1329.81 0.339825 -4.20028 0
M  V30 13304 H 1328.53 0.958082 -3.12231 0
M  V30 13305 H 1327.19 -1.1437 -3.48303 0
M  V30 13306 H 1326.84 0.844688 -4.95857 0
M  V30 13307 H 1326.54 -0.67583 -5.83701 0
M  V30 13308 H 1328.07 0.218118 -6.1021 0
M  V30 13309 H 1329.48 -1.94034 -5.39466 0
M  V30 13310 H 1327.88 -2.72991 -5.34412 0
M  V30 13311 H 1328.95 -2.83427 -3.93443 0
M  V30 13312 N 1330.29 1.35952 -0.797165 0
M  V30 13313 C 1331.52 2.0328 -0.385316 0
M  V30 13314 C 1331.93 1.60095 1.00076 0
M  V30 13315 O 1331.29 0.794014 1.64322 0
M  V30 13316 C 1331.34 3.5871 -0.448284 0
M  V30 13317 O 1331.06 4.00323 -1.7797 0
M  V30 13318 C 1332.56 4.43291 -0.0280465 0
M  V30 13319 H 1329.78 0.652192 -0.157756 0
M  V30 13320 H 1332.33 1.73769 -1.07817 0
M  V30 13321 H 1330.48 3.86903 0.196224 0
M  V30 13322 H 1330.9 4.94941 -1.73592 0
M  V30 13323 H 1332.37 5.51862 -0.123234 0
M  V30 13324 H 1332.85 4.27059 1.02552 0
M  V30 13325 H 1333.45 4.20375 -0.645343 0
M  V30 13326 N 1331.77 0.549846 1.47697 0
M  V30 13327 C 1332.7 -0.239345 2.27947 0
M  V30 13328 C 1333.71 -0.886206 1.36566 0
M  V30 13329 O 1334.9 -0.761298 1.61451 0
M  V30 13330 C 1332 -1.35591 3.10593 0
M  V30 13331 C 1331.18 -0.807234 4.29887 0
M  V30 13332 C 1330.23 -1.80738 4.94187 0
M  V30 13333 O 1329.26 -1.35641 5.52802 0
M  V30 13334 N 1330.46 -3.14046 4.88216 0
M  V30 13335 H 1333.23 0.449001 2.96318 0
M  V30 13336 H 1330.79 0.385443 1.57245 0
M  V30 13337 H 1332.78 -2.02356 3.50477 0
M  V30 13338 H 1331.35 -1.94761 2.44514 0
M  V30 13339 H 1330.57 0.0369877 3.94183 0
M  V30 13340 H 1331.86 -0.419877 5.07065 0
M  V30 13341 H 1331.26 -3.53335 4.41781 0
M  V30 13342 H 1329.81 -3.7639 5.32141 0
M  V30 13343 N 1333.25 -1.54984 0.285932 0
M  V30 13344 C 1334.49 -2.01738 -0.328795 0
M  V30 13345 C 1334.85 -1.16994 -1.52238 0
M  V30 13346 O 1336.05 -1.53377 -2.20746 0
M  V30 13347 C 1334.32 -3.50657 -0.690981 0
M  V30 13348 S 1335.88 -4.19388 -1.29071 0
M  V30 13349 H 1332.7 -0.703686 -0.101721 0
M  V30 13350 H 1335.3 -1.91146 0.410291 0
M  V30 13351 H 1334.01 -4.09976 0.186419 0
M  V30 13352 H 1333.54 -3.65255 -1.46125 0
M  V30 13353 H 1335.55 -4.23912 -2.57901 0
M  V30 13354 N 1334.72 -0.0133892 -1.57594 0
M  V30 13355 C 1335.95 0.682855 -1.95836 0
M  V30 13356 C 1336.37 1.65763 -0.889049 0
M  V30 13357 O 1335.73 1.80665 0.151585 0
M  V30 13358 C 1335.78 1.37931 -3.33178 0
M  V30 13359 O 1334.88 2.49416 -3.28429 0
M  V30 13360 H 1334.23 0.180629 -0.638959 0
M  V30 13361 H 1336.76 -0.0705644 -2.04478 0
M  V30 13362 H 1336.77 1.73969 -3.69051 0
M  V30 13363 H 1335.44 0.664675 -4.10554 0
M  V30 13364 H 1334.02 2.15606 -3.04251 0
M  V30 13365 N 1336.2 1.55448 0.259558 0
M  V30 13366 C 1337.48 1.6742 1.01143 0
M  V30 13367 C 1337.86 0.549525 2.03822 0
M  V30 13368 O 1337.21 -0.448699 2.24051 0
M  V30 13369 C 1337.42 3.07201 1.65616 0
M  V30 13370 C 1338.77 3.6539 2.16277 0
M  V30 13371 O 1339.79 3.0992 1.7558 0
M  V30 13372 O 1338.65 4.62604 2.90963 0
M  V30 13373 H 1335.74 0.680469 0.469991 0
M  V30 13374 H 1338.29 1.67783 0.254348 0
M  V30 13375 H 1337.06 3.80504 0.912819 0
M  V30 13376 H 1336.68 3.10794 2.47977 0
M  V30 13377 N 1337.68 -0.524672 1.4861 0
M  V30 13378 C 1338.64 -1.61092 1.63039 0
M  V30 13379 C 1339.64 -1.52718 0.503387 0
M  V30 13380 O 1340.83 -1.56293 0.769304 0
M  V30 13381 C 1337.97 -3.00722 1.60558 0
M  V30 13382 H 1339.16 -1.49636 2.59902 0
M  V30 13383 H 1336.71 -0.747135 1.37287 0
M  V30 13384 H 1337.45 -3.1768 0.651926 0
M  V30 13385 H 1337.23 -3.0821 2.42382 0
M  V30 13386 H 1338.72 -3.79688 1.73859 0
M  V30 13387 N 1339.16 -1.37287 -0.77395 0
M  V30 13388 C 1340.07 -1.35059 -1.91823 0
M  V30 13389 C 1341.08 -0.250489 -1.72188 0
M  V30 13390 O 1342.26 -0.485501 -1.95461 0
M  V30 13391 C 1339.33 -1.15444 -3.26915 0
M  V30 13392 C 1338.39 -2.35073 -3.5922 0
M  V30 13393 C 1337.62 -2.16384 -4.87867 0
M  V30 13394 O 1337.84 -1.14696 -5.58749 0
M  V30 13395 O 1336.78 -3.0452 -5.19183 0
M  V30 13396 H 1340.6 -2.31432 -1.96654 0
M  V30 13397 H 1338.19 -1.17994 -0.916392 0
M  V30 13398 H 1340.07 -1.06484 -4.07724 0
M  V30 13399 H 1338.74 -0.221435 -3.22942 0
M  V30 13400 H 1337.65 -2.49604 -2.78655 0
M  V30 13401 H 1338.98 -3.26933 -3.67934 0
M  V30 13402 N 1340.64 0.999871 -1.21821 0
M  V30 13403 C 1341.88 1.73497 -1.0365 0
M  V30 13404 C 1342.21 1.90194 0.430271 0
M  V30 13405 O 1341.48 1.45655 1.31002 0
M  V30 13406 H 1340.06 0.642804 -0.380541 0
M  V30 13407 H 1342.72 1.20461 -1.53216 0
M  V30 13408 H 1341.81 2.73215 -1.50864 0
M  V30 13409 N 1342.11 1.02678 1.19562 0
M  V30 13410 C 1343.34 0.741569 1.93154 0
M  V30 13411 C 1343.76 -0.699292 1.75372 0
M  V30 13412 O 1343.11 -1.47533 1.07426 0
M  V30 13413 C 1343.17 1.08064 3.4497 0
M  V30 13414 O 1342.89 2.46492 3.62179 0
M  V30 13415 C 1344.39 0.817935 4.35689 0
M  V30 13416 H 1341.61 0.271506 0.613617 0
M  V30 13417 H 1344.15 1.3707 1.51763 0
M  V30 13418 H 1342.31 0.496723 3.84202 0
M  V30 13419 H 1342.72 2.59053 4.56061 0
M  V30 13420 H 1344.19 1.10517 5.40823 0
M  V30 13421 H 1344.67 -0.247693 4.38501 0
M  V30 13422 H 1345.28 1.38449 4.02134 0
M  V30 13423 N 1343.59 -1.35528 0.804364 0
M  V30 13424 C 1344.56 -2.28153 0.21885 0
M  V30 13425 C 1345.56 -1.49486 -0.592511 0
M  V30 13426 O 1346.75 -1.69274 -0.411319 0
M  V30 13427 C 1343.88 -3.33736 -0.695195 0
M  V30 13428 H 1345.07 -2.81446 1.03576 0
M  V30 13429 H 1342.62 -1.45345 0.574854 0
M  V30 13430 H 1343.36 -2.85625 -1.53587 0
M  V30 13431 H 1343.14 -3.91931 -0.115143 0
M  V30 13432 H 1344.63 -4.02872 -1.09925 0
M  V30 13433 N 1345.07 -0.557671 -1.47404 0
M  V30 13434 C 1346.32 -0.0338384 -2.02772 0
M  V30 13435 C 1346.65 1.31278 -1.43107 0
M  V30 13436 O 1345.93 1.85436 -0.58682 0
M  V30 13437 C 1346.21 0.0587427 -3.60052 0
M  V30 13438 C 1346.06 -1.315 -4.30148 0
M  V30 13439 C 1347.38 0.771942 -4.33277 0
M  V30 13440 H 1344.5 -0.0137711 -0.736871 0
M  V30 13441 H 1347.14 -0.720049 -1.75827 0
M  V30 13442 H 1345.29 0.643154 -3.83139 0
M  V30 13443 H 1346.96 -1.94265 -4.184 0
M  V30 13444 H 1345.21 -1.88956 -3.90484 0
M  V30 13445 H 1345.88 -1.20294 -5.38733 0
M  V30 13446 H 1348.35 0.275729 -4.15185 0
M  V30 13447 H 1347.23 0.805683 -5.42955 0
M  V30 13448 H 1347.49 1.82816 -4.0253 0
M  V30 13449 N 1346.55 1.54831 -0.294147 0
M  V30 13450 C 1347.51 2.21946 0.572061 0
M  V30 13451 C 1348.51 1.20331 1.06663 0
M  V30 13452 O 1349.7 1.45112 0.963757 0
M  V30 13453 C 1346.83 2.90044 1.7913 0
M  V30 13454 H 1348.03 2.99897 -0.0142234 0
M  V30 13455 H 1345.58 1.56235 -0.0449187 0
M  V30 13456 H 1346.32 2.16154 2.4176 0
M  V30 13457 H 1346.1 3.64527 1.44439 0
M  V30 13458 H 1347.59 3.41263 2.40684 0
M  V30 13459 N 1348.03 0.0217466 1.57585 0
M  V30 13460 C 1349.44 -0.51811 1.79367 0
M  V30 13461 C 1349.79 -1.72688 0.931313 0
M  V30 13462 O 1348.91 -2.15949 0.139687 0
M  V30 13463 C 1349.51 -0.946711 3.25304 0
M  V30 13464 C 1348.07 -1.43173 3.48107 0
M  V30 13465 C 1347.22 -0.392996 2.74501 0
M  V30 13466 H 1350.17 0.247822 1.56753 0
M  V30 13467 H 1350.19 -1.81152 3.34611 0
M  V30 13468 H 1349.7 -0.0667536 3.88043 0
M  V30 13469 H 1347.8 -2.33186 2.90612 0
M  V30 13470 H 1347.91 -1.44419 4.56815 0
M  V30 13471 H 1346.28 -0.859471 2.39761 0
M  V30 13472 H 1347.06 0.478368 3.39951 0
M  V30 13473 N 1349.51 -1.55583 -0.251311 0
M  V30 13474 C 1350.92 -1.67693 -0.820719 0
M  V30 13475 C 1351.27 -0.618393 -1.862 0
M  V30 13476 O 1350.39 0.236158 -2.15108 0
M  V30 13477 C 1350.99 -3.04011 -1.49542 0
M  V30 13478 C 1349.55 -3.18075 -2.01259 0
M  V30 13479 C 1348.69 -2.63557 -0.862138 0
M  V30 13480 H 1351.64 -1.58677 -0.0272072 0
M  V30 13481 H 1351.67 -2.9821 -2.36328 0
M  V30 13482 H 1351.18 -3.81032 -0.737323 0
M  V30 13483 H 1349.28 -2.45869 -2.79963 0
M  V30 13484 H 1349.39 -4.24927 -2.213 0
M  V30 13485 H 1347.76 -2.21268 -1.26145 0
M  V30 13486 H 1348.54 -3.431 -0.117196 0
M  V30 13487 N 1350.98 0.516783 -1.48886 0
M  V30 13488 C 1352.21 1.29628 -1.61258 0
M  V30 13489 C 1352.63 1.86744 -0.27786 0
M  V30 13490 O 1351.98 1.67061 0.734639 0
M  V30 13491 C 1352.03 2.43779 -2.66935 0
M  V30 13492 O 1351.76 1.89014 -3.95228 0
M  V30 13493 C 1353.26 3.35398 -2.89867 0
M  V30 13494 H 1350.48 0.393736 -0.543335 0
M  V30 13495 H 1353.02 0.622069 -1.94809 0
M  V30 13496 H 1351.18 3.0706 -2.36206 0
M  V30 13497 H 1351.59 2.63833 -4.53312 0
M  V30 13498 H 1353.06 4.11812 -3.6758 0
M  V30 13499 H 1353.54 3.91436 -1.99185 0
M  V30 13500 H 1354.15 2.77898 -3.21952 0
M  V30 13501 N 1352.46 1.37696 0.766659 0
M  V30 13502 C 1353.71 1.33382 1.52765 0
M  V30 13503 C 1354.04 -0.0800569 1.94035 0
M  V30 13504 O 1353.32 -1.03848 1.64456 0
M  V30 13505 C 1353.6 2.2776 2.78922 0
M  V30 13506 C 1353.45 3.77949 2.43874 0
M  V30 13507 C 1354.77 2.20494 3.80881 0
M  V30 13508 H 1351.89 0.485836 0.554195 0
M  V30 13509 H 1354.53 1.68438 0.879119 0
M  V30 13510 H 1352.68 1.97994 3.34261 0
M  V30 13511 H 1354.35 4.18333 1.9441 0
M  V30 13512 H 1352.6 3.96269 1.76503 0
M  V30 13513 H 1353.27 4.39428 3.34077 0
M  V30 13514 H 1355.74 2.46742 3.35048 0
M  V30 13515 H 1354.62 2.88663 4.66867 0
M  V30 13516 H 1354.88 1.19951 4.25516 0
M  V30 13517 N 1353.94 -0.993397 1.22349 0
M  V30 13518 C 1355.17 -1.76838 1.07406 0
M  V30 13519 C 1355.58 -1.8503 -0.37542 0
M  V30 13520 O 1354.94 -1.32008 -1.26016 0
M  V30 13521 C 1354.99 -3.20177 1.67837 0
M  V30 13522 O 1354.71 -3.12429 3.07115 0
M  V30 13523 C 1356.21 -4.14125 1.58161 0
M  V30 13524 H 1353.43 -0.555379 0.376557 0
M  V30 13525 H 1355.98 -1.24893 1.61932 0
M  V30 13526 H 1354.13 -3.69191 1.17375 0
M  V30 13527 H 1354.55 -4.02568 3.36213 0
M  V30 13528 H 1356.02 -5.12455 2.05169 0
M  V30 13529 H 1356.5 -4.35892 0.538073 0
M  V30 13530 H 1357.1 -3.71008 2.07926 0
M  V30 13531 N 1355.42 -1.03311 -1.19015 0
M  V30 13532 C 1356.83 -0.761079 -1.70483 0
M  V30 13533 C 1357.18 0.718851 -1.82557 0
M  V30 13534 O 1356.3 1.56006 -1.4997 0
M  V30 13535 C 1356.9 -1.37492 -3.09647 0
M  V30 13536 C 1355.46 -1.15138 -3.58358 0
M  V30 13537 C 1354.61 -1.47034 -2.35109 0
M  V30 13538 H 1357.56 -1.2005 -1.03797 0
M  V30 13539 H 1357.58 -0.774115 -3.72542 0
M  V30 13540 H 1357.09 -2.45203 -3.00828 0
M  V30 13541 H 1355.19 -0.0926822 -3.72485 0
M  V30 13542 H 1355.3 -1.84307 -4.4223 0
M  V30 13543 H 1353.67 -0.889794 -2.38652 0
M  V30 13544 H 1354.45 -2.55837 -2.28916 0
M  V30 13545 N 1356.9 1.35099 -0.81154 0
M  V30 13546 C 1358.14 1.9892 -0.394815 0
M  V30 13547 C 1358.47 1.6422 1.0366 0
M  V30 13548 O 1357.75 0.908031 1.72003 0
M  V30 13549 C 1358.03 3.55331 -0.58413 0
M  V30 13550 C 1357.89 3.99812 -2.06084 0
M  V30 13551 C 1359.2 4.40098 -0.0129096 0
M  V30 13552 H 1356.32 0.72261 -0.144926 0
M  V30 13553 H 1358.97 1.60173 -1.02199 0
M  V30 13554 H 1357.12 3.88468 -0.0502446 0
M  V30 13555 H 1358.79 3.77061 -2.65749 0
M  V30 13556 H 1357.03 3.50539 -2.55548 0
M  V30 13557 H 1357.7 5.08655 -2.14416 0
M  V30 13558 H 1360.18 4.13449 -0.468917 0
M  V30 13559 H 1359.05 5.4862 -0.175252 0
M  V30 13560 H 1359.31 4.28675 1.0812 0
M  V30 13561 N 1358.37 0.56548 1.47106 0
M  V30 13562 C 1359.78 0.134289 1.86216 0
M  V30 13563 C 1360.14 -1.29815 1.47114 0
M  V30 13564 O 1359.26 -1.97787 0.878017 0
M  V30 13565 C 1359.86 0.236931 3.37971 0
M  V30 13566 C 1358.41 -0.139275 3.76142 0
M  V30 13567 C 1357.56 0.580743 2.71151 0
M  V30 13568 H 1360.51 0.774723 1.38505 0
M  V30 13569 H 1360.53 -0.542301 3.76616 0
M  V30 13570 H 1360.05 1.27958 3.66399 0
M  V30 13571 H 1358.15 -1.18272 3.53331 0
M  V30 13572 H 1358.26 0.225045 4.78571 0
M  V30 13573 H 1356.62 0.0228963 2.5469 0
M  V30 13574 H 1357.41 1.62471 3.0242 0
M  V30 13575 N 1359.85 -1.54672 0.302354 0
M  V30 13576 C 1361.08 -2.05041 -0.311891 0
M  V30 13577 C 1361.5 -1.17814 -1.46634 0
M  V30 13578 O 1360.86 -0.182517 -1.80379 0
M  V30 13579 C 1360.91 -3.52831 -0.744489 0
M  V30 13580 O 1360.01 -3.68621 -1.84913 0
M  V30 13581 H 1359.35 -0.661255 -0.0603102 0
M  V30 13582 H 1361.88 -1.99711 0.444593 0
M  V30 13583 H 1361.89 -3.94708 -1.03293 0
M  V30 13584 H 1360.57 -4.1578 0.0999976 0
M  V30 13585 H 1359.15 -3.38649 -1.56113 0
M  V30 13586 N 1361.33 -0.0301034 -1.57571 0
M  V30 13587 C 1362.26 0.94977 -2.13311 0
M  V30 13588 C 1363.24 1.33865 -1.04948 0
M  V30 13589 O 1364.43 1.4171 -1.32786 0
M  V30 13590 C 1361.56 2.23178 -2.66099 0
M  V30 13591 C 1360.51 1.98362 -3.79258 0
M  V30 13592 C 1359.84 3.32836 -4.18479 0
M  V30 13593 C 1361.14 1.32201 -5.05292 0
M  V30 13594 H 1362.83 0.485562 -2.95436 0
M  V30 13595 H 1360.38 0.232116 -1.42117 0
M  V30 13596 H 1362.33 2.92108 -3.03728 0
M  V30 13597 H 1361.05 2.71766 -1.81137 0
M  V30 13598 H 1359.71 1.31849 -3.42069 0
M  V30 13599 H 1359.36 3.79185 -3.30496 0
M  V30 13600 H 1359.06 3.17037 -4.94733 0
M  V30 13601 H 1360.58 4.03032 -4.58691 0
M  V30 13602 H 1362 1.91133 -5.40501 0
M  V30 13603 H 1360.4 1.26797 -5.86551 0
M  V30 13604 H 1361.47 0.29511 -4.84001 0
M  V30 13605 N 1362.81 1.55714 0.243056 0
M  V30 13606 C 1363.72 1.93777 1.32241 0
M  V30 13607 C 1364.73 0.838709 1.52452 0
M  V30 13608 O 1365.91 1.14044 1.66 0
M  V30 13609 C 1362.98 2.22808 2.65627 0
M  V30 13610 C 1362.04 3.46166 2.53904 0
M  V30 13611 C 1361.27 3.73802 3.8093 0
M  V30 13612 O 1361.49 3.0345 4.82985 0
M  V30 13613 O 1360.43 4.67323 3.79332 0
M  V30 13614 H 1364.25 2.85718 1.02951 0
M  V30 13615 H 1361.84 1.42646 0.444135 0
M  V30 13616 H 1363.72 2.4277 3.44442 0
M  V30 13617 H 1362.39 1.34045 2.94642 0
M  V30 13618 H 1361.3 3.31506 1.73362 0
M  V30 13619 H 1362.63 4.35244 2.29834 0
M  V30 13620 N 1364.29 -0.50888 1.49158 0
M  V30 13621 C 1365.25 -1.59354 1.64739 0
M  V30 13622 C 1366.25 -1.52175 0.519557 0
M  V30 13623 O 1367.44 -1.55468 0.785838 0
M  V30 13624 C 1364.57 -2.99002 1.63739 0
M  V30 13625 H 1365.76 -1.46871 2.61474 0
M  V30 13626 H 1363.32 -0.732532 1.38071 0
M  V30 13627 H 1364.05 -3.1697 0.685583 0
M  V30 13628 H 1363.84 -3.05622 2.45637 0
M  V30 13629 H 1365.33 -3.77822 1.77877 0
M  V30 13630 N 1365.76 -1.381 -0.759346 0
M  V30 13631 C 1367.18 -1.30379 -1.33635 0
M  V30 13632 C 1367.53 0.0430279 -1.96153 0
M  V30 13633 O 1366.65 0.945029 -1.94675 0
M  V30 13634 C 1367.25 -2.3611 -2.42976 0
M  V30 13635 C 1365.81 -2.31985 -2.96412 0
M  V30 13636 C 1364.95 -2.19281 -1.69739 0
M  V30 13637 H 1367.9 -1.48542 -0.558656 0
M  V30 13638 H 1367.92 -2.01493 -3.22771 0
M  V30 13639 H 1367.44 -3.34122 -1.97445 0
M  V30 13640 H 1365.54 -1.37536 -3.46287 0
M  V30 13641 H 1365.65 -3.25895 -3.51183 0
M  V30 13642 H 1364.01 -1.66035 -1.93144 0
M  V30 13643 H 1364.8 -3.19225 -1.26293 0
M  V30 13644 N 1367.24 0.986894 -1.22875 0
M  V30 13645 C 1368.47 1.768 -1.08427 0
M  V30 13646 C 1368.89 1.84612 0.360555 0
M  V30 13647 O 1368.25 1.30299 1.26063 0
M  V30 13648 C 1368.3 3.17638 -1.70701 0
M  V30 13649 O 1367.4 4.00957 -0.964752 0
M  V30 13650 H 1366.74 0.544199 -0.380451 0
M  V30 13651 H 1369.27 1.23931 -1.62795 0
M  V30 13652 H 1369.28 3.68243 -1.75672 0
M  V30 13653 H 1367.96 3.11267 -2.75837 0
M  V30 13654 H 1366.54 3.59477 -0.991493 0
M  V30 13655 N 1368.72 1.0394 1.18466 0
M  V30 13656 C 1369.63 0.639714 2.2571 0
M  V30 13657 C 1370.65 -0.333431 1.70775 0
M  V30 13658 O 1371.82 -0.188676 2.00514 0
M  V30 13659 C 1368.89 0.007559 3.46699 0
M  V30 13660 C 1367.95 1.02955 4.16772 0
M  V30 13661 C 1367.18 0.427464 5.31985 0
M  V30 13662 O 1367.4 -0.766684 5.65224 0
M  V30 13663 O 1366.34 1.15553 5.90704 0
M  V30 13664 H 1370.16 1.53316 2.6216 0
M  V30 13665 H 1367.75 0.810206 1.25523 0
M  V30 13666 H 1369.63 -0.344404 4.1999 0
M  V30 13667 H 1368.31 -0.859727 3.12074 0
M  V30 13668 H 1367.21 1.43328 3.45554 0
M  V30 13669 H 1368.55 1.86756 4.55393 0
M  V30 13670 N 1370.2 -1.34667 0.818693 0
M  V30 13671 C 1371.13 -2.28368 0.195126 0
M  V30 13672 C 1372.14 -1.50836 -0.612562 0
M  V30 13673 O 1373.33 -1.72917 -0.442936 0
M  V30 13674 C 1370.43 -3.30601 -0.745411 0
M  V30 13675 C 1369.61 -4.37396 0.0185308 0
M  V30 13676 C 1368.66 -5.19415 -0.842298 0
M  V30 13677 O 1367.69 -5.68467 -0.288821 0
M  V30 13678 N 1368.89 -5.38709 -2.1627 0
M  V30 13679 H 1371.66 -2.8252 1.00013 0
M  V30 13680 H 1369.22 -1.47146 0.675262 0
M  V30 13681 H 1371.21 -3.82367 -1.3258 0
M  V30 13682 H 1369.78 -2.76875 -1.45118 0
M  V30 13683 H 1369 -3.86402 0.780205 0
M  V30 13684 H 1370.29 -5.05877 0.544575 0
M  V30 13685 H 1369.69 -5.00523 -2.63616 0
M  V30 13686 H 1368.24 -5.9361 -2.69204 0
M  V30 13687 N 1371.68 -0.573274 -1.46804 0
M  V30 13688 C 1372.64 0.155066 -2.28675 0
M  V30 13689 C 1373.64 0.827706 -1.37861 0
M  V30 13690 O 1374.83 0.681105 -1.60333 0
M  V30 13691 C 1371.96 1.22864 -3.1799 0
M  V30 13692 H 1373.15 -0.564305 -2.94543 0
M  V30 13693 H 1370.71 -0.330855 -1.52758 0
M  V30 13694 H 1371.44 1.97989 -2.56848 0
M  V30 13695 H 1371.23 0.750936 -3.84842 0
M  V30 13696 H 1372.72 1.73974 -3.79635 0
M  V30 13697 N 1373.15 1.5451 -0.310553 0
M  V30 13698 C 1374.57 1.85829 0.180166 0
M  V30 13699 C 1374.92 1.23239 1.52665 0
M  V30 13700 O 1374.04 0.53359 2.09718 0
M  V30 13701 C 1374.64 3.37153 0.333687 0
M  V30 13702 C 1373.2 3.68469 0.768625 0
M  V30 13703 C 1372.34 2.77051 -0.117399 0
M  V30 13704 H 1375.29 1.49544 -0.531262 0
M  V30 13705 H 1375.31 3.62171 1.16673 0
M  V30 13706 H 1374.83 3.82678 -0.646455 0
M  V30 13707 H 1372.93 3.28467 1.75898 0
M  V30 13708 H 1373.04 4.75559 0.581392 0
M  V30 13709 H 1371.4 2.51461 0.404905 0
M  V30 13710 H 1372.19 3.254 -1.09407 0
M  V30 13711 N 1374.63 0.0384594 1.57553 0
M  V30 13712 C 1375.86 -0.648077 1.96488 0
M  V30 13713 C 1376.28 -1.65123 0.915414 0
M  V30 13714 O 1375.63 -1.82216 -0.101779 0
M  V30 13715 C 1375.68 -1.34623 3.35498 0
M  V30 13716 O 1375.41 -0.383261 4.3642 0
M  V30 13717 C 1376.91 -2.12372 3.89119 0
M  V30 13718 H 1374.13 -0.178068 0.646941 0
M  V30 13719 H 1376.67 0.100993 2.0425 0
M  V30 13720 H 1374.83 -2.04663 3.28926 0
M  V30 13721 H 1375.24 -0.880095 5.17063 0
M  V30 13722 H 1376.71 -2.5666 4.88702 0
M  V30 13723 H 1377.19 -2.96664 3.23863 0
M  V30 13724 H 1377.8 -1.4727 3.98988 0
M  V30 13725 N 1376.11 -1.55841 -0.234795 0
M  V30 13726 C 1377.02 -1.94476 -1.31211 0
M  V30 13727 C 1378.04 -0.846782 -1.52005 0
M  V30 13728 O 1379.21 -1.14922 -1.65393 0
M  V30 13729 C 1376.28 -2.24213 -2.64442 0
M  V30 13730 C 1375.34 -3.47508 -2.52065 0
M  V30 13731 C 1374.57 -3.75817 -3.78942 0
M  V30 13732 O 1374.8 -3.06007 -4.81369 0
M  V30 13733 O 1373.73 -4.69328 -3.76848 0
M  V30 13734 H 1377.56 -2.8626 -1.01434 0
M  V30 13735 H 1375.14 -1.42879 -0.436563 0
M  V30 13736 H 1377.02 -2.44594 -3.4315 0
M  V30 13737 H 1375.7 -1.35605 -2.93927 0
M  V30 13738 H 1374.6 -3.32421 -1.71602 0
M  V30 13739 H 1375.94 -4.36457 -2.27523 0
M  V30 13740 N 1377.59 0.500963 -1.49426 0
M  V30 13741 C 1378.52 1.6192 -1.62217 0
M  V30 13742 C 1379.53 1.54774 -0.504868 0
M  V30 13743 O 1380.72 1.60705 -0.776919 0
M  V30 13744 C 1377.82 3.0071 -1.56291 0
M  V30 13745 C 1377 3.3304 -2.83555 0
M  V30 13746 C 1376.06 4.51241 -2.7068 0
M  V30 13747 O 1375.08 4.53023 -3.44615 0
M  V30 13748 N 1376.28 5.51156 -1.82228 0
M  V30 13749 H 1379.05 1.51374 -2.58662 0
M  V30 13750 H 1376.61 0.688837 -1.46515 0
M  V30 13751 H 1378.6 3.77705 -1.45332 0
M  V30 13752 H 1377.17 3.0518 -0.677043 0
M  V30 13753 H 1376.39 2.44942 -3.08865 0
M  V30 13754 H 1377.68 3.51437 -3.67926 0
M  V30 13755 H 1377.08 5.52516 -1.21417 0
M  V30 13756 H 1375.63 6.27253 -1.77192 0
M  V30 13757 N 1379.07 1.38501 0.752011 0
M  V30 13758 C 1380.48 1.19733 1.05529 0
M  V30 13759 C 1380.68 0.047088 2.01445 0
M  V30 13760 O 1379.74 -0.606645 2.45104 0
M  V30 13761 C 1381.05 2.52439 1.63386 0
M  V30 13762 C 1382.6 2.59136 1.7555 0
M  V30 13763 C 1383.08 3.92022 2.36819 0
M  V30 13764 N 1384.57 3.9357 2.44248 0
M  V30 13765 C 1385.3 4.93154 2.92553 0
M  V30 13766 N 1384.8 6.03135 3.40882 0
M  V30 13767 N 1386.59 4.80543 2.91607 0
M  V30 13768 H 1378.74 2.12085 0.115543 0
M  V30 13769 H 1381 0.941134 0.113888 0
M  V30 13770 H 1380.71 3.37072 1.00376 0
M  V30 13771 H 1380.58 2.70947 2.62427 0
M  V30 13772 H 1382.97 1.74897 2.37687 0
M  V30 13773 H 1383.05 2.44494 0.752092 0
M  V30 13774 H 1382.7 4.76684 1.75314 0
M  V30 13775 H 1382.63 4.03976 3.37803 0
M  V30 13776 H 1385.12 3.14133 2.10068 0
M  V30 13777 H 1385.43 6.7505 3.76201 0
M  V30 13778 H 1383.78 6.06752 3.38935 0
M  V30 13779 H 1386.97 3.93733 2.53163 0
M  V30 13780 H 1387.14 5.58303 3.28941 0
M  V30 13781 N 1380.55 -0.980364 1.23396 0
M  V30 13782 C 1381.96 -1.53622 1.061 0
M  V30 13783 C 1382.31 -1.92648 -0.371645 0
M  V30 13784 O 1381.43 -1.76051 -1.25837 0
M  V30 13785 C 1382.03 -2.79159 1.91979 0
M  V30 13786 C 1380.59 -3.31144 1.78943 0
M  V30 13787 C 1379.73 -2.04135 1.87681 0
M  V30 13788 H 1382.68 -0.800047 1.37058 0
M  V30 13789 H 1382.71 -3.52011 1.4446 0
M  V30 13790 H 1382.22 -2.50723 2.96242 0
M  V30 13791 H 1380.32 -3.64459 0.774634 0
M  V30 13792 H 1380.43 -4.009 2.62329 0
M  V30 13793 H 1378.8 -2.18271 1.31262 0
M  V30 13794 H 1379.58 -1.78081 2.93499 0
M  V30 13795 N 1382.02 -1.04567 -1.17913 0
M  V30 13796 C 1383.27 -0.750538 -1.87647 0
M  V30 13797 C 1383.59 0.72423 -1.81052 0
M  V30 13798 O 1382.86 1.52292 -1.23223 0
M  V30 13799 H 1381.44 -0.274636 -0.694683 0
M  V30 13800 H 1384.1 -1.32349 -1.43072 0
M  V30 13801 H 1383.2 -1.05987 -2.93553 0
M  V30 13802 N 1383.5 1.34231 -0.825823 0
M  V30 13803 C 1384.75 1.9849 -0.415891 0
M  V30 13804 C 1385.08 1.6531 1.01913 0
M  V30 13805 O 1384.36 0.926223 1.7103 0
M  V30 13806 C 1384.64 3.54691 -0.621785 0
M  V30 13807 C 1384.49 3.97603 -2.10313 0
M  V30 13808 C 1385.81 4.4006 -0.0595871 0
M  V30 13809 H 1382.93 0.721032 -0.152582 0
M  V30 13810 H 1385.57 1.5908 -1.03892 0
M  V30 13811 H 1383.72 3.88392 -0.0914439 0
M  V30 13812 H 1385.39 3.74221 -2.69733 0
M  V30 13813 H 1383.64 3.47809 -2.59251 0
M  V30 13814 H 1384.31 5.06352 -2.19799 0
M  V30 13815 H 1386.78 4.12929 -0.512743 0
M  V30 13816 H 1385.66 5.48403 -0.233431 0
M  V30 13817 H 1385.92 4.29798 1.03568 0
M  V30 13818 N 1384.98 0.581051 1.46498 0
M  V30 13819 C 1385.91 -0.19094 2.28403 0
M  V30 13820 C 1386.92 -0.857039 1.38415 0
M  V30 13821 O 1388.11 -0.726881 1.6303 0
M  V30 13822 C 1385.21 -1.28972 3.134 0
M  V30 13823 C 1384.39 -0.715867 4.31502 0
M  V30 13824 C 1383.45 -1.70215 4.97909 0
M  V30 13825 O 1382.47 -1.23885 5.55555 0
M  V30 13826 N 1383.67 -3.0362 4.94768 0
M  V30 13827 H 1386.44 0.511754 2.95298 0
M  V30 13828 H 1384 0.41871 1.56392 0
M  V30 13829 H 1385.99 -1.94877 3.5469 0
M  V30 13830 H 1384.56 -1.8953 2.4859 0
M  V30 13831 H 1383.78 0.120591 3.94016 0
M  V30 13832 H 1385.07 -0.312226 5.07841 0
M  V30 13833 H 1384.47 -3.43885 4.49177 0
M  V30 13834 H 1383.02 -3.65018 5.40005 0
M  V30 13835 N 1386.46 -1.54343 0.318742 0
M  V30 13836 C 1387.37 -2.27856 -0.558442 0
M  V30 13837 C 1388.38 -1.32029 -1.13333 0
M  V30 13838 O 1389.56 -1.65037 -1.15433 0
M  V30 13839 C 1386.62 -3.01842 -1.70565 0
M  V30 13840 C 1385.69 -4.13245 -1.16305 0
M  V30 13841 C 1384.92 -4.83693 -2.25559 0
M  V30 13842 O 1385.14 -4.53621 -3.4581 0
M  V30 13843 O 1384.08 -5.70708 -1.91249 0
M  V30 13844 H 1387.9 -3.03676 0.0384247 0
M  V30 13845 H 1385.49 -1.4916 0.0845936 0
M  V30 13846 H 1387.37 -3.48189 -2.37365 0
M  V30 13847 H 1386.04 -2.28902 -2.28879 0
M  V30 13848 H 1384.95 -3.71258 -0.460274 0
M  V30 13849 H 1386.28 -4.88214 -0.625111 0
M  V30 13850 N 1387.94 -0.0468143 -1.5753 0
M  V30 13851 C 1389.18 0.631887 -1.94388 0
M  V30 13852 C 1389.54 1.68265 -0.924715 0
M  V30 13853 O 1390.74 2.41511 -1.18008 0
M  V30 13854 C 1389.01 1.21642 -3.36063 0
M  V30 13855 S 1390.57 1.91373 -3.94869 0
M  V30 13856 H 1387.39 0.207594 -0.680019 0
M  V30 13857 H 1389.99 -0.11471 -1.95163 0
M  V30 13858 H 1388.69 0.439479 -4.0804 0
M  V30 13859 H 1388.23 1.99993 -3.38772 0
M  V30 13860 H 1390.24 3.19392 -3.79741 0
M  V30 13861 N 1389.41 1.55964 0.226527 0
M  V30 13862 C 1390.64 1.82558 0.967269 0
M  V30 13863 C 1391.05 0.623034 1.78647 0
M  V30 13864 O 1390.4 -0.41779 1.78886 0
M  V30 13865 C 1390.46 3.02812 1.93766 0
M  V30 13866 C 1390.12 4.38017 1.30345 0
M  V30 13867 C 1391.12 5.15223 0.695793 0
M  V30 13868 C 1388.8 4.84735 1.31671 0
M  V30 13869 C 1390.8 6.37305 0.109849 0
M  V30 13870 C 1388.48 6.06761 0.726919 0
M  V30 13871 C 1389.48 6.82886 0.124537 0
M  V30 13872 O 1389.17 8.02605 -0.45609 0
M  V30 13873 H 1388.9 0.610967 0.289301 0
M  V30 13874 H 1391.46 2.03892 0.248407 0
M  V30 13875 H 1389.69 2.77283 2.69538 0
M  V30 13876 H 1391.38 3.16321 2.54353 0
M  V30 13877 H 1392.14 4.80239 0.677912 0
M  V30 13878 H 1388.02 4.2546 1.77496 0
M  V30 13879 H 1391.56 6.96666 -0.360953 0
M  V30 13880 H 1387.46 6.41219 0.742196 0
M  V30 13881 H 1388.23 8.17752 -0.349926 0
M  V30 13882 N 1390.89 -0.493031 1.4969 0
M  V30 13883 C 1391.84 -1.59075 1.63337 0
M  V30 13884 C 1392.83 -1.53298 0.488721 0
M  V30 13885 O 1394.02 -1.60693 0.742071 0
M  V30 13886 C 1391.15 -2.97646 1.71061 0
M  V30 13887 C 1390.23 -3.08389 2.9113 0
M  V30 13888 N 1390.62 -2.89001 4.15105 0
M  V30 13889 C 1388.92 -3.395 2.89233 0
M  V30 13890 C 1389.62 -3.04136 4.95859 0
M  V30 13891 N 1388.6 -3.33367 4.2938 0
M  V30 13892 H 1392.4 -1.42751 2.56903 0
M  V30 13893 H 1389.92 -0.699325 1.46571 0
M  V30 13894 H 1391.91 -3.76546 1.78938 0
M  V30 13895 H 1390.57 -3.15034 0.786376 0
M  V30 13896 H 1391.58 -2.65017 4.44957 0
M  V30 13897 H 1388.26 -3.63014 2.06221 0
M  V30 13898 H 1389.65 -2.93571 6.04372 0
M  V30 13899 N 1392.37 -1.38898 -0.744656 0
M  V30 13900 C 1393.62 -1.35327 -1.50104 0
M  V30 13901 C 1393.94 0.0532788 -1.94927 0
M  V30 13902 O 1393.21 1.0027 -1.68294 0
M  V30 13903 H 1391.79 -0.49797 -0.556808 0
M  V30 13904 H 1394.45 -1.73667 -0.884625 0
M  V30 13905 H 1393.55 -2.00983 -2.38773 0
M  V30 13906 N 1393.85 0.973806 -1.23914 0
M  V30 13907 C 1394.8 2.08861 -1.02372 0
M  V30 13908 C 1395.79 1.69354 0.039415 0
M  V30 13909 O 1397 1.79635 -0.114637 0
M  V30 13910 H 1393.37 0.683313 -0.313986 0
M  V30 13911 H 1395.34 2.24195 -1.96924 0
M  V30 13912 C 1394.09 3.41784 -0.638661 0
M  V30 13913 H 1393.41 3.72639 -1.44846 0
M  V30 13914 H 1394.85 4.20706 -0.527487 0
M  V30 13915 C 1393.31 3.30497 0.65369 0
M  V30 13916 O 1393.84 3.63905 1.70107 0
M  V30 13917 N 1392.05 2.83642 0.632104 0
M  V30 13918 H 1391.6 2.56654 -0.220571 0
M  V30 13919 H 1391.55 2.76472 1.49701 0
M  V30 13920 N 1395.33 1.05191 1.17357 0
M  V30 13921 C 1396.57 0.760479 1.87246 0
M  V30 13922 C 1396.9 -0.714618 1.81434 0
M  V30 13923 O 1396.17 -1.51636 1.24029 0
M  V30 13924 H 1394.75 0.278317 0.693216 0
M  V30 13925 H 1397.41 1.33106 1.42369 0
M  V30 13926 H 1396.5 1.07542 2.92987 0
M  V30 13927 N 1396.8 -1.33791 0.83293 0
M  V30 13928 C 1397.74 -2.28148 0.219336 0
M  V30 13929 C 1398.75 -1.51477 -0.596529 0
M  V30 13930 O 1399.94 -1.73377 -0.424571 0
M  V30 13931 C 1397.04 -3.31373 -0.710305 0
M  V30 13932 C 1396.21 -4.37352 0.0649215 0
M  V30 13933 C 1395.27 -5.20279 -0.78716 0
M  V30 13934 O 1394.3 -5.68741 -0.228511 0
M  V30 13935 N 1395.5 -5.40973 -2.10544 0
M  V30 13936 H 1398.26 -2.81443 1.03004 0
M  V30 13937 H 1395.82 -1.46421 0.690831 0
M  V30 13938 H 1397.82 -3.83752 -1.28517 0
M  V30 13939 H 1396.39 -2.78398 -1.42173 0
M  V30 13940 H 1395.61 -3.85553 0.821144 0
M  V30 13941 H 1396.89 -5.05271 0.598199 0
M  V30 13942 H 1396.29 -5.03291 -2.58292 0
M  V30 13943 H 1394.85 -5.96432 -2.62893 0
M  V30 13944 N 1398.28 -0.588812 -1.46187 0
M  V30 13945 C 1399.51 -0.0806571 -2.07243 0
M  V30 13946 C 1399.93 1.21766 -1.43369 0
M  V30 13947 O 1399.29 1.73694 -0.51964 0
M  V30 13948 C 1399.34 0.065267 -3.60541 0
M  V30 13949 O 1398.44 1.12026 -3.96893 0
M  V30 13950 H 1397.78 -0.0655622 -0.660755 0
M  V30 13951 H 1400.31 -0.813489 -1.87733 0
M  V30 13952 H 1400.32 0.269494 -4.07109 0
M  V30 13953 H 1399 -0.88284 -4.06422 0
M  V30 13954 H 1397.58 0.894 -3.62025 0
M  V30 13955 N 1399.76 1.54172 -0.326923 0
M  V30 13956 C 1400.99 2.04747 0.276107 0
M  V30 13957 C 1401.4 1.20251 1.4607 0
M  V30 13958 O 1400.74 0.226753 1.82295 0
M  V30 13959 C 1400.8 3.51143 0.770651 0
M  V30 13960 C 1400.47 4.56066 -0.292079 0
M  V30 13961 C 1401.46 5.07487 -1.12928 0
M  V30 13962 C 1399.15 5.00358 -0.441232 0
M  V30 13963 C 1401.14 6.01767 -2.10133 0
M  V30 13964 C 1398.83 5.94452 -1.4167 0
M  V30 13965 C 1399.83 6.45042 -2.24521 0
M  V30 13966 O 1399.52 7.37288 -3.20409 0
M  V30 13967 H 1399.25 0.673322 0.0601144 0
M  V30 13968 H 1401.8 1.99899 -0.472176 0
M  V30 13969 H 1400.03 3.53399 1.5699 0
M  V30 13970 H 1401.72 3.84775 1.2924 0
M  V30 13971 H 1402.49 4.74044 -1.02505 0
M  V30 13972 H 1398.37 4.60593 0.193767 0
M  V30 13973 H 1401.91 6.41178 -2.74839 0
M  V30 13974 H 1397.81 6.27311 -1.52155 0
M  V30 13975 H 1398.58 7.55171 -3.15687 0
M  V30 13976 N 1401.24 0.0551678 1.57503 0
M  V30 13977 C 1402.65 -0.3014 1.56728 0
M  V30 13978 C 1402.85 -1.71169 1.06317 0
M  V30 13979 O 1401.91 -2.4197 0.721566 0
M  V30 13980 C 1403.22 -0.12622 3.00435 0
M  V30 13981 C 1404.77 -0.197022 3.12379 0
M  V30 13982 C 1405.25 -0.0503235 4.57972 0
M  V30 13983 N 1406.74 -0.106471 4.63078 0
M  V30 13984 C 1407.47 -0.0171325 5.73397 0
M  V30 13985 N 1406.97 0.124781 6.92688 0
M  V30 13986 N 1408.76 -0.0730028 5.62053 0
M  V30 13987 H 1400.91 0.977072 1.88592 0
M  V30 13988 H 1403.18 0.37963 0.868668 0
M  V30 13989 H 1402.88 0.846286 3.41366 0
M  V30 13990 H 1402.76 -0.885574 3.66657 0
M  V30 13991 H 1405.14 -1.16 2.71345 0
M  V30 13992 H 1405.22 0.593155 2.48828 0
M  V30 13993 H 1404.87 0.909352 4.99693 0
M  V30 13994 H 1404.8 -0.859695 5.19535 0
M  V30 13995 H 1407.29 -0.215241 3.77287 0
M  V30 13996 H 1407.6 0.185548 7.72577 0
M  V30 13997 H 1405.95 0.15992 6.94816 0
M  V30 13998 H 1409.14 -0.182456 4.67744 0
M  V30 13999 H 1409.31 7.85052e-05 6.48 0
M  V30 14000 N 1402.72 -1.56081 -0.218252 0
M  V30 14001 C 1403.96 -1.78893 -0.940296 0
M  V30 14002 C 1404.29 -0.62425 -1.84738 0
M  V30 14003 O 1403.56 0.358686 -1.92588 0
M  V30 14004 H 1402.14 -0.659828 -0.350193 0
M  V30 14005 H 1404.8 -1.93546 -0.229316 0
M  V30 14006 H 1403.89 -2.71167 -1.54516 0
M  V30 14007 N 1404.2 0.485086 -1.49949 0
M  V30 14008 C 1405.42 1.26179 -1.63971 0
M  V30 14009 C 1405.84 1.86113 -0.317408 0
M  V30 14010 O 1405.2 1.68581 0.699038 0
M  V30 14011 C 1405.25 2.38062 -2.72046 0
M  V30 14012 O 1404.97 1.80588 -3.99149 0
M  V30 14013 C 1406.47 3.29174 -2.96916 0
M  V30 14014 H 1403.69 0.382122 -0.551565 0
M  V30 14015 H 1406.23 0.580607 -1.96085 0
M  V30 14016 H 1404.39 3.0198 -2.42666 0
M  V30 14017 H 1404.8 2.54159 -4.58807 0
M  V30 14018 H 1406.28 4.03922 -3.76233 0
M  V30 14019 H 1406.75 3.87123 -2.07443 0
M  V30 14020 H 1407.36 2.71006 -3.27774 0
M  V30 14021 N 1405.67 1.39291 0.737279 0
M  V30 14022 C 1406.9 1.39457 1.52431 0
M  V30 14023 C 1407.31 -0.0132866 1.89195 0
M  V30 14024 O 1406.65 -0.99443 1.54456 0
M  V30 14025 C 1406.72 2.20125 2.84227 0
M  V30 14026 C 1406.38 3.68778 2.6991 0
M  V30 14027 C 1407.38 4.6191 2.38611 0
M  V30 14028 C 1405.06 4.12336 2.86853 0
M  V30 14029 C 1407.06 5.96581 2.24432 0
M  V30 14030 C 1404.74 5.47083 2.72292 0
M  V30 14031 C 1405.74 6.3902 2.41127 0
M  V30 14032 O 1405.43 7.71287 2.26654 0
M  V30 14033 H 1405.16 0.478281 0.477727 0
M  V30 14034 H 1407.72 1.837 0.918891 0
M  V30 14035 H 1405.95 1.70627 3.47021 0
M  V30 14036 H 1407.63 2.12497 3.45832 0
M  V30 14037 H 1408.4 4.29559 2.25175 0
M  V30 14038 H 1404.28 3.41111 3.10103 0
M  V30 14039 H 1407.82 6.68307 2.00028 0
M  V30 14040 H 1403.72 5.79026 2.85306 0
M  V30 14041 H 1404.49 7.81987 2.41742 0
M  V30 14042 N 1407.15 -0.967221 1.24429 0
M  V30 14043 C 1408.38 -1.75053 1.11226 0
M  V30 14044 C 1408.8 -1.85162 -0.331139 0
M  V30 14045 O 1408.16 -1.32288 -1.23974 0
M  V30 14046 C 1408.21 -3.14882 1.75733 0
M  V30 14047 O 1407.31 -3.99371 1.02842 0
M  V30 14048 H 1406.65 -0.538078 0.389061 0
M  V30 14049 H 1409.18 -1.21325 1.64746 0
M  V30 14050 H 1409.19 -3.65402 1.81509 0
M  V30 14051 H 1407.87 -3.06839 2.80754 0
M  V30 14052 H 1406.44 -3.57854 1.04856 0
M  V30 14053 N 1408.63 -1.05812 -1.16797 0
M  V30 14054 C 1409.86 -0.792519 -1.9112 0
M  V30 14055 C 1410.27 0.652549 -1.77164 0
M  V30 14056 O 1409.63 1.44633 -1.113 0
M  V30 14057 C 1409.68 -1.17172 -3.41984 0
M  V30 14058 O 1409.4 -2.56008 -3.55516 0
M  V30 14059 C 1410.9 -0.933162 -4.33367 0
M  V30 14060 H 1408.12 -0.28768 -0.606202 0
M  V30 14061 H 1410.67 -1.41046 -1.48075 0
M  V30 14062 H 1408.82 -0.598413 -3.8275 0
M  V30 14063 H 1409.24 -2.71053 -4.49033 0
M  V30 14064 H 1410.71 -1.24817 -5.37703 0
M  V30 14065 H 1411.19 0.131345 -4.39004 0
M  V30 14066 H 1411.79 -1.49062 -3.98322 0
M  V30 14067 N 1410.11 1.33347 -0.840014 0
M  V30 14068 C 1411.34 2.01952 -0.449793 0
M  V30 14069 C 1411.75 1.63197 0.949317 0
M  V30 14070 O 1411.11 0.84589 1.61713 0
M  V30 14071 C 1411.16 3.57102 -0.562178 0
M  V30 14072 O 1410.88 3.94458 -1.90616 0
M  V30 14073 C 1412.38 4.42978 -0.169062 0
M  V30 14074 H 1409.6 0.646843 -0.178425 0
M  V30 14075 H 1412.14 1.70251 -1.1329 0
M  V30 14076 H 1410.3 3.87331 0.0730345 0
M  V30 14077 H 1410.71 4.89167 -1.8925 0
M  V30 14078 H 1412.19 5.51191 -0.298742 0
M  V30 14079 H 1412.66 4.30106 0.889137 0
M  V30 14080 H 1413.27 4.18109 -0.778756 0
M  V30 14081 N 1411.59 0.596556 1.45873 0
M  V30 14082 C 1412.83 0.0875879 2.02611 0
M  V30 14083 C 1413.16 -1.27438 1.46538 0
M  V30 14084 O 1412.44 -1.83815 0.635779 0
M  V30 14085 C 1412.72 0.0367394 3.60081 0
M  V30 14086 C 1412.58 1.42859 4.26511 0
M  V30 14087 C 1413.89 -0.656795 4.35171 0
M  V30 14088 H 1411.01 0.0333031 0.736247 0
M  V30 14089 H 1413.66 0.766413 1.73857 0
M  V30 14090 H 1411.81 -0.541345 3.8471 0
M  V30 14091 H 1413.48 2.0529 4.13102 0
M  V30 14092 H 1411.72 1.99243 3.85337 0
M  V30 14093 H 1412.39 1.34535 5.35354 0
M  V30 14094 H 1414.87 -0.165553 4.15771 0
M  V30 14095 H 1413.74 -0.661445 5.449 0
M  V30 14096 H 1414 -1.72079 4.07236 0
M  V30 14097 N 1413.06 -1.53996 0.335095 0
M  V30 14098 C 1414.29 -2.05188 -0.26563 0
M  V30 14099 C 1414.71 -1.21058 -1.44881 0
M  V30 14100 O 1414.06 -0.243919 -1.80863 0
M  V30 14101 C 1414.11 -3.54875 -0.688904 0
M  V30 14102 O 1413.84 -4.35811 0.447217 0
M  V30 14103 C 1415.34 -4.22204 -1.35123 0
M  V30 14104 H 1412.56 -0.668921 -0.0527806 0
M  V30 14105 H 1415.1 -1.98675 0.48463 0
M  V30 14106 H 1413.26 -3.61638 -1.38912 0
M  V30 14107 H 1413.67 -5.24381 0.111495 0
M  V30 14108 H 1415.14 -5.28356 -1.59823 0
M  V30 14109 H 1415.62 -3.74029 -2.30216 0
M  V30 14110 H 1416.23 -4.19611 -0.693283 0
M  V30 14111 N 1414.54 -0.0635198 -1.57472 0
M  V30 14112 C 1415.79 0.606285 -1.92792 0
M  V30 14113 C 1416.11 1.70648 -0.943615 0
M  V30 14114 O 1415.38 1.95898 0.00957612 0
M  V30 14115 H 1413.96 0.226943 -0.711692 0
M  V30 14116 H 1416.62 -0.119429 -1.94534 0
M  V30 14117 H 1415.72 1.03694 -2.9437 0
M  V30 14118 N 1416.02 1.56195 0.209972 0
M  V30 14119 C 1417.44 1.49446 0.56018 0
M  V30 14120 C 1417.64 0.760799 1.86585 0
M  V30 14121 O 1416.69 0.305201 2.50649 0
M  V30 14122 C 1418 2.94054 0.628687 0
M  V30 14123 C 1419.55 3.04641 0.718531 0
M  V30 14124 C 1420.03 4.50631 0.81828 0
M  V30 14125 N 1421.52 4.54721 0.8822 0
M  V30 14126 C 1422.25 5.64976 0.979292 0
M  V30 14127 N 1421.75 6.84955 1.03961 0
M  V30 14128 N 1423.54 5.52854 1.01533 0
M  V30 14129 H 1415.69 2.02316 -0.646674 0
M  V30 14130 H 1417.96 0.920063 -0.228446 0
M  V30 14131 H 1417.66 3.50728 -0.261324 0
M  V30 14132 H 1417.54 3.46592 1.48842 0
M  V30 14133 H 1419.92 2.48026 1.59898 0
M  V30 14134 H 1420 2.55254 -0.167102 0
M  V30 14135 H 1419.65 5.07867 -0.0577557 0
M  V30 14136 H 1419.58 4.97736 1.7195 0
M  V30 14137 H 1422.07 3.68322 0.845433 0
M  V30 14138 H 1422.38 7.64732 1.11379 0
M  V30 14139 H 1420.73 6.87643 1.00854 0
M  V30 14140 H 1423.92 4.58046 0.96494 0
M  V30 14141 H 1424.09 6.38809 1.08754 0
M  V30 14142 N 1417.5 -0.477127 1.50204 0
M  V30 14143 C 1418.73 -1.25307 1.64638 0
M  V30 14144 C 1419.14 -1.85942 0.327274 0
M  V30 14145 O 1418.5 -1.6895 -0.690088 0
M  V30 14146 C 1418.55 -2.36616 2.73304 0
M  V30 14147 O 1418.27 -1.78469 4.00101 0
M  V30 14148 C 1419.77 -3.27595 2.98658 0
M  V30 14149 H 1416.99 -0.379192 0.553583 0
M  V30 14150 H 1419.53 -0.5702 1.9639 0
M  V30 14151 H 1417.69 -3.00689 2.44264 0
M  V30 14152 H 1418.1 -2.51722 4.60148 0
M  V30 14153 H 1419.58 -4.01921 3.7837 0
M  V30 14154 H 1420.05 -3.86017 2.09493 0
M  V30 14155 H 1420.66 -2.69264 3.29206 0
M  V30 14156 N 1418.98 -1.3968 -0.729882 0
M  V30 14157 C 1420.22 -1.3862 -1.50213 0
M  V30 14158 C 1420.58 0.0167409 -1.91993 0
M  V30 14159 O 1421.78 0.15238 -2.68368 0
M  V30 14160 C 1420.05 -2.33583 -2.70507 0
M  V30 14161 S 1421.61 -2.50756 -3.60093 0
M  V30 14162 H 1418.43 -0.491511 -0.513749 0
M  V30 14163 H 1421.03 -1.75823 -0.854783 0
M  V30 14164 H 1419.74 -3.34369 -2.37961 0
M  V30 14165 H 1419.27 -1.97613 -3.40166 0
M  V30 14166 H 1421.28 -1.74929 -4.64343 0
M  V30 14167 N 1420.45 0.960609 -1.2494 0
M  V30 14168 C 1421.39 2.05948 -1.00588 0
M  V30 14169 C 1422.4 1.62777 0.0271261 0
M  V30 14170 O 1423.59 1.77252 -0.210739 0
M  V30 14171 C 1420.69 3.35228 -0.497521 0
M  V30 14172 C 1419.86 4.0727 -1.59531 0
M  V30 14173 C 1418.92 5.14822 -1.08836 0
M  V30 14174 O 1417.95 5.40602 -1.78153 0
M  V30 14175 N 1419.15 5.80453 0.0735067 0
M  V30 14176 H 1421.91 2.27411 -1.95204 0
M  V30 14177 H 1419.47 1.12874 -1.16065 0
M  V30 14178 H 1421.47 4.04447 -0.142979 0
M  V30 14179 H 1420.04 3.10583 0.354546 0
M  V30 14180 H 1419.26 3.32231 -2.12171 0
M  V30 14181 H 1420.54 4.52161 -2.33299 0
M  V30 14182 H 1419.94 5.6192 0.652848 0
M  V30 14183 H 1418.5 6.50754 0.369132 0
M  V30 14184 N 1421.93 1.0643 1.16234 0
M  V30 14185 C 1422.9 0.680383 2.18869 0
M  V30 14186 C 1423.9 -0.274591 1.58438 0
M  V30 14187 O 1425.09 -0.0567907 1.74107 0
M  V30 14188 C 1422.22 0.00134091 3.409 0
M  V30 14189 H 1423.41 1.58894 2.54347 0
M  V30 14190 H 1420.96 0.859688 1.30534 0
M  V30 14191 H 1421.7 -0.919903 3.1098 0
M  V30 14192 H 1421.48 0.688057 3.86016 0
M  V30 14193 H 1422.97 -0.252938 4.16833 0
M  V30 14194 N 1423.41 -1.329 0.847073 0
M  V30 14195 C 1424.66 -1.98207 0.456672 0
M  V30 14196 C 1425.01 -1.65853 -0.975219 0
M  V30 14197 O 1424.3 -0.932413 -1.67382 0
M  V30 14198 C 1424.5 -3.51913 0.623845 0
M  V30 14199 C 1424.33 -3.99203 2.07043 0
M  V30 14200 C 1423.1 -4.26649 2.70737 0
M  V30 14201 C 1425.3 -4.14825 3.04014 0
M  V30 14202 N 1423.28 -4.60134 4.06386 0
M  V30 14203 C 1424.65 -4.51762 4.2463 0
M  V30 14204 C 1426.7 -3.97137 3.0031 0
M  V30 14205 C 1425.41 -4.72859 5.4203 0
M  V30 14206 C 1427.43 -4.19414 4.16948 0
M  V30 14207 C 1426.79 -4.56661 5.36321 0
M  V30 14208 H 1422.89 -0.751664 0.215696 0
M  V30 14209 H 1425.48 -1.60863 1.09687 0
M  V30 14210 H 1423.65 -3.88398 0.0133985 0
M  V30 14211 H 1425.38 -4.04185 0.204083 0
M  V30 14212 H 1422.14 -4.1844 2.21822 0
M  V30 14213 H 1422.56 -4.81074 4.76337 0
M  V30 14214 H 1427.2 -3.67449 2.09144 0
M  V30 14215 H 1424.92 -5.01405 6.33734 0
M  V30 14216 H 1428.51 -4.07239 4.15509 0
M  V30 14217 H 1427.39 -4.73554 6.25073 0
M  V30 14218 N 1424.89 -0.604284 -1.45555 0
M  V30 14219 C 1426.11 -0.102634 -2.07146 0
M  V30 14220 C 1426.54 1.20239 -1.44652 0
M  V30 14221 O 1425.9 1.73133 -0.538033 0
M  V30 14222 C 1425.94 0.0270231 -3.6059 0
M  V30 14223 O 1425.05 1.0781 -3.98059 0
M  V30 14224 H 1424.39 -0.0725667 -0.660023 0
M  V30 14225 H 1426.92 -0.833355 -1.86859 0
M  V30 14226 H 1426.93 0.226299 -4.07372 0
M  V30 14227 H 1425.6 -0.925896 -4.05463 0
M  V30 14228 H 1424.18 0.855552 -3.62953 0
M  V30 14229 N 1426.37 1.53816 -0.343257 0
M  V30 14230 C 1427.59 2.05796 0.257418 0
M  V30 14231 C 1428.02 1.2166 1.43459 0
M  V30 14232 O 1427.37 0.230278 1.79832 0
M  V30 14233 C 1427.42 3.54681 0.65068 0
M  V30 14234 O 1426.53 3.73394 1.75074 0
M  V30 14235 H 1425.87 0.662622 0.042757 0
M  V30 14236 H 1428.4 1.98462 -0.497386 0
M  V30 14237 H 1428.41 3.97308 0.927914 0
M  V30 14238 H 1427.08 4.15368 -0.210199 0
M  V30 14239 H 1425.66 3.42669 1.4708 0
M  V30 14240 N 1427.84 0.0718701 1.57436 0
M  V30 14241 C 1428.78 -0.931304 2.08331 0
M  V30 14242 C 1429.76 -1.29106 0.988448 0
M  V30 14243 O 1430.94 -1.40035 1.26184 0
M  V30 14244 C 1428.07 -2.23939 2.54104 0
M  V30 14245 C 1427.11 -2.03119 3.75026 0
M  V30 14246 S 1427.95 -1.29048 5.19718 0
M  V30 14247 C 1429.1 -2.61136 5.68822 0
M  V30 14248 H 1429.33 -0.498236 2.93095 0
M  V30 14249 H 1426.87 -0.140897 1.53756 0
M  V30 14250 H 1428.83 -2.9912 2.81136 0
M  V30 14251 H 1427.49 -2.64371 1.69608 0
M  V30 14252 H 1426.68 -2.99927 4.05043 0
M  V30 14253 H 1426.28 -1.36074 3.48367 0
M  V30 14254 H 1428.57 -3.57224 5.75671 0
M  V30 14255 H 1429.52 -2.35729 6.67711 0
M  V30 14256 H 1429.92 -2.68345 4.9664 0
M  V30 14257 N 1429.32 -1.56304 -0.201686 0
M  V30 14258 C 1430.55 -1.84341 -0.939465 0
M  V30 14259 C 1430.97 -0.653544 -1.77128 0
M  V30 14260 O 1430.32 0.377813 -1.78546 0
M  V30 14261 C 1430.37 -3.11111 -1.84098 0
M  V30 14262 O 1430.09 -4.25509 -1.04276 0
M  V30 14263 C 1431.6 -3.52279 -2.69099 0
M  V30 14264 H 1428.82 -0.61232 -0.274419 0
M  V30 14265 H 1431.36 -2.03409 -0.210924 0
M  V30 14266 H 1429.51 -2.9396 -2.52322 0
M  V30 14267 H 1429.93 -4.97655 -1.6565 0
M  V30 14268 H 1431.4 -4.43965 -3.28023 0
M  V30 14269 H 1431.88 -2.74959 -3.42482 0
M  V30 14270 H 1432.49 -3.71939 -2.06256 0
M  V30 14271 N 1430.8 0.469154 -1.50455 0
M  V30 14272 C 1432.21 1.04997 -1.54378 0
M  V30 14273 C 1432.56 1.93082 -0.348414 0
M  V30 14274 O 1431.69 2.09594 0.538469 0
M  V30 14275 C 1432.28 1.91096 -2.79764 0
M  V30 14276 C 1430.84 2.44283 -2.86361 0
M  V30 14277 C 1429.99 1.22676 -2.48688 0
M  V30 14278 H 1432.94 0.251692 -1.56691 0
M  V30 14279 H 1432.96 2.76186 -2.61728 0
M  V30 14280 H 1432.47 1.26961 -3.66746 0
M  V30 14281 H 1430.57 3.11966 -2.03735 0
M  V30 14282 H 1430.69 2.79258 -3.89297 0
M  V30 14283 H 1429.05 1.56215 -2.01169 0
M  V30 14284 H 1429.83 0.602002 -3.37981 0
M  V30 14285 N 1432.28 1.40065 0.722464 0
M  V30 14286 C 1433.23 1.36267 1.82798 0
M  V30 14287 C 1434.21 0.241375 1.59079 0
M  V30 14288 O 1435.4 0.479929 1.70369 0
M  V30 14289 C 1432.53 1.22086 3.20858 0
M  V30 14290 C 1431.62 2.38969 3.50364 0
M  V30 14291 N 1432.01 3.6445 3.50727 0
M  V30 14292 C 1430.31 2.32199 3.80788 0
M  V30 14293 C 1431.01 4.41816 3.78383 0
M  V30 14294 N 1429.99 3.71565 3.96787 0
M  V30 14295 H 1433.79 2.31236 1.81403 0
M  V30 14296 H 1431.3 1.33739 0.92128 0
M  V30 14297 H 1433.3 1.17448 4.00014 0
M  V30 14298 H 1431.96 0.280787 3.23484 0
M  V30 14299 H 1432.97 3.97705 3.3174 0
M  V30 14300 H 1429.65 1.46521 3.90945 0
M  V30 14301 H 1431.04 5.5064 3.85027 0
M  V30 14302 N 1433.76 -0.95397 1.25448 0
M  V30 14303 C 1434.98 -1.73863 1.13077 0
M  V30 14304 C 1435.41 -1.85503 -0.311481 0
M  V30 14305 O 1434.77 -1.33596 -1.22564 0
M  V30 14306 C 1434.81 -3.13 1.79062 0
M  V30 14307 O 1433.92 -3.98258 1.07072 0
M  V30 14308 H 1433.26 -0.533921 0.394746 0
M  V30 14309 H 1435.79 -1.19571 1.66024 0
M  V30 14310 H 1435.8 -3.63456 1.85374 0
M  V30 14311 H 1434.47 -3.03844 2.83992 0
M  V30 14312 H 1433.05 -3.56722 1.08645 0
M  V30 14313 N 1435.24 -1.07045 -1.15668 0
M  V30 14314 C 1436.19 -0.65786 -2.18303 0
M  V30 14315 C 1437.17 0.315405 -1.57778 0
M  V30 14316 O 1438.36 0.129631 -1.76525 0
M  V30 14317 C 1435.49 -0.0538843 -3.43258 0
M  V30 14318 C 1434.58 -1.0521 -4.10843 0
M  V30 14319 N 1434.97 -2.23051 -4.53963 0
M  V30 14320 C 1433.27 -0.884739 -4.37137 0
M  V30 14321 C 1433.97 -2.86354 -5.06336 0
M  V30 14322 N 1432.94 -2.14037 -4.99689 0
M  V30 14323 H 1436.74 -1.55542 -2.49367 0
M  V30 14324 H 1434.26 -0.9432 -1.32202 0
M  V30 14325 H 1436.26 0.259575 -4.16091 0
M  V30 14326 H 1434.92 0.83883 -3.13678 0
M  V30 14327 H 1435.93 -2.60786 -4.4745 0
M  V30 14328 H 1432.6 -0.0446575 -4.17476 0
M  V30 14329 H 1433.99 -3.86393 -5.49682 0
M  V30 14330 N 1436.71 1.32449 -0.85411 0
M  V30 14331 C 1437.94 2.01997 -0.470307 0
M  V30 14332 C 1438.36 1.63772 0.925225 0
M  V30 14333 O 1437.72 0.838089 1.60766 0
M  V30 14334 C 1437.77 3.55294 -0.616301 0
M  V30 14335 O 1436.87 4.10902 0.351133 0
M  V30 14336 H 1436.21 0.63651 -0.189079 0
M  V30 14337 H 1438.74 1.69008 -1.15315 0
M  V30 14338 H 1438.75 4.0488 -0.503624 0
M  V30 14339 H 1437.43 3.82459 -1.63396 0
M  V30 14340 H 1436.01 3.72391 0.194741 0
M  V30 14341 N 1438.19 0.611994 1.45232 0
M  V30 14342 C 1439.61 0.276005 1.57195 0
M  V30 14343 C 1439.81 -1.22136 1.60266 0
M  V30 14344 O 1438.86 -2.00459 1.53533 0
M  V30 14345 C 1440.18 0.951064 2.85263 0
M  V30 14346 C 1441.72 0.927398 2.98945 0
M  V30 14347 C 1442.2 1.58255 4.2979 0
M  V30 14348 N 1443.69 1.54825 4.36559 0
M  V30 14349 C 1444.43 2.02428 5.3648 0
M  V30 14350 N 1443.92 2.58137 6.42913 0
M  V30 14351 N 1445.71 1.9317 5.27865 0
M  V30 14352 H 1437.87 1.58418 1.41483 0
M  V30 14353 H 1440.13 0.663879 0.676734 0
M  V30 14354 H 1439.83 2.00557 2.88912 0
M  V30 14355 H 1439.71 0.477044 3.74171 0
M  V30 14356 H 1442.1 -0.118571 2.94862 0
M  V30 14357 H 1442.18 1.43973 2.11437 0
M  V30 14358 H 1441.82 2.62787 4.34632 0
M  V30 14359 H 1441.75 1.04521 5.16123 0
M  V30 14360 H 1444.24 1.14133 3.60253 0
M  V30 14361 H 1444.55 2.92243 7.15412 0
M  V30 14362 H 1442.9 2.62179 6.43652 0
M  V30 14363 H 1446.09 1.49384 4.43624 0
M  V30 14364 H 1446.26 2.30582 6.05587 0
M  V30 14365 N 1439.67 -1.53632 0.351409 0
M  V30 14366 C 1440.9 -2.05458 -0.243852 0
M  V30 14367 C 1441.31 -1.22588 -1.43589 0
M  V30 14368 O 1440.67 -0.263088 -1.80594 0
M  V30 14369 C 1440.72 -3.55586 -0.651226 0
M  V30 14370 O 1440.44 -4.35313 0.493415 0
M  V30 14371 C 1441.94 -4.23614 -1.30637 0
M  V30 14372 H 1439.16 -0.669443 -0.0456828 0
M  V30 14373 H 1441.71 -1.98149 0.505675 0
M  V30 14374 H 1439.86 -3.63091 -1.35068 0
M  V30 14375 H 1440.28 -5.24234 0.167107 0
M  V30 14376 H 1441.75 -5.30022 -1.5421 0
M  V30 14377 H 1442.23 -3.76449 -2.26236 0
M  V30 14378 H 1442.83 -4.20323 -0.648738 0
M  V30 14379 N 1441.15 -0.0802183 -1.57396 0
M  V30 14380 C 1442.56 0.451183 -1.81166 0
M  V30 14381 C 1442.91 1.69112 -0.994764 0
M  V30 14382 O 1442.03 2.15281 -0.219739 0
M  V30 14383 C 1442.63 0.825324 -3.28594 0
M  V30 14384 C 1441.19 1.30154 -3.53181 0
M  V30 14385 C 1440.34 0.290846 -2.75771 0
M  V30 14386 H 1443.29 -0.305829 -1.55725 0
M  V30 14387 H 1443.31 1.68608 -3.41104 0
M  V30 14388 H 1442.82 -0.0773119 -3.88023 0
M  V30 14389 H 1440.92 2.22239 -2.99066 0
M  V30 14390 H 1441.03 1.27365 -4.6186 0
M  V30 14391 H 1439.4 0.769894 -2.42785 0
M  V30 14392 H 1440.18 -0.604209 -3.37941 0
M  V30 14393 N 1442.63 1.56409 0.193394 0
M  V30 14394 C 1443.54 1.97886 1.26009 0
M  V30 14395 C 1444.55 0.886786 1.49707 0
M  V30 14396 O 1445.73 1.19267 1.62288 0
M  V30 14397 C 1442.79 2.31145 2.58404 0
M  V30 14398 C 1441.85 3.54069 2.42763 0
M  V30 14399 C 1441.09 3.85732 3.68845 0
M  V30 14400 O 1441.31 3.18662 4.73086 0
M  V30 14401 O 1440.24 4.79155 3.64272 0
M  V30 14402 H 1444.07 2.88849 0.938087 0
M  V30 14403 H 1441.65 1.43987 0.398528 0
M  V30 14404 H 1443.54 2.53606 3.36544 0
M  V30 14405 H 1442.21 1.4335 2.90228 0
M  V30 14406 H 1441.12 3.36854 1.62728 0
M  V30 14407 H 1442.45 4.42335 2.15871 0
M  V30 14408 N 1444.1 -0.461169 1.50702 0
M  V30 14409 C 1445.33 -1.23375 1.65717 0
M  V30 14410 C 1445.74 -1.86047 0.343992 0
M  V30 14411 O 1445.08 -1.70447 -0.68508 0
M  V30 14412 C 1445.15 -2.3758 2.69808 0
M  V30 14413 C 1444.81 -1.95467 4.13088 0
M  V30 14414 C 1445.81 -1.47154 4.9864 0
M  V30 14415 C 1443.49 -2.03885 4.5906 0
M  V30 14416 C 1445.49 -1.07815 6.28215 0
M  V30 14417 C 1443.17 -1.64157 5.88639 0
M  V30 14418 C 1444.17 -1.16201 6.73043 0
M  V30 14419 O 1443.86 -0.770282 8.00201 0
M  V30 14420 H 1443.59 -0.378885 0.559841 0
M  V30 14421 H 1446.15 -0.555712 1.9774 0
M  V30 14422 H 1444.38 -3.08586 2.33049 0
M  V30 14423 H 1446.06 -2.99517 2.73942 0
M  V30 14424 H 1446.83 -1.40064 4.64335 0
M  V30 14425 H 1442.71 -2.40159 3.93503 0
M  V30 14426 H 1446.25 -0.703139 6.94047 0
M  V30 14427 H 1442.15 -1.70909 6.22463 0
M  V30 14428 H 1442.92 -0.898254 8.13556 0
M  V30 14429 N 1445.58 -1.40446 -0.715026 0
M  V30 14430 C 1446.81 -1.41864 -1.50193 0
M  V30 14431 C 1447.22 -0.0168144 -1.89193 0
M  V30 14432 O 1446.56 0.969732 -1.56019 0
M  V30 14433 C 1446.62 -2.24619 -2.80689 0
M  V30 14434 C 1446.29 -3.73026 -2.64009 0
M  V30 14435 C 1447.29 -4.65648 -2.31232 0
M  V30 14436 C 1444.97 -4.16847 -2.80256 0
M  V30 14437 C 1446.96 -6.00076 -2.14912 0
M  V30 14438 C 1444.65 -5.51346 -2.63554 0
M  V30 14439 C 1445.65 -6.42776 -2.3093 0
M  V30 14440 O 1445.34 -7.74795 -2.14355 0
M  V30 14441 H 1445.07 -0.485821 -0.470058 0
M  V30 14442 H 1447.62 -1.85138 -0.88955 0
M  V30 14443 H 1445.85 -1.76126 -3.44262 0
M  V30 14444 H 1447.54 -2.17972 -3.42408 0
M  V30 14445 H 1448.31 -4.33087 -2.18312 0
M  V30 14446 H 1444.19 -3.46001 -3.04637 0
M  V30 14447 H 1447.73 -6.71405 -1.8937 0
M  V30 14448 H 1443.63 -5.83491 -2.76058 0
M  V30 14449 H 1444.4 -7.85734 -2.2927 0
M  V30 14450 N 1447.06 0.947303 -1.25952 0
M  V30 14451 C 1448.47 1.50755 -1.10136 0
M  V30 14452 C 1448.82 1.93566 0.320437 0
M  V30 14453 O 1447.95 1.79326 1.21125 0
M  V30 14454 C 1448.54 2.7397 -1.99313 0
M  V30 14455 C 1447.1 3.26283 -1.8766 0
M  V30 14456 C 1446.25 1.99088 -1.93027 0
M  V30 14457 H 1449.2 0.763427 -1.39131 0
M  V30 14458 H 1449.22 3.48057 -1.53742 0
M  V30 14459 H 1448.73 2.42781 -3.02785 0
M  V30 14460 H 1446.83 3.62277 -0.870992 0
M  V30 14461 H 1446.95 3.93803 -2.72866 0
M  V30 14462 H 1445.31 2.14714 -1.37003 0
M  V30 14463 H 1446.09 1.70237 -2.98118 0
M  V30 14464 N 1448.54 1.07657 1.15099 0
M  V30 14465 C 1449.49 0.694043 2.22004 0
M  V30 14466 C 1450.48 -0.296607 1.66783 0
M  V30 14467 O 1451.69 -0.159989 1.79288 0
M  V30 14468 H 1448.06 0.206374 0.723128 0
M  V30 14469 H 1450.03 1.60523 2.51545 0
M  V30 14470 C 1448.78 0.111245 3.47522 0
M  V30 14471 H 1448.1 0.864677 3.90338 0
M  V30 14472 H 1449.54 -0.118705 4.23834 0
M  V30 14473 C 1448 -1.14889 3.16705 0
M  V30 14474 O 1448.53 -2.2349 3.33789 0
M  V30 14475 N 1446.74 -1.05627 2.70724 0
M  V30 14476 H 1446.29 -0.172463 2.57022 0
M  V30 14477 H 1446.24 -1.9002 2.50479 0
M  V30 14478 N 1450.02 -1.31994 0.861122 0
M  V30 14479 C 1450.98 -2.27019 0.315421 0
M  V30 14480 C 1451.98 -1.51864 -0.528575 0
M  V30 14481 O 1453.17 -1.70867 -0.339154 0
M  V30 14482 C 1450.3 -3.36384 -0.553021 0
M  V30 14483 H 1451.49 -2.768 1.1542 0
M  V30 14484 H 1449.05 -1.42776 0.635982 0
M  V30 14485 H 1449.78 -2.91882 -1.41335 0
M  V30 14486 H 1449.57 -3.92067 0.0511919 0
M  V30 14487 H 1451.06 -4.07172 -0.927392 0
M  V30 14488 N 1451.49 -0.619688 -1.44906 0
M  V30 14489 C 1452.74 -0.119397 -2.01747 0
M  V30 14490 C 1453.06 1.25904 -1.48907 0
M  V30 14491 O 1452.33 1.83417 -0.688104 0
M  V30 14492 H 1450.91 -0.0411482 -0.745866 0
M  V30 14493 H 1453.58 -0.803813 -1.77552 0
M  V30 14494 H 1452.67 -0.078368 -3.12002 0
M  V30 14495 N 1452.97 1.53444 -0.359552 0
M  V30 14496 C 1453.9 2.28475 0.4818 0
M  V30 14497 C 1454.88 1.30664 1.08908 0
M  V30 14498 O 1456.07 1.59527 1.10746 0
M  V30 14499 C 1453.2 3.06951 1.62477 0
M  V30 14500 C 1452.15 4.12399 1.14504 0
M  V30 14501 C 1451.48 4.78922 2.37777 0
M  V30 14502 C 1452.78 5.21775 0.234075 0
M  V30 14503 H 1454.47 2.99053 -0.144162 0
M  V30 14504 H 1452.02 1.43826 -0.0707746 0
M  V30 14505 H 1453.97 3.58186 2.21993 0
M  V30 14506 H 1452.7 2.34053 2.27787 0
M  V30 14507 H 1451.35 3.62101 0.572589 0
M  V30 14508 H 1451 4.02602 3.0153 0
M  V30 14509 H 1450.7 5.50175 2.06353 0
M  V30 14510 H 1452.23 5.32948 2.97991 0
M  V30 14511 H 1453.64 5.68549 0.736548 0
M  V30 14512 H 1452.04 6.00099 0.0109887 0
M  V30 14513 H 1453.11 4.79443 -0.725435 0
M  V30 14514 N 1454.45 0.0885642 1.57351 0
M  V30 14515 C 1455.7 -0.57633 1.93291 0
M  V30 14516 C 1456.01 -1.69743 0.971934 0
M  V30 14517 O 1457.22 -2.42304 1.22479 0
M  V30 14518 C 1455.67 -1.07655 3.43422 0
M  V30 14519 C 1455.28 0.0144488 4.47998 0
M  V30 14520 C 1457.03 -1.71455 3.88334 0
M  V30 14521 C 1454.93 -0.500758 5.89276 0
M  V30 14522 H 1453.86 -0.219055 0.721478 0
M  V30 14523 H 1456.51 0.163511 1.8277 0
M  V30 14524 H 1454.9 -1.86988 3.49072 0
M  V30 14525 H 1456.07 0.789696 4.53983 0
M  V30 14526 H 1454.39 0.557237 4.12655 0
M  V30 14527 H 1456.98 -2.11063 4.91281 0
M  V30 14528 H 1457.33 -2.58116 3.26621 0
M  V30 14529 H 1457.86 -0.987159 3.85357 0
M  V30 14530 H 1454.6 0.329088 6.54673 0
M  V30 14531 H 1454.12 -1.24315 5.86776 0
M  V30 14532 H 1455.8 -0.971821 6.3966 0
M  V30 14533 N 1455.93 -1.56509 -0.185096 0
M  V30 14534 C 1456.86 -1.90414 -1.25768 0
M  V30 14535 C 1457.84 -0.765349 -1.43461 0
M  V30 14536 O 1459.02 -1.01733 -1.5869 0
M  V30 14537 C 1456.15 -2.14307 -2.62279 0
M  V30 14538 C 1455.2 -3.37005 -2.61399 0
M  V30 14539 S 1456.03 -4.91816 -2.11843 0
M  V30 14540 C 1457.19 -5.18787 -3.50158 0
M  V30 14541 H 1457.42 -2.81092 -0.968212 0
M  V30 14542 H 1454.95 -1.49418 -0.389046 0
M  V30 14543 H 1456.91 -2.28754 -3.40855 0
M  V30 14544 H 1455.57 -1.24361 -2.88432 0
M  V30 14545 H 1454.76 -3.5088 -3.618 0
M  V30 14546 H 1454.37 -3.21603 -1.90912 0
M  V30 14547 H 1456.66 -5.0992 -4.4608 0
M  V30 14548 H 1457.6 -6.20491 -3.41169 0
M  V30 14549 H 1458.01 -4.46394 -3.45533 0
M  V30 14550 N 1457.41 0.45317 -1.50944 0
M  V30 14551 C 1458.35 1.56953 -1.71664 0
M  V30 14552 C 1459.35 1.59064 -0.582673 0
M  V30 14553 O 1460.55 1.62998 -0.763651 0
M  V30 14554 H 1456.93 0.521147 -0.542135 0
M  V30 14555 H 1458.9 1.36645 -2.65275 0
M  V30 14556 C 1457.65 2.9475 -1.84438 0
M  V30 14557 H 1456.97 2.93852 -2.71093 0
M  V30 14558 H 1458.41 3.72271 -2.02954 0
M  V30 14559 C 1456.87 3.31509 -0.600281 0
M  V30 14560 O 1457.4 4.00906 0.252366 0
M  V30 14561 N 1455.61 2.8711 -0.449014 0
M  V30 14562 H 1455.15 2.30808 -1.14392 0
M  V30 14563 H 1455.11 3.12068 0.382199 0
M  V30 14564 N 1458.88 1.40823 0.707568 0
M  V30 14565 C 1460.11 1.42659 1.49439 0
M  V30 14566 C 1460.52 0.0268475 1.89181 0
M  V30 14567 O 1459.87 -0.961444 1.56531 0
M  V30 14568 C 1459.93 2.26104 2.79494 0
M  V30 14569 C 1459.59 3.7442 2.62027 0
M  V30 14570 C 1460.59 4.66867 2.28759 0
M  V30 14571 C 1458.27 4.18328 2.78042 0
M  V30 14572 C 1460.27 6.01208 2.11727 0
M  V30 14573 C 1457.95 5.52736 2.60627 0
M  V30 14574 C 1458.95 6.43991 2.27518 0
M  V30 14575 O 1458.64 7.75921 2.10243 0
M  V30 14576 H 1458.37 0.488307 0.467475 0
M  V30 14577 H 1460.93 1.85607 0.879719 0
M  V30 14578 H 1459.16 1.77949 3.43323 0
M  V30 14579 H 1460.85 2.19785 3.41247 0
M  V30 14580 H 1461.61 4.34239 2.16012 0
M  V30 14581 H 1457.49 3.47612 3.02798 0
M  V30 14582 H 1461.03 6.724 1.85807 0
M  V30 14583 H 1456.93 5.84947 2.7296 0
M  V30 14584 H 1457.7 7.86938 2.251 0
M  V30 14585 N 1460.36 -0.94061 1.26453 0
M  V30 14586 C 1461.6 -1.70157 1.13252 0
M  V30 14587 C 1461.97 -1.89337 -0.318684 0
M  V30 14588 O 1463.17 -2.62625 -0.57283 0
M  V30 14589 C 1461.44 -3.03896 1.88101 0
M  V30 14590 S 1463 -3.95069 1.9096 0
M  V30 14591 H 1459.82 -0.584699 0.404534 0
M  V30 14592 H 1462.42 -1.12084 1.6018 0
M  V30 14593 H 1461.12 -2.87617 2.92753 0
M  V30 14594 H 1460.65 -3.67026 1.41616 0
M  V30 14595 H 1462.67 -4.86086 0.996721 0
M  V30 14596 N 1461.84 -1.08266 -1.14527 0
M  V30 14597 C 1463.26 -0.810001 -1.37518 0
M  V30 14598 C 1463.46 0.581399 -1.9293 0
M  V30 14599 O 1462.51 1.33846 -2.14107 0
M  V30 14600 C 1463.83 -1.89149 -2.33759 0
M  V30 14601 C 1465.37 -1.91733 -2.47401 0
M  V30 14602 C 1465.85 -2.98992 -3.4694 0
M  V30 14603 N 1467.34 -2.98155 -3.54483 0
M  V30 14604 C 1468.07 -3.77791 -4.31349 0
M  V30 14605 N 1467.57 -4.67302 -5.11469 0
M  V30 14606 N 1469.36 -3.66099 -4.2653 0
M  V30 14607 H 1461.51 -1.97988 -0.769048 0
M  V30 14608 H 1463.78 -0.859115 -0.40078 0
M  V30 14609 H 1463.48 -2.89175 -2.00176 0
M  V30 14610 H 1463.36 -1.75955 -3.33646 0
M  V30 14611 H 1465.74 -0.923531 -2.80276 0
M  V30 14612 H 1465.83 -2.09005 -1.4748 0
M  V30 14613 H 1465.47 -3.98578 -3.14799 0
M  V30 14614 H 1465.4 -2.78965 -4.46639 0
M  V30 14615 H 1467.89 -2.33277 -2.97305 0
M  V30 14616 H 1468.2 -5.24676 -5.67393 0
M  V30 14617 H 1466.55 -4.71345 -5.10743 0
M  V30 14618 H 1469.74 -2.95539 -3.63008 0
M  V30 14619 H 1469.91 -4.28402 -4.86185 0
M  V30 14620 N 1463.32 1.31536 -0.86811 0
M  V30 14621 C 1464.27 2.30504 -0.311581 0
M  V30 14622 C 1465.26 1.59439 0.572332 0
M  V30 14623 O 1466.47 1.74059 0.458639 0
M  V30 14624 H 1462.84 0.747508 -0.0820745 0
M  V30 14625 H 1464.81 2.74919 -1.16026 0
M  V30 14626 C 1463.56 3.44459 0.473622 0
M  V30 14627 H 1462.89 3.99313 -0.197259 0
M  V30 14628 H 1464.33 4.15829 0.828393 0
M  V30 14629 C 1462.78 2.92929 1.66416 0
M  V30 14630 O 1463.31 2.91543 2.76344 0
M  V30 14631 N 1461.52 2.49154 1.49568 0
M  V30 14632 H 1461.07 2.50481 0.601408 0
M  V30 14633 H 1461.03 2.15032 2.29366 0
M  V30 14634 N 1464.8 0.627364 1.44575 0
M  V30 14635 C 1466.21 0.213149 1.85479 0
M  V30 14636 C 1466.56 -1.23458 1.52488 0
M  V30 14637 O 1465.68 -1.93885 0.961115 0
M  V30 14638 C 1466.28 0.380063 3.36661 0
M  V30 14639 C 1464.84 0.020385 3.76394 0
M  V30 14640 C 1463.99 0.695225 2.68444 0
M  V30 14641 H 1466.94 0.832771 1.35095 0
M  V30 14642 H 1466.96 -0.382078 3.78577 0
M  V30 14643 H 1466.47 1.43383 3.60642 0
M  V30 14644 H 1464.57 -1.03179 3.58029 0
M  V30 14645 H 1464.68 0.42782 4.77186 0
M  V30 14646 H 1463.05 0.130898 2.54363 0
M  V30 14647 H 1463.83 1.75151 2.95257 0
M  V30 14648 N 1466.28 -1.53251 0.367684 0
M  V30 14649 C 1467.55 -1.93617 -0.277842 0
M  V30 14650 C 1467.93 -1.3014 -1.66213 0
M  V30 14651 O 1467.28 -0.461277 -2.23796 0
M  V30 14652 C 1467.49 -3.47475 -0.325937 0
M  V30 14653 C 1468.84 -4.2082 -0.565276 0
M  V30 14654 O 1469.86 -3.53866 -0.407057 0
M  V30 14655 O 1468.72 -5.39474 -0.873522 0
M  V30 14656 H 1465.82 -0.80993 -0.167158 0
M  V30 14657 H 1468.36 -1.64405 0.420621 0
M  V30 14658 H 1467.13 -3.85955 0.644542 0
M  V30 14659 H 1466.76 -3.82926 -1.07021 0
M  V30 14660 N 1467.75 -0.0969077 -1.57302 0
M  V30 14661 C 1468.72 0.846895 -2.1298 0
M  V30 14662 C 1469.72 1.20962 -1.05947 0
M  V30 14663 O 1470.91 1.13876 -1.31826 0
M  V30 14664 C 1468.04 2.14215 -2.65188 0
M  V30 14665 H 1469.23 0.363398 -2.9769 0
M  V30 14666 H 1466.78 0.152107 -1.55558 0
M  V30 14667 H 1467.52 2.67046 -1.84002 0
M  V30 14668 H 1467.3 1.89176 -3.43445 0
M  V30 14669 H 1468.79 2.81728 -3.08252 0
M  V30 14670 N 1469.23 1.56605 0.176793 0
M  V30 14671 C 1470.48 1.81952 0.895627 0
M  V30 14672 C 1470.81 0.673893 1.82133 0
M  V30 14673 O 1470.09 -0.324494 1.91774 0
M  V30 14674 C 1470.37 3.17658 1.69604 0
M  V30 14675 C 1470.22 4.4274 0.793834 0
M  V30 14676 C 1471.54 3.50246 2.66488 0
M  V30 14677 H 1468.66 0.661884 0.324159 0
M  V30 14678 H 1471.3 1.89307 0.162092 0
M  V30 14679 H 1469.45 3.11518 2.3214 0
M  V30 14680 H 1471.12 4.60942 0.181775 0
M  V30 14681 H 1469.37 4.33681 0.101566 0
M  V30 14682 H 1470.04 5.34231 1.38927 0
M  V30 14683 H 1472.51 3.56804 2.1408 0
M  V30 14684 H 1471.39 4.46286 3.19562 0
M  V30 14685 H 1471.65 2.7467 3.46423 0
M  V30 14686 N 1470.71 -0.445159 1.51182 0
M  V30 14687 C 1471.67 -1.52224 1.71349 0
M  V30 14688 C 1472.67 -1.49834 0.583632 0
M  V30 14689 O 1473.86 -1.51995 0.85107 0
M  V30 14690 C 1470.99 -2.91789 1.76273 0
M  V30 14691 H 1472.19 -1.35649 2.67468 0
M  V30 14692 H 1469.74 -0.673312 1.41054 0
M  V30 14693 H 1470.48 -3.13777 0.819405 0
M  V30 14694 H 1470.26 -2.94928 2.58379 0
M  V30 14695 H 1471.75 -3.69938 1.93741 0
M  V30 14696 N 1472.19 -1.41197 -0.700089 0
M  V30 14697 C 1473.15 -1.42419 -1.79582 0
M  V30 14698 C 1474.15 -0.31551 -1.57674 0
M  V30 14699 O 1475.34 -0.575173 -1.64431 0
M  V30 14700 C 1472.47 -1.23114 -3.17893 0
M  V30 14701 H 1473.67 -2.39956 -1.79892 0
M  V30 14702 H 1471.22 -1.27273 -0.907271 0
M  V30 14703 H 1471.95 -0.263992 -3.23224 0
M  V30 14704 H 1471.74 -2.03437 -3.35195 0
M  V30 14705 H 1473.23 -1.26793 -3.97886 0
M  V30 14706 N 1473.67 0.933891 -1.2695 0
M  V30 14707 C 1475.08 1.49578 -1.11728 0
M  V30 14708 C 1475.43 1.93895 0.299889 0
M  V30 14709 O 1474.55 1.806 1.19216 0
M  V30 14710 C 1475.15 2.71841 -2.02208 0
M  V30 14711 C 1473.71 3.24274 -1.9111 0
M  V30 14712 C 1472.85 1.97029 -1.95128 0
M  V30 14713 H 1475.8 0.748628 -1.39933 0
M  V30 14714 H 1475.83 3.46407 -1.57425 0
M  V30 14715 H 1475.34 2.39556 -3.05343 0
M  V30 14716 H 1473.44 3.61333 -0.909367 0
M  V30 14717 H 1473.55 3.90887 -2.77027 0
M  V30 14718 H 1471.92 2.13249 -1.39273 0
M  V30 14719 H 1472.7 1.67066 -2.99907 0
M  V30 14720 N 1475.14 1.08871 1.13951 0
M  V30 14721 C 1476.37 0.841691 1.88677 0
M  V30 14722 C 1476.78 -0.610213 1.79089 0
M  V30 14723 O 1476.12 -1.4314 1.15138 0
M  V30 14724 C 1476.19 1.19077 3.39206 0
M  V30 14725 C 1475.85 2.64642 3.72577 0
M  V30 14726 C 1476.85 3.62892 3.72297 0
M  V30 14727 C 1474.53 3.00618 4.0241 0
M  V30 14728 C 1476.53 4.95148 4.01382 0
M  V30 14729 C 1474.21 4.33066 4.31158 0
M  V30 14730 C 1475.21 5.3014 4.30628 0
M  V30 14731 O 1474.9 6.60207 4.58675 0
M  V30 14732 H 1474.63 0.302896 0.604343 0
M  V30 14733 H 1477.19 1.4527 1.45209 0
M  V30 14734 H 1475.42 0.522784 3.8315 0
M  V30 14735 H 1477.1 0.923805 3.95248 0
M  V30 14736 H 1477.87 3.36442 3.4933 0
M  V30 14737 H 1473.75 2.25696 4.01973 0
M  V30 14738 H 1477.29 5.7091 4.00884 0
M  V30 14739 H 1473.19 4.59262 4.53595 0
M  V30 14740 H 1473.96 6.65593 4.7637 0
M  V30 14741 N 1476.62 -1.31073 0.875073 0
M  V30 14742 C 1477.86 -1.98313 0.495116 0
M  V30 14743 C 1478.23 -1.67629 -0.93619 0
M  V30 14744 O 1479.43 -2.28122 -1.42176 0
M  V30 14745 C 1477.7 -3.49424 0.750847 0
M  V30 14746 S 1479.26 -4.36259 0.471512 0
M  V30 14747 H 1476.07 -0.686614 0.184613 0
M  V30 14748 H 1478.68 -1.59378 1.1322 0
M  V30 14749 H 1477.38 -3.69246 1.79124 0
M  V30 14750 H 1476.91 -3.9327 0.100946 0
M  V30 14751 H 1478.93 -4.91322 -0.69407 0
M  V30 14752 N 1478.1 -0.635022 -1.4424 0
M  V30 14753 C 1479.33 -0.148045 -2.06069 0
M  V30 14754 C 1479.74 1.1842 -1.47558 0
M  V30 14755 O 1479.08 1.73817 -0.594425 0
M  V30 14756 C 1479.14 0.0369593 -3.59481 0
M  V30 14757 C 1478.81 -1.21773 -4.40478 0
M  V30 14758 C 1479.8 -2.14233 -4.73709 0
M  V30 14759 C 1477.49 -1.45423 -4.80788 0
M  V30 14760 C 1479.48 -3.2865 -5.46139 0
M  V30 14761 C 1477.17 -2.60136 -5.52967 0
M  V30 14762 C 1478.17 -3.51576 -5.85562 0
M  V30 14763 O 1477.86 -4.64289 -6.5627 0
M  V30 14764 H 1477.59 -0.0787231 -0.671401 0
M  V30 14765 H 1480.14 -0.870639 -1.86035 0
M  V30 14766 H 1478.37 0.814739 -3.7802 0
M  V30 14767 H 1480.06 0.478984 -4.03064 0
M  V30 14768 H 1480.83 -1.97196 -4.43101 0
M  V30 14769 H 1476.71 -0.751378 -4.54835 0
M  V30 14770 H 1480.25 -4.00043 -5.71499 0
M  V30 14771 H 1476.15 -2.77114 -5.82991 0
M  V30 14772 H 1476.92 -4.6332 -6.74742 0
M  V30 14773 N 1479.58 1.53054 -0.375806 0
M  V30 14774 C 1480.81 2.0582 0.211135 0
M  V30 14775 C 1481.22 1.24856 1.4162 0
M  V30 14776 O 1480.58 0.291786 1.80152 0
M  V30 14777 C 1480.63 3.56577 0.594573 0
M  V30 14778 O 1480.35 4.34472 -0.562607 0
M  V30 14779 C 1481.85 4.25639 1.23882 0
M  V30 14780 H 1479.07 0.670085 0.0350268 0
M  V30 14781 H 1481.62 1.9732 -0.537135 0
M  V30 14782 H 1479.77 3.65194 1.29275 0
M  V30 14783 H 1480.18 5.23902 -0.250487 0
M  V30 14784 H 1481.66 5.32408 1.45759 0
M  V30 14785 H 1482.14 3.80001 2.20218 0
M  V30 14786 H 1482.74 4.21302 0.581786 0
M  V30 14787 N 1481.06 0.105248 1.57248 0
M  V30 14788 C 1482.47 -0.251385 1.57608 0
M  V30 14789 C 1482.67 -1.677 1.11709 0
M  V30 14790 O 1481.73 -2.39552 0.798182 0
M  V30 14791 C 1483.04 -0.0305755 3.00684 0
M  V30 14792 C 1484.59 -0.0975409 3.12848 0
M  V30 14793 C 1485.06 0.0954024 4.57901 0
M  V30 14794 N 1486.56 0.040908 4.63182 0
M  V30 14795 C 1487.29 0.165298 5.73162 0
M  V30 14796 N 1486.79 0.345091 6.9194 0
M  V30 14797 N 1488.58 0.105847 5.62 0
M  V30 14798 H 1480.73 1.03658 1.85388 0
M  V30 14799 H 1482.99 0.407074 0.856151 0
M  V30 14800 H 1482.7 0.954461 3.38501 0
M  V30 14801 H 1482.57 -0.768477 3.69289 0
M  V30 14802 H 1484.96 -1.07309 2.74898 0
M  V30 14803 H 1485.04 0.672017 2.46815 0
M  V30 14804 H 1484.69 1.06786 4.96547 0
M  V30 14805 H 1484.62 -0.693974 5.22007 0
M  V30 14806 H 1487.11 -0.0951009 3.7778 0
M  V30 14807 H 1487.42 0.431243 7.71596 0
M  V30 14808 H 1485.76 0.38089 6.93955 0
M  V30 14809 H 1488.96 -0.0335544 4.68088 0
M  V30 14810 H 1489.13 0.206235 6.47672 0
M  V30 14811 N 1482.53 -1.56697 -0.168486 0
M  V30 14812 C 1483.81 -1.73032 -0.912097 0
M  V30 14813 C 1484.19 -0.667424 -2.00271 0
M  V30 14814 O 1483.54 0.317307 -2.26286 0
M  V30 14815 C 1483.75 -3.16334 -1.47424 0
M  V30 14816 C 1485.1 -3.77378 -1.94606 0
M  V30 14817 O 1486.12 -3.19629 -1.57212 0
M  V30 14818 O 1484.98 -4.78781 -2.63497 0
M  V30 14819 H 1482.07 -0.706713 -0.429518 0
M  V30 14820 H 1484.62 -1.68981 -0.156093 0
M  V30 14821 H 1483.39 -3.85179 -0.689421 0
M  V30 14822 H 1483.02 -3.24723 -2.29435 0
M  V30 14823 N 1484.01 0.437135 -1.51416 0
M  V30 14824 C 1485.42 1.01699 -1.5657 0
M  V30 14825 C 1485.77 1.92299 -0.389291 0
M  V30 14826 O 1484.9 2.10689 0.49389 0
M  V30 14827 C 1485.49 1.85119 -2.83754 0
M  V30 14828 C 1484.05 2.38154 -2.91478 0
M  V30 14829 C 1483.2 1.17374 -2.51234 0
M  V30 14830 H 1486.15 0.218399 -1.5719 0
M  V30 14831 H 1486.17 2.70572 -2.67528 0
M  V30 14832 H 1485.68 1.19153 -3.69357 0
M  V30 14833 H 1483.79 3.07575 -2.10306 0
M  V30 14834 H 1483.9 2.70937 -3.95133 0
M  V30 14835 H 1482.26 1.51913 -2.04437 0
M  V30 14836 H 1483.05 0.530176 -3.39181 0
M  V30 14837 N 1485.49 1.41566 0.692592 0
M  V30 14838 C 1486.74 1.40805 1.44978 0
M  V30 14839 C 1487.06 0.0191039 1.94991 0
M  V30 14840 O 1486.33 -0.939544 1.71899 0
M  V30 14841 H 1484.91 0.518293 0.537942 0
M  V30 14842 H 1487.57 1.76831 0.81956 0
M  V30 14843 H 1486.67 2.09706 2.31149 0
M  V30 14844 N 1486.97 -0.927146 1.27443 0
M  V30 14845 C 1488.21 -1.67738 1.13982 0
M  V30 14846 C 1488.55 -1.91653 -0.313511 0
M  V30 14847 O 1487.82 -1.50729 -1.22926 0
M  V30 14848 C 1488.11 -3.04357 1.92454 0
M  V30 14849 C 1487.96 -2.8768 3.45775 0
M  V30 14850 C 1489.28 -4.04696 1.72944 0
M  V30 14851 H 1486.4 -0.608749 0.415444 0
M  V30 14852 H 1489.04 -1.07587 1.56605 0
M  V30 14853 H 1487.19 -3.55702 1.56232 0
M  V30 14854 H 1488.86 -2.43449 3.9183 0
M  V30 14855 H 1487.1 -2.23011 3.72087 0
M  V30 14856 H 1487.77 -3.8464 3.95924 0
M  V30 14857 H 1490.25 -3.62364 2.04528 0
M  V30 14858 H 1489.13 -4.98276 2.30243 0
M  V30 14859 H 1489.39 -4.36878 0.677505 0
M  V30 14860 N 1488.45 -1.09474 -1.13372 0
M  V30 14861 C 1489.86 -0.824541 -1.36651 0
M  V30 14862 C 1490.06 0.560903 -1.93536 0
M  V30 14863 O 1489.12 1.31567 -2.15514 0
M  V30 14864 C 1490.43 -1.91618 -2.31739 0
M  V30 14865 C 1491.98 -1.94346 -2.45354 0
M  V30 14866 C 1492.45 -3.02655 -3.4375 0
M  V30 14867 N 1493.95 -3.01898 -3.513 0
M  V30 14868 C 1494.68 -3.82344 -4.27318 0
M  V30 14869 N 1494.18 -4.727 -5.06484 0
M  V30 14870 N 1495.97 -3.70602 -4.22623 0
M  V30 14871 H 1488.12 -1.98793 -0.748005 0
M  V30 14872 H 1490.38 -0.863318 -0.391646 0
M  V30 14873 H 1490.09 -2.91282 -1.97098 0
M  V30 14874 H 1489.96 -1.79484 -3.31761 0
M  V30 14875 H 1492.35 -0.953206 -2.79281 0
M  V30 14876 H 1492.43 -2.10558 -1.45255 0
M  V30 14877 H 1492.08 -4.01894 -3.10553 0
M  V30 14878 H 1492.01 -2.83687 -4.43655 0
M  V30 14879 H 1494.5 -2.36417 -2.94814 0
M  V30 14880 H 1494.81 -5.30665 -5.61796 0
M  V30 14881 H 1493.15 -4.76736 -5.05715 0
M  V30 14882 H 1496.35 -2.99372 -3.59853 0
M  V30 14883 H 1496.52 -4.33535 -4.81614 0
M  V30 14884 N 1489.92 1.30607 -0.882012 0
M  V30 14885 C 1491.17 1.96927 -0.509063 0
M  V30 14886 C 1491.53 1.6838 0.930903 0
M  V30 14887 O 1490.82 0.976464 1.64851 0
M  V30 14888 C 1491.01 3.50136 -0.716929 0
M  V30 14889 C 1490.84 3.93573 -2.17555 0
M  V30 14890 C 1489.61 4.19321 -2.81954 0
M  V30 14891 C 1491.81 4.06619 -3.14906 0
M  V30 14892 N 1489.79 4.49198 -4.18443 0
M  V30 14893 C 1491.16 4.40345 -4.36459 0
M  V30 14894 C 1493.22 3.89035 -3.10734 0
M  V30 14895 C 1491.92 4.58322 -5.54377 0
M  V30 14896 C 1493.95 4.08212 -4.27922 0
M  V30 14897 C 1493.31 4.42281 -5.4824 0
M  V30 14898 H 1489.41 0.745681 -0.23555 0
M  V30 14899 H 1491.99 1.57898 -1.13913 0
M  V30 14900 H 1490.16 3.88226 -0.116371 0
M  V30 14901 H 1491.89 4.03502 -0.311174 0
M  V30 14902 H 1488.65 4.12412 -2.32838 0
M  V30 14903 H 1489.07 4.68276 -4.88924 0
M  V30 14904 H 1493.72 3.61774 -2.18813 0
M  V30 14905 H 1491.43 4.84426 -6.46805 0
M  V30 14906 H 1495.02 3.96079 -4.2616 0
M  V30 14907 H 1493.9 4.56815 -6.37408 0
M  V30 14908 N 1491.4 0.642663 1.43901 0
M  V30 14909 C 1492.31 -0.0562462 2.34533 0
M  V30 14910 C 1493.33 -0.823457 1.53281 0
M  V30 14911 O 1494.5 -0.773103 1.85971 0
M  V30 14912 C 1491.57 -1.01787 3.31422 0
M  V30 14913 C 1490.63 -0.248759 4.28579 0
M  V30 14914 C 1489.86 -1.16458 5.20839 0
M  V30 14915 O 1490.09 -2.40361 5.17284 0
M  V30 14916 O 1489.02 -0.642671 5.98459 0
M  V30 14917 H 1492.85 0.689476 2.9577 0
M  V30 14918 H 1490.43 0.402847 1.43866 0
M  V30 14919 H 1492.31 -1.5708 3.91029 0
M  V30 14920 H 1490.99 -1.744 2.72702 0
M  V30 14921 H 1489.9 0.347495 3.72483 0
M  V30 14922 H 1491.23 0.437589 4.90251 0
M  V30 14923 N 1492.88 -1.52852 0.383918 0
M  V30 14924 C 1494.11 -2.0563 -0.199926 0
M  V30 14925 C 1494.52 -1.25589 -1.41506 0
M  V30 14926 O 1493.86 -0.294254 -1.81328 0
M  V30 14927 C 1493.92 -3.53761 -0.639796 0
M  V30 14928 C 1493.59 -4.54667 0.461143 0
M  V30 14929 C 1494.59 -5.02946 1.31685 0
M  V30 14930 C 1492.27 -4.98376 0.626633 0
M  V30 14931 C 1494.26 -5.93553 2.32322 0
M  V30 14932 C 1491.95 -5.88784 1.63635 0
M  V30 14933 C 1492.95 -6.36265 2.48306 0
M  V30 14934 O 1492.64 -7.24888 3.47553 0
M  V30 14935 H 1492.37 -0.675089 -0.0350831 0
M  V30 14936 H 1494.92 -1.98009 0.546042 0
M  V30 14937 H 1493.15 -3.58982 -1.43766 0
M  V30 14938 H 1494.84 -3.89307 -1.1487 0
M  V30 14939 H 1495.61 -4.69913 1.20028 0
M  V30 14940 H 1491.49 -4.60994 -0.0226873 0
M  V30 14941 H 1495.03 -6.30536 2.98447 0
M  V30 14942 H 1490.93 -6.21232 1.75332 0
M  V30 14943 H 1491.7 -7.42934 3.43498 0
M  V30 14944 N 1494.36 -0.113586 -1.5719 0
M  V30 14945 C 1495.6 0.548872 -1.96893 0
M  V30 14946 C 1495.96 1.64191 -0.99525 0
M  V30 14947 O 1497.16 2.36289 -1.28145 0
M  V30 14948 C 1495.44 1.07279 -3.40919 0
M  V30 14949 S 1496.99 1.74453 -4.02631 0
M  V30 14950 H 1493.81 0.178565 -0.688212 0
M  V30 14951 H 1496.41 -0.197382 -1.94501 0
M  V30 14952 H 1495.12 0.266019 -4.09537 0
M  V30 14953 H 1494.65 1.85444 -3.46949 0
M  V30 14954 H 1496.66 3.02998 -3.92946 0
M  V30 14955 N 1495.84 1.56784 0.160173 0
M  V30 14956 C 1496.79 1.98199 1.21737 0
M  V30 14957 C 1497.78 0.872381 1.4521 0
M  V30 14958 O 1498.99 1.05753 1.45658 0
M  V30 14959 H 1495.36 0.630742 0.409474 0
M  V30 14960 H 1497.33 2.86295 0.841289 0
M  V30 14961 C 1496.08 2.36748 2.54648 0
M  V30 14962 H 1495.4 3.21676 2.37413 0
M  V30 14963 H 1496.84 2.69561 3.27281 0
M  V30 14964 C 1495.3 1.2151 3.14224 0
M  V30 14965 O 1495.83 0.508739 3.98465 0
M  V30 14966 N 1494.04 0.982766 2.73478 0
M  V30 14967 H 1493.59 1.55893 2.05073 0
M  V30 14968 H 1493.54 0.213589 3.13674 0
M  V30 14969 N 1497.32 -0.429099 1.51646 0
M  V30 14970 C 1498.25 -1.52867 1.76505 0
M  V30 14971 C 1499.23 -1.58586 0.615178 0
M  V30 14972 O 1500.41 -1.74182 0.858742 0
M  V30 14973 C 1497.54 -2.90875 1.8976 0
M  V30 14974 C 1496.5 -3.00014 3.05247 0
M  V30 14975 C 1495.82 -4.40082 3.03696 0
M  V30 14976 C 1497.12 -2.73334 4.45068 0
M  V30 14977 H 1498.82 -1.32315 2.68576 0
M  V30 14978 H 1496.36 -0.635091 1.29238 0
M  V30 14979 H 1498.31 -3.67765 2.05734 0
M  V30 14980 H 1497.04 -3.12677 0.943442 0
M  V30 14981 H 1495.7 -2.25565 2.88991 0
M  V30 14982 H 1495.35 -4.58864 2.06042 0
M  V30 14983 H 1495.05 -4.47125 3.81252 0
M  V30 14984 H 1496.57 -5.18935 3.21774 0
M  V30 14985 H 1497.98 -3.39954 4.61632 0
M  V30 14986 H 1496.38 -2.91777 5.24391 0
M  V30 14987 H 1497.45 -1.68889 4.54538 0
M  V30 14988 N 1498.79 -1.41931 -0.685074 0
M  V30 14989 C 1500.02 -1.45229 -1.47364 0
M  V30 14990 C 1500.44 -0.060595 -1.88703 0
M  V30 14991 O 1499.79 0.92244 -1.57472 0
M  V30 14992 C 1499.84 -2.37033 -2.72942 0
M  V30 14993 O 1499.57 -3.70787 -2.33342 0
M  V30 14994 C 1501.07 -2.49244 -3.66596 0
M  V30 14995 H 1498.29 -0.494291 -0.453781 0
M  V30 14996 H 1500.83 -1.86333 -0.84263 0
M  V30 14997 H 1498.99 -1.9921 -3.32256 0
M  V30 14998 H 1499.4 -4.19853 -3.14362 0
M  V30 14999 H 1500.87 -3.17624 -4.51463 0
M  V30 15000 H 1501.35 -1.52703 -4.11799 0
M  V30 15001 H 1501.96 -2.87747 -3.1318 0
M  V30 15002 N 1500.27 0.920374 -1.27933 0
M  V30 15003 C 1501.2 2.02644 -1.07089 0
M  V30 15004 C 1502.22 1.62781 -0.024674 0
M  V30 15005 O 1503.41 1.76491 -0.267023 0
M  V30 15006 C 1500.51 3.33476 -0.603919 0
M  V30 15007 C 1499.68 4.01988 -1.72407 0
M  V30 15008 C 1498.74 5.11098 -1.25159 0
M  V30 15009 O 1497.76 5.3466 -1.95261 0
M  V30 15010 N 1498.97 5.80393 -0.111197 0
M  V30 15011 H 1501.73 2.21085 -2.0234 0
M  V30 15012 H 1499.29 1.09124 -1.19597 0
M  V30 15013 H 1501.28 4.03788 -0.271579 0
M  V30 15014 H 1499.85 3.11554 0.255557 0
M  V30 15015 H 1499.07 3.25312 -2.22633 0
M  V30 15016 H 1500.36 4.4451 -2.47566 0
M  V30 15017 H 1499.76 5.63713 0.473746 0
M  V30 15018 H 1498.32 6.51599 0.161912 0
M  V30 15019 N 1501.75 1.10074 1.1279 0
M  V30 15020 C 1502.99 0.850621 1.8586 0
M  V30 15021 C 1503.35 -0.612685 1.81962 0
M  V30 15022 O 1504.55 -0.979003 2.50338 0
M  V30 15023 C 1502.83 1.3793 3.29712 0
M  V30 15024 S 1504.38 1.26406 4.20199 0
M  V30 15025 H 1501.2 0.307475 0.641077 0
M  V30 15026 H 1503.8 1.40544 1.35895 0
M  V30 15027 H 1502.51 2.43841 3.30106 0
M  V30 15028 H 1502.04 0.820901 3.8474 0
M  V30 15029 H 1504.05 0.219313 4.95715 0
M  V30 15030 N 1503.23 -1.30138 0.888926 0
M  V30 15031 C 1504.45 -2.00679 0.523697 0
M  V30 15032 C 1504.88 -1.66167 -0.881479 0
M  V30 15033 O 1504.24 -0.880418 -1.58488 0
M  V30 15034 C 1504.28 -3.53535 0.710284 0
M  V30 15035 O 1503.39 -4.11689 -0.242066 0
M  V30 15036 H 1502.73 -0.631273 0.205888 0
M  V30 15037 H 1505.26 -1.65891 1.19756 0
M  V30 15038 H 1505.27 -4.03402 0.610794 0
M  V30 15039 H 1503.94 -3.77992 1.73478 0
M  V30 15040 H 1502.52 -3.72777 -0.0959393 0
M  V30 15041 N 1504.71 -0.650285 -1.43559 0
M  V30 15042 C 1505.98 -0.0925343 -1.95381 0
M  V30 15043 C 1506.36 1.38668 -1.59168 0
M  V30 15044 O 1505.71 2.11069 -0.875324 0
M  V30 15045 C 1505.92 -0.335657 -3.47382 0
M  V30 15046 C 1507.27 -0.239032 -4.23927 0
M  V30 15047 O 1508.29 -0.268056 -3.5519 0
M  V30 15048 O 1507.15 -0.160241 -5.46265 0
M  V30 15049 H 1504.25 0.0113084 -0.826923 0
M  V30 15050 H 1506.79 -0.723319 -1.53513 0
M  V30 15051 H 1505.56 -1.36132 -3.66857 0
M  V30 15052 H 1505.19 0.328339 -3.96242 0
M  V30 15053 N 1506.18 1.52647 -0.392018 0
M  V30 15054 C 1507.15 2.25135 0.429754 0
M  V30 15055 C 1508.15 1.26871 0.987946 0
M  V30 15056 O 1509.34 1.50947 0.86952 0
M  V30 15057 C 1506.47 3.00849 1.60321 0
M  V30 15058 H 1507.66 2.99199 -0.204918 0
M  V30 15059 H 1505.21 1.55634 -0.144188 0
M  V30 15060 H 1505.95 2.31092 2.27524 0
M  V30 15061 H 1505.73 3.72975 1.20964 0
M  V30 15062 H 1507.22 3.55879 2.18494 0
M  V30 15063 N 1507.66 0.121921 1.57128 0
M  V30 15064 C 1508.57 -0.840825 2.19014 0
M  V30 15065 C 1509.59 -1.29051 1.16712 0
M  V30 15066 O 1510.76 -1.35289 1.49194 0
M  V30 15067 C 1507.83 -2.07204 2.7797 0
M  V30 15068 C 1506.89 -1.67399 3.95318 0
M  V30 15069 C 1506.12 -2.84652 4.51452 0
M  V30 15070 O 1506.35 -4.00161 4.06482 0
M  V30 15071 O 1505.28 -2.61568 5.42094 0
M  V30 15072 H 1509.11 -0.344146 3.01744 0
M  V30 15073 H 1506.69 -0.103841 1.49039 0
M  V30 15074 H 1508.57 -2.79307 3.1554 0
M  V30 15075 H 1507.25 -2.55872 1.9827 0
M  V30 15076 H 1506.16 -0.92395 3.62511 0
M  V30 15077 H 1507.49 -1.2347 4.76462 0
M  V30 15078 N 1509.14 -1.56867 -0.151857 0
M  V30 15079 C 1510.39 -1.82721 -0.863575 0
M  V30 15080 C 1510.71 -0.702042 -1.81924 0
M  V30 15081 O 1509.98 0.27668 -1.93936 0
M  V30 15082 H 1508.56 -0.674088 -0.321893 0
M  V30 15083 H 1511.22 -1.94345 -0.14702 0
M  V30 15084 H 1510.32 -2.77476 -1.42876 0
M  V30 15085 N 1510.62 0.421051 -1.51871 0
M  V30 15086 C 1511.85 1.1911 -1.69175 0
M  V30 15087 C 1512.26 1.84599 -0.39606 0
M  V30 15088 O 1511.62 1.71395 0.626907 0
M  V30 15089 C 1511.67 2.26309 -2.81898 0
M  V30 15090 O 1511.39 1.63496 -4.06449 0
M  V30 15091 C 1512.89 3.16285 -3.10611 0
M  V30 15092 H 1510.11 0.358385 -0.567275 0
M  V30 15093 H 1512.66 0.496919 -1.98371 0
M  V30 15094 H 1510.81 2.91416 -2.55255 0
M  V30 15095 H 1511.22 2.3447 -4.69174 0
M  V30 15096 H 1512.7 3.87601 -3.93026 0
M  V30 15097 H 1513.18 3.77976 -2.23676 0
M  V30 15098 H 1513.78 2.5686 -3.38973 0
M  V30 15099 N 1512.1 1.42293 0.677538 0
M  V30 15100 C 1513.06 1.45258 1.77293 0
M  V30 15101 C 1514.06 0.340554 1.57152 0
M  V30 15102 O 1515.25 0.601259 1.63495 0
M  V30 15103 C 1512.38 1.28156 3.15894 0
M  V30 15104 H 1513.57 2.42787 1.76052 0
M  V30 15105 H 1511.13 1.287 0.886908 0
M  V30 15106 H 1511.86 0.315381 3.22763 0
M  V30 15107 H 1511.65 2.08744 3.31916 0
M  V30 15108 H 1513.14 1.33107 3.95818 0
M  V30 15109 N 1513.57 -0.913576 1.28419 0
M  V30 15110 C 1514.82 -1.66519 1.15755 0
M  V30 15111 C 1515.15 -1.91974 -0.293166 0
M  V30 15112 O 1514.43 -1.52025 -1.21321 0
M  V30 15113 C 1514.71 -3.02299 1.95672 0
M  V30 15114 C 1514.56 -2.83996 3.48807 0
M  V30 15115 C 1515.88 -4.02838 1.77226 0
M  V30 15116 H 1513 -0.604309 0.421877 0
M  V30 15117 H 1515.64 -1.05919 1.57737 0
M  V30 15118 H 1513.79 -3.54025 1.59995 0
M  V30 15119 H 1515.47 -2.39279 3.9439 0
M  V30 15120 H 1513.71 -2.19052 3.74431 0
M  V30 15121 H 1514.38 -3.80419 3.99982 0
M  V30 15122 H 1516.86 -3.60174 2.0836 0
M  V30 15123 H 1515.73 -4.95806 2.35515 0
M  V30 15124 H 1515.99 -4.36135 0.723804 0
M  V30 15125 N 1515.05 -1.1067 -1.12204 0
M  V30 15126 C 1516.02 -0.761145 -2.16193 0
M  V30 15127 C 1517.02 0.215599 -1.59348 0
M  V30 15128 O 1518.21 -0.00786723 -1.74198 0
M  V30 15129 C 1515.34 -0.127863 -3.4066 0
M  V30 15130 H 1516.53 -1.68225 -2.48275 0
M  V30 15131 H 1514.08 -0.907542 -1.27253 0
M  V30 15132 H 1514.82 0.803851 -3.14179 0
M  V30 15133 H 1514.6 -0.83085 -3.83196 0
M  V30 15134 H 1516.09 0.0980593 -4.17485 0
M  V30 15135 N 1516.53 1.29665 -0.895815 0
M  V30 15136 C 1517.94 1.77825 -0.568784 0
M  V30 15137 C 1518.29 1.73534 0.915443 0
M  V30 15138 O 1517.42 1.31885 1.71567 0
M  V30 15139 C 1518.01 3.22901 -1.0257 0
M  V30 15140 C 1516.57 3.68854 -0.749903 0
M  V30 15141 C 1515.72 2.49866 -1.20259 0
M  V30 15142 H 1518.67 1.16381 -1.07894 0
M  V30 15143 H 1518.69 3.788 -0.359312 0
M  V30 15144 H 1518.2 3.25991 -2.10597 0
M  V30 15145 H 1516.3 3.71241 0.317916 0
M  V30 15146 H 1516.42 4.59831 -1.34506 0
M  V30 15147 H 1514.78 2.46997 -0.621676 0
M  V30 15148 H 1515.56 2.55687 -2.29083 0
M  V30 15149 N 1518.01 0.657889 1.43212 0
M  V30 15150 C 1519.42 0.252443 1.84985 0
M  V30 15151 C 1519.77 -1.20196 1.55072 0
M  V30 15152 O 1518.9 -1.91803 1.00202 0
M  V30 15153 C 1519.49 0.451388 3.3578 0
M  V30 15154 C 1518.05 0.100219 3.76267 0
M  V30 15155 C 1517.2 0.752009 2.66908 0
M  V30 15156 H 1520.15 0.861239 1.33298 0
M  V30 15157 H 1520.17 -0.30169 3.79302 0
M  V30 15158 H 1519.68 1.51001 3.5752 0
M  V30 15159 H 1517.78 -0.955618 3.60137 0
M  V30 15160 H 1517.89 0.528942 4.76171 0
M  V30 15161 H 1516.26 0.184823 2.54029 0
M  V30 15162 H 1517.04 1.81375 2.91476 0
M  V30 15163 N 1519.49 -1.52437 0.400108 0
M  V30 15164 C 1520.71 -2.0613 -0.178364 0
M  V30 15165 C 1521.13 -1.27094 -1.39616 0
M  V30 15166 O 1520.49 -0.320409 -1.79665 0
M  V30 15167 C 1520.54 -3.57478 -0.53777 0
M  V30 15168 O 1520.26 -4.33522 0.631657 0
M  V30 15169 C 1521.76 -4.27556 -1.17094 0
M  V30 15170 H 1518.98 -0.670558 -0.0243619 0
M  V30 15171 H 1521.52 -1.9644 0.568459 0
M  V30 15172 H 1519.68 -3.67205 -1.23449 0
M  V30 15173 H 1520.09 -5.23437 0.333803 0
M  V30 15174 H 1521.57 -5.3466 -1.3727 0
M  V30 15175 H 1522.04 -3.83456 -2.14145 0
M  V30 15176 H 1522.65 -4.22174 -0.514687 0
M  V30 15177 N 1520.96 -0.130252 -1.57061 0
M  V30 15178 C 1522.21 0.525784 -1.95866 0
M  V30 15179 C 1522.54 1.65607 -1.01429 0
M  V30 15180 O 1521.82 1.94426 -0.0535544 0
M  V30 15181 C 1522.1 1.04784 -3.44517 0
M  V30 15182 C 1521.95 -0.0797972 -4.49729 0
M  V30 15183 C 1523.27 1.9351 -3.95275 0
M  V30 15184 H 1520.39 0.189652 -0.71218 0
M  V30 15185 H 1523.03 -0.208091 -1.88857 0
M  V30 15186 H 1521.18 1.67324 -3.50621 0
M  V30 15187 H 1522.86 -0.715535 -4.55717 0
M  V30 15188 H 1521.1 -0.741358 -4.27418 0
M  V30 15189 H 1521.77 0.326915 -5.51031 0
M  V30 15190 H 1524.25 1.40825 -3.91545 0
M  V30 15191 H 1523.12 2.26952 -4.99784 0
M  V30 15192 H 1523.38 2.86583 -3.36634 0
M  V30 15193 N 1522.44 1.56945 0.143535 0
M  V30 15194 C 1523.67 1.87701 0.870401 0
M  V30 15195 C 1524.09 0.718833 1.7458 0
M  V30 15196 O 1523.44 -0.311286 1.79826 0
M  V30 15197 C 1523.49 3.1773 1.72424 0
M  V30 15198 O 1523.22 4.29086 0.884115 0
M  V30 15199 C 1524.72 3.62024 2.55839 0
M  V30 15200 H 1521.94 0.622083 0.251504 0
M  V30 15201 H 1524.48 2.04052 0.135285 0
M  V30 15202 H 1522.64 3.03122 2.41238 0
M  V30 15203 H 1523.05 5.0346 1.47065 0
M  V30 15204 H 1524.52 4.55834 3.11319 0
M  V30 15205 H 1525 2.87481 3.32041 0
M  V30 15206 H 1525.61 3.79338 1.9231 0
M  V30 15207 N 1523.92 -0.412991 1.52093 0
M  V30 15208 C 1525.33 -0.991955 1.58168 0
M  V30 15209 C 1525.68 -1.91655 0.419834 0
M  V30 15210 O 1524.81 -2.11448 -0.460308 0
M  V30 15211 C 1525.4 -1.80581 2.86663 0
M  V30 15212 C 1523.96 -2.33487 2.9523 0
M  V30 15213 C 1523.11 -1.13362 2.5307 0
M  V30 15214 H 1526.06 -0.193364 1.57518 0
M  V30 15215 H 1526.08 -2.66282 2.71798 0
M  V30 15216 H 1525.59 -1.13262 3.71205 0
M  V30 15217 H 1523.69 -3.0419 2.15173 0
M  V30 15218 H 1523.81 -2.64617 3.99393 0
M  V30 15219 H 1522.17 -1.48641 2.06828 0
M  V30 15220 H 1522.95 -0.476148 3.39982 0
M  V30 15221 N 1525.4 -1.4265 -0.669982 0
M  V30 15222 C 1526.65 -1.43589 -1.43213 0
M  V30 15223 C 1526.98 -0.0537998 -1.94125 0
M  V30 15224 O 1526.25 0.922727 -1.71219 0
M  V30 15225 C 1526.54 -2.46433 -2.62569 0
M  V30 15226 C 1526.39 -3.93851 -2.17258 0
M  V30 15227 C 1527.71 -2.46208 -3.64787 0
M  V30 15228 H 1524.83 -0.522859 -0.519411 0
M  V30 15229 H 1527.47 -1.74094 -0.760997 0
M  V30 15230 H 1525.62 -2.20551 -3.19828 0
M  V30 15231 H 1527.29 -4.30732 -1.6513 0
M  V30 15232 H 1525.53 -4.07487 -1.48786 0
M  V30 15233 H 1526.21 -4.61398 -3.03012 0
M  V30 15234 H 1528.68 -2.69237 -3.17255 0
M  V30 15235 H 1527.56 -3.20138 -4.45873 0
M  V30 15236 H 1527.82 -1.48979 -4.16242 0
M  V30 15237 N 1526.88 0.906753 -1.28902 0
M  V30 15238 C 1528.29 1.47175 -1.14876 0
M  V30 15239 C 1528.64 1.94487 0.258693 0
M  V30 15240 O 1527.76 1.83088 1.15359 0
M  V30 15241 C 1528.36 2.67491 -2.07928 0
M  V30 15242 C 1526.92 3.20148 -1.97946 0
M  V30 15243 C 1526.07 1.92846 -1.99263 0
M  V30 15244 H 1529.02 0.718777 -1.4149 0
M  V30 15245 H 1529.04 3.42989 -1.64738 0
M  V30 15246 H 1528.55 2.33025 -3.10356 0
M  V30 15247 H 1526.65 3.59322 -0.985806 0
M  V30 15248 H 1526.76 3.84923 -2.85256 0
M  V30 15249 H 1525.13 2.10247 -1.43765 0
M  V30 15250 H 1525.91 1.60666 -3.03383 0
M  V30 15251 N 1528.36 1.11264 1.11616 0
M  V30 15252 C 1529.58 0.88306 1.87661 0
M  V30 15253 C 1530.01 -0.561586 1.79521 0
M  V30 15254 O 1529.36 -1.3964 1.1563 0
M  V30 15255 C 1529.41 1.34698 3.34498 0
M  V30 15256 O 1528.52 0.517512 4.0914 0
M  V30 15257 H 1527.86 0.318233 0.582772 0
M  V30 15258 H 1530.39 1.48164 1.41098 0
M  V30 15259 H 1530.4 1.34068 3.85344 0
M  V30 15260 H 1529.07 2.39896 3.39739 0
M  V30 15261 H 1527.65 0.589751 3.68207 0
M  V30 15262 N 1529.83 -1.29188 0.902679 0
M  V30 15263 C 1530.76 -2.3006 0.399357 0
M  V30 15264 C 1531.74 -1.61724 -0.527199 0
M  V30 15265 O 1532.93 -1.89213 -0.437293 0
M  V30 15266 C 1530.06 -3.45309 -0.371331 0
M  V30 15267 C 1529.01 -4.25466 0.465068 0
M  V30 15268 C 1528.34 -5.32941 -0.433295 0
M  V30 15269 C 1529.64 -4.93287 1.71655 0
M  V30 15270 H 1531.33 -2.72409 1.24233 0
M  V30 15271 H 1528.88 -1.30958 0.598822 0
M  V30 15272 H 1530.83 -4.14955 -0.734207 0
M  V30 15273 H 1529.56 -3.01811 -1.24811 0
M  V30 15274 H 1528.22 -3.57532 0.810315 0
M  V30 15275 H 1527.86 -4.85688 -1.3083 0
M  V30 15276 H 1527.56 -5.87472 0.122657 0
M  V30 15277 H 1529.09 -6.05438 -0.792298 0
M  V30 15278 H 1530.5 -5.55353 1.42323 0
M  V30 15279 H 1528.9 -5.57763 2.21405 0
M  V30 15280 H 1529.97 -4.18406 2.45081 0
M  V30 15281 N 1531.31 -0.665475 -1.42861 0
M  V30 15282 C 1532.22 0.018927 -2.34592 0
M  V30 15283 C 1533.24 0.798967 -1.54572 0
M  V30 15284 O 1534.41 0.743419 -1.87177 0
M  V30 15285 C 1531.48 0.965013 -3.32999 0
M  V30 15286 C 1530.54 0.180544 -4.2892 0
M  V30 15287 C 1529.77 1.08157 -5.22626 0
M  V30 15288 O 1530 2.32101 -5.21043 0
M  V30 15289 O 1528.93 0.54738 -5.99406 0
M  V30 15290 H 1532.76 -0.736444 -2.94636 0
M  V30 15291 H 1530.34 -0.425684 -1.43207 0
M  V30 15292 H 1532.22 1.50839 -3.93479 0
M  V30 15293 H 1530.9 1.7004 -2.75442 0
M  V30 15294 H 1529.8 -0.40671 -3.71883 0
M  V30 15295 H 1531.14 -0.515529 -4.89493 0
M  V30 15296 N 1532.79 1.52222 -0.408187 0
M  V30 15297 C 1533.75 2.25578 0.405851 0
M  V30 15298 C 1534.75 1.27912 0.974434 0
M  V30 15299 O 1535.94 1.51861 0.853461 0
M  V30 15300 C 1533.07 3.02532 1.57122 0
M  V30 15301 H 1534.27 2.98965 -0.23664 0
M  V30 15302 H 1531.82 1.55472 -0.160687 0
M  V30 15303 H 1532.56 2.33492 2.2506 0
M  V30 15304 H 1532.34 3.74237 1.17001 0
M  V30 15305 H 1533.83 3.58177 2.14707 0
M  V30 15306 N 1534.27 0.138579 1.5699 0
M  V30 15307 C 1535.68 -0.383633 1.82716 0
M  V30 15308 C 1536.03 -1.65304 1.05684 0
M  V30 15309 O 1535.15 -2.14318 0.299488 0
M  V30 15310 C 1535.75 -0.7028 3.3143 0
M  V30 15311 C 1534.31 -1.16957 3.57768 0
M  V30 15312 C 1533.46 -0.188295 2.7666 0
M  V30 15313 H 1536.41 0.363415 1.54483 0
M  V30 15314 H 1536.43 -1.55832 3.47126 0
M  V30 15315 H 1535.94 0.221271 3.87469 0
M  V30 15316 H 1534.04 -2.10987 3.07108 0
M  V30 15317 H 1534.15 -1.10136 4.66269 0
M  V30 15318 H 1532.52 -0.679255 2.45475 0
M  V30 15319 H 1533.3 0.729218 3.35466 0
M  V30 15320 N 1535.75 -1.57019 -0.13521 0
M  V30 15321 C 1536.97 -1.88528 -0.864399 0
M  V30 15322 C 1537.4 -0.728852 -1.73405 0
M  V30 15323 O 1536.75 0.321196 -1.78432 0
M  V30 15324 C 1536.8 -3.18694 -1.6872 0
M  V30 15325 O 1535.91 -3.03458 -2.79262 0
M  V30 15326 H 1535.25 -0.61909 -0.24005 0
M  V30 15327 H 1537.78 -2.04233 -0.12248 0
M  V30 15328 H 1537.79 -3.51011 -2.0798 0
M  V30 15329 H 1536.46 -4.02462 -1.04868 0
M  V30 15330 H 1535.04 -2.82575 -2.43323 0
M  V30 15331 N 1537.22 0.404919 -1.52309 0
M  V30 15332 C 1538.13 1.51822 -1.7885 0
M  V30 15333 C 1539.15 1.60403 -0.674307 0
M  V30 15334 O 1540.33 1.77038 -0.960175 0
M  V30 15335 C 1537.39 2.87516 -1.9374 0
M  V30 15336 C 1536.45 2.88787 -3.17648 0
M  V30 15337 C 1535.69 4.18009 -3.31819 0
M  V30 15338 O 1535.91 5.12129 -2.51158 0
M  V30 15339 O 1534.84 4.26222 -4.24992 0
M  V30 15340 H 1538.67 1.32329 -2.73354 0
M  V30 15341 H 1536.25 0.591193 -1.37205 0
M  V30 15342 H 1538.14 3.6799 -2.05333 0
M  V30 15343 H 1536.81 3.07068 -1.02425 0
M  V30 15344 H 1535.72 2.07152 -3.11511 0
M  V30 15345 H 1537.05 2.74185 -4.08758 0
M  V30 15346 N 1538.7 1.43003 0.662408 0
M  V30 15347 C 1539.63 1.43407 1.78793 0
M  V30 15348 C 1540.65 0.331423 1.59391 0
M  V30 15349 O 1541.84 0.595291 1.68281 0
M  V30 15350 C 1538.94 1.22239 3.16087 0
M  V30 15351 C 1538.11 2.4517 3.6223 0
M  V30 15352 C 1537.17 2.19362 4.78296 0
M  V30 15353 O 1536.19 2.92651 4.88205 0
M  V30 15354 N 1537.4 1.20449 5.67866 0
M  V30 15355 H 1540.16 2.40426 1.78928 0
M  V30 15356 H 1537.72 1.38042 0.845936 0
M  V30 15357 H 1539.71 1.02871 3.91407 0
M  V30 15358 H 1538.28 0.336983 3.10778 0
M  V30 15359 H 1537.5 2.80024 2.77453 0
M  V30 15360 H 1538.79 3.27003 3.89803 0
M  V30 15361 H 1538.19 0.598577 5.62524 0
M  V30 15362 H 1536.75 1.07066 6.42946 0
M  V30 15363 N 1540.18 -0.899904 1.29381 0
M  V30 15364 C 1541.14 -1.98554 1.14494 0
M  V30 15365 C 1542.14 -1.60599 0.0804732 0
M  V30 15366 O 1543.33 -1.71096 0.327395 0
M  V30 15367 C 1540.47 -3.32529 0.750818 0
M  V30 15368 H 1541.66 -2.13189 2.10928 0
M  V30 15369 H 1539.21 -1.08438 1.12565 0
M  V30 15370 H 1539.95 -3.23595 -0.213668 0
M  V30 15371 H 1539.73 -3.61443 1.51992 0
M  V30 15372 H 1541.22 -4.12195 0.669709 0
M  V30 15373 N 1541.66 -1.11854 -1.11024 0
M  V30 15374 C 1543.07 -0.885443 -1.64368 0
M  V30 15375 C 1543.42 0.581455 -1.87386 0
M  V30 15376 O 1542.55 1.44452 -1.61129 0
M  V30 15377 C 1543.14 -1.60082 -2.98595 0
M  V30 15378 C 1541.7 -1.41403 -3.4883 0
M  V30 15379 C 1540.85 -1.64069 -2.23555 0
M  V30 15380 H 1543.8 -1.27418 -0.94606 0
M  V30 15381 H 1543.82 -1.04832 -3.65774 0
M  V30 15382 H 1543.33 -2.66842 -2.8181 0
M  V30 15383 H 1541.43 -0.368727 -3.70771 0
M  V30 15384 H 1541.54 -2.16603 -4.27341 0
M  V30 15385 H 1539.91 -1.06437 -2.31394 0
M  V30 15386 H 1540.69 -2.72112 -2.09308 0
M  V30 15387 N 1543.14 1.28707 -0.909517 0
M  V30 15388 C 1544.36 1.99283 -0.556211 0
M  V30 15389 C 1544.78 1.68 0.861475 0
M  V30 15390 O 1544.14 0.930421 1.57001 0
M  V30 15391 C 1544.19 3.5362 -0.75068 0
M  V30 15392 O 1543.91 3.83799 -2.11258 0
M  V30 15393 C 1545.41 4.41459 -0.403637 0
M  V30 15394 H 1542.63 0.636476 -0.212462 0
M  V30 15395 H 1545.17 1.64007 -1.22156 0
M  V30 15396 H 1543.33 3.87174 -0.132384 0
M  V30 15397 H 1543.74 4.78448 -2.14913 0
M  V30 15398 H 1545.22 5.48833 -0.590496 0
M  V30 15399 H 1545.69 4.34214 0.659897 0
M  V30 15400 H 1546.3 4.13394 -0.999292 0
M  V30 15401 N 1544.61 0.673042 1.42506 0
M  V30 15402 C 1545.52 -0.00648572 2.34599 0
M  V30 15403 C 1546.54 -0.790758 1.54994 0
M  V30 15404 O 1547.72 -0.733482 1.87569 0
M  V30 15405 C 1544.78 -0.94734 3.33506 0
M  V30 15406 C 1543.84 -0.157795 4.2901 0
M  V30 15407 C 1543.08 -1.05384 5.23192 0
M  V30 15408 O 1543.3 -2.29334 5.22266 0
M  V30 15409 O 1542.23 -0.515584 5.99688 0
M  V30 15410 H 1546.06 0.752059 2.94241 0
M  V30 15411 H 1543.64 0.433272 1.42979 0
M  V30 15412 H 1545.53 -1.4875 3.94273 0
M  V30 15413 H 1544.2 -1.68577 2.7634 0
M  V30 15414 H 1543.11 0.426426 3.71662 0
M  V30 15415 H 1544.44 0.54148 4.89212 0
M  V30 15416 N 1546.09 -1.52004 0.416254 0
M  V30 15417 C 1547.02 -2.24913 -0.441208 0
M  V30 15418 C 1548.04 -1.28139 -1.0042 0
M  V30 15419 O 1549.23 -1.54037 -0.901928 0
M  V30 15420 C 1546.33 -2.97298 -1.62688 0
M  V30 15421 C 1545.5 -4.20999 -1.18652 0
M  V30 15422 C 1544.56 -4.76146 -2.2399 0
M  V30 15423 O 1543.58 -5.38541 -1.84288 0
M  V30 15424 N 1544.79 -4.58338 -3.56239 0
M  V30 15425 H 1547.55 -2.99137 0.183576 0
M  V30 15426 H 1545.11 -1.60051 0.244008 0
M  V30 15427 H 1547.1 -3.31082 -2.32737 0
M  V30 15428 H 1545.67 -2.26216 -2.15744 0
M  V30 15429 H 1544.89 -3.92948 -0.313877 0
M  V30 15430 H 1546.18 -5.01318 -0.869365 0
M  V30 15431 H 1545.58 -4.08592 -3.91241 0
M  V30 15432 H 1544.14 -4.96542 -4.22244 0
M  V30 15433 N 1547.57 -0.146903 -1.56914 0
M  V30 15434 C 1548.99 0.20951 -1.58219 0
M  V30 15435 C 1549.19 1.64679 -1.16116 0
M  V30 15436 O 1548.24 2.37352 -0.861414 0
M  V30 15437 C 1549.56 -0.0491564 -3.0066 0
M  V30 15438 C 1551.1 0.0145605 -3.12997 0
M  V30 15439 C 1551.58 -0.216773 -4.57487 0
M  V30 15440 N 1553.07 -0.163698 -4.62911 0
M  V30 15441 C 1553.8 -0.317204 -5.72522 0
M  V30 15442 N 1553.3 -0.528426 -6.90782 0
M  V30 15443 N 1555.09 -0.254814 -5.61522 0
M  V30 15444 H 1547.24 -1.08536 -1.82575 0
M  V30 15445 H 1549.51 -0.42963 -0.845057 0
M  V30 15446 H 1549.21 -1.04387 -3.35851 0
M  V30 15447 H 1549.09 0.670296 -3.71197 0
M  V30 15448 H 1551.47 0.999829 -2.77646 0
M  V30 15449 H 1551.56 -0.737219 -2.44946 0
M  V30 15450 H 1551.2 -1.19914 -4.93541 0
M  V30 15451 H 1551.13 0.555329 -5.23664 0
M  V30 15452 H 1553.62 -0.00509433 -3.779 0
M  V30 15453 H 1553.93 -0.635667 -7.70181 0
M  V30 15454 H 1552.28 -0.564746 -6.92702 0
M  V30 15455 H 1555.47 -0.0905626 -4.68012 0
M  V30 15456 H 1555.64 -0.377881 -6.46897 0
M  V30 15457 N 1549.05 1.57088 0.126881 0
M  V30 15458 C 1550.46 1.73685 0.684865 0
M  V30 15459 C 1550.81 0.764401 1.80697 0
M  V30 15460 O 1549.94 -0.0644761 2.16304 0
M  V30 15461 C 1550.53 3.14933 1.24911 0
M  V30 15462 C 1549.09 3.33063 1.75346 0
M  V30 15463 C 1548.24 2.69575 0.649976 0
M  V30 15464 H 1551.19 1.58391 -0.0989715 0
M  V30 15465 H 1551.21 3.16047 2.11884 0
M  V30 15466 H 1550.72 3.85686 0.432204 0
M  V30 15467 H 1548.82 2.67339 2.59539 0
M  V30 15468 H 1548.93 4.41169 1.86833 0
M  V30 15469 H 1547.3 2.30592 1.08163 0
M  V30 15470 H 1548.08 3.42946 -0.15582 0
M  V30 15471 N 1550.53 -0.396836 1.52522 0
M  V30 15472 C 1551.77 -1.14037 1.66853 0
M  V30 15473 C 1552.1 -1.90706 0.406987 0
M  V30 15474 O 1551.37 -1.87165 -0.578443 0
M  V30 15475 H 1549.95 -0.423967 0.615029 0
M  V30 15476 H 1552.61 -0.451042 1.89609 0
M  V30 15477 H 1551.7 -1.84763 2.51533 0
M  V30 15478 N 1552.01 -1.43353 -0.654814 0
M  V30 15479 C 1553.25 -1.451 -1.41682 0
M  V30 15480 C 1553.58 -0.0743864 -1.94057 0
M  V30 15481 O 1552.86 0.904515 -1.72188 0
M  V30 15482 C 1553.14 -2.49204 -2.59941 0
M  V30 15483 C 1553 -3.96134 -2.13069 0
M  V30 15484 C 1554.31 -2.50064 -3.62155 0
M  V30 15485 H 1551.43 -0.528339 -0.513836 0
M  V30 15486 H 1554.08 -1.74892 -0.742489 0
M  V30 15487 H 1552.23 -2.2393 -3.1747 0
M  V30 15488 H 1553.9 -4.32459 -1.60552 0
M  V30 15489 H 1552.14 -4.09042 -1.44455 0
M  V30 15490 H 1552.81 -4.64585 -2.98101 0
M  V30 15491 H 1555.29 -2.72587 -3.14382 0
M  V30 15492 H 1554.16 -3.24849 -4.42452 0
M  V30 15493 H 1554.42 -1.53385 -4.14639 0
M  V30 15494 N 1553.48 0.89303 -1.29857 0
M  V30 15495 C 1554.42 2.00327 -1.11364 0
M  V30 15496 C 1555.43 1.62692 -0.0591968 0
M  V30 15497 O 1556.62 1.75885 -0.3044 0
M  V30 15498 C 1553.72 3.3212 -0.674518 0
M  V30 15499 C 1552.89 3.98241 -1.80895 0
M  V30 15500 C 1551.95 5.08329 -1.35972 0
M  V30 15501 O 1550.98 5.30398 -2.06558 0
M  V30 15502 N 1552.18 5.80027 -0.234282 0
M  V30 15503 H 1554.94 2.16743 -2.06984 0
M  V30 15504 H 1552.5 1.06563 -1.21885 0
M  V30 15505 H 1554.5 4.03121 -0.357167 0
M  V30 15506 H 1553.07 3.12026 0.189414 0
M  V30 15507 H 1552.29 3.20517 -2.29483 0
M  V30 15508 H 1553.57 4.39158 -2.56939 0
M  V30 15509 H 1552.97 5.64591 0.354068 0
M  V30 15510 H 1551.53 6.51796 0.0236623 0
M  V30 15511 N 1554.96 1.12442 1.10429 0
M  V30 15512 C 1555.87 0.805377 2.20343 0
M  V30 15513 C 1556.89 -0.205836 1.72778 0
M  V30 15514 O 1558.06 -0.0394195 2.01361 0
M  V30 15515 C 1555.13 0.264711 3.45688 0
M  V30 15516 C 1554.19 1.33586 4.07987 0
M  V30 15517 C 1553.42 0.8209 5.27349 0
M  V30 15518 O 1553.65 -0.345303 5.69354 0
M  V30 15519 O 1552.58 1.59052 5.80505 0
M  V30 15520 H 1556.41 1.7234 2.50065 0
M  V30 15521 H 1553.99 0.901084 1.19167 0
M  V30 15522 H 1555.87 -0.0319164 4.21388 0
M  V30 15523 H 1554.55 -0.625869 3.17592 0
M  V30 15524 H 1553.45 1.68566 3.33971 0
M  V30 15525 H 1554.79 2.20021 4.40286 0
M  V30 15526 N 1556.44 -1.28223 0.91633 0
M  V30 15527 C 1557.68 -1.96637 0.557957 0
M  V30 15528 C 1558.04 -1.70523 -0.882386 0
M  V30 15529 O 1559.24 -2.32529 -1.34846 0
M  V30 15530 C 1557.52 -3.46858 0.861633 0
M  V30 15531 S 1559.07 -4.34538 0.610066 0
M  V30 15532 H 1555.89 -0.680393 0.206364 0
M  V30 15533 H 1558.49 -1.55696 1.18233 0
M  V30 15534 H 1557.2 -3.63361 1.90781 0
M  V30 15535 H 1556.73 -3.9275 0.226011 0
M  V30 15536 H 1558.74 -4.93281 -0.537408 0
M  V30 15537 N 1557.92 -0.68059 -1.42147 0
M  V30 15538 C 1559.15 -0.213529 -2.05494 0
M  V30 15539 C 1559.56 1.13665 -1.51251 0
M  V30 15540 O 1558.9 1.71838 -0.649422 0
M  V30 15541 C 1558.96 -0.0774256 -3.59417 0
M  V30 15542 C 1558.62 -1.35724 -4.3638 0
M  V30 15543 C 1559.62 -2.29195 -4.66654 0
M  V30 15544 C 1557.31 -1.60645 -4.75918 0
M  V30 15545 C 1559.3 -3.45858 -5.35407 0
M  V30 15546 C 1556.99 -2.77597 -5.44411 0
M  V30 15547 C 1557.99 -3.70027 -5.74081 0
M  V30 15548 O 1557.67 -4.84933 -6.41167 0
M  V30 15549 H 1557.41 -0.100043 -0.668556 0
M  V30 15550 H 1559.96 -0.929384 -1.83171 0
M  V30 15551 H 1558.19 0.694062 -3.8042 0
M  V30 15552 H 1559.88 0.350509 -4.04384 0
M  V30 15553 H 1560.64 -2.11194 -4.36603 0
M  V30 15554 H 1556.52 -0.8957 -4.52215 0
M  V30 15555 H 1560.07 -4.18023 -5.58483 0
M  V30 15556 H 1555.96 -2.95521 -5.73879 0
M  V30 15557 H 1556.73 -4.84552 -6.5966 0
M  V30 15558 N 1559.4 1.51781 -0.424309 0
M  V30 15559 C 1560.35 2.24259 0.411339 0
M  V30 15560 C 1561.33 1.25976 1.00094 0
M  V30 15561 O 1562.52 1.51136 0.921238 0
M  V30 15562 C 1559.65 3.07858 1.51917 0
M  V30 15563 C 1558.74 4.13561 0.939599 0
M  V30 15564 N 1559.13 5.05723 0.08803 0
M  V30 15565 C 1557.43 4.29314 1.20855 0
M  V30 15566 C 1558.13 5.81221 -0.236076 0
M  V30 15567 N 1557.1 5.42291 0.376983 0
M  V30 15568 H 1560.9 2.92874 -0.2454 0
M  V30 15569 H 1558.42 1.60682 -0.235612 0
M  V30 15570 H 1560.42 3.58347 2.13056 0
M  V30 15571 H 1559.08 2.40784 2.17837 0
M  V30 15572 H 1560.09 5.17156 -0.277436 0
M  V30 15573 H 1556.76 3.73469 1.86621 0
M  V30 15574 H 1558.15 6.65457 -0.928241 0
M  V30 15575 N 1560.87 0.155222 1.56834 0
M  V30 15576 C 1562.12 -0.49285 1.95998 0
M  V30 15577 C 1562.44 -1.64857 1.0415 0
M  V30 15578 O 1561.71 -1.9562 0.104654 0
M  V30 15579 H 1560.29 -0.185063 0.723713 0
M  V30 15580 H 1562.95 0.232644 1.93507 0
M  V30 15581 H 1562.05 -0.863552 2.99915 0
M  V30 15582 N 1562.35 -1.57153 -0.118549 0
M  V30 15583 C 1563.3 -2.01357 -1.1644 0
M  V30 15584 C 1564.29 -0.910574 -1.42846 0
M  V30 15585 O 1565.5 -1.09578 -1.42803 0
M  V30 15586 H 1561.87 -0.641376 -0.392607 0
M  V30 15587 H 1563.85 -2.88425 -0.765087 0
M  V30 15588 C 1562.59 -2.43416 -2.48282 0
M  V30 15589 H 1561.92 -3.27857 -2.288 0
M  V30 15590 H 1563.36 -2.78143 -3.20019 0
M  V30 15591 C 1561.82 -1.29799 -3.10892 0
M  V30 15592 O 1562.35 -0.614207 -3.96977 0
M  V30 15593 N 1560.55 -1.05493 -2.70776 0
M  V30 15594 H 1560.1 -1.61276 -2.00868 0
M  V30 15595 H 1560.06 -0.296678 -3.12997 0
M  V30 15596 N 1563.83 0.388742 -1.5273 0
M  V30 15597 C 1565.08 1.13151 -1.67455 0
M  V30 15598 C 1565.4 1.90487 -0.417095 0
M  V30 15599 O 1564.67 1.87469 0.568509 0
M  V30 15600 H 1563.25 0.4207 -0.617269 0
M  V30 15601 H 1565.91 0.44098 -1.89846 0
M  V30 15602 H 1565.01 1.83427 -2.52509 0
M  V30 15603 N 1565.31 1.43698 0.647203 0
M  V30 15604 C 1566.24 1.45295 1.77262 0
M  V30 15605 C 1567.25 0.34831 1.5903 0
M  V30 15606 O 1568.44 0.613106 1.6764 0
M  V30 15607 C 1565.54 1.25584 3.14773 0
M  V30 15608 C 1564.71 2.48998 3.59609 0
M  V30 15609 C 1563.77 2.24423 4.75942 0
M  V30 15610 O 1562.8 2.97813 4.85073 0
M  V30 15611 N 1564 1.26465 5.66557 0
M  V30 15612 H 1566.77 2.42311 1.76368 0
M  V30 15613 H 1564.33 1.38931 0.831247 0
M  V30 15614 H 1566.32 1.07016 3.90294 0
M  V30 15615 H 1564.89 0.369927 3.10403 0
M  V30 15616 H 1564.11 2.82951 2.74467 0
M  V30 15617 H 1565.4 3.31119 3.86313 0
M  V30 15618 H 1564.8 0.658206 5.61858 0
M  V30 15619 H 1563.35 1.13879 6.41775 0
M  V30 15620 N 1566.79 -0.886131 1.30328 0
M  V30 15621 C 1568.01 -1.67625 1.22134 0
M  V30 15622 C 1568.44 -1.86893 -0.212712 0
M  V30 15623 O 1567.79 -1.39905 -1.1531 0
M  V30 15624 C 1567.84 -3.03068 1.95402 0
M  V30 15625 O 1566.95 -3.92022 1.28032 0
M  V30 15626 H 1566.29 -0.512246 0.422493 0
M  V30 15627 H 1568.82 -1.10602 1.72129 0
M  V30 15628 H 1568.83 -3.53119 2.04379 0
M  V30 15629 H 1567.5 -2.88363 2.99699 0
M  V30 15630 H 1566.08 -3.50461 1.27402 0
M  V30 15631 N 1568.26 -1.13026 -1.09832 0
M  V30 15632 C 1569.49 -0.911137 -1.85423 0
M  V30 15633 C 1569.9 0.543325 -1.81231 0
M  V30 15634 O 1569.25 1.38768 -1.20371 0
M  V30 15635 C 1569.31 -1.31584 -3.34553 0
M  V30 15636 C 1568.97 -2.78288 -3.62498 0
M  V30 15637 C 1569.97 -3.7646 -3.58572 0
M  V30 15638 C 1567.65 -3.15346 -3.90976 0
M  V30 15639 C 1569.65 -5.09703 -3.82729 0
M  V30 15640 C 1567.33 -4.4877 -4.14788 0
M  V30 15641 C 1568.33 -5.45758 -4.10655 0
M  V30 15642 O 1568.02 -6.76775 -4.33856 0
M  V30 15643 H 1567.75 -0.325117 -0.592684 0
M  V30 15644 H 1570.31 -1.50559 -1.39718 0
M  V30 15645 H 1568.54 -0.664628 -3.80946 0
M  V30 15646 H 1570.23 -1.06986 -3.91547 0
M  V30 15647 H 1570.99 -3.49175 -3.36603 0
M  V30 15648 H 1566.87 -2.40459 -3.9332 0
M  V30 15649 H 1570.41 -5.85395 -3.79418 0
M  V30 15650 H 1566.31 -4.75781 -4.36237 0
M  V30 15651 H 1567.08 -6.82815 -4.51338 0
M  V30 15652 N 1569.74 1.27735 -0.923117 0
M  V30 15653 C 1571.16 1.46952 -0.622666 0
M  V30 15654 C 1571.36 1.8364 0.829384 0
M  V30 15655 O 1570.41 1.94705 1.60767 0
M  V30 15656 C 1571.73 2.56545 -1.56861 0
M  V30 15657 C 1573.28 2.70408 -1.57634 0
M  V30 15658 C 1573.75 3.83154 -2.50913 0
M  V30 15659 N 1575.24 3.90521 -2.49093 0
M  V30 15660 C 1575.98 4.77167 -3.17962 0
M  V30 15661 N 1575.47 5.68334 -3.96193 0
M  V30 15662 N 1577.27 4.70857 -3.07002 0
M  V30 15663 H 1569.42 1.02205 -1.86193 0
M  V30 15664 H 1571.68 0.509982 -0.799138 0
M  V30 15665 H 1571.39 2.3637 -2.60427 0
M  V30 15666 H 1571.26 3.53839 -1.30681 0
M  V30 15667 H 1573.65 2.89967 -0.548005 0
M  V30 15668 H 1573.73 1.73615 -1.8786 0
M  V30 15669 H 1573.37 3.64349 -3.53853 0
M  V30 15670 H 1573.3 4.79365 -2.17984 0
M  V30 15671 H 1575.79 3.25329 -1.92274 0
M  V30 15672 H 1576.11 6.31298 -4.45738 0
M  V30 15673 H 1574.45 5.68144 -4.00297 0
M  V30 15674 H 1577.64 3.98629 -2.45382 0
M  V30 15675 H 1577.81 5.38166 -3.60945 0
M  V30 15676 N 1571.22 0.688118 1.41784 0
M  V30 15677 C 1572.47 0.215517 2.00948 0
M  V30 15678 C 1572.79 -1.18656 1.54744 0
M  V30 15679 O 1572.06 -1.79925 0.774831 0
M  V30 15680 H 1570.64 0.0766876 0.743053 0
M  V30 15681 H 1573.3 0.88761 1.73515 0
M  V30 15682 H 1572.4 0.227139 3.11272 0
M  V30 15683 N 1572.7 -1.51554 0.432352 0
M  V30 15684 C 1573.93 -2.06462 -0.1346 0
M  V30 15685 C 1574.34 -1.30027 -1.36889 0
M  V30 15686 O 1573.7 -0.358447 -1.78945 0
M  V30 15687 C 1573.75 -3.58538 -0.461822 0
M  V30 15688 O 1573.47 -4.32085 0.723471 0
M  V30 15689 C 1574.97 -4.29943 -1.07999 0
M  V30 15690 H 1572.19 -0.670923 -0.0101329 0
M  V30 15691 H 1574.74 -1.9519 0.609999 0
M  V30 15692 H 1572.89 -3.6974 -1.15632 0
M  V30 15693 H 1573.3 -5.22611 0.444757 0
M  V30 15694 H 1574.78 -5.37451 -1.25898 0
M  V30 15695 H 1575.26 -3.87912 -2.05963 0
M  V30 15696 H 1575.86 -4.23171 -0.425022 0
M  V30 15697 N 1574.18 -0.163538 -1.56749 0
M  V30 15698 C 1575.41 0.489178 -2.00725 0
M  V30 15699 C 1575.81 1.57869 -1.04279 0
M  V30 15700 O 1575.16 1.83668 -0.0344434 0
M  V30 15701 C 1575.22 1.13443 -3.41132 0
M  V30 15702 C 1574.88 0.187525 -4.56615 0
M  V30 15703 C 1575.88 -0.591169 -5.16528 0
M  V30 15704 C 1573.57 0.0856149 -5.02227 0
M  V30 15705 C 1575.56 -1.45905 -6.20476 0
M  V30 15706 C 1573.25 -0.785859 -6.06026 0
M  V30 15707 C 1574.24 -1.55678 -6.65021 0
M  V30 15708 O 1573.93 -2.41371 -7.66809 0
M  V30 15709 H 1573.66 0.130353 -0.663313 0
M  V30 15710 H 1576.22 -0.260065 -2.03747 0
M  V30 15711 H 1574.45 1.93165 -3.34999 0
M  V30 15712 H 1576.14 1.68856 -3.69111 0
M  V30 15713 H 1576.9 -0.522563 -4.82177 0
M  V30 15714 H 1572.78 0.675439 -4.56025 0
M  V30 15715 H 1576.33 -2.06125 -6.66452 0
M  V30 15716 H 1572.22 -0.855696 -6.39803 0
M  V30 15717 H 1572.99 -2.34801 -7.84099 0
M  V30 15718 N 1575.65 1.57214 0.110213 0
M  V30 15719 C 1576.88 1.8988 0.834297 0
M  V30 15720 C 1577.3 0.756347 1.72224 0
M  V30 15721 O 1576.66 -0.292768 1.78921 0
M  V30 15722 C 1576.71 3.21338 1.63629 0
M  V30 15723 O 1575.81 3.07862 2.74399 0
M  V30 15724 H 1575.16 0.62283 0.23017 0
M  V30 15725 H 1577.69 2.04402 0.0899726 0
M  V30 15726 H 1577.7 3.54275 2.02369 0
M  V30 15727 H 1576.37 4.04079 0.984521 0
M  V30 15728 H 1574.95 2.8641 2.38797 0
M  V30 15729 N 1577.13 -0.380637 1.52934 0
M  V30 15730 C 1578.36 -1.14583 1.72274 0
M  V30 15731 C 1578.78 -1.83484 0.444864 0
M  V30 15732 O 1578.13 -1.72997 -0.581245 0
M  V30 15733 C 1578.18 -2.18756 2.87799 0
M  V30 15734 O 1577.9 -1.52662 4.10641 0
M  V30 15735 C 1579.41 -3.07938 3.18887 0
M  V30 15736 H 1576.63 -0.343218 0.576578 0
M  V30 15737 H 1579.17 -0.444149 1.99619 0
M  V30 15738 H 1577.32 -2.84546 2.62892 0
M  V30 15739 H 1577.74 -2.21949 4.75225 0
M  V30 15740 H 1579.21 -3.77045 4.03164 0
M  V30 15741 H 1579.69 -3.71913 2.33618 0
M  V30 15742 H 1580.3 -2.47783 3.45664 0
M  V30 15743 N 1578.61 -1.44039 -0.639573 0
M  V30 15744 C 1579.84 -1.49844 -1.42669 0
M  V30 15745 C 1580.25 -0.120599 -1.88414 0
M  V30 15746 O 1579.61 0.871875 -1.60327 0
M  V30 15747 C 1579.66 -2.45597 -2.65263 0
M  V30 15748 O 1579.38 -3.78023 -2.21427 0
M  V30 15749 C 1580.88 -2.60781 -3.5848 0
M  V30 15750 H 1578.1 -0.508477 -0.437826 0
M  V30 15751 H 1580.65 -1.88919 -0.782923 0
M  V30 15752 H 1578.8 -2.09679 -3.2575 0
M  V30 15753 H 1579.22 -4.29642 -3.00846 0
M  V30 15754 H 1580.69 -3.31826 -4.4113 0
M  V30 15755 H 1581.17 -1.65727 -4.06732 0
M  V30 15756 H 1581.77 -2.97565 -3.03867 0
M  V30 15757 N 1580.09 0.879207 -1.30796 0
M  V30 15758 C 1581.33 1.63392 -1.20129 0
M  V30 15759 C 1581.67 1.92684 0.242164 0
M  V30 15760 O 1580.94 1.55188 1.17247 0
M  V30 15761 C 1581.23 2.97005 -2.03618 0
M  V30 15762 C 1581.08 2.74649 -3.56214 0
M  V30 15763 C 1582.4 3.97998 -1.87845 0
M  V30 15764 H 1579.52 0.592911 -0.437751 0
M  V30 15765 H 1582.16 1.017 -1.6049 0
M  V30 15766 H 1580.31 3.49659 -1.69326 0
M  V30 15767 H 1581.98 2.28738 -4.00595 0
M  V30 15768 H 1580.22 2.09048 -3.80107 0
M  V30 15769 H 1580.89 3.69681 -4.09927 0
M  V30 15770 H 1583.37 3.54523 -2.17836 0
M  V30 15771 H 1582.25 4.89388 -2.48578 0
M  V30 15772 H 1582.51 4.34062 -0.839183 0
M  V30 15773 N 1581.57 1.13606 1.09231 0
M  V30 15774 C 1582.8 0.922295 1.85206 0
M  V30 15775 C 1583.21 -0.528954 1.81239 0
M  V30 15776 O 1582.57 -1.36622 1.20999 0
M  V30 15777 C 1582.62 1.40453 3.331 0
M  V30 15778 O 1582.34 2.7989 3.37036 0
M  V30 15779 C 1583.84 1.22948 4.25909 0
M  V30 15780 H 1581.06 0.328757 0.584945 0
M  V30 15781 H 1583.6 1.50911 1.38007 0
M  V30 15782 H 1581.76 0.86066 3.77719 0
M  V30 15783 H 1582.17 3.01342 4.29294 0
M  V30 15784 H 1583.65 1.61562 5.27827 0
M  V30 15785 H 1584.12 0.171387 4.38865 0
M  V30 15786 H 1584.73 1.76147 3.87108 0
M  V30 15787 N 1583.05 -1.27244 0.929878 0
M  V30 15788 C 1584.29 -1.93886 0.570331 0
M  V30 15789 C 1584.61 -1.7342 -0.891656 0
M  V30 15790 O 1583.88 -1.0832 -1.63228 0
M  V30 15791 H 1582.46 -0.717476 0.207937 0
M  V30 15792 H 1585.13 -1.5491 1.18275 0
M  V30 15793 H 1584.22 -3.02236 0.778463 0
M  V30 15794 N 1584.52 -0.695628 -1.41417 0
M  V30 15795 C 1585.94 -0.367185 -1.55319 0
M  V30 15796 C 1586.14 1.12584 -1.67114 0
M  V30 15797 O 1585.2 1.91166 -1.64959 0
M  V30 15798 C 1586.51 -1.11576 -2.79233 0
M  V30 15799 C 1588.06 -1.10011 -2.9303 0
M  V30 15800 C 1588.53 -1.83044 -4.19832 0
M  V30 15801 N 1590.02 -1.80014 -4.26789 0
M  V30 15802 C 1590.76 -2.33362 -5.23765 0
M  V30 15803 N 1590.25 -2.95182 -6.26769 0
M  V30 15804 N 1592.05 -2.23618 -5.15705 0
M  V30 15805 H 1584.2 -1.66398 -1.32006 0
M  V30 15806 H 1586.46 -0.702205 -0.636877 0
M  V30 15807 H 1586.17 -2.1706 -2.76727 0
M  V30 15808 H 1586.04 -0.694385 -3.70753 0
M  V30 15809 H 1588.43 -0.0535436 -2.95051 0
M  V30 15810 H 1588.51 -1.56055 -2.02683 0
M  V30 15811 H 1588.15 -2.8768 -4.18572 0
M  V30 15812 H 1588.08 -1.34434 -5.09151 0
M  V30 15813 H 1590.57 -1.34942 -3.52986 0
M  V30 15814 H 1590.89 -3.33456 -6.97156 0
M  V30 15815 H 1589.23 -2.99259 -6.27271 0
M  V30 15816 H 1592.42 -1.74994 -4.3416 0
M  V30 15817 H 1592.6 -2.65497 -5.91113 0
M  V30 15818 N 1586 1.51322 -0.440383 0
M  V30 15819 C 1587.23 2.0653 0.123649 0
M  V30 15820 C 1587.64 1.30751 1.36197 0
M  V30 15821 O 1587 0.367932 1.78753 0
M  V30 15822 C 1587.05 3.58778 0.442802 0
M  V30 15823 O 1586.77 4.31695 -0.746375 0
M  V30 15824 C 1588.27 4.3051 1.05717 0
M  V30 15825 H 1585.49 0.670968 0.00657466 0
M  V30 15826 H 1588.04 1.94864 -0.620341 0
M  V30 15827 H 1586.19 3.70349 1.13669 0
M  V30 15828 H 1586.61 5.22368 -0.472466 0
M  V30 15829 H 1588.08 5.38111 1.23046 0
M  V30 15830 H 1588.56 3.88999 2.03903 0
M  V30 15831 H 1589.16 4.2339 0.402574 0
M  V30 15832 N 1587.48 0.171848 1.5666 0
M  V30 15833 C 1588.72 -0.475418 1.98794 0
M  V30 15834 C 1589.08 -1.60384 1.0555 0
M  V30 15835 O 1590.28 -2.3137 1.36827 0
M  V30 15836 C 1588.56 -0.945518 3.44666 0
M  V30 15837 S 1590.11 -1.59389 4.08828 0
M  V30 15838 H 1586.93 -0.1529 0.694365 0
M  V30 15839 H 1589.53 0.269434 1.93634 0
M  V30 15840 H 1588.24 -0.113839 4.10242 0
M  V30 15841 H 1587.77 -1.7244 3.53593 0
M  V30 15842 H 1589.78 -2.88205 4.03921 0
M  V30 15843 N 1588.96 -1.5727 -0.101874 0
M  V30 15844 C 1589.89 -1.98253 -1.15014 0
M  V30 15845 C 1590.9 -0.884147 -1.36699 0
M  V30 15846 O 1592.09 -1.16232 -1.35471 0
M  V30 15847 C 1589.19 -2.28043 -2.50698 0
M  V30 15848 C 1588.36 -3.59343 -2.49383 0
M  V30 15849 C 1587.42 -3.77147 -3.66943 0
M  V30 15850 O 1586.45 -4.49075 -3.49744 0
M  V30 15851 N 1587.65 -3.1721 -4.86167 0
M  V30 15852 H 1590.42 -2.88787 -0.801375 0
M  V30 15853 H 1587.98 -1.59264 -0.290941 0
M  V30 15854 H 1589.97 -2.37153 -3.27934 0
M  V30 15855 H 1588.54 -1.4355 -2.77691 0
M  V30 15856 H 1587.76 -3.61264 -1.57741 0
M  V30 15857 H 1589.05 -4.45612 -2.45576 0
M  V30 15858 H 1588.45 -2.58772 -5.03044 0
M  V30 15859 H 1587 -3.31816 -5.61018 0
M  V30 15860 N 1590.44 0.372521 -1.53134 0
M  V30 15861 C 1591.4 1.43875 -1.78417 0
M  V30 15862 C 1592.4 1.46879 -0.654455 0
M  V30 15863 O 1593.59 1.47761 -0.922619 0
M  V30 15864 C 1590.72 2.83046 -1.89994 0
M  V30 15865 H 1591.91 1.22733 -2.73636 0
M  V30 15866 H 1589.47 0.605247 -1.44106 0
M  V30 15867 H 1590.2 3.09511 -0.968179 0
M  V30 15868 H 1589.99 2.82265 -2.72156 0
M  V30 15869 H 1591.48 3.60273 -2.11171 0
M  V30 15870 N 1591.91 1.44376 0.631925 0
M  V30 15871 C 1593.16 1.48329 1.39176 0
M  V30 15872 C 1593.51 0.113879 1.92063 0
M  V30 15873 O 1592.81 -0.870764 1.7067 0
M  V30 15874 C 1593 2.47828 2.57519 0
M  V30 15875 C 1592.83 3.94309 2.16218 0
M  V30 15876 C 1591.6 4.62495 2.03534 0
M  V30 15877 C 1593.8 4.83546 1.75179 0
M  V30 15878 N 1591.78 5.93804 1.55788 0
M  V30 15879 C 1593.15 6.04293 1.38672 0
M  V30 15880 C 1595.21 4.70618 1.62553 0
M  V30 15881 C 1593.91 7.13546 0.908012 0
M  V30 15882 C 1595.94 5.79895 1.16086 0
M  V30 15883 C 1595.3 6.99782 0.805289 0
M  V30 15884 H 1591.4 0.597818 0.504121 0
M  V30 15885 H 1593.98 1.80697 0.725026 0
M  V30 15886 H 1592.15 2.17452 3.21822 0
M  V30 15887 H 1593.88 2.42082 3.24312 0
M  V30 15888 H 1590.64 4.17298 2.23963 0
M  V30 15889 H 1591.06 6.63562 1.34216 0
M  V30 15890 H 1595.7 3.78367 1.88675 0
M  V30 15891 H 1593.42 8.05607 0.634297 0
M  V30 15892 H 1597.01 5.71918 1.06776 0
M  V30 15893 H 1595.89 7.82901 0.451239 0
M  V30 15894 N 1593.39 -0.872258 1.31261 0
M  V30 15895 C 1594.62 -1.6632 1.23905 0
M  V30 15896 C 1595.04 -1.87109 -0.192878 0
M  V30 15897 O 1594.4 -1.4112 -1.1382 0
M  V30 15898 C 1594.45 -3.00979 1.98606 0
M  V30 15899 O 1593.55 -3.90642 1.32183 0
M  V30 15900 H 1592.89 -0.507736 0.427902 0
M  V30 15901 H 1595.42 -1.0877 1.73292 0
M  V30 15902 H 1595.43 -3.50931 2.08113 0
M  V30 15903 H 1594.11 -2.85168 3.02741 0
M  V30 15904 H 1592.68 -3.4909 1.31112 0
M  V30 15905 N 1594.87 -1.14184 -1.08627 0
M  V30 15906 C 1596.09 -0.932504 -1.85254 0
M  V30 15907 C 1596.52 0.513792 -1.80947 0
M  V30 15908 O 1595.88 1.36525 -1.19292 0
M  V30 15909 C 1595.93 -1.43519 -3.30809 0
M  V30 15910 O 1595.03 -0.625806 -4.07624 0
M  V30 15911 H 1594.37 -0.333573 -0.57413 0
M  V30 15912 H 1596.9 -1.51853 -1.3712 0
M  V30 15913 H 1596.91 -1.44238 -3.81654 0
M  V30 15914 H 1595.59 -2.48819 -3.3326 0
M  V30 15915 H 1594.16 -0.687168 -3.66514 0
M  V30 15916 N 1596.35 1.26749 -0.936613 0
M  V30 15917 C 1597.28 2.24895 -0.386956 0
M  V30 15918 C 1598.26 1.54004 0.521673 0
M  V30 15919 O 1599.44 1.82797 0.460158 0
M  V30 15920 C 1596.57 3.35771 0.44447 0
M  V30 15921 C 1595.62 4.24601 -0.401985 0
M  V30 15922 S 1596.45 5.03511 -1.82309 0
M  V30 15923 C 1597.61 6.17866 -0.999596 0
M  V30 15924 H 1597.84 2.71171 -1.21876 0
M  V30 15925 H 1595.37 1.35544 -0.739409 0
M  V30 15926 H 1597.33 4.00097 0.918284 0
M  V30 15927 H 1595.99 2.88117 1.2509 0
M  V30 15928 H 1595.18 5.03453 0.234819 0
M  V30 15929 H 1594.79 3.65116 -0.810309 0
M  V30 15930 H 1597.08 6.77076 -0.239732 0
M  V30 15931 H 1598.02 6.85842 -1.76142 0
M  V30 15932 H 1598.43 5.61934 -0.537672 0
M  V30 15933 N 1597.83 0.703118 1.41046 0
M  V30 15934 C 1599.05 0.246552 2.05426 0
M  V30 15935 C 1599.47 -1.10704 1.52938 0
M  V30 15936 O 1598.83 -1.69329 0.680733 0
M  V30 15937 C 1598.88 0.203953 3.60924 0
M  V30 15938 O 1598.6 1.50408 4.11472 0
M  V30 15939 C 1600.1 -0.272686 4.42461 0
M  V30 15940 H 1597.32 0.113157 0.66139 0
M  V30 15941 H 1599.86 0.957823 1.80682 0
M  V30 15942 H 1598.02 -0.458194 3.84681 0
M  V30 15943 H 1598.43 1.39622 5.05575 0
M  V30 15944 H 1599.91 -0.251357 5.51427 0
M  V30 15945 H 1600.38 -1.31282 4.1912 0
M  V30 15946 H 1600.99 0.358733 4.23784 0
M  V30 15947 N 1599.3 -1.51086 0.448402 0
M  V30 15948 C 1600.72 -1.86696 -0.0121264 0
M  V30 15949 C 1601.07 -1.36483 -1.40949 0
M  V30 15950 O 1600.19 -0.72024 -2.04062 0
M  V30 15951 C 1600.79 -3.38788 -0.0287814 0
M  V30 15952 C 1599.35 -3.73892 -0.433758 0
M  V30 15953 C 1598.49 -2.74869 0.366362 0
M  V30 15954 H 1601.44 -1.44153 0.663744 0
M  V30 15955 H 1601.46 -3.71204 -0.835915 0
M  V30 15956 H 1600.98 -3.75304 0.988368 0
M  V30 15957 H 1599.08 -3.4297 -1.4561 0
M  V30 15958 H 1599.19 -4.78862 -0.150869 0
M  V30 15959 H 1597.55 -2.54085 -0.176862 0
M  V30 15960 H 1598.34 -3.14228 1.3826 0
M  V30 15961 N 1600.78 -0.180154 -1.56567 0
M  V30 15962 C 1601.73 0.759144 -2.14991 0
M  V30 15963 C 1602.72 1.18672 -1.08654 0
M  V30 15964 O 1603.91 1.14761 -1.34755 0
M  V30 15965 C 1601.04 1.98473 -2.80113 0
M  V30 15966 C 1600.12 1.57874 -3.9362 0
M  V30 15967 N 1600.51 0.882825 -4.98036 0
M  V30 15968 C 1598.81 1.86913 -4.04944 0
M  V30 15969 C 1599.51 0.681573 -5.77693 0
M  V30 15970 N 1598.49 1.22573 -5.29601 0
M  V30 15971 H 1602.29 0.218574 -2.93086 0
M  V30 15972 H 1599.81 0.0202002 -1.62387 0
M  V30 15973 H 1601.8 2.66797 -3.20351 0
M  V30 15974 H 1600.46 2.53017 -2.03501 0
M  V30 15975 H 1601.47 0.539906 -5.15078 0
M  V30 15976 H 1598.15 2.43071 -3.39445 0
M  V30 15977 H 1599.54 0.130602 -6.71773 0
M  V30 15978 N 1602.26 1.57322 0.0935319 0
M  V30 15979 C 1603.49 1.90754 0.814111 0
M  V30 15980 C 1603.91 0.774571 1.71412 0
M  V30 15981 O 1603.27 -0.273775 1.79221 0
M  V30 15982 C 1603.32 3.23055 1.60211 0
M  V30 15983 O 1602.42 3.10755 2.71118 0
M  V30 15984 H 1601.76 0.625237 0.223552 0
M  V30 15985 H 1604.29 2.04486 0.068288 0
M  V30 15986 H 1604.3 3.56401 1.986 0
M  V30 15987 H 1602.98 4.05101 0.941607 0
M  V30 15988 H 1601.55 2.88926 2.35745 0
M  V30 15989 N 1603.74 -0.364395 1.53329 0
M  V30 15990 C 1604.69 -1.4466 1.76232 0
M  V30 15991 C 1605.67 -1.48605 0.616884 0
M  V30 15992 O 1606.86 -1.53826 0.875589 0
M  V30 15993 C 1603.99 -2.82078 1.95671 0
M  V30 15994 C 1603.08 -2.82606 3.16219 0
M  V30 15995 N 1603.47 -2.52781 4.38105 0
M  V30 15996 C 1601.77 -3.13766 3.16965 0
M  V30 15997 C 1602.47 -2.61017 5.19851 0
M  V30 15998 N 1601.45 -2.95777 4.56088 0
M  V30 15999 H 1605.25 -1.20465 2.68077 0
M  V30 16000 H 1602.76 -0.572589 1.51971 0
M  V30 16001 H 1604.76 -3.60026 2.10206 0
M  V30 16002 H 1603.42 -3.07236 1.05054 0
M  V30 16003 H 1604.43 -2.26353 4.65816 0
M  V30 16004 H 1601.11 -3.44231 2.36245 0
M  V30 16005 H 1602.5 -2.41294 6.27078 0
M  V30 16006 N 1605.22 -1.44709 -0.62426 0
M  V30 16007 C 1606.44 -1.51573 -1.41564 0
M  V30 16008 C 1606.87 -0.143806 -1.87549 0
M  V30 16009 O 1606.22 0.868361 -1.59151 0
M  V30 16010 C 1606.27 -2.49085 -2.60747 0
M  V30 16011 O 1605.38 -1.99712 -3.60817 0
M  V30 16012 H 1604.72 -0.51157 -0.423311 0
M  V30 16013 H 1607.25 -1.89908 -0.761316 0
M  V30 16014 H 1607.26 -2.67346 -3.08205 0
M  V30 16015 H 1605.93 -3.48733 -2.26624 0
M  V30 16016 H 1604.51 -1.9125 -3.20122 0
M  V30 16017 N 1606.69 0.865285 -1.31722 0
M  V30 16018 C 1608.11 1.15179 -1.10481 0
M  V30 16019 C 1608.31 2.01132 0.121667 0
M  V30 16020 O 1607.37 2.39167 0.809645 0
M  V30 16021 C 1608.68 1.8394 -2.3788 0
M  V30 16022 C 1610.23 1.96621 -2.43535 0
M  V30 16023 C 1610.7 2.68796 -3.70827 0
M  V30 16024 N 1612.19 2.76329 -3.71748 0
M  V30 16025 C 1612.93 3.32798 -4.6694 0
M  V30 16026 N 1612.42 3.90162 -5.7249 0
M  V30 16027 N 1614.22 3.30801 -4.54453 0
M  V30 16028 H 1606.37 0.292632 -2.10374 0
M  V30 16029 H 1608.63 0.192252 -0.928301 0
M  V30 16030 H 1608.34 1.28233 -3.27489 0
M  V30 16031 H 1608.21 2.84182 -2.48034 0
M  V30 16032 H 1610.6 2.5149 -1.54392 0
M  V30 16033 H 1610.68 0.954071 -2.37342 0
M  V30 16034 H 1610.32 2.14593 -4.60339 0
M  V30 16035 H 1610.25 3.70427 -3.74288 0
M  V30 16036 H 1612.74 2.35621 -2.95451 0
M  V30 16037 H 1613.06 4.31376 -6.41198 0
M  V30 16038 H 1611.4 3.88525 -5.76258 0
M  V30 16039 H 1614.59 2.85227 -3.71165 0
M  V30 16040 H 1614.77 3.74511 -5.28815 0
M  V30 16041 N 1608.17 1.14759 1.0802 0
M  V30 16042 C 1609.4 0.941887 1.84218 0
M  V30 16043 C 1609.82 -0.509702 1.8179 0
M  V30 16044 O 1609.17 -1.35331 1.22441 0
M  V30 16045 C 1609.22 1.43978 3.31591 0
M  V30 16046 O 1608.94 2.83449 3.34048 0
M  V30 16047 C 1610.45 1.27459 4.24581 0
M  V30 16048 H 1607.67 0.334942 0.581425 0
M  V30 16049 H 1610.21 1.52367 1.36399 0
M  V30 16050 H 1608.36 0.900674 3.76785 0
M  V30 16051 H 1608.78 3.05878 4.26073 0
M  V30 16052 H 1610.25 1.67151 5.26084 0
M  V30 16053 H 1610.73 0.217925 4.38659 0
M  V30 16054 H 1611.34 1.80243 3.85217 0
M  V30 16055 N 1609.65 -1.26251 0.943322 0
M  V30 16056 C 1611.06 -1.75591 0.634391 0
M  V30 16057 C 1611.41 -1.76812 -0.850406 0
M  V30 16058 O 1610.54 -1.38162 -1.66554 0
M  V30 16059 C 1611.13 -3.18871 1.14484 0
M  V30 16060 C 1609.69 -3.65817 0.886285 0
M  V30 16061 C 1608.84 -2.4523 1.2945 0
M  V30 16062 H 1611.79 -1.12297 1.12139 0
M  V30 16063 H 1611.81 -3.77205 0.499654 0
M  V30 16064 H 1611.32 -3.17951 2.22551 0
M  V30 16065 H 1609.42 -3.72165 -0.179913 0
M  V30 16066 H 1609.54 -4.54523 1.5148 0
M  V30 16067 H 1607.9 -2.44519 0.712919 0
M  V30 16068 H 1608.68 -2.47009 2.38415 0
M  V30 16069 N 1611.13 -0.710588 -1.40671 0
M  V30 16070 C 1612.04 -0.0557164 -2.34534 0
M  V30 16071 C 1613.06 0.749387 -1.57036 0
M  V30 16072 O 1614.23 0.683493 -1.89447 0
M  V30 16073 C 1611.3 0.858583 -3.35901 0
M  V30 16074 C 1610.36 0.043995 -4.29277 0
M  V30 16075 C 1609.59 0.91475 -5.25802 0
M  V30 16076 O 1609.81 2.15407 -5.28163 0
M  V30 16077 O 1608.75 0.356407 -6.00844 0
M  V30 16078 H 1612.57 -0.829807 -2.92144 0
M  V30 16079 H 1610.16 -0.471028 -1.4178 0
M  V30 16080 H 1612.04 1.38244 -3.98079 0
M  V30 16081 H 1610.72 1.61191 -2.80712 0
M  V30 16082 H 1609.62 -0.524815 -3.704 0
M  V30 16083 H 1610.96 -0.670996 -4.87605 0
M  V30 16084 N 1612.61 1.50847 -0.456408 0
M  V30 16085 C 1613.84 2.0635 0.10159 0
M  V30 16086 C 1614.25 1.32198 1.35353 0
M  V30 16087 O 1613.59 0.380433 1.79718 0
M  V30 16088 C 1613.65 3.56411 0.470283 0
M  V30 16089 C 1613.31 4.51949 -0.677546 0
M  V30 16090 C 1614.31 4.96091 -1.55531 0
M  V30 16091 C 1612 4.94819 -0.863701 0
M  V30 16092 C 1613.99 5.81793 -2.60377 0
M  V30 16093 C 1611.68 5.80306 -1.9154 0
M  V30 16094 C 1612.68 6.23693 -2.78381 0
M  V30 16095 O 1612.36 7.0748 -3.81742 0
M  V30 16096 H 1612.1 0.675994 0.00283373 0
M  V30 16097 H 1614.65 1.95178 -0.639893 0
M  V30 16098 H 1612.88 3.65433 1.26475 0
M  V30 16099 H 1614.57 3.94344 0.961649 0
M  V30 16100 H 1615.33 4.63651 -1.42311 0
M  V30 16101 H 1611.21 4.60578 -0.197285 0
M  V30 16102 H 1614.76 6.15578 -3.2819 0
M  V30 16103 H 1610.65 6.12159 -2.04773 0
M  V30 16104 H 1611.42 7.257 -3.78553 0
M  V30 16105 N 1614.09 0.188454 1.56469 0
M  V30 16106 C 1615.32 -0.457182 2.01478 0
M  V30 16107 C 1615.72 -1.5619 1.06777 0
M  V30 16108 O 1615.07 -1.8359 0.063659 0
M  V30 16109 C 1615.13 -1.08002 3.42893 0
M  V30 16110 C 1614.79 -0.114858 4.56856 0
M  V30 16111 C 1615.79 0.673269 5.15522 0
M  V30 16112 C 1613.47 -0.00570411 5.023 0
M  V30 16113 C 1615.47 1.55758 6.18076 0
M  V30 16114 C 1613.16 0.882173 6.04699 0
M  V30 16115 C 1614.15 1.66239 6.6246 0
M  V30 16116 O 1613.84 2.5354 7.62871 0
M  V30 16117 H 1613.57 -0.119784 0.665303 0
M  V30 16118 H 1616.13 0.292446 2.03307 0
M  V30 16119 H 1614.36 -1.87811 3.3803 0
M  V30 16120 H 1616.05 -1.62962 3.7175 0
M  V30 16121 H 1616.81 0.599207 4.81284 0
M  V30 16122 H 1612.69 -0.602804 4.57042 0
M  V30 16123 H 1616.24 2.16701 6.63088 0
M  V30 16124 H 1612.13 0.957375 6.38361 0
M  V30 16125 H 1612.9 2.47245 7.80264 0
M  V30 16126 N 1615.56 -1.5737 -0.0851874 0
M  V30 16127 C 1616.97 -1.7544 -0.638575 0
M  V30 16128 C 1617.33 -0.812041 -1.78607 0
M  V30 16129 O 1616.45 0.00710428 -2.16399 0
M  V30 16130 C 1617.05 -3.18134 -1.16517 0
M  V30 16131 C 1615.6 -3.37594 -1.66454 0
M  V30 16132 C 1614.75 -2.71203 -0.578274 0
M  V30 16133 H 1617.7 -1.58073 0.140931 0
M  V30 16134 H 1617.72 -3.21553 -2.0343 0
M  V30 16135 H 1617.24 -3.86696 -0.329794 0
M  V30 16136 H 1615.34 -2.74126 -2.5236 0
M  V30 16137 H 1615.45 -4.45968 -1.75071 0
M  V30 16138 H 1613.81 -2.33379 -1.02011 0
M  V30 16139 H 1614.6 -3.42413 0.246691 0
M  V30 16140 N 1617.04 0.356258 -1.53521 0
M  V30 16141 C 1617.99 1.45718 -1.81298 0
M  V30 16142 C 1618.98 1.55036 -0.682652 0
M  V30 16143 O 1620.19 1.57812 -0.865766 0
M  V30 16144 H 1616.56 0.485614 -0.57418 0
M  V30 16145 H 1618.54 1.19498 -2.73428 0
M  V30 16146 C 1617.28 2.82424 -2.0281 0
M  V30 16147 H 1616.61 2.76016 -2.89232 0
M  V30 16148 H 1618.05 3.5861 -2.26218 0
M  V30 16149 C 1616.51 3.2702 -0.809893 0
M  V30 16150 O 1617.04 4.017 -0.00310668 0
M  V30 16151 N 1615.24 2.83673 -0.630696 0
M  V30 16152 H 1614.79 2.23066 -1.28839 0
M  V30 16153 H 1614.75 3.13867 0.182961 0
M  V30 16154 N 1618.52 1.45038 0.616577 0
M  V30 16155 C 1619.48 1.52647 1.70973 0
M  V30 16156 C 1620.48 0.406902 1.55567 0
M  V30 16157 O 1621.67 0.670062 1.60797 0
M  V30 16158 C 1618.8 1.41438 3.10174 0
M  V30 16159 H 1620 2.50036 1.65596 0
M  V30 16160 H 1617.55 1.32346 0.831524 0
M  V30 16161 H 1618.29 0.451991 3.21135 0
M  V30 16162 H 1618.07 2.22634 3.22764 0
M  V30 16163 H 1619.56 1.49776 3.89817 0
M  V30 16164 N 1620 -0.858287 1.32179 0
M  V30 16165 C 1621.25 -1.60902 1.2229 0
M  V30 16166 C 1621.57 -1.93797 -0.216227 0
M  V30 16167 O 1620.84 -1.59312 -1.14002 0
M  V30 16168 H 1619.42 -0.596529 0.449624 0
M  V30 16169 H 1622.08 -1.02686 1.65655 0
M  V30 16170 H 1621.17 -2.54755 1.80295 0
M  V30 16171 N 1621.48 -1.1533 -1.07409 0
M  V30 16172 C 1622.41 -0.872476 -2.16587 0
M  V30 16173 C 1623.39 0.176683 -1.6918 0
M  V30 16174 O 1624.57 0.0311826 -1.94175 0
M  V30 16175 C 1621.7 -0.360342 -3.45426 0
M  V30 16176 C 1620.66 -1.34611 -4.06281 0
M  V30 16177 C 1619.98 -0.692848 -5.30192 0
M  V30 16178 C 1621.28 -2.71191 -4.46378 0
M  V30 16179 H 1622.98 -1.78546 -2.40336 0
M  V30 16180 H 1620.52 -0.859895 -1.15507 0
M  V30 16181 H 1622.47 -0.151429 -4.21128 0
M  V30 16182 H 1621.2 0.588109 -3.21261 0
M  V30 16183 H 1619.86 -1.54137 -3.32622 0
M  V30 16184 H 1619.51 0.261732 -5.02319 0
M  V30 16185 H 1619.21 -1.35071 -5.71865 0
M  V30 16186 H 1620.73 -0.493695 -6.08601 0
M  V30 16187 H 1622.14 -2.55513 -5.13212 0
M  V30 16188 H 1620.54 -3.33345 -4.99 0
M  V30 16189 H 1621.61 -3.273 -3.57775 0
M  V30 16190 N 1622.95 1.25748 -0.950004 0
M  V30 16191 C 1624.2 1.92632 -0.597988 0
M  V30 16192 C 1624.52 1.75268 0.868365 0
M  V30 16193 O 1625.72 2.36684 1.33014 0
M  V30 16194 C 1624.18 3.45179 -1.01879 0
M  V30 16195 C 1623.79 3.71262 -2.50736 0
M  V30 16196 C 1625.53 4.18017 -0.739084 0
M  V30 16197 C 1623.44 5.17292 -2.8664 0
M  V30 16198 H 1622.37 0.72121 -0.219938 0
M  V30 16199 H 1625.02 1.42685 -1.15383 0
M  V30 16200 H 1623.4 3.94061 -0.391395 0
M  V30 16201 H 1624.57 3.33051 -3.18455 0
M  V30 16202 H 1622.89 3.11676 -2.76129 0
M  V30 16203 H 1625.49 5.25576 -0.983555 0
M  V30 16204 H 1625.83 4.15034 0.32439 0
M  V30 16205 H 1626.36 3.75028 -1.32661 0
M  V30 16206 H 1623.1 5.25383 -3.91987 0
M  V30 16207 H 1622.62 5.56567 -2.23591 0
M  V30 16208 H 1624.3 5.85375 -2.75582 0
M  V30 16209 N 1624.43 0.718038 1.40292 0
M  V30 16210 C 1625.36 0.0160994 2.28194 0
M  V30 16211 C 1626.34 -0.765159 1.43472 0
M  V30 16212 O 1627.53 -0.751283 1.72881 0
M  V30 16213 C 1624.65 -0.984558 3.24074 0
M  V30 16214 C 1623.7 -0.293817 4.25487 0
M  V30 16215 S 1624.53 0.980059 5.26455 0
M  V30 16216 C 1625.69 -0.0184326 6.25897 0
M  V30 16217 H 1625.92 0.761585 2.8738 0
M  V30 16218 H 1623.45 0.509158 1.45763 0
M  V30 16219 H 1625.41 -1.55667 3.7984 0
M  V30 16220 H 1624.07 -1.70276 2.63941 0
M  V30 16221 H 1623.27 -1.05037 4.92933 0
M  V30 16222 H 1622.87 0.205802 3.73433 0
M  V30 16223 H 1625.16 -0.864464 6.71962 0
M  V30 16224 H 1626.1 0.622712 7.05357 0
M  V30 16225 H 1626.51 -0.383254 5.63197 0
M  V30 16226 N 1625.91 -1.50602 0.464402 0
M  V30 16227 C 1626.86 -2.29992 -0.347337 0
M  V30 16228 C 1627.85 -1.36991 -0.996489 0
M  V30 16229 O 1629.06 -1.54213 -0.928359 0
M  V30 16230 H 1625.43 -0.740529 -0.130847 0
M  V30 16231 H 1627.4 -2.96425 0.342734 0
M  V30 16232 C 1626.15 -3.17355 -1.4206 0
M  V30 16233 H 1625.48 -3.88822 -0.930473 0
M  V30 16234 H 1626.92 -3.75912 -1.96129 0
M  V30 16235 C 1625.38 -2.34506 -2.41886 0
M  V30 16236 O 1625.91 -2.02347 -3.47014 0
M  V30 16237 N 1624.11 -1.97212 -2.13438 0
M  V30 16238 H 1623.66 -2.23564 -1.27971 0
M  V30 16239 H 1623.62 -1.42081 -2.80464 0
M  V30 16240 N 1627.39 -0.19675 -1.56367 0
M  V30 16241 C 1628.62 0.446491 -2.01718 0
M  V30 16242 C 1629.03 1.55621 -1.07604 0
M  V30 16243 O 1628.37 1.83553 -0.0733943 0
M  V30 16244 C 1628.43 1.06182 -3.43461 0
M  V30 16245 C 1628.1 0.0906278 -4.5691 0
M  V30 16246 C 1629.09 -0.700599 -5.15158 0
M  V30 16247 C 1626.78 -0.0209341 -5.02296 0
M  V30 16248 C 1628.77 -1.59034 -6.17241 0
M  V30 16249 C 1626.46 -0.91423 -6.04223 0
M  V30 16250 C 1627.46 -1.6975 -6.61569 0
M  V30 16251 O 1627.14 -2.57582 -7.61516 0
M  V30 16252 H 1626.88 0.116254 -0.665929 0
M  V30 16253 H 1629.43 -0.303224 -2.03149 0
M  V30 16254 H 1627.66 1.86015 -3.39021 0
M  V30 16255 H 1629.35 1.60988 -3.72609 0
M  V30 16256 H 1630.12 -0.624723 -4.8096 0
M  V30 16257 H 1625.99 0.578557 -4.57355 0
M  V30 16258 H 1629.54 -2.20215 -6.6193 0
M  V30 16259 H 1625.44 -0.991215 -6.37844 0
M  V30 16260 H 1626.2 -2.5138 -7.78942 0
M  V30 16261 N 1628.87 1.57413 0.0768405 0
M  V30 16262 C 1630.11 1.88835 0.78235 0
M  V30 16263 C 1630.47 0.789942 1.74997 0
M  V30 16264 O 1631.67 0.987092 2.5002 0
M  V30 16265 C 1629.94 3.25491 1.47616 0
M  V30 16266 S 1631.5 3.78649 2.21743 0
M  V30 16267 H 1628.32 0.661649 0.260272 0
M  V30 16268 H 1630.92 1.95462 0.0386596 0
M  V30 16269 H 1629.63 4.03338 0.758047 0
M  V30 16270 H 1629.16 3.22049 2.25938 0
M  V30 16271 H 1631.17 3.53531 3.48182 0
M  V30 16272 N 1630.34 -0.348112 1.53707 0
M  V30 16273 C 1631.76 -0.690926 1.43869 0
M  V30 16274 C 1631.96 -1.92614 0.59177 0
M  V30 16275 O 1631.02 -2.5237 0.0809797 0
M  V30 16276 C 1632.33 -0.887824 2.87295 0
M  V30 16277 C 1633.88 -0.986731 2.9704 0
M  V30 16278 C 1634.35 -1.21598 4.41563 0
M  V30 16279 N 1635.84 -1.28328 4.45069 0
M  V30 16280 C 1636.58 -1.47809 5.54022 0
M  V30 16281 N 1636.07 -1.64492 6.72989 0
M  V30 16282 N 1637.87 -1.5032 5.41628 0
M  V30 16283 H 1630.02 0.464101 2.07268 0
M  V30 16284 H 1632.28 0.145678 0.93674 0
M  V30 16285 H 1631.99 -0.0517672 3.51662 0
M  V30 16286 H 1631.86 -1.79089 3.31974 0
M  V30 16287 H 1634.25 -1.81331 2.32815 0
M  V30 16288 H 1634.33 -0.0606692 2.55728 0
M  V30 16289 H 1633.97 -0.394341 5.06367 0
M  V30 16290 H 1633.9 -2.15553 4.80463 0
M  V30 16291 H 1636.39 -1.16979 3.59339 0
M  V30 16292 H 1636.71 -1.78979 7.51789 0
M  V30 16293 H 1635.05 -1.61636 6.75943 0
M  V30 16294 H 1638.24 -1.36865 4.47644 0
M  V30 16295 H 1638.42 -1.6516 6.26599 0
M  V30 16296 N 1631.82 -1.45363 -0.608876 0
M  V30 16297 C 1632.77 -1.54268 -1.7408 0
M  V30 16298 C 1633.76 -0.412752 -1.64295 0
M  V30 16299 O 1634.97 -0.58861 -1.70104 0
M  V30 16300 H 1631.35 -0.484528 -0.575097 0
M  V30 16301 H 1633.32 -2.49492 -1.63696 0
M  V30 16302 C 1632.07 -1.5253 -3.12458 0
M  V30 16303 H 1631.39 -2.38801 -3.20646 0
M  V30 16304 H 1632.83 -1.62819 -3.91492 0
M  V30 16305 C 1631.29 -0.249525 -3.35975 0
M  V30 16306 O 1631.82 0.671159 -3.96053 0
M  V30 16307 N 1630.02 -0.145625 -2.90235 0
M  V30 16308 H 1629.57 -0.895714 -2.41526 0
M  V30 16309 H 1629.53 0.707167 -3.06344 0
M  V30 16310 N 1633.3 0.851265 -1.32632 0
M  V30 16311 C 1634.71 1.4217 -1.21015 0
M  V30 16312 C 1635.06 1.95409 0.175972 0
M  V30 16313 O 1634.19 1.87816 1.07489 0
M  V30 16314 C 1634.78 2.58431 -2.19086 0
M  V30 16315 C 1633.34 3.11464 -2.11346 0
M  V30 16316 C 1632.49 1.84221 -2.07263 0
M  V30 16317 H 1635.44 0.65812 -1.44411 0
M  V30 16318 H 1635.46 3.35694 -1.79137 0
M  V30 16319 H 1634.97 2.19652 -3.1996 0
M  V30 16320 H 1633.07 3.54818 -1.13732 0
M  V30 16321 H 1633.19 3.72478 -3.01325 0
M  V30 16322 H 1631.55 2.0396 -1.52553 0
M  V30 16323 H 1632.33 1.47654 -3.09924 0
M  V30 16324 N 1634.78 1.15898 1.06796 0
M  V30 16325 C 1636.06 0.847701 1.76276 0
M  V30 16326 C 1636.44 -0.655537 2.00664 0
M  V30 16327 O 1635.78 -1.60171 1.62964 0
M  V30 16328 C 1635.99 1.66475 3.06736 0
M  V30 16329 C 1637.34 1.87452 3.80982 0
M  V30 16330 O 1638.37 1.63298 3.16563 0
M  V30 16331 O 1637.22 2.27942 4.96694 0
M  V30 16332 H 1634.32 0.312308 0.765763 0
M  V30 16333 H 1636.86 1.26507 1.13111 0
M  V30 16334 H 1635.64 2.68508 2.84638 0
M  V30 16335 H 1635.26 1.24409 3.77635 0
M  V30 16336 N 1636.26 -1.25243 0.956659 0
M  V30 16337 C 1637.22 -2.24054 0.482949 0
M  V30 16338 C 1638.22 -1.55367 -0.41447 0
M  V30 16339 O 1639.41 -1.72912 -0.211475 0
M  V30 16340 C 1636.54 -3.3956 -0.301975 0
M  V30 16341 H 1637.73 -2.67476 1.35634 0
M  V30 16342 H 1635.29 -1.37665 0.740138 0
M  V30 16343 H 1636.02 -3.01561 -1.19294 0
M  V30 16344 H 1635.81 -3.90607 0.341876 0
M  V30 16345 H 1637.3 -4.1293 -0.622807 0
M  V30 16346 N 1637.73 -0.725468 -1.3991 0
M  V30 16347 C 1638.98 -0.26965 -2.00999 0
M  V30 16348 C 1639.31 1.13727 -1.57416 0
M  V30 16349 O 1638.59 1.77345 -0.798693 0
M  V30 16350 C 1638.87 -0.360784 -3.58288 0
M  V30 16351 C 1638.72 -1.80679 -4.11916 0
M  V30 16352 C 1640.04 0.262328 -4.39317 0
M  V30 16353 H 1637.16 -0.0994547 -0.730259 0
M  V30 16354 H 1639.8 -0.91983 -1.6625 0
M  V30 16355 H 1637.95 0.192779 -3.88021 0
M  V30 16356 H 1639.63 -2.4165 -3.92942 0
M  V30 16357 H 1637.87 -2.33127 -3.65834 0
M  V30 16358 H 1638.54 -1.82189 -5.21068 0
M  V30 16359 H 1641.02 -0.209452 -4.15573 0
M  V30 16360 H 1639.89 0.168166 -5.48642 0
M  V30 16361 H 1640.15 1.34716 -4.21075 0
M  V30 16362 N 1639.21 1.50354 -0.472382 0
M  V30 16363 C 1640.18 2.27096 0.30981 0
M  V30 16364 C 1641.18 1.3193 0.919306 0
M  V30 16365 O 1642.37 1.55344 0.788284 0
M  V30 16366 C 1639.5 3.08924 1.44149 0
M  V30 16367 H 1640.69 2.97692 -0.363228 0
M  V30 16368 H 1638.24 1.5465 -0.226483 0
M  V30 16369 H 1638.98 2.42828 2.14954 0
M  V30 16370 H 1638.76 3.78862 1.01023 0
M  V30 16371 H 1640.25 3.66961 1.99323 0
M  V30 16372 N 1640.69 0.205039 1.56261 0
M  V30 16373 C 1641.65 -0.698166 2.18308 0
M  V30 16374 C 1642.65 -1.13376 1.14029 0
M  V30 16375 O 1643.84 -1.04524 1.39357 0
M  V30 16376 C 1640.98 -1.95438 2.79315 0
M  V30 16377 H 1642.17 -0.157462 2.99486 0
M  V30 16378 H 1639.72 -0.0445849 1.56236 0
M  V30 16379 H 1640.46 -2.53736 2.01962 0
M  V30 16380 H 1640.24 -1.65068 3.55662 0
M  V30 16381 H 1641.73 -2.59824 3.26927 0
M  V30 16382 N 1642.17 -1.57451 -0.0684915 0
M  V30 16383 C 1643.58 -1.76107 -0.619932 0
M  V30 16384 C 1643.93 -0.830939 -1.77735 0
M  V30 16385 O 1643.06 -0.0158481 -2.16394 0
M  V30 16386 C 1643.65 -3.19352 -1.13136 0
M  V30 16387 C 1642.21 -3.39341 -1.62864 0
M  V30 16388 C 1641.36 -2.71801 -0.549477 0
M  V30 16389 H 1644.31 -1.57915 0.157689 0
M  V30 16390 H 1644.33 -3.23693 -2.00008 0
M  V30 16391 H 1643.84 -3.87024 -0.288762 0
M  V30 16392 H 1641.94 -2.76787 -2.49438 0
M  V30 16393 H 1642.06 -4.47799 -1.70331 0
M  V30 16394 H 1640.42 -2.34448 -0.995302 0
M  V30 16395 H 1641.2 -3.42132 0.282995 0
M  V30 16396 N 1643.65 0.339955 -1.5389 0
M  V30 16397 C 1644.88 1.09816 -1.74997 0
M  V30 16398 C 1645.29 1.82725 -0.490746 0
M  V30 16399 O 1644.63 1.75352 0.547467 0
M  V30 16400 C 1644.69 2.15388 -2.87834 0
M  V30 16401 C 1644.35 1.62022 -4.27315 0
M  V30 16402 C 1645.35 1.07064 -5.08757 0
M  V30 16403 C 1643.04 1.6676 -4.7381 0
M  V30 16404 C 1645.03 0.575529 -6.34796 0
M  V30 16405 C 1642.72 1.16861 -5.99822 0
M  V30 16406 C 1643.72 0.623505 -6.80148 0
M  V30 16407 O 1643.4 0.131966 -8.03792 0
M  V30 16408 H 1643.14 0.333199 -0.588179 0
M  V30 16409 H 1645.69 0.39682 -2.0153 0
M  V30 16410 H 1643.92 2.89091 -2.56834 0
M  V30 16411 H 1645.61 2.76801 -2.96877 0
M  V30 16412 H 1646.37 1.02723 -4.73997 0
M  V30 16413 H 1642.25 2.08129 -4.11343 0
M  V30 16414 H 1645.8 0.149389 -6.9744 0
M  V30 16415 H 1641.69 1.20904 -6.34076 0
M  V30 16416 H 1642.46 0.24892 -8.18121 0
M  V30 16417 N 1645.13 1.45684 0.601159 0
M  V30 16418 C 1646.37 1.51581 1.37123 0
M  V30 16419 C 1646.73 0.156185 1.91364 0
M  V30 16420 O 1647.93 0.0898599 2.6865 0
M  V30 16421 C 1646.2 2.56989 2.48378 0
M  V30 16422 S 1647.76 2.82158 3.36054 0
M  V30 16423 H 1644.58 0.53577 0.46741 0
M  V30 16424 H 1647.18 1.82805 0.693012 0
M  V30 16425 H 1645.88 3.54436 2.0689 0
M  V30 16426 H 1645.42 2.27437 3.20992 0
M  V30 16427 H 1647.43 2.16025 4.46708 0
M  V30 16428 N 1646.6 -0.84422 1.33082 0
M  V30 16429 C 1647.83 -1.62896 1.27076 0
M  V30 16430 C 1648.24 -1.88509 -0.161583 0
M  V30 16431 O 1647.58 -1.46184 -1.11247 0
M  V30 16432 C 1647.65 -3.00611 1.97163 0
M  V30 16433 C 1647.31 -2.97993 3.46481 0
M  V30 16434 C 1648.31 -2.74092 4.4178 0
M  V30 16435 C 1645.99 -3.18299 3.88576 0
M  V30 16436 C 1647.99 -2.70515 5.77148 0
M  V30 16437 C 1645.67 -3.14348 5.2405 0
M  V30 16438 C 1646.67 -2.90486 6.18148 0
M  V30 16439 O 1646.36 -2.86429 7.51142 0
M  V30 16440 H 1646.09 -0.513756 0.439353 0
M  V30 16441 H 1648.65 -1.06009 1.7593 0
M  V30 16442 H 1646.88 -3.5933 1.42893 0
M  V30 16443 H 1648.56 -3.61428 1.84728 0
M  V30 16444 H 1649.33 -2.58161 4.10582 0
M  V30 16445 H 1645.21 -3.35893 3.15748 0
M  V30 16446 H 1648.75 -2.5181 6.50567 0
M  V30 16447 H 1644.65 -3.29826 5.54874 0
M  V30 16448 H 1645.42 -3.02309 7.60626 0
M  V30 16449 N 1648.08 -1.16463 -1.0618 0
M  V30 16450 C 1649.31 -0.971075 -1.82696 0
M  V30 16451 C 1649.72 0.480716 -1.82578 0
M  V30 16452 O 1649.08 1.33366 -1.24579 0
M  V30 16453 C 1649.13 -1.49235 -3.29259 0
M  V30 16454 O 1648.85 -2.88728 -3.29496 0
M  V30 16455 C 1650.35 -1.34197 -4.225 0
M  V30 16456 H 1647.57 -0.34415 -0.576023 0
M  V30 16457 H 1650.12 -1.54517 -1.33958 0
M  V30 16458 H 1648.27 -0.960503 -3.75304 0
M  V30 16459 H 1648.69 -3.12618 -4.21153 0
M  V30 16460 H 1650.16 -1.75499 -5.23358 0
M  V30 16461 H 1650.64 -0.287685 -4.38257 0
M  V30 16462 H 1651.24 -1.86349 -3.82301 0
M  V30 16463 N 1649.56 1.24734 -0.963288 0
M  V30 16464 C 1650.98 1.44897 -0.669103 0
M  V30 16465 C 1651.18 1.86185 0.770541 0
M  V30 16466 O 1650.23 1.99721 1.54492 0
M  V30 16467 C 1651.54 2.51425 -1.64943 0
M  V30 16468 C 1653.09 2.65256 -1.66157 0
M  V30 16469 C 1653.57 3.74977 -2.62976 0
M  V30 16470 N 1655.06 3.82399 -2.61391 0
M  V30 16471 C 1655.79 4.66809 -3.32981 0
M  V30 16472 N 1655.29 5.55441 -4.14073 0
M  V30 16473 N 1657.08 4.60851 -3.21827 0
M  V30 16474 H 1649.23 0.962292 -1.89351 0
M  V30 16475 H 1651.5 0.4843 -0.814958 0
M  V30 16476 H 1651.2 2.27965 -2.67815 0
M  V30 16477 H 1651.08 3.49503 -1.41872 0
M  V30 16478 H 1653.46 2.88077 -0.639978 0
M  V30 16479 H 1653.54 1.67551 -1.93288 0
M  V30 16480 H 1653.19 3.52907 -3.65266 0
M  V30 16481 H 1653.12 4.72187 -2.33125 0
M  V30 16482 H 1655.61 3.19048 -2.02527 0
M  V30 16483 H 1655.92 6.16798 -4.65597 0
M  V30 16484 H 1654.27 5.55121 -4.18169 0
M  V30 16485 H 1657.46 3.90621 -2.5794 0
M  V30 16486 H 1657.63 5.26411 -3.77883 0
M  V30 16487 N 1651.04 0.732878 1.39523 0
M  V30 16488 C 1652.31 0.20629 1.94509 0
M  V30 16489 C 1652.69 -1.29152 1.66982 0
M  V30 16490 O 1652.04 -2.05607 0.996895 0
M  V30 16491 C 1652.25 0.537619 3.44834 0
M  V30 16492 C 1653.6 0.485787 4.21812 0
M  V30 16493 O 1654.62 0.474686 3.53023 0
M  V30 16494 O 1653.48 0.478457 5.44402 0
M  V30 16495 H 1650.58 0.0369228 0.826175 0
M  V30 16496 H 1653.12 0.811591 1.49035 0
M  V30 16497 H 1651.9 1.57289 3.58296 0
M  V30 16498 H 1651.52 -0.0967601 3.97482 0
M  V30 16499 N 1652.52 -1.50101 0.480349 0
M  V30 16500 C 1653.93 -1.8668 0.0274773 0
M  V30 16501 C 1654.28 -1.39442 -1.38023 0
M  V30 16502 O 1653.4 -0.763363 -2.02489 0
M  V30 16503 C 1654 -3.38773 0.043087 0
M  V30 16504 C 1652.56 -3.74728 -0.354352 0
M  V30 16505 C 1651.7 -2.7403 0.424583 0
M  V30 16506 H 1654.65 -1.42713 0.694172 0
M  V30 16507 H 1654.68 -3.72894 -0.756989 0
M  V30 16508 H 1654.19 -3.73123 1.06775 0
M  V30 16509 H 1652.29 -3.45981 -1.38303 0
M  V30 16510 H 1652.4 -4.79075 -0.0492608 0
M  V30 16511 H 1650.77 -2.54403 -0.122927 0
M  V30 16512 H 1651.55 -3.11225 1.44894 0
M  V30 16513 N 1653.99 -0.213323 -1.5615 0
M  V30 16514 C 1655.24 0.419767 -1.97693 0
M  V30 16515 C 1655.56 1.60878 -1.10197 0
M  V30 16516 O 1654.83 1.95097 -0.177185 0
M  V30 16517 H 1653.41 0.158075 -0.730083 0
M  V30 16518 H 1656.07 -0.304303 -1.9251 0
M  V30 16519 H 1655.17 0.751645 -3.02914 0
M  V30 16520 N 1655.47 1.57485 0.0601405 0
M  V30 16521 C 1656.72 1.88094 0.758192 0
M  V30 16522 C 1657.05 0.807138 1.76632 0
M  V30 16523 O 1656.33 -0.181347 1.93653 0
M  V30 16524 C 1656.61 3.29363 1.45574 0
M  V30 16525 C 1656.46 4.47408 0.463233 0
M  V30 16526 C 1657.78 3.69048 2.39773 0
M  V30 16527 H 1654.9 0.684106 0.274169 0
M  V30 16528 H 1657.54 1.89988 0.0212215 0
M  V30 16529 H 1655.69 3.27879 2.08393 0
M  V30 16530 H 1657.36 4.6102 -0.160641 0
M  V30 16531 H 1655.61 4.3324 -0.220408 0
M  V30 16532 H 1656.28 5.43065 0.989164 0
M  V30 16533 H 1658.75 3.71701 1.87024 0
M  V30 16534 H 1657.63 4.68761 2.85577 0
M  V30 16535 H 1657.89 2.9961 3.25094 0
M  V30 16536 N 1656.95 -0.331789 1.54068 0
M  V30 16537 C 1658.37 -0.675628 1.44594 0
M  V30 16538 C 1658.57 -1.91976 0.612166 0
M  V30 16539 O 1657.62 -2.5227 0.107742 0
M  V30 16540 C 1658.94 -0.857303 2.8822 0
M  V30 16541 C 1660.48 -0.955171 2.9807 0
M  V30 16542 C 1660.96 -1.16908 4.42828 0
M  V30 16543 N 1662.45 -1.23601 4.46405 0
M  V30 16544 C 1663.18 -1.41924 5.55558 0
M  V30 16545 N 1662.68 -1.57345 6.74696 0
M  V30 16546 N 1664.47 -1.44566 5.43191 0
M  V30 16547 H 1656.62 0.486058 2.06764 0
M  V30 16548 H 1658.89 0.155605 0.935142 0
M  V30 16549 H 1658.59 -0.0144659 3.51697 0
M  V30 16550 H 1658.47 -1.75558 3.33855 0
M  V30 16551 H 1660.85 -1.78852 2.34725 0
M  V30 16552 H 1660.94 -0.0335425 2.55778 0
M  V30 16553 H 1660.58 -0.340612 5.06757 0
M  V30 16554 H 1660.51 -2.10445 4.82722 0
M  V30 16555 H 1663 -1.13161 3.60559 0
M  V30 16556 H 1663.31 -1.70995 7.53645 0
M  V30 16557 H 1661.66 -1.54458 6.77619 0
M  V30 16558 H 1664.85 -1.3211 4.49071 0
M  V30 16559 H 1665.02 -1.58505 6.28315 0
M  V30 16560 N 1658.43 -1.46001 -0.593424 0
M  V30 16561 C 1659.67 -1.51967 -1.35195 0
M  V30 16562 C 1660.03 -0.164761 -1.91693 0
M  V30 16563 O 1659.32 0.825208 -1.72919 0
M  V30 16564 C 1659.52 -2.54568 -2.50858 0
M  V30 16565 C 1659.35 -3.99903 -2.05688 0
M  V30 16566 C 1658.12 -4.67729 -1.91201 0
M  V30 16567 C 1660.31 -4.88021 -1.62297 0
M  V30 16568 N 1658.3 -5.97726 -1.39989 0
M  V30 16569 C 1659.67 -6.07757 -1.22602 0
M  V30 16570 C 1661.72 -4.74762 -1.50018 0
M  V30 16571 C 1660.42 -7.15702 -0.718508 0
M  V30 16572 C 1662.45 -5.82769 -1.0067 0
M  V30 16573 C 1661.81 -7.01671 -0.619471 0
M  V30 16574 H 1657.91 -0.610973 -0.488094 0
M  V30 16575 H 1660.5 -1.82556 -0.676862 0
M  V30 16576 H 1658.67 -2.25908 -3.15943 0
M  V30 16577 H 1660.4 -2.50595 -3.1778 0
M  V30 16578 H 1657.15 -4.23089 -2.1282 0
M  V30 16579 H 1657.58 -6.66888 -1.16576 0
M  V30 16580 H 1662.22 -3.83236 -1.78577 0
M  V30 16581 H 1659.94 -8.07005 -0.420481 0
M  V30 16582 H 1663.52 -5.74548 -0.915751 0
M  V30 16583 H 1662.4 -7.83822 -0.243508 0
M  V30 16584 N 1659.91 0.83715 -1.33527 0
M  V30 16585 C 1660.82 1.97915 -1.25964 0
M  V30 16586 C 1661.83 1.73169 -0.169894 0
M  V30 16587 O 1663.01 1.97513 -0.393793 0
M  V30 16588 C 1660.07 3.31945 -1.00068 0
M  V30 16589 C 1659.13 3.69795 -2.1806 0
M  V30 16590 C 1658.37 4.97429 -1.9339 0
M  V30 16591 O 1658.59 5.63492 -0.885069 0
M  V30 16592 O 1657.52 5.32823 -2.79969 0
M  V30 16593 H 1661.35 2.07236 -2.22007 0
M  V30 16594 H 1658.94 0.970437 -1.13591 0
M  V30 16595 H 1660.82 4.12248 -0.873487 0
M  V30 16596 H 1659.49 3.23623 -0.0705475 0
M  V30 16597 H 1658.4 2.89995 -2.36334 0
M  V30 16598 H 1659.73 3.82784 -3.09414 0
M  V30 16599 N 1661.38 1.17024 1.05561 0
M  V30 16600 C 1662.61 0.979328 1.81914 0
M  V30 16601 C 1663.02 -0.475688 1.83122 0
M  V30 16602 O 1662.37 -1.34205 1.25438 0
M  V30 16603 C 1662.43 1.4391 3.29439 0
M  V30 16604 C 1662.09 2.9155 3.5192 0
M  V30 16605 C 1663.09 3.89509 3.44353 0
M  V30 16606 C 1660.77 3.2964 3.79003 0
M  V30 16607 C 1662.77 5.23557 3.63548 0
M  V30 16608 C 1660.45 4.63855 3.97846 0
M  V30 16609 C 1661.45 5.60623 3.90117 0
M  V30 16610 O 1661.14 6.92411 4.08439 0
M  V30 16611 H 1660.87 0.34689 0.58021 0
M  V30 16612 H 1663.43 1.55641 1.34034 0
M  V30 16613 H 1661.66 0.805555 3.78216 0
M  V30 16614 H 1663.35 1.21445 3.87306 0
M  V30 16615 H 1664.11 3.61428 3.23412 0
M  V30 16616 H 1659.99 2.54891 3.84124 0
M  V30 16617 H 1663.53 5.99074 3.5743 0
M  V30 16618 H 1659.43 4.91644 4.18278 0
M  V30 16619 H 1660.2 6.99095 4.25685 0
M  V30 16620 N 1662.86 -1.24221 0.969889 0
M  V30 16621 C 1664.1 -1.94094 0.640856 0
M  V30 16622 C 1664.47 -1.74112 -0.809267 0
M  V30 16623 O 1665.67 -2.38039 -1.24863 0
M  V30 16624 C 1663.94 -3.42892 1.00797 0
M  V30 16625 S 1665.5 -4.3156 0.79382 0
M  V30 16626 H 1662.32 -0.671028 0.235036 0
M  V30 16627 H 1664.92 -1.50541 1.24731 0
M  V30 16628 H 1663.62 -3.54942 2.0602 0
M  V30 16629 H 1663.15 -3.91438 0.392386 0
M  V30 16630 H 1665.17 -4.95117 -0.327707 0
M  V30 16631 N 1664.34 -0.740267 -1.39132 0
M  V30 16632 C 1665.29 -0.0929334 -2.32414 0
M  V30 16633 C 1666.28 0.720062 -1.53334 0
M  V30 16634 O 1667.49 0.620656 -1.68961 0
M  V30 16635 H 1663.86 -0.0112531 -0.751916 0
M  V30 16636 H 1665.83 -0.895975 -2.84631 0
M  V30 16637 C 1664.58 0.796182 -3.38462 0
M  V30 16638 H 1663.91 0.17999 -3.99395 0
M  V30 16639 H 1665.35 1.21664 -4.0617 0
M  V30 16640 C 1663.81 1.93285 -2.75939 0
M  V30 16641 O 1664.34 3.02593 -2.64198 0
M  V30 16642 N 1662.54 1.72386 -2.33948 0
M  V30 16643 H 1662.09 0.834821 -2.43698 0
M  V30 16644 H 1662.05 2.48612 -1.92456 0
M  V30 16645 N 1665.82 1.49844 -0.488302 0
M  V30 16646 C 1666.75 2.31737 0.286432 0
M  V30 16647 C 1667.73 1.39424 0.974418 0
M  V30 16648 O 1668.91 1.68339 0.968274 0
M  V30 16649 C 1666.04 3.19616 1.35878 0
M  V30 16650 C 1665 4.20619 0.791409 0
M  V30 16651 C 1664.32 4.9735 1.96333 0
M  V30 16652 C 1665.62 5.21882 -0.208975 0
M  V30 16653 H 1667.32 2.96755 -0.397092 0
M  V30 16654 H 1664.86 1.42709 -0.192413 0
M  V30 16655 H 1666.82 3.75711 1.90838 0
M  V30 16656 H 1665.54 2.52516 2.07131 0
M  V30 16657 H 1664.2 3.65651 0.263647 0
M  V30 16658 H 1663.85 4.26708 2.66325 0
M  V30 16659 H 1663.55 5.65684 1.58983 0
M  V30 16660 H 1665.07 5.56286 2.51751 0
M  V30 16661 H 1666.49 5.72746 0.252049 0
M  V30 16662 H 1664.88 5.98033 -0.497638 0
M  V30 16663 H 1665.95 4.7157 -1.12916 0
M  V30 16664 N 1667.3 0.221601 1.56034 0
M  V30 16665 C 1668.52 -0.414945 2.02696 0
M  V30 16666 C 1668.94 -1.53344 1.10141 0
M  V30 16667 O 1668.3 -1.82162 0.111026 0
M  V30 16668 C 1668.35 -0.946532 3.48888 0
M  V30 16669 O 1668.07 0.12737 4.37915 0
M  V30 16670 C 1669.57 -1.65631 4.11195 0
M  V30 16671 H 1666.79 -0.101548 0.663271 0
M  V30 16672 H 1669.33 0.338069 2.01686 0
M  V30 16673 H 1667.49 -1.64982 3.50514 0
M  V30 16674 H 1667.9 -0.272211 5.23793 0
M  V30 16675 H 1669.38 -1.98027 5.15257 0
M  V30 16676 H 1669.85 -2.56947 3.56195 0
M  V30 16677 H 1670.46 -0.998231 4.13419 0
M  V30 16678 N 1668.77 -1.57515 -0.0517878 0
M  V30 16679 C 1669.71 -2.01812 -1.08649 0
M  V30 16680 C 1670.72 -0.92719 -1.33817 0
M  V30 16681 O 1671.91 -1.20483 -1.31705 0
M  V30 16682 C 1669.01 -2.35903 -2.43316 0
M  V30 16683 C 1668.18 -3.67095 -2.37824 0
M  V30 16684 C 1667.24 -3.8863 -3.54758 0
M  V30 16685 O 1666.27 -4.59974 -3.3528 0
M  V30 16686 N 1667.47 -3.32516 -4.75829 0
M  V30 16687 H 1670.23 -2.91191 -0.709094 0
M  V30 16688 H 1667.79 -1.60109 -0.240125 0
M  V30 16689 H 1669.79 -2.47466 -3.20223 0
M  V30 16690 H 1668.36 -1.52312 -2.72983 0
M  V30 16691 H 1667.58 -3.66099 -1.46168 0
M  V30 16692 H 1668.86 -4.53199 -2.31275 0
M  V30 16693 H 1668.26 -2.74645 -4.94557 0
M  V30 16694 H 1666.82 -3.49496 -5.50178 0
M  V30 16695 N 1670.25 0.323614 -1.54242 0
M  V30 16696 C 1671.49 1.06978 -1.74169 0
M  V30 16697 C 1671.86 1.85248 -0.504693 0
M  V30 16698 O 1673.06 2.62439 -0.581318 0
M  V30 16699 C 1671.33 1.97001 -2.98203 0
M  V30 16700 S 1672.89 2.78571 -3.39034 0
M  V30 16701 H 1669.71 0.361157 -0.612443 0
M  V30 16702 H 1672.31 0.345789 -1.92418 0
M  V30 16703 H 1671.01 1.38336 -3.86382 0
M  V30 16704 H 1670.54 2.73806 -2.82478 0
M  V30 16705 H 1672.56 3.99481 -2.94329 0
M  V30 16706 N 1671.73 1.46313 0.585673 0
M  V30 16707 C 1672.96 1.55273 1.37496 0
M  V30 16708 C 1673.38 0.193481 1.87102 0
M  V30 16709 O 1672.74 -0.825859 1.61398 0
M  V30 16710 C 1672.79 2.5591 2.54052 0
M  V30 16711 O 1671.89 2.09208 3.55395 0
M  V30 16712 H 1671.23 0.522614 0.409598 0
M  V30 16713 H 1673.76 1.9186 0.710697 0
M  V30 16714 H 1673.77 2.75424 3.01008 0
M  V30 16715 H 1672.45 3.54619 2.17298 0
M  V30 16716 H 1671.02 1.9967 3.14939 0
M  V30 16717 N 1673.21 -0.830057 1.33969 0
M  V30 16718 C 1674.49 -1.57112 1.16513 0
M  V30 16719 C 1674.87 -2.09429 -0.265075 0
M  V30 16720 O 1674.21 -1.90263 -1.26539 0
M  V30 16721 C 1674.42 -2.69808 2.2137 0
M  V30 16722 C 1675.77 -3.38761 2.55981 0
M  V30 16723 O 1676.8 -2.80058 2.20104 0
M  V30 16724 O 1675.66 -4.44753 3.1758 0
M  V30 16725 H 1672.75 -0.693066 0.451207 0
M  V30 16726 H 1675.3 -0.872048 1.4558 0
M  V30 16727 H 1674.07 -2.28852 3.17399 0
M  V30 16728 H 1673.69 -3.47372 1.93439 0
M  V30 16729 N 1674.69 -1.17582 -1.04939 0
M  V30 16730 C 1675.65 -0.897095 -2.10914 0
M  V30 16731 C 1676.65 0.113823 -1.60397 0
M  V30 16732 O 1677.84 -0.118635 -1.73796 0
M  V30 16733 C 1674.97 -0.344251 -3.39157 0
M  V30 16734 H 1676.17 -1.83674 -2.37074 0
M  V30 16735 H 1673.72 -0.986634 -1.21224 0
M  V30 16736 H 1674.45 0.602417 -3.18656 0
M  V30 16737 H 1674.24 -1.07287 -3.77137 0
M  V30 16738 H 1675.73 -0.167644 -4.17263 0
M  V30 16739 N 1676.17 1.23705 -0.976463 0
M  V30 16740 C 1677.08 2.28728 -0.521605 0
M  V30 16741 C 1678.09 1.68813 0.421691 0
M  V30 16742 O 1679.27 1.99263 0.292579 0
M  V30 16743 C 1676.33 3.4627 0.172545 0
M  V30 16744 C 1675.39 4.21557 -0.811664 0
M  V30 16745 C 1674.63 5.33488 -0.150546 0
M  V30 16746 O 1674.85 5.60478 1.05926 0
M  V30 16747 O 1673.78 5.95909 -0.847132 0
M  V30 16748 H 1677.61 2.6977 -1.39491 0
M  V30 16749 H 1675.19 1.29562 -0.743909 0
M  V30 16750 H 1677.08 4.17634 0.562103 0
M  V30 16751 H 1675.75 3.07187 1.02067 0
M  V30 16752 H 1674.66 3.52533 -1.25185 0
M  V30 16753 H 1675.99 4.6448 -1.62848 0
M  V30 16754 N 1677.64 0.747635 1.38738 0
M  V30 16755 C 1678.89 0.300552 1.99853 0
M  V30 16756 C 1679.21 -1.11986 1.59638 0
M  V30 16757 O 1678.48 -1.76477 0.850447 0
M  V30 16758 H 1677.06 0.108134 0.739132 0
M  V30 16759 H 1679.72 0.960405 1.69594 0
M  V30 16760 H 1678.82 0.358956 3.10029 0
M  V30 16761 N 1679.12 -1.49583 0.496242 0
M  V30 16762 C 1680.35 -2.06847 -0.0469118 0
M  V30 16763 C 1680.76 -1.35715 -1.31251 0
M  V30 16764 O 1680.12 -0.434021 -1.77264 0
M  V30 16765 C 1680.17 -3.60174 -0.309338 0
M  V30 16766 O 1679.89 -4.28628 0.906082 0
M  V30 16767 C 1681.39 -4.34137 -0.896664 0
M  V30 16768 H 1678.61 -0.67075 0.0183324 0
M  V30 16769 H 1681.16 -1.92427 0.692237 0
M  V30 16770 H 1679.31 -3.74312 -0.998459 0
M  V30 16771 H 1679.73 -5.20254 0.666014 0
M  V30 16772 H 1681.2 -5.42307 -1.0299 0
M  V30 16773 H 1681.68 -3.96299 -1.89325 0
M  V30 16774 H 1682.28 -4.24593 -0.245158 0
M  V30 16775 N 1680.6 -0.229873 -1.55915 0
M  V30 16776 C 1681.56 0.663347 -2.19391 0
M  V30 16777 C 1682.56 1.11548 -1.15818 0
M  V30 16778 O 1683.75 1.02294 -1.41002 0
M  V30 16779 C 1680.88 1.9097 -2.82389 0
M  V30 16780 H 1682.08 0.109797 -2.99699 0
M  V30 16781 H 1679.63 0.0197234 -1.56288 0
M  V30 16782 H 1680.37 2.50491 -2.05973 0
M  V30 16783 H 1680.15 1.59388 -3.58243 0
M  V30 16784 H 1681.64 2.5459 -3.31019 0
M  V30 16785 N 1682.08 1.5754 0.0434337 0
M  V30 16786 C 1683.32 1.88887 0.7382 0
M  V30 16787 C 1683.66 0.825827 1.75766 0
M  V30 16788 O 1682.93 -0.160797 1.93834 0
M  V30 16789 C 1683.21 3.30889 1.42072 0
M  V30 16790 C 1683.07 4.47874 0.415754 0
M  V30 16791 C 1684.39 3.71571 2.35846 0
M  V30 16792 H 1681.51 0.686975 0.266897 0
M  V30 16793 H 1684.15 1.9 0.00106957 0
M  V30 16794 H 1682.3 3.30071 2.04903 0
M  V30 16795 H 1683.97 4.60824 -0.209529 0
M  V30 16796 H 1682.21 4.32982 -0.266346 0
M  V30 16797 H 1682.88 5.44084 0.931509 0
M  V30 16798 H 1685.36 3.73663 1.83071 0
M  V30 16799 H 1684.24 4.71763 2.80589 0
M  V30 16800 H 1684.5 3.03041 3.21898 0
M  V30 16801 N 1683.56 -0.31543 1.54411 0
M  V30 16802 C 1684.52 -1.37154 1.83634 0
M  V30 16803 C 1685.52 -1.44349 0.708518 0
M  V30 16804 O 1686.71 -1.44235 0.976824 0
M  V30 16805 C 1683.84 -2.758 2.00368 0
M  V30 16806 H 1685.03 -1.12493 2.78002 0
M  V30 16807 H 1682.59 -0.551346 1.46253 0
M  V30 16808 H 1683.32 -3.05704 1.08238 0
M  V30 16809 H 1683.11 -2.7197 2.82445 0
M  V30 16810 H 1684.6 -3.52187 2.24397 0
M  V30 16811 N 1685.03 -1.46622 -0.577906 0
M  V30 16812 C 1686.45 -1.46287 -1.16004 0
M  V30 16813 C 1686.8 -0.206307 -1.95112 0
M  V30 16814 O 1685.92 0.690275 -2.05096 0
M  V30 16815 C 1686.52 -2.65042 -2.1104 0
M  V30 16816 C 1685.08 -2.67733 -2.64567 0
M  V30 16817 C 1684.22 -2.39053 -1.40531 0
M  V30 16818 H 1687.17 -1.54432 -0.365585 0
M  V30 16819 H 1687.19 -2.40834 -2.94583 0
M  V30 16820 H 1686.71 -3.56481 -1.53436 0
M  V30 16821 H 1684.81 -1.80379 -3.26028 0
M  V30 16822 H 1684.92 -3.67836 -3.06974 0
M  V30 16823 H 1683.28 -1.89209 -1.70506 0
M  V30 16824 H 1684.07 -3.32674 -0.847509 0
M  V30 16825 N 1686.51 0.822941 -1.34408 0
M  V30 16826 C 1687.92 1.39571 -1.24003 0
M  V30 16827 C 1688.27 1.95739 0.134483 0
M  V30 16828 O 1687.4 1.90054 1.03481 0
M  V30 16829 C 1687.99 2.53726 -2.24519 0
M  V30 16830 C 1686.55 3.06911 -2.17905 0
M  V30 16831 C 1685.7 1.79783 -2.11124 0
M  V30 16832 H 1688.65 0.62734 -1.45774 0
M  V30 16833 H 1688.67 3.31818 -1.86217 0
M  V30 16834 H 1688.18 2.12816 -3.24547 0
M  V30 16835 H 1686.29 3.52326 -1.21233 0
M  V30 16836 H 1686.4 3.66003 -3.09158 0
M  V30 16837 H 1684.76 2.00679 -1.56845 0
M  V30 16838 H 1685.55 1.41047 -3.12987 0
M  V30 16839 N 1687.99 1.18137 1.04314 0
M  V30 16840 C 1689.22 1.00002 1.81128 0
M  V30 16841 C 1689.63 -0.451609 1.83319 0
M  V30 16842 O 1688.99 -1.31367 1.26685 0
M  V30 16843 C 1689.04 1.54454 3.26843 0
M  V30 16844 O 1688.76 2.93933 3.24861 0
M  V30 16845 C 1690.26 1.40902 4.20311 0
M  V30 16846 H 1687.48 0.35327 0.570475 0
M  V30 16847 H 1690.03 1.56629 1.31482 0
M  V30 16848 H 1688.18 1.02009 3.73728 0
M  V30 16849 H 1688.6 3.19279 4.16127 0
M  V30 16850 H 1690.07 1.83803 5.205 0
M  V30 16851 H 1690.55 0.357371 4.37744 0
M  V30 16852 H 1691.15 1.92407 3.79288 0
M  V30 16853 N 1689.47 -1.23186 0.98301 0
M  V30 16854 C 1690.71 -1.91955 0.65431 0
M  V30 16855 C 1691.05 -1.76482 -0.810419 0
M  V30 16856 O 1690.32 -1.12744 -1.5849 0
M  V30 16857 C 1690.61 -3.4449 1.04873 0
M  V30 16858 C 1690.46 -3.6906 2.57128 0
M  V30 16859 C 1691.78 -4.36065 0.594578 0
M  V30 16860 H 1688.9 -0.69711 0.239179 0
M  V30 16861 H 1691.54 -1.45257 1.22476 0
M  V30 16862 H 1689.69 -3.84394 0.563333 0
M  V30 16863 H 1691.36 -3.38622 3.13262 0
M  V30 16864 H 1689.6 -3.13681 2.99644 0
M  V30 16865 H 1690.27 -4.75846 2.79776 0
M  V30 16866 H 1692.75 -4.03622 1.01136 0
M  V30 16867 H 1691.63 -5.41489 0.898955 0
M  V30 16868 H 1691.89 -4.39206 -0.505033 0
M  V30 16869 N 1690.95 -0.754982 -1.38339 0
M  V30 16870 C 1692.17 -0.322624 -2.04369 0
M  V30 16871 C 1692.59 1.04951 -1.56942 0
M  V30 16872 O 1691.95 1.66686 -0.743109 0
M  V30 16873 C 1692 -0.337767 -3.59919 0
M  V30 16874 O 1691.72 -1.65576 -4.05606 0
M  V30 16875 C 1693.22 0.108281 -4.43168 0
M  V30 16876 H 1690.44 -0.137626 -0.656734 0
M  V30 16877 H 1692.98 -1.02422 -1.77003 0
M  V30 16878 H 1691.14 0.315106 -3.86116 0
M  V30 16879 H 1691.55 -1.5829 -5.00045 0
M  V30 16880 H 1693.03 0.0465256 -5.5198 0
M  V30 16881 H 1693.5 1.15636 -4.23704 0
M  V30 16882 H 1694.11 -0.51577 -4.22161 0
M  V30 16883 N 1692.42 1.49318 -0.504168 0
M  V30 16884 C 1693.84 1.86612 -0.0571729 0
M  V30 16885 C 1694.19 1.4162 1.35787 0
M  V30 16886 O 1693.31 0.79548 2.01249 0
M  V30 16887 C 1693.91 3.38661 -0.0969773 0
M  V30 16888 C 1692.47 3.75245 0.294692 0
M  V30 16889 C 1691.61 2.7332 -0.468125 0
M  V30 16890 H 1694.56 1.4159 -0.716788 0
M  V30 16891 H 1694.58 3.74051 0.697569 0
M  V30 16892 H 1694.1 3.71377 -1.12698 0
M  V30 16893 H 1692.2 3.48138 1.32781 0
M  V30 16894 H 1692.31 4.79092 -0.0269621 0
M  V30 16895 H 1690.67 2.54567 0.0824379 0
M  V30 16896 H 1691.46 3.0888 -1.49827 0
M  V30 16897 N 1693.9 0.238138 1.5579 0
M  V30 16898 C 1695.15 -0.389608 1.99022 0
M  V30 16899 C 1695.48 -1.58226 1.12597 0
M  V30 16900 O 1694.76 -1.93595 0.187363 0
M  V30 16901 C 1695.04 -0.808025 3.50917 0
M  V30 16902 C 1694.89 0.389417 4.48111 0
M  V30 16903 C 1696.21 -1.6582 4.07666 0
M  V30 16904 H 1693.33 -0.140141 0.723553 0
M  V30 16905 H 1695.97 0.337696 1.86975 0
M  V30 16906 H 1694.12 -1.42772 3.61315 0
M  V30 16907 H 1695.79 1.02777 4.49705 0
M  V30 16908 H 1694.04 1.03404 4.21296 0
M  V30 16909 H 1694.71 0.0534549 5.51974 0
M  V30 16910 H 1697.18 -1.13518 4.00316 0
M  V30 16911 H 1696.06 -1.91984 5.14231 0
M  V30 16912 H 1696.32 -2.62712 3.55577 0
M  V30 16913 N 1695.38 -1.57561 -0.0350783 0
M  V30 16914 C 1696.79 -1.77383 -0.582437 0
M  V30 16915 C 1697.14 -0.868453 -1.75933 0
M  V30 16916 O 1696.27 -0.061745 -2.16312 0
M  V30 16917 C 1696.86 -3.2168 -1.06337 0
M  V30 16918 C 1695.42 -3.42719 -1.55629 0
M  V30 16919 C 1694.57 -2.72906 -0.4917 0
M  V30 16920 H 1697.52 -1.57545 0.19115 0
M  V30 16921 H 1697.54 -3.27863 -1.93097 0
M  V30 16922 H 1697.05 -3.8755 -0.206603 0
M  V30 16923 H 1695.15 -2.82016 -2.43511 0
M  V30 16924 H 1695.27 -4.51312 -1.60794 0
M  V30 16925 H 1693.63 -2.36506 -0.945349 0
M  V30 16926 H 1694.41 -3.41454 0.355502 0
M  V30 16927 N 1696.86 0.307236 -1.54576 0
M  V30 16928 C 1698.08 1.06668 -1.77867 0
M  V30 16929 C 1698.51 1.80375 -0.533536 0
M  V30 16930 O 1697.87 1.73812 0.515663 0
M  V30 16931 C 1697.91 2.02777 -2.98184 0
M  V30 16932 O 1697.02 3.10969 -2.70872 0
M  V30 16933 H 1696.36 0.306741 -0.588902 0
M  V30 16934 H 1698.89 0.346557 -2.01644 0
M  V30 16935 H 1698.9 2.45355 -3.25983 0
M  V30 16936 H 1697.57 1.48534 -3.88472 0
M  V30 16937 H 1696.15 2.7295 -2.54072 0
M  V30 16938 N 1698.34 1.46926 0.570122 0
M  V30 16939 C 1699.27 1.61311 1.68822 0
M  V30 16940 C 1700.25 0.462964 1.63678 0
M  V30 16941 O 1701.43 0.690745 1.815 0
M  V30 16942 C 1698.56 1.61499 3.07466 0
M  V30 16943 C 1697.52 2.7561 3.27449 0
M  V30 16944 C 1696.84 2.60865 4.66748 0
M  V30 16945 C 1698.14 4.17324 3.14067 0
M  V30 16946 H 1699.84 2.54909 1.5704 0
M  V30 16947 H 1697.38 1.22677 0.754077 0
M  V30 16948 H 1699.34 1.70155 3.8552 0
M  V30 16949 H 1698.06 0.64453 3.20177 0
M  V30 16950 H 1696.72 2.66444 2.51799 0
M  V30 16951 H 1696.37 1.61875 4.76241 0
M  V30 16952 H 1696.07 3.37411 4.81069 0
M  V30 16953 H 1697.59 2.7143 5.46954 0
M  V30 16954 H 1699 4.27534 3.81952 0
M  V30 16955 H 1697.4 4.94555 3.39905 0
M  V30 16956 H 1698.47 4.36596 2.10979 0
M  V30 16957 N 1699.82 -0.815801 1.34842 0
M  V30 16958 C 1700.73 -1.95886 1.29097 0
M  V30 16959 C 1701.74 -1.72876 0.197422 0
M  V30 16960 O 1702.92 -1.96861 0.425166 0
M  V30 16961 C 1699.98 -3.30311 1.05336 0
M  V30 16962 C 1699.04 -3.66279 2.23916 0
M  V30 16963 C 1698.28 -4.9429 2.01279 0
M  V30 16964 O 1698.5 -5.62012 0.974603 0
M  V30 16965 O 1697.43 -5.28302 2.88411 0
M  V30 16966 H 1701.26 -2.03678 2.25276 0
M  V30 16967 H 1698.84 -0.952243 1.1512 0
M  V30 16968 H 1700.73 -4.10806 0.938961 0
M  V30 16969 H 1699.4 -3.2347 0.122024 0
M  V30 16970 H 1698.31 -2.86198 2.40918 0
M  V30 16971 H 1699.64 -3.77814 3.15464 0
M  V30 16972 N 1701.29 -1.18689 -1.03686 0
M  V30 16973 C 1702.26 -0.919415 -2.09951 0
M  V30 16974 C 1703.26 0.0968042 -1.60508 0
M  V30 16975 O 1704.45 -0.137062 -1.7366 0
M  V30 16976 C 1701.58 -0.380204 -3.38773 0
M  V30 16977 H 1702.77 -1.86178 -2.35112 0
M  V30 16978 H 1700.32 -0.999435 -1.20171 0
M  V30 16979 H 1701.06 0.568586 -3.19277 0
M  V30 16980 H 1700.84 -1.11281 -3.75977 0
M  V30 16981 H 1702.33 -0.211891 -4.17062 0
M  V30 16982 N 1702.77 1.22662 -0.989529 0
M  V30 16983 C 1704.18 1.73116 -0.699124 0
M  V30 16984 C 1704.53 1.79847 0.784197 0
M  V30 16985 O 1703.66 1.44248 1.61311 0
M  V30 16986 C 1704.25 3.14403 -1.2624 0
M  V30 16987 C 1702.81 3.62275 -1.02144 0
M  V30 16988 C 1701.96 2.40257 -1.38463 0
M  V30 16989 H 1704.91 1.08057 -1.1623 0
M  V30 16990 H 1704.93 3.75091 -0.639307 0
M  V30 16991 H 1704.44 3.09472 -2.34198 0
M  V30 16992 H 1702.54 3.72577 0.0416622 0
M  V30 16993 H 1702.66 4.48587 -1.68245 0
M  V30 16994 H 1701.02 2.41705 -0.803179 0
M  V30 16995 H 1701.8 2.3799 -2.47418 0
M  V30 16996 N 1704.25 0.762308 1.37937 0
M  V30 16997 C 1705.47 0.332217 2.04722 0
M  V30 16998 C 1705.9 -1.03417 1.57119 0
M  V30 16999 O 1705.26 -1.6608 0.727117 0
M  V30 17000 C 1705.31 0.373899 3.58656 0
M  V30 17001 O 1704.41 -0.629024 4.07575 0
M  V30 17002 H 1703.75 0.145471 0.647869 0
M  V30 17003 H 1706.28 1.03586 1.7644 0
M  V30 17004 H 1706.29 0.22785 4.07363 0
M  V30 17005 H 1704.97 1.37079 3.92661 0
M  V30 17006 H 1703.54 -0.446871 3.70213 0
M  V30 17007 N 1705.73 -1.49049 0.51208 0
M  V30 17008 C 1706.64 -2.33102 -0.264695 0
M  V30 17009 C 1707.65 -1.45347 -0.956571 0
M  V30 17010 O 1708.83 -1.78355 -0.935501 0
M  V30 17011 C 1705.89 -3.21051 -1.30871 0
M  V30 17012 C 1704.96 -4.24666 -0.629094 0
M  V30 17013 C 1704.19 -5.08412 -1.62337 0
M  V30 17014 O 1704.41 -4.93847 -2.85432 0
M  V30 17015 O 1703.35 -5.90368 -1.17259 0
M  V30 17016 H 1707.17 -3.00732 0.423585 0
M  V30 17017 H 1704.76 -1.4688 0.273246 0
M  V30 17018 H 1706.64 -3.75503 -1.91248 0
M  V30 17019 H 1705.31 -2.56103 -1.97972 0
M  V30 17020 H 1704.22 -3.74097 0.0147056 0
M  V30 17021 H 1705.55 -4.922 -0.000339859 0
M  V30 17022 N 1707.21 -0.246397 -1.55662 0
M  V30 17023 C 1708.14 0.686113 -2.1869 0
M  V30 17024 C 1709.15 1.13915 -1.16306 0
M  V30 17025 O 1710.34 1.06601 -1.43173 0
M  V30 17026 C 1707.44 1.94426 -2.77582 0
M  V30 17027 C 1706.61 1.64275 -4.0538 0
M  V30 17028 C 1705.67 2.75044 -4.48595 0
M  V30 17029 O 1704.7 2.42451 -5.14982 0
M  V30 17030 N 1705.9 4.04528 -4.16338 0
M  V30 17031 H 1708.66 0.146832 -2.9934 0
M  V30 17032 H 1706.23 -0.0663398 -1.61764 0
M  V30 17033 H 1708.22 2.67768 -3.0345 0
M  V30 17034 H 1706.79 2.39334 -2.01091 0
M  V30 17035 H 1706.01 0.744531 -3.87105 0
M  V30 17036 H 1707.3 1.41594 -4.88701 0
M  V30 17037 H 1706.69 4.33841 -3.6304 0
M  V30 17038 H 1705.25 4.74337 -4.47043 0
M  V30 17039 N 1708.68 1.57577 0.026722 0
M  V30 17040 C 1709.65 2.05684 1.01127 0
M  V30 17041 C 1710.65 0.961373 1.28896 0
M  V30 17042 O 1711.84 1.22491 1.23861 0
M  V30 17043 C 1708.97 2.47576 2.34348 0
M  V30 17044 H 1710.16 2.93925 0.595681 0
M  V30 17045 H 1707.71 1.53887 0.273603 0
M  V30 17046 H 1708.45 1.62498 2.80651 0
M  V30 17047 H 1708.23 3.27556 2.15521 0
M  V30 17048 H 1709.72 2.85214 3.05029 0
M  V30 17049 N 1710.16 -0.299034 1.54737 0
M  V30 17050 C 1711.57 -0.871897 1.6509 0
M  V30 17051 C 1711.92 -1.88013 0.560843 0
M  V30 17052 O 1711.05 -2.1428 -0.302194 0
M  V30 17053 C 1711.64 -1.5882 2.99269 0
M  V30 17054 C 1710.2 -2.10944 3.11736 0
M  V30 17055 C 1709.35 -0.942776 2.60782 0
M  V30 17056 H 1712.3 -0.0759883 1.58518 0
M  V30 17057 H 1712.32 -2.45387 2.90802 0
M  V30 17058 H 1711.83 -0.854144 3.78584 0
M  V30 17059 H 1709.93 -2.87391 2.37144 0
M  V30 17060 H 1710.05 -2.34262 4.17921 0
M  V30 17061 H 1708.41 -1.3289 2.17284 0
M  V30 17062 H 1709.19 -0.222646 3.42577 0
M  V30 17063 N 1711.64 -1.47227 -0.562322 0
M  V30 17064 C 1712.87 -1.57196 -1.34526 0
M  V30 17065 C 1713.28 -0.220303 -1.8751 0
M  V30 17066 O 1712.64 0.785664 -1.64723 0
M  V30 17067 C 1712.69 -2.59312 -2.51872 0
M  V30 17068 O 1712.41 -3.89229 -2.01078 0
M  V30 17069 C 1713.91 -2.79416 -3.44153 0
M  V30 17070 H 1711.13 -0.530971 -0.410257 0
M  V30 17071 H 1713.68 -1.92804 -0.68168 0
M  V30 17072 H 1711.83 -2.26652 -3.14178 0
M  V30 17073 H 1712.25 -4.44985 -2.77648 0
M  V30 17074 H 1713.72 -3.54743 -4.2292 0
M  V30 17075 H 1714.2 -1.87054 -3.97376 0
M  V30 17076 H 1714.8 -3.13254 -2.87667 0
M  V30 17077 N 1713.12 0.808639 -1.35273 0
M  V30 17078 C 1714.03 1.95198 -1.30134 0
M  V30 17079 C 1715.04 1.72769 -0.206587 0
M  V30 17080 O 1716.22 1.96633 -0.4356 0
M  V30 17081 C 1713.28 3.29747 -1.07087 0
M  V30 17082 C 1712.35 3.65086 -2.25855 0
M  V30 17083 C 1711.58 4.93215 -2.03898 0
M  V30 17084 O 1711.8 5.61487 -1.00439 0
M  V30 17085 O 1710.74 5.26765 -2.91208 0
M  V30 17086 H 1714.56 2.0248 -2.26353 0
M  V30 17087 H 1712.15 0.946124 -1.15624 0
M  V30 17088 H 1714.03 4.10302 -0.960734 0
M  V30 17089 H 1712.7 3.23401 -0.139177 0
M  V30 17090 H 1711.61 2.84917 -2.42432 0
M  V30 17091 H 1712.94 3.76135 -3.17464 0
M  V30 17092 N 1714.6 1.19237 1.03055 0
M  V30 17093 C 1715.53 0.886348 2.11368 0
M  V30 17094 C 1716.54 -0.120256 1.62355 0
M  V30 17095 O 1717.73 0.108934 1.78167 0
M  V30 17096 C 1714.83 0.304819 3.37526 0
M  V30 17097 C 1714 1.35957 4.15734 0
M  V30 17098 C 1713.06 0.791885 5.20207 0
M  V30 17099 O 1712.09 1.46916 5.49913 0
M  V30 17100 N 1713.29 -0.40564 5.79081 0
M  V30 17101 H 1716.06 1.81867 2.38211 0
M  V30 17102 H 1713.62 1.09414 1.19332 0
M  V30 17103 H 1715.61 -0.0887629 4.04603 0
M  V30 17104 H 1714.18 -0.531744 3.08044 0
M  V30 17105 H 1713.4 1.92806 3.43831 0
M  V30 17106 H 1714.69 2.07034 4.64773 0
M  V30 17107 H 1714.08 -0.973423 5.57262 0
M  V30 17108 H 1712.64 -0.741021 6.47574 0
M  V30 17109 N 1716.07 -1.22136 0.99602 0
M  V30 17110 C 1717.49 -1.43072 0.707285 0
M  V30 17111 C 1717.69 -1.88163 -0.720906 0
M  V30 17112 O 1716.75 -2.03747 -1.49142 0
M  V30 17113 C 1718.06 -2.46963 1.71551 0
M  V30 17114 C 1719.61 -2.60758 1.73131 0
M  V30 17115 C 1720.08 -3.67873 2.72825 0
M  V30 17116 N 1721.57 -3.75334 2.71438 0
M  V30 17117 C 1722.31 -4.57817 3.45241 0
M  V30 17118 N 1721.8 -5.44268 4.28654 0
M  V30 17119 N 1723.6 -4.52157 3.33932 0
M  V30 17120 H 1715.75 -0.911751 1.91836 0
M  V30 17121 H 1718.01 -0.462523 0.827512 0
M  V30 17122 H 1717.72 -2.20784 2.73765 0
M  V30 17123 H 1717.59 -3.45618 1.51089 0
M  V30 17124 H 1719.98 -2.86279 0.716132 0
M  V30 17125 H 1720.06 -1.62367 1.97663 0
M  V30 17126 H 1719.7 -3.43098 3.74494 0
M  V30 17127 H 1719.63 -4.6584 2.45562 0
M  V30 17128 H 1722.12 -3.13566 2.10915 0
M  V30 17129 H 1722.44 -6.04236 4.81786 0
M  V30 17130 H 1720.78 -5.43839 4.3274 0
M  V30 17131 H 1723.97 -3.83645 2.68206 0
M  V30 17132 H 1724.15 -5.16207 3.91707 0
M  V30 17133 N 1717.55 -0.769612 -1.37531 0
M  V30 17134 C 1718.96 -0.398644 -1.82394 0
M  V30 17135 C 1719.31 1.07493 -1.64133 0
M  V30 17136 O 1718.44 1.83234 -1.15127 0
M  V30 17137 C 1719.03 -0.716789 -3.31131 0
M  V30 17138 C 1717.59 -0.398903 -3.7428 0
M  V30 17139 C 1716.74 -0.96173 -2.60089 0
M  V30 17140 H 1719.69 -0.964441 -1.26033 0
M  V30 17141 H 1719.71 -0.00067688 -3.805 0
M  V30 17142 H 1719.22 -1.78933 -3.4439 0
M  V30 17143 H 1717.33 0.666412 -3.66592 0
M  V30 17144 H 1717.44 -0.90566 -4.70462 0
M  V30 17145 H 1715.8 -0.386103 -2.51757 0
M  V30 17146 H 1716.59 -2.03963 -2.76141 0
M  V30 17147 N 1719.03 1.48775 -0.519977 0
M  V30 17148 C 1720.28 2.02092 0.0177154 0
M  V30 17149 C 1720.6 1.40024 1.35714 0
M  V30 17150 O 1719.87 0.562115 1.87662 0
M  V30 17151 H 1718.45 0.746939 0.00953578 0
M  V30 17152 H 1721.11 1.82595 -0.681535 0
M  V30 17153 H 1720.21 3.11815 0.133431 0
M  V30 17154 N 1720.51 0.254649 1.55529 0
M  V30 17155 C 1721.75 -0.368477 1.99424 0
M  V30 17156 C 1722.09 -1.57023 1.14269 0
M  V30 17157 O 1721.36 -1.93386 0.207886 0
M  V30 17158 C 1721.65 -0.77076 3.51755 0
M  V30 17159 C 1721.5 0.436923 4.47673 0
M  V30 17160 C 1722.82 -1.61487 4.09402 0
M  V30 17161 H 1719.94 -0.132459 0.724999 0
M  V30 17162 H 1722.58 0.357508 1.86606 0
M  V30 17163 H 1720.73 -1.38932 3.62809 0
M  V30 17164 H 1722.4 1.07541 4.4859 0
M  V30 17165 H 1720.64 1.07866 4.20175 0
M  V30 17166 H 1721.31 0.111996 5.51886 0
M  V30 17167 H 1723.79 -1.09265 4.01498 0
M  V30 17168 H 1722.67 -1.86519 5.16238 0
M  V30 17169 H 1722.93 -2.58926 3.58343 0
M  V30 17170 N 1721.99 -1.57589 -0.0183649 0
M  V30 17171 C 1722.92 -2.04071 -1.04343 0
M  V30 17172 C 1723.93 -0.955366 -1.3182 0
M  V30 17173 O 1725.12 -1.23249 -1.29119 0
M  V30 17174 C 1722.22 -2.41011 -2.38258 0
M  V30 17175 C 1721.39 -3.72057 -2.29984 0
M  V30 17176 C 1720.45 -3.96067 -3.46435 0
M  V30 17177 O 1719.48 -4.66982 -3.25447 0
M  V30 17178 N 1720.68 -3.42535 -4.68669 0
M  V30 17179 H 1723.45 -2.92629 -0.647168 0
M  V30 17180 H 1721.01 -1.60583 -0.20611 0
M  V30 17181 H 1723 -2.54203 -3.14902 0
M  V30 17182 H 1721.57 -1.58068 -2.69691 0
M  V30 17183 H 1720.79 -3.69117 -1.38369 0
M  V30 17184 H 1722.08 -4.58003 -2.2161 0
M  V30 17185 H 1721.47 -2.85073 -4.8862 0
M  V30 17186 H 1720.03 -3.61087 -5.42641 0
M  V30 17187 N 1723.46 0.290824 -1.54893 0
M  V30 17188 C 1724.37 1.38137 -1.89619 0
M  V30 17189 C 1725.39 1.54959 -0.791432 0
M  V30 17190 O 1726.57 1.69428 -1.08885 0
M  V30 17191 C 1723.63 2.72353 -2.14534 0
M  V30 17192 C 1722.69 2.64429 -3.38195 0
M  V30 17193 C 1721.93 3.92244 -3.61912 0
M  V30 17194 O 1722.15 4.92088 -2.88454 0
M  V30 17195 O 1721.08 3.93523 -4.55438 0
M  V30 17196 H 1724.91 1.11688 -2.82417 0
M  V30 17197 H 1722.49 0.487789 -1.41213 0
M  V30 17198 H 1724.38 3.51745 -2.32064 0
M  V30 17199 H 1723.05 2.98624 -1.24921 0
M  V30 17200 H 1721.96 1.83474 -3.26018 0
M  V30 17201 H 1723.29 2.43109 -4.2797 0
M  V30 17202 N 1724.94 1.47523 0.554506 0
M  V30 17203 C 1726.18 1.55867 1.32231 0
M  V30 17204 C 1726.55 0.216987 1.9077 0
M  V30 17205 O 1727.75 0.175283 2.68228 0
M  V30 17206 C 1726.02 2.64761 2.40076 0
M  V30 17207 S 1727.58 2.92706 3.26908 0
M  V30 17208 H 1724.4 0.550369 0.450128 0
M  V30 17209 H 1727 1.84917 0.634504 0
M  V30 17210 H 1725.7 3.60838 1.95509 0
M  V30 17211 H 1725.23 2.37534 3.13594 0
M  V30 17212 H 1727.25 2.30127 4.39609 0
M  V30 17213 N 1726.42 -0.801453 1.357 0
M  V30 17214 C 1727.65 -1.58771 1.32194 0
M  V30 17215 C 1728.06 -1.88927 -0.101529 0
M  V30 17216 O 1727.4 -1.49649 -1.0654 0
M  V30 17217 C 1727.46 -2.94186 2.06627 0
M  V30 17218 C 1727.13 -2.86819 3.55786 0
M  V30 17219 C 1728.12 -2.59898 4.50276 0
M  V30 17220 C 1725.81 -3.05775 3.98506 0
M  V30 17221 C 1727.8 -2.52017 5.85462 0
M  V30 17222 C 1725.49 -2.97516 5.33786 0
M  V30 17223 C 1726.49 -2.70673 6.27076 0
M  V30 17224 O 1726.18 -2.62387 7.59874 0
M  V30 17225 H 1725.91 -0.499518 0.455475 0
M  V30 17226 H 1728.46 -1.00358 1.79213 0
M  V30 17227 H 1726.69 -3.54602 1.54253 0
M  V30 17228 H 1728.38 -3.55368 1.96133 0
M  V30 17229 H 1729.15 -2.44968 4.18588 0
M  V30 17230 H 1725.03 -3.25678 3.26274 0
M  V30 17231 H 1728.57 -2.30985 6.58249 0
M  V30 17232 H 1724.47 -3.12006 5.65086 0
M  V30 17233 H 1725.24 -2.77957 7.69859 0
M  V30 17234 N 1727.9 -1.19782 -1.02421 0
M  V30 17235 C 1728.85 -0.907509 -2.09161 0
M  V30 17236 C 1729.83 0.129596 -1.60377 0
M  V30 17237 O 1731.02 -0.0767382 -1.76834 0
M  V30 17238 C 1728.15 -0.453095 -3.40297 0
M  V30 17239 C 1727.24 -1.5232 -3.95802 0
M  V30 17240 N 1727.63 -2.74379 -4.24912 0
M  V30 17241 C 1725.93 -1.38758 -4.23866 0
M  V30 17242 C 1726.63 -3.43348 -4.6956 0
M  V30 17243 N 1725.61 -2.70749 -4.71376 0
M  V30 17244 H 1729.41 -1.83512 -2.29566 0
M  V30 17245 H 1726.92 -1.09068 -1.20324 0
M  V30 17246 H 1728.92 -0.226551 -4.16284 0
M  V30 17247 H 1727.58 0.467983 -3.2131 0
M  V30 17248 H 1728.59 -3.11099 -4.1405 0
M  V30 17249 H 1725.27 -0.530327 -4.14118 0
M  V30 17250 H 1726.66 -4.47753 -5.00966 0
M  V30 17251 N 1729.38 1.21606 -1.00248 0
M  V30 17252 C 1730.63 1.90231 -0.682401 0
M  V30 17253 C 1730.95 1.78324 0.78903 0
M  V30 17254 O 1730.22 1.17653 1.56635 0
M  V30 17255 H 1728.8 0.704132 -0.249414 0
M  V30 17256 H 1731.46 1.47751 -1.27105 0
M  V30 17257 H 1730.55 2.97183 -0.953351 0
M  V30 17258 N 1730.86 0.776895 1.37121 0
M  V30 17259 C 1731.8 0.154521 2.32086 0
M  V30 17260 C 1732.8 -0.679155 1.5519 0
M  V30 17261 O 1734 -0.575641 1.70547 0
M  V30 17262 H 1730.38 0.0311849 0.751353 0
M  V30 17263 H 1732.35 0.971125 2.82156 0
M  V30 17264 C 1731.1 -0.706165 3.40454 0
M  V30 17265 H 1730.42 -0.0740341 3.99731 0
M  V30 17266 H 1731.86 -1.10853 4.09253 0
M  V30 17267 C 1730.32 -1.85901 2.80967 0
M  V30 17268 O 1730.85 -2.95482 2.72128 0
M  V30 17269 N 1729.06 -1.66122 2.38436 0
M  V30 17270 H 1728.6 -0.769915 2.45825 0
M  V30 17271 H 1728.56 -2.43422 1.9898 0
M  V30 17272 N 1732.33 -1.48497 0.527859 0
M  V30 17273 C 1733.58 -2.02099 -0.00699772 0
M  V30 17274 C 1733.9 -1.40742 -1.34969 0
M  V30 17275 O 1733.17 -0.572059 -1.87361 0
M  V30 17276 H 1731.75 -0.746979 -0.00557445 0
M  V30 17277 H 1734.41 -1.82231 0.691209 0
M  V30 17278 H 1733.51 -3.11881 -0.116893 0
M  V30 17279 N 1733.81 -0.262893 -1.55392 0
M  V30 17280 C 1734.74 0.66288 -2.19405 0
M  V30 17281 C 1735.76 1.12675 -1.17508 0
M  V30 17282 O 1736.95 1.05077 -1.44295 0
M  V30 17283 C 1734.05 1.91471 -2.79628 0
M  V30 17284 C 1733.22 1.59966 -4.07099 0
M  V30 17285 C 1732.28 2.7027 -4.51487 0
M  V30 17286 O 1731.3 2.36976 -5.17524 0
M  V30 17287 N 1732.51 4.0009 -4.20605 0
M  V30 17288 H 1735.27 0.115075 -2.99479 0
M  V30 17289 H 1732.83 -0.0834933 -1.61685 0
M  V30 17290 H 1734.82 2.64535 -3.06273 0
M  V30 17291 H 1733.39 2.37188 -2.03619 0
M  V30 17292 H 1732.61 0.703431 -3.87873 0
M  V30 17293 H 1733.9 1.36402 -4.90175 0
M  V30 17294 H 1733.3 4.29966 -3.67621 0
M  V30 17295 H 1731.86 4.69569 -4.52049 0
M  V30 17296 N 1735.29 1.57597 0.0100073 0
M  V30 17297 C 1736.51 1.94801 0.711852 0
M  V30 17298 C 1736.94 0.864343 1.67065 0
M  V30 17299 O 1736.3 -0.178388 1.8042 0
M  V30 17300 C 1736.35 3.31094 1.42862 0
M  V30 17301 O 1735.45 3.2469 2.54264 0
M  V30 17302 H 1734.79 0.636207 0.190095 0
M  V30 17303 H 1737.32 2.04561 -0.0402016 0
M  V30 17304 H 1737.33 3.66428 1.79429 0
M  V30 17305 H 1736.01 4.09522 0.725549 0
M  V30 17306 H 1734.58 3.01017 2.20099 0
M  V30 17307 N 1736.77 -0.282606 1.55045 0
M  V30 17308 C 1738 -1.03245 1.78952 0
M  V30 17309 C 1738.41 -1.80777 0.558225 0
M  V30 17310 O 1737.75 -1.77264 -0.482009 0
M  V30 17311 C 1737.81 -2.04557 2.95629 0
M  V30 17312 C 1737.47 -1.46051 4.33034 0
M  V30 17313 C 1738.47 -0.881083 5.1238 0
M  V30 17314 C 1736.16 -1.4906 4.79673 0
M  V30 17315 C 1738.15 -0.339532 6.36495 0
M  V30 17316 C 1735.84 -0.945189 6.03746 0
M  V30 17317 C 1736.84 -0.370643 6.81994 0
M  V30 17318 O 1736.52 0.166447 8.03728 0
M  V30 17319 H 1736.26 -0.311139 0.60014 0
M  V30 17320 H 1738.81 -0.32175 2.02864 0
M  V30 17321 H 1737.04 -2.79359 2.67386 0
M  V30 17322 H 1738.73 -2.65592 3.06946 0
M  V30 17323 H 1739.49 -0.850602 4.77483 0
M  V30 17324 H 1735.37 -1.92719 4.18784 0
M  V30 17325 H 1738.92 0.109564 6.97514 0
M  V30 17326 H 1734.81 -0.972878 6.38126 0
M  V30 17327 H 1735.58 0.054892 8.18482 0
M  V30 17328 N 1738.25 -1.47815 -0.546675 0
M  V30 17329 C 1739.66 -1.33566 -0.873628 0
M  V30 17330 C 1739.86 -0.334067 -1.98711 0
M  V30 17331 O 1738.92 0.250675 -2.51253 0
M  V30 17332 C 1740.23 -2.73171 -1.25691 0
M  V30 17333 C 1741.78 -2.81535 -1.36774 0
M  V30 17334 C 1742.25 -4.21804 -1.78454 0
M  V30 17335 N 1743.74 -4.24396 -1.85586 0
M  V30 17336 C 1744.48 -5.29854 -2.19186 0
M  V30 17337 N 1743.98 -6.45606 -2.51326 0
M  V30 17338 N 1745.77 -5.17237 -2.2005 0
M  V30 17339 H 1737.92 -2.11564 0.188285 0
M  V30 17340 H 1740.18 -0.947754 0.0215773 0
M  V30 17341 H 1739.89 -3.47946 -0.512485 0
M  V30 17342 H 1739.76 -3.05622 -2.21077 0
M  V30 17343 H 1742.15 -2.07025 -2.10297 0
M  V30 17344 H 1742.23 -2.52724 -0.395504 0
M  V30 17345 H 1741.87 -4.96823 -1.05498 0
M  V30 17346 H 1741.8 -4.48046 -2.76699 0
M  V30 17347 H 1744.3 -3.40895 -1.63092 0
M  V30 17348 H 1744.61 -7.21825 -2.76022 0
M  V30 17349 H 1742.95 -6.48909 -2.48883 0
M  V30 17350 H 1746.14 -4.2583 -1.94387 0
M  V30 17351 H 1746.32 -5.99529 -2.45905 0
M  V30 17352 N 1739.72 0.794246 -1.36123 0
M  V30 17353 C 1740.97 1.54885 -1.29827 0
M  V30 17354 C 1741.29 1.94608 0.123517 0
M  V30 17355 O 1740.56 1.6457 1.06272 0
M  V30 17356 H 1739.14 0.574398 -0.477573 0
M  V30 17357 H 1741.8 0.946658 -1.70365 0
M  V30 17358 H 1740.9 2.45863 -1.92244 0
M  V30 17359 N 1741.2 1.20323 1.01785 0
M  V30 17360 C 1742.43 1.03821 1.78966 0
M  V30 17361 C 1742.84 -0.412622 1.84236 0
M  V30 17362 O 1742.2 -1.2865 1.29443 0
M  V30 17363 C 1742.25 1.61352 3.23493 0
M  V30 17364 O 1741.97 3.00758 3.18553 0
M  V30 17365 C 1743.47 1.49786 4.17228 0
M  V30 17366 H 1740.69 0.365291 0.562853 0
M  V30 17367 H 1743.24 1.59383 1.2813 0
M  V30 17368 H 1741.39 1.09913 3.71481 0
M  V30 17369 H 1741.81 3.28034 4.09261 0
M  V30 17370 H 1743.28 1.94802 5.16484 0
M  V30 17371 H 1743.76 0.450143 4.36887 0
M  V30 17372 H 1744.36 2.00409 3.75122 0
M  V30 17373 N 1742.68 -1.21073 1.00892 0
M  V30 17374 C 1743.91 -1.93952 0.71178 0
M  V30 17375 C 1744.32 -1.74538 -0.730278 0
M  V30 17376 O 1743.66 -1.05164 -1.50619 0
M  V30 17377 C 1743.72 -3.46502 0.957957 0
M  V30 17378 C 1743.39 -3.89669 2.38762 0
M  V30 17379 C 1744.38 -3.96053 3.36805 0
M  V30 17380 C 1742.07 -4.21873 2.72632 0
M  V30 17381 C 1744.06 -4.34042 4.66783 0
M  V30 17382 C 1741.75 -4.59538 4.02825 0
M  V30 17383 C 1742.75 -4.65593 4.99712 0
M  V30 17384 O 1742.44 -5.02398 6.27576 0
M  V30 17385 H 1742.17 -0.623495 0.261208 0
M  V30 17386 H 1744.72 -1.54728 1.35086 0
M  V30 17387 H 1742.95 -3.85813 0.261704 0
M  V30 17388 H 1744.64 -4.00603 0.653596 0
M  V30 17389 H 1745.41 -3.71346 3.11974 0
M  V30 17390 H 1741.29 -4.16356 1.97912 0
M  V30 17391 H 1744.83 -4.38683 5.42405 0
M  V30 17392 H 1740.73 -4.837 4.27439 0
M  V30 17393 H 1741.49 -5.20417 6.3175 0
M  V30 17394 N 1744.16 -0.784156 -1.36707 0
M  V30 17395 C 1745.38 -0.364744 -2.04168 0
M  V30 17396 C 1745.81 1.00905 -1.58745 0
M  V30 17397 O 1745.17 1.64903 -0.753447 0
M  V30 17398 C 1745.21 -0.43091 -3.58016 0
M  V30 17399 O 1744.32 0.564103 -4.08524 0
M  V30 17400 H 1743.66 -0.15576 -0.645473 0
M  V30 17401 H 1746.19 -1.0638 -1.74769 0
M  V30 17402 H 1746.2 -0.292629 -4.06949 0
M  V30 17403 H 1744.87 -1.43308 -3.9043 0
M  V30 17404 H 1743.45 0.387917 -3.70877 0
M  V30 17405 N 1745.64 1.48215 -0.535727 0
M  V30 17406 C 1746.86 2.06898 -0.0079465 0
M  V30 17407 C 1747.28 1.39148 1.27606 0
M  V30 17408 O 1746.64 0.480867 1.76051 0
M  V30 17409 C 1746.69 3.60868 0.213736 0
M  V30 17410 O 1746.41 4.26075 -1.01941 0
M  V30 17411 C 1747.91 4.36362 0.781245 0
M  V30 17412 H 1745.13 0.670028 -0.0361097 0
M  V30 17413 H 1747.67 1.90524 -0.743012 0
M  V30 17414 H 1745.83 3.76828 0.898866 0
M  V30 17415 H 1746.24 5.18306 -0.803716 0
M  V30 17416 H 1747.72 5.44847 0.885753 0
M  V30 17417 H 1748.19 4.01179 1.78751 0
M  V30 17418 H 1748.8 4.25094 0.132499 0
M  V30 17419 N 1747.11 0.27113 1.5525 0
M  V30 17420 C 1748.34 -0.350248 2.03914 0
M  V30 17421 C 1748.76 -1.49763 1.14963 0
M  V30 17422 O 1748.11 -1.81717 0.168923 0
M  V30 17423 C 1748.17 -0.835056 3.51723 0
M  V30 17424 O 1747.89 0.266625 4.37288 0
M  V30 17425 C 1749.39 -1.52466 4.16256 0
M  V30 17426 H 1746.61 -0.0803955 0.666166 0
M  V30 17427 H 1749.15 0.402063 2.00509 0
M  V30 17428 H 1747.31 -1.53747 3.55585 0
M  V30 17429 H 1747.72 -0.105433 5.24394 0
M  V30 17430 H 1749.19 -1.81534 5.21296 0
M  V30 17431 H 1749.67 -2.45485 3.64189 0
M  V30 17432 H 1750.28 -0.8662 4.16386 0
M  V30 17433 N 1748.59 -1.576 -0.00164943 0
M  V30 17434 C 1749.84 -1.90778 -0.68786 0
M  V30 17435 C 1750.17 -0.872138 -1.73515 0
M  V30 17436 O 1749.45 0.109349 -1.94192 0
M  V30 17437 C 1749.73 -3.34539 -1.3325 0
M  V30 17438 C 1749.58 -4.48819 -0.296862 0
M  V30 17439 C 1750.9 -3.77693 -2.25911 0
M  V30 17440 H 1748.02 -0.69381 -0.24859 0
M  V30 17441 H 1750.66 -1.89936 0.0493059 0
M  V30 17442 H 1748.81 -3.35388 -1.9608 0
M  V30 17443 H 1750.48 -4.60106 0.331635 0
M  V30 17444 H 1748.73 -4.32123 0.38105 0
M  V30 17445 H 1749.4 -5.46362 -0.786927 0
M  V30 17446 H 1751.87 -3.78386 -1.73099 0
M  V30 17447 H 1750.75 -4.79037 -2.67983 0
M  V30 17448 H 1751.01 -3.11469 -3.1375 0
M  V30 17449 N 1750.07 0.274379 -1.55193 0
M  V30 17450 C 1751.3 1.02443 -1.79758 0
M  V30 17451 C 1751.71 1.79984 -0.570205 0
M  V30 17452 O 1751.07 1.7659 0.46069 0
M  V30 17453 C 1751.12 1.9841 -3.02185 0
M  V30 17454 O 1750.84 1.24012 -4.20182 0
M  V30 17455 C 1752.34 2.85239 -3.39343 0
M  V30 17456 H 1749.56 0.302684 -0.598852 0
M  V30 17457 H 1752.11 0.305581 -2.02204 0
M  V30 17458 H 1750.26 2.6576 -2.81869 0
M  V30 17459 H 1750.68 1.88684 -4.89386 0
M  V30 17460 H 1752.15 3.48376 -4.2818 0
M  V30 17461 H 1752.63 3.54936 -2.58684 0
M  V30 17462 H 1753.23 2.23382 -3.61912 0
M  V30 17463 N 1751.55 1.48103 0.538828 0
M  V30 17464 C 1752.8 1.55362 1.29256 0
M  V30 17465 C 1753.12 0.225427 1.93693 0
M  V30 17466 O 1752.39 -0.75228 1.8088 0
M  V30 17467 H 1750.97 0.57233 0.480049 0
M  V30 17468 H 1753.63 1.84514 0.627749 0
M  V30 17469 H 1752.73 2.32998 2.07649 0
M  V30 17470 N 1753.03 -0.787016 1.36542 0
M  V30 17471 C 1754.44 -1.08541 1.17008 0
M  V30 17472 C 1754.64 -2.015 -0.00419378 0
M  V30 17473 O 1753.7 -2.43481 -0.668826 0
M  V30 17474 C 1755.01 -1.69758 2.48199 0
M  V30 17475 C 1756.56 -1.82088 2.54584 0
M  V30 17476 C 1757.03 -2.46719 3.85868 0
M  V30 17477 N 1758.53 -2.54185 3.87227 0
M  V30 17478 C 1759.26 -3.05008 4.85549 0
M  V30 17479 N 1758.76 -3.56121 5.94264 0
M  V30 17480 N 1760.55 -3.03742 4.72966 0
M  V30 17481 H 1752.7 -0.16948 2.11723 0
M  V30 17482 H 1754.96 -0.137802 0.937931 0
M  V30 17483 H 1754.67 -1.08922 3.34408 0
M  V30 17484 H 1754.54 -2.69237 2.6418 0
M  V30 17485 H 1756.93 -2.42061 1.68792 0
M  V30 17486 H 1757.01 -0.814071 2.42501 0
M  V30 17487 H 1756.66 -1.87389 4.72068 0
M  V30 17488 H 1756.59 -3.47975 3.95248 0
M  V30 17489 H 1759.08 -2.17995 3.08685 0
M  V30 17490 H 1759.39 -3.93259 6.65257 0
M  V30 17491 H 1757.73 -3.54266 5.9793 0
M  V30 17492 H 1760.93 -2.63102 3.87163 0
M  V30 17493 H 1761.1 -3.43043 5.49751 0
M  V30 17494 N 1754.5 -1.20861 -1.01145 0
M  V30 17495 C 1755.73 -1.04769 -1.78413 0
M  V30 17496 C 1756.15 0.402846 -1.84452 0
M  V30 17497 O 1755.5 1.27962 -1.30123 0
M  V30 17498 C 1755.56 -1.63065 -3.22633 0
M  V30 17499 O 1755.28 -3.02443 -3.16954 0
M  V30 17500 C 1756.78 -1.51996 -4.16428 0
M  V30 17501 H 1754 -0.368271 -0.560908 0
M  V30 17502 H 1756.54 -1.6006 -1.27283 0
M  V30 17503 H 1754.7 -1.11882 -3.70892 0
M  V30 17504 H 1755.11 -3.30199 -4.07515 0
M  V30 17505 H 1756.58 -1.97539 -5.15444 0
M  V30 17506 H 1757.06 -0.473305 -4.36642 0
M  V30 17507 H 1757.67 -2.02396 -3.74054 0
M  V30 17508 N 1755.98 1.20536 -1.01532 0
M  V30 17509 C 1757.22 1.91582 -0.712451 0
M  V30 17510 C 1757.59 1.76995 0.744089 0
M  V30 17511 O 1758.79 2.4251 1.15942 0
M  V30 17512 C 1757.06 3.38914 -1.13454 0
M  V30 17513 S 1758.62 4.28316 -0.953443 0
M  V30 17514 H 1755.44 0.661843 -0.259779 0
M  V30 17515 H 1758.04 1.45808 -1.30232 0
M  V30 17516 H 1756.74 3.47051 -2.19052 0
M  V30 17517 H 1756.27 3.89712 -0.537396 0
M  V30 17518 H 1758.29 4.95992 0.143722 0
M  V30 17519 N 1757.46 0.791395 1.36289 0
M  V30 17520 C 1758.39 0.149076 2.28715 0
M  V30 17521 C 1759.41 -0.642827 1.49571 0
M  V30 17522 O 1760.59 -0.477685 1.7199 0
M  V30 17523 C 1757.69 -0.811868 3.29032 0
M  V30 17524 C 1756.87 -0.0695975 4.37345 0
M  V30 17525 C 1755.93 -0.946776 5.17612 0
M  V30 17526 O 1754.95 -0.403295 5.67769 0
M  V30 17527 N 1756.15 -2.27079 5.34243 0
M  V30 17528 H 1758.92 0.943005 2.84478 0
M  V30 17529 H 1756.48 0.645479 1.48476 0
M  V30 17530 H 1758.47 -1.40257 3.79618 0
M  V30 17531 H 1757.04 -1.50667 2.73895 0
M  V30 17532 H 1756.26 0.702196 3.87895 0
M  V30 17533 H 1757.55 0.442542 5.06872 0
M  V30 17534 H 1756.95 -2.73646 4.9511 0
M  V30 17535 H 1755.51 -2.81109 5.88065 0
M  V30 17536 N 1758.94 -1.47929 0.54358 0
M  V30 17537 C 1759.9 -2.28316 -0.201107 0
M  V30 17538 C 1760.9 -1.36165 -0.855313 0
M  V30 17539 O 1762.09 -1.58928 -0.71327 0
M  V30 17540 C 1759.22 -3.1545 -1.29245 0
M  V30 17541 H 1760.42 -2.9562 0.504848 0
M  V30 17542 H 1757.97 -1.53394 0.300011 0
M  V30 17543 H 1758.71 -2.52807 -2.03124 0
M  V30 17544 H 1758.49 -3.83251 -0.82832 0
M  V30 17545 H 1759.98 -3.76053 -1.81587 0
M  V30 17546 N 1760.42 -0.27936 -1.55104 0
M  V30 17547 C 1761.66 0.329674 -2.00711 0
M  V30 17548 C 1762.02 1.53167 -1.16437 0
M  V30 17549 O 1761.31 1.90245 -0.22746 0
M  V30 17550 C 1761.51 0.758312 -3.49263 0
M  V30 17551 C 1761.33 -0.400602 -4.47912 0
M  V30 17552 C 1760.1 -0.885741 -4.97476 0
M  V30 17553 C 1762.3 -1.23849 -4.99165 0
M  V30 17554 N 1760.28 -2.01368 -5.79935 0
M  V30 17555 C 1761.66 -2.21425 -5.79112 0
M  V30 17556 C 1763.71 -1.27134 -4.81395 0
M  V30 17557 C 1762.41 -3.22036 -6.43184 0
M  V30 17558 C 1764.44 -2.26593 -5.46269 0
M  V30 17559 C 1763.8 -3.22901 -6.26031 0
M  V30 17560 H 1759.9 0.0856909 -0.777291 0
M  V30 17561 H 1762.48 -0.404349 -1.90455 0
M  V30 17562 H 1760.66 1.46155 -3.59852 0
M  V30 17563 H 1762.39 1.34504 -3.81695 0
M  V30 17564 H 1759.14 -0.46433 -4.71318 0
M  V30 17565 H 1759.57 -2.58139 -6.25854 0
M  V30 17566 H 1764.21 -0.540548 -4.1933 0
M  V30 17567 H 1761.93 -3.96047 -7.04395 0
M  V30 17568 H 1765.51 -2.29882 -5.34458 0
M  V30 17569 H 1764.39 -3.98603 -6.75341 0
M  V30 17570 N 1761.9 1.57599 -0.0067085 0
M  V30 17571 C 1763.12 1.95545 0.69115 0
M  V30 17572 C 1763.55 0.882014 1.66139 0
M  V30 17573 O 1762.9 -0.159242 1.80599 0
M  V30 17574 C 1762.95 3.3259 1.39342 0
M  V30 17575 O 1762.06 3.27368 2.50806 0
M  V30 17576 H 1761.4 0.638188 0.183336 0
M  V30 17577 H 1763.93 2.04506 -0.0618957 0
M  V30 17578 H 1763.94 3.6831 1.75532 0
M  V30 17579 H 1762.61 4.10269 0.682072 0
M  V30 17580 H 1761.19 3.03334 2.16894 0
M  V30 17581 N 1763.37 -0.266145 1.55336 0
M  V30 17582 C 1764.6 -1.01915 1.80633 0
M  V30 17583 C 1765.02 -1.78897 0.581172 0
M  V30 17584 O 1764.38 -1.75118 -0.469399 0
M  V30 17585 C 1764.43 -1.948 3.03456 0
M  V30 17586 O 1763.53 -3.03678 2.79022 0
M  V30 17587 H 1762.87 -0.29102 0.596828 0
M  V30 17588 H 1765.4 -0.292973 2.02492 0
M  V30 17589 H 1765.41 -2.36626 3.32373 0
M  V30 17590 H 1764.09 -1.38182 3.92273 0
M  V30 17591 H 1762.67 -2.66118 2.61219 0
M  V30 17592 N 1764.85 -1.48386 -0.530967 0
M  V30 17593 C 1765.78 -1.57405 -1.65224 0
M  V30 17594 C 1766.76 -0.424555 -1.5696 0
M  V30 17595 O 1767.95 -0.63602 -1.77446 0
M  V30 17596 C 1765.07 -1.50112 -3.03618 0
M  V30 17597 C 1764.12 -2.6989 -3.30245 0
M  V30 17598 S 1764.95 -4.31867 -3.16624 0
M  V30 17599 C 1766.11 -4.27171 -4.57466 0
M  V30 17600 H 1766.34 -2.52262 -1.57324 0
M  V30 17601 H 1763.87 -1.36907 -0.713851 0
M  V30 17602 H 1765.83 -1.46591 -3.83434 0
M  V30 17603 H 1764.49 -0.565934 -3.0896 0
M  V30 17604 H 1763.69 -2.60923 -4.31202 0
M  V30 17605 H 1763.29 -2.70668 -2.58098 0
M  V30 17606 H 1765.58 -3.97044 -5.48965 0
M  V30 17607 H 1766.52 -5.28304 -4.71487 0
M  V30 17608 H 1766.93 -3.57653 -4.36743 0
M  V30 17609 N 1766.33 0.779763 -1.36958 0
M  V30 17610 C 1767.56 1.56875 -1.34899 0
M  V30 17611 C 1767.97 1.88679 0.0675345 0
M  V30 17612 O 1767.33 1.50852 1.02712 0
M  V30 17613 C 1767.38 2.88391 -2.17975 0
M  V30 17614 O 1767.1 2.57954 -3.54107 0
M  V30 17615 C 1768.6 3.82657 -2.23805 0
M  V30 17616 H 1765.82 0.486262 -0.462374 0
M  V30 17617 H 1768.37 0.967072 -1.80189 0
M  V30 17618 H 1766.52 3.45003 -1.76215 0
M  V30 17619 H 1766.94 3.42115 -3.97564 0
M  V30 17620 H 1768.41 4.71967 -2.86272 0
M  V30 17621 H 1768.89 4.21208 -1.24421 0
M  V30 17622 H 1769.49 3.31976 -2.65843 0
M  V30 17623 N 1767.81 1.21396 1.00503 0
M  V30 17624 C 1769.22 1.02983 1.55728 0
M  V30 17625 C 1769.57 -0.410383 1.9186 0
M  V30 17626 O 1768.69 -1.29358 1.7348 0
M  V30 17627 C 1769.29 1.86316 2.8297 0
M  V30 17628 C 1767.85 1.72235 3.34682 0
M  V30 17629 C 1767 1.8353 2.07875 0
M  V30 17630 H 1769.95 1.35418 0.827499 0
M  V30 17631 H 1769.97 1.37339 3.5485 0
M  V30 17632 H 1769.48 2.91131 2.56641 0
M  V30 17633 H 1767.58 0.701047 3.65945 0
M  V30 17634 H 1767.69 2.54198 4.06103 0
M  V30 17635 H 1766.06 1.26838 2.20872 0
M  V30 17636 H 1766.84 2.89852 1.83958 0
M  V30 17637 N 1769.29 -1.19996 1.0217 0
M  V30 17638 C 1770.24 -2.20837 0.567029 0
M  V30 17639 C 1771.22 -1.56339 -0.380377 0
M  V30 17640 O 1772.41 -1.75838 -0.202513 0
M  V30 17641 C 1769.54 -3.43187 -0.0880995 0
M  V30 17642 C 1768.63 -4.14842 0.881318 0
M  V30 17643 N 1769.02 -4.62798 2.04088 0
M  V30 17644 C 1767.32 -4.40421 0.703226 0
M  V30 17645 C 1768.02 -5.17744 2.65172 0
M  V30 17646 N 1766.99 -5.08112 1.93192 0
M  V30 17647 H 1770.79 -2.55586 1.45097 0
M  V30 17648 H 1768.31 -1.3599 0.887727 0
M  V30 17649 H 1770.31 -4.14662 -0.431407 0
M  V30 17650 H 1768.97 -3.09941 -0.967819 0
M  V30 17651 H 1769.98 -4.57851 2.42061 0
M  V30 17652 H 1766.65 -4.17304 -0.128008 0
M  V30 17653 H 1768.04 -5.65189 3.63333 0
M  V30 17654 N 1770.76 -0.798611 -1.35867 0
M  V30 17655 C 1771.99 -0.386378 -2.03769 0
M  V30 17656 C 1772.41 0.992154 -1.59806 0
M  V30 17657 O 1771.77 1.64094 -0.770895 0
M  V30 17658 C 1771.82 -0.468859 -3.57539 0
M  V30 17659 O 1770.92 0.520742 -4.09099 0
M  V30 17660 H 1770.26 -0.162597 -0.643784 0
M  V30 17661 H 1772.79 -1.08228 -1.73631 0
M  V30 17662 H 1772.8 -0.335775 -4.06616 0
M  V30 17663 H 1771.48 -1.47441 -3.88888 0
M  V30 17664 H 1770.06 0.348559 -3.71267 0
M  V30 17665 N 1772.24 1.47639 -0.551417 0
M  V30 17666 C 1773.19 2.26938 0.219798 0
M  V30 17667 C 1774.18 1.34006 0.890571 0
M  V30 17668 O 1775.37 1.584 0.789834 0
M  V30 17669 C 1772.5 3.19625 1.25279 0
M  V30 17670 C 1771.58 4.20036 0.585724 0
M  V30 17671 N 1771.97 5.0465 -0.34089 0
M  V30 17672 C 1770.27 4.38012 0.840352 0
M  V30 17673 C 1770.97 5.77129 -0.727814 0
M  V30 17674 N 1769.95 5.43535 -0.0839681 0
M  V30 17675 H 1773.75 2.8974 -0.492729 0
M  V30 17676 H 1771.26 1.58107 -0.370943 0
M  V30 17677 H 1773.26 3.75114 1.8192 0
M  V30 17678 H 1771.92 2.5838 1.96647 0
M  V30 17679 H 1772.93 5.12944 -0.71473 0
M  V30 17680 H 1769.61 3.87941 1.54298 0
M  V30 17681 H 1771 6.55196 -1.48888 0
M  V30 17682 N 1773.72 0.287581 1.54954 0
M  V30 17683 C 1774.95 -0.331442 2.04735 0
M  V30 17684 C 1775.37 -1.47752 1.16409 0
M  V30 17685 O 1774.73 -1.80545 0.165297 0
M  V30 17686 C 1774.78 -0.778123 3.52105 0
M  V30 17687 O 1773.88 -1.88422 3.66839 0
M  V30 17688 H 1773.22 -0.0666173 0.66065 0
M  V30 17689 H 1775.75 0.425516 2.00126 0
M  V30 17690 H 1775.76 -1.07054 3.93705 0
M  V30 17691 H 1774.44 0.0603184 4.15856 0
M  V30 17692 H 1773.01 -1.59338 3.37144 0
M  V30 17693 N 1775.2 -1.57593 0.0150662 0
M  V30 17694 C 1776.61 -1.5591 -0.341189 0
M  V30 17695 C 1776.81 -1.01927 -1.73819 0
M  V30 17696 O 1775.87 -0.659752 -2.43728 0
M  V30 17697 C 1777.18 -3.00016 -0.202639 0
M  V30 17698 C 1778.73 -3.11777 -0.276457 0
M  V30 17699 C 1779.21 -4.57696 -0.166859 0
M  V30 17700 N 1780.7 -4.62657 -0.224287 0
M  V30 17701 C 1781.43 -5.73168 -0.163053 0
M  V30 17702 N 1780.93 -6.92781 -0.0515442 0
M  V30 17703 N 1782.72 -5.61685 -0.216018 0
M  V30 17704 H 1774.87 -1.91018 0.92876 0
M  V30 17705 H 1777.14 -0.878048 0.3574 0
M  V30 17706 H 1776.84 -3.43409 0.759136 0
M  V30 17707 H 1776.72 -3.64285 -0.978599 0
M  V30 17708 H 1779.1 -2.68305 -1.22868 0
M  V30 17709 H 1779.18 -2.50257 0.529637 0
M  V30 17710 H 1778.83 -5.01846 0.781888 0
M  V30 17711 H 1778.76 -5.17179 -0.991635 0
M  V30 17712 H 1781.25 -3.76617 -0.311188 0
M  V30 17713 H 1781.56 -7.72799 -0.0111287 0
M  V30 17714 H 1779.91 -6.94998 -0.0169584 0
M  V30 17715 H 1783.1 -4.67128 -0.301435 0
M  V30 17716 H 1783.27 -6.4779 -0.164834 0
M  V30 17717 N 1776.68 0.257904 -1.55475 0
M  V30 17718 C 1777.9 1.00531 -1.80834 0
M  V30 17719 C 1778.32 1.79369 -0.589263 0
M  V30 17720 O 1777.68 1.77068 0.441935 0
M  V30 17721 C 1777.73 1.95194 -3.04272 0
M  V30 17722 O 1777.45 1.19548 -4.21473 0
M  V30 17723 C 1778.95 2.81624 -3.42349 0
M  V30 17724 H 1776.17 0.296315 -0.602029 0
M  V30 17725 H 1778.71 0.284118 -2.02517 0
M  V30 17726 H 1776.87 2.62756 -2.84672 0
M  V30 17727 H 1777.28 1.83483 -4.9136 0
M  V30 17728 H 1778.76 3.43815 -4.31851 0
M  V30 17729 H 1779.23 3.52172 -2.62434 0
M  V30 17730 H 1779.84 2.19531 -3.64261 0
M  V30 17731 N 1778.15 1.48666 0.52309 0
M  V30 17732 C 1779.57 1.50492 1.10495 0
M  V30 17733 C 1779.92 0.278579 1.94212 0
M  V30 17734 O 1779.04 -0.613679 2.07516 0
M  V30 17735 C 1779.64 2.72692 2.01058 0
M  V30 17736 C 1778.2 2.77368 2.54448 0
M  V30 17737 C 1777.34 2.44104 1.31562 0
M  V30 17738 H 1780.29 1.55682 0.308017 0
M  V30 17739 H 1780.31 2.51601 2.85442 0
M  V30 17740 H 1779.83 3.61931 1.401 0
M  V30 17741 H 1777.93 1.92356 3.19108 0
M  V30 17742 H 1778.04 3.78976 2.93111 0
M  V30 17743 H 1776.4 1.95407 1.63366 0
M  V30 17744 H 1777.19 3.35591 0.723455 0
M  V30 17745 N 1779.63 -0.772489 1.37369 0
M  V30 17746 C 1780.54 -1.91679 1.35263 0
M  V30 17747 C 1781.56 -1.72161 0.252321 0
M  V30 17748 O 1782.73 -1.95409 0.487581 0
M  V30 17749 C 1779.8 -3.26792 1.15792 0
M  V30 17750 C 1778.86 -3.5897 2.35455 0
M  V30 17751 C 1778.09 -4.87636 2.16903 0
M  V30 17752 O 1778.32 -5.58627 1.15291 0
M  V30 17753 O 1777.25 -5.18859 3.05072 0
M  V30 17754 H 1781.08 -1.96408 2.31641 0
M  V30 17755 H 1778.66 -0.915136 1.18092 0
M  V30 17756 H 1780.54 -4.07611 1.06918 0
M  V30 17757 H 1779.22 -3.22918 0.224872 0
M  V30 17758 H 1778.13 -2.78389 2.49901 0
M  V30 17759 H 1779.46 -3.67586 3.27325 0
M  V30 17760 N 1781.11 -1.21927 -0.998575 0
M  V30 17761 C 1782.34 -1.06501 -1.77034 0
M  V30 17762 C 1782.75 0.387776 -1.85184 0
M  V30 17763 O 1782.09 1.28067 -1.31699 0
M  V30 17764 C 1782.15 -1.59465 -3.22198 0
M  V30 17765 C 1781.82 -3.08008 -3.37609 0
M  V30 17766 C 1782.81 -4.05495 -3.25377 0
M  V30 17767 C 1780.5 -3.47347 -3.62843 0
M  V30 17768 C 1782.49 -5.40306 -3.38154 0
M  V30 17769 C 1780.18 -4.82309 -3.75262 0
M  V30 17770 C 1781.18 -5.78597 -3.62924 0
M  V30 17771 O 1780.87 -7.1111 -3.74938 0
M  V30 17772 H 1780.6 -0.374178 -0.562998 0
M  V30 17773 H 1783.15 -1.61859 -1.26455 0
M  V30 17774 H 1781.38 -0.98509 -3.73942 0
M  V30 17775 H 1783.07 -1.39785 -3.81071 0
M  V30 17776 H 1783.84 -3.76446 -3.05799 0
M  V30 17777 H 1779.72 -2.72928 -3.71526 0
M  V30 17778 H 1783.26 -6.15445 -3.28441 0
M  V30 17779 H 1779.16 -5.1104 -3.94345 0
M  V30 17780 H 1779.93 -7.18609 -3.91846 0
M  V30 17781 N 1782.59 1.19452 -1.02805 0
M  V30 17782 C 1783.82 1.92795 -0.742546 0
M  V30 17783 C 1784.23 1.75678 0.702418 0
M  V30 17784 O 1783.57 1.07547 1.48927 0
M  V30 17785 C 1783.63 3.44934 -1.01296 0
M  V30 17786 C 1783.3 3.85821 -2.44931 0
M  V30 17787 C 1784.29 3.90645 -3.43063 0
M  V30 17788 C 1781.98 4.17483 -2.79309 0
M  V30 17789 C 1783.97 4.26561 -4.73629 0
M  V30 17790 C 1781.66 4.53071 -4.10085 0
M  V30 17791 C 1782.66 4.57584 -5.07056 0
M  V30 17792 O 1782.34 4.9235 -6.35489 0
M  V30 17793 H 1782.08 0.619261 -0.271094 0
M  V30 17794 H 1784.63 1.5256 -1.37531 0
M  V30 17795 H 1782.86 3.85348 -0.323051 0
M  V30 17796 H 1784.55 3.99513 -0.717246 0
M  V30 17797 H 1785.32 3.66335 -3.17842 0
M  V30 17798 H 1781.19 4.13154 -2.0451 0
M  V30 17799 H 1784.74 4.29998 -5.49315 0
M  V30 17800 H 1780.64 4.76839 -4.3508 0
M  V30 17801 H 1781.4 5.10301 -6.39949 0
M  V30 17802 N 1784.07 0.805805 1.35442 0
M  V30 17803 C 1785.48 0.446863 1.81273 0
M  V30 17804 C 1785.83 -1.03104 1.66925 0
M  V30 17805 O 1784.95 -1.80117 1.19945 0
M  V30 17806 C 1785.55 0.80433 3.29114 0
M  V30 17807 C 1784.11 0.497997 3.73091 0
M  V30 17808 C 1783.25 1.03035 2.57447 0
M  V30 17809 H 1786.21 0.997517 1.23431 0
M  V30 17810 H 1786.23 0.101559 3.80364 0
M  V30 17811 H 1785.74 1.88001 3.39525 0
M  V30 17812 H 1783.84 -0.568982 3.6823 0
M  V30 17813 H 1783.95 1.03008 4.67896 0
M  V30 17814 H 1782.32 0.452716 2.50644 0
M  V30 17815 H 1783.1 2.11213 2.70636 0
M  V30 17816 N 1785.54 -1.47344 0.559239 0
M  V30 17817 C 1786.49 -2.31735 -0.200368 0
M  V30 17818 C 1787.49 -1.43051 -0.907351 0
M  V30 17819 O 1788.69 -1.59804 -0.828406 0
M  V30 17820 H 1785.07 -0.747351 -0.0834871 0
M  V30 17821 H 1787.04 -2.93645 0.530556 0
M  V30 17822 C 1785.79 -3.25747 -1.2159 0
M  V30 17823 H 1785.11 -3.93952 -0.681314 0
M  V30 17824 H 1786.55 -3.87624 -1.71825 0
M  V30 17825 C 1785.01 -2.49414 -2.26482 0
M  V30 17826 O 1785.54 -2.24006 -3.33443 0
M  V30 17827 N 1783.75 -2.10387 -2.00464 0
M  V30 17828 H 1783.29 -2.3125 -1.13495 0
M  V30 17829 H 1783.25 -1.5963 -2.70861 0
M  V30 17830 N 1787.02 -0.295795 -1.54799 0
M  V30 17831 C 1787.99 0.569699 -2.22007 0
M  V30 17832 C 1788.99 1.06535 -1.20445 0
M  V30 17833 O 1790.18 0.962212 -1.45214 0
M  V30 17834 C 1787.31 1.78821 -2.90234 0
M  V30 17835 H 1788.5 -0.0174148 -2.99895 0
M  V30 17836 H 1786.05 -0.0465813 -1.56231 0
M  V30 17837 H 1786.79 2.4153 -2.16412 0
M  V30 17838 H 1786.57 1.44051 -3.6468 0
M  V30 17839 H 1788.06 2.40321 -3.41519 0
M  V30 17840 N 1788.5 1.57583 -0.0234236 0
M  V30 17841 C 1789.75 1.91186 0.655152 0
M  V30 17842 C 1790.07 0.89988 1.72995 0
M  V30 17843 O 1789.34 -0.0594278 1.9581 0
M  V30 17844 H 1787.92 0.705686 0.244982 0
M  V30 17845 H 1790.58 1.94775 -0.0698824 0
M  V30 17846 H 1789.68 2.91636 1.11152 0
M  V30 17847 N 1789.98 -0.249655 1.5561 0
M  V30 17848 C 1790.91 -1.31281 1.931 0
M  V30 17849 C 1791.89 -1.50347 0.795601 0
M  V30 17850 O 1793.08 -1.63001 1.05566 0
M  V30 17851 C 1790.21 -2.66808 2.2233 0
M  V30 17852 C 1789.16 -2.62441 3.38096 0
M  V30 17853 C 1788.49 -4.01738 3.52861 0
M  V30 17854 C 1789.79 -2.19667 4.7386 0
M  V30 17855 H 1791.48 -1.00151 2.82153 0
M  V30 17856 H 1789.03 -0.480331 1.35753 0
M  V30 17857 H 1790.98 -3.41316 2.47146 0
M  V30 17858 H 1789.7 -2.99569 1.30101 0
M  V30 17859 H 1788.36 -1.90391 3.13284 0
M  V30 17860 H 1788.01 -4.31759 2.58056 0
M  V30 17861 H 1787.71 -3.99705 4.30708 0
M  V30 17862 H 1789.23 -4.7795 3.79995 0
M  V30 17863 H 1790.65 -2.83906 4.98067 0
M  V30 17864 H 1789.04 -2.28751 5.54791 0
M  V30 17865 H 1790.11 -1.14829 4.71108 0
M  V30 17866 N 1791.46 -1.48941 -0.515198 0
M  V30 17867 C 1792.71 -1.5696 -1.26674 0
M  V30 17868 C 1793.02 -0.255062 -1.9393 0
M  V30 17869 O 1794.23 -0.213645 -2.70658 0
M  V30 17870 C 1792.68 -2.76877 -2.29928 0
M  V30 17871 C 1792.29 -4.15033 -1.68676 0
M  V30 17872 C 1794.03 -2.94218 -3.06 0
M  V30 17873 C 1791.94 -5.26191 -2.69957 0
M  V30 17874 H 1790.87 -0.584377 -0.476465 0
M  V30 17875 H 1793.52 -1.75303 -0.542322 0
M  V30 17876 H 1791.9 -2.51999 -3.05471 0
M  V30 17877 H 1793.08 -4.49991 -0.992215 0
M  V30 17878 H 1791.39 -4.02932 -1.05045 0
M  V30 17879 H 1793.99 -3.74433 -3.81712 0
M  V30 17880 H 1794.33 -2.04235 -3.62759 0
M  V30 17881 H 1794.87 -3.19068 -2.37572 0
M  V30 17882 H 1791.6 -6.18189 -2.17998 0
M  V30 17883 H 1791.12 -4.95705 -3.37694 0
M  V30 17884 H 1792.8 -5.54929 -3.32659 0
M  V30 17885 N 1792.94 0.765193 -1.37777 0
M  V30 17886 C 1793.87 1.88621 -1.28442 0
M  V30 17887 C 1794.85 1.61774 -0.16367 0
M  V30 17888 O 1796.03 1.85427 -0.339007 0
M  V30 17889 C 1793.16 3.23987 -0.987421 0
M  V30 17890 C 1792.2 3.69737 -2.12596 0
M  V30 17891 S 1793.04 3.82637 -3.74632 0
M  V30 17892 C 1794.19 5.20841 -3.47096 0
M  V30 17893 H 1794.43 1.96251 -2.23322 0
M  V30 17894 H 1791.96 0.926976 -1.23477 0
M  V30 17895 H 1793.92 4.02168 -0.822893 0
M  V30 17896 H 1792.58 3.1405 -0.0559964 0
M  V30 17897 H 1791.77 4.67892 -1.87332 0
M  V30 17898 H 1791.37 2.98677 -2.25096 0
M  V30 17899 H 1793.66 6.06222 -3.02491 0
M  V30 17900 H 1794.61 5.5112 -4.44603 0
M  V30 17901 H 1795.02 4.89089 -2.81873 0
M  V30 17902 N 1794.41 1.22455 0.992094 0
M  V30 17903 C 1795.36 0.992597 2.10357 0
M  V30 17904 C 1796.36 -0.0645514 1.69277 0
M  V30 17905 O 1797.56 0.0879577 1.79785 0
M  V30 17906 H 1793.94 0.303808 0.687899 0
M  V30 17907 H 1795.91 1.93574 2.27094 0
M  V30 17908 C 1794.66 0.587852 3.42695 0
M  V30 17909 H 1793.98 1.39298 3.74748 0
M  V30 17910 H 1795.42 0.464975 4.21443 0
M  V30 17911 C 1793.88 -0.702681 3.29491 0
M  V30 17912 O 1794.41 -1.7549 3.61339 0
M  V30 17913 N 1792.61 -0.674141 2.82672 0
M  V30 17914 H 1792.16 0.182446 2.56953 0
M  V30 17915 H 1792.12 -1.53789 2.7422 0
M  V30 17916 N 1795.89 -1.18905 1.03437 0
M  V30 17917 C 1797.12 -1.92398 0.752759 0
M  V30 17918 C 1797.53 -1.76048 -0.693091 0
M  V30 17919 O 1796.87 -1.08335 -1.48355 0
M  V30 17920 C 1796.93 -3.44392 1.03124 0
M  V30 17921 C 1796.6 -3.84516 2.46974 0
M  V30 17922 C 1797.6 -3.8882 3.4513 0
M  V30 17923 C 1795.28 -4.15996 2.81519 0
M  V30 17924 C 1797.27 -4.24043 4.75885 0
M  V30 17925 C 1794.96 -4.5089 4.12482 0
M  V30 17926 C 1795.96 -4.54889 5.09475 0
M  V30 17927 O 1795.65 -4.88973 6.38091 0
M  V30 17928 H 1795.38 -0.617814 0.274375 0
M  V30 17929 H 1797.93 -1.51828 1.38338 0
M  V30 17930 H 1796.16 -3.85172 0.343482 0
M  V30 17931 H 1797.85 -3.99127 0.738423 0
M  V30 17932 H 1798.62 -3.64645 3.1978 0
M  V30 17933 H 1794.5 -4.12064 2.06699 0
M  V30 17934 H 1798.04 -4.27079 5.51588 0
M  V30 17935 H 1793.94 -4.74525 4.37603 0
M  V30 17936 H 1794.71 -5.069 6.42647 0
M  V30 17937 N 1797.37 -0.812977 -1.35013 0
M  V30 17938 C 1798.61 -0.402068 -2.00407 0
M  V30 17939 C 1798.97 1.01337 -1.63079 0
M  V30 17940 O 1800.17 1.52663 -2.21241 0
M  V30 17941 C 1798.45 -0.587029 -3.52546 0
M  V30 17942 S 1800 -0.267491 -4.37984 0
M  V30 17943 H 1796.82 -0.152383 -0.694479 0
M  V30 17944 H 1799.42 -1.05662 -1.64486 0
M  V30 17945 H 1798.13 -1.61704 -3.772 0
M  V30 17946 H 1797.66 0.0826178 -3.93313 0
M  V30 17947 H 1799.67 0.922508 -4.87549 0
M  V30 17948 N 1798.85 1.47045 -0.567045 0
M  V30 17949 C 1800.26 1.5797 -0.227536 0
M  V30 17950 C 1800.46 1.56434 1.27006 0
M  V30 17951 O 1799.52 1.47297 2.05085 0
M  V30 17952 C 1800.83 2.88053 -0.862894 0
M  V30 17953 C 1802.38 3.01656 -0.835032 0
M  V30 17954 C 1802.86 4.34453 -1.44964 0
M  V30 17955 N 1804.35 4.41113 -1.41327 0
M  V30 17956 C 1805.08 5.42451 -1.85835 0
M  V30 17957 N 1804.58 6.50547 -2.38245 0
M  V30 17958 N 1806.37 5.33556 -1.76847 0
M  V30 17959 H 1798.52 1.46287 -1.53993 0
M  V30 17960 H 1800.78 0.696829 -0.642755 0
M  V30 17961 H 1800.49 2.94942 -1.91578 0
M  V30 17962 H 1800.36 3.75461 -0.361758 0
M  V30 17963 H 1802.75 2.94358 0.209187 0
M  V30 17964 H 1802.83 2.15764 -1.37403 0
M  V30 17965 H 1802.48 4.42508 -2.49298 0
M  V30 17966 H 1802.41 5.19093 -0.886003 0
M  V30 17967 H 1804.9 3.63592 -1.03001 0
M  V30 17968 H 1805.21 7.2406 -2.70105 0
M  V30 17969 H 1803.56 6.51409 -2.42262 0
M  V30 17970 H 1806.75 4.48008 -1.35671 0
M  V30 17971 H 1806.92 6.12391 -2.11851 0
M  V30 17972 N 1800.33 0.304 1.5464 0
M  V30 17973 C 1801.27 -0.586475 2.25085 0
M  V30 17974 C 1802.27 -1.13458 1.25792 0
M  V30 17975 O 1803.47 -1.08487 1.43633 0
M  V30 17976 H 1799.85 -0.20774 0.722737 0
M  V30 17977 H 1801.82 0.0301682 2.98385 0
M  V30 17978 C 1800.57 -1.74539 3.00718 0
M  V30 17979 H 1799.89 -1.33287 3.76928 0
M  V30 17980 H 1801.33 -2.34447 3.53285 0
M  V30 17981 C 1799.79 -2.65132 2.07862 0
M  V30 17982 O 1800.32 -3.6631 1.64863 0
M  V30 17983 N 1798.53 -2.32932 1.73756 0
M  V30 17984 H 1798.07 -1.50698 2.08921 0
M  V30 17985 H 1798.03 -2.93811 1.11904 0
M  V30 17986 N 1801.8 -1.57568 0.0317802 0
M  V30 17987 C 1803.21 -1.79693 -0.506679 0
M  V30 17988 C 1803.57 -0.94229 -1.72091 0
M  V30 17989 O 1802.69 -0.153435 -2.15855 0
M  V30 17990 C 1803.29 -3.259 -0.925978 0
M  V30 17991 C 1801.84 -3.49012 -1.40953 0
M  V30 17992 C 1800.99 -2.74746 -0.375509 0
M  V30 17993 H 1803.94 -1.56592 0.257798 0
M  V30 17994 H 1803.96 -3.35757 -1.79017 0
M  V30 17995 H 1803.48 -3.88077 -0.0420441 0
M  V30 17996 H 1801.58 -2.9209 -2.31331 0
M  V30 17997 H 1801.69 -4.57725 -1.41508 0
M  V30 17998 H 1800.05 -2.40303 -0.844187 0
M  V30 17999 H 1800.84 -3.39639 0.500005 0
M  V30 18000 N 1803.28 0.241399 -1.5574 0
M  V30 18001 C 1804.56 0.991821 -1.68589 0
M  V30 18002 C 1804.94 2.03167 -0.573274 0
M  V30 18003 O 1804.29 2.2456 0.422521 0
M  V30 18004 C 1804.5 1.6202 -3.09112 0
M  V30 18005 C 1805.85 2.11998 -3.67889 0
M  V30 18006 O 1806.87 1.71951 -3.11948 0
M  V30 18007 O 1805.73 2.85545 -4.65968 0
M  V30 18008 H 1802.82 0.462017 -0.685907 0
M  V30 18009 H 1805.37 0.23475 -1.68068 0
M  V30 18010 H 1804.14 0.86835 -3.81543 0
M  V30 18011 H 1803.76 2.44333 -3.13667 0
M  V30 18012 N 1804.76 1.49212 0.507292 0
M  V30 18013 C 1805.72 1.64908 1.59179 0
M  V30 18014 C 1806.72 0.521176 1.5212 0
M  V30 18015 O 1807.91 0.787492 1.55384 0
M  V30 18016 C 1805.05 1.64057 2.98828 0
M  V30 18017 H 1806.24 2.6163 1.46593 0
M  V30 18018 H 1803.79 1.38149 0.731062 0
M  V30 18019 H 1804.53 0.688956 3.16897 0
M  V30 18020 H 1804.31 2.45963 3.0536 0
M  V30 18021 H 1805.8 1.78279 3.77633 0
M  V30 18022 N 1806.24 -0.757876 1.38181 0
M  V30 18023 C 1807.48 -1.51912 1.34352 0
M  V30 18024 C 1807.82 -1.94082 -0.0677003 0
M  V30 18025 O 1807.09 -1.65114 -1.02799 0
M  V30 18026 C 1807.38 -2.77466 2.29531 0
M  V30 18027 C 1807.23 -2.41462 3.79495 0
M  V30 18028 C 1808.55 -3.79469 2.22915 0
M  V30 18029 H 1805.67 -0.551091 0.489355 0
M  V30 18030 H 1808.31 -0.868376 1.68995 0
M  V30 18031 H 1806.46 -3.32994 2.00119 0
M  V30 18032 H 1808.13 -1.91742 4.19562 0
M  V30 18033 H 1806.37 -1.73976 3.97385 0
M  V30 18034 H 1807.04 -3.31272 4.41546 0
M  V30 18035 H 1809.52 -3.33471 2.48871 0
M  V30 18036 H 1808.4 -4.6502 2.91629 0
M  V30 18037 H 1808.66 -4.24744 1.22658 0
M  V30 18038 N 1807.72 -1.22979 -0.985586 0
M  V30 18039 C 1808.68 -1.00763 -2.05862 0
M  V30 18040 C 1809.68 0.02864 -1.60774 0
M  V30 18041 O 1810.87 -0.210593 -1.72922 0
M  V30 18042 C 1808 -0.523547 -3.36856 0
M  V30 18043 H 1809.19 -1.95982 -2.27004 0
M  V30 18044 H 1806.75 -1.0495 -1.15824 0
M  V30 18045 H 1807.48 0.432658 -3.21401 0
M  V30 18046 H 1807.27 -1.27127 -3.70919 0
M  V30 18047 H 1808.76 -0.388591 -4.15788 0
M  V30 18048 N 1809.19 1.18355 -1.04066 0
M  V30 18049 C 1810.16 2.20195 -0.636148 0
M  V30 18050 C 1811.16 1.57853 0.306457 0
M  V30 18051 O 1812.35 1.73958 0.0918576 0
M  V30 18052 C 1809.48 3.40833 0.0673423 0
M  V30 18053 H 1810.67 2.57497 -1.53738 0
M  V30 18054 H 1808.23 1.32239 -0.833214 0
M  V30 18055 H 1808.96 3.09063 0.982371 0
M  V30 18056 H 1808.75 3.87324 -0.610145 0
M  V30 18057 H 1810.24 4.16239 0.336869 0
M  V30 18058 N 1810.67 0.820125 1.3458 0
M  V30 18059 C 1812.08 0.466064 1.80789 0
M  V30 18060 C 1812.43 -1.01327 1.6801 0
M  V30 18061 O 1811.56 -1.78835 1.21849 0
M  V30 18062 C 1812.15 0.839192 3.28242 0
M  V30 18063 C 1810.71 0.53754 3.72542 0
M  V30 18064 C 1809.86 1.0576 2.5634 0
M  V30 18065 H 1812.81 1.01055 1.22366 0
M  V30 18066 H 1812.83 0.141897 3.80235 0
M  V30 18067 H 1812.34 1.91592 3.37512 0
M  V30 18068 H 1810.45 -0.529895 3.68813 0
M  V30 18069 H 1810.56 1.07964 4.66777 0
M  V30 18070 H 1808.92 0.479275 2.5015 0
M  V30 18071 H 1809.71 2.14072 2.68381 0
M  V30 18072 N 1812.15 -1.46743 0.574835 0
M  V30 18073 C 1813.38 -2.06505 0.0627081 0
M  V30 18074 C 1813.79 -1.42535 -1.2442 0
M  V30 18075 O 1813.13 -0.522043 -1.76126 0
M  V30 18076 C 1813.19 -3.59021 -0.185574 0
M  V30 18077 C 1812.86 -4.45136 1.03455 0
M  V30 18078 C 1813.85 -4.82163 1.94461 0
M  V30 18079 C 1811.54 -4.8639 1.25418 0
M  V30 18080 C 1813.53 -5.59262 3.05786 0
M  V30 18081 C 1811.22 -5.63251 2.37049 0
M  V30 18082 C 1812.22 -5.99599 3.27062 0
M  V30 18083 O 1811.91 -6.74908 4.36755 0
M  V30 18084 H 1811.64 -0.674082 0.0508932 0
M  V30 18085 H 1814.19 -1.89476 0.792968 0
M  V30 18086 H 1812.42 -3.74327 -0.970354 0
M  V30 18087 H 1814.11 -4.00739 -0.645242 0
M  V30 18088 H 1814.88 -4.50876 1.78705 0
M  V30 18089 H 1810.76 -4.57553 0.56266 0
M  V30 18090 H 1814.3 -5.87552 3.7607 0
M  V30 18091 H 1810.2 -5.93951 2.5277 0
M  V30 18092 H 1810.97 -6.93323 4.35024 0
M  V30 18093 N 1813.63 -0.312197 -1.54477 0
M  V30 18094 C 1814.87 0.294506 -2.02267 0
M  V30 18095 C 1815.23 1.5023 -1.19562 0
M  V30 18096 O 1816.43 2.18111 -1.57102 0
M  V30 18097 C 1814.7 0.631364 -3.51779 0
M  V30 18098 S 1816.26 1.21934 -4.21518 0
M  V30 18099 H 1813.08 0.0897629 -0.705311 0
M  V30 18100 H 1815.68 -0.442675 -1.90422 0
M  V30 18101 H 1814.39 -0.255978 -4.09601 0
M  V30 18102 H 1813.92 1.39904 -3.67682 0
M  V30 18103 H 1815.93 2.50669 -4.28229 0
M  V30 18104 N 1815.11 1.57549 -0.040136 0
M  V30 18105 C 1816.34 1.96272 0.645049 0
M  V30 18106 C 1816.74 0.915804 1.65559 0
M  V30 18107 O 1816.09 -0.109666 1.83372 0
M  V30 18108 C 1816.15 3.31187 1.3984 0
M  V30 18109 C 1815.81 4.53739 0.544953 0
M  V30 18110 C 1816.81 5.19573 -0.184369 0
M  V30 18111 C 1814.5 5.0001 0.479119 0
M  V30 18112 C 1816.49 6.30006 -0.968081 0
M  V30 18113 C 1814.18 6.10322 -0.30829 0
M  V30 18114 C 1815.17 6.7518 -1.03059 0
M  V30 18115 O 1814.86 7.83373 -1.80507 0
M  V30 18116 H 1814.59 0.651051 0.181958 0
M  V30 18117 H 1817.15 2.05159 -0.0995179 0
M  V30 18118 H 1815.38 3.18823 2.18835 0
M  V30 18119 H 1817.07 3.54735 1.97276 0
M  V30 18120 H 1817.83 4.84789 -0.142908 0
M  V30 18121 H 1813.71 4.49325 1.0309 0
M  V30 18122 H 1817.26 6.80562 -1.53237 0
M  V30 18123 H 1813.15 6.44543 -0.351428 0
M  V30 18124 H 1813.92 8.00094 -1.72601 0
M  V30 18125 N 1816.58 -0.233136 1.55866 0
M  V30 18126 C 1817.81 -0.976415 1.82411 0
M  V30 18127 C 1818.23 -1.78409 0.617724 0
M  V30 18128 O 1817.58 -1.77749 -0.413709 0
M  V30 18129 C 1817.64 -1.90328 3.07339 0
M  V30 18130 O 1817.36 -1.12828 4.23322 0
M  V30 18131 C 1818.86 -2.76142 3.46786 0
M  V30 18132 H 1816.08 -0.2867 0.606666 0
M  V30 18133 H 1818.62 -0.251863 2.02943 0
M  V30 18134 H 1816.78 -2.58193 2.88816 0
M  V30 18135 H 1817.19 -1.75643 4.94216 0
M  V30 18136 H 1818.66 -3.36901 4.37266 0
M  V30 18137 H 1819.14 -3.47953 2.68003 0
M  V30 18138 H 1819.75 -2.13708 3.67708 0
M  V30 18139 N 1818.06 -1.49479 -0.499372 0
M  V30 18140 C 1819.48 -1.36278 -0.830692 0
M  V30 18141 C 1819.68 -0.397116 -1.97548 0
M  V30 18142 O 1818.74 0.170614 -2.51923 0
M  V30 18143 C 1820.05 -2.77031 -1.16937 0
M  V30 18144 C 1821.6 -2.85744 -1.27748 0
M  V30 18145 C 1822.07 -4.27267 -1.64944 0
M  V30 18146 N 1823.56 -4.30086 -1.7199 0
M  V30 18147 C 1824.3 -5.36559 -2.02218 0
M  V30 18148 N 1823.79 -6.53275 -2.30659 0
M  V30 18149 N 1825.59 -5.23976 -2.03483 0
M  V30 18150 H 1817.74 -2.10858 0.255497 0
M  V30 18151 H 1820 -0.946588 0.0517184 0
M  V30 18152 H 1819.71 -3.494 -0.401529 0
M  V30 18153 H 1819.58 -3.12501 -2.11242 0
M  V30 18154 H 1821.97 -2.13611 -2.03604 0
M  V30 18155 H 1822.05 -2.53854 -0.314901 0
M  V30 18156 H 1821.69 -4.99927 -0.896384 0
M  V30 18157 H 1821.62 -4.56622 -2.62305 0
M  V30 18158 H 1824.11 -3.45911 -1.52164 0
M  V30 18159 H 1824.43 -7.30241 -2.52918 0
M  V30 18160 H 1822.77 -6.56498 -2.28112 0
M  V30 18161 H 1825.96 -4.31799 -1.80741 0
M  V30 18162 H 1826.14 -6.07049 -2.26707 0
M  V30 18163 N 1819.54 0.750537 -1.38581 0
M  V30 18164 C 1820.82 1.50051 -1.25475 0
M  V30 18165 C 1821.2 2.10618 0.142521 0
M  V30 18166 O 1820.55 1.97317 1.15231 0
M  V30 18167 C 1820.76 2.56443 -2.36724 0
M  V30 18168 C 1822.1 3.23261 -2.75296 0
M  V30 18169 O 1823.13 2.66749 -2.36058 0
M  V30 18170 O 1821.99 4.25481 -3.4297 0
M  V30 18171 H 1819.08 0.665581 -0.490847 0
M  V30 18172 H 1821.63 0.785688 -1.50416 0
M  V30 18173 H 1820.4 2.09958 -3.30202 0
M  V30 18174 H 1820.02 3.35503 -2.13363 0
M  V30 18175 N 1821.02 1.235 0.979051 0
M  V30 18176 C 1822.43 1.06263 1.53509 0
M  V30 18177 C 1822.78 -0.369594 1.92687 0
M  V30 18178 O 1821.91 -1.25649 1.76185 0
M  V30 18179 C 1822.5 1.92276 2.78954 0
M  V30 18180 C 1821.06 1.79296 3.30953 0
M  V30 18181 C 1820.21 1.87898 2.03935 0
M  V30 18182 H 1823.16 1.37143 0.798588 0
M  V30 18183 H 1823.18 1.44835 3.51857 0
M  V30 18184 H 1822.69 2.96509 2.50408 0
M  V30 18185 H 1820.79 0.778512 3.64376 0
M  V30 18186 H 1820.91 2.62755 4.0062 0
M  V30 18187 H 1819.27 1.31494 2.18131 0
M  V30 18188 H 1820.05 2.93689 1.77769 0
M  V30 18189 N 1822.5 -1.17802 1.04693 0
M  V30 18190 C 1823.75 -1.87567 0.752534 0
M  V30 18191 C 1824.07 -1.81129 -0.722303 0
M  V30 18192 O 1823.34 -1.23385 -1.52161 0
M  V30 18193 H 1821.92 -0.69439 0.275376 0
M  V30 18194 H 1824.58 -1.42932 1.32501 0
M  V30 18195 H 1823.67 -2.9344 1.06299 0
M  V30 18196 N 1823.98 -0.827251 -1.34143 0
M  V30 18197 C 1825.22 -0.418003 -1.98445 0
M  V30 18198 C 1825.55 1.01737 -1.65418 0
M  V30 18199 O 1824.83 1.70932 -0.928042 0
M  V30 18200 C 1825.11 -0.625559 -3.54625 0
M  V30 18201 C 1824.97 -2.10736 -3.97379 0
M  V30 18202 C 1826.28 -0.0642701 -4.40053 0
M  V30 18203 H 1823.4 -0.15335 -0.72087 0
M  V30 18204 H 1826.05 -1.04062 -1.58969 0
M  V30 18205 H 1824.2 -0.095577 -3.88382 0
M  V30 18206 H 1825.87 -2.70131 -3.73934 0
M  V30 18207 H 1824.11 -2.59621 -3.47533 0
M  V30 18208 H 1824.78 -2.20338 -5.06118 0
M  V30 18209 H 1827.26 -0.517137 -4.12874 0
M  V30 18210 H 1826.13 -0.239267 -5.48378 0
M  V30 18211 H 1826.39 1.0311 -4.29908 0
M  V30 18212 N 1825.45 1.46436 -0.582609 0
M  V30 18213 C 1826.87 1.5772 -0.244278 0
M  V30 18214 C 1827.07 1.57772 1.2534 0
M  V30 18215 O 1826.13 1.49463 2.03512 0
M  V30 18216 C 1827.44 2.87122 -0.893398 0
M  V30 18217 C 1828.99 3.00753 -0.866979 0
M  V30 18218 C 1829.46 4.32891 -1.49564 0
M  V30 18219 N 1830.95 4.3959 -1.45998 0
M  V30 18220 C 1831.69 5.40449 -1.91578 0
M  V30 18221 N 1831.18 6.47983 -2.45132 0
M  V30 18222 N 1832.98 5.3165 -1.82496 0
M  V30 18223 H 1825.13 1.44646 -1.55536 0
M  V30 18224 H 1827.39 0.689972 -0.650109 0
M  V30 18225 H 1827.1 2.92894 -1.94695 0
M  V30 18226 H 1826.97 3.75056 -0.40156 0
M  V30 18227 H 1829.36 2.94563 0.177954 0
M  V30 18228 H 1829.44 2.14295 -1.39684 0
M  V30 18229 H 1829.08 4.39839 -2.53977 0
M  V30 18230 H 1829.01 5.18124 -0.94101 0
M  V30 18231 H 1831.5 3.62479 -1.06851 0
M  V30 18232 H 1831.82 7.21154 -2.7777 0
M  V30 18233 H 1830.16 6.48803 -2.49157 0
M  V30 18234 H 1833.35 4.46543 -1.40416 0
M  V30 18235 H 1833.53 6.1011 -2.18334 0
M  V30 18236 N 1826.93 0.320385 1.54309 0
M  V30 18237 C 1828.18 -0.276343 2.01514 0
M  V30 18238 C 1828.53 -1.50026 1.20457 0
M  V30 18239 O 1827.83 -1.89575 0.27782 0
M  V30 18240 C 1828.02 -0.665444 3.5115 0
M  V30 18241 C 1827.85 0.519217 4.46693 0
M  V30 18242 C 1826.62 1.01733 4.94953 0
M  V30 18243 C 1828.82 1.3704 4.95706 0
M  V30 18244 N 1826.8 2.16673 5.74392 0
M  V30 18245 C 1828.17 2.36701 5.73038 0
M  V30 18246 C 1830.22 1.39853 4.77855 0
M  V30 18247 C 1828.93 3.38976 6.34419 0
M  V30 18248 C 1830.95 2.40997 5.40069 0
M  V30 18249 C 1830.32 3.39385 6.17249 0
M  V30 18250 H 1826.41 -0.0650523 0.77929 0
M  V30 18251 H 1829 0.454702 1.89316 0
M  V30 18252 H 1827.17 -1.36563 3.636 0
M  V30 18253 H 1828.9 -1.24337 3.85127 0
M  V30 18254 H 1825.66 0.589128 4.69922 0
M  V30 18255 H 1826.08 2.74642 6.1879 0
M  V30 18256 H 1830.72 0.651536 4.1775 0
M  V30 18257 H 1828.44 4.14583 6.93647 0
M  V30 18258 H 1832.03 2.43971 5.28175 0
M  V30 18259 H 1830.91 4.16368 6.64535 0
M  V30 18260 N 1828.41 -1.57525 0.0484906 0
M  V30 18261 C 1829.32 -2.14854 -0.942076 0
M  V30 18262 C 1830.34 -1.10565 -1.34355 0
M  V30 18263 O 1831.51 -1.4272 -1.42102 0
M  V30 18264 C 1828.58 -2.68002 -2.19945 0
M  V30 18265 C 1827.64 -3.87078 -1.85658 0
M  V30 18266 C 1826.87 -4.37682 -3.05401 0
M  V30 18267 O 1827.09 -3.87373 -4.18687 0
M  V30 18268 O 1826.03 -5.29302 -2.86571 0
M  V30 18269 H 1829.85 -2.9981 -0.48453 0
M  V30 18270 H 1827.44 -1.48392 -0.173252 0
M  V30 18271 H 1829.32 -3.02167 -2.93722 0
M  V30 18272 H 1828 -1.86118 -2.64843 0
M  V30 18273 H 1826.9 -3.57806 -1.09205 0
M  V30 18274 H 1828.24 -4.70184 -1.45562 0
M  V30 18275 N 1829.89 0.224867 -1.55988 0
M  V30 18276 C 1831.12 0.965325 -1.82661 0
M  V30 18277 C 1831.53 1.78581 -0.624935 0
M  V30 18278 O 1830.87 1.7893 0.415886 0
M  V30 18279 C 1830.93 1.93444 -3.03018 0
M  V30 18280 C 1830.59 1.29879 -4.38156 0
M  V30 18281 C 1831.59 0.69031 -5.15297 0
M  V30 18282 C 1829.28 1.31155 -4.84875 0
M  V30 18283 C 1831.27 0.103067 -6.37317 0
M  V30 18284 C 1828.96 0.720461 -6.06838 0
M  V30 18285 C 1829.96 0.11727 -6.82899 0
M  V30 18286 O 1829.64 -0.464631 -8.02556 0
M  V30 18287 H 1829.38 0.288651 -0.611275 0
M  V30 18288 H 1831.93 0.246237 -2.03919 0
M  V30 18289 H 1830.16 2.69243 -2.7757 0
M  V30 18290 H 1831.85 2.54017 -3.16592 0
M  V30 18291 H 1832.61 0.672801 -4.80311 0
M  V30 18292 H 1828.49 1.77044 -4.25648 0
M  V30 18293 H 1832.04 -0.368366 -6.96627 0
M  V30 18294 H 1827.93 0.735372 -6.41298 0
M  V30 18295 H 1828.7 -0.358628 -8.17714 0
M  V30 18296 N 1831.37 1.49742 0.491438 0
M  V30 18297 C 1832.61 1.61335 1.25501 0
M  V30 18298 C 1832.97 0.297703 1.89678 0
M  V30 18299 O 1834.17 0.28889 2.67243 0
M  V30 18300 C 1832.44 2.74705 2.28631 0
M  V30 18301 S 1834 3.06308 3.14199 0
M  V30 18302 H 1830.82 0.568965 0.42638 0
M  V30 18303 H 1833.42 1.87442 0.555503 0
M  V30 18304 H 1832.12 3.68806 1.80029 0
M  V30 18305 H 1831.66 2.50621 3.03237 0
M  V30 18306 H 1833.67 2.48565 4.29453 0
M  V30 18307 N 1832.84 -0.743177 1.38977 0
M  V30 18308 C 1833.79 -1.87846 1.37174 0
M  V30 18309 C 1834.79 -1.67454 0.256059 0
M  V30 18310 O 1835.99 -1.74895 0.425658 0
M  V30 18311 H 1832.37 -0.618206 0.428166 0
M  V30 18312 H 1834.34 -1.86483 2.32952 0
M  V30 18313 C 1833.09 -3.25443 1.22401 0
M  V30 18314 H 1832.41 -3.41727 2.07516 0
M  V30 18315 H 1833.85 -4.05095 1.25195 0
M  V30 18316 C 1832.31 -3.36831 -0.0682569 0
M  V30 18317 O 1832.84 -3.87964 -1.04147 0
M  V30 18318 N 1831.05 -2.90315 -0.128582 0
M  V30 18319 H 1830.59 -2.48893 0.664077 0
M  V30 18320 H 1830.55 -2.98315 -0.992762 0
M  V30 18321 N 1834.32 -1.24018 -0.972487 0
M  V30 18322 C 1835.25 -1.0529 -2.08414 0
M  V30 18323 C 1836.23 0.0326663 -1.70069 0
M  V30 18324 O 1837.42 -0.133494 -1.93741 0
M  V30 18325 C 1834.55 -0.651796 -3.41129 0
M  V30 18326 C 1833.5 -1.68559 -3.9341 0
M  V30 18327 C 1832.83 -1.1397 -5.22413 0
M  V30 18328 C 1834.13 -3.08046 -4.21788 0
M  V30 18329 H 1835.82 -1.98272 -2.2434 0
M  V30 18330 H 1833.37 -0.954694 -1.07804 0
M  V30 18331 H 1835.32 -0.507792 -4.18329 0
M  V30 18332 H 1834.05 0.313722 -3.2509 0
M  V30 18333 H 1832.7 -1.81773 -3.18362 0
M  V30 18334 H 1832.35 -0.164928 -5.0273 0
M  V30 18335 H 1832.05 -1.83051 -5.5836 0
M  V30 18336 H 1833.58 -1.00771 -6.02227 0
M  V30 18337 H 1834.99 -2.98088 -4.8971 0
M  V30 18338 H 1833.39 -3.74436 -4.68954 0
M  V30 18339 H 1834.46 -3.56444 -3.28749 0
M  V30 18340 N 1835.8 1.17245 -1.05316 0
M  V30 18341 C 1837.03 1.91454 -0.78441 0
M  V30 18342 C 1837.44 1.76886 0.660053 0
M  V30 18343 O 1836.8 1.10686 1.45103 0
M  V30 18344 C 1836.85 3.42477 -1.15722 0
M  V30 18345 O 1836.57 3.56598 -2.54498 0
M  V30 18346 C 1838.07 4.33759 -0.914783 0
M  V30 18347 H 1835.29 0.607416 -0.285108 0
M  V30 18348 H 1837.84 1.48672 -1.40417 0
M  V30 18349 H 1835.99 3.83001 -0.582183 0
M  V30 18350 H 1836.41 4.50178 -2.69147 0
M  V30 18351 H 1837.88 5.38227 -1.22536 0
M  V30 18352 H 1838.36 4.38944 0.149953 0
M  V30 18353 H 1838.96 3.98951 -1.47372 0
M  V30 18354 N 1837.28 0.834353 1.33702 0
M  V30 18355 C 1838.21 0.221764 2.28125 0
M  V30 18356 C 1839.22 -0.594917 1.51541 0
M  V30 18357 O 1840.41 -0.422726 1.73422 0
M  V30 18358 C 1837.51 -0.706778 3.31448 0
M  V30 18359 C 1836.69 0.0695756 4.37345 0
M  V30 18360 C 1835.74 -0.781623 5.20362 0
M  V30 18361 O 1834.77 -0.222459 5.68765 0
M  V30 18362 N 1835.97 -2.09968 5.41197 0
M  V30 18363 H 1838.74 1.03303 2.81333 0
M  V30 18364 H 1836.3 0.692389 1.46348 0
M  V30 18365 H 1838.29 -1.28109 3.83888 0
M  V30 18366 H 1836.86 -1.41877 2.78549 0
M  V30 18367 H 1836.08 0.825247 3.85465 0
M  V30 18368 H 1837.37 0.603576 5.05207 0
M  V30 18369 H 1836.77 -2.57756 5.03565 0
M  V30 18370 H 1835.32 -2.62258 5.96711 0
M  V30 18371 N 1838.76 -1.46125 0.590367 0
M  V30 18372 C 1840 -2.04237 0.0816639 0
M  V30 18373 C 1840.36 -1.45099 -1.25739 0
M  V30 18374 O 1841.56 -1.94458 -1.85578 0
M  V30 18375 C 1839.83 -3.57391 0.0248878 0
M  V30 18376 S 1841.39 -4.36736 -0.425128 0
M  V30 18377 H 1838.21 -0.709806 0.0411891 0
M  V30 18378 H 1840.81 -1.79065 0.784592 0
M  V30 18379 H 1839.52 -3.97948 1.00327 0
M  V30 18380 H 1839.05 -3.87112 -0.700572 0
M  V30 18381 H 1841.06 -4.66956 -1.6783 0
M  V30 18382 N 1840.23 -0.328564 -1.54137 0
M  V30 18383 C 1841.46 0.277044 -2.05541 0
M  V30 18384 C 1841.88 1.44613 -1.20285 0
M  V30 18385 O 1841.24 1.80043 -0.213107 0
M  V30 18386 C 1841.29 0.684495 -3.54044 0
M  V30 18387 O 1840.39 1.78629 -3.71706 0
M  V30 18388 H 1839.74 0.049078 -0.662184 0
M  V30 18389 H 1842.27 -0.478426 -1.98928 0
M  V30 18390 H 1842.28 0.965784 -3.96405 0
M  V30 18391 H 1840.95 -0.170554 -4.1555 0
M  V30 18392 H 1839.53 1.50343 -3.4125 0
M  V30 18393 N 1841.71 1.57497 -0.0568439 0
M  V30 18394 C 1842.99 1.84277 0.655847 0
M  V30 18395 C 1843.37 0.94638 1.88698 0
M  V30 18396 O 1842.72 0.00884889 2.28498 0
M  V30 18397 C 1842.93 3.34134 1.00775 0
M  V30 18398 C 1844.28 4.01286 1.38763 0
M  V30 18399 O 1845.3 3.38792 1.09992 0
M  V30 18400 O 1844.16 5.11482 1.92479 0
M  V30 18401 H 1841.25 0.760773 0.324275 0
M  V30 18402 H 1843.8 1.69479 -0.0866388 0
M  V30 18403 H 1842.57 3.91075 0.132718 0
M  V30 18404 H 1842.19 3.5414 1.80749 0
M  V30 18405 N 1843.19 -0.216591 1.56105 0
M  V30 18406 C 1844.15 -1.25198 1.91985 0
M  V30 18407 C 1845.15 -1.39551 0.798884 0
M  V30 18408 O 1846.34 -1.37731 1.06657 0
M  V30 18409 C 1843.48 -2.62499 2.17502 0
M  V30 18410 H 1844.67 -0.945854 2.84594 0
M  V30 18411 H 1842.22 -0.457218 1.49463 0
M  V30 18412 H 1842.96 -2.98202 1.27461 0
M  V30 18413 H 1842.74 -2.53457 2.99169 0
M  V30 18414 H 1844.23 -3.37204 2.4634 0
M  V30 18415 N 1844.67 -1.5 -0.48349 0
M  V30 18416 C 1845.58 -1.70722 -1.60907 0
M  V30 18417 C 1846.59 -0.590075 -1.63689 0
M  V30 18418 O 1847.77 -0.866915 -1.81787 0
M  V30 18419 C 1844.84 -1.78544 -2.97192 0
M  V30 18420 C 1843.9 -3.02218 -3.04898 0
M  V30 18421 C 1843.13 -3.09658 -4.34681 0
M  V30 18422 O 1843.35 -2.24216 -5.24484 0
M  V30 18423 O 1842.29 -4.02278 -4.47723 0
M  V30 18424 H 1846.11 -2.66111 -1.4635 0
M  V30 18425 H 1843.7 -1.33949 -0.661666 0
M  V30 18426 H 1845.58 -1.85941 -3.78159 0
M  V30 18427 H 1844.25 -0.863364 -3.11974 0
M  V30 18428 H 1843.16 -3.00329 -2.23054 0
M  V30 18429 H 1844.49 -3.93964 -2.95048 0
M  V30 18430 N 1846.15 0.735796 -1.39369 0
M  V30 18431 C 1847.39 1.49239 -1.3628 0
M  V30 18432 C 1847.72 1.94957 0.0408659 0
M  V30 18433 O 1846.99 1.68929 0.991959 0
M  V30 18434 H 1845.57 0.553626 -0.501506 0
M  V30 18435 H 1848.23 0.873549 -1.74227 0
M  V30 18436 H 1847.32 2.37488 -2.02499 0
M  V30 18437 N 1847.63 1.24532 0.965897 0
M  V30 18438 C 1848.85 1.11318 1.74401 0
M  V30 18439 C 1849.27 -0.33411 1.8582 0
M  V30 18440 O 1848.63 -1.23044 1.34783 0
M  V30 18441 C 1848.68 1.74927 3.16358 0
M  V30 18442 O 1848.4 3.13998 3.05511 0
M  V30 18443 C 1849.9 1.67347 4.105 0
M  V30 18444 H 1847.12 0.388835 0.546853 0
M  V30 18445 H 1849.66 1.64674 1.21255 0
M  V30 18446 H 1847.82 1.2557 3.66485 0
M  V30 18447 H 1848.23 3.45097 3.94979 0
M  V30 18448 H 1849.71 2.16533 5.07757 0
M  V30 18449 H 1850.18 0.635036 4.34585 0
M  V30 18450 H 1850.79 2.16139 3.66284 0
M  V30 18451 N 1849.1 -1.16685 1.05936 0
M  V30 18452 C 1850.07 -2.19155 0.671098 0
M  V30 18453 C 1851.07 -1.5832 -0.281305 0
M  V30 18454 O 1852.26 -1.74082 -0.0641708 0
M  V30 18455 C 1849.39 -3.40897 -0.0131101 0
M  V30 18456 H 1850.58 -2.55019 1.57815 0
M  V30 18457 H 1848.13 -1.30897 0.854147 0
M  V30 18458 H 1848.87 -3.10587 -0.933077 0
M  V30 18459 H 1848.65 -3.86304 0.671687 0
M  V30 18460 H 1850.14 -4.16722 -0.270606 0
M  V30 18461 N 1850.58 -0.841432 -1.33258 0
M  V30 18462 C 1851.83 -0.439027 -1.97991 0
M  V30 18463 C 1852.16 0.999767 -1.66488 0
M  V30 18464 O 1851.44 1.69938 -0.94612 0
M  V30 18465 C 1851.72 -0.663137 -3.53941 0
M  V30 18466 C 1851.57 -2.14939 -3.95122 0
M  V30 18467 C 1852.89 -0.11094 -4.3996 0
M  V30 18468 H 1850.01 -0.160987 -0.719203 0
M  V30 18469 H 1852.65 -1.05742 -1.57856 0
M  V30 18470 H 1850.8 -0.136765 -3.88259 0
M  V30 18471 H 1852.47 -2.74082 -3.71048 0
M  V30 18472 H 1850.72 -2.63293 -3.4476 0
M  V30 18473 H 1851.39 -2.25694 -5.03752 0
M  V30 18474 H 1853.86 -0.560898 -4.12302 0
M  V30 18475 H 1852.74 -0.297416 -5.48094 0
M  V30 18476 H 1853 0.985446 -4.30977 0
M  V30 18477 N 1852.06 1.4581 -0.598108 0
M  V30 18478 C 1853.02 2.28905 0.11623 0
M  V30 18479 C 1854.02 1.39246 0.804187 0
M  V30 18480 O 1855.21 1.61466 0.653793 0
M  V30 18481 C 1852.34 3.20029 1.17449 0
M  V30 18482 H 1853.54 2.93543 -0.614217 0
M  V30 18483 H 1851.09 1.52175 -0.356735 0
M  V30 18484 H 1851.83 2.60171 1.93601 0
M  V30 18485 H 1851.61 3.86061 0.685508 0
M  V30 18486 H 1853.1 3.82533 1.67505 0
M  V30 18487 N 1853.54 0.336733 1.53961 0
M  V30 18488 C 1854.95 -0.148599 1.86108 0
M  V30 18489 C 1855.3 -1.50551 1.25812 0
M  V30 18490 O 1854.42 -2.08782 0.569109 0
M  V30 18491 C 1855.02 -0.276413 3.37671 0
M  V30 18492 C 1853.58 -0.705973 3.6972 0
M  V30 18493 C 1852.73 0.164407 2.76812 0
M  V30 18494 H 1855.68 0.556568 1.4862 0
M  V30 18495 H 1855.7 -1.10509 3.64099 0
M  V30 18496 H 1855.21 0.711315 3.81526 0
M  V30 18497 H 1853.31 -1.70297 3.31406 0
M  V30 18498 H 1853.42 -0.500591 4.76478 0
M  V30 18499 H 1851.79 -0.362166 2.52112 0
M  V30 18500 H 1852.57 1.14914 3.23496 0
M  V30 18501 N 1855.02 -1.57465 0.0651956 0
M  V30 18502 C 1856.43 -1.80728 -0.468449 0
M  V30 18503 C 1856.78 -0.978581 -1.70054 0
M  V30 18504 O 1855.9 -0.199186 -2.15481 0
M  V30 18505 C 1856.5 -3.27791 -0.856641 0
M  V30 18506 C 1855.06 -3.51923 -1.33519 0
M  V30 18507 C 1854.2 -2.7548 -0.317147 0
M  V30 18508 H 1857.15 -1.5601 0.290955 0
M  V30 18509 H 1857.18 -3.39479 -1.71855 0
M  V30 18510 H 1856.69 -3.88079 0.0402823 0
M  V30 18511 H 1854.79 -2.96932 -2.25083 0
M  V30 18512 H 1854.9 -4.60624 -1.31767 0
M  V30 18513 H 1853.27 -2.4204 -0.793026 0
M  V30 18514 H 1854.05 -3.38502 0.571935 0
M  V30 18515 N 1856.49 0.20831 -1.56217 0
M  V30 18516 C 1857.72 0.947271 -1.83941 0
M  V30 18517 C 1858.14 1.77403 -0.646029 0
M  V30 18518 O 1857.49 1.78385 0.385378 0
M  V30 18519 C 1857.54 1.85415 -3.10328 0
M  V30 18520 O 1857.27 1.06079 -4.25063 0
M  V30 18521 C 1858.77 2.7059 -3.51135 0
M  V30 18522 H 1855.99 0.277012 -0.611151 0
M  V30 18523 H 1858.53 0.219545 -2.03318 0
M  V30 18524 H 1856.69 2.53566 -2.92888 0
M  V30 18525 H 1857.1 1.67758 -4.96948 0
M  V30 18526 H 1858.57 3.29902 -4.42571 0
M  V30 18527 H 1859.05 3.43645 -2.73505 0
M  V30 18528 H 1859.66 2.07831 -3.71061 0
M  V30 18529 N 1857.97 1.50255 0.475528 0
M  V30 18530 C 1859.22 1.61261 1.22975 0
M  V30 18531 C 1859.55 0.309949 1.91711 0
M  V30 18532 O 1858.83 -0.688288 1.81914 0
M  V30 18533 C 1859.11 2.7898 2.27688 0
M  V30 18534 C 1858.96 4.19115 1.63287 0
M  V30 18535 C 1860.28 2.9227 3.29038 0
M  V30 18536 H 1857.4 0.586933 0.445734 0
M  V30 18537 H 1860.04 1.82626 0.524177 0
M  V30 18538 H 1858.19 2.60894 2.87865 0
M  V30 18539 H 1859.86 4.48781 1.06741 0
M  V30 18540 H 1858.11 4.23579 0.936127 0
M  V30 18541 H 1858.78 4.97405 2.39359 0
M  V30 18542 H 1861.25 3.08813 2.78879 0
M  V30 18543 H 1860.13 3.7627 3.9964 0
M  V30 18544 H 1860.39 2.02696 3.92895 0
M  V30 18545 N 1859.45 -0.728395 1.39758 0
M  V30 18546 C 1860.68 -1.5176 1.40629 0
M  V30 18547 C 1861.09 -1.888 0.00253909 0
M  V30 18548 O 1860.45 -1.54561 -0.970428 0
M  V30 18549 C 1860.5 -2.80102 2.28528 0
M  V30 18550 O 1860.22 -2.44633 3.63436 0
M  V30 18551 C 1861.72 -3.74087 2.37853 0
M  V30 18552 H 1858.94 -0.468767 0.480103 0
M  V30 18553 H 1861.49 -0.89953 1.83654 0
M  V30 18554 H 1859.64 -3.38225 1.88898 0
M  V30 18555 H 1860.06 -3.27124 4.09988 0
M  V30 18556 H 1861.53 -4.61017 3.03591 0
M  V30 18557 H 1862.01 -4.163 1.39968 0
M  V30 18558 H 1862.61 -3.2188 2.7798 0
M  V30 18559 N 1860.93 -1.25042 -0.959279 0
M  V30 18560 C 1862.34 -1.08692 -1.51799 0
M  V30 18561 C 1862.69 0.338893 -1.93251 0
M  V30 18562 O 1861.81 1.22831 -1.78162 0
M  V30 18563 C 1862.41 -1.9669 -2.7586 0
M  V30 18564 C 1860.97 -1.84538 -3.28059 0
M  V30 18565 C 1860.12 -1.91119 -2.0092 0
M  V30 18566 H 1863.07 -1.38396 -0.776669 0
M  V30 18567 H 1863.09 -1.50414 -3.49508 0
M  V30 18568 H 1862.6 -3.00455 -2.45659 0
M  V30 18569 H 1860.7 -0.836383 -3.63091 0
M  V30 18570 H 1860.81 -2.69095 -3.96389 0
M  V30 18571 H 1859.18 -1.34948 -2.16012 0
M  V30 18572 H 1859.96 -2.9648 -1.73074 0
M  V30 18573 N 1862.41 1.16121 -1.06553 0
M  V30 18574 C 1863.65 1.86991 -0.784989 0
M  V30 18575 C 1863.99 1.81645 0.686919 0
M  V30 18576 O 1863.26 1.23394 1.50347 0
M  V30 18577 C 1863.54 3.36448 -1.28355 0
M  V30 18578 C 1863.4 3.5047 -2.81941 0
M  V30 18579 C 1864.72 4.30933 -0.893561 0
M  V30 18580 H 1861.83 0.678978 -0.286633 0
M  V30 18581 H 1864.48 1.36475 -1.32192 0
M  V30 18582 H 1862.63 3.796 -0.826796 0
M  V30 18583 H 1864.3 3.16237 -3.35845 0
M  V30 18584 H 1862.54 2.92294 -3.20541 0
M  V30 18585 H 1863.21 4.55443 -3.11891 0
M  V30 18586 H 1865.69 3.95696 -1.287 0
M  V30 18587 H 1864.56 5.3401 -1.26984 0
M  V30 18588 H 1864.83 4.41642 0.201274 0
M  V30 18589 N 1863.88 0.848487 1.3281 0
M  V30 18590 C 1865.3 0.504307 1.7976 0
M  V30 18591 C 1865.65 -0.977408 1.70121 0
M  V30 18592 O 1864.77 -1.7621 1.25614 0
M  V30 18593 C 1865.37 0.908628 3.26388 0
M  V30 18594 C 1863.93 0.616441 3.71318 0
M  V30 18595 C 1863.07 1.11173 2.54039 0
M  V30 18596 H 1866.02 1.03628 1.20195 0
M  V30 18597 H 1866.04 0.222518 3.79849 0
M  V30 18598 H 1865.56 1.98708 3.33372 0
M  V30 18599 H 1863.66 -0.451545 3.69854 0
M  V30 18600 H 1863.77 1.17841 4.64382 0
M  V30 18601 H 1862.13 0.532227 2.49077 0
M  V30 18602 H 1862.92 2.19716 2.6378 0
M  V30 18603 N 1865.36 -1.4549 0.605832 0
M  V30 18604 C 1866.59 -2.07135 0.104838 0
M  V30 18605 C 1867.01 -1.4478 -1.20085 0
M  V30 18606 O 1866.37 -0.539875 -1.73075 0
M  V30 18607 C 1866.42 -3.60593 -0.0231858 0
M  V30 18608 O 1865.52 -3.98173 -1.07386 0
M  V30 18609 H 1864.86 -0.659945 0.0732691 0
M  V30 18610 H 1867.39 -1.8677 0.835343 0
M  V30 18611 H 1867.4 -4.07396 -0.221964 0
M  V30 18612 H 1866.08 -4.05364 0.930211 0
M  V30 18613 H 1864.66 -3.63044 -0.851689 0
M  V30 18614 N 1866.84 -0.344893 -1.5378 0
M  V30 18615 C 1867.77 0.503579 -2.28005 0
M  V30 18616 C 1868.75 1.10149 -1.29619 0
M  V30 18617 O 1869.94 1.12263 -1.58463 0
M  V30 18618 C 1867.07 1.65398 -3.05386 0
M  V30 18619 C 1866.02 1.18434 -4.11288 0
M  V30 18620 C 1865.35 2.42336 -4.76631 0
M  V30 18621 C 1866.65 0.283853 -5.21528 0
M  V30 18622 H 1868.34 -0.115619 -2.99177 0
M  V30 18623 H 1865.89 -0.0570472 -1.43887 0
M  V30 18624 H 1867.84 2.25401 -3.56051 0
M  V30 18625 H 1866.56 2.3001 -2.31869 0
M  V30 18626 H 1865.22 0.607115 -3.61538 0
M  V30 18627 H 1864.87 3.05358 -3.99707 0
M  V30 18628 H 1864.57 2.11594 -5.4818 0
M  V30 18629 H 1866.09 3.03063 -5.3008 0
M  V30 18630 H 1867.51 0.790766 -5.6782 0
M  V30 18631 H 1865.91 0.0682509 -6.00061 0
M  V30 18632 H 1866.98 -0.679653 -4.80113 0
M  V30 18633 N 1868.32 1.57428 -0.0735454 0
M  V30 18634 C 1869.23 2.16325 0.907775 0
M  V30 18635 C 1870.24 1.12689 1.32579 0
M  V30 18636 O 1871.42 1.44963 1.39813 0
M  V30 18637 C 1868.49 2.71467 2.15654 0
M  V30 18638 C 1867.55 3.89983 1.79476 0
M  V30 18639 C 1866.78 4.42486 2.98399 0
M  V30 18640 O 1867 3.93985 4.12471 0
M  V30 18641 O 1865.94 5.33794 2.78114 0
M  V30 18642 H 1869.76 3.00543 0.436771 0
M  V30 18643 H 1867.35 1.48649 0.149623 0
M  V30 18644 H 1869.23 3.06802 2.88878 0
M  V30 18645 H 1867.9 1.90308 2.61848 0
M  V30 18646 H 1866.81 3.59498 1.03499 0
M  V30 18647 H 1868.14 4.7244 1.38063 0
M  V30 18648 N 1869.8 -0.200022 1.56326 0
M  V30 18649 C 1870.76 -1.23155 1.93302 0
M  V30 18650 C 1871.76 -1.38696 0.81364 0
M  V30 18651 O 1872.95 -1.36592 1.08112 0
M  V30 18652 C 1870.08 -2.60177 2.20274 0
M  V30 18653 H 1871.27 -0.915616 2.85581 0
M  V30 18654 H 1868.83 -0.44134 1.4994 0
M  V30 18655 H 1869.56 -2.96833 1.30617 0
M  V30 18656 H 1869.35 -2.50269 3.01841 0
M  V30 18657 H 1870.84 -3.34572 2.49903 0
M  V30 18658 N 1871.27 -1.50505 -0.467553 0
M  V30 18659 C 1872.69 -1.54489 -1.04833 0
M  V30 18660 C 1873.04 -0.350468 -1.93044 0
M  V30 18661 O 1872.16 0.536238 -2.09651 0
M  V30 18662 C 1872.76 -2.79967 -1.90799 0
M  V30 18663 C 1871.32 -2.86621 -2.43979 0
M  V30 18664 C 1870.46 -2.48819 -1.22412 0
M  V30 18665 H 1873.41 -1.56718 -0.250025 0
M  V30 18666 H 1873.43 -2.62022 -2.75907 0
M  V30 18667 H 1872.95 -3.66881 -1.2657 0
M  V30 18668 H 1871.05 -2.04066 -3.11749 0
M  V30 18669 H 1871.16 -3.89594 -2.78843 0
M  V30 18670 H 1869.52 -2.01335 -1.56001 0
M  V30 18671 H 1870.31 -3.38044 -0.598405 0
M  V30 18672 N 1872.75 0.720973 -1.40142 0
M  V30 18673 C 1873.98 1.51519 -1.41622 0
M  V30 18674 C 1874.4 1.88093 -0.0162669 0
M  V30 18675 O 1873.76 1.52895 0.974307 0
M  V30 18676 C 1873.81 2.77041 -2.30826 0
M  V30 18677 O 1872.91 3.73532 -1.74779 0
M  V30 18678 H 1872.25 0.457034 -0.481681 0
M  V30 18679 H 1874.78 0.88837 -1.84307 0
M  V30 18680 H 1874.79 3.25628 -2.45826 0
M  V30 18681 H 1873.47 2.49755 -3.32558 0
M  V30 18682 H 1872.05 3.32356 -1.69097 0
M  V30 18683 N 1874.23 1.25549 0.952634 0
M  V30 18684 C 1875.14 1.07855 2.08337 0
M  V30 18685 C 1876.16 0.0151456 1.73993 0
M  V30 18686 O 1877.33 0.216498 2.00233 0
M  V30 18687 C 1874.4 0.701369 3.39532 0
M  V30 18688 C 1873.46 1.84293 3.8773 0
M  V30 18689 C 1872.69 1.48365 5.12663 0
M  V30 18690 O 1872.91 0.3802 5.69131 0
M  V30 18691 O 1871.85 2.31452 5.5562 0
M  V30 18692 H 1875.67 2.02688 2.26167 0
M  V30 18693 H 1873.26 1.04506 1.06765 0
M  V30 18694 H 1875.14 0.503231 4.18384 0
M  V30 18695 H 1873.82 -0.217671 3.22967 0
M  V30 18696 H 1872.72 2.09595 3.09872 0
M  V30 18697 H 1874.06 2.74129 4.08796 0
M  V30 18698 N 1875.71 -1.15554 1.07168 0
M  V30 18699 C 1876.64 -2.19841 0.648285 0
M  V30 18700 C 1877.65 -1.60045 -0.298247 0
M  V30 18701 O 1878.84 -1.78284 -0.0878565 0
M  V30 18702 C 1875.94 -3.38831 -0.068586 0
M  V30 18703 C 1875.12 -4.28173 0.89366 0
M  V30 18704 C 1874.17 -5.25763 0.214424 0
M  V30 18705 O 1873.2 -5.62744 0.854883 0
M  V30 18706 N 1874.4 -5.71096 -1.04063 0
M  V30 18707 H 1877.17 -2.56784 1.54539 0
M  V30 18708 H 1874.73 -1.30652 0.956127 0
M  V30 18709 H 1876.72 -4.01167 -0.533614 0
M  V30 18710 H 1875.29 -3.00319 -0.86761 0
M  V30 18711 H 1874.51 -3.62965 1.53785 0
M  V30 18712 H 1875.8 -4.84739 1.54613 0
M  V30 18713 H 1875.2 -5.4316 -1.58095 0
M  V30 18714 H 1873.75 -6.35481 -1.44937 0
M  V30 18715 N 1877.19 -0.855519 -1.32358 0
M  V30 18716 C 1878.15 -0.305794 -2.27151 0
M  V30 18717 C 1879.15 0.535008 -1.51639 0
M  V30 18718 O 1880.34 0.346394 -1.70721 0
M  V30 18719 C 1877.47 0.567275 -3.36147 0
M  V30 18720 H 1878.67 -1.14245 -2.77287 0
M  V30 18721 H 1876.22 -0.629924 -1.43044 0
M  V30 18722 H 1876.95 1.42571 -2.9128 0
M  V30 18723 H 1876.74 -0.0345714 -3.92085 0
M  V30 18724 H 1878.23 0.944644 -4.06775 0
M  V30 18725 N 1878.67 1.45167 -0.61354 0
M  V30 18726 C 1880.08 1.85674 -0.19544 0
M  V30 18727 C 1880.43 1.51303 1.24908 0
M  V30 18728 O 1879.55 0.94257 1.94794 0
M  V30 18729 C 1880.15 3.37009 -0.347921 0
M  V30 18730 C 1878.71 3.76397 0.0155323 0
M  V30 18731 C 1877.85 2.69095 -0.669578 0
M  V30 18732 H 1880.8 1.35883 -0.819842 0
M  V30 18733 H 1880.83 3.78195 0.418185 0
M  V30 18734 H 1880.34 3.61994 -1.39935 0
M  V30 18735 H 1878.44 3.57028 1.06591 0
M  V30 18736 H 1878.55 4.77573 -0.382267 0
M  V30 18737 H 1876.92 2.54477 -0.10662 0
M  V30 18738 H 1877.7 2.96915 -1.72326 0
M  V30 18739 N 1880.14 0.353044 1.53595 0
M  V30 18740 C 1881.37 -0.241665 2.05484 0
M  V30 18741 C 1881.79 -1.43458 1.2274 0
M  V30 18742 O 1881.14 -1.80566 0.26501 0
M  V30 18743 C 1881.19 -0.647442 3.55655 0
M  V30 18744 O 1880.92 0.498047 4.3526 0
M  V30 18745 C 1882.42 -1.30187 4.23753 0
M  V30 18746 H 1879.64 -0.0449704 0.669491 0
M  V30 18747 H 1882.18 0.507783 1.98095 0
M  V30 18748 H 1880.34 -1.34682 3.63235 0
M  V30 18749 H 1880.75 0.172685 5.24216 0
M  V30 18750 H 1882.22 -1.53646 5.30186 0
M  V30 18751 H 1882.7 -2.25835 3.7669 0
M  V30 18752 H 1883.31 -0.644265 4.20392 0
M  V30 18753 N 1881.62 -1.57387 0.0818932 0
M  V30 18754 C 1882.53 -2.16804 -0.89629 0
M  V30 18755 C 1883.55 -1.1339 -1.3198 0
M  V30 18756 O 1884.72 -1.45702 -1.39042 0
M  V30 18757 C 1881.79 -2.72607 -2.14211 0
M  V30 18758 C 1880.85 -3.90929 -1.77406 0
M  V30 18759 C 1880.08 -4.44062 -2.96049 0
M  V30 18760 O 1880.31 -3.96166 -4.10376 0
M  V30 18761 O 1879.24 -5.35261 -2.75279 0
M  V30 18762 H 1883.07 -3.0077 -0.420827 0
M  V30 18763 H 1880.65 -1.48726 -0.141737 0
M  V30 18764 H 1882.53 -3.0833 -2.87247 0
M  V30 18765 H 1881.21 -1.91694 -2.60835 0
M  V30 18766 H 1880.11 -3.60042 -1.01591 0
M  V30 18767 H 1881.45 -4.73165 -1.35556 0
M  V30 18768 N 1883.1 0.191729 -1.56429 0
M  V30 18769 C 1884.03 1.26174 -1.91345 0
M  V30 18770 C 1885.04 1.41536 -0.804451 0
M  V30 18771 O 1886.23 1.41902 -1.08287 0
M  V30 18772 C 1883.33 2.63341 -2.13319 0
M  V30 18773 C 1882.51 2.69543 -3.44479 0
M  V30 18774 C 1881.57 3.87929 -3.55524 0
M  V30 18775 O 1880.59 3.74875 -4.28319 0
M  V30 18776 N 1881.79 5.03527 -2.88861 0
M  V30 18777 H 1884.56 0.965364 -2.83727 0
M  V30 18778 H 1882.12 0.381628 -1.57338 0
M  V30 18779 H 1884.11 3.40971 -2.17993 0
M  V30 18780 H 1882.68 2.85452 -1.2742 0
M  V30 18781 H 1881.9 1.78161 -3.51642 0
M  V30 18782 H 1883.19 2.7068 -4.30824 0
M  V30 18783 H 1882.59 5.17032 -2.29553 0
M  V30 18784 H 1881.14 5.79092 -2.99159 0
M  V30 18785 N 1884.58 1.50751 0.459565 0
M  V30 18786 C 1885.99 1.38432 0.794269 0
M  V30 18787 C 1886.19 0.449353 1.96426 0
M  V30 18788 O 1885.25 -0.103761 2.52287 0
M  V30 18789 C 1886.56 2.80034 1.09551 0
M  V30 18790 C 1888.11 2.8903 1.20127 0
M  V30 18791 C 1888.59 4.3149 1.53558 0
M  V30 18792 N 1890.08 4.34494 1.60527 0
M  V30 18793 C 1890.81 5.41732 1.87921 0
M  V30 18794 N 1890.31 6.59161 2.13258 0
M  V30 18795 N 1892.1 5.29187 1.89519 0
M  V30 18796 H 1884.25 2.10106 -0.311312 0
M  V30 18797 H 1886.51 0.944884 -0.0767974 0
M  V30 18798 H 1886.22 3.50342 0.308751 0
M  V30 18799 H 1886.09 3.17992 2.02882 0
M  V30 18800 H 1888.48 2.18934 1.97869 0
M  V30 18801 H 1888.56 2.546 0.247486 0
M  V30 18802 H 1888.21 5.02128 0.763522 0
M  V30 18803 H 1888.14 4.63416 2.50106 0
M  V30 18804 H 1890.63 3.49824 1.42939 0
M  V30 18805 H 1890.94 7.3669 2.33468 0
M  V30 18806 H 1889.29 6.62315 2.10626 0
M  V30 18807 H 1892.48 4.36439 1.69229 0
M  V30 18808 H 1892.65 6.12846 2.10532 0
M  V30 18809 N 1886.06 -0.713531 1.40522 0
M  V30 18810 C 1887.47 -1.29276 1.34702 0
M  V30 18811 C 1887.82 -1.96188 0.0214862 0
M  V30 18812 O 1886.94 -1.97676 -0.880513 0
M  V30 18813 C 1887.54 -2.35082 2.43971 0
M  V30 18814 C 1886.1 -2.88624 2.41605 0
M  V30 18815 C 1885.24 -1.62437 2.24743 0
M  V30 18816 H 1888.19 -0.509517 1.50298 0
M  V30 18817 H 1888.22 -3.15971 2.11996 0
M  V30 18818 H 1887.73 -1.86353 3.40432 0
M  V30 18819 H 1885.83 -3.41578 1.48847 0
M  V30 18820 H 1885.94 -3.40278 3.37265 0
M  V30 18821 H 1884.31 -1.8758 1.72296 0
M  V30 18822 H 1885.09 -1.1573 3.23205 0
M  V30 18823 N 1887.53 -1.26053 -0.945962 0
M  V30 18824 C 1888.78 -1.11095 -1.68826 0
M  V30 18825 C 1889.1 0.347174 -1.91885 0
M  V30 18826 O 1888.37 1.24545 -1.51213 0
M  V30 18827 H 1886.95 -0.408128 -0.625652 0
M  V30 18828 H 1889.61 -1.58309 -1.13686 0
M  V30 18829 H 1888.71 -1.626 -2.66397 0
M  V30 18830 N 1889.01 1.14984 -1.07779 0
M  V30 18831 C 1890.26 1.86148 -0.804777 0
M  V30 18832 C 1890.59 1.82364 0.667615 0
M  V30 18833 O 1889.87 1.24982 1.4903 0
M  V30 18834 C 1890.15 3.35067 -1.31916 0
M  V30 18835 C 1890 3.4746 -2.85642 0
M  V30 18836 C 1891.32 4.29961 -0.939217 0
M  V30 18837 H 1888.44 0.675899 -0.293818 0
M  V30 18838 H 1891.08 1.35065 -1.33632 0
M  V30 18839 H 1889.23 3.78702 -0.867011 0
M  V30 18840 H 1890.9 3.12658 -3.3918 0
M  V30 18841 H 1889.15 2.88878 -3.23623 0
M  V30 18842 H 1889.82 4.52109 -3.16704 0
M  V30 18843 H 1892.29 3.94309 -1.3289 0
M  V30 18844 H 1891.17 5.32633 -1.32641 0
M  V30 18845 H 1891.43 4.4183 0.15442 0
M  V30 18846 N 1890.49 0.862526 1.31902 0
M  V30 18847 C 1891.42 0.270103 2.27603 0
M  V30 18848 C 1892.43 -0.562639 1.52768 0
M  V30 18849 O 1893.62 -0.385845 1.7428 0
M  V30 18850 C 1890.72 -0.636314 3.32873 0
M  V30 18851 C 1889.9 0.162327 4.37099 0
M  V30 18852 C 1888.96 -0.67107 5.21903 0
M  V30 18853 O 1887.98 -0.101765 5.69109 0
M  V30 18854 N 1889.18 -1.98441 5.45529 0
M  V30 18855 H 1891.95 1.09248 2.79079 0
M  V30 18856 H 1889.51 0.723275 1.44846 0
M  V30 18857 H 1891.5 -1.19937 3.86519 0
M  V30 18858 H 1890.07 -1.35936 2.81496 0
M  V30 18859 H 1889.29 0.906824 3.83628 0
M  V30 18860 H 1890.58 0.710602 5.03813 0
M  V30 18861 H 1889.98 -2.47017 5.0892 0
M  V30 18862 H 1888.53 -2.49542 6.0214 0
M  V30 18863 N 1891.97 -1.4484 0.62123 0
M  V30 18864 C 1892.88 -2.34423 -0.0910566 0
M  V30 18865 C 1893.89 -1.52042 -0.846121 0
M  V30 18866 O 1895.07 -1.84802 -0.800625 0
M  V30 18867 C 1892.14 -3.29874 -1.06696 0
M  V30 18868 C 1891.2 -4.28162 -0.312354 0
M  V30 18869 C 1890.43 -5.19053 -1.24177 0
M  V30 18870 O 1890.65 -5.13659 -2.48014 0
M  V30 18871 O 1889.59 -5.97439 -0.731442 0
M  V30 18872 H 1893.41 -2.96761 0.645493 0
M  V30 18873 H 1891 -1.44448 0.381445 0
M  V30 18874 H 1892.88 -3.88654 -1.62867 0
M  V30 18875 H 1891.55 -2.70083 -1.78429 0
M  V30 18876 H 1890.46 -3.72957 0.292161 0
M  V30 18877 H 1891.79 -4.90847 0.364763 0
M  V30 18878 N 1893.45 -0.361184 -1.53405 0
M  V30 18879 C 1894.69 0.230007 -2.03102 0
M  V30 18880 C 1895.05 1.4635 -1.2428 0
M  V30 18881 O 1896.25 2.13003 -1.63961 0
M  V30 18882 C 1894.52 0.519128 -3.5361 0
M  V30 18883 S 1896.08 1.08462 -4.25184 0
M  V30 18884 H 1892.9 0.0672785 -0.70781 0
M  V30 18885 H 1895.5 -0.503033 -1.88918 0
M  V30 18886 H 1894.21 -0.38616 -4.08579 0
M  V30 18887 H 1893.74 1.28136 -3.71947 0
M  V30 18888 H 1895.75 2.36918 -4.35987 0
M  V30 18889 N 1894.92 1.57341 -0.0902386 0
M  V30 18890 C 1896.15 1.98225 0.58228 0
M  V30 18891 C 1896.56 0.968012 1.62561 0
M  V30 18892 O 1895.91 -0.0512719 1.83628 0
M  V30 18893 C 1895.97 3.35468 1.29233 0
M  V30 18894 C 1895.63 4.55243 0.400324 0
M  V30 18895 C 1896.63 5.18723 -0.349573 0
M  V30 18896 C 1894.31 5.01281 0.319802 0
M  V30 18897 C 1896.31 6.26607 -1.16802 0
M  V30 18898 C 1893.99 6.09032 -0.502303 0
M  V30 18899 C 1894.99 6.71559 -1.24487 0
M  V30 18900 O 1894.68 7.77233 -2.05338 0
M  V30 18901 H 1894.41 0.65651 0.161154 0
M  V30 18902 H 1896.97 2.04738 -0.164737 0
M  V30 18903 H 1895.2 3.25623 2.08582 0
M  V30 18904 H 1896.89 3.60832 1.8589 0
M  V30 18905 H 1897.65 4.84089 -0.297067 0
M  V30 18906 H 1893.53 4.52378 0.887432 0
M  V30 18907 H 1897.07 6.75342 -1.74811 0
M  V30 18908 H 1892.97 6.43098 -0.556307 0
M  V30 18909 H 1893.74 7.94198 -1.97968 0
M  V30 18910 N 1896.4 -0.183431 1.56529 0
M  V30 18911 C 1897.35 -1.23162 1.91873 0
M  V30 18912 C 1898.34 -1.40413 0.785677 0
M  V30 18913 O 1899.53 -1.42588 1.0487 0
M  V30 18914 C 1896.66 -2.57382 2.27177 0
M  V30 18915 C 1895.74 -2.43875 3.46967 0
M  V30 18916 N 1896.13 -2.00063 4.64552 0
M  V30 18917 C 1894.43 -2.74736 3.51335 0
M  V30 18918 C 1895.13 -1.98728 5.46701 0
M  V30 18919 N 1894.11 -2.40674 4.87418 0
M  V30 18920 H 1897.91 -0.884396 2.80278 0
M  V30 18921 H 1895.43 -0.391791 1.57603 0
M  V30 18922 H 1897.42 -3.33109 2.50687 0
M  V30 18923 H 1896.08 -2.92918 1.40104 0
M  V30 18924 H 1897.09 -1.7059 4.88999 0
M  V30 18925 H 1893.77 -3.1439 2.74709 0
M  V30 18926 H 1895.16 -1.66657 6.50903 0
M  V30 18927 N 1897.88 -1.50992 -0.451564 0
M  V30 18928 C 1899.13 -1.62633 -1.19978 0
M  V30 18929 C 1899.45 -0.337971 -1.92049 0
M  V30 18930 O 1898.72 0.645542 -1.84958 0
M  V30 18931 H 1897.3 -0.599345 -0.445864 0
M  V30 18932 H 1899.96 -1.8786 -0.519104 0
M  V30 18933 H 1899.06 -2.44709 -1.93711 0
M  V30 18934 N 1899.36 0.706069 -1.40899 0
M  V30 18935 C 1900.31 1.84143 -1.42106 0
M  V30 18936 C 1901.3 1.66716 -0.300367 0
M  V30 18937 O 1902.51 1.73705 -0.471879 0
M  V30 18938 H 1898.88 0.606636 -0.444406 0
M  V30 18939 H 1900.85 1.80241 -2.37815 0
M  V30 18940 C 1899.6 3.22084 -1.30986 0
M  V30 18941 H 1898.92 3.36105 -2.16503 0
M  V30 18942 H 1900.36 4.01634 -1.35891 0
M  V30 18943 C 1898.82 3.36893 -0.0210718 0
M  V30 18944 O 1899.35 3.90589 0.938242 0
M  V30 18945 N 1897.56 2.90554 0.0515652 0
M  V30 18946 H 1897.11 2.47045 -0.729833 0
M  V30 18947 H 1897.06 3.00842 0.91332 0
M  V30 18948 N 1900.84 1.26553 0.939264 0
M  V30 18949 C 1902.08 1.11989 1.68235 0
M  V30 18950 C 1902.41 -0.336993 1.92066 0
M  V30 18951 O 1901.68 -1.23742 1.51871 0
M  V30 18952 H 1900.26 0.41144 0.623479 0
M  V30 18953 H 1902.92 1.58909 1.12845 0
M  V30 18954 H 1902.01 1.64011 2.65531 0
M  V30 18955 N 1902.31 -1.14411 1.08387 0
M  V30 18956 C 1903.25 -2.19141 0.671565 0
M  V30 18957 C 1904.26 -1.60352 -0.281256 0
M  V30 18958 O 1905.45 -1.78367 -0.0689422 0
M  V30 18959 C 1902.55 -3.38884 -0.0326447 0
M  V30 18960 C 1901.72 -4.27201 0.939024 0
M  V30 18961 C 1900.78 -5.25506 0.270176 0
M  V30 18962 O 1899.81 -5.61805 0.914522 0
M  V30 18963 N 1901.01 -5.72168 -0.980002 0
M  V30 18964 H 1903.77 -2.5513 1.57254 0
M  V30 18965 H 1901.33 -1.2963 0.969931 0
M  V30 18966 H 1903.33 -4.0171 -0.491035 0
M  V30 18967 H 1901.9 -3.01222 -0.835708 0
M  V30 18968 H 1901.12 -3.61314 1.57626 0
M  V30 18969 H 1902.4 -4.83072 1.59746 0
M  V30 18970 H 1901.8 -5.44806 -1.52325 0
M  V30 18971 H 1900.36 -6.36983 -1.38189 0
M  V30 18972 N 1903.79 -0.869509 -1.31443 0
M  V30 18973 C 1905.02 -0.493849 -2.01435 0
M  V30 18974 C 1905.44 0.906049 -1.6484 0
M  V30 18975 O 1904.8 1.59777 -0.856794 0
M  V30 18976 C 1904.85 -0.657723 -3.54551 0
M  V30 18977 O 1903.95 0.303155 -4.11284 0
M  V30 18978 H 1903.29 -0.196494 -0.63426 0
M  V30 18979 H 1905.82 -1.1728 -1.6765 0
M  V30 18980 H 1905.83 -0.550841 -4.04264 0
M  V30 18981 H 1904.51 -1.67848 -3.80526 0
M  V30 18982 H 1903.09 0.151268 -3.72593 0
M  V30 18983 N 1905.27 1.44508 -0.628902 0
M  V30 18984 C 1906.5 2.0613 -0.139308 0
M  V30 18985 C 1906.91 1.47055 1.19044 0
M  V30 18986 O 1906.25 0.587051 1.74067 0
M  V30 18987 C 1906.31 3.59462 0.0521977 0
M  V30 18988 C 1905.98 4.4099 -1.19904 0
M  V30 18989 C 1906.97 4.74613 -2.12222 0
M  V30 18990 C 1904.66 4.81401 -1.43383 0
M  V30 18991 C 1906.65 5.47528 -3.26332 0
M  V30 18992 C 1904.34 5.54065 -2.5779 0
M  V30 18993 C 1905.34 5.87047 -3.49091 0
M  V30 18994 O 1905.03 6.58233 -4.61503 0
M  V30 18995 H 1904.76 0.671728 -0.0758762 0
M  V30 18996 H 1907.31 1.86402 -0.862745 0
M  V30 18997 H 1905.54 3.77671 0.830756 0
M  V30 18998 H 1907.23 4.02857 0.496066 0
M  V30 18999 H 1908 4.43933 -1.95316 0
M  V30 19000 H 1903.88 4.5515 -0.73209 0
M  V30 19001 H 1907.42 5.7319 -3.97617 0
M  V30 19002 H 1903.32 5.8416 -2.7464 0
M  V30 19003 H 1904.09 6.767 -4.60456 0
M  V30 19004 N 1906.75 0.369315 1.53212 0
M  V30 19005 C 1908.17 0.0184115 1.59589 0
M  V30 19006 C 1908.37 -1.46424 1.38428 0
M  V30 19007 O 1907.42 -2.2263 1.1913 0
M  V30 19008 C 1908.73 0.477693 2.96881 0
M  V30 19009 C 1910.28 0.432233 3.10001 0
M  V30 19010 C 1910.76 0.867386 4.49711 0
M  V30 19011 N 1912.25 0.822594 4.55837 0
M  V30 19012 C 1912.98 1.13094 5.62136 0
M  V30 19013 N 1912.48 1.50876 6.76172 0
M  V30 19014 N 1914.27 1.0535 5.52139 0
M  V30 19015 H 1906.42 1.33479 1.65218 0
M  V30 19016 H 1908.69 0.545823 0.775101 0
M  V30 19017 H 1908.39 1.51245 3.17518 0
M  V30 19018 H 1908.27 -0.133741 3.76963 0
M  V30 19019 H 1910.65 -0.593397 2.89072 0
M  V30 19020 H 1910.73 1.07921 2.3192 0
M  V30 19021 H 1910.38 1.89115 4.71379 0
M  V30 19022 H 1910.31 0.19762 5.26229 0
M  V30 19023 H 1912.8 0.544303 3.7396 0
M  V30 19024 H 1913.11 1.72821 7.53228 0
M  V30 19025 H 1911.46 1.54745 6.77554 0
M  V30 19026 H 1914.65 0.757487 4.6193 0
M  V30 19027 H 1914.82 1.29713 6.34885 0
M  V30 19028 N 1908.23 -1.57291 0.0985816 0
M  V30 19029 C 1909.48 -1.94094 -0.563189 0
M  V30 19030 C 1909.8 -0.981394 -1.68504 0
M  V30 19031 O 1909.07 -0.0340632 -1.9587 0
M  V30 19032 H 1907.65 -0.716571 -0.211033 0
M  V30 19033 H 1910.31 -1.94219 0.162732 0
M  V30 19034 H 1909.4 -2.96607 -0.971113 0
M  V30 19035 N 1909.71 0.175127 -1.56624 0
M  V30 19036 C 1910.93 0.908041 -1.85909 0
M  V30 19037 C 1911.35 1.75993 -0.683514 0
M  V30 19038 O 1910.71 1.79162 0.347453 0
M  V30 19039 C 1910.76 1.78791 -3.14191 0
M  V30 19040 O 1910.48 0.970386 -4.27218 0
M  V30 19041 C 1911.98 2.63081 -3.56796 0
M  V30 19042 H 1909.2 0.263986 -0.616889 0
M  V30 19043 H 1911.74 0.176369 -2.03738 0
M  V30 19044 H 1909.9 2.47296 -2.982 0
M  V30 19045 H 1910.31 1.57179 -5.00395 0
M  V30 19046 H 1911.79 3.2044 -4.49469 0
M  V30 19047 H 1912.26 3.37766 -2.80732 0
M  V30 19048 H 1912.87 1.99914 -3.75386 0
M  V30 19049 N 1911.18 1.5123 0.44355 0
M  V30 19050 C 1912.41 1.67146 1.21432 0
M  V30 19051 C 1912.82 0.365681 1.85632 0
M  V30 19052 O 1912.16 -0.665141 1.71235 0
M  V30 19053 C 1912.23 2.72562 2.34415 0
M  V30 19054 C 1911.89 4.15341 1.90632 0
M  V30 19055 C 1912.89 5.00323 1.41325 0
M  V30 19056 C 1910.57 4.61409 1.98513 0
M  V30 19057 C 1912.57 6.29431 1.00476 0
M  V30 19058 C 1910.25 5.90515 1.57276 0
M  V30 19059 C 1911.25 6.74353 1.08339 0
M  V30 19060 O 1910.94 8.01046 0.676843 0
M  V30 19061 H 1910.67 0.564225 0.372325 0
M  V30 19062 H 1913.23 1.98375 0.532597 0
M  V30 19063 H 1911.46 2.36634 3.05845 0
M  V30 19064 H 1913.14 2.77419 2.96299 0
M  V30 19065 H 1913.91 4.65938 1.34636 0
M  V30 19066 H 1909.79 3.96279 2.3555 0
M  V30 19067 H 1913.33 6.94821 0.622093 0
M  V30 19068 H 1909.23 6.24415 1.63633 0
M  V30 19069 H 1910 8.14549 0.803247 0
M  V30 19070 N 1912.66 -0.698586 1.41271 0
M  V30 19071 C 1913.89 -1.49247 1.44014 0
M  V30 19072 C 1914.31 -1.88043 0.0461888 0
M  V30 19073 O 1913.67 -1.54426 -0.94986 0
M  V30 19074 C 1913.72 -2.73334 2.35204 0
M  V30 19075 O 1912.82 -3.70704 1.807 0
M  V30 19076 H 1912.16 -0.449313 0.488891 0
M  V30 19077 H 1914.69 -0.858936 1.85697 0
M  V30 19078 H 1914.7 -3.21676 2.50975 0
M  V30 19079 H 1913.38 -2.44433 3.3649 0
M  V30 19080 H 1911.95 -3.29624 1.74363 0
M  V30 19081 N 1914.14 -1.27049 -0.93254 0
M  V30 19082 C 1915.37 -1.15903 -1.71389 0
M  V30 19083 C 1915.78 0.284726 -1.86641 0
M  V30 19084 O 1915.14 1.19428 -1.37997 0
M  V30 19085 C 1915.19 -1.83254 -3.11609 0
M  V30 19086 O 1914.91 -3.21988 -2.97078 0
M  V30 19087 C 1916.41 -1.78172 -4.05918 0
M  V30 19088 H 1913.63 -0.403197 -0.536352 0
M  V30 19089 H 1916.18 -1.67831 -1.16846 0
M  V30 19090 H 1914.33 -1.35243 -3.63026 0
M  V30 19091 H 1914.75 -3.55447 -3.85691 0
M  V30 19092 H 1916.22 -2.29919 -5.01838 0
M  V30 19093 H 1916.7 -0.750036 -4.32748 0
M  V30 19094 H 1917.3 -2.25774 -3.60425 0
M  V30 19095 N 1915.62 1.13835 -1.08993 0
M  V30 19096 C 1916.85 1.88861 -0.844923 0
M  V30 19097 C 1917.26 1.78897 0.603444 0
M  V30 19098 O 1916.62 1.15246 1.41508 0
M  V30 19099 C 1916.67 3.38622 -1.26559 0
M  V30 19100 O 1916.39 3.48321 -2.65714 0
M  V30 19101 C 1917.89 4.30629 -1.05232 0
M  V30 19102 H 1915.11 0.598038 -0.304288 0
M  V30 19103 H 1917.65 1.44129 -1.45076 0
M  V30 19104 H 1915.81 3.80954 -0.703737 0
M  V30 19105 H 1916.22 4.41387 -2.83333 0
M  V30 19106 H 1917.7 5.34057 -1.39598 0
M  V30 19107 H 1918.17 4.39199 0.0102308 0
M  V30 19108 H 1918.78 3.9406 -1.5999 0
M  V30 19109 N 1917.1 0.876467 1.3098 0
M  V30 19110 C 1918.34 0.491367 1.96757 0
M  V30 19111 C 1918.67 -0.955274 1.6908 0
M  V30 19112 O 1917.95 -1.6737 0.990843 0
M  V30 19113 C 1918.23 0.756745 3.52059 0
M  V30 19114 C 1918.09 2.25339 3.89284 0
M  V30 19115 C 1919.4 0.227549 4.39511 0
M  V30 19116 H 1916.52 0.179998 0.714681 0
M  V30 19117 H 1919.17 1.0989 1.54997 0
M  V30 19118 H 1917.32 0.239657 3.8776 0
M  V30 19119 H 1918.99 2.83824 3.63651 0
M  V30 19120 H 1917.23 2.72341 3.37658 0
M  V30 19121 H 1917.9 2.38971 4.97591 0
M  V30 19122 H 1920.38 0.670016 4.1067 0
M  V30 19123 H 1919.25 0.442629 5.47112 0
M  V30 19124 H 1919.51 -0.870833 4.33438 0
M  V30 19125 N 1918.57 -1.44173 0.636557 0
M  V30 19126 C 1919.8 -2.06352 0.150456 0
M  V30 19127 C 1920.22 -1.47608 -1.17718 0
M  V30 19128 O 1919.57 -0.601003 -1.7232 0
M  V30 19129 C 1919.62 -3.61483 0.0353658 0
M  V30 19130 O 1919.35 -4.1804 1.3105 0
M  V30 19131 C 1920.85 -4.40707 -0.478789 0
M  V30 19132 H 1918.07 -0.665948 0.0821807 0
M  V30 19133 H 1920.61 -1.84953 0.872495 0
M  V30 19134 H 1918.77 -3.82125 -0.637142 0
M  V30 19135 H 1919.18 -5.11538 1.15886 0
M  V30 19136 H 1920.65 -5.49655 -0.508315 0
M  V30 19137 H 1921.13 -4.1254 -1.5069 0
M  V30 19138 H 1921.74 -4.24996 0.160654 0
M  V30 19139 N 1920.05 -0.377435 -1.53014 0
M  V30 19140 C 1921.3 0.208118 -2.01026 0
M  V30 19141 C 1921.62 1.48307 -1.26609 0
M  V30 19142 O 1920.89 1.92125 -0.382732 0
M  V30 19143 H 1919.47 0.0798957 -0.742715 0
M  V30 19144 H 1922.13 -0.506396 -1.88206 0
M  V30 19145 H 1921.23 0.426737 -3.09169 0
M  V30 19146 N 1921.53 1.57237 -0.106922 0
M  V30 19147 C 1922.95 1.57634 0.249708 0
M  V30 19148 C 1923.15 1.11888 1.67581 0
M  V30 19149 O 1922.2 0.80073 2.39467 0
M  V30 19150 C 1923.52 3.00688 0.0273757 0
M  V30 19151 C 1925.06 3.12858 0.0942116 0
M  V30 19152 C 1925.54 4.5789 -0.100275 0
M  V30 19153 N 1927.03 4.63177 -0.045837 0
M  V30 19154 C 1927.76 5.73144 -0.171398 0
M  V30 19155 N 1927.26 6.91903 -0.352455 0
M  V30 19156 N 1929.05 5.61989 -0.111827 0
M  V30 19157 H 1921.2 1.85278 -1.03855 0
M  V30 19158 H 1923.47 0.855717 -0.407985 0
M  V30 19159 H 1923.17 3.38399 -0.958063 0
M  V30 19160 H 1923.05 3.6937 0.764546 0
M  V30 19161 H 1925.43 2.75012 1.07016 0
M  V30 19162 H 1925.52 2.46743 -0.674643 0
M  V30 19163 H 1925.16 4.96433 -1.07315 0
M  V30 19164 H 1925.09 5.22081 0.688418 0
M  V30 19165 H 1927.58 3.7779 0.0910806 0
M  V30 19166 H 1927.89 7.7155 -0.439454 0
M  V30 19167 H 1926.24 6.93915 -0.388274 0
M  V30 19168 H 1929.43 4.68091 0.0285732 0
M  V30 19169 H 1929.6 6.47649 -0.213127 0
M  V30 19170 N 1923.01 -0.166818 1.56715 0
M  V30 19171 C 1924.24 -0.898169 1.86388 0
M  V30 19172 C 1924.65 -1.75628 0.692837 0
M  V30 19173 O 1924.01 -1.79344 -0.337947 0
M  V30 19174 C 1924.06 -1.77122 3.15135 0
M  V30 19175 O 1923.78 -0.947716 4.27727 0
M  V30 19176 C 1925.28 -2.61185 3.58186 0
M  V30 19177 H 1922.5 -0.260711 0.61828 0
M  V30 19178 H 1925.05 -0.165561 2.03829 0
M  V30 19179 H 1923.2 -2.45711 2.99507 0
M  V30 19180 H 1923.61 -1.54523 5.01221 0
M  V30 19181 H 1925.09 -3.18052 4.51162 0
M  V30 19182 H 1925.57 -3.36273 2.8252 0
M  V30 19183 H 1926.17 -1.9792 3.76441 0
M  V30 19184 N 1924.49 -1.51463 -0.435524 0
M  V30 19185 C 1925.73 -1.65881 -1.19427 0
M  V30 19186 C 1926.09 -0.367896 -1.88442 0
M  V30 19187 O 1927.29 -0.387877 -2.65987 0
M  V30 19188 C 1925.56 -2.83001 -2.18278 0
M  V30 19189 S 1927.12 -3.17758 -3.02614 0
M  V30 19190 H 1923.94 -0.584398 -0.404969 0
M  V30 19191 H 1926.54 -1.89374 -0.485553 0
M  V30 19192 H 1925.25 -3.75233 -1.66217 0
M  V30 19193 H 1924.78 -2.61702 -2.93727 0
M  V30 19194 H 1926.79 -2.64333 -4.19932 0
M  V30 19195 N 1925.96 0.691085 -1.4164 0
M  V30 19196 C 1926.9 1.81646 -1.39776 0
M  V30 19197 C 1927.91 1.60026 -0.299243 0
M  V30 19198 O 1929.1 1.69446 -0.561266 0
M  V30 19199 C 1926.2 3.18486 -1.15845 0
M  V30 19200 C 1925.37 3.67096 -2.37822 0
M  V30 19201 C 1924.43 4.82618 -2.09681 0
M  V30 19202 O 1923.46 4.94002 -2.82756 0
M  V30 19203 N 1924.66 5.70178 -1.08983 0
M  V30 19204 H 1927.42 1.83736 -2.36773 0
M  V30 19205 H 1924.98 0.873576 -1.36309 0
M  V30 19206 H 1926.98 3.934 -0.949639 0
M  V30 19207 H 1925.55 3.11394 -0.274301 0
M  V30 19208 H 1924.77 2.83038 -2.74377 0
M  V30 19209 H 1926.05 3.96312 -3.19083 0
M  V30 19210 H 1925.45 5.63616 -0.48512 0
M  V30 19211 H 1924.01 6.44973 -0.940906 0
M  V30 19212 N 1927.44 1.27542 0.925789 0
M  V30 19213 C 1928.41 1.10471 2.0082 0
M  V30 19214 C 1929.41 0.0481002 1.60728 0
M  V30 19215 O 1930.6 0.292857 1.71721 0
M  V30 19216 C 1927.73 0.683669 3.33974 0
M  V30 19217 H 1928.92 2.0659 2.17395 0
M  V30 19218 H 1926.47 1.10357 1.10684 0
M  V30 19219 H 1927.21 -0.278821 3.23099 0
M  V30 19220 H 1926.99 1.44679 3.64431 0
M  V30 19221 H 1928.48 0.586526 4.13461 0
M  V30 19222 N 1928.92 -1.13255 1.09595 0
M  V30 19223 C 1930.17 -1.85055 0.844167 0
M  V30 19224 C 1930.52 -1.82017 -0.623506 0
M  V30 19225 O 1929.81 -1.24858 -1.45331 0
M  V30 19226 C 1930.01 -3.32304 1.31562 0
M  V30 19227 C 1929.84 -3.49682 2.82759 0
M  V30 19228 C 1928.61 -3.63823 3.50658 0
M  V30 19229 C 1930.81 -3.45578 3.80894 0
M  V30 19230 N 1928.79 -3.69479 4.90264 0
M  V30 19231 C 1930.16 -3.57624 5.06463 0
M  V30 19232 C 1932.21 -3.28989 3.73725 0
M  V30 19233 C 1930.92 -3.54795 6.2571 0
M  V30 19234 C 1932.94 -3.27469 4.92461 0
M  V30 19235 C 1932.3 -3.40068 6.16874 0
M  V30 19236 H 1928.4 -0.693278 0.361787 0
M  V30 19237 H 1930.99 -1.35652 1.39666 0
M  V30 19238 H 1929.16 -3.80269 0.790555 0
M  V30 19239 H 1930.89 -3.9192 1.00898 0
M  V30 19240 H 1927.65 -3.65571 3.01089 0
M  V30 19241 H 1928.07 -3.75994 5.6299 0
M  V30 19242 H 1932.71 -3.18149 2.78462 0
M  V30 19243 H 1930.43 -3.64408 7.21272 0
M  V30 19244 H 1934.02 -3.15828 4.88614 0
M  V30 19245 H 1932.9 -3.38855 7.07211 0
M  V30 19246 N 1930.4 -0.883401 -1.30514 0
M  V30 19247 C 1931.62 -0.515186 -2.00899 0
M  V30 19248 C 1932.05 0.888515 -1.65792 0
M  V30 19249 O 1931.41 1.58859 -0.873692 0
M  V30 19250 C 1931.45 -0.695291 -3.53833 0
M  V30 19251 O 1930.56 0.259516 -4.11583 0
M  V30 19252 H 1929.9 -0.20321 -0.63214 0
M  V30 19253 H 1932.43 -1.19051 -1.66397 0
M  V30 19254 H 1932.44 -0.593688 -4.03657 0
M  V30 19255 H 1931.11 -1.71874 -3.78724 0
M  V30 19256 H 1929.69 0.111741 -3.72733 0
M  V30 19257 N 1931.88 1.43833 -0.644194 0
M  V30 19258 C 1933.1 2.06784 -0.159719 0
M  V30 19259 C 1933.53 1.47913 1.16204 0
M  V30 19260 O 1932.88 0.585574 1.71583 0
M  V30 19261 C 1932.93 3.60527 -0.0724271 0
M  V30 19262 O 1932.04 4.0088 0.967917 0
M  V30 19263 H 1931.38 0.657771 -0.0907406 0
M  V30 19264 H 1933.91 1.8449 -0.884568 0
M  V30 19265 H 1933.92 4.07841 0.113872 0
M  V30 19266 H 1932.59 4.02755 -1.03736 0
M  V30 19267 H 1931.17 3.65174 0.755135 0
M  V30 19268 N 1933.35 0.385544 1.52811 0
M  V30 19269 C 1934.29 -0.495455 2.22757 0
M  V30 19270 C 1935.27 -1.06709 1.22687 0
M  V30 19271 O 1936.45 -1.11944 1.5166 0
M  V30 19272 C 1933.58 -1.68545 2.93786 0
M  V30 19273 C 1932.62 -1.23942 4.08094 0
M  V30 19274 S 1933.46 -0.22408 5.35031 0
M  V30 19275 C 1934.61 -1.41995 6.0958 0
M  V30 19276 H 1934.84 0.0985156 2.97137 0
M  V30 19277 H 1932.38 0.169717 1.53464 0
M  V30 19278 H 1934.34 -2.36794 3.35319 0
M  V30 19279 H 1933 -2.25071 2.19093 0
M  V30 19280 H 1932.19 -2.12783 4.5688 0
M  V30 19281 H 1931.79 -0.635901 3.68554 0
M  V30 19282 H 1934.08 -2.34766 6.35524 0
M  V30 19283 H 1935.03 -0.973078 7.01382 0
M  V30 19284 H 1935.43 -1.63505 5.40302 0
M  V30 19285 N 1934.83 -1.57178 0.115259 0
M  V30 19286 C 1936.06 -1.99415 -0.55147 0
M  V30 19287 C 1936.48 -0.994862 -1.60462 0
M  V30 19288 O 1935.83 0.0127831 -1.82496 0
M  V30 19289 C 1935.88 -3.41665 -1.18099 0
M  V30 19290 O 1935.6 -4.3777 -0.169944 0
M  V30 19291 C 1937.11 -3.99014 -1.9314 0
M  V30 19292 H 1934.33 -0.654856 -0.146302 0
M  V30 19293 H 1936.87 -2.03515 0.200495 0
M  V30 19294 H 1935.02 -3.38516 -1.88376 0
M  V30 19295 H 1935.44 -5.20741 -0.626853 0
M  V30 19296 H 1936.91 -5.00639 -2.32519 0
M  V30 19297 H 1937.39 -3.37947 -2.80515 0
M  V30 19298 H 1938 -4.05697 -1.27634 0
M  V30 19299 N 1936.31 0.158505 -1.56801 0
M  V30 19300 C 1937.72 0.71972 -1.7227 0
M  V30 19301 C 1938.07 1.822 -0.72784 0
M  V30 19302 O 1937.2 2.1613 0.108043 0
M  V30 19303 C 1937.79 1.31231 -3.12352 0
M  V30 19304 C 1936.35 1.82021 -3.29462 0
M  V30 19305 C 1935.5 0.704157 -2.68211 0
M  V30 19306 H 1938.45 -0.0670395 -1.58558 0
M  V30 19307 H 1938.47 2.18208 -3.11714 0
M  V30 19308 H 1937.98 0.509823 -3.84737 0
M  V30 19309 H 1936.08 2.64873 -2.62056 0
M  V30 19310 H 1936.2 1.95684 -4.37315 0
M  V30 19311 H 1934.56 1.12787 -2.28366 0
M  V30 19312 H 1935.34 -0.0866929 -3.43191 0
M  V30 19313 N 1937.79 1.51692 0.427485 0
M  V30 19314 C 1938.74 1.70099 1.51823 0
M  V30 19315 C 1939.72 0.554908 1.51028 0
M  V30 19316 O 1940.92 0.811233 1.57315 0
M  V30 19317 C 1938.04 1.8384 2.89927 0
M  V30 19318 C 1937.13 3.04263 2.9544 0
M  V30 19319 N 1937.52 4.27277 2.7068 0
M  V30 19320 C 1935.82 3.0372 3.26604 0
M  V30 19321 C 1936.52 5.08613 2.8229 0
M  V30 19322 N 1935.5 4.43468 3.14384 0
M  V30 19323 H 1939.3 2.62867 1.31447 0
M  V30 19324 H 1936.81 1.49473 0.63494 0
M  V30 19325 H 1938.81 1.95139 3.6841 0
M  V30 19326 H 1937.47 0.922599 3.11317 0
M  V30 19327 H 1938.48 4.56058 2.45421 0
M  V30 19328 H 1935.16 2.21808 3.53705 0
M  V30 19329 H 1936.55 6.16564 2.67017 0
M  V30 19330 N 1939.27 -0.683564 1.42004 0
M  V30 19331 C 1940.49 -1.47711 1.45589 0
M  V30 19332 C 1940.92 -1.87984 0.0661307 0
M  V30 19333 O 1940.28 -1.55425 -0.933428 0
M  V30 19334 C 1940.32 -2.70824 2.3809 0
M  V30 19335 O 1939.43 -3.68766 1.84622 0
M  V30 19336 H 1938.77 -0.444102 0.493629 0
M  V30 19337 H 1941.3 -0.839192 1.86598 0
M  V30 19338 H 1941.31 -3.18996 2.54373 0
M  V30 19339 H 1939.98 -2.4085 3.39063 0
M  V30 19340 H 1938.56 -3.27756 1.77849 0
M  V30 19341 N 1940.75 -1.28031 -0.919012 0
M  V30 19342 C 1941.7 -1.08151 -2.00717 0
M  V30 19343 C 1942.68 -0.00679124 -1.60899 0
M  V30 19344 O 1943.87 -0.226329 -1.75547 0
M  V30 19345 C 1941 -0.739868 -3.35233 0
M  V30 19346 C 1940.09 -1.85317 -3.81469 0
M  V30 19347 N 1940.48 -3.09403 -4.00129 0
M  V30 19348 C 1938.78 -1.74182 -4.10581 0
M  V30 19349 C 1939.48 -3.81909 -4.38772 0
M  V30 19350 N 1938.45 -3.09725 -4.46734 0
M  V30 19351 H 1942.25 -2.02308 -2.13187 0
M  V30 19352 H 1939.77 -1.18873 -1.10648 0
M  V30 19353 H 1941.77 -0.578538 -4.12866 0
M  V30 19354 H 1940.43 0.193987 -3.2412 0
M  V30 19355 H 1941.44 -3.45071 -3.86195 0
M  V30 19356 H 1938.11 -0.879386 -4.08134 0
M  V30 19357 H 1939.5 -4.886 -4.61216 0
M  V30 19358 N 1942.22 1.12672 -1.10194 0
M  V30 19359 C 1943.45 1.88496 -0.865112 0
M  V30 19360 C 1943.87 1.78977 0.578691 0
M  V30 19361 O 1943.23 1.14292 1.40737 0
M  V30 19362 C 1943.28 3.35768 -1.315 0
M  V30 19363 O 1942.38 4.09615 -0.478447 0
M  V30 19364 H 1941.72 0.585782 -0.312658 0
M  V30 19365 H 1944.25 1.42506 -1.46811 0
M  V30 19366 H 1944.26 3.86605 -1.30385 0
M  V30 19367 H 1942.94 3.42013 -2.36643 0
M  V30 19368 H 1941.52 3.68753 -0.554589 0
M  V30 19369 N 1943.7 0.89031 1.30043 0
M  V30 19370 C 1945.12 0.585066 1.4849 0
M  V30 19371 C 1945.32 -0.87585 1.81469 0
M  V30 19372 O 1944.37 -1.6567 1.90551 0
M  V30 19373 C 1945.69 1.50281 2.60454 0
M  V30 19374 C 1947.23 1.50701 2.74332 0
M  V30 19375 C 1947.71 2.41081 3.89415 0
M  V30 19376 N 1949.2 2.39074 3.96734 0
M  V30 19377 C 1949.94 3.05715 4.85104 0
M  V30 19378 N 1949.43 3.81601 5.78232 0
M  V30 19379 N 1951.22 2.9492 4.78517 0
M  V30 19380 H 1943.38 1.83532 1.0691 0
M  V30 19381 H 1945.64 0.785901 0.530155 0
M  V30 19382 H 1945.34 2.54327 2.42921 0
M  V30 19383 H 1945.22 1.21634 3.5705 0
M  V30 19384 H 1947.61 0.474032 2.91268 0
M  V30 19385 H 1947.69 1.83381 1.7834 0
M  V30 19386 H 1947.33 3.44466 3.73236 0
M  V30 19387 H 1947.26 2.05714 4.84757 0
M  V30 19388 H 1949.75 1.83932 3.30117 0
M  V30 19389 H 1950.06 4.29528 6.42437 0
M  V30 19390 H 1948.41 3.85708 5.78147 0
M  V30 19391 H 1951.6 2.35158 4.04745 0
M  V30 19392 H 1951.77 3.47132 5.47178 0
M  V30 19393 N 1945.18 -1.43489 0.651812 0
M  V30 19394 C 1946.41 -2.06181 0.172334 0
M  V30 19395 C 1946.82 -1.48848 -1.16145 0
M  V30 19396 O 1946.18 -0.619246 -1.71673 0
M  V30 19397 C 1946.23 -3.61425 0.0737039 0
M  V30 19398 O 1945.95 -4.16627 1.35476 0
M  V30 19399 C 1947.45 -4.4119 -0.432019 0
M  V30 19400 H 1944.67 -0.665039 0.0892394 0
M  V30 19401 H 1947.22 -1.84018 0.892063 0
M  V30 19402 H 1945.37 -3.82779 -0.596577 0
M  V30 19403 H 1945.79 -5.1028 1.21305 0
M  V30 19404 H 1947.26 -5.50163 -0.449989 0
M  V30 19405 H 1947.74 -4.14115 -1.46306 0
M  V30 19406 H 1948.34 -4.24802 0.205721 0
M  V30 19407 N 1946.66 -0.393643 -1.52605 0
M  V30 19408 C 1948.07 0.0794242 -1.86531 0
M  V30 19409 C 1948.42 1.45778 -1.31313 0
M  V30 19410 O 1947.54 2.06526 -0.646206 0
M  V30 19411 C 1948.14 0.150899 -3.38464 0
M  V30 19412 C 1946.7 0.568268 -3.72086 0
M  V30 19413 C 1945.85 -0.267031 -2.76011 0
M  V30 19414 H 1948.8 -0.611344 -1.46452 0
M  V30 19415 H 1948.82 0.969194 -3.6795 0
M  V30 19416 H 1948.33 -0.852425 -3.78623 0
M  V30 19417 H 1946.43 1.5788 -3.37498 0
M  V30 19418 H 1946.54 0.323405 -4.78007 0
M  V30 19419 H 1944.91 0.268347 -2.53282 0
M  V30 19420 H 1945.69 -1.26841 -3.19008 0
M  V30 19421 N 1948.14 1.57115 -0.123593 0
M  V30 19422 C 1949.05 2.19104 0.838493 0
M  V30 19423 C 1950.06 1.1685 1.28927 0
M  V30 19424 O 1951.24 1.49337 1.35131 0
M  V30 19425 C 1948.3 2.78191 2.06908 0
M  V30 19426 C 1947.36 3.95495 1.66979 0
M  V30 19427 C 1946.6 4.51755 2.84171 0
M  V30 19428 O 1946.82 4.06908 3.99728 0
M  V30 19429 O 1945.75 5.42372 2.60991 0
M  V30 19430 H 1949.58 3.0178 0.340935 0
M  V30 19431 H 1947.16 1.4905 0.102255 0
M  V30 19432 H 1949.05 3.15837 2.78971 0
M  V30 19433 H 1947.72 1.98542 2.55661 0
M  V30 19434 H 1946.63 3.62609 0.920091 0
M  V30 19435 H 1947.96 4.76593 1.22963 0
M  V30 19436 N 1949.61 -0.150187 1.56883 0
M  V30 19437 C 1950.84 -0.877076 1.87059 0
M  V30 19438 C 1951.25 -1.75396 0.709427 0
M  V30 19439 O 1950.59 -1.80711 -0.330043 0
M  V30 19440 C 1950.66 -1.78766 3.11902 0
M  V30 19441 C 1950.32 -1.08826 4.43853 0
M  V30 19442 C 1951.32 -0.443669 5.18003 0
M  V30 19443 C 1949 -1.07872 4.9058 0
M  V30 19444 C 1951 0.201122 6.37083 0
M  V30 19445 C 1948.68 -0.430111 6.09584 0
M  V30 19446 C 1949.68 0.208684 6.82681 0
M  V30 19447 O 1949.37 0.847012 7.99425 0
M  V30 19448 H 1949.1 -0.259157 0.62435 0
M  V30 19449 H 1951.66 -0.148664 2.04861 0
M  V30 19450 H 1949.89 -2.55693 2.901 0
M  V30 19451 H 1951.57 -2.38622 3.28351 0
M  V30 19452 H 1952.34 -0.442872 4.82974 0
M  V30 19453 H 1948.22 -1.56534 4.33611 0
M  V30 19454 H 1951.76 0.700316 6.94076 0
M  V30 19455 H 1947.66 -0.428563 6.44076 0
M  V30 19456 H 1948.43 0.748362 8.15072 0
M  V30 19457 N 1951.09 -1.51916 -0.419434 0
M  V30 19458 C 1952.32 -1.69057 -1.18758 0
M  V30 19459 C 1952.73 -0.395167 -1.85027 0
M  V30 19460 O 1952.07 0.637815 -1.72272 0
M  V30 19461 C 1952.14 -2.76257 -2.30049 0
M  V30 19462 C 1951.8 -4.18321 -1.84001 0
M  V30 19463 C 1952.8 -5.02508 -1.33347 0
M  V30 19464 C 1950.48 -4.64508 -1.91147 0
M  V30 19465 C 1952.48 -6.3095 -0.904498 0
M  V30 19466 C 1950.16 -5.92942 -1.47861 0
M  V30 19467 C 1951.16 -6.75991 -0.975967 0
M  V30 19468 O 1950.85 -8.02021 -0.549318 0
M  V30 19469 H 1950.58 -0.570077 -0.363302 0
M  V30 19470 H 1953.13 -1.99197 -0.50097 0
M  V30 19471 H 1951.36 -2.4147 -3.02042 0
M  V30 19472 H 1953.05 -2.82098 -2.91848 0
M  V30 19473 H 1953.82 -4.68021 -1.27206 0
M  V30 19474 H 1949.7 -3.99976 -2.29216 0
M  V30 19475 H 1953.24 -6.95722 -0.511474 0
M  V30 19476 H 1949.14 -6.2694 -1.53678 0
M  V30 19477 H 1949.91 -8.15724 -0.673558 0
M  V30 19478 N 1952.57 0.676023 -1.42365 0
M  V30 19479 C 1953.98 1.25659 -1.38082 0
M  V30 19480 C 1954.33 1.96062 -0.0734945 0
M  V30 19481 O 1953.46 1.99941 0.827793 0
M  V30 19482 C 1954.05 2.28531 -2.50118 0
M  V30 19483 C 1952.61 2.82117 -2.49172 0
M  V30 19484 C 1951.76 1.56422 -2.28971 0
M  V30 19485 H 1954.71 0.469489 -1.51596 0
M  V30 19486 H 1954.73 3.1024 -2.20299 0
M  V30 19487 H 1954.24 1.77261 -3.45254 0
M  V30 19488 H 1952.34 3.37511 -1.57851 0
M  V30 19489 H 1952.46 3.31216 -3.46168 0
M  V30 19490 H 1950.82 1.82946 -1.77208 0
M  V30 19491 H 1951.6 1.0712 -3.2616 0
M  V30 19492 N 1954.05 1.28517 0.912209 0
M  V30 19493 C 1955 1.12437 2.03619 0
M  V30 19494 C 1955.99 0.0432331 1.69345 0
M  V30 19495 O 1957.2 0.202116 1.78862 0
M  V30 19496 H 1953.57 0.34694 0.667185 0
M  V30 19497 H 1955.54 2.07625 2.14323 0
M  V30 19498 C 1954.29 0.804603 3.38262 0
M  V30 19499 H 1953.61 1.62849 3.65131 0
M  V30 19500 H 1955.05 0.732055 4.17633 0
M  V30 19501 C 1953.51 -0.491715 3.33292 0
M  V30 19502 O 1954.04 -1.52155 3.71768 0
M  V30 19503 N 1952.25 -0.493007 2.86388 0
M  V30 19504 H 1951.8 0.34549 2.55273 0
M  V30 19505 H 1951.75 -1.36038 2.83445 0
M  V30 19506 N 1955.53 -1.12086 1.1079 0
M  V30 19507 C 1956.49 -2.16111 0.763446 0
M  V30 19508 C 1957.49 -1.59371 -0.213903 0
M  V30 19509 O 1958.68 -1.74197 0.00972099 0
M  V30 19510 C 1955.81 -3.40646 0.131488 0
M  V30 19511 H 1957 -2.48096 1.68489 0
M  V30 19512 H 1954.56 -1.27156 0.908896 0
M  V30 19513 H 1955.29 -3.14265 -0.800507 0
M  V30 19514 H 1955.08 -3.83108 0.834928 0
M  V30 19515 H 1956.57 -4.17495 -0.0936165 0
M  V30 19516 N 1957 -0.897194 -1.29569 0
M  V30 19517 C 1958.25 -0.520803 -1.95274 0
M  V30 19518 C 1958.57 0.935501 -1.71095 0
M  V30 19519 O 1957.84 1.65932 -1.04131 0
M  V30 19520 H 1956.42 -0.18961 -0.722535 0
M  V30 19521 H 1959.09 -1.14294 -1.5787 0
M  V30 19522 H 1958.18 -0.701293 -3.04119 0
M  V30 19523 N 1958.48 1.43142 -0.659413 0
M  V30 19524 C 1959.41 2.33495 0.0147266 0
M  V30 19525 C 1960.39 1.49819 0.805493 0
M  V30 19526 O 1961.58 1.78466 0.765732 0
M  V30 19527 C 1958.71 3.33261 0.977483 0
M  V30 19528 C 1957.66 4.26972 0.296396 0
M  V30 19529 C 1956.99 5.16824 1.37103 0
M  V30 19530 C 1958.29 5.15901 -0.815063 0
M  V30 19531 H 1959.98 2.90115 -0.739837 0
M  V30 19532 H 1957.53 1.39499 -0.357229 0
M  V30 19533 H 1959.48 3.95372 1.45805 0
M  V30 19534 H 1958.21 2.74911 1.76328 0
M  V30 19535 H 1956.86 3.66234 -0.16379 0
M  V30 19536 H 1956.51 4.5481 2.14842 0
M  V30 19537 H 1956.21 5.80345 0.920528 0
M  V30 19538 H 1957.74 5.81809 1.85284 0
M  V30 19539 H 1959.15 5.71786 -0.416382 0
M  V30 19540 H 1957.55 5.88175 -1.19041 0
M  V30 19541 H 1958.62 4.5522 -1.67042 0
M  V30 19542 N 1959.96 0.40173 1.52394 0
M  V30 19543 C 1961.21 -0.177771 2.00915 0
M  V30 19544 C 1961.52 -1.46854 1.29203 0
M  V30 19545 O 1962.73 -2.12884 1.68501 0
M  V30 19546 C 1961.18 -0.367359 3.5802 0
M  V30 19547 C 1960.79 0.910882 4.38642 0
M  V30 19548 C 1962.54 -0.902552 4.14794 0
M  V30 19549 C 1960.44 0.688888 5.87374 0
M  V30 19550 H 1959.37 -0.0702091 0.750724 0
M  V30 19551 H 1962.02 0.52604 1.75798 0
M  V30 19552 H 1960.41 -1.13332 3.79436 0
M  V30 19553 H 1961.58 1.68242 4.28989 0
M  V30 19554 H 1959.9 1.37194 3.9315 0
M  V30 19555 H 1962.49 -1.08455 5.23585 0
M  V30 19556 H 1962.84 -1.87515 3.71677 0
M  V30 19557 H 1963.37 -0.19584 3.97318 0
M  V30 19558 H 1960.11 1.63284 6.34837 0
M  V30 19559 H 1959.63 -0.0434889 5.99784 0
M  V30 19560 H 1961.31 0.328207 6.46167 0
M  V30 19561 N 1961.44 -1.57047 0.131923 0
M  V30 19562 C 1962.37 -2.11735 -0.851089 0
M  V30 19563 C 1963.35 -1.03702 -1.25239 0
M  V30 19564 O 1964.53 -1.31438 -1.35116 0
M  V30 19565 C 1961.66 -2.62468 -2.14075 0
M  V30 19566 C 1960.71 -3.82508 -1.88653 0
M  V30 19567 S 1961.54 -5.24266 -1.09112 0
M  V30 19568 C 1962.7 -5.78377 -2.3923 0
M  V30 19569 H 1962.93 -2.94784 -0.385975 0
M  V30 19570 H 1960.46 -1.54182 -0.0820933 0
M  V30 19571 H 1962.42 -2.92351 -2.88169 0
M  V30 19572 H 1961.08 -1.79578 -2.57703 0
M  V30 19573 H 1960.27 -4.16198 -2.84245 0
M  V30 19574 H 1959.88 -3.53308 -1.22675 0
M  V30 19575 H 1962.17 -5.8889 -3.34985 0
M  V30 19576 H 1963.11 -6.76223 -2.10066 0
M  V30 19577 H 1963.52 -5.06523 -2.49189 0
M  V30 19578 N 1962.92 0.141865 -1.5696 0
M  V30 19579 C 1963.86 1.19416 -1.99606 0
M  V30 19580 C 1964.86 1.44182 -0.889268 0
M  V30 19581 O 1966.06 1.44414 -1.07446 0
M  V30 19582 H 1962.44 0.402085 -0.635477 0
M  V30 19583 H 1964.41 0.80782 -2.87257 0
M  V30 19584 C 1963.16 2.51868 -2.39704 0
M  V30 19585 H 1962.48 2.33642 -3.24425 0
M  V30 19586 H 1963.92 3.24113 -2.73362 0
M  V30 19587 C 1962.38 3.12785 -1.25169 0
M  V30 19588 O 1962.91 3.97845 -0.555208 0
M  V30 19589 N 1961.12 2.72312 -1.01461 0
M  V30 19590 H 1960.66 2.0324 -1.58276 0
M  V30 19591 H 1960.62 3.13403 -0.250181 0
M  V30 19592 N 1964.39 1.52136 0.411372 0
M  V30 19593 C 1965.62 1.69684 1.1786 0
M  V30 19594 C 1966.03 0.404974 1.84815 0
M  V30 19595 O 1965.38 -0.62867 1.72608 0
M  V30 19596 C 1965.44 2.77473 2.2858 0
M  V30 19597 C 1965.1 4.19291 1.81779 0
M  V30 19598 C 1966.1 5.03208 1.3068 0
M  V30 19599 C 1963.78 4.65515 1.88681 0
M  V30 19600 C 1965.78 6.31421 0.871024 0
M  V30 19601 C 1963.46 5.93718 1.44715 0
M  V30 19602 C 1964.46 6.76499 0.940104 0
M  V30 19603 O 1964.15 8.02301 0.506777 0
M  V30 19604 H 1963.88 0.571996 0.360273 0
M  V30 19605 H 1966.44 1.9946 0.490399 0
M  V30 19606 H 1964.67 2.43068 3.00757 0
M  V30 19607 H 1966.36 2.83642 2.90348 0
M  V30 19608 H 1967.12 4.68689 1.24722 0
M  V30 19609 H 1963 4.01186 2.27091 0
M  V30 19610 H 1966.54 6.95984 0.474571 0
M  V30 19611 H 1962.44 6.27746 1.50351 0
M  V30 19612 H 1963.21 8.1607 0.630289 0
M  V30 19613 N 1965.87 -0.668464 1.42721 0
M  V30 19614 C 1967.11 -1.44044 1.45019 0
M  V30 19615 C 1967.48 -1.91884 0.0667469 0
M  V30 19616 O 1968.68 -2.68776 -0.0355585 0
M  V30 19617 C 1966.95 -2.60095 2.45123 0
M  V30 19618 S 1968.51 -3.48851 2.66174 0
M  V30 19619 H 1965.33 -0.491894 0.513383 0
M  V30 19620 H 1967.93 -0.777533 1.79373 0
M  V30 19621 H 1966.63 -2.23199 3.44399 0
M  V30 19622 H 1966.16 -3.31252 2.12215 0
M  V30 19623 H 1968.18 -4.56299 1.94951 0
M  V30 19624 N 1967.35 -1.28999 -0.905381 0
M  V30 19625 C 1968.77 -1.06887 -1.18522 0
M  V30 19626 C 1968.97 0.183459 -2.00663 0
M  V30 19627 O 1968.02 0.882808 -2.36564 0
M  V30 19628 C 1969.34 -2.32111 -1.91168 0
M  V30 19629 C 1970.88 -2.37374 -2.04017 0
M  V30 19630 C 1971.36 -3.62386 -2.80072 0
M  V30 19631 N 1972.85 -3.63075 -2.87629 0
M  V30 19632 C 1973.59 -4.56485 -3.47 0
M  V30 19633 N 1973.08 -5.60222 -4.07582 0
M  V30 19634 N 1974.87 -4.44065 -3.44619 0
M  V30 19635 H 1967.03 -2.09375 -0.357185 0
M  V30 19636 H 1969.29 -0.92195 -0.220707 0
M  V30 19637 H 1968.99 -3.23391 -1.38243 0
M  V30 19638 H 1968.87 -2.39178 -2.91674 0
M  V30 19639 H 1971.26 -1.46585 -2.56119 0
M  V30 19640 H 1971.34 -2.34296 -1.0266 0
M  V30 19641 H 1970.98 -4.53523 -2.28647 0
M  V30 19642 H 1970.91 -3.6272 -3.81761 0
M  V30 19643 H 1973.4 -2.88065 -2.44595 0
M  V30 19644 H 1973.71 -6.27629 -4.50889 0
M  V30 19645 H 1972.06 -5.64038 -4.06061 0
M  V30 19646 H 1975.25 -3.62218 -2.96505 0
M  V30 19647 H 1975.42 -5.17049 -3.90595 0
M  V30 19648 N 1968.83 1.11497 -1.11383 0
M  V30 19649 C 1969.78 2.19602 -0.766658 0
M  V30 19650 C 1970.77 1.67668 0.241612 0
M  V30 19651 O 1971.98 1.79717 0.100956 0
M  V30 19652 H 1968.35 0.715952 -0.230037 0
M  V30 19653 H 1970.32 2.46131 -1.68707 0
M  V30 19654 C 1969.07 3.46968 -0.225442 0
M  V30 19655 H 1968.4 3.87284 -0.992544 0
M  V30 19656 H 1969.84 4.23995 -0.0207066 0
M  V30 19657 C 1968.29 3.20311 1.04414 0
M  V30 19658 O 1968.82 3.40956 2.12395 0
M  V30 19659 N 1967.03 2.7405 0.966692 0
M  V30 19660 H 1966.58 2.5745 0.0878667 0
M  V30 19661 H 1966.54 2.56591 1.81682 0
M  V30 19662 N 1970.31 0.904053 1.29092 0
M  V30 19663 C 1971.72 0.580096 1.77459 0
M  V30 19664 C 1972.07 -0.904375 1.74113 0
M  V30 19665 O 1971.19 -1.70724 1.32975 0
M  V30 19666 C 1971.79 1.04624 3.22241 0
M  V30 19667 C 1970.35 0.773375 3.68369 0
M  V30 19668 C 1969.5 1.21848 2.49095 0
M  V30 19669 H 1972.45 1.08633 1.15692 0
M  V30 19670 H 1972.47 0.383425 3.78563 0
M  V30 19671 H 1971.98 2.12669 3.24644 0
M  V30 19672 H 1970.08 -0.294271 3.71436 0
M  V30 19673 H 1970.19 1.37431 4.58966 0
M  V30 19674 H 1968.56 0.63739 2.46596 0
M  V30 19675 H 1969.34 2.30706 2.54223 0
M  V30 19676 N 1971.79 -1.4279 0.666995 0
M  V30 19677 C 1973.06 -1.9526 0.11533 0
M  V30 19678 C 1973.44 -1.60776 -1.36801 0
M  V30 19679 O 1972.79 -0.899897 -2.10034 0
M  V30 19680 C 1973 -3.46967 0.376175 0
M  V30 19681 C 1974.35 -4.23619 0.28849 0
M  V30 19682 O 1975.37 -3.54853 0.30949 0
M  V30 19683 O 1974.23 -5.46041 0.223982 0
M  V30 19684 H 1971.33 -0.826998 -0.00165705 0
M  V30 19685 H 1973.87 -1.52658 0.741186 0
M  V30 19686 H 1972.64 -3.65243 1.40404 0
M  V30 19687 H 1972.27 -3.96598 -0.282074 0
M  V30 19688 N 1973.26 -0.409806 -1.52179 0
M  V30 19689 C 1974.23 0.40345 -2.25621 0
M  V30 19690 C 1975.23 0.973072 -1.28015 0
M  V30 19691 O 1976.42 0.851845 -1.51951 0
M  V30 19692 C 1973.55 1.568 -3.02699 0
M  V30 19693 H 1974.74 -0.239822 -2.9894 0
M  V30 19694 H 1972.29 -0.162341 -1.55455 0
M  V30 19695 H 1973.03 2.24811 -2.33731 0
M  V30 19696 H 1972.81 1.16603 -3.74361 0
M  V30 19697 H 1974.3 2.14326 -3.58405 0
M  V30 19698 N 1974.74 1.56975 -0.14025 0
M  V30 19699 C 1975.99 1.96196 0.513302 0
M  V30 19700 C 1976.32 1.02482 1.64958 0
M  V30 19701 O 1975.6 0.0659332 1.94388 0
M  V30 19702 C 1975.88 3.45178 1.02589 0
M  V30 19703 C 1975.73 4.49669 -0.108432 0
M  V30 19704 C 1977.05 3.96499 1.90989 0
M  V30 19705 H 1974.17 0.713374 0.185114 0
M  V30 19706 H 1976.81 1.88721 -0.220112 0
M  V30 19707 H 1974.96 3.51679 1.65088 0
M  V30 19708 H 1976.63 4.55252 -0.744538 0
M  V30 19709 H 1974.88 4.26937 -0.768558 0
M  V30 19710 H 1975.55 5.51228 0.291822 0
M  V30 19711 H 1978.02 3.92434 1.38329 0
M  V30 19712 H 1976.9 5.01219 2.23765 0
M  V30 19713 H 1977.16 3.38452 2.84433 0
M  V30 19714 N 1976.22 -0.133539 1.57033 0
M  V30 19715 C 1977.18 -1.14845 1.98351 0
M  V30 19716 C 1978.18 -1.3512 0.871734 0
M  V30 19717 O 1979.37 -1.31884 1.13808 0
M  V30 19718 C 1976.5 -2.506 2.31111 0
M  V30 19719 H 1977.7 -0.793667 2.89207 0
M  V30 19720 H 1975.25 -0.377348 1.51677 0
M  V30 19721 H 1975.99 -2.91026 1.43089 0
M  V30 19722 H 1975.77 -2.37242 3.12184 0
M  V30 19723 H 1977.26 -3.23672 2.63868 0
M  V30 19724 N 1977.7 -1.52352 -0.403298 0
M  V30 19725 C 1978.66 -1.75482 -1.4744 0
M  V30 19726 C 1979.66 -0.62473 -1.48168 0
M  V30 19727 O 1980.85 -0.892662 -1.4959 0
M  V30 19728 C 1977.98 -1.84253 -2.86817 0
M  V30 19729 H 1979.18 -2.71107 -1.28222 0
M  V30 19730 H 1976.73 -1.42857 -0.634157 0
M  V30 19731 H 1977.46 -0.905623 -3.11398 0
M  V30 19732 H 1977.25 -2.66414 -2.87691 0
M  V30 19733 H 1978.74 -2.03869 -3.64454 0
M  V30 19734 N 1979.18 0.660885 -1.43074 0
M  V30 19735 C 1980.59 1.24187 -1.39407 0
M  V30 19736 C 1980.94 1.95973 -0.0942854 0
M  V30 19737 O 1980.06 2.00808 0.80654 0
M  V30 19738 C 1980.66 2.25865 -2.52528 0
M  V30 19739 C 1979.22 2.79459 -2.5215 0
M  V30 19740 C 1978.36 1.53984 -2.30617 0
M  V30 19741 H 1981.31 0.453383 -1.52086 0
M  V30 19742 H 1981.34 3.07886 -2.23577 0
M  V30 19743 H 1980.85 1.73589 -3.47114 0
M  V30 19744 H 1978.95 3.35818 -1.61422 0
M  V30 19745 H 1979.06 3.27526 -3.49662 0
M  V30 19746 H 1977.43 1.81056 -1.79139 0
M  V30 19747 H 1978.21 1.03654 -3.27278 0
M  V30 19748 N 1980.65 1.29477 0.898527 0
M  V30 19749 C 1981.88 1.20232 1.68011 0
M  V30 19750 C 1982.29 -0.239393 1.87679 0
M  V30 19751 O 1981.64 -1.17197 1.41459 0
M  V30 19752 C 1981.7 1.84564 3.08507 0
M  V30 19753 C 1981.36 3.33862 3.12065 0
M  V30 19754 C 1982.36 4.30068 2.92125 0
M  V30 19755 C 1980.04 3.75082 3.34094 0
M  V30 19756 C 1982.04 5.65469 2.94149 0
M  V30 19757 C 1979.72 5.10604 3.35748 0
M  V30 19758 C 1980.72 6.05607 3.15798 0
M  V30 19759 O 1980.41 7.38655 3.17243 0
M  V30 19760 H 1980.14 0.417733 0.531484 0
M  V30 19761 H 1982.7 1.71396 1.13193 0
M  V30 19762 H 1980.93 1.27913 3.64932 0
M  V30 19763 H 1982.62 1.69625 3.68758 0
M  V30 19764 H 1983.38 3.99556 2.74918 0
M  V30 19765 H 1979.26 3.01588 3.48662 0
M  V30 19766 H 1982.8 6.39598 2.78496 0
M  V30 19767 H 1978.7 5.40761 3.52488 0
M  V30 19768 H 1979.47 7.47475 3.33502 0
M  V30 19769 N 1982.13 -1.10905 1.11972 0
M  V30 19770 C 1983.37 -1.84389 0.882045 0
M  V30 19771 C 1983.74 -1.82976 -0.581712 0
M  V30 19772 O 1984.94 -2.51963 -0.936372 0
M  V30 19773 C 1983.21 -3.27323 1.43507 0
M  V30 19774 S 1984.77 -4.17993 1.3352 0
M  V30 19775 H 1981.59 -0.635766 0.318312 0
M  V30 19776 H 1984.19 -1.3349 1.42831 0
M  V30 19777 H 1982.89 -3.2592 2.49408 0
M  V30 19778 H 1982.42 -3.83291 0.886085 0
M  V30 19779 H 1984.44 -4.95271 0.30342 0
M  V30 19780 N 1983.61 -0.910886 -1.2861 0
M  V30 19781 C 1984.84 -0.557522 -1.98935 0
M  V30 19782 C 1985.25 0.864875 -1.68275 0
M  V30 19783 O 1984.59 1.58401 -0.930312 0
M  V30 19784 C 1984.65 -0.683336 -3.52946 0
M  V30 19785 C 1984.32 -2.07475 -4.07189 0
M  V30 19786 C 1985.31 -3.04716 -4.21241 0
M  V30 19787 C 1983 -2.38716 -4.4195 0
M  V30 19788 C 1984.99 -4.31315 -4.69303 0
M  V30 19789 C 1982.68 -3.65555 -4.89707 0
M  V30 19790 C 1983.68 -4.61669 -5.0334 0
M  V30 19791 O 1983.37 -5.86254 -5.50056 0
M  V30 19792 H 1983.1 -0.211519 -0.642056 0
M  V30 19793 H 1985.65 -1.22539 -1.64843 0
M  V30 19794 H 1983.88 0.0415955 -3.86678 0
M  V30 19795 H 1985.57 -0.337494 -4.04494 0
M  V30 19796 H 1986.34 -2.81898 -3.94662 0
M  V30 19797 H 1982.22 -1.64658 -4.30591 0
M  V30 19798 H 1985.76 -5.0634 -4.79859 0
M  V30 19799 H 1981.66 -3.88199 -5.15724 0
M  V30 19800 H 1982.43 -5.89002 -5.68347 0
M  V30 19801 N 1985.09 1.42434 -0.674558 0
M  V30 19802 C 1986.32 2.05881 -0.205113 0
M  V30 19803 C 1986.73 1.50677 1.13763 0
M  V30 19804 O 1986.09 0.646479 1.70666 0
M  V30 19805 C 1986.14 3.61262 -0.131194 0
M  V30 19806 O 1985.86 4.14419 -1.42087 0
M  V30 19807 C 1987.36 4.41821 0.361775 0
M  V30 19808 H 1984.58 0.663535 -0.0998083 0
M  V30 19809 H 1987.13 1.82575 -0.921226 0
M  V30 19810 H 1985.28 3.8368 0.535604 0
M  V30 19811 H 1985.69 5.08285 -1.29407 0
M  V30 19812 H 1987.17 5.50809 0.362405 0
M  V30 19813 H 1987.65 4.1639 1.39699 0
M  V30 19814 H 1988.25 4.24421 -0.273278 0
M  V30 19815 N 1986.57 0.417871 1.51959 0
M  V30 19816 C 1987.98 0.0691743 1.5945 0
M  V30 19817 C 1988.18 -1.41946 1.43016 0
M  V30 19818 O 1987.24 -2.18728 1.26152 0
M  V30 19819 C 1988.55 0.571902 2.95211 0
M  V30 19820 C 1990.1 0.530639 3.08469 0
M  V30 19821 C 1990.57 1.01002 4.46724 0
M  V30 19822 N 1992.07 0.967199 4.5299 0
M  V30 19823 C 1992.8 1.30921 5.58254 0
M  V30 19824 N 1992.3 1.72311 6.7103 0
M  V30 19825 N 1994.09 1.22862 5.48508 0
M  V30 19826 H 1986.24 1.38668 1.60888 0
M  V30 19827 H 1988.5 0.570206 0.757344 0
M  V30 19828 H 1988.21 1.6127 3.12546 0
M  V30 19829 H 1988.08 -0.0137455 3.77197 0
M  V30 19830 H 1990.47 -0.50113 2.90814 0
M  V30 19831 H 1990.55 1.15245 2.28369 0
M  V30 19832 H 1990.2 2.04016 4.65124 0
M  V30 19833 H 1990.13 0.364935 5.25334 0
M  V30 19834 H 1992.62 0.663 3.72039 0
M  V30 19835 H 1992.93 1.96696 7.47349 0
M  V30 19836 H 1991.27 1.76222 6.72288 0
M  V30 19837 H 1994.47 0.904063 4.59287 0
M  V30 19838 H 1994.64 1.49846 6.30437 0
M  V30 19839 N 1988.04 -1.56898 0.148573 0
M  V30 19840 C 1989.32 -1.87787 -0.547293 0
M  V30 19841 C 1989.7 -1.05479 -1.82859 0
M  V30 19842 O 1989.05 -0.142055 -2.28058 0
M  V30 19843 C 1989.26 -3.39441 -0.811223 0
M  V30 19844 C 1990.61 -4.08693 -1.1513 0
M  V30 19845 O 1991.63 -3.44629 -0.900524 0
M  V30 19846 O 1990.49 -5.21834 -1.62331 0
M  V30 19847 H 1987.58 -0.778385 -0.279368 0
M  V30 19848 H 1990.13 -1.68685 0.185302 0
M  V30 19849 H 1988.9 -3.91183 0.0955156 0
M  V30 19850 H 1988.53 -3.64076 -1.59794 0
M  V30 19851 N 1989.52 0.125209 -1.57102 0
M  V30 19852 C 1990.93 0.683017 -1.73758 0
M  V30 19853 C 1991.28 1.80615 -0.766324 0
M  V30 19854 O 1990.41 2.16311 0.0621742 0
M  V30 19855 C 1991 1.24576 -3.15066 0
M  V30 19856 C 1989.56 1.74992 -3.33249 0
M  V30 19857 C 1988.71 0.647107 -2.69644 0
M  V30 19858 H 1991.66 -0.100657 -1.5838 0
M  V30 19859 H 1991.68 2.11547 -3.16272 0
M  V30 19860 H 1991.19 0.4281 -3.85732 0
M  V30 19861 H 1989.3 2.59255 -2.67615 0
M  V30 19862 H 1989.41 1.86364 -4.41368 0
M  V30 19863 H 1987.77 1.07918 -2.30707 0
M  V30 19864 H 1988.56 -0.159469 -3.42929 0
M  V30 19865 N 1991 1.52564 0.395213 0
M  V30 19866 C 1992.25 1.66974 1.1386 0
M  V30 19867 C 1992.57 0.409016 1.90662 0
M  V30 19868 O 1991.84 -0.576451 1.87227 0
M  V30 19869 H 1990.42 0.61548 0.423313 0
M  V30 19870 H 1993.08 1.89657 0.449024 0
M  V30 19871 H 1992.18 2.5173 1.84496 0
M  V30 19872 N 1992.48 -0.653289 1.43422 0
M  V30 19873 C 1993.72 -1.41528 1.4525 0
M  V30 19874 C 1994.06 -1.94049 0.0764514 0
M  V30 19875 O 1993.33 -1.72284 -0.902682 0
M  V30 19876 C 1993.62 -2.59676 2.49481 0
M  V30 19877 C 1993.47 -2.12647 3.9636 0
M  V30 19878 C 1994.79 -3.61889 2.50449 0
M  V30 19879 H 1991.91 -0.513273 0.528885 0
M  V30 19880 H 1994.55 -0.740628 1.74971 0
M  V30 19881 H 1992.7 -3.17232 2.24268 0
M  V30 19882 H 1994.37 -1.60092 4.32629 0
M  V30 19883 H 1992.61 -1.4402 4.09195 0
M  V30 19884 H 1993.28 -2.97607 4.64902 0
M  V30 19885 H 1995.76 -3.14091 2.72921 0
M  V30 19886 H 1994.64 -4.42106 3.2532 0
M  V30 19887 H 1994.9 -4.14475 1.53826 0
M  V30 19888 N 1993.96 -1.29952 -0.891648 0
M  V30 19889 C 1995.37 -1.08138 -1.17381 0
M  V30 19890 C 1995.57 0.162165 -2.00846 0
M  V30 19891 O 1994.63 0.857667 -2.37488 0
M  V30 19892 C 1995.94 -2.34125 -1.88695 0
M  V30 19893 C 1997.49 -2.39524 -2.01487 0
M  V30 19894 C 1997.96 -3.65336 -2.76213 0
M  V30 19895 N 1999.46 -3.66105 -2.83762 0
M  V30 19896 C 2000.19 -4.6014 -3.42139 0
M  V30 19897 N 1999.69 -5.64513 -4.01617 0
M  V30 19898 N 2001.48 -4.47695 -3.3989 0
M  V30 19899 H 1993.63 -2.09742 -0.334958 0
M  V30 19900 H 1995.89 -0.924239 -0.210916 0
M  V30 19901 H 1995.6 -3.24839 -1.34805 0
M  V30 19902 H 1995.47 -2.42258 -2.89121 0
M  V30 19903 H 1997.86 -1.49293 -2.5455 0
M  V30 19904 H 1997.94 -2.35371 -1.0017 0
M  V30 19905 H 1997.59 -4.55922 -2.23824 0
M  V30 19906 H 1997.52 -3.66749 -3.77893 0
M  V30 19907 H 2000.01 -2.90643 -2.41526 0
M  V30 19908 H 2000.32 -6.32376 -4.44207 0
M  V30 19909 H 1998.66 -5.68313 -4.00056 0
M  V30 19910 H 2001.86 -3.65343 -2.92647 0
M  V30 19911 H 2002.03 -5.21162 -3.85089 0
M  V30 19912 N 1995.44 1.1031 -1.12559 0
M  V30 19913 C 1996.68 1.82752 -0.892935 0
M  V30 19914 C 1997.04 1.83606 0.575029 0
M  V30 19915 O 1996.33 1.28667 1.41969 0
M  V30 19916 C 1996.52 3.28699 -1.40326 0
M  V30 19917 C 1996.35 3.42062 -2.91931 0
M  V30 19918 C 1995.12 3.54398 -3.60181 0
M  V30 19919 C 1997.32 3.35357 -3.89923 0
M  V30 19920 N 1995.3 3.56351 -4.99887 0
M  V30 19921 C 1996.67 3.44071 -5.15767 0
M  V30 19922 C 1998.73 3.18965 -3.82316 0
M  V30 19923 C 1997.43 3.38081 -6.34897 0
M  V30 19924 C 1999.46 3.14297 -5.0097 0
M  V30 19925 C 1998.82 3.23593 -6.25673 0
M  V30 19926 H 1994.92 0.683442 -0.38004 0
M  V30 19927 H 1997.5 1.31902 -1.43213 0
M  V30 19928 H 1995.67 3.7804 -0.891099 0
M  V30 19929 H 1997.41 3.89108 -1.11254 0
M  V30 19930 H 1994.16 3.5746 -3.10676 0
M  V30 19931 H 1994.58 3.60935 -5.72761 0
M  V30 19932 H 1999.23 3.10655 -2.86799 0
M  V30 19933 H 1996.94 3.45156 -7.3068 0
M  V30 19934 H 2000.53 3.02762 -4.96816 0
M  V30 19935 H 1999.41 3.19985 -7.15946 0
M  V30 19936 N 1996.91 0.917694 1.28125 0
M  V30 19937 C 1997.82 0.414339 2.30912 0
M  V30 19938 C 1998.84 -0.49998 1.66662 0
M  V30 19939 O 2000.02 -0.385213 1.97682 0
M  V30 19940 C 1997.08 -0.333886 3.45089 0
M  V30 19941 C 1996.14 0.614131 4.24885 0
M  V30 19942 C 1995.37 -0.0984806 5.33609 0
M  V30 19943 O 1995.6 -1.31956 5.54927 0
M  V30 19944 O 1994.53 0.568228 5.99212 0
M  V30 19945 H 1998.36 1.26755 2.75984 0
M  V30 19946 H 1995.94 0.682661 1.32891 0
M  V30 19947 H 1997.82 -0.756311 4.14557 0
M  V30 19948 H 1996.5 -1.16286 3.02091 0
M  V30 19949 H 1995.41 1.08603 3.57989 0
M  V30 19950 H 1996.74 1.41003 4.71571 0
M  V30 19951 N 1998.39 -1.42074 0.682102 0
M  V30 19952 C 1999.62 -2.05471 0.215716 0
M  V30 19953 C 2000.03 -1.51372 -1.13504 0
M  V30 19954 O 1999.37 -0.651251 -1.71768 0
M  V30 19955 C 1999.43 -3.59408 0.0812503 0
M  V30 19956 C 1999.1 -4.36236 1.36189 0
M  V30 19957 C 2000.1 -4.6641 2.29691 0
M  V30 19958 C 1997.78 -4.75747 1.61152 0
M  V30 19959 C 1999.77 -5.35039 3.46428 0
M  V30 19960 C 1997.46 -5.44115 2.78176 0
M  V30 19961 C 1998.46 -5.73687 3.70638 0
M  V30 19962 O 1998.15 -6.40651 4.85615 0
M  V30 19963 H 1997.88 -0.668449 0.100755 0
M  V30 19964 H 2000.43 -1.83072 0.931332 0
M  V30 19965 H 1998.66 -3.80494 -0.690014 0
M  V30 19966 H 2000.35 -4.04421 -0.346206 0
M  V30 19967 H 2001.12 -4.36378 2.11658 0
M  V30 19968 H 1997 -4.52119 0.900512 0
M  V30 19969 H 2000.54 -5.58037 4.18617 0
M  V30 19970 H 1996.44 -5.73565 2.96132 0
M  V30 19971 H 1997.21 -6.59144 4.85254 0
M  V30 19972 N 1999.87 -0.425924 -1.51735 0
M  V30 19973 C 2001.11 0.143658 -2.03895 0
M  V30 19974 C 2001.47 1.40947 -1.30376 0
M  V30 19975 O 2002.67 2.05857 -1.72848 0
M  V30 19976 C 2000.95 0.368683 -3.55493 0
M  V30 19977 S 2002.5 0.903307 -4.29402 0
M  V30 19978 H 1999.32 0.0371973 -0.710026 0
M  V30 19979 H 2001.92 -0.582706 -1.86614 0
M  V30 19980 H 2000.63 -0.559105 -4.06574 0
M  V30 19981 H 2000.16 1.12245 -3.77047 0
M  V30 19982 H 2002.17 2.18213 -4.45643 0
M  V30 19983 N 2001.35 1.56817 -0.156891 0
M  V30 19984 C 2002.3 2.18555 0.796017 0
M  V30 19985 C 2003.29 1.14538 1.24809 0
M  V30 19986 O 2004.5 1.32768 1.21542 0
M  V30 19987 H 2000.87 0.699939 0.274936 0
M  V30 19988 H 2002.84 2.97341 0.251207 0
M  V30 19989 C 2001.59 2.82928 2.02106 0
M  V30 19990 H 2000.91 3.62687 1.6822 0
M  V30 19991 H 2002.35 3.29615 2.66702 0
M  V30 19992 C 2000.81 1.81947 2.83543 0
M  V30 19993 O 2001.34 1.29602 3.80219 0
M  V30 19994 N 1999.55 1.51028 2.48272 0
M  V30 19995 H 1999.1 1.93787 1.69719 0
M  V30 19996 H 1999.05 0.837124 3.0305 0
M  V30 19997 N 2002.83 -0.116876 1.57166 0
M  V30 19998 C 2003.76 -1.14443 2.03531 0
M  V30 19999 C 2004.74 -1.43063 0.920159 0
M  V30 20000 O 2005.92 -1.53468 1.19001 0
M  V30 20001 C 2003.05 -2.47006 2.44142 0
M  V30 20002 C 2002.01 -2.32843 3.59121 0
M  V30 20003 C 2001.33 -3.70388 3.85639 0
M  V30 20004 C 2002.63 -1.78717 4.90772 0
M  V30 20005 H 2004.33 -0.75878 2.89625 0
M  V30 20006 H 2001.87 -0.363551 1.39335 0
M  V30 20007 H 2003.82 -3.19143 2.75184 0
M  V30 20008 H 2002.55 -2.87465 1.55021 0
M  V30 20009 H 2001.21 -1.63155 3.28293 0
M  V30 20010 H 2000.86 -4.08335 2.9372 0
M  V30 20011 H 2000.56 -3.61764 4.63034 0
M  V30 20012 H 2002.08 -4.44026 4.19134 0
M  V30 20013 H 2003.49 -2.40673 5.20336 0
M  V30 20014 H 2001.89 -1.80909 5.72182 0
M  V30 20015 H 2002.96 -0.744891 4.79144 0
M  V30 20016 N 2004.3 -1.52772 -0.387116 0
M  V30 20017 C 2005.53 -1.71787 -1.15312 0
M  V30 20018 C 2005.95 -0.437082 -1.83671 0
M  V30 20019 O 2005.3 0.588573 -1.72749 0
M  V30 20020 C 2005.35 -2.86869 -2.19974 0
M  V30 20021 O 2005.08 -4.0999 -1.54402 0
M  V30 20022 C 2006.58 -3.17579 -3.09287 0
M  V30 20023 H 2003.8 -0.575118 -0.345659 0
M  V30 20024 H 2006.34 -1.99428 -0.452607 0
M  V30 20025 H 2004.5 -2.61684 -2.85658 0
M  V30 20026 H 2004.91 -4.7428 -2.23961 0
M  V30 20027 H 2006.38 -4.01562 -3.7875 0
M  V30 20028 H 2006.86 -2.3204 -3.729 0
M  V30 20029 H 2007.47 -3.44611 -2.49246 0
M  V30 20030 N 2005.78 0.645673 -1.43767 0
M  V30 20031 C 2006.71 1.77107 -1.45484 0
M  V30 20032 C 2007.73 1.58993 -0.350002 0
M  V30 20033 O 2008.92 1.67575 -0.61489 0
M  V30 20034 C 2006.02 3.14639 -1.25919 0
M  V30 20035 C 2005.19 3.59344 -2.49381 0
M  V30 20036 C 2004.25 4.75703 -2.24929 0
M  V30 20037 O 2003.27 4.84756 -2.98329 0
M  V30 20038 N 2004.48 5.66422 -1.27068 0
M  V30 20039 H 2007.24 1.7611 -2.42498 0
M  V30 20040 H 2004.8 0.829768 -1.3902 0
M  V30 20041 H 2006.79 3.9018 -1.07432 0
M  V30 20042 H 2005.36 3.10364 -0.37323 0
M  V30 20043 H 2004.58 2.74166 -2.83243 0
M  V30 20044 H 2005.87 3.8596 -3.3153 0
M  V30 20045 H 2005.27 5.61787 -0.664185 0
M  V30 20046 H 2003.83 6.41653 -1.14562 0
M  V30 20047 N 2007.26 1.30423 0.884744 0
M  V30 20048 C 2008.5 1.20543 1.65072 0
M  V30 20049 C 2008.86 -0.236066 1.90543 0
M  V30 20050 O 2010.06 -0.458107 2.64868 0
M  V30 20051 C 2008.34 2.01135 2.95431 0
M  V30 20052 S 2009.89 2.07956 3.86393 0
M  V30 20053 H 2006.71 0.429572 0.566559 0
M  V30 20054 H 2009.31 1.64901 1.05014 0
M  V30 20055 H 2008.02 3.04981 2.74618 0
M  V30 20056 H 2007.55 1.57439 3.60522 0
M  V30 20057 H 2009.56 1.20711 4.81293 0
M  V30 20058 N 2008.74 -1.09711 1.13142 0
M  V30 20059 C 2009.96 -1.86136 0.914785 0
M  V30 20060 C 2010.39 -1.80448 -0.531035 0
M  V30 20061 O 2009.75 -1.17983 -1.37658 0
M  V30 20062 C 2009.79 -3.32164 1.40356 0
M  V30 20063 O 2008.9 -4.08203 0.586881 0
M  V30 20064 H 2008.24 -0.577287 0.328079 0
M  V30 20065 H 2010.77 -1.38563 1.50537 0
M  V30 20066 H 2010.78 -3.83013 1.40589 0
M  V30 20067 H 2009.45 -3.35619 2.45628 0
M  V30 20068 H 2008.03 -3.67153 0.652163 0
M  V30 20069 N 2010.22 -0.924476 -1.27637 0
M  V30 20070 C 2011.49 -0.481742 -1.89575 0
M  V30 20071 C 2011.87 1.04002 -1.83703 0
M  V30 20072 O 2011.22 1.89277 -1.28009 0
M  V30 20073 C 2011.43 -1.02419 -3.33633 0
M  V30 20074 C 2012.78 -1.08274 -4.10563 0
M  V30 20075 O 2013.8 -0.97359 -3.42636 0
M  V30 20076 O 2012.66 -1.25042 -5.32003 0
M  V30 20077 H 2009.76 -0.15444 -0.812451 0
M  V30 20078 H 2012.3 -1.01596 -1.35928 0
M  V30 20079 H 2011.07 -2.06808 -3.32184 0
M  V30 20080 H 2010.7 -0.471435 -3.94795 0
M  V30 20081 N 2011.69 1.41711 -0.689627 0
M  V30 20082 C 2012.66 2.29181 -0.02958 0
M  V30 20083 C 2013.66 1.44079 0.714004 0
M  V30 20084 O 2014.85 1.65297 0.549783 0
M  V30 20085 C 2011.98 3.26851 0.968583 0
M  V30 20086 H 2013.17 2.89042 -0.799656 0
M  V30 20087 H 2010.73 1.49598 -0.45279 0
M  V30 20088 H 2011.46 2.71957 1.76663 0
M  V30 20089 H 2011.25 3.89639 0.4386 0
M  V30 20090 H 2012.74 3.92412 1.42839 0
M  V30 20091 N 2013.17 0.433965 1.51507 0
M  V30 20092 C 2014.08 -0.385423 2.31412 0
M  V30 20093 C 2015.1 -1.03078 1.40182 0
M  V30 20094 O 2016.27 -1.02688 1.73254 0
M  V30 20095 C 2013.34 -1.47371 3.13819 0
M  V30 20096 C 2012.4 -0.848838 4.20824 0
M  V30 20097 C 2011.63 -1.88527 4.99293 0
M  V30 20098 O 2011.86 -3.107 4.78353 0
M  V30 20099 O 2010.79 -1.47768 5.83479 0
M  V30 20100 H 2014.62 0.266798 3.02526 0
M  V30 20101 H 2012.2 0.19658 1.48101 0
M  V30 20102 H 2014.08 -2.10495 3.65061 0
M  V30 20103 H 2012.76 -2.11008 2.45474 0
M  V30 20104 H 2011.67 -0.179639 3.73668 0
M  V30 20105 H 2013 -0.256013 4.91534 0
M  V30 20106 N 2014.65 -1.56732 0.165206 0
M  V30 20107 C 2015.9 -1.96308 -0.48036 0
M  V30 20108 C 2016.22 -1.05198 -1.6419 0
M  V30 20109 O 2015.49 -0.117108 -1.9555 0
M  V30 20110 H 2014.07 -0.724877 -0.180451 0
M  V30 20111 H 2016.73 -1.93354 0.244961 0
M  V30 20112 H 2015.83 -3.00459 -0.844437 0
M  V30 20113 N 2016.13 0.10854 -1.57226 0
M  V30 20114 C 2017.36 0.828374 -1.89593 0
M  V30 20115 C 2017.77 1.72936 -0.757543 0
M  V30 20116 O 2017.13 1.80474 0.271152 0
M  V30 20117 C 2017.18 1.65304 -3.21492 0
M  V30 20118 O 2016.9 0.788315 -4.30949 0
M  V30 20119 C 2018.4 2.47711 -3.67633 0
M  V30 20120 H 2015.62 0.237584 -0.627531 0
M  V30 20121 H 2018.17 0.0897975 -2.04303 0
M  V30 20122 H 2016.32 2.34426 -3.0842 0
M  V30 20123 H 2016.73 1.35814 -5.06611 0
M  V30 20124 H 2018.21 3.01088 -4.62655 0
M  V30 20125 H 2018.69 3.25555 -2.94806 0
M  V30 20126 H 2019.29 1.83812 -3.83527 0
M  V30 20127 N 2017.61 1.52975 0.379009 0
M  V30 20128 C 2018.57 1.77806 1.4463 0
M  V30 20129 C 2019.57 0.648223 1.47155 0
M  V30 20130 O 2020.76 0.916347 1.48151 0
M  V30 20131 C 2017.89 1.88792 2.83849 0
M  V30 20132 H 2019.08 2.73113 1.23892 0
M  V30 20133 H 2016.64 1.43848 0.61135 0
M  V30 20134 H 2017.37 0.955049 3.09918 0
M  V30 20135 H 2017.16 2.70957 2.83416 0
M  V30 20136 H 2018.65 2.09642 3.61165 0
M  V30 20137 N 2019.08 -0.63804 1.44107 0
M  V30 20138 C 2020.33 -1.39979 1.46743 0
M  V30 20139 C 2020.66 -1.93957 0.0970287 0
M  V30 20140 O 2019.94 -1.73232 -0.884358 0
M  V30 20141 C 2020.22 -2.57015 2.52221 0
M  V30 20142 C 2020.07 -2.08431 3.98593 0
M  V30 20143 C 2021.39 -3.59212 2.54273 0
M  V30 20144 H 2018.51 -0.507635 0.534299 0
M  V30 20145 H 2021.15 -0.722028 1.75746 0
M  V30 20146 H 2019.3 -3.14835 2.2762 0
M  V30 20147 H 2020.98 -1.55494 4.34303 0
M  V30 20148 H 2019.22 -1.39672 4.107 0
M  V30 20149 H 2019.89 -2.92659 4.68033 0
M  V30 20150 H 2022.37 -3.11179 2.76237 0
M  V30 20151 H 2021.24 -4.38631 3.29991 0
M  V30 20152 H 2021.5 -4.12821 1.58214 0
M  V30 20153 N 2020.56 -1.3089 -0.877815 0
M  V30 20154 C 2021.53 -1.17848 -1.96582 0
M  V30 20155 C 2022.53 -0.10772 -1.60439 0
M  V30 20156 O 2023.72 -0.356388 -1.70515 0
M  V30 20157 C 2020.85 -0.80715 -3.31207 0
M  V30 20158 H 2022.04 -2.14516 -2.09578 0
M  V30 20159 H 2019.59 -1.14389 -1.06512 0
M  V30 20160 H 2020.33 0.158713 -3.23911 0
M  V30 20161 H 2020.11 -1.58105 -3.58811 0
M  V30 20162 H 2021.6 -0.739575 -4.10999 0
M  V30 20163 N 2022.04 1.0911 -1.13723 0
M  V30 20164 C 2023.45 1.62841 -0.913213 0
M  V30 20165 C 2023.8 1.88346 0.549566 0
M  V30 20166 O 2022.93 1.63558 1.41696 0
M  V30 20167 C 2023.52 2.95835 -1.65127 0
M  V30 20168 C 2022.08 3.46379 -1.47304 0
M  V30 20169 C 2021.23 2.20738 -1.6784 0
M  V30 20170 H 2024.18 0.924297 -1.29006 0
M  V30 20171 H 2024.2 3.63942 -1.11026 0
M  V30 20172 H 2023.71 2.77241 -2.71587 0
M  V30 20173 H 2021.81 3.70092 -0.431605 0
M  V30 20174 H 2021.93 4.23603 -2.23825 0
M  V30 20175 H 2020.29 2.29554 -1.10349 0
M  V30 20176 H 2021.07 2.04659 -2.75626 0
M  V30 20177 N 2023.52 0.931232 1.27145 0
M  V30 20178 C 2024.93 0.617607 1.76189 0
M  V30 20179 C 2025.28 -0.867239 1.75993 0
M  V30 20180 O 2024.41 -1.67865 1.36567 0
M  V30 20181 C 2025 1.11436 3.19949 0
M  V30 20182 C 2023.56 0.851337 3.66646 0
M  V30 20183 C 2022.71 1.27104 2.46454 0
M  V30 20184 H 2025.66 1.11062 1.13362 0
M  V30 20185 H 2025.68 0.463637 3.77665 0
M  V30 20186 H 2025.19 2.19507 3.2006 0
M  V30 20187 H 2023.29 -0.215418 3.71977 0
M  V30 20188 H 2023.4 1.47136 4.55947 0
M  V30 20189 H 2021.77 0.689554 2.45188 0
M  V30 20190 H 2022.55 2.36047 2.49273 0
M  V30 20191 N 2025 -1.41343 0.697132 0
M  V30 20192 C 2026.23 -2.05528 0.237841 0
M  V30 20193 C 2026.64 -1.52468 -1.11351 0
M  V30 20194 O 2026 -0.673549 -1.69616 0
M  V30 20195 C 2026.05 -3.61007 0.188651 0
M  V30 20196 O 2025.77 -4.12106 1.48662 0
M  V30 20197 C 2027.27 -4.42341 -0.291439 0
M  V30 20198 H 2024.49 -0.661864 0.110352 0
M  V30 20199 H 2027.03 -1.81086 0.950155 0
M  V30 20200 H 2025.19 -3.84483 -0.474496 0
M  V30 20201 H 2025.6 -5.06162 1.37477 0
M  V30 20202 H 2027.08 -5.51316 -0.274731 0
M  V30 20203 H 2027.55 -4.1856 -1.33057 0
M  V30 20204 H 2028.16 -4.23933 0.340765 0
M  V30 20205 N 2026.48 -0.441993 -1.51275 0
M  V30 20206 C 2027.72 0.123093 -2.02426 0
M  V30 20207 C 2028.05 1.41953 -1.32525 0
M  V30 20208 O 2027.33 1.8942 -0.44164 0
M  V30 20209 C 2027.61 0.337043 -3.58519 0
M  V30 20210 C 2027.47 -0.978373 -4.39031 0
M  V30 20211 C 2028.78 1.10474 -4.26009 0
M  V30 20212 H 2025.9 0.0432623 -0.735729 0
M  V30 20213 H 2028.55 -0.581901 -1.8087 0
M  V30 20214 H 2026.7 0.93756 -3.77017 0
M  V30 20215 H 2028.37 -1.61323 -4.32172 0
M  V30 20216 H 2026.61 -1.58189 -4.03929 0
M  V30 20217 H 2027.28 -0.78266 -5.46423 0
M  V30 20218 H 2029.76 0.596021 -4.11809 0
M  V30 20219 H 2028.63 1.22321 -5.35097 0
M  V30 20220 H 2028.89 2.13401 -3.87185 0
M  V30 20221 N 2027.95 1.56642 -0.173515 0
M  V30 20222 C 2029.18 2.01325 0.477079 0
M  V30 20223 C 2029.6 1.05373 1.56659 0
M  V30 20224 O 2028.95 0.0549577 1.82417 0
M  V30 20225 C 2029 3.45813 1.05337 0
M  V30 20226 O 2028.73 4.38099 0.00735116 0
M  V30 20227 C 2030.23 4.05907 1.78198 0
M  V30 20228 H 2027.45 0.659835 0.121896 0
M  V30 20229 H 2029.99 2.0263 -0.27589 0
M  V30 20230 H 2028.15 3.45275 1.75682 0
M  V30 20231 H 2028.56 5.22708 0.433152 0
M  V30 20232 H 2030.03 5.08923 2.13778 0
M  V30 20233 H 2030.51 3.48125 2.67779 0
M  V30 20234 H 2031.12 4.10154 1.12489 0
M  V30 20235 N 2029.43 -0.1002 1.57281 0
M  V30 20236 C 2030.84 -0.655287 1.74822 0
M  V30 20237 C 2031.19 -1.79373 0.794961 0
M  V30 20238 O 2030.32 -2.16382 -0.0277532 0
M  V30 20239 C 2030.91 -1.19548 3.17008 0
M  V30 20240 C 2029.47 -1.69668 3.35991 0
M  V30 20241 C 2028.62 -0.604127 2.70639 0
M  V30 20242 H 2031.57 0.125841 1.582 0
M  V30 20243 H 2031.59 -2.06489 3.19598 0
M  V30 20244 H 2031.1 -0.366679 3.86364 0
M  V30 20245 H 2029.2 -2.54964 2.71706 0
M  V30 20246 H 2029.32 -1.79318 4.44277 0
M  V30 20247 H 2027.68 -1.04234 2.32395 0
M  V30 20248 H 2028.46 0.214006 3.42632 0
M  V30 20249 N 2030.91 -1.53174 -0.370891 0
M  V30 20250 C 2032.16 -1.69349 -1.11574 0
M  V30 20251 C 2032.49 -0.441278 -1.8912 0
M  V30 20252 O 2031.76 0.561336 -1.86224 0
M  V30 20253 C 2032.05 -2.94003 -2.07929 0
M  V30 20254 C 2031.9 -4.29368 -1.34027 0
M  V30 20255 C 2033.22 -3.14243 -3.08123 0
M  V30 20256 H 2030.34 -0.616245 -0.404242 0
M  V30 20257 H 2032.98 -1.85803 -0.397124 0
M  V30 20258 H 2031.13 -2.80105 -2.69209 0
M  V30 20259 H 2032.8 -4.55068 -0.755718 0
M  V30 20260 H 2031.04 -4.29021 -0.642108 0
M  V30 20261 H 2031.72 -5.12712 -2.04525 0
M  V30 20262 H 2034.19 -3.27291 -2.56943 0
M  V30 20263 H 2033.07 -4.02907 -3.7277 0
M  V30 20264 H 2033.33 -2.2928 -3.77999 0
M  V30 20265 N 2032.39 0.630389 -1.44443 0
M  V30 20266 C 2033.8 1.21202 -1.4201 0
M  V30 20267 C 2034.15 1.95729 -0.135833 0
M  V30 20268 O 2033.27 2.02474 0.763765 0
M  V30 20269 C 2033.87 2.20458 -2.57262 0
M  V30 20270 C 2032.43 2.74047 -2.58021 0
M  V30 20271 C 2031.58 1.49058 -2.33831 0
M  V30 20272 H 2034.53 0.421022 -1.53013 0
M  V30 20273 H 2034.55 3.03074 -2.30057 0
M  V30 20274 H 2034.06 1.66188 -3.50718 0
M  V30 20275 H 2032.16 3.32319 -1.68509 0
M  V30 20276 H 2032.27 3.20036 -3.56531 0
M  V30 20277 H 2030.64 1.77216 -1.82939 0
M  V30 20278 H 2031.42 0.96689 -3.29403 0
M  V30 20279 N 2033.87 1.31354 0.870861 0
M  V30 20280 C 2035.09 1.24082 1.66188 0
M  V30 20281 C 2035.52 -0.190886 1.87129 0
M  V30 20282 O 2034.87 -1.13669 1.41241 0
M  V30 20283 C 2034.92 1.98926 3.00767 0
M  V30 20284 O 2034.03 1.32599 3.90501 0
M  V30 20285 H 2033.37 0.428443 0.50728 0
M  V30 20286 H 2035.9 1.73408 1.08586 0
M  V30 20287 H 2035.91 2.08487 3.5071 0
M  V30 20288 H 2034.58 3.03044 2.84846 0
M  V30 20289 H 2033.16 1.31483 3.48951 0
M  V30 20290 N 2035.34 -1.08505 1.143 0
M  V30 20291 C 2036.27 -2.1741 0.851769 0
M  V30 20292 C 2037.25 -1.69004 -0.192818 0
M  V30 20293 O 2038.44 -1.94136 -0.0497098 0
M  V30 20294 C 2035.57 -3.45754 0.327364 0
M  V30 20295 C 2034.52 -4.07547 1.30728 0
M  V30 20296 C 2033.85 -5.30829 0.642225 0
M  V30 20297 C 2035.15 -4.48945 2.66919 0
M  V30 20298 H 2036.84 -2.42029 1.76245 0
M  V30 20299 H 2034.39 -1.16322 0.848834 0
M  V30 20300 H 2036.34 -4.21253 0.111237 0
M  V30 20301 H 2035.07 -3.20686 -0.618737 0
M  V30 20302 H 2033.73 -3.34077 1.50956 0
M  V30 20303 H 2033.37 -5.02046 -0.309652 0
M  V30 20304 H 2033.07 -5.73128 1.29608 0
M  V30 20305 H 2034.6 -6.09044 0.435598 0
M  V30 20306 H 2036.01 -5.15626 2.50604 0
M  V30 20307 H 2034.41 -5.02158 3.28568 0
M  V30 20308 H 2035.48 -3.60882 3.23871 0
M  V30 20309 N 2036.82 -0.937962 -1.26649 0
M  V30 20310 C 2037.73 -0.451023 -2.30224 0
M  V30 20311 C 2038.75 0.473402 -1.67436 0
M  V30 20312 O 2039.92 0.353715 -1.9827 0
M  V30 20313 C 2036.99 0.278943 -3.45576 0
M  V30 20314 C 2036.05 -0.681649 -4.23854 0
M  V30 20315 C 2035.28 0.0135756 -5.33698 0
M  V30 20316 O 2035.51 1.2311 -5.56956 0
M  V30 20317 O 2034.44 -0.663486 -5.98232 0
M  V30 20318 H 2038.27 -1.31129 -2.73932 0
M  V30 20319 H 2035.85 -0.703717 -1.31788 0
M  V30 20320 H 2037.73 0.690262 -4.15708 0
M  V30 20321 H 2036.41 1.11465 -3.03903 0
M  V30 20322 H 2035.31 -1.14285 -3.56216 0
M  V30 20323 H 2036.65 -1.48488 -4.69268 0
M  V30 20324 N 2038.3 1.40971 -0.704618 0
M  V30 20325 C 2039.26 2.29137 -0.053886 0
M  V30 20326 C 2040.26 1.44828 0.698682 0
M  V30 20327 O 2041.45 1.65871 0.532221 0
M  V30 20328 C 2038.58 3.27859 0.933861 0
M  V30 20329 H 2039.78 2.88178 -0.830268 0
M  V30 20330 H 2037.33 1.49109 -0.468632 0
M  V30 20331 H 2038.07 2.73815 1.73769 0
M  V30 20332 H 2037.85 3.90082 0.397249 0
M  V30 20333 H 2039.34 3.93905 1.38669 0
M  V30 20334 N 2039.78 0.45001 1.51039 0
M  V30 20335 C 2041.19 -0.0101397 1.86697 0
M  V30 20336 C 2041.54 -1.40804 1.36633 0
M  V30 20337 O 2040.67 -2.03986 0.722411 0
M  V30 20338 C 2041.26 -0.0251761 3.38791 0
M  V30 20339 C 2039.82 -0.429779 3.73938 0
M  V30 20340 C 2038.97 0.369286 2.7483 0
M  V30 20341 H 2041.92 0.665278 1.44082 0
M  V30 20342 H 2041.94 -0.831964 3.71293 0
M  V30 20343 H 2041.45 0.992361 3.75198 0
M  V30 20344 H 2039.55 -1.45245 3.43125 0
M  V30 20345 H 2039.66 -0.145773 4.78878 0
M  V30 20346 H 2038.03 -0.174158 2.54104 0
M  V30 20347 H 2038.81 1.38594 3.14081 0
M  V30 20348 N 2041.26 -1.56548 0.18182 0
M  V30 20349 C 2042.48 -2.02015 -0.469543 0
M  V30 20350 C 2042.91 -1.06119 -1.55307 0
M  V30 20351 O 2042.26 -0.0424595 -1.8125 0
M  V30 20352 C 2042.31 -3.46016 -1.01515 0
M  V30 20353 O 2041.42 -3.53215 -2.12869 0
M  V30 20354 H 2040.76 -0.65461 -0.111273 0
M  V30 20355 H 2043.29 -2.02552 0.288798 0
M  V30 20356 H 2043.3 -3.85537 -1.33511 0
M  V30 20357 H 2041.97 -4.15308 -0.22188 0
M  V30 20358 H 2040.55 -3.2556 -1.81838 0
M  V30 20359 N 2042.73 0.0918577 -1.57332 0
M  V30 20360 C 2043.64 1.1295 -2.0562 0
M  V30 20361 C 2044.66 1.4366 -0.981728 0
M  V30 20362 O 2045.84 1.54237 -1.29511 0
M  V30 20363 C 2042.9 2.42918 -2.4737 0
M  V30 20364 C 2041.96 2.19361 -3.69024 0
M  V30 20365 C 2041.2 3.43132 -4.08774 0
M  V30 20366 O 2041.42 4.51492 -3.48584 0
M  V30 20367 O 2040.35 3.32529 -5.01705 0
M  V30 20368 H 2044.18 0.74936 -2.9431 0
M  V30 20369 H 2041.76 0.304595 -1.46262 0
M  V30 20370 H 2043.65 3.19442 -2.74835 0
M  V30 20371 H 2042.32 2.80352 -1.61816 0
M  V30 20372 H 2041.23 1.40607 -3.46671 0
M  V30 20373 H 2042.56 1.86818 -4.55368 0
M  V30 20374 N 2044.21 1.53368 0.362763 0
M  V30 20375 C 2045.14 1.76293 1.4647 0
M  V30 20376 C 2046.16 0.643758 1.49531 0
M  V30 20377 O 2047.35 0.920081 1.5296 0
M  V30 20378 C 2044.45 1.83034 2.85222 0
M  V30 20379 C 2043.62 3.12714 3.05825 0
M  V30 20380 C 2042.68 3.1066 4.24708 0
M  V30 20381 O 2041.7 3.84449 4.19747 0
M  V30 20382 N 2042.91 2.31677 5.32265 0
M  V30 20383 H 2045.67 2.71376 1.27183 0
M  V30 20384 H 2043.23 1.52181 0.552508 0
M  V30 20385 H 2045.22 1.79134 3.62895 0
M  V30 20386 H 2043.79 0.952227 2.97744 0
M  V30 20387 H 2043.01 3.29893 2.15788 0
M  V30 20388 H 2044.3 3.98409 3.16461 0
M  V30 20389 H 2043.7 1.71243 5.39159 0
M  V30 20390 H 2042.26 2.33593 6.08504 0
M  V30 20391 N 2045.69 -0.62272 1.44776 0
M  V30 20392 C 2046.65 -1.71618 1.5192 0
M  V30 20393 C 2047.65 -1.55738 0.400303 0
M  V30 20394 O 2048.84 -1.6108 0.66324 0
M  V30 20395 C 2045.98 -3.10771 1.40122 0
M  V30 20396 H 2047.17 -1.66655 2.49332 0
M  V30 20397 H 2044.72 -0.837126 1.31992 0
M  V30 20398 H 2045.46 -3.21323 0.438374 0
M  V30 20399 H 2045.24 -3.23705 2.21264 0
M  V30 20400 H 2046.73 -3.90448 1.48122 0
M  V30 20401 N 2047.17 -1.31814 -0.863883 0
M  V30 20402 C 2048.58 -1.19653 -1.43318 0
M  V30 20403 C 2048.93 0.19461 -1.95232 0
M  V30 20404 O 2048.06 1.09277 -1.86782 0
M  V30 20405 C 2048.65 -2.1661 -2.6051 0
M  V30 20406 C 2047.21 -2.08364 -3.13466 0
M  V30 20407 C 2046.36 -2.05496 -1.8619 0
M  V30 20408 H 2049.31 -1.43776 -0.67187 0
M  V30 20409 H 2049.33 -1.75925 -3.37388 0
M  V30 20410 H 2048.84 -3.1785 -2.22695 0
M  V30 20411 H 2046.94 -1.10341 -3.55887 0
M  V30 20412 H 2047.05 -2.97757 -3.75336 0
M  V30 20413 H 2045.42 -1.50599 -2.05407 0
M  V30 20414 H 2046.2 -3.08501 -1.50605 0
M  V30 20415 N 2048.65 1.07897 -1.14873 0
M  V30 20416 C 2049.87 1.84117 -0.943847 0
M  V30 20417 C 2050.29 1.81844 0.507767 0
M  V30 20418 O 2049.65 1.22585 1.352 0
M  V30 20419 C 2049.7 3.31438 -1.4433 0
M  V30 20420 O 2049.42 3.33746 -2.83805 0
M  V30 20421 C 2050.92 4.24445 -1.2791 0
M  V30 20422 H 2048.14 0.581068 -0.335561 0
M  V30 20423 H 2050.68 1.36237 -1.52512 0
M  V30 20424 H 2048.84 3.76689 -0.904683 0
M  V30 20425 H 2049.25 4.25748 -3.06332 0
M  V30 20426 H 2050.73 5.25906 -1.67711 0
M  V30 20427 H 2051.2 4.38636 -0.222593 0
M  V30 20428 H 2051.81 3.85025 -1.80653 0
M  V30 20429 N 2050.12 0.944665 1.2615 0
M  V30 20430 C 2051.03 0.463226 2.29981 0
M  V30 20431 C 2052.05 -0.464516 1.67685 0
M  V30 20432 O 2053.23 -0.343195 1.98454 0
M  V30 20433 C 2050.29 -0.260612 3.45719 0
M  V30 20434 C 2049.35 0.704117 4.23486 0
M  V30 20435 C 2048.59 0.0147279 5.33698 0
M  V30 20436 O 2048.81 -1.20155 5.57601 0
M  V30 20437 O 2047.74 0.695202 5.97872 0
M  V30 20438 H 2051.57 1.3258 2.73233 0
M  V30 20439 H 2049.15 0.710696 1.31413 0
M  V30 20440 H 2051.04 -0.668207 4.16068 0
M  V30 20441 H 2049.71 -1.09852 3.0449 0
M  V30 20442 H 2048.62 1.16172 3.55605 0
M  V30 20443 H 2049.95 1.50974 4.68474 0
M  V30 20444 N 2051.6 -1.40596 0.712085 0
M  V30 20445 C 2052.53 -2.29193 0.0179139 0
M  V30 20446 C 2053.55 -1.45646 -0.727389 0
M  V30 20447 O 2054.74 -1.68973 -0.575349 0
M  V30 20448 C 2051.84 -3.23845 -0.998876 0
M  V30 20449 C 2051.01 -4.36229 -0.319822 0
M  V30 20450 C 2050.07 -5.11344 -1.24151 0
M  V30 20451 O 2049.09 -5.6453 -0.727627 0
M  V30 20452 N 2050.3 -5.20369 -2.57287 0
M  V30 20453 H 2053.06 -2.89409 0.778623 0
M  V30 20454 H 2050.62 -1.51928 0.559432 0
M  V30 20455 H 2052.61 -3.70968 -1.61757 0
M  V30 20456 H 2051.18 -2.64821 -1.66098 0
M  V30 20457 H 2050.4 -3.91279 0.479012 0
M  V30 20458 H 2051.69 -5.08574 0.151681 0
M  V30 20459 H 2051.09 -4.78635 -3.01538 0
M  V30 20460 H 2049.65 -5.7101 -3.14309 0
M  V30 20461 N 2053.08 -0.458013 -1.50798 0
M  V30 20462 C 2054.5 -0.111425 -1.59211 0
M  V30 20463 C 2054.7 1.38104 -1.46729 0
M  V30 20464 O 2053.75 2.15306 -1.31907 0
M  V30 20465 C 2055.07 -0.649971 -2.93591 0
M  V30 20466 C 2056.61 -0.612237 -3.06954 0
M  V30 20467 C 2057.09 -1.1281 -4.43889 0
M  V30 20468 N 2058.58 -1.08696 -4.50266 0
M  V30 20469 C 2059.31 -1.45676 -5.54586 0
M  V30 20470 N 2058.81 -1.90042 -6.66225 0
M  V30 20471 N 2060.6 -1.37362 -5.45058 0
M  V30 20472 H 2052.75 -1.42885 -1.57155 0
M  V30 20473 H 2055.02 -0.590085 -0.741959 0
M  V30 20474 H 2054.72 -1.695 -3.0816 0
M  V30 20475 H 2054.6 -0.0862666 -3.77101 0
M  V30 20476 H 2056.98 0.42385 -2.9204 0
M  V30 20477 H 2057.07 -1.21259 -2.25233 0
M  V30 20478 H 2056.71 -2.16276 -4.59551 0
M  V30 20479 H 2056.64 -0.50409 -5.24182 0
M  V30 20480 H 2059.13 -0.761406 -3.7015 0
M  V30 20481 H 2059.44 -2.16442 -7.41871 0
M  V30 20482 H 2057.79 -1.93985 -6.67379 0
M  V30 20483 H 2060.98 -1.02552 -4.56728 0
M  V30 20484 H 2061.15 -1.66508 -6.26242 0
M  V30 20485 N 2054.56 1.56449 -0.190119 0
M  V30 20486 C 2055.97 1.83879 0.323353 0
M  V30 20487 C 2056.32 1.11062 1.6174 0
M  V30 20488 O 2055.45 0.369789 2.13217 0
M  V30 20489 C 2056.04 3.33562 0.593453 0
M  V30 20490 C 2054.6 3.6142 1.05131 0
M  V30 20491 C 2053.75 2.77129 0.0972331 0
M  V30 20492 H 2056.7 1.53205 -0.414009 0
M  V30 20493 H 2056.72 3.52062 1.44335 0
M  V30 20494 H 2056.23 3.86532 -0.348543 0
M  V30 20495 H 2054.33 3.13879 2.00776 0
M  V30 20496 H 2054.45 4.69638 0.947464 0
M  V30 20497 H 2052.81 2.47576 0.598181 0
M  V30 20498 H 2053.59 3.32887 -0.839117 0
M  V30 20499 N 2056.04 -0.0835127 1.57379 0
M  V30 20500 C 2057.29 -0.783318 1.86302 0
M  V30 20501 C 2057.61 -1.787 0.780472 0
M  V30 20502 O 2056.88 -1.94956 -0.192101 0
M  V30 20503 H 2055.46 -0.292281 0.687445 0
M  V30 20504 H 2058.12 -0.0623868 1.948 0
M  V30 20505 H 2057.21 -1.30677 2.83425 0
M  V30 20506 N 2057.52 -1.53558 -0.354624 0
M  V30 20507 C 2058.76 -1.70523 -1.09772 0
M  V30 20508 C 2059.09 -0.461312 -1.88641 0
M  V30 20509 O 2058.37 0.541553 -1.86809 0
M  V30 20510 C 2058.65 -2.96191 -2.04799 0
M  V30 20511 C 2058.51 -4.30765 -1.29465 0
M  V30 20512 C 2059.82 -3.17493 -3.04772 0
M  V30 20513 H 2056.94 -0.620497 -0.397683 0
M  V30 20514 H 2059.59 -1.86214 -0.377395 0
M  V30 20515 H 2057.74 -2.82944 -2.66223 0
M  V30 20516 H 2059.41 -4.55844 -0.707409 0
M  V30 20517 H 2057.65 -4.29678 -0.596569 0
M  V30 20518 H 2058.32 -5.14852 -1.99076 0
M  V30 20519 H 2060.8 -3.29998 -2.53458 0
M  V30 20520 H 2059.67 -4.06838 -3.68476 0
M  V30 20521 H 2059.93 -2.33276 -3.75546 0
M  V30 20522 N 2058.99 0.615033 -1.45104 0
M  V30 20523 C 2059.93 1.73982 -1.49208 0
M  V30 20524 C 2060.94 1.58215 -0.383649 0
M  V30 20525 O 2062.13 1.66233 -0.650297 0
M  V30 20526 C 2059.23 3.11897 -1.32565 0
M  V30 20527 C 2058.4 3.53973 -2.56947 0
M  V30 20528 C 2057.46 4.70825 -2.34969 0
M  V30 20529 O 2056.49 4.78319 -3.08544 0
M  V30 20530 N 2057.69 5.63599 -1.39054 0
M  V30 20531 H 2060.45 1.70927 -2.46179 0
M  V30 20532 H 2058.01 0.800093 -1.40748 0
M  V30 20533 H 2060.01 3.87814 -1.15684 0
M  V30 20534 H 2058.58 3.09502 -0.438979 0
M  V30 20535 H 2057.8 2.68096 -2.88995 0
M  V30 20536 H 2059.08 3.78841 -3.39642 0
M  V30 20537 H 2058.48 5.60252 -0.783199 0
M  V30 20538 H 2057.04 6.39079 -1.28147 0
M  V30 20539 N 2060.47 1.3227 0.85688 0
M  V30 20540 C 2061.38 1.23012 1.99763 0
M  V30 20541 C 2062.4 0.144168 1.73402 0
M  V30 20542 O 2063.57 0.364429 1.98075 0
M  V30 20543 C 2060.64 0.951293 3.33394 0
M  V30 20544 C 2059.7 2.12547 3.72991 0
M  V30 20545 C 2058.93 1.85984 5.00245 0
M  V30 20546 O 2059.16 0.801321 5.64743 0
M  V30 20547 O 2058.09 2.72029 5.36921 0
M  V30 20548 H 2061.92 2.18906 2.10509 0
M  V30 20549 H 2059.5 1.12138 0.987193 0
M  V30 20550 H 2061.38 0.812192 4.13499 0
M  V30 20551 H 2060.06 0.0224976 3.23692 0
M  V30 20552 H 2058.96 2.32003 2.93471 0
M  V30 20553 H 2060.3 3.03697 3.87336 0
M  V30 20554 N 2061.95 -1.07287 1.15444 0
M  V30 20555 C 2063.19 -1.8149 0.940261 0
M  V30 20556 C 2063.55 -1.84734 -0.523206 0
M  V30 20557 O 2064.75 -2.54815 -0.855738 0
M  V30 20558 C 2063.03 -3.22592 1.53848 0
M  V30 20559 S 2064.58 -4.13533 1.4675 0
M  V30 20560 H 2061.4 -0.625317 0.338377 0
M  V30 20561 H 2064 -1.28879 1.47005 0
M  V30 20562 H 2062.71 -3.1782 2.59651 0
M  V30 20563 H 2062.24 -3.80278 1.00758 0
M  V30 20564 H 2064.25 -4.94055 0.460833 0
M  V30 20565 N 2063.43 -0.951342 -1.25647 0
M  V30 20566 C 2064.66 -0.62053 -1.97061 0
M  V30 20567 C 2065.07 0.810902 -1.70942 0
M  V30 20568 O 2064.41 1.55361 -0.980235 0
M  V30 20569 C 2064.47 -0.795277 -3.50593 0
M  V30 20570 C 2064.13 -2.20325 -4.00382 0
M  V30 20571 C 2065.13 -3.17963 -4.11334 0
M  V30 20572 C 2062.82 -2.52655 -4.34132 0
M  V30 20573 C 2064.81 -4.46028 -4.55344 0
M  V30 20574 C 2062.5 -3.8095 -4.77829 0
M  V30 20575 C 2063.5 -4.77449 -4.88397 0
M  V30 20576 O 2063.18 -6.03457 -5.31126 0
M  V30 20577 H 2062.92 -0.231839 -0.635001 0
M  V30 20578 H 2065.47 -1.27722 -1.60861 0
M  V30 20579 H 2063.7 -0.0814441 -3.86614 0
M  V30 20580 H 2065.39 -0.46601 -4.03216 0
M  V30 20581 H 2066.15 -2.94311 -3.85494 0
M  V30 20582 H 2062.03 -1.78274 -4.25135 0
M  V30 20583 H 2065.58 -5.21351 -4.63508 0
M  V30 20584 H 2061.47 -4.0441 -5.03113 0
M  V30 20585 H 2062.24 -6.06786 -5.49321 0
M  V30 20586 N 2064.91 1.40216 -0.719531 0
M  V30 20587 C 2065.86 2.27954 -0.0458686 0
M  V30 20588 C 2066.84 1.43462 0.728523 0
M  V30 20589 O 2068.03 1.66518 0.600075 0
M  V30 20590 C 2065.16 3.32035 0.872205 0
M  V30 20591 C 2064.25 4.23998 0.0927891 0
M  V30 20592 N 2064.64 4.97251 -0.926022 0
M  V30 20593 C 2062.94 4.44816 0.324761 0
M  V30 20594 C 2063.64 5.64733 -1.39469 0
M  V30 20595 N 2062.61 5.38862 -0.716112 0
M  V30 20596 H 2066.41 2.82035 -0.826658 0
M  V30 20597 H 2063.93 1.52714 -0.552469 0
M  V30 20598 H 2065.93 3.93741 1.37017 0
M  V30 20599 H 2064.59 2.79514 1.65233 0
M  V30 20600 H 2065.6 5.01137 -1.30698 0
M  V30 20601 H 2062.27 4.03265 1.0809 0
M  V30 20602 H 2063.66 6.3341 -2.24145 0
M  V30 20603 N 2066.38 0.466004 1.50553 0
M  V30 20604 C 2067.63 -0.09056 2.01897 0
M  V30 20605 C 2067.95 -1.40673 1.35041 0
M  V30 20606 O 2067.22 -1.89567 0.494095 0
M  V30 20607 H 2065.8 -0.0364574 0.74611 0
M  V30 20608 H 2068.46 0.615265 1.84934 0
M  V30 20609 H 2067.56 -0.245757 3.11131 0
M  V30 20610 N 2067.86 -1.56346 0.198413 0
M  V30 20611 C 2068.81 -2.20589 -0.737791 0
M  V30 20612 C 2069.8 -1.17807 -1.21729 0
M  V30 20613 O 2071.01 -1.35944 -1.1798 0
M  V30 20614 H 2067.38 -0.706982 -0.256282 0
M  V30 20615 H 2069.36 -2.97902 -0.172284 0
M  V30 20616 C 2068.1 -2.88187 -1.94534 0
M  V30 20617 H 2067.43 -3.6702 -1.58545 0
M  V30 20618 H 2068.87 -3.3657 -2.57869 0
M  V30 20619 C 2067.33 -1.89401 -2.7862 0
M  V30 20620 O 2067.86 -1.39638 -3.76649 0
M  V30 20621 N 2066.06 -1.57557 -2.4418 0
M  V30 20622 H 2065.61 -1.98218 -1.64521 0
M  V30 20623 H 2065.57 -0.917179 -3.00724 0
M  V30 20624 N 2069.34 0.0751653 -1.57421 0
M  V30 20625 C 2070.59 0.773427 -1.86715 0
M  V30 20626 C 2070.91 1.78283 -0.789938 0
M  V30 20627 O 2070.18 1.95055 0.18176 0
M  V30 20628 H 2068.76 0.288632 -0.688985 0
M  V30 20629 H 2071.42 0.0520552 -1.9483 0
M  V30 20630 H 2070.52 1.29172 -2.84114 0
M  V30 20631 N 2070.82 1.53744 0.346476 0
M  V30 20632 C 2071.75 1.77836 1.44592 0
M  V30 20633 C 2072.76 0.659581 1.4884 0
M  V30 20634 O 2073.95 0.936252 1.51976 0
M  V30 20635 C 2071.05 1.86049 2.83265 0
M  V30 20636 C 2070.23 3.1594 3.02491 0
M  V30 20637 C 2069.28 3.15147 4.21389 0
M  V30 20638 O 2068.31 3.88879 4.15646 0
M  V30 20639 N 2069.51 2.37309 5.29778 0
M  V30 20640 H 2072.28 2.72709 1.24297 0
M  V30 20641 H 2069.84 1.52758 0.536336 0
M  V30 20642 H 2071.83 1.82973 3.60975 0
M  V30 20643 H 2070.4 0.983753 2.96717 0
M  V30 20644 H 2069.62 3.32163 2.12277 0
M  V30 20645 H 2070.91 4.01743 3.12217 0
M  V30 20646 H 2070.31 1.76952 5.37312 0
M  V30 20647 H 2068.86 2.40034 6.05992 0
M  V30 20648 N 2072.3 -0.607329 1.45428 0
M  V30 20649 C 2073.52 -1.39786 1.53214 0
M  V30 20650 C 2073.95 -1.87369 0.165684 0
M  V30 20651 O 2073.3 -1.60154 -0.849728 0
M  V30 20652 C 2073.35 -2.57823 2.52111 0
M  V30 20653 O 2072.46 -3.58462 2.03909 0
M  V30 20654 H 2071.8 -0.417312 0.516476 0
M  V30 20655 H 2074.33 -0.739101 1.90784 0
M  V30 20656 H 2074.34 -3.05064 2.70925 0
M  V30 20657 H 2073.01 -2.22539 3.51354 0
M  V30 20658 H 2071.59 -3.17868 1.94973 0
M  V30 20659 N 2073.77 -1.32722 -0.849853 0
M  V30 20660 C 2075 -1.26385 -1.63433 0
M  V30 20661 C 2075.41 0.169573 -1.88439 0
M  V30 20662 O 2074.76 1.11866 -1.45711 0
M  V30 20663 C 2074.82 -1.95887 -3.01444 0
M  V30 20664 C 2074.48 -3.45215 -2.99459 0
M  V30 20665 C 2075.48 -4.40614 -2.75962 0
M  V30 20666 C 2073.16 -3.87223 -3.19943 0
M  V30 20667 C 2075.16 -5.75996 -2.72959 0
M  V30 20668 C 2072.84 -5.22713 -3.16566 0
M  V30 20669 C 2073.84 -6.16911 -2.93104 0
M  V30 20670 O 2073.53 -7.49921 -2.8961 0
M  V30 20671 H 2073.26 -0.437171 -0.515614 0
M  V30 20672 H 2075.82 -1.75479 -1.06754 0
M  V30 20673 H 2074.05 -1.41369 -3.59933 0
M  V30 20674 H 2075.74 -1.83194 -3.62208 0
M  V30 20675 H 2076.5 -4.09484 -2.59899 0
M  V30 20676 H 2072.38 -3.14321 -3.37229 0
M  V30 20677 H 2075.92 -6.49494 -2.54566 0
M  V30 20678 H 2071.82 -5.53471 -3.32175 0
M  V30 20679 H 2072.59 -7.59338 -3.0553 0
M  V30 20680 N 2075.25 1.06673 -1.16011 0
M  V30 20681 C 2076.67 1.31515 -0.90421 0
M  V30 20682 C 2076.87 1.96524 0.445021 0
M  V30 20683 O 2075.92 2.22945 1.18541 0
M  V30 20684 C 2077.24 2.19955 -2.05037 0
M  V30 20685 C 2078.79 2.33384 -2.08569 0
M  V30 20686 C 2079.26 3.25176 -3.22528 0
M  V30 20687 N 2080.75 3.32759 -3.2222 0
M  V30 20688 C 2081.49 4.03866 -4.07038 0
M  V30 20689 N 2080.98 4.77529 -5.01934 0
M  V30 20690 N 2082.78 3.99877 -3.95037 0
M  V30 20691 H 2074.93 0.628672 -2.02883 0
M  V30 20692 H 2077.19 0.339704 -0.885045 0
M  V30 20693 H 2076.9 1.79458 -3.02469 0
M  V30 20694 H 2076.77 3.20521 -1.98862 0
M  V30 20695 H 2079.16 2.7313 -1.11732 0
M  V30 20696 H 2079.24 1.32499 -2.1881 0
M  V30 20697 H 2078.88 2.86147 -4.19622 0
M  V30 20698 H 2078.81 4.26031 -3.09524 0
M  V30 20699 H 2081.3 2.80259 -2.53502 0
M  V30 20700 H 2081.62 5.29302 -5.6308 0
M  V30 20701 H 2079.96 4.76522 -5.05917 0
M  V30 20702 H 2083.15 3.41446 -3.20207 0
M  V30 20703 H 2083.32 4.55027 -4.61361 0
M  V30 20704 N 2076.73 0.957992 1.25141 0
M  V30 20705 C 2077.98 0.613378 1.92567 0
M  V30 20706 C 2078.3 -0.852805 1.75363 0
M  V30 20707 O 2077.57 -1.60775 1.11929 0
M  V30 20708 H 2076.15 0.223867 0.712666 0
M  V30 20709 H 2078.81 1.21696 1.52237 0
M  V30 20710 H 2077.91 0.845594 3.00427 0
M  V30 20711 N 2078.21 -1.39832 0.726957 0
M  V30 20712 C 2079.44 -2.04978 0.281383 0
M  V30 20713 C 2079.85 -1.54795 -1.08092 0
M  V30 20714 O 2079.21 -0.709375 -1.68149 0
M  V30 20715 C 2079.26 -3.60526 0.265184 0
M  V30 20716 O 2078.98 -4.0886 1.5737 0
M  V30 20717 C 2080.48 -4.4286 -0.197547 0
M  V30 20718 H 2077.7 -0.659374 0.124366 0
M  V30 20719 H 2080.25 -1.7903 0.988352 0
M  V30 20720 H 2078.4 -3.85403 -0.392835 0
M  V30 20721 H 2078.81 -5.03132 1.48183 0
M  V30 20722 H 2080.29 -5.51775 -0.157727 0
M  V30 20723 H 2080.77 -4.21288 -1.24149 0
M  V30 20724 H 2081.37 -4.23114 0.430611 0
M  V30 20725 N 2079.69 -0.473982 -1.50304 0
M  V30 20726 C 2080.92 0.0775007 -2.06455 0
M  V30 20727 C 2081.32 1.33801 -1.33768 0
M  V30 20728 O 2080.67 1.79261 -0.401381 0
M  V30 20729 C 2080.73 0.428656 -3.56935 0
M  V30 20730 C 2080.39 -0.730244 -4.51128 0
M  V30 20731 C 2081.39 -1.6131 -4.94242 0
M  V30 20732 C 2079.08 -0.92139 -4.93777 0
M  V30 20733 C 2081.07 -2.67149 -5.78714 0
M  V30 20734 C 2078.76 -1.98299 -5.78032 0
M  V30 20735 C 2079.75 -2.85641 -6.20402 0
M  V30 20736 O 2079.44 -3.89973 -7.02977 0
M  V30 20737 H 2079.17 -0.00505561 -0.675981 0
M  V30 20738 H 2081.73 -0.662628 -1.94418 0
M  V30 20739 H 2079.96 1.22201 -3.66884 0
M  V30 20740 H 2081.65 0.915562 -3.95439 0
M  V30 20741 H 2082.41 -1.47713 -4.61959 0
M  V30 20742 H 2078.29 -0.251023 -4.60316 0
M  V30 20743 H 2081.84 -3.35352 -6.11706 0
M  V30 20744 H 2077.73 -2.11903 -6.09727 0
M  V30 20745 H 2078.5 -3.86996 -7.21232 0
M  V30 20746 N 2081.16 1.56239 -0.206702 0
M  V30 20747 C 2082.39 2.02736 0.437344 0
M  V30 20748 C 2082.81 1.08577 1.53599 0
M  V30 20749 O 2082.17 0.0712895 1.8116 0
M  V30 20750 C 2082.22 3.47587 0.959974 0
M  V30 20751 O 2081.32 3.56556 2.07223 0
M  V30 20752 H 2080.67 0.656297 0.100845 0
M  V30 20753 H 2083.2 2.02066 -0.320985 0
M  V30 20754 H 2083.21 3.87612 1.27361 0
M  V30 20755 H 2081.88 4.15608 0.15578 0
M  V30 20756 H 2080.46 3.28412 1.76635 0
M  V30 20757 N 2082.64 -0.0668159 1.57458 0
M  V30 20758 C 2083.87 -0.777815 1.91723 0
M  V30 20759 C 2084.29 -1.70866 0.803128 0
M  V30 20760 O 2083.64 -1.8113 -0.223207 0
M  V30 20761 C 2083.69 -1.56722 3.25761 0
M  V30 20762 O 2083.41 -0.673779 4.32888 0
M  V30 20763 C 2084.92 -2.37877 3.74071 0
M  V30 20764 H 2082.14 -0.220863 0.633609 0
M  V30 20765 H 2084.68 -0.0355987 2.04469 0
M  V30 20766 H 2082.83 -2.26166 3.14527 0
M  V30 20767 H 2083.25 -1.22335 5.10034 0
M  V30 20768 H 2084.72 -2.88716 4.70476 0
M  V30 20769 H 2085.2 -3.17625 3.03334 0
M  V30 20770 H 2085.81 -1.73579 3.88266 0
M  V30 20771 N 2084.12 -1.53926 -0.338317 0
M  V30 20772 C 2085.35 -1.75368 -1.09789 0
M  V30 20773 C 2085.76 -0.495294 -1.82187 0
M  V30 20774 O 2085.12 0.533316 -1.74534 0
M  V30 20775 C 2085.17 -2.93722 -2.10736 0
M  V30 20776 O 2084.89 -4.14695 -1.4128 0
M  V30 20777 C 2086.39 -3.27258 -2.99027 0
M  V30 20778 H 2083.61 -0.585824 -0.327188 0
M  V30 20779 H 2086.16 -2.00767 -0.388932 0
M  V30 20780 H 2084.31 -2.70639 -2.77188 0
M  V30 20781 H 2084.73 -4.81165 -2.08759 0
M  V30 20782 H 2086.2 -4.13409 -3.65783 0
M  V30 20783 H 2086.68 -2.43786 -3.65329 0
M  V30 20784 H 2087.28 -3.52366 -2.38156 0
M  V30 20785 N 2085.6 0.599608 -1.45748 0
M  V30 20786 C 2086.85 1.3604 -1.50403 0
M  V30 20787 C 2087.18 1.93632 -0.148419 0
M  V30 20788 O 2086.45 1.75516 0.838118 0
M  V30 20789 C 2086.74 2.50237 -2.58946 0
M  V30 20790 C 2086.59 1.9779 -4.03979 0
M  V30 20791 C 2087.91 3.52344 -2.63708 0
M  V30 20792 H 2085.03 0.49329 -0.547571 0
M  V30 20793 H 2087.67 0.675178 -1.77599 0
M  V30 20794 H 2085.82 3.0869 -2.35888 0
M  V30 20795 H 2087.49 1.43925 -4.38273 0
M  V30 20796 H 2085.73 1.28734 -4.14258 0
M  V30 20797 H 2086.41 2.80147 -4.75628 0
M  V30 20798 H 2088.88 3.03746 -2.8439 0
M  V30 20799 H 2087.76 4.29728 -3.41504 0
M  V30 20800 H 2088.02 4.08481 -1.69103 0
M  V30 20801 N 2087.08 1.33171 0.842803 0
M  V30 20802 C 2088.31 1.27434 1.62997 0
M  V30 20803 C 2088.72 -0.155477 1.88159 0
M  V30 20804 O 2088.08 -1.09638 1.45897 0
M  V30 20805 C 2088.13 2.04284 2.98245 0
M  V30 20806 O 2087.85 3.41688 2.74191 0
M  V30 20807 C 2089.35 2.05711 3.9268 0
M  V30 20808 H 2086.57 0.439188 0.507302 0
M  V30 20809 H 2089.11 1.75481 1.05007 0
M  V30 20810 H 2087.27 1.5993 3.52847 0
M  V30 20811 H 2087.68 3.81172 3.60288 0
M  V30 20812 H 2089.16 2.63943 4.84807 0
M  V30 20813 H 2089.63 1.04636 4.26553 0
M  V30 20814 H 2090.24 2.50067 3.44015 0
M  V30 20815 N 2088.56 -1.06056 1.16576 0
M  V30 20816 C 2089.8 -1.78546 0.946876 0
M  V30 20817 C 2090.12 -1.87758 -0.526489 0
M  V30 20818 O 2089.39 -1.38801 -1.38243 0
M  V30 20819 H 2087.97 -0.661335 0.347341 0
M  V30 20820 H 2090.64 -1.28101 1.46888 0
M  V30 20821 H 2089.73 -2.80537 1.36767 0
M  V30 20822 N 2090.03 -0.964615 -1.24631 0
M  V30 20823 C 2091.45 -0.670645 -1.44826 0
M  V30 20824 C 2091.65 0.768559 -1.86267 0
M  V30 20825 O 2090.71 1.54279 -1.99886 0
M  V30 20826 C 2092.02 -1.6521 -2.51249 0
M  V30 20827 C 2093.57 -1.66439 -2.65079 0
M  V30 20828 C 2094.04 -2.63374 -3.74697 0
M  V30 20829 N 2095.53 -2.61798 -3.8212 0
M  V30 20830 C 2096.27 -3.33478 -4.66455 0
M  V30 20831 N 2095.76 -4.14664 -5.55 0
M  V30 20832 N 2097.56 -3.22317 -4.60508 0
M  V30 20833 H 2089.71 -1.89453 -0.960277 0
M  V30 20834 H 2091.97 -0.815473 -0.483433 0
M  V30 20835 H 2091.68 -2.68058 -2.2768 0
M  V30 20836 H 2091.55 -1.42244 -3.49351 0
M  V30 20837 H 2093.94 -0.643043 -2.88009 0
M  V30 20838 H 2094.02 -1.93467 -1.67345 0
M  V30 20839 H 2093.66 -3.65641 -3.52518 0
M  V30 20840 H 2093.59 -2.33627 -4.71939 0
M  V30 20841 H 2096.08 -2.02866 -3.18832 0
M  V30 20842 H 2096.4 -4.66253 -6.16302 0
M  V30 20843 H 2094.74 -4.18759 -5.54676 0
M  V30 20844 H 2097.93 -2.58355 -3.90346 0
M  V30 20845 H 2098.11 -3.78443 -5.26008 0
M  V30 20846 N 2091.51 1.39445 -0.734362 0
M  V30 20847 C 2092.74 2.04826 -0.29225 0
M  V30 20848 C 2093.15 1.55366 1.0727 0
M  V30 20849 O 2092.51 0.718282 1.67771 0
M  V30 20850 C 2092.56 3.6038 -0.2843 0
M  V30 20851 O 2092.28 4.08019 -1.59536 0
M  V30 20852 C 2093.78 4.42958 0.174058 0
M  V30 20853 H 2091 0.658705 -0.127861 0
M  V30 20854 H 2093.55 1.78504 -0.997833 0
M  V30 20855 H 2091.7 3.85606 0.372391 0
M  V30 20856 H 2092.12 5.02339 -1.50849 0
M  V30 20857 H 2093.59 5.5185 0.128462 0
M  V30 20858 H 2094.07 4.21941 1.21913 0
M  V30 20859 H 2094.67 4.2288 -0.453043 0
M  V30 20860 N 2092.99 0.481946 1.5005 0
M  V30 20861 C 2094.23 -0.067885 2.04287 0
M  V30 20862 C 2094.59 -1.36011 1.35517 0
M  V30 20863 O 2095.79 -1.993 1.80369 0
M  V30 20864 C 2094.07 -0.23649 3.56617 0
M  V30 20865 S 2095.62 -0.743315 4.32458 0
M  V30 20866 H 2092.44 -0.0108195 0.710918 0
M  V30 20867 H 2095.04 0.651566 1.84323 0
M  V30 20868 H 2093.75 0.709617 4.04218 0
M  V30 20869 H 2093.28 -0.981739 3.80953 0
M  V30 20870 H 2095.29 -2.01523 4.53435 0
M  V30 20871 N 2094.47 -1.56127 0.214985 0
M  V30 20872 C 2095.4 -2.17263 -0.730035 0
M  V30 20873 C 2096.41 -1.13988 -1.16235 0
M  V30 20874 O 2097.6 -1.40996 -1.09464 0
M  V30 20875 C 2094.7 -2.73608 -1.99979 0
M  V30 20876 C 2093.87 -4.01988 -1.72409 0
M  V30 20877 C 2092.93 -4.42962 -2.84026 0
M  V30 20878 O 2091.96 -5.09992 -2.52778 0
M  V30 20879 N 2093.16 -4.08103 -4.12834 0
M  V30 20880 H 2095.93 -2.98984 -0.207112 0
M  V30 20881 H 2093.49 -1.61865 0.0337349 0
M  V30 20882 H 2095.48 -2.97994 -2.73828 0
M  V30 20883 H 2094.05 -1.96229 -2.43337 0
M  V30 20884 H 2093.27 -3.85527 -0.822372 0
M  V30 20885 H 2094.56 -4.85749 -1.51411 0
M  V30 20886 H 2093.96 -3.54226 -4.41067 0
M  V30 20887 H 2092.51 -4.37396 -4.83248 0
M  V30 20888 N 2095.95 0.0584645 -1.57492 0
M  V30 20889 C 2096.91 1.05251 -2.03605 0
M  V30 20890 C 2097.91 1.30807 -0.935209 0
M  V30 20891 O 2099.1 1.26304 -1.19971 0
M  V30 20892 C 2096.23 2.39288 -2.42804 0
M  V30 20893 H 2097.42 0.654779 -2.92665 0
M  V30 20894 H 2094.98 0.304552 -1.53304 0
M  V30 20895 H 2095.71 2.83868 -1.56811 0
M  V30 20896 H 2095.5 2.22077 -3.23147 0
M  V30 20897 H 2096.99 3.10713 -2.79011 0
M  V30 20898 N 2097.42 1.54103 0.330149 0
M  V30 20899 C 2098.67 1.73185 1.0667 0
M  V30 20900 C 2099.02 0.496012 1.85896 0
M  V30 20901 O 2098.32 -0.511524 1.84646 0
M  V30 20902 C 2098.51 2.94358 2.02702 0
M  V30 20903 C 2098.34 4.29608 1.32916 0
M  V30 20904 C 2097.11 4.93876 1.06841 0
M  V30 20905 C 2099.31 5.08825 0.748462 0
M  V30 20906 N 2097.29 6.1297 0.337775 0
M  V30 20907 C 2098.66 6.19821 0.149089 0
M  V30 20908 C 2100.72 4.93631 0.650627 0
M  V30 20909 C 2099.42 7.17281 -0.538618 0
M  V30 20910 C 2101.45 5.91395 -0.0233663 0
M  V30 20911 C 2100.81 7.01739 -0.611712 0
M  V30 20912 H 2096.91 0.686626 0.374258 0
M  V30 20913 H 2099.49 1.91553 0.348664 0
M  V30 20914 H 2097.66 2.77468 2.71783 0
M  V30 20915 H 2099.39 3.02098 2.69293 0
M  V30 20916 H 2096.15 4.53682 1.35903 0
M  V30 20917 H 2096.57 6.76999 -0.0132085 0
M  V30 20918 H 2101.21 4.08475 1.09122 0
M  V30 20919 H 2098.93 8.02 -0.991066 0
M  V30 20920 H 2102.52 5.81716 -0.0986164 0
M  V30 20921 H 2101.4 7.76089 -1.12497 0
M  V30 20922 N 2098.9 -0.59187 1.46064 0
M  V30 20923 C 2100.13 -1.38153 1.54688 0
M  V30 20924 C 2100.55 -1.87183 0.185547 0
M  V30 20925 O 2099.91 -1.61046 -0.832694 0
M  V30 20926 C 2099.96 -2.55134 2.54831 0
M  V30 20927 O 2099.06 -3.56279 2.077 0
M  V30 20928 H 2098.4 -0.41181 0.520873 0
M  V30 20929 H 2100.93 -0.718824 1.91557 0
M  V30 20930 H 2100.94 -3.02173 2.74145 0
M  V30 20931 H 2099.62 -2.188 3.53694 0
M  V30 20932 H 2098.2 -3.15782 1.98333 0
M  V30 20933 N 2100.38 -1.33616 -0.835729 0
M  V30 20934 C 2101.61 -1.28444 -1.6284 0
M  V30 20935 C 2102.03 0.141205 -1.87569 0
M  V30 20936 O 2101.39 1.09885 -1.44205 0
M  V30 20937 C 2101.44 -2.0683 -2.95387 0
M  V30 20938 O 2100.54 -1.42905 -3.86849 0
M  V30 20939 H 2099.88 -0.441742 -0.495742 0
M  V30 20940 H 2102.41 -1.76226 -1.0395 0
M  V30 20941 H 2102.42 -2.17712 -3.45059 0
M  V30 20942 H 2101.1 -3.1049 -2.76711 0
M  V30 20943 H 2099.67 -1.40689 -3.45342 0
M  V30 20944 N 2101.86 1.05436 -1.17136 0
M  V30 20945 C 2102.79 2.12599 -0.829282 0
M  V30 20946 C 2103.77 1.6133 0.202856 0
M  V30 20947 O 2104.95 1.88308 0.0849539 0
M  V30 20948 C 2102.08 3.37873 -0.236614 0
M  V30 20949 C 2101.13 4.07962 -1.24374 0
M  V30 20950 S 2101.96 4.5683 -2.79404 0
M  V30 20951 C 2103.12 5.85354 -2.21611 0
M  V30 20952 H 2103.35 2.41288 -1.73688 0
M  V30 20953 H 2100.88 1.18 -0.995754 0
M  V30 20954 H 2102.84 4.10381 0.0988539 0
M  V30 20955 H 2101.5 3.07324 0.648884 0
M  V30 20956 H 2100.69 4.97964 -0.777659 0
M  V30 20957 H 2100.3 3.41508 -1.52474 0
M  V30 20958 H 2102.59 6.58575 -1.59013 0
M  V30 20959 H 2103.53 6.36706 -3.09857 0
M  V30 20960 H 2103.94 5.39799 -1.65157 0
M  V30 20961 N 2103.34 0.971211 1.24118 0
M  V30 20962 C 2104.56 0.652748 1.96333 0
M  V30 20963 C 2104.98 -0.778509 1.72002 0
M  V30 20964 O 2104.34 -1.52276 1.00589 0
M  V30 20965 C 2104.39 0.922262 3.49538 0
M  V30 20966 O 2104.11 2.29726 3.73039 0
M  V30 20967 C 2105.61 0.618475 4.38964 0
M  V30 20968 H 2102.83 0.243252 0.625355 0
M  V30 20969 H 2105.37 1.3001 1.57853 0
M  V30 20970 H 2103.53 0.321067 3.86067 0
M  V30 20971 H 2103.94 2.37994 4.67396 0
M  V30 20972 H 2105.42 0.857482 5.45299 0
M  V30 20973 H 2105.89 -0.447327 4.36916 0
M  V30 20974 H 2106.5 1.19973 4.08028 0
M  V30 20975 N 2104.81 -1.39054 0.741747 0
M  V30 20976 C 2106.23 -1.83161 0.361815 0
M  V30 20977 C 2106.58 -1.61934 -1.10778 0
M  V30 20978 O 2105.7 -1.11412 -1.85516 0
M  V30 20979 C 2106.3 -3.32508 0.649929 0
M  V30 20980 C 2104.86 -3.75008 0.323414 0
M  V30 20981 C 2104 -2.61973 0.909134 0
M  V30 20982 H 2106.95 -1.2795 0.938853 0
M  V30 20983 H 2106.97 -3.80424 -0.0759846 0
M  V30 20984 H 2106.49 -3.47925 1.71959 0
M  V30 20985 H 2104.59 -3.65175 -0.740136 0
M  V30 20986 H 2104.7 -4.72191 0.81069 0
M  V30 20987 H 2103.06 -2.52483 0.335302 0
M  V30 20988 H 2103.85 -2.80194 1.98358 0
M  V30 20989 N 2106.29 -0.489897 -1.49792 0
M  V30 20990 C 2107.24 0.31345 -2.25835 0
M  V30 20991 C 2108.23 0.945221 -1.30209 0
M  V30 20992 O 2109.42 0.854657 -1.54999 0
M  V30 20993 C 2106.55 1.38388 -3.14171 0
M  V30 20994 C 2105.63 0.758908 -4.17255 0
M  V30 20995 N 2106.02 -0.131925 -5.05628 0
M  V30 20996 C 2104.32 1.02075 -4.34162 0
M  V30 20997 C 2105.02 -0.488548 -5.79645 0
M  V30 20998 N 2104 0.140856 -5.43417 0
M  V30 20999 H 2107.8 -0.372499 -2.9153 0
M  V30 21000 H 2105.32 -0.305248 -1.59505 0
M  V30 21001 H 2107.31 1.97275 -3.67271 0
M  V30 21002 H 2105.97 2.07163 -2.50027 0
M  V30 21003 H 2106.98 -0.502015 -5.15461 0
M  V30 21004 H 2103.66 1.70207 -3.81229 0
M  V30 21005 H 2105.05 -1.21668 -6.60792 0
M  V30 21006 N 2107.77 1.56011 -0.223262 0
M  V30 21007 C 2109 2.03189 0.415817 0
M  V30 21008 C 2109.42 1.102 1.52439 0
M  V30 21009 O 2108.78 0.0904999 1.81074 0
M  V30 21010 C 2108.83 3.48586 0.923053 0
M  V30 21011 O 2107.93 3.58734 2.03429 0
M  V30 21012 H 2107.27 0.65733 0.0938783 0
M  V30 21013 H 2109.8 2.01715 -0.342399 0
M  V30 21014 H 2109.81 3.88941 1.23243 0
M  V30 21015 H 2108.49 4.1575 0.11169 0
M  V30 21016 H 2107.06 3.30267 1.73142 0
M  V30 21017 N 2109.25 -0.0501116 1.5752 0
M  V30 21018 C 2110.2 -1.06457 2.01621 0
M  V30 21019 C 2111.18 -1.3325 0.901851 0
M  V30 21020 O 2112.37 -1.33187 1.16577 0
M  V30 21021 C 2109.5 -2.37203 2.48173 0
M  V30 21022 C 2108.59 -2.13592 3.66387 0
M  V30 21023 N 2108.98 -1.59973 4.79836 0
M  V30 21024 C 2107.28 -2.43972 3.73355 0
M  V30 21025 C 2107.98 -1.5168 5.61576 0
M  V30 21026 N 2106.96 -1.985 5.06062 0
M  V30 21027 H 2110.76 -0.643677 2.86765 0
M  V30 21028 H 2108.27 -0.256812 1.60357 0
M  V30 21029 H 2110.27 -3.10665 2.78016 0
M  V30 21030 H 2108.93 -2.7999 1.64425 0
M  V30 21031 H 2109.94 -1.28533 5.01697 0
M  V30 21032 H 2106.62 -2.89977 3.00366 0
M  V30 21033 H 2108.01 -1.10893 6.62686 0
M  V30 21034 N 2110.73 -1.54276 -0.321972 0
M  V30 21035 C 2111.95 -1.76841 -1.0836 0
M  V30 21036 C 2112.38 -0.5163 -1.80876 0
M  V30 21037 O 2111.73 0.532225 -1.73312 0
M  V30 21038 C 2111.78 -2.96236 -2.05613 0
M  V30 21039 O 2110.89 -2.67893 -3.1354 0
M  V30 21040 H 2110.23 -0.585948 -0.312347 0
M  V30 21041 H 2112.76 -2.01304 -0.365783 0
M  V30 21042 H 2112.77 -3.23627 -2.48455 0
M  V30 21043 H 2111.44 -3.87037 -1.52234 0
M  V30 21044 H 2110.02 -2.51456 -2.75362 0
M  V30 21045 N 2112.2 0.584116 -1.46376 0
M  V30 21046 C 2113.62 0.907336 -1.313 0
M  V30 21047 C 2113.82 1.99497 -0.283388 0
M  V30 21048 O 2112.88 2.50533 0.314536 0
M  V30 21049 C 2114.19 1.32602 -2.69883 0
M  V30 21050 C 2115.74 1.43895 -2.77963 0
M  V30 21051 C 2116.21 1.89131 -4.17125 0
M  V30 21052 N 2117.7 1.96326 -4.19536 0
M  V30 21053 C 2118.44 2.32599 -5.24104 0
M  V30 21054 N 2117.93 2.67675 -6.39001 0
M  V30 21055 N 2119.73 2.33142 -5.1147 0
M  V30 21056 H 2111.88 -0.134382 -2.11974 0
M  V30 21057 H 2114.14 0.00254953 -0.947997 0
M  V30 21058 H 2113.85 0.600869 -3.46529 0
M  V30 21059 H 2113.72 2.28783 -2.99897 0
M  V30 21060 H 2116.11 2.15497 -2.01606 0
M  V30 21061 H 2116.19 0.459692 -2.51636 0
M  V30 21062 H 2115.83 1.18108 -4.93977 0
M  V30 21063 H 2115.76 2.88012 -4.40859 0
M  V30 21064 H 2118.25 1.71715 -3.36634 0
M  V30 21065 H 2118.57 2.94302 -7.14567 0
M  V30 21066 H 2116.91 2.65317 -6.42364 0
M  V30 21067 H 2120.1 2.05161 -4.20745 0
M  V30 21068 H 2120.28 2.61083 -5.93077 0
M  V30 21069 N 2113.68 1.34058 0.828631 0
M  V30 21070 C 2114.91 1.29156 1.61636 0
M  V30 21071 C 2115.33 -0.135511 1.88313 0
M  V30 21072 O 2114.68 -1.08084 1.47051 0
M  V30 21073 C 2114.73 2.07436 2.96062 0
M  V30 21074 O 2114.46 3.44577 2.70552 0
M  V30 21075 C 2115.96 2.09865 3.90476 0
M  V30 21076 H 2113.18 0.444543 0.502615 0
M  V30 21077 H 2115.72 1.76585 1.0314 0
M  V30 21078 H 2113.88 1.63663 3.51131 0
M  V30 21079 H 2114.29 3.84972 3.56225 0
M  V30 21080 H 2115.76 2.69071 4.8198 0
M  V30 21081 H 2116.24 1.09155 4.2542 0
M  V30 21082 H 2116.85 2.53702 3.41344 0
M  V30 21083 N 2115.16 -1.04814 1.17694 0
M  V30 21084 C 2116.57 -1.5934 0.973022 0
M  V30 21085 C 2116.92 -1.90256 -0.479284 0
M  V30 21086 O 2116.05 -1.68704 -1.35528 0
M  V30 21087 C 2116.64 -2.89503 1.75993 0
M  V30 21088 C 2115.2 -3.40674 1.60058 0
M  V30 21089 C 2114.35 -2.14356 1.75916 0
M  V30 21090 H 2117.3 -0.87578 1.32347 0
M  V30 21091 H 2117.32 -3.5957 1.24457 0
M  V30 21092 H 2116.83 -2.6697 2.81689 0
M  V30 21093 H 2114.93 -3.68235 0.568665 0
M  V30 21094 H 2115.05 -4.15004 2.39393 0
M  V30 21095 H 2113.41 -2.25301 1.18793 0
M  V30 21096 H 2114.19 -1.94288 2.83032 0
M  V30 21097 N 2116.64 -0.977779 -1.23601 0
M  V30 21098 C 2117.55 -0.524039 -2.28672 0
M  V30 21099 C 2118.57 0.419894 -1.68858 0
M  V30 21100 O 2119.74 0.290458 -1.99295 0
M  V30 21101 C 2116.81 0.16886 -3.46289 0
M  V30 21102 C 2115.87 -0.81615 -4.21471 0
M  V30 21103 C 2115.1 -0.156223 -5.33471 0
M  V30 21104 O 2115.32 1.05329 -5.60591 0
M  V30 21105 O 2114.26 -0.853473 -5.95818 0
M  V30 21106 H 2118.08 -1.39778 -2.69622 0
M  V30 21107 H 2115.67 -0.745288 -1.29483 0
M  V30 21108 H 2117.55 0.557659 -4.17694 0
M  V30 21109 H 2116.23 1.0174 -3.07296 0
M  V30 21110 H 2115.13 -1.2556 -3.524 0
M  V30 21111 H 2116.47 -1.63342 -4.64306 0
M  V30 21112 N 2118.12 1.38658 -0.749111 0
M  V30 21113 C 2119.35 2.04208 -0.313503 0
M  V30 21114 C 2119.76 1.56615 1.06153 0
M  V30 21115 O 2119.1 0.732462 1.68466 0
M  V30 21116 C 2119.16 3.58611 -0.252636 0
M  V30 21117 C 2118.82 4.29241 -1.56847 0
M  V30 21118 C 2119.82 4.5492 -2.51683 0
M  V30 21119 C 2117.51 4.67517 -1.83667 0
M  V30 21120 C 2119.5 5.17901 -3.71561 0
M  V30 21121 C 2117.19 5.30223 -3.0382 0
M  V30 21122 C 2118.19 5.5535 -3.97587 0
M  V30 21123 O 2117.87 6.16752 -5.15628 0
M  V30 21124 H 2117.61 0.662881 -0.132533 0
M  V30 21125 H 2120.16 1.7842 -1.01762 0
M  V30 21126 H 2118.39 3.83353 0.507689 0
M  V30 21127 H 2120.08 4.05612 0.152857 0
M  V30 21128 H 2120.84 4.25783 -2.32237 0
M  V30 21129 H 2116.72 4.47308 -1.1152 0
M  V30 21130 H 2120.27 5.37429 -4.44765 0
M  V30 21131 H 2116.16 5.58783 -3.2316 0
M  V30 21132 H 2116.93 6.35241 -5.1615 0
M  V30 21133 N 2119.6 0.497834 1.49531 0
M  V30 21134 C 2120.83 -0.0446457 2.06552 0
M  V30 21135 C 2121.23 -1.31656 1.3588 0
M  V30 21136 O 2120.58 -1.786 0.429849 0
M  V30 21137 C 2120.64 -0.371817 3.57572 0
M  V30 21138 C 2120.3 0.801922 4.49909 0
M  V30 21139 C 2121.3 1.69153 4.91613 0
M  V30 21140 C 2118.98 0.999829 4.92249 0
M  V30 21141 C 2120.98 2.76322 5.74391 0
M  V30 21142 C 2118.67 2.0747 5.74804 0
M  V30 21143 C 2119.66 2.95474 6.15779 0
M  V30 21144 O 2119.35 4.01107 6.96684 0
M  V30 21145 H 2119.08 0.0158092 0.675815 0
M  V30 21146 H 2121.64 0.693474 1.93339 0
M  V30 21147 H 2119.87 -1.16349 3.68782 0
M  V30 21148 H 2121.56 -0.852535 3.96846 0
M  V30 21149 H 2122.32 1.55043 4.5955 0
M  V30 21150 H 2118.2 0.324223 4.59858 0
M  V30 21151 H 2121.75 3.45041 6.06294 0
M  V30 21152 H 2117.64 2.21576 6.06279 0
M  V30 21153 H 2118.41 3.98421 7.14984 0
M  V30 21154 N 2121.07 -1.5589 0.231532 0
M  V30 21155 C 2122.48 -1.84671 -0.274487 0
M  V30 21156 C 2122.84 -1.15311 -1.58738 0
M  V30 21157 O 2121.96 -0.42619 -2.12162 0
M  V30 21158 C 2122.56 -3.35018 -0.504806 0
M  V30 21159 C 2121.11 -3.6408 -0.955115 0
M  V30 21160 C 2120.26 -2.7729 -0.023723 0
M  V30 21161 H 2123.21 -1.52053 0.454483 0
M  V30 21162 H 2123.23 -3.55765 -1.3495 0
M  V30 21163 H 2122.75 -3.85472 0.450902 0
M  V30 21164 H 2120.85 -3.19092 -1.92383 0
M  V30 21165 H 2120.96 -4.71985 -0.822615 0
M  V30 21166 H 2119.32 -2.49075 -0.53233 0
M  V30 21167 H 2120.11 -3.30545 0.927081 0
M  V30 21168 N 2122.55 0.0417572 -1.57545 0
M  V30 21169 C 2123.5 1.0648 -2.06796 0
M  V30 21170 C 2124.49 1.38234 -0.979162 0
M  V30 21171 O 2125.7 1.37288 -1.16413 0
M  V30 21172 H 2122.07 0.360857 -0.659762 0
M  V30 21173 H 2124.05 0.6235 -2.91813 0
M  V30 21174 C 2122.79 2.36114 -2.55236 0
M  V30 21175 H 2122.12 2.12537 -3.38627 0
M  V30 21176 H 2123.56 3.06072 -2.93421 0
M  V30 21177 C 2122.02 3.04191 -1.44808 0
M  V30 21178 O 2122.55 3.93508 -0.807098 0
M  V30 21179 N 2120.75 2.65308 -1.18574 0
M  V30 21180 H 2120.3 1.92763 -1.70881 0
M  V30 21181 H 2120.26 3.11178 -0.448987 0
M  V30 21182 N 2124.03 1.54445 0.313786 0
M  V30 21183 C 2124.99 1.8378 1.36959 0
M  V30 21184 C 2125.99 0.710053 1.44274 0
M  V30 21185 O 2127.18 0.978359 1.44131 0
M  V30 21186 C 2124.31 2.00661 2.75586 0
M  V30 21187 H 2125.51 2.78122 1.12197 0
M  V30 21188 H 2123.06 1.46311 0.549789 0
M  V30 21189 H 2123.8 1.08564 3.05589 0
M  V30 21190 H 2123.58 2.82734 2.71669 0
M  V30 21191 H 2125.07 2.24771 3.51948 0
M  V30 21192 N 2125.51 -0.576345 1.46683 0
M  V30 21193 C 2126.76 -1.33168 1.52022 0
M  V30 21194 C 2127.08 -1.94204 0.17606 0
M  V30 21195 O 2126.35 -1.78907 -0.798069 0
M  V30 21196 H 2124.93 -0.494459 0.559928 0
M  V30 21197 H 2127.59 -0.674503 1.82856 0
M  V30 21198 H 2126.68 -2.13511 2.27638 0
M  V30 21199 N 2126.99 -1.34495 -0.82151 0
M  V30 21200 C 2127.92 -1.28835 -1.94741 0
M  V30 21201 C 2128.9 -0.165528 -1.69293 0
M  V30 21202 O 2130.08 -0.358115 -1.9087 0
M  V30 21203 C 2127.21 -1.04446 -3.31222 0
M  V30 21204 C 2126.17 -2.13209 -3.71114 0
M  V30 21205 C 2125.49 -1.74007 -5.05594 0
M  V30 21206 C 2126.79 -3.55051 -3.83062 0
M  V30 21207 H 2128.49 -2.23039 -1.99734 0
M  V30 21208 H 2126.03 -1.07369 -0.959573 0
M  V30 21209 H 2127.98 -0.991306 -4.09574 0
M  V30 21210 H 2126.71 -0.0668391 -3.26532 0
M  V30 21211 H 2125.37 -2.17597 -2.95038 0
M  V30 21212 H 2125.02 -0.749021 -4.97392 0
M  V30 21213 H 2124.72 -2.46803 -5.33256 0
M  V30 21214 H 2126.24 -1.7019 -5.86402 0
M  V30 21215 H 2127.65 -3.53068 -4.51681 0
M  V30 21216 H 2126.05 -4.2648 -4.22179 0
M  V30 21217 H 2127.12 -3.92289 -2.85021 0
M  V30 21218 N 2128.46 1.04188 -1.18248 0
M  V30 21219 C 2129.71 1.76764 -0.971464 0
M  V30 21220 C 2130.03 1.89102 0.49997 0
M  V30 21221 O 2131.23 2.58519 0.829468 0
M  V30 21222 C 2129.69 3.17801 -1.68909 0
M  V30 21223 C 2129.3 3.1356 -3.19975 0
M  V30 21224 C 2131.04 3.94763 -1.56084 0
M  V30 21225 C 2128.95 4.49449 -3.84382 0
M  V30 21226 H 2127.88 0.662591 -0.359847 0
M  V30 21227 H 2130.53 1.16702 -1.41608 0
M  V30 21228 H 2128.91 3.78252 -1.17224 0
M  V30 21229 H 2130.08 2.62568 -3.78675 0
M  V30 21230 H 2128.4 2.50097 -3.32927 0
M  V30 21231 H 2131 4.95253 -2.01566 0
M  V30 21232 H 2131.34 4.13128 -0.512919 0
M  V30 21233 H 2131.87 3.40885 -2.05043 0
M  V30 21234 H 2128.61 4.36289 -4.89216 0
M  V30 21235 H 2128.13 5.00549 -3.3047 0
M  V30 21236 H 2129.81 5.18367 -3.87175 0
M  V30 21237 N 2129.94 0.98432 1.23081 0
M  V30 21238 C 2130.88 0.472534 2.23254 0
M  V30 21239 C 2131.85 -0.462497 1.55884 0
M  V30 21240 O 2133.04 -0.390035 1.84421 0
M  V30 21241 C 2130.16 -0.315956 3.37223 0
M  V30 21242 C 2129.21 0.563795 4.22757 0
M  V30 21243 S 2130.04 2.01399 4.96184 0
M  V30 21244 C 2131.2 1.23475 6.136 0
M  V30 21245 H 2131.43 1.3214 2.6632 0
M  V30 21246 H 2128.97 0.790618 1.32622 0
M  V30 21247 H 2130.92 -0.764866 4.03311 0
M  V30 21248 H 2129.58 -1.13999 2.92682 0
M  V30 21249 H 2128.78 -0.0424403 5.03982 0
M  V30 21250 H 2128.38 0.949112 3.61757 0
M  V30 21251 H 2130.67 0.498049 6.75667 0
M  V30 21252 H 2131.61 2.02197 6.78618 0
M  V30 21253 H 2132.02 0.751814 5.59471 0
M  V30 21254 N 2131.42 -1.38259 0.756453 0
M  V30 21255 C 2132.37 -2.3229 0.120051 0
M  V30 21256 C 2133.36 -1.54164 -0.702119 0
M  V30 21257 O 2134.57 -1.69674 -0.600895 0
M  V30 21258 H 2130.94 -0.751733 0.0200275 0
M  V30 21259 H 2132.91 -2.83566 0.929131 0
M  V30 21260 C 2131.66 -3.39368 -0.756628 0
M  V30 21261 H 2130.99 -3.99577 -0.133366 0
M  V30 21262 H 2132.43 -4.07562 -1.16916 0
M  V30 21263 C 2130.89 -2.78176 -1.90051 0
M  V30 21264 O 2131.42 -2.67711 -2.99489 0
M  V30 21265 N 2129.62 -2.35944 -1.69644 0
M  V30 21266 H 2129.17 -2.44655 -0.806323 0
M  V30 21267 H 2129.13 -1.95344 -2.46349 0
M  V30 21268 N 2132.9 -0.505757 -1.49264 0
M  V30 21269 C 2134.13 0.0336911 -2.06573 0
M  V30 21270 C 2134.54 1.30934 -1.36576 0
M  V30 21271 O 2133.88 1.7837 -0.439315 0
M  V30 21272 C 2133.94 0.352849 -3.57764 0
M  V30 21273 C 2133.61 -0.825771 -4.49478 0
M  V30 21274 C 2134.6 -1.71758 -4.90709 0
M  V30 21275 C 2132.29 -1.02592 -4.91711 0
M  V30 21276 C 2134.28 -2.79364 -5.72918 0
M  V30 21277 C 2131.97 -2.10516 -5.73695 0
M  V30 21278 C 2132.97 -2.98736 -6.14203 0
M  V30 21279 O 2132.65 -4.04796 -6.94547 0
M  V30 21280 H 2132.39 -0.019393 -0.675722 0
M  V30 21281 H 2134.94 -0.703718 -1.92969 0
M  V30 21282 H 2133.17 1.14391 -3.69393 0
M  V30 21283 H 2134.86 0.831477 -3.97292 0
M  V30 21284 H 2135.63 -1.57478 -4.58722 0
M  V30 21285 H 2131.5 -0.348606 -4.5968 0
M  V30 21286 H 2135.05 -3.48252 -6.04455 0
M  V30 21287 H 2130.95 -2.24788 -6.05095 0
M  V30 21288 H 2131.71 -4.02208 -7.12861 0
M  V30 21289 N 2134.38 1.55765 -0.239796 0
M  V30 21290 C 2135.62 2.00673 0.38854 0
M  V30 21291 C 2135.98 1.12423 1.55644 0
M  V30 21292 O 2137.18 1.46756 2.25202 0
M  V30 21293 C 2135.45 3.48451 0.794775 0
M  V30 21294 S 2137.01 4.15371 1.41464 0
M  V30 21295 H 2133.83 0.700356 0.122567 0
M  V30 21296 H 2136.43 1.9228 -0.353365 0
M  V30 21297 H 2135.14 4.10349 -0.0646279 0
M  V30 21298 H 2134.67 3.60756 1.56904 0
M  V30 21299 H 2136.68 4.16069 2.70372 0
M  V30 21300 N 2135.85 -0.0334016 1.57565 0
M  V30 21301 C 2137.27 -0.388971 1.54788 0
M  V30 21302 C 2137.47 -1.76871 0.965337 0
M  V30 21303 O 2136.53 -2.45642 0.584492 0
M  V30 21304 C 2137.84 -0.2948 2.99251 0
M  V30 21305 C 2139.39 -0.372199 3.10779 0
M  V30 21306 C 2139.86 -0.307524 4.56966 0
M  V30 21307 N 2141.35 -0.36645 4.61748 0
M  V30 21308 C 2142.09 -0.339229 5.72396 0
M  V30 21309 N 2141.58 -0.264554 6.92295 0
M  V30 21310 N 2143.38 -0.388638 5.60755 0
M  V30 21311 H 2135.53 0.869581 1.93783 0
M  V30 21312 H 2137.79 0.330231 0.888623 0
M  V30 21313 H 2137.5 0.653177 3.45581 0
M  V30 21314 H 2137.37 -1.09016 3.61103 0
M  V30 21315 H 2139.76 -1.31061 2.64399 0
M  V30 21316 H 2139.84 0.452431 2.51767 0
M  V30 21317 H 2139.48 0.627198 5.04013 0
M  V30 21318 H 2139.41 -1.1502 5.13885 0
M  V30 21319 H 2141.9 -0.426853 3.75482 0
M  V30 21320 H 2142.22 -0.248764 7.724 0
M  V30 21321 H 2140.56 -0.230666 6.94617 0
M  V30 21322 H 2143.75 -0.444937 4.65981 0
M  V30 21323 H 2143.93 -0.363955 6.46977 0
M  V30 21324 N 2137.33 -1.54609 -0.305591 0
M  V30 21325 C 2138.28 -1.85991 -1.39679 0
M  V30 21326 C 2139.27 -0.733256 -1.52708 0
M  V30 21327 O 2140.48 -0.917183 -1.5488 0
M  V30 21328 H 2136.86 -0.589836 -0.466474 0
M  V30 21329 H 2138.83 -2.77209 -1.10444 0
M  V30 21330 C 2137.58 -2.11986 -2.75604 0
M  V30 21331 H 2136.9 -2.9815 -2.66358 0
M  V30 21332 H 2138.34 -2.37886 -3.50979 0
M  V30 21333 C 2136.8 -0.916972 -3.24181 0
M  V30 21334 O 2137.33 -0.135175 -4.01472 0
M  V30 21335 N 2135.53 -0.723621 -2.81446 0
M  V30 21336 H 2135.08 -1.36103 -2.18709 0
M  V30 21337 H 2135.04 0.0796694 -3.14299 0
M  V30 21338 N 2138.81 0.568558 -1.46987 0
M  V30 21339 C 2140.22 1.1507 -1.47023 0
M  V30 21340 C 2140.57 1.94977 -0.218726 0
M  V30 21341 O 2139.7 2.05531 0.677201 0
M  V30 21342 C 2140.29 2.09348 -2.66381 0
M  V30 21343 C 2138.85 2.62857 -2.69413 0
M  V30 21344 C 2138 1.39006 -2.39943 0
M  V30 21345 H 2140.95 0.355745 -1.54661 0
M  V30 21346 H 2140.97 2.93044 -2.42705 0
M  V30 21347 H 2140.48 1.51163 -3.57451 0
M  V30 21348 H 2138.58 3.24872 -1.82452 0
M  V30 21349 H 2138.7 3.04626 -3.69784 0
M  V30 21350 H 2137.06 1.69297 -1.90291 0
M  V30 21351 H 2137.84 0.826309 -3.33207 0
M  V30 21352 N 2140.29 1.34929 0.814366 0
M  V30 21353 C 2141.57 1.18339 1.55741 0
M  V30 21354 C 2141.95 -0.240616 2.09724 0
M  V30 21355 O 2141.29 -1.2431 1.91727 0
M  V30 21356 C 2141.5 2.24503 2.67206 0
M  V30 21357 C 2142.85 2.59917 3.35751 0
M  V30 21358 O 2143.88 2.23358 2.7747 0
M  V30 21359 O 2142.73 3.22749 4.41017 0
M  V30 21360 H 2139.83 0.459265 0.687753 0
M  V30 21361 H 2142.37 1.46587 0.854999 0
M  V30 21362 H 2141.15 3.20048 2.25133 0
M  V30 21363 H 2140.77 1.9748 3.4509 0
M  V30 21364 N 2141.77 -1.0356 1.18799 0
M  V30 21365 C 2142.73 -2.09853 0.921649 0
M  V30 21366 C 2143.73 -1.60519 -0.095096 0
M  V30 21367 O 2144.92 -1.73645 0.138909 0
M  V30 21368 C 2142.05 -3.38733 0.383809 0
M  V30 21369 H 2143.24 -2.34914 1.86428 0
M  V30 21370 H 2140.8 -1.20064 1.00071 0
M  V30 21371 H 2141.53 -3.19337 -0.565188 0
M  V30 21372 H 2141.32 -3.75859 1.11681 0
M  V30 21373 H 2142.81 -4.17039 0.216329 0
M  V30 21374 N 2143.25 -0.990834 -1.22557 0
M  V30 21375 C 2144.49 -0.666519 -1.91534 0
M  V30 21376 C 2144.82 0.799165 -1.76994 0
M  V30 21377 O 2144.1 1.57769 -1.13751 0
M  V30 21378 C 2144.38 -1.07064 -3.43816 0
M  V30 21379 C 2144.24 -2.59473 -3.67415 0
M  V30 21380 C 2145.55 -0.622332 -4.35678 0
M  V30 21381 H 2142.67 -0.243613 -0.695573 0
M  V30 21382 H 2145.32 -1.23399 -1.44474 0
M  V30 21383 H 2143.47 -0.587797 -3.84028 0
M  V30 21384 H 2145.14 -3.15412 -3.3662 0
M  V30 21385 H 2143.38 -3.01635 -3.11767 0
M  V30 21386 H 2144.05 -2.828 -4.74055 0
M  V30 21387 H 2146.53 -1.03704 -4.0297 0
M  V30 21388 H 2145.4 -0.933416 -5.40905 0
M  V30 21389 H 2145.66 0.477057 -4.39519 0
M  V30 21390 N 2144.72 1.37856 -0.763775 0
M  V30 21391 C 2145.69 2.28702 -0.151022 0
M  V30 21392 C 2146.69 1.47661 0.636627 0
M  V30 21393 O 2147.88 1.67979 0.46139 0
M  V30 21394 C 2145.01 3.31525 0.793965 0
M  V30 21395 H 2146.2 2.84397 -0.951747 0
M  V30 21396 H 2143.75 1.46987 -0.531452 0
M  V30 21397 H 2144.49 2.80939 1.61999 0
M  V30 21398 H 2144.27 3.91416 0.231444 0
M  V30 21399 H 2145.76 3.99432 1.21837 0
M  V30 21400 N 2146.2 0.513665 1.48994 0
M  V30 21401 C 2147.16 -0.247066 2.27864 0
M  V30 21402 C 2148.16 -0.882574 1.34415 0
M  V30 21403 O 2149.35 -0.745145 1.57459 0
M  V30 21404 C 2146.49 -1.35575 3.12782 0
M  V30 21405 H 2147.68 0.445185 2.96577 0
M  V30 21406 H 2145.23 0.269045 1.53967 0
M  V30 21407 H 2145.97 -2.08176 2.48663 0
M  V30 21408 H 2145.75 -0.905368 3.81504 0
M  V30 21409 H 2147.24 -1.89127 3.72318 0
M  V30 21410 N 2147.68 -1.55636 0.248053 0
M  V30 21411 C 2149.09 -1.84952 -0.254884 0
M  V30 21412 C 2149.44 -1.16988 -1.57506 0
M  V30 21413 O 2148.57 -0.448668 -2.11698 0
M  V30 21414 C 2149.16 -3.35535 -0.469244 0
M  V30 21415 C 2147.72 -3.65073 -0.916445 0
M  V30 21416 C 2146.87 -2.77299 0.00568866 0
M  V30 21417 H 2149.82 -1.51563 0.470584 0
M  V30 21418 H 2149.84 -3.57176 -1.31169 0
M  V30 21419 H 2149.35 -3.84972 0.491761 0
M  V30 21420 H 2147.45 -3.21114 -1.88988 0
M  V30 21421 H 2147.57 -4.72831 -0.772508 0
M  V30 21422 H 2145.93 -2.49626 -0.505882 0
M  V30 21423 H 2146.71 -3.29543 0.962088 0
M  V30 21424 N 2149.16 0.0250451 -1.5758 0
M  V30 21425 C 2150.39 0.725656 -1.93437 0
M  V30 21426 C 2150.8 1.69204 -0.846562 0
M  V30 21427 O 2150.14 1.82762 0.185397 0
M  V30 21428 C 2150.2 1.53415 -3.25121 0
M  V30 21429 C 2149.86 0.732109 -4.51098 0
M  V30 21430 C 2150.86 0.0306335 -5.19891 0
M  V30 21431 C 2148.55 0.685464 -4.97601 0
M  V30 21432 C 2150.54 -0.706745 -6.3347 0
M  V30 21433 C 2148.23 -0.0556568 -6.11075 0
M  V30 21434 C 2149.23 -0.750517 -6.78864 0
M  V30 21435 O 2148.91 -1.4796 -7.90167 0
M  V30 21436 H 2148.65 0.208724 -0.64297 0
M  V30 21437 H 2151.2 -0.0145992 -2.05395 0
M  V30 21438 H 2149.43 2.31832 -3.09501 0
M  V30 21439 H 2151.12 2.11775 -3.46275 0
M  V30 21440 H 2151.88 0.0576759 -4.84966 0
M  V30 21441 H 2147.76 1.21582 -4.44678 0
M  V30 21442 H 2151.31 -1.24965 -6.86316 0
M  V30 21443 H 2147.2 -0.0846083 -6.45445 0
M  V30 21444 H 2147.97 -1.39369 -8.06547 0
M  V30 21445 N 2150.64 1.54769 0.297388 0
M  V30 21446 C 2151.88 1.7596 1.04007 0
M  V30 21447 C 2152.24 0.536063 1.84365 0
M  V30 21448 O 2153.44 0.625778 2.61414 0
M  V30 21449 C 2151.71 3.01504 1.91911 0
M  V30 21450 S 2153.27 3.43713 2.72776 0
M  V30 21451 H 2150.09 0.618485 0.350709 0
M  V30 21452 H 2152.69 1.92977 0.31308 0
M  V30 21453 H 2151.39 3.88675 1.31758 0
M  V30 21454 H 2150.93 2.87085 2.68972 0
M  V30 21455 H 2152.94 3.01067 3.94427 0
M  V30 21456 N 2152.11 -0.560755 1.47286 0
M  V30 21457 C 2153.34 -1.34164 1.5711 0
M  V30 21458 C 2153.75 -1.87928 0.219012 0
M  V30 21459 O 2153.09 -1.65493 -0.797349 0
M  V30 21460 C 2153.16 -2.55063 2.53344 0
M  V30 21461 C 2152.82 -2.2261 3.99116 0
M  V30 21462 C 2153.82 -1.80117 4.87703 0
M  V30 21463 C 2151.5 -2.34079 4.44424 0
M  V30 21464 C 2153.5 -1.49517 6.19616 0
M  V30 21465 C 2151.18 -2.03091 5.76366 0
M  V30 21466 C 2152.18 -1.60877 6.63783 0
M  V30 21467 O 2151.87 -1.30281 7.93273 0
M  V30 21468 H 2151.6 -0.415417 0.533296 0
M  V30 21469 H 2154.16 -0.686492 1.93588 0
M  V30 21470 H 2152.39 -3.23457 2.11926 0
M  V30 21471 H 2154.07 -3.17138 2.53334 0
M  V30 21472 H 2154.84 -1.70753 4.53948 0
M  V30 21473 H 2150.72 -2.65895 3.76591 0
M  V30 21474 H 2154.26 -1.16495 6.87804 0
M  V30 21475 H 2150.16 -2.12086 6.09664 0
M  V30 21476 H 2150.93 -1.43942 8.05744 0
M  V30 21477 N 2153.59 -1.35359 -0.807199 0
M  V30 21478 C 2154.82 -1.31711 -1.59561 0
M  V30 21479 C 2155.23 0.105535 -1.88505 0
M  V30 21480 O 2154.59 1.05731 -1.48752 0
M  V30 21481 C 2154.64 -2.1212 -2.92724 0
M  V30 21482 O 2154.36 -3.48838 -2.65036 0
M  V30 21483 C 2155.86 -2.1605 -3.87088 0
M  V30 21484 H 2153.08 -0.452483 -0.495479 0
M  V30 21485 H 2155.63 -1.78204 -1.00318 0
M  V30 21486 H 2153.78 -1.69228 -3.48483 0
M  V30 21487 H 2154.2 -3.90591 -3.50056 0
M  V30 21488 H 2155.67 -2.76704 -4.77639 0
M  V30 21489 H 2156.15 -1.15909 -4.23629 0
M  V30 21490 H 2156.75 -2.591 -3.37264 0
M  V30 21491 N 2155.07 1.02928 -1.19346 0
M  V30 21492 C 2156.49 1.28572 -0.945592 0
M  V30 21493 C 2156.69 1.97841 0.382273 0
M  V30 21494 O 2155.74 2.26603 1.11388 0
M  V30 21495 C 2157.05 2.13321 -2.11931 0
M  V30 21496 C 2158.6 2.2663 -2.15889 0
M  V30 21497 C 2159.08 3.14751 -3.3271 0
M  V30 21498 N 2160.57 3.22339 -3.32644 0
M  V30 21499 C 2161.3 3.90712 -4.19681 0
M  V30 21500 N 2160.8 4.61319 -5.16872 0
M  V30 21501 N 2162.59 3.87107 -4.07559 0
M  V30 21502 H 2154.74 0.563808 -2.0478 0
M  V30 21503 H 2157.01 0.311375 -0.895405 0
M  V30 21504 H 2156.71 1.69745 -3.08025 0
M  V30 21505 H 2156.59 3.14032 -2.08959 0
M  V30 21506 H 2158.97 2.69437 -1.20365 0
M  V30 21507 H 2159.05 1.25471 -2.22914 0
M  V30 21508 H 2158.7 2.72652 -4.28513 0
M  V30 21509 H 2158.63 4.15968 -3.22921 0
M  V30 21510 H 2161.12 2.72052 -2.6229 0
M  V30 21511 H 2161.43 5.1112 -5.79634 0
M  V30 21512 H 2159.78 4.60185 -5.20821 0
M  V30 21513 H 2162.97 3.31086 -3.30908 0
M  V30 21514 H 2163.14 4.40119 -4.75604 0
M  V30 21515 N 2156.55 0.997319 1.2203 0
M  V30 21516 C 2157.82 0.59145 1.86444 0
M  V30 21517 C 2158.2 -0.931144 1.89454 0
M  V30 21518 O 2157.55 -1.81492 1.38827 0
M  V30 21519 C 2157.76 1.21697 3.27095 0
M  V30 21520 C 2159.11 1.32027 4.03552 0
M  V30 21521 O 2160.13 1.1717 3.36377 0
M  V30 21522 O 2158.99 1.55846 5.23807 0
M  V30 21523 H 2156.09 0.201545 0.802065 0
M  V30 21524 H 2158.63 1.09348 1.29773 0
M  V30 21525 H 2157.41 2.25823 3.19562 0
M  V30 21526 H 2157.03 0.70081 3.91375 0
M  V30 21527 N 2158.03 -1.37449 0.771075 0
M  V30 21528 C 2159.44 -1.82352 0.400585 0
M  V30 21529 C 2159.79 -1.64247 -1.07318 0
M  V30 21530 O 2158.91 -1.15322 -1.83111 0
M  V30 21531 C 2159.51 -3.31054 0.720312 0
M  V30 21532 C 2158.07 -3.74238 0.402886 0
M  V30 21533 C 2157.21 -2.59986 0.964497 0
M  V30 21534 H 2160.17 -1.2593 0.965782 0
M  V30 21535 H 2160.19 -3.805 0.00472604 0
M  V30 21536 H 2159.7 -3.44199 1.793 0
M  V30 21537 H 2157.8 -3.66663 -0.662511 0
M  V30 21538 H 2157.91 -4.70365 0.910666 0
M  V30 21539 H 2156.28 -2.51715 0.388782 0
M  V30 21540 H 2157.06 -2.75924 2.04257 0
M  V30 21541 N 2159.5 -0.52156 -1.4872 0
M  V30 21542 C 2160.75 0.0155648 -2.02094 0
M  V30 21543 C 2161.07 1.35564 -1.40169 0
M  V30 21544 O 2160.34 1.87602 -0.564111 0
M  V30 21545 H 2158.92 0.0087409 -0.746949 0
M  V30 21546 H 2161.59 -0.683478 -1.82523 0
M  V30 21547 H 2160.68 0.130113 -3.11829 0
M  V30 21548 N 2160.98 1.55502 -0.256304 0
M  V30 21549 C 2162.23 1.99463 0.366354 0
M  V30 21550 C 2162.56 1.14436 1.56902 0
M  V30 21551 O 2161.84 0.209944 1.93364 0
M  V30 21552 C 2162.12 3.51836 0.767016 0
M  V30 21553 C 2161.97 4.47626 -0.441687 0
M  V30 21554 C 2163.29 4.09574 1.61051 0
M  V30 21555 H 2160.41 0.72514 0.131688 0
M  V30 21556 H 2163.05 1.86568 -0.359494 0
M  V30 21557 H 2161.2 3.62956 1.38546 0
M  V30 21558 H 2162.87 4.48475 -1.08018 0
M  V30 21559 H 2161.12 4.2006 -1.08313 0
M  V30 21560 H 2161.79 5.51874 -0.117869 0
M  V30 21561 H 2164.26 4.01614 1.08838 0
M  V30 21562 H 2163.14 5.16436 1.85969 0
M  V30 21563 H 2163.4 3.58619 2.58544 0
M  V30 21564 N 2162.46 -0.0166879 1.57591 0
M  V30 21565 C 2163.88 -0.372531 1.55191 0
M  V30 21566 C 2164.08 -1.75838 0.984042 0
M  V30 21567 O 2163.13 -2.45008 0.610513 0
M  V30 21568 C 2164.45 -0.263043 2.99547 0
M  V30 21569 C 2165.99 -0.339216 3.11156 0
M  V30 21570 C 2166.47 -0.259039 4.57267 0
M  V30 21571 N 2167.96 -0.317455 4.62111 0
M  V30 21572 C 2168.69 -0.278499 5.72723 0
M  V30 21573 N 2168.19 -0.191112 6.92536 0
M  V30 21574 N 2169.98 -0.32914 5.61136 0
M  V30 21575 H 2162.13 0.890086 1.9285 0
M  V30 21576 H 2164.4 0.339637 0.885071 0
M  V30 21577 H 2164.1 0.689794 3.44869 0
M  V30 21578 H 2163.98 -1.0518 3.62239 0
M  V30 21579 H 2166.36 -1.28249 2.65775 0
M  V30 21580 H 2166.45 0.479109 2.51273 0
M  V30 21581 H 2166.09 0.68062 5.03319 0
M  V30 21582 H 2166.02 -1.09563 5.15076 0
M  V30 21583 H 2168.51 -0.387004 3.75913 0
M  V30 21584 H 2168.82 -0.166827 7.7262 0
M  V30 21585 H 2167.17 -0.15698 6.94823 0
M  V30 21586 H 2170.36 -0.395489 4.66426 0
M  V30 21587 H 2170.53 -0.295314 6.47327 0
M  V30 21588 N 2163.94 -1.54924 -0.289176 0
M  V30 21589 C 2165.18 -1.75953 -1.0204 0
M  V30 21590 C 2165.54 -0.545125 -1.84516 0
M  V30 21591 O 2164.83 0.462389 -1.85937 0
M  V30 21592 C 2165.03 -2.99629 -1.94826 0
M  V30 21593 C 2164.86 -4.32981 -1.21479 0
M  V30 21594 C 2163.63 -4.96535 -0.937093 0
M  V30 21595 C 2165.82 -5.1063 -0.613293 0
M  V30 21596 N 2163.81 -6.1365 -0.175138 0
M  V30 21597 C 2165.18 -6.19998 0.0152977 0
M  V30 21598 C 2167.23 -4.95182 -0.519521 0
M  V30 21599 C 2165.93 -7.156 0.728603 0
M  V30 21600 C 2167.96 -5.91126 0.180156 0
M  V30 21601 C 2167.32 -6.9987 0.79755 0
M  V30 21602 H 2163.42 -0.696307 -0.355922 0
M  V30 21603 H 2166.01 -1.9241 -0.297755 0
M  V30 21604 H 2164.18 -2.84576 -2.64331 0
M  V30 21605 H 2165.91 -3.09132 -2.61189 0
M  V30 21606 H 2162.66 -4.57126 -1.23827 0
M  V30 21607 H 2163.09 -6.76726 0.192698 0
M  V30 21608 H 2167.73 -4.11225 -0.982538 0
M  V30 21609 H 2165.45 -7.9909 1.20335 0
M  V30 21610 H 2169.03 -5.8125 0.252814 0
M  V30 21611 H 2167.91 -7.72833 1.33034 0
M  V30 21612 N 2165.42 0.552936 -1.47582 0
M  V30 21613 C 2166.33 1.68696 -1.6303 0
M  V30 21614 C 2167.34 1.66263 -0.513075 0
M  V30 21615 O 2168.52 1.85633 -0.781171 0
M  V30 21616 C 2165.58 3.05197 -1.64486 0
M  V30 21617 C 2164.64 3.18664 -2.87666 0
M  V30 21618 C 2163.88 4.48653 -2.89043 0
M  V30 21619 O 2164.1 5.34372 -1.99506 0
M  V30 21620 O 2163.03 4.66001 -3.80955 0
M  V30 21621 H 2166.86 1.58604 -2.58995 0
M  V30 21622 H 2164.45 0.723431 -1.30717 0
M  V30 21623 H 2166.33 3.86421 -1.68098 0
M  V30 21624 H 2165 3.15662 -0.716893 0
M  V30 21625 H 2163.91 2.36821 -2.89597 0
M  V30 21626 H 2165.24 3.13105 -3.79771 0
M  V30 21627 N 2166.89 1.35785 0.800009 0
M  V30 21628 C 2168.12 1.32363 1.5863 0
M  V30 21629 C 2168.53 -0.099518 1.88938 0
M  V30 21630 O 2167.88 -1.06381 1.49763 0
M  V30 21631 C 2167.94 2.0694 2.93966 0
M  V30 21632 C 2167.6 3.56091 2.86441 0
M  V30 21633 C 2168.6 4.50553 2.59419 0
M  V30 21634 C 2166.28 3.98831 3.05351 0
M  V30 21635 C 2168.28 5.8573 2.51394 0
M  V30 21636 C 2165.96 5.34102 2.96948 0
M  V30 21637 C 2166.96 6.27364 2.70006 0
M  V30 21638 O 2166.65 7.60153 2.61578 0
M  V30 21639 H 2166.38 0.456006 0.499033 0
M  V30 21640 H 2168.94 1.7932 1.00168 0
M  V30 21641 H 2167.17 1.5463 3.54438 0
M  V30 21642 H 2168.86 1.96511 3.55159 0
M  V30 21643 H 2169.62 4.18848 2.44522 0
M  V30 21644 H 2165.5 3.2662 3.25331 0
M  V30 21645 H 2169.04 6.58494 2.30285 0
M  V30 21646 H 2164.94 5.65418 3.11405 0
M  V30 21647 H 2165.71 7.70154 2.77137 0
M  V30 21648 N 2168.37 -1.02294 1.19891 0
M  V30 21649 C 2169.61 -1.77338 1.01639 0
M  V30 21650 C 2169.98 -1.86787 -0.444383 0
M  V30 21651 O 2171.18 -2.58215 -0.746892 0
M  V30 21652 C 2169.45 -3.15777 1.67392 0
M  V30 21653 S 2171.01 -4.06937 1.64158 0
M  V30 21654 H 2167.83 -0.610403 0.364594 0
M  V30 21655 H 2170.43 -1.22528 1.52339 0
M  V30 21656 H 2169.13 -3.06521 2.72897 0
M  V30 21657 H 2168.66 -3.75662 1.16796 0
M  V30 21658 H 2170.68 -4.91656 0.669964 0
M  V30 21659 N 2169.85 -1.00378 -1.21499 0
M  V30 21660 C 2170.8 -0.55626 -2.25851 0
M  V30 21661 C 2171.79 0.398571 -1.64644 0
M  V30 21662 O 2173 0.269898 -1.77965 0
M  V30 21663 H 2169.37 -0.161531 -0.734447 0
M  V30 21664 H 2171.34 -1.44757 -2.60937 0
M  V30 21665 C 2170.09 0.102595 -3.47549 0
M  V30 21666 H 2169.42 -0.623093 -3.94915 0
M  V30 21667 H 2170.86 0.37902 -4.22303 0
M  V30 21668 C 2169.32 1.3414 -3.09044 0
M  V30 21669 O 2169.85 2.43586 -3.19419 0
M  V30 21670 N 2168.05 1.22069 -2.63718 0
M  V30 21671 H 2167.6 0.330134 -2.55476 0
M  V30 21672 H 2167.56 2.05058 -2.38324 0
M  V30 21673 N 2171.33 1.37038 -0.778354 0
M  V30 21674 C 2172.26 2.3278 -0.183215 0
M  V30 21675 C 2173.24 1.56107 0.675623 0
M  V30 21676 O 2174.42 1.84314 0.611726 0
M  V30 21677 C 2171.55 3.40346 0.691526 0
M  V30 21678 C 2170.51 4.27948 -0.0665313 0
M  V30 21679 C 2169.83 5.26584 0.928085 0
M  V30 21680 C 2171.13 5.07137 -1.24936 0
M  V30 21681 H 2172.83 2.82801 -0.983049 0
M  V30 21682 H 2170.37 1.35969 -0.474169 0
M  V30 21683 H 2172.33 4.06306 1.11773 0
M  V30 21684 H 2171.05 2.88866 1.52395 0
M  V30 21685 H 2169.71 3.63528 -0.473586 0
M  V30 21686 H 2169.36 4.71381 1.75524 0
M  V30 21687 H 2169.06 5.86058 0.425371 0
M  V30 21688 H 2170.58 5.95419 1.35309 0
M  V30 21689 H 2172 5.662 -0.899476 0
M  V30 21690 H 2170.39 5.7597 -1.68461 0
M  V30 21691 H 2171.46 4.39425 -2.05021 0
M  V30 21692 N 2172.81 0.529439 1.48441 0
M  V30 21693 C 2174.04 -0.000824174 2.069 0
M  V30 21694 C 2174.45 -1.28195 1.38605 0
M  V30 21695 O 2173.81 -1.76253 0.4734 0
M  V30 21696 C 2173.86 -0.229032 3.60774 0
M  V30 21697 O 2173.58 1.00134 4.26503 0
M  V30 21698 C 2175.08 -0.799736 4.36027 0
M  V30 21699 H 2172.3 0.0332691 0.670175 0
M  V30 21700 H 2174.84 0.734929 1.90838 0
M  V30 21701 H 2173 -0.914832 3.76443 0
M  V30 21702 H 2173.41 0.781737 5.18642 0
M  V30 21703 H 2174.89 -0.908842 5.44467 0
M  V30 21704 H 2175.36 -1.8045 4.00418 0
M  V30 21705 H 2175.97 -0.150518 4.25034 0
M  V30 21706 N 2174.29 -1.55364 0.264547 0
M  V30 21707 C 2175.22 -2.19475 -0.660544 0
M  V30 21708 C 2176.23 -1.17628 -1.1255 0
M  V30 21709 O 2177.42 -1.44407 -1.04923 0
M  V30 21710 C 2174.52 -2.79832 -1.91173 0
M  V30 21711 C 2173.69 -4.07269 -1.59533 0
M  V30 21712 C 2172.75 -4.51774 -2.6979 0
M  V30 21713 O 2171.78 -5.17776 -2.36425 0
M  V30 21714 N 2172.98 -4.2103 -3.99642 0
M  V30 21715 H 2175.74 -2.99491 -0.111888 0
M  V30 21716 H 2173.31 -1.61676 0.0852139 0
M  V30 21717 H 2175.3 -3.06555 -2.64209 0
M  V30 21718 H 2173.87 -2.03871 -2.36971 0
M  V30 21719 H 2173.09 -3.87948 -0.699303 0
M  V30 21720 H 2174.38 -4.9032 -1.35881 0
M  V30 21721 H 2173.77 -3.68079 -4.29575 0
M  V30 21722 H 2172.33 -4.52548 -4.69088 0
M  V30 21723 N 2175.76 0.00833021 -1.57598 0
M  V30 21724 C 2177 0.699511 -1.92058 0
M  V30 21725 C 2177.37 1.71397 -0.865278 0
M  V30 21726 O 2178.57 2.45492 -1.09486 0
M  V30 21727 C 2176.84 1.33325 -3.31601 0
M  V30 21728 S 2178.4 2.05071 -3.87932 0
M  V30 21729 H 2175.22 0.231259 -0.672339 0
M  V30 21730 H 2177.82 -0.0463571 -1.95445 0
M  V30 21731 H 2176.52 0.581972 -4.06253 0
M  V30 21732 H 2176.05 2.11723 -3.31567 0
M  V30 21733 H 2178.07 3.32482 -3.68334 0
M  V30 21734 N 2177.24 1.55075 0.280956 0
M  V30 21735 C 2178.47 1.79652 1.03634 0
M  V30 21736 C 2178.89 0.564074 1.79443 0
M  V30 21737 O 2178.25 -0.486088 1.74662 0
M  V30 21738 C 2178.3 3.01583 1.97687 0
M  V30 21739 O 2177.4 2.76111 3.06327 0
M  V30 21740 H 2176.74 0.594024 0.296701 0
M  V30 21741 H 2179.27 2.02203 0.312282 0
M  V30 21742 H 2179.28 3.301 2.39787 0
M  V30 21743 H 2177.96 3.90937 1.41919 0
M  V30 21744 H 2176.53 2.58668 2.68598 0
M  V30 21745 N 2178.72 -0.545102 1.47873 0
M  V30 21746 C 2180 -1.30611 1.45603 0
M  V30 21747 C 2180.38 -2.10497 0.159489 0
M  V30 21748 O 2179.72 -2.11741 -0.85895 0
M  V30 21749 C 2179.93 -2.20038 2.70895 0
M  V30 21750 C 2181.28 -2.80668 3.18608 0
M  V30 21751 O 2182.31 -2.30334 2.71707 0
M  V30 21752 O 2181.17 -3.72185 4.00176 0
M  V30 21753 H 2178.26 -0.588726 0.580802 0
M  V30 21754 H 2180.81 -0.563004 1.60089 0
M  V30 21755 H 2179.58 -1.6069 3.56784 0
M  V30 21756 H 2179.2 -3.01622 2.59056 0
M  V30 21757 N 2180.2 -1.36208 -0.792797 0
M  V30 21758 C 2181.16 -1.30111 -1.88689 0
M  V30 21759 C 2182.16 -0.209535 -1.59429 0
M  V30 21760 O 2183.35 -0.464108 -1.67904 0
M  V30 21761 C 2180.48 -1.01615 -3.25403 0
M  V30 21762 H 2181.68 -2.2741 -1.95511 0
M  V30 21763 H 2179.23 -1.20931 -0.990219 0
M  V30 21764 H 2179.96 -0.0476043 -3.24265 0
M  V30 21765 H 2179.75 -1.80604 -3.48029 0
M  V30 21766 H 2181.24 -0.999458 -4.05463 0
M  V30 21767 N 2181.68 1.01656 -1.20431 0
M  V30 21768 C 2182.59 2.13658 -0.968877 0
M  V30 21769 C 2183.6 1.73837 0.075256 0
M  V30 21770 O 2184.78 2.01087 -0.112194 0
M  V30 21771 C 2181.84 3.42716 -0.524052 0
M  V30 21772 C 2180.9 3.9678 -1.63904 0
M  V30 21773 C 2180.14 5.19678 -1.21534 0
M  V30 21774 O 2180.36 5.70338 -0.0840508 0
M  V30 21775 O 2179.29 5.66893 -2.02278 0
M  V30 21776 H 2183.12 2.3639 -1.90666 0
M  V30 21777 H 2180.7 1.1205 -0.98819 0
M  V30 21778 H 2182.59 4.20434 -0.285221 0
M  V30 21779 H 2181.26 3.21401 0.385143 0
M  V30 21780 H 2180.17 3.20341 -1.93215 0
M  V30 21781 H 2181.5 4.22484 -2.52524 0
M  V30 21782 N 2183.15 1.01021 1.20965 0
M  V30 21783 C 2184.4 0.6945 1.89792 0
M  V30 21784 C 2184.72 -0.77766 1.78822 0
M  V30 21785 O 2183.99 -1.55883 1.18648 0
M  V30 21786 H 2182.57 0.253892 0.702529 0
M  V30 21787 H 2185.23 1.28043 1.46938 0
M  V30 21788 H 2184.33 0.972254 2.9657 0
M  V30 21789 N 2184.63 -1.36623 0.78561 0
M  V30 21790 C 2185.86 -2.036 0.368068 0
M  V30 21791 C 2186.27 -1.5924 -1.01429 0
M  V30 21792 O 2185.63 -0.780055 -1.64989 0
M  V30 21793 C 2185.68 -3.59077 0.417857 0
M  V30 21794 O 2185.4 -4.01817 1.7457 0
M  V30 21795 C 2186.9 -4.43299 -0.00953716 0
M  V30 21796 H 2184.12 -0.653506 0.152221 0
M  V30 21797 H 2186.67 -1.74677 1.0634 0
M  V30 21798 H 2184.82 -3.86722 -0.229019 0
M  V30 21799 H 2185.24 -4.96395 1.69389 0
M  V30 21800 H 2186.71 -5.51947 0.0764418 0
M  V30 21801 H 2187.19 -4.26175 -1.06169 0
M  V30 21802 H 2187.79 -4.20907 0.60968 0
M  V30 21803 N 2186.11 -0.537304 -1.48158 0
M  V30 21804 C 2187.07 0.210784 -2.28229 0
M  V30 21805 C 2188.07 0.861078 -1.35802 0
M  V30 21806 O 2189.26 0.72 -1.58624 0
M  V30 21807 C 2186.39 1.30581 -3.14899 0
M  V30 21808 H 2187.59 -0.492311 -2.95832 0
M  V30 21809 H 2185.14 -0.293505 -1.53519 0
M  V30 21810 H 2185.88 2.04194 -2.51943 0
M  V30 21811 H 2185.66 0.844559 -3.82896 0
M  V30 21812 H 2187.15 1.8318 -3.7528 0
M  V30 21813 N 2187.59 1.55221 -0.272782 0
M  V30 21814 C 2188.83 1.99841 0.345178 0
M  V30 21815 C 2189.17 1.16093 1.55679 0
M  V30 21816 O 2188.44 0.230441 1.9313 0
M  V30 21817 C 2188.73 3.5263 0.729656 0
M  V30 21818 C 2188.58 4.47133 -0.489138 0
M  V30 21819 C 2189.9 4.11259 1.56698 0
M  V30 21820 H 2187.02 0.726495 0.123989 0
M  V30 21821 H 2189.66 1.86176 -0.379262 0
M  V30 21822 H 2187.81 3.64405 1.34689 0
M  V30 21823 H 2189.48 4.47304 -1.12769 0
M  V30 21824 H 2187.72 4.18888 -1.12762 0
M  V30 21825 H 2188.39 5.51718 -0.176396 0
M  V30 21826 H 2190.87 4.02745 1.04572 0
M  V30 21827 H 2189.75 5.1838 1.80481 0
M  V30 21828 H 2190.01 3.61341 2.54726 0
M  V30 21829 N 2189.07 2.77022e-05 1.576 0
M  V30 21830 C 2190.03 -0.976217 2.07371 0
M  V30 21831 C 2191.03 -1.27246 0.983113 0
M  V30 21832 O 2192.22 -1.21764 1.24576 0
M  V30 21833 C 2189.35 -2.30112 2.51518 0
M  V30 21834 H 2190.54 -0.545707 2.94893 0
M  V30 21835 H 2188.1 -0.247444 1.54329 0
M  V30 21836 H 2188.83 -2.77852 1.67239 0
M  V30 21837 H 2188.62 -2.09931 3.31167 0
M  V30 21838 H 2190.11 -3.00144 2.9035 0
M  V30 21839 N 2190.54 -1.55222 -0.272728 0
M  V30 21840 C 2191.96 -1.66547 -0.843751 0
M  V30 21841 C 2192.31 -0.592674 -1.87034 0
M  V30 21842 O 2191.43 0.26578 -2.14762 0
M  V30 21843 C 2192.03 -3.01921 -1.53718 0
M  V30 21844 C 2190.59 -3.15272 -2.05623 0
M  V30 21845 C 2189.73 -2.62344 -0.898377 0
M  V30 21846 H 2192.68 -1.58624 -0.0490719 0
M  V30 21847 H 2192.7 -2.94925 -2.40415 0
M  V30 21848 H 2192.22 -3.79979 -0.789763 0
M  V30 21849 H 2190.32 -2.41988 -2.83324 0
M  V30 21850 H 2190.43 -4.21837 -2.27135 0
M  V30 21851 H 2188.79 -2.19509 -1.29182 0
M  V30 21852 H 2189.58 -3.42906 -0.164467 0
M  V30 21853 N 2192.02 0.537252 -1.4816 0
M  V30 21854 C 2193.43 1.11926 -1.49431 0
M  V30 21855 C 2193.78 1.94469 -0.260035 0
M  V30 21856 O 2192.91 2.06921 0.633453 0
M  V30 21857 C 2193.5 2.03651 -2.70762 0
M  V30 21858 C 2192.06 2.57083 -2.74927 0
M  V30 21859 C 2191.21 1.33885 -2.42837 0
M  V30 21860 H 2194.16 0.322859 -1.55381 0
M  V30 21861 H 2194.18 2.8783 -2.48866 0
M  V30 21862 H 2193.69 1.43547 -3.60577 0
M  V30 21863 H 2191.8 3.20929 -1.89302 0
M  V30 21864 H 2191.91 2.96714 -3.76162 0
M  V30 21865 H 2190.27 1.65223 -1.93839 0
M  V30 21866 H 2191.06 0.755445 -3.34885 0
M  V30 21867 N 2193.5 1.36626 0.785562 0
M  V30 21868 C 2194.73 1.34233 1.57446 0
M  V30 21869 C 2195.14 -0.0755322 1.88649 0
M  V30 21870 O 2194.5 -1.03351 1.50416 0
M  V30 21871 C 2194.55 2.1675 2.89312 0
M  V30 21872 O 2194.27 3.5301 2.59452 0
M  V30 21873 C 2195.77 2.22181 3.83602 0
M  V30 21874 H 2192.99 0.460309 0.488218 0
M  V30 21875 H 2195.54 1.79777 0.974701 0
M  V30 21876 H 2193.69 1.74751 3.45747 0
M  V30 21877 H 2194.11 3.96111 3.43797 0
M  V30 21878 H 2195.58 2.84268 4.73176 0
M  V30 21879 H 2196.06 1.22634 4.21732 0
M  V30 21880 H 2196.66 2.64433 3.331 0
M  V30 21881 N 2194.98 -1.01016 1.20969 0
M  V30 21882 C 2196.22 -1.74973 1.02529 0
M  V30 21883 C 2196.56 -1.89132 -0.440767 0
M  V30 21884 O 2195.83 -1.42186 -1.32715 0
M  V30 21885 C 2196.12 -3.16527 1.71705 0
M  V30 21886 C 2195.97 -3.10124 3.25797 0
M  V30 21887 C 2197.29 -4.15339 1.45539 0
M  V30 21888 H 2194.41 -0.635128 0.373874 0
M  V30 21889 H 2197.05 -1.17802 1.49073 0
M  V30 21890 H 2195.2 -3.65339 1.32135 0
M  V30 21891 H 2196.87 -2.69066 3.74702 0
M  V30 21892 H 2195.11 -2.47356 3.56367 0
M  V30 21893 H 2195.78 -4.10216 3.6936 0
M  V30 21894 H 2198.26 -3.7521 1.79879 0
M  V30 21895 H 2197.14 -5.12537 1.96462 0
M  V30 21896 H 2197.4 -4.40426 0.384315 0
M  V30 21897 N 2196.46 -1.01661 -1.20428 0
M  V30 21898 C 2197.68 -0.725166 -1.93776 0
M  V30 21899 C 2198.1 0.714135 -1.74773 0
M  V30 21900 O 2197.46 1.48438 -1.06171 0
M  V30 21901 C 2197.51 -1.05136 -3.45874 0
M  V30 21902 O 2197.23 -2.43412 -3.64255 0
M  V30 21903 C 2198.73 -0.780967 -4.36367 0
M  V30 21904 H 2195.95 -0.266294 -0.615896 0
M  V30 21905 H 2198.49 -1.35779 -1.52919 0
M  V30 21906 H 2196.65 -0.464133 -3.8461 0
M  V30 21907 H 2197.06 -2.55177 -4.58241 0
M  V30 21908 H 2198.54 -1.05928 -5.41741 0
M  V30 21909 H 2199.01 0.28486 -4.38275 0
M  V30 21910 H 2199.62 -1.35034 -4.03294 0
M  V30 21911 N 2197.93 1.36205 -0.792844 0
M  V30 21912 C 2199.35 1.81692 -0.429545 0
M  V30 21913 C 2199.7 1.65934 1.04692 0
M  V30 21914 O 2198.82 1.18221 1.81253 0
M  V30 21915 C 2199.42 3.29866 -0.772889 0
M  V30 21916 C 2197.98 3.73549 -0.462373 0
M  V30 21917 C 2197.12 2.58419 -1.00574 0
M  V30 21918 H 2200.07 1.24378 -0.985694 0
M  V30 21919 H 2200.09 3.80444 -0.0652596 0
M  V30 21920 H 2199.61 3.41303 -1.84753 0
M  V30 21921 H 2197.71 3.6767 0.604094 0
M  V30 21922 H 2197.82 4.68857 -0.985382 0
M  V30 21923 H 2196.18 2.51065 -0.428778 0
M  V30 21924 H 2196.97 2.72639 -2.08621 0
M  V30 21925 N 2199.41 0.545154 1.47871 0
M  V30 21926 C 2200.66 0.016646 2.02793 0
M  V30 21927 C 2200.99 -1.32487 1.41989 0
M  V30 21928 O 2200.27 -1.85927 0.571078 0
M  V30 21929 C 2200.55 -0.0892662 3.59989 0
M  V30 21930 C 2200.4 1.27849 4.31248 0
M  V30 21931 C 2201.72 -0.808648 4.32607 0
M  V30 21932 H 2198.84 0.00752331 0.736962 0
M  V30 21933 H 2201.48 0.705116 1.76432 0
M  V30 21934 H 2199.63 -0.675614 3.8258 0
M  V30 21935 H 2201.3 1.90711 4.20032 0
M  V30 21936 H 2199.55 1.85639 3.92072 0
M  V30 21937 H 2200.22 1.15722 5.39734 0
M  V30 21938 H 2202.69 -0.310919 4.14937 0
M  V30 21939 H 2201.57 -0.851686 5.42252 0
M  V30 21940 H 2201.83 -1.86222 4.00966 0
M  V30 21941 N 2200.89 -1.55074 0.28101 0
M  V30 21942 C 2202.3 -1.85451 -0.215596 0
M  V30 21943 C 2202.65 -1.20303 -1.54989 0
M  V30 21944 O 2201.78 -0.493472 -2.10698 0
M  V30 21945 C 2202.37 -3.36455 -0.397967 0
M  V30 21946 C 2200.93 -3.66935 -0.838802 0
M  V30 21947 C 2200.08 -2.77225 0.0645067 0
M  V30 21948 H 2203.03 -1.5053 0.502627 0
M  V30 21949 H 2203.05 -3.59878 -1.23563 0
M  V30 21950 H 2202.56 -3.83842 0.573309 0
M  V30 21951 H 2200.66 -3.25051 -1.82134 0
M  V30 21952 H 2200.78 -4.74363 -0.67204 0
M  V30 21953 H 2199.14 -2.50642 -0.452819 0
M  V30 21954 H 2199.92 -3.27428 1.03177 0
M  V30 21955 N 2202.37 -0.00838561 -1.57598 0
M  V30 21956 C 2203.59 0.689069 -1.95619 0
M  V30 21957 C 2204.02 1.66045 -0.883782 0
M  V30 21958 O 2203.38 1.80616 0.15732 0
M  V30 21959 C 2203.43 1.38988 -3.32738 0
M  V30 21960 O 2202.53 2.50458 -3.27635 0
M  V30 21961 H 2201.87 0.182657 -0.638383 0
M  V30 21962 H 2204.4 -0.064072 -2.045 0
M  V30 21963 H 2204.41 1.7514 -3.68497 0
M  V30 21964 H 2203.09 0.677706 -4.10341 0
M  V30 21965 H 2201.66 2.16571 -3.03565 0
M  V30 21966 N 2203.85 1.55365 0.264492 0
M  V30 21967 C 2204.78 1.91838 1.33117 0
M  V30 21968 C 2205.76 0.781219 1.51099 0
M  V30 21969 O 2206.94 1.04006 1.64001 0
M  V30 21970 C 2204.07 2.19774 2.68918 0
M  V30 21971 C 2203.03 3.35576 2.65655 0
M  V30 21972 C 2202.35 3.49011 4.05087 0
M  V30 21973 C 2203.65 4.71743 2.24179 0
M  V30 21974 H 2205.35 2.81184 1.02839 0
M  V30 21975 H 2202.89 1.35288 0.493263 0
M  V30 21976 H 2204.85 2.43878 3.43659 0
M  V30 21977 H 2203.57 1.27236 3.00796 0
M  V30 21978 H 2202.23 3.11453 1.93371 0
M  V30 21979 H 2201.88 2.53924 4.34202 0
M  V30 21980 H 2201.58 4.26875 4.03797 0
M  V30 21981 H 2203.1 3.75417 4.81554 0
M  V30 21982 H 2204.52 4.95335 2.88646 0
M  V30 21983 H 2202.91 5.52583 2.34034 0
M  V30 21984 H 2203.98 4.6999 1.19319 0
M  V30 21985 N 2205.33 -0.529387 1.48443 0
M  V30 21986 C 2206.24 -1.66081 1.65693 0
M  V30 21987 C 2207.25 -1.65426 0.539461 0
M  V30 21988 O 2208.43 -1.84367 0.810605 0
M  V30 21989 C 2205.49 -3.02542 1.69321 0
M  V30 21990 C 2204.55 -3.14047 2.927 0
M  V30 21991 C 2203.79 -4.43998 2.96144 0
M  V30 21992 O 2204.01 -5.31131 2.07982 0
M  V30 21993 O 2202.94 -4.59881 3.8832 0
M  V30 21994 H 2206.77 -1.54464 2.61485 0
M  V30 21995 H 2204.35 -0.702544 1.31851 0
M  V30 21996 H 2206.24 -3.83698 1.74224 0
M  V30 21997 H 2204.91 -3.14481 0.767022 0
M  V30 21998 H 2203.82 -2.32184 2.93328 0
M  V30 21999 H 2205.15 -3.07023 3.84704 0
M  V30 22000 N 2206.8 -1.37041 -0.778305 0
M  V30 22001 C 2207.77 -1.32105 -1.87299 0
M  V30 22002 C 2208.77 -0.226433 -1.59198 0
M  V30 22003 O 2209.96 -0.481891 -1.67402 0
M  V30 22004 C 2207.09 -1.05061 -3.24307 0
M  V30 22005 H 2208.28 -2.29471 -1.93089 0
M  V30 22006 H 2205.83 -1.21975 -0.977337 0
M  V30 22007 H 2206.57 -0.0819943 -3.24196 0
M  V30 22008 H 2206.35 -1.84285 -3.46094 0
M  V30 22009 H 2207.84 -1.04241 -4.04381 0
M  V30 22010 N 2208.28 1.00373 -1.21503 0
M  V30 22011 C 2209.69 1.55619 -1.03149 0
M  V30 22012 C 2210.04 1.91904 0.408341 0
M  V30 22013 O 2209.17 1.73618 1.29174 0
M  V30 22014 C 2209.76 2.82771 -1.86617 0
M  V30 22015 C 2208.32 3.34498 -1.72591 0
M  V30 22016 C 2207.47 2.0768 -1.83751 0
M  V30 22017 H 2210.42 0.826057 -1.35506 0
M  V30 22018 H 2210.44 3.54703 -1.37716 0
M  V30 22019 H 2209.95 2.56331 -2.91403 0
M  V30 22020 H 2208.05 3.65871 -0.704941 0
M  V30 22021 H 2208.17 4.05833 -2.5463 0
M  V30 22022 H 2206.53 2.20736 -1.27073 0
M  V30 22023 H 2207.31 1.8365 -2.90048 0
M  V30 22024 N 2209.76 1.02298 1.19887 0
M  V30 22025 C 2210.98 0.735271 1.93929 0
M  V30 22026 C 2211.41 -0.698751 1.7464 0
M  V30 22027 O 2210.77 -1.48165 1.04483 0
M  V30 22028 C 2210.82 1.08423 3.43914 0
M  V30 22029 O 2209.92 0.199519 4.11917 0
M  V30 22030 H 2209.26 0.272207 0.60564 0
M  V30 22031 H 2211.79 1.36807 1.52135 0
M  V30 22032 H 2211.8 1.03863 3.94559 0
M  V30 22033 H 2210.48 2.12901 3.57276 0
M  V30 22034 H 2209.05 0.303201 3.71665 0
M  V30 22035 N 2211.24 -1.35782 0.800057 0
M  V30 22036 C 2212.15 -2.33683 0.207245 0
M  V30 22037 C 2213.16 -1.61552 -0.646282 0
M  V30 22038 O 2214.34 -1.9347 -0.55957 0
M  V30 22039 C 2211.4 -3.40749 -0.639599 0
M  V30 22040 C 2210.47 -4.28664 0.23366 0
M  V30 22041 C 2209.7 -5.30617 -0.572861 0
M  V30 22042 O 2209.92 -5.40986 -1.80806 0
M  V30 22043 O 2208.86 -6.01891 0.0328343 0
M  V30 22044 H 2212.68 -2.86167 1.01697 0
M  V30 22045 H 2210.27 -1.38438 0.561715 0
M  V30 22046 H 2212.15 -4.06184 -1.12216 0
M  V30 22047 H 2210.82 -2.90547 -1.42703 0
M  V30 22048 H 2209.73 -3.66232 0.763212 0
M  V30 22049 H 2211.06 -4.82246 0.984869 0
M  V30 22050 N 2212.72 -0.552988 -1.4758 0
M  V30 22051 C 2213.65 0.234493 -2.27997 0
M  V30 22052 C 2214.66 0.883297 -1.36754 0
M  V30 22053 O 2215.85 0.75786 -1.61613 0
M  V30 22054 C 2212.95 1.3493 -3.10881 0
M  V30 22055 C 2212.12 0.798083 -4.30057 0
M  V30 22056 C 2211.18 1.79686 -4.9457 0
M  V30 22057 O 2210.21 1.34465 -5.53089 0
M  V30 22058 N 2211.41 3.13006 -4.88884 0
M  V30 22059 H 2214.17 -0.455307 -2.96221 0
M  V30 22060 H 2211.74 -0.388789 -1.57162 0
M  V30 22061 H 2213.73 2.0161 -3.50907 0
M  V30 22062 H 2212.3 1.9424 -2.44928 0
M  V30 22063 H 2211.52 -0.0453772 -3.94174 0
M  V30 22064 H 2212.81 0.409084 -5.07153 0
M  V30 22065 H 2212.2 3.52394 -4.42532 0
M  V30 22066 H 2210.76 3.75256 -5.32941 0
M  V30 22067 N 2214.19 1.54923 -0.28923 0
M  V30 22068 C 2215.16 2.21763 0.579105 0
M  V30 22069 C 2216.16 1.19992 1.07045 0
M  V30 22070 O 2217.35 1.44805 0.968359 0
M  V30 22071 C 2214.48 2.89473 1.8005 0
M  V30 22072 H 2215.67 2.999 -0.00470179 0
M  V30 22073 H 2213.22 1.56249 -0.0399581 0
M  V30 22074 H 2213.96 2.15386 2.42445 0
M  V30 22075 H 2213.74 3.64067 1.45595 0
M  V30 22076 H 2215.23 3.40498 2.41767 0
M  V30 22077 N 2215.67 0.0167433 1.57591 0
M  V30 22078 C 2217.08 -0.523803 1.79202 0
M  V30 22079 C 2217.43 -1.72982 0.925826 0
M  V30 22080 O 2216.56 -2.15992 0.13283 0
M  V30 22081 C 2217.15 -0.957034 3.25002 0
M  V30 22082 C 2215.71 -1.44277 3.47651 0
M  V30 22083 C 2214.86 -0.401709 2.74375 0
M  V30 22084 H 2217.81 0.242844 1.56831 0
M  V30 22085 H 2217.83 -1.82213 3.34034 0
M  V30 22086 H 2217.34 -0.0790733 3.88019 0
M  V30 22087 H 2215.44 -2.34107 2.8987 0
M  V30 22088 H 2215.56 -1.45869 4.56354 0
M  V30 22089 H 2213.92 -0.867079 2.39487 0
M  V30 22090 H 2214.7 0.467573 3.40101 0
M  V30 22091 N 2217.15 -1.55503 -0.256249 0
M  V30 22092 C 2218.38 -1.80941 -1.00339 0
M  V30 22093 C 2218.79 -0.591171 -1.79306 0
M  V30 22094 O 2218.15 0.44005 -1.77115 0
M  V30 22095 C 2218.2 -3.0448 -1.9487 0
M  V30 22096 O 2217.92 -4.216 -1.19099 0
M  V30 22097 C 2219.42 -3.42648 -2.81259 0
M  V30 22098 H 2216.64 -0.602344 -0.295674 0
M  V30 22099 H 2219.19 -2.02547 -0.281962 0
M  V30 22100 H 2217.34 -2.84952 -2.62452 0
M  V30 22101 H 2217.76 -4.91555 -1.8296 0
M  V30 22102 H 2219.23 -4.32217 -3.43355 0
M  V30 22103 H 2219.71 -2.62808 -3.51893 0
M  V30 22104 H 2220.31 -3.64495 -2.19143 0
M  V30 22105 N 2218.63 0.521507 -1.48721 0
M  V30 22106 C 2219.54 1.652 -1.66572 0
M  V30 22107 C 2220.55 1.65138 -0.548226 0
M  V30 22108 O 2221.73 1.83934 -0.820371 0
M  V30 22109 C 2218.8 3.01639 -1.70923 0
M  V30 22110 C 2217.86 3.1249 -2.94361 0
M  V30 22111 C 2217.09 4.42421 -2.98495 0
M  V30 22112 O 2217.31 5.3002 -2.10796 0
M  V30 22113 O 2216.25 4.57815 -3.90754 0
M  V30 22114 H 2220.07 1.53075 -2.62301 0
M  V30 22115 H 2217.66 0.695541 -1.32222 0
M  V30 22116 H 2219.54 3.82768 -1.76256 0
M  V30 22117 H 2218.21 3.1407 -0.783688 0
M  V30 22118 H 2217.12 2.30625 -2.94556 0
M  V30 22119 H 2218.45 3.04979 -3.86327 0
M  V30 22120 N 2220.11 1.37452 0.771027 0
M  V30 22121 C 2221.04 1.29149 1.89349 0
M  V30 22122 C 2222.05 0.207152 1.61477 0
M  V30 22123 O 2223.24 0.463354 1.72381 0
M  V30 22124 C 2220.34 0.974252 3.24594 0
M  V30 22125 C 2219.51 2.1642 3.80107 0
M  V30 22126 C 2218.57 1.81712 4.93829 0
M  V30 22127 O 2217.6 2.54015 5.09377 0
M  V30 22128 N 2218.8 0.761674 5.75481 0
M  V30 22129 H 2221.57 2.25867 1.96987 0
M  V30 22130 H 2219.13 1.31086 0.950168 0
M  V30 22131 H 2221.12 0.722898 3.98191 0
M  V30 22132 H 2219.69 0.0956076 3.12454 0
M  V30 22133 H 2218.91 2.57726 2.9828 0
M  V30 22134 H 2220.2 2.95875 4.13927 0
M  V30 22135 H 2219.59 0.161708 5.65469 0
M  V30 22136 H 2218.15 0.570178 6.49301 0
M  V30 22137 N 2221.58 -0.997276 1.22033 0
M  V30 22138 C 2223 -1.2602 0.979348 0
M  V30 22139 C 2223.2 -1.98785 -0.329685 0
M  V30 22140 O 2222.26 -2.29477 -1.05341 0
M  V30 22141 C 2223.57 -2.07627 2.17512 0
M  V30 22142 C 2225.12 -2.20826 2.21821 0
M  V30 22143 C 2225.59 -3.05819 3.40938 0
M  V30 22144 N 2227.08 -3.13406 3.41073 0
M  V30 22145 C 2227.82 -3.79447 4.29892 0
M  V30 22146 N 2227.31 -4.47453 5.28922 0
M  V30 22147 N 2229.11 -3.76165 4.17679 0
M  V30 22148 H 2221.26 -0.509316 2.06203 0
M  V30 22149 H 2223.52 -0.287525 0.903346 0
M  V30 22150 H 2223.23 -1.61518 3.12418 0
M  V30 22151 H 2223.1 -3.08381 2.17211 0
M  V30 22152 H 2225.49 -2.66151 1.27466 0
M  V30 22153 H 2225.57 -1.19516 2.26162 0
M  V30 22154 H 2225.21 -2.61195 4.35591 0
M  V30 22155 H 2225.14 -4.0726 3.33836 0
M  V30 22156 H 2227.63 -2.65003 2.6941 0
M  V30 22157 H 2227.95 -4.95572 5.92982 0
M  V30 22158 H 2226.29 -4.46215 5.32839 0
M  V30 22159 H 2229.48 -3.22196 3.3957 0
M  V30 22160 H 2229.66 -4.27355 4.87106 0
M  V30 22161 N 2223.06 -1.02932 -1.19343 0
M  V30 22162 C 2224.47 -0.755663 -1.70724 0
M  V30 22163 C 2224.82 0.724644 -1.82328 0
M  V30 22164 O 2223.95 1.56482 -1.49474 0
M  V30 22165 C 2224.54 -1.36508 -3.10082 0
M  V30 22166 C 2223.1 -1.14 -3.58721 0
M  V30 22167 C 2222.25 -1.46287 -2.35575 0
M  V30 22168 H 2225.2 -1.19719 -1.04178 0
M  V30 22169 H 2225.22 -0.762283 -3.72786 0
M  V30 22170 H 2224.73 -2.44246 -3.01605 0
M  V30 22171 H 2222.84 -0.0808556 -3.72512 0
M  V30 22172 H 2222.95 -1.82902 -4.42813 0
M  V30 22173 H 2221.31 -0.882212 -2.38933 0
M  V30 22174 H 2222.1 -2.55109 -2.29727 0
M  V30 22175 N 2224.54 1.35356 -0.807246 0
M  V30 22176 C 2225.79 1.98357 -0.387157 0
M  V30 22177 C 2226.11 1.64355 1.04939 0
M  V30 22178 O 2225.38 0.926369 1.72613 0
M  V30 22179 H 2223.96 0.733732 -0.140167 0
M  V30 22180 H 2226.62 1.65258 -1.03323 0
M  V30 22181 H 2225.72 3.08175 -0.493406 0
M  V30 22182 N 2226.02 0.560807 1.47284 0
M  V30 22183 C 2227.26 0.038154 2.02764 0
M  V30 22184 C 2227.6 -1.30973 1.43386 0
M  V30 22185 O 2226.87 -1.85311 0.590766 0
M  V30 22186 C 2227.16 -0.0510795 3.60064 0
M  V30 22187 C 2227.01 1.32416 4.29868 0
M  V30 22188 C 2228.33 -0.762719 4.3344 0
M  V30 22189 H 2225.45 0.0153393 0.73684 0
M  V30 22190 H 2228.09 0.723789 1.75674 0
M  V30 22191 H 2226.24 -0.634998 3.83275 0
M  V30 22192 H 2227.91 1.95155 4.17986 0
M  V30 22193 H 2226.15 1.89787 3.90081 0
M  V30 22194 H 2226.82 1.2144 5.38476 0
M  V30 22195 H 2229.3 -0.266892 4.15243 0
M  V30 22196 H 2228.18 -0.794125 5.43125 0
M  V30 22197 H 2228.44 -1.81959 4.02919 0
M  V30 22198 N 2227.5 -1.54768 0.297442 0
M  V30 22199 C 2228.43 -2.20827 -0.613842 0
M  V30 22200 C 2229.44 -1.19989 -1.1003 0
M  V30 22201 O 2230.63 -1.466 -1.01836 0
M  V30 22202 C 2227.73 -2.83824 -1.85195 0
M  V30 22203 C 2226.9 -4.10561 -1.50858 0
M  V30 22204 C 2225.96 -4.57395 -2.60146 0
M  V30 22205 O 2224.99 -5.22674 -2.25389 0
M  V30 22206 N 2226.19 -4.29413 -3.90621 0
M  V30 22207 H 2228.96 -2.99661 -0.0483364 0
M  V30 22208 H 2226.52 -1.61458 0.119488 0
M  V30 22209 H 2228.51 -3.1209 -2.57647 0
M  V30 22210 H 2227.08 -2.08852 -2.32594 0
M  V30 22211 H 2226.3 -3.89344 -0.616857 0
M  V30 22212 H 2227.59 -4.93092 -1.2545 0
M  V30 22213 H 2226.98 -3.77108 -4.21671 0
M  V30 22214 H 2225.54 -4.62396 -4.59383 0
M  V30 22215 N 2228.97 -0.0251005 -1.5758 0
M  V30 22216 C 2229.88 0.973867 -2.13431 0
M  V30 22217 C 2230.9 1.35982 -1.08559 0
M  V30 22218 O 2232.08 1.44205 -1.40595 0
M  V30 22219 C 2229.14 2.23899 -2.64707 0
M  V30 22220 C 2228.2 1.91384 -3.84279 0
M  V30 22221 C 2227.44 3.11865 -4.331 0
M  V30 22222 O 2227.66 4.24391 -3.81115 0
M  V30 22223 O 2226.59 2.94397 -5.24989 0
M  V30 22224 H 2230.42 0.528984 -2.99058 0
M  V30 22225 H 2228 0.195262 -1.48118 0
M  V30 22226 H 2229.89 2.98176 -2.97774 0
M  V30 22227 H 2228.56 2.67576 -1.82166 0
M  V30 22228 H 2227.47 1.14505 -3.56145 0
M  V30 22229 H 2228.8 1.52526 -4.67971 0
M  V30 22230 N 2230.45 1.55637 0.247999 0
M  V30 22231 C 2231.69 1.7918 0.983561 0
M  V30 22232 C 2232.06 0.594446 1.82566 0
M  V30 22233 O 2233.26 0.708629 2.59291 0
M  V30 22234 C 2231.53 3.07457 1.82222 0
M  V30 22235 S 2233.09 3.52217 2.61703 0
M  V30 22236 H 2229.91 0.62933 0.330855 0
M  V30 22237 H 2232.51 1.93875 0.251528 0
M  V30 22238 H 2231.21 3.9267 1.19326 0
M  V30 22239 H 2230.74 2.95497 2.59702 0
M  V30 22240 H 2232.76 3.13463 3.84649 0
M  V30 22241 N 2231.93 -0.513613 1.48996 0
M  V30 22242 C 2233.16 -1.29097 1.61299 0
M  V30 22243 C 2233.57 -1.87136 0.278689 0
M  V30 22244 O 2232.91 -1.67946 -0.744295 0
M  V30 22245 C 2232.97 -2.46874 2.6133 0
M  V30 22246 C 2232.64 -2.098 4.05996 0
M  V30 22247 C 2233.64 -1.6451 4.93186 0
M  V30 22248 C 2231.32 -2.19821 4.51646 0
M  V30 22249 C 2233.31 -1.29729 6.24059 0
M  V30 22250 C 2231 -1.84651 5.82535 0
M  V30 22251 C 2232 -1.39678 6.68565 0
M  V30 22252 O 2231.69 -1.04978 7.97016 0
M  V30 22253 H 2231.42 -0.39824 0.546243 0
M  V30 22254 H 2233.97 -0.624556 1.95674 0
M  V30 22255 H 2232.2 -3.16551 2.2211 0
M  V30 22256 H 2233.89 -3.08918 2.63295 0
M  V30 22257 H 2234.66 -1.56225 4.5915 0
M  V30 22258 H 2230.54 -2.53779 3.8486 0
M  V30 22259 H 2234.08 -0.945537 6.91162 0
M  V30 22260 H 2229.98 -1.92583 6.16102 0
M  V30 22261 H 2230.75 -1.18235 8.09915 0
M  V30 22262 N 2233.41 -1.37859 -0.763727 0
M  V30 22263 C 2234.36 -1.30781 -1.86763 0
M  V30 22264 C 2235.34 -0.194043 -1.59726 0
M  V30 22265 O 2236.54 -0.42914 -1.71719 0
M  V30 22266 C 2233.66 -1.12507 -3.24341 0
M  V30 22267 C 2232.75 -2.28462 -3.57303 0
M  V30 22268 N 2233.14 -3.53878 -3.61392 0
M  V30 22269 C 2231.44 -2.20792 -3.87513 0
M  V30 22270 C 2232.14 -4.30388 -3.91332 0
M  V30 22271 N 2231.12 -3.59622 -4.07643 0
M  V30 22272 H 2234.92 -2.25749 -1.88188 0
M  V30 22273 H 2232.43 -1.30945 -0.960577 0
M  V30 22274 H 2234.43 -1.05521 -4.03325 0
M  V30 22275 H 2233.09 -0.184631 -3.24175 0
M  V30 22276 H 2234.1 -3.87681 -3.434 0
M  V30 22277 H 2230.78 -1.34851 -3.95122 0
M  V30 22278 H 2232.17 -5.38967 -4.01204 0
M  V30 22279 N 2234.89 0.990791 -1.22561 0
M  V30 22280 C 2236.14 1.72722 -1.04936 0
M  V30 22281 C 2236.46 1.90508 0.416125 0
M  V30 22282 O 2235.73 1.46624 1.29916 0
M  V30 22283 H 2234.31 0.639959 -0.385308 0
M  V30 22284 H 2236.97 1.19319 -1.54107 0
M  V30 22285 H 2236.06 2.72086 -1.52891 0
M  V30 22286 N 2236.37 1.03564 1.18795 0
M  V30 22287 C 2237.31 0.615945 2.24296 0
M  V30 22288 C 2238.31 -0.354779 1.65643 0
M  V30 22289 O 2239.51 -0.222619 1.78618 0
M  V30 22290 H 2235.89 0.180947 0.729906 0
M  V30 22291 H 2237.86 1.51624 2.57007 0
M  V30 22292 C 2236.61 -0.0104124 3.47698 0
M  V30 22293 H 2235.93 0.727578 3.93124 0
M  V30 22294 H 2237.37 -0.266921 4.23159 0
M  V30 22295 C 2235.83 -1.25899 3.12491 0
M  V30 22296 O 2236.36 -2.35032 3.25765 0
M  V30 22297 N 2234.57 -1.15034 2.66862 0
M  V30 22298 H 2234.11 -0.262283 2.56261 0
M  V30 22299 H 2234.07 -1.98668 2.43677 0
M  V30 22300 N 2237.84 -1.34926 0.814413 0
M  V30 22301 C 2239.09 -1.98149 0.397671 0
M  V30 22302 C 2239.41 -1.6491 -1.04066 0
M  V30 22303 O 2238.68 -0.93551 -1.72119 0
M  V30 22304 H 2237.26 -0.732978 0.144056 0
M  V30 22305 H 2239.92 -1.64708 1.04198 0
M  V30 22306 H 2239.02 -3.07909 0.509743 0
M  V30 22307 N 2239.32 -0.56861 -1.46985 0
M  V30 22308 C 2240.25 0.210297 -2.28233 0
M  V30 22309 C 2241.27 0.868743 -1.37683 0
M  V30 22310 O 2242.46 0.740676 -1.62408 0
M  V30 22311 C 2239.56 1.31625 -3.12295 0
M  V30 22312 C 2238.73 0.752425 -4.3088 0
M  V30 22313 C 2237.79 1.7443 -4.96448 0
M  V30 22314 O 2236.81 1.28591 -5.54485 0
M  V30 22315 N 2238.02 3.07804 -4.92176 0
M  V30 22316 H 2240.78 -0.4867 -2.95722 0
M  V30 22317 H 2238.34 -0.405436 -1.56741 0
M  V30 22318 H 2240.33 1.97877 -3.53025 0
M  V30 22319 H 2238.9 1.91631 -2.46974 0
M  V30 22320 H 2238.12 -0.087182 -3.94104 0
M  V30 22321 H 2239.41 0.35527 -5.07558 0
M  V30 22322 H 2238.81 3.47681 -4.46245 0
M  V30 22323 H 2237.37 3.69583 -5.36891 0
M  V30 22324 N 2240.8 1.54608 -0.305646 0
M  V30 22325 C 2242.02 2.05107 0.307526 0
M  V30 22326 C 2242.45 1.18125 1.46383 0
M  V30 22327 O 2241.81 0.186356 1.8034 0
M  V30 22328 C 2241.86 3.52989 0.736978 0
M  V30 22329 O 2240.96 3.69013 1.84128 0
M  V30 22330 H 2240.3 0.661382 0.0589027 0
M  V30 22331 H 2242.83 1.99616 -0.448842 0
M  V30 22332 H 2242.84 3.94927 1.02452 0
M  V30 22333 H 2241.52 4.15758 -0.108847 0
M  V30 22334 H 2240.09 3.3898 1.55392 0
M  V30 22335 N 2242.28 0.033457 1.57564 0
M  V30 22336 C 2243.51 -0.653363 1.95997 0
M  V30 22337 C 2243.92 -1.65945 0.908778 0
M  V30 22338 O 2243.26 -1.83324 -0.117438 0
M  V30 22339 C 2243.32 -1.41243 3.30591 0
M  V30 22340 C 2242.98 -0.564183 4.53504 0
M  V30 22341 C 2243.98 0.162342 5.19646 0
M  V30 22342 C 2241.67 -0.50031 4.99802 0
M  V30 22343 C 2243.66 0.941366 6.3041 0
M  V30 22344 C 2241.35 0.282415 6.10447 0
M  V30 22345 C 2242.35 1.00196 6.75611 0
M  V30 22346 O 2242.03 1.77184 7.84131 0
M  V30 22347 H 2241.77 -0.184717 0.650274 0
M  V30 22348 H 2244.32 0.0908201 2.05199 0
M  V30 22349 H 2242.55 -2.20185 3.17892 0
M  V30 22350 H 2244.24 -1.98778 3.53896 0
M  V30 22351 H 2245 0.122356 4.84846 0
M  V30 22352 H 2240.88 -1.04994 4.48884 0
M  V30 22353 H 2244.43 1.50351 6.81205 0
M  V30 22354 H 2240.32 0.324103 6.44686 0
M  V30 22355 H 2241.09 1.69208 8.00819 0
M  V30 22356 N 2243.76 -1.55766 -0.239741 0
M  V30 22357 C 2245.17 -1.4835 -0.588598 0
M  V30 22358 C 2245.37 -0.725053 -1.88003 0
M  V30 22359 O 2244.43 -0.257313 -2.51185 0
M  V30 22360 C 2245.74 -2.92801 -0.684688 0
M  V30 22361 C 2247.29 -3.03214 -0.776537 0
M  V30 22362 C 2247.76 -4.48987 -0.904128 0
M  V30 22363 N 2249.25 -4.52955 -0.968816 0
M  V30 22364 C 2249.99 -5.63004 -1.08693 0
M  V30 22365 N 2249.49 -6.82847 -1.17014 0
M  V30 22366 N 2251.28 -5.50816 -1.12065 0
M  V30 22367 H 2243.43 -2.03514 0.607947 0
M  V30 22368 H 2245.69 -0.924255 0.210846 0
M  V30 22369 H 2245.4 -3.51163 0.194345 0
M  V30 22370 H 2245.27 -3.43688 -1.55429 0
M  V30 22371 H 2247.66 -2.44929 -1.64602 0
M  V30 22372 H 2247.74 -2.55526 0.11836 0
M  V30 22373 H 2247.38 -5.07885 -0.0391741 0
M  V30 22374 H 2247.31 -4.94364 -1.81417 0
M  V30 22375 H 2249.81 -3.66641 -0.915568 0
M  V30 22376 H 2250.12 -7.62467 -1.25953 0
M  V30 22377 H 2248.46 -6.85593 -1.13959 0
M  V30 22378 H 2251.65 -4.56122 -1.05218 0
M  V30 22379 H 2251.83 -6.36617 -1.20925 0
M  V30 22380 N 2245.23 0.505704 -1.49266 0
M  V30 22381 C 2246.48 1.25764 -1.58202 0
M  V30 22382 C 2246.8 1.93142 -0.268516 0
M  V30 22383 O 2246.07 1.82511 0.711801 0
M  V30 22384 H 2244.65 0.467181 -0.582881 0
M  V30 22385 H 2247.31 0.586492 -1.85866 0
M  V30 22386 H 2246.41 2.02407 -2.37566 0
M  V30 22387 N 2246.71 1.38262 0.756405 0
M  V30 22388 C 2247.94 1.37542 1.54563 0
M  V30 22389 C 2248.36 -0.0354999 1.88767 0
M  V30 22390 O 2247.71 -1.00137 1.52574 0
M  V30 22391 C 2247.76 2.22838 2.8465 0
M  V30 22392 O 2247.48 3.58434 2.51906 0
M  V30 22393 C 2248.99 2.30268 3.78803 0
M  V30 22394 H 2246.21 0.470561 0.478344 0
M  V30 22395 H 2248.75 1.81804 0.936349 0
M  V30 22396 H 2246.9 1.82046 3.41962 0
M  V30 22397 H 2247.32 4.03314 3.35318 0
M  V30 22398 H 2248.79 2.94241 4.6704 0
M  V30 22399 H 2249.27 1.31552 4.19035 0
M  V30 22400 H 2249.88 2.71439 3.27416 0
M  V30 22401 N 2248.19 -0.984277 1.23084 0
M  V30 22402 C 2249.42 -1.75779 1.08559 0
M  V30 22403 C 2249.83 -1.85623 -0.366138 0
M  V30 22404 O 2249.17 -1.33184 -1.26521 0
M  V30 22405 C 2249.23 -3.20315 1.63214 0
M  V30 22406 C 2248.9 -3.33991 3.11927 0
M  V30 22407 C 2249.89 -3.20622 4.09264 0
M  V30 22408 C 2247.58 -3.58765 3.51558 0
M  V30 22409 C 2249.57 -3.31825 5.44216 0
M  V30 22410 C 2247.26 -3.69608 4.86655 0
M  V30 22411 C 2248.26 -3.56147 5.82793 0
M  V30 22412 O 2247.95 -3.66613 7.15437 0
M  V30 22413 H 2247.68 -0.558593 0.380723 0
M  V30 22414 H 2250.23 -1.24558 1.63323 0
M  V30 22415 H 2248.46 -3.72767 1.02866 0
M  V30 22416 H 2250.15 -3.79413 1.44223 0
M  V30 22417 H 2250.92 -3.01385 3.7999 0
M  V30 22418 H 2246.8 -3.68315 2.77245 0
M  V30 22419 H 2250.34 -3.21236 6.19236 0
M  V30 22420 H 2246.24 -3.88354 5.15608 0
M  V30 22421 H 2247.01 -3.83432 7.23133 0
M  V30 22422 N 2249.67 -1.04192 -1.18244 0
M  V30 22423 C 2250.89 -0.76603 -1.92735 0
M  V30 22424 C 2251.32 0.670879 -1.75729 0
M  V30 22425 O 2250.68 1.46484 -1.06827 0
M  V30 22426 C 2250.72 -1.13881 -3.42146 0
M  V30 22427 O 2249.83 -0.265026 -4.11548 0
M  V30 22428 H 2249.17 -0.281807 -0.601233 0
M  V30 22429 H 2251.7 -1.3921 -1.49939 0
M  V30 22430 H 2251.71 -1.10127 -3.92856 0
M  V30 22431 H 2250.38 -2.18558 -3.53844 0
M  V30 22432 H 2248.96 -0.362291 -3.71136 0
M  V30 22433 N 2251.15 1.34492 -0.821557 0
M  V30 22434 C 2252.37 2.02552 -0.42192 0
M  V30 22435 C 2252.79 1.61874 0.971717 0
M  V30 22436 O 2252.15 0.823524 1.62863 0
M  V30 22437 C 2252.2 3.57843 -0.512913 0
M  V30 22438 O 2251.92 3.97047 -1.85162 0
M  V30 22439 C 2253.42 4.43168 -0.107999 0
M  V30 22440 H 2250.64 0.64924 -0.169494 0
M  V30 22441 H 2253.18 1.71796 -1.10933 0
M  V30 22442 H 2251.34 3.87194 0.126406 0
M  V30 22443 H 2251.75 4.91729 -1.82491 0
M  V30 22444 H 2253.23 5.5155 -0.222754 0
M  V30 22445 H 2253.7 4.2884 0.948325 0
M  V30 22446 H 2254.31 4.19143 -0.721062 0
M  V30 22447 N 2252.62 0.576397 1.46681 0
M  V30 22448 C 2253.85 0.0649999 2.06798 0
M  V30 22449 C 2254.27 -1.23721 1.42614 0
M  V30 22450 O 2253.62 -1.74658 0.529234 0
M  V30 22451 C 2253.68 -0.114138 3.6132 0
M  V30 22452 O 2253.4 1.13652 4.23102 0
M  V30 22453 C 2254.9 -0.660613 4.3835 0
M  V30 22454 H 2252.12 0.0545733 0.668777 0
M  V30 22455 H 2254.66 0.79527 1.88403 0
M  V30 22456 H 2252.82 -0.794606 3.79163 0
M  V30 22457 H 2253.23 0.946343 5.15892 0
M  V30 22458 H 2254.7 -0.735164 5.47083 0
M  V30 22459 H 2255.18 -1.6762 4.05956 0
M  V30 22460 H 2255.79 -0.0152203 4.25297 0
M  V30 22461 N 2254.1 -1.54444 0.313841 0
M  V30 22462 C 2255.35 -2.00686 -0.292072 0
M  V30 22463 C 2255.68 -1.2018 -1.52546 0
M  V30 22464 O 2254.96 -0.281565 -1.92451 0
M  V30 22465 C 2255.24 -3.54441 -0.635906 0
M  V30 22466 C 2255.09 -4.45678 0.607516 0
M  V30 22467 C 2256.41 -4.15269 -1.45739 0
M  V30 22468 H 2253.53 -0.729527 -0.104684 0
M  V30 22469 H 2256.17 -1.85105 0.42849 0
M  V30 22470 H 2254.32 -3.67848 -1.2498 0
M  V30 22471 H 2255.99 -4.44157 1.24589 0
M  V30 22472 H 2254.24 -4.15751 1.23829 0
M  V30 22473 H 2254.91 -5.51056 0.322612 0
M  V30 22474 H 2257.38 -4.05376 -0.938574 0
M  V30 22475 H 2256.26 -5.22983 -1.66674 0
M  V30 22476 H 2256.52 -3.67967 -2.45056 0
M  V30 22477 N 2255.58 -0.0418125 -1.57545 0
M  V30 22478 C 2256.81 0.643894 -1.96626 0
M  V30 22479 C 2257.22 1.64928 -0.918926 0
M  V30 22480 O 2256.58 1.82237 0.0979003 0
M  V30 22481 C 2256.63 1.33908 -3.35784 0
M  V30 22482 O 2256.35 0.373971 -4.36501 0
M  V30 22483 C 2257.85 2.11543 -3.8957 0
M  V30 22484 H 2255.07 0.17669 -0.647319 0
M  V30 22485 H 2257.62 -0.10534 -2.04229 0
M  V30 22486 H 2255.77 2.03962 -3.2936 0
M  V30 22487 H 2256.19 0.869088 -5.1725 0
M  V30 22488 H 2257.66 2.5562 -4.89247 0
M  V30 22489 H 2258.14 2.95974 -3.24493 0
M  V30 22490 H 2258.74 1.4642 -3.99301 0
M  V30 22491 N 2257.06 1.55891 0.231477 0
M  V30 22492 C 2258.31 1.7809 0.955429 0
M  V30 22493 C 2258.63 0.608565 1.85261 0
M  V30 22494 O 2257.9 -0.375001 1.92277 0
M  V30 22495 H 2256.48 0.656836 0.355775 0
M  V30 22496 H 2259.14 1.93345 0.245717 0
M  V30 22497 H 2258.24 2.69847 1.56809 0
M  V30 22498 N 2258.54 -0.497781 1.49532 0
M  V30 22499 C 2259.95 -0.829242 1.36366 0
M  V30 22500 C 2260.15 -1.97506 0.399218 0
M  V30 22501 O 2259.21 -2.51941 -0.167933 0
M  V30 22502 C 2260.52 -1.16642 2.77155 0
M  V30 22503 C 2262.07 -1.27444 2.85879 0
M  V30 22504 C 2262.54 -1.64489 4.27443 0
M  V30 22505 N 2264.04 -1.71532 4.30268 0
M  V30 22506 C 2264.77 -2.01647 5.36774 0
M  V30 22507 N 2264.27 -2.29964 6.5352 0
M  V30 22508 N 2266.06 -2.02925 5.24193 0
M  V30 22509 H 2258.21 0.257741 2.1083 0
M  V30 22510 H 2260.47 0.0527257 0.946533 0
M  V30 22511 H 2260.18 -0.397811 3.49443 0
M  V30 22512 H 2260.05 -2.10909 3.12725 0
M  V30 22513 H 2262.44 -2.03376 2.13827 0
M  V30 22514 H 2262.52 -0.3122 2.53888 0
M  V30 22515 H 2262.17 -0.891063 5.00022 0
M  V30 22516 H 2262.1 -2.61819 4.56901 0
M  V30 22517 H 2264.59 -1.51796 3.46073 0
M  V30 22518 H 2264.9 -2.5214 7.3051 0
M  V30 22519 H 2263.24 -2.27414 6.56741 0
M  V30 22520 H 2266.44 -1.80281 4.31991 0
M  V30 22521 H 2266.61 -2.26061 6.0729 0
M  V30 22522 N 2260.01 -1.38661 -0.749062 0
M  V30 22523 C 2261.24 -1.3836 -1.53831 0
M  V30 22524 C 2261.66 0.0254887 -1.88783 0
M  V30 22525 O 2261.01 0.993265 -1.53103 0
M  V30 22526 C 2261.07 -2.24345 -2.83464 0
M  V30 22527 O 2260.79 -3.59765 -2.50002 0
M  V30 22528 C 2262.29 -2.32274 -3.77576 0
M  V30 22529 H 2259.51 -0.473091 -0.475842 0
M  V30 22530 H 2262.05 -1.82298 -0.926694 0
M  V30 22531 H 2260.21 -1.83857 -3.40992 0
M  V30 22532 H 2260.62 -4.05086 -3.33174 0
M  V30 22533 H 2262.09 -2.96714 -4.65473 0
M  V30 22534 H 2262.57 -1.33772 -4.18332 0
M  V30 22535 H 2263.18 -2.73171 -3.25972 0
M  V30 22536 N 2261.49 0.977736 -1.23605 0
M  V30 22537 C 2262.73 1.73444 -1.08151 0
M  V30 22538 C 2263.1 1.88307 0.374752 0
M  V30 22539 O 2264.3 2.60809 0.650543 0
M  V30 22540 C 2262.57 3.09346 -1.78996 0
M  V30 22541 S 2264.13 4.00564 -1.79148 0
M  V30 22542 H 2260.95 0.596451 -0.386998 0
M  V30 22543 H 2263.55 1.16789 -1.56782 0
M  V30 22544 H 2262.25 2.96182 -2.84086 0
M  V30 22545 H 2261.78 3.71069 -1.30658 0
M  V30 22546 H 2263.8 4.88831 -0.851978 0
M  V30 22547 N 2262.97 1.04818 1.1769 0
M  V30 22548 C 2263.9 0.603861 2.21102 0
M  V30 22549 C 2264.92 -0.330432 1.59411 0
M  V30 22550 O 2266.11 -0.123758 1.7807 0
M  V30 22551 C 2263.21 -0.136838 3.38624 0
M  V30 22552 C 2262.38 0.807213 4.29887 0
M  V30 22553 C 2261.44 0.108452 5.26088 0
M  V30 22554 O 2260.46 0.741331 5.64352 0
M  V30 22555 N 2261.67 -1.15548 5.68884 0
M  V30 22556 H 2264.43 1.49334 2.59845 0
M  V30 22557 H 2261.99 0.92961 1.32551 0
M  V30 22558 H 2263.98 -0.614331 4.0001 0
M  V30 22559 H 2262.55 -0.927941 2.9851 0
M  V30 22560 H 2261.77 1.46441 3.6599 0
M  V30 22561 H 2263.06 1.44816 4.87756 0
M  V30 22562 H 2262.46 -1.69006 5.39864 0
M  V30 22563 H 2261.02 -1.57711 6.32432 0
M  V30 22564 N 2264.45 -1.34055 0.828678 0
M  V30 22565 C 2265.41 -2.27721 0.259967 0
M  V30 22566 C 2266.41 -1.5053 -0.565451 0
M  V30 22567 O 2267.6 -1.69989 -0.38072 0
M  V30 22568 C 2264.73 -3.34936 -0.634885 0
M  V30 22569 H 2265.93 -2.79532 1.08635 0
M  V30 22570 H 2263.48 -1.44284 0.600977 0
M  V30 22571 H 2264.22 -2.88348 -1.48411 0
M  V30 22572 H 2264 -3.92075 -0.044431 0
M  V30 22573 H 2265.49 -4.0479 -1.02641 0
M  V30 22574 N 2265.93 -0.584167 -1.46374 0
M  V30 22575 C 2267.17 -0.078746 -2.03248 0
M  V30 22576 C 2267.53 1.26761 -1.44739 0
M  V30 22577 O 2266.82 1.81842 -0.603657 0
M  V30 22578 C 2267.02 0.0438714 -3.57373 0
M  V30 22579 C 2266.84 -1.28905 -4.30829 0
M  V30 22580 C 2265.61 -1.86358 -4.6968 0
M  V30 22581 C 2267.81 -2.21257 -4.64274 0
M  V30 22582 N 2265.79 -3.13374 -5.27892 0
M  V30 22583 C 2267.17 -3.3286 -5.23072 0
M  V30 22584 C 2269.22 -2.20919 -4.46205 0
M  V30 22585 C 2267.92 -4.44261 -5.65708 0
M  V30 22586 C 2269.95 -3.3135 -4.89858 0
M  V30 22587 C 2269.31 -4.41674 -5.48729 0
M  V30 22588 H 2265.41 -0.071628 -0.778713 0
M  V30 22589 H 2267.99 -0.777386 -1.78507 0
M  V30 22590 H 2266.17 0.711682 -3.81824 0
M  V30 22591 H 2267.9 0.553811 -4.00893 0
M  V30 22592 H 2264.65 -1.39834 -4.52486 0
M  V30 22593 H 2265.08 -3.78188 -5.61519 0
M  V30 22594 H 2269.72 -1.36895 -4.00024 0
M  V30 22595 H 2267.44 -5.29026 -6.10866 0
M  V30 22596 H 2271.02 -3.32208 -4.77628 0
M  V30 22597 H 2269.9 -5.25714 -5.81889 0
M  V30 22598 N 2267.41 1.54275 -0.322027 0
M  V30 22599 C 2268.63 2.05422 0.285755 0
M  V30 22600 C 2269.06 1.19671 1.45122 0
M  V30 22601 O 2268.41 0.205473 1.80132 0
M  V30 22602 C 2268.46 3.5375 0.699497 0
M  V30 22603 O 2267.57 3.70945 1.80203 0
M  V30 22604 H 2266.91 0.66197 0.0518846 0
M  V30 22605 H 2269.44 1.99129 -0.469989 0
M  V30 22606 H 2269.45 3.95992 0.982579 0
M  V30 22607 H 2268.12 4.15619 -0.152937 0
M  V30 22608 H 2266.7 3.40609 1.51788 0
M  V30 22609 N 2268.88 0.0501669 1.5752 0
M  V30 22610 C 2270.11 -0.636962 1.97377 0
M  V30 22611 C 2270.53 -1.63643 0.927495 0
M  V30 22612 O 2269.89 -1.8097 -0.109378 0
M  V30 22613 C 2269.94 -1.30117 3.36306 0
M  V30 22614 O 2269.04 -2.41683 3.3416 0
M  V30 22615 H 2268.38 -0.165667 0.643001 0
M  V30 22616 H 2270.91 0.118269 2.04258 0
M  V30 22617 H 2270.92 -1.65309 3.73011 0
M  V30 22618 H 2269.6 -0.568673 4.11994 0
M  V30 22619 H 2268.18 -2.08446 3.092 0
M  V30 22620 N 2270.36 -1.56011 -0.223207 0
M  V30 22621 C 2271.29 -1.87291 -1.30374 0
M  V30 22622 C 2272.27 -0.730138 -1.45285 0
M  V30 22623 O 2273.46 -0.97833 -1.61124 0
M  V30 22624 C 2270.58 -2.07847 -2.67427 0
M  V30 22625 C 2269.63 -3.30531 -2.6954 0
M  V30 22626 S 2270.46 -4.86504 -2.23773 0
M  V30 22627 C 2271.62 -5.10094 -3.62705 0
M  V30 22628 H 2271.85 -2.78648 -1.03647 0
M  V30 22629 H 2269.38 -1.48425 -0.425367 0
M  V30 22630 H 2271.34 -2.20374 -3.46332 0
M  V30 22631 H 2270 -1.1729 -2.91379 0
M  V30 22632 H 2269.2 -3.41953 -3.70248 0
M  V30 22633 H 2268.8 -3.16852 -1.98697 0
M  V30 22634 H 2271.09 -4.98891 -4.58382 0
M  V30 22635 H 2272.03 -6.11987 -3.56199 0
M  V30 22636 H 2272.44 -4.37835 -3.56316 0
M  V30 22637 N 2271.84 0.489844 -1.49794 0
M  V30 22638 C 2273.07 1.26699 -1.6357 0
M  V30 22639 C 2273.48 1.86213 -0.311498 0
M  V30 22640 O 2272.84 1.68359 0.704386 0
M  V30 22641 C 2272.89 2.38924 -2.71289 0
M  V30 22642 O 2272.61 1.81854 -3.98573 0
M  V30 22643 C 2274.11 3.30115 -2.9587 0
M  V30 22644 H 2271.33 0.383871 -0.550349 0
M  V30 22645 H 2273.88 0.58683 -1.95899 0
M  V30 22646 H 2272.03 3.02749 -2.41706 0
M  V30 22647 H 2272.45 2.55614 -4.57997 0
M  V30 22648 H 2273.92 4.05114 -3.74948 0
M  V30 22649 H 2274.4 3.87779 -2.06213 0
M  V30 22650 H 2275 2.72046 -3.26912 0
M  V30 22651 N 2273.32 1.39056 0.741698 0
M  V30 22652 C 2274.73 1.3207 1.31963 0
M  V30 22653 C 2275.08 -0.0180453 1.96192 0
M  V30 22654 O 2274.2 -0.920162 1.95862 0
M  V30 22655 C 2274.8 2.39185 2.3995 0
M  V30 22656 C 2273.36 2.35741 2.93434 0
M  V30 22657 C 2272.51 2.21425 1.66932 0
M  V30 22658 H 2275.46 1.49241 0.539695 0
M  V30 22659 H 2275.48 2.05587 3.20178 0
M  V30 22660 H 2274.99 3.36609 1.93174 0
M  V30 22661 H 2273.09 1.41935 3.44507 0
M  V30 22662 H 2273.2 3.30341 3.47004 0
M  V30 22663 H 2271.57 1.68481 1.91014 0
M  V30 22664 H 2272.35 3.20808 1.22218 0
M  V30 22665 N 2274.8 -0.971167 1.24121 0
M  V30 22666 C 2275.75 -2.05018 0.997587 0
M  V30 22667 C 2276.73 -1.60789 -0.0597464 0
M  V30 22668 O 2277.92 -1.76333 0.153547 0
M  V30 22669 C 2275.05 -3.38005 0.600616 0
M  V30 22670 C 2274.14 -3.88806 1.69384 0
M  V30 22671 N 2274.53 -4.12581 2.92593 0
M  V30 22672 C 2272.83 -4.17432 1.57055 0
M  V30 22673 C 2273.53 -4.54189 3.63439 0
M  V30 22674 N 2272.5 -4.59159 2.90987 0
M  V30 22675 H 2276.3 -2.2137 1.9332 0
M  V30 22676 H 2273.82 -1.15468 1.14196 0
M  V30 22677 H 2275.82 -4.14905 0.407323 0
M  V30 22678 H 2274.48 -3.23041 -0.327846 0
M  V30 22679 H 2275.49 -4.00133 3.28807 0
M  V30 22680 H 2272.16 -4.11421 0.70987 0
M  V30 22681 H 2273.55 -4.81025 4.6911 0
M  V30 22682 N 2276.27 -1.05441 -1.17133 0
M  V30 22683 C 2277.5 -0.786429 -1.91912 0
M  V30 22684 C 2277.92 0.652203 -1.76431 0
M  V30 22685 O 2277.28 1.45343 -1.08375 0
M  V30 22686 C 2277.33 -1.17503 -3.40918 0
M  V30 22687 O 2276.43 -0.308661 -4.11243 0
M  V30 22688 H 2275.78 -0.288168 -0.59821 0
M  V30 22689 H 2278.31 -1.40792 -1.48454 0
M  V30 22690 H 2278.32 -1.14287 -3.91666 0
M  V30 22691 H 2276.99 -2.22298 -3.51506 0
M  V30 22692 H 2275.57 -0.401635 -3.70731 0
M  V30 22693 N 2277.75 1.33613 -0.835776 0
M  V30 22694 C 2278.7 2.26745 -0.238896 0
M  V30 22695 C 2279.69 1.4912 0.604317 0
M  V30 22696 O 2280.88 1.71004 0.456792 0
M  V30 22697 C 2278.01 3.38233 0.587665 0
M  V30 22698 C 2277.09 4.23259 -0.266886 0
M  V30 22699 N 2277.48 4.87614 -1.34411 0
M  V30 22700 C 2275.78 4.45968 -0.0533915 0
M  V30 22701 C 2276.48 5.50881 -1.86828 0
M  V30 22702 N 2275.46 5.30855 -1.17022 0
M  V30 22703 H 2279.26 2.74014 -1.06271 0
M  V30 22704 H 2276.78 1.47482 -0.679907 0
M  V30 22705 H 2278.77 4.03937 1.03154 0
M  V30 22706 H 2277.43 2.92512 1.40949 0
M  V30 22707 H 2278.44 4.88258 -1.72699 0
M  V30 22708 H 2275.12 4.10975 0.73524 0
M  V30 22709 H 2276.51 6.12135 -2.77021 0
M  V30 22710 N 2279.23 0.591922 1.46062 0
M  V30 22711 C 2280.46 0.0850678 2.07225 0
M  V30 22712 C 2280.88 -1.21461 1.43628 0
M  V30 22713 O 2280.24 -1.73583 0.523336 0
M  V30 22714 C 2280.29 -0.0575933 3.60554 0
M  V30 22715 O 2279.39 -1.11181 3.9713 0
M  V30 22716 H 2278.73 0.0669684 0.660614 0
M  V30 22717 H 2281.26 0.817483 1.87559 0
M  V30 22718 H 2281.27 -0.260829 4.07165 0
M  V30 22719 H 2279.95 0.891488 4.06233 0
M  V30 22720 H 2278.52 -0.886292 3.62214 0
M  V30 22721 N 2280.71 -1.54102 0.330204 0
M  V30 22722 C 2282.12 -1.59585 -0.022209 0
M  V30 22723 C 2282.32 -1.34656 -1.499 0
M  V30 22724 O 2281.38 -1.13425 -2.2559 0
M  V30 22725 C 2282.69 -2.98001 0.401984 0
M  V30 22726 C 2284.24 -3.11001 0.353199 0
M  V30 22727 C 2284.72 -4.51773 0.752656 0
M  V30 22728 N 2286.21 -4.57783 0.706319 0
M  V30 22729 C 2286.94 -5.64832 0.987516 0
M  V30 22730 N 2286.44 -6.79792 1.33619 0
M  V30 22731 N 2288.23 -5.54642 0.912638 0
M  V30 22732 H 2280.38 -1.68562 1.29231 0
M  V30 22733 H 2282.65 -0.788741 0.52592 0
M  V30 22734 H 2282.35 -3.21265 1.43115 0
M  V30 22735 H 2282.23 -3.765 -0.229633 0
M  V30 22736 H 2284.61 -2.87469 -0.666772 0
M  V30 22737 H 2284.69 -2.34591 1.01984 0
M  V30 22738 H 2284.34 -4.76039 1.77057 0
M  V30 22739 H 2284.27 -5.26562 0.0636335 0
M  V30 22740 H 2286.76 -3.75224 0.448956 0
M  V30 22741 H 2287.07 -7.57383 1.53595 0
M  V30 22742 H 2285.42 -6.81272 1.37451 0
M  V30 22743 H 2288.61 -4.63709 0.639683 0
M  V30 22744 H 2288.78 -6.3798 1.13514 0
M  V30 22745 N 2282.19 -0.0585199 -1.57491 0
M  V30 22746 C 2283.41 0.623003 -1.97297 0
M  V30 22747 C 2283.83 1.63944 -0.936367 0
M  V30 22748 O 2283.19 1.82331 0.0785661 0
M  V30 22749 C 2283.24 1.3034 -3.37185 0
M  V30 22750 O 2282.96 0.327653 -4.36873 0
M  V30 22751 C 2284.46 2.07399 -3.91791 0
M  V30 22752 H 2281.68 0.169815 -0.649156 0
M  V30 22753 H 2284.22 -0.126995 -2.04105 0
M  V30 22754 H 2282.38 2.00457 -3.31505 0
M  V30 22755 H 2282.79 0.814178 -5.18142 0
M  V30 22756 H 2284.27 2.50416 -4.91931 0
M  V30 22757 H 2284.74 2.92516 -3.27614 0
M  V30 22758 H 2285.35 1.42177 -4.00831 0
M  V30 22759 N 2283.66 1.56128 0.21493 0
M  V30 22760 C 2285.08 1.69563 0.781357 0
M  V30 22761 C 2285.43 0.661682 1.84706 0
M  V30 22762 O 2284.55 -0.18589 2.156 0
M  V30 22763 C 2285.15 3.07418 1.42406 0
M  V30 22764 C 2283.71 3.22686 1.9378 0
M  V30 22765 C 2282.85 2.65498 0.800391 0
M  V30 22766 H 2285.8 1.58697 -0.00983423 0
M  V30 22767 H 2285.82 3.03644 2.29304 0
M  V30 22768 H 2285.34 3.82649 0.648192 0
M  V30 22769 H 2283.44 2.52336 2.74148 0
M  V30 22770 H 2283.55 4.29976 2.11322 0
M  V30 22771 H 2281.91 2.24152 1.20946 0
M  V30 22772 H 2282.7 3.4328 0.0370867 0
M  V30 22773 N 2285.14 -0.481893 1.50052 0
M  V30 22774 C 2286.05 -1.60725 1.70893 0
M  V30 22775 C 2287.07 -1.63626 0.591817 0
M  V30 22776 O 2288.24 -1.81695 0.868849 0
M  V30 22777 C 2285.31 -2.97002 1.7886 0
M  V30 22778 C 2284.37 -3.04576 3.02543 0
M  V30 22779 C 2283.6 -4.34352 3.1012 0
M  V30 22780 O 2283.83 -5.24245 2.24774 0
M  V30 22781 O 2282.76 -4.47294 4.02755 0
M  V30 22782 H 2286.59 -1.46067 2.66267 0
M  V30 22783 H 2284.17 -0.660241 1.34019 0
M  V30 22784 H 2286.05 -3.77961 1.86343 0
M  V30 22785 H 2284.73 -3.11882 0.866683 0
M  V30 22786 H 2283.64 -2.22734 3.00567 0
M  V30 22787 H 2284.97 -2.94629 3.94277 0
M  V30 22788 N 2286.62 -1.39448 -0.734313 0
M  V30 22789 C 2287.85 -1.39781 -1.52134 0
M  V30 22790 C 2288.26 0.00925986 -1.89198 0
M  V30 22791 O 2287.6 0.991141 -1.54668 0
M  V30 22792 C 2287.66 -2.20729 -2.83758 0
M  V30 22793 C 2287.33 -3.69352 -2.69125 0
M  V30 22794 C 2288.32 -4.62417 -2.37627 0
M  V30 22795 C 2286.01 -4.12945 -2.85974 0
M  V30 22796 C 2288 -5.97058 -2.23161 0
M  V30 22797 C 2285.69 -5.47662 -2.71127 0
M  V30 22798 C 2286.69 -6.39532 -2.39766 0
M  V30 22799 O 2286.38 -7.71767 -2.25012 0
M  V30 22800 H 2286.11 -0.479297 -0.476708 0
M  V30 22801 H 2288.66 -1.83895 -0.91498 0
M  V30 22802 H 2286.89 -1.71365 -3.46657 0
M  V30 22803 H 2288.58 -2.13232 -3.45379 0
M  V30 22804 H 2289.35 -4.30038 -2.2426 0
M  V30 22805 H 2285.23 -3.4177 -3.09377 0
M  V30 22806 H 2288.77 -6.68732 -1.98605 0
M  V30 22807 H 2284.67 -5.79631 -2.84073 0
M  V30 22808 H 2285.44 -7.82499 -2.40077 0
M  V30 22809 N 2288.1 0.964571 -1.24635 0
M  V30 22810 C 2289.33 1.7403 -1.11342 0
M  V30 22811 C 2289.74 1.86182 0.336561 0
M  V30 22812 O 2289.08 1.3518 1.24386 0
M  V30 22813 C 2289.14 3.17678 -1.68289 0
M  V30 22814 C 2288.81 3.28987 -3.17201 0
M  V30 22815 C 2289.8 3.14071 -4.14313 0
M  V30 22816 C 2287.49 3.53127 -3.57221 0
M  V30 22817 C 2289.48 3.23125 -5.49426 0
M  V30 22818 C 2287.17 3.61819 -4.92474 0
M  V30 22819 C 2288.17 3.4683 -5.88386 0
M  V30 22820 O 2287.85 3.55185 -7.21179 0
M  V30 22821 H 2287.59 0.552465 -0.389561 0
M  V30 22822 H 2290.14 1.21944 -1.65284 0
M  V30 22823 H 2288.37 3.71084 -1.08784 0
M  V30 22824 H 2290.06 3.77071 -1.50241 0
M  V30 22825 H 2290.83 2.95302 -3.84736 0
M  V30 22826 H 2286.7 3.63858 -2.8307 0
M  V30 22827 H 2290.25 3.11344 -6.24268 0
M  V30 22828 H 2286.15 3.80102 -5.21721 0
M  V30 22829 H 2286.91 3.7188 -7.29142 0
M  V30 22830 N 2289.58 1.0606 1.16572 0
M  V30 22831 C 2290.99 0.800661 1.6866 0
M  V30 22832 C 2291.34 -0.676048 1.84185 0
M  V30 22833 O 2290.46 -1.52464 1.5357 0
M  V30 22834 C 2291.06 1.44682 3.06354 0
M  V30 22835 C 2289.62 1.23471 3.55573 0
M  V30 22836 C 2288.76 1.52481 2.31613 0
M  V30 22837 H 2291.72 1.22439 1.00967 0
M  V30 22838 H 2291.74 0.860853 3.70634 0
M  V30 22839 H 2291.25 2.52157 2.95023 0
M  V30 22840 H 2289.35 0.179592 3.72167 0
M  V30 22841 H 2289.46 1.94578 4.37808 0
M  V30 22842 H 2287.83 0.945251 2.3651 0
M  V30 22843 H 2288.61 2.6111 2.22882 0
M  V30 22844 N 2291.06 -1.33168 0.84285 0
M  V30 22845 C 2292 -2.31056 0.267536 0
M  V30 22846 C 2293 -1.58318 -0.602654 0
M  V30 22847 O 2294.2 -1.73152 -0.491773 0
M  V30 22848 H 2290.58 -0.748938 0.0677944 0
M  V30 22849 H 2292.55 -2.77083 1.10759 0
M  V30 22850 C 2291.3 -3.43493 -0.539271 0
M  V30 22851 H 2290.62 -3.99617 0.12102 0
M  V30 22852 H 2292.06 -4.14172 -0.907597 0
M  V30 22853 C 2290.52 -2.897 -1.71976 0
M  V30 22854 O 2291.05 -2.86216 -2.81857 0
M  V30 22855 N 2289.26 -2.46255 -1.54295 0
M  V30 22856 H 2288.8 -2.49288 -0.649099 0
M  V30 22857 H 2288.76 -2.10616 -2.33427 0
M  V30 22858 N 2292.53 -0.599659 -1.45746 0
M  V30 22859 C 2293.5 0.113794 -2.28917 0
M  V30 22860 C 2294.5 0.802705 -1.39332 0
M  V30 22861 O 2295.69 0.652074 -1.61535 0
M  V30 22862 C 2292.82 1.17108 -3.20154 0
M  V30 22863 H 2294.01 -0.617341 -2.93477 0
M  V30 22864 H 2291.56 -0.358354 -1.52136 0
M  V30 22865 H 2292.3 1.93324 -2.60377 0
M  V30 22866 H 2292.08 0.6814 -3.86134 0
M  V30 22867 H 2293.57 1.67098 -3.82711 0
M  V30 22868 N 2294.01 1.53925 -0.338371 0
M  V30 22869 C 2295.26 2.00431 0.25921 0
M  V30 22870 C 2295.58 1.22794 1.51481 0
M  V30 22871 O 2294.85 0.333713 1.93037 0
M  V30 22872 H 2293.43 0.740441 0.0987715 0
M  V30 22873 H 2296.09 1.89434 -0.458335 0
M  V30 22874 H 2295.19 3.07983 0.50528 0
M  V30 22875 N 2295.49 0.0668712 1.57458 0
M  V30 22876 C 2296.42 -0.899726 2.1547 0
M  V30 22877 C 2297.4 -1.31379 1.08044 0
M  V30 22878 O 2298.59 -1.38572 1.36057 0
M  V30 22879 C 2295.72 -2.16907 2.71236 0
M  V30 22880 C 2294.67 -1.89456 3.83784 0
M  V30 22881 C 2294 -3.22978 4.26133 0
M  V30 22882 C 2295.3 -1.20372 5.0824 0
M  V30 22883 H 2296.99 -0.416477 2.96489 0
M  V30 22884 H 2294.54 -0.198883 1.4262 0
M  V30 22885 H 2296.49 -2.84939 3.10463 0
M  V30 22886 H 2295.21 -2.67465 1.8743 0
M  V30 22887 H 2293.87 -1.2383 3.45053 0
M  V30 22888 H 2293.52 -3.71368 3.39256 0
M  V30 22889 H 2293.22 -3.05404 5.01998 0
M  V30 22890 H 2294.74 -3.92217 4.67973 0
M  V30 22891 H 2296.16 -1.78466 5.44814 0
M  V30 22892 H 2294.55 -1.13073 5.89351 0
M  V30 22893 H 2295.62 -0.182068 4.84558 0
M  V30 22894 N 2296.97 -1.56239 -0.206647 0
M  V30 22895 C 2298.22 -1.79139 -0.926933 0
M  V30 22896 C 2298.53 -0.638076 -1.849 0
M  V30 22897 O 2299.74 -0.751079 -2.60904 0
M  V30 22898 C 2298.19 -3.17297 -1.69854 0
M  V30 22899 C 2297.8 -4.40397 -0.821878 0
M  V30 22900 C 2299.54 -3.49514 -2.40915 0
M  V30 22901 C 2297.45 -5.69578 -1.59169 0
M  V30 22902 H 2296.38 -0.667922 -0.349852 0
M  V30 22903 H 2299.03 -1.82611 -0.180455 0
M  V30 22904 H 2297.41 -3.08043 -2.48848 0
M  V30 22905 H 2298.59 -4.60745 -0.0714209 0
M  V30 22906 H 2296.9 -4.15804 -0.222668 0
M  V30 22907 H 2299.5 -4.4326 -2.99039 0
M  V30 22908 H 2299.84 -2.72712 -3.14537 0
M  V30 22909 H 2300.38 -3.60164 -1.68899 0
M  V30 22910 H 2297.11 -6.49313 -0.898475 0
M  V30 22911 H 2296.63 -5.53267 -2.31638 0
M  V30 22912 H 2298.31 -6.10285 -2.14851 0
M  V30 22913 N 2298.45 0.473929 -1.50305 0
M  V30 22914 C 2299.38 1.59094 -1.63598 0
M  V30 22915 C 2300.36 1.55224 -0.484169 0
M  V30 22916 O 2301.54 1.74888 -0.703302 0
M  V30 22917 C 2298.67 2.97666 -1.61594 0
M  V30 22918 C 2297.71 3.197 -2.82301 0
M  V30 22919 S 2298.55 2.99906 -4.4364 0
M  V30 22920 C 2299.7 4.40824 -4.44325 0
M  V30 22921 H 2299.94 1.47579 -2.58085 0
M  V30 22922 H 2297.47 0.661062 -1.39533 0
M  V30 22923 H 2299.43 3.77557 -1.61123 0
M  V30 22924 H 2298.09 3.06574 -0.683475 0
M  V30 22925 H 2297.28 4.20926 -2.77195 0
M  V30 22926 H 2296.88 2.47577 -2.80324 0
M  V30 22927 H 2299.17 5.33407 -4.17712 0
M  V30 22928 H 2300.12 4.50974 -5.45919 0
M  V30 22929 H 2300.53 4.2277 -3.74066 0
M  V30 22930 N 2299.92 1.39835 0.726907 0
M  V30 22931 C 2300.87 1.39357 1.86232 0
M  V30 22932 C 2301.87 0.275585 1.67143 0
M  V30 22933 O 2303.07 0.44604 1.74386 0
M  V30 22934 H 2299.45 0.435351 0.613167 0
M  V30 22935 H 2301.42 2.35113 1.83752 0
M  V30 22936 C 2300.17 1.2619 3.23993 0
M  V30 22937 H 2299.49 2.1149 3.39282 0
M  V30 22938 H 2300.93 1.29914 4.03607 0
M  V30 22939 C 2299.39 -0.0289426 3.36888 0
M  V30 22940 O 2299.92 -0.996122 3.89153 0
M  V30 22941 N 2298.12 -0.0946926 2.90446 0
M  V30 22942 H 2297.67 0.693079 2.48101 0
M  V30 22943 H 2297.63 -0.95788 2.99453 0
M  V30 22944 N 2301.4 -0.957948 1.25144 0
M  V30 22945 C 2302.63 -1.73437 1.12264 0
M  V30 22946 C 2303.04 -1.86358 -0.326682 0
M  V30 22947 O 2302.38 -1.35838 -1.23668 0
M  V30 22948 C 2302.44 -3.16781 1.69971 0
M  V30 22949 C 2302.11 -3.273 3.18942 0
M  V30 22950 C 2303.11 -3.11869 4.15973 0
M  V30 22951 C 2300.79 -3.51227 3.59089 0
M  V30 22952 C 2302.78 -3.20207 5.51132 0
M  V30 22953 C 2300.47 -3.59202 4.94386 0
M  V30 22954 C 2301.47 -3.43705 5.90217 0
M  V30 22955 O 2301.16 -3.51355 7.23052 0
M  V30 22956 H 2300.89 -0.550392 0.392486 0
M  V30 22957 H 2303.44 -1.21065 1.65929 0
M  V30 22958 H 2301.67 -3.70501 1.1075 0
M  V30 22959 H 2303.36 -3.76269 1.52238 0
M  V30 22960 H 2304.13 -2.93257 3.86297 0
M  V30 22961 H 2300.01 -3.62351 2.84996 0
M  V30 22962 H 2303.55 -3.08029 6.25911 0
M  V30 22963 H 2299.45 -3.7733 5.23729 0
M  V30 22964 H 2300.22 -3.68007 7.31104 0
M  V30 22965 N 2302.88 -1.06677 -1.16008 0
M  V30 22966 C 2304.12 -0.79507 -1.88303 0
M  V30 22967 C 2304.48 0.666434 -1.80063 0
M  V30 22968 O 2305.68 1.05289 -2.47321 0
M  V30 22969 C 2303.96 -1.28082 -3.33661 0
M  V30 22970 S 2305.51 -1.13876 -4.23766 0
M  V30 22971 H 2302.33 -0.288308 -0.649923 0
M  V30 22972 H 2304.93 -1.36448 -1.40008 0
M  V30 22973 H 2303.64 -2.33933 -3.37199 0
M  V30 22974 H 2303.17 -0.706321 -3.87007 0
M  V30 22975 H 2305.18 -0.0720541 -4.96148 0
M  V30 22976 N 2304.36 1.32719 -0.8499 0
M  V30 22977 C 2305.77 1.50218 -0.539128 0
M  V30 22978 C 2305.97 1.7869 0.931239 0
M  V30 22979 O 2305.03 1.85366 1.71452 0
M  V30 22980 C 2306.34 2.64952 -1.42201 0
M  V30 22981 C 2307.89 2.78837 -1.42194 0
M  V30 22982 C 2308.37 3.96644 -2.28992 0
M  V30 22983 N 2309.86 4.03898 -2.26761 0
M  V30 22984 C 2310.59 4.94276 -2.90653 0
M  V30 22985 N 2310.09 5.89693 -3.63639 0
M  V30 22986 N 2311.88 4.8736 -2.80066 0
M  V30 22987 H 2304.03 1.12503 -1.80158 0
M  V30 22988 H 2306.29 0.554071 -0.769226 0
M  V30 22989 H 2306 2.50627 -2.46737 0
M  V30 22990 H 2305.87 3.60622 -1.10597 0
M  V30 22991 H 2308.26 2.92588 -0.384242 0
M  V30 22992 H 2308.34 1.83895 -1.7781 0
M  V30 22993 H 2307.99 3.83652 -3.32826 0
M  V30 22994 H 2307.92 4.90853 -1.9071 0
M  V30 22995 H 2310.41 3.35617 -1.73694 0
M  V30 22996 H 2310.72 6.55342 -4.09569 0
M  V30 22997 H 2309.07 5.89735 -3.67747 0
M  V30 22998 H 2312.26 4.11785 -2.226 0
M  V30 22999 H 2312.43 5.57593 -3.30142 0
M  V30 23000 N 2305.84 0.60738 1.45426 0
M  V30 23001 C 2306.78 -0.12407 2.32269 0
M  V30 23002 C 2307.78 -0.859829 1.45957 0
M  V30 23003 O 2308.98 -0.775418 1.62442 0
M  V30 23004 H 2305.36 -0.0588707 0.749692 0
M  V30 23005 H 2307.33 0.626813 2.91742 0
M  V30 23006 C 2306.08 -1.10815 3.29569 0
M  V30 23007 H 2305.4 -0.551422 3.95979 0
M  V30 23008 H 2306.84 -1.58988 3.93063 0
M  V30 23009 C 2305.3 -2.1816 2.56725 0
M  V30 23010 O 2305.83 -3.25898 2.34848 0
M  V30 23011 N 2304.04 -1.93438 2.16864 0
M  V30 23012 H 2303.58 -1.0583 2.34857 0
M  V30 23013 H 2303.54 -2.65466 1.68449 0
M  V30 23014 N 2307.31 -1.53743 0.34653 0
M  V30 23015 C 2308.73 -1.86199 -0.136746 0
M  V30 23016 C 2309.08 -1.26768 -1.49747 0
M  V30 23017 O 2308.2 -0.582392 -2.08416 0
M  V30 23018 C 2308.8 -3.3784 -0.254907 0
M  V30 23019 C 2307.36 -3.70162 -0.682417 0
M  V30 23020 C 2306.5 -2.76702 0.182029 0
M  V30 23021 H 2309.45 -1.48263 0.56602 0
M  V30 23022 H 2309.47 -3.64795 -1.08188 0
M  V30 23023 H 2308.99 -3.81065 0.735593 0
M  V30 23024 H 2307.09 -3.32483 -1.68184 0
M  V30 23025 H 2307.2 -4.76787 -0.470242 0
M  V30 23026 H 2305.56 -2.52337 -0.346106 0
M  V30 23027 H 2306.35 -3.22758 1.16972 0
M  V30 23028 N 2308.79 -0.0752207 -1.5742 0
M  V30 23029 C 2310.07 0.634296 -1.8503 0
M  V30 23030 C 2310.45 1.8758 -0.968338 0
M  V30 23031 O 2309.8 2.28472 -0.035515 0
M  V30 23032 C 2310.01 0.968683 -3.35287 0
M  V30 23033 C 2311.36 1.3407 -4.02878 0
M  V30 23034 O 2312.38 1.06031 -3.40053 0
M  V30 23035 O 2311.24 1.86497 -5.13694 0
M  V30 23036 H 2308.33 0.315374 -0.764505 0
M  V30 23037 H 2310.88 -0.106412 -1.69366 0
M  V30 23038 H 2309.65 0.0870688 -3.91203 0
M  V30 23039 H 2309.27 1.76604 -3.56226 0
M  V30 23040 N 2310.27 1.56347 0.198358 0
M  V30 23041 C 2311.23 1.93433 1.22949 0
M  V30 23042 C 2312.23 0.815116 1.38609 0
M  V30 23043 O 2313.42 1.08258 1.36477 0
M  V30 23044 C 2310.56 2.20551 2.59942 0
M  V30 23045 H 2311.75 2.85678 0.912576 0
M  V30 23046 H 2309.3 1.49986 0.439744 0
M  V30 23047 H 2310.04 1.30932 2.96694 0
M  V30 23048 H 2309.82 3.02107 2.49948 0
M  V30 23049 H 2311.31 2.50259 3.34306 0
M  V30 23050 N 2311.75 -0.465951 1.50554 0
M  V30 23051 C 2312.99 -1.21946 1.6204 0
M  V30 23052 C 2313.33 -1.91509 0.32215 0
M  V30 23053 O 2312.6 -1.82349 -0.676691 0
M  V30 23054 C 2312.89 -2.25907 2.80425 0
M  V30 23055 C 2312.74 -1.60615 4.20146 0
M  V30 23056 C 2314.06 -3.27171 2.94359 0
M  V30 23057 H 2311.18 -0.441987 0.589759 0
M  V30 23058 H 2313.82 -0.512538 1.82956 0
M  V30 23059 H 2311.97 -2.86198 2.62722 0
M  V30 23060 H 2313.64 -1.03881 4.49451 0
M  V30 23061 H 2311.88 -0.909137 4.24166 0
M  V30 23062 H 2312.55 -2.36187 4.98919 0
M  V30 23063 H 2315.03 -2.76907 3.10583 0
M  V30 23064 H 2313.91 -3.97236 3.78807 0
M  V30 23065 H 2314.17 -3.91597 2.05193 0
M  V30 23066 N 2313.23 -1.40218 -0.719481 0
M  V30 23067 C 2314.19 -1.3993 -1.81527 0
M  V30 23068 C 2315.19 -0.29375 -1.58094 0
M  V30 23069 O 2316.38 -0.552458 -1.65208 0
M  V30 23070 C 2313.51 -1.18721 -3.19559 0
M  V30 23071 H 2314.7 -2.37454 -1.83182 0
M  V30 23072 H 2312.26 -1.2601 -0.924724 0
M  V30 23073 H 2312.99 -0.219423 -3.23557 0
M  V30 23074 H 2312.78 -1.98799 -3.37967 0
M  V30 23075 H 2314.27 -1.21298 -3.99595 0
M  V30 23076 N 2314.7 0.951297 -1.25651 0
M  V30 23077 C 2315.67 2.03005 -1.06402 0
M  V30 23078 C 2316.67 1.60792 -0.0157077 0
M  V30 23079 O 2317.86 1.72276 -0.2582 0
M  V30 23080 C 2314.99 3.35284 -0.616243 0
M  V30 23081 H 2316.18 2.21514 -2.02168 0
M  V30 23082 H 2313.74 1.12885 -1.08105 0
M  V30 23083 H 2314.47 3.22472 0.343861 0
M  V30 23084 H 2314.26 3.67272 -1.37308 0
M  V30 23085 H 2315.75 4.14558 -0.503105 0
M  V30 23086 N 2316.18 1.07291 1.1544 0
M  V30 23087 C 2317.59 0.818505 1.67802 0
M  V30 23088 C 2317.94 -0.656475 1.84891 0
M  V30 23089 O 2317.07 -1.50826 1.55179 0
M  V30 23090 C 2317.66 1.47923 3.04802 0
M  V30 23091 C 2316.22 1.27235 3.54243 0
M  V30 23092 C 2315.37 1.54929 2.29983 0
M  V30 23093 H 2318.32 1.23503 0.996625 0
M  V30 23094 H 2318.34 0.900115 3.697 0
M  V30 23095 H 2317.85 2.55272 2.92332 0
M  V30 23096 H 2315.96 0.219055 3.71956 0
M  V30 23097 H 2316.07 1.99211 4.3572 0
M  V30 23098 H 2314.43 0.970283 2.35494 0
M  V30 23099 H 2315.22 2.63459 2.201 0
M  V30 23100 N 2317.66 -1.32267 0.856927 0
M  V30 23101 C 2318.89 -2.01071 0.474785 0
M  V30 23102 C 2319.3 -1.64555 -0.933717 0
M  V30 23103 O 2318.64 -0.864017 -1.62112 0
M  V30 23104 C 2318.7 -3.5547 0.536808 0
M  V30 23105 C 2318.37 -4.1542 1.90461 0
M  V30 23106 C 2319.36 -4.33481 2.87037 0
M  V30 23107 C 2317.05 -4.51443 2.20237 0
M  V30 23108 C 2319.04 -4.86737 4.11541 0
M  V30 23109 C 2316.73 -5.04404 3.44993 0
M  V30 23110 C 2317.73 -5.21999 4.40461 0
M  V30 23111 O 2317.42 -5.73827 5.63008 0
M  V30 23112 H 2317.15 -0.650253 0.184789 0
M  V30 23113 H 2319.7 -1.69769 1.15618 0
M  V30 23114 H 2317.93 -3.86175 -0.201452 0
M  V30 23115 H 2319.62 -4.05544 0.169946 0
M  V30 23116 H 2320.39 -4.05981 2.65338 0
M  V30 23117 H 2316.27 -4.37031 1.46713 0
M  V30 23118 H 2319.81 -5.00386 4.86065 0
M  V30 23119 H 2315.71 -5.31335 3.66542 0
M  V30 23120 H 2316.48 -5.92216 5.64997 0
M  V30 23121 N 2319.14 -0.615084 -1.45102 0
M  V30 23122 C 2320.38 -0.116318 -2.04069 0
M  V30 23123 C 2320.74 1.23258 -1.47212 0
M  V30 23124 O 2321.94 1.82251 -1.9758 0
M  V30 23125 C 2320.21 -0.0855448 -3.57298 0
M  V30 23126 S 2321.77 0.350939 -4.37394 0
M  V30 23127 H 2318.59 -0.0532308 -0.709005 0
M  V30 23128 H 2321.19 -0.814872 -1.77708 0
M  V30 23129 H 2319.9 -1.07067 -3.96188 0
M  V30 23130 H 2319.43 0.634766 -3.88245 0
M  V30 23131 H 2321.44 1.5988 -4.69737 0
M  V30 23132 N 2320.62 1.53557 -0.354678 0
M  V30 23133 C 2321.85 2.05211 0.239131 0
M  V30 23134 C 2322.26 1.22866 1.43877 0
M  V30 23135 O 2321.6 0.259597 1.81856 0
M  V30 23136 C 2321.66 3.52476 0.70719 0
M  V30 23137 C 2321.32 4.55465 -0.374293 0
M  V30 23138 C 2322.32 5.05368 -1.22063 0
M  V30 23139 C 2320.01 4.99481 -0.531411 0
M  V30 23140 C 2322 5.97878 -2.20953 0
M  V30 23141 C 2319.69 5.918 -1.52369 0
M  V30 23142 C 2320.69 6.40888 -2.36119 0
M  V30 23143 O 2320.37 7.31388 -3.33656 0
M  V30 23144 H 2320.11 0.674297 0.0479598 0
M  V30 23145 H 2322.66 1.99015 -0.508156 0
M  V30 23146 H 2320.89 3.56173 1.5059 0
M  V30 23147 H 2322.58 3.87044 1.22278 0
M  V30 23148 H 2323.34 4.72118 -1.11038 0
M  V30 23149 H 2319.22 4.60867 0.110657 0
M  V30 23150 H 2322.77 6.36116 -2.86359 0
M  V30 23151 H 2318.66 6.24465 -1.63445 0
M  V30 23152 H 2319.43 7.49354 -3.29257 0
M  V30 23153 N 2322.1 0.083568 1.57378 0
M  V30 23154 C 2323.32 -0.591536 1.98264 0
M  V30 23155 C 2323.74 -1.62433 0.962331 0
M  V30 23156 O 2323.1 -1.82433 -0.0495489 0
M  V30 23157 C 2323.15 -1.24959 3.39216 0
M  V30 23158 O 2322.87 -0.258109 4.37339 0
M  V30 23159 C 2324.37 -2.0114 3.95041 0
M  V30 23160 H 2321.59 -0.159466 0.651776 0
M  V30 23161 H 2324.13 0.159451 2.03877 0
M  V30 23162 H 2322.29 -1.95158 3.34652 0
M  V30 23163 H 2322.7 -0.731643 5.19372 0
M  V30 23164 H 2324.18 -2.42558 4.95852 0
M  V30 23165 H 2324.65 -2.87267 3.32227 0
M  V30 23166 H 2325.26 -1.35782 4.03043 0
M  V30 23167 N 2323.57 -1.5645 -0.190064 0
M  V30 23168 C 2324.99 -1.50147 -0.541104 0
M  V30 23169 C 2325.19 -0.784498 -1.85601 0
M  V30 23170 O 2324.25 -0.337095 -2.5024 0
M  V30 23171 C 2325.56 -2.94831 -0.591189 0
M  V30 23172 C 2327.11 -3.05531 -0.679678 0
M  V30 23173 C 2327.58 -4.51636 -0.760828 0
M  V30 23174 N 2329.07 -4.55808 -0.824222 0
M  V30 23175 C 2329.81 -5.66177 -0.907266 0
M  V30 23176 N 2329.3 -6.86224 -0.952301 0
M  V30 23177 N 2331.1 -5.54102 -0.944843 0
M  V30 23178 H 2323.25 -2.01476 0.672385 0
M  V30 23179 H 2325.51 -0.91708 0.240144 0
M  V30 23180 H 2325.22 -3.50367 0.305967 0
M  V30 23181 H 2325.09 -3.48459 -1.44416 0
M  V30 23182 H 2327.48 -2.50042 -1.56726 0
M  V30 23183 H 2327.56 -2.5502 0.199594 0
M  V30 23184 H 2327.2 -5.07752 0.122425 0
M  V30 23185 H 2327.13 -4.99885 -1.65597 0
M  V30 23186 H 2329.62 -3.69368 -0.798461 0
M  V30 23187 H 2329.94 -7.66088 -1.01632 0
M  V30 23188 H 2328.28 -6.88872 -0.920893 0
M  V30 23189 H 2331.47 -4.59238 -0.906532 0
M  V30 23190 H 2331.65 -6.40142 -1.0061 0
M  V30 23191 N 2325.05 0.45796 -1.50799 0
M  V30 23192 C 2326.33 1.21899 -1.5297 0
M  V30 23193 C 2326.71 2.09209 -0.281943 0
M  V30 23194 O 2326.06 2.16389 0.734038 0
M  V30 23195 C 2326.27 2.0387 -2.83263 0
M  V30 23196 C 2327.61 2.61615 -3.34429 0
M  V30 23197 O 2328.64 2.14101 -2.84674 0
M  V30 23198 O 2327.5 3.4822 -4.21195 0
M  V30 23199 H 2324.59 0.553862 -0.614139 0
M  V30 23200 H 2327.14 0.46871 -1.63099 0
M  V30 23201 H 2325.91 1.39615 -3.65545 0
M  V30 23202 H 2325.53 2.86006 -2.762 0
M  V30 23203 N 2326.53 1.40598 0.712035 0
M  V30 23204 C 2327.94 1.3484 1.29132 0
M  V30 23205 C 2328.29 0.023574 1.96186 0
M  V30 23206 O 2327.42 -0.878409 1.9777 0
M  V30 23207 C 2328.01 2.44221 2.34822 0
M  V30 23208 C 2326.57 2.41912 2.88367 0
M  V30 23209 C 2325.72 2.24916 1.62198 0
M  V30 23210 H 2328.67 1.50353 0.507917 0
M  V30 23211 H 2328.69 2.12332 3.15746 0
M  V30 23212 H 2328.2 3.40631 1.8599 0
M  V30 23213 H 2326.3 1.4921 3.41419 0
M  V30 23214 H 2326.42 3.37627 3.39919 0
M  V30 23215 H 2324.78 1.72495 1.87397 0
M  V30 23216 H 2325.56 3.23328 1.15386 0
M  V30 23217 N 2328.01 -0.94462 1.26153 0
M  V30 23218 C 2329.26 -1.68708 1.11274 0
M  V30 23219 C 2329.58 -1.91921 -0.345132 0
M  V30 23220 O 2328.85 -1.51345 -1.24384 0
M  V30 23221 H 2327.43 -0.625217 0.408794 0
M  V30 23222 H 2330.09 -1.13517 1.58429 0
M  V30 23223 H 2329.18 -2.66224 1.62884 0
M  V30 23224 N 2329.49 -1.07901 -1.1487 0
M  V30 23225 C 2330.73 -0.806758 -1.86063 0
M  V30 23226 C 2331.06 0.665674 -1.82435 0
M  V30 23227 O 2330.34 1.48896 -1.2514 0
M  V30 23228 C 2330.62 -1.32273 -3.34927 0
M  V30 23229 C 2330.48 -2.86012 -3.47156 0
M  V30 23230 C 2331.79 -0.943792 -4.29861 0
M  V30 23231 H 2328.91 -0.294537 -0.675586 0
M  V30 23232 H 2331.56 -1.33775 -1.34923 0
M  V30 23233 H 2329.71 -0.87104 -3.78609 0
M  V30 23234 H 2331.38 -3.39512 -3.12296 0
M  V30 23235 H 2329.62 -3.2393 -2.88533 0
M  V30 23236 H 2330.29 -3.17185 -4.51772 0
M  V30 23237 H 2332.77 -1.33309 -3.94167 0
M  V30 23238 H 2331.64 -1.33207 -5.32491 0
M  V30 23239 H 2331.9 0.149719 -4.41846 0
M  V30 23240 N 2330.96 1.31811 -0.863929 0
M  V30 23241 C 2332.38 1.49638 -0.55503 0
M  V30 23242 C 2332.58 1.79668 0.912234 0
M  V30 23243 O 2331.64 1.87174 1.69476 0
M  V30 23244 C 2332.95 2.63429 -1.45003 0
M  V30 23245 C 2334.5 2.77313 -1.45143 0
M  V30 23246 C 2334.97 3.94193 -2.33186 0
M  V30 23247 N 2336.46 4.0147 -2.31032 0
M  V30 23248 C 2337.2 4.91165 -2.95879 0
M  V30 23249 N 2336.69 5.85803 -3.69873 0
M  V30 23250 N 2338.49 4.84362 -2.85219 0
M  V30 23251 H 2330.64 1.10586 -1.81341 0
M  V30 23252 H 2332.9 0.545881 -0.77506 0
M  V30 23253 H 2332.61 2.47996 -2.49381 0
M  V30 23254 H 2332.48 3.59429 -1.14416 0
M  V30 23255 H 2334.87 2.92164 -0.415253 0
M  V30 23256 H 2334.95 1.81998 -1.79751 0
M  V30 23257 H 2334.59 3.80101 -3.36877 0
M  V30 23258 H 2334.52 4.88803 -1.95906 0
M  V30 23259 H 2337.01 3.33756 -1.77244 0
M  V30 23260 H 2337.33 6.50961 -4.16497 0
M  V30 23261 H 2335.67 5.85801 -3.73981 0
M  V30 23262 H 2338.86 4.09401 -2.26955 0
M  V30 23263 H 2339.04 5.5406 -3.36037 0
M  V30 23264 N 2332.44 0.62277 1.44773 0
M  V30 23265 C 2333.69 0.132606 2.02967 0
M  V30 23266 C 2334.04 -1.22879 1.48049 0
M  V30 23267 O 2333.34 -1.80178 0.651657 0
M  V30 23268 C 2333.53 0.0508952 3.57364 0
M  V30 23269 C 2333.36 1.40282 4.2726 0
M  V30 23270 C 2332.13 1.98745 4.64573 0
M  V30 23271 C 2334.33 2.33488 4.58244 0
M  V30 23272 N 2332.31 3.2726 5.19398 0
M  V30 23273 C 2333.68 3.46612 5.14063 0
M  V30 23274 C 2335.73 2.32672 4.40191 0
M  V30 23275 C 2334.44 4.59103 5.5373 0
M  V30 23276 C 2336.46 3.44221 4.80901 0
M  V30 23277 C 2335.83 4.56068 5.36826 0
M  V30 23278 H 2331.92 0.0922491 0.77654 0
M  V30 23279 H 2334.51 0.824441 1.76383 0
M  V30 23280 H 2332.68 -0.610198 3.83577 0
M  V30 23281 H 2334.41 -0.447326 4.0222 0
M  V30 23282 H 2331.17 1.51781 4.48619 0
M  V30 23283 H 2331.59 3.92942 5.51294 0
M  V30 23284 H 2336.23 1.47453 3.96254 0
M  V30 23285 H 2333.95 5.45036 5.96625 0
M  V30 23286 H 2337.54 3.44755 4.68653 0
M  V30 23287 H 2336.42 5.40957 5.67746 0
M  V30 23288 N 2333.92 -1.53367 0.362817 0
M  V30 23289 C 2334.83 -2.29362 -0.492953 0
M  V30 23290 C 2335.85 -1.35221 -1.09505 0
M  V30 23291 O 2337.02 -1.68275 -1.10659 0
M  V30 23292 C 2334.09 -3.06603 -1.6185 0
M  V30 23293 C 2333.15 -4.16407 -1.04422 0
M  V30 23294 C 2332.38 -4.89955 -2.11613 0
M  V30 23295 O 2332.6 -4.63339 -3.32676 0
M  V30 23296 O 2331.54 -5.75951 -1.74825 0
M  V30 23297 H 2335.36 -3.03441 0.125384 0
M  V30 23298 H 2332.95 -1.48857 0.12728 0
M  V30 23299 H 2334.83 -3.54845 -2.27295 0
M  V30 23300 H 2333.51 -2.35363 -2.22229 0
M  V30 23301 H 2332.41 -3.72424 -0.353754 0
M  V30 23302 H 2333.75 -4.89804 -0.485027 0
M  V30 23303 N 2335.4 -0.091913 -1.57332 0
M  V30 23304 C 2336.63 0.58017 -1.98287 0
M  V30 23305 C 2337.04 1.62458 -0.969741 0
M  V30 23306 O 2336.38 1.83634 0.0493178 0
M  V30 23307 C 2336.44 1.28876 -3.35606 0
M  V30 23308 C 2336.11 0.395479 -4.55286 0
M  V30 23309 C 2337.1 -0.355093 -5.18686 0
M  V30 23310 C 2334.79 0.314467 -5.01315 0
M  V30 23311 C 2336.78 -1.17469 -6.26482 0
M  V30 23312 C 2334.47 -0.508784 -6.08978 0
M  V30 23313 C 2335.47 -1.25201 -6.71427 0
M  V30 23314 O 2335.15 -2.06165 -7.77014 0
M  V30 23315 H 2334.89 0.160455 -0.656681 0
M  V30 23316 H 2337.44 -0.166916 -2.04721 0
M  V30 23317 H 2335.67 2.08235 -3.25845 0
M  V30 23318 H 2337.36 1.85506 -3.6103 0
M  V30 23319 H 2338.13 -0.302219 -4.84057 0
M  V30 23320 H 2334 0.882617 -4.52472 0
M  V30 23321 H 2337.55 -1.7553 -6.75156 0
M  V30 23322 H 2333.45 -0.56315 -6.43039 0
M  V30 23323 H 2334.21 -1.98813 -7.93987 0
M  V30 23324 N 2336.88 1.56548 0.181765 0
M  V30 23325 C 2338.12 1.8319 0.906679 0
M  V30 23326 C 2338.48 0.671344 1.7988 0
M  V30 23327 O 2339.68 0.817965 2.56052 0
M  V30 23328 C 2337.95 3.14909 1.69018 0
M  V30 23329 S 2339.51 3.63 2.46529 0
M  V30 23330 H 2336.33 0.642796 0.303865 0
M  V30 23331 H 2338.93 1.94768 0.169072 0
M  V30 23332 H 2337.64 3.97377 1.02564 0
M  V30 23333 H 2337.17 3.06246 2.46936 0
M  V30 23334 H 2339.18 3.29496 3.71008 0
M  V30 23335 N 2338.35 -0.449957 1.5104 0
M  V30 23336 C 2339.3 -1.56587 1.71998 0
M  V30 23337 C 2340.3 -1.58939 0.586057 0
M  V30 23338 O 2341.5 -1.62835 0.767119 0
M  V30 23339 H 2337.88 -0.519992 0.543243 0
M  V30 23340 H 2339.85 -1.36081 2.65565 0
M  V30 23341 C 2338.6 -2.94357 1.85065 0
M  V30 23342 H 2337.92 -2.93274 2.71717 0
M  V30 23343 H 2339.36 -3.71838 2.03746 0
M  V30 23344 C 2337.82 -3.31381 0.607335 0
M  V30 23345 O 2338.35 -4.00959 -0.243833 0
M  V30 23346 N 2336.56 -2.87014 0.455123 0
M  V30 23347 H 2336.1 -2.30564 1.14883 0
M  V30 23348 H 2336.06 -3.12149 -0.375556 0
M  V30 23349 N 2339.83 -1.40974 -0.704569 0
M  V30 23350 C 2340.76 -1.44876 -1.83121 0
M  V30 23351 C 2341.74 -0.308409 -1.67281 0
M  V30 23352 O 2342.93 -0.518589 -1.87148 0
M  V30 23353 C 2340.06 -1.32142 -3.21179 0
M  V30 23354 C 2339.01 -2.43894 -3.5171 0
M  V30 23355 C 2338.34 -2.16231 -4.89028 0
M  V30 23356 C 2339.64 -3.86238 -3.51593 0
M  V30 23357 H 2341.33 -2.39164 -1.80113 0
M  V30 23358 H 2338.88 -1.15116 -0.865124 0
M  V30 23359 H 2340.83 -1.33486 -3.99699 0
M  V30 23360 H 2339.56 -0.343336 -3.2479 0
M  V30 23361 H 2338.21 -2.41818 -2.75535 0
M  V30 23362 H 2337.86 -1.16787 -4.89254 0
M  V30 23363 H 2337.56 -2.91109 -5.10421 0
M  V30 23364 H 2339.09 -2.19275 -5.69869 0
M  V30 23365 H 2340.5 -3.90078 -4.20134 0
M  V30 23366 H 2338.9 -4.60725 -3.84515 0
M  V30 23367 H 2339.97 -4.15033 -2.50749 0
M  V30 23368 N 2341.31 0.937917 -1.26653 0
M  V30 23369 C 2342.54 1.71878 -1.15176 0
M  V30 23370 C 2342.95 1.86518 0.292635 0
M  V30 23371 O 2342.31 1.3749 1.20011 0
M  V30 23372 C 2342.36 3.12383 -1.81931 0
M  V30 23373 O 2342.08 2.9844 -3.20726 0
M  V30 23374 C 2343.58 4.0667 -1.76449 0
M  V30 23375 H 2340.8 0.538056 -0.40092 0
M  V30 23376 H 2343.35 1.17557 -1.67334 0
M  V30 23377 H 2341.5 3.63596 -1.33703 0
M  V30 23378 H 2341.92 3.87194 -3.53809 0
M  V30 23379 H 2343.39 5.02808 -2.2779 0
M  V30 23380 H 2343.87 4.33062 -0.731684 0
M  V30 23381 H 2344.47 3.61379 -2.24245 0
M  V30 23382 N 2342.79 1.08509 1.14296 0
M  V30 23383 C 2343.72 0.673897 2.19069 0
M  V30 23384 C 2344.73 -0.279549 1.60382 0
M  V30 23385 O 2345.92 -0.067044 1.78374 0
M  V30 23386 C 2343.02 -0.0290383 3.38888 0
M  V30 23387 C 2342.2 0.943569 4.27101 0
M  V30 23388 C 2341.25 0.275768 5.25477 0
M  V30 23389 O 2340.28 0.9205 5.61708 0
M  V30 23390 N 2341.48 -0.973913 5.72272 0
M  V30 23391 H 2344.25 1.57525 2.54963 0
M  V30 23392 H 2341.81 0.97131 1.29527 0
M  V30 23393 H 2343.8 -0.486759 4.01762 0
M  V30 23394 H 2342.37 -0.832502 3.01311 0
M  V30 23395 H 2341.59 1.5801 3.61146 0
M  V30 23396 H 2342.88 1.6026 4.82902 0
M  V30 23397 H 2342.28 -1.51745 5.44968 0
M  V30 23398 H 2340.83 -1.37511 6.37129 0
M  V30 23399 N 2344.27 -1.31351 0.870907 0
M  V30 23400 C 2345.51 -1.98469 0.488818 0
M  V30 23401 C 2345.87 -1.67331 -0.941507 0
M  V30 23402 O 2347.07 -2.27669 -1.42899 0
M  V30 23403 C 2345.34 -3.49661 0.739749 0
M  V30 23404 S 2346.9 -4.36407 0.457659 0
M  V30 23405 H 2343.72 -0.687197 0.182432 0
M  V30 23406 H 2346.32 -1.59737 1.12714 0
M  V30 23407 H 2345.03 -3.69813 1.77951 0
M  V30 23408 H 2344.56 -3.93301 0.0884596 0
M  V30 23409 H 2346.57 -4.91099 -0.709666 0
M  V30 23410 N 2345.74 -0.630439 -1.44441 0
M  V30 23411 C 2346.97 -0.13998 -2.06927 0
M  V30 23412 C 2347.39 1.1761 -1.46797 0
M  V30 23413 O 2346.75 1.72134 -0.569174 0
M  V30 23414 C 2346.8 -0.0380215 -3.6058 0
M  V30 23415 O 2345.9 1.00613 -3.99939 0
M  V30 23416 H 2345.25 -0.0844599 -0.658607 0
M  V30 23417 H 2347.78 -0.866923 -1.85326 0
M  V30 23418 H 2347.79 0.152784 -4.07714 0
M  V30 23419 H 2346.46 -0.99888 -4.03727 0
M  V30 23420 H 2345.04 0.789946 -3.64437 0
M  V30 23421 N 2347.22 1.53172 -0.370945 0
M  V30 23422 C 2348.5 1.93675 0.27372 0
M  V30 23423 C 2348.88 1.30493 1.65936 0
M  V30 23424 O 2348.23 0.466039 2.23697 0
M  V30 23425 C 2348.44 3.47543 0.31854 0
M  V30 23426 C 2349.79 4.2094 0.556318 0
M  V30 23427 O 2350.81 3.53952 0.399525 0
M  V30 23428 O 2349.67 5.39658 0.862038 0
M  V30 23429 H 2346.76 0.810284 0.165434 0
M  V30 23430 H 2349.31 1.64315 -0.424119 0
M  V30 23431 H 2348.08 3.85817 -0.652755 0
M  V30 23432 H 2347.7 3.83153 1.06206 0
M  V30 23433 N 2348.7 0.100255 1.57281 0
M  V30 23434 C 2349.66 -0.842361 2.13159 0
M  V30 23435 C 2350.66 -1.20736 1.06205 0
M  V30 23436 O 2351.85 -1.13595 1.32068 0
M  V30 23437 C 2348.99 -2.13651 2.65643 0
M  V30 23438 H 2350.18 -0.357061 2.97767 0
M  V30 23439 H 2347.73 -0.148796 1.5559 0
M  V30 23440 H 2348.47 -2.66654 1.8457 0
M  V30 23441 H 2348.25 -1.88445 3.43847 0
M  V30 23442 H 2349.74 -2.81071 3.08851 0
M  V30 23443 N 2350.18 -1.56643 -0.17346 0
M  V30 23444 C 2351.09 -1.99475 -1.23479 0
M  V30 23445 C 2352.11 -0.905778 -1.48565 0
M  V30 23446 O 2353.28 -1.21324 -1.60756 0
M  V30 23447 C 2350.35 -2.34417 -2.5544 0
M  V30 23448 C 2349.41 -3.57131 -2.38234 0
M  V30 23449 C 2348.64 -3.90398 -3.63903 0
M  V30 23450 O 2348.86 -3.24661 -4.6899 0
M  V30 23451 O 2347.8 -4.83755 -3.58141 0
M  V30 23452 H 2351.62 -2.9002 -0.901228 0
M  V30 23453 H 2349.21 -1.44482 -0.38016 0
M  V30 23454 H 2351.09 -2.57871 -3.33287 0
M  V30 23455 H 2349.77 -1.47035 -2.88379 0
M  V30 23456 H 2348.67 -3.38899 -1.58425 0
M  V30 23457 H 2350.01 -4.45049 -2.1022 0
M  V30 23458 N 2351.66 0.44194 -1.51277 0
M  V30 23459 C 2352.91 1.1894 -1.63394 0
M  V30 23460 C 2353.23 1.9183 -0.350193 0
M  V30 23461 O 2352.5 1.85366 0.633752 0
M  V30 23462 H 2351.08 0.442039 -0.602172 0
M  V30 23463 H 2353.74 0.507132 -1.88187 0
M  V30 23464 H 2352.83 1.92149 -2.45937 0
M  V30 23465 N 2353.14 1.41345 0.697083 0
M  V30 23466 C 2354.36 1.43974 1.4859 0
M  V30 23467 C 2354.78 0.0445944 1.88747 0
M  V30 23468 O 2354.14 -0.935758 1.56684 0
M  V30 23469 C 2354.19 2.34711 2.74942 0
M  V30 23470 O 2353.91 3.68796 2.36477 0
M  V30 23471 C 2355.41 2.46127 3.68695 0
M  V30 23472 H 2352.63 0.490426 0.457956 0
M  V30 23473 H 2355.17 1.85612 0.858397 0
M  V30 23474 H 2353.33 1.96386 3.33933 0
M  V30 23475 H 2353.74 4.17173 3.1791 0
M  V30 23476 H 2355.22 3.13785 4.5414 0
M  V30 23477 H 2355.69 1.49206 4.13079 0
M  V30 23478 H 2356.3 2.85081 3.15608 0
M  V30 23479 N 2354.61 -0.931187 1.27148 0
M  V30 23480 C 2355.58 -2.01287 1.09618 0
M  V30 23481 C 2356.58 -1.60747 0.0412864 0
M  V30 23482 O 2357.77 -1.71843 0.285575 0
M  V30 23483 C 2354.9 -3.34261 0.669505 0
M  V30 23484 H 2356.09 -2.18269 2.05666 0
M  V30 23485 H 2353.64 -1.11151 1.09887 0
M  V30 23486 H 2354.38 -3.22978 -0.292515 0
M  V30 23487 H 2354.16 -3.65042 1.43133 0
M  V30 23488 H 2355.65 -4.13705 0.568994 0
M  V30 23489 N 2356.09 -1.09114 -1.13719 0
M  V30 23490 C 2357.34 -0.826447 -1.85196 0
M  V30 23491 C 2357.67 0.646287 -1.8313 0
M  V30 23492 O 2356.95 1.47561 -1.26712 0
M  V30 23493 C 2357.23 -1.35818 -3.33505 0
M  V30 23494 C 2357.08 -2.89678 -3.44103 0
M  V30 23495 C 2358.4 -0.989332 -4.28836 0
M  V30 23496 H 2355.52 -0.301686 -0.672424 0
M  V30 23497 H 2358.16 -1.35199 -1.33496 0
M  V30 23498 H 2356.31 -0.911148 -3.77664 0
M  V30 23499 H 2357.98 -3.42806 -3.08678 0
M  V30 23500 H 2356.23 -3.26972 -2.85082 0
M  V30 23501 H 2356.9 -3.21959 -4.48382 0
M  V30 23502 H 2359.37 -1.37482 -3.92731 0
M  V30 23503 H 2358.25 -1.38848 -5.31049 0
M  V30 23504 H 2358.51 0.102846 -4.4198 0
M  V30 23505 N 2357.57 1.30887 -0.877861 0
M  V30 23506 C 2358.53 2.26599 -0.344305 0
M  V30 23507 C 2359.53 1.52525 0.509193 0
M  V30 23508 O 2360.72 1.71285 0.317368 0
M  V30 23509 C 2357.85 3.37061 0.510139 0
M  V30 23510 H 2359.05 2.75308 -1.18935 0
M  V30 23511 H 2356.6 1.41954 -0.654113 0
M  V30 23512 H 2357.34 2.93658 1.37606 0
M  V30 23513 H 2357.12 3.9197 -0.101116 0
M  V30 23514 H 2358.61 4.0832 0.875465 0
M  V30 23515 N 2359.05 0.638091 1.44105 0
M  V30 23516 C 2360.46 0.226927 1.85316 0
M  V30 23517 C 2360.81 -1.22322 1.53401 0
M  V30 23518 O 2359.93 -1.93166 0.975497 0
M  V30 23519 C 2360.53 0.405072 3.3637 0
M  V30 23520 C 2359.09 0.0483563 3.76369 0
M  V30 23521 C 2358.24 0.715155 2.67919 0
M  V30 23522 H 2361.19 0.842787 1.34472 0
M  V30 23523 H 2361.21 -0.353933 3.7885 0
M  V30 23524 H 2360.72 1.46059 3.59567 0
M  V30 23525 H 2358.82 -1.00516 3.58786 0
M  V30 23526 H 2358.93 0.463271 4.76855 0
M  V30 23527 H 2357.3 0.149798 2.54259 0
M  V30 23528 H 2358.08 1.77341 2.93948 0
M  V30 23529 N 2360.53 -1.52973 0.379063 0
M  V30 23530 C 2361.94 -1.86447 -0.0972197 0
M  V30 23531 C 2362.29 -1.29916 -1.47025 0
M  V30 23532 O 2361.41 -0.626469 -2.07134 0
M  V30 23533 C 2362.01 -3.38304 -0.183189 0
M  V30 23534 C 2360.57 -3.71526 -0.603747 0
M  V30 23535 C 2359.71 -2.76254 0.240681 0
M  V30 23536 H 2362.66 -1.47029 0.597341 0
M  V30 23537 H 2362.69 -3.67008 -1.00426 0
M  V30 23538 H 2362.2 -3.79419 0.816257 0
M  V30 23539 H 2360.3 -3.35976 -1.61093 0
M  V30 23540 H 2360.41 -4.77677 -0.369002 0
M  V30 23541 H 2358.78 -2.53015 -0.292503 0
M  V30 23542 H 2359.56 -3.20204 1.23792 0
M  V30 23543 N 2362 -0.108595 -1.57225 0
M  V30 23544 C 2363.23 0.559919 -1.9918 0
M  V30 23545 C 2363.65 1.60882 -0.988051 0
M  V30 23546 O 2363 1.82488 0.0205192 0
M  V30 23547 C 2363.05 1.19546 -3.41161 0
M  V30 23548 O 2362.78 0.1885 -4.37694 0
M  V30 23549 C 2364.28 1.9483 -3.98191 0
M  V30 23550 H 2361.5 0.149076 -0.65423 0
M  V30 23551 H 2364.04 -0.191866 -2.03598 0
M  V30 23552 H 2362.2 1.89809 -3.37715 0
M  V30 23553 H 2362.61 0.648922 -5.2047 0
M  V30 23554 H 2364.08 2.34639 -4.99648 0
M  V30 23555 H 2364.56 2.81945 -3.36755 0
M  V30 23556 H 2365.17 1.29353 -4.05152 0
M  V30 23557 N 2363.48 1.56732 0.16515 0
M  V30 23558 C 2364.73 1.82612 0.88208 0
M  V30 23559 C 2365.06 0.68741 1.81627 0
M  V30 23560 O 2364.34 -0.310234 1.9201 0
M  V30 23561 C 2364.62 3.18909 1.67239 0
M  V30 23562 C 2364.47 4.43317 0.76091 0
M  V30 23563 C 2365.79 3.52217 2.63878 0
M  V30 23564 H 2362.91 0.664275 0.319231 0
M  V30 23565 H 2365.55 1.89423 0.148019 0
M  V30 23566 H 2363.7 3.13234 2.29818 0
M  V30 23567 H 2365.37 4.61064 0.147515 0
M  V30 23568 H 2363.62 4.33745 0.069334 0
M  V30 23569 H 2364.29 5.35249 1.34953 0
M  V30 23570 H 2366.76 3.58385 2.11423 0
M  V30 23571 H 2365.64 4.48649 3.16237 0
M  V30 23572 H 2365.9 2.77237 3.44372 0
M  V30 23573 N 2364.96 -0.433911 1.51509 0
M  V30 23574 C 2366.19 -1.2054 1.68159 0
M  V30 23575 C 2366.6 -1.84928 0.380395 0
M  V30 23576 O 2365.96 -1.70857 -0.641416 0
M  V30 23577 C 2366.01 -2.28691 2.79969 0
M  V30 23578 O 2365.73 -1.66936 4.05048 0
M  V30 23579 C 2367.23 -3.18907 3.07918 0
M  V30 23580 H 2364.45 -0.363181 0.564217 0
M  V30 23581 H 2367 -0.513719 1.97942 0
M  V30 23582 H 2365.15 -2.9357 2.52776 0
M  V30 23583 H 2365.57 -2.3844 4.67169 0
M  V30 23584 H 2367.04 -3.90919 3.89726 0
M  V30 23585 H 2367.52 -3.79859 2.20463 0
M  V30 23586 H 2368.12 -2.59725 3.36783 0
M  V30 23587 N 2366.44 -1.41713 -0.689577 0
M  V30 23588 C 2367.85 -1.36877 -1.26971 0
M  V30 23589 C 2368.2 -0.0547825 -1.96124 0
M  V30 23590 O 2367.33 0.846835 -1.99142 0
M  V30 23591 C 2367.92 -2.47926 -2.30907 0
M  V30 23592 C 2366.48 -2.46469 -2.84482 0
M  V30 23593 C 2365.63 -2.27468 -1.58599 0
M  V30 23594 H 2368.58 -1.51142 -0.483933 0
M  V30 23595 H 2368.6 -2.17329 -3.12328 0
M  V30 23596 H 2368.11 -3.43546 -1.80548 0
M  V30 23597 H 2366.21 -1.54623 -3.39002 0
M  V30 23598 H 2366.32 -3.42992 -3.34504 0
M  V30 23599 H 2364.69 -1.75455 -1.84629 0
M  V30 23600 H 2365.47 -3.25123 -1.10227 0
M  V30 23601 N 2367.92 0.924431 -1.2764 0
M  V30 23602 C 2369.16 1.67495 -1.14339 0
M  V30 23603 C 2369.5 1.91719 0.309431 0
M  V30 23604 O 2368.77 1.50991 1.22605 0
M  V30 23605 C 2369.05 3.03947 -1.93102 0
M  V30 23606 C 2368.91 2.86943 -3.46386 0
M  V30 23607 C 2370.23 4.04327 -1.73805 0
M  V30 23608 H 2367.34 0.607864 -0.416738 0
M  V30 23609 H 2369.99 1.07253 -1.56834 0
M  V30 23610 H 2368.14 3.55369 -1.56988 0
M  V30 23611 H 2369.81 2.42614 -3.92347 0
M  V30 23612 H 2368.05 2.22219 -3.72561 0
M  V30 23613 H 2368.72 3.83797 -3.96742 0
M  V30 23614 H 2371.2 3.61927 -2.05299 0
M  V30 23615 H 2370.07 4.97785 -2.31303 0
M  V30 23616 H 2370.34 4.36733 -0.686802 0
M  V30 23617 N 2369.39 1.09715 1.13139 0
M  V30 23618 C 2370.81 0.853914 1.66028 0
M  V30 23619 C 2371.16 -0.617109 1.86242 0
M  V30 23620 O 2370.28 -1.47501 1.58343 0
M  V30 23621 C 2370.88 1.54355 3.01596 0
M  V30 23622 C 2369.44 1.34721 3.51465 0
M  V30 23623 C 2368.58 1.59773 2.26645 0
M  V30 23624 H 2371.53 1.2559 0.970204 0
M  V30 23625 H 2371.55 0.978331 3.67708 0
M  V30 23626 H 2371.07 2.61415 2.86851 0
M  V30 23627 H 2369.17 0.297903 3.71407 0
M  V30 23628 H 2369.28 2.08408 4.31396 0
M  V30 23629 H 2367.64 1.02002 2.33383 0
M  V30 23630 H 2368.43 2.68069 2.14462 0
M  V30 23631 N 2370.87 -1.30419 0.88479 0
M  V30 23632 C 2372.1 -2.00845 0.517323 0
M  V30 23633 C 2372.52 -1.65887 -0.88675 0
M  V30 23634 O 2371.88 -0.875382 -1.58766 0
M  V30 23635 C 2371.93 -3.53759 0.699056 0
M  V30 23636 O 2371.03 -4.1161 -0.255136 0
M  V30 23637 H 2370.37 -0.631924 0.203883 0
M  V30 23638 H 2372.9 -1.6627 1.19228 0
M  V30 23639 H 2372.91 -4.03594 0.597983 0
M  V30 23640 H 2371.59 -3.78541 1.72277 0
M  V30 23641 H 2370.17 -3.72744 -0.107774 0
M  V30 23642 N 2372.35 -0.645724 -1.43764 0
M  V30 23643 C 2373.28 0.0370066 -2.33471 0
M  V30 23644 C 2374.26 0.819753 -1.49044 0
M  V30 23645 O 2375.45 0.782727 -1.77727 0
M  V30 23646 C 2372.58 1.00924 -3.32313 0
M  V30 23647 C 2371.53 0.337126 -4.2667 0
M  V30 23648 C 2370.86 1.42028 -5.15492 0
M  V30 23649 C 2372.16 -0.765797 -5.16655 0
M  V30 23650 H 2373.85 -0.71212 -2.90808 0
M  V30 23651 H 2371.4 -0.343901 -1.39833 0
M  V30 23652 H 2373.35 1.49571 -3.93962 0
M  V30 23653 H 2372.07 1.78943 -2.73216 0
M  V30 23654 H 2370.73 -0.128836 -3.66374 0
M  V30 23655 H 2370.38 2.19172 -4.52739 0
M  V30 23656 H 2370.08 0.975864 -5.7944 0
M  V30 23657 H 2371.6 1.90827 -5.80015 0
M  V30 23658 H 2373.02 -0.361802 -5.72157 0
M  V30 23659 H 2371.42 -1.13423 -5.89284 0
M  V30 23660 H 2372.49 -1.62691 -4.56793 0
M  V30 23661 N 2373.83 1.5277 -0.38717 0
M  V30 23662 C 2374.74 2.30118 0.456401 0
M  V30 23663 C 2375.75 1.36946 1.0734 0
M  V30 23664 O 2376.93 1.70015 1.07968 0
M  V30 23665 C 2374 3.09139 1.56952 0
M  V30 23666 C 2373.06 4.18015 0.977842 0
M  V30 23667 C 2372.29 4.93259 2.03791 0
M  V30 23668 O 2372.51 4.68573 3.25263 0
M  V30 23669 O 2371.45 5.7866 1.6564 0
M  V30 23670 H 2375.27 3.03203 -0.173643 0
M  V30 23671 H 2372.86 1.48636 -0.150945 0
M  V30 23672 H 2374.74 3.58416 2.21621 0
M  V30 23673 H 2373.41 2.38869 2.18456 0
M  V30 23674 H 2372.32 3.72939 0.29446 0
M  V30 23675 H 2373.65 4.90514 0.407042 0
M  V30 23676 N 2375.31 0.116931 1.57166 0
M  V30 23677 C 2376.27 -0.819705 2.14041 0
M  V30 23678 C 2377.27 -1.19603 1.07479 0
M  V30 23679 O 2378.46 -1.12188 1.33265 0
M  V30 23680 C 2375.59 -2.10821 2.67894 0
M  V30 23681 H 2376.78 -0.325459 2.98129 0
M  V30 23682 H 2374.34 -0.132285 1.55739 0
M  V30 23683 H 2375.07 -2.64681 1.87388 0
M  V30 23684 H 2374.86 -1.84787 3.45827 0
M  V30 23685 H 2376.35 -2.7778 3.11814 0
M  V30 23686 N 2376.78 -1.56818 -0.156836 0
M  V30 23687 C 2378.2 -1.72346 -0.717886 0
M  V30 23688 C 2378.55 -0.729779 -1.82123 0
M  V30 23689 O 2377.67 0.105743 -2.16141 0
M  V30 23690 C 2378.27 -3.12492 -1.30898 0
M  V30 23691 C 2376.83 -3.29656 -1.8167 0
M  V30 23692 C 2375.97 -2.68285 -0.701302 0
M  V30 23693 H 2378.92 -1.58551 0.0687268 0
M  V30 23694 H 2378.94 -3.11946 -2.17876 0
M  V30 23695 H 2378.46 -3.84791 -0.505728 0
M  V30 23696 H 2376.56 -2.62337 -2.64594 0
M  V30 23697 H 2376.67 -4.37523 -1.95218 0
M  V30 23698 H 2375.03 -2.28486 -1.12544 0
M  V30 23699 H 2375.82 -3.43181 0.0903449 0
M  V30 23700 N 2378.26 0.425871 -1.51737 0
M  V30 23701 C 2379.49 1.20105 -1.69084 0
M  V30 23702 C 2379.91 1.83961 -0.39243 0
M  V30 23703 O 2379.27 1.69303 0.648551 0
M  V30 23704 C 2379.32 2.25232 -2.81608 0
M  V30 23705 O 2378.42 3.30988 -2.4601 0
M  V30 23706 H 2377.76 0.35137 -0.563414 0
M  V30 23707 H 2380.29 0.501477 -1.98359 0
M  V30 23708 H 2380.3 2.69833 -3.0603 0
M  V30 23709 H 2378.98 1.78135 -3.7582 0
M  V30 23710 H 2377.56 2.91783 -2.322 0
M  V30 23711 N 2379.74 1.42077 0.682052 0
M  V30 23712 C 2380.65 1.47374 1.82532 0
M  V30 23713 C 2381.67 0.363109 1.70169 0
M  V30 23714 O 2382.84 0.612908 1.91847 0
M  V30 23715 C 2379.91 1.36679 3.18622 0
M  V30 23716 C 2378.97 2.58173 3.42995 0
M  V30 23717 C 2378.2 2.47979 4.72591 0
M  V30 23718 O 2378.42 1.5117 5.50004 0
M  V30 23719 O 2377.36 3.37982 4.98048 0
M  V30 23720 H 2381.18 2.43856 1.81019 0
M  V30 23721 H 2378.77 1.23762 0.836865 0
M  V30 23722 H 2380.65 1.3305 3.99845 0
M  V30 23723 H 2379.33 0.433195 3.20788 0
M  V30 23724 H 2378.23 2.67378 2.61648 0
M  V30 23725 H 2379.57 3.50407 3.45653 0
M  V30 23726 N 2381.22 -0.917649 1.28129 0
M  V30 23727 C 2382.15 -2.02415 1.0752 0
M  V30 23728 C 2383.16 -1.62776 0.0281385 0
M  V30 23729 O 2384.35 -1.76434 0.270779 0
M  V30 23730 C 2381.45 -3.33346 0.611015 0
M  V30 23731 C 2380.63 -4.01621 1.73262 0
M  V30 23732 C 2379.69 -5.10831 1.26247 0
M  V30 23733 O 2378.71 -5.34244 1.96399 0
M  V30 23734 N 2379.91 -5.80369 0.12355 0
M  V30 23735 H 2382.68 -2.20654 2.0281 0
M  V30 23736 H 2380.24 -1.08869 1.19829 0
M  V30 23737 H 2382.23 -4.03729 0.280172 0
M  V30 23738 H 2380.8 -3.11607 -0.248925 0
M  V30 23739 H 2380.02 -3.24838 2.23325 0
M  V30 23740 H 2381.31 -4.43982 2.48511 0
M  V30 23741 H 2380.71 -5.63812 -0.461748 0
M  V30 23742 H 2379.26 -6.51632 -0.148044 0
M  V30 23743 N 2382.7 -1.10314 -1.12555 0
M  V30 23744 C 2383.66 -0.754278 -2.16433 0
M  V30 23745 C 2384.66 0.220657 -1.59279 0
M  V30 23746 O 2385.85 -0.00233653 -1.742 0
M  V30 23747 C 2382.98 -0.117046 -3.40699 0
M  V30 23748 H 2384.18 -1.67436 -2.48808 0
M  V30 23749 H 2381.73 -0.903498 -1.27541 0
M  V30 23750 H 2382.46 0.813822 -3.13923 0
M  V30 23751 H 2382.25 -0.81868 -3.83458 0
M  V30 23752 H 2383.74 0.111314 -4.17452 0
M  V30 23753 N 2384.18 1.29948 -0.891694 0
M  V30 23754 C 2385.59 1.78005 -0.563136 0
M  V30 23755 C 2385.94 1.73243 0.920948 0
M  V30 23756 O 2385.06 1.3134 1.71985 0
M  V30 23757 C 2385.66 3.23225 -1.01545 0
M  V30 23758 C 2384.22 3.6909 -0.738189 0
M  V30 23759 C 2383.36 2.50246 -1.19465 0
M  V30 23760 H 2386.31 1.16723 -1.07524 0
M  V30 23761 H 2386.34 3.78912 -0.347284 0
M  V30 23762 H 2385.85 3.26658 -2.09561 0
M  V30 23763 H 2383.95 3.71138 0.329701 0
M  V30 23764 H 2384.06 4.60256 -1.33045 0
M  V30 23765 H 2382.43 2.47193 -0.613831 0
M  V30 23766 H 2383.21 2.56413 -2.2827 0
M  V30 23767 N 2385.65 0.653339 1.4342 0
M  V30 23768 C 2386.88 0.174528 2.06163 0
M  V30 23769 C 2387.3 -1.15987 1.48971 0
M  V30 23770 O 2386.65 -1.71607 0.621072 0
M  V30 23771 C 2386.7 0.0775501 3.61417 0
M  V30 23772 O 2386.43 1.3592 4.16482 0
M  V30 23773 C 2387.93 -0.427324 4.41236 0
M  V30 23774 H 2385.15 0.089947 0.664944 0
M  V30 23775 H 2387.69 0.894021 1.83923 0
M  V30 23776 H 2385.85 -0.592503 3.82842 0
M  V30 23777 H 2386.26 1.21848 5.1015 0
M  V30 23778 H 2387.73 -0.444134 5.5021 0
M  V30 23779 H 2388.21 -1.45865 4.1427 0
M  V30 23780 H 2388.82 0.210242 4.2478 0
M  V30 23781 N 2387.13 -1.52563 0.395266 0
M  V30 23782 C 2388.04 -2.30356 -0.444191 0
M  V30 23783 C 2389.06 -1.37513 -1.06612 0
M  V30 23784 O 2390.23 -1.70585 -1.07064 0
M  V30 23785 C 2387.3 -3.09967 -1.5531 0
M  V30 23786 C 2386.36 -4.18528 -0.95566 0
M  V30 23787 C 2385.59 -4.94333 -2.01173 0
M  V30 23788 O 2385.82 -4.70291 -3.22773 0
M  V30 23789 O 2384.75 -5.7953 -1.62569 0
M  V30 23790 H 2388.58 -3.03107 0.18972 0
M  V30 23791 H 2386.16 -1.48553 0.158826 0
M  V30 23792 H 2388.04 -3.59586 -2.19718 0
M  V30 23793 H 2386.72 -2.40024 -2.17187 0
M  V30 23794 H 2385.62 -3.7309 -0.274678 0
M  V30 23795 H 2386.96 -4.90723 -0.381023 0
M  V30 23796 N 2388.61 -0.125265 -1.57101 0
M  V30 23797 C 2389.54 0.8532 -2.12728 0
M  V30 23798 C 2390.55 1.2257 -1.07147 0
M  V30 23799 O 2391.74 1.17355 -1.34499 0
M  V30 23800 C 2388.84 2.15313 -2.61713 0
M  V30 23801 C 2388.02 1.95136 -3.9146 0
M  V30 23802 C 2387.08 3.08916 -4.25978 0
M  V30 23803 O 2386.1 2.81555 -4.94687 0
M  V30 23804 N 2387.3 4.35518 -3.83803 0
M  V30 23805 H 2390.07 0.377912 -2.97308 0
M  V30 23806 H 2387.63 0.0589726 -1.61793 0
M  V30 23807 H 2389.62 2.90436 -2.81831 0
M  V30 23808 H 2388.19 2.54171 -1.81978 0
M  V30 23809 H 2387.41 1.0417 -3.80187 0
M  V30 23810 H 2388.7 1.78967 -4.76286 0
M  V30 23811 H 2388.1 4.6062 -3.28398 0
M  V30 23812 H 2386.65 5.07492 -4.09017 0
M  V30 23813 N 2390.09 1.56899 0.148518 0
M  V30 23814 C 2391.5 1.51529 0.501104 0
M  V30 23815 C 2391.7 0.833431 1.83456 0
M  V30 23816 O 2390.76 0.403324 2.49258 0
M  V30 23817 C 2392.07 2.96295 0.512812 0
M  V30 23818 C 2393.62 3.07226 0.598433 0
M  V30 23819 C 2394.1 4.53495 0.640818 0
M  V30 23820 N 2395.59 4.57833 0.703082 0
M  V30 23821 C 2396.32 5.68383 0.756835 0
M  V30 23822 N 2395.82 6.88507 0.770026 0
M  V30 23823 N 2397.61 5.56412 0.7976 0
M  V30 23824 H 2389.76 1.99623 -0.725567 0
M  V30 23825 H 2392.02 0.91039 -0.264374 0
M  V30 23826 H 2391.73 3.49432 -0.398753 0
M  V30 23827 H 2391.6 3.52166 1.35126 0
M  V30 23828 H 2393.99 2.54109 1.50042 0
M  V30 23829 H 2394.07 2.54401 -0.267137 0
M  V30 23830 H 2393.72 5.07249 -0.257004 0
M  V30 23831 H 2393.65 5.041 1.52286 0
M  V30 23832 H 2396.14 3.71356 0.700248 0
M  V30 23833 H 2396.45 7.68513 0.812848 0
M  V30 23834 H 2394.8 6.91071 0.737927 0
M  V30 23835 H 2397.99 4.6148 0.784454 0
M  V30 23836 H 2398.16 6.42584 0.836027 0
M  V30 23837 N 2391.57 -0.417818 1.51961 0
M  V30 23838 C 2392.98 -0.996972 1.57852 0
M  V30 23839 C 2393.33 -1.91788 0.413747 0
M  V30 23840 O 2392.45 -2.113 -0.467019 0
M  V30 23841 C 2393.05 -1.81491 2.86088 0
M  V30 23842 C 2391.61 -2.34423 2.94487 0
M  V30 23843 C 2390.75 -1.14165 2.52709 0
M  V30 23844 H 2393.7 -0.198364 1.57455 0
M  V30 23845 H 2393.73 -2.67143 2.70952 0
M  V30 23846 H 2393.24 -1.1444 3.70844 0
M  V30 23847 H 2391.34 -3.04872 2.14206 0
M  V30 23848 H 2391.45 -2.65884 3.98551 0
M  V30 23849 H 2389.82 -1.49297 2.06355 0
M  V30 23850 H 2390.6 -0.486939 3.39829 0
M  V30 23851 N 2393.04 -1.42436 -0.674508 0
M  V30 23852 C 2394.29 -1.42639 -1.43173 0
M  V30 23853 C 2394.61 -0.0439335 -1.94951 0
M  V30 23854 O 2393.88 0.917577 -1.73082 0
M  V30 23855 H 2392.46 -0.525101 -0.531298 0
M  V30 23856 H 2395.12 -1.7786 -0.796975 0
M  V30 23857 H 2394.22 -2.12633 -2.2846 0
M  V30 23858 N 2394.52 0.910841 -1.28614 0
M  V30 23859 C 2395.77 1.66272 -1.16109 0
M  V30 23860 C 2396.1 1.92036 0.289079 0
M  V30 23861 O 2395.38 1.52283 1.20997 0
M  V30 23862 C 2395.66 3.01882 -1.96315 0
M  V30 23863 C 2395.51 2.83253 -3.4941 0
M  V30 23864 C 2396.83 4.0246 -1.78083 0
M  V30 23865 H 2393.95 0.603409 -0.423162 0
M  V30 23866 H 2396.59 1.05584 -1.57962 0
M  V30 23867 H 2394.74 3.53684 -1.60749 0
M  V30 23868 H 2396.41 2.38439 -3.94898 0
M  V30 23869 H 2394.66 2.18255 -3.74897 0
M  V30 23870 H 2395.33 3.79567 -4.0079 0
M  V30 23871 H 2397.8 3.5973 -2.09126 0
M  V30 23872 H 2396.68 4.95304 -2.3657 0
M  V30 23873 H 2396.94 4.3598 -0.733085 0
M  V30 23874 N 2396 1.10909 1.11969 0
M  V30 23875 C 2396.93 0.720213 2.1759 0
M  V30 23876 C 2397.95 -0.245467 1.60939 0
M  V30 23877 O 2399.13 -0.0291932 1.78476 0
M  V30 23878 C 2396.23 0.0428513 3.38873 0
M  V30 23879 C 2395.41 1.03395 4.25004 0
M  V30 23880 C 2394.47 0.387167 5.24774 0
M  V30 23881 O 2393.49 1.03944 5.59629 0
M  V30 23882 N 2394.69 -0.852306 5.74209 0
M  V30 23883 H 2397.46 1.62898 2.51564 0
M  V30 23884 H 2395.02 0.998566 1.27437 0
M  V30 23885 H 2397.01 -0.40143 4.02704 0
M  V30 23886 H 2395.58 -0.768403 3.03009 0
M  V30 23887 H 2394.8 1.65635 3.57713 0
M  V30 23888 H 2396.09 1.70467 4.79394 0
M  V30 23889 H 2395.49 -1.40151 5.48064 0
M  V30 23890 H 2394.05 -1.23966 6.39903 0
M  V30 23891 N 2397.48 -1.29474 0.898573 0
M  V30 23892 C 2398.39 -2.31502 0.380014 0
M  V30 23893 C 2399.4 -1.65901 -0.524666 0
M  V30 23894 O 2400.58 -1.97088 -0.414517 0
M  V30 23895 C 2397.65 -3.44555 -0.385078 0
M  V30 23896 C 2396.71 -4.25749 0.550989 0
M  V30 23897 C 2395.94 -5.33404 -0.177685 0
M  V30 23898 O 2396.16 -5.52907 -1.40179 0
M  V30 23899 O 2395.1 -5.99989 0.479212 0
M  V30 23900 H 2398.92 -2.77835 1.22644 0
M  V30 23901 H 2396.51 -1.3389 0.662858 0
M  V30 23902 H 2398.39 -4.13389 -0.817769 0
M  V30 23903 H 2397.06 -3.00332 -1.20758 0
M  V30 23904 H 2395.97 -3.59562 1.03277 0
M  V30 23905 H 2397.3 -4.73612 1.33987 0
M  V30 23906 N 2398.96 -0.660936 -1.43071 0
M  V30 23907 C 2400.2 -0.181182 -2.03595 0
M  V30 23908 C 2400.56 1.18512 -1.51059 0
M  V30 23909 O 2401.76 1.75873 -2.03278 0
M  V30 23910 C 2400.03 -0.199173 -3.56845 0
M  V30 23911 S 2401.59 0.211607 -4.38289 0
M  V30 23912 H 2398.41 -0.0757603 -0.706952 0
M  V30 23913 H 2401.01 -0.870995 -1.75025 0
M  V30 23914 H 2399.72 -1.19617 -3.92581 0
M  V30 23915 H 2399.25 0.510928 -3.90068 0
M  V30 23916 H 2401.26 1.44855 -4.74586 0
M  V30 23917 N 2400.43 1.52351 -0.403352 0
M  V30 23918 C 2401.66 2.05868 0.173724 0
M  V30 23919 C 2402.07 1.27381 1.39895 0
M  V30 23920 O 2401.42 0.317322 1.80939 0
M  V30 23921 C 2401.48 3.54547 0.594694 0
M  V30 23922 C 2401.14 4.54043 -0.519006 0
M  V30 23923 C 2402.14 5.01229 -1.38079 0
M  V30 23924 C 2399.82 4.97538 -0.690048 0
M  V30 23925 C 2401.82 5.90546 -2.39862 0
M  V30 23926 C 2399.5 5.86653 -1.71119 0
M  V30 23927 C 2400.5 6.33051 -2.56389 0
M  V30 23928 O 2400.19 7.20403 -3.56756 0
M  V30 23929 H 2399.92 0.675481 0.0264833 0
M  V30 23930 H 2402.48 1.97298 -0.571214 0
M  V30 23931 H 2400.71 3.60784 1.39183 0
M  V30 23932 H 2402.4 3.90738 1.09903 0
M  V30 23933 H 2403.16 4.68346 -1.26002 0
M  V30 23934 H 2399.04 4.60986 -0.03602 0
M  V30 23935 H 2402.58 6.26684 -3.06452 0
M  V30 23936 H 2398.48 6.18949 -1.83229 0
M  V30 23937 H 2399.25 7.385 -3.52931 0
M  V30 23938 N 2401.91 0.133594 1.57033 0
M  V30 23939 C 2402.86 -0.822634 2.12642 0
M  V30 23940 C 2403.85 -1.21846 1.05083 0
M  V30 23941 O 2405.04 -1.18711 1.31289 0
M  V30 23942 C 2402.17 -2.06701 2.74098 0
M  V30 23943 C 2401.25 -1.6949 3.8876 0
M  V30 23944 N 2401.64 -1.03029 4.95196 0
M  V30 23945 C 2399.94 -1.98852 3.99217 0
M  V30 23946 C 2400.64 -0.852772 5.75415 0
M  V30 23947 N 2399.62 -1.38241 5.25728 0
M  V30 23948 H 2403.42 -0.305486 2.92308 0
M  V30 23949 H 2400.94 -0.0683991 1.62256 0
M  V30 23950 H 2402.93 -2.7619 3.1229 0
M  V30 23951 H 2401.59 -2.58946 1.959 0
M  V30 23952 H 2402.6 -0.692579 5.13248 0
M  V30 23953 H 2399.28 -2.53041 3.32079 0
M  V30 23954 H 2400.67 -0.329973 6.71089 0
M  V30 23955 N 2403.39 -1.56975 -0.140195 0
M  V30 23956 C 2404.64 -1.83357 -0.849973 0
M  V30 23957 C 2404.96 -0.715542 -1.81397 0
M  V30 23958 O 2404.23 0.26226 -1.94137 0
M  V30 23959 H 2402.81 -0.676461 -0.316874 0
M  V30 23960 H 2405.47 -1.94449 -0.132573 0
M  V30 23961 H 2404.57 -2.7853 -1.4081 0
M  V30 23962 N 2404.87 0.409753 -1.5218 0
M  V30 23963 C 2405.82 1.51972 -1.76089 0
M  V30 23964 C 2406.81 1.5733 -0.627991 0
M  V30 23965 O 2408.02 1.60744 -0.810022 0
M  V30 23966 H 2404.39 0.505406 -0.556838 0
M  V30 23967 H 2406.36 1.28992 -2.69079 0
M  V30 23968 C 2405.11 2.89347 -1.92805 0
M  V30 23969 H 2404.43 2.85967 -2.79397 0
M  V30 23970 H 2405.87 3.66305 -2.13533 0
M  V30 23971 C 2404.33 3.29654 -0.694981 0
M  V30 23972 O 2404.86 4.01465 0.13744 0
M  V30 23973 N 2403.07 2.85706 -0.53106 0
M  V30 23974 H 2402.62 2.27437 -1.20956 0
M  V30 23975 H 2402.57 3.13035 0.292663 0
M  V30 23976 N 2406.35 1.42792 0.666944 0
M  V30 23977 C 2407.59 1.43397 1.42414 0
M  V30 23978 C 2407.92 0.0542716 1.94924 0
M  V30 23979 O 2407.19 -0.908385 1.73566 0
M  V30 23980 H 2405.77 0.527911 0.528506 0
M  V30 23981 H 2408.43 1.78281 0.787531 0
M  V30 23982 H 2407.52 2.13841 2.27329 0
M  V30 23983 N 2407.82 -0.904008 1.29095 0
M  V30 23984 C 2408.76 -2.01264 1.09661 0
M  V30 23985 C 2409.77 -1.62737 0.0454015 0
M  V30 23986 O 2410.96 -1.76137 0.289477 0
M  V30 23987 C 2408.06 -3.3268 0.646337 0
M  V30 23988 C 2407.23 -3.9976 1.77512 0
M  V30 23989 C 2406.29 -5.09463 1.31658 0
M  V30 23990 O 2405.32 -5.3213 2.02054 0
M  V30 23991 N 2406.52 -5.80205 0.185099 0
M  V30 23992 H 2409.28 -2.18491 2.05139 0
M  V30 23993 H 2406.84 -1.07592 1.20977 0
M  V30 23994 H 2408.84 -4.03409 0.322977 0
M  V30 23995 H 2407.41 -3.11854 -0.215861 0
M  V30 23996 H 2406.63 -3.22451 2.26758 0
M  V30 23997 H 2407.91 -4.41321 2.53206 0
M  V30 23998 H 2407.31 -5.6427 -0.401922 0
M  V30 23999 H 2405.87 -6.51752 -0.0789213 0
M  V30 24000 N 2409.3 -1.11501 -1.11379 0
M  V30 24001 C 2410.53 -0.887052 -1.87473 0
M  V30 24002 C 2410.95 0.557764 -1.7964 0
M  V30 24003 O 2410.31 1.39394 -1.15927 0
M  V30 24004 C 2410.36 -1.35409 -3.34211 0
M  V30 24005 O 2409.46 -0.526218 -4.09029 0
M  V30 24006 H 2408.8 -0.319473 -0.582094 0
M  V30 24007 H 2411.33 -1.48464 -1.40782 0
M  V30 24008 H 2411.34 -1.34888 -3.85057 0
M  V30 24009 H 2410.02 -2.40618 -3.39228 0
M  V30 24010 H 2408.6 -0.597587 -3.68081 0
M  V30 24011 N 2410.78 1.28995 -0.905426 0
M  V30 24012 C 2412.01 1.9917 -0.549084 0
M  V30 24013 C 2412.42 1.67907 0.872001 0
M  V30 24014 O 2411.76 0.923589 1.58794 0
M  V30 24015 C 2411.82 3.53232 -0.668368 0
M  V30 24016 C 2411.49 4.08065 -2.05747 0
M  V30 24017 C 2412.49 4.22529 -3.02928 0
M  V30 24018 C 2410.17 4.42958 -2.3684 0
M  V30 24019 C 2412.16 4.71128 -4.29322 0
M  V30 24020 C 2409.85 4.91252 -3.63476 0
M  V30 24021 C 2410.85 5.05292 -4.59531 0
M  V30 24022 O 2410.54 5.52536 -5.83917 0
M  V30 24023 H 2410.27 0.642947 -0.208796 0
M  V30 24024 H 2412.82 1.65361 -1.21839 0
M  V30 24025 H 2411.05 3.86657 0.0579868 0
M  V30 24026 H 2412.74 4.04634 -0.320344 0
M  V30 24027 H 2413.51 3.95854 -2.80223 0
M  V30 24028 H 2409.39 4.31285 -1.62832 0
M  V30 24029 H 2412.93 4.82002 -5.04302 0
M  V30 24030 H 2408.83 5.17365 -3.86009 0
M  V30 24031 H 2409.6 5.70839 -5.86588 0
M  V30 24032 N 2412.26 0.668514 1.42719 0
M  V30 24033 C 2413.68 0.337478 1.55991 0
M  V30 24034 C 2413.88 -1.15753 1.64935 0
M  V30 24035 O 2412.93 -1.9428 1.61281 0
M  V30 24036 C 2414.24 1.06227 2.81312 0
M  V30 24037 C 2415.79 1.04399 2.95076 0
M  V30 24038 C 2416.27 1.74999 4.23249 0
M  V30 24039 N 2417.76 1.71836 4.30147 0
M  V30 24040 C 2418.49 2.23324 5.28123 0
M  V30 24041 N 2417.99 2.83167 6.32288 0
M  V30 24042 N 2419.78 2.13735 5.19878 0
M  V30 24043 H 2411.93 1.63848 1.35157 0
M  V30 24044 H 2414.2 0.689923 0.650162 0
M  V30 24045 H 2413.9 2.11739 2.80819 0
M  V30 24046 H 2413.78 0.623505 3.72011 0
M  V30 24047 H 2416.16 -0.00277253 2.951 0
M  V30 24048 H 2416.24 1.52159 2.05624 0
M  V30 24049 H 2415.89 2.7964 4.23986 0
M  V30 24050 H 2415.82 1.24694 5.11624 0
M  V30 24051 H 2418.31 1.28182 3.55497 0
M  V30 24052 H 2418.62 3.20092 7.03393 0
M  V30 24053 H 2416.97 2.87234 6.32868 0
M  V30 24054 H 2420.16 1.66677 4.3742 0
M  V30 24055 H 2420.33 2.54169 5.96072 0
M  V30 24056 N 2413.74 -1.52135 0.411426 0
M  V30 24057 C 2414.99 -2.01439 -0.163287 0
M  V30 24058 C 2415.31 -1.29882 -1.4545 0
M  V30 24059 O 2414.58 -0.425434 -1.91225 0
M  V30 24060 H 2413.16 -0.74431 -0.0633316 0
M  V30 24061 H 2415.82 -1.87032 0.548194 0
M  V30 24062 H 2414.91 -3.10043 -0.357762 0
M  V30 24063 N 2415.22 -0.14192 -1.5696 0
M  V30 24064 C 2416.44 0.517544 -2.00322 0
M  V30 24065 C 2416.86 1.5875 -1.02195 0
M  V30 24066 O 2416.22 1.82491 -0.018194 0
M  V30 24067 C 2416.27 1.12283 -3.4362 0
M  V30 24068 O 2415.99 0.0956159 -4.37996 0
M  V30 24069 C 2417.49 1.86339 -4.02234 0
M  V30 24070 H 2414.71 0.135166 -0.657245 0
M  V30 24071 H 2417.25 -0.235009 -2.03145 0
M  V30 24072 H 2415.41 1.82603 -3.41665 0
M  V30 24073 H 2415.82 0.538377 -5.2173 0
M  V30 24074 H 2417.3 2.23988 -5.04513 0
M  V30 24075 H 2417.77 2.74738 -3.42659 0
M  V30 24076 H 2418.38 1.2073 -4.07804 0
M  V30 24077 N 2416.69 1.57047 0.131868 0
M  V30 24078 C 2417.92 1.88069 0.855186 0
M  V30 24079 C 2418.33 0.729848 1.74556 0
M  V30 24080 O 2417.67 -0.308931 1.81084 0
M  V30 24081 C 2417.74 3.13967 1.75114 0
M  V30 24082 C 2417.4 4.45093 1.03639 0
M  V30 24083 C 2418.4 5.18486 0.383185 0
M  V30 24084 C 2416.08 4.91806 1.02139 0
M  V30 24085 C 2418.08 6.36805 -0.275459 0
M  V30 24086 C 2415.76 6.10045 0.35894 0
M  V30 24087 C 2416.76 6.82391 -0.288341 0
M  V30 24088 O 2416.45 7.98382 -0.940251 0
M  V30 24089 H 2416.18 0.627332 0.251853 0
M  V30 24090 H 2418.74 2.05021 0.124746 0
M  V30 24091 H 2416.97 2.93064 2.5229 0
M  V30 24092 H 2418.65 3.31113 2.34774 0
M  V30 24093 H 2419.42 4.83458 0.386477 0
M  V30 24094 H 2415.3 4.35408 1.51463 0
M  V30 24095 H 2418.84 6.93211 -0.78127 0
M  V30 24096 H 2414.74 6.44532 0.353367 0
M  V30 24097 H 2415.51 8.14143 -0.843433 0
M  V30 24098 N 2418.17 -0.401677 1.52395 0
M  V30 24099 C 2419.4 -1.174 1.70974 0
M  V30 24100 C 2419.82 -1.83313 0.421647 0
M  V30 24101 O 2419.18 -1.70313 -0.621534 0
M  V30 24102 C 2419.23 -2.20723 2.85155 0
M  V30 24103 O 2418.33 -3.27032 2.51244 0
M  V30 24104 H 2417.67 -0.342362 0.568933 0
M  V30 24105 H 2420.2 -0.469856 1.99132 0
M  V30 24106 H 2420.21 -2.6493 3.10284 0
M  V30 24107 H 2418.89 -1.72133 3.78606 0
M  V30 24108 H 2417.46 -2.88052 2.36813 0
M  V30 24109 N 2419.65 -1.43144 -0.659362 0
M  V30 24110 C 2420.88 -1.47863 -1.44721 0
M  V30 24111 C 2421.29 -0.0946217 -1.88563 0
M  V30 24112 O 2420.65 0.893887 -1.5911 0
M  V30 24113 C 2420.7 -2.41918 -2.68623 0
M  V30 24114 O 2420.42 -3.74936 -2.26616 0
M  V30 24115 C 2421.92 -2.55816 -3.6204 0
M  V30 24116 H 2419.14 -0.502395 -0.444792 0
M  V30 24117 H 2421.69 -1.87823 -0.808883 0
M  V30 24118 H 2419.84 -2.0517 -3.28609 0
M  V30 24119 H 2420.26 -4.25455 -3.06738 0
M  V30 24120 H 2421.73 -3.25715 -4.45661 0
M  V30 24121 H 2422.21 -1.60106 -4.08978 0
M  V30 24122 H 2422.81 -2.93349 -3.07939 0
M  V30 24123 N 2421.13 0.897149 -1.29572 0
M  V30 24124 C 2422.36 1.68127 -1.20585 0
M  V30 24125 C 2422.77 1.87355 0.233148 0
M  V30 24126 O 2422.13 1.41238 1.15577 0
M  V30 24127 C 2422.18 3.06437 -1.91777 0
M  V30 24128 O 2421.9 2.88086 -3.30058 0
M  V30 24129 C 2423.4 4.00851 -1.89298 0
M  V30 24130 H 2420.62 0.525029 -0.417835 0
M  V30 24131 H 2423.16 1.12174 -1.70989 0
M  V30 24132 H 2421.32 3.59159 -1.45202 0
M  V30 24133 H 2421.73 3.75742 -3.65948 0
M  V30 24134 H 2423.21 4.95306 -2.43671 0
M  V30 24135 H 2423.68 4.30515 -0.869089 0
M  V30 24136 H 2424.29 3.54061 -2.35628 0
M  V30 24137 N 2422.61 1.1209 1.10786 0
M  V30 24138 C 2423.85 0.875258 1.8294 0
M  V30 24139 C 2424.18 -0.597506 1.8478 0
M  V30 24140 O 2423.46 -1.44149 1.3058 0
M  V30 24141 C 2423.74 1.44612 3.29787 0
M  V30 24142 C 2423.6 2.98699 3.36302 0
M  V30 24143 C 2424.91 1.10268 4.26062 0
M  V30 24144 H 2422.03 0.319408 0.664189 0
M  V30 24145 H 2424.68 1.38691 1.29865 0
M  V30 24146 H 2422.83 1.01096 3.75116 0
M  V30 24147 H 2424.5 3.50869 2.99481 0
M  V30 24148 H 2422.74 3.34416 2.76312 0
M  V30 24149 H 2423.41 3.33734 4.39688 0
M  V30 24150 H 2425.89 1.47847 3.88948 0
M  V30 24151 H 2424.76 1.52879 5.27181 0
M  V30 24152 H 2425.02 0.0143731 4.42098 0
M  V30 24153 N 2424.08 -1.28513 0.912254 0
M  V30 24154 C 2425.31 -1.99165 0.560451 0
M  V30 24155 C 2425.73 -1.68183 -0.857897 0
M  V30 24156 O 2425.08 -0.933761 -1.56803 0
M  V30 24157 C 2425.13 -3.53459 0.758204 0
M  V30 24158 O 2424.86 -3.83349 2.12074 0
M  V30 24159 C 2426.36 -4.41372 0.413032 0
M  V30 24160 H 2423.58 -0.636022 0.213816 0
M  V30 24161 H 2426.12 -1.63746 1.22505 0
M  V30 24162 H 2424.28 -3.87145 0.140624 0
M  V30 24163 H 2424.69 -4.77989 2.15931 0
M  V30 24164 H 2426.16 -5.48706 0.602176 0
M  V30 24165 H 2426.64 -4.34354 -0.650654 0
M  V30 24166 H 2427.25 -4.1318 1.00809 0
M  V30 24167 N 2425.56 -0.676073 -1.42362 0
M  V30 24168 C 2426.81 -0.198473 -2.01123 0
M  V30 24169 C 2427.13 1.19963 -1.53733 0
M  V30 24170 O 2426.4 1.80576 -0.759549 0
M  V30 24171 H 2424.98 -0.0703852 -0.743677 0
M  V30 24172 H 2427.64 -0.872867 -1.74261 0
M  V30 24173 H 2426.74 -0.200741 -3.11454 0
M  V30 24174 N 2427.04 1.51915 -0.419488 0
M  V30 24175 C 2428.46 1.59443 -0.0708711 0
M  V30 24176 C 2428.66 1.43167 1.41794 0
M  V30 24177 O 2427.71 1.26385 2.18593 0
M  V30 24178 C 2429.03 2.9515 -0.575043 0
M  V30 24179 C 2430.57 3.08413 -0.533921 0
M  V30 24180 C 2431.05 4.46617 -1.01477 0
M  V30 24181 N 2432.54 4.52886 -0.972019 0
M  V30 24182 C 2433.27 5.58114 -1.31515 0
M  V30 24183 N 2432.77 6.70846 -1.73025 0
M  V30 24184 N 2434.56 5.48377 -1.23446 0
M  V30 24185 H 2426.71 1.60741 -1.38839 0
M  V30 24186 H 2428.98 0.756736 -0.571011 0
M  V30 24187 H 2428.68 3.12374 -1.61602 0
M  V30 24188 H 2428.56 3.77199 0.00973147 0
M  V30 24189 H 2430.94 2.90867 0.498035 0
M  V30 24190 H 2431.03 2.28246 -1.15488 0
M  V30 24191 H 2430.67 4.64906 -2.04511 0
M  V30 24192 H 2430.6 5.25295 -0.370526 0
M  V30 24193 H 2433.09 3.71968 -0.666958 0
M  V30 24194 H 2433.4 7.47139 -1.97492 0
M  V30 24195 H 2431.75 6.721 -1.76938 0
M  V30 24196 H 2434.94 4.5919 -0.90895 0
M  V30 24197 H 2435.11 6.30277 -1.50517 0
M  V30 24198 N 2428.52 0.150242 1.56882 0
M  V30 24199 C 2429.75 -0.506913 2.00594 0
M  V30 24200 C 2430.16 -1.58206 1.03036 0
M  V30 24201 O 2429.52 -1.82479 0.0278716 0
M  V30 24202 C 2429.57 -1.10459 3.44211 0
M  V30 24203 O 2429.29 -0.0723866 4.3804 0
M  V30 24204 C 2430.79 -1.84204 4.03217 0
M  V30 24205 H 2428.01 -0.131678 0.657953 0
M  V30 24206 H 2430.56 0.245779 2.03018 0
M  V30 24207 H 2428.71 -1.80789 3.42628 0
M  V30 24208 H 2429.12 -0.510701 5.22008 0
M  V30 24209 H 2430.6 -2.21309 5.05694 0
M  V30 24210 H 2431.08 -2.72917 3.44112 0
M  V30 24211 H 2431.68 -1.18565 4.08439 0
M  V30 24212 N 2430 -1.57115 -0.123538 0
M  V30 24213 C 2431.24 -1.86429 -0.838065 0
M  V30 24214 C 2431.6 -0.737643 -1.77265 0
M  V30 24215 O 2432.8 -0.912434 -2.5284 0
M  V30 24216 C 2431.07 -3.20965 -1.57214 0
M  V30 24217 S 2432.63 -3.719 -2.32886 0
M  V30 24218 H 2429.45 -0.653631 -0.279799 0
M  V30 24219 H 2432.05 -1.95261 -0.0966691 0
M  V30 24220 H 2430.76 -4.0091 -0.877451 0
M  V30 24221 H 2430.29 -3.15199 -2.35399 0
M  V30 24222 H 2432.3 -3.43038 -3.58524 0
M  V30 24223 N 2431.47 0.393589 -1.52606 0
M  V30 24224 C 2432.41 1.49992 -1.73306 0
M  V30 24225 C 2433.42 1.50798 -0.6135 0
M  V30 24226 O 2434.61 1.54783 -0.889076 0
M  V30 24227 C 2431.71 2.88852 -1.7725 0
M  V30 24228 C 2430.88 3.12063 -3.06488 0
M  V30 24229 C 2429.94 4.30881 -3.0204 0
M  V30 24230 O 2428.97 4.27407 -3.75914 0
M  V30 24231 N 2430.17 5.36825 -2.20906 0
M  V30 24232 H 2432.93 1.32624 -2.68758 0
M  V30 24233 H 2430.49 0.583056 -1.51037 0
M  V30 24234 H 2432.49 3.66431 -1.71786 0
M  V30 24235 H 2431.06 2.99602 -0.892045 0
M  V30 24236 H 2430.28 2.2239 -3.25478 0
M  V30 24237 H 2431.56 3.24423 -3.91953 0
M  V30 24238 H 2430.96 5.425 -1.60345 0
M  V30 24239 H 2429.52 6.13087 -2.21286 0
M  V30 24240 N 2432.95 1.43492 0.651762 0
M  V30 24241 C 2433.92 1.48432 1.74644 0
M  V30 24242 C 2434.92 0.368845 1.56513 0
M  V30 24243 O 2436.11 0.630651 1.62384 0
M  V30 24244 C 2433.24 1.33833 3.13531 0
M  V30 24245 H 2434.43 2.45923 1.71644 0
M  V30 24246 H 2431.98 1.30279 0.86355 0
M  V30 24247 H 2432.72 0.373546 3.22141 0
M  V30 24248 H 2432.5 2.14697 3.28097 0
M  V30 24249 H 2433.99 1.40225 3.93353 0
M  V30 24250 N 2434.43 -0.890264 1.30046 0
M  V30 24251 C 2435.68 -1.64413 1.1975 0
M  V30 24252 C 2436.03 -1.90814 -0.246558 0
M  V30 24253 O 2435.32 -1.51421 -1.17398 0
M  V30 24254 C 2435.52 -2.99246 1.95415 0
M  V30 24255 C 2435.35 -2.86007 3.4703 0
M  V30 24256 C 2434.12 -2.86272 4.16385 0
M  V30 24257 C 2436.32 -2.62343 4.42358 0
M  V30 24258 N 2434.3 -2.63869 5.54298 0
M  V30 24259 C 2435.67 -2.49012 5.67797 0
M  V30 24260 C 2437.72 -2.47525 4.32013 0
M  V30 24261 C 2436.43 -2.22371 6.84064 0
M  V30 24262 C 2438.45 -2.22269 5.48042 0
M  V30 24263 C 2437.81 -2.0971 6.72459 0
M  V30 24264 H 2433.91 -0.606832 0.493234 0
M  V30 24265 H 2436.5 -1.04951 1.63992 0
M  V30 24266 H 2434.67 -3.5675 1.53571 0
M  V30 24267 H 2436.4 -3.63793 1.77304 0
M  V30 24268 H 2433.16 -2.97906 3.6817 0
M  V30 24269 H 2433.58 -2.55695 6.26857 0
M  V30 24270 H 2438.22 -2.55973 3.36508 0
M  V30 24271 H 2435.94 -2.12661 7.79616 0
M  V30 24272 H 2439.53 -2.11634 5.41943 0
M  V30 24273 H 2438.41 -1.9044 7.60725 0
M  V30 24274 N 2435.91 -1.12676 -1.1019 0
M  V30 24275 C 2437.13 -0.906886 -1.86522 0
M  V30 24276 C 2437.56 0.538679 -1.80222 0
M  V30 24277 O 2436.92 1.38156 -1.17399 0
M  V30 24278 C 2436.96 -1.38946 -3.32756 0
M  V30 24279 O 2436.07 -0.569572 -4.08448 0
M  V30 24280 H 2435.41 -0.325629 -0.578672 0
M  V30 24281 H 2437.94 -1.49948 -1.392 0
M  V30 24282 H 2437.95 -1.38965 -3.83605 0
M  V30 24283 H 2436.62 -2.44203 -3.36657 0
M  V30 24284 H 2435.2 -0.636593 -3.67426 0
M  V30 24285 N 2437.39 1.28028 -0.919057 0
M  V30 24286 C 2438.61 1.99402 -0.570392 0
M  V30 24287 C 2439.04 1.68179 0.842456 0
M  V30 24288 O 2438.39 0.917169 1.5639 0
M  V30 24289 C 2438.44 3.51781 -0.792603 0
M  V30 24290 O 2437.55 4.12142 0.145915 0
M  V30 24291 H 2436.89 0.626296 -0.220566 0
M  V30 24292 H 2439.42 1.63051 -1.23595 0
M  V30 24293 H 2439.43 4.01867 -0.704779 0
M  V30 24294 H 2438.1 3.7384 -1.82253 0
M  V30 24295 H 2436.68 3.72899 0.00890974 0
M  V30 24296 N 2438.86 0.683613 1.42002 0
M  V30 24297 C 2439.8 -0.0395519 2.28166 0
M  V30 24298 C 2440.78 -0.799918 1.41563 0
M  V30 24299 O 2441.96 -0.793218 1.70998 0
M  V30 24300 C 2439.09 -1.06329 3.21577 0
M  V30 24301 C 2438.13 -0.397488 4.24644 0
M  V30 24302 S 2438.97 0.851389 5.28689 0
M  V30 24303 C 2440.12 -0.171056 6.25666 0
M  V30 24304 H 2440.35 0.691279 2.89152 0
M  V30 24305 H 2437.89 0.473461 1.46962 0
M  V30 24306 H 2439.85 -1.64883 3.75931 0
M  V30 24307 H 2438.51 -1.76662 2.5971 0
M  V30 24308 H 2437.7 -1.17026 4.90225 0
M  V30 24309 H 2437.3 0.114677 3.73824 0
M  V30 24310 H 2439.59 -1.02807 6.69654 0
M  V30 24311 H 2440.54 0.450522 7.06665 0
M  V30 24312 H 2440.94 -0.520479 5.62095 0
M  V30 24313 N 2440.34 -1.5169 0.427538 0
M  V30 24314 C 2441.57 -2.06418 -0.141155 0
M  V30 24315 C 2441.99 -1.29591 -1.37301 0
M  V30 24316 O 2441.34 -0.352764 -1.79058 0
M  V30 24317 C 2441.39 -3.5839 -0.473203 0
M  V30 24318 O 2441.12 -4.32313 0.709749 0
M  V30 24319 C 2442.62 -4.29598 -1.09363 0
M  V30 24320 H 2439.84 -0.670888 -0.012263 0
M  V30 24321 H 2442.38 -1.95383 0.603798 0
M  V30 24322 H 2440.54 -3.69371 -1.16805 0
M  V30 24323 H 2440.95 -5.22749 0.428162 0
M  V30 24324 H 2442.42 -5.37049 -1.27604 0
M  V30 24325 H 2442.9 -3.87256 -2.07193 0
M  V30 24326 H 2443.51 -4.23034 -0.438455 0
M  V30 24327 N 2441.82 -0.15856 -1.568 0
M  V30 24328 C 2443.23 0.360334 -1.8319 0
M  V30 24329 C 2443.58 1.63944 -1.07781 0
M  V30 24330 O 2442.71 2.13919 -0.326756 0
M  V30 24331 C 2443.3 0.660537 -3.32299 0
M  V30 24332 C 2441.86 1.12391 -3.59229 0
M  V30 24333 C 2441.01 0.153048 -2.76877 0
M  V30 24334 H 2443.96 -0.383058 -1.54008 0
M  V30 24335 H 2443.98 1.51399 -3.49083 0
M  V30 24336 H 2443.49 -0.270595 -3.87156 0
M  V30 24337 H 2441.59 2.07059 -3.0977 0
M  V30 24338 H 2441.71 1.04189 -4.67634 0
M  V30 24339 H 2440.07 0.64794 -2.46321 0
M  V30 24340 H 2440.85 -0.771879 -3.3451 0
M  V30 24341 N 2443.3 1.57178 0.115204 0
M  V30 24342 C 2444.25 1.97046 1.14703 0
M  V30 24343 C 2445.23 0.845981 1.36865 0
M  V30 24344 O 2446.43 1.1097 1.37893 0
M  V30 24345 C 2443.55 2.38152 2.47262 0
M  V30 24346 C 2442.64 3.57241 2.28559 0
M  V30 24347 N 2443.03 4.7281 1.79677 0
M  V30 24348 C 2441.33 3.62947 2.59201 0
M  V30 24349 C 2442.03 5.54824 1.74772 0
M  V30 24350 N 2441.01 4.97421 2.19256 0
M  V30 24351 H 2444.81 2.83858 0.761704 0
M  V30 24352 H 2442.32 1.59158 0.3229 0
M  V30 24353 H 2444.32 2.64932 3.21895 0
M  V30 24354 H 2442.98 1.52707 2.8655 0
M  V30 24355 H 2443.99 4.95953 1.49168 0
M  V30 24356 H 2440.67 2.88118 3.02149 0
M  V30 24357 H 2442.06 6.57534 1.382 0
M  V30 24358 N 2444.78 -0.38549 1.52813 0
M  V30 24359 C 2446 -1.1558 1.72209 0
M  V30 24360 C 2446.43 -1.82856 0.441066 0
M  V30 24361 O 2445.79 -1.70963 -0.603435 0
M  V30 24362 C 2445.83 -2.17687 2.8748 0
M  V30 24363 O 2444.94 -3.24349 2.54699 0
M  V30 24364 H 2444.28 -0.336309 0.572532 0
M  V30 24365 H 2446.81 -0.448709 1.99619 0
M  V30 24366 H 2446.82 -2.61624 3.13076 0
M  V30 24367 H 2445.49 -1.68108 3.80411 0
M  V30 24368 H 2444.07 -2.85524 2.39855 0
M  V30 24369 N 2446.26 -1.43835 -0.644143 0
M  V30 24370 C 2447.21 -1.46138 -1.75007 0
M  V30 24371 C 2448.19 -0.328713 -1.57506 0
M  V30 24372 O 2449.38 -0.573129 -1.67464 0
M  V30 24373 C 2446.51 -1.39591 -3.13639 0
M  V30 24374 C 2445.6 -2.57922 -3.36656 0
M  V30 24375 N 2445.99 -3.83233 -3.30101 0
M  V30 24376 C 2444.29 -2.5284 -3.67407 0
M  V30 24377 C 2444.99 -4.62006 -3.53448 0
M  V30 24378 N 2443.96 -3.92876 -3.75698 0
M  V30 24379 H 2447.76 -2.40886 -1.68378 0
M  V30 24380 H 2445.28 -1.38615 -0.846145 0
M  V30 24381 H 2447.28 -1.39324 -3.92931 0
M  V30 24382 H 2445.94 -0.458706 -3.21444 0
M  V30 24383 H 2446.95 -4.1539 -3.09309 0
M  V30 24384 H 2443.62 -1.67852 -3.82272 0
M  V30 24385 H 2445.01 -5.7103 -3.54083 0
M  V30 24386 N 2447.73 0.883355 -1.30517 0
M  V30 24387 C 2448.96 1.67365 -1.2249 0
M  V30 24388 C 2449.38 1.86938 0.208734 0
M  V30 24389 O 2448.74 1.4015 1.15012 0
M  V30 24390 C 2448.79 3.02652 -1.96047 0
M  V30 24391 O 2447.89 3.91749 -1.28866 0
M  V30 24392 H 2447.23 0.511345 -0.423582 0
M  V30 24393 H 2449.76 1.10236 -1.72364 0
M  V30 24394 H 2449.77 3.52683 -2.05131 0
M  V30 24395 H 2448.45 2.87724 -3.00312 0
M  V30 24396 H 2447.03 3.5019 -1.28147 0
M  V30 24397 N 2449.21 1.13259 1.09591 0
M  V30 24398 C 2450.63 0.870447 1.33774 0
M  V30 24399 C 2450.83 -0.494891 1.95328 0
M  V30 24400 O 2449.88 -1.24177 2.19855 0
M  V30 24401 C 2451.2 1.99373 2.25102 0
M  V30 24402 C 2452.74 2.02562 2.38616 0
M  V30 24403 C 2453.22 3.14148 3.33279 0
M  V30 24404 N 2454.71 3.13647 3.40851 0
M  V30 24405 C 2455.45 3.96628 4.14094 0
M  V30 24406 N 2454.94 4.89619 4.90148 0
M  V30 24407 N 2456.73 3.84733 4.09801 0
M  V30 24408 H 2448.89 2.01217 0.680101 0
M  V30 24409 H 2451.15 0.876113 0.362118 0
M  V30 24410 H 2450.85 2.97804 1.87098 0
M  V30 24411 H 2450.73 1.90641 3.25478 0
M  V30 24412 H 2453.12 1.04745 2.75885 0
M  V30 24413 H 2453.2 2.15367 1.38025 0
M  V30 24414 H 2452.84 4.12203 2.96734 0
M  V30 24415 H 2452.77 2.98581 4.3377 0
M  V30 24416 H 2455.26 2.46287 2.8662 0
M  V30 24417 H 2455.57 5.49427 5.43461 0
M  V30 24418 H 2453.92 4.93626 4.89243 0
M  V30 24419 H 2457.11 3.11414 3.49484 0
M  V30 24420 H 2457.28 4.49632 4.66621 0
M  V30 24421 N 2450.69 -1.27539 0.925834 0
M  V30 24422 C 2451.92 -1.98559 0.581544 0
M  V30 24423 C 2452.33 -1.69084 -0.840011 0
M  V30 24424 O 2451.69 -0.950339 -1.55804 0
M  V30 24425 C 2451.74 -3.52635 0.795651 0
M  V30 24426 O 2451.46 -3.81078 2.16128 0
M  V30 24427 C 2452.96 -4.40909 0.459822 0
M  V30 24428 H 2450.18 -0.633718 0.22055 0
M  V30 24429 H 2452.73 -1.62438 1.24234 0
M  V30 24430 H 2450.88 -3.86974 0.181678 0
M  V30 24431 H 2451.3 -4.75672 2.20989 0
M  V30 24432 H 2452.77 -5.48036 0.66034 0
M  V30 24433 H 2453.25 -4.35019 -0.604548 0
M  V30 24434 H 2453.85 -4.12088 1.05185 0
M  V30 24435 N 2452.17 -0.691135 -1.41637 0
M  V30 24436 C 2453.58 -0.295549 -1.84346 0
M  V30 24437 C 2453.93 1.16544 -1.57835 0
M  V30 24438 O 2453.05 1.89412 -1.04652 0
M  V30 24439 C 2453.65 -0.529634 -3.34635 0
M  V30 24440 C 2452.21 -0.18801 -3.7593 0
M  V30 24441 C 2451.36 -0.814099 -2.65081 0
M  V30 24442 H 2454.31 -0.892115 -1.31252 0
M  V30 24443 H 2454.33 0.213082 -3.79903 0
M  V30 24444 H 2453.84 -1.59304 -3.53898 0
M  V30 24445 H 2451.94 0.871304 -3.62269 0
M  V30 24446 H 2452.05 -0.639933 -4.74807 0
M  V30 24447 H 2450.42 -0.244061 -2.53528 0
M  V30 24448 H 2451.2 -1.88128 -2.87163 0
M  V30 24449 N 2453.65 1.51461 -0.435577 0
M  V30 24450 C 2454.56 2.31453 0.38296 0
M  V30 24451 C 2455.57 1.40291 1.02929 0
M  V30 24452 O 2456.75 1.73363 1.02504 0
M  V30 24453 C 2453.81 3.13976 1.47037 0
M  V30 24454 C 2452.87 4.20915 0.844359 0
M  V30 24455 C 2452.11 4.99493 1.87995 0
M  V30 24456 O 2452.33 4.78684 3.10191 0
M  V30 24457 O 2451.26 5.83636 1.47147 0
M  V30 24458 H 2455.09 3.02497 -0.270017 0
M  V30 24459 H 2452.67 1.4808 -0.198156 0
M  V30 24460 H 2454.56 3.65285 2.10107 0
M  V30 24461 H 2453.23 2.45698 2.10746 0
M  V30 24462 H 2452.14 3.73687 0.175663 0
M  V30 24463 H 2453.47 4.91561 0.250782 0
M  V30 24464 N 2455.12 0.166873 1.56714 0
M  V30 24465 C 2456.35 -0.484905 2.00829 0
M  V30 24466 C 2456.76 -1.57646 1.04615 0
M  V30 24467 O 2456.11 -1.8366 0.0383524 0
M  V30 24468 C 2456.17 -1.12717 3.41372 0
M  V30 24469 C 2455.83 -0.177806 4.56654 0
M  V30 24470 C 2456.83 0.602161 5.16401 0
M  V30 24471 C 2454.51 -0.0749256 5.02244 0
M  V30 24472 C 2456.51 1.47225 6.20164 0
M  V30 24473 C 2454.19 0.798756 6.05857 0
M  V30 24474 C 2455.19 1.57093 6.64688 0
M  V30 24475 O 2454.88 2.43002 7.66293 0
M  V30 24476 H 2454.61 -0.128941 0.663589 0
M  V30 24477 H 2457.17 0.264401 2.03691 0
M  V30 24478 H 2455.4 -1.92451 3.35409 0
M  V30 24479 H 2457.09 -1.6807 3.69469 0
M  V30 24480 H 2457.85 0.532825 4.82064 0
M  V30 24481 H 2453.73 -0.665732 4.56168 0
M  V30 24482 H 2457.27 2.07543 6.66012 0
M  V30 24483 H 2453.17 0.869311 6.3962 0
M  V30 24484 H 2453.94 2.36469 7.83597 0
M  V30 24485 N 2456.6 -1.57237 -0.106866 0
M  V30 24486 C 2457.83 -1.89406 -0.825157 0
M  V30 24487 C 2458.24 -0.757526 -1.73373 0
M  V30 24488 O 2457.58 0.280083 -1.81552 0
M  V30 24489 C 2457.65 -3.16713 -1.70097 0
M  V30 24490 C 2457.31 -4.46686 -0.965444 0
M  V30 24491 C 2458.31 -5.1903 -0.30065 0
M  V30 24492 C 2455.99 -4.93368 -0.943018 0
M  V30 24493 C 2457.99 -6.36286 0.376734 0
M  V30 24494 C 2455.67 -6.10539 -0.261842 0
M  V30 24495 C 2456.67 -6.81846 0.396867 0
M  V30 24496 O 2456.36 -7.96786 1.06715 0
M  V30 24497 H 2456.09 -0.63126 -0.241841 0
M  V30 24498 H 2458.64 -2.05193 -0.092113 0
M  V30 24499 H 2456.87 -2.97041 -2.47596 0
M  V30 24500 H 2458.56 -3.34806 -2.29477 0
M  V30 24501 H 2459.33 -4.84011 -0.309514 0
M  V30 24502 H 2455.21 -4.37762 -1.44517 0
M  V30 24503 H 2458.75 -6.91881 0.891455 0
M  V30 24504 H 2454.65 -6.45013 -0.250783 0
M  V30 24505 H 2455.42 -8.12698 0.97285 0
M  V30 24506 N 2458.08 0.377381 -1.53015 0
M  V30 24507 C 2459.49 0.95477 -1.6044 0
M  V30 24508 C 2459.84 1.90623 -0.464451 0
M  V30 24509 O 2458.97 2.12464 0.410833 0
M  V30 24510 C 2459.56 1.73842 -2.908 0
M  V30 24511 C 2458.12 2.26533 -3.00599 0
M  V30 24512 C 2457.27 1.07425 -2.55647 0
M  V30 24513 H 2460.22 0.156548 -1.57926 0
M  V30 24514 H 2460.24 2.59865 -2.77939 0
M  V30 24515 H 2459.75 1.04567 -3.73748 0
M  V30 24516 H 2457.85 2.99085 -2.22214 0
M  V30 24517 H 2457.97 2.55223 -4.0546 0
M  V30 24518 H 2456.33 1.43773 -2.10241 0
M  V30 24519 H 2457.11 0.396669 -3.41001 0
M  V30 24520 N 2459.56 1.44175 0.636506 0
M  V30 24521 C 2460.51 1.50918 1.76993 0
M  V30 24522 C 2461.5 0.381324 1.65052 0
M  V30 24523 O 2462.71 0.556041 1.71196 0
M  V30 24524 H 2459.08 0.473465 0.584239 0
M  V30 24525 H 2461.05 2.46323 1.68427 0
M  V30 24526 C 2459.8 1.4654 3.15312 0
M  V30 24527 H 2459.12 2.32639 3.25145 0
M  V30 24528 H 2460.56 1.55319 3.94528 0
M  V30 24529 C 2459.02 0.185364 3.3639 0
M  V30 24530 O 2459.55 -0.746618 3.94701 0
M  V30 24531 N 2457.76 0.0902117 2.9046 0
M  V30 24532 H 2457.31 0.849459 2.43191 0
M  V30 24533 H 2457.26 -0.7655 3.04938 0
M  V30 24534 N 2461.04 -0.876421 1.30983 0
M  V30 24535 C 2462 -1.96457 1.18057 0
M  V30 24536 C 2463 -1.60427 0.109428 0
M  V30 24537 O 2464.19 -1.70477 0.358203 0
M  V30 24538 C 2461.32 -3.31121 0.810675 0
M  V30 24539 H 2462.51 -2.0935 2.14739 0
M  V30 24540 H 2460.07 -1.0639 1.14502 0
M  V30 24541 H 2460.8 -3.23928 -0.155265 0
M  V30 24542 H 2460.59 -3.58642 1.58487 0
M  V30 24543 H 2462.08 -4.1092 0.743948 0
M  V30 24544 N 2462.51 -1.13839 -1.08989 0
M  V30 24545 C 2463.76 -0.90113 -1.80898 0
M  V30 24546 C 2464.08 0.574101 -1.86357 0
M  V30 24547 O 2463.35 1.41731 -1.35237 0
M  V30 24548 H 2461.93 -0.330398 -0.66996 0
M  V30 24549 H 2464.6 -1.43581 -1.31798 0
M  V30 24550 H 2463.69 -1.29583 -2.83927 0
M  V30 24551 N 2463.99 1.27046 -0.932584 0
M  V30 24552 C 2464.92 2.29065 -0.452942 0
M  V30 24553 C 2465.9 1.6291 0.48931 0
M  V30 24554 O 2467.09 1.90182 0.393013 0
M  V30 24555 C 2464.22 3.46082 0.290637 0
M  V30 24556 C 2463.17 4.24264 -0.564242 0
M  V30 24557 C 2462.5 5.33808 0.308793 0
M  V30 24558 C 2463.8 4.89146 -1.83121 0
M  V30 24559 H 2465.49 2.69435 -1.30557 0
M  V30 24560 H 2463.04 1.29525 -0.629224 0
M  V30 24561 H 2464.99 4.16555 0.63716 0
M  V30 24562 H 2463.72 3.04642 1.17733 0
M  V30 24563 H 2462.37 3.55544 -0.89354 0
M  V30 24564 H 2462.02 4.88609 1.19458 0
M  V30 24565 H 2461.72 5.87026 -0.259736 0
M  V30 24566 H 2463.25 6.07122 0.650777 0
M  V30 24567 H 2464.66 5.5188 -1.55246 0
M  V30 24568 H 2463.06 5.52444 -2.34363 0
M  V30 24569 H 2464.13 4.12572 -2.5478 0
M  V30 24570 N 2465.47 0.698636 1.41269 0
M  V30 24571 C 2466.72 0.227984 2.00407 0
M  V30 24572 C 2467.03 -1.1802 1.55983 0
M  V30 24573 O 2468.24 -1.74848 2.07702 0
M  V30 24574 C 2466.69 0.356699 3.58128 0
M  V30 24575 C 2466.3 1.77045 4.11533 0
M  V30 24576 C 2468.05 -0.0540223 4.24466 0
M  V30 24577 C 2465.95 1.85065 5.61698 0
M  V30 24578 H 2464.88 0.0814788 0.749585 0
M  V30 24579 H 2467.53 0.867277 1.61711 0
M  V30 24580 H 2465.92 -0.350896 3.94442 0
M  V30 24581 H 2467.09 2.50705 3.86631 0
M  V30 24582 H 2465.41 2.13112 3.57732 0
M  V30 24583 H 2468 -0.0145783 5.34698 0
M  V30 24584 H 2468.35 -1.09325 4.01689 0
M  V30 24585 H 2468.88 0.603406 3.93197 0
M  V30 24586 H 2465.62 2.87051 5.89307 0
M  V30 24587 H 2465.14 1.15794 5.88517 0
M  V30 24588 H 2466.82 1.61495 6.26521 0
M  V30 24589 N 2466.95 -1.51228 0.443603 0
M  V30 24590 C 2467.88 -2.24486 -0.41005 0
M  V30 24591 C 2468.86 -1.26671 -1.01947 0
M  V30 24592 O 2470.04 -1.55823 -1.06072 0
M  V30 24593 C 2467.17 -3.00006 -1.57206 0
M  V30 24594 C 2466.22 -4.12528 -1.08272 0
M  V30 24595 S 2467.05 -5.35496 -0.0196535 0
M  V30 24596 C 2468.21 -6.14557 -1.18619 0
M  V30 24597 H 2468.44 -2.96544 0.211884 0
M  V30 24598 H 2465.97 -1.52705 0.228182 0
M  V30 24599 H 2467.93 -3.44115 -2.23819 0
M  V30 24600 H 2466.59 -2.27526 -2.16543 0
M  V30 24601 H 2465.78 -4.64671 -1.95185 0
M  V30 24602 H 2465.39 -3.70713 -0.494732 0
M  V30 24603 H 2467.68 -6.44024 -2.10332 0
M  V30 24604 H 2468.62 -7.04586 -0.704596 0
M  V30 24605 H 2469.03 -5.4615 -1.42759 0
M  V30 24606 N 2468.43 -0.175182 -1.56623 0
M  V30 24607 C 2469.37 0.770456 -2.19469 0
M  V30 24608 C 2470.37 1.23464 -1.15987 0
M  V30 24609 O 2471.57 1.19985 -1.34178 0
M  V30 24610 H 2467.95 0.266749 -0.7031 0
M  V30 24611 H 2469.92 0.216489 -2.97614 0
M  V30 24612 C 2468.67 1.98791 -2.85267 0
M  V30 24613 H 2467.99 1.63976 -3.64626 0
M  V30 24614 H 2469.43 2.62837 -3.32705 0
M  V30 24615 C 2467.89 2.81401 -1.85244 0
M  V30 24616 O 2468.42 3.7868 -1.34031 0
M  V30 24617 N 2466.63 2.46492 -1.53915 0
M  V30 24618 H 2466.17 1.67446 -1.95754 0
M  V30 24619 H 2466.13 3.02053 -0.872435 0
M  V30 24620 N 2469.91 1.57292 0.0985263 0
M  V30 24621 C 2471.14 1.89841 0.815101 0
M  V30 24622 C 2471.54 0.76671 1.72969 0
M  V30 24623 O 2470.89 -0.270451 1.81698 0
M  V30 24624 C 2470.95 3.17611 1.68415 0
M  V30 24625 C 2470.61 4.47191 0.941742 0
M  V30 24626 C 2471.61 5.19182 0.273121 0
M  V30 24627 C 2469.29 4.93862 0.91684 0
M  V30 24628 C 2471.29 6.36077 -0.410472 0
M  V30 24629 C 2468.98 6.10669 0.22946 0
M  V30 24630 C 2469.97 6.81626 -0.433022 0
M  V30 24631 O 2469.66 7.96208 -1.10939 0
M  V30 24632 H 2469.39 0.632533 0.23849 0
M  V30 24633 H 2471.95 2.05239 0.0812299 0
M  V30 24634 H 2470.18 2.9835 2.46017 0
M  V30 24635 H 2471.87 3.36019 2.27698 0
M  V30 24636 H 2472.63 4.84169 0.283841 0
M  V30 24637 H 2468.51 4.38523 1.42193 0
M  V30 24638 H 2472.06 6.91398 -0.928135 0
M  V30 24639 H 2467.95 6.45137 0.216573 0
M  V30 24640 H 2468.72 8.12171 -1.01594 0
M  V30 24641 N 2471.38 -0.369261 1.53213 0
M  V30 24642 C 2472.62 -1.12102 1.70917 0
M  V30 24643 C 2472.99 -1.86665 0.449477 0
M  V30 24644 O 2474.19 -2.64049 0.503152 0
M  V30 24645 C 2472.46 -2.05767 2.92224 0
M  V30 24646 S 2474.02 -2.88513 3.30614 0
M  V30 24647 H 2470.84 -0.379179 0.601452 0
M  V30 24648 H 2473.44 -0.40276 1.91306 0
M  V30 24649 H 2472.14 -1.49746 3.82105 0
M  V30 24650 H 2471.67 -2.82071 2.74225 0
M  V30 24651 H 2473.69 -4.08042 2.8234 0
M  V30 24652 N 2472.86 -1.4451 -0.628851 0
M  V30 24653 C 2474.28 -1.28447 -0.947283 0
M  V30 24654 C 2474.48 -0.221907 -2.00274 0
M  V30 24655 O 2473.53 0.391427 -2.49448 0
M  V30 24656 C 2474.85 -2.65678 -1.40839 0
M  V30 24657 C 2476.39 -2.73406 -1.52374 0
M  V30 24658 C 2476.87 -4.11112 -2.01868 0
M  V30 24659 N 2478.36 -4.133 -2.09134 0
M  V30 24660 C 2479.1 -5.16704 -2.48606 0
M  V30 24661 N 2478.59 -6.30467 -2.87198 0
M  V30 24662 N 2480.38 -5.04059 -2.4876 0
M  V30 24663 H 2472.54 -2.12287 0.069135 0
M  V30 24664 H 2474.8 -0.94747 -0.0316998 0
M  V30 24665 H 2474.5 -3.44518 -0.707145 0
M  V30 24666 H 2474.38 -2.9272 -2.37897 0
M  V30 24667 H 2476.77 -1.94884 -2.21595 0
M  V30 24668 H 2476.85 -2.50103 -0.536855 0
M  V30 24669 H 2476.49 -4.90111 -1.33242 0
M  V30 24670 H 2476.42 -4.31794 -3.01432 0
M  V30 24671 H 2478.91 -3.31195 -1.81985 0
M  V30 24672 H 2479.22 -7.05179 -3.16136 0
M  V30 24673 H 2477.57 -6.33902 -2.84944 0
M  V30 24674 H 2480.76 -4.14237 -2.18002 0
M  V30 24675 H 2480.93 -5.84768 -2.79197 0
M  V30 24676 N 2474.34 0.869463 -1.31446 0
M  V30 24677 C 2475.29 1.99812 -1.1907 0
M  V30 24678 C 2476.28 1.69111 -0.0988866 0
M  V30 24679 O 2477.49 1.781 -0.260813 0
M  V30 24680 H 2473.86 0.655418 -0.368688 0
M  V30 24681 H 2475.83 2.07381 -2.14559 0
M  V30 24682 C 2474.58 3.35434 -0.915382 0
M  V30 24683 H 2473.91 3.59579 -1.74766 0
M  V30 24684 H 2475.35 4.15 -0.868968 0
M  V30 24685 C 2473.8 3.34729 0.38187 0
M  V30 24686 O 2474.33 3.7657 1.3985 0
M  V30 24687 N 2472.54 2.87854 0.398582 0
M  V30 24688 H 2472.09 2.53999 -0.429231 0
M  V30 24689 H 2472.05 2.87764 1.26646 0
M  V30 24690 N 2475.82 1.14415 1.08383 0
M  V30 24691 C 2477.23 0.923564 1.62257 0
M  V30 24692 C 2477.58 -0.537562 1.88692 0
M  V30 24693 O 2476.7 -1.40652 1.64457 0
M  V30 24694 C 2477.3 1.67008 2.94778 0
M  V30 24695 C 2475.86 1.49506 3.45434 0
M  V30 24696 C 2475.01 1.69242 2.19665 0
M  V30 24697 H 2477.96 1.29592 0.916064 0
M  V30 24698 H 2477.98 1.13341 3.63227 0
M  V30 24699 H 2477.49 2.73346 2.75506 0
M  V30 24700 H 2475.59 0.455162 3.69809 0
M  V30 24701 H 2475.7 2.26518 4.22169 0
M  V30 24702 H 2474.07 1.11808 2.28847 0
M  V30 24703 H 2474.85 2.76923 2.029 0
M  V30 24704 N 2477.3 -1.26549 0.939309 0
M  V30 24705 C 2478.57 -1.89 0.503833 0
M  V30 24706 C 2478.95 -1.84904 -1.01851 0
M  V30 24707 O 2478.3 -1.3021 -1.8777 0
M  V30 24708 C 2478.51 -3.32415 1.06306 0
M  V30 24709 C 2479.86 -4.09271 1.13058 0
M  V30 24710 O 2480.88 -3.41477 1.01351 0
M  V30 24711 O 2479.74 -5.30507 1.31242 0
M  V30 24712 H 2476.84 -0.810594 0.163911 0
M  V30 24713 H 2479.38 -1.34733 1.03175 0
M  V30 24714 H 2478.15 -3.29748 2.1067 0
M  V30 24715 H 2477.78 -3.94218 0.517477 0
M  V30 24716 N 2478.77 -0.706118 -1.40896 0
M  V30 24717 C 2479.74 -0.0563244 -2.29131 0
M  V30 24718 C 2480.74 0.697141 -1.44902 0
M  V30 24719 O 2481.93 0.530455 -1.65927 0
M  V30 24720 C 2479.06 0.930372 -3.27959 0
M  V30 24721 H 2480.25 -0.833334 -2.88089 0
M  V30 24722 H 2477.8 -0.470218 -1.49059 0
M  V30 24723 H 2478.54 1.73477 -2.74 0
M  V30 24724 H 2478.32 0.393098 -3.90125 0
M  V30 24725 H 2479.81 1.38249 -3.94052 0
M  V30 24726 N 2480.25 1.50991 -0.451617 0
M  V30 24727 C 2481.5 2.025 0.110202 0
M  V30 24728 C 2481.83 1.33426 1.41107 0
M  V30 24729 O 2481.11 0.453692 1.89135 0
M  V30 24730 C 2481.39 3.58727 0.314208 0
M  V30 24731 C 2481.24 4.38399 -1.00631 0
M  V30 24732 C 2482.56 4.26704 1.07759 0
M  V30 24733 H 2479.68 0.73599 0.0385767 0
M  V30 24734 H 2482.32 1.80496 -0.593406 0
M  V30 24735 H 2480.47 3.77607 0.913535 0
M  V30 24736 H 2482.14 4.31136 -1.64072 0
M  V30 24737 H 2480.39 4.02914 -1.60757 0
M  V30 24738 H 2481.06 5.45914 -0.817437 0
M  V30 24739 H 2483.53 4.1218 0.569788 0
M  V30 24740 H 2482.41 5.35865 1.18911 0
M  V30 24741 H 2482.67 3.88536 2.10932 0
M  V30 24742 N 2481.73 0.183486 1.56528 0
M  V30 24743 C 2482.69 -0.728185 2.17325 0
M  V30 24744 C 2483.69 -1.14937 1.12455 0
M  V30 24745 O 2484.88 -1.06434 1.37903 0
M  V30 24746 C 2482.01 -1.99269 2.76595 0
M  V30 24747 H 2483.21 -0.19872 2.99241 0
M  V30 24748 H 2480.76 -0.0661116 1.5616 0
M  V30 24749 H 2481.5 -2.56495 1.98446 0
M  V30 24750 H 2481.28 -1.69953 3.53353 0
M  V30 24751 H 2482.77 -2.64305 3.23315 0
M  V30 24752 N 2483.21 -1.57342 -0.0901833 0
M  V30 24753 C 2484.17 -2.01443 -1.09332 0
M  V30 24754 C 2485.17 -0.908664 -1.32665 0
M  V30 24755 O 2486.36 -1.17402 -1.28695 0
M  V30 24756 C 2483.49 -2.37934 -2.44132 0
M  V30 24757 H 2484.69 -2.91286 -0.713611 0
M  V30 24758 H 2482.24 -1.52659 -0.335377 0
M  V30 24759 H 2482.97 -1.5106 -2.86969 0
M  V30 24760 H 2482.76 -3.18607 -2.28543 0
M  V30 24761 H 2484.25 -2.72694 -3.16272 0
M  V30 24762 N 2484.69 0.36113 -1.53407 0
M  V30 24763 C 2486.1 0.937699 -1.61444 0
M  V30 24764 C 2486.45 1.9012 -0.484643 0
M  V30 24765 O 2485.57 2.12888 0.388275 0
M  V30 24766 C 2486.17 1.70748 -2.92627 0
M  V30 24767 C 2484.73 2.23332 -3.02985 0
M  V30 24768 C 2483.87 1.04707 -2.56772 0
M  V30 24769 H 2486.83 0.139789 -1.58083 0
M  V30 24770 H 2486.85 2.56903 -2.8068 0
M  V30 24771 H 2486.36 1.00597 -3.74836 0
M  V30 24772 H 2484.46 2.96711 -2.25373 0
M  V30 24773 H 2484.57 2.50909 -4.08144 0
M  V30 24774 H 2482.94 1.41535 -2.11754 0
M  V30 24775 H 2483.72 0.360479 -3.41402 0
M  V30 24776 N 2486.16 1.44842 0.621179 0
M  V30 24777 C 2487.39 1.51428 1.40545 0
M  V30 24778 C 2487.8 0.141116 1.88673 0
M  V30 24779 O 2487.15 -0.865099 1.62055 0
M  V30 24780 C 2487.21 2.4258 2.65321 0
M  V30 24781 C 2486.87 3.8957 2.38923 0
M  V30 24782 C 2487.87 4.79838 2.0013 0
M  V30 24783 C 2485.55 4.34365 2.52255 0
M  V30 24784 C 2487.55 6.12903 1.7501 0
M  V30 24785 C 2485.23 5.67475 2.2675 0
M  V30 24786 C 2486.23 6.56563 1.88187 0
M  V30 24787 O 2485.92 7.87207 1.62972 0
M  V30 24788 H 2485.65 0.515663 0.437113 0
M  V30 24789 H 2488.21 1.90584 0.765954 0
M  V30 24790 H 2486.44 1.9837 3.31943 0
M  V30 24791 H 2488.13 2.40004 3.27342 0
M  V30 24792 H 2488.89 4.46499 1.89378 0
M  V30 24793 H 2484.77 3.65274 2.8124 0
M  V30 24794 H 2488.31 6.82399 1.44836 0
M  V30 24795 H 2484.21 6.00372 2.37114 0
M  V30 24796 H 2484.98 7.99103 1.77136 0
M  V30 24797 N 2487.64 -0.862479 1.31905 0
M  V30 24798 C 2488.88 -1.63002 1.23327 0
M  V30 24799 C 2489.25 -1.90916 -0.203691 0
M  V30 24800 O 2490.45 -2.65607 -0.413085 0
M  V30 24801 C 2488.72 -2.91974 2.06121 0
M  V30 24802 S 2490.28 -3.82808 2.14484 0
M  V30 24803 H 2487.1 -0.559186 0.439127 0
M  V30 24804 H 2489.7 -1.022 1.6666 0
M  V30 24805 H 2488.4 -2.69402 3.09598 0
M  V30 24806 H 2487.93 -3.57798 1.63536 0
M  V30 24807 H 2489.95 -4.79175 1.28863 0
M  V30 24808 N 2489.12 -1.14988 -1.07775 0
M  V30 24809 C 2490.35 -0.944434 -1.8375 0
M  V30 24810 C 2490.76 0.510548 -1.82181 0
M  V30 24811 O 2490.1 1.36574 -1.22854 0
M  V30 24812 C 2490.16 -1.37597 -3.32125 0
M  V30 24813 C 2489.83 -2.84781 -3.5742 0
M  V30 24814 C 2490.82 -3.82866 -3.51724 0
M  V30 24815 C 2488.51 -3.22347 -3.85224 0
M  V30 24816 C 2490.5 -5.16524 -3.73473 0
M  V30 24817 C 2488.19 -4.56178 -4.06626 0
M  V30 24818 C 2489.19 -5.53076 -4.00744 0
M  V30 24819 O 2488.88 -6.84491 -4.21578 0
M  V30 24820 H 2488.61 -0.335755 -0.586724 0
M  V30 24821 H 2491.16 -1.53055 -1.36979 0
M  V30 24822 H 2489.39 -0.733231 -3.79685 0
M  V30 24823 H 2491.08 -1.14031 -3.89553 0
M  V30 24824 H 2491.85 -3.5519 -3.3025 0
M  V30 24825 H 2487.73 -2.47514 -3.88918 0
M  V30 24826 H 2491.27 -5.92144 -3.68798 0
M  V30 24827 H 2487.17 -4.83572 -4.27585 0
M  V30 24828 H 2487.94 -6.90845 -4.38949 0
M  V30 24829 N 2490.6 1.26049 -0.946007 0
M  V30 24830 C 2491.83 1.97609 -0.613059 0
M  V30 24831 C 2492.24 1.70399 0.813005 0
M  V30 24832 O 2491.6 0.975006 1.54272 0
M  V30 24833 C 2491.65 3.51325 -0.851651 0
M  V30 24834 O 2491.37 3.77591 -2.22163 0
M  V30 24835 C 2492.87 4.40121 -0.529909 0
M  V30 24836 H 2490.09 0.630129 -0.230604 0
M  V30 24837 H 2492.64 1.60441 -1.26803 0
M  V30 24838 H 2490.79 3.86636 -0.243219 0
M  V30 24839 H 2491.2 4.72096 -2.28528 0
M  V30 24840 H 2492.68 5.46916 -0.747444 0
M  V30 24841 H 2493.16 4.35926 0.535264 0
M  V30 24842 H 2493.76 4.10362 -1.11728 0
M  V30 24843 N 2492.08 0.71358 1.4052 0
M  V30 24844 C 2493.49 0.386934 1.54839 0
M  V30 24845 C 2493.69 -1.10447 1.68534 0
M  V30 24846 O 2492.75 -1.8905 1.67381 0
M  V30 24847 C 2494.06 1.15123 2.7779 0
M  V30 24848 C 2495.61 1.13734 2.91605 0
M  V30 24849 C 2496.08 1.88376 4.17467 0
M  V30 24850 N 2497.58 1.85434 4.24462 0
M  V30 24851 C 2498.31 2.40013 5.20751 0
M  V30 24852 N 2497.81 3.0314 6.22959 0
M  V30 24853 N 2499.6 2.30167 5.12815 0
M  V30 24854 H 2491.75 1.68065 1.29876 0
M  V30 24855 H 2494.01 0.710258 0.627883 0
M  V30 24856 H 2493.72 2.20566 2.73941 0
M  V30 24857 H 2493.59 0.741542 3.69839 0
M  V30 24858 H 2495.98 0.0911127 2.94959 0
M  V30 24859 H 2496.06 1.58624 2.00679 0
M  V30 24860 H 2495.71 2.92987 4.14874 0
M  V30 24861 H 2495.64 1.40907 5.07398 0
M  V30 24862 H 2498.13 1.39427 3.51239 0
M  V30 24863 H 2498.44 3.42307 6.92853 0
M  V30 24864 H 2496.78 3.07223 6.23409 0
M  V30 24865 H 2499.98 1.80509 4.31896 0
M  V30 24866 H 2500.15 2.73003 5.87685 0
M  V30 24867 N 2493.55 -1.50749 0.459618 0
M  V30 24868 C 2494.83 -1.94942 -0.160336 0
M  V30 24869 C 2495.21 -1.39946 -1.58046 0
M  V30 24870 O 2494.56 -0.595668 -2.20599 0
M  V30 24871 C 2494.77 -3.48809 -0.115371 0
M  V30 24872 C 2496.12 -4.23467 -0.309952 0
M  V30 24873 O 2497.14 -3.5568 -0.192481 0
M  V30 24874 O 2496 -5.43766 -0.545935 0
M  V30 24875 H 2493.09 -0.818551 -0.11791 0
M  V30 24876 H 2495.64 -1.61562 0.519198 0
M  V30 24877 H 2494.41 -3.81355 0.876587 0
M  V30 24878 H 2494.04 -3.88693 -0.836859 0
M  V30 24879 N 2495.03 -0.191784 -1.56429 0
M  V30 24880 C 2496.44 0.321396 -1.83913 0
M  V30 24881 C 2496.79 1.61621 -1.11234 0
M  V30 24882 O 2495.92 2.13178 -0.372058 0
M  V30 24883 C 2496.51 0.589903 -3.33625 0
M  V30 24884 C 2495.07 1.04746 -3.61532 0
M  V30 24885 C 2494.22 0.094284 -2.7714 0
M  V30 24886 H 2497.17 -0.415639 -1.5316 0
M  V30 24887 H 2497.19 1.4396 -3.52215 0
M  V30 24888 H 2496.7 -0.352656 -3.86494 0
M  V30 24889 H 2494.81 2.00441 -3.14092 0
M  V30 24890 H 2494.92 0.942466 -4.69739 0
M  V30 24891 H 2493.28 0.595546 -2.4764 0
M  V30 24892 H 2494.07 -0.842659 -3.32797 0
M  V30 24893 N 2496.51 1.57387 0.0818378 0
M  V30 24894 C 2497.76 1.86386 0.781335 0
M  V30 24895 C 2498.08 0.782374 1.78617 0
M  V30 24896 O 2497.35 -0.190027 1.94976 0
M  V30 24897 H 2495.93 0.687756 0.29155 0
M  V30 24898 H 2498.59 1.94807 0.0603137 0
M  V30 24899 H 2497.69 2.83564 1.30375 0
M  V30 24900 N 2497.99 -0.35299 1.53596 0
M  V30 24901 C 2499.23 -1.0959 1.7064 0
M  V30 24902 C 2499.57 -1.88592 0.463319 0
M  V30 24903 O 2498.84 -1.86866 -0.539564 0
M  V30 24904 C 2499.13 -2.04484 2.96409 0
M  V30 24905 C 2498.98 -1.29007 4.30903 0
M  V30 24906 C 2500.3 -3.04434 3.17817 0
M  V30 24907 H 2497.42 -0.397023 0.62092 0
M  V30 24908 H 2500.06 -0.375413 1.86254 0
M  V30 24909 H 2498.21 -2.65922 2.83228 0
M  V30 24910 H 2499.88 -0.702558 4.55919 0
M  V30 24911 H 2498.12 -0.591996 4.29742 0
M  V30 24912 H 2498.79 -1.98528 5.15064 0
M  V30 24913 H 2501.27 -2.53106 3.30267 0
M  V30 24914 H 2500.15 -3.68042 4.0723 0
M  V30 24915 H 2500.41 -3.75297 2.33676 0
M  V30 24916 N 2499.47 -1.45169 -0.613489 0
M  V30 24917 C 2500.88 -1.29445 -0.933606 0
M  V30 24918 C 2501.08 -0.243137 -2.00028 0
M  V30 24919 O 2500.14 0.364948 -2.49849 0
M  V30 24920 C 2501.45 -2.67157 -1.38013 0
M  V30 24921 C 2503 -2.75007 -1.49466 0
M  V30 24922 C 2503.48 -4.1323 -1.97496 0
M  V30 24923 N 2504.97 -4.15495 -2.04739 0
M  V30 24924 C 2505.7 -5.19311 -2.43112 0
M  V30 24925 N 2505.2 -6.33478 -2.80495 0
M  V30 24926 N 2506.99 -5.06669 -2.43399 0
M  V30 24927 H 2499.14 -2.12202 0.091647 0
M  V30 24928 H 2501.4 -0.947753 -0.0216488 0
M  V30 24929 H 2501.11 -3.45248 -0.670564 0
M  V30 24930 H 2500.98 -2.95226 -2.34779 0
M  V30 24931 H 2503.37 -1.97223 -2.19515 0
M  V30 24932 H 2503.45 -2.50658 -0.510298 0
M  V30 24933 H 2503.1 -4.91497 -1.28036 0
M  V30 24934 H 2503.03 -4.34967 -2.96836 0
M  V30 24935 H 2505.52 -3.33106 -1.78462 0
M  V30 24936 H 2505.83 -7.08492 -3.08639 0
M  V30 24937 H 2504.18 -6.36889 -2.78205 0
M  V30 24938 H 2507.37 -4.16526 -2.13596 0
M  V30 24939 H 2507.54 -5.87696 -2.72979 0
M  V30 24940 N 2500.95 0.855472 -1.32361 0
M  V30 24941 C 2502.19 1.6118 -1.24067 0
M  V30 24942 C 2502.55 1.914 0.19588 0
M  V30 24943 O 2501.84 1.5448 1.13342 0
M  V30 24944 C 2502.03 2.93959 -2.0328 0
M  V30 24945 C 2501.86 2.76706 -3.54491 0
M  V30 24946 C 2500.63 2.75131 -4.23829 0
M  V30 24947 C 2502.83 2.50523 -4.49158 0
M  V30 24948 N 2500.81 2.4908 -5.61099 0
M  V30 24949 C 2502.18 2.3387 -5.74199 0
M  V30 24950 C 2504.24 2.35984 -4.38424 0
M  V30 24951 C 2502.94 2.04156 -6.89719 0
M  V30 24952 C 2504.97 2.07661 -5.53743 0
M  V30 24953 C 2504.33 1.91808 -6.77783 0
M  V30 24954 H 2500.43 0.593541 -0.509149 0
M  V30 24955 H 2503.01 1.00566 -1.66717 0
M  V30 24956 H 2501.18 3.52553 -1.62976 0
M  V30 24957 H 2502.92 3.58964 -1.86887 0
M  V30 24958 H 2499.67 2.8804 -3.75939 0
M  V30 24959 H 2500.09 2.38985 -6.33415 0
M  V30 24960 H 2504.74 2.46961 -3.43176 0
M  V30 24961 H 2502.45 1.91916 -7.8498 0
M  V30 24962 H 2506.04 1.97191 -5.47364 0
M  V30 24963 H 2504.92 1.70203 -7.65507 0
M  V30 24964 N 2502.42 1.15558 1.07164 0
M  V30 24965 C 2503.33 0.868154 2.17945 0
M  V30 24966 C 2504.35 -0.156266 1.73297 0
M  V30 24967 O 2505.53 0.0182681 2.01392 0
M  V30 24968 C 2502.59 0.36361 3.44788 0
M  V30 24969 C 2501.65 1.45216 4.03993 0
M  V30 24970 C 2500.88 0.9716 5.24782 0
M  V30 24971 O 2501.11 -0.182094 5.70109 0
M  V30 24972 O 2500.04 1.75613 5.75712 0
M  V30 24973 H 2503.87 1.79431 2.45027 0
M  V30 24974 H 2501.45 0.934845 1.16538 0
M  V30 24975 H 2503.33 0.0887854 4.21306 0
M  V30 24976 H 2502.01 -0.534652 3.19254 0
M  V30 24977 H 2500.92 1.78062 3.29006 0
M  V30 24978 H 2502.25 2.32541 4.33804 0
M  V30 24979 N 2503.9 -1.25546 0.952678 0
M  V30 24980 C 2505.13 -1.96995 0.622626 0
M  V30 24981 C 2505.54 -1.71028 -0.809082 0
M  V30 24982 O 2504.88 -0.981888 -1.55257 0
M  V30 24983 C 2504.94 -3.50508 0.799008 0
M  V30 24984 C 2504.61 -4.00148 2.20751 0
M  V30 24985 C 2505.61 -4.10995 3.18401 0
M  V30 24986 C 2503.29 -4.33863 2.53117 0
M  V30 24987 C 2505.28 -4.54869 4.46512 0
M  V30 24988 C 2502.97 -4.77423 3.81458 0
M  V30 24989 C 2503.97 -4.87889 4.77968 0
M  V30 24990 O 2503.66 -5.30484 6.04022 0
M  V30 24991 H 2503.39 -0.634754 0.232514 0
M  V30 24992 H 2505.94 -1.60725 1.27893 0
M  V30 24993 H 2504.17 -3.86605 0.0855582 0
M  V30 24994 H 2505.86 -4.03166 0.470301 0
M  V30 24995 H 2506.63 -3.85181 2.94721 0
M  V30 24996 H 2502.51 -4.24945 1.78726 0
M  V30 24997 H 2506.05 -4.62953 5.21843 0
M  V30 24998 H 2501.95 -5.02683 4.04945 0
M  V30 24999 H 2502.72 -5.48675 6.0737 0
M  V30 25000 N 2505.38 -0.721022 -1.40139 0
M  V30 25001 C 2506.62 -0.26737 -2.02644 0
M  V30 25002 C 2506.98 1.11998 -1.5595 0
M  V30 25003 O 2508.18 1.67093 -2.10555 0
M  V30 25004 C 2506.46 -0.350344 -3.55679 0
M  V30 25005 S 2508.01 0.0255233 -4.38793 0
M  V30 25006 H 2504.83 -0.105676 -0.703103 0
M  V30 25007 H 2507.43 -0.944446 -1.71174 0
M  V30 25008 H 2506.14 -1.3616 -3.87155 0
M  V30 25009 H 2505.67 0.345027 -3.91884 0
M  V30 25010 H 2507.68 1.24596 -4.80302 0
M  V30 25011 N 2506.86 1.50503 -0.467606 0
M  V30 25012 C 2507.81 2.30065 0.342441 0
M  V30 25013 C 2508.8 1.37202 0.993572 0
M  V30 25014 O 2510.01 1.5441 0.925075 0
M  V30 25015 H 2506.38 0.740806 0.12927 0
M  V30 25016 H 2508.35 2.96352 -0.349042 0
M  V30 25017 C 2507.1 3.17657 1.41385 0
M  V30 25018 H 2506.42 3.89019 0.922196 0
M  V30 25019 H 2507.86 3.76328 1.95328 0
M  V30 25020 C 2506.32 2.3502 2.41386 0
M  V30 25021 O 2506.85 2.03085 3.46582 0
M  V30 25022 N 2505.06 1.97666 2.13017 0
M  V30 25023 H 2504.61 2.23836 1.27495 0
M  V30 25024 H 2504.56 1.42678 2.80161 0
M  V30 25025 N 2508.34 0.200077 1.56325 0
M  V30 25026 C 2509.27 -0.713877 2.2232 0
M  V30 25027 C 2510.25 -1.2175 1.1879 0
M  V30 25028 O 2511.43 -1.26543 1.47311 0
M  V30 25029 C 2508.56 -1.93139 2.88643 0
M  V30 25030 C 2507.52 -1.56248 3.9846 0
M  V30 25031 C 2506.84 -2.85701 4.51972 0
M  V30 25032 C 2508.14 -0.768656 5.16613 0
M  V30 25033 H 2509.84 -0.163702 2.98952 0
M  V30 25034 H 2507.38 -0.0772966 1.43792 0
M  V30 25035 H 2509.33 -2.57602 3.33495 0
M  V30 25036 H 2508.06 -2.50618 2.09424 0
M  V30 25037 H 2506.72 -0.941409 3.54306 0
M  V30 25038 H 2506.37 -3.4128 3.69509 0
M  V30 25039 H 2506.07 -2.61761 5.26075 0
M  V30 25040 H 2507.59 -3.51145 4.99529 0
M  V30 25041 H 2509 -1.3165 5.57979 0
M  V30 25042 H 2507.4 -0.627181 5.96814 0
M  V30 25043 H 2508.47 0.229253 4.84358 0
M  V30 25044 N 2509.81 -1.57429 -0.0734901 0
M  V30 25045 C 2511.04 -1.91391 -0.785936 0
M  V30 25046 C 2511.46 -0.795877 -1.71205 0
M  V30 25047 O 2510.81 0.230883 -1.81034 0
M  V30 25048 C 2510.86 -3.25094 -1.58101 0
M  V30 25049 O 2510.59 -4.32598 -0.692124 0
M  V30 25050 C 2512.09 -3.7306 -2.39461 0
M  V30 25051 H 2509.31 -0.632667 -0.223547 0
M  V30 25052 H 2511.85 -2.04452 -0.044266 0
M  V30 25053 H 2510.01 -3.13566 -2.27498 0
M  V30 25054 H 2510.42 -5.09511 -1.24496 0
M  V30 25055 H 2511.89 -4.69247 -2.90707 0
M  V30 25056 H 2512.37 -3.01984 -3.18908 0
M  V30 25057 H 2512.98 -3.87527 -1.75224 0
M  V30 25058 N 2511.29 0.344839 -1.53781 0
M  V30 25059 C 2512.22 1.44403 -1.7799 0
M  V30 25060 C 2513.24 1.4877 -0.661165 0
M  V30 25061 O 2514.43 1.51876 -0.937869 0
M  V30 25062 C 2511.53 2.83067 -1.8635 0
M  V30 25063 C 2510.7 3.02155 -3.16261 0
M  V30 25064 C 2509.76 4.21053 -3.15595 0
M  V30 25065 O 2508.78 4.15232 -3.89322 0
M  V30 25066 N 2509.99 5.29525 -2.37873 0
M  V30 25067 H 2512.75 1.24007 -2.72841 0
M  V30 25068 H 2510.31 0.53471 -1.52815 0
M  V30 25069 H 2512.3 3.6078 -1.83357 0
M  V30 25070 H 2510.87 2.96612 -0.98691 0
M  V30 25071 H 2510.09 2.11923 -3.32389 0
M  V30 25072 H 2511.38 3.1179 -4.02075 0
M  V30 25073 H 2510.78 5.37124 -1.77523 0
M  V30 25074 H 2509.34 6.05737 -2.40679 0
M  V30 25075 N 2512.77 1.45492 0.605781 0
M  V30 25076 C 2514.01 1.51145 1.37603 0
M  V30 25077 C 2514.37 0.150108 1.91412 0
M  V30 25078 O 2515.57 0.08133 2.68677 0
M  V30 25079 C 2513.85 2.56199 2.49192 0
M  V30 25080 S 2515.4 2.81089 3.36949 0
M  V30 25081 H 2512.22 0.534283 0.469108 0
M  V30 25082 H 2514.82 1.82584 0.698813 0
M  V30 25083 H 2513.53 3.53777 2.08014 0
M  V30 25084 H 2513.06 2.26416 3.21713 0
M  V30 25085 H 2515.07 2.14605 4.47391 0
M  V30 25086 N 2514.25 -0.848441 1.32813 0
M  V30 25087 C 2515.47 -1.64058 1.26885 0
M  V30 25088 C 2515.9 -1.87426 -0.159097 0
M  V30 25089 O 2515.26 -1.4315 -1.11256 0
M  V30 25090 C 2515.3 -2.97347 2.04002 0
M  V30 25091 O 2514.41 -3.88195 1.39207 0
M  V30 25092 H 2513.75 -0.499935 0.436991 0
M  V30 25093 H 2516.28 -1.05627 1.75226 0
M  V30 25094 H 2516.29 -3.47121 2.14409 0
M  V30 25095 H 2514.96 -2.79661 3.07835 0
M  V30 25096 H 2513.54 -3.46669 1.37387 0
M  V30 25097 N 2515.73 -1.16125 -1.06549 0
M  V30 25098 C 2517 -0.851451 -1.76096 0
M  V30 25099 C 2517.38 0.651264 -2.00803 0
M  V30 25100 O 2516.73 1.59824 -1.63305 0
M  V30 25101 C 2516.94 -1.67128 -3.06381 0
M  V30 25102 C 2518.29 -1.88262 -3.80582 0
M  V30 25103 O 2519.31 -1.63972 -3.16215 0
M  V30 25104 O 2518.17 -2.28999 -4.96208 0
M  V30 25105 H 2515.27 -0.313937 -0.765096 0
M  V30 25106 H 2517.81 -1.26747 -1.12841 0
M  V30 25107 H 2516.58 -2.69113 -2.84066 0
M  V30 25108 H 2516.21 -1.25213 -3.77369 0
M  V30 25109 N 2517.2 1.25039 -0.959323 0
M  V30 25110 C 2518.17 2.23951 -0.487717 0
M  V30 25111 C 2519.17 1.55454 0.411162 0
M  V30 25112 O 2520.36 1.72956 0.207794 0
M  V30 25113 C 2517.49 3.39623 0.294748 0
M  V30 25114 H 2518.68 2.67187 -1.36203 0
M  V30 25115 H 2516.24 1.37507 -0.743066 0
M  V30 25116 H 2516.97 3.01815 1.18652 0
M  V30 25117 H 2516.76 3.90533 -0.350189 0
M  V30 25118 H 2518.25 4.13061 0.614017 0
M  V30 25119 N 2518.68 0.728444 1.39755 0
M  V30 25120 C 2519.59 0.0855786 2.34444 0
M  V30 25121 C 2520.61 -0.729328 1.57977 0
M  V30 25122 O 2521.78 -0.659313 1.90302 0
M  V30 25123 C 2518.85 -0.815738 3.36967 0
M  V30 25124 C 2517.91 0.0106751 4.29299 0
M  V30 25125 C 2517.14 -0.847717 5.26925 0
M  V30 25126 O 2517.37 -2.08664 5.30863 0
M  V30 25127 O 2516.3 -0.279863 6.01249 0
M  V30 25128 H 2520.13 0.866943 2.91063 0
M  V30 25129 H 2517.71 0.489045 1.41169 0
M  V30 25130 H 2519.59 -1.33164 3.99807 0
M  V30 25131 H 2518.27 -1.57603 2.82742 0
M  V30 25132 H 2517.18 0.571942 3.69702 0
M  V30 25133 H 2518.51 0.733036 4.86711 0
M  V30 25134 N 2520.16 -1.50253 0.475581 0
M  V30 25135 C 2521.41 -2.01951 -0.0777025 0
M  V30 25136 C 2521.73 -1.35934 -1.39811 0
M  V30 25137 O 2521 -0.506156 -1.89248 0
M  V30 25138 H 2519.58 -0.746327 -0.0317059 0
M  V30 25139 H 2522.24 -1.84538 0.627028 0
M  V30 25140 H 2521.34 -3.11281 -0.225941 0
M  V30 25141 N 2521.64 -0.208365 -1.56217 0
M  V30 25142 C 2522.87 0.432114 -2.02337 0
M  V30 25143 C 2523.28 1.54273 -1.08837 0
M  V30 25144 O 2522.64 1.8225 -0.0955782 0
M  V30 25145 C 2522.69 0.976077 -3.48073 0
M  V30 25146 O 2522.41 -0.090239 -4.38007 0
M  V30 25147 C 2523.91 1.69112 -4.09776 0
M  V30 25148 H 2521.13 0.107168 -0.662387 0
M  V30 25149 H 2523.68 -0.320958 -2.01966 0
M  V30 25150 H 2521.83 1.67948 -3.49102 0
M  V30 25151 H 2522.24 0.316609 -5.23544 0
M  V30 25152 H 2523.72 2.02388 -5.13559 0
M  V30 25153 H 2524.2 2.59958 -3.54004 0
M  V30 25154 H 2524.8 1.03325 -4.12558 0
M  V30 25155 N 2523.12 1.57465 0.0651402 0
M  V30 25156 C 2524.08 2.03157 1.06113 0
M  V30 25157 C 2525.08 0.929655 1.31202 0
M  V30 25158 O 2526.27 1.19435 1.26811 0
M  V30 25159 C 2523.4 2.41788 2.40315 0
M  V30 25160 H 2524.59 2.92385 0.667179 0
M  V30 25161 H 2522.15 1.53174 0.311048 0
M  V30 25162 H 2522.88 1.55606 2.8453 0
M  V30 25163 H 2522.67 3.22203 2.23445 0
M  V30 25164 H 2524.16 2.77691 3.11893 0
M  V30 25165 N 2524.59 -0.336679 1.53962 0
M  V30 25166 C 2525.84 -1.07774 1.71792 0
M  V30 25167 C 2526.17 -1.8809 0.483296 0
M  V30 25168 O 2525.45 -1.87428 -0.519714 0
M  V30 25169 C 2525.73 -2.01328 2.98561 0
M  V30 25170 C 2525.58 -1.24429 4.32247 0
M  V30 25171 C 2526.9 -3.01046 3.21028 0
M  V30 25172 H 2524.02 -0.390415 0.625096 0
M  V30 25173 H 2526.66 -0.355637 1.86642 0
M  V30 25174 H 2524.81 -2.62903 2.86032 0
M  V30 25175 H 2526.49 -0.654162 4.56638 0
M  V30 25176 H 2524.73 -0.546383 4.30345 0
M  V30 25177 H 2525.4 -1.93054 5.1714 0
M  V30 25178 H 2527.88 -2.49589 3.32933 0
M  V30 25179 H 2526.75 -3.63702 4.1111 0
M  V30 25180 H 2527.01 -3.72798 2.37643 0
M  V30 25181 N 2526.07 -1.45812 -0.598057 0
M  V30 25182 C 2527.04 -1.54811 -1.69015 0
M  V30 25183 C 2528.04 -0.426679 -1.55036 0
M  V30 25184 O 2529.23 -0.690485 -1.59931 0
M  V30 25185 C 2526.36 -1.45377 -3.08348 0
M  V30 25186 H 2527.55 -2.52124 -1.62399 0
M  V30 25187 H 2525.1 -1.33394 -0.814603 0
M  V30 25188 H 2525.84 -0.49285 -3.20533 0
M  V30 25189 H 2525.62 -2.26726 -3.19903 0
M  V30 25190 H 2527.11 -1.54728 -3.87878 0
M  V30 25191 N 2527.55 0.841385 -1.33261 0
M  V30 25192 C 2528.96 1.41267 -1.22068 0
M  V30 25193 C 2529.31 1.95535 0.161445 0
M  V30 25194 O 2528.44 1.8861 1.06091 0
M  V30 25195 C 2529.03 2.56796 -2.21001 0
M  V30 25196 C 2527.59 3.09885 -2.13655 0
M  V30 25197 C 2526.74 1.82675 -2.08626 0
M  V30 25198 H 2529.69 0.64737 -1.44896 0
M  V30 25199 H 2529.71 3.34353 -1.81626 0
M  V30 25200 H 2529.22 2.17268 -3.21584 0
M  V30 25201 H 2527.32 3.53963 -1.16366 0
M  V30 25202 H 2527.44 3.70228 -3.04085 0
M  V30 25203 H 2525.8 2.02821 -1.54064 0
M  V30 25204 H 2526.58 1.45347 -3.11013 0
M  V30 25205 N 2529.03 1.16688 1.05932 0
M  V30 25206 C 2530.44 0.957773 1.60261 0
M  V30 25207 C 2530.79 -0.497416 1.8979 0
M  V30 25208 O 2529.92 -1.37132 1.67403 0
M  V30 25209 C 2530.51 1.73223 2.91169 0
M  V30 25210 C 2529.07 1.568 3.42185 0
M  V30 25211 C 2528.22 1.73863 2.16025 0
M  V30 25212 H 2531.17 1.31505 0.888369 0
M  V30 25213 H 2531.19 1.2102 3.60741 0
M  V30 25214 H 2530.7 2.79129 2.69646 0
M  V30 25215 H 2528.8 0.533501 3.68761 0
M  V30 25216 H 2528.92 2.35422 4.17269 0
M  V30 25217 H 2527.28 1.16637 2.26424 0
M  V30 25218 H 2528.06 2.81165 1.9698 0
M  V30 25219 N 2530.51 -1.24529 0.96594 0
M  V30 25220 C 2531.74 -1.96608 0.64442 0
M  V30 25221 C 2532.15 -1.7167 -0.785793 0
M  V30 25222 O 2531.51 -0.999426 -1.52701 0
M  V30 25223 C 2531.56 -3.49925 0.907436 0
M  V30 25224 O 2531.28 -3.74009 2.28142 0
M  V30 25225 C 2532.78 -4.39223 0.599861 0
M  V30 25226 H 2530 -0.626381 0.240599 0
M  V30 25227 H 2532.54 -1.58403 1.29339 0
M  V30 25228 H 2530.7 -3.862 0.304699 0
M  V30 25229 H 2531.11 -4.68401 2.3601 0
M  V30 25230 H 2532.59 -5.45658 0.834359 0
M  V30 25231 H 2533.06 -4.36722 -0.465844 0
M  V30 25232 H 2533.67 -4.08533 1.18242 0
M  V30 25233 N 2531.99 -0.735845 -1.39367 0
M  V30 25234 C 2533.23 -0.28458 -2.00793 0
M  V30 25235 C 2533.56 1.12554 -1.58257 0
M  V30 25236 O 2532.84 1.76746 -0.81185 0
M  V30 25237 C 2533.12 -0.3874 -3.5801 0
M  V30 25238 C 2532.98 -1.83735 -4.10562 0
M  V30 25239 C 2534.29 0.229672 -4.395 0
M  V30 25240 H 2531.41 -0.104879 -0.729499 0
M  V30 25241 H 2534.06 -0.932159 -1.65562 0
M  V30 25242 H 2532.21 0.163938 -3.88154 0
M  V30 25243 H 2533.88 -2.44563 -3.91135 0
M  V30 25244 H 2532.12 -2.35839 -3.64091 0
M  V30 25245 H 2532.79 -1.86056 -5.19699 0
M  V30 25246 H 2535.27 -0.24033 -4.15405 0
M  V30 25247 H 2534.14 0.127389 -5.48752 0
M  V30 25248 H 2534.4 1.31583 -4.22064 0
M  V30 25249 N 2533.46 1.49999 -0.483543 0
M  V30 25250 C 2534.69 2.068 0.0644468 0
M  V30 25251 C 2535.11 1.34598 1.32397 0
M  V30 25252 O 2534.46 0.418977 1.77626 0
M  V30 25253 C 2534.51 3.59899 0.339863 0
M  V30 25254 O 2534.24 4.29381 -0.86971 0
M  V30 25255 C 2535.74 4.33361 0.933439 0
M  V30 25256 H 2532.96 0.670881 -0.0126451 0
M  V30 25257 H 2535.5 1.93007 -0.675897 0
M  V30 25258 H 2533.66 3.73452 1.03016 0
M  V30 25259 H 2534.07 5.208 -0.621882 0
M  V30 25260 H 2535.54 5.41415 1.07584 0
M  V30 25261 H 2536.02 3.94679 1.92678 0
M  V30 25262 H 2536.63 4.2437 0.281147 0
M  V30 25263 N 2534.94 0.216646 1.56104 0
M  V30 25264 C 2536.35 -0.292096 1.84401 0
M  V30 25265 C 2536.7 -1.59831 1.13791 0
M  V30 25266 O 2535.83 -2.12559 0.405925 0
M  V30 25267 C 2536.42 -0.536751 3.34521 0
M  V30 25268 C 2534.98 -0.989813 3.63152 0
M  V30 25269 C 2534.13 -0.0501815 2.77255 0
M  V30 25270 H 2537.08 0.439953 1.5248 0
M  V30 25271 H 2537.1 -1.38338 3.54461 0
M  V30 25272 H 2536.61 0.414099 3.85884 0
M  V30 25273 H 2534.71 -1.95419 3.17241 0
M  V30 25274 H 2534.83 -0.867615 4.71179 0
M  V30 25275 H 2533.19 -0.556073 2.48556 0
M  V30 25276 H 2533.97 0.895498 3.31415 0
M  V30 25277 N 2536.42 -1.57498 -0.0567885 0
M  V30 25278 C 2537.67 -1.88255 -0.754187 0
M  V30 25279 C 2538 -0.810896 -1.7646 0
M  V30 25280 O 2537.27 0.177225 -1.93691 0
M  V30 25281 C 2537.56 -3.29672 -1.44873 0
M  V30 25282 C 2537.41 -4.47506 -0.45371 0
M  V30 25283 C 2538.73 -3.69558 -2.38987 0
M  V30 25284 H 2535.85 -0.684688 -0.272712 0
M  V30 25285 H 2538.49 -1.89992 -0.0171779 0
M  V30 25286 H 2536.64 -3.28322 -2.07694 0
M  V30 25287 H 2538.31 -4.60985 0.170452 0
M  V30 25288 H 2536.55 -4.33192 0.229628 0
M  V30 25289 H 2537.23 -5.43274 -0.977603 0
M  V30 25290 H 2539.7 -3.72098 -1.86232 0
M  V30 25291 H 2538.58 -4.69368 -2.84579 0
M  V30 25292 H 2538.84 -3.00301 -3.24456 0
M  V30 25293 N 2537.9 0.328509 -1.54138 0
M  V30 25294 C 2539.31 0.903244 -1.63396 0
M  V30 25295 C 2539.66 1.89049 -0.524861 0
M  V30 25296 O 2538.78 2.13664 0.343031 0
M  V30 25297 C 2539.38 1.64502 -2.96183 0
M  V30 25298 C 2537.94 2.16855 -3.07654 0
M  V30 25299 C 2537.09 0.992371 -2.58935 0
M  V30 25300 H 2540.04 0.106225 -1.58344 0
M  V30 25301 H 2540.06 2.50892 -2.86066 0
M  V30 25302 H 2539.57 0.926236 -3.76885 0
M  V30 25303 H 2537.67 2.91864 -2.31616 0
M  V30 25304 H 2537.78 2.42195 -4.13375 0
M  V30 25305 H 2536.15 1.37012 -2.14709 0
M  V30 25306 H 2536.93 0.287981 -3.4209 0
M  V30 25307 N 2539.38 1.46127 0.590316 0
M  V30 25308 C 2540.6 1.54835 1.37988 0
M  V30 25309 C 2541.03 0.187539 1.87163 0
M  V30 25310 O 2540.38 -0.830979 1.61135 0
M  V30 25311 C 2540.43 2.55102 2.54863 0
M  V30 25312 O 2539.54 2.08079 3.56057 0
M  V30 25313 H 2538.88 0.521311 0.411256 0
M  V30 25314 H 2541.41 1.91633 0.716785 0
M  V30 25315 H 2541.42 2.74466 3.01881 0
M  V30 25316 H 2540.09 3.53927 2.18423 0
M  V30 25317 H 2538.67 1.98669 3.15571 0
M  V30 25318 N 2540.85 -0.834306 1.33705 0
M  V30 25319 C 2541.78 -1.95961 1.26971 0
M  V30 25320 C 2542.76 -1.69443 0.149366 0
M  V30 25321 O 2543.95 -1.91203 0.339885 0
M  V30 25322 C 2541.08 -3.32204 1.01281 0
M  V30 25323 C 2540.03 -3.73132 2.09658 0
M  V30 25324 C 2539.36 -5.07232 1.69175 0
M  V30 25325 C 2540.66 -3.86432 3.51379 0
M  V30 25326 H 2542.35 -2.01854 2.21123 0
M  V30 25327 H 2539.9 -0.969775 1.06449 0
M  V30 25328 H 2541.85 -4.10502 0.952178 0
M  V30 25329 H 2540.58 -3.26581 0.0356777 0
M  V30 25330 H 2539.24 -2.97101 2.14771 0
M  V30 25331 H 2538.88 -4.98084 0.701524 0
M  V30 25332 H 2538.58 -5.35587 2.41704 0
M  V30 25333 H 2540.11 -5.88 1.64586 0
M  V30 25334 H 2541.52 -4.5503 3.48742 0
M  V30 25335 H 2539.92 -4.26229 4.22432 0
M  V30 25336 H 2540.99 -2.88752 3.89552 0
M  V30 25337 N 2542.33 -1.17248 -1.05312 0
M  V30 25338 C 2543.24 -0.902718 -2.16537 0
M  V30 25339 C 2544.26 0.128676 -1.73524 0
M  V30 25340 O 2545.43 -0.0503055 -2.01337 0
M  V30 25341 C 2542.5 -0.418417 -3.44166 0
M  V30 25342 C 2541.56 -1.51625 -4.01632 0
M  V30 25343 C 2540.79 -1.05497 -5.23169 0
M  V30 25344 O 2541.02 0.0913713 -5.70327 0
M  V30 25345 O 2539.95 -1.8475 -5.72845 0
M  V30 25346 H 2543.78 -1.83306 -2.42141 0
M  V30 25347 H 2541.36 -0.953267 -1.15036 0
M  V30 25348 H 2543.24 -0.1558 -4.21112 0
M  V30 25349 H 2541.92 0.483794 -3.20064 0
M  V30 25350 H 2540.82 -1.83273 -3.26131 0
M  V30 25351 H 2542.16 -2.39413 -4.30049 0
M  V30 25352 N 2543.81 1.24015 -0.972531 0
M  V30 25353 C 2544.77 2.23421 -0.511442 0
M  V30 25354 C 2545.77 1.55882 0.394651 0
M  V30 25355 O 2546.96 1.73167 0.189438 0
M  V30 25356 C 2544.1 3.39917 0.258709 0
M  V30 25357 H 2545.29 2.65727 -1.39029 0
M  V30 25358 H 2542.84 1.36711 -0.757609 0
M  V30 25359 H 2543.58 3.03056 1.15445 0
M  V30 25360 H 2543.36 3.9014 -0.391591 0
M  V30 25361 H 2544.85 4.13689 0.570172 0
M  V30 25362 N 2545.29 0.743226 1.38974 0
M  V30 25363 C 2546.7 0.363764 1.83122 0
M  V30 25364 C 2547.05 -1.10606 1.62052 0
M  V30 25365 O 2546.18 -1.85398 1.1161 0
M  V30 25366 C 2546.77 0.653467 3.32438 0
M  V30 25367 C 2545.33 0.327404 3.74973 0
M  V30 25368 C 2544.48 0.911921 2.61876 0
M  V30 25369 H 2547.43 0.940214 1.2785 0
M  V30 25370 H 2547.45 -0.0719362 3.80432 0
M  V30 25371 H 2546.96 1.72329 3.47742 0
M  V30 25372 H 2545.06 -0.73625 3.65254 0
M  V30 25373 H 2545.17 0.815714 4.72105 0
M  V30 25374 H 2543.54 0.337988 2.52447 0
M  V30 25375 H 2544.32 1.98656 2.79983 0
M  V30 25376 N 2546.77 -1.4974 0.491491 0
M  V30 25377 C 2547.99 -2.07325 -0.0556813 0
M  V30 25378 C 2548.42 -1.35059 -1.30923 0
M  V30 25379 O 2547.77 -0.404396 -1.76732 0
M  V30 25380 C 2547.82 -3.59333 -0.302011 0
M  V30 25381 O 2546.93 -3.88675 -1.37861 0
M  V30 25382 H 2546.27 -0.663635 0.0220072 0
M  V30 25383 H 2548.8 -1.92672 0.688386 0
M  V30 25384 H 2548.81 -4.04459 -0.536393 0
M  V30 25385 H 2547.48 -4.11344 0.613902 0
M  V30 25386 H 2546.06 -3.55369 -1.12993 0
M  V30 25387 N 2548.24 -0.224922 -1.55987 0
M  V30 25388 C 2549.15 0.69507 -2.24067 0
M  V30 25389 C 2550.17 1.21102 -1.24941 0
M  V30 25390 O 2551.35 1.25192 -1.57762 0
M  V30 25391 C 2548.41 1.88488 -2.90987 0
M  V30 25392 C 2547.47 1.41057 -4.05464 0
M  V30 25393 C 2546.71 2.54367 -4.69184 0
M  V30 25394 O 2546.93 3.72581 -4.31902 0
M  V30 25395 O 2545.86 2.25376 -5.58112 0
M  V30 25396 H 2549.69 0.145096 -3.03353 0
M  V30 25397 H 2547.27 0.0056685 -1.49399 0
M  V30 25398 H 2549.16 2.57966 -3.33214 0
M  V30 25399 H 2547.83 2.42289 -2.14657 0
M  V30 25400 H 2546.74 0.68371 -3.67799 0
M  V30 25401 H 2548.07 0.9189 -4.83546 0
M  V30 25402 N 2549.72 1.57526 0.0484352 0
M  V30 25403 C 2550.65 2.02043 1.08219 0
M  V30 25404 C 2551.67 0.930036 1.3362 0
M  V30 25405 O 2552.86 1.20763 1.31448 0
M  V30 25406 C 2549.96 2.36421 2.42814 0
M  V30 25407 C 2549.13 3.676 2.37042 0
M  V30 25408 C 2548.19 3.89384 3.5393 0
M  V30 25409 O 2547.21 4.60687 3.343 0
M  V30 25410 N 2548.42 3.33528 4.7512 0
M  V30 25411 H 2551.18 2.91341 0.702895 0
M  V30 25412 H 2548.74 1.6016 0.236717 0
M  V30 25413 H 2550.73 2.48147 3.19695 0
M  V30 25414 H 2549.3 1.52893 2.72658 0
M  V30 25415 H 2548.52 3.66409 1.45388 0
M  V30 25416 H 2549.81 4.5369 2.3031 0
M  V30 25417 H 2549.21 2.75697 4.93971 0
M  V30 25418 H 2547.77 3.50666 5.49433 0
M  V30 25419 N 2551.2 -0.32033 1.5431 0
M  V30 25420 C 2552.16 -1.37736 1.83198 0
M  V30 25421 C 2553.16 -1.44573 0.703931 0
M  V30 25422 O 2554.35 -1.44545 0.97224 0
M  V30 25423 C 2551.49 -2.76434 1.99491 0
M  V30 25424 H 2552.68 -1.13375 2.77644 0
M  V30 25425 H 2550.23 -0.555986 1.46077 0
M  V30 25426 H 2550.97 -3.06046 1.07267 0
M  V30 25427 H 2550.75 -2.72865 2.8158 0
M  V30 25428 H 2552.24 -3.52898 2.23277 0
M  V30 25429 N 2552.68 -1.46438 -0.582558 0
M  V30 25430 C 2554.09 -1.45918 -1.16468 0
M  V30 25431 C 2554.44 -0.200111 -1.95177 0
M  V30 25432 O 2553.57 0.696783 -2.04875 0
M  V30 25433 C 2554.16 -2.64371 -2.11881 0
M  V30 25434 C 2552.72 -2.66892 -2.65416 0
M  V30 25435 C 2551.87 -2.38605 -1.4129 0
M  V30 25436 H 2554.82 -1.54315 -0.370487 0
M  V30 25437 H 2554.84 -2.39898 -2.95346 0
M  V30 25438 H 2554.35 -3.55993 -1.54567 0
M  V30 25439 H 2552.45 -1.79343 -3.26599 0
M  V30 25440 H 2552.56 -3.6686 -3.08141 0
M  V30 25441 H 2550.93 -1.88666 -1.71105 0
M  V30 25442 H 2551.71 -3.32404 -0.858067 0
M  V30 25443 N 2554.16 0.827204 -1.34146 0
M  V30 25444 C 2555.38 1.61499 -1.29328 0
M  V30 25445 C 2555.8 1.88327 0.133507 0
M  V30 25446 O 2555.16 1.47166 1.07927 0
M  V30 25447 C 2555.21 2.95841 -2.07751 0
M  V30 25448 O 2554.93 2.70185 -3.44865 0
M  V30 25449 C 2556.43 3.90253 -2.1028 0
M  V30 25450 H 2553.65 0.502142 -0.445078 0
M  V30 25451 H 2556.19 1.02952 -1.76695 0
M  V30 25452 H 2554.35 3.50957 -1.64037 0
M  V30 25453 H 2554.76 3.55815 -3.85351 0
M  V30 25454 H 2556.24 4.81694 -2.69583 0
M  V30 25455 H 2556.71 4.25303 -1.09607 0
M  V30 25456 H 2557.32 3.41074 -2.54065 0
M  V30 25457 N 2555.63 1.17805 1.04688 0
M  V30 25458 C 2556.54 0.914189 2.16055 0
M  V30 25459 C 2557.56 -0.119472 1.73589 0
M  V30 25460 O 2558.74 0.0609822 2.01308 0
M  V30 25461 C 2555.8 0.436663 3.43939 0
M  V30 25462 C 2554.86 1.53753 4.00822 0
M  V30 25463 C 2554.1 1.0827 5.22603 0
M  V30 25464 O 2554.32 -0.0611242 5.70367 0
M  V30 25465 O 2553.25 1.87785 5.71857 0
M  V30 25466 H 2557.08 1.84588 2.41166 0
M  V30 25467 H 2554.66 0.959354 1.14528 0
M  V30 25468 H 2556.55 0.178131 4.21023 0
M  V30 25469 H 2555.22 -0.466813 3.20316 0
M  V30 25470 H 2554.13 1.85 3.25155 0
M  V30 25471 H 2555.46 2.4169 4.28774 0
M  V30 25472 N 2557.11 -1.23497 0.979094 0
M  V30 25473 C 2558.04 -2.24196 0.476311 0
M  V30 25474 C 2559.06 -1.57259 -0.421138 0
M  V30 25475 O 2560.25 -1.7707 -0.225484 0
M  V30 25476 C 2557.35 -3.37285 -0.330444 0
M  V30 25477 C 2556.52 -4.33803 0.55982 0
M  V30 25478 C 2555.58 -5.25846 -0.192861 0
M  V30 25479 O 2554.6 -5.6767 0.417078 0
M  V30 25480 N 2555.81 -5.61337 -1.47922 0
M  V30 25481 H 2558.57 -2.67967 1.34216 0
M  V30 25482 H 2556.13 -1.37655 0.852213 0
M  V30 25483 H 2558.12 -3.95838 -0.842291 0
M  V30 25484 H 2556.69 -2.92709 -1.09729 0
M  V30 25485 H 2555.91 -3.73772 1.25251 0
M  V30 25486 H 2557.2 -4.95246 1.16659 0
M  V30 25487 H 2556.6 -5.29305 -1.99631 0
M  V30 25488 H 2555.16 -6.22368 -1.93653 0
M  V30 25489 N 2558.59 -0.750586 -1.38578 0
M  V30 25490 C 2560.01 -0.427851 -1.53758 0
M  V30 25491 C 2560.21 1.0594 -1.71403 0
M  V30 25492 O 2559.26 1.84546 -1.72334 0
M  V30 25493 C 2560.58 -1.22448 -2.7464 0
M  V30 25494 C 2562.12 -1.21425 -2.88487 0
M  V30 25495 C 2562.6 -1.99378 -4.12326 0
M  V30 25496 N 2564.09 -1.96623 -4.19397 0
M  V30 25497 C 2564.83 -2.53736 -5.14204 0
M  V30 25498 N 2564.32 -3.1955 -6.14703 0
M  V30 25499 N 2566.11 -2.43682 -5.06533 0
M  V30 25500 H 2558.27 -1.7145 -1.25374 0
M  V30 25501 H 2560.53 -0.726656 -0.608831 0
M  V30 25502 H 2560.23 -2.27752 -2.67996 0
M  V30 25503 H 2560.11 -0.839338 -3.67743 0
M  V30 25504 H 2562.5 -0.169284 -2.94614 0
M  V30 25505 H 2562.58 -1.63888 -1.96403 0
M  V30 25506 H 2562.22 -3.03884 -4.0696 0
M  V30 25507 H 2562.15 -1.54311 -5.03484 0
M  V30 25508 H 2564.64 -1.4869 -3.47419 0
M  V30 25509 H 2564.95 -3.60557 -6.83534 0
M  V30 25510 H 2563.3 -3.23644 -6.15045 0
M  V30 25511 H 2566.49 -1.91896 -4.26958 0
M  V30 25512 H 2566.66 -2.88489 -5.8024 0
M  V30 25513 N 2560.07 1.49477 -0.499425 0
M  V30 25514 C 2561.48 1.8663 -0.0512479 0
M  V30 25515 C 2561.83 1.41189 1.36236 0
M  V30 25516 O 2560.96 0.789087 2.015 0
M  V30 25517 C 2561.55 3.3869 -0.0862246 0
M  V30 25518 C 2560.11 3.75149 0.306604 0
M  V30 25519 C 2559.26 2.73467 -0.459445 0
M  V30 25520 H 2562.21 1.41817 -0.712289 0
M  V30 25521 H 2562.23 3.73828 0.709441 0
M  V30 25522 H 2561.74 3.71733 -1.11518 0
M  V30 25523 H 2559.84 3.47715 1.33885 0
M  V30 25524 H 2559.96 4.79099 -0.0117511 0
M  V30 25525 H 2558.32 2.54539 0.0905198 0
M  V30 25526 H 2559.1 3.09354 -1.48845 0
M  V30 25527 N 2561.55 0.233191 1.55865 0
M  V30 25528 C 2562.8 -0.394558 1.98211 0
M  V30 25529 C 2563.12 -1.59461 1.12237 0
M  V30 25530 O 2562.39 -1.94856 0.202016 0
M  V30 25531 H 2560.97 -0.148765 0.732037 0
M  V30 25532 H 2563.63 0.328793 1.92107 0
M  V30 25533 H 2562.72 -0.71301 3.03846 0
M  V30 25534 N 2563.03 -1.57549 -0.0400806 0
M  V30 25535 C 2564.27 -1.89044 -0.734178 0
M  V30 25536 C 2564.6 -0.829566 -1.7559 0
M  V30 25537 O 2563.88 0.156672 -1.93868 0
M  V30 25538 C 2564.16 -3.3119 -1.41368 0
M  V30 25539 C 2564.02 -4.47962 -0.406221 0
M  V30 25540 C 2565.33 -3.72072 -2.35054 0
M  V30 25541 H 2562.45 -0.687542 -0.265435 0
M  V30 25542 H 2565.1 -1.9 0.00297427 0
M  V30 25543 H 2563.25 -3.30506 -2.042 0
M  V30 25544 H 2564.92 -4.60778 0.219336 0
M  V30 25545 H 2563.16 -4.32924 0.275561 0
M  V30 25546 H 2563.83 -5.44281 -0.919927 0
M  V30 25547 H 2566.31 -3.74052 -1.82275 0
M  V30 25548 H 2565.18 -4.7236 -2.79585 0
M  V30 25549 H 2565.44 -3.03726 -3.21252 0
M  V30 25550 N 2564.5 0.312142 -1.54478 0
M  V30 25551 C 2565.44 1.40595 -1.81013 0
M  V30 25552 C 2566.45 1.47334 -0.692572 0
M  V30 25553 O 2567.64 1.49852 -0.969873 0
M  V30 25554 C 2564.74 2.79051 -1.92312 0
M  V30 25555 C 2563.91 2.95378 -3.22599 0
M  V30 25556 C 2562.97 4.14264 -3.24455 0
M  V30 25557 O 2562 4.0688 -3.98042 0
M  V30 25558 N 2563.2 5.2436 -2.49052 0
M  V30 25559 H 2565.96 1.18192 -2.7541 0
M  V30 25560 H 2563.52 0.502175 -1.53915 0
M  V30 25561 H 2565.52 3.5681 -1.90968 0
M  V30 25562 H 2564.09 2.94452 -1.0496 0
M  V30 25563 H 2563.31 2.04825 -3.36809 0
M  V30 25564 H 2564.59 3.03191 -4.08599 0
M  V30 25565 H 2563.99 5.33237 -1.88877 0
M  V30 25566 H 2562.55 6.00495 -2.53473 0
M  V30 25567 N 2565.98 1.46745 0.574784 0
M  V30 25568 C 2566.89 1.60508 1.71098 0
M  V30 25569 C 2567.91 0.488336 1.67007 0
M  V30 25570 O 2569.08 0.753528 1.86772 0
M  V30 25571 C 2566.15 1.59937 3.07605 0
M  V30 25572 C 2565.21 2.82904 3.22899 0
M  V30 25573 C 2564.44 2.82351 4.52895 0
M  V30 25574 O 2564.67 1.91551 5.37275 0
M  V30 25575 O 2563.6 3.73995 4.71605 0
M  V30 25576 H 2567.43 2.56612 1.62432 0
M  V30 25577 H 2565.01 1.29628 0.742756 0
M  V30 25578 H 2566.89 1.62343 3.88874 0
M  V30 25579 H 2565.57 0.669954 3.16691 0
M  V30 25580 H 2564.47 2.8605 2.41094 0
M  V30 25581 H 2565.81 3.75081 3.18708 0
M  V30 25582 N 2567.46 -0.820078 1.34583 0
M  V30 25583 C 2568.7 -1.58996 1.28451 0
M  V30 25584 C 2569.06 -1.91468 -0.142849 0
M  V30 25585 O 2570.26 -2.66787 -0.328375 0
M  V30 25586 C 2568.54 -2.85269 2.15305 0
M  V30 25587 S 2570.09 -3.7579 2.26555 0
M  V30 25588 H 2566.91 -0.544932 0.456695 0
M  V30 25589 H 2569.51 -0.968457 1.69827 0
M  V30 25590 H 2568.22 -2.59416 3.18012 0
M  V30 25591 H 2567.75 -3.52414 1.74836 0
M  V30 25592 H 2569.76 -4.74833 1.44042 0
M  V30 25593 N 2568.94 -1.18359 -1.04062 0
M  V30 25594 C 2570.17 -1.00241 -1.80652 0
M  V30 25595 C 2570.58 0.45233 -1.83713 0
M  V30 25596 O 2569.92 1.32596 -1.27137 0
M  V30 25597 C 2569.98 -1.48094 -3.2758 0
M  V30 25598 C 2569.64 -2.96008 -3.48179 0
M  V30 25599 C 2570.64 -3.93862 -3.39365 0
M  V30 25600 C 2568.33 -3.34439 -3.74774 0
M  V30 25601 C 2570.32 -5.28144 -3.56851 0
M  V30 25602 C 2568.01 -4.68884 -3.91907 0
M  V30 25603 C 2569.01 -5.65545 -3.82946 0
M  V30 25604 O 2568.69 -6.97556 -3.99588 0
M  V30 25605 H 2568.43 -0.354251 -0.575745 0
M  V30 25606 H 2570.98 -1.57335 -1.32041 0
M  V30 25607 H 2569.21 -0.853654 -3.7716 0
M  V30 25608 H 2570.9 -1.26367 -3.85728 0
M  V30 25609 H 2571.66 -3.65517 -3.18783 0
M  V30 25610 H 2567.54 -2.59762 -3.80847 0
M  V30 25611 H 2571.09 -6.03577 -3.49773 0
M  V30 25612 H 2566.98 -4.9693 -4.11984 0
M  V30 25613 H 2567.75 -7.0446 -4.16748 0
M  V30 25614 N 2570.42 1.22976 -0.98563 0
M  V30 25615 C 2571.37 2.22423 -0.501219 0
M  V30 25616 C 2572.35 1.55141 0.426622 0
M  V30 25617 O 2573.54 1.75159 0.254625 0
M  V30 25618 C 2570.67 3.42774 0.189942 0
M  V30 25619 C 2569.76 4.17275 -0.757776 0
M  V30 25620 N 2570.15 4.68652 -1.90259 0
M  V30 25621 C 2568.45 4.42315 -0.572168 0
M  V30 25622 C 2569.15 5.25388 -2.49685 0
M  V30 25623 N 2568.12 5.13623 -1.78022 0
M  V30 25624 H 2571.92 2.5978 -1.37446 0
M  V30 25625 H 2569.44 1.38565 -0.846965 0
M  V30 25626 H 2571.44 4.13198 0.554317 0
M  V30 25627 H 2570.1 3.06931 1.0594 0
M  V30 25628 H 2571.11 4.64835 -2.28362 0
M  V30 25629 H 2567.78 4.1674 0.251836 0
M  V30 25630 H 2569.17 5.75726 -3.46395 0
M  V30 25631 N 2571.89 0.757924 1.38178 0
M  V30 25632 C 2573.14 0.315396 1.99624 0
M  V30 25633 C 2573.46 -1.10796 1.60465 0
M  V30 25634 O 2572.73 -1.7584 0.863538 0
M  V30 25635 H 2571.31 0.113624 0.738308 0
M  V30 25636 H 2573.97 0.972982 1.68876 0
M  V30 25637 H 2573.07 0.381986 3.09754 0
M  V30 25638 N 2573.37 -1.4921 0.507345 0
M  V30 25639 C 2574.32 -2.30892 -0.281323 0
M  V30 25640 C 2575.31 -1.39789 -0.956845 0
M  V30 25641 O 2576.52 -1.56808 -0.883811 0
M  V30 25642 H 2572.9 -0.743973 -0.109584 0
M  V30 25643 H 2574.87 -2.95322 0.427492 0
M  V30 25644 C 2573.62 -3.21293 -1.32913 0
M  V30 25645 H 2572.94 -3.91327 -0.81873 0
M  V30 25646 H 2574.38 -3.81375 -1.85282 0
M  V30 25647 C 2572.84 -2.41337 -2.3507 0
M  V30 25648 O 2573.37 -2.12203 -3.41076 0
M  V30 25649 N 2571.57 -2.03245 -2.07702 0
M  V30 25650 H 2571.12 -2.27138 -1.21516 0
M  V30 25651 H 2571.08 -1.50056 -2.7628 0
M  V30 25652 N 2574.85 -0.241454 -1.55739 0
M  V30 25653 C 2576.1 0.384041 -1.98418 0
M  V30 25654 C 2576.42 1.58864 -1.13081 0
M  V30 25655 O 2575.69 1.94746 -0.212346 0
M  V30 25656 H 2574.27 0.144881 -0.732815 0
M  V30 25657 H 2576.93 -0.338977 -1.9193 0
M  V30 25658 H 2576.03 0.696886 -3.0422 0
M  V30 25659 N 2576.33 1.57568 0.0317248 0
M  V30 25660 C 2577.26 2.03179 1.0607 0
M  V30 25661 C 2578.27 0.944156 1.32626 0
M  V30 25662 O 2579.46 1.2215 1.3016 0
M  V30 25663 C 2576.56 2.38983 2.40293 0
M  V30 25664 C 2575.74 3.70093 2.3313 0
M  V30 25665 C 2574.79 3.93116 3.49781 0
M  V30 25666 O 2573.82 4.64206 3.29395 0
M  V30 25667 N 2575.02 3.38549 4.71556 0
M  V30 25668 H 2577.79 2.9207 0.671954 0
M  V30 25669 H 2575.35 1.60402 0.219717 0
M  V30 25670 H 2577.34 2.51524 3.17045 0
M  V30 25671 H 2575.91 1.55776 2.71021 0
M  V30 25672 H 2575.13 3.67931 1.41494 0
M  V30 25673 H 2576.42 4.56108 2.25485 0
M  V30 25674 H 2575.82 2.80921 4.91019 0
M  V30 25675 H 2574.37 3.56474 5.45683 0
M  V30 25676 N 2577.81 -0.303946 1.54641 0
M  V30 25677 C 2579.03 -1.06289 1.78094 0
M  V30 25678 C 2579.46 -1.80261 0.537374 0
M  V30 25679 O 2578.81 -1.73921 -0.511963 0
M  V30 25680 C 2578.86 -2.02142 2.98615 0
M  V30 25681 O 2577.97 -3.10392 2.71534 0
M  V30 25682 H 2577.31 -0.305487 0.589554 0
M  V30 25683 H 2579.84 -0.342265 2.01717 0
M  V30 25684 H 2579.85 -2.44661 3.26504 0
M  V30 25685 H 2578.52 -1.47707 3.88787 0
M  V30 25686 H 2577.1 -2.72409 2.54652 0
M  V30 25687 N 2579.28 -1.47047 -0.566994 0
M  V30 25688 C 2580.51 -1.5654 -1.34828 0
M  V30 25689 C 2580.92 -0.211043 -1.88019 0
M  V30 25690 O 2580.27 0.804358 -1.65154 0
M  V30 25691 C 2580.33 -2.5226 -2.56135 0
M  V30 25692 C 2579.99 -3.98169 -2.243 0
M  V30 25693 C 2580.99 -4.86935 -1.82183 0
M  V30 25694 C 2578.67 -4.43428 -2.3596 0
M  V30 25695 C 2580.67 -6.18976 -1.52142 0
M  V30 25696 C 2578.35 -5.755 -2.05532 0
M  V30 25697 C 2579.35 -6.63095 -1.6369 0
M  V30 25698 O 2579.04 -7.92714 -1.33643 0
M  V30 25699 H 2578.77 -0.531531 -0.417674 0
M  V30 25700 H 2581.33 -1.93296 -0.694692 0
M  V30 25701 H 2579.56 -2.10553 -3.24352 0
M  V30 25702 H 2581.25 -2.51987 -3.18209 0
M  V30 25703 H 2582.01 -4.5322 -1.72676 0
M  V30 25704 H 2577.89 -3.75461 -2.67489 0
M  V30 25705 H 2581.43 -6.87304 -1.19409 0
M  V30 25706 H 2577.33 -6.08759 -2.14669 0
M  V30 25707 H 2578.1 -8.05126 -1.47356 0
M  V30 25708 N 2580.76 0.812929 -1.35016 0
M  V30 25709 C 2582.18 1.10755 -1.14916 0
M  V30 25710 C 2582.38 2.01455 0.0426463 0
M  V30 25711 O 2581.43 2.4216 0.715169 0
M  V30 25712 C 2582.75 1.74463 -2.44914 0
M  V30 25713 C 2584.3 1.86913 -2.51063 0
M  V30 25714 C 2584.77 2.54037 -3.81089 0
M  V30 25715 N 2586.26 2.61528 -3.82305 0
M  V30 25716 C 2587 3.14219 -4.7964 0
M  V30 25717 N 2586.49 3.67397 -5.8736 0
M  V30 25718 N 2588.29 3.12713 -4.67084 0
M  V30 25719 H 2580.44 0.209853 -2.11361 0
M  V30 25720 H 2582.7 0.155676 -0.93513 0
M  V30 25721 H 2582.41 1.15283 -3.32269 0
M  V30 25722 H 2582.28 2.74229 -2.58994 0
M  V30 25723 H 2584.67 2.45238 -1.64141 0
M  V30 25724 H 2584.75 0.8602 -2.40903 0
M  V30 25725 H 2584.39 1.96364 -4.68406 0
M  V30 25726 H 2584.32 3.55454 -3.88536 0
M  V30 25727 H 2586.81 2.23846 -3.04469 0
M  V30 25728 H 2587.13 4.05883 -6.57631 0
M  V30 25729 H 2585.47 3.65612 -5.91061 0
M  V30 25730 H 2588.66 2.70442 -3.82072 0
M  V30 25731 H 2588.83 3.53471 -5.43104 0
M  V30 25732 N 2582.24 1.18909 1.03433 0
M  V30 25733 C 2583.49 0.986413 1.76392 0
M  V30 25734 C 2583.81 -0.484534 1.88884 0
M  V30 25735 O 2583.08 -1.35117 1.41846 0
M  V30 25736 H 2581.66 0.361986 0.653433 0
M  V30 25737 H 2584.32 1.49705 1.24797 0
M  V30 25738 H 2583.42 1.42982 2.77421 0
M  V30 25739 N 2583.72 -1.22452 0.992137 0
M  V30 25740 C 2584.95 -1.95197 0.685978 0
M  V30 25741 C 2585.36 -1.73299 -0.749202 0
M  V30 25742 O 2584.72 -1.03159 -1.50547 0
M  V30 25743 C 2584.77 -3.47922 0.981457 0
M  V30 25744 O 2584.49 -3.69086 2.36024 0
M  V30 25745 C 2585.99 -4.37851 0.692892 0
M  V30 25746 H 2583.21 -0.621136 0.253832 0
M  V30 25747 H 2585.76 -1.55624 1.3267 0
M  V30 25748 H 2583.91 -3.85467 0.386549 0
M  V30 25749 H 2584.32 -4.63289 2.45892 0
M  V30 25750 H 2585.8 -5.43765 0.949913 0
M  V30 25751 H 2586.28 -4.37612 -0.373104 0
M  V30 25752 H 2586.88 -4.05932 1.26881 0
M  V30 25753 N 2585.2 -0.765242 -1.37774 0
M  V30 25754 C 2586.43 -0.337313 -2.03828 0
M  V30 25755 C 2586.83 1.04318 -1.57843 0
M  V30 25756 O 2586.18 1.67599 -0.752073 0
M  V30 25757 C 2586.24 -0.29447 -3.58292 0
M  V30 25758 C 2585.9 -1.61846 -4.27382 0
M  V30 25759 C 2586.9 -2.56975 -4.51951 0
M  V30 25760 C 2584.59 -1.8911 -4.65341 0
M  V30 25761 C 2586.58 -3.7758 -5.13529 0
M  V30 25762 C 2584.27 -3.09987 -5.26642 0
M  V30 25763 C 2585.26 -4.04041 -5.50672 0
M  V30 25764 O 2584.95 -5.22791 -6.10692 0
M  V30 25765 H 2584.68 -0.14026 -0.661289 0
M  V30 25766 H 2587.24 -1.03837 -1.7722 0
M  V30 25767 H 2585.47 0.462916 -3.83919 0
M  V30 25768 H 2587.16 0.10551 -4.05763 0
M  V30 25769 H 2587.92 -2.3719 -4.23043 0
M  V30 25770 H 2583.8 -1.16732 -4.45976 0
M  V30 25771 H 2587.35 -4.51006 -5.32202 0
M  V30 25772 H 2583.24 -3.29659 -5.54973 0
M  V30 25773 H 2584.01 -5.23528 -6.29174 0
M  V30 25774 N 2586.67 1.48939 -0.515251 0
M  V30 25775 C 2587.9 2.07388 0.0226906 0
M  V30 25776 C 2588.32 1.37124 1.28758 0
M  V30 25777 O 2587.68 0.432461 1.76067 0
M  V30 25778 C 2587.73 3.59768 0.244806 0
M  V30 25779 O 2586.83 3.90819 1.3166 0
M  V30 25780 H 2586.18 0.663201 -0.0325623 0
M  V30 25781 H 2588.71 1.91552 -0.718951 0
M  V30 25782 H 2588.72 4.05261 0.471979 0
M  V30 25783 H 2587.39 4.10315 -0.679266 0
M  V30 25784 H 2585.97 3.57122 1.07325 0
M  V30 25785 N 2588.15 0.249709 1.55609 0
M  V30 25786 C 2589.38 -0.378316 2.03412 0
M  V30 25787 C 2589.8 -1.51333 1.12889 0
M  V30 25788 O 2589.15 -1.81932 0.143865 0
M  V30 25789 C 2589.2 -0.883448 3.50539 0
M  V30 25790 O 2588.93 0.206337 4.37614 0
M  V30 25791 C 2590.43 -1.58188 4.14115 0
M  V30 25792 H 2587.65 -0.0895683 0.664995 0
M  V30 25793 H 2590.19 0.374393 2.01044 0
M  V30 25794 H 2588.35 -1.58633 3.53432 0
M  V30 25795 H 2588.76 -0.17769 5.24199 0
M  V30 25796 H 2590.23 -1.88701 5.18745 0
M  V30 25797 H 2590.71 -2.50481 3.60772 0
M  V30 25798 H 2591.32 -0.9235 4.15152 0
M  V30 25799 N 2589.63 -1.57583 -0.0233682 0
M  V30 25800 C 2590.86 -1.93795 -0.724648 0
M  V30 25801 C 2591.27 -0.849942 -1.68587 0
M  V30 25802 O 2590.63 0.173172 -1.81677 0
M  V30 25803 C 2590.68 -3.29959 -1.47679 0
M  V30 25804 O 2590.4 -4.34581 -0.554145 0
M  V30 25805 C 2591.9 -3.80489 -2.27471 0
M  V30 25806 H 2589.12 -0.639459 -0.203306 0
M  V30 25807 H 2591.67 -2.04489 0.0208013 0
M  V30 25808 H 2589.82 -3.20645 -2.17407 0
M  V30 25809 H 2590.24 -5.13213 -1.08223 0
M  V30 25810 H 2591.71 -4.78259 -2.75631 0
M  V30 25811 H 2592.19 -3.11977 -3.09139 0
M  V30 25812 H 2592.79 -3.92905 -1.62806 0
M  V30 25813 N 2591.11 0.29574 -1.548 0
M  V30 25814 C 2592.36 1.03181 -1.74589 0
M  V30 25815 C 2592.69 1.86743 -0.532995 0
M  V30 25816 O 2591.96 1.8874 0.469838 0
M  V30 25817 C 2592.25 1.93342 -3.03794 0
M  V30 25818 C 2592.1 1.12925 -4.35394 0
M  V30 25819 C 2593.42 2.92429 -3.28897 0
M  V30 25820 H 2590.54 0.373704 -0.635228 0
M  V30 25821 H 2593.18 0.306027 -1.87519 0
M  V30 25822 H 2591.33 2.55227 -2.92902 0
M  V30 25823 H 2593 0.532863 -4.58212 0
M  V30 25824 H 2591.24 0.432092 -4.31643 0
M  V30 25825 H 2591.92 1.79275 -5.22077 0
M  V30 25826 H 2594.39 2.40674 -3.39434 0
M  V30 25827 H 2593.27 3.52675 -4.20609 0
M  V30 25828 H 2593.53 3.66366 -2.47444 0
M  V30 25829 N 2592.59 1.47346 0.559187 0
M  V30 25830 C 2593.82 1.57481 1.34191 0
M  V30 25831 C 2594.23 0.224294 1.87463 0
M  V30 25832 O 2593.59 -0.782156 1.6489 0
M  V30 25833 C 2593.64 2.59848 2.51319 0
M  V30 25834 O 2593.36 3.89656 2.00249 0
M  V30 25835 C 2594.86 2.80148 3.43558 0
M  V30 25836 H 2592.08 0.531843 0.409126 0
M  V30 25837 H 2594.62 1.92949 0.677575 0
M  V30 25838 H 2592.78 2.2732 3.13695 0
M  V30 25839 H 2593.19 4.45575 2.76701 0
M  V30 25840 H 2594.67 3.55642 4.22164 0
M  V30 25841 H 2595.14 1.87899 3.96977 0
M  V30 25842 H 2595.75 3.13865 2.86999 0
M  V30 25843 N 2594.07 -0.805758 1.35445 0
M  V30 25844 C 2595.31 -1.5598 1.2851 0
M  V30 25845 C 2595.63 -1.94497 -0.140012 0
M  V30 25846 O 2594.9 -1.63663 -1.07663 0
M  V30 25847 H 2593.48 -0.578426 0.472686 0
M  V30 25848 H 2596.15 -0.961068 1.69557 0
M  V30 25849 H 2595.24 -2.47484 1.90153 0
M  V30 25850 N 2595.54 -1.19456 -1.02801 0
M  V30 25851 C 2596.96 -0.94696 -1.28471 0
M  V30 25852 C 2597.16 0.380168 -1.97881 0
M  V30 25853 O 2596.22 1.11147 -2.26721 0
M  V30 25854 C 2597.53 -2.12158 -2.13095 0
M  V30 25855 C 2599.08 -2.1613 -2.264 0
M  V30 25856 C 2599.55 -3.33045 -3.14396 0
M  V30 25857 N 2601.04 -3.32986 -3.21985 0
M  V30 25858 C 2601.78 -4.20096 -3.90265 0
M  V30 25859 N 2601.27 -5.17363 -4.60768 0
M  V30 25860 N 2603.07 -4.07971 -3.86673 0
M  V30 25861 H 2595.22 -2.0484 -0.561629 0
M  V30 25862 H 2597.48 -0.895736 -0.310422 0
M  V30 25863 H 2597.19 -3.08206 -1.69417 0
M  V30 25864 H 2597.06 -2.09293 -3.13809 0
M  V30 25865 H 2599.45 -1.20652 -2.69309 0
M  V30 25866 H 2599.53 -2.23048 -1.25233 0
M  V30 25867 H 2599.17 -4.28803 -2.72196 0
M  V30 25868 H 2599.1 -3.23364 -4.15624 0
M  V30 25869 H 2601.59 -2.62579 -2.71773 0
M  V30 25870 H 2601.91 -5.80178 -5.10503 0
M  V30 25871 H 2600.25 -5.2131 -4.59631 0
M  V30 25872 H 2603.44 -3.3126 -3.30733 0
M  V30 25873 H 2603.62 -4.76072 -4.39613 0
M  V30 25874 N 2597.02 1.21924 -0.998617 0
M  V30 25875 C 2598.25 1.94831 -0.69632 0
M  V30 25876 C 2598.66 1.73693 0.740001 0
M  V30 25877 O 2598.02 1.03956 1.49998 0
M  V30 25878 C 2598.07 3.47397 -0.999894 0
M  V30 25879 O 2597.79 3.67829 -2.37978 0
M  V30 25880 C 2599.29 4.37478 -0.716102 0
M  V30 25881 H 2596.51 0.619782 -0.257122 0
M  V30 25882 H 2599.06 1.54918 -1.33494 0
M  V30 25883 H 2597.21 3.85256 -0.406986 0
M  V30 25884 H 2597.63 4.61979 -2.48346 0
M  V30 25885 H 2599.1 5.43254 -0.978737 0
M  V30 25886 H 2599.58 4.37804 0.349891 0
M  V30 25887 H 2600.18 4.05254 -1.29032 0
M  V30 25888 N 2598.5 0.772537 1.37367 0
M  V30 25889 C 2599.74 0.342396 2.01512 0
M  V30 25890 C 2600.1 -1.06133 1.59999 0
M  V30 25891 O 2601.3 -1.59163 2.16611 0
M  V30 25892 C 2599.58 0.48211 3.54133 0
M  V30 25893 S 2601.13 0.137349 4.38585 0
M  V30 25894 H 2597.95 0.131699 0.698696 0
M  V30 25895 H 2600.55 1.00733 1.67551 0
M  V30 25896 H 2599.26 1.50435 3.81834 0
M  V30 25897 H 2598.79 -0.199344 3.92895 0
M  V30 25898 H 2600.8 -1.06684 4.84596 0
M  V30 25899 N 2599.98 -1.48664 0.523142 0
M  V30 25900 C 2600.91 -2.27479 -0.280381 0
M  V30 25901 C 2601.92 -1.34947 -0.91067 0
M  V30 25902 O 2603.11 -1.60053 -0.790267 0
M  V30 25903 C 2600.21 -3.081 -1.41166 0
M  V30 25904 C 2599.38 -4.28362 -0.884567 0
M  V30 25905 C 2598.44 -4.90849 -1.89613 0
M  V30 25906 O 2597.47 -5.50268 -1.45581 0
M  V30 25907 N 2598.67 -4.82478 -3.22793 0
M  V30 25908 H 2601.44 -2.97078 0.395533 0
M  V30 25909 H 2599 -1.57914 0.357046 0
M  V30 25910 H 2600.99 -3.46774 -2.08639 0
M  V30 25911 H 2599.56 -2.40965 -1.99135 0
M  V30 25912 H 2598.78 -3.94185 -0.0340484 0
M  V30 25913 H 2600.07 -5.06226 -0.511179 0
M  V30 25914 H 2599.47 -4.35343 -3.61239 0
M  V30 25915 H 2598.02 -5.25272 -3.85918 0
M  V30 25916 N 2601.46 -0.257958 -1.55475 0
M  V30 25917 C 2602.42 0.623667 -2.20552 0
M  V30 25918 C 2603.42 1.0944 -1.17811 0
M  V30 25919 O 2604.61 0.997337 -1.42824 0
M  V30 25920 C 2601.74 1.85845 -2.85787 0
M  V30 25921 H 2602.93 0.0557216 -2.99848 0
M  V30 25922 H 2600.49 -0.00846967 -1.56298 0
M  V30 25923 H 2601.22 2.46735 -2.10457 0
M  V30 25924 H 2601.01 1.52901 -3.61059 0
M  V30 25925 H 2602.5 2.48578 -3.35557 0
M  V30 25926 N 2602.93 1.57593 0.0150108 0
M  V30 25927 C 2604.18 1.91032 0.698457 0
M  V30 25928 C 2604.54 0.85807 1.72206 0
M  V30 25929 O 2603.83 -0.13158 1.91148 0
M  V30 25930 C 2604.02 3.28975 1.3968 0
M  V30 25931 C 2603.85 4.47519 0.44235 0
M  V30 25932 C 2602.62 5.05266 0.0582335 0
M  V30 25933 C 2604.82 5.13509 -0.285163 0
M  V30 25934 N 2602.8 6.07326 -0.895999 0
M  V30 25935 C 2604.17 6.10261 -1.09458 0
M  V30 25936 C 2606.23 4.96664 -0.350606 0
M  V30 25937 C 2604.93 6.91984 -1.96345 0
M  V30 25938 C 2606.96 5.78959 -1.20665 0
M  V30 25939 C 2606.32 6.75293 -2.00395 0
M  V30 25940 H 2602.42 0.747643 0.229247 0
M  V30 25941 H 2605 1.94655 -0.041809 0
M  V30 25942 H 2603.17 3.26254 2.10744 0
M  V30 25943 H 2604.9 3.49887 2.03375 0
M  V30 25944 H 2601.66 4.71703 0.423423 0
M  V30 25945 H 2602.08 6.63034 -1.36804 0
M  V30 25946 H 2606.73 4.22051 0.251522 0
M  V30 25947 H 2604.44 7.65932 -2.57632 0
M  V30 25948 H 2608.03 5.6797 -1.261 0
M  V30 25949 H 2606.91 7.37865 -2.65565 0
M  V30 25950 N 2604.41 -0.287527 1.54955 0
M  V30 25951 C 2605.64 -1.04394 1.79211 0
M  V30 25952 C 2606.06 -1.79681 0.556463 0
M  V30 25953 O 2605.42 -1.74455 -0.493487 0
M  V30 25954 C 2605.47 -1.98963 3.00742 0
M  V30 25955 O 2604.57 -3.07495 2.7481 0
M  V30 25956 H 2603.91 -0.299217 0.592761 0
M  V30 25957 H 2606.44 -0.320851 2.02069 0
M  V30 25958 H 2606.45 -2.41184 3.29081 0
M  V30 25959 H 2605.13 -1.43575 3.90332 0
M  V30 25960 H 2603.71 -2.69693 2.57527 0
M  V30 25961 N 2605.89 -1.47641 -0.551365 0
M  V30 25962 C 2607.12 -1.58439 -1.33835 0
M  V30 25963 C 2607.54 -0.237096 -1.866 0
M  V30 25964 O 2606.9 0.787965 -1.63281 0
M  V30 25965 C 2606.95 -2.6177 -2.4801 0
M  V30 25966 O 2606.05 -2.17446 -3.50415 0
M  V30 25967 H 2605.39 -0.532031 -0.397289 0
M  V30 25968 H 2607.92 -1.93466 -0.665725 0
M  V30 25969 H 2607.93 -2.82374 -2.94498 0
M  V30 25970 H 2606.61 -3.59594 -2.08962 0
M  V30 25971 H 2605.18 -2.06966 -3.10193 0
M  V30 25972 N 2607.37 0.798563 -1.3587 0
M  V30 25973 C 2608.3 1.91697 -1.23804 0
M  V30 25974 C 2609.28 1.62125 -0.124171 0
M  V30 25975 O 2610.46 1.86198 -0.293689 0
M  V30 25976 C 2607.59 3.26299 -0.908121 0
M  V30 25977 C 2606.64 3.74811 -2.03516 0
M  V30 25978 S 2607.47 3.91659 -3.6519 0
M  V30 25979 C 2608.63 5.2915 -3.34292 0
M  V30 25980 H 2608.86 2.01639 -2.1847 0
M  V30 25981 H 2606.39 0.956811 -1.2118 0
M  V30 25982 H 2608.35 4.04055 -0.724577 0
M  V30 25983 H 2607.01 3.14093 0.0206032 0
M  V30 25984 H 2606.2 4.72321 -1.75866 0
M  V30 25985 H 2605.81 3.04077 -2.17745 0
M  V30 25986 H 2608.1 6.13419 -2.87618 0
M  V30 25987 H 2609.04 5.61798 -4.31031 0
M  V30 25988 H 2609.45 4.95817 -2.69863 0
M  V30 25989 N 2608.85 1.19999 1.02166 0
M  V30 25990 C 2610.07 1.03252 1.79295 0
M  V30 25991 C 2610.49 -0.41847 1.84104 0
M  V30 25992 O 2609.85 -1.29061 1.29033 0
M  V30 25993 C 2609.9 1.60324 3.24004 0
M  V30 25994 O 2609.62 2.99745 3.19507 0
M  V30 25995 C 2611.12 1.4846 4.17701 0
M  V30 25996 H 2608.34 0.363502 0.56401 0
M  V30 25997 H 2610.88 1.58975 1.28636 0
M  V30 25998 H 2609.04 1.08733 3.71828 0
M  V30 25999 H 2609.45 3.26733 4.103 0
M  V30 26000 H 2610.93 1.93162 5.171 0
M  V30 26001 H 2611.4 0.436269 4.37028 0
M  V30 26002 H 2612.01 1.99217 3.75756 0
M  V30 26003 N 2610.32 -1.21392 1.00507 0
M  V30 26004 C 2611.74 -1.72212 0.721112 0
M  V30 26005 C 2612.09 -1.80831 -0.761231 0
M  V30 26006 O 2611.21 -1.46291 -1.59461 0
M  V30 26007 C 2611.81 -3.12769 1.30233 0
M  V30 26008 C 2610.37 -3.60945 1.0675 0
M  V30 26009 C 2609.51 -2.38474 1.41511 0
M  V30 26010 H 2612.46 -1.06568 1.17596 0
M  V30 26011 H 2612.48 -3.74246 0.687021 0
M  V30 26012 H 2612 -3.06464 2.3812 0
M  V30 26013 H 2610.1 -3.726 0.00578711 0
M  V30 26014 H 2610.21 -4.46408 1.73944 0
M  V30 26015 H 2608.57 -2.40662 0.833894 0
M  V30 26016 H 2609.36 -2.3482 2.50429 0
M  V30 26017 N 2611.8 -0.779811 -1.36955 0
M  V30 26018 C 2612.75 -0.144932 -2.27539 0
M  V30 26019 C 2613.74 0.665462 -1.46494 0
M  V30 26020 O 2614.93 0.527111 -1.68969 0
M  V30 26021 C 2612.06 0.727023 -3.35513 0
M  V30 26022 C 2611.14 -0.0916387 -4.24001 0
M  V30 26023 N 2611.53 -1.14133 -4.92755 0
M  V30 26024 C 2609.83 0.131063 -4.45807 0
M  V30 26025 C 2610.53 -1.6389 -5.58135 0
M  V30 26026 N 2609.51 -0.949714 -5.3524 0
M  V30 26027 H 2613.31 -0.948495 -2.78174 0
M  V30 26028 H 2610.83 -0.618341 -1.50168 0
M  V30 26029 H 2612.82 1.19769 -3.99326 0
M  V30 26030 H 2611.48 1.52924 -2.86434 0
M  V30 26031 H 2612.49 -1.52362 -4.94981 0
M  V30 26032 H 2609.17 0.90455 -4.07583 0
M  V30 26033 H 2610.56 -2.51472 -6.23066 0
M  V30 26034 N 2613.28 1.48384 -0.531019 0
M  V30 26035 C 2614.51 2.074 0.000693079 0
M  V30 26036 C 2614.93 1.38482 1.27296 0
M  V30 26037 O 2614.29 0.451111 1.75598 0
M  V30 26038 C 2614.34 3.60007 0.206634 0
M  V30 26039 O 2613.44 3.92193 1.27507 0
M  V30 26040 H 2612.78 0.662818 -0.0395946 0
M  V30 26041 H 2615.31 1.90779 -0.739228 0
M  V30 26042 H 2615.32 4.05739 0.428969 0
M  V30 26043 H 2614 4.09572 -0.722747 0
M  V30 26044 H 2612.57 3.5824 1.03531 0
M  V30 26045 N 2614.76 0.2662 1.55336 0
M  V30 26046 C 2615.71 -0.639459 2.18849 0
M  V30 26047 C 2616.69 -1.12501 1.15032 0
M  V30 26048 O 2617.88 -1.07157 1.40877 0
M  V30 26049 C 2615.01 -1.82728 2.90629 0
M  V30 26050 C 2614.1 -1.35932 4.01725 0
M  V30 26051 N 2614.49 -0.6069 5.02146 0
M  V30 26052 C 2612.79 -1.64302 4.14633 0
M  V30 26053 C 2613.49 -0.362036 5.80572 0
M  V30 26054 N 2612.47 -0.931877 5.35553 0
M  V30 26055 H 2616.27 -0.0566541 2.93845 0
M  V30 26056 H 2613.78 0.0693597 1.62252 0
M  V30 26057 H 2615.78 -2.48729 3.34573 0
M  V30 26058 H 2614.44 -2.41412 2.17141 0
M  V30 26059 H 2615.45 -0.255107 5.17271 0
M  V30 26060 H 2612.13 -2.23987 3.5233 0
M  V30 26061 H 2613.52 0.239966 6.71471 0
M  V30 26062 N 2616.24 -1.57599 -0.0066531 0
M  V30 26063 C 2617.46 -1.94952 -0.707704 0
M  V30 26064 C 2617.89 -0.867897 -1.66881 0
M  V30 26065 O 2617.24 0.174548 -1.80458 0
M  V30 26066 C 2617.29 -3.31397 -1.42157 0
M  V30 26067 O 2616.4 -3.2523 -2.53573 0
M  V30 26068 H 2615.74 -0.636611 -0.18874 0
M  V30 26069 H 2618.27 -2.04551 0.0445552 0
M  V30 26070 H 2618.28 -3.66809 -1.78649 0
M  V30 26071 H 2616.95 -4.09676 -0.716831 0
M  V30 26072 H 2615.53 -3.01484 -2.19457 0
M  V30 26073 N 2617.72 0.279305 -1.55105 0
M  V30 26074 C 2619.13 0.626161 -1.46804 0
M  V30 26075 C 2619.33 1.89788 -0.676972 0
M  V30 26076 O 2618.39 2.51759 -0.193304 0
M  V30 26077 C 2619.7 0.758983 -2.90964 0
M  V30 26078 C 2621.25 0.853451 -3.0114 0
M  V30 26079 C 2621.72 1.0181 -4.46541 0
M  V30 26080 N 2623.21 1.08378 -4.50343 0
M  V30 26081 C 2623.95 1.22986 -5.60055 0
M  V30 26082 N 2623.45 1.34354 -6.79648 0
M  V30 26083 N 2625.24 1.26046 -5.47785 0
M  V30 26084 H 2617.39 -0.555957 -2.04995 0
M  V30 26085 H 2619.65 -0.187256 -0.929322 0
M  V30 26086 H 2619.36 -0.104913 -3.51543 0
M  V30 26087 H 2619.23 1.64125 -3.39622 0
M  V30 26088 H 2621.62 1.70782 -2.40661 0
M  V30 26089 H 2621.7 -0.0532916 -2.55744 0
M  V30 26090 H 2621.34 0.168415 -5.07621 0
M  V30 26091 H 2621.27 1.9394 -4.89587 0
M  V30 26092 H 2623.77 1.00858 -3.64192 0
M  V30 26093 H 2624.08 1.45317 -7.59014 0
M  V30 26094 H 2622.42 1.3137 -6.82471 0
M  V30 26095 H 2625.61 1.16792 -4.53296 0
M  V30 26096 H 2625.79 1.37087 -6.33333 0
M  V30 26097 N 2619.19 1.47931 0.543528 0
M  V30 26098 C 2620.42 1.58896 1.32513 0
M  V30 26099 C 2620.84 0.244164 1.87215 0
M  V30 26100 O 2620.19 -0.764623 1.6571 0
M  V30 26101 C 2620.24 2.62499 2.48549 0
M  V30 26102 O 2619.97 3.91758 1.96105 0
M  V30 26103 C 2621.47 2.83776 3.40567 0
M  V30 26104 H 2618.69 0.536152 0.403463 0
M  V30 26105 H 2621.23 1.93656 0.657072 0
M  V30 26106 H 2619.39 2.30634 3.11266 0
M  V30 26107 H 2619.8 4.48485 2.71959 0
M  V30 26108 H 2621.27 3.601 4.18368 0
M  V30 26109 H 2621.75 1.92099 3.94962 0
M  V30 26110 H 2622.36 3.16892 2.83654 0
M  V30 26111 N 2620.67 -0.791347 1.36292 0
M  V30 26112 C 2622.08 -1.36639 1.27227 0
M  V30 26113 C 2622.43 -1.95999 -0.0887624 0
M  V30 26114 O 2621.56 -1.92418 -0.990173 0
M  V30 26115 C 2622.15 -2.48417 2.30379 0
M  V30 26116 C 2620.71 -3.01742 2.25009 0
M  V30 26117 C 2619.86 -1.74807 2.15263 0
M  V30 26118 H 2622.81 -0.593147 1.47199 0
M  V30 26119 H 2622.83 -3.27382 1.93911 0
M  V30 26120 H 2622.34 -2.05183 3.29426 0
M  V30 26121 H 2620.44 -3.494 1.29423 0
M  V30 26122 H 2620.56 -3.58687 3.17616 0
M  V30 26123 H 2618.92 -1.96963 1.61486 0
M  V30 26124 H 2619.7 -1.33704 3.16193 0
M  V30 26125 N 2622.15 -1.2054 -1.01528 0
M  V30 26126 C 2623.06 -0.97115 -2.13555 0
M  V30 26127 C 2624.08 0.073406 -1.73845 0
M  V30 26128 O 2625.25 -0.114334 -2.01075 0
M  V30 26129 C 2622.32 -0.527699 -3.42661 0
M  V30 26130 C 2621.38 -1.64326 -3.96605 0
M  V30 26131 C 2620.61 -1.22087 -5.19548 0
M  V30 26132 O 2620.83 -0.0901201 -5.70329 0
M  V30 26133 O 2619.77 -2.02881 -5.66677 0
M  V30 26134 H 2623.59 -1.90917 -2.36187 0
M  V30 26135 H 2621.18 -0.989382 -1.11945 0
M  V30 26136 H 2623.06 -0.289695 -4.20403 0
M  V30 26137 H 2621.74 0.381723 -3.21441 0
M  V30 26138 H 2620.64 -1.93556 -3.20136 0
M  V30 26139 H 2621.98 -2.52973 -4.22215 0
M  V30 26140 N 2623.63 1.20858 -1.01149 0
M  V30 26141 C 2624.86 1.938 -0.715906 0
M  V30 26142 C 2625.27 1.74693 0.726561 0
M  V30 26143 O 2624.61 1.05484 1.50395 0
M  V30 26144 C 2624.67 3.46297 -0.96533 0
M  V30 26145 C 2624.33 3.8916 -2.39591 0
M  V30 26146 C 2625.33 3.95336 -3.37647 0
M  V30 26147 C 2623.02 4.21292 -2.73529 0
M  V30 26148 C 2625.01 4.33047 -4.67706 0
M  V30 26149 C 2622.7 4.5868 -4.03802 0
M  V30 26150 C 2623.7 4.64529 -5.00702 0
M  V30 26151 O 2623.38 5.01061 -6.28644 0
M  V30 26152 H 2623.12 0.622938 -0.262535 0
M  V30 26153 H 2625.67 1.5444 -1.35415 0
M  V30 26154 H 2623.9 3.85757 -0.269915 0
M  V30 26155 H 2625.59 4.00463 -0.662121 0
M  V30 26156 H 2626.35 3.70681 -3.12763 0
M  V30 26157 H 2622.23 4.15933 -1.98797 0
M  V30 26158 H 2625.78 4.37528 -5.43337 0
M  V30 26159 H 2621.67 4.8279 -4.28468 0
M  V30 26160 H 2622.44 5.19072 -6.32856 0
M  V30 26161 N 2625.11 0.787064 1.3654 0
M  V30 26162 C 2626.34 0.369698 2.03265 0
M  V30 26163 C 2626.74 -1.01794 1.59483 0
M  V30 26164 O 2626.09 -1.66382 0.778641 0
M  V30 26165 C 2626.15 0.351434 3.57778 0
M  V30 26166 C 2625.81 1.68624 4.24753 0
M  V30 26167 C 2626.81 2.64132 4.47806 0
M  V30 26168 C 2624.49 1.96489 4.62274 0
M  V30 26169 C 2626.49 3.85702 5.07457 0
M  V30 26170 C 2624.18 3.18326 5.21643 0
M  V30 26171 C 2625.17 4.12751 5.44174 0
M  V30 26172 O 2624.86 5.3244 6.02298 0
M  V30 26173 H 2624.59 0.150762 0.658974 0
M  V30 26174 H 2627.15 1.06643 1.75546 0
M  V30 26175 H 2625.38 -0.401779 3.84607 0
M  V30 26176 H 2627.07 -0.0409434 4.05879 0
M  V30 26177 H 2627.83 2.43891 4.19216 0
M  V30 26178 H 2623.71 1.23813 4.44062 0
M  V30 26179 H 2627.26 4.59416 5.24959 0
M  V30 26180 H 2623.15 3.38447 5.49658 0
M  V30 26181 H 2623.92 5.33472 6.20766 0
M  V30 26182 N 2626.58 -1.48101 0.53888 0
M  V30 26183 C 2627.99 -1.86428 0.100711 0
M  V30 26184 C 2628.35 -1.44751 -1.32445 0
M  V30 26185 O 2627.47 -0.842234 -1.99337 0
M  V30 26186 C 2628.07 -3.38343 0.175992 0
M  V30 26187 C 2626.62 -3.7583 -0.207032 0
M  V30 26188 C 2625.77 -2.72153 0.531789 0
M  V30 26189 H 2628.72 -1.39879 0.749639 0
M  V30 26190 H 2628.74 -3.75577 -0.610078 0
M  V30 26191 H 2628.26 -3.68645 1.21335 0
M  V30 26192 H 2626.36 -3.51142 -1.24619 0
M  V30 26193 H 2626.47 -4.78899 0.138772 0
M  V30 26194 H 2624.83 -2.5469 -0.0230014 0
M  V30 26195 H 2625.62 -3.05299 1.56995 0
M  V30 26196 N 2628.06 -0.274434 -1.55192 0
M  V30 26197 C 2629.01 0.629322 -2.23925 0
M  V30 26198 C 2630 1.15838 -1.23604 0
M  V30 26199 O 2631.21 1.11209 -1.41537 0
M  V30 26200 H 2627.58 0.221494 -0.718641 0
M  V30 26201 H 2629.56 0.0267798 -2.98388 0
M  V30 26202 C 2628.3 1.80246 -2.97332 0
M  V30 26203 H 2627.63 1.40455 -3.74316 0
M  V30 26204 H 2629.07 2.41146 -3.48747 0
M  V30 26205 C 2627.53 2.6905 -2.02765 0
M  V30 26206 O 2628.06 3.6939 -1.57842 0
M  V30 26207 N 2626.26 2.36205 -1.69279 0
M  V30 26208 H 2625.81 1.54658 -2.06007 0
M  V30 26209 H 2625.77 2.95893 -1.06276 0
M  V30 26210 N 2629.54 1.576 -0.00170483 0
M  V30 26211 C 2630.5 2.07475 0.974009 0
M  V30 26212 C 2631.5 0.984466 1.27141 0
M  V30 26213 O 2632.69 1.24706 1.21631 0
M  V30 26214 C 2629.82 2.51763 2.29844 0
M  V30 26215 H 2631.02 2.94951 0.542569 0
M  V30 26216 H 2628.57 1.54355 0.245802 0
M  V30 26217 H 2629.31 1.67534 2.77674 0
M  V30 26218 H 2629.09 3.3139 2.09578 0
M  V30 26219 H 2630.58 2.9067 2.99835 0
M  V30 26220 N 2631.02 -0.271076 1.55251 0
M  V30 26221 C 2632.27 -1.00044 1.75601 0
M  V30 26222 C 2632.59 -1.86749 0.56122 0
M  V30 26223 O 2631.86 -1.91261 -0.423813 0
M  V30 26224 H 2630.44 -0.372376 0.647569 0
M  V30 26225 H 2633.1 -0.294843 1.92657 0
M  V30 26226 H 2632.19 -1.63626 2.65769 0
M  V30 26227 N 2632.5 -1.48217 -0.535675 0
M  V30 26228 C 2633.43 -1.65207 -1.65012 0
M  V30 26229 C 2634.41 -0.50104 -1.62553 0
M  V30 26230 O 2635.59 -0.732917 -1.79839 0
M  V30 26231 C 2632.72 -1.68631 -3.03613 0
M  V30 26232 C 2631.68 -2.83178 -3.20927 0
M  V30 26233 C 2631 -2.71687 -4.60532 0
M  V30 26234 C 2632.3 -4.2454 -3.04242 0
M  V30 26235 H 2634 -2.58505 -1.51048 0
M  V30 26236 H 2631.54 -1.24404 -0.72524 0
M  V30 26237 H 2633.5 -1.79106 -3.81443 0
M  V30 26238 H 2632.22 -0.719082 -3.18586 0
M  V30 26239 H 2630.88 -2.72249 -2.45512 0
M  V30 26240 H 2630.53 -1.72946 -4.72333 0
M  V30 26241 H 2630.23 -3.48547 -4.73063 0
M  V30 26242 H 2631.75 -2.84121 -5.4047 0
M  V30 26243 H 2633.16 -4.36332 -3.71869 0
M  V30 26244 H 2631.56 -5.02354 -3.28269 0
M  V30 26245 H 2632.63 -4.41401 -2.00732 0
M  V30 26246 N 2633.97 0.784108 -1.3671 0
M  V30 26247 C 2635.22 1.53742 -1.30562 0
M  V30 26248 C 2635.54 1.95283 0.11134 0
M  V30 26249 O 2636.74 2.6989 0.295222 0
M  V30 26250 C 2635.2 2.77561 -2.29103 0
M  V30 26251 C 2634.81 2.43168 -3.76263 0
M  V30 26252 C 2636.55 3.55532 -2.31942 0
M  V30 26253 C 2634.46 3.63414 -4.66566 0
M  V30 26254 H 2633.39 0.577154 -0.48519 0
M  V30 26255 H 2636.04 0.859952 -1.62102 0
M  V30 26256 H 2634.42 3.47133 -1.90564 0
M  V30 26257 H 2635.59 1.81458 -4.23568 0
M  V30 26258 H 2633.91 1.78396 -3.7625 0
M  V30 26259 H 2636.51 4.44884 -2.96618 0
M  V30 26260 H 2636.85 3.94501 -1.32947 0
M  V30 26261 H 2637.38 2.92944 -2.69126 0
M  V30 26262 H 2634.12 3.29537 -5.66644 0
M  V30 26263 H 2633.64 4.24272 -4.23974 0
M  V30 26264 H 2635.32 4.30378 -4.83098 0
M  V30 26265 N 2635.45 1.21076 1.00888 0
M  V30 26266 C 2636.39 0.909843 2.09278 0
M  V30 26267 C 2637.36 -0.141116 1.61986 0
M  V30 26268 O 2638.55 -0.013 1.88496 0
M  V30 26269 C 2635.67 0.365433 3.36723 0
M  V30 26270 C 2634.72 1.39859 4.02917 0
M  V30 26271 S 2635.55 2.96641 4.4583 0
M  V30 26272 C 2636.71 2.43797 5.76467 0
M  V30 26273 H 2636.94 1.82773 2.34481 0
M  V30 26274 H 2634.48 1.04008 1.14113 0
M  V30 26275 H 2636.43 0.0578925 4.10459 0
M  V30 26276 H 2635.09 -0.531082 3.09578 0
M  V30 26277 H 2634.29 0.967204 4.94632 0
M  V30 26278 H 2633.89 1.65401 3.35438 0
M  V30 26279 H 2636.18 1.8404 6.52024 0
M  V30 26280 H 2637.12 3.33939 6.24412 0
M  V30 26281 H 2637.53 1.85645 5.331 0
M  V30 26282 N 2636.93 -1.2032 1.01789 0
M  V30 26283 C 2637.88 -2.25186 0.58258 0
M  V30 26284 C 2638.87 -1.65098 -0.37933 0
M  V30 26285 O 2640.08 -1.78268 -0.24911 0
M  V30 26286 H 2636.45 -0.732511 0.170091 0
M  V30 26287 H 2638.42 -2.5923 1.47792 0
M  V30 26288 C 2637.17 -3.47645 -0.0620274 0
M  V30 26289 H 2636.5 -3.94161 0.669138 0
M  V30 26290 H 2637.94 -4.22716 -0.32971 0
M  V30 26291 C 2636.4 -3.10588 -1.30525 0
M  V30 26292 O 2636.93 -3.2224 -2.39842 0
M  V30 26293 N 2635.13 -2.65125 -1.18983 0
M  V30 26294 H 2634.68 -2.55844 -0.300296 0
M  V30 26295 H 2634.64 -2.40701 -2.02263 0
M  V30 26296 N 2638.41 -0.794293 -1.3612 0
M  V30 26297 C 2639.64 -0.380472 -2.03066 0
M  V30 26298 C 2640.05 1.00946 -1.6002 0
M  V30 26299 O 2639.39 1.65966 -0.787454 0
M  V30 26300 C 2639.45 -0.370403 -3.57587 0
M  V30 26301 C 2639.12 -1.70875 -4.23852 0
M  V30 26302 C 2640.11 -2.66503 -4.46399 0
M  V30 26303 C 2637.8 -1.98938 -4.61225 0
M  V30 26304 C 2639.79 -3.88387 -5.05405 0
M  V30 26305 C 2637.48 -3.21088 -5.19948 0
M  V30 26306 C 2638.48 -4.15631 -5.41978 0
M  V30 26307 O 2638.16 -5.35627 -5.99466 0
M  V30 26308 H 2637.9 -0.154255 -0.658165 0
M  V30 26309 H 2640.45 -1.07573 -1.74978 0
M  V30 26310 H 2638.68 0.381377 -3.84815 0
M  V30 26311 H 2640.37 0.019418 -4.05895 0
M  V30 26312 H 2641.14 -2.4611 -4.17917 0
M  V30 26313 H 2637.01 -1.26166 -4.434 0
M  V30 26314 H 2640.56 -4.62194 -5.22516 0
M  V30 26315 H 2636.46 -3.41357 -5.47856 0
M  V30 26316 H 2637.22 -5.36756 -6.17928 0
M  V30 26317 N 2639.89 1.47813 -0.546727 0
M  V30 26318 C 2641.13 2.04389 -0.0209963 0
M  V30 26319 C 2641.49 1.41302 1.29991 0
M  V30 26320 O 2642.69 1.88863 1.9127 0
M  V30 26321 C 2640.96 3.57308 0.0812216 0
M  V30 26322 S 2642.52 4.35281 0.554594 0
M  V30 26323 H 2639.34 0.710716 -0.020099 0
M  V30 26324 H 2641.94 1.81316 -0.731087 0
M  V30 26325 H 2640.65 4.00751 -0.884687 0
M  V30 26326 H 2640.18 3.84861 0.815185 0
M  V30 26327 H 2642.19 4.61767 1.81619 0
M  V30 26328 N 2641.36 0.28266 1.55044 0
M  V30 26329 C 2642.78 -0.0712717 1.59441 0
M  V30 26330 C 2642.98 -1.5397 1.29983 0
M  V30 26331 O 2642.04 -2.28971 1.06435 0
M  V30 26332 C 2643.35 0.310157 2.99096 0
M  V30 26333 C 2644.9 0.257398 3.1194 0
M  V30 26334 C 2645.37 0.613377 4.53874 0
M  V30 26335 N 2646.86 0.565214 4.59739 0
M  V30 26336 C 2647.6 0.81336 5.67602 0
M  V30 26337 N 2647.09 1.12652 6.8358 0
M  V30 26338 N 2648.89 0.741651 5.57186 0
M  V30 26339 H 2641.04 1.23987 1.72456 0
M  V30 26340 H 2643.3 0.501417 0.80454 0
M  V30 26341 H 2643.01 1.33168 3.25514 0
M  V30 26342 H 2642.88 -0.3453 3.75616 0
M  V30 26343 H 2645.27 -0.754855 2.85282 0
M  V30 26344 H 2645.35 0.94722 2.37616 0
M  V30 26345 H 2644.99 1.62335 4.81258 0
M  V30 26346 H 2644.92 -0.0983174 5.26508 0
M  V30 26347 H 2647.41 0.33336 3.76427 0
M  V30 26348 H 2647.73 1.30233 7.61748 0
M  V30 26349 H 2646.07 1.16437 6.85177 0
M  V30 26350 H 2649.26 0.496787 4.65456 0
M  V30 26351 H 2649.44 0.938418 6.41169 0
M  V30 26352 N 2642.84 -1.57597 0.0100627 0
M  V30 26353 C 2643.79 -2.10185 -0.996235 0
M  V30 26354 C 2644.78 -1.02408 -1.3494 0
M  V30 26355 O 2645.99 -1.20863 -1.33387 0
M  V30 26356 H 2642.37 -0.67127 -0.33897 0
M  V30 26357 H 2644.34 -2.93706 -0.527221 0
M  V30 26358 C 2643.09 -2.62861 -2.27594 0
M  V30 26359 H 2642.41 -3.45431 -2.01289 0
M  V30 26360 H 2643.85 -3.03325 -2.9626 0
M  V30 26361 C 2642.31 -1.5473 -2.99266 0
M  V30 26362 O 2642.84 -0.936039 -3.90642 0
M  V30 26363 N 2641.04 -1.27233 -2.61266 0
M  V30 26364 H 2640.59 -1.77126 -1.8704 0
M  V30 26365 H 2640.55 -0.551053 -3.09533 0
M  V30 26366 N 2644.32 0.262839 -1.55393 0
M  V30 26367 C 2645.73 0.833129 -1.6708 0
M  V30 26368 C 2646.08 1.86653 -0.604571 0
M  V30 26369 O 2645.21 2.14927 0.2521 0
M  V30 26370 C 2645.8 1.51792 -3.02894 0
M  V30 26371 C 2644.36 2.03611 -3.16575 0
M  V30 26372 C 2643.51 0.881655 -2.62911 0
M  V30 26373 H 2646.46 0.0389707 -1.58652 0
M  V30 26374 H 2646.48 2.38533 -2.9645 0
M  V30 26375 H 2645.99 0.765553 -3.80475 0
M  V30 26376 H 2644.09 2.81778 -2.43787 0
M  V30 26377 H 2644.21 2.24444 -4.23275 0
M  V30 26378 H 2642.57 1.27782 -2.20327 0
M  V30 26379 H 2643.35 0.14263 -3.43004 0
M  V30 26380 N 2645.8 1.48499 0.527807 0
M  V30 26381 C 2647.08 1.47117 1.28902 0
M  V30 26382 C 2647.46 0.184044 2.10296 0
M  V30 26383 O 2646.8 -0.834181 2.12729 0
M  V30 26384 C 2647.01 2.73445 2.16861 0
M  V30 26385 C 2648.36 3.21861 2.7693 0
M  V30 26386 O 2649.39 2.74377 2.27147 0
M  V30 26387 O 2648.24 4.04492 3.67489 0
M  V30 26388 H 2645.34 0.587633 0.581907 0
M  V30 26389 H 2647.88 1.60735 0.544282 0
M  V30 26390 H 2646.66 3.58635 1.56515 0
M  V30 26391 H 2646.28 2.62558 2.98578 0
M  V30 26392 N 2647.28 -0.776847 1.37123 0
M  V30 26393 C 2648.24 -1.87158 1.32304 0
M  V30 26394 C 2649.24 -1.59174 0.228127 0
M  V30 26395 O 2650.43 -1.67351 0.483672 0
M  V30 26396 C 2647.56 -3.24195 1.05406 0
M  V30 26397 H 2648.76 -1.92844 2.29676 0
M  V30 26398 H 2646.31 -0.976038 1.22079 0
M  V30 26399 H 2647.04 -3.24187 0.0854442 0
M  V30 26400 H 2646.83 -3.45898 1.84654 0
M  V30 26401 H 2648.32 -4.04269 1.04671 0
M  V30 26402 N 2648.76 -1.2161 -1.00244 0
M  V30 26403 C 2650 -1.03641 -1.74317 0
M  V30 26404 C 2650.33 0.428715 -1.89409 0
M  V30 26405 O 2649.61 1.31807 -1.43028 0
M  V30 26406 C 2649.89 -1.73717 -3.15428 0
M  V30 26407 C 2649.75 -3.27765 -3.08043 0
M  V30 26408 C 2651.06 -1.4818 -4.14404 0
M  V30 26409 H 2648.18 -0.377911 -0.632734 0
M  V30 26410 H 2650.83 -1.4982 -1.16851 0
M  V30 26411 H 2648.98 -1.34458 -3.6449 0
M  V30 26412 H 2650.65 -3.76407 -2.66674 0
M  V30 26413 H 2648.89 -3.57935 -2.45081 0
M  V30 26414 H 2649.56 -3.71965 -4.07855 0
M  V30 26415 H 2652.04 -1.82264 -3.74057 0
M  V30 26416 H 2650.91 -1.99722 -5.11275 0
M  V30 26417 H 2651.17 -0.412351 -4.40173 0
M  V30 26418 N 2650.23 1.19778 -1.02425 0
M  V30 26419 C 2651.2 2.21051 -0.605742 0
M  V30 26420 C 2652.2 1.57415 0.328181 0
M  V30 26421 O 2653.39 1.73815 0.115822 0
M  V30 26422 C 2650.52 3.40708 0.114306 0
M  V30 26423 H 2651.71 2.59591 -1.50174 0
M  V30 26424 H 2649.26 1.33375 -0.814911 0
M  V30 26425 H 2650 3.0768 1.02487 0
M  V30 26426 H 2649.78 3.88128 -0.55671 0
M  V30 26427 H 2651.27 4.15735 0.394199 0
M  V30 26428 N 2651.71 0.801501 1.35697 0
M  V30 26429 C 2652.67 0.214034 2.28198 0
M  V30 26430 C 2653.67 -0.595665 1.4936 0
M  V30 26431 O 2654.86 -0.414891 1.69187 0
M  V30 26432 C 2652 -0.702238 3.33589 0
M  V30 26433 H 2653.19 1.02981 2.81664 0
M  V30 26434 H 2650.74 0.571785 1.45466 0
M  V30 26435 H 2651.48 -1.5419 2.853 0
M  V30 26436 H 2651.26 -0.123415 3.91906 0
M  V30 26437 H 2652.75 -1.10775 4.02639 0
M  V30 26438 N 2653.19 -1.47521 0.554558 0
M  V30 26439 C 2654.6 -1.86311 0.120479 0
M  V30 26440 C 2654.95 -1.46148 -1.30902 0
M  V30 26441 O 2654.08 -0.863329 -1.98433 0
M  V30 26442 C 2654.67 -3.38137 0.211868 0
M  V30 26443 C 2653.23 -3.76029 -0.167158 0
M  V30 26444 C 2652.38 -2.71574 0.560624 0
M  V30 26445 H 2655.33 -1.39076 0.764433 0
M  V30 26446 H 2655.35 -3.76203 -0.570209 0
M  V30 26447 H 2654.86 -3.67338 1.25238 0
M  V30 26448 H 2652.96 -3.52444 -1.20888 0
M  V30 26449 H 2653.08 -4.78725 0.189557 0
M  V30 26450 H 2651.44 -2.547 0.00401313 0
M  V30 26451 H 2652.22 -3.03617 1.60224 0
M  V30 26452 N 2654.67 -0.290879 -1.54892 0
M  V30 26453 C 2655.9 0.323782 -2.04047 0
M  V30 26454 C 2656.31 1.48835 -1.16811 0
M  V30 26455 O 2655.65 1.82774 -0.184177 0
M  V30 26456 C 2655.71 0.852334 -3.4925 0
M  V30 26457 C 2655.37 -0.185637 -4.56623 0
M  V30 26458 C 2656.37 -1.01062 -5.09983 0
M  V30 26459 C 2654.06 -0.32442 -5.01251 0
M  V30 26460 C 2656.05 -1.96041 -6.06504 0
M  V30 26461 C 2653.74 -1.27768 -5.97594 0
M  V30 26462 C 2654.74 -2.09416 -6.50103 0
M  V30 26463 O 2654.42 -3.03127 -7.4456 0
M  V30 26464 H 2654.16 0.075801 -0.671737 0
M  V30 26465 H 2656.71 -0.425428 -2.00946 0
M  V30 26466 H 2654.94 1.65189 -3.49642 0
M  V30 26467 H 2656.63 1.38178 -3.81656 0
M  V30 26468 H 2657.39 -0.914213 -4.76306 0
M  V30 26469 H 2653.27 0.301132 -4.60015 0
M  V30 26470 H 2656.82 -2.59811 -6.47413 0
M  V30 26471 H 2652.71 -1.37484 -6.30689 0
M  V30 26472 H 2653.48 -2.9799 -7.62328 0
M  V30 26473 N 2656.15 1.57589 -0.0184203 0
M  V30 26474 C 2657.39 1.93217 0.666812 0
M  V30 26475 C 2657.75 0.894245 1.69904 0
M  V30 26476 O 2658.95 1.13637 2.43598 0
M  V30 26477 C 2657.22 3.33816 1.27678 0
M  V30 26478 S 2658.78 3.91357 1.98457 0
M  V30 26479 H 2655.6 0.676168 0.219814 0
M  V30 26480 H 2658.2 1.95338 -0.0795236 0
M  V30 26481 H 2656.9 4.07182 0.512934 0
M  V30 26482 H 2656.44 3.35113 2.06065 0
M  V30 26483 H 2658.45 3.73924 3.26183 0
M  V30 26484 N 2657.62 -0.254594 1.5553 0
M  V30 26485 C 2658.85 -1.00001 1.80786 0
M  V30 26486 C 2659.26 -1.79741 0.590742 0
M  V30 26487 O 2658.6 -1.78104 -0.449957 0
M  V30 26488 C 2658.67 -1.99191 2.99271 0
M  V30 26489 C 2658.33 -1.38217 4.35597 0
M  V30 26490 C 2659.33 -0.788521 5.13886 0
M  V30 26491 C 2657.01 -1.40384 4.82284 0
M  V30 26492 C 2659.01 -0.224671 6.37004 0
M  V30 26493 C 2656.69 -0.836137 6.05353 0
M  V30 26494 C 2657.69 -0.24757 6.82551 0
M  V30 26495 O 2657.38 0.31139 8.03297 0
M  V30 26496 H 2657.11 -0.300264 0.605655 0
M  V30 26497 H 2659.67 -0.285107 2.03412 0
M  V30 26498 H 2657.9 -2.74491 2.72381 0
M  V30 26499 H 2659.58 -2.60012 3.11687 0
M  V30 26500 H 2660.35 -0.764339 4.78939 0
M  V30 26501 H 2656.23 -1.85134 4.22192 0
M  V30 26502 H 2659.77 0.235358 6.97203 0
M  V30 26503 H 2655.67 -0.85762 6.39777 0
M  V30 26504 H 2656.44 0.202514 8.18249 0
M  V30 26505 N 2659.1 -1.48777 -0.519925 0
M  V30 26506 C 2660.33 -1.60984 -1.29968 0
M  V30 26507 C 2660.74 -0.273917 -1.86802 0
M  V30 26508 O 2660.1 0.738164 -1.66905 0
M  V30 26509 C 2660.15 -2.6642 -2.44342 0
M  V30 26510 O 2659.87 -3.94828 -1.89848 0
M  V30 26511 C 2661.37 -2.89159 -3.36009 0
M  V30 26512 H 2658.59 -0.542503 -0.394882 0
M  V30 26513 H 2661.14 -1.94677 -0.62618 0
M  V30 26514 H 2659.29 -2.35557 -3.07557 0
M  V30 26515 H 2659.71 -4.52755 -2.6479 0
M  V30 26516 H 2661.18 -3.6671 -4.12586 0
M  V30 26517 H 2661.66 -1.98358 -3.91855 0
M  V30 26518 H 2662.26 -3.21364 -2.78577 0
M  V30 26519 N 2660.58 0.769564 -1.37534 0
M  V30 26520 C 2662 1.07043 -1.18381 0
M  V30 26521 C 2662.2 2.01489 -0.0214666 0
M  V30 26522 O 2661.25 2.44313 0.637766 0
M  V30 26523 C 2662.56 1.66583 -2.50341 0
M  V30 26524 C 2664.11 1.78831 -2.56882 0
M  V30 26525 C 2664.59 2.41785 -3.88978 0
M  V30 26526 N 2666.08 2.49233 -3.90432 0
M  V30 26527 C 2666.81 2.988 -4.89393 0
M  V30 26528 N 2666.31 3.48524 -5.98751 0
M  V30 26529 N 2668.1 2.97695 -4.76796 0
M  V30 26530 H 2660.25 0.142504 -2.11921 0
M  V30 26531 H 2662.52 0.125847 -0.93961 0
M  V30 26532 H 2662.22 1.04654 -3.35768 0
M  V30 26533 H 2662.1 2.65851 -2.67588 0
M  V30 26534 H 2664.48 2.39892 -1.7186 0
M  V30 26535 H 2664.56 0.783123 -2.43518 0
M  V30 26536 H 2664.21 1.81362 -4.74416 0
M  V30 26537 H 2664.14 3.42913 -3.99647 0
M  V30 26538 H 2666.63 2.14046 -3.11436 0
M  V30 26539 H 2666.94 3.84755 -6.70211 0
M  V30 26540 H 2665.29 3.46623 -6.02393 0
M  V30 26541 H 2668.48 2.5815 -3.90482 0
M  V30 26542 H 2668.65 3.36014 -5.54075 0
M  V30 26543 N 2662.06 1.22139 0.995977 0
M  V30 26544 C 2663.34 0.952672 1.70832 0
M  V30 26545 C 2663.72 -0.533083 2.04258 0
M  V30 26546 O 2663.06 -1.50031 1.72345 0
M  V30 26547 C 2663.27 1.84706 2.96116 0
M  V30 26548 C 2664.62 2.10131 3.68958 0
M  V30 26549 O 2665.65 1.82129 3.06117 0
M  V30 26550 O 2664.5 2.57539 4.82012 0
M  V30 26551 H 2661.6 0.35801 0.745492 0
M  V30 26552 H 2664.14 1.33111 1.0526 0
M  V30 26553 H 2662.92 2.85218 2.67893 0
M  V30 26554 H 2662.54 1.47002 3.69427 0
M  V30 26555 N 2663.54 -1.19233 1.03059 0
M  V30 26556 C 2664.95 -1.70643 0.757479 0
M  V30 26557 C 2665.3 -1.82405 -0.722703 0
M  V30 26558 O 2664.42 -1.4964 -1.56322 0
M  V30 26559 C 2665.02 -3.09937 1.36838 0
M  V30 26560 C 2663.58 -3.586 1.14382 0
M  V30 26561 C 2662.72 -2.35419 1.46537 0
M  V30 26562 H 2665.68 -1.0405 1.1983 0
M  V30 26563 H 2665.7 -3.72705 0.76625 0
M  V30 26564 H 2665.21 -3.01344 2.44567 0
M  V30 26565 H 2663.31 -3.72503 0.0848197 0
M  V30 26566 H 2663.42 -4.42618 1.83373 0
M  V30 26567 H 2661.79 -2.38839 0.884754 0
M  V30 26568 H 2662.57 -2.29455 2.55353 0
M  V30 26569 N 2665.01 -0.808686 -1.3527 0
M  V30 26570 C 2666.26 -0.389267 -1.98316 0
M  V30 26571 C 2666.58 1.04764 -1.64467 0
M  V30 26572 O 2665.85 1.72514 -0.928205 0
M  V30 26573 H 2664.43 -0.140947 -0.733582 0
M  V30 26574 H 2667.1 -1.03499 -1.65148 0
M  V30 26575 H 2666.19 -0.496685 -3.08122 0
M  V30 26576 N 2666.49 1.47225 -0.562374 0
M  V30 26577 C 2667.74 2.0276 -0.0403117 0
M  V30 26578 C 2668.07 1.43526 1.30821 0
M  V30 26579 O 2667.35 0.592737 1.85248 0
M  V30 26580 C 2667.63 3.60069 0.0472477 0
M  V30 26581 C 2667.48 4.29726 -1.32873 0
M  V30 26582 C 2668.8 4.33521 0.758106 0
M  V30 26583 H 2665.92 0.736824 -0.0161235 0
M  V30 26584 H 2668.56 1.75597 -0.725659 0
M  V30 26585 H 2666.71 3.83343 0.630919 0
M  V30 26586 H 2668.38 4.17778 -1.956 0
M  V30 26587 H 2666.63 3.89879 -1.90202 0
M  V30 26588 H 2667.3 5.38346 -1.22013 0
M  V30 26589 H 2669.77 4.15271 0.262473 0
M  V30 26590 H 2668.65 5.43209 0.788345 0
M  V30 26591 H 2668.91 4.03112 1.8153 0
M  V30 26592 N 2667.97 0.299089 1.54736 0
M  V30 26593 C 2669.39 -0.0543569 1.59507 0
M  V30 26594 C 2669.59 -1.52582 1.31609 0
M  V30 26595 O 2668.64 -2.2783 1.08857 0
M  V30 26596 C 2669.96 0.341862 2.9875 0
M  V30 26597 C 2671.5 0.290469 3.11649 0
M  V30 26598 C 2671.98 0.661482 4.53198 0
M  V30 26599 N 2673.47 0.613944 4.59113 0
M  V30 26600 C 2674.2 0.873516 5.66707 0
M  V30 26601 N 2673.7 1.19896 6.82347 0
M  V30 26602 N 2675.49 0.800706 5.56368 0
M  V30 26603 H 2667.64 1.25809 1.71131 0
M  V30 26604 H 2669.91 0.509922 0.799177 0
M  V30 26605 H 2669.61 1.36613 3.24083 0
M  V30 26606 H 2669.49 -0.305442 3.75961 0
M  V30 26607 H 2671.87 -0.724554 2.86067 0
M  V30 26608 H 2671.96 0.972369 2.36598 0
M  V30 26609 H 2671.6 1.6743 4.7951 0
M  V30 26610 H 2671.53 -0.0424687 5.26583 0
M  V30 26611 H 2674.02 0.373267 3.76052 0
M  V30 26612 H 2674.33 1.38305 7.60323 0
M  V30 26613 H 2672.68 1.23697 6.83903 0
M  V30 26614 H 2675.87 0.546127 4.64903 0
M  V30 26615 H 2676.04 1.00637 6.40138 0
M  V30 26616 N 2669.45 -1.57577 0.0267774 0
M  V30 26617 C 2670.69 -1.92816 -0.647563 0
M  V30 26618 C 2671.05 -0.903426 -1.6987 0
M  V30 26619 O 2670.34 0.0808544 -1.91429 0
M  V30 26620 C 2670.54 -3.32562 -1.30909 0
M  V30 26621 C 2670.37 -4.48535 -0.323542 0
M  V30 26622 C 2669.14 -5.05243 0.0757495 0
M  V30 26623 C 2671.33 -5.12572 0.42121 0
M  V30 26624 N 2669.32 -6.04737 1.05671 0
M  V30 26625 C 2670.69 -6.07145 1.25599 0
M  V30 26626 C 2672.74 -4.9556 0.482164 0
M  V30 26627 C 2671.44 -6.86535 2.14622 0
M  V30 26628 C 2673.47 -5.75557 1.35972 0
M  V30 26629 C 2672.83 -6.69743 2.18229 0
M  V30 26630 H 2668.93 -0.753458 -0.209344 0
M  V30 26631 H 2671.52 -1.94476 0.0934037 0
M  V30 26632 H 2669.69 -3.31726 -2.0202 0
M  V30 26633 H 2671.42 -3.55156 -1.94027 0
M  V30 26634 H 2668.17 -4.7266 -0.298211 0
M  V30 26635 H 2668.6 -6.59173 1.54335 0
M  V30 26636 H 2673.24 -4.2257 -0.139534 0
M  V30 26637 H 2670.96 -7.58832 2.77848 0
M  V30 26638 H 2674.54 -5.64427 1.41115 0
M  V30 26639 H 2673.42 -7.30565 2.85034 0
M  V30 26640 N 2670.93 0.246342 -1.55663 0
M  V30 26641 C 2671.84 1.32649 -1.93498 0
M  V30 26642 C 2672.85 1.52629 -0.835489 0
M  V30 26643 O 2674.03 1.6624 -1.13693 0
M  V30 26644 C 2671.09 2.66097 -2.22246 0
M  V30 26645 C 2670.15 2.54635 -3.45629 0
M  V30 26646 C 2669.39 3.81718 -3.72998 0
M  V30 26647 O 2669.61 4.83624 -3.0243 0
M  V30 26648 O 2668.54 3.80317 -4.66522 0
M  V30 26649 H 2672.37 1.03554 -2.855 0
M  V30 26650 H 2669.96 0.447144 -1.42552 0
M  V30 26651 H 2671.84 3.44954 -2.42043 0
M  V30 26652 H 2670.51 2.94924 -1.33422 0
M  V30 26653 H 2669.42 1.74062 -3.31139 0
M  V30 26654 H 2670.75 2.30752 -4.34758 0
M  V30 26655 N 2672.4 1.4905 0.512027 0
M  V30 26656 C 2673.63 1.61437 1.28926 0
M  V30 26657 C 2674.04 0.28068 1.87106 0
M  V30 26658 O 2673.39 -0.742508 1.68025 0
M  V30 26659 C 2673.45 2.61593 2.46596 0
M  V30 26660 C 2673.11 4.06219 2.09368 0
M  V30 26661 C 2674.11 4.93361 1.63985 0
M  V30 26662 C 2671.79 4.5188 2.1934 0
M  V30 26663 C 2673.79 6.24196 1.29065 0
M  V30 26664 C 2671.47 5.82731 1.84031 0
M  V30 26665 C 2672.47 6.68713 1.38967 0
M  V30 26666 O 2672.16 7.97127 1.0413 0
M  V30 26667 H 2671.89 0.546666 0.397658 0
M  V30 26668 H 2674.45 1.95741 0.622473 0
M  V30 26669 H 2672.68 2.22446 3.16314 0
M  V30 26670 H 2674.37 2.63624 3.08638 0
M  V30 26671 H 2675.13 4.59316 1.55736 0
M  V30 26672 H 2671.01 3.8513 2.5337 0
M  V30 26673 H 2674.55 6.91263 0.938182 0
M  V30 26674 H 2670.45 6.16307 1.91927 0
M  V30 26675 H 2671.22 8.10041 1.17373 0
M  V30 26676 N 2673.88 -0.762259 1.3794 0
M  V30 26677 C 2675.12 -1.53405 1.35079 0
M  V30 26678 C 2675.49 -1.91901 -0.0615123 0
M  V30 26679 O 2676.69 -2.67939 -0.214926 0
M  V30 26680 C 2674.96 -2.7588 2.27211 0
M  V30 26681 S 2676.52 -3.65843 2.42289 0
M  V30 26682 H 2673.34 -0.525072 0.479396 0
M  V30 26683 H 2675.94 -0.895556 1.73782 0
M  V30 26684 H 2674.64 -2.45694 3.28729 0
M  V30 26685 H 2674.17 -3.44682 1.89626 0
M  V30 26686 H 2676.19 -4.68296 1.64052 0
M  V30 26687 N 2675.36 -1.22666 -0.989486 0
M  V30 26688 C 2676.31 -0.997072 -2.10146 0
M  V30 26689 C 2677.3 0.0609485 -1.6929 0
M  V30 26690 O 2678.51 -0.0917839 -1.79766 0
M  V30 26691 H 2674.88 -0.305271 -0.687251 0
M  V30 26692 H 2676.85 -1.94057 -2.26681 0
M  V30 26693 C 2675.6 -0.595145 -3.42569 0
M  V30 26694 H 2674.93 -1.40096 -3.74451 0
M  V30 26695 H 2676.37 -0.473943 -4.21343 0
M  V30 26696 C 2674.83 0.695667 -3.29639 0
M  V30 26697 O 2675.36 1.74721 -3.61712 0
M  V30 26698 N 2673.56 0.668123 -2.82815 0
M  V30 26699 H 2673.11 -0.187915 -2.56914 0
M  V30 26700 H 2673.07 1.53205 -2.74546 0
M  V30 26701 N 2676.84 1.18685 -1.0369 0
M  V30 26702 C 2677.77 2.24402 -0.645446 0
M  V30 26703 C 2678.75 1.66471 0.349482 0
M  V30 26704 O 2679.94 1.92828 0.230419 0
M  V30 26705 C 2677.07 3.473 -0.00371441 0
M  V30 26706 C 2676.02 4.17956 -0.921779 0
M  V30 26707 C 2675.35 5.34504 -0.144723 0
M  V30 26708 C 2676.65 4.71867 -2.23918 0
M  V30 26709 H 2678.34 2.57401 -1.52922 0
M  V30 26710 H 2675.89 1.23726 -0.736733 0
M  V30 26711 H 2677.84 4.20456 0.281835 0
M  V30 26712 H 2676.56 3.13524 0.914908 0
M  V30 26713 H 2675.22 3.46692 -1.19165 0
M  V30 26714 H 2674.87 4.96975 0.776186 0
M  V30 26715 H 2674.57 5.82712 -0.756308 0
M  V30 26716 H 2676.09 6.10453 0.133897 0
M  V30 26717 H 2677.51 5.36737 -2.01459 0
M  V30 26718 H 2675.9 5.30594 -2.80339 0
M  V30 26719 H 2676.97 3.89495 -2.88829 0
M  V30 26720 N 2678.32 0.815849 1.34839 0
M  V30 26721 C 2679.55 0.41333 2.02729 0
M  V30 26722 C 2679.96 -0.97857 1.6146 0
M  V30 26723 O 2679.32 -1.63211 0.816613 0
M  V30 26724 C 2679.37 0.497739 3.58057 0
M  V30 26725 O 2679.09 1.83477 3.97829 0
M  V30 26726 C 2680.59 0.0892118 4.4321 0
M  V30 26727 H 2677.81 0.16674 0.649953 0
M  V30 26728 H 2680.35 1.10204 1.72265 0
M  V30 26729 H 2678.51 -0.142818 3.87137 0
M  V30 26730 H 2678.92 1.80404 4.92498 0
M  V30 26731 H 2680.4 0.199371 5.5164 0
M  V30 26732 H 2680.87 -0.966496 4.28434 0
M  V30 26733 H 2681.48 0.703288 4.19445 0
M  V30 26734 N 2679.8 -1.46924 0.570174 0
M  V30 26735 C 2680.73 -2.28255 -0.207868 0
M  V30 26736 C 2681.74 -1.37776 -0.867277 0
M  V30 26737 O 2682.93 -1.62486 -0.738948 0
M  V30 26738 C 2680.03 -3.12435 -1.31292 0
M  V30 26739 C 2679.2 -4.3096 -0.747839 0
M  V30 26740 C 2678.26 -4.96633 -1.73901 0
M  V30 26741 O 2677.29 -5.54621 -1.28001 0
M  V30 26742 N 2678.49 -4.92503 -3.0728 0
M  V30 26743 H 2681.25 -2.9567 0.489846 0
M  V30 26744 H 2678.82 -1.56698 0.407104 0
M  V30 26745 H 2680.81 -3.53236 -1.97501 0
M  V30 26746 H 2679.38 -2.47178 -1.91368 0
M  V30 26747 H 2678.6 -3.94094 0.0913759 0
M  V30 26748 H 2679.89 -5.07596 -0.349869 0
M  V30 26749 H 2679.28 -4.46615 -3.47206 0
M  V30 26750 H 2677.84 -5.37284 -3.69011 0
M  V30 26751 N 2681.27 -0.307291 -1.54575 0
M  V30 26752 C 2682.51 0.300927 -2.02173 0
M  V30 26753 C 2682.88 1.50609 -1.19084 0
M  V30 26754 O 2684.08 2.18609 -1.56409 0
M  V30 26755 C 2682.35 0.642529 -3.51577 0
M  V30 26756 S 2683.91 1.23271 -4.21129 0
M  V30 26757 H 2680.73 0.0920017 -0.705022 0
M  V30 26758 H 2683.33 -0.436627 -1.90562 0
M  V30 26759 H 2682.03 -0.242973 -4.0968 0
M  V30 26760 H 2681.56 1.41071 -3.67236 0
M  V30 26761 H 2683.58 2.52027 -4.27431 0
M  V30 26762 N 2682.75 1.57561 -0.0351337 0
M  V30 26763 C 2683.98 1.9676 0.655767 0
M  V30 26764 C 2684.4 0.911837 1.64521 0
M  V30 26765 O 2683.76 -0.126642 1.80857 0
M  V30 26766 C 2683.81 3.35049 1.3332 0
M  V30 26767 O 2682.91 3.31839 2.4486 0
M  V30 26768 H 2682.25 0.641391 0.171795 0
M  V30 26769 H 2684.78 2.04361 -0.0987728 0
M  V30 26770 H 2684.79 3.71416 1.6886 0
M  V30 26771 H 2683.47 4.11432 0.607961 0
M  V30 26772 H 2682.04 3.07197 2.11387 0
M  V30 26773 N 2684.23 -0.238084 1.55791 0
M  V30 26774 C 2685.51 -0.988231 1.688 0
M  V30 26775 C 2685.89 -2.03044 0.577597 0
M  V30 26776 O 2685.23 -2.24649 -0.41774 0
M  V30 26777 C 2685.44 -1.61362 3.09457 0
M  V30 26778 C 2686.79 -2.11214 3.68339 0
M  V30 26779 O 2687.82 -1.71287 3.12313 0
M  V30 26780 O 2686.68 -2.84552 4.66575 0
M  V30 26781 H 2683.77 -0.460556 0.686889 0
M  V30 26782 H 2686.32 -0.231172 1.68118 0
M  V30 26783 H 2685.09 -0.860228 3.81727 0
M  V30 26784 H 2684.71 -2.43665 3.14186 0
M  V30 26785 N 2685.71 -1.4932 -0.504115 0
M  V30 26786 C 2686.67 -1.65247 -1.58827 0
M  V30 26787 C 2687.67 -0.524412 -1.52008 0
M  V30 26788 O 2688.86 -0.790797 -1.55216 0
M  V30 26789 C 2685.99 -1.64692 -2.98478 0
M  V30 26790 H 2687.19 -2.61942 -1.46036 0
M  V30 26791 H 2684.74 -1.38304 -0.72812 0
M  V30 26792 H 2685.47 -0.695699 -3.1675 0
M  V30 26793 H 2685.26 -2.46612 -3.04836 0
M  V30 26794 H 2686.75 -1.79082 -3.77252 0
M  V30 26795 N 2687.19 0.754933 -1.38342 0
M  V30 26796 C 2688.1 1.89941 -1.37693 0
M  V30 26797 C 2689.11 1.71826 -0.274225 0
M  V30 26798 O 2690.29 1.94772 -0.512426 0
M  V30 26799 C 2687.35 3.25291 -1.19944 0
M  V30 26800 C 2686.41 3.55942 -2.40007 0
M  V30 26801 C 2685.65 4.84834 -2.23095 0
M  V30 26802 O 2685.87 5.57114 -1.22396 0
M  V30 26803 O 2684.8 5.14932 -3.11655 0
M  V30 26804 H 2688.63 1.93442 -2.34124 0
M  V30 26805 H 2686.21 0.900023 -1.19247 0
M  V30 26806 H 2688.1 4.06216 -1.121 0
M  V30 26807 H 2686.77 3.22605 -0.265976 0
M  V30 26808 H 2685.68 2.75184 -2.53426 0
M  V30 26809 H 2687.01 3.63388 -3.31979 0
M  V30 26810 N 2688.66 1.23189 0.982967 0
M  V30 26811 C 2689.91 1.06034 1.7205 0
M  V30 26812 C 2690.23 -0.403986 1.90769 0
M  V30 26813 O 2689.5 -1.28979 1.47449 0
M  V30 26814 H 2688.08 0.389375 0.637492 0
M  V30 26815 H 2690.74 1.54864 1.18335 0
M  V30 26816 H 2689.84 1.5462 2.71107 0
M  V30 26817 N 2690.14 -1.18133 1.04318 0
M  V30 26818 C 2691.37 -1.92112 0.768151 0
M  V30 26819 C 2691.78 -1.7632 -0.675026 0
M  V30 26820 O 2691.14 -1.09452 -1.46036 0
M  V30 26821 C 2691.19 -3.43446 1.12814 0
M  V30 26822 O 2690.91 -3.58743 2.51466 0
M  V30 26823 C 2692.41 -4.34519 0.877976 0
M  V30 26824 H 2689.63 -0.609812 0.279948 0
M  V30 26825 H 2692.18 -1.49857 1.39151 0
M  V30 26826 H 2690.33 -3.8348 0.549691 0
M  V30 26827 H 2690.75 -4.52443 2.65321 0
M  V30 26828 H 2692.22 -5.39247 1.17969 0
M  V30 26829 H 2692.7 -4.38801 -0.187162 0
M  V30 26830 H 2693.3 -4.00186 1.43984 0
M  V30 26831 N 2691.62 -0.822988 -1.34405 0
M  V30 26832 C 2692.58 -0.250311 -2.27829 0
M  V30 26833 C 2693.58 0.571827 -1.50289 0
M  V30 26834 O 2694.77 0.387923 -1.69826 0
M  V30 26835 C 2691.91 0.649078 -3.34664 0
M  V30 26836 H 2693.1 -1.07449 -2.7999 0
M  V30 26837 H 2690.65 -0.594855 -1.44538 0
M  V30 26838 H 2691.39 1.49632 -2.87717 0
M  V30 26839 H 2691.17 0.061051 -3.92052 0
M  V30 26840 H 2692.66 1.04356 -4.04351 0
M  V30 26841 N 2693.1 1.4662 -0.577957 0
M  V30 26842 C 2694.34 2.02706 -0.0618149 0
M  V30 26843 C 2694.68 1.44905 1.29291 0
M  V30 26844 O 2693.95 0.612352 1.84609 0
M  V30 26845 C 2694.24 3.60099 0.00905495 0
M  V30 26846 C 2694.09 4.28293 -1.37423 0
M  V30 26847 C 2695.41 4.34301 0.712082 0
M  V30 26848 H 2692.53 0.736611 -0.0239376 0
M  V30 26849 H 2695.17 1.74817 -0.744242 0
M  V30 26850 H 2693.32 3.8399 0.590225 0
M  V30 26851 H 2694.99 4.1568 -2.0002 0
M  V30 26852 H 2693.23 3.8784 -1.94326 0
M  V30 26853 H 2693.9 5.37022 -1.27716 0
M  V30 26854 H 2696.38 4.15526 0.218413 0
M  V30 26855 H 2695.26 5.44015 0.730686 0
M  V30 26856 H 2695.52 4.05015 1.77244 0
M  V30 26857 N 2694.58 0.315484 1.5441 0
M  V30 26858 C 2695.54 -0.541381 2.22714 0
M  V30 26859 C 2696.54 -1.04993 1.21792 0
M  V30 26860 O 2697.73 -0.943641 1.46428 0
M  V30 26861 C 2694.86 -1.75111 2.92488 0
M  V30 26862 H 2696.05 0.0556036 2.99848 0
M  V30 26863 H 2693.61 0.0664727 1.56159 0
M  V30 26864 H 2694.34 -2.38754 2.1947 0
M  V30 26865 H 2694.13 -1.39395 3.66485 0
M  V30 26866 H 2695.62 -2.35953 3.44552 0
M  V30 26867 N 2696.05 -1.5754 0.0434891 0
M  V30 26868 C 2697.47 -1.80065 -0.493311 0
M  V30 26869 C 2697.82 -0.955053 -1.71386 0
M  V30 26870 O 2696.94 -0.169472 -2.15735 0
M  V30 26871 C 2697.54 -3.2658 -0.901733 0
M  V30 26872 C 2696.1 -3.50049 -1.38356 0
M  V30 26873 C 2695.24 -2.75017 -0.355081 0
M  V30 26874 H 2698.19 -1.56396 0.269428 0
M  V30 26875 H 2698.21 -3.37079 -1.76517 0
M  V30 26876 H 2697.73 -3.88098 -0.0132028 0
M  V30 26877 H 2695.83 -2.93802 -2.29154 0
M  V30 26878 H 2695.94 -4.58764 -1.38102 0
M  V30 26879 H 2694.3 -2.40924 -0.826306 0
M  V30 26880 H 2695.09 -3.39258 0.525231 0
M  V30 26881 N 2697.53 0.229818 -1.55915 0
M  V30 26882 C 2698.94 0.797501 -1.6881 0
M  V30 26883 C 2699.29 1.85329 -0.644027 0
M  V30 26884 O 2698.42 2.15413 0.206454 0
M  V30 26885 C 2699.01 1.45333 -3.06045 0
M  V30 26886 C 2697.57 1.9685 -3.20822 0
M  V30 26887 C 2696.72 0.825689 -2.64722 0
M  V30 26888 H 2699.67 0.00530944 -1.58699 0
M  V30 26889 H 2699.69 2.32191 -3.01443 0
M  V30 26890 H 2699.2 0.684676 -3.82013 0
M  V30 26891 H 2697.31 2.76543 -2.49709 0
M  V30 26892 H 2697.42 2.15415 -4.2794 0
M  V30 26893 H 2695.78 1.2308 -2.22988 0
M  V30 26894 H 2696.57 0.0698416 -3.43229 0
M  V30 26895 N 2699.01 1.49585 0.49619 0
M  V30 26896 C 2700.24 1.63031 1.27391 0
M  V30 26897 C 2700.65 0.303601 1.86343 0
M  V30 26898 O 2700.01 -0.711517 1.68059 0
M  V30 26899 C 2700.06 2.70273 2.40072 0
M  V30 26900 O 2699.78 3.97799 1.83542 0
M  V30 26901 C 2701.28 2.94468 3.31366 0
M  V30 26902 H 2698.5 0.548716 0.386201 0
M  V30 26903 H 2701.05 1.95649 0.595129 0
M  V30 26904 H 2699.2 2.4042 3.03771 0
M  V30 26905 H 2699.62 4.5691 2.57553 0
M  V30 26906 H 2701.09 3.73228 4.067 0
M  V30 26907 H 2701.57 2.04567 3.8865 0
M  V30 26908 H 2702.17 3.25756 2.73429 0
M  V30 26909 N 2700.49 -0.747586 1.3874 0
M  V30 26910 C 2701.73 -1.5091 1.35477 0
M  V30 26911 C 2702.07 -1.94127 -0.0532752 0
M  V30 26912 O 2701.34 -1.65873 -1.01569 0
M  V30 26913 C 2701.63 -2.75753 2.31587 0
M  V30 26914 C 2701.48 -2.38635 3.81279 0
M  V30 26915 C 2702.8 -3.77802 2.25729 0
M  V30 26916 H 2699.92 -0.547439 0.493437 0
M  V30 26917 H 2702.56 -0.855793 1.69635 0
M  V30 26918 H 2700.71 -3.31497 2.02588 0
M  V30 26919 H 2702.38 -1.88619 4.20976 0
M  V30 26920 H 2700.62 -1.71018 3.98667 0
M  V30 26921 H 2701.29 -3.27982 4.43996 0
M  V30 26922 H 2703.77 -3.31612 2.51342 0
M  V30 26923 H 2702.65 -4.6284 2.95077 0
M  V30 26924 H 2702.91 -4.23821 1.25811 0
M  V30 26925 N 2701.97 -1.23709 -0.97642 0
M  V30 26926 C 2703.19 -1.09836 -1.75339 0
M  V30 26927 C 2703.61 0.349852 -1.8553 0
M  V30 26928 O 2702.97 1.24183 -1.33735 0
M  V30 26929 C 2703.02 -1.72239 -3.1783 0
M  V30 26930 O 2702.74 -3.11397 -3.08162 0
M  V30 26931 C 2704.24 -1.63861 -4.11904 0
M  V30 26932 H 2701.46 -0.384185 -0.55013 0
M  V30 26933 H 2704 -1.6364 -1.22647 0
M  V30 26934 H 2702.16 -1.22459 -3.67536 0
M  V30 26935 H 2702.57 -3.41736 -3.97891 0
M  V30 26936 H 2704.05 -2.1222 -5.09575 0
M  V30 26937 H 2704.52 -0.598169 -4.35108 0
M  V30 26938 H 2705.13 -2.13026 -3.68103 0
M  V30 26939 N 2703.44 1.17579 -1.04943 0
M  V30 26940 C 2704.86 1.69417 -0.784531 0
M  V30 26941 C 2705.21 1.83531 0.693593 0
M  V30 26942 O 2704.33 1.52108 1.53922 0
M  V30 26943 C 2704.93 3.0772 -1.41752 0
M  V30 26944 C 2703.49 3.56735 -1.20072 0
M  V30 26945 C 2702.63 2.33058 -1.50264 0
M  V30 26946 H 2705.58 1.02131 -1.2147 0
M  V30 26947 H 2705.6 3.71439 -0.825447 0
M  V30 26948 H 2705.12 2.97415 -2.4933 0
M  V30 26949 H 2703.22 3.72321 -0.144071 0
M  V30 26950 H 2703.33 4.39645 -1.90392 0
M  V30 26951 H 2701.69 2.37401 -0.92264 0
M  V30 26952 H 2702.48 2.25364 -2.58971 0
M  V30 26953 N 2704.92 0.830104 1.33967 0
M  V30 26954 C 2706.17 0.422226 1.98356 0
M  V30 26955 C 2706.5 -1.01385 1.65635 0
M  V30 26956 O 2705.78 -1.70734 0.931678 0
M  V30 26957 C 2706.06 0.633105 3.54491 0
M  V30 26958 C 2705.91 2.11581 3.9693 0
M  V30 26959 C 2707.23 0.0736357 4.40038 0
M  V30 26960 H 2704.35 0.154883 0.720542 0
M  V30 26961 H 2706.99 1.044 1.58747 0
M  V30 26962 H 2705.14 0.103843 3.88361 0
M  V30 26963 H 2706.81 2.70927 3.73358 0
M  V30 26964 H 2705.06 2.6036 3.4698 0
M  V30 26965 H 2705.73 2.21415 5.05648 0
M  V30 26966 H 2708.2 0.525923 4.12763 0
M  V30 26967 H 2707.08 0.250938 5.48326 0
M  V30 26968 H 2707.34 -1.02195 4.30126 0
M  V30 26969 N 2706.4 -1.46311 0.585725 0
M  V30 26970 C 2707.81 -1.86013 0.159971 0
M  V30 26971 C 2708.16 -1.48891 -1.27772 0
M  V30 26972 O 2707.29 -0.905225 -1.96557 0
M  V30 26973 C 2707.88 -3.37611 0.283544 0
M  V30 26974 C 2706.44 -3.76299 -0.0873595 0
M  V30 26975 C 2705.59 -2.70323 0.618103 0
M  V30 26976 H 2708.54 -1.37423 0.793761 0
M  V30 26977 H 2708.56 -3.77328 -0.490282 0
M  V30 26978 H 2708.07 -3.64599 1.33002 0
M  V30 26979 H 2706.17 -3.54929 -1.13385 0
M  V30 26980 H 2706.29 -4.78215 0.291059 0
M  V30 26981 H 2704.65 -2.54634 0.0580378 0
M  V30 26982 H 2705.43 -3.0015 1.66628 0
M  V30 26983 N 2707.88 -0.323668 -1.54241 0
M  V30 26984 C 2709.1 0.283568 -2.05452 0
M  V30 26985 C 2709.53 1.44995 -1.19826 0
M  V30 26986 O 2708.89 1.8011 -0.20739 0
M  V30 26987 C 2708.94 0.695732 -3.53825 0
M  V30 26988 O 2708.04 1.79809 -3.71137 0
M  V30 26989 H 2707.38 0.0511801 -0.662025 0
M  V30 26990 H 2709.91 -0.472108 -1.99079 0
M  V30 26991 H 2709.92 0.978365 -3.96096 0
M  V30 26992 H 2708.6 -0.15736 -4.15602 0
M  V30 26993 H 2707.17 1.51425 -3.40771 0
M  V30 26994 N 2709.36 1.57515 -0.0518432 0
M  V30 26995 C 2710.29 2.14601 0.920246 0
M  V30 26996 C 2711.27 1.06785 1.32404 0
M  V30 26997 O 2712.45 1.34728 1.39864 0
M  V30 26998 C 2709.58 2.69154 2.19485 0
M  V30 26999 C 2708.54 3.81959 1.93109 0
M  V30 27000 C 2707.86 4.23031 3.2703 0
M  V30 27001 C 2709.16 5.07068 1.25217 0
M  V30 27002 H 2710.86 2.96078 0.444749 0
M  V30 27003 H 2708.4 1.42424 0.212483 0
M  V30 27004 H 2710.36 3.0773 2.87889 0
M  V30 27005 H 2709.08 1.8487 2.69241 0
M  V30 27006 H 2707.74 3.43856 1.27117 0
M  V30 27007 H 2707.39 3.35697 3.74589 0
M  V30 27008 H 2707.09 4.99061 3.1018 0
M  V30 27009 H 2708.61 4.64209 3.96665 0
M  V30 27010 H 2710.03 5.43087 1.83656 0
M  V30 27011 H 2708.42 5.88245 1.18691 0
M  V30 27012 H 2709.49 4.84362 0.228297 0
M  V30 27013 N 2710.84 -0.221546 1.56035 0
M  V30 27014 C 2711.75 -1.29554 1.95583 0
M  V30 27015 C 2712.76 -1.5128 0.859665 0
M  V30 27016 O 2713.94 -1.64411 1.16323 0
M  V30 27017 C 2711 -2.62527 2.26452 0
M  V30 27018 C 2710.06 -2.49104 3.49637 0
M  V30 27019 C 2709.3 -3.75735 3.79023 0
M  V30 27020 O 2709.52 -4.78752 3.10086 0
M  V30 27021 O 2708.45 -3.72847 4.72513 0
M  V30 27022 H 2712.28 -0.989984 2.87111 0
M  V30 27023 H 2709.86 -0.424409 1.43245 0
M  V30 27024 H 2711.75 -3.4106 2.475 0
M  V30 27025 H 2710.42 -2.92764 1.38097 0
M  V30 27026 H 2709.33 -1.68771 3.33867 0
M  V30 27027 H 2710.66 -2.23806 4.38374 0
M  V30 27028 N 2712.31 -1.49846 -0.48825 0
M  V30 27029 C 2713.28 -1.66922 -1.57066 0
M  V30 27030 C 2714.28 -0.540505 -1.51444 0
M  V30 27031 O 2715.47 -0.807215 -1.54369 0
M  V30 27032 C 2712.6 -1.67849 -2.96715 0
M  V30 27033 H 2713.79 -2.63476 -1.43249 0
M  V30 27034 H 2711.34 -1.39069 -0.71341 0
M  V30 27035 H 2712.08 -0.729256 -3.15994 0
M  V30 27036 H 2711.86 -2.49831 -3.02203 0
M  V30 27037 H 2713.35 -1.83073 -3.75332 0
M  V30 27038 N 2713.79 0.740218 -1.39135 0
M  V30 27039 C 2715.2 1.31823 -1.32211 0
M  V30 27040 C 2715.55 1.96194 0.0159574 0
M  V30 27041 O 2714.68 1.9596 0.918077 0
M  V30 27042 C 2715.27 2.39695 -2.3944 0
M  V30 27043 C 2713.83 2.93183 -2.36053 0
M  V30 27044 C 2712.98 1.66697 -2.21602 0
M  V30 27045 H 2715.93 0.538106 -1.49299 0
M  V30 27046 H 2715.95 3.19959 -2.05928 0
M  V30 27047 H 2715.46 1.92815 -3.36814 0
M  V30 27048 H 2713.56 3.44356 -1.42301 0
M  V30 27049 H 2713.68 3.46652 -3.3071 0
M  V30 27050 H 2712.04 1.90834 -1.68684 0
M  V30 27051 H 2712.82 1.21877 -3.20938 0
M  V30 27052 N 2715.27 1.24225 0.969846 0
M  V30 27053 C 2716.49 1.10857 1.75287 0
M  V30 27054 C 2716.92 -0.335046 1.85092 0
M  V30 27055 O 2716.28 -1.24253 1.32026 0
M  V30 27056 C 2716.33 1.75068 3.15252 0
M  V30 27057 O 2715.43 1.01999 3.99587 0
M  V30 27058 H 2714.77 0.387924 0.538898 0
M  V30 27059 H 2717.3 1.6449 1.21672 0
M  V30 27060 H 2717.31 1.80737 3.65784 0
M  V30 27061 H 2715.99 2.80105 3.07431 0
M  V30 27062 H 2714.56 1.041 3.58075 0
M  V30 27063 N 2716.75 -1.1702 1.05565 0
M  V30 27064 C 2717.66 -2.24805 0.670797 0
M  V30 27065 C 2718.67 -1.71219 -0.309835 0
M  V30 27066 O 2719.85 -2.00756 -0.16099 0
M  V30 27067 C 2716.91 -3.46656 0.0553979 0
M  V30 27068 C 2715.98 -4.15312 1.08696 0
M  V30 27069 C 2715.21 -5.31345 0.50083 0
M  V30 27070 O 2715.43 -5.66228 -0.688618 0
M  V30 27071 O 2714.37 -5.89053 1.23693 0
M  V30 27072 H 2718.19 -2.6002 1.56918 0
M  V30 27073 H 2715.78 -1.24393 0.82745 0
M  V30 27074 H 2717.66 -4.20426 -0.286418 0
M  V30 27075 H 2716.33 -3.13231 -0.816583 0
M  V30 27076 H 2715.24 -3.43544 1.48083 0
M  V30 27077 H 2716.57 -4.52773 1.93022 0
M  V30 27078 N 2718.23 -0.837197 -1.33524 0
M  V30 27079 C 2719.16 -0.226619 -2.28077 0
M  V30 27080 C 2720.17 0.59169 -1.51667 0
M  V30 27081 O 2721.36 0.419034 -1.73512 0
M  V30 27082 C 2718.46 0.699722 -3.31598 0
M  V30 27083 C 2717.63 -0.0788836 -4.37329 0
M  V30 27084 C 2716.69 0.770546 -5.20528 0
M  V30 27085 O 2715.72 0.210353 -5.68811 0
M  V30 27086 N 2716.92 2.08816 -5.41642 0
M  V30 27087 H 2719.68 -1.03902 -2.81113 0
M  V30 27088 H 2717.25 -0.695502 -1.462 0
M  V30 27089 H 2719.24 1.27291 -3.8416 0
M  V30 27090 H 2717.81 1.41284 -2.78851 0
M  V30 27091 H 2717.03 -0.833449 -3.85289 0
M  V30 27092 H 2718.32 -0.614327 -5.05078 0
M  V30 27093 H 2717.71 2.56684 -5.04113 0
M  V30 27094 H 2716.27 2.60987 -5.97268 0
M  V30 27095 N 2719.7 1.45999 -0.593476 0
M  V30 27096 C 2720.67 2.28867 0.123497 0
M  V30 27097 C 2721.67 1.3899 0.808604 0
M  V30 27098 O 2722.86 1.61257 0.658916 0
M  V30 27099 C 2719.99 3.19655 1.18464 0
M  V30 27100 H 2721.18 2.93736 -0.604894 0
M  V30 27101 H 2718.73 1.52287 -0.351902 0
M  V30 27102 H 2719.47 2.59555 1.94426 0
M  V30 27103 H 2719.25 3.85842 0.697762 0
M  V30 27104 H 2720.74 3.82 1.68719 0
M  V30 27105 N 2721.18 0.331843 1.54067 0
M  V30 27106 C 2722.59 -0.154507 1.8606 0
M  V30 27107 C 2722.94 -1.5095 1.25334 0
M  V30 27108 O 2722.07 -2.08962 0.562478 0
M  V30 27109 C 2722.66 -0.287133 3.37581 0
M  V30 27110 C 2721.22 -0.717708 3.69494 0
M  V30 27111 C 2720.37 0.155617 2.76863 0
M  V30 27112 H 2723.32 0.551847 1.48796 0
M  V30 27113 H 2723.34 -1.11664 3.63746 0
M  V30 27114 H 2722.85 0.699198 3.8175 0
M  V30 27115 H 2720.96 -1.71349 3.30863 0
M  V30 27116 H 2721.07 -0.515716 4.76316 0
M  V30 27117 H 2719.43 -0.370169 2.51996 0
M  V30 27118 H 2720.22 1.13887 3.23859 0
M  V30 27119 N 2722.66 -1.57485 0.0601958 0
M  V30 27120 C 2723.89 -1.97364 -0.620903 0
M  V30 27121 C 2724.3 -0.938111 -1.63844 0
M  V30 27122 O 2723.66 0.0766257 -1.82339 0
M  V30 27123 C 2723.71 -3.37324 -1.29981 0
M  V30 27124 O 2723.43 -4.36908 -0.323004 0
M  V30 27125 C 2724.93 -3.92012 -2.06982 0
M  V30 27126 H 2722.15 -0.649337 -0.169124 0
M  V30 27127 H 2724.7 -2.04092 0.129167 0
M  V30 27128 H 2722.85 -3.31718 -2.00104 0
M  V30 27129 H 2723.27 -5.18229 -0.808663 0
M  V30 27130 H 2724.74 -4.92197 -2.49893 0
M  V30 27131 H 2725.22 -3.27926 -2.92167 0
M  V30 27132 H 2725.82 -4.00983 -1.4175 0
M  V30 27133 N 2724.14 0.213268 -1.5615 0
M  V30 27134 C 2725.05 1.28515 -1.96268 0
M  V30 27135 C 2726.06 1.50822 -0.867676 0
M  V30 27136 O 2727.24 1.63791 -1.17194 0
M  V30 27137 C 2724.31 2.61323 -2.27841 0
M  V30 27138 C 2723.37 2.47246 -3.50953 0
M  V30 27139 C 2722.6 3.7372 -3.8101 0
M  V30 27140 O 2722.82 4.771 -3.1262 0
M  V30 27141 O 2721.76 3.70336 -4.74484 0
M  V30 27142 H 2725.58 0.974744 -2.87632 0
M  V30 27143 H 2723.17 0.416807 -1.43468 0
M  V30 27144 H 2725.05 3.39742 -2.49305 0
M  V30 27145 H 2723.72 2.92028 -1.39648 0
M  V30 27146 H 2722.63 1.66999 -3.34757 0
M  V30 27147 H 2723.96 2.21478 -4.39554 0
M  V30 27148 N 2725.62 1.50103 0.480296 0
M  V30 27149 C 2726.55 1.64436 1.59666 0
M  V30 27150 C 2727.56 0.526177 1.54062 0
M  V30 27151 O 2728.75 0.79902 1.59618 0
M  V30 27152 C 2725.85 1.60425 2.98525 0
M  V30 27153 C 2725.02 2.88123 3.29095 0
M  V30 27154 C 2724.08 2.76881 4.47463 0
M  V30 27155 O 2723.11 3.50833 4.48224 0
M  V30 27156 N 2724.31 1.89816 5.48589 0
M  V30 27157 H 2727.08 2.60726 1.47791 0
M  V30 27158 H 2724.64 1.47452 0.668554 0
M  V30 27159 H 2726.63 1.5053 3.75663 0
M  V30 27160 H 2725.2 0.719089 3.04217 0
M  V30 27161 H 2724.42 3.12215 2.40656 0
M  V30 27162 H 2725.71 3.7274 3.46327 0
M  V30 27163 H 2725.1 1.29029 5.50788 0
M  V30 27164 H 2723.66 1.8583 6.24748 0
M  V30 27165 N 2727.09 -0.732829 1.39526 0
M  V30 27166 C 2728.51 -1.03866 1.21177 0
M  V30 27167 C 2728.71 -2.01361 0.0748802 0
M  V30 27168 O 2727.77 -2.45918 -0.572767 0
M  V30 27169 C 2729.08 -1.59887 2.5467 0
M  V30 27170 C 2730.63 -1.71957 2.61533 0
M  V30 27171 C 2731.1 -2.31387 3.95252 0
M  V30 27172 N 2732.59 -2.38794 3.96903 0
M  V30 27173 C 2733.33 -2.8572 4.97143 0
M  V30 27174 N 2732.82 -3.32527 6.07781 0
M  V30 27175 N 2734.62 -2.84949 4.84521 0
M  V30 27176 H 2726.77 -0.0862667 2.12225 0
M  V30 27177 H 2729.03 -0.10089 0.942616 0
M  V30 27178 H 2728.74 -0.957151 3.38425 0
M  V30 27179 H 2728.61 -2.58663 2.74542 0
M  V30 27180 H 2731 -2.35251 1.7816 0
M  V30 27181 H 2731.08 -0.718284 2.45508 0
M  V30 27182 H 2730.72 -1.6872 4.79057 0
M  V30 27183 H 2730.65 -3.32197 4.08599 0
M  V30 27184 H 2733.14 -2.05714 3.17002 0
M  V30 27185 H 2733.46 -3.6685 6.80177 0
M  V30 27186 H 2731.8 -3.3053 6.11371 0
M  V30 27187 H 2734.99 -2.47706 3.97189 0
M  V30 27188 H 2735.17 -3.21206 5.62789 0
M  V30 27189 N 2728.57 -1.24737 -0.963244 0
M  V30 27190 C 2729.98 -1.0821 -1.52143 0
M  V30 27191 C 2730.33 0.345027 -1.93142 0
M  V30 27192 O 2729.46 1.23396 -1.77771 0
M  V30 27193 C 2730.05 -1.95813 -2.76483 0
M  V30 27194 C 2728.61 -1.83496 -3.28643 0
M  V30 27195 C 2727.76 -1.9048 -2.01526 0
M  V30 27196 H 2730.71 -1.38149 -0.781059 0
M  V30 27197 H 2730.73 -1.49304 -3.49984 0
M  V30 27198 H 2730.24 -2.99674 -2.46612 0
M  V30 27199 H 2728.35 -0.824851 -3.63355 0
M  V30 27200 H 2728.46 -2.67836 -3.97242 0
M  V30 27201 H 2726.82 -1.34261 -2.16439 0
M  V30 27202 H 2727.61 -2.95929 -1.74014 0
M  V30 27203 N 2730.05 1.16459 -1.06184 0
M  V30 27204 C 2731.3 1.86593 -0.776359 0
M  V30 27205 C 2731.62 1.82034 0.699178 0
M  V30 27206 O 2730.89 1.25313 1.50577 0
M  V30 27207 H 2729.47 0.690827 -0.284196 0
M  V30 27208 H 2732.13 1.41233 -1.34311 0
M  V30 27209 H 2731.23 2.92062 -1.10027 0
M  V30 27210 N 2731.53 0.844266 1.33079 0
M  V30 27211 C 2732.77 0.44324 1.97897 0
M  V30 27212 C 2733.11 -0.996221 1.66701 0
M  V30 27213 O 2732.38 -1.69736 0.949734 0
M  V30 27214 C 2732.67 0.670668 3.53799 0
M  V30 27215 C 2732.52 2.15779 3.94664 0
M  V30 27216 C 2733.84 0.120304 4.39936 0
M  V30 27217 H 2730.96 0.162517 0.718858 0
M  V30 27218 H 2733.6 1.06078 1.57631 0
M  V30 27219 H 2731.75 0.145028 3.88229 0
M  V30 27220 H 2733.42 2.74871 3.70464 0
M  V30 27221 H 2731.66 2.64026 3.44199 0
M  V30 27222 H 2732.33 2.26765 5.03271 0
M  V30 27223 H 2734.81 0.569672 4.12182 0
M  V30 27224 H 2733.69 0.309081 5.48029 0
M  V30 27225 H 2733.95 -0.976271 4.31186 0
M  V30 27226 N 2733.01 -1.45682 0.60121 0
M  V30 27227 C 2733.94 -2.28645 -0.159405 0
M  V30 27228 C 2734.95 -1.39584 -0.837858 0
M  V30 27229 O 2736.14 -1.64017 -0.704316 0
M  V30 27230 C 2733.24 -3.15149 -1.24636 0
M  V30 27231 C 2732.41 -4.32449 -0.656258 0
M  V30 27232 C 2731.47 -5.0021 -1.63328 0
M  V30 27233 O 2730.5 -5.57211 -1.16207 0
M  V30 27234 N 2731.7 -4.9891 -2.96764 0
M  V30 27235 H 2734.47 -2.94564 0.552452 0
M  V30 27236 H 2732.03 -1.55799 0.44025 0
M  V30 27237 H 2734.02 -3.57346 -1.89964 0
M  V30 27238 H 2732.59 -2.51182 -1.86082 0
M  V30 27239 H 2731.81 -3.93812 0.174949 0
M  V30 27240 H 2733.1 -5.08224 -0.242122 0
M  V30 27241 H 2732.49 -4.53879 -3.37654 0
M  V30 27242 H 2731.05 -5.4499 -3.57532 0
M  V30 27243 N 2734.48 -0.340009 -1.53889 0
M  V30 27244 C 2735.39 0.526948 -2.28605 0
M  V30 27245 C 2736.41 1.115 -1.3358 0
M  V30 27246 O 2737.59 1.13145 -1.66614 0
M  V30 27247 C 2734.65 1.66384 -3.04167 0
M  V30 27248 C 2733.71 1.10592 -4.14811 0
M  V30 27249 C 2732.95 2.18863 -4.86759 0
M  V30 27250 O 2733.17 3.39518 -4.58349 0
M  V30 27251 O 2732.1 1.83356 -5.73292 0
M  V30 27252 H 2735.93 -0.080324 -3.03594 0
M  V30 27253 H 2733.51 -0.105168 -1.49029 0
M  V30 27254 H 2735.4 2.32538 -3.51431 0
M  V30 27255 H 2734.07 2.25699 -2.32038 0
M  V30 27256 H 2732.98 0.409001 -3.71857 0
M  V30 27257 H 2734.31 0.557685 -4.8903 0
M  V30 27258 N 2735.96 1.57451 -0.0685468 0
M  V30 27259 C 2737.2 1.95241 0.605004 0
M  V30 27260 C 2737.57 0.947845 1.66973 0
M  V30 27261 O 2738.77 1.21329 2.3986 0
M  V30 27262 C 2737.04 3.37709 1.16993 0
M  V30 27263 S 2738.6 3.97473 1.85906 0
M  V30 27264 H 2735.42 0.682819 0.198191 0
M  V30 27265 H 2738.02 1.94986 -0.141629 0
M  V30 27266 H 2736.72 4.08608 0.383133 0
M  V30 27267 H 2736.25 3.41499 1.95299 0
M  V30 27268 H 2738.27 3.84112 3.14121 0
M  V30 27269 N 2737.44 -0.204984 1.56261 0
M  V30 27270 C 2738.67 -0.941986 1.83875 0
M  V30 27271 C 2739.08 -1.77771 0.647626 0
M  V30 27272 O 2738.42 -1.79445 -0.393067 0
M  V30 27273 C 2738.48 -1.89569 3.05457 0
M  V30 27274 C 2738.15 -1.24289 4.39774 0
M  V30 27275 C 2739.15 -0.624633 5.16134 0
M  V30 27276 C 2736.83 -1.2497 4.86506 0
M  V30 27277 C 2738.82 -0.0218996 6.37396 0
M  V30 27278 C 2736.51 -0.643125 6.07706 0
M  V30 27279 C 2737.51 -0.0302963 6.82993 0
M  V30 27280 O 2737.2 0.566795 8.01899 0
M  V30 27281 H 2736.93 -0.280843 0.614901 0
M  V30 27282 H 2739.48 -0.220249 2.04216 0
M  V30 27283 H 2737.71 -2.65686 2.80976 0
M  V30 27284 H 2739.4 -2.49964 3.19801 0
M  V30 27285 H 2740.17 -0.611581 4.81129 0
M  V30 27286 H 2736.05 -1.71609 4.27868 0
M  V30 27287 H 2739.59 0.457048 6.96101 0
M  V30 27288 H 2735.49 -0.653646 6.42182 0
M  V30 27289 H 2736.26 0.462731 8.17191 0
M  V30 27290 N 2738.92 -1.50356 -0.472329 0
M  V30 27291 C 2739.87 -1.65517 -1.56806 0
M  V30 27292 C 2740.85 -0.509827 -1.52609 0
M  V30 27293 O 2742.05 -0.764173 -1.59654 0
M  V30 27294 C 2739.17 -1.75152 -2.95257 0
M  V30 27295 C 2738.26 -2.95358 -3.04343 0
M  V30 27296 N 2738.65 -4.19053 -2.83245 0
M  V30 27297 C 2736.95 -2.9389 -3.35477 0
M  V30 27298 C 2737.65 -5.00009 -2.97265 0
M  V30 27299 N 2736.63 -4.33939 -3.2741 0
M  V30 27300 H 2740.43 -2.58849 -1.39193 0
M  V30 27301 H 2737.94 -1.47523 -0.679034 0
M  V30 27302 H 2739.94 -1.84116 -3.74041 0
M  V30 27303 H 2738.6 -0.829772 -3.13919 0
M  V30 27304 H 2739.61 -4.48571 -2.58852 0
M  V30 27305 H 2736.29 -2.1121 -3.60134 0
M  V30 27306 H 2737.68 -6.08366 -2.85203 0
M  V30 27307 N 2740.4 0.725419 -1.39912 0
M  V30 27308 C 2741.65 1.48222 -1.37385 0
M  V30 27309 C 2741.97 1.94982 0.0263765 0
M  V30 27310 O 2741.24 1.69661 0.979378 0
M  V30 27311 H 2739.82 0.549883 -0.505606 0
M  V30 27312 H 2742.48 0.860577 -1.74872 0
M  V30 27313 H 2741.57 2.35977 -2.04258 0
M  V30 27314 N 2741.88 1.25246 0.956615 0
M  V30 27315 C 2742.82 1.05244 2.07428 0
M  V30 27316 C 2743.82 -0.0160427 1.69392 0
M  V30 27317 O 2745.02 0.139413 1.79459 0
M  V30 27318 H 2741.4 0.323385 0.678915 0
M  V30 27319 H 2743.37 1.99999 2.21456 0
M  V30 27320 C 2742.12 0.685762 3.4087 0
M  V30 27321 H 2741.44 1.49974 3.70605 0
M  V30 27322 H 2742.88 0.585488 4.19938 0
M  V30 27323 C 2741.34 -0.608024 3.31368 0
M  V30 27324 O 2741.87 -1.65069 3.66217 0
M  V30 27325 N 2740.08 -0.592905 2.84487 0
M  V30 27326 H 2739.62 0.255965 2.56325 0
M  V30 27327 H 2739.58 -1.45872 2.78512 0
M  V30 27328 N 2743.35 -1.15894 1.068 0
M  V30 27329 C 2744.6 -1.86179 0.786243 0
M  V30 27330 C 2744.92 -1.82403 -0.689515 0
M  V30 27331 O 2744.19 -1.2611 -1.49911 0
M  V30 27332 H 2742.77 -0.68931 0.287856 0
M  V30 27333 H 2745.43 -1.40518 1.35058 0
M  V30 27334 H 2744.53 -2.91475 1.11575 0
M  V30 27335 N 2744.83 -0.851312 -1.32629 0
M  V30 27336 C 2745.76 -0.250797 -2.27824 0
M  V30 27337 C 2746.78 0.575571 -1.52286 0
M  V30 27338 O 2747.97 0.400607 -1.73947 0
M  V30 27339 C 2745.07 0.664512 -3.32321 0
M  V30 27340 C 2744.24 -0.125264 -4.37221 0
M  V30 27341 C 2743.3 0.715293 -5.21316 0
M  V30 27342 O 2742.32 0.150011 -5.69002 0
M  V30 27343 N 2743.53 2.03059 -5.43827 0
M  V30 27344 H 2746.29 -1.06878 -2.79995 0
M  V30 27345 H 2743.85 -0.710969 -1.45454 0
M  V30 27346 H 2745.84 1.2321 -3.85489 0
M  V30 27347 H 2744.41 1.38318 -2.80334 0
M  V30 27348 H 2743.63 -0.874267 -3.84383 0
M  V30 27349 H 2744.92 -0.667863 -5.04398 0
M  V30 27350 H 2744.32 2.51323 -5.06807 0
M  V30 27351 H 2742.88 2.54638 -6.00002 0
M  V30 27352 N 2746.31 1.45361 -0.608928 0
M  V30 27353 C 2747.53 2.07112 -0.109246 0
M  V30 27354 C 2747.96 1.45035 1.19776 0
M  V30 27355 O 2747.32 0.543558 1.7296 0
M  V30 27356 C 2747.37 3.60597 0.0155111 0
M  V30 27357 O 2746.47 3.98401 1.06539 0
M  V30 27358 H 2745.81 0.659788 -0.0746735 0
M  V30 27359 H 2748.34 1.86592 -0.839316 0
M  V30 27360 H 2748.35 4.07442 0.213293 0
M  V30 27361 H 2747.03 4.05165 -0.938836 0
M  V30 27362 H 2745.6 3.63224 0.84396 0
M  V30 27363 N 2747.79 0.348166 1.53706 0
M  V30 27364 C 2749.02 -0.247828 2.05108 0
M  V30 27365 C 2749.43 -1.44397 1.22255 0
M  V30 27366 O 2748.77 -1.81965 0.251885 0
M  V30 27367 C 2748.83 -0.722125 3.52173 0
M  V30 27368 C 2748.49 0.354982 4.55619 0
M  V30 27369 C 2749.49 1.1992 5.05881 0
M  V30 27370 C 2747.18 0.510233 4.99702 0
M  V30 27371 C 2749.17 2.18416 5.9881 0
M  V30 27372 C 2746.86 1.49859 5.9244 0
M  V30 27373 C 2747.86 2.334 6.41883 0
M  V30 27374 O 2747.54 3.30552 7.32796 0
M  V30 27375 H 2747.28 -0.0508177 0.674087 0
M  V30 27376 H 2749.83 0.499715 1.99229 0
M  V30 27377 H 2748.06 -1.52099 3.55532 0
M  V30 27378 H 2749.75 -1.23918 3.86522 0
M  V30 27379 H 2750.51 1.09036 4.72585 0
M  V30 27380 H 2746.39 -0.130193 4.60816 0
M  V30 27381 H 2749.94 2.8366 6.37325 0
M  V30 27382 H 2745.83 1.60797 6.25152 0
M  V30 27383 H 2746.6 3.26078 7.50743 0
M  V30 27384 N 2749.27 -1.57412 0.0768958 0
M  V30 27385 C 2750.68 -1.57129 -0.279745 0
M  V30 27386 C 2750.88 -1.08669 -1.69686 0
M  V30 27387 O 2749.94 -0.754886 -2.40952 0
M  V30 27388 C 2751.25 -3.00581 -0.0847526 0
M  V30 27389 C 2752.8 -3.12621 -0.153899 0
M  V30 27390 C 2753.27 -4.57998 0.0128751 0
M  V30 27391 N 2754.76 -4.6318 -0.0425621 0
M  V30 27392 C 2755.5 -5.73366 0.06199 0
M  V30 27393 N 2755 -6.92449 0.220351 0
M  V30 27394 N 2756.79 -5.621 0.00455952 0
M  V30 27395 H 2748.94 -1.87226 1.003 0
M  V30 27396 H 2751.2 -0.863347 0.391581 0
M  V30 27397 H 2750.91 -3.40166 0.89331 0
M  V30 27398 H 2750.78 -3.67844 -0.834896 0
M  V30 27399 H 2753.17 -2.72919 -1.12245 0
M  V30 27400 H 2753.25 -2.47986 0.627433 0
M  V30 27401 H 2752.89 -4.98391 0.978216 0
M  V30 27402 H 2752.82 -5.20672 -0.787924 0
M  V30 27403 H 2755.32 -3.77548 -0.16316 0
M  V30 27404 H 2755.63 -7.72248 0.292135 0
M  V30 27405 H 2753.97 -6.94529 0.25578 0
M  V30 27406 H 2757.16 -4.67952 -0.117897 0
M  V30 27407 H 2757.34 -6.47938 0.0894935 0
M  V30 27408 N 2750.74 0.196695 -1.56368 0
M  V30 27409 C 2751.99 0.915522 -1.80174 0
M  V30 27410 C 2752.31 1.83859 -0.649682 0
M  V30 27411 O 2751.58 1.93065 0.332077 0
M  V30 27412 H 2750.16 0.341055 -0.664598 0
M  V30 27413 H 2752.83 0.202588 -1.93844 0
M  V30 27414 H 2751.92 1.50759 -2.73273 0
M  V30 27415 N 2752.22 1.50604 0.464349 0
M  V30 27416 C 2753.45 1.65697 1.23904 0
M  V30 27417 C 2753.87 0.343059 1.85657 0
M  V30 27418 O 2753.22 -0.675709 1.6953 0
M  V30 27419 C 2753.27 2.75305 2.34285 0
M  V30 27420 O 2752.99 4.01602 1.75063 0
M  V30 27421 C 2754.5 3.0143 3.25046 0
M  V30 27422 H 2751.72 0.556785 0.374475 0
M  V30 27423 H 2754.26 1.96867 0.553495 0
M  V30 27424 H 2752.41 2.4681 2.98603 0
M  V30 27425 H 2752.83 4.6227 2.47804 0
M  V30 27426 H 2754.3 3.8177 3.98692 0
M  V30 27427 H 2754.78 2.12765 3.84224 0
M  V30 27428 H 2755.39 3.31482 2.66458 0
M  V30 27429 N 2753.7 -0.717989 1.40295 0
M  V30 27430 C 2754.93 -1.50493 1.41547 0
M  V30 27431 C 2755.34 -1.89196 0.012821 0
M  V30 27432 O 2754.68 -1.55814 -0.973023 0
M  V30 27433 C 2754.74 -2.81163 2.24026 0
M  V30 27434 C 2754.41 -2.64796 3.72468 0
M  V30 27435 C 2755.4 -2.32214 4.65159 0
M  V30 27436 C 2753.09 -2.81136 4.16255 0
M  V30 27437 C 2755.08 -2.16178 5.99621 0
M  V30 27438 C 2752.77 -2.64717 5.50788 0
M  V30 27439 C 2753.77 -2.32286 6.42287 0
M  V30 27440 O 2753.46 -2.1599 7.74341 0
M  V30 27441 H 2753.19 -0.471082 0.484827 0
M  V30 27442 H 2755.74 -0.893456 1.8495 0
M  V30 27443 H 2753.97 -3.44633 1.75399 0
M  V30 27444 H 2755.66 -3.42867 2.17249 0
M  V30 27445 H 2756.43 -2.19226 4.32626 0
M  V30 27446 H 2752.31 -3.05367 3.45358 0
M  V30 27447 H 2755.85 -1.90787 6.71004 0
M  V30 27448 H 2751.75 -2.77289 5.82907 0
M  V30 27449 H 2752.52 -2.30928 7.85248 0
M  V30 27450 N 2755.18 -1.25752 -0.94996 0
M  V30 27451 C 2756.4 -1.13631 -1.73501 0
M  V30 27452 C 2756.83 0.305557 -1.85602 0
M  V30 27453 O 2756.19 1.22137 -1.33986 0
M  V30 27454 C 2756.23 -1.80061 -3.12427 0
M  V30 27455 O 2755.34 -1.08343 -3.97914 0
M  V30 27456 H 2754.68 -0.396449 -0.532658 0
M  V30 27457 H 2757.21 -1.66405 -1.1904 0
M  V30 27458 H 2757.22 -1.86533 -3.62863 0
M  V30 27459 H 2755.89 -2.84961 -3.02936 0
M  V30 27460 H 2754.47 -1.09784 -3.56373 0
M  V30 27461 N 2756.66 1.15326 -1.07413 0
M  V30 27462 C 2757.88 1.90008 -0.818816 0
M  V30 27463 C 2758.3 1.78048 0.628041 0
M  V30 27464 O 2757.66 1.13285 1.43083 0
M  V30 27465 C 2757.71 3.40334 -1.2188 0
M  V30 27466 O 2757.43 3.5195 -2.60889 0
M  V30 27467 C 2758.93 4.32038 -0.992872 0
M  V30 27468 H 2756.15 0.602175 -0.296017 0
M  V30 27469 H 2758.69 1.46115 -1.43076 0
M  V30 27470 H 2756.85 3.81888 -0.651171 0
M  V30 27471 H 2757.26 4.4525 -2.77223 0
M  V30 27472 H 2758.74 5.3593 -1.32225 0
M  V30 27473 H 2759.21 4.39143 0.0707559 0
M  V30 27474 H 2759.82 3.96228 -1.54544 0
M  V30 27475 N 2758.13 0.858334 1.32176 0
M  V30 27476 C 2759.36 0.477617 2.01312 0
M  V30 27477 C 2759.78 -0.926707 1.64492 0
M  V30 27478 O 2759.13 -1.6053 0.868124 0
M  V30 27479 C 2759.19 0.6114 3.56292 0
M  V30 27480 O 2758.91 1.96041 3.9179 0
M  V30 27481 C 2760.41 0.230171 4.42702 0
M  V30 27482 H 2757.63 0.187333 0.644319 0
M  V30 27483 H 2760.17 1.15629 1.68672 0
M  V30 27484 H 2758.33 -0.0195813 3.87395 0
M  V30 27485 H 2758.74 1.95982 4.86509 0
M  V30 27486 H 2760.21 0.37477 5.50726 0
M  V30 27487 H 2760.69 -0.829704 4.31292 0
M  V30 27488 H 2761.3 0.836375 4.16995 0
M  V30 27489 N 2759.61 -1.45036 0.616628 0
M  V30 27490 C 2760.86 -2.02471 0.115537 0
M  V30 27491 C 2761.19 -1.48282 -1.25404 0
M  V30 27492 O 2760.47 -0.661083 -1.82921 0
M  V30 27493 C 2760.75 -3.59996 0.0864221 0
M  V30 27494 C 2760.6 -4.24499 1.4873 0
M  V30 27495 C 2761.92 -4.36036 -0.596685 0
M  V30 27496 H 2759.04 -0.735718 0.0434591 0
M  V30 27497 H 2761.68 -1.72782 0.79033 0
M  V30 27498 H 2759.83 -3.8542 -0.488209 0
M  V30 27499 H 2761.5 -4.1023 2.10971 0
M  V30 27500 H 2759.75 -3.82551 2.04541 0
M  V30 27501 H 2760.42 -5.33447 1.41909 0
M  V30 27502 H 2762.89 -4.15959 -0.108166 0
M  V30 27503 H 2761.77 -5.45761 -0.586193 0
M  V30 27504 H 2762.03 -4.09572 -1.66444 0
M  V30 27505 N 2761.09 -0.356312 -1.53519 0
M  V30 27506 C 2762.32 0.237291 -2.05535 0
M  V30 27507 C 2762.73 1.43197 -1.23045 0
M  V30 27508 O 2762.09 1.80509 -0.268852 0
M  V30 27509 C 2762.14 0.639871 -3.55792 0
M  V30 27510 O 2761.86 -0.50731 -4.35153 0
M  V30 27511 C 2763.36 1.29284 -4.24029 0
M  V30 27512 H 2760.58 0.0435454 -0.669586 0
M  V30 27513 H 2763.13 -0.511998 -1.97987 0
M  V30 27514 H 2761.28 1.33909 -3.63521 0
M  V30 27515 H 2761.7 -0.183842 -5.24178 0
M  V30 27516 H 2763.17 1.52517 -5.30511 0
M  V30 27517 H 2763.65 2.25033 -3.7717 0
M  V30 27518 H 2764.25 0.635316 -4.20528 0
M  V30 27519 N 2762.57 1.57369 -0.0852427 0
M  V30 27520 C 2763.82 1.9361 0.579624 0
M  V30 27521 C 2764.14 0.967072 1.6933 0
M  V30 27522 O 2763.41 0.0174559 1.95892 0
M  V30 27523 H 2761.99 0.714756 0.217101 0
M  V30 27524 H 2764.65 1.9435 -0.14626 0
M  V30 27525 H 2763.75 2.95773 0.996224 0
M  V30 27526 N 2764.05 -0.188399 1.5647 0
M  V30 27527 C 2765.46 -0.539505 1.50205 0
M  V30 27528 C 2765.66 -1.85518 0.786472 0
M  V30 27529 O 2764.72 -2.50204 0.339758 0
M  V30 27530 C 2766.03 -0.588051 2.94894 0
M  V30 27531 C 2767.58 -0.676426 3.05603 0
M  V30 27532 C 2768.05 -0.756022 4.51717 0
M  V30 27533 N 2769.55 -0.819371 4.55895 0
M  V30 27534 C 2770.28 -0.90124 5.66273 0
M  V30 27535 N 2769.78 -0.944998 6.86325 0
M  V30 27536 N 2771.57 -0.938946 5.54202 0
M  V30 27537 H 2763.72 0.674529 2.01405 0
M  V30 27538 H 2765.98 0.241119 0.916824 0
M  V30 27539 H 2765.69 0.309695 3.50334 0
M  V30 27540 H 2765.56 -1.44045 3.48613 0
M  V30 27541 H 2767.95 -1.5646 2.50208 0
M  V30 27542 H 2768.03 0.202307 2.54999 0
M  V30 27543 H 2767.68 0.127829 5.07739 0
M  V30 27544 H 2767.61 -1.65065 5.00061 0
M  V30 27545 H 2770.1 -0.794529 3.69453 0
M  V30 27546 H 2770.41 -1.00817 7.66196 0
M  V30 27547 H 2768.75 -0.913562 6.8897 0
M  V30 27548 H 2771.95 -0.901644 4.59334 0
M  V30 27549 H 2772.12 -0.99929 6.40249 0
M  V30 27550 N 2765.53 -1.50848 -0.456355 0
M  V30 27551 C 2766.75 -1.66351 -1.23024 0
M  V30 27552 C 2767.17 -0.3529 -1.85473 0
M  V30 27553 O 2766.53 0.666709 -1.69886 0
M  V30 27554 C 2766.58 -2.76543 -2.32822 0
M  V30 27555 O 2766.3 -4.02525 -1.72931 0
M  V30 27556 C 2767.8 -3.0315 -3.23443 0
M  V30 27557 H 2765.02 -0.558763 -0.371517 0
M  V30 27558 H 2767.56 -1.97158 -0.543047 0
M  V30 27559 H 2765.72 -2.4839 -2.9729 0
M  V30 27560 H 2766.13 -4.63578 -2.45349 0
M  V30 27561 H 2767.61 -3.83879 -3.96662 0
M  V30 27562 H 2768.08 -2.148 -3.8309 0
M  V30 27563 H 2768.69 -3.32891 -2.64696 0
M  V30 27564 N 2767 0.710538 -1.40674 0
M  V30 27565 C 2768.24 1.48286 -1.40679 0
M  V30 27566 C 2768.61 1.91998 -0.00975305 0
M  V30 27567 O 2769.81 2.68552 0.115334 0
M  V30 27568 C 2768.08 2.67258 -2.37293 0
M  V30 27569 S 2769.64 3.56599 -2.557 0
M  V30 27570 H 2766.46 0.506918 -0.498553 0
M  V30 27571 H 2769.06 0.830441 -1.76986 0
M  V30 27572 H 2767.76 2.33324 -3.37621 0
M  V30 27573 H 2767.29 3.37406 -2.02288 0
M  V30 27574 H 2769.31 4.61885 -1.81319 0
M  V30 27575 N 2768.48 1.26254 0.943277 0
M  V30 27576 C 2769.41 1.0342 2.04541 0
M  V30 27577 C 2770.43 -0.00466249 1.62799 0
M  V30 27578 O 2771.62 0.235177 1.76944 0
M  V30 27579 C 2768.72 0.54373 3.3451 0
M  V30 27580 C 2767.89 1.65135 4.0503 0
M  V30 27581 C 2766.95 1.15929 5.13271 0
M  V30 27582 O 2765.97 1.85595 5.38092 0
M  V30 27583 N 2767.18 0.00659483 5.805 0
M  V30 27584 H 2769.94 1.98323 2.24695 0
M  V30 27585 H 2767.5 1.17612 1.11262 0
M  V30 27586 H 2769.49 0.198774 4.04212 0
M  V30 27587 H 2768.06 -0.311656 3.11043 0
M  V30 27588 H 2767.28 2.16735 3.29271 0
M  V30 27589 H 2768.57 2.39516 4.48898 0
M  V30 27590 H 2767.97 -0.575248 5.62768 0
M  V30 27591 H 2766.53 -0.279302 6.51201 0
M  V30 27592 N 2769.96 -1.14755 1.08024 0
M  V30 27593 C 2770.92 -2.17909 0.710519 0
M  V30 27594 C 2771.92 -1.58802 -0.252703 0
M  V30 27595 O 2773.11 -1.74169 -0.0327609 0
M  V30 27596 C 2770.24 -3.40866 0.0483802 0
M  V30 27597 H 2771.44 -2.52131 1.62389 0
M  V30 27598 H 2768.99 -1.29335 0.877618 0
M  V30 27599 H 2769.73 -3.12219 -0.876904 0
M  V30 27600 H 2769.51 -3.8503 0.741256 0
M  V30 27601 H 2771 -4.17143 -0.195397 0
M  V30 27602 N 2771.44 -0.865331 -1.31719 0
M  V30 27603 C 2772.68 -0.483979 -1.97558 0
M  V30 27604 C 2773.04 0.95224 -1.67183 0
M  V30 27605 O 2772.33 1.66079 -0.955421 0
M  V30 27606 C 2772.53 -0.672345 -3.51019 0
M  V30 27607 C 2772.35 -2.12532 -3.96308 0
M  V30 27608 C 2771.12 -2.76599 -4.22873 0
M  V30 27609 C 2773.32 -3.09709 -4.10591 0
M  V30 27610 N 2771.3 -4.12696 -4.54483 0
M  V30 27611 C 2772.68 -4.30824 -4.4586 0
M  V30 27612 C 2774.73 -3.05762 -3.92956 0
M  V30 27613 C 2773.43 -5.48504 -4.65335 0
M  V30 27614 C 2775.46 -4.22696 -4.13621 0
M  V30 27615 C 2774.82 -5.42571 -4.49217 0
M  V30 27616 H 2770.92 -0.226048 -0.748616 0
M  V30 27617 H 2773.5 -1.11896 -1.59334 0
M  V30 27618 H 2771.68 -0.0669907 -3.88342 0
M  V30 27619 H 2773.41 -0.259836 -4.03865 0
M  V30 27620 H 2770.16 -2.27575 -4.15339 0
M  V30 27621 H 2770.59 -4.82929 -4.74456 0
M  V30 27622 H 2775.23 -2.14195 -3.64528 0
M  V30 27623 H 2772.95 -6.40592 -4.92612 0
M  V30 27624 H 2776.53 -4.21089 -4.01467 0
M  V30 27625 H 2775.41 -6.31548 -4.64884 0
M  V30 27626 N 2772.92 1.44707 -0.624311 0
M  V30 27627 C 2774.14 2.06985 -0.131207 0
M  V30 27628 C 2774.57 1.46298 1.18231 0
M  V30 27629 O 2773.92 0.561872 1.72374 0
M  V30 27630 C 2773.97 3.60593 -0.0227358 0
M  V30 27631 O 2773.08 3.99508 1.02307 0
M  V30 27632 H 2772.42 0.658959 -0.0816672 0
M  V30 27633 H 2774.95 1.85691 -0.85906 0
M  V30 27634 H 2774.96 4.07645 0.170066 0
M  V30 27635 H 2773.63 4.04146 -0.981757 0
M  V30 27636 H 2772.21 3.64099 0.805388 0
M  V30 27637 N 2774.39 0.364449 1.53328 0
M  V30 27638 C 2775.62 -0.228997 2.06132 0
M  V30 27639 C 2776.04 -1.41767 1.23628 0
M  V30 27640 O 2775.4 -1.79497 0.25507 0
M  V30 27641 C 2775.45 -0.601678 3.55545 0
M  V30 27642 O 2774.55 -1.69905 3.75774 0
M  V30 27643 H 2773.89 -0.0336097 0.663149 0
M  V30 27644 H 2776.42 0.524724 1.97757 0
M  V30 27645 H 2776.43 -0.873003 3.98551 0
M  V30 27646 H 2775.11 0.267494 4.15039 0
M  V30 27647 H 2773.69 -1.42337 3.44666 0
M  V30 27648 N 2775.87 -1.57322 0.0935872 0
M  V30 27649 C 2776.8 -2.09597 -0.902468 0
M  V30 27650 C 2777.78 -1.00617 -1.2773 0
M  V30 27651 O 2778.97 -1.28104 -1.38281 0
M  V30 27652 C 2776.09 -2.5717 -2.20412 0
M  V30 27653 C 2775.14 -3.77793 -1.97925 0
M  V30 27654 S 2775.97 -5.21449 -1.21864 0
M  V30 27655 C 2777.13 -5.72371 -2.53263 0
M  V30 27656 H 2777.36 -2.93755 -0.457745 0
M  V30 27657 H 2774.89 -1.53936 -0.119667 0
M  V30 27658 H 2776.85 -2.85237 -2.95212 0
M  V30 27659 H 2775.51 -1.7324 -2.62005 0
M  V30 27660 H 2774.71 -4.09143 -2.94309 0
M  V30 27661 H 2774.31 -3.50212 -1.31254 0
M  V30 27662 H 2776.6 -5.80546 -3.49246 0
M  V30 27663 H 2777.54 -6.709 -2.26493 0
M  V30 27664 H 2777.95 -5.00296 -2.61466 0
M  V30 27665 N 2777.35 0.180099 -1.56568 0
M  V30 27666 C 2778.58 0.913939 -1.8562 0
M  V30 27667 C 2778.99 1.76209 -0.677923 0
M  V30 27668 O 2778.35 1.79051 0.35314 0
M  V30 27669 C 2778.4 1.79787 -3.13622 0
M  V30 27670 O 2778.12 0.983945 -4.26908 0
M  V30 27671 C 2779.62 2.64212 -3.55959 0
M  V30 27672 H 2776.84 0.265944 -0.616048 0
M  V30 27673 H 2779.39 0.182836 -2.03681 0
M  V30 27674 H 2777.54 2.48242 -2.97413 0
M  V30 27675 H 2777.96 1.58767 -4.99893 0
M  V30 27676 H 2779.43 3.21865 -4.48449 0
M  V30 27677 H 2779.91 3.38656 -2.79659 0
M  V30 27678 H 2780.51 2.01104 -3.74749 0
M  V30 27679 N 2778.83 1.51088 0.448349 0
M  V30 27680 C 2780.24 1.55812 1.02857 0
M  V30 27681 C 2780.59 0.375023 1.92582 0
M  V30 27682 O 2779.71 -0.509496 2.10317 0
M  V30 27683 C 2780.31 2.82374 1.87218 0
M  V30 27684 C 2778.87 2.89704 2.40309 0
M  V30 27685 C 2778.02 2.50357 1.19233 0
M  V30 27686 H 2780.97 1.57024 0.230047 0
M  V30 27687 H 2780.99 2.65514 2.72548 0
M  V30 27688 H 2780.5 3.68463 1.21888 0
M  V30 27689 H 2778.6 2.0802 3.09125 0
M  V30 27690 H 2778.71 3.93113 2.7386 0
M  V30 27691 H 2777.08 2.03305 1.53424 0
M  V30 27692 H 2777.86 3.38779 0.555308 0
M  V30 27693 N 2780.31 -0.703068 1.41049 0
M  V30 27694 C 2781.26 -1.80901 1.38777 0
M  V30 27695 C 2782.24 -1.58731 0.263303 0
M  V30 27696 O 2783.43 -1.69691 0.503392 0
M  V30 27697 C 2780.56 -3.19143 1.26502 0
M  V30 27698 C 2779.65 -3.47033 2.43781 0
M  V30 27699 N 2780.04 -3.45665 3.69255 0
M  V30 27700 C 2778.34 -3.77548 2.37431 0
M  V30 27701 C 2779.04 -3.7225 4.46995 0
M  V30 27702 N 2778.01 -3.91622 3.77005 0
M  V30 27703 H 2781.82 -1.78195 2.33717 0
M  V30 27704 H 2779.33 -0.902738 1.34998 0
M  V30 27705 H 2781.33 -3.98356 1.22957 0
M  V30 27706 H 2779.99 -3.23065 0.325396 0
M  V30 27707 H 2781 -3.26221 4.02244 0
M  V30 27708 H 2777.67 -3.88886 1.51902 0
M  V30 27709 H 2779.06 -3.77392 5.559 0
M  V30 27710 N 2781.78 -1.26752 -0.936569 0
M  V30 27711 C 2783.01 -1.15465 -1.72286 0
M  V30 27712 C 2783.43 0.285855 -1.85915 0
M  V30 27713 O 2782.79 1.20709 -1.35274 0
M  V30 27714 C 2782.84 -1.83364 -3.10499 0
M  V30 27715 O 2781.94 -1.12557 -3.96743 0
M  V30 27716 H 2781.29 -0.402076 -0.528423 0
M  V30 27717 H 2783.82 -1.67658 -1.17269 0
M  V30 27718 H 2783.83 -1.90372 -3.60864 0
M  V30 27719 H 2782.5 -2.88158 -2.99896 0
M  V30 27720 H 2781.08 -1.13557 -3.55189 0
M  V30 27721 N 2783.26 1.1418 -1.08631 0
M  V30 27722 C 2784.21 2.17374 -0.68792 0
M  V30 27723 C 2785.2 1.58199 0.293604 0
M  V30 27724 O 2786.39 1.76687 0.105261 0
M  V30 27725 C 2783.52 3.43151 -0.101244 0
M  V30 27726 C 2782.6 4.09352 -1.10869 0
M  V30 27727 N 2782.99 4.50842 -2.29293 0
M  V30 27728 C 2781.29 4.35874 -0.944974 0
M  V30 27729 C 2781.99 5.02337 -2.93313 0
M  V30 27730 N 2780.97 4.96688 -2.20912 0
M  V30 27731 H 2784.77 2.47197 -1.58968 0
M  V30 27732 H 2782.29 1.30888 -0.961352 0
M  V30 27733 H 2784.28 4.1641 0.202135 0
M  V30 27734 H 2782.94 3.14805 0.795467 0
M  V30 27735 H 2783.95 4.43809 -2.66935 0
M  V30 27736 H 2780.63 4.17375 -0.102259 0
M  V30 27737 H 2782.02 5.44298 -3.93941 0
M  V30 27738 N 2784.74 0.872304 1.31258 0
M  V30 27739 C 2785.97 0.498135 2.01329 0
M  V30 27740 C 2786.39 -0.902539 1.65033 0
M  V30 27741 O 2785.75 -1.59594 0.860193 0
M  V30 27742 C 2785.8 0.665268 3.5441 0
M  V30 27743 O 2784.9 -0.294401 4.11348 0
M  V30 27744 H 2784.24 0.197844 0.633841 0
M  V30 27745 H 2786.77 1.17636 1.674 0
M  V30 27746 H 2786.78 0.559444 4.04146 0
M  V30 27747 H 2785.46 1.68657 3.80168 0
M  V30 27748 H 2784.03 -0.143337 3.72624 0
M  V30 27749 N 2786.22 -1.44374 0.631976 0
M  V30 27750 C 2787.63 -1.568 0.297669 0
M  V30 27751 C 2787.83 -1.61936 -1.19913 0
M  V30 27752 O 2786.89 -1.56285 -1.98321 0
M  V30 27753 C 2788.2 -2.83924 0.990336 0
M  V30 27754 C 2789.75 -2.97637 0.96856 0
M  V30 27755 C 2790.23 -4.27565 1.64171 0
M  V30 27756 N 2791.72 -4.34381 1.60834 0
M  V30 27757 C 2792.45 -5.33635 2.09812 0
M  V30 27758 N 2791.95 -6.3929 2.66984 0
M  V30 27759 N 2793.74 -5.2515 2.00436 0
M  V30 27760 H 2785.89 -1.39283 1.60356 0
M  V30 27761 H 2788.16 -0.667509 0.673153 0
M  V30 27762 H 2787.86 -2.86117 2.04524 0
M  V30 27763 H 2787.74 -3.73477 0.528629 0
M  V30 27764 H 2790.12 -2.94997 -0.0778728 0
M  V30 27765 H 2790.2 -2.0943 1.46877 0
M  V30 27766 H 2789.85 -4.30965 2.6876 0
M  V30 27767 H 2789.78 -5.14632 1.11633 0
M  V30 27768 H 2792.27 -3.58644 1.19093 0
M  V30 27769 H 2792.58 -7.11311 3.02087 0
M  V30 27770 H 2790.93 -6.39973 2.71035 0
M  V30 27771 H 2794.12 -4.4152 1.55491 0
M  V30 27772 H 2794.29 -6.02348 2.38917 0
M  V30 27773 N 2787.7 -0.372575 -1.53133 0
M  V30 27774 C 2788.92 0.215478 -2.05775 0
M  V30 27775 C 2789.34 1.41884 -1.24557 0
M  V30 27776 O 2788.7 1.80214 -0.287983 0
M  V30 27777 C 2788.75 0.602098 -3.56451 0
M  V30 27778 O 2788.47 -0.553435 -4.3459 0
M  V30 27779 C 2789.97 1.2478 -4.25376 0
M  V30 27780 H 2787.19 0.0364411 -0.67001 0
M  V30 27781 H 2789.73 -0.532968 -1.97433 0
M  V30 27782 H 2787.89 1.30045 -3.6492 0
M  V30 27783 H 2788.3 -0.239428 -5.23953 0
M  V30 27784 H 2789.78 1.46882 -5.32099 0
M  V30 27785 H 2790.25 2.2102 -3.79535 0
M  V30 27786 H 2790.86 0.590678 -4.21178 0
M  V30 27787 N 2789.17 1.5727 -0.101929 0
M  V30 27788 C 2790.59 1.81772 0.426141 0
M  V30 27789 C 2790.94 1.018 1.67723 0
M  V30 27790 O 2790.06 0.249424 2.14958 0
M  V30 27791 C 2790.66 3.29701 0.779904 0
M  V30 27792 C 2789.22 3.54943 1.25269 0
M  V30 27793 C 2788.36 2.76146 0.252765 0
M  V30 27794 H 2791.31 1.55288 -0.327288 0
M  V30 27795 H 2791.33 3.43398 1.63885 0
M  V30 27796 H 2790.85 3.87879 -0.130846 0
M  V30 27797 H 2788.95 3.02104 2.18092 0
M  V30 27798 H 2789.06 4.63574 1.2098 0
M  V30 27799 H 2787.42 2.43825 0.736319 0
M  V30 27800 H 2788.21 3.37075 -0.650783 0
M  V30 27801 N 2790.65 -0.171793 1.56661 0
M  V30 27802 C 2791.56 -1.23266 1.99606 0
M  V30 27803 C 2792.58 -1.48469 0.907359 0
M  V30 27804 O 2793.75 -1.60627 1.21495 0
M  V30 27805 C 2790.82 -2.5519 2.34689 0
M  V30 27806 C 2789.88 -2.37854 3.57385 0
M  V30 27807 C 2789.11 -3.63487 3.90785 0
M  V30 27808 O 2789.34 -4.68644 3.2516 0
M  V30 27809 O 2788.27 -3.57626 4.84136 0
M  V30 27810 H 2792.1 -0.898141 2.90116 0
M  V30 27811 H 2789.68 -0.378622 1.44523 0
M  V30 27812 H 2791.56 -3.33013 2.58225 0
M  V30 27813 H 2790.24 -2.88222 1.47342 0
M  V30 27814 H 2789.15 -1.58064 3.39067 0
M  V30 27815 H 2790.48 -2.09747 4.45272 0
M  V30 27816 N 2792.13 -1.51324 -0.44033 0
M  V30 27817 C 2793.36 -1.67404 -1.21076 0
M  V30 27818 C 2793.77 -0.369631 -1.85554 0
M  V30 27819 O 2793.11 0.661495 -1.71377 0
M  V30 27820 C 2793.17 -2.7306 -2.33834 0
M  V30 27821 C 2792.84 -4.15746 -1.89748 0
M  V30 27822 C 2793.83 -5.00623 -1.4026 0
M  V30 27823 C 2791.52 -4.6183 -1.97531 0
M  V30 27824 C 2793.51 -6.29643 -0.991363 0
M  V30 27825 C 2791.2 -5.90848 -1.56019 0
M  V30 27826 C 2792.2 -6.74582 -1.06903 0
M  V30 27827 O 2791.89 -8.01188 -0.659793 0
M  V30 27828 H 2791.62 -0.565016 -0.371123 0
M  V30 27829 H 2794.17 -1.98488 -0.528374 0
M  V30 27830 H 2792.4 -2.37285 -3.05341 0
M  V30 27831 H 2794.09 -2.78049 -2.95708 0
M  V30 27832 H 2794.86 -4.66223 -1.33644 0
M  V30 27833 H 2790.74 -3.9678 -2.34706 0
M  V30 27834 H 2794.28 -6.94952 -0.607303 0
M  V30 27835 H 2790.18 -6.24762 -1.62304 0
M  V30 27836 H 2790.95 -8.14718 -0.785909 0
M  V30 27837 N 2793.61 0.695578 -1.41419 0
M  V30 27838 C 2794.84 1.48222 -1.43923 0
M  V30 27839 C 2795.25 1.89151 -0.0429187 0
M  V30 27840 O 2794.59 1.57342 0.948111 0
M  V30 27841 C 2794.65 2.77563 -2.28471 0
M  V30 27842 C 2794.32 2.58837 -3.76633 0
M  V30 27843 C 2795.31 2.24785 -4.68794 0
M  V30 27844 C 2793 2.74478 -4.20675 0
M  V30 27845 C 2794.99 2.06611 -6.02985 0
M  V30 27846 C 2792.68 2.55921 -5.5493 0
M  V30 27847 C 2793.68 2.22039 -6.45901 0
M  V30 27848 O 2793.36 2.03643 -7.77679 0
M  V30 27849 H 2793.1 0.463309 -0.492261 0
M  V30 27850 H 2795.65 0.863919 -1.86348 0
M  V30 27851 H 2793.88 3.41799 -1.80859 0
M  V30 27852 H 2795.57 3.39367 -2.22676 0
M  V30 27853 H 2796.34 2.12315 -4.36059 0
M  V30 27854 H 2792.21 2.99834 -3.50172 0
M  V30 27855 H 2795.76 1.80088 -6.73954 0
M  V30 27856 H 2791.66 2.67981 -5.87245 0
M  V30 27857 H 2792.42 2.18406 -7.88822 0
M  V30 27858 N 2795.09 1.27247 0.929833 0
M  V30 27859 C 2796.5 1.12205 1.49221 0
M  V30 27860 C 2796.85 -0.293697 1.93989 0
M  V30 27861 O 2795.97 -1.18639 1.8098 0
M  V30 27862 C 2796.57 2.03074 2.71194 0
M  V30 27863 C 2795.13 1.92145 3.23663 0
M  V30 27864 C 2794.28 1.95756 1.96405 0
M  V30 27865 H 2797.23 1.40171 0.744157 0
M  V30 27866 H 2797.25 1.5853 3.45902 0
M  V30 27867 H 2796.76 3.06107 2.3858 0
M  V30 27868 H 2794.86 0.920898 3.6104 0
M  V30 27869 H 2794.97 2.78274 3.90001 0
M  V30 27870 H 2793.34 1.39953 2.12803 0
M  V30 27871 H 2794.12 3.00438 1.66107 0
M  V30 27872 N 2796.57 -1.13603 1.09235 0
M  V30 27873 C 2797.51 -2.21025 0.72461 0
M  V30 27874 C 2798.51 -1.67176 -0.273565 0
M  V30 27875 O 2799.71 -1.79491 -0.135234 0
M  V30 27876 H 2796.09 -0.720211 0.216332 0
M  V30 27877 H 2798.06 -2.49306 1.63979 0
M  V30 27878 C 2796.81 -3.47335 0.159187 0
M  V30 27879 H 2796.13 -3.89107 0.918455 0
M  V30 27880 H 2797.57 -4.23957 -0.0602105 0
M  V30 27881 C 2796.03 -3.1826 -1.10508 0
M  V30 27882 O 2796.56 -3.36841 -2.18863 0
M  V30 27883 N 2794.77 -2.72155 -1.01881 0
M  V30 27884 H 2794.31 -2.57236 -0.136981 0
M  V30 27885 H 2794.27 -2.53077 -1.86546 0
M  V30 27886 N 2798.04 -0.879253 -1.30793 0
M  V30 27887 C 2799.01 -0.346716 -2.26562 0
M  V30 27888 C 2800.01 0.50757 -1.52579 0
M  V30 27889 O 2801.2 0.315545 -1.71318 0
M  V30 27890 C 2798.33 0.506552 -3.37116 0
M  V30 27891 H 2799.52 -1.19228 -2.75181 0
M  V30 27892 H 2797.07 -0.655623 -1.41885 0
M  V30 27893 H 2797.81 1.37294 -2.93804 0
M  V30 27894 H 2797.59 -0.105287 -3.91959 0
M  V30 27895 H 2799.08 0.87112 -4.08413 0
M  V30 27896 N 2799.52 1.44037 -0.639624 0
M  V30 27897 C 2800.77 2.01563 -0.147224 0
M  V30 27898 C 2801.09 1.5063 1.23837 0
M  V30 27899 O 2800.36 0.713348 1.8245 0
M  V30 27900 H 2798.94 0.745227 -0.0514362 0
M  V30 27901 H 2801.6 1.76426 -0.828236 0
M  V30 27902 H 2800.7 3.11864 -0.121412 0
M  V30 27903 N 2801 0.380691 1.52933 0
M  V30 27904 C 2801.93 -0.450227 2.29118 0
M  V30 27905 C 2802.91 -1.07094 1.32155 0
M  V30 27906 O 2804.1 -1.08534 1.6104 0
M  V30 27907 C 2801.23 -1.58226 3.09163 0
M  V30 27908 C 2800.18 -1.08802 4.1394 0
M  V30 27909 C 2799.51 -2.31146 4.82157 0
M  V30 27910 C 2800.81 -0.162055 5.22049 0
M  V30 27911 H 2802.5 0.185413 2.98825 0
M  V30 27912 H 2800.05 0.0906139 1.43715 0
M  V30 27913 H 2802 -2.1703 3.61215 0
M  V30 27914 H 2800.72 -2.24535 2.37174 0
M  V30 27915 H 2799.38 -0.52257 3.62856 0
M  V30 27916 H 2799.03 -2.95946 4.06724 0
M  V30 27917 H 2798.73 -1.98742 5.5297 0
M  V30 27918 H 2800.25 -2.90609 5.37009 0
M  V30 27919 H 2801.67 -0.658026 5.69511 0
M  V30 27920 H 2800.06 0.0718177 6.00057 0
M  V30 27921 H 2801.13 0.791522 4.78396 0
M  V30 27922 N 2802.48 -1.57214 0.110268 0
M  V30 27923 C 2803.73 -1.94068 -0.549604 0
M  V30 27924 C 2804.04 -0.995264 -1.68386 0
M  V30 27925 O 2805.25 -1.25811 -2.4059 0
M  V30 27926 C 2803.7 -3.44874 -1.02906 0
M  V30 27927 C 2803.31 -4.47935 0.0762649 0
M  V30 27928 C 2805.05 -3.90663 -1.6608 0
M  V30 27929 C 2802.96 -5.89911 -0.419398 0
M  V30 27930 H 2801.89 -0.724432 -0.209079 0
M  V30 27931 H 2804.54 -1.82527 0.188715 0
M  V30 27932 H 2802.92 -3.51619 -1.82153 0
M  V30 27933 H 2804.1 -4.5285 0.852264 0
M  V30 27934 H 2802.41 -4.11846 0.614124 0
M  V30 27935 H 2805.01 -4.94146 -2.04263 0
M  V30 27936 H 2805.35 -3.30152 -2.53585 0
M  V30 27937 H 2805.89 -3.86682 -0.933891 0
M  V30 27938 H 2802.62 -6.54157 0.419392 0
M  V30 27939 H 2802.14 -5.88435 -1.16207 0
M  V30 27940 H 2803.82 -6.4094 -0.883465 0
M  V30 27941 N 2803.96 0.163482 -1.5675 0
M  V30 27942 C 2804.89 1.23129 -1.92132 0
M  V30 27943 C 2805.87 1.42392 -0.785072 0
M  V30 27944 O 2807.05 1.57272 -1.03913 0
M  V30 27945 C 2804.18 2.59297 -2.17905 0
M  V30 27946 C 2803.22 2.56724 -3.4058 0
M  V30 27947 S 2804.06 2.05036 -4.94692 0
M  V30 27948 C 2805.21 3.42966 -5.2357 0
M  V30 27949 H 2805.45 0.929333 -2.82402 0
M  V30 27950 H 2802.98 0.368392 -1.49941 0
M  V30 27951 H 2804.94 3.37666 -2.33435 0
M  V30 27952 H 2803.6 2.86689 -1.28329 0
M  V30 27953 H 2802.79 3.56924 -3.55839 0
M  V30 27954 H 2802.39 1.86456 -3.24207 0
M  V30 27955 H 2804.68 4.39001 -5.16027 0
M  V30 27956 H 2805.63 3.32575 -6.2514 0
M  V30 27957 H 2806.04 3.3934 -4.51119 0
M  V30 27958 N 2805.43 1.51555 0.432299 0
M  V30 27959 C 2806.38 1.73813 1.54569 0
M  V30 27960 C 2807.38 0.604566 1.58245 0
M  V30 27961 O 2808.58 0.78607 1.61929 0
M  V30 27962 H 2804.96 0.549274 0.513617 0
M  V30 27963 H 2806.93 2.67135 1.32972 0
M  V30 27964 C 2805.68 1.88488 2.92177 0
M  V30 27965 H 2805 2.75121 2.90083 0
M  V30 27966 H 2806.44 2.08072 3.69435 0
M  V30 27967 C 2804.9 0.645967 3.30649 0
M  V30 27968 O 2805.43 -0.197022 4.01217 0
M  V30 27969 N 2803.63 0.488588 2.86463 0
M  V30 27970 H 2803.18 1.17566 2.29207 0
M  V30 27971 H 2803.14 -0.339101 3.12566 0
M  V30 27972 N 2806.91 -0.688069 1.41786 0
M  V30 27973 C 2808.14 -1.47456 1.44707 0
M  V30 27974 C 2808.55 -1.89126 0.0529493 0
M  V30 27975 O 2807.89 -1.57843 -0.939753 0
M  V30 27976 C 2807.95 -2.76348 2.29939 0
M  V30 27977 C 2807.62 -2.56836 3.78 0
M  V30 27978 C 2808.62 -2.22295 4.6998 0
M  V30 27979 C 2806.3 -2.72243 4.22124 0
M  V30 27980 C 2808.29 -2.03411 6.04072 0
M  V30 27981 C 2805.98 -2.52975 5.5628 0
M  V30 27982 C 2806.98 -2.1861 6.47069 0
M  V30 27983 O 2806.67 -1.99516 7.78748 0
M  V30 27984 H 2806.4 -0.460692 0.494711 0
M  V30 27985 H 2808.95 -0.854024 1.86804 0
M  V30 27986 H 2807.18 -3.40835 1.82669 0
M  V30 27987 H 2808.87 -3.38182 2.24472 0
M  V30 27988 H 2809.64 -2.1 4.37178 0
M  V30 27989 H 2805.52 -2.97973 3.51757 0
M  V30 27990 H 2809.06 -1.76511 6.749 0
M  V30 27991 H 2804.96 -2.64863 5.88658 0
M  V30 27992 H 2805.73 -2.1422 7.8997 0
M  V30 27993 N 2808.39 -1.27739 -0.923072 0
M  V30 27994 C 2809.63 -1.15589 -1.68578 0
M  V30 27995 C 2809.99 0.292528 -1.89758 0
M  V30 27996 O 2811.19 0.536537 -2.63391 0
M  V30 27997 C 2809.47 -1.92276 -3.01272 0
M  V30 27998 S 2811.02 -1.96394 -3.92396 0
M  V30 27999 H 2807.84 -0.412564 -0.579061 0
M  V30 28000 H 2810.44 -1.61711 -1.09863 0
M  V30 28001 H 2809.15 -2.96694 -2.8355 0
M  V30 28002 H 2808.68 -1.46667 -3.65037 0
M  V30 28003 H 2810.69 -1.0637 -4.84665 0
M  V30 28004 N 2809.87 1.13022 -1.09836 0
M  V30 28005 C 2811.28 1.36387 -0.828899 0
M  V30 28006 C 2811.48 1.93714 0.554722 0
M  V30 28007 O 2810.54 2.15933 1.30879 0
M  V30 28008 C 2811.85 2.31127 -1.92356 0
M  V30 28009 C 2813.4 2.44732 -1.95129 0
M  V30 28010 C 2813.88 3.42782 -3.03751 0
M  V30 28011 N 2815.37 3.50335 -3.03018 0
M  V30 28012 C 2816.1 4.26095 -3.83707 0
M  V30 28013 N 2815.6 5.04973 -4.74315 0
M  V30 28014 N 2817.39 4.21438 -3.71949 0
M  V30 28015 H 2809.54 0.741655 -1.99031 0
M  V30 28016 H 2811.81 0.388888 -0.864564 0
M  V30 28017 H 2811.51 1.96167 -2.9191 0
M  V30 28018 H 2811.39 3.31186 -1.80542 0
M  V30 28019 H 2813.77 2.78975 -0.962118 0
M  V30 28020 H 2813.85 1.44582 -2.11021 0
M  V30 28021 H 2813.5 3.09269 -4.02884 0
M  V30 28022 H 2813.43 4.42747 -2.85102 0
M  V30 28023 H 2815.92 2.94058 -2.37357 0
M  V30 28024 H 2816.23 5.60099 -5.32456 0
M  V30 28025 H 2814.58 5.04191 -4.78348 0
M  V30 28026 H 2817.77 3.58895 -3.0052 0
M  V30 28027 H 2817.94 4.80227 -4.3507 0
M  V30 28028 N 2811.35 0.886177 1.30325 0
M  V30 28029 C 2812.29 0.343357 2.30052 0
M  V30 28030 C 2813.29 -0.550277 1.60213 0
M  V30 28031 O 2814.49 -0.434578 1.74675 0
M  V30 28032 H 2810.87 0.0923813 0.746304 0
M  V30 28033 H 2812.84 1.19809 2.73292 0
M  V30 28034 C 2811.59 -0.426046 3.4508 0
M  V30 28035 H 2810.91 0.25234 3.99003 0
M  V30 28036 H 2812.35 -0.770936 4.16932 0
M  V30 28037 C 2810.81 -1.62358 2.95197 0
M  V30 28038 O 2811.34 -2.72294 2.95328 0
M  V30 28039 N 2809.55 -1.46115 2.51194 0
M  V30 28040 H 2809.09 -0.566788 2.51287 0
M  V30 28041 H 2809.05 -2.26377 2.18177 0
M  V30 28042 N 2812.82 -1.43695 0.647253 0
M  V30 28043 C 2814.24 -1.85168 0.238722 0
M  V30 28044 C 2814.59 -1.54177 -1.21342 0
M  V30 28045 O 2813.71 -0.987777 -1.92541 0
M  V30 28046 C 2814.31 -3.36105 0.426481 0
M  V30 28047 C 2812.87 -3.76331 0.0723202 0
M  V30 28048 C 2812.01 -2.67459 0.7322 0
M  V30 28049 H 2814.96 -1.33933 0.851333 0
M  V30 28050 H 2814.98 -3.79068 -0.329803 0
M  V30 28051 H 2814.5 -3.5863 1.48346 0
M  V30 28052 H 2812.6 -3.59419 -0.982292 0
M  V30 28053 H 2812.71 -4.7655 0.493625 0
M  V30 28054 H 2811.07 -2.54159 0.165984 0
M  V30 28055 H 2811.86 -2.92812 1.79209 0
M  V30 28056 N 2814.3 -0.388796 -1.52729 0
M  V30 28057 C 2815.58 0.251099 -1.93982 0
M  V30 28058 C 2815.96 1.64402 -1.32421 0
M  V30 28059 O 2815.31 2.23138 -0.492113 0
M  V30 28060 C 2815.52 0.277959 -3.47891 0
M  V30 28061 C 2816.87 0.507155 -4.2156 0
M  V30 28062 O 2817.89 0.35819 -3.54394 0
M  V30 28063 O 2816.75 0.798999 -5.40628 0
M  V30 28064 H 2813.84 0.155966 -0.81216 0
M  V30 28065 H 2816.39 -0.443266 -1.63809 0
M  V30 28066 H 2815.16 -0.697737 -3.85029 0
M  V30 28067 H 2814.78 1.01727 -3.84366 0
M  V30 28068 N 2815.78 1.57153 -0.118604 0
M  V30 28069 C 2816.74 2.14128 0.817427 0
M  V30 28070 C 2817.74 1.07606 1.19488 0
M  V30 28071 O 2818.93 1.33384 1.12046 0
M  V30 28072 C 2816.07 2.68118 2.10536 0
M  V30 28073 H 2817.26 2.98163 0.322286 0
M  V30 28074 H 2814.81 1.55753 0.130628 0
M  V30 28075 H 2815.55 1.8767 2.64482 0
M  V30 28076 H 2815.33 3.46023 1.84419 0
M  V30 28077 H 2816.82 3.1211 2.77448 0
M  V30 28078 N 2817.26 -0.155167 1.56834 0
M  V30 28079 C 2818.5 -0.870435 1.8317 0
M  V30 28080 C 2818.84 -1.81185 0.698961 0
M  V30 28081 O 2818.11 -1.92204 -0.298001 0
M  V30 28082 C 2818.4 -1.65205 3.19968 0
M  V30 28083 C 2818.25 -0.732666 4.43793 0
M  V30 28084 C 2819.57 -2.6163 3.5389 0
M  V30 28085 H 2816.69 -0.314995 0.666294 0
M  V30 28086 H 2819.33 -0.135954 1.89513 0
M  V30 28087 H 2817.48 -2.27819 3.14691 0
M  V30 28088 H 2819.15 -0.118154 4.61149 0
M  V30 28089 H 2817.39 -0.0417143 4.3378 0
M  V30 28090 H 2818.06 -1.31542 5.36098 0
M  V30 28091 H 2820.54 -2.09136 3.59724 0
M  V30 28092 H 2819.42 -3.13374 4.50653 0
M  V30 28093 H 2819.68 -3.426 2.79424 0
M  V30 28094 N 2818.74 -1.51782 -0.424256 0
M  V30 28095 C 2819.7 -1.73434 -1.49845 0
M  V30 28096 C 2820.7 -0.604251 -1.49015 0
M  V30 28097 O 2821.89 -0.871962 -1.50806 0
M  V30 28098 C 2819.02 -1.80282 -2.89329 0
M  V30 28099 H 2820.21 -2.69315 -1.31946 0
M  V30 28100 H 2817.77 -1.4197 -0.653784 0
M  V30 28101 H 2818.5 -0.862623 -3.12617 0
M  V30 28102 H 2818.29 -2.62424 -2.91335 0
M  V30 28103 H 2819.78 -1.98827 -3.67229 0
M  V30 28104 N 2820.21 0.68054 -1.42149 0
M  V30 28105 C 2821.18 1.77599 -1.44883 0
M  V30 28106 C 2822.18 1.57224 -0.337236 0
M  V30 28107 O 2823.37 1.63621 -0.597807 0
M  V30 28108 C 2820.5 3.16164 -1.27489 0
M  V30 28109 H 2821.69 1.76564 -2.42415 0
M  V30 28110 H 2819.25 0.889622 -1.28512 0
M  V30 28111 H 2819.98 3.22829 -0.308567 0
M  V30 28112 H 2819.77 3.32356 -2.08043 0
M  V30 28113 H 2821.26 3.96098 -1.32272 0
M  V30 28114 N 2821.69 1.28226 0.916285 0
M  V30 28115 C 2823.1 1.13782 1.48022 0
M  V30 28116 C 2823.45 -0.273105 1.9429 0
M  V30 28117 O 2822.58 -1.16713 1.82228 0
M  V30 28118 C 2823.17 2.05939 2.69025 0
M  V30 28119 C 2821.73 1.95567 3.21606 0
M  V30 28120 C 2820.88 1.97828 1.94318 0
M  V30 28121 H 2823.83 1.40953 0.729248 0
M  V30 28122 H 2823.85 1.6219 3.44201 0
M  V30 28123 H 2823.36 3.0862 2.3532 0
M  V30 28124 H 2821.47 0.959139 3.60043 0
M  V30 28125 H 2821.58 2.82394 3.87027 0
M  V30 28126 H 2819.94 1.42202 2.11307 0
M  V30 28127 H 2820.73 3.02183 1.62911 0
M  V30 28128 N 2823.17 -1.12438 1.10433 0
M  V30 28129 C 2824.4 -1.87498 0.867645 0
M  V30 28130 C 2824.81 -1.79914 -0.585443 0
M  V30 28131 O 2824.15 -1.17102 -1.41537 0
M  V30 28132 C 2824.21 -3.37531 1.23746 0
M  V30 28133 C 2823.88 -3.6889 2.69758 0
M  V30 28134 C 2824.87 -3.67254 3.67995 0
M  V30 28135 C 2822.56 -3.98224 3.06142 0
M  V30 28136 C 2824.55 -3.94512 5.00639 0
M  V30 28137 C 2822.24 -4.25141 4.38974 0
M  V30 28138 C 2823.24 -4.23271 5.36032 0
M  V30 28139 O 2822.93 -4.49521 6.66473 0
M  V30 28140 H 2822.66 -0.600106 0.311206 0
M  V30 28141 H 2825.21 -1.43191 1.4726 0
M  V30 28142 H 2823.44 -3.82392 0.575604 0
M  V30 28143 H 2825.13 -3.93935 0.978256 0
M  V30 28144 H 2825.9 -3.44655 3.4123 0
M  V30 28145 H 2821.78 -3.98821 2.31221 0
M  V30 28146 H 2825.32 -3.92968 5.76387 0
M  V30 28147 H 2821.22 -4.47215 4.65478 0
M  V30 28148 H 2821.99 -4.6714 6.72103 0
M  V30 28149 N 2824.65 -0.893076 -1.29853 0
M  V30 28150 C 2825.89 -0.522434 -1.97611 0
M  V30 28151 C 2826.25 0.91297 -1.68905 0
M  V30 28152 O 2827.45 1.39015 -2.30062 0
M  V30 28153 C 2825.73 -0.798991 -3.48355 0
M  V30 28154 S 2827.28 -0.531665 -4.35567 0
M  V30 28155 H 2824.1 -0.19407 -0.684001 0
M  V30 28156 H 2826.7 -1.15409 -1.57801 0
M  V30 28157 H 2825.41 -1.84202 -3.66739 0
M  V30 28158 H 2824.94 -0.155202 -3.93094 0
M  V30 28159 H 2826.95 0.626208 -4.92233 0
M  V30 28160 N 2826.13 1.4335 -0.654865 0
M  V30 28161 C 2827.36 2.05845 -0.176465 0
M  V30 28162 C 2827.77 1.49178 1.16372 0
M  V30 28163 O 2827.11 0.618352 1.7298 0
M  V30 28164 C 2827.17 3.59498 -0.0126476 0
M  V30 28165 C 2826.83 4.38755 -1.27839 0
M  V30 28166 C 2827.83 4.70708 -2.20749 0
M  V30 28167 C 2825.52 4.78736 -1.52043 0
M  V30 28168 C 2827.51 5.41552 -3.36154 0
M  V30 28169 C 2825.2 5.49325 -2.67742 0
M  V30 28170 C 2826.2 5.80655 -3.59623 0
M  V30 28171 O 2825.88 6.49801 -4.733 0
M  V30 28172 H 2825.62 0.67025 -0.08798 0
M  V30 28173 H 2828.17 1.84816 -0.896226 0
M  V30 28174 H 2826.4 3.79108 0.7625 0
M  V30 28175 H 2828.09 4.03687 0.423321 0
M  V30 28176 H 2828.85 4.40338 -2.03292 0
M  V30 28177 H 2824.73 4.53755 -0.814067 0
M  V30 28178 H 2828.28 5.65924 -4.07891 0
M  V30 28179 H 2824.17 5.79111 -2.85132 0
M  V30 28180 H 2824.94 6.68284 -4.72587 0
M  V30 28181 N 2827.61 0.39689 1.52521 0
M  V30 28182 C 2828.83 -0.182714 2.06092 0
M  V30 28183 C 2829.25 -1.39884 1.26799 0
M  V30 28184 O 2828.61 -1.79733 0.316616 0
M  V30 28185 C 2828.66 -0.545314 3.57363 0
M  V30 28186 O 2828.38 0.622505 4.33655 0
M  V30 28187 C 2829.88 -1.17997 4.27307 0
M  V30 28188 H 2827.1 -0.0257772 0.670505 0
M  V30 28189 H 2829.64 0.564311 1.9656 0
M  V30 28190 H 2827.8 -1.24223 3.66943 0
M  V30 28191 H 2828.21 0.322754 5.23506 0
M  V30 28192 H 2829.69 -1.38398 5.34369 0
M  V30 28193 H 2830.16 -2.14954 3.83003 0
M  V30 28194 H 2830.77 -0.523597 4.22065 0
M  V30 28195 N 2829.08 -1.57088 0.126936 0
M  V30 28196 C 2830.5 -1.5794 -0.229614 0
M  V30 28197 C 2830.7 -1.14013 -1.66143 0
M  V30 28198 O 2829.76 -0.831161 -2.38428 0
M  V30 28199 C 2831.07 -3.00698 0.0109177 0
M  V30 28200 C 2832.62 -3.12953 -0.054363 0
M  V30 28201 C 2833.09 -4.57725 0.158577 0
M  V30 28202 N 2834.58 -4.63081 0.104817 0
M  V30 28203 C 2835.32 -5.72879 0.244371 0
M  V30 28204 N 2834.81 -6.91398 0.440537 0
M  V30 28205 N 2836.61 -5.61801 0.183385 0
M  V30 28206 H 2828.76 -1.8394 1.06206 0
M  V30 28207 H 2831.02 -0.850453 0.418849 0
M  V30 28208 H 2830.73 -3.37152 1.00108 0
M  V30 28209 H 2830.6 -3.70314 -0.717447 0
M  V30 28210 H 2832.99 -2.76352 -1.03506 0
M  V30 28211 H 2833.07 -2.45864 0.70601 0
M  V30 28212 H 2832.71 -4.95026 1.13628 0
M  V30 28213 H 2832.64 -5.22915 -0.621878 0
M  V30 28214 H 2835.13 -3.77876 -0.0429634 0
M  V30 28215 H 2835.45 -7.70927 0.537672 0
M  V30 28216 H 2833.79 -6.93364 0.476609 0
M  V30 28217 H 2836.98 -4.6809 0.0310384 0
M  V30 28218 H 2837.16 -6.47325 0.295585 0
M  V30 28219 N 2830.56 0.146848 -1.56914 0
M  V30 28220 C 2831.84 0.888134 -1.74274 0
M  V30 28221 C 2832.22 1.99331 -0.694995 0
M  V30 28222 O 2831.57 2.26702 0.286053 0
M  V30 28223 C 2831.78 1.43045 -3.18338 0
M  V30 28224 C 2833.12 1.8938 -3.80027 0
M  V30 28225 O 2834.15 1.52786 -3.21768 0
M  V30 28226 O 2833.01 2.56866 -4.82372 0
M  V30 28227 H 2830.1 0.419725 -0.712573 0
M  V30 28228 H 2832.65 0.132761 -1.6918 0
M  V30 28229 H 2831.42 0.636207 -3.86093 0
M  V30 28230 H 2831.04 2.24932 -3.27858 0
M  V30 28231 N 2832.04 1.52005 0.4162 0
M  V30 28232 C 2833.45 1.57958 0.995292 0
M  V30 28233 C 2833.8 0.415788 1.91744 0
M  V30 28234 O 2832.93 -0.464771 2.1135 0
M  V30 28235 C 2833.52 2.86281 1.81186 0
M  V30 28236 C 2832.08 2.94737 2.3411 0
M  V30 28237 C 2831.23 2.5283 1.13896 0
M  V30 28238 H 2834.18 1.57476 0.196688 0
M  V30 28239 H 2834.2 2.71236 2.66855 0
M  V30 28240 H 2833.71 3.70965 1.14045 0
M  V30 28241 H 2831.81 2.1453 3.04643 0
M  V30 28242 H 2831.93 3.98833 2.65459 0
M  V30 28243 H 2830.29 2.06514 1.49077 0
M  V30 28244 H 2831.07 3.39881 0.483323 0
M  V30 28245 N 2833.52 -0.672992 1.42508 0
M  V30 28246 C 2834.77 -1.43021 1.42792 0
M  V30 28247 C 2835.09 -1.94946 0.0460081 0
M  V30 28248 O 2834.36 -1.73179 -0.915734 0
M  V30 28249 H 2832.94 -0.530739 0.525666 0
M  V30 28250 H 2835.6 -0.795081 1.77945 0
M  V30 28251 H 2834.69 -2.28233 2.12876 0
M  V30 28252 N 2835 -1.2871 -0.909472 0
M  V30 28253 C 2836.24 -1.16286 -1.66149 0
M  V30 28254 C 2836.57 0.287036 -1.92067 0
M  V30 28255 O 2835.85 1.20835 -1.52411 0
M  V30 28256 C 2836.13 -1.96636 -3.01673 0
M  V30 28257 C 2835.99 -3.49711 -2.82881 0
M  V30 28258 C 2837.3 -1.78511 -4.02271 0
M  V30 28259 H 2834.42 -0.423804 -0.602959 0
M  V30 28260 H 2837.07 -1.58075 -1.05415 0
M  V30 28261 H 2835.22 -1.61125 -3.53512 0
M  V30 28262 H 2836.89 -3.95152 -2.38019 0
M  V30 28263 H 2835.13 -3.75129 -2.17855 0
M  V30 28264 H 2835.8 -4.01194 -3.7914 0
M  V30 28265 H 2838.28 -2.09509 -3.59507 0
M  V30 28266 H 2837.15 -2.37097 -4.95052 0
M  V30 28267 H 2837.41 -0.737724 -4.35901 0
M  V30 28268 N 2836.47 1.1185 -1.11028 0
M  V30 28269 C 2837.89 1.355 -0.843318 0
M  V30 28270 C 2838.09 1.94291 0.534145 0
M  V30 28271 O 2837.15 2.17309 1.28581 0
M  V30 28272 C 2838.46 2.29073 -1.94797 0
M  V30 28273 C 2840.01 2.42649 -1.97713 0
M  V30 28274 C 2840.48 3.39541 -3.0737 0
M  V30 28275 N 2841.97 3.47101 -3.06716 0
M  V30 28276 C 2842.71 4.22001 -3.88204 0
M  V30 28277 N 2842.2 4.99913 -4.79644 0
M  V30 28278 N 2844 4.17469 -3.76398 0
M  V30 28279 H 2836.15 0.720503 -1.99806 0
M  V30 28280 H 2838.41 0.379696 -0.86864 0
M  V30 28281 H 2838.12 1.9306 -2.93974 0
M  V30 28282 H 2837.99 3.29253 -1.84045 0
M  V30 28283 H 2840.38 2.77939 -0.991653 0
M  V30 28284 H 2840.46 1.42336 -2.12542 0
M  V30 28285 H 2840.1 3.04978 -4.06141 0
M  V30 28286 H 2840.03 4.39698 -2.89781 0
M  V30 28287 H 2842.52 2.91524 -2.40462 0
M  V30 28288 H 2842.84 5.5442 -5.38366 0
M  V30 28289 H 2841.18 4.99089 -4.83669 0
M  V30 28290 H 2844.37 3.55687 -3.04309 0
M  V30 28291 H 2844.55 4.75586 -4.40139 0
M  V30 28292 N 2837.95 0.89995 1.29378 0
M  V30 28293 C 2839.2 0.536187 1.96205 0
M  V30 28294 C 2839.55 -0.90758 1.69649 0
M  V30 28295 O 2838.85 -1.63488 0.999118 0
M  V30 28296 C 2839.04 0.765175 3.49113 0
M  V30 28297 C 2838.87 2.22965 3.90534 0
M  V30 28298 C 2837.64 2.87713 4.1539 0
M  V30 28299 C 2839.84 3.20487 4.02235 0
M  V30 28300 N 2837.82 4.24601 4.43381 0
M  V30 28301 C 2839.19 4.42493 4.34281 0
M  V30 28302 C 2841.24 3.16073 3.84711 0
M  V30 28303 C 2839.95 5.60648 4.50628 0
M  V30 28304 C 2841.97 4.33514 4.02268 0
M  V30 28305 C 2841.34 5.54291 4.34674 0
M  V30 28306 H 2837.43 0.245817 0.74236 0
M  V30 28307 H 2840.02 1.16081 1.56312 0
M  V30 28308 H 2838.19 0.169929 3.88028 0
M  V30 28309 H 2839.92 0.366822 4.03034 0
M  V30 28310 H 2836.68 2.38507 4.09159 0
M  V30 28311 H 2837.1 4.95339 4.61485 0
M  V30 28312 H 2841.74 2.23784 3.58721 0
M  V30 28313 H 2839.46 6.53428 4.75455 0
M  V30 28314 H 2843.05 4.31585 3.90161 0
M  V30 28315 H 2841.93 6.43651 4.47976 0
M  V30 28316 N 2839.43 -1.43001 0.662458 0
M  V30 28317 C 2840.34 -2.34588 -0.0238786 0
M  V30 28318 C 2841.36 -1.54403 -0.802228 0
M  V30 28319 O 2842.53 -1.8702 -0.747368 0
M  V30 28320 C 2839.6 -3.32795 -0.97204 0
M  V30 28321 C 2838.66 -4.28881 -0.189597 0
M  V30 28322 C 2837.89 -5.22396 -1.0926 0
M  V30 28323 O 2838.11 -5.20551 -2.332 0
M  V30 28324 O 2837.05 -5.99289 -0.560031 0
M  V30 28325 H 2840.87 -2.9479 0.730223 0
M  V30 28326 H 2838.46 -1.43297 0.42266 0
M  V30 28327 H 2840.34 -3.9316 -1.51669 0
M  V30 28328 H 2839.02 -2.75082 -1.70621 0
M  V30 28329 H 2837.92 -3.71968 0.398859 0
M  V30 28330 H 2839.26 -4.896 0.505196 0
M  V30 28331 N 2840.91 -0.404973 -1.52308 0
M  V30 28332 C 2842.14 0.171533 -2.05887 0
M  V30 28333 C 2842.55 1.3976 -1.2753 0
M  V30 28334 O 2841.89 1.80905 -0.319247 0
M  V30 28335 C 2841.95 0.590921 -3.5461 0
M  V30 28336 C 2841.62 -0.523837 -4.53988 0
M  V30 28337 C 2842.61 -1.38612 -5.01081 0
M  V30 28338 C 2840.3 -0.695343 -4.97464 0
M  V30 28339 C 2842.29 -2.4049 -5.90291 0
M  V30 28340 C 2839.98 -1.71744 -5.8647 0
M  V30 28341 C 2840.98 -2.57062 -6.32778 0
M  V30 28342 O 2840.66 -3.57522 -7.20023 0
M  V30 28343 H 2840.4 0.0257644 -0.675509 0
M  V30 28344 H 2842.95 -0.573313 -1.97237 0
M  V30 28345 H 2841.18 1.38799 -3.60932 0
M  V30 28346 H 2842.87 1.09487 -3.90855 0
M  V30 28347 H 2843.64 -1.26501 -4.68212 0
M  V30 28348 H 2839.51 -0.0409257 -4.60982 0
M  V30 28349 H 2843.06 -3.07119 -6.26358 0
M  V30 28350 H 2838.96 -1.83888 -6.18753 0
M  V30 28351 H 2839.72 -3.53716 -7.38124 0
M  V30 28352 N 2842.39 1.57018 -0.135265 0
M  V30 28353 C 2843.63 1.97631 0.521651 0
M  V30 28354 C 2843.99 1.01781 1.62802 0
M  V30 28355 O 2845.19 1.31393 2.34498 0
M  V30 28356 C 2843.46 3.42367 1.02564 0
M  V30 28357 S 2845.02 4.05 1.68881 0
M  V30 28358 H 2841.84 0.69061 0.169052 0
M  V30 28359 H 2844.44 1.9421 -0.224202 0
M  V30 28360 H 2843.15 4.09865 0.209484 0
M  V30 28361 H 2842.68 3.49475 1.80639 0
M  V30 28362 H 2844.69 3.9709 2.97547 0
M  V30 28363 N 2843.86 -0.138524 1.5699 0
M  V30 28364 C 2844.81 -1.18991 1.9986 0
M  V30 28365 C 2845.81 -1.43992 0.892335 0
M  V30 28366 O 2847.01 -1.44185 1.07753 0
M  V30 28367 H 2843.39 -0.400732 0.636332 0
M  V30 28368 H 2845.36 -0.801705 2.87429 0
M  V30 28369 C 2844.11 -2.51357 2.40239 0
M  V30 28370 H 2843.43 -2.32951 3.24921 0
M  V30 28371 H 2844.87 -3.23531 2.74051 0
M  V30 28372 C 2843.33 -3.12518 1.25834 0
M  V30 28373 O 2843.86 -3.97726 0.563674 0
M  V30 28374 N 2842.07 -2.72096 1.02041 0
M  V30 28375 H 2841.61 -2.02902 1.58708 0
M  V30 28376 H 2841.57 -3.13349 0.256851 0
M  V30 28377 N 2845.34 -1.52224 -0.408133 0
M  V30 28378 C 2846.27 -1.78598 -1.50416 0
M  V30 28379 C 2847.25 -0.637002 -1.57722 0
M  V30 28380 O 2848.44 -0.882695 -1.7298 0
M  V30 28381 C 2845.57 -1.93756 -2.88229 0
M  V30 28382 C 2844.52 -3.09358 -2.95773 0
M  V30 28383 C 2843.85 -3.0974 -4.3585 0
M  V30 28384 C 2845.15 -4.48797 -2.67167 0
M  V30 28385 H 2846.84 -2.70376 -1.28596 0
M  V30 28386 H 2844.39 -1.30103 -0.617198 0
M  V30 28387 H 2846.34 -2.10789 -3.64892 0
M  V30 28388 H 2845.07 -0.986497 -3.11345 0
M  V30 28389 H 2843.72 -2.92076 -2.21556 0
M  V30 28390 H 2843.37 -2.12354 -4.55977 0
M  V30 28391 H 2843.07 -3.87385 -4.41822 0
M  V30 28392 H 2844.6 -3.28904 -5.14446 0
M  V30 28393 H 2846.01 -4.66279 -3.33552 0
M  V30 28394 H 2844.41 -5.28367 -2.84514 0
M  V30 28395 H 2845.48 -4.56825 -1.62601 0
M  V30 28396 N 2846.82 0.665425 -1.42863 0
M  V30 28397 C 2848.05 1.45346 -1.47248 0
M  V30 28398 C 2848.46 1.88601 -0.0866275 0
M  V30 28399 O 2847.82 1.58729 0.900624 0
M  V30 28400 C 2847.87 2.69646 -2.40777 0
M  V30 28401 O 2847.59 2.28203 -3.73972 0
M  V30 28402 C 2849.09 3.63121 -2.54279 0
M  V30 28403 H 2846.31 0.446918 -0.500505 0
M  V30 28404 H 2848.86 0.816838 -1.87478 0
M  V30 28405 H 2847.01 3.29476 -2.03775 0
M  V30 28406 H 2847.43 3.08539 -4.24151 0
M  V30 28407 H 2848.9 4.47037 -3.23823 0
M  V30 28408 H 2849.38 4.09653 -1.58371 0
M  V30 28409 H 2849.98 3.0918 -2.92041 0
M  V30 28410 N 2848.3 1.29191 0.902633 0
M  V30 28411 C 2849.23 1.09875 2.01147 0
M  V30 28412 C 2850.24 0.0471332 1.62732 0
M  V30 28413 O 2851.43 0.291351 1.76106 0
M  V30 28414 C 2848.53 0.649876 3.32611 0
M  V30 28415 C 2847.71 1.77937 3.99571 0
M  V30 28416 C 2846.76 1.322 5.09323 0
M  V30 28417 O 2845.79 2.0262 5.31915 0
M  V30 28418 N 2846.99 0.191273 5.80185 0
M  V30 28419 H 2849.76 2.05371 2.18272 0
M  V30 28420 H 2847.32 1.21092 1.07463 0
M  V30 28421 H 2849.31 0.32727 4.03375 0
M  V30 28422 H 2847.88 -0.212542 3.11877 0
M  V30 28423 H 2847.1 2.27101 3.22209 0
M  V30 28424 H 2848.39 2.53676 4.41051 0
M  V30 28425 H 2847.79 -0.395917 5.64313 0
M  V30 28426 H 2846.34 -0.0719855 6.5176 0
M  V30 28427 N 2849.78 -1.1126 1.1162 0
M  V30 28428 C 2851.02 -1.84668 0.876186 0
M  V30 28429 C 2851.38 -1.8279 -0.587519 0
M  V30 28430 O 2852.58 -2.51665 -0.944367 0
M  V30 28431 C 2850.85 -3.27777 1.42467 0
M  V30 28432 S 2852.41 -4.18414 1.32192 0
M  V30 28433 H 2849.23 -0.636774 0.316292 0
M  V30 28434 H 2851.83 -1.33943 1.42406 0
M  V30 28435 H 2850.54 -3.2671 2.48372 0
M  V30 28436 H 2850.07 -3.83571 0.873911 0
M  V30 28437 H 2852.08 -4.95365 0.287694 0
M  V30 28438 N 2851.25 -0.906798 -1.28899 0
M  V30 28439 C 2852.48 -0.551338 -1.99938 0
M  V30 28440 C 2852.9 0.858466 -1.67368 0
M  V30 28441 O 2852.26 1.57258 -0.902204 0
M  V30 28442 C 2852.31 -0.758999 -3.52522 0
M  V30 28443 O 2851.41 0.185236 -4.11984 0
M  V30 28444 H 2850.76 -0.214579 -0.628372 0
M  V30 28445 H 2853.29 -1.22033 -1.64223 0
M  V30 28446 H 2853.3 -0.6664 -4.02521 0
M  V30 28447 H 2851.97 -1.78678 -3.75562 0
M  V30 28448 H 2850.55 0.0444922 -3.72873 0
M  V30 28449 N 2852.73 1.42648 -0.670032 0
M  V30 28450 C 2854.01 1.95235 -0.119485 0
M  V30 28451 C 2854.39 1.61066 1.36458 0
M  V30 28452 O 2853.74 0.904366 2.09842 0
M  V30 28453 C 2853.95 3.46886 -0.383559 0
M  V30 28454 C 2855.3 4.23556 -0.297505 0
M  V30 28455 O 2856.32 3.54786 -0.317042 0
M  V30 28456 O 2855.18 5.45992 -0.235603 0
M  V30 28457 H 2852.27 0.827 -0.000103084 0
M  V30 28458 H 2854.82 1.525 -0.744433 0
M  V30 28459 H 2853.59 3.64943 -1.41181 0
M  V30 28460 H 2853.21 3.96657 0.273632 0
M  V30 28461 N 2854.21 0.413044 1.52091 0
M  V30 28462 C 2855.17 -0.398647 2.25707 0
M  V30 28463 C 2856.17 -0.970346 1.28222 0
M  V30 28464 O 2857.36 -0.848609 1.52132 0
M  V30 28465 C 2854.5 -1.56155 3.03032 0
M  V30 28466 H 2855.69 0.246183 2.98888 0
M  V30 28467 H 2853.24 0.165649 1.5542 0
M  V30 28468 H 2853.98 -2.24313 2.34209 0
M  V30 28469 H 2853.76 -1.15806 3.74608 0
M  V30 28470 H 2855.25 -2.13563 3.5886 0
M  V30 28471 N 2855.69 -1.56945 0.143591 0
M  V30 28472 C 2856.6 -2.20154 -0.810524 0
M  V30 28473 C 2857.62 -1.18482 -1.27428 0
M  V30 28474 O 2858.79 -1.51046 -1.33218 0
M  V30 28475 C 2855.86 -2.80803 -2.03349 0
M  V30 28476 C 2854.92 -3.9759 -1.61929 0
M  V30 28477 C 2854.15 -4.55337 -2.78395 0
M  V30 28478 O 2854.37 -4.11965 -3.94514 0
M  V30 28479 O 2853.31 -5.45651 -2.54063 0
M  V30 28480 H 2857.13 -3.0219 -0.302477 0
M  V30 28481 H 2854.72 -1.49168 -0.0832663 0
M  V30 28482 H 2856.6 -3.19364 -2.74926 0
M  V30 28483 H 2855.28 -2.01782 -2.53112 0
M  V30 28484 H 2854.18 -3.63751 -0.87384 0
M  V30 28485 H 2855.52 -4.7812 -1.16884 0
M  V30 28486 N 2857.17 0.130197 -1.57061 0
M  V30 28487 C 2858.42 0.83828 -1.83895 0
M  V30 28488 C 2858.74 1.80938 -0.727078 0
M  V30 28489 O 2858.01 1.943 0.249893 0
M  V30 28490 H 2856.59 0.312561 -0.678465 0
M  V30 28491 H 2859.25 0.120189 -1.94529 0
M  V30 28492 H 2858.34 1.39033 -2.79421 0
M  V30 28493 N 2858.65 1.52438 0.400055 0
M  V30 28494 C 2859.87 1.70803 1.16765 0
M  V30 28495 C 2860.29 0.421494 1.84035 0
M  V30 28496 O 2859.65 -0.603198 1.72243 0
M  V30 28497 C 2859.7 2.84994 2.22398 0
M  V30 28498 O 2859.42 4.08666 1.57872 0
M  V30 28499 C 2860.92 3.14945 3.11969 0
M  V30 28500 H 2858.14 0.572167 0.350523 0
M  V30 28501 H 2860.68 1.99038 0.469499 0
M  V30 28502 H 2858.84 2.59252 2.87866 0
M  V30 28503 H 2859.25 4.72364 2.27974 0
M  V30 28504 H 2860.73 3.98337 3.82141 0
M  V30 28505 H 2861.2 2.2887 3.74854 0
M  V30 28506 H 2861.81 3.42485 2.52159 0
M  V30 28507 N 2860.12 -0.657839 1.43214 0
M  V30 28508 C 2861.09 -1.75272 1.4769 0
M  V30 28509 C 2862.09 -1.56667 0.362207 0
M  V30 28510 O 2863.28 -1.62649 0.623762 0
M  V30 28511 C 2860.41 -3.14095 1.32502 0
M  V30 28512 H 2861.6 -1.72685 2.45193 0
M  V30 28513 H 2859.15 -0.869065 1.29911 0
M  V30 28514 H 2859.89 -3.22297 0.359887 0
M  V30 28515 H 2859.67 -3.29004 2.13304 0
M  V30 28516 H 2861.16 -3.93944 1.38556 0
M  V30 28517 N 2861.6 -1.29668 -0.895769 0
M  V30 28518 C 2862.85 -1.18042 -1.64906 0
M  V30 28519 C 2863.18 0.266648 -1.92361 0
M  V30 28520 O 2862.46 1.19211 -1.53684 0
M  V30 28521 C 2862.74 -1.99824 -2.9957 0
M  V30 28522 C 2862.59 -3.52692 -2.79156 0
M  V30 28523 C 2863.91 -1.82768 -4.00355 0
M  V30 28524 H 2861.03 -0.430175 -0.59843 0
M  V30 28525 H 2863.67 -1.59184 -1.03733 0
M  V30 28526 H 2861.82 -1.64865 -3.51784 0
M  V30 28527 H 2863.49 -3.97654 -2.33814 0
M  V30 28528 H 2861.74 -3.77418 -2.13864 0
M  V30 28529 H 2862.41 -4.05193 -3.74864 0
M  V30 28530 H 2864.88 -2.1331 -3.57265 0
M  V30 28531 H 2863.76 -2.42334 -4.92509 0
M  V30 28532 H 2864.02 -0.783916 -4.35094 0
M  V30 28533 N 2863.08 1.10667 -1.12208 0
M  V30 28534 C 2864.04 2.15122 -0.790905 0
M  V30 28535 C 2865.04 1.5963 0.19359 0
M  V30 28536 O 2866.23 1.74171 -0.0319034 0
M  V30 28537 C 2863.36 3.40451 -0.174857 0
M  V30 28538 H 2864.56 2.4593 -1.71635 0
M  V30 28539 H 2862.11 1.25989 -0.925015 0
M  V30 28540 H 2862.85 3.15259 0.760422 0
M  V30 28541 H 2862.63 3.82013 -0.883647 0
M  V30 28542 H 2864.12 4.1758 0.0404428 0
M  V30 28543 N 2864.56 0.913621 1.28416 0
M  V30 28544 C 2865.97 0.593268 1.77023 0
M  V30 28545 C 2866.32 -0.89141 1.74781 0
M  V30 28546 O 2865.44 -1.69731 1.3424 0
M  V30 28547 C 2866.04 1.07016 3.21454 0
M  V30 28548 C 2864.6 0.800729 3.67784 0
M  V30 28549 C 2863.75 1.23696 2.48183 0
M  V30 28550 H 2866.7 1.0949 1.14881 0
M  V30 28551 H 2866.72 0.411547 3.78268 0
M  V30 28552 H 2866.23 2.15075 3.23054 0
M  V30 28553 H 2864.33 -0.266659 3.71645 0
M  V30 28554 H 2864.44 1.40838 4.57932 0
M  V30 28555 H 2862.81 0.655699 2.46115 0
M  V30 28556 H 2863.59 2.32589 2.52502 0
M  V30 28557 N 2866.04 -1.4229 0.677588 0
M  V30 28558 C 2867.45 -1.84619 0.277945 0
M  V30 28559 C 2867.8 -1.56716 -1.18045 0
M  V30 28560 O 2866.92 -1.0284 -1.90402 0
M  V30 28561 C 2867.52 -3.35125 0.497678 0
M  V30 28562 C 2866.08 -3.76092 0.152129 0
M  V30 28563 C 2865.22 -2.65845 0.788767 0
M  V30 28564 H 2868.17 -1.32097 0.87955 0
M  V30 28565 H 2868.2 -3.79682 -0.249323 0
M  V30 28566 H 2867.71 -3.55402 1.55919 0
M  V30 28567 H 2865.81 -3.61421 -0.905833 0
M  V30 28568 H 2865.92 -4.75396 0.594597 0
M  V30 28569 H 2864.29 -2.53749 0.219858 0
M  V30 28570 H 2865.07 -2.88945 1.85379 0
M  V30 28571 N 2867.51 -0.421104 -1.5187 0
M  V30 28572 C 2868.74 0.149904 -2.06356 0
M  V30 28573 C 2869.16 1.37849 -1.29008 0
M  V30 28574 O 2868.51 1.79206 -0.34517 0
M  V30 28575 C 2868.56 0.488391 -3.58186 0
M  V30 28576 O 2868.29 -0.691417 -4.3261 0
M  V30 28577 C 2869.79 1.11184 -4.29131 0
M  V30 28578 H 2867.01 0.0151068 -0.67083 0
M  V30 28579 H 2869.55 -0.59551 -1.95637 0
M  V30 28580 H 2867.71 1.1837 -3.68873 0
M  V30 28581 H 2868.12 -0.405998 -5.22926 0
M  V30 28582 H 2869.59 1.29879 -5.36503 0
M  V30 28583 H 2870.07 2.08833 -3.86375 0
M  V30 28584 H 2870.68 0.456384 -4.22844 0
M  V30 28585 N 2868.99 1.56866 -0.151912 0
M  V30 28586 C 2870.24 1.96573 0.498707 0
M  V30 28587 C 2870.57 1.03705 1.64192 0
M  V30 28588 O 2869.85 0.0803774 1.94334 0
M  V30 28589 C 2870.13 3.4593 1.00021 0
M  V30 28590 C 2869.98 4.49576 -0.141846 0
M  V30 28591 C 2871.3 3.97907 1.88037 0
M  V30 28592 H 2868.42 0.71473 0.179807 0
M  V30 28593 H 2871.06 1.88552 -0.23413 0
M  V30 28594 H 2869.21 3.52896 1.6247 0
M  V30 28595 H 2870.88 4.54686 -0.778349 0
M  V30 28596 H 2869.13 4.26355 -0.800265 0
M  V30 28597 H 2869.8 5.5143 0.25085 0
M  V30 28598 H 2872.27 3.93451 1.35409 0
M  V30 28599 H 2871.15 5.02868 2.20034 0
M  V30 28600 H 2871.41 3.40557 2.8191 0
M  V30 28601 N 2870.47 -0.121866 1.57128 0
M  V30 28602 C 2871.7 -0.844418 1.88884 0
M  V30 28603 C 2872.11 -1.73572 0.742854 0
M  V30 28604 O 2871.47 -1.80238 -0.286443 0
M  V30 28605 C 2871.52 -1.68023 3.20079 0
M  V30 28606 O 2871.24 -0.824823 4.30265 0
M  V30 28607 C 2872.74 -2.50819 3.6552 0
M  V30 28608 H 2869.96 -0.242896 0.625494 0
M  V30 28609 H 2872.51 -0.107115 2.04219 0
M  V30 28610 H 2870.66 -2.37032 3.06422 0
M  V30 28611 H 2871.08 -1.40104 5.05441 0
M  V30 28612 H 2872.55 -3.05 4.60086 0
M  V30 28613 H 2873.03 -3.28043 2.92035 0
M  V30 28614 H 2873.63 -1.87057 3.81955 0
M  V30 28615 N 2871.95 -1.52648 -0.391965 0
M  V30 28616 C 2873.36 -1.59522 -0.970036 0
M  V30 28617 C 2873.71 -0.44624 -1.91058 0
M  V30 28618 O 2872.84 0.431088 -2.12063 0
M  V30 28619 C 2873.43 -2.89128 -1.76609 0
M  V30 28620 C 2871.99 -2.98424 -2.29391 0
M  V30 28621 C 2871.14 -2.5461 -1.09859 0
M  V30 28622 H 2874.09 -1.57769 -0.17161 0
M  V30 28623 H 2874.11 -2.75447 -2.62506 0
M  V30 28624 H 2873.62 -3.72733 -1.08129 0
M  V30 28625 H 2871.72 -2.1935 -3.01192 0
M  V30 28626 H 2871.83 -4.03006 -2.59081 0
M  V30 28627 H 2870.2 -2.0886 -1.45773 0
M  V30 28628 H 2870.98 -3.40607 -0.42919 0
M  V30 28629 N 2873.43 0.650235 -1.43561 0
M  V30 28630 C 2874.67 1.41219 -1.45551 0
M  V30 28631 C 2875.01 1.94033 -0.0805813 0
M  V30 28632 O 2874.28 1.72476 0.899013 0
M  V30 28633 C 2874.56 2.59144 -2.50033 0
M  V30 28634 C 2874.42 2.11803 -3.96812 0
M  V30 28635 C 2875.74 3.61355 -2.51218 0
M  V30 28636 H 2872.85 0.512146 -0.529976 0
M  V30 28637 H 2875.5 0.736902 -1.75128 0
M  V30 28638 H 2873.65 3.16754 -2.24943 0
M  V30 28639 H 2875.32 1.59171 -4.32969 0
M  V30 28640 H 2873.56 1.43149 -4.09501 0
M  V30 28641 H 2874.23 2.96617 -4.65535 0
M  V30 28642 H 2876.71 3.1351 -2.73589 0
M  V30 28643 H 2875.58 4.41413 -3.2626 0
M  V30 28644 H 2875.85 4.14147 -1.54708 0
M  V30 28645 N 2874.9 1.30141 0.88888 0
M  V30 28646 C 2876.32 1.16896 1.45576 0
M  V30 28647 C 2876.67 -0.231832 1.94826 0
M  V30 28648 O 2875.79 -1.12821 1.84663 0
M  V30 28649 C 2876.39 2.11599 2.64596 0
M  V30 28650 C 2874.95 2.02344 3.17386 0
M  V30 28651 C 2874.09 2.01905 1.90078 0
M  V30 28652 H 2877.04 1.42468 0.699185 0
M  V30 28653 H 2877.06 1.69455 3.40684 0
M  V30 28654 H 2876.58 3.13542 2.2872 0
M  V30 28655 H 2874.68 1.03529 3.57928 0
M  V30 28656 H 2874.79 2.9054 3.8095 0
M  V30 28657 H 2873.15 1.46652 2.08243 0
M  V30 28658 H 2873.94 3.05571 1.56465 0
M  V30 28659 N 2876.38 -1.1007 1.12794 0
M  V30 28660 C 2877.61 -1.86425 0.90887 0
M  V30 28661 C 2878.03 -1.80279 -0.536761 0
M  V30 28662 O 2877.39 -1.17546 -1.38031 0
M  V30 28663 C 2877.44 -3.32608 1.393 0
M  V30 28664 O 2876.54 -4.08387 0.573918 0
M  V30 28665 H 2875.88 -0.578326 0.326245 0
M  V30 28666 H 2878.41 -1.3904 1.50097 0
M  V30 28667 H 2878.42 -3.83457 1.39373 0
M  V30 28668 H 2877.1 -3.36397 2.44561 0
M  V30 28669 H 2875.68 -3.67358 0.640503 0
M  V30 28670 N 2877.86 -0.920419 -1.2793 0
M  V30 28671 C 2878.79 -0.431064 -2.29487 0
M  V30 28672 C 2879.77 0.504833 -1.62436 0
M  V30 28673 O 2880.96 0.411142 -1.89798 0
M  V30 28674 C 2878.09 0.323648 -3.45789 0
M  V30 28675 C 2877.04 -0.523732 -4.24784 0
M  V30 28676 C 2876.37 0.359716 -5.33489 0
M  V30 28677 C 2877.67 -1.78445 -4.90871 0
M  V30 28678 H 2879.36 -1.2798 -2.70669 0
M  V30 28679 H 2876.91 -0.616836 -1.3012 0
M  V30 28680 H 2878.86 0.676879 -4.15928 0
M  V30 28681 H 2877.58 1.20634 -3.03504 0
M  V30 28682 H 2876.24 -0.859572 -3.5638 0
M  V30 28683 H 2875.89 1.24115 -4.87447 0
M  V30 28684 H 2875.59 -0.203709 -5.87247 0
M  V30 28685 H 2877.11 0.708681 -6.06473 0
M  V30 28686 H 2878.53 -1.49973 -5.53336 0
M  V30 28687 H 2876.93 -2.2908 -5.54655 0
M  V30 28688 H 2878 -2.50831 -4.14984 0
M  V30 28689 N 2879.34 1.41929 -0.685124 0
M  V30 28690 C 2880.25 2.34596 -0.0134453 0
M  V30 28691 C 2881.26 1.5566 0.777562 0
M  V30 28692 O 2882.44 1.88185 0.71752 0
M  V30 28693 C 2879.51 3.34299 0.918972 0
M  V30 28694 C 2878.57 4.29128 0.121342 0
M  V30 28695 C 2877.8 5.24069 1.00935 0
M  V30 28696 O 2878.02 5.24196 2.24889 0
M  V30 28697 O 2876.96 6.00104 0.464618 0
M  V30 28698 H 2880.78 2.93591 -0.777029 0
M  V30 28699 H 2878.37 1.42606 -0.445404 0
M  V30 28700 H 2880.25 3.95523 1.45395 0
M  V30 28701 H 2878.92 2.77762 1.66223 0
M  V30 28702 H 2877.83 3.71286 -0.457986 0
M  V30 28703 H 2879.16 4.88735 -0.583023 0
M  V30 28704 N 2880.82 0.429152 1.51644 0
M  V30 28705 C 2881.78 -0.374686 2.26117 0
M  V30 28706 C 2882.78 -0.956691 1.29244 0
M  V30 28707 O 2883.97 -0.832425 1.53024 0
M  V30 28708 C 2881.1 -1.52932 3.04671 0
M  V30 28709 H 2882.29 0.277871 2.9861 0
M  V30 28710 H 2879.85 0.182124 1.55235 0
M  V30 28711 H 2880.58 -2.21817 2.36575 0
M  V30 28712 H 2880.37 -1.11826 3.75816 0
M  V30 28713 H 2881.86 -2.09745 3.61105 0
M  V30 28714 N 2882.29 -1.56783 0.160229 0
M  V30 28715 C 2883.71 -1.83228 -0.358384 0
M  V30 28716 C 2884.06 -1.07955 -1.6383 0
M  V30 28717 O 2883.18 -0.329032 -2.13884 0
M  V30 28718 C 2883.78 -3.32369 -0.657 0
M  V30 28719 C 2882.34 -3.59348 -1.12009 0
M  V30 28720 C 2881.48 -2.76893 -0.150102 0
M  V30 28721 H 2884.43 -1.53967 0.384696 0
M  V30 28722 H 2884.45 -3.49244 -1.51027 0
M  V30 28723 H 2883.97 -3.87126 0.274715 0
M  V30 28724 H 2882.07 -3.0999 -2.06729 0
M  V30 28725 H 2882.18 -4.67744 -1.03692 0
M  V30 28726 H 2880.54 -2.46389 -0.645318 0
M  V30 28727 H 2881.33 -3.34428 0.775438 0
M  V30 28728 N 2883.77 0.113531 -1.57191 0
M  V30 28729 C 2885 0.838303 -1.89703 0
M  V30 28730 C 2885.42 1.72383 -0.75271 0
M  V30 28731 O 2884.78 1.78858 0.296544 0
M  V30 28732 C 2884.83 1.64307 -3.20992 0
M  V30 28733 O 2883.93 2.75048 -3.07282 0
M  V30 28734 H 2883.27 0.231485 -0.622343 0
M  V30 28735 H 2885.8 0.0942869 -2.04383 0
M  V30 28736 H 2885.81 2.03116 -3.53847 0
M  V30 28737 H 2884.49 0.993048 -4.0387 0
M  V30 28738 H 2883.07 2.39401 -2.85905 0
M  V30 28739 N 2885.25 1.52854 0.383864 0
M  V30 28740 C 2886.16 1.80928 1.49339 0
M  V30 28741 C 2887.18 0.696376 1.59457 0
M  V30 28742 O 2888.35 0.984512 1.75697 0
M  V30 28743 C 2885.42 1.97689 2.84815 0
M  V30 28744 C 2884.48 3.21603 2.84377 0
M  V30 28745 C 2883.71 3.37555 4.13391 0
M  V30 28746 O 2883.94 2.58201 5.08614 0
M  V30 28747 O 2882.87 4.30833 4.20317 0
M  V30 28748 H 2886.7 2.75154 1.28545 0
M  V30 28749 H 2884.28 1.38008 0.572204 0
M  V30 28750 H 2886.16 2.10391 3.65121 0
M  V30 28751 H 2884.84 1.06653 3.05625 0
M  V30 28752 H 2883.74 3.14339 2.02834 0
M  V30 28753 H 2885.08 4.12503 2.68519 0
M  V30 28754 N 2886.73 -0.642612 1.43904 0
M  V30 28755 C 2887.66 -1.76797 1.45861 0
M  V30 28756 C 2888.67 -1.58918 0.353386 0
M  V30 28757 O 2889.86 -1.67444 0.618455 0
M  V30 28758 C 2886.96 -3.1437 1.26589 0
M  V30 28759 C 2886.14 -3.58812 2.50145 0
M  V30 28760 C 2885.2 -4.75223 2.25941 0
M  V30 28761 O 2884.22 -4.8412 2.9936 0
M  V30 28762 N 2885.42 -5.6615 1.28273 0
M  V30 28763 H 2888.19 -1.75593 2.42872 0
M  V30 28764 H 2885.75 -0.826807 1.39196 0
M  V30 28765 H 2887.74 -3.89951 1.08262 0
M  V30 28766 H 2886.31 -3.10284 0.379834 0
M  V30 28767 H 2885.53 -2.73563 2.83826 0
M  V30 28768 H 2886.82 -3.85254 3.32351 0
M  V30 28769 H 2886.22 -5.61645 0.67614 0
M  V30 28770 H 2884.77 -6.41408 1.15928 0
M  V30 28771 N 2888.21 -1.30611 -0.881966 0
M  V30 28772 C 2889.17 -1.17223 -1.96955 0
M  V30 28773 C 2890.17 -0.102626 -1.60472 0
M  V30 28774 O 2891.36 -0.350973 -1.70628 0
M  V30 28775 C 2888.49 -0.796631 -3.31461 0
M  V30 28776 H 2889.69 -2.13849 -2.10258 0
M  V30 28777 H 2887.24 -1.1405 -1.06875 0
M  V30 28778 H 2887.97 0.168996 -3.23859 0
M  V30 28779 H 2887.76 -1.56965 -3.59311 0
M  V30 28780 H 2889.25 -0.726522 -4.11232 0
M  V30 28781 N 2889.69 1.0947 -1.13376 0
M  V30 28782 C 2891.1 1.6313 -0.908039 0
M  V30 28783 C 2891.45 1.88171 0.555543 0
M  V30 28784 O 2890.57 1.63107 1.42215 0
M  V30 28785 C 2891.17 2.96358 -1.64187 0
M  V30 28786 C 2889.73 3.46845 -1.46203 0
M  V30 28787 C 2888.87 2.2127 -1.67138 0
M  V30 28788 H 2891.82 0.928388 -1.28711 0
M  V30 28789 H 2891.85 3.64292 -1.0987 0
M  V30 28790 H 2891.36 2.78101 -2.70705 0
M  V30 28791 H 2889.46 3.70227 -0.419853 0
M  V30 28792 H 2889.57 4.24311 -2.22479 0
M  V30 28793 H 2887.94 2.29904 -1.0962 0
M  V30 28794 H 2888.72 2.05533 -2.74975 0
M  V30 28795 N 2891.16 0.92719 1.2744 0
M  V30 28796 C 2892.39 0.583657 1.98497 0
M  V30 28797 C 2892.81 -0.838211 1.69173 0
M  V30 28798 O 2892.16 -1.55703 0.951997 0
M  V30 28799 C 2892.21 0.799403 3.5255 0
M  V30 28800 O 2891.94 2.16533 3.80848 0
M  V30 28801 C 2893.44 0.464514 4.4086 0
M  V30 28802 H 2890.66 0.221224 0.633483 0
M  V30 28803 H 2893.2 1.24407 1.62306 0
M  V30 28804 H 2891.36 0.185796 3.86954 0
M  V30 28805 H 2891.77 2.21495 4.75437 0
M  V30 28806 H 2893.24 0.666171 5.47965 0
M  V30 28807 H 2893.72 -0.599919 4.35083 0
M  V30 28808 H 2894.33 1.05624 4.11975 0
M  V30 28809 N 2892.64 -1.41564 0.692641 0
M  V30 28810 C 2893.55 -2.34586 0.0258863 0
M  V30 28811 C 2894.57 -1.5607 -0.769296 0
M  V30 28812 O 2895.74 -1.88563 -0.70753 0
M  V30 28813 C 2892.81 -3.34782 -0.90123 0
M  V30 28814 C 2891.87 -4.29187 -0.0985824 0
M  V30 28815 C 2891.1 -5.24596 -0.981542 0
M  V30 28816 O 2891.33 -5.25381 -2.22106 0
M  V30 28817 O 2890.26 -6.00342 -0.432787 0
M  V30 28818 H 2894.09 -2.93175 0.792588 0
M  V30 28819 H 2891.67 -1.42368 0.45296 0
M  V30 28820 H 2893.55 -3.96288 -1.43295 0
M  V30 28821 H 2892.23 -2.7864 -1.64747 0
M  V30 28822 H 2891.13 -3.71038 0.477669 0
M  V30 28823 H 2892.47 -4.88419 0.608933 0
M  V30 28824 N 2894.12 -0.437188 -1.51415 0
M  V30 28825 C 2895.05 0.410131 -2.25501 0
M  V30 28826 C 2896.06 0.986421 -1.29513 0
M  V30 28827 O 2897.25 0.880587 -1.55267 0
M  V30 28828 C 2894.35 1.5857 -2.99514 0
M  V30 28829 C 2893.53 1.12831 -4.22597 0
M  V30 28830 C 2892.59 2.17399 -4.79191 0
M  V30 28831 O 2891.61 1.7684 -5.41033 0
M  V30 28832 N 2892.81 3.49881 -4.6321 0
M  V30 28833 H 2895.58 -0.224836 -2.98855 0
M  V30 28834 H 2893.14 -0.266069 -1.59699 0
M  V30 28835 H 2895.13 2.28146 -3.34262 0
M  V30 28836 H 2893.7 2.12602 -2.29171 0
M  V30 28837 H 2892.92 0.259626 -3.93344 0
M  V30 28838 H 2894.21 0.800107 -5.0247 0
M  V30 28839 H 2893.61 3.85565 -4.13951 0
M  V30 28840 H 2892.16 4.15352 -5.02321 0
M  V30 28841 N 2895.6 1.56696 -0.168541 0
M  V30 28842 C 2897.01 1.58493 0.187658 0
M  V30 28843 C 2897.21 1.18378 1.63061 0
M  V30 28844 O 2896.27 0.894083 2.36141 0
M  V30 28845 C 2897.58 3.00563 -0.0906386 0
M  V30 28846 C 2899.13 3.12987 -0.02863 0
M  V30 28847 C 2899.61 4.57144 -0.279879 0
M  V30 28848 N 2901.1 4.62641 -0.227558 0
M  V30 28849 C 2901.83 5.7203 -0.396174 0
M  V30 28850 N 2901.33 6.89987 -0.623694 0
M  V30 28851 N 2903.12 5.61117 -0.332272 0
M  V30 28852 H 2895.27 1.8106 -1.11045 0
M  V30 28853 H 2897.53 0.839048 -0.44125 0
M  V30 28854 H 2897.24 3.34379 -1.09012 0
M  V30 28855 H 2897.11 3.72086 0.619012 0
M  V30 28856 H 2899.5 2.78999 0.961422 0
M  V30 28857 H 2899.58 2.43906 -0.770948 0
M  V30 28858 H 2899.23 4.9184 -1.26713 0
M  V30 28859 H 2899.16 5.2438 0.483017 0
M  V30 28860 H 2901.65 3.77857 -0.0572387 0
M  V30 28861 H 2901.96 7.69231 -0.741881 0
M  V30 28862 H 2900.31 6.91856 -0.660275 0
M  V30 28863 H 2903.5 4.67843 -0.155133 0
M  V30 28864 H 2903.67 6.46314 -0.467108 0
M  V30 28865 N 2897.08 -0.105193 1.57249 0
M  V30 28866 C 2898.49 -0.660834 1.74613 0
M  V30 28867 C 2898.84 -1.79625 0.789262 0
M  V30 28868 O 2897.96 -2.16372 -0.034623 0
M  V30 28869 C 2898.56 -1.20553 3.16626 0
M  V30 28870 C 2897.12 -1.70734 3.3545 0
M  V30 28871 C 2896.26 -0.612716 2.70446 0
M  V30 28872 H 2899.21 0.120818 1.58239 0
M  V30 28873 H 2899.24 -2.07502 3.1894 0
M  V30 28874 H 2898.75 -0.378944 3.86246 0
M  V30 28875 H 2896.85 -2.55826 2.70895 0
M  V30 28876 H 2896.96 -1.80728 4.43705 0
M  V30 28877 H 2895.33 -1.04971 2.32063 0
M  V30 28878 H 2896.11 0.203127 3.42699 0
M  V30 28879 N 2898.55 -1.53055 -0.375752 0
M  V30 28880 C 2899.8 -1.68411 -1.11724 0
M  V30 28881 C 2900.12 -0.433263 -1.90126 0
M  V30 28882 O 2899.39 0.552562 -1.87946 0
M  V30 28883 H 2897.97 -0.620821 -0.41544 0
M  V30 28884 H 2900.64 -1.90213 -0.424835 0
M  V30 28885 H 2899.73 -2.54059 -1.81275 0
M  V30 28886 N 2900.03 0.634971 -1.44242 0
M  V30 28887 C 2901.28 1.39667 -1.47041 0
M  V30 28888 C 2901.61 1.93936 -0.101157 0
M  V30 28889 O 2900.89 1.7342 0.880669 0
M  V30 28890 C 2901.17 2.56478 -2.52767 0
M  V30 28891 C 2901.02 2.07582 -3.99036 0
M  V30 28892 C 2902.34 3.5867 -2.55037 0
M  V30 28893 H 2899.46 0.506496 -0.535379 0
M  V30 28894 H 2902.1 0.718286 -1.759 0
M  V30 28895 H 2900.25 3.1435 -2.2829 0
M  V30 28896 H 2901.92 1.5457 -4.34633 0
M  V30 28897 H 2900.17 1.38797 -4.10996 0
M  V30 28898 H 2900.84 2.91662 -4.68655 0
M  V30 28899 H 2903.31 3.1059 -2.76899 0
M  V30 28900 H 2902.19 4.37928 -3.30924 0
M  V30 28901 H 2902.45 4.12483 -1.59092 0
M  V30 28902 N 2901.51 1.31076 0.875027 0
M  V30 28903 C 2902.44 1.14117 1.98771 0
M  V30 28904 C 2903.46 0.0816405 1.62595 0
M  V30 28905 O 2904.64 0.328641 1.75449 0
M  V30 28906 C 2901.74 0.720282 3.31157 0
M  V30 28907 C 2900.92 1.86373 3.95707 0
M  V30 28908 C 2899.98 1.42973 5.06404 0
M  V30 28909 O 2899 2.13857 5.27498 0
M  V30 28910 N 2900.2 0.314296 5.79649 0
M  V30 28911 H 2902.97 2.09955 2.13867 0
M  V30 28912 H 2900.53 1.23344 1.04871 0
M  V30 28913 H 2902.52 0.412758 4.0259 0
M  V30 28914 H 2901.09 -0.146341 3.12257 0
M  V30 28915 H 2900.31 2.33884 3.1732 0
M  V30 28916 H 2901.6 2.62974 4.35571 0
M  V30 28917 H 2901 -0.276129 5.65026 0
M  V30 28918 H 2899.56 0.0662787 6.51766 0
M  V30 28919 N 2902.99 -1.08867 1.13955 0
M  V30 28920 C 2903.9 -2.1921 0.835705 0
M  V30 28921 C 2904.91 -1.73046 -0.181975 0
M  V30 28922 O 2906.09 -2.01397 -0.0116307 0
M  V30 28923 C 2903.16 -3.4529 0.312386 0
M  V30 28924 C 2902.22 -4.06105 1.39203 0
M  V30 28925 C 2901.45 -5.26166 0.893589 0
M  V30 28926 O 2901.67 -5.69776 -0.266707 0
M  V30 28927 O 2900.61 -5.78255 1.67047 0
M  V30 28928 H 2904.43 -2.47664 1.75774 0
M  V30 28929 H 2902.02 -1.17913 0.917442 0
M  V30 28930 H 2903.9 -4.21392 0.0262323 0
M  V30 28931 H 2902.57 -3.18425 -0.581986 0
M  V30 28932 H 2901.48 -3.31613 1.73158 0
M  V30 28933 H 2902.81 -4.37208 2.26075 0
M  V30 28934 N 2904.47 -0.933936 -1.26946 0
M  V30 28935 C 2905.71 -0.585037 -1.95849 0
M  V30 28936 C 2906.07 0.858772 -1.71724 0
M  V30 28937 O 2907.27 1.31625 -2.34368 0
M  V30 28938 C 2905.54 -0.909413 -3.45636 0
M  V30 28939 S 2907.1 -0.669968 -4.33655 0
M  V30 28940 H 2903.92 -0.215733 -0.677481 0
M  V30 28941 H 2906.52 -1.2037 -1.54049 0
M  V30 28942 H 2905.23 -1.95776 -3.60693 0
M  V30 28943 H 2904.76 -0.280184 -3.92401 0
M  V30 28944 H 2906.77 0.469291 -4.93976 0
M  V30 28945 N 2905.94 1.41194 -0.700139 0
M  V30 28946 C 2907.17 2.05179 -0.241864 0
M  V30 28947 C 2907.58 1.52805 1.11567 0
M  V30 28948 O 2906.93 0.673072 1.70925 0
M  V30 28949 C 2906.99 3.59276 -0.127013 0
M  V30 28950 C 2906.65 4.34466 -1.41733 0
M  V30 28951 C 2907.65 4.63447 -2.35612 0
M  V30 28952 C 2905.33 4.73657 -1.67197 0
M  V30 28953 C 2907.33 5.30584 -3.53213 0
M  V30 28954 C 2905.01 5.40529 -2.85082 0
M  V30 28955 C 2906.01 5.6892 -3.77914 0
M  V30 28956 O 2905.7 6.34415 -4.93734 0
M  V30 28957 H 2905.43 0.667112 -0.109259 0
M  V30 28958 H 2907.99 1.81871 -0.95457 0
M  V30 28959 H 2906.22 3.81342 0.641504 0
M  V30 28960 H 2907.91 4.04829 0.294677 0
M  V30 28961 H 2908.67 4.33647 -2.17198 0
M  V30 28962 H 2904.55 4.50936 -0.958014 0
M  V30 28963 H 2908.09 5.52661 -4.25689 0
M  V30 28964 H 2903.99 5.69747 -3.03412 0
M  V30 28965 H 2904.76 6.52911 -4.93609 0
M  V30 28966 N 2907.42 0.445212 1.51181 0
M  V30 28967 C 2908.37 -0.380355 2.24805 0
M  V30 28968 C 2909.36 -0.983459 1.27346 0
M  V30 28969 O 2910.55 -0.900295 1.52393 0
M  V30 28970 C 2907.68 -1.47654 3.09924 0
M  V30 28971 C 2906.76 -0.882444 4.14818 0
M  V30 28972 N 2907.15 -0.0182389 5.05797 0
M  V30 28973 C 2905.45 -1.14919 4.3094 0
M  V30 28974 C 2906.15 0.316254 5.8084 0
M  V30 28975 N 2905.13 -0.302118 5.4276 0
M  V30 28976 H 2908.93 0.285789 2.92507 0
M  V30 28977 H 2906.45 0.257761 1.60341 0
M  V30 28978 H 2908.44 -2.08091 3.61253 0
M  V30 28979 H 2907.1 -2.14494 2.43767 0
M  V30 28980 H 2908.11 0.34877 5.16724 0
M  V30 28981 H 2904.79 -1.8145 3.76008 0
M  V30 28982 H 2906.18 1.01998 6.64113 0
M  V30 28983 N 2908.9 -1.56605 0.176849 0
M  V30 28984 C 2910.15 -1.9666 -0.465758 0
M  V30 28985 C 2910.47 -1.06415 -1.63404 0
M  V30 28986 O 2909.74 -0.131637 -1.95457 0
M  V30 28987 H 2908.32 -0.726198 -0.175059 0
M  V30 28988 H 2910.98 -1.93167 0.259323 0
M  V30 28989 H 2910.08 -3.01078 -0.822085 0
M  V30 28990 N 2910.38 0.0968524 -1.57302 0
M  V30 28991 C 2911.33 1.1365 -2.02944 0
M  V30 28992 C 2912.32 1.41576 -0.930198 0
M  V30 28993 O 2913.53 1.41277 -1.11538 0
M  V30 28994 H 2909.9 0.38372 -0.646733 0
M  V30 28995 H 2911.87 0.725216 -2.89453 0
M  V30 28996 C 2910.62 2.44899 -2.46819 0
M  V30 28997 H 2909.94 2.24255 -3.30983 0
M  V30 28998 H 2911.38 3.16151 -2.82532 0
M  V30 28999 C 2909.84 3.09072 -1.34076 0
M  V30 29000 O 2910.37 3.96091 -0.668925 0
M  V30 29001 N 2908.58 2.69295 -1.09219 0
M  V30 29002 H 2908.13 1.98623 -1.64032 0
M  V30 29003 H 2908.08 3.12558 -0.339839 0
M  V30 29004 N 2911.86 1.53252 0.36763 0
M  V30 29005 C 2913.1 1.69001 1.10829 0
M  V30 29006 C 2913.43 0.44334 1.89893 0
M  V30 29007 O 2912.7 -0.542587 1.88236 0
M  V30 29008 H 2911.28 0.623015 0.412142 0
M  V30 29009 H 2913.94 1.90436 0.414742 0
M  V30 29010 H 2913.03 2.55016 1.79925 0
M  V30 29011 N 2913.34 -0.627313 1.44577 0
M  V30 29012 C 2914.27 -1.7524 1.47728 0
M  V30 29013 C 2915.28 -1.58535 0.370221 0
M  V30 29014 O 2916.47 -1.66778 0.63618 0
M  V30 29015 C 2913.57 -3.1301 1.29916 0
M  V30 29016 C 2912.74 -3.56139 2.53937 0
M  V30 29017 C 2911.8 -4.728 2.30969 0
M  V30 29018 O 2910.83 -4.80918 3.04478 0
M  V30 29019 N 2912.03 -5.64758 1.34271 0
M  V30 29020 H 2914.79 -1.73008 2.44721 0
M  V30 29021 H 2912.36 -0.811997 1.40065 0
M  V30 29022 H 2914.35 -3.8878 1.12392 0
M  V30 29023 H 2912.92 -3.09863 0.412723 0
M  V30 29024 H 2912.14 -2.70537 2.86711 0
M  V30 29025 H 2913.43 -3.81707 3.36418 0
M  V30 29026 H 2912.82 -5.60896 0.735672 0
M  V30 29027 H 2911.38 -6.40142 1.22724 0
M  V30 29028 N 2914.81 -1.31539 -0.868063 0
M  V30 29029 C 2916.04 -1.24435 -1.65924 0
M  V30 29030 C 2916.46 0.186903 -1.87169 0
M  V30 29031 O 2915.82 1.13369 -1.41482 0
M  V30 29032 C 2915.87 -1.99565 -3.00343 0
M  V30 29033 O 2914.97 -1.33429 -3.90218 0
M  V30 29034 H 2914.31 -0.429521 -0.506367 0
M  V30 29035 H 2916.84 -1.73639 -1.08216 0
M  V30 29036 H 2916.85 -2.09233 -3.50265 0
M  V30 29037 H 2915.53 -3.0365 -2.842 0
M  V30 29038 H 2914.11 -1.32225 -3.4867 0
M  V30 29039 N 2916.29 1.08262 -1.1453 0
M  V30 29040 C 2917.52 1.84149 -0.936636 0
M  V30 29041 C 2917.93 1.81963 0.518266 0
M  V30 29042 O 2917.27 1.22274 1.37094 0
M  V30 29043 C 2917.33 3.32706 -1.36188 0
M  V30 29044 C 2917 3.58624 -2.83263 0
M  V30 29045 C 2918 3.53343 -3.81372 0
M  V30 29046 C 2915.68 3.86587 -3.20711 0
M  V30 29047 C 2917.67 3.75659 -5.14936 0
M  V30 29048 C 2915.36 4.08556 -4.54451 0
M  V30 29049 C 2916.36 4.03085 -5.51372 0
M  V30 29050 O 2916.05 4.24476 -6.82697 0
M  V30 29051 H 2915.78 0.588142 -0.333264 0
M  V30 29052 H 2918.33 1.37627 -1.52473 0
M  V30 29053 H 2916.56 3.79992 -0.71713 0
M  V30 29054 H 2918.25 3.90033 -1.12379 0
M  V30 29055 H 2919.02 3.31753 -3.53787 0
M  V30 29056 H 2914.9 3.89964 -2.45864 0
M  V30 29057 H 2918.44 3.71305 -5.90575 0
M  V30 29058 H 2914.34 4.29631 -4.81755 0
M  V30 29059 H 2915.11 4.41873 -6.88978 0
M  V30 29060 N 2917.77 0.940655 1.26449 0
M  V30 29061 C 2919.19 0.642884 1.46079 0
M  V30 29062 C 2919.39 -0.803965 1.84766 0
M  V30 29063 O 2918.44 -1.58065 1.96905 0
M  V30 29064 C 2919.75 1.60386 2.54356 0
M  V30 29065 C 2921.3 1.6135 2.68207 0
M  V30 29066 C 2921.78 2.56176 3.79655 0
M  V30 29067 N 2923.27 2.54458 3.87047 0
M  V30 29068 C 2924 3.24516 4.72734 0
M  V30 29069 N 2923.5 4.03997 5.62813 0
M  V30 29070 N 2925.29 3.1347 4.66576 0
M  V30 29071 H 2917.44 1.87586 0.996256 0
M  V30 29072 H 2919.71 0.806099 0.498907 0
M  V30 29073 H 2919.41 2.63664 2.32754 0
M  V30 29074 H 2919.29 1.35552 3.52002 0
M  V30 29075 H 2921.67 0.587964 2.89183 0
M  V30 29076 H 2921.75 1.90238 1.71006 0
M  V30 29077 H 2921.4 3.58847 3.59432 0
M  V30 29078 H 2921.33 2.24578 4.76311 0
M  V30 29079 H 2923.82 1.96745 3.22645 0
M  V30 29080 H 2924.13 4.54407 6.25087 0
M  V30 29081 H 2922.48 4.08098 5.62566 0
M  V30 29082 H 2925.67 2.50859 3.95205 0
M  V30 29083 H 2925.84 3.68336 5.33134 0
M  V30 29084 N 2919.25 -1.40821 0.707617 0
M  V30 29085 C 2920.5 -2.00631 0.243224 0
M  V30 29086 C 2920.82 -1.56367 -1.16509 0
M  V30 29087 O 2920.09 -0.799585 -1.78839 0
M  V30 29088 H 2918.67 -0.741924 0.0869334 0
M  V30 29089 H 2921.33 -1.72274 0.911468 0
M  V30 29090 H 2920.42 -3.10929 0.270068 0
M  V30 29091 N 2920.73 -0.453223 -1.50943 0
M  V30 29092 C 2921.95 0.106099 -2.06628 0
M  V30 29093 C 2922.37 1.35082 -1.31903 0
M  V30 29094 O 2921.73 1.78434 -0.383105 0
M  V30 29095 C 2921.78 0.412305 -3.59141 0
M  V30 29096 O 2921.5 -0.783024 -4.31046 0
M  V30 29097 C 2923 1.02056 -4.31392 0
M  V30 29098 H 2920.22 0.000874102 -0.670999 0
M  V30 29099 H 2922.76 -0.636874 -1.9433 0
M  V30 29100 H 2920.92 1.10519 -3.71301 0
M  V30 29101 H 2921.33 -0.516827 -5.21947 0
M  V30 29102 H 2922.81 1.1847 -5.39137 0
M  V30 29103 H 2923.28 2.00591 -3.90717 0
M  V30 29104 H 2923.89 0.36659 -4.23717 0
M  V30 29105 N 2922.2 1.56509 -0.185151 0
M  V30 29106 C 2923.43 2.01381 0.461434 0
M  V30 29107 C 2923.84 1.06447 1.56415 0
M  V30 29108 O 2923.18 0.0597837 1.83603 0
M  V30 29109 C 2923.25 3.42665 1.08725 0
M  V30 29110 C 2922.91 4.5683 0.1245 0
M  V30 29111 C 2923.91 5.15663 -0.662386 0
M  V30 29112 C 2921.59 5.02297 0.0163064 0
M  V30 29113 C 2923.59 6.18404 -1.54453 0
M  V30 29114 C 2921.27 6.04884 -0.869408 0
M  V30 29115 C 2922.27 6.6281 -1.6484 0
M  V30 29116 O 2921.96 7.63405 -2.51929 0
M  V30 29117 H 2921.69 0.665049 0.121188 0
M  V30 29118 H 2924.25 2.03369 -0.288154 0
M  V30 29119 H 2922.48 3.37632 1.88524 0
M  V30 29120 H 2924.16 3.71405 1.63746 0
M  V30 29121 H 2924.93 4.8141 -0.589047 0
M  V30 29122 H 2920.81 4.56914 0.61245 0
M  V30 29123 H 2924.35 6.63544 -2.15301 0
M  V30 29124 H 2920.25 6.38562 -0.943898 0
M  V30 29125 H 2921.02 7.80784 -2.45598 0
M  V30 29126 N 2923.68 -0.0885089 1.57351 0
M  V30 29127 C 2924.91 -0.808017 1.91013 0
M  V30 29128 C 2925.33 -1.71164 0.780039 0
M  V30 29129 O 2924.69 -1.79307 -0.268051 0
M  V30 29130 C 2924.74 -1.59179 3.23565 0
M  V30 29131 O 2923.84 -2.70124 3.11619 0
M  V30 29132 H 2923.18 -0.221554 0.625947 0
M  V30 29133 H 2925.71 -0.0617594 2.04507 0
M  V30 29134 H 2925.72 -1.97461 3.57034 0
M  V30 29135 H 2924.4 -0.92867 4.05399 0
M  V30 29136 H 2922.97 -2.34822 2.89678 0
M  V30 29137 N 2925.16 -1.53445 -0.359498 0
M  V30 29138 C 2926.39 -1.73839 -1.12195 0
M  V30 29139 C 2926.8 -0.470139 -1.82853 0
M  V30 29140 O 2926.16 0.557318 -1.73782 0
M  V30 29141 C 2926.21 -2.9079 -2.14763 0
M  V30 29142 O 2925.93 -4.12708 -1.46982 0
M  V30 29143 C 2927.43 -3.23106 -3.03509 0
M  V30 29144 H 2924.65 -0.581259 -0.33523 0
M  V30 29145 H 2927.2 -2.00212 -0.416563 0
M  V30 29146 H 2925.35 -2.66793 -2.80891 0
M  V30 29147 H 2925.77 -4.78243 -2.1537 0
M  V30 29148 H 2927.24 -4.08329 -3.71446 0
M  V30 29149 H 2927.72 -2.38728 -3.68654 0
M  V30 29150 H 2928.32 -3.4905 -2.4299 0
M  V30 29151 N 2926.64 0.619637 -1.44908 0
M  V30 29152 C 2927.87 1.40588 -1.51798 0
M  V30 29153 C 2928.28 1.8823 -0.146586 0
M  V30 29154 O 2927.64 1.61514 0.849669 0
M  V30 29155 C 2927.69 2.61849 -2.49233 0
M  V30 29156 O 2927.41 2.1619 -3.81043 0
M  V30 29157 C 2928.91 3.54848 -2.65703 0
M  V30 29158 H 2926.13 0.430768 -0.51447 0
M  V30 29159 H 2928.67 0.75678 -1.89982 0
M  V30 29160 H 2926.83 3.22826 -2.14154 0
M  V30 29161 H 2927.24 2.94889 -4.33752 0
M  V30 29162 H 2928.72 4.36509 -3.37882 0
M  V30 29163 H 2929.19 4.04407 -1.71323 0
M  V30 29164 H 2929.8 2.99732 -3.0173 0
M  V30 29165 N 2928.12 1.31997 0.861075 0
M  V30 29166 C 2929.36 1.22372 1.61718 0
M  V30 29167 C 2929.7 -0.215553 1.93 0
M  V30 29168 O 2928.97 -1.15095 1.56791 0
M  V30 29169 C 2929.25 2.07697 2.94167 0
M  V30 29170 C 2929.11 3.5997 2.69707 0
M  V30 29171 C 2930.43 1.93319 3.95368 0
M  V30 29172 H 2927.54 0.445891 0.586814 0
M  V30 29173 H 2930.19 1.61878 0.994759 0
M  V30 29174 H 2928.34 1.74134 3.47289 0
M  V30 29175 H 2930.01 4.03713 2.23189 0
M  V30 29176 H 2928.25 3.82956 2.03783 0
M  V30 29177 H 2928.92 4.14989 3.63989 0
M  V30 29178 H 2931.4 2.22708 3.51483 0
M  V30 29179 H 2930.27 2.55307 4.85911 0
M  V30 29180 H 2930.54 0.898998 4.32863 0
M  V30 29181 N 2929.59 -1.07653 1.15103 0
M  V30 29182 C 2930.82 -1.83916 0.947763 0
M  V30 29183 C 2931.24 -1.81951 -0.503895 0
M  V30 29184 O 2930.59 -1.22873 -1.34939 0
M  V30 29185 C 2930.65 -3.3113 1.45035 0
M  V30 29186 O 2930.37 -3.33141 2.84514 0
M  V30 29187 C 2931.87 -4.24172 1.28814 0
M  V30 29188 H 2929.09 -0.580352 0.336797 0
M  V30 29189 H 2931.63 -1.35912 1.52801 0
M  V30 29190 H 2929.79 -3.76495 0.912698 0
M  V30 29191 H 2930.2 -4.25095 3.07237 0
M  V30 29192 H 2931.67 -5.25548 1.68829 0
M  V30 29193 H 2932.15 -4.38587 0.231928 0
M  V30 29194 H 2932.76 -3.8464 1.81472 0
M  V30 29195 N 2931.07 -0.947348 -1.25949 0
M  V30 29196 C 2932.32 -0.59703 -1.9308 0
M  V30 29197 C 2932.64 0.867641 -1.74634 0
M  V30 29198 O 2931.91 1.61718 -1.10562 0
M  V30 29199 H 2930.49 -0.217817 -0.714538 0
M  V30 29200 H 2933.15 -1.20401 -1.53263 0
M  V30 29201 H 2932.25 -0.820093 -3.01133 0
M  V30 29202 N 2932.55 1.40444 -0.715075 0
M  V30 29203 C 2933.97 1.54797 -0.388582 0
M  V30 29204 C 2934.17 1.68651 1.10268 0
M  V30 29205 O 2933.22 1.67582 1.88872 0
M  V30 29206 C 2934.54 2.77667 -1.15419 0
M  V30 29207 C 2936.08 2.91484 -1.14044 0
M  V30 29208 C 2936.56 4.17266 -1.8882 0
M  V30 29209 N 2938.05 4.24265 -1.85886 0
M  V30 29210 C 2938.78 5.20495 -2.40567 0
M  V30 29211 N 2938.28 6.22636 -3.03802 0
M  V30 29212 N 2940.07 5.1257 -2.30712 0
M  V30 29213 H 2932.22 1.29697 -1.68203 0
M  V30 29214 H 2934.49 0.627127 -0.710926 0
M  V30 29215 H 2934.19 2.73706 -2.20858 0
M  V30 29216 H 2934.07 3.6976 -0.745477 0
M  V30 29217 H 2936.45 2.94949 -0.0942515 0
M  V30 29218 H 2936.54 2.0051 -1.58837 0
M  V30 29219 H 2936.18 4.14562 -2.93429 0
M  V30 29220 H 2936.11 5.07248 -1.41447 0
M  V30 29221 H 2938.6 3.5109 -1.398 0
M  V30 29222 H 2938.91 6.92488 -3.43044 0
M  V30 29223 H 2937.26 6.23082 -3.07886 0
M  V30 29224 H 2940.45 4.31704 -1.80968 0
M  V30 29225 H 2940.62 5.87394 -2.73629 0
M  V30 29226 N 2934.03 0.461222 1.507 0
M  V30 29227 C 2935.26 -0.0951392 2.06681 0
M  V30 29228 C 2935.67 -1.3438 1.32618 0
M  V30 29229 O 2935.03 -1.78228 0.392562 0
M  V30 29230 C 2935.08 -0.393253 3.59355 0
M  V30 29231 O 2934.8 0.805872 4.30624 0
M  V30 29232 C 2936.3 -0.997669 4.31928 0
M  V30 29233 H 2933.52 0.00268438 0.670995 0
M  V30 29234 H 2936.07 0.647171 1.9399 0
M  V30 29235 H 2934.22 -1.08548 3.71882 0
M  V30 29236 H 2934.63 0.5445 5.21666 0
M  V30 29237 H 2936.11 -1.15609 5.39758 0
M  V30 29238 H 2936.59 -1.98516 3.91776 0
M  V30 29239 H 2937.19 -0.344114 4.23906 0
M  V30 29240 N 2935.51 -1.56408 0.193449 0
M  V30 29241 C 2936.75 -1.99431 -0.447942 0
M  V30 29242 C 2937.11 -1.07753 -1.58913 0
M  V30 29243 O 2938.31 -1.40006 -2.2946 0
M  V30 29244 C 2936.58 -3.45938 -0.897869 0
M  V30 29245 S 2938.14 -4.10989 -1.53733 0
M  V30 29246 H 2934.96 -0.696409 -0.143304 0
M  V30 29247 H 2937.56 -1.93244 0.296127 0
M  V30 29248 H 2936.27 -4.1036 -0.0572206 0
M  V30 29249 H 2935.8 -3.55939 -1.67544 0
M  V30 29250 H 2937.81 -4.07859 -2.82605 0
M  V30 29251 N 2936.98 0.0801629 -1.57396 0
M  V30 29252 C 2937.92 1.12267 -1.99822 0
M  V30 29253 C 2938.93 1.35466 -0.902926 0
M  V30 29254 O 2940.12 1.33854 -1.1809 0
M  V30 29255 C 2937.22 2.47528 -2.3148 0
M  V30 29256 C 2936.39 2.44401 -3.62749 0
M  V30 29257 C 2935.45 3.61704 -3.82174 0
M  V30 29258 O 2934.48 3.43514 -4.53858 0
M  V30 29259 N 2935.68 4.81743 -3.23888 0
M  V30 29260 H 2938.44 0.76145 -2.89866 0
M  V30 29261 H 2936 0.268937 -1.59651 0
M  V30 29262 H 2938 3.2463 -2.41656 0
M  V30 29263 H 2936.57 2.75683 -1.47368 0
M  V30 29264 H 2935.79 1.52741 -3.63406 0
M  V30 29265 H 2937.07 2.39404 -4.48958 0
M  V30 29266 H 2936.47 4.99426 -2.65689 0
M  V30 29267 H 2935.03 5.56386 -3.39525 0
M  V30 29268 N 2938.46 1.53634 0.351355 0
M  V30 29269 C 2939.43 1.80385 1.41399 0
M  V30 29270 C 2940.43 0.67466 1.45962 0
M  V30 29271 O 2941.62 0.94292 1.46474 0
M  V30 29272 C 2938.75 1.93881 2.80398 0
M  V30 29273 H 2939.94 2.75303 1.18946 0
M  V30 29274 H 2937.49 1.44927 0.585304 0
M  V30 29275 H 2938.23 1.01079 3.08145 0
M  V30 29276 H 2938.01 2.76025 2.78483 0
M  V30 29277 H 2939.5 2.16122 3.57325 0
M  V30 29278 N 2939.94 -0.611943 1.45234 0
M  V30 29279 C 2941.19 -1.37116 1.50235 0
M  V30 29280 C 2941.54 -1.91887 0.14037 0
M  V30 29281 O 2940.83 -1.71855 -0.847131 0
M  V30 29282 C 2941.03 -2.54075 2.51358 0
M  V30 29283 C 2940.86 -2.10757 3.97255 0
M  V30 29284 C 2939.63 -1.97133 4.6526 0
M  V30 29285 C 2941.83 -1.6849 4.85917 0
M  V30 29286 N 2939.81 -1.47579 5.95897 0
M  V30 29287 C 2941.18 -1.30321 6.06149 0
M  V30 29288 C 2943.23 -1.56043 4.72816 0
M  V30 29289 C 2941.94 -0.809466 7.14731 0
M  V30 29290 C 2943.96 -1.08073 5.81441 0
M  V30 29291 C 2943.32 -0.708652 7.00826 0
M  V30 29292 H 2939.42 -0.495824 0.604717 0
M  V30 29293 H 2942.01 -0.700023 1.8168 0
M  V30 29294 H 2940.18 -3.18791 2.21872 0
M  V30 29295 H 2941.91 -3.20941 2.46534 0
M  V30 29296 H 2938.67 -2.18183 4.20349 0
M  V30 29297 H 2939.09 -1.25047 6.65351 0
M  V30 29298 H 2943.73 -1.83437 3.80934 0
M  V30 29299 H 2941.45 -0.523074 8.06405 0
M  V30 29300 H 2945.04 -0.988741 5.73337 0
M  V30 29301 H 2943.92 -0.343167 7.83449 0
M  V30 29302 N 2941.42 -1.32452 -0.854063 0
M  V30 29303 C 2942.64 -1.26188 -1.64594 0
M  V30 29304 C 2943.07 0.167041 -1.87357 0
M  V30 29305 O 2942.43 1.11862 -1.42677 0
M  V30 29306 C 2942.47 -2.0274 -2.9821 0
M  V30 29307 O 2941.58 -1.37561 -3.88781 0
M  V30 29308 H 2940.92 -0.434868 -0.501783 0
M  V30 29309 H 2943.45 -1.74777 -1.06369 0
M  V30 29310 H 2943.46 -2.12936 -3.48026 0
M  V30 29311 H 2942.13 -3.06647 -2.80964 0
M  V30 29312 H 2940.71 -1.35916 -3.47248 0
M  V30 29313 N 2942.9 1.07041 -1.15672 0
M  V30 29314 C 2944.12 1.8395 -0.957978 0
M  V30 29315 C 2944.55 1.81639 0.488775 0
M  V30 29316 O 2943.91 1.21164 1.34866 0
M  V30 29317 C 2943.95 3.28797 -1.4807 0
M  V30 29318 O 2943.06 4.06722 -0.681993 0
M  V30 29319 H 2942.4 0.569473 -0.341463 0
M  V30 29320 H 2944.93 1.35012 -1.5373 0
M  V30 29321 H 2944.94 3.79627 -1.4949 0
M  V30 29322 H 2943.61 3.29794 -2.53394 0
M  V30 29323 H 2942.19 3.65531 -0.737676 0
M  V30 29324 N 2944.38 0.954014 1.25445 0
M  V30 29325 C 2945.31 0.417952 2.2434 0
M  V30 29326 C 2946.29 -0.500373 1.5471 0
M  V30 29327 O 2947.47 -0.434891 1.83415 0
M  V30 29328 C 2944.6 -0.398096 3.36352 0
M  V30 29329 C 2943.64 0.460536 4.24006 0
M  V30 29330 S 2944.48 1.8924 5.00948 0
M  V30 29331 C 2945.63 1.08476 6.16428 0
M  V30 29332 H 2945.87 1.25606 2.69463 0
M  V30 29333 H 2943.4 0.758042 1.34511 0
M  V30 29334 H 2945.36 -0.862988 4.01326 0
M  V30 29335 H 2944.02 -1.21103 2.89815 0
M  V30 29336 H 2943.21 -0.165327 5.03729 0
M  V30 29337 H 2942.81 0.860613 3.63964 0
M  V30 29338 H 2945.1 0.333136 6.7668 0
M  V30 29339 H 2946.05 1.85589 6.83347 0
M  V30 29340 H 2946.46 0.61516 5.61138 0
M  V30 29341 N 2945.85 -1.40063 0.722513 0
M  V30 29342 C 2947.08 -2.05066 0.274874 0
M  V30 29343 C 2947.5 -1.54451 -1.08583 0
M  V30 29344 O 2946.85 -0.704033 -1.68373 0
M  V30 29345 C 2946.9 -3.60608 0.253736 0
M  V30 29346 O 2946.63 -4.09357 1.56071 0
M  V30 29347 C 2948.13 -4.42795 -0.211606 0
M  V30 29348 H 2945.35 -0.659766 0.122272 0
M  V30 29349 H 2947.89 -1.79343 0.982663 0
M  V30 29350 H 2946.05 -3.85276 -0.405069 0
M  V30 29351 H 2946.46 -5.036 1.46585 0
M  V30 29352 H 2947.93 -5.51722 -0.175244 0
M  V30 29353 H 2948.41 -4.20892 -1.25486 0
M  V30 29354 H 2949.02 -4.23249 0.417175 0
M  V30 29355 N 2947.33 -0.469207 -1.50453 0
M  V30 29356 C 2948.74 -0.0136362 -1.86695 0
M  V30 29357 C 2949.09 1.39053 -1.38415 0
M  V30 29358 O 2948.22 2.03049 -0.748329 0
M  V30 29359 C 2948.81 -0.0179694 -3.38795 0
M  V30 29360 C 2947.37 0.382125 -3.74455 0
M  V30 29361 C 2946.52 -0.404255 -2.74338 0
M  V30 29362 H 2949.47 -0.683572 -1.43224 0
M  V30 29363 H 2949.49 0.784614 -3.72323 0
M  V30 29364 H 2949 -1.04006 -3.73904 0
M  V30 29365 H 2947.1 1.40864 -3.44947 0
M  V30 29366 H 2947.22 0.0847778 -4.79025 0
M  V30 29367 H 2945.58 0.141785 -2.54305 0
M  V30 29368 H 2946.36 -1.42582 -3.1229 0
M  V30 29369 N 2948.81 1.56303 -0.201741 0
M  V30 29370 C 2949.76 2.16018 0.729406 0
M  V30 29371 C 2950.74 1.10281 1.17162 0
M  V30 29372 O 2951.94 1.36326 1.12891 0
M  V30 29373 C 2949.06 2.82825 1.94589 0
M  V30 29374 C 2948.15 3.95761 1.52427 0
M  V30 29375 N 2948.54 4.99207 0.814019 0
M  V30 29376 C 2946.84 4.07485 1.81307 0
M  V30 29377 C 2947.54 5.78579 0.601794 0
M  V30 29378 N 2946.52 5.31242 1.15253 0
M  V30 29379 H 2950.32 2.9336 0.178111 0
M  V30 29380 H 2947.83 1.624 -0.00220893 0
M  V30 29381 H 2949.83 3.24002 2.62351 0
M  V30 29382 H 2948.49 2.06973 2.50184 0
M  V30 29383 H 2949.5 5.15774 0.468781 0
M  V30 29384 H 2946.18 3.42767 2.38364 0
M  V30 29385 H 2947.57 6.71889 0.0378938 0
M  V30 29386 N 2950.29 -0.0718147 1.57436 0
M  V30 29387 C 2951.51 -0.787712 1.91859 0
M  V30 29388 C 2951.94 -1.70327 0.798149 0
M  V30 29389 O 2951.3 -1.79582 -0.249018 0
M  V30 29390 C 2951.34 -1.55738 3.25235 0
M  V30 29391 O 2950.45 -2.66804 3.14467 0
M  V30 29392 H 2949.79 -0.214903 0.628262 0
M  V30 29393 H 2952.32 -0.0400653 2.04561 0
M  V30 29394 H 2952.33 -1.93663 3.59108 0
M  V30 29395 H 2951 -0.88562 4.06361 0
M  V30 29396 H 2949.58 -2.31736 2.92152 0
M  V30 29397 N 2951.77 -1.53818 -0.343203 0
M  V30 29398 C 2952.72 -1.78211 -1.42214 0
M  V30 29399 C 2953.7 -0.63733 -1.47739 0
M  V30 29400 O 2954.89 -0.896732 -1.52603 0
M  V30 29401 C 2952.02 -1.99545 -2.79351 0
M  V30 29402 C 2951.11 -3.20088 -2.78216 0
M  V30 29403 N 2951.5 -4.41551 -2.46711 0
M  V30 29404 C 2949.8 -3.21264 -3.09362 0
M  V30 29405 C 2950.5 -5.23403 -2.53819 0
M  V30 29406 N 2949.47 -4.60126 -2.89456 0
M  V30 29407 H 2953.27 -2.69714 -1.16754 0
M  V30 29408 H 2950.79 -1.52747 -0.551565 0
M  V30 29409 H 2952.79 -2.15154 -3.57091 0
M  V30 29410 H 2951.45 -1.09283 -3.05757 0
M  V30 29411 H 2952.46 -4.68895 -2.19904 0
M  V30 29412 H 2949.13 -2.40972 -3.40938 0
M  V30 29413 H 2950.52 -6.30348 -2.32618 0
M  V30 29414 N 2953.24 0.604233 -1.45557 0
M  V30 29415 C 2954.47 1.3946 -1.53512 0
M  V30 29416 C 2954.89 1.87333 -0.169671 0
M  V30 29417 O 2954.25 1.60335 0.846317 0
M  V30 29418 C 2954.3 2.57286 -2.52659 0
M  V30 29419 O 2953.4 3.58027 -2.04672 0
M  V30 29420 H 2952.74 0.416211 -0.517363 0
M  V30 29421 H 2955.27 0.735038 -1.90941 0
M  V30 29422 H 2955.28 3.04486 -2.71573 0
M  V30 29423 H 2953.96 2.2179 -3.51826 0
M  V30 29424 H 2952.54 3.17452 -1.95649 0
M  V30 29425 N 2954.72 1.32903 0.847027 0
M  V30 29426 C 2956.14 1.1206 1.13643 0
M  V30 29427 C 2956.34 -0.0939016 2.01281 0
M  V30 29428 O 2955.39 -0.776566 2.40262 0
M  V30 29429 C 2956.71 2.40395 1.8064 0
M  V30 29430 C 2958.25 2.46225 1.93242 0
M  V30 29431 C 2958.73 3.74501 2.63654 0
M  V30 29432 N 2960.22 3.75526 2.71173 0
M  V30 29433 C 2960.96 4.71487 3.26324 0
M  V30 29434 N 2960.45 5.7782 3.82225 0
M  V30 29435 N 2962.24 4.58974 3.24499 0
M  V30 29436 H 2954.4 2.10758 0.263575 0
M  V30 29437 H 2956.66 0.930866 0.179424 0
M  V30 29438 H 2956.36 3.29227 1.23702 0
M  V30 29439 H 2956.24 2.51931 2.80732 0
M  V30 29440 H 2958.63 1.57847 2.49336 0
M  V30 29441 H 2958.71 2.38636 0.92123 0
M  V30 29442 H 2958.35 4.63256 2.08221 0
M  V30 29443 H 2958.28 3.79364 3.65227 0
M  V30 29444 H 2960.77 2.98674 2.31522 0
M  V30 29445 H 2961.08 6.47089 4.22487 0
M  V30 29446 H 2959.43 5.81564 3.80536 0
M  V30 29447 H 2962.62 3.75065 2.80078 0
M  V30 29448 H 2962.79 5.33932 3.67179 0
M  V30 29449 N 2956.2 -1.06426 1.16238 0
M  V30 29450 C 2957.43 -1.829 0.967216 0
M  V30 29451 C 2957.84 -1.82476 -0.484569 0
M  V30 29452 O 2957.2 -1.24297 -1.33628 0
M  V30 29453 C 2957.25 -3.29573 1.48539 0
M  V30 29454 O 2956.97 -3.30105 2.88032 0
M  V30 29455 C 2958.47 -4.22782 1.33305 0
M  V30 29456 H 2955.69 -0.576748 0.342933 0
M  V30 29457 H 2958.24 -1.34283 1.54234 0
M  V30 29458 H 2956.39 -3.75506 0.952579 0
M  V30 29459 H 2956.81 -4.21812 3.11729 0
M  V30 29460 H 2958.28 -5.23728 1.74394 0
M  V30 29461 H 2958.76 -4.38317 0.278433 0
M  V30 29462 H 2959.36 -3.82694 1.85541 0
M  V30 29463 N 2957.68 -0.960653 -1.24937 0
M  V30 29464 C 2959.09 -0.65856 -1.74699 0
M  V30 29465 C 2959.44 0.825927 -1.77969 0
M  V30 29466 O 2958.57 1.64632 -1.40447 0
M  V30 29467 C 2959.16 -1.18873 -3.17261 0
M  V30 29468 C 2957.72 -0.936678 -3.64559 0
M  V30 29469 C 2956.87 -1.32822 -2.43421 0
M  V30 29470 H 2959.82 -1.13678 -1.10739 0
M  V30 29471 H 2959.84 -0.551655 -3.7648 0
M  V30 29472 H 2959.35 -2.26917 -3.1485 0
M  V30 29473 H 2957.45 0.128542 -3.72378 0
M  V30 29474 H 2957.56 -1.57737 -4.52389 0
M  V30 29475 H 2955.93 -0.746591 -2.43512 0
M  V30 29476 H 2956.71 -2.418 -2.43696 0
M  V30 29477 N 2959.16 1.39677 -0.729931 0
M  V30 29478 C 2960.07 2.34435 -0.0880735 0
M  V30 29479 C 2961.08 1.58055 0.727647 0
M  V30 29480 O 2962.26 1.90373 0.657287 0
M  V30 29481 C 2959.32 3.37053 0.812152 0
M  V30 29482 C 2958.38 4.29297 -0.0152435 0
M  V30 29483 C 2957.62 5.27014 0.842109 0
M  V30 29484 O 2957.84 5.31085 2.08098 0
M  V30 29485 O 2956.77 6.01278 0.273465 0
M  V30 29486 H 2960.6 2.90971 -0.87004 0
M  V30 29487 H 2958.19 1.41117 -0.490547 0
M  V30 29488 H 2960.07 3.99948 1.32738 0
M  V30 29489 H 2958.74 2.8291 1.57302 0
M  V30 29490 H 2957.65 3.69641 -0.575876 0
M  V30 29491 H 2958.98 4.86633 -0.738215 0
M  V30 29492 N 2960.63 0.47718 1.50202 0
M  V30 29493 C 2961.86 -0.0731064 2.06471 0
M  V30 29494 C 2962.27 -1.33516 1.34053 0
M  V30 29495 O 2961.62 -1.79175 0.405195 0
M  V30 29496 C 2961.68 -0.421059 3.57026 0
M  V30 29497 C 2961.34 0.739844 4.50972 0
M  V30 29498 C 2962.34 1.62362 4.93897 0
M  V30 29499 C 2960.02 0.931897 4.9358 0
M  V30 29500 C 2962.02 2.6838 5.78144 0
M  V30 29501 C 2959.7 1.99529 5.77608 0
M  V30 29502 C 2960.7 2.8696 6.19793 0
M  V30 29503 O 2960.39 3.91468 7.02145 0
M  V30 29504 H 2960.12 0.00649431 0.675969 0
M  V30 29505 H 2962.68 0.666764 1.94277 0
M  V30 29506 H 2960.91 -1.2142 3.67143 0
M  V30 29507 H 2962.6 -0.907143 3.95633 0
M  V30 29508 H 2963.36 1.48696 4.61643 0
M  V30 29509 H 2959.24 0.260819 4.60262 0
M  V30 29510 H 2962.78 3.36653 6.10991 0
M  V30 29511 H 2958.68 2.132 6.09275 0
M  V30 29512 H 2959.45 3.8853 7.20407 0
M  V30 29513 N 2962.11 -1.56194 0.210027 0
M  V30 29514 C 2963.34 -2.0209 -0.429337 0
M  V30 29515 C 2963.75 -1.08922 -1.54701 0
M  V30 29516 O 2963.09 -0.0889858 -1.83484 0
M  V30 29517 C 2963.16 -3.44351 -1.0326 0
M  V30 29518 C 2962.82 -4.56971 -0.0518069 0
M  V30 29519 C 2963.82 -5.14544 0.74434 0
M  V30 29520 C 2961.5 -5.0226 0.0636068 0
M  V30 29521 C 2963.5 -6.15868 1.64272 0
M  V30 29522 C 2961.18 -6.03424 0.965529 0
M  V30 29523 C 2962.18 -6.60103 1.75364 0
M  V30 29524 O 2961.87 -7.593 2.64042 0
M  V30 29525 H 2961.6 -0.666892 -0.110592 0
M  V30 29526 H 2964.15 -2.02885 0.320472 0
M  V30 29527 H 2962.38 -3.40589 -1.83128 0
M  V30 29528 H 2964.07 -3.73963 -1.57817 0
M  V30 29529 H 2964.84 -4.80412 0.665561 0
M  V30 29530 H 2960.72 -4.5783 -0.539681 0
M  V30 29531 H 2964.26 -6.60035 2.2583 0
M  V30 29532 H 2960.16 -6.36979 1.04537 0
M  V30 29533 H 2960.93 -7.76778 2.57988 0
M  V30 29534 N 2963.59 0.0634645 -1.57472 0
M  V30 29535 C 2965 0.614306 -1.76304 0
M  V30 29536 C 2965.35 1.77469 -0.836609 0
M  V30 29537 O 2964.48 2.16388 -0.0227564 0
M  V30 29538 C 2965.07 1.12116 -3.19711 0
M  V30 29539 C 2963.63 1.6178 -3.39859 0
M  V30 29540 C 2962.78 0.540797 -2.71976 0
M  V30 29541 H 2965.73 -0.16273 -1.57863 0
M  V30 29542 H 2965.75 1.98973 -3.2433 0
M  V30 29543 H 2965.26 0.276404 -3.87114 0
M  V30 29544 H 2963.36 2.48553 -2.77582 0
M  V30 29545 H 2963.48 1.689 -4.48341 0
M  V30 29546 H 2961.84 0.987813 -2.34764 0
M  V30 29547 H 2962.62 -0.293916 -3.4204 0
M  V30 29548 N 2965.07 1.53998 0.33504 0
M  V30 29549 C 2966.02 1.83291 1.43203 0
M  V30 29550 C 2967.01 0.70398 1.54079 0
M  V30 29551 O 2968.22 0.887459 1.56602 0
M  V30 29552 H 2964.59 0.580826 0.477645 0
M  V30 29553 H 2966.56 2.75051 1.15714 0
M  V30 29554 C 2965.31 2.06688 2.79599 0
M  V30 29555 H 2964.63 2.93013 2.71999 0
M  V30 29556 H 2966.07 2.31145 3.55455 0
M  V30 29557 C 2964.53 0.85494 3.25872 0
M  V30 29558 O 2965.06 0.0585354 4.01657 0
M  V30 29559 N 2963.27 0.669779 2.82776 0
M  V30 29560 H 2962.82 1.31905 2.21267 0
M  V30 29561 H 2962.77 -0.139634 3.1409 0
M  V30 29562 N 2966.55 -0.596505 1.45875 0
M  V30 29563 C 2967.51 -1.6885 1.54991 0
M  V30 29564 C 2968.51 -1.5499 0.428329 0
M  V30 29565 O 2969.7 -1.59858 0.692186 0
M  V30 29566 C 2966.83 -3.08193 1.45705 0
M  V30 29567 H 2968.02 -1.6213 2.52297 0
M  V30 29568 H 2965.58 -0.813183 1.3348 0
M  V30 29569 H 2966.31 -3.2048 0.496261 0
M  V30 29570 H 2966.1 -3.19661 2.27067 0
M  V30 29571 H 2967.59 -3.87713 1.5514 0
M  V30 29572 N 2968.02 -1.3335 -0.839967 0
M  V30 29573 C 2969.27 -1.24498 -1.592 0
M  V30 29574 C 2969.59 0.189465 -1.94077 0
M  V30 29575 O 2968.86 1.11793 -1.6087 0
M  V30 29576 H 2967.44 -0.457812 -0.590268 0
M  V30 29577 H 2970.11 -1.67056 -1.00391 0
M  V30 29578 H 2969.2 -1.83793 -2.52243 0
M  V30 29579 N 2969.5 1.05808 -1.16801 0
M  V30 29580 C 2970.43 2.15363 -0.902279 0
M  V30 29581 C 2971.41 1.69408 0.153321 0
M  V30 29582 O 2972.6 1.942 0.00438619 0
M  V30 29583 C 2969.73 3.44895 -0.407972 0
M  V30 29584 C 2968.68 4.04384 -1.40204 0
M  V30 29585 C 2968.01 5.29186 -0.765941 0
M  V30 29586 C 2969.31 4.42593 -2.77324 0
M  V30 29587 H 2971 2.3785 -1.81846 0
M  V30 29588 H 2968.55 1.14309 -0.875751 0
M  V30 29589 H 2970.5 4.20879 -0.209524 0
M  V30 29590 H 2969.23 3.22042 0.543723 0
M  V30 29591 H 2967.88 3.30463 -1.58712 0
M  V30 29592 H 2967.53 5.02632 0.192394 0
M  V30 29593 H 2967.23 5.69947 -1.42949 0
M  V30 29594 H 2968.76 6.07862 -0.577626 0
M  V30 29595 H 2970.17 5.09637 -2.6257 0
M  V30 29596 H 2968.57 4.94353 -3.40198 0
M  V30 29597 H 2969.64 3.53225 -3.32205 0
M  V30 29598 N 2970.98 0.967265 1.24426 0
M  V30 29599 C 2972.23 0.624512 1.91788 0
M  V30 29600 C 2972.54 -0.844098 1.76449 0
M  V30 29601 O 2973.75 -1.29735 2.38497 0
M  V30 29602 C 2972.2 1.06632 3.43741 0
M  V30 29603 C 2971.81 2.55835 3.67767 0
M  V30 29604 C 2973.56 0.796694 4.16957 0
M  V30 29605 C 2971.46 2.93751 5.13288 0
M  V30 29606 H 2970.39 0.229869 0.718106 0
M  V30 29607 H 2973.04 1.17341 1.41079 0
M  V30 29608 H 2971.43 0.445732 3.93483 0
M  V30 29609 H 2972.6 3.2302 3.28625 0
M  V30 29610 H 2970.92 2.80404 3.07836 0
M  V30 29611 H 2973.51 1.05598 5.24169 0
M  V30 29612 H 2973.86 -0.26709 4.15442 0
M  V30 29613 H 2974.39 1.37823 3.73162 0
M  V30 29614 H 2971.13 3.99199 5.19924 0
M  V30 29615 H 2970.65 2.3125 5.53429 0
M  V30 29616 H 2972.33 2.83633 5.81516 0
M  V30 29617 N 2972.46 -1.39288 0.737328 0
M  V30 29618 C 2973.39 -2.2815 0.0475855 0
M  V30 29619 C 2974.37 -1.44514 -0.745289 0
M  V30 29620 O 2975.55 -1.73902 -0.727357 0
M  V30 29621 C 2972.68 -3.25402 -0.939746 0
M  V30 29622 C 2971.73 -4.25852 -0.235078 0
M  V30 29623 S 2972.56 -5.25053 1.05261 0
M  V30 29624 C 2973.72 -6.25863 0.0679342 0
M  V30 29625 H 2973.95 -2.86302 0.801167 0
M  V30 29626 H 2971.48 -1.45047 0.529223 0
M  V30 29627 H 2973.44 -3.81951 -1.50411 0
M  V30 29628 H 2972.1 -2.66265 -1.66618 0
M  V30 29629 H 2971.29 -4.94336 -0.982249 0
M  V30 29630 H 2970.9 -3.73114 0.257311 0
M  V30 29631 H 2973.19 -6.73091 -0.77166 0
M  V30 29632 H 2974.13 -7.0443 0.719982 0
M  V30 29633 H 2974.54 -5.63673 -0.305505 0
M  V30 29634 N 2973.94 -0.485139 -1.49947 0
M  V30 29635 C 2974.89 0.315568 -2.30449 0
M  V30 29636 C 2975.88 0.977492 -1.38353 0
M  V30 29637 O 2977.09 0.906991 -1.55479 0
M  V30 29638 H 2973.46 0.120616 -0.742264 0
M  V30 29639 H 2975.43 -0.383604 -2.95924 0
M  V30 29640 C 2974.18 1.37668 -3.19285 0
M  V30 29641 H 2973.5 0.876733 -3.90069 0
M  V30 29642 H 2974.94 1.90923 -3.78582 0
M  V30 29643 C 2973.4 2.38627 -2.37821 0
M  V30 29644 O 2973.93 3.44189 -2.07116 0
M  V30 29645 N 2972.14 2.10696 -2.00139 0
M  V30 29646 H 2971.69 1.24874 -2.25309 0
M  V30 29647 H 2971.64 2.78477 -1.45938 0
M  V30 29648 N 2975.42 1.56081 -0.218307 0
M  V30 29649 C 2976.65 2.02315 0.418614 0
M  V30 29650 C 2977.05 1.09741 1.54122 0
M  V30 29651 O 2976.4 0.0987151 1.83435 0
M  V30 29652 C 2976.46 3.44894 1.01433 0
M  V30 29653 C 2976.12 4.56992 0.027572 0
M  V30 29654 C 2977.12 5.14142 -0.771617 0
M  V30 29655 C 2974.8 5.02219 -0.0902419 0
M  V30 29656 C 2976.8 6.14988 -1.67536 0
M  V30 29657 C 2974.49 6.02904 -0.997517 0
M  V30 29658 C 2975.48 6.59164 -1.78862 0
M  V30 29659 O 2975.17 7.57889 -2.68065 0
M  V30 29660 H 2974.9 0.667469 0.107054 0
M  V30 29661 H 2977.46 2.02712 -0.331227 0
M  V30 29662 H 2975.69 3.41555 1.8132 0
M  V30 29663 H 2977.38 3.74795 1.55831 0
M  V30 29664 H 2978.14 4.80052 -0.691029 0
M  V30 29665 H 2974.02 4.5811 0.515394 0
M  V30 29666 H 2977.57 6.58828 -2.29327 0
M  V30 29667 H 2973.46 6.36416 -1.07913 0
M  V30 29668 H 2974.23 7.75399 -2.62104 0
M  V30 29669 N 2976.89 -0.0551124 1.57504 0
M  V30 29670 C 2978.13 -0.756219 1.89897 0
M  V30 29671 C 2978.5 -1.7389 0.814014 0
M  V30 29672 O 2979.7 -2.48634 1.0215 0
M  V30 29673 C 2977.97 -1.43111 3.27497 0
M  V30 29674 S 2979.53 -2.16497 3.81673 0
M  V30 29675 H 2976.35 -0.251117 0.665178 0
M  V30 29676 H 2978.95 -0.0116849 1.95497 0
M  V30 29677 H 2977.65 -0.702319 4.04346 0
M  V30 29678 H 2977.18 -2.21473 3.25136 0
M  V30 29679 H 2979.2 -3.4327 3.58301 0
M  V30 29680 N 2978.37 -1.54173 -0.326869 0
M  V30 29681 C 2979.79 -1.44809 -0.671008 0
M  V30 29682 C 2979.99 -0.618291 -1.9178 0
M  V30 29683 O 2979.04 -0.115795 -2.52234 0
M  V30 29684 C 2980.36 -2.88492 -0.848097 0
M  V30 29685 C 2981.9 -2.98373 -0.94565 0
M  V30 29686 C 2982.38 -4.43199 -1.15493 0
M  V30 29687 N 2983.87 -4.46797 -1.22175 0
M  V30 29688 C 2984.61 -5.56009 -1.4015 0
M  V30 29689 N 2984.1 -6.75195 -1.5519 0
M  V30 29690 N 2985.89 -5.4365 -1.42832 0
M  V30 29691 H 2978.05 -2.06607 0.492657 0
M  V30 29692 H 2980.31 -0.934641 0.15859 0
M  V30 29693 H 2980.01 -3.517 -0.00323787 0
M  V30 29694 H 2979.89 -3.34414 -1.74491 0
M  V30 29695 H 2982.28 -2.35295 -1.78102 0
M  V30 29696 H 2982.36 -2.55787 -0.0253766 0
M  V30 29697 H 2982 -5.06863 -0.324432 0
M  V30 29698 H 2981.93 -4.83391 -2.08903 0
M  V30 29699 H 2984.42 -3.60919 -1.12009 0
M  V30 29700 H 2984.73 -7.54187 -1.68588 0
M  V30 29701 H 2983.08 -6.78109 -1.52294 0
M  V30 29702 H 2986.27 -4.4949 -1.30675 0
M  V30 29703 H 2986.44 -6.28818 -1.56498 0
M  V30 29704 N 2979.85 0.58876 -1.4619 0
M  V30 29705 C 2980.8 1.71935 -1.56656 0
M  V30 29706 C 2981.79 1.63709 -0.435383 0
M  V30 29707 O 2983 1.69276 -0.612026 0
M  V30 29708 H 2979.37 0.568356 -0.492418 0
M  V30 29709 H 2981.34 1.60238 -2.51727 0
M  V30 29710 C 2980.09 3.10323 -1.56827 0
M  V30 29711 H 2979.42 3.1732 -2.43203 0
M  V30 29712 H 2980.86 3.89208 -1.68206 0
M  V30 29713 C 2979.31 3.35598 -0.295861 0
M  V30 29714 O 2979.84 3.96942 0.616446 0
M  V30 29715 N 2978.05 2.90006 -0.18566 0
M  V30 29716 H 2977.6 2.40267 -0.928956 0
M  V30 29717 H 2977.56 3.0729 0.664829 0
M  V30 29718 N 2981.33 1.33794 0.832883 0
M  V30 29719 C 2982.74 1.22965 1.40487 0
M  V30 29720 C 2983.09 -0.148991 1.95633 0
M  V30 29721 O 2982.21 -1.04887 1.89282 0
M  V30 29722 C 2982.81 2.22631 2.55383 0
M  V30 29723 C 2981.37 2.15624 3.08518 0
M  V30 29724 C 2980.52 2.09785 1.81343 0
M  V30 29725 H 2983.47 1.45305 0.638131 0
M  V30 29726 H 2983.49 1.83752 3.3319 0
M  V30 29727 H 2983 3.22961 2.15216 0
M  V30 29728 H 2981.1 1.18617 3.53215 0
M  V30 29729 H 2981.21 3.06436 3.68285 0
M  V30 29730 H 2979.58 1.55352 2.01836 0
M  V30 29731 H 2980.36 3.11932 1.43364 0
M  V30 29732 N 2982.81 -1.05187 1.1736 0
M  V30 29733 C 2984.08 -1.7509 0.871944 0
M  V30 29734 C 2984.46 -2.01549 -0.627785 0
M  V30 29735 O 2983.81 -1.65159 -1.57907 0
M  V30 29736 C 2984.02 -3.0441 1.70692 0
M  V30 29737 C 2985.37 -3.78359 1.92691 0
M  V30 29738 O 2986.39 -3.14279 1.67651 0
M  V30 29739 O 2985.25 -4.93501 2.34774 0
M  V30 29740 H 2982.35 -0.761381 0.322845 0
M  V30 29741 H 2984.89 -1.11355 1.28056 0
M  V30 29742 H 2983.66 -2.80906 2.7241 0
M  V30 29743 H 2983.29 -3.75882 1.29608 0
M  V30 29744 N 2984.28 -0.97385 -1.23911 0
M  V30 29745 C 2985.25 -0.513819 -2.23366 0
M  V30 29746 C 2986.25 0.392992 -1.55924 0
M  V30 29747 O 2987.44 0.187596 -1.73187 0
M  V30 29748 C 2984.57 0.255092 -3.39944 0
M  V30 29749 H 2985.76 -1.39312 -2.65579 0
M  V30 29750 H 2983.31 -0.759063 -1.36631 0
M  V30 29751 H 2984.05 1.15122 -3.03179 0
M  V30 29752 H 2983.83 -0.395742 -3.90098 0
M  V30 29753 H 2985.32 0.565769 -4.1375 0
M  V30 29754 N 2985.76 1.38895 -0.744705 0
M  V30 29755 C 2987.01 2.00608 -0.297359 0
M  V30 29756 C 2987.34 1.5897 1.11544 0
M  V30 29757 O 2986.62 0.823088 1.76226 0
M  V30 29758 C 2986.9 3.57756 -0.410188 0
M  V30 29759 C 2986.75 4.09384 -1.86345 0
M  V30 29760 C 2988.07 4.39638 0.201683 0
M  V30 29761 H 2985.19 0.728817 -0.109522 0
M  V30 29762 H 2987.83 1.64965 -0.942682 0
M  V30 29763 H 2985.98 3.8825 0.139219 0
M  V30 29764 H 2987.65 3.8957 -2.47049 0
M  V30 29765 H 2985.9 3.62582 -2.38153 0
M  V30 29766 H 2986.57 5.18504 -1.89361 0
M  V30 29767 H 2989.04 4.15244 -0.266776 0
M  V30 29768 H 2987.92 5.48822 0.0924451 0
M  V30 29769 H 2988.18 4.22894 1.28892 0
M  V30 29770 N 2987.24 0.493084 1.49688 0
M  V30 29771 C 2988.2 -0.278445 2.27502 0
M  V30 29772 C 2989.2 -0.901014 1.33186 0
M  V30 29773 O 2990.39 -0.766774 1.56417 0
M  V30 29774 C 2987.53 -1.39872 3.10883 0
M  V30 29775 H 2988.72 0.404271 2.97163 0
M  V30 29776 H 2986.27 0.247801 1.54323 0
M  V30 29777 H 2987.01 -2.11583 2.4577 0
M  V30 29778 H 2986.79 -0.957857 3.8022 0
M  V30 29779 H 2988.28 -1.9424 3.69676 0
M  V30 29780 N 2988.72 -1.55963 0.226582 0
M  V30 29781 C 2989.68 -2.1925 -0.667976 0
M  V30 29782 C 2990.68 -1.15582 -1.11792 0
M  V30 29783 O 2991.87 -1.40786 -1.02591 0
M  V30 29784 C 2989 -2.81985 -1.91566 0
M  V30 29785 H 2990.2 -2.99675 -0.116122 0
M  V30 29786 H 2987.75 -1.56283 -0.0230222 0
M  V30 29787 H 2988.48 -2.05444 -2.50925 0
M  V30 29788 H 2988.27 -3.57905 -1.60144 0
M  V30 29789 H 2989.76 -3.30481 -2.55288 0
M  V30 29790 N 2990.2 0.0467589 -1.57531 0
M  V30 29791 C 2991.61 0.595572 -1.76946 0
M  V30 29792 C 2991.96 1.76572 -0.855385 0
M  V30 29793 O 2991.08 2.16352 -0.045706 0
M  V30 29794 C 2991.68 1.08719 -3.20883 0
M  V30 29795 C 2990.24 1.58166 -3.41556 0
M  V30 29796 C 2989.38 0.51192 -2.72534 0
M  V30 29797 H 2992.34 -0.179464 -1.57682 0
M  V30 29798 H 2992.36 1.95522 -3.26422 0
M  V30 29799 H 2991.87 0.23533 -3.87386 0
M  V30 29800 H 2989.97 2.45595 -2.80203 0
M  V30 29801 H 2990.08 1.64135 -4.50107 0
M  V30 29802 H 2988.45 0.962857 -2.35799 0
M  V30 29803 H 2989.23 -0.330177 -3.41709 0
M  V30 29804 N 2991.67 1.54344 0.318688 0
M  V30 29805 C 2992.9 1.76496 1.07391 0
M  V30 29806 C 2993.31 0.515913 1.8203 0
M  V30 29807 O 2992.66 -0.523219 1.76091 0
M  V30 29808 C 2992.72 2.90778 2.11396 0
M  V30 29809 C 2992.38 4.2951 1.56111 0
M  V30 29810 C 2993.38 5.10185 1.00034 0
M  V30 29811 C 2991.06 4.76066 1.60207 0
M  V30 29812 C 2993.06 6.3553 0.487881 0
M  V30 29813 C 2990.74 6.01378 1.08574 0
M  V30 29814 C 2991.74 6.80944 0.529594 0
M  V30 29815 O 2991.43 8.03897 0.021041 0
M  V30 29816 H 2991.16 0.592721 0.325051 0
M  V30 29817 H 2993.72 2.02059 0.368974 0
M  V30 29818 H 2991.95 2.60798 2.85519 0
M  V30 29819 H 2993.64 3.00668 2.72678 0
M  V30 29820 H 2994.4 4.75369 0.961727 0
M  V30 29821 H 2990.28 4.14176 2.02434 0
M  V30 29822 H 2993.82 6.9758 0.0531382 0
M  V30 29823 H 2989.72 6.35684 1.12144 0
M  V30 29824 H 2990.49 8.18387 0.136007 0
M  V30 29825 N 2993.15 -0.580999 1.465 0
M  V30 29826 C 2994.39 -1.35018 1.53459 0
M  V30 29827 C 2994.76 -1.9113 0.182575 0
M  V30 29828 O 2995.96 -2.685 0.126921 0
M  V30 29829 C 2994.23 -2.44808 2.60392 0
M  V30 29830 S 2995.79 -3.32129 2.86768 0
M  V30 29831 H 2992.61 -0.459972 0.542168 0
M  V30 29832 H 2995.21 -0.667722 1.83744 0
M  V30 29833 H 2993.91 -2.01979 3.57257 0
M  V30 29834 H 2993.44 -3.17823 2.31844 0
M  V30 29835 H 2995.46 -4.43684 2.22168 0
M  V30 29836 N 2994.63 -1.34234 -0.825776 0
M  V30 29837 C 2995.86 -1.29312 -1.61127 0
M  V30 29838 C 2996.27 0.135556 -1.88714 0
M  V30 29839 O 2995.61 1.09219 -1.47705 0
M  V30 29840 C 2995.67 -2.01292 -2.97862 0
M  V30 29841 C 2995.34 -3.5056 -2.93184 0
M  V30 29842 C 2996.33 -4.4552 -2.6797 0
M  V30 29843 C 2994.02 -3.92931 -3.12906 0
M  V30 29844 C 2996.01 -5.80826 -2.62526 0
M  V30 29845 C 2993.7 -5.28338 -3.07087 0
M  V30 29846 C 2994.7 -6.22097 -2.81929 0
M  V30 29847 O 2994.39 -7.55023 -2.76037 0
M  V30 29848 H 2994.12 -0.4464 -0.507645 0
M  V30 29849 H 2996.67 -1.77376 -1.03571 0
M  V30 29850 H 2994.9 -1.47838 -3.57324 0
M  V30 29851 H 2996.59 -1.89698 -3.58845 0
M  V30 29852 H 2997.36 -4.14106 -2.52471 0
M  V30 29853 H 2993.24 -3.20352 -3.31505 0
M  V30 29854 H 2996.78 -6.5398 -2.42809 0
M  V30 29855 H 2992.68 -5.59372 -3.22138 0
M  V30 29856 H 2993.45 -7.64725 -2.91784 0
M  V30 29857 N 2996.11 1.04563 -1.17917 0
M  V30 29858 C 2997.34 1.81338 -0.996192 0
M  V30 29859 C 2997.75 1.83223 0.455477 0
M  V30 29860 O 2997.11 1.26407 1.31634 0
M  V30 29861 C 2997.16 3.27168 -1.53764 0
M  V30 29862 O 2996.88 3.25481 -2.93247 0
M  V30 29863 C 2998.38 4.20608 -1.40014 0
M  V30 29864 H 2995.6 0.571219 -0.352065 0
M  V30 29865 H 2998.15 1.31813 -1.56351 0
M  V30 29866 H 2996.3 3.73943 -1.0122 0
M  V30 29867 H 2996.71 4.168 -3.184 0
M  V30 29868 H 2998.19 5.20887 -1.82704 0
M  V30 29869 H 2998.67 4.37818 -0.348131 0
M  V30 29870 H 2999.27 3.79693 -1.91606 0
M  V30 29871 N 2997.59 0.980408 1.23393 0
M  V30 29872 C 2999 0.689033 1.4396 0
M  V30 29873 C 2999.2 -0.744776 1.87231 0
M  V30 29874 O 2998.26 -1.51721 2.01834 0
M  V30 29875 C 2999.57 1.68397 2.49125 0
M  V30 29876 C 3001.12 1.69801 2.62938 0
M  V30 29877 C 3001.59 2.68125 3.71313 0
M  V30 29878 N 3003.09 2.66643 3.78755 0
M  V30 29879 C 3003.82 3.39391 4.6217 0
M  V30 29880 N 3003.32 4.21698 5.49675 0
M  V30 29881 N 3005.11 3.28155 4.56367 0
M  V30 29882 H 2997.26 1.90661 0.936073 0
M  V30 29883 H 2999.52 0.821563 0.473009 0
M  V30 29884 H 2999.23 2.70935 2.24248 0
M  V30 29885 H 2999.1 1.46682 3.47512 0
M  V30 29886 H 3001.49 0.679668 2.87166 0
M  V30 29887 H 3001.57 1.95582 1.64868 0
M  V30 29888 H 3001.22 3.70101 3.47833 0
M  V30 29889 H 3001.15 2.39618 4.68925 0
M  V30 29890 H 3003.64 2.0691 3.16223 0
M  V30 29891 H 3003.95 4.74063 6.10314 0
M  V30 29892 H 3002.29 4.25789 5.49298 0
M  V30 29893 H 3005.49 2.63305 3.87024 0
M  V30 29894 H 3005.66 3.85111 5.21146 0
M  V30 29895 N 2999.06 -1.38498 0.75206 0
M  V30 29896 C 3000.34 -1.94206 0.23311 0
M  V30 29897 C 3000.72 -1.68748 -1.26835 0
M  V30 29898 O 3000.07 -1.02517 -2.04212 0
M  V30 29899 C 3000.28 -3.4406 0.585151 0
M  V30 29900 C 3001.63 -4.21101 0.543945 0
M  V30 29901 O 3002.65 -3.52334 0.523353 0
M  V30 29902 O 3001.51 -5.4369 0.553531 0
M  V30 29903 H 2998.6 -0.825587 0.0483194 0
M  V30 29904 H 3001.15 -1.479 0.832079 0
M  V30 29905 H 2999.92 -3.56091 1.62218 0
M  V30 29906 H 2999.55 -3.97578 -0.0419039 0
M  V30 29907 N 3000.54 -0.501015 -1.49424 0
M  V30 29908 C 3001.95 -0.0532339 -1.86624 0
M  V30 29909 C 3002.3 1.36086 -1.41334 0
M  V30 29910 O 3001.43 2.01416 -0.791231 0
M  V30 29911 C 3002.02 -0.0898288 -3.38681 0
M  V30 29912 C 3000.58 0.302611 -3.75182 0
M  V30 29913 C 2999.73 -0.462355 -2.73418 0
M  V30 29914 H 3002.68 -0.713798 -1.41741 0
M  V30 29915 H 3002.7 0.705463 -3.73903 0
M  V30 29916 H 3002.21 -1.11914 -3.71614 0
M  V30 29917 H 3000.32 1.33515 -3.47857 0
M  V30 29918 H 3000.43 -0.0168495 -4.79097 0
M  V30 29919 H 2998.79 0.087811 -2.54549 0
M  V30 29920 H 2999.58 -1.49174 -3.09196 0
M  V30 29921 N 3002.02 1.5584 -0.234849 0
M  V30 29922 C 3003.27 1.98253 0.392448 0
M  V30 29923 C 3003.59 1.12406 1.59342 0
M  V30 29924 O 3002.86 0.204089 1.94834 0
M  V30 29925 H 3001.44 0.732195 0.147986 0
M  V30 29926 H 3004.1 1.92072 -0.330838 0
M  V30 29927 H 3003.2 3.03922 0.709776 0
M  V30 29928 N 3003.5 -0.038404 1.57553 0
M  V30 29929 C 3004.75 -0.732166 1.89122 0
M  V30 29930 C 3005.08 -1.75502 0.831434 0
M  V30 29931 O 3004.35 -1.93885 -0.154608 0
M  V30 29932 C 3004.64 -1.41015 3.31341 0
M  V30 29933 C 3004.49 -0.401453 4.48005 0
M  V30 29934 C 3005.81 -2.34658 3.72322 0
M  V30 29935 H 3002.93 -0.264703 0.687824 0
M  V30 29936 H 3005.57 0.00499619 1.89999 0
M  V30 29937 H 3003.72 -2.03849 3.30723 0
M  V30 29938 H 3005.39 0.22424 4.60755 0
M  V30 29939 H 3003.63 0.280168 4.32894 0
M  V30 29940 H 3004.31 -0.914134 5.44378 0
M  V30 29941 H 3006.78 -1.81877 3.74246 0
M  V30 29942 H 3005.66 -2.79082 4.72657 0
M  V30 29943 H 3005.92 -3.20929 3.04067 0
M  V30 29944 N 3004.98 -1.54511 -0.310498 0
M  V30 29945 C 3006.39 -1.45513 -0.655612 0
M  V30 29946 C 3006.59 -0.638597 -1.91113 0
M  V30 29947 O 3005.65 -0.142542 -2.52097 0
M  V30 29948 C 3006.96 -2.89376 -0.817451 0
M  V30 29949 C 3008.51 -2.99359 -0.91395 0
M  V30 29950 C 3008.99 -4.44399 -1.10786 0
M  V30 29951 N 3010.48 -4.48068 -1.17429 0
M  V30 29952 C 3011.21 -5.57464 -1.34245 0
M  V30 29953 N 3010.71 -6.76803 -1.4802 0
M  V30 29954 N 3012.5 -5.45135 -1.37057 0
M  V30 29955 H 3004.65 -2.06073 0.514542 0
M  V30 29956 H 3006.91 -0.932906 0.168494 0
M  V30 29957 H 3006.62 -3.51684 0.0340648 0
M  V30 29958 H 3006.49 -3.36246 -1.70934 0
M  V30 29959 H 3008.88 -2.37171 -1.75596 0
M  V30 29960 H 3008.96 -2.558 0.00175454 0
M  V30 29961 H 3008.61 -5.07178 -0.270654 0
M  V30 29962 H 3008.54 -4.8558 -2.03764 0
M  V30 29963 H 3011.03 -3.62086 -1.08175 0
M  V30 29964 H 3011.34 -7.55933 -1.60579 0
M  V30 29965 H 3009.69 -6.79686 -1.45093 0
M  V30 29966 H 3012.88 -4.50851 -1.25901 0
M  V30 29967 H 3013.05 -6.30443 -1.4982 0
M  V30 29968 N 3006.46 0.573222 -1.46806 0
M  V30 29969 C 3007.7 1.33085 -1.53818 0
M  V30 29970 C 3008.06 1.91448 -0.191196 0
M  V30 29971 O 3007.35 1.74041 0.801269 0
M  V30 29972 C 3007.54 2.47321 -2.58006 0
M  V30 29973 C 3007.37 2.0015 -4.02703 0
M  V30 29974 C 3006.14 1.84728 -4.70323 0
M  V30 29975 C 3008.34 1.55548 -4.90214 0
M  V30 29976 N 3006.32 1.31728 -5.99601 0
M  V30 29977 C 3007.69 1.14204 -6.09391 0
M  V30 29978 C 3009.75 1.43452 -4.76787 0
M  V30 29979 C 3008.45 0.619683 -7.16626 0
M  V30 29980 C 3010.48 0.926194 -5.84102 0
M  V30 29981 C 3009.84 0.522591 -7.02459 0
M  V30 29982 H 3005.94 0.479617 -0.61765 0
M  V30 29983 H 3008.52 0.651608 -1.83473 0
M  V30 29984 H 3006.69 3.12796 -2.30246 0
M  V30 29985 H 3008.43 3.14292 -2.54956 0
M  V30 29986 H 3005.18 2.06962 -4.25986 0
M  V30 29987 H 3005.6 1.07362 -6.68433 0
M  V30 29988 H 3010.25 1.73272 -3.85664 0
M  V30 29989 H 3007.96 0.309086 -8.07509 0
M  V30 29990 H 3011.55 0.836384 -5.75757 0
M  V30 29991 H 3010.43 0.135329 -7.84083 0
M  V30 29992 N 3007.93 1.3467 0.818645 0
M  V30 29993 C 3008.84 1.28683 1.96158 0
M  V30 29994 C 3009.86 0.193772 1.72918 0
M  V30 29995 O 3011.04 0.42101 1.9695 0
M  V30 29996 C 3008.1 1.04639 3.30532 0
M  V30 29997 C 3007.16 2.23142 3.66751 0
M  V30 29998 C 3006.39 2.00236 4.94713 0
M  V30 29999 O 3006.62 0.962739 5.62217 0
M  V30 30000 O 3005.55 2.87295 5.28909 0
M  V30 30001 H 3009.38 2.24845 2.04153 0
M  V30 30002 H 3006.96 1.14919 0.954671 0
M  V30 30003 H 3008.84 0.930288 4.11003 0
M  V30 30004 H 3007.52 0.115196 3.23495 0
M  V30 30005 H 3006.43 2.40313 2.86706 0
M  V30 30006 H 3007.76 3.14666 3.78479 0
M  V30 30007 N 3009.41 -1.03936 1.1847 0
M  V30 30008 C 3010.64 -1.80545 1.00434 0
M  V30 30009 C 3011.05 -1.83761 -0.450374 0
M  V30 30010 O 3010.39 -1.27278 -1.32461 0
M  V30 30011 C 3010.45 -3.27422 1.48443 0
M  V30 30012 C 3010.12 -3.47864 2.96378 0
M  V30 30013 C 3011.12 -3.38946 3.94223 0
M  V30 30014 C 3008.8 -3.74418 3.34838 0
M  V30 30015 C 3010.79 -3.56289 5.28524 0
M  V30 30016 C 3008.48 -3.91408 4.69301 0
M  V30 30017 C 3009.48 -3.82344 5.65952 0
M  V30 30018 O 3009.17 -3.98845 6.97981 0
M  V30 30019 H 3008.9 -0.575368 0.354863 0
M  V30 30020 H 3011.45 -1.31873 1.57476 0
M  V30 30021 H 3009.68 -3.77069 0.857667 0
M  V30 30022 H 3011.37 -3.85593 1.26777 0
M  V30 30023 H 3012.14 -3.18394 3.65856 0
M  V30 30024 H 3008.02 -3.8057 2.60167 0
M  V30 30025 H 3011.56 -3.4913 6.03949 0
M  V30 30026 H 3007.46 -4.11455 4.97368 0
M  V30 30027 H 3008.23 -4.15998 7.04903 0
M  V30 30028 N 3010.89 -0.986938 -1.22871 0
M  V30 30029 C 3012.13 -0.667577 -1.93191 0
M  V30 30030 C 3012.49 0.785165 -1.75212 0
M  V30 30031 O 3013.69 1.21566 -2.3974 0
M  V30 30032 C 3011.97 -1.05519 -3.41468 0
M  V30 30033 S 3013.52 -0.853293 -4.30423 0
M  V30 30034 H 3010.34 -0.244273 -0.667721 0
M  V30 30035 H 3012.94 -1.26796 -1.48805 0
M  V30 30036 H 3011.65 -2.10898 -3.52065 0
M  V30 30037 H 3011.18 -0.446362 -3.9086 0
M  V30 30038 H 3013.19 0.259357 -4.95522 0
M  V30 30039 N 3012.37 1.38098 -0.759394 0
M  V30 30040 C 3013.32 2.32264 -0.124995 0
M  V30 30041 C 3014.31 1.54313 0.698836 0
M  V30 30042 O 3015.52 1.69801 0.597283 0
M  V30 30043 H 3011.89 0.751689 -0.0216274 0
M  V30 30044 H 3013.86 2.83368 -0.935165 0
M  V30 30045 C 3012.61 3.39528 0.749403 0
M  V30 30046 H 3011.93 3.99605 0.124862 0
M  V30 30047 H 3013.37 4.0781 1.16048 0
M  V30 30048 C 3011.83 2.7858 1.89459 0
M  V30 30049 O 3012.36 2.68348 2.98918 0
M  V30 30050 N 3010.57 2.36304 1.69141 0
M  V30 30051 H 3010.12 2.44826 0.801114 0
M  V30 30052 H 3010.07 1.95868 2.45933 0
M  V30 30053 N 3013.85 0.508932 1.49156 0
M  V30 30054 C 3014.78 -0.254429 2.3211 0
M  V30 30055 C 3015.76 -0.955087 1.40755 0
M  V30 30056 O 3016.94 -0.944954 1.69659 0
M  V30 30057 C 3014.07 -1.31455 3.21461 0
M  V30 30058 C 3013.03 -0.733294 4.21671 0
M  V30 30059 C 3012.35 -1.89451 5.00012 0
M  V30 30060 C 3013.65 0.280967 5.21544 0
M  V30 30061 H 3015.35 0.438002 2.96179 0
M  V30 30062 H 3012.89 0.212087 1.4243 0
M  V30 30063 H 3014.84 -1.85636 3.78308 0
M  V30 30064 H 3013.57 -2.03627 2.5535 0
M  V30 30065 H 3012.23 -0.213167 3.6598 0
M  V30 30066 H 3011.88 -2.60411 4.30343 0
M  V30 30067 H 3011.58 -1.51163 5.67824 0
M  V30 30068 H 3013.1 -2.44051 5.59706 0
M  V30 30069 H 3014.51 -0.172995 5.73039 0
M  V30 30070 H 3012.91 0.580111 5.97289 0
M  V30 30071 H 3013.98 1.19412 4.69967 0
M  V30 30072 N 3015.32 -1.55714 0.243111 0
M  V30 30073 C 3016.55 -2.0325 -0.386936 0
M  V30 30074 C 3016.97 -1.12246 -1.5181 0
M  V30 30075 O 3016.32 -0.136151 -1.81991 0
M  V30 30076 C 3016.37 -3.50161 -0.8983 0
M  V30 30077 O 3016.1 -4.37697 0.187784 0
M  V30 30078 C 3017.6 -4.13441 -1.59942 0
M  V30 30079 H 3014.82 -0.664609 -0.0923864 0
M  V30 30080 H 3017.36 -2.01201 0.365867 0
M  V30 30081 H 3015.52 -3.52757 -1.60129 0
M  V30 30082 H 3015.93 -5.24119 -0.199909 0
M  V30 30083 H 3017.4 -5.1794 -1.90898 0
M  V30 30084 H 3017.88 -3.59707 -2.52008 0
M  V30 30085 H 3018.49 -4.14757 -0.94109 0
M  V30 30086 N 3016.8 0.030048 -1.57571 0
M  V30 30087 C 3017.73 1.05853 -2.03292 0
M  V30 30088 C 3018.75 1.32525 -0.945566 0
M  V30 30089 O 3019.94 1.3003 -1.22289 0
M  V30 30090 C 3017.04 2.40038 -2.39238 0
M  V30 30091 C 3016.21 2.32736 -3.70341 0
M  V30 30092 C 3015.27 3.49362 -3.93488 0
M  V30 30093 O 3014.29 3.28901 -4.64557 0
M  V30 30094 N 3015.5 4.71195 -3.3905 0
M  V30 30095 H 3018.26 0.668846 -2.92141 0
M  V30 30096 H 3015.82 0.218009 -1.60425 0
M  V30 30097 H 3017.81 3.16778 -2.51861 0
M  V30 30098 H 3016.38 2.70855 -1.56065 0
M  V30 30099 H 3015.6 1.41102 -3.68081 0
M  V30 30100 H 3016.89 2.24999 -4.56347 0
M  V30 30101 H 3016.29 4.9072 -2.81443 0
M  V30 30102 H 3014.85 5.45303 -3.57054 0
M  V30 30103 N 3018.28 1.54674 0.3023 0
M  V30 30104 C 3019.52 1.75629 1.04565 0
M  V30 30105 C 3019.88 0.530207 1.84534 0
M  V30 30106 O 3021.09 0.617476 2.61612 0
M  V30 30107 C 3019.36 3.00893 1.92868 0
M  V30 30108 S 3020.92 3.42845 2.73866 0
M  V30 30109 H 3017.73 0.617369 0.352671 0
M  V30 30110 H 3020.34 1.92876 0.319206 0
M  V30 30111 H 3019.04 3.88254 1.32991 0
M  V30 30112 H 3018.57 2.86229 2.69882 0
M  V30 30113 H 3020.59 2.99814 3.95381 0
M  V30 30114 N 3019.76 -0.565428 1.47108 0
M  V30 30115 C 3020.98 -1.3534 1.57155 0
M  V30 30116 C 3021.41 -1.86817 0.21928 0
M  V30 30117 O 3020.77 -1.62522 -0.80351 0
M  V30 30118 C 3020.81 -2.50496 2.59392 0
M  V30 30119 O 3019.92 -3.52474 2.14092 0
M  V30 30120 H 3019.26 -0.402348 0.528216 0
M  V30 30121 H 3021.79 -0.684155 1.92822 0
M  V30 30122 H 3021.8 -2.97179 2.79551 0
M  V30 30123 H 3020.47 -2.12384 3.57583 0
M  V30 30124 H 3019.05 -3.12153 2.03997 0
M  V30 30125 N 3021.24 -1.35102 -0.811492 0
M  V30 30126 C 3022.51 -1.1867 -1.55489 0
M  V30 30127 C 3022.89 0.236152 -2.09775 0
M  V30 30128 O 3022.24 1.23902 -1.91991 0
M  V30 30129 C 3022.45 -2.25072 -2.66728 0
M  V30 30130 C 3023.8 -2.60631 -3.35197 0
M  V30 30131 O 3024.82 -2.23948 -2.76994 0
M  V30 30132 O 3023.68 -3.23687 -4.40329 0
M  V30 30133 H 3020.78 -0.460728 -0.686774 0
M  V30 30134 H 3023.32 -1.46769 -0.851877 0
M  V30 30135 H 3022.09 -3.20527 -2.24451 0
M  V30 30136 H 3021.72 -1.98214 -3.44669 0
M  V30 30137 N 3022.71 1.03306 -1.19019 0
M  V30 30138 C 3023.68 2.09656 -0.926113 0
M  V30 30139 C 3024.68 1.60538 0.0916795 0
M  V30 30140 O 3025.87 1.73615 -0.142605 0
M  V30 30141 C 3023 3.3865 -0.391017 0
M  V30 30142 H 3024.19 2.34517 -1.86927 0
M  V30 30143 H 3021.75 1.19851 -1.00327 0
M  V30 30144 H 3022.48 3.19457 0.55839 0
M  V30 30145 H 3022.27 3.7562 -1.1248 0
M  V30 30146 H 3023.76 4.16992 -0.225205 0
M  V30 30147 N 3024.19 0.99344 1.22346 0
M  V30 30148 C 3025.1 0.553116 2.27986 0
M  V30 30149 C 3026.12 -0.398357 1.69379 0
M  V30 30150 O 3027.29 -0.265055 1.99648 0
M  V30 30151 C 3024.36 -0.124748 3.46475 0
M  V30 30152 C 3023.42 0.869756 4.20397 0
M  V30 30153 C 3022.65 0.224146 5.33229 0
M  V30 30154 O 3022.88 -0.981816 5.61887 0
M  V30 30155 O 3021.81 0.929278 5.94683 0
M  V30 30156 H 3025.64 1.432 2.6782 0
M  V30 30157 H 3023.22 0.761716 1.28523 0
M  V30 30158 H 3025.1 -0.504422 4.1837 0
M  V30 30159 H 3023.78 -0.978189 3.08566 0
M  V30 30160 H 3022.69 1.30037 3.50772 0
M  V30 30161 H 3024.02 1.69242 4.62188 0
M  V30 30162 N 3025.67 -1.37693 0.766707 0
M  V30 30163 C 3026.92 -1.99419 0.3281 0
M  V30 30164 C 3027.24 -1.61168 -1.09772 0
M  V30 30165 O 3026.51 -0.874717 -1.75287 0
M  V30 30166 H 3025.09 -0.737569 0.118323 0
M  V30 30167 H 3027.75 -1.68253 0.983715 0
M  V30 30168 H 3026.85 -3.09504 0.401701 0
M  V30 30169 N 3027.15 -0.516835 -1.48884 0
M  V30 30170 C 3028.38 0.0183653 -2.06892 0
M  V30 30171 C 3028.79 1.29366 -1.37514 0
M  V30 30172 O 3028.15 1.76648 -0.45844 0
M  V30 30173 C 3028.2 0.25961 -3.60567 0
M  V30 30174 O 3027.92 -0.96514 -4.27337 0
M  V30 30175 C 3029.42 0.836674 -4.35333 0
M  V30 30176 H 3026.64 -0.0275861 -0.670433 0
M  V30 30177 H 3029.19 -0.718723 -1.91454 0
M  V30 30178 H 3027.34 0.946714 -3.75654 0
M  V30 30179 H 3027.75 -0.737738 -5.19286 0
M  V30 30180 H 3029.23 0.95497 -5.43677 0
M  V30 30181 H 3029.71 1.83838 -3.98873 0
M  V30 30182 H 3030.31 0.186547 -4.24891 0
M  V30 30183 N 3028.63 1.55583 -0.251365 0
M  V30 30184 C 3029.59 2.20285 0.633011 0
M  V30 30185 C 3030.59 1.17346 1.09939 0
M  V30 30186 O 3031.78 1.424 1.00338 0
M  V30 30187 C 3028.91 2.84997 1.87055 0
M  V30 30188 H 3030.1 2.99822 0.0684319 0
M  V30 30189 H 3027.66 1.563 -0.001844 0
M  V30 30190 H 3028.39 2.0941 2.47625 0
M  V30 30191 H 3028.18 3.60408 1.5443 0
M  V30 30192 H 3029.67 3.34501 2.49998 0
M  V30 30193 N 3030.1 -0.0216912 1.57585 0
M  V30 30194 C 3031.35 -0.712065 1.89888 0
M  V30 30195 C 3031.68 -1.7461 0.850002 0
M  V30 30196 O 3030.96 -1.94038 -0.134036 0
M  V30 30197 C 3031.24 -1.37493 3.32818 0
M  V30 30198 C 3031.09 -0.353914 4.48405 0
M  V30 30199 C 3032.41 -2.30696 3.7479 0
M  V30 30200 H 3029.53 -0.257393 0.690593 0
M  V30 30201 H 3032.17 0.0251479 1.89983 0
M  V30 30202 H 3030.32 -2.00329 3.32867 0
M  V30 30203 H 3032 0.273096 4.60491 0
M  V30 30204 H 3030.24 0.326066 4.32573 0
M  V30 30205 H 3030.91 -0.856344 5.45317 0
M  V30 30206 H 3033.39 -1.77897 3.76154 0
M  V30 30207 H 3032.26 -2.74053 4.7559 0
M  V30 30208 H 3032.52 -3.17686 3.07454 0
M  V30 30209 N 3031.58 -1.54832 -0.294093 0
M  V30 30210 C 3032.55 -1.85509 -1.34607 0
M  V30 30211 C 3033.55 -0.728368 -1.43358 0
M  V30 30212 O 3034.74 -0.996634 -1.42874 0
M  V30 30213 C 3031.87 -2.04155 -2.73009 0
M  V30 30214 H 3033.06 -2.79528 -1.08646 0
M  V30 30215 H 3030.61 -1.47 -0.531112 0
M  V30 30216 H 3031.35 -1.12446 -3.04181 0
M  V30 30217 H 3031.13 -2.86171 -2.68046 0
M  V30 30218 H 3032.62 -2.29235 -3.49057 0
M  V30 30219 N 3033.06 0.557619 -1.47405 0
M  V30 30220 C 3034.47 1.13974 -1.47874 0
M  V30 30221 C 3034.82 1.94809 -0.23321 0
M  V30 30222 O 3033.95 2.06028 0.661908 0
M  V30 30223 C 3034.54 2.07363 -2.67929 0
M  V30 30224 C 3033.1 2.60848 -2.71359 0
M  V30 30225 C 3032.25 1.37219 -2.40969 0
M  V30 30226 H 3035.2 0.344241 -1.54921 0
M  V30 30227 H 3035.22 2.91232 -2.44876 0
M  V30 30228 H 3034.73 1.48502 -3.58565 0
M  V30 30229 H 3032.83 3.23508 -1.84861 0
M  V30 30230 H 3032.95 3.01869 -3.72037 0
M  V30 30231 H 3031.31 1.67878 -1.91543 0
M  V30 30232 H 3032.09 0.801524 -3.33812 0
M  V30 30233 N 3034.54 1.35531 0.804316 0
M  V30 30234 C 3035.95 1.25917 1.37847 0
M  V30 30235 C 3036.3 -0.107461 1.95905 0
M  V30 30236 O 3035.43 -1.00849 1.91464 0
M  V30 30237 C 3036.02 2.27998 2.50604 0
M  V30 30238 C 3034.58 2.22119 3.03875 0
M  V30 30239 C 3033.73 2.13585 1.76853 0
M  V30 30240 H 3036.68 1.46626 0.607166 0
M  V30 30241 H 3036.7 1.90778 3.29217 0
M  V30 30242 H 3036.21 3.27453 2.08317 0
M  V30 30243 H 3034.31 1.26083 3.50619 0
M  V30 30244 H 3034.43 3.14179 3.61702 0
M  V30 30245 H 3032.79 1.59599 1.98495 0
M  V30 30246 H 3033.57 3.14903 1.36715 0
M  V30 30247 N 3036.02 -1.02674 1.19565 0
M  V30 30248 C 3037.25 -1.79731 1.02492 0
M  V30 30249 C 3037.66 -1.83925 -0.42627 0
M  V30 30250 O 3037.02 -1.28485 -1.29606 0
M  V30 30251 C 3037.07 -3.2468 1.58949 0
M  V30 30252 O 3036.79 -3.20774 2.98388 0
M  V30 30253 C 3038.29 -4.18327 1.46688 0
M  V30 30254 H 3035.51 -0.565546 0.361108 0
M  V30 30255 H 3038.05 -1.29309 1.58428 0
M  V30 30256 H 3036.21 -3.72285 1.07156 0
M  V30 30257 H 3036.62 -4.11681 3.2499 0
M  V30 30258 H 3038.1 -5.17914 1.90968 0
M  V30 30259 H 3038.57 -4.37209 0.41774 0
M  V30 30260 H 3039.18 -3.76597 1.97623 0
M  V30 30261 N 3037.5 -0.999914 -1.21817 0
M  V30 30262 C 3038.74 -0.680734 -1.91034 0
M  V30 30263 C 3039.07 0.78599 -1.77583 0
M  V30 30264 O 3038.35 1.56919 -1.1492 0
M  V30 30265 C 3038.63 -1.09616 -3.43011 0
M  V30 30266 C 3038.49 -2.62196 -3.65477 0
M  V30 30267 C 3039.8 -0.654692 -4.35203 0
M  V30 30268 H 3036.92 -0.248775 -0.693743 0
M  V30 30269 H 3039.57 -1.24469 -1.43553 0
M  V30 30270 H 3037.72 -0.61632 -3.8358 0
M  V30 30271 H 3039.39 -3.17904 -3.34267 0
M  V30 30272 H 3037.63 -3.03944 -3.09517 0
M  V30 30273 H 3038.3 -2.86315 -4.7194 0
M  V30 30274 H 3040.78 -1.06695 -4.02188 0
M  V30 30275 H 3039.65 -0.973587 -5.40197 0
M  V30 30276 H 3039.91 0.444381 -4.39861 0
M  V30 30277 N 3038.97 1.37284 -0.773999 0
M  V30 30278 C 3040.2 2.03905 -0.350794 0
M  V30 30279 C 3040.62 1.58375 1.02776 0
M  V30 30280 O 3039.97 0.766039 1.65644 0
M  V30 30281 C 3040.02 3.59418 -0.387399 0
M  V30 30282 O 3039.75 4.03283 -1.71157 0
M  V30 30283 C 3041.25 4.43275 0.0471201 0
M  V30 30284 H 3038.47 0.654773 -0.146675 0
M  V30 30285 H 3041.01 1.75573 -1.04855 0
M  V30 30286 H 3039.17 3.86514 0.261797 0
M  V30 30287 H 3039.58 4.97813 -1.65175 0
M  V30 30288 H 3041.05 5.51992 -0.0296445 0
M  V30 30289 H 3041.53 4.25259 1.09778 0
M  V30 30290 H 3042.14 4.21409 -0.573974 0
M  V30 30291 N 3040.45 0.524724 1.48608 0
M  V30 30292 C 3041.86 0.0829174 1.86516 0
M  V30 30293 C 3042.21 -1.3382 1.43481 0
M  V30 30294 O 3041.34 -2.00132 0.823174 0
M  V30 30295 C 3041.93 0.143699 3.38495 0
M  V30 30296 C 3040.49 -0.242885 3.75616 0
M  V30 30297 C 3039.64 0.505795 2.72648 0
M  V30 30298 H 3042.59 0.736257 1.40588 0
M  V30 30299 H 3042.61 -0.645889 3.74978 0
M  V30 30300 H 3042.12 1.17812 3.69786 0
M  V30 30301 H 3040.22 -1.27964 3.49937 0
M  V30 30302 H 3040.34 0.0930676 4.7901 0
M  V30 30303 H 3038.7 -0.0473034 2.54656 0
M  V30 30304 H 3039.48 1.54074 3.06783 0
M  V30 30305 N 3041.93 -1.55447 0.259613 0
M  V30 30306 C 3043.18 -1.99541 -0.362108 0
M  V30 30307 C 3043.51 -1.14769 -1.56658 0
M  V30 30308 O 3042.78 -0.214059 -1.93318 0
M  V30 30309 C 3043.07 -3.51999 -0.759526 0
M  V30 30310 C 3042.92 -4.47531 0.451213 0
M  V30 30311 C 3044.24 -4.09915 -1.60179 0
M  V30 30312 H 3041.36 -0.725418 -0.130144 0
M  V30 30313 H 3044 -1.86491 0.363464 0
M  V30 30314 H 3042.15 -3.6325 -1.37773 0
M  V30 30315 H 3043.82 -4.48244 1.08972 0
M  V30 30316 H 3042.06 -4.19829 1.09207 0
M  V30 30317 H 3042.74 -5.51848 0.129615 0
M  V30 30318 H 3045.21 -4.01844 -1.07983 0
M  V30 30319 H 3044.09 -5.16831 -1.8487 0
M  V30 30320 H 3044.35 -3.59168 -2.5778 0
M  V30 30321 N 3043.41 0.0133338 -1.57594 0
M  V30 30322 C 3044.82 0.557905 -1.78169 0
M  V30 30323 C 3045.17 1.74718 -0.892646 0
M  V30 30324 O 3044.29 2.16206 -0.0915871 0
M  V30 30325 C 3044.89 1.01888 -3.23116 0
M  V30 30326 C 3043.45 1.50886 -3.44834 0
M  V30 30327 C 3042.6 0.453996 -2.73558 0
M  V30 30328 H 3045.55 -0.21287 -1.57266 0
M  V30 30329 H 3045.57 1.88554 -3.30496 0
M  V30 30330 H 3045.08 0.153107 -3.87798 0
M  V30 30331 H 3043.18 2.39597 -2.85349 0
M  V30 30332 H 3043.29 1.54551 -4.53487 0
M  V30 30333 H 3041.66 0.912624 -2.37788 0
M  V30 30334 H 3042.44 -0.402584 -3.40931 0
M  V30 30335 N 3044.89 1.54985 0.285878 0
M  V30 30336 C 3046.11 1.79322 1.04204 0
M  V30 30337 C 3046.54 0.558374 1.79621 0
M  V30 30338 O 3045.89 -0.491631 1.74507 0
M  V30 30339 C 3045.94 3.00954 1.98643 0
M  V30 30340 O 3045.05 2.75137 3.07202 0
M  V30 30341 H 3044.39 0.593079 0.298586 0
M  V30 30342 H 3046.92 2.02103 0.3187 0
M  V30 30343 H 3046.93 3.29337 2.40834 0
M  V30 30344 H 3045.6 3.90484 1.4316 0
M  V30 30345 H 3044.18 2.57814 2.69418 0
M  V30 30346 N 3046.36 -0.549794 1.47699 0
M  V30 30347 C 3047.29 -1.6658 1.63625 0
M  V30 30348 C 3048.28 -1.63024 0.485506 0
M  V30 30349 O 3049.46 -1.8053 0.715723 0
M  V30 30350 C 3046.59 -3.05208 1.65726 0
M  V30 30351 C 3045.54 -3.23615 2.80102 0
M  V30 30352 C 3044.87 -4.63104 2.6728 0
M  V30 30353 C 3046.17 -3.08279 4.21618 0
M  V30 30354 H 3047.86 -1.53508 2.57052 0
M  V30 30355 H 3045.41 -0.737078 1.23706 0
M  V30 30356 H 3047.36 -3.83135 1.75458 0
M  V30 30357 H 3046.09 -3.19257 0.688649 0
M  V30 30358 H 3044.75 -2.48099 2.69893 0
M  V30 30359 H 3044.39 -4.73962 1.68431 0
M  V30 30360 H 3044.09 -4.76368 3.44017 0
M  V30 30361 H 3045.62 -5.43156 2.78951 0
M  V30 30362 H 3047.03 -3.76016 4.32764 0
M  V30 30363 H 3045.43 -3.33048 4.99198 0
M  V30 30364 H 3046.5 -2.04934 4.39465 0
M  V30 30365 N 3047.84 -1.35955 -0.797117 0
M  V30 30366 C 3048.75 -1.31788 -1.94086 0
M  V30 30367 C 3049.77 -0.221258 -1.72588 0
M  V30 30368 O 3050.94 -0.45229 -1.96256 0
M  V30 30369 C 3048.01 -1.09884 -3.28826 0
M  V30 30370 C 3047.07 -2.28949 -3.63154 0
M  V30 30371 C 3046.3 -2.08081 -4.91465 0
M  V30 30372 O 3046.53 -1.05206 -5.60614 0
M  V30 30373 O 3045.46 -2.95673 -5.24272 0
M  V30 30374 H 3049.29 -2.28065 -2.0055 0
M  V30 30375 H 3046.87 -1.16423 -0.936267 0
M  V30 30376 H 3048.75 -0.995557 -4.09471 0
M  V30 30377 H 3047.43 -0.166647 -3.23271 0
M  V30 30378 H 3046.34 -2.44844 -2.82847 0
M  V30 30379 H 3047.67 -3.20648 -3.73425 0
M  V30 30380 N 3049.32 1.02038 -1.20108 0
M  V30 30381 C 3050.28 2.08662 -0.948298 0
M  V30 30382 C 3051.28 1.60627 0.0746471 0
M  V30 30383 O 3052.47 1.73454 -0.161011 0
M  V30 30384 C 3049.61 3.38216 -0.426914 0
M  V30 30385 H 3050.8 2.32521 -1.89404 0
M  V30 30386 H 3048.35 1.1878 -1.01592 0
M  V30 30387 H 3049.09 3.20031 0.524476 0
M  V30 30388 H 3048.87 3.74406 -1.16458 0
M  V30 30389 H 3050.36 4.1673 -0.26942 0
M  V30 30390 N 3050.8 1.00636 1.21285 0
M  V30 30391 C 3052.21 0.722945 1.72135 0
M  V30 30392 C 3052.56 -0.759306 1.80912 0
M  V30 30393 O 3051.69 -1.59306 1.46461 0
M  V30 30394 C 3052.28 1.30566 3.12631 0
M  V30 30395 C 3050.84 1.07134 3.60831 0
M  V30 30396 C 3049.99 1.41765 2.38324 0
M  V30 30397 H 3052.94 1.17709 1.06443 0
M  V30 30398 H 3052.96 0.691003 3.74173 0
M  V30 30399 H 3052.47 2.38446 3.06211 0
M  V30 30400 H 3050.57 0.0097522 3.72599 0
M  V30 30401 H 3050.68 1.74418 4.46223 0
M  V30 30402 H 3049.05 0.836455 2.40573 0
M  V30 30403 H 3049.83 2.50678 2.34553 0
M  V30 30404 N 3052.28 -1.36872 0.781268 0
M  V30 30405 C 3053.5 -2.04244 0.360434 0
M  V30 30406 C 3053.93 -1.58531 -1.0124 0
M  V30 30407 O 3053.28 -0.749965 -1.65061 0
M  V30 30408 C 3053.33 -3.58106 0.423353 0
M  V30 30409 O 3052.44 -4.08404 -0.572725 0
M  V30 30410 H 3051.78 -0.6458 0.154397 0
M  V30 30411 H 3054.31 -1.74994 1.06011 0
M  V30 30412 H 3054.32 -4.0701 0.284039 0
M  V30 30413 H 3052.99 -3.90732 1.42484 0
M  V30 30414 H 3051.57 -3.70794 -0.395744 0
M  V30 30415 N 3053.75 -0.532597 -1.48328 0
M  V30 30416 C 3054.66 0.232505 -2.33445 0
M  V30 30417 C 3055.68 0.936424 -1.46653 0
M  V30 30418 O 3056.86 0.910802 -1.79628 0
M  V30 30419 C 3053.92 1.26428 -3.22826 0
M  V30 30420 C 3052.98 0.570436 -4.25493 0
M  V30 30421 C 3052.22 1.55306 -5.10603 0
M  V30 30422 O 3052.44 2.78591 -4.97738 0
M  V30 30423 O 3051.37 1.09102 -5.91929 0
M  V30 30424 H 3055.2 -0.465041 -3.00118 0
M  V30 30425 H 3052.78 -0.293487 -1.46489 0
M  V30 30426 H 3054.67 1.86048 -3.78106 0
M  V30 30427 H 3053.34 1.94419 -2.58811 0
M  V30 30428 H 3052.25 -0.0663244 -3.74041 0
M  V30 30429 H 3053.58 -0.0675769 -4.92154 0
M  V30 30430 N 3055.23 1.55307 -0.267853 0
M  V30 30431 C 3056.16 2.19615 0.655872 0
M  V30 30432 C 3057.18 1.17867 1.123 0
M  V30 30433 O 3058.37 1.4463 1.04615 0
M  V30 30434 C 3055.47 2.80238 1.90577 0
M  V30 30435 C 3054.64 4.07608 1.58665 0
M  V30 30436 C 3053.7 4.52347 2.68828 0
M  V30 30437 O 3052.72 5.18278 2.35322 0
M  V30 30438 N 3053.93 4.2188 3.98745 0
M  V30 30439 H 3056.69 2.99514 0.105514 0
M  V30 30440 H 3054.25 1.61657 -0.0886547 0
M  V30 30441 H 3056.24 3.07116 2.63556 0
M  V30 30442 H 3054.81 2.04375 2.36537 0
M  V30 30443 H 3054.03 3.88096 0.691045 0
M  V30 30444 H 3055.32 4.90608 1.34837 0
M  V30 30445 H 3054.72 3.68992 4.2879 0
M  V30 30446 H 3053.28 4.53546 4.68124 0
M  V30 30447 N 3056.71 -0.00497598 1.57599 0
M  V30 30448 C 3057.67 -0.982796 2.0706 0
M  V30 30449 C 3058.67 -1.27557 0.979068 0
M  V30 30450 O 3059.86 -1.22159 1.24189 0
M  V30 30451 C 3057 -2.30909 2.50786 0
M  V30 30452 H 3058.19 -0.555067 2.94719 0
M  V30 30453 H 3055.74 -0.252343 1.5425 0
M  V30 30454 H 3056.48 -2.78382 1.66356 0
M  V30 30455 H 3056.26 -2.10981 3.30499 0
M  V30 30456 H 3057.75 -3.01064 2.89396 0
M  V30 30457 N 3058.19 -1.55135 -0.277654 0
M  V30 30458 C 3059.6 -1.66278 -0.849034 0
M  V30 30459 C 3059.95 -0.586733 -1.87221 0
M  V30 30460 O 3059.08 0.272597 -2.14676 0
M  V30 30461 C 3059.67 -3.01432 -1.54675 0
M  V30 30462 C 3058.23 -3.14617 -2.06623 0
M  V30 30463 C 3057.38 -2.62058 -0.906702 0
M  V30 30464 H 3060.33 -1.58608 -0.0541078 0
M  V30 30465 H 3060.35 -2.9416 -2.41351 0
M  V30 30466 H 3059.86 -3.79727 -0.801823 0
M  V30 30467 H 3057.96 -2.41087 -2.84091 0
M  V30 30468 H 3058.07 -4.21114 -2.28473 0
M  V30 30469 H 3056.44 -2.19097 -1.29879 0
M  V30 30470 H 3057.22 -3.42852 -0.175353 0
M  V30 30471 N 3059.67 0.541953 -1.47989 0
M  V30 30472 C 3060.89 1.32344 -1.59037 0
M  V30 30473 C 3061.31 1.87188 -0.246156 0
M  V30 30474 O 3060.67 1.65791 0.762859 0
M  V30 30475 C 3060.72 2.4827 -2.62763 0
M  V30 30476 O 3060.44 1.95688 -3.91967 0
M  V30 30477 C 3061.94 3.40265 -2.84139 0
M  V30 30478 H 3059.16 0.402892 -0.536581 0
M  V30 30479 H 3061.7 0.655011 -1.93726 0
M  V30 30480 H 3059.86 3.1102 -2.30965 0
M  V30 30481 H 3060.27 2.71482 -4.48774 0
M  V30 30482 H 3061.75 4.17985 -3.60545 0
M  V30 30483 H 3062.22 3.94757 -1.92519 0
M  V30 30484 H 3062.83 2.83317 -3.17193 0
M  V30 30485 N 3061.15 1.36376 0.789896 0
M  V30 30486 C 3062.06 1.32815 1.93384 0
M  V30 30487 C 3063.07 0.230407 1.72468 0
M  V30 30488 O 3064.25 0.462691 1.96013 0
M  V30 30489 C 3061.31 1.11626 3.28238 0
M  V30 30490 C 3060.37 2.30871 3.61935 0
M  V30 30491 C 3059.61 2.10684 4.90355 0
M  V30 30492 O 3059.83 1.08178 5.60048 0
M  V30 30493 O 3058.76 2.98449 5.22697 0
M  V30 30494 H 3062.59 2.29125 1.99338 0
M  V30 30495 H 3060.17 1.16918 0.93008 0
M  V30 30496 H 3062.06 1.01726 4.08937 0
M  V30 30497 H 3060.73 0.183788 3.23178 0
M  V30 30498 H 3059.64 2.4634 2.81544 0
M  V30 30499 H 3060.97 3.22624 3.71719 0
M  V30 30500 N 3062.62 -1.014 1.20647 0
M  V30 30501 C 3063.56 -2.10125 0.915429 0
M  V30 30502 C 3064.57 -1.62506 -0.097842 0
M  V30 30503 O 3065.76 -1.78 0.133508 0
M  V30 30504 C 3062.86 -3.37074 0.351364 0
M  V30 30505 C 3062.03 -4.13818 1.4168 0
M  V30 30506 C 3061.09 -5.19065 0.863591 0
M  V30 30507 O 3060.12 -5.47833 1.5449 0
M  V30 30508 N 3061.32 -5.79586 -0.325697 0
M  V30 30509 H 3064.08 -2.35679 1.85136 0
M  V30 30510 H 3061.64 -1.17811 1.1105 0
M  V30 30511 H 3063.64 -4.04687 -0.0329249 0
M  V30 30512 H 3062.21 -3.08749 -0.489187 0
M  V30 30513 H 3061.43 -3.41138 1.97532 0
M  V30 30514 H 3062.71 -4.61872 2.13428 0
M  V30 30515 H 3062.11 -5.58552 -0.896436 0
M  V30 30516 H 3060.67 -6.48535 -0.651594 0
M  V30 30517 N 3064.1 -1.01278 -1.2075 0
M  V30 30518 C 3065.52 -0.726959 -1.42083 0
M  V30 30519 C 3065.72 0.694874 -1.8914 0
M  V30 30520 O 3064.77 1.46316 -2.05786 0
M  V30 30521 C 3066.09 -1.74943 -2.44572 0
M  V30 30522 C 3067.63 -1.76713 -2.58344 0
M  V30 30523 C 3068.11 -2.77875 -3.64073 0
M  V30 30524 N 3069.6 -2.76591 -3.71553 0
M  V30 30525 C 3070.34 -3.51525 -4.53009 0
M  V30 30526 N 3069.83 -4.36124 -5.38301 0
M  V30 30527 N 3071.62 -3.4014 -4.47506 0
M  V30 30528 H 3063.78 -1.93075 -0.885194 0
M  V30 30529 H 3066.04 -0.833816 -0.45106 0
M  V30 30530 H 3065.74 -2.76786 -2.16985 0
M  V30 30531 H 3065.62 -1.55844 -3.435 0
M  V30 30532 H 3068.01 -0.755566 -2.85263 0
M  V30 30533 H 3068.09 -1.99884 -1.59624 0
M  V30 30534 H 3067.73 -3.79193 -3.37898 0
M  V30 30535 H 3067.66 -2.51967 -4.62407 0
M  V30 30536 H 3070.15 -2.15221 -3.10626 0
M  V30 30537 H 3070.46 -4.90078 -5.97531 0
M  V30 30538 H 3068.81 -4.40203 -5.37816 0
M  V30 30539 H 3072 -2.73474 -3.79907 0
M  V30 30540 H 3072.17 -3.98793 -5.10752 0
M  V30 30541 N 3065.58 1.36456 -0.788516 0
M  V30 30542 C 3066.99 1.81827 -0.423774 0
M  V30 30543 C 3067.34 1.65601 1.05218 0
M  V30 30544 O 3066.47 1.17645 1.81628 0
M  V30 30545 C 3067.06 3.3011 -0.762412 0
M  V30 30546 C 3065.62 3.73694 -0.450511 0
M  V30 30547 C 3064.77 2.58737 -0.997527 0
M  V30 30548 H 3067.72 1.2469 -0.98174 0
M  V30 30549 H 3067.74 3.80463 -0.0531805 0
M  V30 30550 H 3067.25 3.41888 -1.83668 0
M  V30 30551 H 3065.35 3.67477 0.615764 0
M  V30 30552 H 3065.47 4.69168 -0.970491 0
M  V30 30553 H 3063.83 2.512 -0.420805 0
M  V30 30554 H 3064.61 2.733 -2.07754 0
M  V30 30555 N 3067.06 0.540456 1.48043 0
M  V30 30556 C 3068.31 0.0101722 2.02097 0
M  V30 30557 C 3068.63 -1.33769 1.41884 0
M  V30 30558 O 3067.9 -1.86869 0.587956 0
M  V30 30559 H 3066.48 0.000771847 0.747 0
M  V30 30560 H 3069.14 0.706666 1.81638 0
M  V30 30561 H 3068.23 -0.0903925 3.11969 0
M  V30 30562 N 3068.54 -1.55163 0.276085 0
M  V30 30563 C 3069.78 -1.99914 -0.340924 0
M  V30 30564 C 3070.11 -1.16424 -1.55432 0
M  V30 30565 O 3069.39 -0.234551 -1.93081 0
M  V30 30566 C 3069.67 -3.52785 -0.722149 0
M  V30 30567 C 3069.53 -4.47027 0.498654 0
M  V30 30568 C 3070.84 -4.11591 -1.55822 0
M  V30 30569 H 3067.96 -0.726758 -0.122443 0
M  V30 30570 H 3070.61 -1.86095 0.383223 0
M  V30 30571 H 3068.76 -3.64691 -1.33913 0
M  V30 30572 H 3070.43 -4.47063 1.1372 0
M  V30 30573 H 3068.67 -4.18647 1.13654 0
M  V30 30574 H 3069.34 -5.51679 0.188138 0
M  V30 30575 H 3071.82 -4.02967 -1.03715 0
M  V30 30576 H 3070.69 -5.18763 -1.79378 0
M  V30 30577 H 3070.95 -3.61882 -2.53957 0
M  V30 30578 N 3070.01 -0.00338196 -1.576 0
M  V30 30579 C 3070.95 1.01517 -2.05492 0
M  V30 30580 C 3071.96 1.3049 -0.973464 0
M  V30 30581 O 3073.15 1.27406 -1.25019 0
M  V30 30582 C 3070.25 2.3491 -2.44276 0
M  V30 30583 C 3069.42 2.24828 -3.75195 0
M  V30 30584 C 3068.48 3.40937 -4.0081 0
M  V30 30585 O 3067.51 3.18973 -4.71429 0
M  V30 30586 N 3068.71 4.63898 -3.48969 0
M  V30 30587 H 3071.47 0.606728 -2.93494 0
M  V30 30588 H 3069.03 0.183932 -1.60852 0
M  V30 30589 H 3071.03 3.11364 -2.58524 0
M  V30 30590 H 3069.6 2.67484 -1.61775 0
M  V30 30591 H 3068.82 1.33263 -3.70991 0
M  V30 30592 H 3070.1 2.15269 -4.61017 0
M  V30 30593 H 3069.5 4.8464 -2.91789 0
M  V30 30594 H 3068.06 5.37607 -3.68541 0
M  V30 30595 N 3071.49 1.5528 0.269423 0
M  V30 30596 C 3072.4 1.91507 1.35507 0
M  V30 30597 C 3073.42 0.812739 1.53852 0
M  V30 30598 O 3074.59 1.11213 1.6791 0
M  V30 30599 C 3071.66 2.18272 2.69367 0
M  V30 30600 C 3070.72 3.41811 2.59737 0
M  V30 30601 C 3069.95 3.6729 3.87213 0
M  V30 30602 O 3070.18 2.95217 4.8806 0
M  V30 30603 O 3069.11 4.60824 3.87201 0
M  V30 30604 H 3072.94 2.83931 1.0778 0
M  V30 30605 H 3070.52 1.41872 0.468257 0
M  V30 30606 H 3072.4 2.36895 3.48509 0
M  V30 30607 H 3071.08 1.29029 2.96872 0
M  V30 30608 H 3069.98 3.28519 1.78958 0
M  V30 30609 H 3071.32 4.31284 2.37181 0
M  V30 30610 N 3072.97 -0.534097 1.48274 0
M  V30 30611 C 3074.21 -1.30067 1.57676 0
M  V30 30612 C 3074.57 -1.90452 0.24329 0
M  V30 30613 O 3075.77 -2.6796 0.212278 0
M  V30 30614 C 3074.05 -2.364 2.68048 0
M  V30 30615 S 3075.6 -3.22838 2.97189 0
M  V30 30616 H 3072.42 -0.442491 0.556527 0
M  V30 30617 H 3075.02 -0.608927 1.85775 0
M  V30 30618 H 3073.73 -1.90511 3.63502 0
M  V30 30619 H 3073.26 -3.10287 2.41838 0
M  V30 30620 H 3075.27 -4.36392 2.36171 0
M  V30 30621 N 3074.45 -1.36793 -0.782652 0
M  V30 30622 C 3075.68 -1.34373 -1.56932 0
M  V30 30623 C 3076.09 0.0754496 -1.8905 0
M  V30 30624 O 3075.43 1.04465 -1.51105 0
M  V30 30625 C 3075.49 -2.10666 -2.91307 0
M  V30 30626 C 3075.15 -3.5971 -2.81883 0
M  V30 30627 C 3076.15 -4.5382 -2.5366 0
M  V30 30628 C 3073.84 -4.02687 -3.00247 0
M  V30 30629 C 3075.83 -5.88884 -2.43914 0
M  V30 30630 C 3073.52 -5.3784 -2.90122 0
M  V30 30631 C 3074.52 -6.30752 -2.61995 0
M  V30 30632 O 3074.2 -7.63422 -2.51876 0
M  V30 30633 H 3073.94 -0.462324 -0.493186 0
M  V30 30634 H 3076.49 -1.80581 -0.978759 0
M  V30 30635 H 3074.72 -1.59131 -3.5244 0
M  V30 30636 H 3076.41 -2.01018 -3.52628 0
M  V30 30637 H 3077.17 -4.21928 -2.39169 0
M  V30 30638 H 3073.05 -3.30737 -3.21145 0
M  V30 30639 H 3076.6 -6.61373 -2.2188 0
M  V30 30640 H 3072.49 -5.69338 -3.04179 0
M  V30 30641 H 3073.26 -7.73621 -2.67307 0
M  V30 30642 N 3075.93 1.00759 -1.21184 0
M  V30 30643 C 3076.88 2.07889 -0.936283 0
M  V30 30644 C 3077.86 1.60541 0.107453 0
M  V30 30645 O 3079.05 1.76711 -0.101131 0
M  V30 30646 C 3076.18 3.39639 -0.500008 0
M  V30 30647 C 3075.27 3.93663 -1.57767 0
M  V30 30648 N 3075.66 4.21085 -2.80216 0
M  V30 30649 C 3073.96 4.21911 -1.44594 0
M  V30 30650 C 3074.66 4.64778 -3.49795 0
M  V30 30651 N 3073.63 4.67596 -2.77228 0
M  V30 30652 H 3077.44 2.27012 -1.86663 0
M  V30 30653 H 3074.95 1.18808 -1.10718 0
M  V30 30654 H 3076.95 4.15932 -0.28397 0
M  V30 30655 H 3075.61 3.21925 0.423602 0
M  V30 30656 H 3076.62 4.09718 -3.16783 0
M  V30 30657 H 3073.29 4.13347 -0.587419 0
M  V30 30658 H 3074.68 4.94739 -4.54623 0
M  V30 30659 N 3077.4 1.01917 1.20211 0
M  V30 30660 C 3078.65 0.708586 1.89271 0
M  V30 30661 C 3078.97 -0.764349 1.79395 0
M  V30 30662 O 3078.24 -1.54997 1.19803 0
M  V30 30663 H 3076.82 0.259106 0.700623 0
M  V30 30664 H 3079.49 1.29132 1.45983 0
M  V30 30665 H 3078.58 0.994267 2.95839 0
M  V30 30666 N 3078.88 -1.36036 0.795742 0
M  V30 30667 C 3079.83 -2.31851 0.186531 0
M  V30 30668 C 3080.82 -1.56112 -0.657677 0
M  V30 30669 O 3082.03 -1.71325 -0.552053 0
M  V30 30670 H 3078.41 -0.750851 0.0415495 0
M  V30 30671 H 3080.38 -2.80789 1.00997 0
M  V30 30672 C 3079.13 -3.41396 -0.65912 0
M  V30 30673 H 3078.45 -3.99796 -0.0188697 0
M  V30 30674 H 3079.89 -4.10743 -1.05195 0
M  V30 30675 C 3078.35 -2.83506 -1.82006 0
M  V30 30676 O 3078.88 -2.76179 -2.91698 0
M  V30 30677 N 3077.08 -2.40706 -1.62816 0
M  V30 30678 H 3076.63 -2.46864 -0.735921 0
M  V30 30679 H 3076.59 -2.0232 -2.40653 0
M  V30 30680 N 3080.36 -0.5483 -1.47755 0
M  V30 30681 C 3081.61 -0.0208898 -2.02089 0
M  V30 30682 C 3081.93 1.33014 -1.42591 0
M  V30 30683 O 3081.2 1.86554 -0.597858 0
M  V30 30684 H 3079.78 -0.00473336 -0.746985 0
M  V30 30685 H 3082.44 -0.716288 -1.8126 0
M  V30 30686 H 3081.54 0.0738468 -3.12013 0
M  V30 30687 N 3081.84 1.55014 -0.28431 0
M  V30 30688 C 3082.77 2.20299 0.632542 0
M  V30 30689 C 3083.78 1.19052 1.11043 0
M  V30 30690 O 3084.97 1.45732 1.03076 0
M  V30 30691 C 3082.07 2.82244 1.87594 0
M  V30 30692 C 3081.25 4.09268 1.54333 0
M  V30 30693 C 3080.3 4.55173 2.64015 0
M  V30 30694 O 3079.33 5.20745 2.29812 0
M  V30 30695 N 3080.53 4.26085 3.94248 0
M  V30 30696 H 3083.3 2.99609 0.0737402 0
M  V30 30697 H 3080.86 1.61554 -0.105796 0
M  V30 30698 H 3082.85 3.09894 2.60284 0
M  V30 30699 H 3081.42 2.06872 2.34356 0
M  V30 30700 H 3080.64 3.88807 0.649843 0
M  V30 30701 H 3081.93 4.92011 1.29626 0
M  V30 30702 H 3081.33 3.73519 4.24853 0
M  V30 30703 H 3079.88 4.58485 4.63287 0
M  V30 30704 N 3083.32 0.0117398 1.57596 0
M  V30 30705 C 3084.54 -0.684904 1.95765 0
M  V30 30706 C 3084.97 -1.65856 0.887314 0
M  V30 30707 O 3084.32 -1.80649 -0.153476 0
M  V30 30708 C 3084.37 -1.38279 3.33033 0
M  V30 30709 O 3083.48 -2.4976 3.28167 0
M  V30 30710 H 3082.82 -0.181298 0.63877 0
M  V30 30711 H 3085.35 0.0684243 2.04486 0
M  V30 30712 H 3085.36 -1.74356 3.68869 0
M  V30 30713 H 3084.03 -0.668971 4.10485 0
M  V30 30714 H 3082.61 -2.15924 3.04025 0
M  V30 30715 N 3084.79 -1.55421 -0.261185 0
M  V30 30716 C 3086.02 -1.8036 -1.00766 0
M  V30 30717 C 3086.43 -0.583117 -1.7999 0
M  V30 30718 O 3085.78 0.457503 -1.77912 0
M  V30 30719 C 3085.84 -2.98424 -2.00458 0
M  V30 30720 C 3085.5 -4.35008 -1.40062 0
M  V30 30721 C 3086.5 -5.13547 -0.810298 0
M  V30 30722 C 3084.18 -4.81684 -1.42427 0
M  V30 30723 C 3086.18 -6.36903 -0.251672 0
M  V30 30724 C 3083.86 -6.04993 -0.86179 0
M  V30 30725 C 3084.86 -6.8244 -0.276502 0
M  V30 30726 O 3084.55 -8.03421 0.277335 0
M  V30 30727 H 3084.28 -0.604377 -0.302828 0
M  V30 30728 H 3086.84 -2.03289 -0.293727 0
M  V30 30729 H 3085.07 -2.71215 -2.75643 0
M  V30 30730 H 3086.76 -3.10582 -2.61331 0
M  V30 30731 H 3087.52 -4.78611 -0.784635 0
M  V30 30732 H 3083.4 -4.21404 -1.86922 0
M  V30 30733 H 3086.94 -6.97296 0.205801 0
M  V30 30734 H 3082.84 -6.39408 -0.884733 0
M  V30 30735 H 3083.61 -8.18328 0.167826 0
M  V30 30736 N 3086.27 0.526227 -1.48555 0
M  V30 30737 C 3087.69 0.855114 -1.34759 0
M  V30 30738 C 3087.89 1.98232 -0.361455 0
M  V30 30739 O 3086.94 2.51575 0.215981 0
M  V30 30740 C 3088.26 1.2191 -2.74879 0
M  V30 30741 C 3089.81 1.32877 -2.83395 0
M  V30 30742 C 3090.28 1.72616 -4.24226 0
M  V30 30743 N 3091.77 1.79712 -4.26917 0
M  V30 30744 C 3092.51 2.11854 -5.32828 0
M  V30 30745 N 3092 2.42394 -6.49012 0
M  V30 30746 N 3093.8 2.12892 -5.20225 0
M  V30 30747 H 3085.95 -0.21746 -2.11284 0
M  V30 30748 H 3088.21 -0.0346529 -0.947366 0
M  V30 30749 H 3087.92 0.464425 -3.4862 0
M  V30 30750 H 3087.79 2.16839 -3.08643 0
M  V30 30751 H 3090.18 2.0742 -2.09907 0
M  V30 30752 H 3090.26 0.360594 -2.53246 0
M  V30 30753 H 3089.9 0.986323 -4.98231 0
M  V30 30754 H 3089.83 2.7049 -4.51821 0
M  V30 30755 H 3092.32 1.58373 -3.43113 0
M  V30 30756 H 3092.64 2.66035 -7.25565 0
M  V30 30757 H 3090.98 2.39905 -6.52281 0
M  V30 30758 H 3094.17 1.88493 -4.28472 0
M  V30 30759 H 3094.34 2.37609 -6.02865 0
M  V30 30760 N 3087.75 1.37206 0.775387 0
M  V30 30761 C 3089 1.31952 1.53078 0
M  V30 30762 C 3089.32 -0.0966521 1.9476 0
M  V30 30763 O 3088.59 -1.03991 1.6602 0
M  V30 30764 H 3087.17 0.485454 0.567753 0
M  V30 30765 H 3089.83 1.71655 0.92306 0
M  V30 30766 H 3088.93 1.95618 2.43187 0
M  V30 30767 N 3089.23 -1.00115 1.21716 0
M  V30 30768 C 3090.46 -1.77516 1.06281 0
M  V30 30769 C 3090.87 -1.84788 -0.387161 0
M  V30 30770 O 3090.23 -1.31205 -1.26852 0
M  V30 30771 C 3090.28 -3.21236 1.65801 0
M  V30 30772 O 3090 -3.14373 3.05125 0
M  V30 30773 C 3091.5 -4.15121 1.55529 0
M  V30 30774 H 3088.72 -0.557759 0.373023 0
M  V30 30775 H 3091.27 -1.25919 1.61136 0
M  V30 30776 H 3089.42 -3.69929 1.15029 0
M  V30 30777 H 3089.83 -4.04695 3.3365 0
M  V30 30778 H 3091.31 -5.13747 2.01911 0
M  V30 30779 H 3091.79 -4.36224 0.510384 0
M  V30 30780 H 3092.39 -3.72321 2.05566 0
M  V30 30781 N 3090.71 -1.02553 -1.19669 0
M  V30 30782 C 3091.94 -0.738474 -1.92951 0
M  V30 30783 C 3092.35 0.706124 -1.75529 0
M  V30 30784 O 3091.69 1.49154 -1.07232 0
M  V30 30785 C 3091.75 -1.00568 -3.45147 0
M  V30 30786 C 3091.41 -2.44116 -3.86337 0
M  V30 30787 C 3092.41 -3.42238 -3.91368 0
M  V30 30788 C 3090.1 -2.78427 -4.18071 0
M  V30 30789 C 3092.09 -4.72728 -4.2756 0
M  V30 30790 C 3089.78 -4.09128 -4.53936 0
M  V30 30791 C 3090.78 -5.06089 -4.58654 0
M  V30 30792 O 3090.46 -6.34449 -4.9369 0
M  V30 30793 H 3090.2 -0.269787 -0.619832 0
M  V30 30794 H 3092.75 -1.37209 -1.52849 0
M  V30 30795 H 3090.98 -0.314916 -3.85416 0
M  V30 30796 H 3092.67 -0.708812 -3.99663 0
M  V30 30797 H 3093.43 -3.17068 -3.67005 0
M  V30 30798 H 3089.31 -2.03638 -4.13585 0
M  V30 30799 H 3092.86 -5.48406 -4.31157 0
M  V30 30800 H 3088.75 -4.34073 -4.77756 0
M  V30 30801 H 3089.52 -6.38871 -5.1165 0
M  V30 30802 N 3092.19 1.35612 -0.802945 0
M  V30 30803 C 3093.41 2.03645 -0.392882 0
M  V30 30804 C 3093.84 1.60122 0.987047 0
M  V30 30805 O 3093.19 0.77613 1.63847 0
M  V30 30806 C 3093.24 3.57387 -0.480271 0
M  V30 30807 O 3092.35 4.09263 0.507679 0
M  V30 30808 H 3091.69 0.643262 -0.164652 0
M  V30 30809 H 3094.22 1.73285 -1.08782 0
M  V30 30810 H 3094.23 4.06507 -0.348754 0
M  V30 30811 H 3092.9 3.88415 -1.48682 0
M  V30 30812 H 3091.48 3.71377 0.336704 0
M  V30 30813 N 3093.66 0.556128 1.47462 0
M  V30 30814 C 3094.89 0.0364948 2.06868 0
M  V30 30815 C 3095.31 -1.25674 1.40895 0
M  V30 30816 O 3094.66 -1.75371 0.505114 0
M  V30 30817 C 3094.71 -0.163921 3.61128 0
M  V30 30818 O 3094.44 1.0781 4.24628 0
M  V30 30819 C 3095.94 -0.720959 4.37398 0
M  V30 30820 H 3093.16 0.0453517 0.669466 0
M  V30 30821 H 3095.7 0.769231 1.89481 0
M  V30 30822 H 3093.86 -0.846783 3.78032 0
M  V30 30823 H 3094.27 0.875158 5.17147 0
M  V30 30824 H 3095.74 -0.810488 5.46017 0
M  V30 30825 H 3096.22 -1.73198 4.03607 0
M  V30 30826 H 3096.83 -0.0738292 4.25236 0
M  V30 30827 N 3095.14 -1.54861 0.292527 0
M  V30 30828 C 3096.37 -2.04378 -0.322078 0
M  V30 30829 C 3096.78 -1.17019 -1.48162 0
M  V30 30830 O 3096.14 -0.193982 -1.81466 0
M  V30 30831 C 3096.19 -3.52842 -0.786444 0
M  V30 30832 O 3095.91 -4.36878 0.326939 0
M  V30 30833 C 3097.41 -4.1832 -1.46708 0
M  V30 30834 H 3094.63 -0.667212 -0.0711956 0
M  V30 30835 H 3097.18 -1.99935 0.429692 0
M  V30 30836 H 3095.33 -3.57673 -1.48826 0
M  V30 30837 H 3095.75 -5.2449 -0.0330636 0
M  V30 30838 H 3097.22 -5.23751 -1.74324 0
M  V30 30839 H 3097.7 -3.67542 -2.40436 0
M  V30 30840 H 3098.3 -4.17541 -0.808662 0
M  V30 30841 N 3096.62 -0.0200973 -1.57587 0
M  V30 30842 C 3097.87 0.66147 -1.91709 0
M  V30 30843 C 3098.2 1.72295 -0.895998 0
M  V30 30844 O 3097.47 1.94325 0.0825428 0
M  V30 30845 C 3097.76 1.28621 -3.36346 0
M  V30 30846 C 3097.61 0.234903 -4.49186 0
M  V30 30847 C 3098.93 2.20678 -3.80774 0
M  V30 30848 H 3096.05 0.238992 -0.697174 0
M  V30 30849 H 3098.69 -0.0755098 -1.8985 0
M  V30 30850 H 3096.84 1.91433 -3.38061 0
M  V30 30851 H 3098.51 -0.395091 -4.59605 0
M  V30 30852 H 3096.75 -0.440641 -4.31556 0
M  V30 30853 H 3097.43 0.711462 -5.47396 0
M  V30 30854 H 3099.9 1.67862 -3.80738 0
M  V30 30855 H 3098.78 2.61347 -4.82689 0
M  V30 30856 H 3099.04 3.09423 -3.15769 0
M  V30 30857 N 3098.1 1.55557 0.252939 0
M  V30 30858 C 3099.33 1.81154 0.999533 0
M  V30 30859 C 3099.74 0.594986 1.7918 0
M  V30 30860 O 3099.1 -0.43628 1.77208 0
M  V30 30861 C 3099.15 3.04894 1.94221 0
M  V30 30862 O 3098.87 4.21853 1.18202 0
M  V30 30863 C 3100.37 3.43246 2.8053 0
M  V30 30864 H 3097.59 0.602971 0.294392 0
M  V30 30865 H 3100.13 2.02606 0.277651 0
M  V30 30866 H 3098.29 2.8551 2.61845 0
M  V30 30867 H 3098.7 4.91943 1.81913 0
M  V30 30868 H 3100.18 4.32947 3.42434 0
M  V30 30869 H 3100.65 2.63557 3.51333 0
M  V30 30870 H 3101.26 3.6496 2.18367 0
M  V30 30871 N 3099.58 -0.518341 1.48832 0
M  V30 30872 C 3100.82 -1.271 1.5713 0
M  V30 30873 C 3101.14 -1.93363 0.252132 0
M  V30 30874 O 3100.41 -1.81901 -0.727249 0
M  V30 30875 H 3098.99 -0.472106 0.5789 0
M  V30 30876 H 3101.66 -0.602229 1.85362 0
M  V30 30877 H 3100.75 -2.04414 2.35842 0
M  V30 30878 N 3101.05 -1.37615 -0.7681 0
M  V30 30879 C 3102.47 -1.18495 -1.06917 0
M  V30 30880 C 3102.67 -0.0236107 -2.01486 0
M  V30 30881 O 3101.73 0.635166 -2.44381 0
M  V30 30882 C 3103.04 -2.50518 -1.66317 0
M  V30 30883 C 3104.59 -2.57073 -1.78557 0
M  V30 30884 C 3105.06 -3.89235 -2.41371 0
M  V30 30885 N 3106.55 -3.90697 -2.48817 0
M  V30 30886 C 3107.29 -4.89711 -2.98279 0
M  V30 30887 N 3106.78 -5.99122 -3.47887 0
M  V30 30888 N 3108.58 -4.77112 -2.97187 0
M  V30 30889 H 3100.73 -2.11936 -0.140249 0
M  V30 30890 H 3102.99 -0.939743 -0.124847 0
M  V30 30891 H 3102.7 -3.3588 -1.04297 0
M  V30 30892 H 3102.57 -2.6787 -2.65566 0
M  V30 30893 H 3104.96 -1.72116 -2.39709 0
M  V30 30894 H 3105.04 -2.43601 -0.780531 0
M  V30 30895 H 3104.68 -4.74608 -1.80857 0
M  V30 30896 H 3104.61 -4.00012 -3.42488 0
M  V30 30897 H 3107.1 -3.11664 -2.13715 0
M  V30 30898 H 3107.42 -6.7062 -3.84042 0
M  V30 30899 H 3105.76 -6.02762 -3.45982 0
M  V30 30900 H 3108.95 -3.90757 -2.57734 0
M  V30 30901 H 3109.13 -5.54432 -3.35424 0
M  V30 30902 N 3102.53 0.994677 -1.22245 0
M  V30 30903 C 3103.76 1.7695 -1.07221 0
M  V30 30904 C 3104.17 1.8499 0.377356 0
M  V30 30905 O 3103.53 1.31876 1.26154 0
M  V30 30906 C 3103.58 3.20352 -1.67502 0
M  V30 30907 O 3103.3 3.1275 -3.06788 0
M  V30 30908 C 3104.8 4.14291 -1.57728 0
M  V30 30909 H 3102.02 0.555773 -0.375976 0
M  V30 30910 H 3104.57 1.25063 -1.61801 0
M  V30 30911 H 3102.72 3.69313 -1.16989 0
M  V30 30912 H 3103.14 4.0292 -3.35791 0
M  V30 30913 H 3104.61 5.12669 -2.04632 0
M  V30 30914 H 3105.09 4.35948 -0.533511 0
M  V30 30915 H 3105.69 3.71225 -2.07538 0
M  V30 30916 N 3104.01 1.03186 1.19123 0
M  V30 30917 C 3105.25 0.738819 1.9058 0
M  V30 30918 C 3105.61 -0.719596 1.78005 0
M  V30 30919 O 3106.81 -1.12585 2.44086 0
M  V30 30920 C 3105.09 1.1812 3.37317 0
M  V30 30921 S 3106.64 1.01245 4.2696 0
M  V30 30922 H 3103.46 0.268887 0.658195 0
M  V30 30923 H 3106.06 1.32231 1.43997 0
M  V30 30924 H 3104.77 2.2382 3.43995 0
M  V30 30925 H 3104.3 0.59112 3.88934 0
M  V30 30926 H 3106.31 -0.0752686 4.96143 0
M  V30 30927 N 3105.49 -1.35184 0.810125 0
M  V30 30928 C 3106.42 -2.28487 0.180621 0
M  V30 30929 C 3107.43 -1.50444 -0.622127 0
M  V30 30930 O 3108.62 -1.72632 -0.453907 0
M  V30 30931 C 3105.72 -3.30121 -0.766389 0
M  V30 30932 C 3104.9 -4.37399 -0.0092434 0
M  V30 30933 C 3103.95 -5.1887 -0.875263 0
M  V30 30934 O 3102.98 -5.68272 -0.324912 0
M  V30 30935 N 3104.18 -5.37325 -2.19686 0
M  V30 30936 H 3106.95 -2.83149 0.98217 0
M  V30 30937 H 3104.51 -1.47571 0.665905 0
M  V30 30938 H 3106.5 -3.81518 -1.35005 0
M  V30 30939 H 3105.07 -2.75948 -1.46873 0
M  V30 30940 H 3104.29 -3.8689 0.755653 0
M  V30 30941 H 3105.58 -5.06213 0.512441 0
M  V30 30942 H 3104.98 -4.98839 -2.66789 0
M  V30 30943 H 3103.53 -5.91888 -2.72968 0
M  V30 30944 N 3106.97 -0.56394 -1.47165 0
M  V30 30945 C 3107.93 0.169583 -2.28572 0
M  V30 30946 C 3108.93 0.836443 -1.37333 0
M  V30 30947 O 3110.12 0.691272 -1.59897 0
M  V30 30948 C 3107.25 1.2488 -3.17203 0
M  V30 30949 H 3108.44 -0.545591 -2.94895 0
M  V30 30950 H 3106 -0.321148 -1.52965 0
M  V30 30951 H 3106.73 1.99616 -2.55585 0
M  V30 30952 H 3106.52 0.775358 -3.84357 0
M  V30 30953 H 3108.01 1.76381 -3.78523 0
M  V30 30954 N 3108.44 1.54704 -0.300735 0
M  V30 30955 C 3109.69 2.01146 0.301947 0
M  V30 30956 C 3110.05 1.1854 1.51546 0
M  V30 30957 O 3109.34 0.253689 1.89913 0
M  V30 30958 C 3109.53 3.50276 0.710046 0
M  V30 30959 C 3109.36 4.47317 -0.46237 0
M  V30 30960 C 3108.13 4.96207 -0.954301 0
M  V30 30961 C 3110.33 4.97409 -1.30725 0
M  V30 30962 N 3108.31 5.77101 -2.09351 0
M  V30 30963 C 3109.68 5.76002 -2.29394 0
M  V30 30964 C 3111.74 4.79595 -1.33765 0
M  V30 30965 C 3110.44 6.38679 -3.30881 0
M  V30 30966 C 3112.47 5.4309 -2.34109 0
M  V30 30967 C 3111.83 6.21515 -3.31508 0
M  V30 30968 H 3107.93 0.778399 0.0749572 0
M  V30 30969 H 3110.51 1.89879 -0.43059 0
M  V30 30970 H 3108.68 3.61834 1.41176 0
M  V30 30971 H 3110.41 3.83514 1.29224 0
M  V30 30972 H 3107.17 4.70633 -0.529321 0
M  V30 30973 H 3107.59 6.22232 -2.6675 0
M  V30 30974 H 3112.24 4.18545 -0.598358 0
M  V30 30975 H 3109.95 6.98863 -4.05729 0
M  V30 30976 H 3113.54 5.31235 -2.37235 0
M  V30 30977 H 3112.42 6.69777 -4.07883 0
M  V30 30978 N 3109.92 0.0284543 1.57574 0
M  V30 30979 C 3111.15 -0.664102 1.9648 0
M  V30 30980 C 3111.57 -1.64906 0.904855 0
M  V30 30981 O 3110.93 -1.80802 -0.134307 0
M  V30 30982 C 3110.98 -1.34739 3.34481 0
M  V30 30983 O 3110.08 -2.46265 3.30798 0
M  V30 30984 H 3109.42 -0.174513 0.640657 0
M  V30 30985 H 3111.95 0.0901088 2.04401 0
M  V30 30986 H 3111.96 -1.70433 3.70697 0
M  V30 30987 H 3110.64 -0.625396 4.11171 0
M  V30 30988 H 3109.22 -2.12687 3.06298 0
M  V30 30989 N 3111.4 -1.55689 -0.244686 0
M  V30 30990 C 3112.63 -1.82022 -0.994125 0
M  V30 30991 C 3113.05 -0.605802 -1.78078 0
M  V30 30992 O 3112.41 0.44519 -1.75749 0
M  V30 30993 C 3112.46 -3.06115 -1.90594 0
M  V30 30994 O 3111.56 -2.83186 -2.99799 0
M  V30 30995 H 3110.9 -0.600787 -0.282756 0
M  V30 30996 H 3113.43 -2.02877 -0.265004 0
M  V30 30997 H 3113.44 -3.35607 -2.32017 0
M  V30 30998 H 3112.12 -3.94143 -1.32756 0
M  V30 30999 H 3110.69 -2.64867 -2.62488 0
M  V30 31000 N 3112.88 0.510441 -1.49105 0
M  V30 31001 C 3113.81 1.63037 -1.59669 0
M  V30 31002 C 3114.79 1.56359 -0.446173 0
M  V30 31003 O 3115.97 1.76551 -0.660445 0
M  V30 31004 C 3113.1 3.01518 -1.54287 0
M  V30 31005 C 3112.15 3.26489 -2.74421 0
M  V30 31006 S 3112.98 3.10635 -4.36195 0
M  V30 31007 C 3114.14 4.51529 -4.33443 0
M  V30 31008 H 3114.37 1.53829 -2.54409 0
M  V30 31009 H 3111.9 0.694891 -1.37879 0
M  V30 31010 H 3113.86 3.81374 -1.51868 0
M  V30 31011 H 3112.52 3.08149 -0.608512 0
M  V30 31012 H 3111.71 4.27561 -2.66848 0
M  V30 31013 H 3111.32 2.54339 -2.74204 0
M  V30 31014 H 3113.61 5.43434 -4.04581 0
M  V30 31015 H 3114.55 4.64153 -5.3476 0
M  V30 31016 H 3114.96 4.31766 -3.63646 0
M  V30 31017 N 3114.36 1.38021 0.760791 0
M  V30 31018 C 3115.58 1.37051 1.54999 0
M  V30 31019 C 3116 -0.041493 1.88754 0
M  V30 31020 O 3115.36 -1.00621 1.52255 0
M  V30 31021 C 3115.41 2.21933 2.85356 0
M  V30 31022 O 3115.13 3.57632 2.53043 0
M  V30 31023 C 3116.63 2.29064 3.79532 0
M  V30 31024 H 3113.85 0.46904 0.479836 0
M  V30 31025 H 3116.39 1.81506 0.942116 0
M  V30 31026 H 3114.55 1.80959 3.42538 0
M  V30 31027 H 3114.96 4.02247 3.36597 0
M  V30 31028 H 3116.44 2.92757 4.67972 0
M  V30 31029 H 3116.91 1.30221 4.19451 0
M  V30 31030 H 3117.52 2.70398 3.28276 0
M  V30 31031 N 3115.83 -0.98818 1.22771 0
M  V30 31032 C 3117.25 -1.54293 1.05122 0
M  V30 31033 C 3117.6 -1.92408 -0.38387 0
M  V30 31034 O 3116.72 -1.75249 -1.26952 0
M  V30 31035 C 3117.32 -2.80372 1.90203 0
M  V30 31036 C 3115.88 -3.32273 1.76837 0
M  V30 31037 C 3115.02 -2.05323 1.86381 0
M  V30 31038 H 3117.97 -0.808734 1.36547 0
M  V30 31039 H 3117.99 -3.52921 1.42222 0
M  V30 31040 H 3117.51 -2.52599 2.94644 0
M  V30 31041 H 3115.61 -3.64943 0.751476 0
M  V30 31042 H 3115.72 -4.02557 2.59778 0
M  V30 31043 H 3114.08 -2.191 1.29873 0
M  V30 31044 H 3114.87 -1.79941 2.92363 0
M  V30 31045 N 3117.31 -1.03816 -1.18575 0
M  V30 31046 C 3118.26 -0.597447 -2.20033 0
M  V30 31047 C 3119.25 0.358768 -1.56849 0
M  V30 31048 O 3120.44 0.178231 -1.761 0
M  V30 31049 C 3117.57 0.0407361 -3.43276 0
M  V30 31050 C 3116.65 -0.938477 -4.13586 0
M  V30 31051 N 3117.04 -2.10455 -4.59937 0
M  V30 31052 C 3115.34 -0.763931 -4.39409 0
M  V30 31053 C 3116.04 -2.72291 -5.14036 0
M  V30 31054 N 3115.02 -2.00185 -5.05398 0
M  V30 31055 H 3118.82 -1.4861 -2.53559 0
M  V30 31056 H 3116.34 -0.906408 -1.34752 0
M  V30 31057 H 3118.33 0.374149 -4.15218 0
M  V30 31058 H 3116.99 0.924959 -3.11247 0
M  V30 31059 H 3118 -2.48355 -4.54467 0
M  V30 31060 H 3114.68 0.0704135 -4.17441 0
M  V30 31061 H 3116.07 -3.71098 -5.60122 0
M  V30 31062 N 3118.79 1.34753 -0.817283 0
M  V30 31063 C 3120.02 2.03217 -0.414459 0
M  V30 31064 C 3120.44 1.6116 0.970008 0
M  V30 31065 O 3119.8 0.793464 1.63015 0
M  V30 31066 C 3119.85 3.56858 -0.518149 0
M  V30 31067 O 3118.95 4.09779 0.464242 0
M  V30 31068 H 3118.29 0.641479 -0.171465 0
M  V30 31069 H 3120.82 1.72121 -1.10614 0
M  V30 31070 H 3120.83 4.06114 -0.39185 0
M  V30 31071 H 3119.51 3.86817 -1.52793 0
M  V30 31072 H 3118.08 3.71713 0.297296 0
M  V30 31073 N 3120.27 0.571737 1.46864 0
M  V30 31074 C 3121.22 -0.188463 2.2722 0
M  V30 31075 C 3122.2 -0.871995 1.35222 0
M  V30 31076 O 3123.4 -0.767902 1.59475 0
M  V30 31077 C 3120.52 -1.20857 3.21323 0
M  V30 31078 C 3119.61 -0.527709 4.20804 0
M  V30 31079 N 3120 0.410492 5.04132 0
M  V30 31080 C 3118.3 -0.779832 4.39129 0
M  V30 31081 C 3119 0.807381 5.7607 0
M  V30 31082 N 3117.98 0.15896 5.43368 0
M  V30 31083 H 3121.78 0.532662 2.89033 0
M  V30 31084 H 3119.29 0.392724 1.5758 0
M  V30 31085 H 3121.29 -1.76726 3.77589 0
M  V30 31086 H 3119.95 -1.93063 2.61069 0
M  V30 31087 H 3120.96 0.785441 5.11909 0
M  V30 31088 H 3117.64 -1.4893 3.90033 0
M  V30 31089 H 3119.03 1.57915 6.53079 0
M  V30 31090 N 3121.75 -1.54542 0.308935 0
M  V30 31091 C 3122.97 -2.05172 -0.30316 0
M  V30 31092 C 3123.4 -1.18437 -1.46131 0
M  V30 31093 O 3122.76 -0.190194 -1.803 0
M  V30 31094 C 3122.8 -3.53145 -0.729464 0
M  V30 31095 O 3121.91 -3.69404 -1.83342 0
M  V30 31096 H 3121.25 -0.661506 -0.0574949 0
M  V30 31097 H 3123.78 -1.9952 0.45309 0
M  V30 31098 H 3123.79 -3.95144 -1.01612 0
M  V30 31099 H 3122.46 -4.15733 0.117695 0
M  V30 31100 H 3121.04 -3.3931 -1.5467 0
M  V30 31101 N 3123.23 -0.0368104 -1.57557 0
M  V30 31102 C 3124.64 0.319643 -1.56366 0
M  V30 31103 C 3124.84 1.72396 -1.04316 0
M  V30 31104 O 3123.9 2.42795 -0.69332 0
M  V30 31105 C 3125.21 0.161221 -3.00267 0
M  V30 31106 C 3126.76 0.233409 -3.12128 0
M  V30 31107 C 3127.23 0.103687 -4.57883 0
M  V30 31108 N 3128.72 0.160425 -4.62922 0
M  V30 31109 C 3129.46 0.0839486 -5.73339 0
M  V30 31110 N 3128.96 -0.0440548 -6.92786 0
M  V30 31111 N 3130.75 0.138493 -5.61929 0
M  V30 31112 H 3122.9 -0.955029 -1.89718 0
M  V30 31113 H 3125.16 -0.369482 -0.873033 0
M  V30 31114 H 3124.87 -0.80645 -3.42329 0
M  V30 31115 H 3124.74 0.92824 -3.656 0
M  V30 31116 H 3127.13 1.19154 -2.69975 0
M  V30 31117 H 3127.21 -0.564119 -2.49502 0
M  V30 31118 H 3126.85 -0.851061 -5.00719 0
M  V30 31119 H 3126.78 0.920177 -5.18498 0
M  V30 31120 H 3129.28 0.259191 -3.7701 0
M  V30 31121 H 3129.59 -0.0955078 -7.72741 0
M  V30 31122 H 3127.93 -0.0789433 -6.94955 0
M  V30 31123 H 3131.12 0.236949 -4.675 0
M  V30 31124 H 3131.3 0.0754321 -6.47956 0
M  V30 31125 N 3124.7 1.55817 0.236426 0
M  V30 31126 C 3125.93 1.82204 0.980263 0
M  V30 31127 C 3126.35 0.613957 1.78539 0
M  V30 31128 O 3125.7 -0.41746 1.77661 0
M  V30 31129 C 3125.75 3.06937 1.90977 0
M  V30 31130 O 3125.48 4.23083 1.13721 0
M  V30 31131 C 3126.98 3.46202 2.76873 0
M  V30 31132 H 3124.2 0.60606 0.28798 0
M  V30 31133 H 3126.74 2.02889 0.256146 0
M  V30 31134 H 3124.9 2.88271 2.58802 0
M  V30 31135 H 3125.31 4.93845 1.76685 0
M  V30 31136 H 3126.78 4.36554 3.37823 0
M  V30 31137 H 3127.26 2.67268 3.48517 0
M  V30 31138 H 3127.87 3.67256 2.14484 0
M  V30 31139 N 3126.18 -0.502526 1.49373 0
M  V30 31140 C 3127.59 -1.08408 1.52002 0
M  V30 31141 C 3127.94 -1.93809 0.305351 0
M  V30 31142 O 3127.07 -2.08343 -0.584986 0
M  V30 31143 C 3127.66 -1.97276 2.75441 0
M  V30 31144 C 3126.22 -2.50597 2.80853 0
M  V30 31145 C 3125.37 -1.28181 2.45896 0
M  V30 31146 H 3128.32 -0.286506 1.56092 0
M  V30 31147 H 3128.34 -2.81943 2.55516 0
M  V30 31148 H 3127.85 -1.35092 3.63829 0
M  V30 31149 H 3125.95 -3.16424 1.9674 0
M  V30 31150 H 3126.07 -2.87854 3.82985 0
M  V30 31151 H 3124.43 -1.60654 1.97642 0
M  V30 31152 H 3125.21 -0.67708 3.36557 0
M  V30 31153 N 3127.66 -1.38422 -0.75346 0
M  V30 31154 C 3128.57 -1.37896 -1.89795 0
M  V30 31155 C 3129.59 -0.276053 -1.71796 0
M  V30 31156 O 3130.76 -0.514498 -1.94717 0
M  V30 31157 C 3127.83 -1.2029 -3.25163 0
M  V30 31158 C 3126.89 -2.40386 -3.55687 0
M  V30 31159 C 3126.12 -2.23611 -4.84597 0
M  V30 31160 O 3126.34 -1.22988 -5.56983 0
M  V30 31161 O 3125.28 -3.12203 -5.146 0
M  V30 31162 H 3129.1 -2.34329 -1.93193 0
M  V30 31163 H 3126.69 -1.19343 -0.898754 0
M  V30 31164 H 3128.57 -1.12532 -4.06097 0
M  V30 31165 H 3127.25 -0.269409 -3.22577 0
M  V30 31166 H 3126.15 -2.53718 -2.74914 0
M  V30 31167 H 3127.49 -3.32366 -3.63034 0
M  V30 31168 N 3129.14 0.981655 -1.23294 0
M  V30 31169 C 3130.37 1.75548 -1.08933 0
M  V30 31170 C 3130.78 1.85701 0.362186 0
M  V30 31171 O 3130.12 1.33453 1.26238 0
M  V30 31172 C 3130.18 3.19967 -1.63895 0
M  V30 31173 C 3129.84 3.33327 -3.12638 0
M  V30 31174 C 3130.84 3.19751 -4.09946 0
M  V30 31175 C 3128.53 3.58016 -3.52321 0
M  V30 31176 C 3130.52 3.30666 -5.44921 0
M  V30 31177 C 3128.21 3.68571 -4.87441 0
M  V30 31178 C 3129.21 3.54906 -5.8355 0
M  V30 31179 O 3128.89 3.6509 -7.16216 0
M  V30 31180 H 3128.63 0.557782 -0.381911 0
M  V30 31181 H 3131.18 1.2421 -1.63588 0
M  V30 31182 H 3129.41 3.72547 -1.03659 0
M  V30 31183 H 3131.1 3.79106 -1.4503 0
M  V30 31184 H 3131.86 3.00576 -3.8063 0
M  V30 31185 H 3127.74 3.67724 -2.78029 0
M  V30 31186 H 3131.29 3.19917 -6.19918 0
M  V30 31187 H 3127.18 3.87256 -5.16433 0
M  V30 31188 H 3127.95 3.81893 -7.23948 0
M  V30 31189 N 3130.62 1.04444 1.18022 0
M  V30 31190 C 3131.85 0.769078 1.91752 0
M  V30 31191 C 3132.25 -0.67811 1.7663 0
M  V30 31192 O 3131.6 -1.47429 1.09592 0
M  V30 31193 C 3131.66 1.06046 3.43503 0
M  V30 31194 C 3131.32 2.50232 3.82404 0
M  V30 31195 C 3132.32 3.48421 3.85874 0
M  V30 31196 C 3130 2.85043 4.13589 0
M  V30 31197 C 3132 4.7947 4.19985 0
M  V30 31198 C 3129.69 4.16298 4.4737 0
M  V30 31199 C 3130.68 5.13321 4.50544 0
M  V30 31200 O 3130.37 6.42223 4.83534 0
M  V30 31201 H 3130.1 0.279614 0.615461 0
M  V30 31202 H 3132.66 1.39623 1.50647 0
M  V30 31203 H 3130.89 0.376193 3.84866 0
M  V30 31204 H 3132.58 0.772305 3.98485 0
M  V30 31205 H 3133.34 3.22866 3.61915 0
M  V30 31206 H 3129.22 2.10192 4.10293 0
M  V30 31207 H 3132.77 5.55196 4.22378 0
M  V30 31208 H 3128.66 4.41619 4.7079 0
M  V30 31209 H 3129.43 6.4693 5.01422 0
M  V30 31210 N 3132.09 -1.34317 0.824418 0
M  V30 31211 C 3133.5 -1.80639 0.471833 0
M  V30 31212 C 3133.86 -1.68332 -1.0079 0
M  V30 31213 O 3132.98 -1.22419 -1.78445 0
M  V30 31214 C 3133.58 -3.27973 0.849667 0
M  V30 31215 C 3132.13 -3.72368 0.549431 0
M  V30 31216 C 3131.28 -2.56001 1.06578 0
M  V30 31217 H 3134.23 -1.22043 1.01445 0
M  V30 31218 H 3134.25 -3.80188 0.154035 0
M  V30 31219 H 3133.77 -3.36898 1.92668 0
M  V30 31220 H 3131.87 -3.6898 -0.518118 0
M  V30 31221 H 3131.98 -4.6643 1.09454 0
M  V30 31222 H 3130.34 -2.49996 0.487258 0
M  V30 31223 H 3131.13 -2.67696 2.14927 0
M  V30 31224 N 3133.57 -0.579517 -1.46558 0
M  V30 31225 C 3134.52 0.168372 -2.3199 0
M  V30 31226 C 3135.51 0.887526 -1.44289 0
M  V30 31227 O 3136.72 0.806277 -1.60932 0
M  V30 31228 H 3133.09 0.0731668 -0.748432 0
M  V30 31229 H 3135.07 -0.571024 -2.92885 0
M  V30 31230 C 3133.81 1.17084 -3.27394 0
M  V30 31231 H 3133.14 0.626889 -3.94855 0
M  V30 31232 H 3134.58 1.6646 -3.89958 0
M  V30 31233 C 3133.04 2.23019 -2.52515 0
M  V30 31234 O 3133.57 3.3032 -2.28586 0
M  V30 31235 N 3131.77 1.97541 -2.13133 0
M  V30 31236 H 3131.32 1.10293 -2.32794 0
M  V30 31237 H 3131.28 2.68632 -1.63352 0
M  V30 31238 N 3135.05 1.54376 -0.317127 0
M  V30 31239 C 3136.01 2.22772 0.539011 0
M  V30 31240 C 3137.01 1.21903 1.04863 0
M  V30 31241 O 3138.2 1.46528 0.942083 0
M  V30 31242 C 3135.34 2.92674 1.74799 0
M  V30 31243 H 3136.53 2.99842 -0.0587944 0
M  V30 31244 H 3134.08 1.56151 -0.0681345 0
M  V30 31245 H 3134.82 2.19724 2.3852 0
M  V30 31246 H 3134.6 3.66633 1.39005 0
M  V30 31247 H 3136.09 3.44803 2.35586 0
M  V30 31248 N 3136.53 0.0451655 1.57535 0
M  V30 31249 C 3137.78 -0.628709 1.92072 0
M  V30 31250 C 3138.1 -1.71736 0.923666 0
M  V30 31251 O 3137.37 -1.95873 -0.0324032 0
M  V30 31252 H 3135.95 -0.235221 0.708999 0
M  V30 31253 H 3138.61 0.096752 1.9466 0
M  V30 31254 H 3137.71 -1.07117 2.93142 0
M  V30 31255 N 3138.01 -1.5594 -0.228159 0
M  V30 31256 C 3138.94 -1.94893 -1.28604 0
M  V30 31257 C 3139.92 -0.816271 -1.49235 0
M  V30 31258 O 3141.1 -1.07806 -1.61529 0
M  V30 31259 C 3138.23 -2.2599 -2.63715 0
M  V30 31260 C 3137.19 -3.41685 -2.57751 0
M  V30 31261 C 3136.51 -3.5837 -3.96831 0
M  V30 31262 C 3137.81 -4.76846 -2.13107 0
M  V30 31263 H 3139.51 -2.83508 -0.962481 0
M  V30 31264 H 3137.05 -1.36403 -0.461553 0
M  V30 31265 H 3139.01 -2.51832 -3.37874 0
M  V30 31266 H 3137.73 -1.34222 -2.97745 0
M  V30 31267 H 3136.39 -3.15881 -1.8605 0
M  V30 31268 H 3136.04 -2.63989 -4.28157 0
M  V30 31269 H 3135.74 -4.36183 -3.93724 0
M  V30 31270 H 3137.26 -3.86554 -4.72661 0
M  V30 31271 H 3138.67 -5.01937 -2.77006 0
M  V30 31272 H 3137.07 -5.57895 -2.21074 0
M  V30 31273 H 3138.14 -4.72647 -1.08317 0
M  V30 31274 N 3139.48 0.494597 -1.49638 0
M  V30 31275 C 3140.73 1.24497 -1.58693 0
M  V30 31276 C 3141.05 1.93559 -0.281797 0
M  V30 31277 O 3142.25 2.70338 -0.250972 0
M  V30 31278 C 3140.71 2.26086 -2.80024 0
M  V30 31279 C 3140.32 1.62933 -4.17321 0
M  V30 31280 C 3142.06 3.01911 -2.98413 0
M  V30 31281 C 3139.97 2.6267 -5.29866 0
M  V30 31282 H 3138.9 0.468356 -0.590896 0
M  V30 31283 H 3141.55 0.518081 -1.76035 0
M  V30 31284 H 3139.93 3.01965 -2.5619 0
M  V30 31285 H 3141.1 0.930028 -4.51317 0
M  V30 31286 H 3139.42 0.994748 -4.04344 0
M  V30 31287 H 3142.02 3.76509 -3.79664 0
M  V30 31288 H 3142.36 3.59906 -2.09221 0
M  V30 31289 H 3142.89 2.33147 -3.22316 0
M  V30 31290 H 3139.63 2.09447 -6.21138 0
M  V30 31291 H 3139.15 3.30822 -5.00317 0
M  V30 31292 H 3140.83 3.2497 -5.59467 0
M  V30 31293 N 3140.96 1.3882 0.746109 0
M  V30 31294 C 3141.9 1.31033 1.86831 0
M  V30 31295 C 3142.87 0.185977 1.61533 0
M  V30 31296 O 3144.06 0.364561 1.84941 0
M  V30 31297 C 3141.18 1.03203 3.22594 0
M  V30 31298 C 3140.23 2.17677 3.66768 0
M  V30 31299 S 3141.06 3.79877 3.77431 0
M  V30 31300 C 3142.22 3.5425 5.16002 0
M  V30 31301 H 3142.45 2.26009 1.93151 0
M  V30 31302 H 3139.99 1.24744 0.90985 0
M  V30 31303 H 3141.94 0.878308 4.00994 0
M  V30 31304 H 3140.6 0.0993256 3.13943 0
M  V30 31305 H 3139.8 1.9377 4.65262 0
M  V30 31306 H 3139.4 2.29196 2.95542 0
M  V30 31307 H 3141.69 3.10827 6.01991 0
M  V30 31308 H 3142.63 4.52165 5.44933 0
M  V30 31309 H 3143.04 2.88595 4.85153 0
M  V30 31310 N 3142.44 -0.975103 1.23812 0
M  V30 31311 C 3143.39 -2.08968 1.02153 0
M  V30 31312 C 3144.38 -1.6935 -0.0411874 0
M  V30 31313 O 3145.59 -1.79646 0.112757 0
M  V30 31314 H 3141.96 -0.683641 0.313271 0
M  V30 31315 H 3143.93 -2.24401 1.96689 0
M  V30 31316 C 3142.68 -3.41851 0.635084 0
M  V30 31317 H 3142.01 -3.7279 1.44456 0
M  V30 31318 H 3143.45 -4.20761 0.523084 0
M  V30 31319 C 3141.91 -3.30429 -0.657149 0
M  V30 31320 O 3142.44 -3.63726 -1.70488 0
M  V30 31321 N 3140.64 -2.83576 -0.635072 0
M  V30 31322 H 3140.19 -2.56677 0.217885 0
M  V30 31323 H 3140.15 -2.76316 -1.4999 0
M  V30 31324 N 3143.92 -1.05068 -1.17467 0
M  V30 31325 C 3145.15 -0.779236 -1.91341 0
M  V30 31326 C 3145.56 0.668733 -1.76988 0
M  V30 31327 O 3144.9 1.46846 -1.10372 0
M  V30 31328 C 3144.96 -1.07866 -3.42936 0
M  V30 31329 C 3144.63 -2.52256 -3.81072 0
M  V30 31330 C 3145.62 -3.50463 -3.84021 0
M  V30 31331 C 3143.31 -2.87232 -4.12071 0
M  V30 31332 C 3145.3 -4.81691 -4.17436 0
M  V30 31333 C 3142.99 -4.18664 -4.45156 0
M  V30 31334 C 3143.99 -5.15704 -4.47816 0
M  V30 31335 O 3143.67 -6.44778 -4.80122 0
M  V30 31336 H 3143.41 -0.282874 -0.61397 0
M  V30 31337 H 3145.96 -1.4042 -1.49905 0
M  V30 31338 H 3144.19 -0.396598 -3.84661 0
M  V30 31339 H 3145.88 -0.793427 -3.9807 0
M  V30 31340 H 3146.65 -3.24781 -3.60197 0
M  V30 31341 H 3142.52 -2.12365 -4.09173 0
M  V30 31342 H 3146.07 -5.57428 -4.19427 0
M  V30 31343 H 3141.97 -4.44109 -4.68441 0
M  V30 31344 H 3142.73 -6.4958 -4.97984 0
M  V30 31345 N 3145.4 1.33878 -0.831529 0
M  V30 31346 C 3146.64 1.99833 -0.429683 0
M  V30 31347 C 3147 1.64462 0.990767 0
M  V30 31348 O 3148.2 2.23326 1.49595 0
M  V30 31349 C 3146.47 3.51702 -0.63562 0
M  V30 31350 S 3148.03 4.37573 -0.327901 0
M  V30 31351 H 3144.85 0.69231 -0.161951 0
M  V30 31352 H 3147.45 1.63013 -1.07922 0
M  V30 31353 H 3146.16 3.74933 -1.66894 0
M  V30 31354 H 3145.69 3.9339 0.0283382 0
M  V30 31355 H 3147.7 4.88776 0.855145 0
M  V30 31356 N 3146.87 0.587281 1.46249 0
M  V30 31357 C 3148.29 0.249312 1.57641 0
M  V30 31358 C 3148.49 -1.24836 1.58172 0
M  V30 31359 O 3147.55 -2.03033 1.50112 0
M  V30 31360 C 3148.86 0.90256 2.86835 0
M  V30 31361 C 3150.41 0.876577 3.00475 0
M  V30 31362 C 3150.88 1.50945 4.32411 0
M  V30 31363 N 3152.37 1.474 4.39121 0
M  V30 31364 C 3153.11 1.93303 5.39835 0
M  V30 31365 N 3152.6 2.47199 6.47197 0
M  V30 31366 N 3154.4 1.84192 5.31065 0
M  V30 31367 H 3146.55 1.55997 1.44148 0
M  V30 31368 H 3148.81 0.652309 0.687893 0
M  V30 31369 H 3148.52 1.95629 2.92271 0
M  V30 31370 H 3148.39 0.413532 3.74926 0
M  V30 31371 H 3150.78 -0.168549 2.94618 0
M  V30 31372 H 3150.86 1.40367 2.13848 0
M  V30 31373 H 3150.5 2.5538 4.39026 0
M  V30 31374 H 3150.43 0.957546 5.17821 0
M  V30 31375 H 3152.92 1.08008 3.62136 0
M  V30 31376 H 3153.24 2.80071 7.20264 0
M  V30 31377 H 3151.58 2.51227 6.48004 0
M  V30 31378 H 3154.77 1.4184 4.46093 0
M  V30 31379 H 3154.95 2.20281 6.0941 0
M  V30 31380 N 3148.35 -1.54206 0.325309 0
M  V30 31381 C 3149.3 -2.25873 -0.55536 0
M  V30 31382 C 3150.29 -1.27346 -1.11711 0
M  V30 31383 O 3151.5 -1.45116 -1.06495 0
M  V30 31384 H 3147.88 -0.725534 -0.197747 0
M  V30 31385 H 3149.85 -2.98315 0.0713382 0
M  V30 31386 C 3148.6 -3.03098 -1.70373 0
M  V30 31387 H 3147.92 -3.78731 -1.28073 0
M  V30 31388 H 3149.36 -3.56487 -2.2955 0
M  V30 31389 C 3147.82 -2.11501 -2.62238 0
M  V30 31390 O 3148.35 -1.69902 -3.64 0
M  V30 31391 N 3146.55 -1.76954 -2.30512 0
M  V30 31392 H 3146.1 -2.1098 -1.47801 0
M  V30 31393 H 3146.06 -1.15947 -2.92239 0
M  V30 31394 N 3149.83 -0.0535194 -1.57509 0
M  V30 31395 C 3151.24 0.481836 -1.80375 0
M  V30 31396 C 3151.59 1.70774 -0.965947 0
M  V30 31397 O 3150.72 2.15623 -0.183205 0
M  V30 31398 C 3151.31 0.88092 -3.27147 0
M  V30 31399 C 3149.87 1.36124 -3.50923 0
M  V30 31400 C 3149.02 0.337562 -2.75238 0
M  V30 31401 H 3151.97 -0.279381 -1.56221 0
M  V30 31402 H 3151.99 1.74367 -3.38196 0
M  V30 31403 H 3151.5 -0.0115092 -3.88098 0
M  V30 31404 H 3149.6 2.27278 -2.95255 0
M  V30 31405 H 3149.72 1.35178 -4.59634 0
M  V30 31406 H 3148.08 0.810949 -2.41445 0
M  V30 31407 H 3148.86 -0.546823 -3.38917 0
M  V30 31408 N 3151.31 1.56059 0.219886 0
M  V30 31409 C 3152.59 1.69942 0.968464 0
M  V30 31410 C 3152.97 0.601254 2.02356 0
M  V30 31411 O 3152.31 -0.391494 2.25121 0
M  V30 31412 C 3152.52 3.11319 1.57739 0
M  V30 31413 C 3153.87 3.70779 2.06901 0
M  V30 31414 O 3154.9 3.14291 1.6763 0
M  V30 31415 O 3153.76 4.69864 2.79088 0
M  V30 31416 H 3150.85 0.692217 0.452509 0
M  V30 31417 H 3153.4 1.68376 0.211536 0
M  V30 31418 H 3152.17 3.82705 0.81562 0
M  V30 31419 H 3151.79 3.17009 2.39982 0
M  V30 31420 N 3152.79 -0.486655 1.49898 0
M  V30 31421 C 3153.75 -1.56888 1.67089 0
M  V30 31422 C 3154.75 -1.51386 0.542117 0
M  V30 31423 O 3155.94 -1.54283 0.808858 0
M  V30 31424 C 3153.07 -2.96536 1.68165 0
M  V30 31425 H 3154.27 -1.42969 2.63628 0
M  V30 31426 H 3151.82 -0.71193 1.39145 0
M  V30 31427 H 3152.55 -3.15916 0.732618 0
M  V30 31428 H 3152.34 -3.01937 2.50153 0
M  V30 31429 H 3153.83 -3.75137 1.83472 0
M  V30 31430 N 3154.27 -1.39214 -0.738737 0
M  V30 31431 C 3155.51 -1.36435 -1.50044 0
M  V30 31432 C 3155.84 0.0409133 -1.94157 0
M  V30 31433 O 3155.12 1.00511 -1.66517 0
M  V30 31434 C 3155.4 -2.33338 -2.74272 0
M  V30 31435 C 3155.26 -3.8279 -2.36203 0
M  V30 31436 C 3156.57 -2.2813 -3.76357 0
M  V30 31437 H 3153.69 -0.496913 -0.544286 0
M  V30 31438 H 3156.34 -1.70177 -0.844975 0
M  V30 31439 H 3154.49 -2.04695 -3.302 0
M  V30 31440 H 3156.16 -4.22168 -1.85935 0
M  V30 31441 H 3154.4 -3.99748 -1.68476 0
M  V30 31442 H 3155.07 -4.46075 -3.25148 0
M  V30 31443 H 3157.55 -2.53448 -3.30005 0
M  V30 31444 H 3156.42 -2.98018 -4.60952 0
M  V30 31445 H 3156.68 -1.28507 -4.23011 0
M  V30 31446 N 3155.74 0.968523 -1.24328 0
M  V30 31447 C 3156.71 2.04452 -1.03595 0
M  V30 31448 C 3157.71 1.60799 0.00645263 0
M  V30 31449 O 3158.9 1.72615 -0.234434 0
M  V30 31450 C 3156.03 3.36101 -0.569979 0
M  V30 31451 H 3157.22 2.24279 -1.99096 0
M  V30 31452 H 3154.77 1.14364 -1.06539 0
M  V30 31453 H 3155.51 3.21967 0.388268 0
M  V30 31454 H 3155.29 3.6913 -1.32233 0
M  V30 31455 H 3156.78 4.15212 -0.445927 0
M  V30 31456 N 3157.22 1.0569 1.16908 0
M  V30 31457 C 3158.18 0.666471 2.19296 0
M  V30 31458 C 3159.18 -0.284646 1.58261 0
M  V30 31459 O 3160.37 -0.0678451 1.74068 0
M  V30 31460 C 3157.51 -0.0203056 3.40894 0
M  V30 31461 H 3158.7 1.57276 2.55351 0
M  V30 31462 H 3156.25 0.851382 1.31077 0
M  V30 31463 H 3156.99 -0.939631 3.10389 0
M  V30 31464 H 3156.77 0.663532 3.86445 0
M  V30 31465 H 3158.26 -0.279402 4.16664 0
M  V30 31466 N 3158.7 -1.33435 0.838617 0
M  V30 31467 C 3160.11 -1.80129 0.490966 0
M  V30 31468 C 3160.46 -1.69392 -0.989994 0
M  V30 31469 O 3159.59 -1.24305 -1.77136 0
M  V30 31470 C 3160.18 -3.27053 0.884405 0
M  V30 31471 C 3158.74 -3.71765 0.588894 0
M  V30 31472 C 3157.89 -2.54856 1.09287 0
M  V30 31473 H 3160.84 -1.2096 1.02734 0
M  V30 31474 H 3160.86 -3.80003 0.19435 0
M  V30 31475 H 3160.37 -3.34836 1.96231 0
M  V30 31476 H 3158.47 -3.69509 -0.478953 0
M  V30 31477 H 3158.59 -4.65242 1.14395 0
M  V30 31478 H 3156.95 -2.49465 0.513746 0
M  V30 31479 H 3157.73 -2.65401 2.17754 0
M  V30 31480 N 3160.18 -0.595029 -1.45935 0
M  V30 31481 C 3161.41 -0.0911969 -2.06399 0
M  V30 31482 C 3161.82 1.22441 -1.44239 0
M  V30 31483 O 3161.16 1.75389 -0.546296 0
M  V30 31484 C 3161.22 0.136016 -3.59243 0
M  V30 31485 C 3160.88 -1.09587 -4.43666 0
M  V30 31486 C 3161.88 -2.01096 -4.79433 0
M  V30 31487 C 3159.57 -1.32117 -4.84614 0
M  V30 31488 C 3161.56 -3.13473 -5.54989 0
M  V30 31489 C 3159.25 -2.44798 -5.59926 0
M  V30 31490 C 3160.25 -3.35305 -5.95029 0
M  V30 31491 O 3159.93 -4.46026 -6.68817 0
M  V30 31492 H 3159.67 -0.0601897 -0.673315 0
M  V30 31493 H 3162.22 -0.819038 -1.88364 0
M  V30 31494 H 3160.45 0.91861 -3.75631 0
M  V30 31495 H 3162.14 0.589884 -4.01591 0
M  V30 31496 H 3162.9 -1.8491 -4.48367 0
M  V30 31497 H 3158.78 -0.625742 -4.56733 0
M  V30 31498 H 3162.33 -3.84141 -5.82307 0
M  V30 31499 H 3158.22 -2.60942 -5.90406 0
M  V30 31500 H 3158.99 -4.44549 -6.87254 0
M  V30 31501 N 3161.66 1.54031 -0.333483 0
M  V30 31502 C 3162.9 2.02654 0.266568 0
M  V30 31503 C 3163.26 1.21623 1.48566 0
M  V30 31504 O 3164.46 1.60097 2.15923 0
M  V30 31505 C 3162.73 3.52617 0.582763 0
M  V30 31506 S 3164.29 4.23161 1.16106 0
M  V30 31507 H 3161.11 0.706482 0.080022 0
M  V30 31508 H 3163.71 1.89793 -0.468909 0
M  V30 31509 H 3162.41 4.09209 -0.312473 0
M  V30 31510 H 3161.95 3.69578 1.34817 0
M  V30 31511 H 3163.96 4.31647 2.44736 0
M  V30 31512 N 3163.13 0.0618717 1.57479 0
M  V30 31513 C 3164.36 -0.617905 1.97143 0
M  V30 31514 C 3164.77 -1.64279 0.938562 0
M  V30 31515 O 3164.11 -1.83506 -0.0843527 0
M  V30 31516 C 3164.18 -1.35257 3.33085 0
M  V30 31517 C 3163.84 -0.482292 4.54448 0
M  V30 31518 C 3164.84 0.256045 5.19269 0
M  V30 31519 C 3162.52 -0.410079 5.00623 0
M  V30 31520 C 3164.52 1.05492 6.2861 0
M  V30 31521 C 3162.2 0.392476 6.09838 0
M  V30 31522 C 3163.2 1.12365 6.73694 0
M  V30 31523 O 3162.89 1.91299 7.80807 0
M  V30 31524 H 3162.62 -0.172957 0.6535 0
M  V30 31525 H 3165.18 0.127817 2.05002 0
M  V30 31526 H 3163.41 -2.14415 3.21812 0
M  V30 31527 H 3165.09 -1.92362 3.57424 0
M  V30 31528 H 3165.86 0.209788 4.84546 0
M  V30 31529 H 3161.74 -0.968804 4.50705 0
M  V30 31530 H 3165.28 1.62614 6.78382 0
M  V30 31531 H 3161.18 0.440333 6.43996 0
M  V30 31532 H 3161.95 1.83625 7.97637 0
M  V30 31533 N 3164.61 -1.56173 -0.211607 0
M  V30 31534 C 3165.84 -1.83741 -0.951151 0
M  V30 31535 C 3166.26 -0.642283 -1.77539 0
M  V30 31536 O 3165.61 0.389143 -1.78303 0
M  V30 31537 C 3165.66 -3.09936 -1.86069 0
M  V30 31538 O 3165.38 -4.24839 -1.06976 0
M  V30 31539 C 3166.89 -3.50563 -2.7133 0
M  V30 31540 H 3164.11 -0.610565 -0.278301 0
M  V30 31541 H 3166.65 -2.03271 -0.223836 0
M  V30 31542 H 3164.8 -2.92352 -2.54184 0
M  V30 31543 H 3165.22 -4.96593 -1.68806 0
M  V30 31544 H 3166.69 -4.41873 -3.30835 0
M  V30 31545 H 3167.17 -2.72779 -3.44221 0
M  V30 31546 H 3167.78 -3.70622 -2.08614 0
M  V30 31547 N 3166.09 0.478699 -1.50154 0
M  V30 31548 C 3167.51 0.811809 -1.37411 0
M  V30 31549 C 3167.71 1.96981 -0.424338 0
M  V30 31550 O 3166.76 2.52134 0.135836 0
M  V30 31551 C 3168.08 1.13103 -2.78618 0
M  V30 31552 C 3169.62 1.23793 -2.87479 0
M  V30 31553 C 3170.1 1.59033 -4.29503 0
M  V30 31554 N 3171.59 1.66039 -4.32418 0
M  V30 31555 C 3172.32 1.94795 -5.39298 0
M  V30 31556 N 3171.82 2.21623 -6.56395 0
M  V30 31557 N 3173.61 1.96233 -5.26734 0
M  V30 31558 H 3165.76 -0.284568 -2.10485 0
M  V30 31559 H 3168.03 -0.0647751 -0.945784 0
M  V30 31560 H 3167.73 0.353279 -3.49921 0
M  V30 31561 H 3167.61 2.0691 -3.15386 0
M  V30 31562 H 3169.99 2.00637 -2.164 0
M  V30 31563 H 3170.08 0.279843 -2.54265 0
M  V30 31564 H 3169.72 0.827316 -5.01117 0
M  V30 31565 H 3169.65 2.55979 -4.60198 0
M  V30 31566 H 3172.14 1.47376 -3.47978 0
M  V30 31567 H 3172.45 2.42817 -7.33662 0
M  V30 31568 H 3170.8 2.19032 -6.59583 0
M  V30 31569 H 3173.99 1.74766 -4.34252 0
M  V30 31570 H 3174.16 2.18309 -6.10119 0
M  V30 31571 N 3167.57 1.39603 0.731343 0
M  V30 31572 C 3168.85 1.27533 1.48306 0
M  V30 31573 C 3169.23 -0.113445 2.10795 0
M  V30 31574 O 3168.57 -1.12498 1.98888 0
M  V30 31575 C 3168.78 2.4024 2.53152 0
M  V30 31576 C 3170.13 2.7973 3.19431 0
M  V30 31577 O 3171.16 2.39716 2.63466 0
M  V30 31578 O 3170.01 3.48808 4.20708 0
M  V30 31579 H 3167.11 0.499985 0.658744 0
M  V30 31580 H 3169.65 1.51486 0.764857 0
M  V30 31581 H 3168.43 3.33068 2.05382 0
M  V30 31582 H 3168.05 2.17972 3.32527 0
M  V30 31583 N 3169.05 -0.961916 1.2484 0
M  V30 31584 C 3170.46 -1.52028 1.08371 0
M  V30 31585 C 3170.81 -1.93179 -0.342971 0
M  V30 31586 O 3169.93 -1.77902 -1.23206 0
M  V30 31587 C 3170.53 -2.76274 1.96107 0
M  V30 31588 C 3169.09 -3.28448 1.83845 0
M  V30 31589 C 3168.23 -2.01323 1.90694 0
M  V30 31590 H 3171.19 -0.779588 1.38232 0
M  V30 31591 H 3171.21 -3.49825 1.49676 0
M  V30 31592 H 3170.72 -2.46293 2.99936 0
M  V30 31593 H 3168.82 -3.63267 0.828717 0
M  V30 31594 H 3168.93 -3.96956 2.68258 0
M  V30 31595 H 3167.3 -2.16296 1.34492 0
M  V30 31596 H 3168.08 -1.73699 2.96114 0
M  V30 31597 N 3170.52 -1.06308 -1.16346 0
M  V30 31598 C 3171.77 -0.778344 -1.86511 0
M  V30 31599 C 3172.09 0.697241 -1.82109 0
M  V30 31600 O 3171.36 1.50444 -1.25473 0
M  V30 31601 H 3169.94 -0.284931 -0.690524 0
M  V30 31602 H 3172.61 -1.34461 -1.4109 0
M  V30 31603 H 3171.7 -1.10338 -2.91945 0
M  V30 31604 N 3172 1.32989 -0.845682 0
M  V30 31605 C 3173.25 1.9785 -0.445346 0
M  V30 31606 C 3173.58 1.66806 0.994446 0
M  V30 31607 O 3172.86 0.95154 1.69635 0
M  V30 31608 C 3173.14 3.53728 -0.674433 0
M  V30 31609 C 3172.99 3.94434 -2.16199 0
M  V30 31610 C 3174.31 4.39922 -0.124985 0
M  V30 31611 H 3171.43 0.718685 -0.163282 0
M  V30 31612 H 3174.07 1.57518 -1.06245 0
M  V30 31613 H 3172.22 3.88214 -0.149159 0
M  V30 31614 H 3173.89 3.70171 -2.75265 0
M  V30 31615 H 3172.14 3.43918 -2.64392 0
M  V30 31616 H 3172.81 5.03029 -2.27301 0
M  V30 31617 H 3175.28 4.12121 -0.574058 0
M  V30 31618 H 3174.16 5.47996 -0.314912 0
M  V30 31619 H 3174.42 4.3129 0.971682 0
M  V30 31620 N 3173.48 0.60276 1.45618 0
M  V30 31621 C 3174.9 0.266018 1.57367 0
M  V30 31622 C 3175.1 -1.23151 1.59487 0
M  V30 31623 O 3174.15 -2.0143 1.52257 0
M  V30 31624 C 3175.47 0.932931 2.85862 0
M  V30 31625 C 3177.01 0.908397 2.99528 0
M  V30 31626 C 3177.49 1.55523 4.30786 0
M  V30 31627 N 3178.98 1.52049 4.37533 0
M  V30 31628 C 3179.71 1.99018 5.37754 0
M  V30 31629 N 3179.21 2.5405 6.44539 0
M  V30 31630 N 3181 1.89814 5.29081 0
M  V30 31631 H 3173.15 1.57517 1.42486 0
M  V30 31632 H 3175.42 0.659568 0.680936 0
M  V30 31633 H 3175.12 1.98718 2.90179 0
M  V30 31634 H 3175 0.453275 3.74467 0
M  V30 31635 H 3177.38 -0.137292 2.9478 0
M  V30 31636 H 3177.47 1.42627 2.12347 0
M  V30 31637 H 3177.11 2.60022 4.36292 0
M  V30 31638 H 3177.04 1.01241 5.16776 0
M  V30 31639 H 3179.53 1.11843 3.6097 0
M  V30 31640 H 3179.84 2.87694 7.17253 0
M  V30 31641 H 3178.19 2.58086 6.45303 0
M  V30 31642 H 3181.38 1.46564 4.44563 0
M  V30 31643 H 3181.55 2.26732 6.07039 0
M  V30 31644 N 3174.96 -1.53852 0.341647 0
M  V30 31645 C 3176.2 -2.01876 -0.248511 0
M  V30 31646 C 3176.56 -1.22516 -1.4835 0
M  V30 31647 O 3175.85 -0.303952 -1.89174 0
M  V30 31648 C 3176.05 -3.52035 -0.616927 0
M  V30 31649 C 3175.88 -4.45934 0.580805 0
M  V30 31650 C 3174.65 -4.93502 1.08553 0
M  V30 31651 C 3176.84 -4.93768 1.43867 0
M  V30 31652 N 3174.83 -5.71347 2.24578 0
M  V30 31653 C 3176.2 -5.69717 2.44585 0
M  V30 31654 C 3178.25 -4.7588 1.46433 0
M  V30 31655 C 3176.95 -6.29681 3.47698 0
M  V30 31656 C 3178.98 -5.36692 2.48426 0
M  V30 31657 C 3178.34 -6.12508 3.4787 0
M  V30 31658 H 3174.44 -0.780113 -0.054293 0
M  V30 31659 H 3177.03 -1.88671 0.480782 0
M  V30 31660 H 3175.2 -3.6545 -1.31533 0
M  V30 31661 H 3176.93 -3.86806 -1.19011 0
M  V30 31662 H 3173.68 -4.69064 0.653915 0
M  V30 31663 H 3174.11 -6.14941 2.83154 0
M  V30 31664 H 3178.75 -4.16811 0.709117 0
M  V30 31665 H 3176.47 -6.8786 4.24115 0
M  V30 31666 H 3180.05 -5.24759 2.51236 0
M  V30 31667 H 3178.93 -6.58727 4.25498 0
M  V30 31668 N 3176.44 -0.0702223 -1.57443 0
M  V30 31669 C 3177.35 0.912339 -2.16133 0
M  V30 31670 C 3178.36 1.32817 -1.12409 0
M  V30 31671 O 3179.54 1.40119 -1.44667 0
M  V30 31672 C 3176.6 2.16226 -2.71011 0
M  V30 31673 C 3175.66 1.80299 -3.89603 0
M  V30 31674 C 3174.9 2.99333 -4.41855 0
M  V30 31675 O 3175.12 4.13302 -3.93113 0
M  V30 31676 O 3174.05 2.7924 -5.33206 0
M  V30 31677 H 3177.88 0.443114 -3.0045 0
M  V30 31678 H 3175.47 0.15276 -1.48617 0
M  V30 31679 H 3177.35 2.89525 -3.06192 0
M  V30 31680 H 3176.02 2.62249 -1.89755 0
M  V30 31681 H 3174.93 1.04257 -3.59279 0
M  V30 31682 H 3176.26 1.3906 -4.72147 0
M  V30 31683 N 3177.91 1.56283 0.203321 0
M  V30 31684 C 3179.14 1.83976 0.940029 0
M  V30 31685 C 3179.55 0.649517 1.77702 0
M  V30 31686 O 3178.9 -0.391157 1.79487 0
M  V30 31687 C 3178.96 3.05658 1.89244 0
M  V30 31688 C 3178.62 4.39906 1.23821 0
M  V30 31689 C 3179.62 5.162 0.61914 0
M  V30 31690 C 3177.3 4.86638 1.24452 0
M  V30 31691 C 3179.3 6.37398 0.0151167 0
M  V30 31692 C 3176.98 6.07775 0.636658 0
M  V30 31693 C 3177.98 6.82996 0.0230281 0
M  V30 31694 O 3177.67 8.01839 -0.575328 0
M  V30 31695 H 3177.4 0.615199 0.280189 0
M  V30 31696 H 3179.96 2.04239 0.218076 0
M  V30 31697 H 3178.19 2.81259 2.65387 0
M  V30 31698 H 3179.88 3.20067 2.49624 0
M  V30 31699 H 3180.64 4.81193 0.606461 0
M  V30 31700 H 3176.52 4.28051 1.71153 0
M  V30 31701 H 3180.06 6.96052 -0.464456 0
M  V30 31702 H 3175.96 6.42251 0.646811 0
M  V30 31703 H 3176.73 8.17141 -0.471427 0
M  V30 31704 N 3179.39 -0.470729 1.50406 0
M  V30 31705 C 3180.63 -1.23263 1.63051 0
M  V30 31706 C 3181 -1.89249 0.323848 0
M  V30 31707 O 3182.2 -2.66819 0.325738 0
M  V30 31708 C 3180.47 -2.24818 2.77834 0
M  V30 31709 S 3182.03 -3.09942 3.10614 0
M  V30 31710 H 3178.85 -0.418488 0.574794 0
M  V30 31711 H 3181.45 -0.529586 1.8819 0
M  V30 31712 H 3180.15 -1.74923 3.71255 0
M  V30 31713 H 3179.68 -2.9975 2.54781 0
M  V30 31714 H 3181.7 -4.25982 2.54468 0
M  V30 31715 N 3180.87 -1.39989 -0.72393 0
M  V30 31716 C 3181.82 -1.39753 -1.85935 0
M  V30 31717 C 3182.81 -0.279141 -1.67084 0
M  V30 31718 O 3184.02 -0.449751 -1.74291 0
M  V30 31719 H 3180.39 -0.436655 -0.612239 0
M  V30 31720 H 3182.37 -2.35503 -1.83251 0
M  V30 31721 C 3181.11 -1.2688 -3.23723 0
M  V30 31722 H 3180.44 -2.12212 -3.38831 0
M  V30 31723 H 3181.88 -1.30772 -4.03329 0
M  V30 31724 C 3180.34 0.0217725 -3.36893 0
M  V30 31725 O 3180.87 0.987837 -3.89364 0
M  V30 31726 N 3179.07 0.0885107 -2.90465 0
M  V30 31727 H 3178.62 -0.698358 -2.47953 0
M  V30 31728 H 3178.58 0.951504 -2.99656 0
M  V30 31729 N 3182.35 0.955282 -1.25348 0
M  V30 31730 C 3183.28 2.06941 -1.08155 0
M  V30 31731 C 3184.26 1.70098 0.00919608 0
M  V30 31732 O 3185.45 1.93538 -0.160215 0
M  V30 31733 C 3182.58 3.40197 -0.698805 0
M  V30 31734 C 3181.53 3.91047 -1.73972 0
M  V30 31735 C 3180.86 5.2079 -1.21167 0
M  V30 31736 C 3182.16 4.17497 -3.13836 0
M  V30 31737 H 3183.85 2.21583 -2.01349 0
M  V30 31738 H 3181.4 1.06476 -0.969478 0
M  V30 31739 H 3183.35 4.17589 -0.565467 0
M  V30 31740 H 3182.07 3.25492 0.268834 0
M  V30 31741 H 3180.73 3.15823 -1.86148 0
M  V30 31742 H 3180.38 5.02454 -0.234281 0
M  V30 31743 H 3180.08 5.55781 -1.90738 0
M  V30 31744 H 3181.6 6.00779 -1.09071 0
M  V30 31745 H 3183.02 4.8555 -3.04817 0
M  V30 31746 H 3181.41 4.63743 -3.80871 0
M  V30 31747 H 3182.48 3.23799 -3.60946 0
M  V30 31748 N 3183.83 1.06924 1.1578 0
M  V30 31749 C 3185.06 0.810754 1.90353 0
M  V30 31750 C 3185.47 -0.635583 1.7778 0
M  V30 31751 O 3184.83 -1.43562 1.12677 0
M  V30 31752 C 3184.88 1.20436 3.40848 0
M  V30 31753 O 3184.6 2.59395 3.53052 0
M  V30 31754 C 3186.1 0.974549 4.32455 0
M  V30 31755 H 3183.32 0.293462 0.603424 0
M  V30 31756 H 3185.86 1.42455 1.4672 0
M  V30 31757 H 3184.02 0.634976 3.82161 0
M  V30 31758 H 3184.43 2.75333 4.46421 0
M  V30 31759 H 3185.91 1.29951 5.36485 0
M  V30 31760 H 3186.38 -0.0893709 4.39109 0
M  V30 31761 H 3186.99 1.52863 3.96879 0
M  V30 31762 N 3185.31 -1.32538 0.852723 0
M  V30 31763 C 3186.24 -2.27797 0.253221 0
M  V30 31764 C 3187.25 -1.52347 -0.57395 0
M  V30 31765 O 3188.44 -1.73989 -0.398756 0
M  V30 31766 C 3185.54 -3.32392 -0.660975 0
M  V30 31767 C 3184.71 -4.37207 0.129916 0
M  V30 31768 C 3183.77 -5.21391 -0.709745 0
M  V30 31769 O 3182.8 -5.69018 -0.143956 0
M  V30 31770 N 3184 -5.44042 -2.0248 0
M  V30 31771 H 3186.76 -2.79881 1.07175 0
M  V30 31772 H 3184.33 -1.45378 0.712517 0
M  V30 31773 H 3186.32 -3.85619 -1.22799 0
M  V30 31774 H 3184.89 -2.80481 -1.3802 0
M  V30 31775 H 3184.11 -3.8429 0.878357 0
M  V30 31776 H 3185.4 -5.04326 0.67323 0
M  V30 31777 H 3184.79 -5.07074 -2.50783 0
M  V30 31778 H 3183.35 -6.00273 -2.53999 0
M  V30 31779 N 3186.78 -0.610474 -1.45296 0
M  V30 31780 C 3188.02 -0.109838 -2.04105 0
M  V30 31781 C 3188.39 1.23725 -1.4682 0
M  V30 31782 O 3189.59 1.82878 -1.97001 0
M  V30 31783 C 3187.86 -0.0742005 -3.57323 0
M  V30 31784 S 3189.42 0.364824 -4.37281 0
M  V30 31785 H 3186.24 -0.0509795 -0.70917 0
M  V30 31786 H 3188.84 -0.809225 -1.77966 0
M  V30 31787 H 3187.54 -1.05808 -3.96526 0
M  V30 31788 H 3187.07 0.64709 -3.88042 0
M  V30 31789 H 3189.09 1.61371 -4.69227 0
M  V30 31790 N 3188.26 1.53669 -0.349801 0
M  V30 31791 C 3189.49 2.05904 0.248656 0
M  V30 31792 C 3189.91 1.22269 1.4294 0
M  V30 31793 O 3189.27 0.23793 1.79732 0
M  V30 31794 C 3189.32 3.54955 0.635577 0
M  V30 31795 O 3188.42 3.74135 1.73483 0
M  V30 31796 H 3187.76 0.662798 0.0399361 0
M  V30 31797 H 3190.29 1.98249 -0.50583 0
M  V30 31798 H 3190.3 3.977 0.910994 0
M  V30 31799 H 3188.98 4.15275 -0.227878 0
M  V30 31800 H 3187.55 3.43292 1.4562 0
M  V30 31801 N 3189.74 0.0785709 1.57404 0
M  V30 31802 C 3191.02 -0.630357 1.85164 0
M  V30 31803 C 3191.4 -1.87374 0.972328 0
M  V30 31804 O 3190.74 -2.28464 0.0403776 0
M  V30 31805 C 3190.95 -0.961545 3.35493 0
M  V30 31806 C 3192.3 -1.33212 4.03162 0
M  V30 31807 O 3193.33 -1.05307 3.40278 0
M  V30 31808 O 3192.19 -1.85403 5.1409 0
M  V30 31809 H 3189.28 -0.313746 0.765175 0
M  V30 31810 H 3191.83 0.110016 1.69343 0
M  V30 31811 H 3190.6 -0.0787425 3.91221 0
M  V30 31812 H 3190.22 -1.75845 3.56601 0
M  V30 31813 N 3191.22 -1.56389 -0.19503 0
M  V30 31814 C 3192.18 -1.93694 -1.22537 0
M  V30 31815 C 3193.18 -0.818064 -1.38435 0
M  V30 31816 O 3194.37 -1.08548 -1.36246 0
M  V30 31817 C 3191.5 -2.21104 -2.59472 0
M  V30 31818 H 3192.7 -2.85872 -0.906494 0
M  V30 31819 H 3190.25 -1.5008 -0.436551 0
M  V30 31820 H 3190.98 -1.31564 -2.96414 0
M  V30 31821 H 3190.77 -3.02638 -2.49304 0
M  V30 31822 H 3192.26 -2.5097 -3.33772 0
M  V30 31823 N 3192.7 0.462746 -1.50653 0
M  V30 31824 C 3193.61 1.58536 -1.72926 0
M  V30 31825 C 3194.62 1.62859 -0.612606 0
M  V30 31826 O 3195.8 1.80574 -0.891917 0
M  V30 31827 C 3192.86 2.947 -1.82628 0
M  V30 31828 C 3191.92 3.00698 -3.06397 0
M  V30 31829 C 3191.16 4.30367 -3.15626 0
M  V30 31830 O 3191.38 5.2134 -2.31432 0
M  V30 31831 O 3190.31 4.42129 -4.08418 0
M  V30 31832 H 3194.14 1.42664 -2.68106 0
M  V30 31833 H 3191.72 0.64312 -1.34849 0
M  V30 31834 H 3193.61 3.75557 -1.91141 0
M  V30 31835 H 3192.28 3.10753 -0.90633 0
M  V30 31836 H 3191.19 2.18889 -3.03379 0
M  V30 31837 H 3192.52 2.89584 -3.97997 0
M  V30 31838 N 3194.17 1.40371 0.716495 0
M  V30 31839 C 3195.42 1.38326 1.47344 0
M  V30 31840 C 3195.74 -0.0139606 1.94995 0
M  V30 31841 O 3195.01 -0.968555 1.70282 0
M  V30 31842 H 3193.59 0.509097 0.546653 0
M  V30 31843 H 3196.26 1.75416 0.849425 0
M  V30 31844 H 3195.35 2.05757 2.34671 0
M  V30 31845 N 3195.65 -0.948621 1.25853 0
M  V30 31846 C 3196.88 -1.72849 1.13714 0
M  V30 31847 C 3197.3 -1.86264 -0.308438 0
M  V30 31848 O 3196.65 -1.36468 -1.21173 0
M  V30 31849 C 3196.7 -3.13915 1.79276 0
M  V30 31850 O 3196.42 -3.01149 3.18184 0
M  V30 31851 C 3197.93 -4.08151 1.72995 0
M  V30 31852 H 3195.15 -0.541436 0.396344 0
M  V30 31853 H 3197.69 -1.18971 1.66331 0
M  V30 31854 H 3195.84 -3.64717 1.30615 0
M  V30 31855 H 3196.26 -3.9018 3.50514 0
M  V30 31856 H 3197.73 -5.04721 2.23519 0
M  V30 31857 H 3198.21 -4.33667 0.694942 0
M  V30 31858 H 3198.82 -3.63267 2.21173 0
M  V30 31859 N 3197.13 -1.07536 -1.15212 0
M  V30 31860 C 3198.09 -0.701275 -2.18208 0
M  V30 31861 C 3199.09 0.259432 -1.58693 0
M  V30 31862 O 3200.28 0.0401438 -1.74154 0
M  V30 31863 C 3197.42 -0.0339302 -3.40883 0
M  V30 31864 H 3198.61 -1.61319 -2.52817 0
M  V30 31865 H 3196.16 -0.872127 -1.29706 0
M  V30 31866 H 3196.9 0.890132 -3.11845 0
M  V30 31867 H 3196.68 -0.724928 -3.8534 0
M  V30 31868 H 3198.17 0.213079 -4.17056 0
M  V30 31869 N 3198.61 1.32084 -0.85974 0
M  V30 31870 C 3199.85 1.97366 -0.466306 0
M  V30 31871 C 3200.19 1.67852 0.976698 0
M  V30 31872 O 3199.46 0.969479 1.68616 0
M  V30 31873 C 3199.75 3.52993 -0.711913 0
M  V30 31874 C 3199.6 3.92118 -2.20371 0
M  V30 31875 C 3200.92 4.39765 -0.171638 0
M  V30 31876 H 3198.04 0.716913 -0.170895 0
M  V30 31877 H 3200.68 1.56382 -1.0791 0
M  V30 31878 H 3198.83 3.88034 -0.190326 0
M  V30 31879 H 3200.5 3.67231 -2.79176 0
M  V30 31880 H 3198.74 3.41094 -2.68025 0
M  V30 31881 H 3199.41 5.0059 -2.32623 0
M  V30 31882 H 3201.89 4.11489 -0.617737 0
M  V30 31883 H 3200.77 5.47631 -0.373017 0
M  V30 31884 H 3201.03 4.32296 0.925883 0
M  V30 31885 N 3200.09 0.618171 1.4497 0
M  V30 31886 C 3201.05 -0.0846336 2.29044 0
M  V30 31887 C 3202.05 -0.784896 1.40342 0
M  V30 31888 O 3203.24 -0.631451 1.62353 0
M  V30 31889 C 3200.37 -1.13022 3.21619 0
M  V30 31890 H 3201.56 0.654664 2.92667 0
M  V30 31891 H 3199.12 0.377699 1.51668 0
M  V30 31892 H 3199.85 -1.89993 2.62818 0
M  V30 31893 H 3199.64 -0.632172 3.8697 0
M  V30 31894 H 3201.13 -1.62211 3.84808 0
M  V30 31895 N 3201.56 -1.53481 0.357946 0
M  V30 31896 C 3202.98 -1.86295 -0.122905 0
M  V30 31897 C 3203.33 -1.27878 -1.48801 0
M  V30 31898 O 3202.45 -0.597864 -2.07977 0
M  V30 31899 C 3203.05 -3.3802 -0.229793 0
M  V30 31900 C 3201.61 -3.70659 -0.65489 0
M  V30 31901 C 3200.75 -2.76559 0.202587 0
M  V30 31902 H 3203.7 -1.47838 0.577023 0
M  V30 31903 H 3203.72 -3.65589 -1.05474 0
M  V30 31904 H 3203.24 -3.80508 0.763892 0
M  V30 31905 H 3201.34 -3.33724 -1.65708 0
M  V30 31906 H 3201.45 -4.77123 -0.434796 0
M  V30 31907 H 3199.81 -2.52588 -0.327344 0
M  V30 31908 H 3200.6 -3.21879 1.19367 0
M  V30 31909 N 3203.04 -0.0869173 -1.5736 0
M  V30 31910 C 3204.45 0.443467 -1.81357 0
M  V30 31911 C 3204.8 1.68687 -1.00195 0
M  V30 31912 O 3203.93 2.15186 -0.228901 0
M  V30 31913 C 3204.52 0.811329 -3.28942 0
M  V30 31914 C 3203.08 1.2865 -3.53732 0
M  V30 31915 C 3202.23 0.279104 -2.75892 0
M  V30 31916 H 3205.18 -0.312455 -1.55594 0
M  V30 31917 H 3205.2 1.67154 -3.41818 0
M  V30 31918 H 3204.71 -0.093828 -3.87987 0
M  V30 31919 H 3202.82 2.20964 -3.00009 0
M  V30 31920 H 3202.93 1.25398 -4.62398 0
M  V30 31921 H 3201.29 0.759552 -2.43111 0
M  V30 31922 H 3202.08 -0.618589 -3.37681 0
M  V30 31923 N 3204.52 1.5649 0.186734 0
M  V30 31924 C 3205.75 1.85231 0.9218 0
M  V30 31925 C 3206.16 0.670447 1.76495 0
M  V30 31926 O 3205.52 -0.360727 1.78899 0
M  V30 31927 C 3205.57 3.12857 1.81115 0
M  V30 31928 O 3205.29 4.26487 1.00203 0
M  V30 31929 C 3206.79 3.54836 2.65719 0
M  V30 31930 H 3204.01 0.614915 0.268553 0
M  V30 31931 H 3206.56 2.03602 0.191469 0
M  V30 31932 H 3204.71 2.96358 2.495 0
M  V30 31933 H 3205.13 4.99216 1.60885 0
M  V30 31934 H 3206.6 4.47081 3.23763 0
M  V30 31935 H 3207.08 2.78221 3.39838 0
M  V30 31936 H 3207.68 3.73894 2.02691 0
M  V30 31937 N 3206 -0.45475 1.50897 0
M  V30 31938 C 3207.24 -1.20738 1.62942 0
M  V30 31939 C 3207.58 -1.91265 0.336373 0
M  V30 31940 O 3206.85 -1.82847 -0.663121 0
M  V30 31941 C 3207.14 -2.23817 2.82096 0
M  V30 31942 C 3206.99 -1.57488 4.21328 0
M  V30 31943 C 3208.31 -3.24974 2.96783 0
M  V30 31944 H 3205.43 -0.437592 0.593028 0
M  V30 31945 H 3208.07 -0.498927 1.83332 0
M  V30 31946 H 3206.22 -2.84238 2.64842 0
M  V30 31947 H 3207.89 -1.00538 4.50211 0
M  V30 31948 H 3206.13 -0.877589 4.2483 0
M  V30 31949 H 3206.8 -2.32473 5.0066 0
M  V30 31950 H 3209.28 -2.74592 3.12632 0
M  V30 31951 H 3208.16 -3.9441 3.81749 0
M  V30 31952 H 3208.42 -3.90061 2.08098 0
M  V30 31953 N 3207.48 -1.40749 -0.709041 0
M  V30 31954 C 3208.7 -1.42709 -1.49805 0
M  V30 31955 C 3209.12 -0.0285906 -1.88778 0
M  V30 31956 O 3208.48 0.949008 -1.55885 0
M  V30 31957 C 3208.53 -2.32371 -2.76922 0
M  V30 31958 O 3208.25 -3.66777 -2.39595 0
M  V30 31959 C 3209.75 -2.42992 -3.70769 0
M  V30 31960 H 3206.97 -0.486526 -0.462097 0
M  V30 31961 H 3209.51 -1.84878 -0.874102 0
M  V30 31962 H 3207.67 -1.93547 -3.35586 0
M  V30 31963 H 3208.08 -4.14463 -3.21436 0
M  V30 31964 H 3209.56 -3.09924 -4.56784 0
M  V30 31965 H 3210.03 -1.45699 -4.14329 0
M  V30 31966 H 3210.64 -2.82395 -3.18014 0
M  V30 31967 N 3208.96 0.941933 -1.26354 0
M  V30 31968 C 3210.37 1.50285 -1.10776 0
M  V30 31969 C 3210.72 1.937 0.312194 0
M  V30 31970 O 3209.84 1.7984 1.20361 0
M  V30 31971 C 3210.44 2.7312 -2.00477 0
M  V30 31972 C 3209 3.25481 -1.89047 0
M  V30 31973 C 3208.14 1.98264 -1.93873 0
M  V30 31974 H 3211.09 0.757498 -1.39455 0
M  V30 31975 H 3211.12 3.47399 -1.55222 0
M  V30 31976 H 3210.63 2.4149 -3.03816 0
M  V30 31977 H 3208.73 3.61903 -0.886405 0
M  V30 31978 H 3208.84 3.92638 -2.74539 0
M  V30 31979 H 3207.21 2.14129 -1.37916 0
M  V30 31980 H 3207.99 1.68967 -2.9884 0
M  V30 31981 N 3210.43 1.08146 1.1464 0
M  V30 31982 C 3211.68 0.810716 1.8589 0
M  V30 31983 C 3212.01 -0.661789 1.82576 0
M  V30 31984 O 3211.29 -1.4863 1.25457 0
M  V30 31985 C 3211.57 1.32985 3.34644 0
M  V30 31986 C 3211.42 2.8675 3.46546 0
M  V30 31987 C 3212.74 0.952939 4.29659 0
M  V30 31988 H 3209.86 0.295975 0.674958 0
M  V30 31989 H 3212.5 1.34062 1.34638 0
M  V30 31990 H 3210.65 0.879096 3.78423 0
M  V30 31991 H 3212.33 3.40176 3.11573 0
M  V30 31992 H 3210.57 3.24544 2.87843 0
M  V30 31993 H 3211.24 3.18146 4.51096 0
M  V30 31994 H 3213.72 1.34148 3.93883 0
M  V30 31995 H 3212.59 1.3434 5.32207 0
M  V30 31996 H 3212.85 -0.140314 4.41877 0
M  V30 31997 N 3211.91 -1.31626 0.866732 0
M  V30 31998 C 3213.32 -1.79047 0.529064 0
M  V30 31999 C 3213.67 -1.71454 -0.953841 0
M  V30 32000 O 3212.8 -1.28034 -1.7446 0
M  V30 32001 C 3213.39 -3.25104 0.953579 0
M  V30 32002 C 3211.95 -3.70432 0.667619 0
M  V30 32003 C 3211.1 -2.52481 1.14668 0
M  V30 32004 H 3214.05 -1.18754 1.05277 0
M  V30 32005 H 3214.07 -3.79506 0.274911 0
M  V30 32006 H 3213.58 -3.30598 2.03289 0
M  V30 32007 H 3211.68 -3.70442 -0.400467 0
M  V30 32008 H 3211.8 -4.62711 1.24238 0
M  V30 32009 H 3210.16 -2.48319 0.566546 0
M  V30 32010 H 3210.94 -2.60723 2.23335 0
M  V30 32011 N 3213.39 -0.62585 -1.4464 0
M  V30 32012 C 3214.61 -0.13341 -2.0697 0
M  V30 32013 C 3215.04 1.18076 -1.46423 0
M  V30 32014 O 3214.4 1.72314 -0.563706 0
M  V30 32015 C 3214.45 -0.0265731 -3.6059 0
M  V30 32016 O 3213.55 1.01882 -3.99617 0
M  V30 32017 H 3212.89 -0.0823684 -0.658871 0
M  V30 32018 H 3215.42 -0.861035 -1.856 0
M  V30 32019 H 3215.43 0.165728 -4.07663 0
M  V30 32020 H 3214.11 -0.986057 -4.04042 0
M  V30 32021 H 3212.68 0.801513 -3.64184 0
M  V30 32022 N 3214.87 1.53289 -0.36608 0
M  V30 32023 C 3215.8 2.28678 0.47207 0
M  V30 32024 C 3216.78 1.31127 1.0835 0
M  V30 32025 O 3217.96 1.59997 1.10066 0
M  V30 32026 C 3215.09 3.07639 1.61168 0
M  V30 32027 C 3214.05 4.12883 1.12747 0
M  V30 32028 C 3213.37 4.7993 2.35736 0
M  V30 32029 C 3214.67 5.2187 0.211862 0
M  V30 32030 H 3216.37 2.98989 -0.15689 0
M  V30 32031 H 3213.91 1.43795 -0.0768962 0
M  V30 32032 H 3215.87 3.59127 2.20467 0
M  V30 32033 H 3214.59 2.3502 2.26788 0
M  V30 32034 H 3213.25 3.62341 0.55717 0
M  V30 32035 H 3212.9 4.03882 2.99814 0
M  V30 32036 H 3212.6 5.51048 2.0401 0
M  V30 32037 H 3214.12 5.34212 2.9572 0
M  V30 32038 H 3215.54 5.68857 0.71234 0
M  V30 32039 H 3213.93 6.00098 -0.0145556 0
M  V30 32040 H 3215 4.7913 -0.745837 0
M  V30 32041 N 3216.35 0.0952613 1.57312 0
M  V30 32042 C 3217.26 -0.877839 2.17557 0
M  V30 32043 C 3218.27 -1.31012 1.14508 0
M  V30 32044 O 3219.45 -1.378 1.46878 0
M  V30 32045 C 3216.51 -2.11887 2.74417 0
M  V30 32046 C 3215.57 -1.74078 3.92422 0
M  V30 32047 C 3214.81 -2.92265 4.46561 0
M  V30 32048 O 3215.03 -4.06995 3.99639 0
M  V30 32049 O 3213.96 -2.70722 5.37581 0
M  V30 32050 H 3217.79 -0.395259 3.01117 0
M  V30 32051 H 3215.37 -0.129097 1.48841 0
M  V30 32052 H 3217.26 -2.84617 3.10759 0
M  V30 32053 H 3215.93 -2.59197 1.93903 0
M  V30 32054 H 3214.84 -0.985283 3.60892 0
M  V30 32055 H 3216.17 -1.31531 4.743 0
M  V30 32056 N 3217.82 -1.56587 -0.178432 0
M  V30 32057 C 3218.79 -1.94983 -1.20476 0
M  V30 32058 C 3219.79 -0.832701 -1.3756 0
M  V30 32059 O 3220.98 -1.09987 -1.35087 0
M  V30 32060 C 3218.11 -2.23843 -2.57113 0
M  V30 32061 H 3219.3 -2.86817 -0.876122 0
M  V30 32062 H 3216.85 -1.50534 -0.420608 0
M  V30 32063 H 3217.59 -1.347 -2.95002 0
M  V30 32064 H 3217.37 -3.05265 -2.4608 0
M  V30 32065 H 3218.86 -2.54496 -3.31092 0
M  V30 32066 N 3219.3 0.446741 -1.51136 0
M  V30 32067 C 3220.71 1.02691 -1.55921 0
M  V30 32068 C 3221.06 1.92542 -0.377072 0
M  V30 32069 O 3220.19 2.10371 0.507258 0
M  V30 32070 C 3220.78 1.86917 -2.82573 0
M  V30 32071 C 3219.34 2.4 -2.8996 0
M  V30 32072 C 3218.49 1.18967 -2.50484 0
M  V30 32073 H 3221.44 0.228376 -1.57048 0
M  V30 32074 H 3221.46 2.72265 -2.65804 0
M  V30 32075 H 3220.97 1.21496 -3.68592 0
M  V30 32076 H 3219.07 3.08904 -2.08349 0
M  V30 32077 H 3219.19 2.73441 -3.93404 0
M  V30 32078 H 3217.55 1.53208 -2.03469 0
M  V30 32079 H 3218.33 0.551702 -3.38838 0
M  V30 32080 N 3220.78 1.41123 0.701567 0
M  V30 32081 C 3222 1.43699 1.4955 0
M  V30 32082 C 3222.43 0.0422196 1.88053 0
M  V30 32083 O 3221.79 -0.953117 1.54225 0
M  V30 32084 C 3221.84 2.34626 2.7383 0
M  V30 32085 O 3220.94 1.79917 3.71084 0
M  V30 32086 H 3220.28 0.487941 0.450344 0
M  V30 32087 H 3222.81 1.85515 0.862853 0
M  V30 32088 H 3222.82 2.50296 3.22205 0
M  V30 32089 H 3221.5 3.35973 2.45143 0
M  V30 32090 H 3220.07 1.73667 3.29991 0
M  V30 32091 N 3222.26 -0.935219 1.26852 0
M  V30 32092 C 3223.17 -2.06829 1.1072 0
M  V30 32093 C 3224.18 -1.73956 0.0391528 0
M  V30 32094 O 3225.36 -1.99915 0.244106 0
M  V30 32095 C 3222.42 -3.38531 0.748153 0
M  V30 32096 C 3221.49 -3.8515 1.89626 0
M  V30 32097 C 3220.72 -5.10567 1.55425 0
M  V30 32098 O 3220.94 -5.68553 0.458696 0
M  V30 32099 O 3219.88 -5.52373 2.39097 0
M  V30 32100 H 3223.7 -2.23348 2.05789 0
M  V30 32101 H 3221.29 -1.05313 1.05969 0
M  V30 32102 H 3223.17 -4.1765 0.560914 0
M  V30 32103 H 3221.84 -3.23237 -0.173086 0
M  V30 32104 H 3220.75 -3.06951 2.13851 0
M  V30 32105 H 3222.08 -4.04974 2.79744 0
M  V30 32106 N 3223.74 -1.08752 -1.14065 0
M  V30 32107 C 3224.67 -0.678558 -2.18925 0
M  V30 32108 C 3225.68 0.276135 -1.60441 0
M  V30 32109 O 3226.87 0.0632475 -1.78388 0
M  V30 32110 C 3223.97 0.0218256 -3.38893 0
M  V30 32111 C 3223.14 -0.952657 -4.269 0
M  V30 32112 C 3222.2 -0.286951 -5.25417 0
M  V30 32113 O 3221.23 -0.932453 -5.6151 0
M  V30 32114 N 3222.43 0.96173 -5.72478 0
M  V30 32115 H 3225.2 -1.58067 -2.54627 0
M  V30 32116 H 3222.76 -0.974064 -1.2932 0
M  V30 32117 H 3224.75 0.478208 -4.01865 0
M  V30 32118 H 3223.32 0.826088 -3.01487 0
M  V30 32119 H 3222.54 -1.58779 -3.60809 0
M  V30 32120 H 3223.83 -1.61287 -4.8256 0
M  V30 32121 H 3223.22 1.50585 -5.4529 0
M  V30 32122 H 3221.78 1.36155 -6.37421 0
M  V30 32123 N 3225.21 1.31165 -0.873701 0
M  V30 32124 C 3226.18 2.26707 -0.337109 0
M  V30 32125 C 3227.18 1.52363 0.514033 0
M  V30 32126 O 3228.37 1.71183 0.322804 0
M  V30 32127 C 3225.5 3.36898 0.520838 0
M  V30 32128 H 3226.69 2.75684 -1.1806 0
M  V30 32129 H 3224.25 1.42161 -0.649602 0
M  V30 32130 H 3224.98 2.9322 1.38538 0
M  V30 32131 H 3224.77 3.92 -0.0886704 0
M  V30 32132 H 3226.26 4.0804 0.888425 0
M  V30 32133 N 3226.69 0.633512 1.44307 0
M  V30 32134 C 3228.1 0.221042 1.85387 0
M  V30 32135 C 3228.45 -1.22808 1.53012 0
M  V30 32136 O 3227.58 -1.93475 0.969359 0
M  V30 32137 C 3228.17 0.39439 3.36497 0
M  V30 32138 C 3226.73 0.0364066 3.76382 0
M  V30 32139 C 3225.88 0.706645 2.68145 0
M  V30 32140 H 3228.83 0.838514 1.34739 0
M  V30 32141 H 3228.85 -0.36596 3.78736 0
M  V30 32142 H 3228.36 1.44917 3.60029 0
M  V30 32143 H 3226.47 -1.01654 3.58465 0
M  V30 32144 H 3226.58 0.448129 4.77 0
M  V30 32145 H 3224.94 0.141725 2.54305 0
M  V30 32146 H 3225.73 1.76406 2.94509 0
M  V30 32147 N 3228.17 -1.53093 0.374204 0
M  V30 32148 C 3229.4 -2.05798 -0.213289 0
M  V30 32149 C 3229.81 -1.24708 -1.41751 0
M  V30 32150 O 3229.17 -0.2899 -1.80183 0
M  V30 32151 C 3229.22 -3.56514 -0.598305 0
M  V30 32152 O 3228.94 -4.34531 0.55806 0
M  V30 32153 C 3230.44 -4.25509 -1.24327 0
M  V30 32154 H 3227.66 -0.670048 -0.0357281 0
M  V30 32155 H 3230.21 -1.97376 0.535069 0
M  V30 32156 H 3228.36 -3.65059 -1.29657 0
M  V30 32157 H 3228.78 -5.23927 0.245003 0
M  V30 32158 H 3230.25 -5.32255 -1.46316 0
M  V30 32159 H 3230.73 -3.7977 -2.20616 0
M  V30 32160 H 3231.33 -4.21241 -0.586195 0
M  V30 32161 N 3229.65 -0.103603 -1.57259 0
M  V30 32162 C 3230.56 0.866289 -2.1802 0
M  V30 32163 C 3231.57 1.30402 -1.15201 0
M  V30 32164 O 3232.75 1.37019 -1.47607 0
M  V30 32165 C 3229.82 2.10429 -2.75537 0
M  V30 32166 C 3228.88 1.71995 -3.9334 0
M  V30 32167 C 3228.11 2.89893 -4.48105 0
M  V30 32168 O 3228.33 4.0487 -4.01791 0
M  V30 32169 O 3227.27 2.67867 -5.39009 0
M  V30 32170 H 3231.09 0.379285 -3.01322 0
M  V30 32171 H 3228.68 0.121202 -1.48908 0
M  V30 32172 H 3230.56 2.82965 -3.12264 0
M  V30 32173 H 3229.23 2.58165 -1.95275 0
M  V30 32174 H 3228.14 0.96613 -3.61409 0
M  V30 32175 H 3229.47 1.29014 -4.74991 0
M  V30 32176 N 3231.13 1.56679 0.170126 0
M  V30 32177 C 3232.06 1.93068 1.23521 0
M  V30 32178 C 3233.07 0.823904 1.40412 0
M  V30 32179 O 3234.26 1.10235 1.40394 0
M  V30 32180 C 3231.36 2.16932 2.60372 0
M  V30 32181 C 3230.53 3.48165 2.64764 0
M  V30 32182 C 3229.59 3.60843 3.82986 0
M  V30 32183 O 3228.62 4.33451 3.6893 0
M  V30 32184 N 3229.82 2.95782 4.99493 0
M  V30 32185 H 3232.59 2.85032 0.926122 0
M  V30 32186 H 3230.15 1.5785 0.359881 0
M  V30 32187 H 3232.14 2.22677 3.3793 0
M  V30 32188 H 3230.71 1.31347 2.83667 0
M  V30 32189 H 3229.93 3.54067 1.73292 0
M  V30 32190 H 3231.22 4.34518 2.6471 0
M  V30 32191 H 3230.61 2.36666 5.13815 0
M  V30 32192 H 3229.17 3.07121 5.74909 0
M  V30 32193 N 3232.6 -0.43872 1.5137 0
M  V30 32194 C 3234.02 -0.775091 1.39515 0
M  V30 32195 C 3234.22 -1.95787 0.476414 0
M  V30 32196 O 3233.28 -2.52406 -0.0689388 0
M  V30 32197 C 3234.59 -1.05676 2.81519 0
M  V30 32198 C 3236.14 -1.16128 2.9066 0
M  V30 32199 C 3236.61 -1.47589 4.33568 0
M  V30 32200 N 3238.1 -1.54516 4.36668 0
M  V30 32201 C 3238.84 -1.80428 5.44273 0
M  V30 32202 N 3238.33 -2.04142 6.62041 0
M  V30 32203 N 3240.13 -1.82199 5.31752 0
M  V30 32204 H 3232.28 0.340274 2.09657 0
M  V30 32205 H 3234.54 0.0898281 0.943735 0
M  V30 32206 H 3234.25 -0.260379 3.50735 0
M  V30 32207 H 3234.12 -1.98475 3.20761 0
M  V30 32208 H 3236.51 -1.94829 2.21643 0
M  V30 32209 H 3236.59 -0.212331 2.54917 0
M  V30 32210 H 3236.23 -0.694163 5.03134 0
M  V30 32211 H 3236.16 -2.43688 4.66823 0
M  V30 32212 H 3238.65 -1.38099 3.51763 0
M  V30 32213 H 3238.97 -2.2328 7.39842 0
M  V30 32214 H 3237.31 -2.01467 6.65159 0
M  V30 32215 H 3240.5 -1.63191 4.38733 0
M  V30 32216 H 3240.68 -2.02056 6.15693 0
M  V30 32217 N 3234.08 -1.41493 -0.694073 0
M  V30 32218 C 3235.49 -1.36473 -1.27405 0
M  V30 32219 C 3235.84 -0.0485554 -1.9614 0
M  V30 32220 O 3234.97 0.853153 -1.98872 0
M  V30 32221 C 3235.56 -2.47192 -2.31693 0
M  V30 32222 C 3234.12 -2.45564 -2.85263 0
M  V30 32223 C 3233.27 -2.26963 -1.59321 0
M  V30 32224 H 3236.22 -1.50987 -0.488729 0
M  V30 32225 H 3236.24 -2.16336 -3.13016 0
M  V30 32226 H 3235.75 -3.42971 -1.81638 0
M  V30 32227 H 3233.86 -1.53546 -3.39491 0
M  V30 32228 H 3233.97 -3.41928 -3.35592 0
M  V30 32229 H 3232.33 -1.74867 -1.85185 0
M  V30 32230 H 3233.12 -3.24771 -1.11259 0
M  V30 32231 N 3235.56 0.928479 -1.27346 0
M  V30 32232 C 3236.81 1.67277 -1.13414 0
M  V30 32233 C 3237.13 1.92345 0.320664 0
M  V30 32234 O 3236.4 1.52917 1.22447 0
M  V30 32235 H 3234.98 0.619961 -0.416722 0
M  V30 32236 H 3237.64 1.1149 -1.59862 0
M  V30 32237 H 3236.74 2.64128 -1.66261 0
M  V30 32238 N 3237.04 1.09355 1.13486 0
M  V30 32239 C 3238.28 0.830387 1.8502 0
M  V30 32240 C 3238.62 -0.642387 1.83268 0
M  V30 32241 O 3237.89 -1.47291 1.27026 0
M  V30 32242 C 3238.18 1.36527 3.33215 0
M  V30 32243 C 3238.03 2.9041 3.43486 0
M  V30 32244 C 3239.35 0.998457 4.28624 0
M  V30 32245 H 3236.47 0.303117 0.671781 0
M  V30 32246 H 3239.11 1.35483 1.33208 0
M  V30 32247 H 3237.26 0.919184 3.7747 0
M  V30 32248 H 3238.93 3.43462 3.07948 0
M  V30 32249 H 3237.17 3.27578 2.84385 0
M  V30 32250 H 3237.84 3.22912 4.47696 0
M  V30 32251 H 3240.32 1.38318 3.92438 0
M  V30 32252 H 3239.2 1.39978 5.30752 0
M  V30 32253 H 3239.46 -0.0934393 4.42001 0
M  V30 32254 N 3238.52 -1.307 0.880644 0
M  V30 32255 C 3239.45 -2.27209 0.301483 0
M  V30 32256 C 3240.46 -1.5353 -0.541506 0
M  V30 32257 O 3241.65 -1.74796 -0.36176 0
M  V30 32258 C 3238.75 -3.33719 -0.590321 0
M  V30 32259 C 3237.92 -4.36833 0.222625 0
M  V30 32260 C 3236.98 -5.2278 -0.598991 0
M  V30 32261 O 3236.01 -5.69195 -0.0232266 0
M  V30 32262 N 3237.21 -5.48215 -1.90895 0
M  V30 32263 H 3239.98 -2.77545 1.13088 0
M  V30 32264 H 3237.54 -1.43834 0.743193 0
M  V30 32265 H 3239.53 -3.88137 -1.14592 0
M  V30 32266 H 3238.1 -2.83345 -1.32039 0
M  V30 32267 H 3237.32 -3.8234 0.959673 0
M  V30 32268 H 3238.61 -5.02785 0.780053 0
M  V30 32269 H 3238.01 -5.1228 -2.39971 0
M  V30 32270 H 3236.56 -6.05526 -2.41209 0
M  V30 32271 N 3240 -0.641156 -1.43969 0
M  V30 32272 C 3240.91 0.0587008 -2.34527 0
M  V30 32273 C 3241.92 0.825061 -1.53195 0
M  V30 32274 O 3243.1 0.775049 -1.8589 0
M  V30 32275 C 3240.16 1.02134 -3.31315 0
M  V30 32276 C 3239.22 0.253244 -4.28552 0
M  V30 32277 C 3238.46 1.17003 -5.20717 0
M  V30 32278 O 3238.68 2.40902 -5.17032 0
M  V30 32279 O 3237.61 0.648934 -5.98392 0
M  V30 32280 H 3241.44 -0.686381 -2.95842 0
M  V30 32281 H 3239.02 -0.401341 -1.43908 0
M  V30 32282 H 3240.91 1.57489 -3.90865 0
M  V30 32283 H 3239.58 1.74686 -2.72519 0
M  V30 32284 H 3238.49 -0.343596 -3.72519 0
M  V30 32285 H 3239.82 -0.432458 -4.90296 0
M  V30 32286 N 3241.47 1.52892 -0.382318 0
M  V30 32287 C 3242.71 2.034 0.20196 0
M  V30 32288 C 3243.08 1.26288 1.44621 0
M  V30 32289 O 3244.28 1.66885 2.1072 0
M  V30 32290 C 3242.55 3.54292 0.470286 0
M  V30 32291 S 3244.11 4.2664 1.02585 0
M  V30 32292 H 3240.93 0.708671 0.0575053 0
M  V30 32293 H 3243.53 1.88205 -0.529053 0
M  V30 32294 H 3242.23 4.08007 -0.442502 0
M  V30 32295 H 3241.76 3.7368 1.22991 0
M  V30 32296 H 3243.78 4.39214 2.30879 0
M  V30 32297 N 3242.95 0.111941 1.57202 0
M  V30 32298 C 3244.18 -0.554872 1.99009 0
M  V30 32299 C 3244.59 -1.6121 0.990351 0
M  V30 32300 O 3243.93 -1.83682 -0.0259289 0
M  V30 32301 C 3243.99 -1.24592 3.3722 0
M  V30 32302 C 3243.66 -0.337469 4.55752 0
M  V30 32303 C 3244.66 0.421117 5.18192 0
M  V30 32304 C 3242.34 -0.250602 5.01674 0
M  V30 32305 C 3244.33 1.25437 6.24935 0
M  V30 32306 C 3242.02 0.586293 6.08281 0
M  V30 32307 C 3243.02 1.33742 6.69778 0
M  V30 32308 O 3242.71 2.16043 7.74326 0
M  V30 32309 H 3242.44 -0.152079 0.658671 0
M  V30 32310 H 3244.99 0.192973 2.04492 0
M  V30 32311 H 3243.22 -2.04068 3.28471 0
M  V30 32312 H 3244.91 -1.80893 3.63363 0
M  V30 32313 H 3245.68 0.363837 4.83633 0
M  V30 32314 H 3241.56 -0.824925 4.53559 0
M  V30 32315 H 3245.1 1.84114 6.72865 0
M  V30 32316 H 3241 0.644992 6.42269 0
M  V30 32317 H 3241.77 2.08908 7.91391 0
M  V30 32318 N 3244.43 -1.56767 -0.161814 0
M  V30 32319 C 3245.38 -1.93554 -1.20502 0
M  V30 32320 C 3246.36 -0.804977 -1.39316 0
M  V30 32321 O 3247.56 -1.06828 -1.41127 0
M  V30 32322 C 3244.68 -2.30706 -2.54223 0
M  V30 32323 C 3243.77 -3.50299 -2.39064 0
M  V30 32324 N 3244.16 -4.67268 -1.93634 0
M  V30 32325 C 3242.46 -3.55092 -2.69862 0
M  V30 32326 C 3243.16 -5.49391 -1.91166 0
M  V30 32327 N 3242.14 -4.90693 -2.33926 0
M  V30 32328 H 3245.94 -2.81471 -0.845637 0
M  V30 32329 H 3243.45 -1.58129 -0.370007 0
M  V30 32330 H 3245.45 -2.5526 -3.29618 0
M  V30 32331 H 3244.11 -1.44133 -2.90957 0
M  V30 32332 H 3245.12 -4.91306 -1.63826 0
M  V30 32333 H 3241.8 -2.79021 -3.10569 0
M  V30 32334 H 3243.19 -6.53141 -1.57659 0
M  V30 32335 N 3245.91 0.430686 -1.51601 0
M  V30 32336 C 3247.16 1.17723 -1.64273 0
M  V30 32337 C 3247.48 1.91564 -0.364439 0
M  V30 32338 O 3246.75 1.85831 0.619959 0
M  V30 32339 H 3245.33 0.437552 -0.60544 0
M  V30 32340 H 3247.99 0.493133 -1.88558 0
M  V30 32341 H 3247.08 1.90316 -2.47358 0
M  V30 32342 N 3247.39 1.4186 0.686559 0
M  V30 32343 C 3248.33 1.44633 1.82165 0
M  V30 32344 C 3249.33 0.323343 1.66285 0
M  V30 32345 O 3250.53 0.495803 1.73037 0
M  V30 32346 H 3246.91 0.452734 0.600446 0
M  V30 32347 H 3248.88 2.40279 1.76942 0
M  V30 32348 C 3247.63 1.35418 3.20246 0
M  V30 32349 H 3246.95 2.2112 3.33085 0
M  V30 32350 H 3248.39 1.4142 3.9972 0
M  V30 32351 C 3246.85 0.0675564 3.36832 0
M  V30 32352 O 3247.38 -0.884257 3.91847 0
M  V30 32353 N 3245.59 -0.0114679 2.90598 0
M  V30 32354 H 3245.13 0.763853 2.46014 0
M  V30 32355 H 3245.09 -0.871721 3.02073 0
M  V30 32356 N 3248.86 -0.921712 1.27837 0
M  V30 32357 C 3250.11 -1.66674 1.14299 0
M  V30 32358 C 3250.43 -1.92513 -0.310459 0
M  V30 32359 O 3249.7 -1.53564 -1.21634 0
M  V30 32360 H 3248.28 -0.617742 0.420004 0
M  V30 32361 H 3250.94 -1.10641 1.60451 0
M  V30 32362 H 3250.04 -2.63243 1.67659 0
M  V30 32363 N 3250.34 -1.09956 -1.12905 0
M  V30 32364 C 3251.27 -0.70174 -2.18193 0
M  V30 32365 C 3252.29 0.259103 -1.60725 0
M  V30 32366 O 3253.48 0.0443235 -1.78445 0
M  V30 32367 C 3250.58 -0.0141198 -3.38897 0
M  V30 32368 C 3249.75 -0.997882 -4.25865 0
M  V30 32369 C 3248.81 -0.342663 -5.25083 0
M  V30 32370 O 3247.83 -0.991956 -5.6049 0
M  V30 32371 N 3249.04 0.900957 -5.73466 0
M  V30 32372 H 3251.8 -1.60759 -2.52936 0
M  V30 32373 H 3249.36 -0.987726 -1.28279 0
M  V30 32374 H 3251.35 0.435557 -4.02349 0
M  V30 32375 H 3249.92 0.794064 -3.02346 0
M  V30 32376 H 3249.14 -1.62597 -3.59104 0
M  V30 32377 H 3250.43 -1.66396 -4.80822 0
M  V30 32378 H 3249.83 1.44793 -5.46856 0
M  V30 32379 H 3248.39 1.29386 -6.38829 0
M  V30 32380 N 3251.82 1.30231 -0.887563 0
M  V30 32381 C 3253.04 2.00734 -0.521597 0
M  V30 32382 C 3253.47 1.66075 0.883217 0
M  V30 32383 O 3252.83 0.878759 1.5858 0
M  V30 32384 C 3252.88 3.5361 -0.706583 0
M  V30 32385 O 3251.98 4.11663 0.246375 0
M  V30 32386 H 3251.32 0.631489 -0.205227 0
M  V30 32387 H 3253.85 1.66016 -1.19582 0
M  V30 32388 H 3253.86 4.03466 -0.606572 0
M  V30 32389 H 3252.54 3.78174 -1.73083 0
M  V30 32390 H 3251.11 3.72766 0.0998407 0
M  V30 32391 N 3253.3 0.648782 1.43627 0
M  V30 32392 C 3254.53 0.167738 2.05918 0
M  V30 32393 C 3254.94 -1.17004 1.48684 0
M  V30 32394 O 3254.28 -1.73241 0.611014 0
M  V30 32395 C 3254.34 -0.00259195 3.595 0
M  V30 32396 C 3254.01 1.25978 4.39293 0
M  V30 32397 C 3255 2.18751 4.7164 0
M  V30 32398 C 3252.69 1.50012 4.79376 0
M  V30 32399 C 3254.68 3.33856 5.42973 0
M  V30 32400 C 3252.37 2.65411 5.50455 0
M  V30 32401 C 3253.37 3.57158 5.82175 0
M  V30 32402 O 3253.05 4.70542 6.51802 0
M  V30 32403 H 3252.79 0.0851379 0.670617 0
M  V30 32404 H 3255.34 0.888383 1.85194 0
M  V30 32405 H 3253.57 -0.778564 3.78781 0
M  V30 32406 H 3255.26 -0.44043 4.03503 0
M  V30 32407 H 3256.03 2.01423 4.41196 0
M  V30 32408 H 3251.9 0.794825 4.54096 0
M  V30 32409 H 3255.45 4.05489 5.67648 0
M  V30 32410 H 3251.35 2.82675 5.80315 0
M  V30 32411 H 3252.11 4.6975 6.70282 0
M  V30 32412 N 3254.78 -1.52688 0.390421 0
M  V30 32413 C 3256.19 -1.59549 0.0404309 0
M  V30 32414 C 3256.39 -1.40435 -1.445 0
M  V30 32415 O 3255.45 -1.2219 -2.20965 0
M  V30 32416 C 3256.76 -2.96194 0.518613 0
M  V30 32417 C 3258.31 -3.09375 0.474968 0
M  V30 32418 C 3258.78 -4.48472 0.929357 0
M  V30 32419 N 3260.28 -4.54659 0.885415 0
M  V30 32420 C 3261.01 -5.60522 1.2084 0
M  V30 32421 N 3260.51 -6.74026 1.60192 0
M  V30 32422 N 3262.3 -5.50633 1.12958 0
M  V30 32423 H 3254.45 -1.63361 1.35746 0
M  V30 32424 H 3256.71 -0.767496 0.556466 0
M  V30 32425 H 3256.42 -3.15401 1.55612 0
M  V30 32426 H 3256.29 -3.77111 -0.0817127 0
M  V30 32427 H 3258.68 -2.89864 -0.553452 0
M  V30 32428 H 3258.76 -2.30408 1.11111 0
M  V30 32429 H 3258.41 -4.68724 1.95601 0
M  V30 32430 H 3258.34 -5.25906 0.270213 0
M  V30 32431 H 3260.83 -3.73173 0.595852 0
M  V30 32432 H 3261.14 -7.50772 1.83198 0
M  V30 32433 H 3259.48 -6.75354 1.64079 0
M  V30 32434 H 3262.68 -4.60841 0.821155 0
M  V30 32435 H 3262.85 -6.33034 1.38461 0
M  V30 32436 N 3256.25 -0.120276 -1.5714 0
M  V30 32437 C 3257.5 0.536353 -1.94853 0
M  V30 32438 C 3257.82 1.67134 -1.00455 0
M  V30 32439 O 3257.09 1.95805 -0.0610874 0
M  V30 32440 H 3255.67 0.201126 -0.719415 0
M  V30 32441 H 3258.34 -0.189516 -1.93976 0
M  V30 32442 H 3257.43 0.930092 -2.97919 0
M  V30 32443 N 3257.73 1.56851 0.153498 0
M  V30 32444 C 3258.96 1.87144 0.882302 0
M  V30 32445 C 3259.38 0.707733 1.75033 0
M  V30 32446 O 3258.73 -0.322698 1.79624 0
M  V30 32447 C 3258.78 3.16628 1.74438 0
M  V30 32448 O 3258.5 4.28516 0.911343 0
M  V30 32449 C 3260.01 3.60392 2.58133 0
M  V30 32450 H 3257.23 0.620473 0.255449 0
M  V30 32451 H 3259.77 2.03962 0.148239 0
M  V30 32452 H 3257.92 3.01584 2.43158 0
M  V30 32453 H 3258.34 5.02516 1.50259 0
M  V30 32454 H 3259.81 4.53848 3.14207 0
M  V30 32455 H 3260.29 2.85366 3.3386 0
M  V30 32456 H 3260.9 3.78109 1.94715 0
M  V30 32457 N 3259.21 -0.42264 1.51827 0
M  V30 32458 C 3260.44 -1.19115 1.68805 0
M  V30 32459 C 3260.85 -1.8511 0.391261 0
M  V30 32460 O 3260.19 -1.72137 -0.64145 0
M  V30 32461 C 3260.25 -2.30631 2.75771 0
M  V30 32462 C 3259.92 -1.84883 4.17932 0
M  V30 32463 C 3260.91 -1.34407 5.02226 0
M  V30 32464 C 3258.6 -1.92127 4.64104 0
M  V30 32465 C 3260.59 -0.917814 6.30757 0
M  V30 32466 C 3258.28 -1.49113 5.92629 0
M  V30 32467 C 3259.28 -0.990233 6.75784 0
M  V30 32468 O 3258.97 -0.566245 8.01903 0
M  V30 32469 H 3258.7 -0.364504 0.569309 0
M  V30 32470 H 3261.25 -0.505173 1.99091 0
M  V30 32471 H 3259.48 -3.02551 2.40832 0
M  V30 32472 H 3261.17 -2.92443 2.81481 0
M  V30 32473 H 3261.94 -1.28194 4.67751 0
M  V30 32474 H 3257.82 -2.30059 3.99492 0
M  V30 32475 H 3261.36 -0.526158 6.95613 0
M  V30 32476 H 3257.26 -1.55001 6.26614 0
M  V30 32477 H 3258.03 -0.690774 8.1558 0
M  V30 32478 N 3260.69 -1.42222 -0.679027 0
M  V30 32479 C 3261.91 -1.4606 -1.47245 0
M  V30 32480 C 3262.34 -0.0721318 -1.87962 0
M  V30 32481 O 3261.7 0.928461 -1.55722 0
M  V30 32482 C 3261.74 -2.38953 -2.70063 0
M  V30 32483 O 3260.85 -1.85798 -3.68175 0
M  V30 32484 H 3260.19 -0.495044 -0.442524 0
M  V30 32485 H 3262.72 -1.86865 -0.83323 0
M  V30 32486 H 3262.73 -2.5539 -3.18182 0
M  V30 32487 H 3261.4 -3.39831 -2.39767 0
M  V30 32488 H 3259.98 -1.78895 -3.27187 0
M  V30 32489 N 3262.17 0.91492 -1.28324 0
M  V30 32490 C 3263.39 1.69773 -1.18257 0
M  V30 32491 C 3263.81 1.87016 0.258945 0
M  V30 32492 O 3263.17 1.39632 1.17512 0
M  V30 32493 C 3263.22 3.09051 -1.87536 0
M  V30 32494 O 3262.94 2.92607 -3.26057 0
M  V30 32495 C 3264.44 4.03421 -1.83756 0
M  V30 32496 H 3261.66 0.530737 -0.41056 0
M  V30 32497 H 3264.2 1.1452 -1.69427 0
M  V30 32498 H 3262.36 3.61126 -1.40239 0
M  V30 32499 H 3262.77 3.80749 -3.60736 0
M  V30 32500 H 3264.25 4.98617 -2.36822 0
M  V30 32501 H 3264.72 4.31672 -0.809677 0
M  V30 32502 H 3265.33 3.57275 -2.30726 0
M  V30 32503 N 3263.64 1.10553 1.1232 0
M  V30 32504 C 3264.87 0.870903 1.87678 0
M  V30 32505 C 3265.29 -0.578702 1.79712 0
M  V30 32506 O 3264.64 -1.39905 1.17188 0
M  V30 32507 C 3264.7 1.31219 3.36844 0
M  V30 32508 O 3264.42 2.70495 3.44621 0
M  V30 32509 C 3265.92 1.11164 4.29136 0
M  V30 32510 H 3263.14 0.312511 0.593783 0
M  V30 32511 H 3265.68 1.47051 1.42114 0
M  V30 32512 H 3263.84 0.756236 3.79947 0
M  V30 32513 H 3264.25 2.89397 4.37436 0
M  V30 32514 H 3265.72 1.46954 5.3208 0
M  V30 32515 H 3266.2 0.0503735 4.39171 0
M  V30 32516 H 3266.81 1.65412 3.91815 0
M  V30 32517 N 3265.12 -1.29758 0.894457 0
M  V30 32518 C 3266.37 -1.96061 0.51847 0
M  V30 32519 C 3266.7 -1.70382 -0.931852 0
M  V30 32520 O 3265.98 -1.01384 -1.65986 0
M  V30 32521 C 3266.26 -3.50981 0.805252 0
M  V30 32522 C 3266.11 -3.86138 2.30689 0
M  V30 32523 C 3267.43 -4.39156 0.288173 0
M  V30 32524 H 3264.55 -0.71213 0.189843 0
M  V30 32525 H 3267.19 -1.53466 1.12018 0
M  V30 32526 H 3265.34 -3.87392 0.293139 0
M  V30 32527 H 3267.01 -3.597 2.88814 0
M  V30 32528 H 3265.26 -3.33868 2.76974 0
M  V30 32529 H 3265.93 -4.94246 2.45814 0
M  V30 32530 H 3268.4 -4.09707 0.726619 0
M  V30 32531 H 3267.28 -5.4645 0.518081 0
M  V30 32532 H 3267.54 -4.34599 -0.810942 0
M  V30 32533 N 3266.6 -0.65639 -1.4328 0
M  V30 32534 C 3267.83 -0.178915 -2.06125 0
M  V30 32535 C 3268.24 1.1567 -1.49218 0
M  V30 32536 O 3267.6 1.71474 -0.624723 0
M  V30 32537 C 3267.65 -0.085242 -3.61399 0
M  V30 32538 O 3267.37 -1.36806 -4.16192 0
M  V30 32539 C 3268.87 0.417932 -4.41326 0
M  V30 32540 H 3266.09 -0.091362 -0.664751 0
M  V30 32541 H 3268.64 -0.897933 -1.83732 0
M  V30 32542 H 3266.79 0.584353 -3.82967 0
M  V30 32543 H 3267.21 -1.22933 -5.0989 0
M  V30 32544 H 3268.68 0.432422 -5.50304 0
M  V30 32545 H 3269.16 1.44983 -4.1458 0
M  V30 32546 H 3269.76 -0.219282 -4.24734 0
M  V30 32547 N 3268.08 1.52478 -0.398513 0
M  V30 32548 C 3269.33 2.01294 0.180359 0
M  V30 32549 C 3269.65 1.28644 1.46546 0
M  V30 32550 O 3268.92 0.409206 1.91578 0
M  V30 32551 H 3267.5 0.743747 0.0696397 0
M  V30 32552 H 3270.16 1.8749 -0.532318 0
M  V30 32553 H 3269.26 3.09728 0.384035 0
M  V30 32554 N 3269.56 0.128608 1.57074 0
M  V30 32555 C 3270.97 -0.227933 1.57964 0
M  V30 32556 C 3271.17 -1.66021 1.14189 0
M  V30 32557 O 3270.23 -2.3834 0.833697 0
M  V30 32558 C 3271.54 0.0141176 3.00697 0
M  V30 32559 C 3273.09 -0.0510326 3.12958 0
M  V30 32560 C 3273.57 0.163448 4.57708 0
M  V30 32561 N 3275.06 0.109745 4.6307 0
M  V30 32562 C 3275.79 0.250467 5.72853 0
M  V30 32563 N 3275.29 0.447894 6.91351 0
M  V30 32564 N 3277.08 0.189363 5.61781 0
M  V30 32565 H 3269.23 1.06402 1.83827 0
M  V30 32566 H 3271.49 0.419754 0.850006 0
M  V30 32567 H 3271.2 1.00467 3.37045 0
M  V30 32568 H 3271.07 -0.713506 3.7039 0
M  V30 32569 H 3273.46 -1.03211 2.76462 0
M  V30 32570 H 3273.54 0.708626 2.45789 0
M  V30 32571 H 3273.19 1.14155 4.94905 0
M  V30 32572 H 3273.12 -0.616313 5.22981 0
M  V30 32573 H 3275.61 -0.0389422 3.7788 0
M  V30 32574 H 3275.92 0.545875 7.7087 0
M  V30 32575 H 3274.27 0.483988 6.93313 0
M  V30 32576 H 3277.46 0.0360196 4.68086 0
M  V30 32577 H 3277.63 0.302473 6.47294 0
M  V30 32578 N 3271.04 -1.5693 -0.145178 0
M  V30 32579 C 3272.26 -1.8761 -0.872365 0
M  V30 32580 C 3272.68 -0.717006 -1.74655 0
M  V30 32581 O 3272.04 0.313168 -1.79793 0
M  V30 32582 C 3272.09 -3.17549 -1.72756 0
M  V30 32583 O 3271.81 -4.28993 -0.888605 0
M  V30 32584 C 3273.31 -3.61756 -2.56218 0
M  V30 32585 H 3270.53 -0.621819 -0.252155 0
M  V30 32586 H 3273.07 -2.04038 -0.13742 0
M  V30 32587 H 3271.23 -3.02869 -2.41555 0
M  V30 32588 H 3271.64 -5.03306 -1.47592 0
M  V30 32589 H 3273.12 -4.55508 -3.11796 0
M  V30 32590 H 3273.59 -2.87133 -3.32342 0
M  V30 32591 H 3274.2 -3.79136 -1.92707 0
M  V30 32592 N 3272.51 0.414582 -1.52049 0
M  V30 32593 C 3273.75 1.17126 -1.67514 0
M  V30 32594 C 3274.12 1.87917 -0.393863 0
M  V30 32595 O 3275.32 2.65426 -0.424542 0
M  V30 32596 C 3273.59 2.14352 -2.85986 0
M  V30 32597 S 3275.15 2.982 -3.21904 0
M  V30 32598 H 3271.97 0.396867 -0.58993 0
M  V30 32599 H 3274.57 0.459375 -1.90026 0
M  V30 32600 H 3273.27 1.61023 -3.77491 0
M  V30 32601 H 3272.8 2.90088 -2.6573 0
M  V30 32602 H 3274.82 4.16244 -2.70102 0
M  V30 32603 N 3273.99 1.4258 0.671475 0
M  V30 32604 C 3274.92 1.42269 1.797 0
M  V30 32605 C 3275.94 0.321296 1.59598 0
M  V30 32606 O 3277.13 0.584594 1.68656 0
M  V30 32607 C 3274.23 1.20229 3.16857 0
M  V30 32608 C 3273.4 2.42865 3.63779 0
M  V30 32609 C 3272.46 2.16321 4.79679 0
M  V30 32610 O 3271.48 2.89545 4.90053 0
M  V30 32611 N 3272.69 1.16841 5.6862 0
M  V30 32612 H 3275.45 2.39285 1.80451 0
M  V30 32613 H 3273.01 1.37502 0.854684 0
M  V30 32614 H 3275 1.00383 3.92053 0
M  V30 32615 H 3273.57 0.317243 3.10986 0
M  V30 32616 H 3272.79 2.78257 2.79226 0
M  V30 32617 H 3274.08 3.24521 3.91872 0
M  V30 32618 H 3273.48 0.562845 5.62893 0
M  V30 32619 H 3272.04 1.02981 6.43613 0
M  V30 32620 N 3275.47 -0.908102 1.28807 0
M  V30 32621 C 3276.43 -1.99277 1.13231 0
M  V30 32622 C 3277.43 -1.60646 0.0702739 0
M  V30 32623 O 3278.62 -1.713 0.316524 0
M  V30 32624 C 3275.75 -3.32999 0.729688 0
M  V30 32625 H 3276.95 -2.14524 2.0957 0
M  V30 32626 H 3274.5 -1.09151 1.11874 0
M  V30 32627 H 3275.24 -3.23453 -0.234211 0
M  V30 32628 H 3275.02 -3.624 1.49694 0
M  V30 32629 H 3276.51 -4.12612 0.643522 0
M  V30 32630 N 3276.95 -1.11147 -1.11732 0
M  V30 32631 C 3278.19 -0.869622 -1.83873 0
M  V30 32632 C 3278.55 0.598331 -1.8286 0
M  V30 32633 O 3277.84 1.43594 -1.26851 0
M  V30 32634 C 3278.04 -1.36135 -3.30457 0
M  V30 32635 C 3277.86 -2.87557 -3.45747 0
M  V30 32636 C 3276.63 -3.55645 -3.5895 0
M  V30 32637 C 3278.83 -3.85627 -3.40289 0
M  V30 32638 N 3276.81 -4.95315 -3.62679 0
M  V30 32639 C 3278.19 -5.1135 -3.50602 0
M  V30 32640 C 3280.24 -3.78229 -3.23801 0
M  V30 32641 C 3278.94 -6.30546 -3.46127 0
M  V30 32642 C 3280.97 -4.96933 -3.20642 0
M  V30 32643 C 3280.33 -6.21507 -3.31523 0
M  V30 32644 H 3276.43 -0.371318 -0.68822 0
M  V30 32645 H 3279.01 -1.41524 -1.33712 0
M  V30 32646 H 3277.19 -0.842952 -3.79142 0
M  V30 32647 H 3278.92 -1.06297 -3.90491 0
M  V30 32648 H 3275.67 -3.06105 -3.61382 0
M  V30 32649 H 3276.1 -5.68125 -3.68189 0
M  V30 32650 H 3280.74 -2.82825 -3.14277 0
M  V30 32651 H 3278.46 -7.26231 -3.5442 0
M  V30 32652 H 3282.04 -4.92926 -3.09056 0
M  V30 32653 H 3280.92 -7.11819 -3.29064 0
M  V30 32654 N 3278.43 1.29282 -0.901326 0
M  V30 32655 C 3279.65 2.00169 -0.542858 0
M  V30 32656 C 3280.08 1.67002 0.865553 0
M  V30 32657 O 3279.43 0.895529 1.57639 0
M  V30 32658 C 3279.48 3.5284 -0.744049 0
M  V30 32659 O 3278.59 4.11902 0.202699 0
M  V30 32660 H 3277.93 0.629276 -0.211914 0
M  V30 32661 H 3280.46 1.64738 -1.21336 0
M  V30 32662 H 3280.47 4.028 -0.64933 0
M  V30 32663 H 3279.14 3.76316 -1.77084 0
M  V30 32664 H 3277.72 3.72851 0.0602982 0
M  V30 32665 N 3279.9 0.663979 1.4293 0
M  V30 32666 C 3281.13 0.188237 2.06544 0
M  V30 32667 C 3281.55 -1.14152 1.49502 0
M  V30 32668 O 3280.91 -1.70759 0.609194 0
M  V30 32669 C 3280.96 0.122168 3.60393 0
M  V30 32670 O 3280.06 -0.912509 4.02178 0
M  V30 32671 H 3279.4 0.0998083 0.656456 0
M  V30 32672 H 3281.93 0.909941 1.83252 0
M  V30 32673 H 3281.94 -0.057585 4.07959 0
M  V30 32674 H 3280.62 1.09283 4.01285 0
M  V30 32675 H 3279.2 -0.704674 3.66181 0
M  V30 32676 N 3281.38 -1.52265 0.406593 0
M  V30 32677 C 3282.31 -2.23419 -0.46467 0
M  V30 32678 C 3283.29 -1.24147 -1.05006 0
M  V30 32679 O 3284.48 -1.5319 -1.09841 0
M  V30 32680 C 3281.6 -2.96084 -1.64475 0
M  V30 32681 C 3280.65 -4.09765 -1.18299 0
M  V30 32682 S 3281.48 -5.35289 -0.150232 0
M  V30 32683 C 3282.64 -6.11482 -1.3357 0
M  V30 32684 H 3282.87 -2.96973 0.139507 0
M  V30 32685 H 3280.4 -1.53216 0.190877 0
M  V30 32686 H 3282.36 -3.38555 -2.32144 0
M  V30 32687 H 3281.02 -2.22178 -2.22027 0
M  V30 32688 H 3280.22 -4.59773 -2.06458 0
M  V30 32689 H 3279.82 -3.69397 -0.584985 0
M  V30 32690 H 3282.11 -6.38703 -2.25975 0
M  V30 32691 H 3283.05 -7.02658 -0.876204 0
M  V30 32692 H 3283.46 -5.42507 -1.56034 0
M  V30 32693 N 3282.86 -0.136936 -1.57004 0
M  V30 32694 C 3284.09 0.523901 -2.00157 0
M  V30 32695 C 3284.5 1.59074 -1.01691 0
M  V30 32696 O 3283.86 1.82496 -0.0123999 0
M  V30 32697 C 3283.91 1.13373 -3.43262 0
M  V30 32698 O 3283.63 0.109521 -4.37963 0
M  V30 32699 C 3285.13 1.87616 -4.01641 0
M  V30 32700 H 3282.35 0.137252 -0.656813 0
M  V30 32701 H 3284.9 -0.228558 -2.03219 0
M  V30 32702 H 3283.05 1.83687 -3.41083 0
M  V30 32703 H 3283.47 0.554939 -5.21556 0
M  V30 32704 H 3284.94 2.25589 -5.03799 0
M  V30 32705 H 3285.42 2.75825 -3.41785 0
M  V30 32706 H 3286.02 1.22024 -4.07419 0
M  V30 32707 N 3284.34 1.57005 0.136853 0
M  V30 32708 C 3285.75 1.73247 0.69588 0
M  V30 32709 C 3286.1 0.752912 1.81179 0
M  V30 32710 O 3285.23 -0.0782097 2.16259 0
M  V30 32711 C 3285.82 3.14133 1.26908 0
M  V30 32712 C 3284.38 3.31942 1.77458 0
M  V30 32713 C 3283.53 2.69157 0.66708 0
M  V30 32714 H 3286.48 1.58451 -0.088912 0
M  V30 32715 H 3286.5 3.14695 2.13886 0
M  V30 32716 H 3286.01 3.85404 0.456686 0
M  V30 32717 H 3284.11 2.65686 2.61232 0
M  V30 32718 H 3284.22 4.39974 1.89631 0
M  V30 32719 H 3282.59 2.29901 1.09625 0
M  V30 32720 H 3283.37 3.43038 -0.13404 0
M  V30 32721 N 3285.82 -0.406513 1.52267 0
M  V30 32722 C 3286.77 -1.49462 1.72178 0
M  V30 32723 C 3287.75 -1.50248 0.575695 0
M  V30 32724 O 3288.94 -1.56181 0.832863 0
M  V30 32725 C 3286.07 -2.87363 1.87823 0
M  V30 32726 C 3285.16 -2.91214 3.0831 0
M  V30 32727 N 3285.55 -2.64759 4.30972 0
M  V30 32728 C 3283.85 -3.22382 3.08197 0
M  V30 32729 C 3284.55 -2.75245 5.1246 0
M  V30 32730 N 3283.52 -3.08235 4.47764 0
M  V30 32731 H 3287.33 -1.27807 2.64656 0
M  V30 32732 H 3284.84 -0.614254 1.50335 0
M  V30 32733 H 3286.84 -3.65683 2.00204 0
M  V30 32734 H 3285.5 -3.10014 0.965468 0
M  V30 32735 H 3286.51 -2.39105 4.59401 0
M  V30 32736 H 3283.18 -3.50611 2.26668 0
M  V30 32737 H 3284.57 -2.58484 6.2019 0
M  V30 32738 N 3287.29 -1.42934 -0.663904 0
M  V30 32739 C 3288.52 -1.47614 -1.45688 0
M  V30 32740 C 3288.94 -0.0920636 -1.87875 0
M  V30 32741 O 3288.3 0.911892 -1.56698 0
M  V30 32742 C 3288.35 -2.41804 -2.67513 0
M  V30 32743 O 3287.45 -1.89692 -3.66184 0
M  V30 32744 H 3286.8 -0.49971 -0.437248 0
M  V30 32745 H 3289.33 -1.87738 -0.813364 0
M  V30 32746 H 3289.34 -2.5875 -3.15456 0
M  V30 32747 H 3288.01 -3.42354 -2.36149 0
M  V30 32748 H 3286.59 -1.82355 -3.25271 0
M  V30 32749 N 3288.77 0.901258 -1.29287 0
M  V30 32750 C 3289.72 1.99206 -1.1091 0
M  V30 32751 C 3290.71 1.60874 -0.0289923 0
M  V30 32752 O 3291.9 1.75218 -0.250531 0
M  V30 32753 C 3289.03 3.3418 -0.786055 0
M  V30 32754 C 3288.11 3.78876 -1.90563 0
M  V30 32755 N 3288.5 3.95822 -3.14895 0
M  V30 32756 C 3286.8 4.08138 -1.79831 0
M  V30 32757 C 3287.5 4.3346 -3.87927 0
M  V30 32758 N 3286.48 4.42418 -3.15859 0
M  V30 32759 H 3290.28 2.10375 -2.0523 0
M  V30 32760 H 3287.8 1.08997 -1.20389 0
M  V30 32761 H 3289.79 4.12029 -0.635453 0
M  V30 32762 H 3288.45 3.24357 0.149245 0
M  V30 32763 H 3289.46 3.81397 -3.50367 0
M  V30 32764 H 3286.14 4.06881 -0.935619 0
M  V30 32765 H 3287.53 4.5443 -4.94917 0
M  V30 32766 N 3290.25 1.11738 1.11141 0
M  V30 32767 C 3291.48 0.89104 1.87284 0
M  V30 32768 C 3291.9 -0.553939 1.79759 0
M  V30 32769 O 3291.26 -1.39147 1.16223 0
M  V30 32770 C 3291.31 1.3612 3.33922 0
M  V30 32771 O 3290.41 0.534923 4.08916 0
M  V30 32772 H 3289.75 0.320711 0.581412 0
M  V30 32773 H 3292.28 1.48763 1.40466 0
M  V30 32774 H 3292.29 1.35707 3.84769 0
M  V30 32775 H 3290.97 2.4134 3.38715 0
M  V30 32776 H 3289.54 0.605419 3.67953 0
M  V30 32777 N 3291.73 -1.28802 0.90817 0
M  V30 32778 C 3293.14 -1.47668 0.6055 0
M  V30 32779 C 3293.34 -1.82661 -0.850727 0
M  V30 32780 O 3292.4 -1.92819 -1.63025 0
M  V30 32781 C 3293.71 -2.58355 1.5386 0
M  V30 32782 C 3295.26 -2.72227 1.54472 0
M  V30 32783 C 3295.74 -3.86052 2.46431 0
M  V30 32784 N 3297.23 -3.93397 2.44526 0
M  V30 32785 C 3297.96 -4.80839 3.1238 0
M  V30 32786 N 3297.46 -5.72912 3.89543 0
M  V30 32787 N 3299.25 -4.74402 3.01495 0
M  V30 32788 H 3291.4 -1.04367 1.8499 0
M  V30 32789 H 3293.67 -0.51926 0.793141 0
M  V30 32790 H 3293.37 -2.39388 2.57655 0
M  V30 32791 H 3293.25 -3.55338 1.26549 0
M  V30 32792 H 3295.63 -2.90586 0.514178 0
M  V30 32793 H 3295.71 -1.75792 1.85824 0
M  V30 32794 H 3295.36 -3.68448 3.49584 0
M  V30 32795 H 3295.29 -4.81872 2.12384 0
M  V30 32796 H 3297.78 -3.27548 1.8847 0
M  V30 32797 H 3298.09 -6.36449 4.38352 0
M  V30 32798 H 3296.44 -5.7277 3.93649 0
M  V30 32799 H 3299.63 -4.01462 2.4072 0
M  V30 32800 H 3299.8 -5.42336 3.54649 0
M  V30 32801 N 3293.21 -0.67155 -1.42576 0
M  V30 32802 C 3294.43 -0.200767 -2.05924 0
M  V30 32803 C 3294.85 1.1408 -1.50436 0
M  V30 32804 O 3294.21 1.70802 -0.642875 0
M  V30 32805 C 3294.26 -0.123568 -3.61289 0
M  V30 32806 O 3293.98 -1.41212 -4.14718 0
M  V30 32807 C 3295.48 0.3711 -4.41744 0
M  V30 32808 H 3292.7 -0.0984075 -0.663745 0
M  V30 32809 H 3295.24 -0.91737 -1.82769 0
M  V30 32810 H 3293.4 0.543702 -3.83566 0
M  V30 32811 H 3293.81 -1.28334 -5.08557 0
M  V30 32812 H 3295.29 0.374031 -5.50731 0
M  V30 32813 H 3295.76 1.40578 -4.16094 0
M  V30 32814 H 3296.37 -0.264319 -4.24478 0
M  V30 32815 N 3294.68 1.52047 -0.414663 0
M  V30 32816 C 3296.1 1.86623 0.0536779 0
M  V30 32817 C 3296.45 1.33312 1.43952 0
M  V30 32818 O 3295.57 0.674642 2.05615 0
M  V30 32819 C 3296.17 3.3864 0.104181 0
M  V30 32820 C 3294.73 3.72834 0.516871 0
M  V30 32821 C 3293.87 2.75617 -0.305091 0
M  V30 32822 H 3296.82 1.45595 -0.631494 0
M  V30 32823 H 3296.84 3.69252 0.91833 0
M  V30 32824 H 3296.36 3.77411 -0.904589 0
M  V30 32825 H 3294.46 3.39644 1.53208 0
M  V30 32826 H 3294.57 4.78408 0.257416 0
M  V30 32827 H 3292.93 2.53629 0.233372 0
M  V30 32828 H 3293.72 3.17227 -1.31231 0
M  V30 32829 N 3296.16 0.145261 1.56929 0
M  V30 32830 C 3297.07 -0.80818 2.2024 0
M  V30 32831 C 3298.09 -1.27302 1.18618 0
M  V30 32832 O 3299.26 -1.33057 1.51188 0
M  V30 32833 C 3296.33 -2.0305 2.81019 0
M  V30 32834 C 3295.39 -1.61505 3.97762 0
M  V30 32835 C 3294.62 -2.7791 4.55633 0
M  V30 32836 O 3294.85 -3.94075 4.12385 0
M  V30 32837 O 3293.78 -2.53482 5.45922 0
M  V30 32838 H 3297.61 -0.299261 3.02222 0
M  V30 32839 H 3295.19 -0.0816789 1.49177 0
M  V30 32840 H 3297.07 -2.74586 3.19656 0
M  V30 32841 H 3295.75 -2.52897 2.02051 0
M  V30 32842 H 3294.66 -0.869969 3.63844 0
M  V30 32843 H 3295.99 -1.16375 4.78244 0
M  V30 32844 N 3297.64 -1.57075 -0.128525 0
M  V30 32845 C 3298.87 -1.88251 -0.851181 0
M  V30 32846 C 3299.28 -0.733562 -1.744 0
M  V30 32847 O 3298.62 0.305076 -1.81149 0
M  V30 32848 C 3298.68 -3.14339 -1.74445 0
M  V30 32849 C 3298.35 -4.45313 -1.02691 0
M  V30 32850 C 3299.35 -5.18566 -0.372149 0
M  V30 32851 C 3297.03 -4.92022 -1.01092 0
M  V30 32852 C 3299.02 -6.36744 0.289011 0
M  V30 32853 C 3296.71 -6.1012 -0.345955 0
M  V30 32854 C 3297.71 -6.82328 0.302864 0
M  V30 32855 O 3297.4 -7.98181 0.957241 0
M  V30 32856 H 3297.13 -0.627867 -0.250518 0
M  V30 32857 H 3299.68 -2.05047 -0.120382 0
M  V30 32858 H 3297.91 -2.93601 -2.51666 0
M  V30 32859 H 3299.6 -3.31612 -2.34069 0
M  V30 32860 H 3300.37 -4.83539 -0.376186 0
M  V30 32861 H 3296.25 -4.35729 -1.50536 0
M  V30 32862 H 3299.79 -6.93043 0.796022 0
M  V30 32863 H 3295.69 -6.44606 -0.339648 0
M  V30 32864 H 3296.46 -8.13961 0.860759 0
M  V30 32865 N 3299.12 0.398432 -1.5248 0
M  V30 32866 C 3300.35 1.16414 -1.70679 0
M  V30 32867 C 3300.76 1.84464 -0.420661 0
M  V30 32868 O 3300.1 1.73136 0.613983 0
M  V30 32869 C 3300.16 2.26215 -2.79405 0
M  V30 32870 C 3299.83 1.78211 -4.20821 0
M  V30 32871 C 3300.82 1.26401 -5.043 0
M  V30 32872 C 3298.51 1.8472 -4.67102 0
M  V30 32873 C 3300.5 0.81735 -6.32138 0
M  V30 32874 C 3298.19 1.39666 -5.94926 0
M  V30 32875 C 3299.19 0.882597 -6.77273 0
M  V30 32876 O 3298.88 0.438598 -8.02703 0
M  V30 32877 H 3298.61 0.355401 -0.575036 0
M  V30 32878 H 3301.16 0.473436 -1.99869 0
M  V30 32879 H 3299.39 2.98681 -2.45615 0
M  V30 32880 H 3301.08 2.87928 -2.86098 0
M  V30 32881 H 3301.85 1.20736 -4.69732 0
M  V30 32882 H 3297.73 2.23675 -4.03101 0
M  V30 32883 H 3301.27 0.415425 -6.96362 0
M  V30 32884 H 3297.17 1.45013 -6.29 0
M  V30 32885 H 3297.93 0.560935 -8.16576 0
M  V30 32886 N 3300.6 1.43284 0.656314 0
M  V30 32887 C 3302.01 1.39803 1.23742 0
M  V30 32888 C 3302.36 0.100541 1.95942 0
M  V30 32889 O 3301.48 -0.800125 2.01065 0
M  V30 32890 C 3302.08 2.53248 2.25058 0
M  V30 32891 C 3300.64 2.53041 2.78652 0
M  V30 32892 C 3299.79 2.31107 1.53247 0
M  V30 32893 H 3302.74 1.5223 0.448526 0
M  V30 32894 H 3302.76 2.24559 3.0717 0
M  V30 32895 H 3302.27 3.47667 1.7248 0
M  V30 32896 H 3300.37 1.62493 3.35301 0
M  V30 32897 H 3300.48 3.50706 3.26408 0
M  V30 32898 H 3298.85 1.79716 1.80484 0
M  V30 32899 H 3299.63 3.27607 1.02609 0
M  V30 32900 N 3302.08 -0.894389 1.29763 0
M  V30 32901 C 3303.02 -2.02048 1.15236 0
M  V30 32902 C 3304.02 -1.69269 0.0665962 0
M  V30 32903 O 3305.22 -1.78566 0.226777 0
M  V30 32904 H 3301.6 -0.662335 0.356114 0
M  V30 32905 H 3303.57 -2.11438 2.10562 0
M  V30 32906 C 3302.32 -3.3712 0.851202 0
M  V30 32907 H 3301.64 -3.62849 1.67872 0
M  V30 32908 H 3303.08 -4.16583 0.789613 0
M  V30 32909 C 3301.54 -3.33939 -0.445678 0
M  V30 32910 O 3302.07 -3.73832 -1.47011 0
M  V30 32911 N 3300.28 -2.87041 -0.453443 0
M  V30 32912 H 3299.82 -2.54772 0.380681 0
M  V30 32913 H 3299.78 -2.85295 -1.32114 0
M  V30 32914 N 3303.55 -1.12326 -1.10547 0
M  V30 32915 C 3304.52 -0.793193 -2.15037 0
M  V30 32916 C 3305.52 0.191891 -1.59651 0
M  V30 32917 O 3306.71 -0.0337569 -1.74167 0
M  V30 32918 C 3303.84 -0.17848 -3.40432 0
M  V30 32919 H 3305.03 -1.71896 -2.45747 0
M  V30 32920 H 3302.58 -0.926355 -1.2589 0
M  V30 32921 H 3303.32 0.757067 -3.15339 0
M  V30 32922 H 3303.1 -0.887712 -3.81919 0
M  V30 32923 H 3304.59 0.035999 -4.17584 0
M  V30 32924 N 3305.03 1.28319 -0.914988 0
M  V30 32925 C 3306.28 1.94537 -0.547699 0
M  V30 32926 C 3306.6 1.72369 0.911804 0
M  V30 32927 O 3305.87 1.06411 1.6448 0
M  V30 32928 H 3304.45 0.71985 -0.199562 0
M  V30 32929 H 3307.11 1.56278 -1.16462 0
M  V30 32930 H 3306.21 3.03122 -0.743191 0
M  V30 32931 N 3306.51 0.679102 1.42218 0
M  V30 32932 C 3307.44 0.0174939 2.33493 0
M  V30 32933 C 3308.42 -0.784744 1.50916 0
M  V30 32934 O 3309.61 -0.741034 1.79506 0
M  V30 32935 C 3306.74 -0.931404 3.34578 0
M  V30 32936 C 3305.69 -0.237452 4.27341 0
M  V30 32937 C 3305.02 -1.29958 5.18666 0
M  V30 32938 C 3306.32 0.886172 5.14727 0
M  V30 32939 H 3308.01 0.779798 2.89067 0
M  V30 32940 H 3305.56 0.376443 1.38992 0
M  V30 32941 H 3307.51 -1.40336 3.97346 0
M  V30 32942 H 3306.23 -1.72518 2.77318 0
M  V30 32943 H 3304.89 0.21431 3.65973 0
M  V30 32944 H 3304.54 -2.08546 4.57731 0
M  V30 32945 H 3304.24 -0.840361 5.8156 0
M  V30 32946 H 3305.76 -1.77238 5.84311 0
M  V30 32947 H 3307.18 0.495241 5.71157 0
M  V30 32948 H 3305.57 1.27146 5.86476 0
M  V30 32949 H 3306.64 1.73308 4.52871 0
M  V30 32950 N 3307.99 -1.51825 0.42272 0
M  V30 32951 C 3309.24 -2.01141 -0.15003 0
M  V30 32952 C 3309.55 -1.31217 -1.45057 0
M  V30 32953 O 3310.76 -1.71422 -2.10539 0
M  V30 32954 C 3309.21 -3.58493 -0.317922 0
M  V30 32955 C 3308.82 -4.37344 0.971321 0
M  V30 32956 C 3310.56 -4.16 -0.84523 0
M  V30 32957 C 3308.47 -5.86368 0.769872 0
M  V30 32958 H 3307.4 -0.751621 -0.0598435 0
M  V30 32959 H 3310.05 -1.75056 0.550248 0
M  V30 32960 H 3308.43 -3.80964 -1.08086 0
M  V30 32961 H 3309.61 -4.26626 1.74145 0
M  V30 32962 H 3307.92 -3.91219 1.42606 0
M  V30 32963 H 3310.52 -5.25032 -1.0122 0
M  V30 32964 H 3310.86 -3.74229 -1.82369 0
M  V30 32965 H 3311.4 -3.9755 -0.140997 0
M  V30 32966 H 3308.13 -6.32524 1.72028 0
M  V30 32967 H 3307.65 -5.99787 0.0392771 0
M  V30 32968 H 3309.33 -6.45653 0.417338 0
M  V30 32969 N 3309.47 -0.153581 -1.5685 0
M  V30 32970 C 3310.4 0.821791 -2.12889 0
M  V30 32971 C 3311.38 1.23796 -1.0542 0
M  V30 32972 O 3312.56 1.33289 -1.3329 0
M  V30 32973 C 3309.69 2.10433 -2.65397 0
M  V30 32974 C 3308.73 1.83357 -3.85074 0
M  V30 32975 S 3309.57 1.01868 -5.25722 0
M  V30 32976 C 3310.72 2.31226 -5.81623 0
M  V30 32977 H 3310.96 0.345262 -2.95288 0
M  V30 32978 H 3308.49 0.0608106 -1.5428 0
M  V30 32979 H 3310.45 2.84107 -2.96299 0
M  V30 32980 H 3309.11 2.552 -1.83116 0
M  V30 32981 H 3308.3 2.78475 -4.20081 0
M  V30 32982 H 3307.9 1.17788 -3.54968 0
M  V30 32983 H 3310.19 3.26828 -5.93456 0
M  V30 32984 H 3311.14 2.00715 -6.79058 0
M  V30 32985 H 3311.55 2.42176 -5.09913 0
M  V30 32986 N 3310.94 1.57141 0.120193 0
M  V30 32987 C 3311.89 2.01235 1.1665 0
M  V30 32988 C 3312.89 0.909079 1.42941 0
M  V30 32989 O 3314.09 1.09428 1.42918 0
M  V30 32990 H 3310.47 0.640965 0.393278 0
M  V30 32991 H 3312.44 2.88345 0.768106 0
M  V30 32992 C 3311.19 2.43156 2.48536 0
M  V30 32993 H 3310.51 3.27618 2.29143 0
M  V30 32994 H 3311.95 2.77808 3.2031 0
M  V30 32995 C 3310.41 1.29473 3.11028 0
M  V30 32996 O 3310.94 0.610052 3.97041 0
M  V30 32997 N 3309.14 1.05209 2.70886 0
M  V30 32998 H 3308.69 1.61066 2.01036 0
M  V30 32999 H 3308.65 0.293402 3.13028 0
M  V30 33000 N 3312.42 -0.39034 1.5269 0
M  V30 33001 C 3313.65 -1.15507 1.71294 0
M  V30 33002 C 3314.06 -1.84239 0.430438 0
M  V30 33003 O 3313.4 -1.73459 -0.604793 0
M  V30 33004 C 3313.47 -2.2473 2.80601 0
M  V30 33005 C 3313.13 -1.75977 4.2176 0
M  V30 33006 C 3314.13 -1.23724 5.04964 0
M  V30 33007 C 3311.81 -1.8224 4.68075 0
M  V30 33008 C 3313.81 -0.783814 6.32562 0
M  V30 33009 C 3311.49 -1.36509 5.95658 0
M  V30 33010 C 3312.49 -0.846667 6.77732 0
M  V30 33011 O 3312.18 -0.396023 8.02924 0
M  V30 33012 H 3311.91 -0.352346 0.576913 0
M  V30 33013 H 3314.46 -0.46283 2.00118 0
M  V30 33014 H 3312.69 -2.97374 2.47195 0
M  V30 33015 H 3314.38 -2.86407 2.87621 0
M  V30 33016 H 3315.15 -1.18243 4.70365 0
M  V30 33017 H 3311.03 -2.21534 4.04282 0
M  V30 33018 H 3314.57 -0.37849 6.96572 0
M  V30 33019 H 3310.47 -1.41675 6.29761 0
M  V30 33020 H 3311.24 -0.517622 8.16862 0
M  V30 33021 N 3313.9 -1.4363 -0.648706 0
M  V30 33022 C 3315.14 -1.46993 -1.4203 0
M  V30 33023 C 3315.5 -0.0932178 -1.91774 0
M  V30 33024 O 3316.71 -0.00153228 -2.688 0
M  V30 33025 C 3314.98 -2.48688 -2.56688 0
M  V30 33026 S 3316.54 -2.70962 -3.45145 0
M  V30 33027 H 3313.35 -0.520121 -0.484763 0
M  V30 33028 H 3315.96 -1.80429 -0.752708 0
M  V30 33029 H 3314.66 -3.47446 -2.18425 0
M  V30 33030 H 3314.19 -2.16766 -3.28293 0
M  V30 33031 H 3316.21 -2.01229 -4.53565 0
M  V30 33032 N 3315.38 0.887495 -1.30236 0
M  V30 33033 C 3316.79 1.17035 -1.08512 0
M  V30 33034 C 3316.99 2.00897 0.155752 0
M  V30 33035 O 3316.05 2.3776 0.850081 0
M  V30 33036 C 3317.36 1.87947 -2.34727 0
M  V30 33037 C 3318.91 2.00722 -2.40166 0
M  V30 33038 C 3319.39 2.75045 -3.66216 0
M  V30 33039 N 3320.88 2.82592 -3.67009 0
M  V30 33040 C 3321.61 3.40668 -4.6123 0
M  V30 33041 N 3321.11 3.99813 -5.65793 0
M  V30 33042 N 3322.9 3.38459 -4.48778 0
M  V30 33043 H 3315.05 0.32826 -2.09848 0
M  V30 33044 H 3317.32 0.207964 -0.924908 0
M  V30 33045 H 3317.02 1.33768 -3.25268 0
M  V30 33046 H 3316.9 2.88346 -2.4318 0
M  V30 33047 H 3319.28 2.54072 -1.50105 0
M  V30 33048 H 3319.36 0.994176 -2.3569 0
M  V30 33049 H 3319.01 2.22368 -4.56634 0
M  V30 33050 H 3318.94 3.7672 -3.67953 0
M  V30 33051 H 3321.43 2.40597 -2.91413 0
M  V30 33052 H 3321.74 4.42186 -6.33791 0
M  V30 33053 H 3320.09 3.9824 -5.69588 0
M  V30 33054 H 3323.28 2.91479 -3.66275 0
M  V30 33055 H 3323.45 3.83424 -5.22389 0
M  V30 33056 N 3316.86 1.12911 1.0995 0
M  V30 33057 C 3317.8 0.796887 2.18523 0
M  V30 33058 C 3318.8 -0.218453 1.67986 0
M  V30 33059 O 3320 -0.0761484 1.79839 0
M  V30 33060 H 3316.38 0.239894 0.71271 0
M  V30 33061 H 3318.35 1.72087 2.4378 0
M  V30 33062 C 3317.1 0.273298 3.46624 0
M  V30 33063 H 3316.42 1.04589 3.85877 0
M  V30 33064 H 3317.86 0.07921 4.23926 0
M  V30 33065 C 3316.32 -0.999846 3.21721 0
M  V30 33066 O 3316.85 -2.0767 3.43855 0
M  V30 33067 N 3315.06 -0.928785 2.75358 0
M  V30 33068 H 3314.6 -0.0523338 2.57547 0
M  V30 33069 H 3314.56 -1.78124 2.59073 0
M  V30 33070 N 3318.33 -1.27832 0.92178 0
M  V30 33071 C 3319.75 -1.76642 0.604527 0
M  V30 33072 C 3320.1 -1.75345 -0.880263 0
M  V30 33073 O 3319.22 -1.35318 -1.68873 0
M  V30 33074 C 3319.82 -3.20767 1.09061 0
M  V30 33075 C 3318.38 -3.67267 0.824131 0
M  V30 33076 C 3317.52 -2.4739 1.25274 0
M  V30 33077 H 3320.47 -1.14182 1.10219 0
M  V30 33078 H 3320.49 -3.77998 0.435625 0
M  V30 33079 H 3320.01 -3.21678 2.17128 0
M  V30 33080 H 3318.11 -3.71807 -0.24299 0
M  V30 33081 H 3318.22 -4.57026 1.43751 0
M  V30 33082 H 3316.58 -2.45693 0.671357 0
M  V30 33083 H 3317.37 -2.51016 2.34192 0
M  V30 33084 N 3319.81 -0.686634 -1.41856 0
M  V30 33085 C 3321.09 -0.142262 -1.95082 0
M  V30 33086 C 3321.47 1.34569 -1.62648 0
M  V30 33087 O 3320.82 2.08772 -0.928793 0
M  V30 33088 C 3321.03 -0.424016 -3.46415 0
M  V30 33089 C 3322.38 -0.346916 -4.2318 0
M  V30 33090 O 3323.4 -0.358425 -3.54392 0
M  V30 33091 O 3322.26 -0.299307 -5.4568 0
M  V30 33092 H 3319.35 -0.00975453 -0.826942 0
M  V30 33093 H 3321.9 -0.76218 -1.51621 0
M  V30 33094 H 3320.67 -1.4543 -3.63271 0
M  V30 33095 H 3320.29 0.227322 -3.9695 0
M  V30 33096 N 3321.29 1.51599 -0.430766 0
M  V30 33097 C 3322.25 2.26156 0.372279 0
M  V30 33098 C 3323.25 1.29346 0.955315 0
M  V30 33099 O 3324.44 1.53112 0.830796 0
M  V30 33100 C 3321.58 3.04834 1.52608 0
M  V30 33101 H 3322.77 2.9858 -0.281048 0
M  V30 33102 H 3320.32 1.55216 -0.183776 0
M  V30 33103 H 3321.06 2.36811 2.21565 0
M  V30 33104 H 3320.84 3.75934 1.11426 0
M  V30 33105 H 3322.33 3.61328 2.0936 0
M  V30 33106 N 3322.77 0.161897 1.56766 0
M  V30 33107 C 3324.01 -0.486181 1.96886 0
M  V30 33108 C 3324.35 -1.63528 1.04748 0
M  V30 33109 O 3323.62 -1.94279 0.0927497 0
M  V30 33110 C 3323.91 -0.978159 3.4656 0
M  V30 33111 C 3323.76 0.170469 4.49477 0
M  V30 33112 C 3325.08 -1.85499 3.99096 0
M  V30 33113 H 3322.2 -0.175253 0.71586 0
M  V30 33114 H 3324.84 0.246132 1.88399 0
M  V30 33115 H 3322.99 -1.60219 3.53924 0
M  V30 33116 H 3324.66 0.807285 4.54181 0
M  V30 33117 H 3322.9 0.827396 4.25836 0
M  V30 33118 H 3323.57 -0.215733 5.51578 0
M  V30 33119 H 3326.05 -1.32901 3.94305 0
M  V30 33120 H 3324.93 -2.16828 5.04259 0
M  V30 33121 H 3325.19 -2.79736 3.42345 0
M  V30 33122 N 3324.25 -1.57203 -0.111858 0
M  V30 33123 C 3325.21 -1.99917 -1.12097 0
M  V30 33124 C 3326.21 -0.890296 -1.33904 0
M  V30 33125 O 3327.4 -1.15617 -1.30301 0
M  V30 33126 C 3324.53 -2.34547 -2.47387 0
M  V30 33127 H 3325.72 -2.90275 -0.753685 0
M  V30 33128 H 3323.28 -1.52183 -0.356383 0
M  V30 33129 H 3324.01 -1.47091 -2.89024 0
M  V30 33130 H 3323.8 -3.15428 -2.32912 0
M  V30 33131 H 3325.29 -2.68309 -3.2 0
M  V30 33132 N 3325.72 0.382237 -1.52894 0
M  V30 33133 C 3326.69 1.45005 -1.775 0
M  V30 33134 C 3327.69 1.47292 -0.645116 0
M  V30 33135 O 3328.88 1.48344 -0.913218 0
M  V30 33136 C 3326.01 2.84247 -1.88193 0
M  V30 33137 H 3327.2 1.24468 -2.72851 0
M  V30 33138 H 3324.76 0.614385 -1.43718 0
M  V30 33139 H 3325.49 3.10119 -0.948506 0
M  V30 33140 H 3325.28 2.83987 -2.70358 0
M  V30 33141 H 3326.77 3.61607 -2.08879 0
M  V30 33142 N 3327.2 1.43972 0.64108 0
M  V30 33143 C 3328.61 1.41108 1.22252 0
M  V30 33144 C 3328.97 0.121318 1.95825 0
M  V30 33145 O 3328.09 -0.778755 2.01902 0
M  V30 33146 C 3328.69 2.5562 2.22359 0
M  V30 33147 C 3327.24 2.55983 2.75953 0
M  V30 33148 C 3326.39 2.3272 1.50787 0
M  V30 33149 H 3329.34 1.52697 0.432355 0
M  V30 33150 H 3329.36 2.27804 3.04771 0
M  V30 33151 H 3328.88 3.49477 1.68783 0
M  V30 33152 H 3326.98 1.6604 3.33559 0
M  V30 33153 H 3327.09 3.54148 3.2267 0
M  V30 33154 H 3325.45 1.8162 1.78567 0
M  V30 33155 H 3326.24 3.28677 0.991285 0
M  V30 33156 N 3328.68 -0.880575 1.30704 0
M  V30 33157 C 3329.91 -1.66336 1.22539 0
M  V30 33158 C 3330.32 -1.87992 -0.213474 0
M  V30 33159 O 3329.66 -1.43063 -1.15233 0
M  V30 33160 C 3329.72 -3.05931 1.88803 0
M  V30 33161 C 3329.39 -3.07429 3.38137 0
M  V30 33162 C 3330.39 -2.86163 4.34058 0
M  V30 33163 C 3328.07 -3.28887 3.79656 0
M  V30 33164 C 3330.06 -2.86318 5.69474 0
M  V30 33165 C 3327.75 -3.28671 5.15188 0
M  V30 33166 C 3328.75 -3.07412 6.09907 0
M  V30 33167 O 3328.44 -3.07021 7.42963 0
M  V30 33168 H 3328.17 -0.525669 0.425027 0
M  V30 33169 H 3330.72 -1.10817 1.72941 0
M  V30 33170 H 3328.95 -3.63132 1.32936 0
M  V30 33171 H 3330.64 -3.66382 1.74697 0
M  V30 33172 H 3331.41 -2.69378 4.03312 0
M  V30 33173 H 3327.29 -3.44468 3.06371 0
M  V30 33174 H 3330.83 -2.69644 6.4338 0
M  V30 33175 H 3326.73 -3.44993 5.45573 0
M  V30 33176 H 3327.5 -3.23156 7.52006 0
M  V30 33177 N 3330.16 -1.13492 -1.09349 0
M  V30 33178 C 3331.4 -0.907404 -1.83154 0
M  V30 33179 C 3331.76 0.556409 -1.83761 0
M  V30 33180 O 3332.96 0.901515 -2.53231 0
M  V30 33181 C 3331.24 -1.4801 -3.25312 0
M  V30 33182 S 3332.79 -1.39275 -4.1611 0
M  V30 33183 H 3329.61 -0.327054 -0.631313 0
M  V30 33184 H 3332.21 -1.44659 -1.31507 0
M  V30 33185 H 3330.92 -2.53882 -3.22447 0
M  V30 33186 H 3330.45 -0.938889 -3.82032 0
M  V30 33187 H 3332.46 -0.371732 -4.94806 0
M  V30 33188 N 3331.64 1.27341 -0.928546 0
M  V30 33189 C 3332.87 1.98147 -0.584919 0
M  V30 33190 C 3333.28 1.69453 0.841573 0
M  V30 33191 O 3332.62 0.952081 1.57102 0
M  V30 33192 C 3332.68 3.51969 -0.731973 0
M  V30 33193 C 3332.34 4.04287 -2.13074 0
M  V30 33194 C 3333.34 4.16996 -3.105 0
M  V30 33195 C 3331.03 4.38614 -2.44791 0
M  V30 33196 C 3333.02 4.63307 -4.3775 0
M  V30 33197 C 3330.71 4.84616 -3.72278 0
M  V30 33198 C 3331.71 4.96921 -4.6857 0
M  V30 33199 O 3331.39 5.41914 -5.93788 0
M  V30 33200 H 3331.13 0.639076 -0.220359 0
M  V30 33201 H 3333.68 1.63137 -1.24802 0
M  V30 33202 H 3331.91 3.86698 -0.0117645 0
M  V30 33203 H 3333.6 4.0399 -0.393277 0
M  V30 33204 H 3334.36 3.90735 -2.87317 0
M  V30 33205 H 3330.24 4.28278 -1.70584 0
M  V30 33206 H 3333.79 4.72827 -5.12914 0
M  V30 33207 H 3329.68 5.10319 -3.95278 0
M  V30 33208 H 3330.45 5.60166 -5.96789 0
M  V30 33209 N 3333.12 0.694147 1.4149 0
M  V30 33210 C 3334.34 0.233503 2.05578 0
M  V30 33211 C 3334.76 -1.11673 1.52232 0
M  V30 33212 O 3334.12 -1.69758 0.669967 0
M  V30 33213 C 3334.17 0.181031 3.61046 0
M  V30 33214 O 3333.89 1.47792 4.12419 0
M  V30 33215 C 3335.39 -0.300776 4.42278 0
M  V30 33216 H 3332.61 0.108955 0.662095 0
M  V30 33217 H 3335.15 0.946331 1.81287 0
M  V30 33218 H 3333.31 -0.482611 3.84382 0
M  V30 33219 H 3333.72 1.36409 5.06451 0
M  V30 33220 H 3335.2 -0.286367 5.51257 0
M  V30 33221 H 3335.67 -1.33941 4.18278 0
M  V30 33222 H 3336.28 0.331816 4.24004 0
M  V30 33223 N 3334.59 -1.51368 0.438799 0
M  V30 33224 C 3336.01 -1.59339 0.0911696 0
M  V30 33225 C 3336.21 -1.44961 -1.39959 0
M  V30 33226 O 3335.27 -1.29158 -2.16966 0
M  V30 33227 C 3336.58 -2.94394 0.612583 0
M  V30 33228 C 3338.13 -3.07708 0.573153 0
M  V30 33229 C 3338.6 -4.45288 1.07156 0
M  V30 33230 N 3340.09 -4.51612 1.02961 0
M  V30 33231 C 3340.83 -5.56394 1.38612 0
M  V30 33232 N 3340.32 -6.68588 1.81554 0
M  V30 33233 N 3342.12 -5.46761 1.30419 0
M  V30 33234 H 3334.27 -1.58959 1.40875 0
M  V30 33235 H 3336.53 -0.749404 0.580602 0
M  V30 33236 H 3336.24 -3.10291 1.65567 0
M  V30 33237 H 3336.11 -3.77181 0.0383038 0
M  V30 33238 H 3338.5 -2.91478 -0.460954 0
M  V30 33239 H 3338.58 -2.26757 1.18385 0
M  V30 33240 H 3338.22 -4.62264 2.10414 0
M  V30 33241 H 3338.15 -5.2478 0.437389 0
M  V30 33242 H 3340.64 -3.71088 0.714273 0
M  V30 33243 H 3340.96 -7.44564 2.0699 0
M  V30 33244 H 3339.3 -6.69792 1.85482 0
M  V30 33245 H 3342.49 -4.57996 0.967352 0
M  V30 33246 H 3342.67 -6.28309 1.58531 0
M  V30 33247 N 3336.07 -0.170208 -1.56678 0
M  V30 33248 C 3337.35 0.521328 -1.88525 0
M  V30 33249 C 3337.73 1.81386 -1.07992 0
M  V30 33250 O 3337.08 2.2784 -0.17351 0
M  V30 33251 C 3337.29 0.764307 -3.40528 0
M  V30 33252 C 3338.63 1.0948 -4.10243 0
M  V30 33253 O 3339.66 0.852884 -3.45839 0
M  V30 33254 O 3338.52 1.55115 -5.24025 0
M  V30 33255 H 3335.61 0.268601 -0.782165 0
M  V30 33256 H 3338.16 -0.208561 -1.68414 0
M  V30 33257 H 3336.93 -0.149484 -3.91014 0
M  V30 33258 H 3336.55 1.54755 -3.66247 0
M  V30 33259 N 3337.55 1.5726 0.10352 0
M  V30 33260 C 3338.96 1.74684 0.658976 0
M  V30 33261 C 3339.31 0.791173 1.79541 0
M  V30 33262 O 3338.44 -0.0323205 2.16376 0
M  V30 33263 C 3339.03 3.16755 1.20216 0
M  V30 33264 C 3337.59 3.35632 1.70377 0
M  V30 33265 C 3336.74 2.70511 0.609838 0
M  V30 33266 H 3339.69 1.58226 -0.122502 0
M  V30 33267 H 3339.71 3.19161 2.07163 0
M  V30 33268 H 3339.22 3.86286 0.374833 0
M  V30 33269 H 3337.32 2.71167 2.55537 0
M  V30 33270 H 3337.44 4.43897 1.80256 0
M  V30 33271 H 3335.8 2.32174 1.04724 0
M  V30 33272 H 3336.58 3.42677 -0.206773 0
M  V30 33273 N 3339.03 -0.374123 1.53095 0
M  V30 33274 C 3340.28 -1.11545 1.68529 0
M  V30 33275 C 3340.6 -1.9008 0.435286 0
M  V30 33276 O 3339.87 -1.88004 -0.550561 0
M  V30 33277 H 3338.45 -0.41478 0.621262 0
M  V30 33278 H 3341.11 -0.422811 1.90259 0
M  V30 33279 H 3340.2 -1.81005 2.54251 0
M  V30 33280 N 3340.51 -1.4431 -0.633436 0
M  V30 33281 C 3341.75 -1.47189 -1.3951 0
M  V30 33282 C 3342.08 -0.10322 -1.93925 0
M  V30 33283 O 3341.36 0.878823 -1.73514 0
M  V30 33284 C 3341.64 -2.5304 -2.56208 0
M  V30 33285 C 3341.5 -3.99257 -2.07157 0
M  V30 33286 C 3342.81 -2.55419 -3.58398 0
M  V30 33287 H 3339.93 -0.535917 -0.505926 0
M  V30 33288 H 3342.58 -1.75976 -0.716414 0
M  V30 33289 H 3340.73 -2.28624 -3.14107 0
M  V30 33290 H 3342.4 -4.34797 -1.54107 0
M  V30 33291 H 3340.64 -4.11144 -1.3836 0
M  V30 33292 H 3341.31 -4.68965 -2.91163 0
M  V30 33293 H 3343.79 -2.77229 -3.10295 0
M  V30 33294 H 3342.66 -3.31389 -4.37575 0
M  V30 33295 H 3342.92 -1.59531 -4.12313 0
M  V30 33296 N 3341.98 0.873632 -1.3117 0
M  V30 33297 C 3343.4 1.15878 -1.09747 0
M  V30 33298 C 3343.6 2.01051 0.134436 0
M  V30 33299 O 3342.66 2.38648 0.824815 0
M  V30 33300 C 3343.97 1.85446 -2.36707 0
M  V30 33301 C 3345.52 1.98163 -2.42282 0
M  V30 33302 C 3345.99 2.71145 -3.69113 0
M  V30 33303 N 3347.48 2.78684 -3.69986 0
M  V30 33304 C 3348.22 3.35757 -4.64817 0
M  V30 33305 N 3347.71 3.9379 -5.70001 0
M  V30 33306 N 3349.51 3.3368 -4.52343 0
M  V30 33307 H 3341.66 0.305984 -2.10184 0
M  V30 33308 H 3343.92 0.198142 -0.927062 0
M  V30 33309 H 3343.63 1.3031 -3.26668 0
M  V30 33310 H 3343.5 2.85751 -2.46224 0
M  V30 33311 H 3345.89 2.52465 -1.52792 0
M  V30 33312 H 3345.97 0.969122 -2.36731 0
M  V30 33313 H 3345.61 2.17512 -4.58967 0
M  V30 33314 H 3345.54 3.72796 -3.71928 0
M  V30 33315 H 3348.03 2.37493 -2.93948 0
M  V30 33316 H 3348.35 4.35439 -6.38446 0
M  V30 33317 H 3346.69 3.92176 -5.7378 0
M  V30 33318 H 3349.88 2.87578 -3.69346 0
M  V30 33319 H 3350.06 3.77861 -5.26426 0
M  V30 33320 N 3343.46 1.1407 1.08746 0
M  V30 33321 C 3344.71 0.918067 1.81502 0
M  V30 33322 C 3345.06 -0.549639 1.84382 0
M  V30 33323 O 3344.36 -1.4018 1.30614 0
M  V30 33324 C 3344.55 1.44848 3.26732 0
M  V30 33325 C 3344.38 2.96623 3.38001 0
M  V30 33326 C 3343.15 3.65037 3.49394 0
M  V30 33327 C 3345.35 3.94513 3.29945 0
M  V30 33328 N 3343.33 5.04757 3.49419 0
M  V30 33329 C 3344.7 5.20465 3.36921 0
M  V30 33330 C 3346.76 3.86681 3.13659 0
M  V30 33331 C 3345.46 6.39501 3.29288 0
M  V30 33332 C 3347.48 5.0526 3.07354 0
M  V30 33333 C 3346.85 6.30079 3.14929 0
M  V30 33334 H 3342.95 0.389435 0.678133 0
M  V30 33335 H 3345.53 1.4502 1.29913 0
M  V30 33336 H 3343.7 0.943179 3.76774 0
M  V30 33337 H 3345.43 1.16612 3.87535 0
M  V30 33338 H 3342.19 3.15579 3.53139 0
M  V30 33339 H 3342.61 5.77687 3.52997 0
M  V30 33340 H 3347.25 2.91058 3.06668 0
M  V30 33341 H 3344.97 7.35373 3.35041 0
M  V30 33342 H 3348.56 5.00947 2.95878 0
M  V30 33343 H 3347.44 7.20294 3.10075 0
M  V30 33344 N 3344.94 -1.26847 0.935286 0
M  V30 33345 C 3345.85 -2.30318 0.446162 0
M  V30 33346 C 3346.87 -1.67336 -0.476935 0
M  V30 33347 O 3348.04 -1.98194 -0.357899 0
M  V30 33348 C 3345.11 -3.45516 -0.286237 0
M  V30 33349 C 3344.17 -4.23997 0.672701 0
M  V30 33350 C 3343.4 -5.33694 -0.0248406 0
M  V30 33351 O 3343.62 -5.56695 -1.24286 0
M  V30 33352 O 3342.56 -5.98371 0.650857 0
M  V30 33353 H 3346.38 -2.74208 1.30551 0
M  V30 33354 H 3343.97 -1.31937 0.700933 0
M  V30 33355 H 3345.85 -4.15562 -0.699035 0
M  V30 33356 H 3344.53 -3.03667 -1.12106 0
M  V30 33357 H 3343.43 -3.56456 1.13533 0
M  V30 33358 H 3344.77 -4.6958 1.47497 0
M  V30 33359 N 3346.42 -0.701641 -1.4112 0
M  V30 33360 C 3347.65 -0.244047 -2.05154 0
M  V30 33361 C 3348.06 1.11405 -1.52924 0
M  V30 33362 O 3347.4 1.70854 -0.67489 0
M  V30 33363 C 3347.46 -0.130836 -3.59262 0
M  V30 33364 C 3347.13 -1.42195 -4.34315 0
M  V30 33365 C 3348.12 -2.36105 -4.63196 0
M  V30 33366 C 3345.81 -1.67701 -4.73478 0
M  V30 33367 C 3347.8 -3.53778 -5.30208 0
M  V30 33368 C 3345.49 -2.85658 -5.40225 0
M  V30 33369 C 3346.49 -3.78519 -5.68518 0
M  V30 33370 O 3346.17 -4.94409 -6.33889 0
M  V30 33371 H 3345.91 -0.109969 -0.666995 0
M  V30 33372 H 3348.46 -0.956505 -1.81769 0
M  V30 33373 H 3346.69 0.637445 -3.8141 0
M  V30 33374 H 3348.38 0.290368 -4.0486 0
M  V30 33375 H 3349.15 -2.17659 -4.33416 0
M  V30 33376 H 3345.02 -0.962812 -4.50834 0
M  V30 33377 H 3348.57 -4.26277 -5.52208 0
M  V30 33378 H 3344.47 -3.04018 -5.69424 0
M  V30 33379 H 3345.23 -4.94303 -6.52385 0
M  V30 33380 N 3347.9 1.51133 -0.446821 0
M  V30 33381 C 3349.14 2.04073 0.11551 0
M  V30 33382 C 3349.5 1.32308 1.39135 0
M  V30 33383 O 3350.7 1.75672 2.03452 0
M  V30 33384 C 3348.97 3.55968 0.319595 0
M  V30 33385 S 3350.53 4.30607 0.843969 0
M  V30 33386 H 3347.35 0.710472 0.0273964 0
M  V30 33387 H 3349.95 1.85792 -0.608401 0
M  V30 33388 H 3348.66 4.05764 -0.615153 0
M  V30 33389 H 3348.19 3.7856 1.07032 0
M  V30 33390 H 3350.2 4.48611 2.12043 0
M  V30 33391 N 3349.37 0.178515 1.56586 0
M  V30 33392 C 3350.32 -0.765783 2.19633 0
M  V30 33393 C 3351.32 -1.23217 1.1625 0
M  V30 33394 O 3352.52 -1.19699 1.34433 0
M  V30 33395 H 3348.9 -0.265252 0.703666 0
M  V30 33396 H 3350.87 -0.210154 2.97659 0
M  V30 33397 C 3349.62 -1.98183 2.8569 0
M  V30 33398 H 3348.94 -1.632 3.64974 0
M  V30 33399 H 3350.38 -2.62128 3.33264 0
M  V30 33400 C 3348.84 -2.81006 1.85842 0
M  V30 33401 O 3349.37 -3.78394 1.34837 0
M  V30 33402 N 3347.58 -2.46164 1.54439 0
M  V30 33403 H 3347.12 -1.67029 1.9611 0
M  V30 33404 H 3347.08 -3.01867 0.878861 0
M  V30 33405 N 3350.85 -1.57312 -0.0951784 0
M  V30 33406 C 3351.78 -2.05091 -1.11624 0
M  V30 33407 C 3352.76 -0.939812 -1.4178 0
M  V30 33408 O 3353.95 -1.21107 -1.51811 0
M  V30 33409 C 3351.08 -2.47527 -2.43613 0
M  V30 33410 C 3350.03 -3.623 -2.27866 0
M  V30 33411 C 3349.36 -3.90713 -3.65031 0
M  V30 33412 C 3350.66 -4.93192 -1.71928 0
M  V30 33413 H 3352.35 -2.90645 -0.718744 0
M  V30 33414 H 3349.9 -1.39824 -0.34429 0
M  V30 33415 H 3351.85 -2.79561 -3.15315 0
M  V30 33416 H 3350.58 -1.58973 -2.85298 0
M  V30 33417 H 3349.23 -3.30513 -1.58609 0
M  V30 33418 H 3348.88 -2.99326 -4.04244 0
M  V30 33419 H 3348.58 -4.67982 -3.5534 0
M  V30 33420 H 3350.11 -4.25221 -4.382 0
M  V30 33421 H 3351.52 -5.23607 -2.3347 0
M  V30 33422 H 3349.92 -5.74624 -1.72996 0
M  V30 33423 H 3350.99 -4.80127 -0.678705 0
M  V30 33424 N 3352.33 0.365999 -1.53291 0
M  V30 33425 C 3353.56 1.12931 -1.73361 0
M  V30 33426 C 3353.97 1.8305 -0.462384 0
M  V30 33427 O 3353.33 1.73544 0.56468 0
M  V30 33428 C 3353.38 2.15994 -2.89877 0
M  V30 33429 O 3353.1 1.4873 -4.12081 0
M  V30 33430 C 3354.6 3.04876 -3.21816 0
M  V30 33431 H 3351.82 0.337691 -0.579833 0
M  V30 33432 H 3354.37 0.425046 -2.00034 0
M  V30 33433 H 3352.52 2.8202 -2.656 0
M  V30 33434 H 3352.94 2.17395 -4.77325 0
M  V30 33435 H 3354.41 3.73173 -4.0675 0
M  V30 33436 H 3354.89 3.69662 -2.37163 0
M  V30 33437 H 3355.49 2.44467 -3.48017 0
M  V30 33438 N 3353.81 1.44644 0.625774 0
M  V30 33439 C 3354.74 1.47914 1.75083 0
M  V30 33440 C 3355.75 0.371908 1.58495 0
M  V30 33441 O 3356.94 0.637955 1.6671 0
M  V30 33442 C 3354.04 1.30249 3.12871 0
M  V30 33443 C 3353.22 2.54316 3.55868 0
M  V30 33444 C 3352.27 2.31472 4.72554 0
M  V30 33445 O 3351.3 3.04989 4.80594 0
M  V30 33446 N 3352.5 1.34872 5.64615 0
M  V30 33447 H 3355.27 2.44905 1.72747 0
M  V30 33448 H 3352.83 1.40151 0.810506 0
M  V30 33449 H 3354.82 1.12805 3.88661 0
M  V30 33450 H 3353.39 0.41602 3.09819 0
M  V30 33451 H 3352.61 2.86999 2.70232 0
M  V30 33452 H 3353.9 3.36824 3.81349 0
M  V30 33453 H 3353.3 0.74164 5.60817 0
M  V30 33454 H 3351.85 1.23405 6.40011 0
M  V30 33455 N 3355.29 -0.866663 1.31631 0
M  V30 33456 C 3356.53 -1.63393 1.22809 0
M  V30 33457 C 3356.89 -1.90851 -0.209751 0
M  V30 33458 O 3358.09 -2.65474 -0.421516 0
M  V30 33459 C 3356.36 -2.92627 2.05193 0
M  V30 33460 S 3357.92 -3.83487 2.13268 0
M  V30 33461 H 3354.74 -0.560577 0.437349 0
M  V30 33462 H 3357.34 -1.02728 1.66335 0
M  V30 33463 H 3356.05 -2.70383 3.08741 0
M  V30 33464 H 3355.58 -3.58316 1.62399 0
M  V30 33465 H 3357.59 -4.79582 1.27341 0
M  V30 33466 N 3356.77 -1.14645 -1.0814 0
M  V30 33467 C 3357.99 -0.940382 -1.84856 0
M  V30 33468 C 3358.42 0.506085 -1.81164 0
M  V30 33469 O 3357.77 1.36016 -1.19872 0
M  V30 33470 C 3357.82 -1.44926 -3.30195 0
M  V30 33471 O 3356.93 -0.643151 -4.07354 0
M  V30 33472 H 3356.27 -0.336014 -0.572705 0
M  V30 33473 H 3358.8 -1.52435 -1.36473 0
M  V30 33474 H 3358.81 -1.45861 -3.81036 0
M  V30 33475 H 3357.48 -2.50235 -3.32197 0
M  V30 33476 H 3356.06 -0.702763 -3.66218 0
M  V30 33477 N 3358.24 1.26349 -0.942 0
M  V30 33478 C 3359.52 1.88892 -0.507855 0
M  V30 33479 C 3359.9 1.85121 1.01457 0
M  V30 33480 O 3359.25 1.30609 1.87493 0
M  V30 33481 C 3359.46 3.32188 -1.07013 0
M  V30 33482 C 3360.81 4.0903 -1.13929 0
M  V30 33483 O 3361.83 3.4126 -1.02078 0
M  V30 33484 O 3360.69 5.30227 -1.32371 0
M  V30 33485 H 3357.78 0.810243 -0.165636 0
M  V30 33486 H 3360.33 1.34513 -1.03462 0
M  V30 33487 H 3359.1 3.29299 -2.11372 0
M  V30 33488 H 3358.72 3.94107 -0.525866 0
M  V30 33489 N 3359.72 0.709115 1.40746 0
M  V30 33490 C 3360.68 0.0612009 2.29118 0
M  V30 33491 C 3361.68 -0.694055 1.4505 0
M  V30 33492 O 3362.87 -0.526922 1.6604 0
M  V30 33493 C 3360.01 -0.92339 3.28156 0
M  V30 33494 H 3361.2 0.839464 2.87911 0
M  V30 33495 H 3358.75 0.47339 1.48959 0
M  V30 33496 H 3359.49 -1.72894 2.74369 0
M  V30 33497 H 3359.27 -0.384794 3.90207 0
M  V30 33498 H 3360.76 -1.3741 3.94345 0
M  V30 33499 N 3361.2 -1.50894 0.454829 0
M  V30 33500 C 3362.11 -2.31922 -0.353455 0
M  V30 33501 C 3363.13 -1.41591 -1.01134 0
M  V30 33502 O 3364.3 -1.74655 -1.00288 0
M  V30 33503 C 3361.37 -3.15823 -1.43027 0
M  V30 33504 C 3360.43 -4.21956 -0.790689 0
M  V30 33505 C 3359.66 -5.01847 -1.81619 0
M  V30 33506 O 3359.88 -4.82595 -3.0407 0
M  V30 33507 O 3358.82 -5.85463 -1.39702 0
M  V30 33508 H 3362.64 -3.02129 0.308517 0
M  V30 33509 H 3360.23 -1.47816 0.216997 0
M  V30 33510 H 3362.11 -3.67931 -2.05438 0
M  V30 33511 H 3360.79 -2.48362 -2.07601 0
M  V30 33512 H 3359.69 -3.73881 -0.128061 0
M  V30 33513 H 3361.03 -4.9184 -0.188164 0
M  V30 33514 N 3362.68 -0.186817 -1.56489 0
M  V30 33515 C 3363.93 0.453227 -1.96952 0
M  V30 33516 C 3364.25 1.62723 -1.07453 0
M  V30 33517 O 3363.52 1.95369 -0.14408 0
M  V30 33518 H 3362.1 0.170432 -0.727298 0
M  V30 33519 H 3364.76 -0.271618 -1.92998 0
M  V30 33520 H 3363.85 0.802898 -3.01596 0
M  V30 33521 N 3364.16 1.57361 0.0868344 0
M  V30 33522 C 3365.38 1.90718 0.802134 0
M  V30 33523 C 3365.8 0.781334 1.71874 0
M  V30 33524 O 3365.16 -0.246223 1.80831 0
M  V30 33525 C 3365.21 3.23742 1.60852 0
M  V30 33526 O 3364.93 4.31996 0.728775 0
M  V30 33527 C 3366.43 3.71016 2.42615 0
M  V30 33528 H 3363.65 0.630749 0.228903 0
M  V30 33529 H 3366.19 2.04407 0.0615981 0
M  V30 33530 H 3364.35 3.11626 2.30148 0
M  V30 33531 H 3364.76 5.08437 1.28811 0
M  V30 33532 H 3366.24 4.66766 2.94675 0
M  V30 33533 H 3366.71 2.9927 3.21456 0
M  V30 33534 H 3367.32 3.86027 1.78503 0
M  V30 33535 N 3365.63 -0.357865 1.53483 0
M  V30 33536 C 3366.6 -1.42163 1.79784 0
M  V30 33537 C 3367.6 -1.46247 0.668467 0
M  V30 33538 O 3368.79 -1.46872 0.936703 0
M  V30 33539 C 3365.92 -2.81217 1.92691 0
M  V30 33540 H 3367.11 -1.20112 2.74797 0
M  V30 33541 H 3364.66 -0.591443 1.44678 0
M  V30 33542 H 3365.4 -3.08571 0.997723 0
M  V30 33543 H 3365.18 -2.7965 2.74842 0
M  V30 33544 H 3366.67 -3.58238 2.14605 0
M  V30 33545 N 3367.11 -1.44974 -0.618094 0
M  V30 33546 C 3368.36 -1.48661 -1.37941 0
M  V30 33547 C 3368.69 -0.123783 -1.93805 0
M  V30 33548 O 3367.97 0.86037 -1.74436 0
M  V30 33549 C 3368.25 -2.55743 -2.5351 0
M  V30 33550 C 3368.1 -4.01431 -2.02911 0
M  V30 33551 C 3369.42 -2.59205 -3.55669 0
M  V30 33552 H 3366.54 -0.541253 -0.500214 0
M  V30 33553 H 3369.18 -1.76726 -0.697709 0
M  V30 33554 H 3367.33 -2.31943 -3.11665 0
M  V30 33555 H 3369 -4.36407 -1.49487 0
M  V30 33556 H 3367.25 -4.12588 -1.33991 0
M  V30 33557 H 3367.92 -4.72026 -2.86173 0
M  V30 33558 H 3370.39 -2.80505 -3.07338 0
M  V30 33559 H 3369.27 -3.36012 -4.34036 0
M  V30 33560 H 3369.53 -1.63895 -4.10598 0
M  V30 33561 N 3368.59 0.85967 -1.32089 0
M  V30 33562 C 3369.55 1.94937 -1.20549 0
M  V30 33563 C 3370.55 1.60275 -0.129848 0
M  V30 33564 O 3371.74 1.70007 -0.379883 0
M  V30 33565 C 3368.87 3.30061 -0.852775 0
M  V30 33566 H 3370.07 2.06598 -2.17387 0
M  V30 33567 H 3367.62 1.04924 -1.15848 0
M  V30 33568 H 3368.36 3.241 0.114002 0
M  V30 33569 H 3368.14 3.56595 -1.63041 0
M  V30 33570 H 3369.63 4.09939 -0.796217 0
M  V30 33571 N 3370.07 1.15217 1.0753 0
M  V30 33572 C 3371.48 0.935596 1.61566 0
M  V30 33573 C 3371.83 -0.523524 1.89086 0
M  V30 33574 O 3370.95 -1.39426 1.65497 0
M  V30 33575 C 3371.55 1.69194 2.93528 0
M  V30 33576 C 3370.11 1.52069 3.44314 0
M  V30 33577 C 3369.26 1.70869 2.18401 0
M  V30 33578 H 3372.21 1.30269 0.906408 0
M  V30 33579 H 3372.23 1.16037 3.62375 0
M  V30 33580 H 3371.74 2.75386 2.73467 0
M  V30 33581 H 3369.84 0.482632 3.69461 0
M  V30 33582 H 3369.95 2.29649 4.20474 0
M  V30 33583 H 3368.32 1.13506 2.2801 0
M  V30 33584 H 3369.1 2.78424 2.00836 0
M  V30 33585 N 3371.55 -1.25848 0.948687 0
M  V30 33586 C 3372.96 -1.7532 0.64186 0
M  V30 33587 C 3373.31 -1.77173 -0.842872 0
M  V30 33588 O 3372.43 -1.3887 -1.65964 0
M  V30 33589 C 3373.03 -3.18381 1.1584 0
M  V30 33590 C 3371.59 -3.65436 0.901848 0
M  V30 33591 C 3370.73 -2.44677 1.30493 0
M  V30 33592 H 3373.69 -1.11818 1.12616 0
M  V30 33593 H 3373.71 -3.76989 0.515706 0
M  V30 33594 H 3373.22 -3.17001 2.23902 0
M  V30 33595 H 3371.32 -3.72239 -0.164069 0
M  V30 33596 H 3371.43 -4.53874 1.53413 0
M  V30 33597 H 3369.8 -2.44213 0.723321 0
M  V30 33598 H 3370.58 -2.45992 2.39464 0
M  V30 33599 N 3373.02 -0.716569 -1.40368 0
M  V30 33600 C 3374.25 -0.266179 -2.05181 0
M  V30 33601 C 3374.67 1.09237 -1.5399 0
M  V30 33602 O 3374.02 1.6867 -0.696889 0
M  V30 33603 C 3374.08 -0.238447 -3.60713 0
M  V30 33604 O 3373.8 -1.54335 -4.10015 0
M  V30 33605 C 3375.3 0.230375 -4.42701 0
M  V30 33606 H 3372.52 -0.119474 -0.660278 0
M  V30 33607 H 3375.06 -0.975052 -1.79758 0
M  V30 33608 H 3373.22 0.421398 -3.85101 0
M  V30 33609 H 3373.63 -1.44449 -5.04217 0
M  V30 33610 H 3375.1 0.198631 -5.51643 0
M  V30 33611 H 3375.58 1.27269 -4.20356 0
M  V30 33612 H 3376.19 -0.399229 -4.23422 0
M  V30 33613 N 3374.5 1.50651 -0.462825 0
M  V30 33614 C 3375.75 2.02577 0.0951497 0
M  V30 33615 C 3376.08 1.34471 1.40111 0
M  V30 33616 O 3375.36 0.467735 1.88792 0
M  V30 33617 C 3375.64 3.5895 0.28754 0
M  V30 33618 C 3375.49 4.37639 -1.03886 0
M  V30 33619 C 3376.81 4.27493 1.04585 0
M  V30 33620 H 3373.93 0.736256 0.0331061 0
M  V30 33621 H 3376.57 1.8005 -0.606803 0
M  V30 33622 H 3374.72 3.78275 0.885448 0
M  V30 33623 H 3376.39 4.29905 -1.67271 0
M  V30 33624 H 3374.64 4.01708 -1.63747 0
M  V30 33625 H 3375.31 5.45291 -0.857985 0
M  V30 33626 H 3377.78 4.12592 0.539141 0
M  V30 33627 H 3376.66 5.36734 1.14926 0
M  V30 33628 H 3376.92 3.90093 2.08038 0
M  V30 33629 N 3375.98 0.195113 1.56388 0
M  V30 33630 C 3377.21 -0.449253 2.01964 0
M  V30 33631 C 3377.62 -1.5519 1.07525 0
M  V30 33632 O 3376.98 -1.82324 0.0801235 0
M  V30 33633 C 3377.03 -1.00555 3.47233 0
M  V30 33634 O 3376.75 0.0531011 4.38068 0
M  V30 33635 C 3378.25 -1.7258 4.08327 0
M  V30 33636 H 3375.47 -0.11278 0.661454 0
M  V30 33637 H 3378.02 0.303824 2.0223 0
M  V30 33638 H 3376.17 -1.70901 3.47666 0
M  V30 33639 H 3376.59 -0.360984 5.23256 0
M  V30 33640 H 3378.06 -2.06735 5.11825 0
M  V30 33641 H 3378.54 -2.6295 3.51787 0
M  V30 33642 H 3379.14 -1.06819 4.11667 0
M  V30 33643 N 3377.46 -1.57404 -0.0784879 0
M  V30 33644 C 3378.87 -1.7571 -0.631101 0
M  V30 33645 C 3379.22 -0.819637 -1.78259 0
M  V30 33646 O 3378.35 -0.00210716 -2.164 0
M  V30 33647 C 3378.94 -3.18627 -1.15162 0
M  V30 33648 C 3377.5 -3.383 -1.65015 0
M  V30 33649 C 3376.65 -2.71447 -0.566725 0
M  V30 33650 H 3379.6 -1.58012 0.147659 0
M  V30 33651 H 3379.62 -3.22416 -2.02059 0
M  V30 33652 H 3379.13 -3.86833 -0.313331 0
M  V30 33653 H 3377.23 -2.75198 -2.51191 0
M  V30 33654 H 3377.34 -4.46709 -1.73171 0
M  V30 33655 H 3375.71 -2.33811 -1.01017 0
M  V30 33656 H 3376.49 -3.42304 0.261264 0
M  V30 33657 N 3378.94 0.34972 -1.53671 0
M  V30 33658 C 3380.18 1.09227 -1.70872 0
M  V30 33659 C 3380.52 1.88493 -0.467332 0
M  V30 33660 O 3379.79 1.86981 0.535586 0
M  V30 33661 C 3380.07 2.03852 -2.96844 0
M  V30 33662 C 3379.93 1.28089 -4.31176 0
M  V30 33663 C 3381.25 3.03757 -3.18464 0
M  V30 33664 H 3378.36 0.3957 -0.621764 0
M  V30 33665 H 3381.01 0.371448 -1.86334 0
M  V30 33666 H 3379.16 2.65318 -2.83793 0
M  V30 33667 H 3380.83 0.692853 -4.56067 0
M  V30 33668 H 3379.07 0.582848 -4.29867 0
M  V30 33669 H 3379.74 1.97431 -5.15485 0
M  V30 33670 H 3382.22 2.52403 -3.30805 0
M  V30 33671 H 3381.09 3.67175 -4.08012 0
M  V30 33672 H 3381.36 3.74799 -2.34474 0
M  V30 33673 N 3380.41 1.45299 0.610397 0
M  V30 33674 C 3381.83 1.43669 1.19231 0
M  V30 33675 C 3382.18 0.162828 1.95523 0
M  V30 33676 O 3381.3 -0.735753 2.03508 0
M  V30 33677 C 3381.9 2.6028 2.16887 0
M  V30 33678 C 3380.46 2.61778 2.70461 0
M  V30 33679 C 3379.6 2.35866 1.45817 0
M  V30 33680 H 3382.55 1.5358 0.399868 0
M  V30 33681 H 3382.57 2.34218 2.99871 0
M  V30 33682 H 3382.09 3.52978 1.61332 0
M  V30 33683 H 3380.19 1.73078 3.29962 0
M  V30 33684 H 3380.3 3.60913 3.15086 0
M  V30 33685 H 3378.66 1.85367 1.74675 0
M  V30 33686 H 3379.45 3.30705 0.921345 0
M  V30 33687 N 3381.89 -0.852653 1.32543 0
M  V30 33688 C 3383.12 -1.6446 1.26363 0
M  V30 33689 C 3383.54 -1.87375 -0.165047 0
M  V30 33690 O 3382.9 -1.42796 -1.1171 0
M  V30 33691 C 3382.95 -2.97994 2.03057 0
M  V30 33692 O 3382.05 -3.88635 1.37974 0
M  V30 33693 H 3381.39 -0.50132 0.435402 0
M  V30 33694 H 3383.92 -1.06183 1.7489 0
M  V30 33695 H 3383.93 -3.478 2.13306 0
M  V30 33696 H 3382.61 -2.80637 3.06946 0
M  V30 33697 H 3381.19 -3.47103 1.36286 0
M  V30 33698 N 3383.37 -1.15786 -1.06918 0
M  V30 33699 C 3384.3 -0.881687 -2.16214 0
M  V30 33700 C 3385.28 0.16948 -1.69254 0
M  V30 33701 O 3386.47 0.0229169 -1.94186 0
M  V30 33702 C 3383.6 -0.375042 -3.45269 0
M  V30 33703 C 3382.55 -1.36339 -4.05704 0
M  V30 33704 C 3381.88 -0.71541 -5.29892 0
M  V30 33705 C 3383.18 -2.73088 -4.45219 0
M  V30 33706 H 3384.87 -1.79568 -2.39574 0
M  V30 33707 H 3382.42 -0.864804 -1.1514 0
M  V30 33708 H 3384.37 -0.169353 -4.2106 0
M  V30 33709 H 3383.09 0.574428 -3.21509 0
M  V30 33710 H 3381.75 -1.55552 -3.31963 0
M  V30 33711 H 3381.4 0.240347 -5.02425 0
M  V30 33712 H 3381.1 -1.37504 -5.71285 0
M  V30 33713 H 3382.62 -0.519596 -6.08385 0
M  V30 33714 H 3384.04 -2.57695 -5.12119 0
M  V30 33715 H 3382.44 -3.35466 -4.97577 0
M  V30 33716 H 3383.51 -3.28819 -3.56379 0
M  V30 33717 N 3384.85 1.25343 -0.955348 0
M  V30 33718 C 3385.76 2.29579 -0.482748 0
M  V30 33719 C 3386.77 1.68074 0.450253 0
M  V30 33720 O 3387.95 1.98739 0.326323 0
M  V30 33721 C 3385.02 3.45928 0.231232 0
M  V30 33722 C 3384.08 4.22873 -0.74007 0
M  V30 33723 C 3383.31 5.33666 -0.0600686 0
M  V30 33724 O 3383.53 5.58602 1.15414 0
M  V30 33725 O 3382.47 5.97259 -0.74597 0
M  V30 33726 H 3386.29 2.72097 -1.34897 0
M  V30 33727 H 3383.88 1.30805 -0.721834 0
M  V30 33728 H 3385.76 4.16621 0.632835 0
M  V30 33729 H 3384.43 3.05412 1.07261 0
M  V30 33730 H 3383.34 3.54605 -1.19189 0
M  V30 33731 H 3384.67 4.67174 -1.54949 0
M  V30 33732 N 3386.33 0.724003 1.39986 0
M  V30 33733 C 3387.29 0.0854986 2.2904 0
M  V30 33734 C 3388.29 -0.678631 1.45778 0
M  V30 33735 O 3389.48 -0.509282 1.66589 0
M  V30 33736 C 3386.61 -0.888532 3.29117 0
M  V30 33737 H 3387.81 0.869954 2.87005 0
M  V30 33738 H 3385.36 0.489162 1.48448 0
M  V30 33739 H 3386.09 -1.69974 2.76187 0
M  V30 33740 H 3385.88 -0.343385 3.90593 0
M  V30 33741 H 3387.37 -1.3322 3.9578 0
M  V30 33742 N 3387.81 -1.50403 0.470808 0
M  V30 33743 C 3389.22 -1.86693 0.0156229 0
M  V30 33744 C 3389.57 -1.38563 -1.38905 0
M  V30 33745 O 3388.69 -0.75049 -2.02969 0
M  V30 33746 C 3389.29 -3.38793 0.0215747 0
M  V30 33747 C 3387.85 -3.74496 -0.37814 0
M  V30 33748 C 3386.99 -2.74294 0.407174 0
M  V30 33749 H 3389.94 -1.43151 0.685096 0
M  V30 33750 H 3389.97 -3.72406 -0.780652 0
M  V30 33751 H 3389.48 -3.73793 1.04404 0
M  V30 33752 H 3387.58 -3.45096 -1.40497 0
M  V30 33753 H 3387.69 -4.79034 -0.0796801 0
M  V30 33754 H 3386.06 -2.5432 -0.139078 0
M  V30 33755 H 3386.84 -3.12138 1.42915 0
M  V30 33756 N 3389.28 -0.203404 -1.56282 0
M  V30 33757 C 3390.51 0.441623 -2.02644 0
M  V30 33758 C 3390.93 1.53828 -1.08252 0
M  V30 33759 O 3390.29 1.81174 -0.0674655 0
M  V30 33760 C 3390.34 0.967308 -3.47384 0
M  V30 33761 O 3389.44 2.07975 -3.56118 0
M  V30 33762 H 3388.78 0.10223 -0.656083 0
M  V30 33763 H 3391.31 -0.316719 -2.02134 0
M  V30 33764 H 3391.32 1.28179 -3.87342 0
M  V30 33765 H 3390 0.164552 -4.15574 0
M  V30 33766 H 3388.58 1.77328 -3.28038 0
M  V30 33767 N 3390.76 1.57444 0.0701393 0
M  V30 33768 C 3391.67 2.07159 1.10102 0
M  V30 33769 C 3392.69 1.00146 1.42291 0
M  V30 33770 O 3393.86 1.31627 1.52435 0
M  V30 33771 C 3390.93 2.50698 2.39481 0
M  V30 33772 C 3389.99 3.72016 2.14249 0
M  V30 33773 C 3389.22 4.1347 3.37459 0
M  V30 33774 O 3389.45 3.54781 4.46639 0
M  V30 33775 O 3388.38 5.06246 3.25574 0
M  V30 33776 H 3392.21 2.95316 0.708678 0
M  V30 33777 H 3389.79 1.46668 0.284384 0
M  V30 33778 H 3391.67 2.79217 3.1562 0
M  V30 33779 H 3390.35 1.65669 2.78092 0
M  V30 33780 H 3389.25 3.48578 1.3581 0
M  V30 33781 H 3390.59 4.57902 1.80517 0
M  V30 33782 N 3392.24 -0.341566 1.53854 0
M  V30 33783 C 3393.17 -1.44024 1.78297 0
M  V30 33784 C 3394.18 -1.48629 0.664329 0
M  V30 33785 O 3395.37 -1.51676 0.941099 0
M  V30 33786 C 3392.47 -2.8267 1.86952 0
M  V30 33787 C 3391.65 -3.01481 3.16904 0
M  V30 33788 C 3390.71 -4.20381 3.16491 0
M  V30 33789 O 3389.73 -4.14402 3.90204 0
M  V30 33790 N 3390.93 -5.29017 2.39 0
M  V30 33791 H 3393.7 -1.23426 2.73105 0
M  V30 33792 H 3391.26 -0.531456 1.52929 0
M  V30 33793 H 3393.25 -3.60389 1.84124 0
M  V30 33794 H 3391.82 -2.96402 0.993221 0
M  V30 33795 H 3391.04 -2.11215 3.32839 0
M  V30 33796 H 3392.33 -3.10933 4.02738 0
M  V30 33797 H 3391.73 -5.36745 1.78666 0
M  V30 33798 H 3390.28 -6.05223 2.41968 0
M  V30 33799 N 3393.72 -1.45621 -0.602683 0
M  V30 33800 C 3394.68 -1.54274 -1.69506 0
M  V30 33801 C 3395.68 -0.421755 -1.5517 0
M  V30 33802 O 3396.87 -0.685403 -1.6015 0
M  V30 33803 C 3394 -1.44397 -3.08808 0
M  V30 33804 H 3395.2 -2.51607 -1.63198 0
M  V30 33805 H 3392.75 -1.33135 -0.818834 0
M  V30 33806 H 3393.48 -0.482671 -3.20688 0
M  V30 33807 H 3393.27 -2.25709 -3.20621 0
M  V30 33808 H 3394.76 -1.53495 -3.88367 0
M  V30 33809 N 3395.2 0.845612 -1.32993 0
M  V30 33810 C 3396.61 1.41654 -1.21619 0
M  V30 33811 C 3396.96 1.95482 0.167652 0
M  V30 33812 O 3396.08 1.88272 1.06689 0
M  V30 33813 C 3396.68 2.57496 -2.20184 0
M  V30 33814 C 3395.24 3.10562 -2.1267 0
M  V30 33815 C 3394.38 1.83337 -2.08045 0
M  V30 33816 H 3397.33 0.651967 -1.4469 0
M  V30 33817 H 3397.36 3.34928 -1.80564 0
M  V30 33818 H 3396.87 2.18288 -3.20892 0
M  V30 33819 H 3394.97 3.54331 -1.15241 0
M  V30 33820 H 3395.08 3.71192 -3.02908 0
M  V30 33821 H 3393.45 2.03309 -1.53419 0
M  V30 33822 H 3394.23 1.46334 -3.1055 0
M  V30 33823 N 3396.67 1.16351 1.06302 0
M  V30 33824 C 3397.9 0.969162 1.82797 0
M  V30 33825 C 3398.32 -0.482627 1.82527 0
M  V30 33826 O 3397.67 -1.33496 1.24439 0
M  V30 33827 C 3397.72 1.4889 3.29415 0
M  V30 33828 O 3397.45 2.88383 3.29798 0
M  V30 33829 C 3398.95 1.33755 4.2264 0
M  V30 33830 H 3396.17 0.343547 0.576382 0
M  V30 33831 H 3398.71 1.54377 1.34119 0
M  V30 33832 H 3396.87 0.956575 3.75404 0
M  V30 33833 H 3397.28 3.12177 4.2148 0
M  V30 33834 H 3398.75 1.74951 5.23542 0
M  V30 33835 H 3399.23 0.283098 4.38287 0
M  V30 33836 H 3399.84 1.85949 3.82496 0
M  V30 33837 N 3398.15 -1.24835 0.961982 0
M  V30 33838 C 3399.06 -2.2932 0.494916 0
M  V30 33839 C 3400.08 -1.6831 -0.441333 0
M  V30 33840 O 3401.25 -1.98909 -0.315779 0
M  V30 33841 C 3398.32 -3.46046 -0.212883 0
M  V30 33842 C 3397.38 -4.22474 0.762485 0
M  V30 33843 C 3396.61 -5.33627 0.0883694 0
M  V30 33844 O 3396.84 -5.59206 -1.1245 0
M  V30 33845 O 3395.77 -5.96855 0.777634 0
M  V30 33846 H 3399.6 -2.71377 1.36338 0
M  V30 33847 H 3397.18 -1.3042 0.728761 0
M  V30 33848 H 3399.06 -4.16951 -0.610731 0
M  V30 33849 H 3397.74 -3.05977 -1.0564 0
M  V30 33850 H 3396.64 -3.53968 1.21068 0
M  V30 33851 H 3397.98 -4.66346 1.57424 0
M  V30 33852 N 3399.63 -0.731417 -1.396 0
M  V30 33853 C 3400.56 -0.0495376 -2.29146 0
M  V30 33854 C 3401.57 0.707222 -1.46636 0
M  V30 33855 O 3402.76 0.551979 -1.69751 0
M  V30 33856 C 3399.86 0.954095 -3.25193 0
M  V30 33857 C 3399.04 0.259598 -4.36629 0
M  V30 33858 C 3398.1 1.17083 -5.13009 0
M  V30 33859 O 3397.12 0.649661 -5.6548 0
M  V30 33860 N 3398.32 2.50083 -5.23869 0
M  V30 33861 H 3401.09 -0.818483 -2.88307 0
M  V30 33862 H 3398.65 -0.580343 -1.51141 0
M  V30 33863 H 3400.64 1.56622 -3.73164 0
M  V30 33864 H 3399.21 1.62428 -2.67088 0
M  V30 33865 H 3398.43 -0.532957 -3.90581 0
M  V30 33866 H 3399.72 -0.221843 -5.08316 0
M  V30 33867 H 3399.12 2.94905 -4.8275 0
M  V30 33868 H 3397.67 3.064 -5.75293 0
M  V30 33869 N 3401.11 1.50152 -0.478778 0
M  V30 33870 C 3402.52 1.59042 -0.133384 0
M  V30 33871 C 3402.72 1.48621 1.36067 0
M  V30 33872 O 3401.78 1.34866 2.13466 0
M  V30 33873 C 3403.09 2.92667 -0.690421 0
M  V30 33874 C 3404.64 3.0608 -0.654534 0
M  V30 33875 C 3405.12 4.42291 -1.18925 0
M  V30 33876 N 3406.61 4.48723 -1.14899 0
M  V30 33877 C 3407.34 5.52523 -1.53315 0
M  V30 33878 N 3406.84 6.63539 -1.99217 0
M  V30 33879 N 3408.63 5.43111 -1.4487 0
M  V30 33880 H 3400.78 1.55169 -1.4504 0
M  V30 33881 H 3403.05 0.733746 -0.600267 0
M  V30 33882 H 3402.75 3.05792 -1.73736 0
M  V30 33883 H 3402.63 3.76946 -0.138293 0
M  V30 33884 H 3405.01 2.92597 0.383512 0
M  V30 33885 H 3405.09 2.23538 -1.24356 0
M  V30 33886 H 3404.74 4.56523 -2.22597 0
M  V30 33887 H 3404.67 5.23436 -0.576372 0
M  V30 33888 H 3407.16 3.69064 -0.812409 0
M  V30 33889 H 3407.47 7.38814 -2.26658 0
M  V30 33890 H 3405.82 6.64639 -2.03175 0
M  V30 33891 H 3409.01 4.5527 -1.08844 0
M  V30 33892 H 3409.18 6.23885 -1.75134 0
M  V30 33893 N 3402.59 0.211689 1.56172 0
M  V30 33894 C 3404 -0.297949 1.84307 0
M  V30 33895 C 3404.35 -1.60192 1.13283 0
M  V30 33896 O 3403.47 -2.12687 0.399175 0
M  V30 33897 C 3404.07 -0.547369 3.34349 0
M  V30 33898 C 3402.63 -1.00134 3.62836 0
M  V30 33899 C 3401.77 -0.0589839 2.77237 0
M  V30 33900 H 3404.73 0.435109 1.52619 0
M  V30 33901 H 3404.75 -1.39463 3.5402 0
M  V30 33902 H 3404.26 0.401845 3.86014 0
M  V30 33903 H 3402.36 -1.96425 3.16619 0
M  V30 33904 H 3402.47 -0.882571 4.70901 0
M  V30 33905 H 3400.84 -0.563962 2.48378 0
M  V30 33906 H 3401.62 0.884971 3.31697 0
M  V30 33907 N 3404.06 -1.57479 -0.0617887 0
M  V30 33908 C 3405.31 -1.87365 -0.757536 0
M  V30 33909 C 3405.63 -0.805056 -1.77606 0
M  V30 33910 O 3404.9 0.165182 -1.95202 0
M  V30 33911 H 3403.48 -0.691413 -0.282768 0
M  V30 33912 H 3406.15 -1.94868 -0.0355011 0
M  V30 33913 H 3405.24 -2.85202 -1.26753 0
M  V30 33914 N 3405.54 0.333401 -1.54033 0
M  V30 33915 C 3406.79 1.07408 -1.72021 0
M  V30 33916 C 3407.12 1.87987 -0.487298 0
M  V30 33917 O 3406.4 1.87538 0.515724 0
M  V30 33918 C 3406.68 2.00692 -2.98989 0
M  V30 33919 C 3406.53 1.23509 -4.32511 0
M  V30 33920 C 3407.85 3.00362 -3.21668 0
M  V30 33921 H 3404.97 0.389083 -0.625926 0
M  V30 33922 H 3407.61 0.351664 -1.86717 0
M  V30 33923 H 3405.76 2.62293 -2.86591 0
M  V30 33924 H 3407.43 0.644442 -4.56776 0
M  V30 33925 H 3405.68 0.537222 -4.30461 0
M  V30 33926 H 3406.35 1.91953 -5.1755 0
M  V30 33927 H 3408.82 2.4888 -3.33464 0
M  V30 33928 H 3407.7 3.62827 -4.11884 0
M  V30 33929 H 3407.96 3.72291 -2.38436 0
M  V30 33930 N 3407.02 1.45939 0.594952 0
M  V30 33931 C 3407.95 1.51594 1.71906 0
M  V30 33932 C 3408.97 0.405443 1.57671 0
M  V30 33933 O 3410.15 0.673173 1.6532 0
M  V30 33934 C 3407.25 1.36856 3.10038 0
M  V30 33935 C 3406.43 2.61807 3.50394 0
M  V30 33936 C 3405.49 2.41443 4.67538 0
M  V30 33937 O 3404.51 3.15115 4.74016 0
M  V30 33938 N 3405.71 1.46818 5.61627 0
M  V30 33939 H 3408.48 2.48514 1.67513 0
M  V30 33940 H 3406.04 1.41839 0.780596 0
M  V30 33941 H 3408.03 1.21024 3.8618 0
M  V30 33942 H 3406.6 0.481644 3.08867 0
M  V30 33943 H 3405.82 2.92667 2.64083 0
M  V30 33944 H 3407.11 3.44837 3.74119 0
M  V30 33945 H 3406.51 0.860431 5.59118 0
M  V30 33946 H 3405.07 1.36953 6.3725 0
M  V30 33947 N 3408.5 -0.838547 1.3344 0
M  V30 33948 C 3409.41 -1.98046 1.25757 0
M  V30 33949 C 3410.42 -1.73186 0.168081 0
M  V30 33950 O 3411.6 -1.97554 0.391726 0
M  V30 33951 C 3408.67 -3.32049 0.997206 0
M  V30 33952 C 3407.73 -3.70023 2.17673 0
M  V30 33953 C 3406.96 -4.97631 1.92869 0
M  V30 33954 O 3407.18 -5.63584 0.879171 0
M  V30 33955 O 3406.12 -5.33116 2.79412 0
M  V30 33956 H 3409.94 -2.07468 2.2179 0
M  V30 33957 H 3407.53 -0.971625 1.13489 0
M  V30 33958 H 3409.41 -4.12339 0.869172 0
M  V30 33959 H 3408.08 -3.2363 0.0671605 0
M  V30 33960 H 3406.99 -2.90242 2.3603 0
M  V30 33961 H 3408.32 -3.83108 3.09013 0
M  V30 33962 N 3409.98 -1.16914 -1.05683 0
M  V30 33963 C 3411.22 -0.965214 -1.80175 0
M  V30 33964 C 3411.58 0.497665 -1.85438 0
M  V30 33965 O 3412.78 0.820495 -2.55971 0
M  V30 33966 C 3411.05 -1.58284 -3.20438 0
M  V30 33967 S 3412.61 -1.52443 -4.11469 0
M  V30 33968 H 3409.43 -0.346973 -0.620589 0
M  V30 33969 H 3412.03 -1.48769 -1.26838 0
M  V30 33970 H 3410.74 -2.64012 -3.14207 0
M  V30 33971 H 3410.27 -1.05995 -3.78852 0
M  V30 33972 H 3412.28 -0.528962 -4.93373 0
M  V30 33973 N 3411.45 1.24323 -0.968589 0
M  V30 33974 C 3412.68 1.96186 -0.647662 0
M  V30 33975 C 3413.09 1.72044 0.787237 0
M  V30 33976 O 3412.44 1.00158 1.53994 0
M  V30 33977 C 3412.5 3.49462 -0.843579 0
M  V30 33978 C 3412.16 3.97304 -2.25829 0
M  V30 33979 C 3413.16 4.06907 -3.23609 0
M  V30 33980 C 3410.84 4.30604 -2.58622 0
M  V30 33981 C 3412.84 4.49146 -4.52268 0
M  V30 33982 C 3410.52 4.72527 -3.87507 0
M  V30 33983 C 3411.52 4.81763 -4.84142 0
M  V30 33984 O 3411.21 5.22749 -6.10728 0
M  V30 33985 H 3410.94 0.631742 -0.240579 0
M  V30 33986 H 3413.5 1.59084 -1.29929 0
M  V30 33987 H 3411.73 3.86465 -0.134784 0
M  V30 33988 H 3413.42 4.02535 -0.521604 0
M  V30 33989 H 3414.18 3.81397 -2.99603 0
M  V30 33990 H 3410.06 4.22634 -1.84123 0
M  V30 33991 H 3413.6 4.5627 -5.27697 0
M  V30 33992 H 3409.5 4.97485 -4.11314 0
M  V30 33993 H 3410.27 5.40896 -6.14308 0
M  V30 33994 N 3412.93 0.73881 1.3921 0
M  V30 33995 C 3413.88 0.0773187 2.27869 0
M  V30 33996 C 3414.87 -0.708658 1.44454 0
M  V30 33997 O 3416.06 -0.577041 1.6733 0
M  V30 33998 C 3413.19 -0.826306 3.33207 0
M  V30 33999 C 3412.27 -0.0342744 4.24086 0
M  V30 34000 N 3412.66 0.994548 4.95926 0
M  V30 34001 C 3410.96 -0.263351 4.45222 0
M  V30 34002 C 3411.66 1.47248 5.62755 0
M  V30 34003 N 3410.64 0.7904 5.37823 0
M  V30 34004 H 3414.44 0.865496 2.80867 0
M  V30 34005 H 3411.96 0.573489 1.51937 0
M  V30 34006 H 3413.95 -1.31571 3.95594 0
M  V30 34007 H 3412.61 -1.6136 2.81768 0
M  V30 34008 H 3413.62 1.376 4.99286 0
M  V30 34009 H 3410.3 -1.02515 4.04718 0
M  V30 34010 H 3411.69 2.32864 6.30257 0
M  V30 34011 N 3414.41 -1.49895 0.486734 0
M  V30 34012 C 3415.66 -2.02003 -0.0626924 0
M  V30 34013 C 3415.98 -1.36969 -1.38797 0
M  V30 34014 O 3415.25 -0.520206 -1.88867 0
M  V30 34015 H 3413.83 -0.746542 -0.0261587 0
M  V30 34016 H 3416.49 -1.84067 0.640724 0
M  V30 34017 H 3415.59 -3.1144 -0.202801 0
M  V30 34018 N 3415.89 -0.219968 -1.56057 0
M  V30 34019 C 3416.84 0.707282 -2.21586 0
M  V30 34020 C 3417.83 1.20091 -1.19476 0
M  V30 34021 O 3419.04 1.16093 -1.37559 0
M  V30 34022 H 3415.41 0.246502 -0.710451 0
M  V30 34023 H 3417.38 0.131162 -2.98112 0
M  V30 34024 C 3416.13 1.90539 -2.90844 0
M  V30 34025 H 3415.46 1.53466 -3.69172 0
M  V30 34026 H 3416.9 2.532 -3.40096 0
M  V30 34027 C 3415.35 2.7598 -1.93227 0
M  V30 34028 O 3415.88 3.74686 -1.44822 0
M  V30 34029 N 3414.09 2.41983 -1.60912 0
M  V30 34030 H 3413.64 1.61771 -2.0047 0
M  V30 34031 H 3413.6 2.9943 -0.958587 0
M  V30 34032 N 3417.37 1.57509 0.0534363 0
M  V30 34033 C 3418.62 1.87765 0.747589 0
M  V30 34034 C 3418.94 0.814464 1.77176 0
M  V30 34035 O 3418.21 -0.154828 1.95287 0
M  V30 34036 H 3416.79 0.692902 0.279097 0
M  V30 34037 H 3419.45 1.94884 0.0251663 0
M  V30 34038 H 3418.54 2.8587 1.25239 0
M  V30 34039 N 3418.85 -0.325228 1.54208 0
M  V30 34040 C 3419.78 -1.42124 1.79815 0
M  V30 34041 C 3420.79 -1.47916 0.680056 0
M  V30 34042 O 3421.98 -1.50669 0.957134 0
M  V30 34043 C 3419.08 -2.80671 1.8994 0
M  V30 34044 C 3418.25 -2.98103 3.20084 0
M  V30 34045 C 3417.31 -4.17 3.20932 0
M  V30 34046 O 3416.34 -4.1024 3.94578 0
M  V30 34047 N 3417.54 -5.26453 2.44597 0
M  V30 34048 H 3420.3 -1.20522 2.74398 0
M  V30 34049 H 3417.87 -0.515206 1.53484 0
M  V30 34050 H 3419.86 -3.58416 1.87937 0
M  V30 34051 H 3418.43 -2.95331 1.0246 0
M  V30 34052 H 3417.65 -2.07673 3.35061 0
M  V30 34053 H 3418.94 -3.06644 4.06013 0
M  V30 34054 H 3418.33 -5.3482 1.84349 0
M  V30 34055 H 3416.89 -6.02623 2.48373 0
M  V30 34056 N 3420.32 -1.46252 -0.587204 0
M  V30 34057 C 3421.55 -1.55129 -1.37658 0
M  V30 34058 C 3421.97 -0.191522 -1.87122 0
M  V30 34059 O 3421.33 0.827548 -1.61311 0
M  V30 34060 C 3421.38 -2.55644 -2.54319 0
M  V30 34061 O 3420.48 -2.08836 -3.55614 0
M  V30 34062 H 3419.82 -0.522185 -0.410145 0
M  V30 34063 H 3422.35 -1.91786 -0.712705 0
M  V30 34064 H 3422.36 -2.75108 -3.01296 0
M  V30 34065 H 3421.04 -3.54391 -2.17669 0
M  V30 34066 H 3419.62 -1.9934 -3.15147 0
M  V30 34067 N 3421.8 0.831459 -1.33883 0
M  V30 34068 C 3423.03 1.61674 -1.28628 0
M  V30 34069 C 3423.44 1.88655 0.143555 0
M  V30 34070 O 3422.78 1.47241 1.09844 0
M  V30 34071 C 3422.84 2.98713 -2.00027 0
M  V30 34072 C 3422.51 2.94667 -3.49314 0
M  V30 34073 C 3423.51 2.69856 -4.4438 0
M  V30 34074 C 3421.19 3.14569 -3.91601 0
M  V30 34075 C 3423.18 2.64985 -5.79708 0
M  V30 34076 C 3420.87 3.09324 -5.27031 0
M  V30 34077 C 3421.87 2.84564 -6.20897 0
M  V30 34078 O 3421.56 2.79235 -7.53846 0
M  V30 34079 H 3421.29 0.509532 -0.444244 0
M  V30 34080 H 3423.84 1.04322 -1.76935 0
M  V30 34081 H 3422.07 3.57948 -1.46322 0
M  V30 34082 H 3423.76 3.59646 -1.88175 0
M  V30 34083 H 3424.53 2.54224 -4.13032 0
M  V30 34084 H 3420.41 3.3286 -3.18944 0
M  V30 34085 H 3423.95 2.45579 -6.52945 0
M  V30 34086 H 3419.85 3.24507 -5.58002 0
M  V30 34087 H 3420.62 2.95023 -7.63481 0
M  V30 34088 N 3423.28 1.17472 1.05062 0
M  V30 34089 C 3424.7 0.922271 1.30255 0
M  V30 34090 C 3424.9 -0.417861 1.9712 0
M  V30 34091 O 3423.95 -1.15454 2.24559 0
M  V30 34092 C 3425.26 2.08052 2.17105 0
M  V30 34093 C 3426.81 2.1177 2.30483 0
M  V30 34094 C 3427.29 3.26984 3.20695 0
M  V30 34095 N 3428.78 3.26781 3.28281 0
M  V30 34096 C 3429.51 4.12572 3.98211 0
M  V30 34097 N 3429.01 5.08476 4.70558 0
M  V30 34098 N 3430.8 4.00518 3.94388 0
M  V30 34099 H 3422.95 2.03731 0.600617 0
M  V30 34100 H 3425.22 0.889649 0.327459 0
M  V30 34101 H 3424.92 3.04917 1.75268 0
M  V30 34102 H 3424.8 2.03266 3.17746 0
M  V30 34103 H 3427.18 1.1549 2.71562 0
M  V30 34104 H 3427.26 2.20617 1.29467 0
M  V30 34105 H 3426.91 4.2353 2.8033 0
M  V30 34106 H 3426.84 3.15373 4.21719 0
M  V30 34107 H 3429.33 2.57345 2.76735 0
M  V30 34108 H 3429.64 5.7033 5.21482 0
M  V30 34109 H 3427.99 5.12444 4.69496 0
M  V30 34110 H 3431.18 3.24888 3.36995 0
M  V30 34111 H 3431.35 4.67596 4.48618 0
M  V30 34112 N 3424.76 -1.23807 0.975168 0
M  V30 34113 C 3426.01 -1.91702 0.639891 0
M  V30 34114 C 3426.33 -1.76523 -0.828526 0
M  V30 34115 O 3425.6 -1.14137 -1.59215 0
M  V30 34116 H 3424.18 -0.709509 0.23368 0
M  V30 34117 H 3426.84 -1.50543 1.23785 0
M  V30 34118 H 3425.93 -2.99231 0.886968 0
M  V30 34119 N 3426.24 -0.746182 -1.38816 0
M  V30 34120 C 3427.46 -0.309641 -2.0457 0
M  V30 34121 C 3427.88 1.05946 -1.56272 0
M  V30 34122 O 3427.24 1.67154 -0.73251 0
M  V30 34123 C 3427.29 -0.314906 -3.60126 0
M  V30 34124 O 3427.01 -1.62997 -4.06649 0
M  V30 34125 C 3428.51 0.13642 -4.4309 0
M  V30 34126 H 3425.73 -0.133453 -0.657595 0
M  V30 34127 H 3428.27 -1.01296 -1.77649 0
M  V30 34128 H 3426.43 0.339617 -3.85908 0
M  V30 34129 H 3426.84 -1.55111 -5.0104 0
M  V30 34130 H 3428.32 0.0815744 -5.5194 0
M  V30 34131 H 3428.79 1.18324 -4.22961 0
M  V30 34132 H 3429.4 -0.488953 -4.2248 0
M  V30 34133 N 3427.71 1.49635 -0.494676 0
M  V30 34134 C 3428.94 2.06542 0.0490054 0
M  V30 34135 C 3429.35 1.35602 1.31943 0
M  V30 34136 O 3428.69 0.426078 1.7869 0
M  V30 34137 C 3428.76 3.57493 0.379364 0
M  V30 34138 C 3428.42 4.50077 -0.792424 0
M  V30 34139 C 3429.42 4.91969 -1.68115 0
M  V30 34140 C 3427.1 4.92459 -0.989437 0
M  V30 34141 C 3429.1 5.74973 -2.75109 0
M  V30 34142 C 3426.78 5.7524 -2.06257 0
M  V30 34143 C 3427.78 6.16401 -2.94174 0
M  V30 34144 O 3427.47 6.97529 -3.99636 0
M  V30 34145 H 3427.2 0.675847 -0.0143827 0
M  V30 34146 H 3429.76 1.93485 -0.689392 0
M  V30 34147 H 3427.99 3.68535 1.17127 0
M  V30 34148 H 3429.67 3.96665 0.860909 0
M  V30 34149 H 3430.44 4.59877 -1.54073 0
M  V30 34150 H 3426.32 4.59926 -0.314516 0
M  V30 34151 H 3429.86 6.07021 -3.43761 0
M  V30 34152 H 3425.76 6.06745 -2.20296 0
M  V30 34153 H 3426.53 7.15824 -3.96911 0
M  V30 34154 N 3429.19 0.228241 1.55939 0
M  V30 34155 C 3430.42 -0.409328 2.03321 0
M  V30 34156 C 3430.84 -1.52086 1.10686 0
M  V30 34157 O 3430.2 -1.81044 0.0962802 0
M  V30 34158 C 3430.25 -0.91192 3.48879 0
M  V30 34159 O 3429.35 -2.02283 3.59382 0
M  V30 34160 H 3428.69 -0.0917793 0.657626 0
M  V30 34161 H 3431.22 0.348837 2.01604 0
M  V30 34162 H 3431.23 -1.22 3.89333 0
M  V30 34163 H 3429.91 -0.0984171 4.15784 0
M  V30 34164 H 3428.48 -1.72087 3.30818 0
M  V30 34165 N 3430.67 -1.57536 -0.0450825 0
M  V30 34166 C 3431.9 -1.92778 -0.751286 0
M  V30 34167 C 3432.31 -0.826628 -1.69742 0
M  V30 34168 O 3431.67 0.198192 -1.81421 0
M  V30 34169 C 3431.72 -3.27893 -1.52212 0
M  V30 34170 O 3431.44 -4.33776 -0.613982 0
M  V30 34171 C 3432.94 -3.77318 -2.32693 0
M  V30 34172 H 3430.16 -0.636596 -0.212099 0
M  V30 34173 H 3432.71 -2.04499 -0.00738146 0
M  V30 34174 H 3430.86 -3.17618 -2.21805 0
M  V30 34175 H 3431.28 -5.11673 -1.15285 0
M  V30 34176 H 3432.75 -4.74415 -2.82196 0
M  V30 34177 H 3433.23 -3.07687 -3.13409 0
M  V30 34178 H 3433.83 -3.90624 -1.68205 0
M  V30 34179 N 3432.15 0.317045 -1.54378 0
M  V30 34180 C 3433.38 1.07359 -1.76866 0
M  V30 34181 C 3433.79 1.81487 -0.520386 0
M  V30 34182 O 3433.15 1.75253 0.509182 0
M  V30 34183 C 3433.2 2.06663 -2.96602 0
M  V30 34184 O 3432.92 1.35544 -4.16604 0
M  V30 34185 C 3434.42 2.94483 -3.31353 0
M  V30 34186 H 3431.64 0.319073 -0.590283 0
M  V30 34187 H 3434.19 0.361192 -2.01285 0
M  V30 34188 H 3432.34 2.73427 -2.74438 0
M  V30 34189 H 3432.75 2.021 -4.84 0
M  V30 34190 H 3434.23 3.60044 -4.18417 0
M  V30 34191 H 3434.71 3.6193 -2.48803 0
M  V30 34192 H 3435.31 2.33271 -3.55619 0
M  V30 34193 N 3433.63 1.46561 0.57944 0
M  V30 34194 C 3434.87 1.52266 1.33951 0
M  V30 34195 C 3435.21 0.175123 1.93409 0
M  V30 34196 O 3434.48 -0.813819 1.76656 0
M  V30 34197 C 3434.76 2.62375 2.4664 0
M  V30 34198 C 3434.62 4.0667 1.92197 0
M  V30 34199 C 3435.94 2.68544 3.48672 0
M  V30 34200 H 3433.05 0.554325 0.485688 0
M  V30 34201 H 3435.7 1.78514 0.650608 0
M  V30 34202 H 3433.85 2.40125 3.05405 0
M  V30 34203 H 3435.52 4.40217 1.37864 0
M  V30 34204 H 3433.76 4.15995 1.23005 0
M  V30 34205 H 3434.43 4.79448 2.73557 0
M  V30 34206 H 3436.91 2.88554 2.99792 0
M  V30 34207 H 3435.78 3.47401 4.24975 0
M  V30 34208 H 3436.05 1.74724 4.06108 0
M  V30 34209 N 3435.1 -0.824347 1.34322 0
M  V30 34210 C 3436.33 -1.61223 1.29671 0
M  V30 34211 C 3436.75 -1.88355 -0.129499 0
M  V30 34212 O 3436.1 -1.47396 -1.07614 0
M  V30 34213 C 3436.16 -2.95398 2.0838 0
M  V30 34214 O 3435.88 -2.6945 3.45439 0
M  V30 34215 C 3437.38 -3.89804 2.1111 0
M  V30 34216 H 3434.6 -0.501193 0.446146 0
M  V30 34217 H 3437.14 -1.02576 1.76914 0
M  V30 34218 H 3435.3 -3.50607 1.64783 0
M  V30 34219 H 3435.71 -3.54995 3.86108 0
M  V30 34220 H 3437.18 -4.81119 2.70608 0
M  V30 34221 H 3437.66 -4.25069 1.10512 0
M  V30 34222 H 3438.27 -3.40532 2.5479 0
M  V30 34223 N 3436.58 -1.18028 -1.04437 0
M  V30 34224 C 3437.83 -0.971423 -1.77222 0
M  V30 34225 C 3438.15 0.50053 -1.88467 0
M  V30 34226 O 3437.42 1.36315 -1.40695 0
M  V30 34227 H 3436 -0.356433 -0.656479 0
M  V30 34228 H 3438.66 -1.48642 -1.26062 0
M  V30 34229 H 3437.76 -1.40625 -2.78623 0
M  V30 34230 N 3438.06 1.23288 -0.98172 0
M  V30 34231 C 3439.48 1.43887 -0.690565 0
M  V30 34232 C 3439.68 1.8731 0.742783 0
M  V30 34233 O 3438.73 2.01995 1.51506 0
M  V30 34234 C 3440.05 2.48945 -1.68662 0
M  V30 34235 C 3441.59 2.62758 -1.70081 0
M  V30 34236 C 3442.07 3.71027 -2.6852 0
M  V30 34237 N 3443.56 3.78471 -2.67046 0
M  V30 34238 C 3444.29 4.61809 -3.39883 0
M  V30 34239 N 3443.79 5.49226 -4.22283 0
M  V30 34240 N 3445.58 4.56017 -3.28641 0
M  V30 34241 H 3437.73 0.934043 -1.9076 0
M  V30 34242 H 3440 0.472134 -0.822066 0
M  V30 34243 H 3439.7 2.23959 -2.71174 0
M  V30 34244 H 3439.58 3.47355 -1.47051 0
M  V30 34245 H 3441.96 2.87094 -0.682723 0
M  V30 34246 H 3442.05 1.64659 -1.95757 0
M  V30 34247 H 3441.69 3.47439 -3.70471 0
M  V30 34248 H 3441.62 4.6867 -2.40117 0
M  V30 34249 H 3444.11 3.16002 -2.07246 0
M  V30 34250 H 3444.42 6.0981 -4.74713 0
M  V30 34251 H 3442.77 5.48845 -4.26373 0
M  V30 34252 H 3445.96 3.86744 -2.63717 0
M  V30 34253 H 3446.13 5.20736 -3.85666 0
M  V30 34254 N 3439.54 0.753533 1.38418 0
M  V30 34255 C 3440.77 0.320485 2.04403 0
M  V30 34256 C 3441.18 -1.05116 1.56832 0
M  V30 34257 O 3440.54 -1.66763 0.741364 0
M  V30 34258 C 3440.59 0.334 3.59954 0
M  V30 34259 O 3440.31 1.65151 4.05779 0
M  V30 34260 C 3441.81 -0.11292 4.43156 0
M  V30 34261 H 3439.03 0.136938 0.656878 0
M  V30 34262 H 3441.58 1.02237 1.7711 0
M  V30 34263 H 3439.73 -0.319147 3.86083 0
M  V30 34264 H 3440.14 1.57766 5.0021 0
M  V30 34265 H 3441.62 -0.0523025 5.51975 0
M  V30 34266 H 3442.1 -1.16079 4.23583 0
M  V30 34267 H 3442.7 0.511352 4.22215 0
M  V30 34268 N 3441.02 -1.49371 0.502605 0
M  V30 34269 C 3442.26 -2.04361 -0.0396898 0
M  V30 34270 C 3442.62 -1.37381 -1.34128 0
M  V30 34271 O 3443.82 -1.83102 -1.96792 0
M  V30 34272 C 3442.09 -3.56909 -0.187259 0
M  V30 34273 S 3443.65 -4.33443 -0.683571 0
M  V30 34274 H 3440.47 -0.710999 -0.00100884 0
M  V30 34275 H 3443.07 -1.83406 0.676937 0
M  V30 34276 H 3441.78 -4.03201 0.765326 0
M  V30 34277 H 3441.31 -3.82272 -0.929079 0
M  V30 34278 H 3443.32 -4.56172 -1.95247 0
M  V30 34279 N 3442.49 -0.236508 -1.55815 0
M  V30 34280 C 3443.43 0.699986 -2.18249 0
M  V30 34281 C 3444.44 1.14651 -1.15581 0
M  V30 34282 O 3445.63 1.07508 -1.42493 0
M  V30 34283 C 3442.73 1.96185 -2.76342 0
M  V30 34284 C 3441.9 1.66845 -4.04328 0
M  V30 34285 C 3440.96 2.77887 -4.46839 0
M  V30 34286 O 3439.99 2.45716 -5.13432 0
M  V30 34287 N 3441.19 4.07164 -4.13761 0
M  V30 34288 H 3443.95 0.165837 -2.99241 0
M  V30 34289 H 3441.51 -0.0560668 -1.61803 0
M  V30 34290 H 3443.51 2.6969 -3.01744 0
M  V30 34291 H 3442.08 2.40607 -1.99568 0
M  V30 34292 H 3441.3 0.769096 -3.86625 0
M  V30 34293 H 3442.58 1.44694 -4.87792 0
M  V30 34294 H 3441.98 4.36138 -3.60278 0
M  V30 34295 H 3440.54 4.77166 -4.44022 0
M  V30 34296 N 3443.97 1.57557 0.0367273 0
M  V30 34297 C 3444.94 2.05038 1.02431 0
M  V30 34298 C 3445.94 0.953169 1.29504 0
M  V30 34299 O 3447.13 1.21702 1.24636 0
M  V30 34300 C 3444.26 2.46083 2.35915 0
M  V30 34301 H 3445.45 2.9354 0.614333 0
M  V30 34302 H 3443 1.5371 0.283369 0
M  V30 34303 H 3443.74 1.60713 2.81677 0
M  V30 34304 H 3443.52 3.26181 2.17597 0
M  V30 34305 H 3445.01 2.83271 3.06834 0
M  V30 34306 N 3445.45 -0.308854 1.54544 0
M  V30 34307 C 3446.7 -1.0427 1.74641 0
M  V30 34308 C 3447.05 -1.85194 0.521616 0
M  V30 34309 O 3446.35 -1.85334 -0.485997 0
M  V30 34310 C 3446.54 -1.98621 2.97127 0
M  V30 34311 C 3446.37 -1.26976 4.31401 0
M  V30 34312 C 3445.14 -1.00016 4.95303 0
M  V30 34313 C 3447.34 -0.67818 5.09809 0
M  V30 34314 N 3445.32 -0.253161 6.13378 0
M  V30 34315 C 3446.69 -0.0635484 6.19967 0
M  V30 34316 C 3448.74 -0.582451 4.94481 0
M  V30 34317 C 3447.45 0.637542 7.16469 0
M  V30 34318 C 3449.47 0.104968 5.91307 0
M  V30 34319 C 3448.84 0.708483 7.00828 0
M  V30 34320 H 3444.93 -0.364748 0.691725 0
M  V30 34321 H 3447.52 -0.3222 1.92016 0
M  V30 34322 H 3445.69 -2.67929 2.81192 0
M  V30 34323 H 3447.42 -2.65099 3.05785 0
M  V30 34324 H 3444.18 -1.2963 4.55514 0
M  V30 34325 H 3444.6 0.106624 6.76916 0
M  V30 34326 H 3449.24 -1.03475 4.09942 0
M  V30 34327 H 3446.96 1.10164 8.00556 0
M  V30 34328 H 3450.55 0.178876 5.81525 0
M  V30 34329 H 3449.43 1.23195 7.74463 0
M  V30 34330 N 3446.93 -1.46867 -0.571659 0
M  V30 34331 C 3448.15 -1.5658 -1.36005 0
M  V30 34332 C 3448.58 -0.211358 -1.86909 0
M  V30 34333 O 3447.94 0.810392 -1.6218 0
M  V30 34334 C 3447.99 -2.58327 -2.51594 0
M  V30 34335 O 3447.09 -2.12596 -3.53379 0
M  V30 34336 H 3446.43 -0.526506 -0.404584 0
M  V30 34337 H 3448.96 -1.92531 -0.692323 0
M  V30 34338 H 3448.97 -2.78288 -2.98361 0
M  V30 34339 H 3447.65 -3.5668 -2.13898 0
M  V30 34340 H 3446.22 -2.02672 -3.13015 0
M  V30 34341 N 3448.41 0.817212 -1.34757 0
M  V30 34342 C 3449.63 1.61052 -1.30679 0
M  V30 34343 C 3450.06 1.87746 0.11531 0
M  V30 34344 O 3449.42 1.45707 1.07884 0
M  V30 34345 C 3449.46 2.92505 -2.10886 0
M  V30 34346 O 3448.57 3.8484 -1.4823 0
M  V30 34347 H 3447.91 0.4896 -0.44854 0
M  V30 34348 H 3450.44 1.01508 -1.77643 0
M  V30 34349 H 3450.45 3.42022 -2.22452 0
M  V30 34350 H 3449.12 2.724 -3.14278 0
M  V30 34351 H 3447.7 3.43368 -1.4544 0
M  V30 34352 N 3449.89 1.1858 1.0381 0
M  V30 34353 C 3450.82 0.858539 2.11434 0
M  V30 34354 C 3451.8 -0.180576 1.61594 0
M  V30 34355 O 3452.98 -0.0589619 1.88408 0
M  V30 34356 C 3450.11 0.283213 3.37514 0
M  V30 34357 C 3449.15 1.29992 4.06207 0
M  V30 34358 S 3449.99 2.85681 4.52931 0
M  V30 34359 C 3451.14 2.29667 5.82241 0
M  V30 34360 H 3451.38 1.77001 2.38868 0
M  V30 34361 H 3448.91 1.01194 1.16615 0
M  V30 34362 H 3450.87 -0.0422176 4.10478 0
M  V30 34363 H 3449.53 -0.606416 3.08191 0
M  V30 34364 H 3448.72 0.846297 4.96844 0
M  V30 34365 H 3448.32 1.57172 3.39372 0
M  V30 34366 H 3450.61 1.68086 6.56318 0
M  V30 34367 H 3451.56 3.18613 6.32369 0
M  V30 34368 H 3451.97 1.7259 5.37469 0
M  V30 34369 N 3451.36 -1.22766 0.988245 0
M  V30 34370 C 3452.59 -1.95414 0.679777 0
M  V30 34371 C 3453.01 -1.7306 -0.754701 0
M  V30 34372 O 3452.36 -1.02681 -1.50874 0
M  V30 34373 C 3452.41 -3.48232 0.970405 0
M  V30 34374 O 3452.14 -3.69833 2.34851 0
M  V30 34375 C 3453.64 -4.38069 0.678987 0
M  V30 34376 H 3450.86 -0.621939 0.251858 0
M  V30 34377 H 3453.4 -1.56044 1.32176 0
M  V30 34378 H 3451.56 -3.85587 0.374309 0
M  V30 34379 H 3451.97 -4.64068 2.4442 0
M  V30 34380 H 3453.44 -5.44064 0.932645 0
M  V30 34381 H 3453.92 -4.37492 -0.386996 0
M  V30 34382 H 3454.53 -4.06333 1.25592 0
M  V30 34383 N 3452.84 -0.760864 -1.38017 0
M  V30 34384 C 3454.25 -0.387054 -1.82644 0
M  V30 34385 C 3454.6 1.08533 -1.63447 0
M  V30 34386 O 3453.73 1.83961 -1.13961 0
M  V30 34387 C 3454.32 -0.695748 -3.31579 0
M  V30 34388 C 3452.88 -0.375129 -3.74526 0
M  V30 34389 C 3452.03 -0.945196 -2.60694 0
M  V30 34390 H 3454.98 -0.956419 -1.26643 0
M  V30 34391 H 3455 0.0234842 -3.80493 0
M  V30 34392 H 3454.51 -1.76743 -3.45519 0
M  V30 34393 H 3452.61 0.689677 -3.66161 0
M  V30 34394 H 3452.73 -0.875768 -4.71028 0
M  V30 34395 H 3451.09 -0.370109 -2.51997 0
M  V30 34396 H 3451.87 -2.02206 -2.77431 0
M  V30 34397 N 3454.32 1.49102 -0.510519 0
M  V30 34398 C 3455.27 2.26246 0.282258 0
M  V30 34399 C 3456.25 1.31501 0.927164 0
M  V30 34400 O 3457.45 1.56163 0.833188 0
M  V30 34401 C 3454.57 3.16051 1.3404 0
M  V30 34402 C 3453.66 4.18262 0.701261 0
M  V30 34403 N 3454.05 5.05398 -0.201682 0
M  V30 34404 C 3452.35 4.35529 0.960746 0
M  V30 34405 C 3453.05 5.78915 -0.568484 0
M  V30 34406 N 3452.03 5.4356 0.065859 0
M  V30 34407 H 3455.83 2.90988 -0.412691 0
M  V30 34408 H 3453.34 1.59069 -0.327228 0
M  V30 34409 H 3455.34 3.69958 1.92189 0
M  V30 34410 H 3454 2.52862 2.03693 0
M  V30 34411 H 3455.01 5.14719 -0.573094 0
M  V30 34412 H 3451.69 3.83541 1.64931 0
M  V30 34413 H 3453.08 6.59051 -1.30775 0
M  V30 34414 N 3455.8 0.244768 1.55688 0
M  V30 34415 C 3457.02 -0.38774 2.03743 0
M  V30 34416 C 3457.45 -1.50904 1.12293 0
M  V30 34417 O 3456.81 -1.80932 0.115477 0
M  V30 34418 C 3456.85 -0.874866 3.49826 0
M  V30 34419 O 3455.96 -1.9846 3.61507 0
M  V30 34420 H 3455.3 -0.0847992 0.658563 0
M  V30 34421 H 3457.83 0.3702 2.01223 0
M  V30 34422 H 3457.84 -1.17864 3.90605 0
M  V30 34423 H 3456.51 -0.0543121 4.15865 0
M  V30 34424 H 3455.09 -1.68568 3.32625 0
M  V30 34425 N 3457.28 -1.57574 -0.0283712 0
M  V30 34426 C 3458.23 -2.0307 -1.03665 0
M  V30 34427 C 3459.21 -0.920152 -1.31992 0
M  V30 34428 O 3460.4 -1.18404 -1.31566 0
M  V30 34429 C 3457.53 -2.51422 -2.33756 0
M  V30 34430 C 3456.62 -3.69299 -2.08516 0
M  V30 34431 N 3457.01 -4.81997 -1.53336 0
M  V30 34432 C 3455.31 -3.76686 -2.38797 0
M  V30 34433 C 3456.01 -5.63616 -1.43917 0
M  V30 34434 N 3454.98 -5.08753 -1.91498 0
M  V30 34435 H 3458.78 -2.87626 -0.604046 0
M  V30 34436 H 3456.3 -1.60696 -0.234661 0
M  V30 34437 H 3458.3 -2.82276 -3.06799 0
M  V30 34438 H 3456.96 -1.68273 -2.77695 0
M  V30 34439 H 3457.97 -5.03423 -1.21598 0
M  V30 34440 H 3454.64 -3.04338 -2.85805 0
M  V30 34441 H 3456.03 -6.64153 -1.01738 0
M  V30 34442 N 3458.75 0.300654 -1.54706 0
M  V30 34443 C 3459.98 1.0591 -1.7832 0
M  V30 34444 C 3460.4 1.80146 -0.541209 0
M  V30 34445 O 3459.76 1.7403 0.50826 0
M  V30 34446 C 3459.81 2.01506 -2.99045 0
M  V30 34447 O 3458.91 3.09814 -2.72194 0
M  V30 34448 H 3458.25 0.304232 -0.590203 0
M  V30 34449 H 3460.78 0.337971 -2.01789 0
M  V30 34450 H 3460.79 2.43965 -3.27024 0
M  V30 34451 H 3459.47 1.46879 -3.89101 0
M  V30 34452 H 3458.05 2.71866 -2.55232 0
M  V30 34453 N 3460.23 1.47168 0.563863 0
M  V30 34454 C 3461.65 1.32539 0.889133 0
M  V30 34455 C 3461.85 0.310889 1.99087 0
M  V30 34456 O 3460.9 -0.279936 2.50943 0
M  V30 34457 C 3462.22 2.71687 1.28866 0
M  V30 34458 C 3463.77 2.79922 1.40046 0
M  V30 34459 C 3464.24 4.19695 1.83357 0
M  V30 34460 N 3465.73 4.22205 1.90519 0
M  V30 34461 C 3466.47 5.27264 2.25345 0
M  V30 34462 N 3465.96 6.42633 2.58832 0
M  V30 34463 N 3467.76 5.14638 2.26062 0
M  V30 34464 H 3459.91 2.11769 -0.163619 0
M  V30 34465 H 3462.17 0.947941 -0.0105317 0
M  V30 34466 H 3461.88 3.47325 0.552996 0
M  V30 34467 H 3461.75 3.03025 2.24623 0
M  V30 34468 H 3464.14 2.0456 2.12695 0
M  V30 34469 H 3464.22 2.52246 0.424927 0
M  V30 34470 H 3463.86 4.95559 1.1128 0
M  V30 34471 H 3463.79 4.44791 2.81901 0
M  V30 34472 H 3466.28 3.38971 1.67053 0
M  V30 34473 H 3466.6 7.1856 2.84414 0
M  V30 34474 H 3464.94 6.45964 2.56428 0
M  V30 34475 H 3468.13 4.23536 1.99336 0
M  V30 34476 H 3468.3 5.96623 2.52874 0
M  V30 34477 N 3461.71 -0.810054 1.35188 0
M  V30 34478 C 3462.94 -1.59839 1.31374 0
M  V30 34479 C 3463.35 -1.88482 -0.109514 0
M  V30 34480 O 3462.71 -1.48529 -1.06045 0
M  V30 34481 C 3462.76 -2.93171 2.11502 0
M  V30 34482 O 3462.48 -2.65771 3.48277 0
M  V30 34483 C 3463.98 -3.87543 2.15233 0
M  V30 34484 H 3461.2 -0.496433 0.451437 0
M  V30 34485 H 3463.75 -1.00694 1.77992 0
M  V30 34486 H 3461.9 -3.4884 1.68493 0
M  V30 34487 H 3462.32 -3.50879 3.89851 0
M  V30 34488 H 3463.79 -4.78222 2.75696 0
M  V30 34489 H 3464.27 -4.23873 1.15015 0
M  V30 34490 H 3464.87 -3.3781 2.58388 0
M  V30 34491 N 3463.19 -1.19129 -1.0318 0
M  V30 34492 C 3464.6 -0.994916 -1.57982 0
M  V30 34493 C 3464.95 0.452985 -1.90899 0
M  V30 34494 O 3464.08 1.33188 -1.70558 0
M  V30 34495 C 3464.67 -1.79971 -2.87047 0
M  V30 34496 C 3463.23 -1.64743 -3.38433 0
M  V30 34497 C 3462.38 -1.78858 -2.11909 0
M  V30 34498 H 3465.33 -1.33543 -0.857435 0
M  V30 34499 H 3465.35 -1.29406 -3.57819 0
M  V30 34500 H 3464.86 -2.85346 -2.63057 0
M  V30 34501 H 3462.96 -0.619422 -3.67415 0
M  V30 34502 H 3463.07 -2.45096 -4.11661 0
M  V30 34503 H 3461.44 -1.2189 -2.2364 0
M  V30 34504 H 3462.22 -2.85686 -1.90364 0
M  V30 34505 N 3464.67 1.2224 -0.994741 0
M  V30 34506 C 3465.58 2.27927 -0.555542 0
M  V30 34507 C 3466.59 1.69421 0.396554 0
M  V30 34508 O 3467.77 1.99676 0.26293 0
M  V30 34509 C 3464.83 3.46489 0.12106 0
M  V30 34510 C 3463.89 4.20304 -0.874229 0
M  V30 34511 C 3463.13 5.33205 -0.22982 0
M  V30 34512 O 3463.35 5.61991 0.975836 0
M  V30 34513 O 3462.28 5.94584 -0.935606 0
M  V30 34514 H 3466.11 2.67667 -1.43485 0
M  V30 34515 H 3463.7 1.28442 -0.763084 0
M  V30 34516 H 3465.58 4.18424 0.49997 0
M  V30 34517 H 3464.25 3.0867 0.974905 0
M  V30 34518 H 3463.16 3.50634 -1.30411 0
M  V30 34519 H 3464.49 4.62008 -1.69733 0
M  V30 34520 N 3466.14 0.768172 1.37611 0
M  V30 34521 C 3467.37 0.341651 2.03756 0
M  V30 34522 C 3467.78 -1.03982 1.58065 0
M  V30 34523 O 3467.13 -1.67439 0.755638 0
M  V30 34524 C 3467.19 0.302095 3.58228 0
M  V30 34525 C 3466.85 1.62755 4.27036 0
M  V30 34526 C 3467.85 2.57936 4.51403 0
M  V30 34527 C 3465.53 1.901 4.64938 0
M  V30 34528 C 3467.53 3.78672 5.12725 0
M  V30 34529 C 3465.21 3.11107 5.25981 0
M  V30 34530 C 3466.21 4.05212 5.49811 0
M  V30 34531 O 3465.9 5.24089 6.09578 0
M  V30 34532 H 3465.63 0.141667 0.660989 0
M  V30 34533 H 3468.19 1.04214 1.76999 0
M  V30 34534 H 3466.42 -0.454744 3.84017 0
M  V30 34535 H 3468.11 -0.0968739 4.05784 0
M  V30 34536 H 3468.87 2.3809 4.22538 0
M  V30 34537 H 3464.75 1.17681 4.45726 0
M  V30 34538 H 3468.29 4.52138 5.31241 0
M  V30 34539 H 3464.19 3.3084 5.5427 0
M  V30 34540 H 3464.96 5.24866 6.28059 0
M  V30 34541 N 3467.62 -1.48829 0.518419 0
M  V30 34542 C 3468.85 -2.06594 -0.0161402 0
M  V30 34543 C 3469.26 -1.37684 -1.29769 0
M  V30 34544 O 3468.6 -0.454453 -1.7799 0
M  V30 34545 C 3468.67 -3.58051 -0.322442 0
M  V30 34546 C 3468.33 -4.4876 0.863927 0
M  V30 34547 C 3469.33 -4.89232 1.7592 0
M  V30 34548 C 3467.01 -4.90822 1.06766 0
M  V30 34549 C 3469.01 -5.70523 2.84221 0
M  V30 34550 C 3466.69 -5.71886 2.15382 0
M  V30 34551 C 3467.69 -6.11643 3.03943 0
M  V30 34552 O 3467.38 -6.91083 4.10682 0
M  V30 34553 H 3467.11 -0.675533 0.025133 0
M  V30 34554 H 3469.66 -1.92364 0.720086 0
M  V30 34555 H 3467.89 -3.70352 -1.11249 0
M  V30 34556 H 3469.58 -3.97984 -0.797694 0
M  V30 34557 H 3470.35 -4.57367 1.6137 0
M  V30 34558 H 3466.23 -4.59367 0.387647 0
M  V30 34559 H 3469.77 -6.01475 3.53375 0
M  V30 34560 H 3465.67 -6.03164 2.29921 0
M  V30 34561 H 3466.44 -7.09419 4.08249 0
M  V30 34562 N 3469.1 -0.253021 -1.55556 0
M  V30 34563 C 3470.51 0.248979 -1.85032 0
M  V30 34564 C 3470.86 1.57132 -1.17491 0
M  V30 34565 O 3469.99 2.11553 -0.455424 0
M  V30 34566 C 3470.58 0.45853 -3.35683 0
M  V30 34567 C 3469.14 0.904786 -3.65364 0
M  V30 34568 C 3468.29 -0.0145414 -2.77296 0
M  V30 34569 H 3471.24 -0.475421 -1.51411 0
M  V30 34570 H 3471.26 1.30028 -3.57593 0
M  V30 34571 H 3470.77 -0.504049 -3.84813 0
M  V30 34572 H 3468.87 1.87962 -3.21716 0
M  V30 34573 H 3468.99 0.757409 -4.73075 0
M  V30 34574 H 3467.35 0.49791 -2.49786 0
M  V30 34575 H 3468.13 -0.972604 -3.29234 0
M  V30 34576 N 3470.58 1.57587 0.0200142 0
M  V30 34577 C 3471.53 2.08246 1.03616 0
M  V30 34578 C 3472.52 0.998143 1.3687 0
M  V30 34579 O 3473.73 1.18296 1.35669 0
M  V30 34580 H 3470.1 0.664679 0.351719 0
M  V30 34581 H 3472.07 2.92646 0.583174 0
M  V30 34582 C 3470.82 2.5847 2.32569 0
M  V30 34583 H 3470.14 3.41527 2.07844 0
M  V30 34584 H 3471.58 2.97616 3.01994 0
M  V30 34585 C 3470.04 1.48991 3.02164 0
M  V30 34586 O 3470.57 0.86132 3.92357 0
M  V30 34587 N 3468.78 1.22224 2.63647 0
M  V30 34588 H 3468.33 1.73525 1.90386 0
M  V30 34589 H 3468.28 0.491883 3.10528 0
M  V30 34590 N 3472.06 -0.292445 1.54863 0
M  V30 34591 C 3473.02 -1.3441 1.85652 0
M  V30 34592 C 3474.02 -1.4328 0.729894 0
M  V30 34593 O 3475.21 -1.42767 0.998153 0
M  V30 34594 C 3472.34 -2.72791 2.04445 0
M  V30 34595 H 3473.53 -1.08349 2.79644 0
M  V30 34596 H 3471.09 -0.529548 1.47056 0
M  V30 34597 H 3471.82 -3.04062 1.1277 0
M  V30 34598 H 3471.61 -2.67742 2.86456 0
M  V30 34599 H 3473.1 -3.48813 2.29606 0
M  V30 34600 N 3473.53 -1.47465 -0.55605 0
M  V30 34601 C 3474.78 -1.53845 -1.31058 0
M  V30 34602 C 3475.1 -0.20284 -1.93942 0
M  V30 34603 O 3474.37 0.773306 -1.79991 0
M  V30 34604 H 3472.95 -0.566697 -0.486686 0
M  V30 34605 H 3475.62 -1.8377 -0.649208 0
M  V30 34606 H 3474.71 -2.30563 -2.1035 0
M  V30 34607 N 3475.01 0.802873 -1.35616 0
M  V30 34608 C 3475.94 1.92944 -1.3151 0
M  V30 34609 C 3476.92 1.69048 -0.188872 0
M  V30 34610 O 3478.11 1.90357 -0.384418 0
M  V30 34611 C 3475.24 3.2975 -1.09007 0
M  V30 34612 C 3474.19 3.68137 -2.1831 0
M  V30 34613 C 3473.52 5.03145 -1.80967 0
M  V30 34614 C 3474.82 3.78126 -3.60303 0
M  V30 34615 H 3476.51 1.96638 -2.25774 0
M  V30 34616 H 3474.06 0.944666 -1.08683 0
M  V30 34617 H 3476.01 4.08167 -1.04773 0
M  V30 34618 H 3474.74 3.26408 -0.11189 0
M  V30 34619 H 3473.4 2.92007 -2.21647 0
M  V30 34620 H 3473.04 4.96311 -0.817582 0
M  V30 34621 H 3472.74 5.298 -2.54138 0
M  V30 34622 H 3474.27 5.83998 -1.78265 0
M  V30 34623 H 3475.68 4.46766 -3.59267 0
M  V30 34624 H 3474.08 4.16254 -4.32265 0
M  V30 34625 H 3475.15 2.79581 -3.96185 0
M  V30 34626 N 3476.49 1.19674 1.02547 0
M  V30 34627 C 3477.74 0.995762 1.75407 0
M  V30 34628 C 3478.05 -0.473829 1.89774 0
M  V30 34629 O 3479.26 -0.793717 2.59639 0
M  V30 34630 C 3477.72 1.73278 3.1544 0
M  V30 34631 C 3477.32 3.24271 3.09115 0
M  V30 34632 C 3479.07 1.61516 3.92572 0
M  V30 34633 C 3476.97 3.90548 4.44102 0
M  V30 34634 H 3475.9 0.368955 0.657562 0
M  V30 34635 H 3478.56 1.43205 1.14737 0
M  V30 34636 H 3476.94 1.22432 3.76598 0
M  V30 34637 H 3478.11 3.82262 2.57318 0
M  V30 34638 H 3476.43 3.36346 2.45479 0
M  V30 34639 H 3479.02 2.08381 4.92424 0
M  V30 34640 H 3479.37 0.569876 4.12381 0
M  V30 34641 H 3479.9 2.09727 3.38023 0
M  V30 34642 H 3476.64 4.95189 4.29497 0
M  V30 34643 H 3476.16 3.37346 4.95942 0
M  V30 34644 H 3477.84 3.94291 5.12975 0
M  V30 34645 N 3477.97 -1.21711 1.00121 0
M  V30 34646 C 3478.9 -2.22581 0.503295 0
M  V30 34647 C 3479.88 -1.56507 -0.440943 0
M  V30 34648 O 3481.06 -1.84941 -0.36455 0
M  V30 34649 C 3478.19 -3.37627 -0.269394 0
M  V30 34650 C 3477.24 -4.21939 0.622076 0
M  V30 34651 S 3478.07 -4.93358 2.08227 0
M  V30 34652 C 3479.23 -6.11838 1.31931 0
M  V30 34653 H 3479.46 -2.64471 1.35802 0
M  V30 34654 H 3476.99 -1.31518 0.808842 0
M  V30 34655 H 3478.95 -4.04328 -0.709142 0
M  V30 34656 H 3477.61 -2.94228 -1.0995 0
M  V30 34657 H 3476.8 -5.03993 0.0271062 0
M  V30 34658 H 3476.41 -3.60413 0.998939 0
M  V30 34659 H 3478.7 -6.74915 0.591235 0
M  V30 34660 H 3479.64 -6.75763 2.11542 0
M  V30 34661 H 3480.05 -5.58381 0.828942 0
M  V30 34662 N 3479.45 -0.775459 -1.37202 0
M  V30 34663 C 3480.4 -0.152092 -2.32102 0
M  V30 34664 C 3481.39 0.680779 -1.55119 0
M  V30 34665 O 3482.6 0.577425 -1.70487 0
M  V30 34666 H 3478.97 -0.0303985 -0.751385 0
M  V30 34667 H 3480.94 -0.968171 -2.82257 0
M  V30 34668 C 3479.69 0.709728 -3.40379 0
M  V30 34669 H 3479.01 0.0782176 -3.99723 0
M  V30 34670 H 3480.45 1.11281 -4.09136 0
M  V30 34671 C 3478.91 1.86195 -2.80772 0
M  V30 34672 O 3479.44 2.95766 -2.71818 0
M  V30 34673 N 3477.65 1.66372 -2.38262 0
M  V30 34674 H 3477.2 0.772487 -2.45745 0
M  V30 34675 H 3477.15 2.4363 -1.98725 0
M  V30 34676 N 3480.93 1.48552 -0.526305 0
M  V30 34677 C 3482.16 2.06599 0.0051838 0
M  V30 34678 C 3482.56 1.3837 1.29037 0
M  V30 34679 O 3481.91 0.463885 1.77746 0
M  V30 34680 C 3481.97 3.58217 0.303449 0
M  V30 34681 C 3481.63 4.48295 -0.887714 0
M  V30 34682 C 3482.63 4.88292 -1.78512 0
M  V30 34683 C 3480.31 4.90249 -1.09367 0
M  V30 34684 C 3482.31 5.69008 -2.87243 0
M  V30 34685 C 3480 5.70736 -2.18412 0
M  V30 34686 C 3480.99 6.10023 -3.07183 0
M  V30 34687 O 3480.68 6.88895 -4.14341 0
M  V30 34688 H 3480.41 0.67539 -0.0287152 0
M  V30 34689 H 3482.97 1.91979 -0.730278 0
M  V30 34690 H 3481.2 3.70937 1.09283 0
M  V30 34691 H 3482.89 3.98402 0.776577 0
M  V30 34692 H 3483.65 4.56505 -1.63793 0
M  V30 34693 H 3479.53 4.59155 -0.412003 0
M  V30 34694 H 3483.08 5.99592 -3.56559 0
M  V30 34695 H 3478.97 6.01936 -2.33116 0
M  V30 34696 H 3479.74 7.07244 -4.12006 0
M  V30 34697 N 3482.4 0.261267 1.55419 0
M  V30 34698 C 3483.64 -0.360813 2.0119 0
M  V30 34699 C 3484.01 -1.54078 1.1456 0
M  V30 34700 O 3485.21 -2.23156 1.4985 0
M  V30 34701 C 3483.48 -0.746618 3.49514 0
M  V30 34702 S 3485.04 -1.35719 4.17284 0
M  V30 34703 H 3481.86 -0.112891 0.70198 0
M  V30 34704 H 3484.46 0.379863 1.91774 0
M  V30 34705 H 3483.16 0.121244 4.10221 0
M  V30 34706 H 3482.69 -1.51911 3.62887 0
M  V30 34707 H 3484.71 -2.64605 4.1976 0
M  V30 34708 N 3483.88 -1.57596 -0.0116567 0
M  V30 34709 C 3485.3 -1.5531 -0.367575 0
M  V30 34710 C 3485.5 -0.98965 -1.75523 0
M  V30 34711 O 3484.55 -0.618332 -2.44812 0
M  V30 34712 C 3485.87 -2.9963 -0.253479 0
M  V30 34713 C 3487.41 -3.11263 -0.32928 0
M  V30 34714 C 3487.89 -4.57347 -0.24444 0
M  V30 34715 N 3489.38 -4.6221 -0.3027 0
M  V30 34716 C 3490.12 -5.72809 -0.260214 0
M  V30 34717 N 3489.61 -6.92594 -0.169002 0
M  V30 34718 N 3491.4 -5.61238 -0.311224 0
M  V30 34719 H 3483.56 -1.92565 0.896238 0
M  V30 34720 H 3485.82 -0.883982 0.342461 0
M  V30 34721 H 3485.52 -3.44647 0.7008 0
M  V30 34722 H 3485.4 -3.62573 -1.04023 0
M  V30 34723 H 3487.79 -2.66183 -1.274 0
M  V30 34724 H 3487.87 -2.51119 0.487128 0
M  V30 34725 H 3487.51 -5.03099 0.696685 0
M  V30 34726 H 3487.44 -5.15423 -1.07918 0
M  V30 34727 H 3489.93 -3.76035 -0.375001 0
M  V30 34728 H 3490.24 -7.72669 -0.14216 0
M  V30 34729 H 3488.59 -6.94869 -0.134797 0
M  V30 34730 H 3491.78 -4.6655 -0.380596 0
M  V30 34731 H 3491.95 -6.47418 -0.274647 0
M  V30 34732 N 3485.36 0.284228 -1.55016 0
M  V30 34733 C 3486.31 1.37099 -1.87901 0
M  V30 34734 C 3487.3 1.51682 -0.754258 0
M  V30 34735 O 3488.51 1.53599 -0.938467 0
M  V30 34736 H 3484.88 0.458291 -0.596216 0
M  V30 34737 H 3486.85 1.06608 -2.78706 0
M  V30 34738 C 3485.6 2.72652 -2.15769 0
M  V30 34739 H 3484.93 2.62219 -3.01797 0
M  V30 34740 H 3486.37 3.47663 -2.42707 0
M  V30 34741 C 3484.82 3.22885 -0.961617 0
M  V30 34742 O 3485.35 4.01248 -0.19056 0
M  V30 34743 N 3483.56 2.80421 -0.762388 0
M  V30 34744 H 3483.11 2.1681 -1.39108 0
M  V30 34745 H 3483.07 3.14379 0.0362929 0
M  V30 34746 N 3486.84 1.47758 0.548222 0
M  V30 34747 C 3488.25 1.48597 1.1303 0
M  V30 34748 C 3488.6 0.24561 1.94657 0
M  V30 34749 O 3487.72 -0.648776 2.06446 0
M  V30 34750 C 3488.32 2.69244 2.05653 0
M  V30 34751 C 3486.88 2.73014 2.59115 0
M  V30 34752 C 3486.03 2.41838 1.35682 0
M  V30 34753 H 3488.98 1.55138 0.33437 0
M  V30 34754 H 3489 2.46725 2.89667 0
M  V30 34755 H 3488.51 3.59503 1.46216 0
M  V30 34756 H 3486.61 1.86917 3.22324 0
M  V30 34757 H 3486.72 3.73952 2.99494 0
M  V30 34758 H 3485.09 1.92609 1.66655 0
M  V30 34759 H 3485.87 3.34316 0.780253 0
M  V30 34760 N 3488.32 -0.79567 1.3604 0
M  V30 34761 C 3489.59 -1.54093 1.20476 0
M  V30 34762 C 3489.97 -2.10036 -0.211654 0
M  V30 34763 O 3489.32 -1.93424 -1.21653 0
M  V30 34764 C 3489.53 -2.64083 2.28169 0
M  V30 34765 C 3490.88 -3.32132 2.64525 0
M  V30 34766 O 3491.9 -2.74362 2.27165 0
M  V30 34767 O 3490.76 -4.36521 3.28803 0
M  V30 34768 H 3487.86 -0.681351 0.468711 0
M  V30 34769 H 3490.4 -0.83469 1.47753 0
M  V30 34770 H 3489.17 -2.20695 3.23124 0
M  V30 34771 H 3488.8 -3.42333 2.02223 0
M  V30 34772 N 3489.79 -1.20217 -1.0191 0
M  V30 34773 C 3490.76 -0.950518 -2.08561 0
M  V30 34774 C 3491.76 0.0729377 -1.60634 0
M  V30 34775 O 3492.95 -0.162857 -1.73437 0
M  V30 34776 C 3490.08 -0.430513 -3.38171 0
M  V30 34777 H 3491.27 -1.89652 -2.32319 0
M  V30 34778 H 3488.83 -1.01719 -1.18672 0
M  V30 34779 H 3489.56 0.52107 -3.20086 0
M  V30 34780 H 3489.35 -1.16856 -3.74282 0
M  V30 34781 H 3490.84 -0.273854 -4.16701 0
M  V30 34782 N 3491.27 1.21178 -1.00765 0
M  V30 34783 C 3492.52 1.90596 -0.692884 0
M  V30 34784 C 3492.85 1.7808 0.774667 0
M  V30 34785 O 3492.13 1.15917 1.56184 0
M  V30 34786 C 3492.41 3.42306 -1.11798 0
M  V30 34787 C 3492.26 3.638 -2.64518 0
M  V30 34788 C 3493.58 4.34777 -0.68239 0
M  V30 34789 H 3490.7 0.692145 -0.253187 0
M  V30 34790 H 3493.34 1.42758 -1.2538 0
M  V30 34791 H 3491.49 3.8318 -0.640732 0
M  V30 34792 H 3493.16 3.32236 -3.20026 0
M  V30 34793 H 3491.41 3.07575 -3.05908 0
M  V30 34794 H 3492.08 4.70108 -2.89314 0
M  V30 34795 H 3494.55 4.01501 -1.09254 0
M  V30 34796 H 3493.43 5.39566 -1.00796 0
M  V30 34797 H 3493.69 4.40135 0.416364 0
M  V30 34798 N 3492.75 0.782725 1.36789 0
M  V30 34799 C 3493.71 0.182566 2.28472 0
M  V30 34800 C 3494.71 -0.616191 1.48525 0
M  V30 34801 O 3495.9 -0.438168 1.68599 0
M  V30 34802 C 3493.04 -0.748143 3.32589 0
M  V30 34803 H 3494.23 0.990899 2.83057 0
M  V30 34804 H 3491.78 0.551684 1.4624 0
M  V30 34805 H 3492.52 -1.58107 2.83148 0
M  V30 34806 H 3492.3 -0.177412 3.91698 0
M  V30 34807 H 3493.79 -1.16314 4.01075 0
M  V30 34808 N 3494.23 -1.48271 0.534176 0
M  V30 34809 C 3495.19 -2.28184 -0.215601 0
M  V30 34810 C 3496.19 -1.3562 -0.863942 0
M  V30 34811 O 3497.38 -1.58472 -0.723347 0
M  V30 34812 C 3494.51 -3.14623 -1.31246 0
M  V30 34813 H 3495.71 -2.95935 0.486066 0
M  V30 34814 H 3493.26 -1.53581 0.290264 0
M  V30 34815 H 3493.99 -2.51512 -2.04725 0
M  V30 34816 H 3493.78 -3.82717 -0.852639 0
M  V30 34817 H 3495.27 -3.74892 -1.83972 0
M  V30 34818 N 3495.71 -0.269505 -1.55279 0
M  V30 34819 C 3497.12 0.229339 -1.85286 0
M  V30 34820 C 3497.47 1.55877 -1.19151 0
M  V30 34821 O 3496.59 2.11058 -0.477837 0
M  V30 34822 C 3497.19 0.422901 -3.3615 0
M  V30 34823 C 3495.75 0.865983 -3.66303 0
M  V30 34824 C 3494.89 -0.0439516 -2.77265 0
M  V30 34825 H 3497.85 -0.491453 -1.50899 0
M  V30 34826 H 3497.87 1.26228 -3.58952 0
M  V30 34827 H 3497.38 -0.544835 -3.84257 0
M  V30 34828 H 3495.48 1.84539 -3.23691 0
M  V30 34829 H 3495.59 0.707191 -4.73852 0
M  V30 34830 H 3493.96 0.471389 -2.503 0
M  V30 34831 H 3494.74 -1.00747 -3.28184 0
M  V30 34832 N 3497.18 1.576 0.00329885 0
M  V30 34833 C 3498.41 1.9442 0.698896 0
M  V30 34834 C 3498.82 0.869829 1.6802 0
M  V30 34835 O 3498.17 -0.160161 1.83 0
M  V30 34836 C 3498.23 3.27207 1.48915 0
M  V30 34837 C 3497.89 4.52065 0.669794 0
M  V30 34838 C 3498.89 5.19884 -0.0411071 0
M  V30 34839 C 3496.57 4.98499 0.616737 0
M  V30 34840 C 3498.57 6.32434 -0.794087 0
M  V30 34841 C 3496.25 6.1094 -0.139971 0
M  V30 34842 C 3497.25 6.77764 -0.84412 0
M  V30 34843 O 3496.94 7.8805 -1.58849 0
M  V30 34844 H 3496.67 0.645789 0.199832 0
M  V30 34845 H 3499.23 2.05355 -0.0429395 0
M  V30 34846 H 3497.46 3.12671 2.27539 0
M  V30 34847 H 3499.15 3.49164 2.06977 0
M  V30 34848 H 3499.91 4.84999 -0.00924806 0
M  V30 34849 H 3495.79 4.46314 1.15434 0
M  V30 34850 H 3499.33 6.84526 -1.34423 0
M  V30 34851 H 3495.23 6.45266 -0.173663 0
M  V30 34852 H 3496 8.04547 -1.50485 0
M  V30 34853 N 3498.66 -0.276003 1.55164 0
M  V30 34854 C 3499.9 -1.01569 1.77378 0
M  V30 34855 C 3500.27 -1.83608 0.561452 0
M  V30 34856 O 3501.47 -2.60526 0.66179 0
M  V30 34857 C 3499.74 -1.87733 3.04124 0
M  V30 34858 S 3501.3 -2.68007 3.47444 0
M  V30 34859 H 3498.12 -0.342142 0.623266 0
M  V30 34860 H 3500.72 -0.286422 1.9339 0
M  V30 34861 H 3499.42 -1.26382 3.90456 0
M  V30 34862 H 3498.95 -2.64985 2.90769 0
M  V30 34863 H 3500.97 -3.90235 3.06481 0
M  V30 34864 N 3500.14 -1.48046 -0.540378 0
M  V30 34865 C 3501.37 -1.58947 -1.31983 0
M  V30 34866 C 3501.78 -0.244922 -1.87608 0
M  V30 34867 O 3501.12 0.774438 -1.66578 0
M  V30 34868 C 3501.18 -2.56839 -2.51543 0
M  V30 34869 C 3500.85 -4.0215 -2.17082 0
M  V30 34870 C 3501.84 -4.90142 -1.7337 0
M  V30 34871 C 3499.53 -4.47611 -2.27924 0
M  V30 34872 C 3501.52 -6.2162 -1.40953 0
M  V30 34873 C 3499.21 -5.79113 -1.95118 0
M  V30 34874 C 3500.21 -6.65939 -1.51703 0
M  V30 34875 O 3499.9 -7.94995 -1.19323 0
M  V30 34876 H 3499.63 -0.538978 -0.408018 0
M  V30 34877 H 3502.18 -1.94517 -0.659714 0
M  V30 34878 H 3500.41 -2.16369 -3.20501 0
M  V30 34879 H 3502.1 -2.57686 -3.13612 0
M  V30 34880 H 3502.87 -4.56261 -1.64473 0
M  V30 34881 H 3498.75 -3.80224 -2.60673 0
M  V30 34882 H 3502.29 -6.89346 -1.06993 0
M  V30 34883 H 3498.19 -6.12532 -2.03653 0
M  V30 34884 H 3498.96 -8.07653 -1.3281 0
M  V30 34885 N 3501.62 0.788444 -1.3646 0
M  V30 34886 C 3502.85 1.57729 -1.339 0
M  V30 34887 C 3503.26 1.88632 0.0795139 0
M  V30 34888 O 3502.62 1.50197 1.03668 0
M  V30 34889 C 3502.67 2.89769 -2.16139 0
M  V30 34890 O 3502.39 2.60197 -3.52462 0
M  V30 34891 C 3503.89 3.8407 -2.21371 0
M  V30 34892 H 3501.11 0.489189 -0.459277 0
M  V30 34893 H 3503.66 0.978494 -1.79571 0
M  V30 34894 H 3501.81 3.46115 -1.74021 0
M  V30 34895 H 3502.22 3.44633 -3.95384 0
M  V30 34896 H 3503.7 4.73775 -2.83269 0
M  V30 34897 H 3504.18 4.2199 -1.21743 0
M  V30 34898 H 3504.78 3.33657 -2.63729 0
M  V30 34899 N 3503.1 1.20755 1.01271 0
M  V30 34900 C 3504.51 0.963243 1.27255 0
M  V30 34901 C 3504.71 -0.354938 1.98349 0
M  V30 34902 O 3503.77 -1.08251 2.28118 0
M  V30 34903 C 3505.08 2.14854 2.10376 0
M  V30 34904 C 3506.63 2.18995 2.23629 0
M  V30 34905 C 3507.1 3.37022 3.1013 0
M  V30 34906 N 3508.6 3.3706 3.17718 0
M  V30 34907 C 3509.33 4.25032 3.84884 0
M  V30 34908 N 3508.83 5.23189 4.54143 0
M  V30 34909 N 3510.62 4.12862 3.81446 0
M  V30 34910 H 3502.77 2.05539 0.535498 0
M  V30 34911 H 3505.03 0.899616 0.29899 0
M  V30 34912 H 3504.74 3.10338 1.65478 0
M  V30 34913 H 3504.61 2.13272 3.11119 0
M  V30 34914 H 3507 1.24071 2.6775 0
M  V30 34915 H 3507.08 2.24624 1.22383 0
M  V30 34916 H 3506.73 4.32234 2.66714 0
M  V30 34917 H 3506.66 3.2863 4.11473 0
M  V30 34918 H 3509.15 2.66019 2.68407 0
M  V30 34919 H 3509.46 5.86632 5.03073 0
M  V30 34920 H 3507.8 5.27121 4.52955 0
M  V30 34921 H 3511 3.35445 3.26488 0
M  V30 34922 H 3511.17 4.81632 4.33515 0
M  V30 34923 N 3504.58 -1.20642 1.01406 0
M  V30 34924 C 3505.85 -1.8561 0.61712 0
M  V30 34925 C 3506.23 -1.90721 -0.904913 0
M  V30 34926 O 3505.58 -1.41318 -1.79559 0
M  V30 34927 C 3505.79 -3.25384 1.26199 0
M  V30 34928 C 3507.14 -4.01692 1.37583 0
M  V30 34929 O 3508.16 -3.34728 1.218 0
M  V30 34930 O 3507.02 -5.21607 1.63059 0
M  V30 34931 H 3504.12 -0.799208 0.212593 0
M  V30 34932 H 3506.66 -1.28252 1.11128 0
M  V30 34933 H 3505.43 -3.16415 2.30211 0
M  V30 34934 H 3505.06 -3.90371 0.754748 0
M  V30 34935 N 3506.05 -0.789968 -1.36372 0
M  V30 34936 C 3507.46 -0.425709 -1.81782 0
M  V30 34937 C 3507.82 1.05042 -1.65713 0
M  V30 34938 O 3506.94 1.81503 -1.17838 0
M  V30 34939 C 3507.54 -0.765924 -3.30029 0
M  V30 34940 C 3506.09 -0.454487 -3.73646 0
M  V30 34941 C 3505.24 -1.00028 -2.5863 0
M  V30 34942 H 3508.19 -0.983066 -1.24585 0
M  V30 34943 H 3508.21 -0.0572292 -3.80457 0
M  V30 34944 H 3507.73 -1.84032 -3.41692 0
M  V30 34945 H 3505.83 0.611853 -3.67542 0
M  V30 34946 H 3505.94 -0.975483 -4.69064 0
M  V30 34947 H 3504.3 -0.423478 -2.51155 0
M  V30 34948 H 3505.09 -2.08045 -2.73079 0
M  V30 34949 N 3507.53 1.47986 -0.542031 0
M  V30 34950 C 3508.78 2.02096 -0.0123228 0
M  V30 34951 C 3509.1 1.42026 1.33617 0
M  V30 34952 O 3508.37 0.589944 1.86806 0
M  V30 34953 H 3506.95 0.746998 -0.00156678 0
M  V30 34954 H 3509.61 1.81562 -0.708598 0
M  V30 34955 H 3508.71 3.11979 0.0870726 0
M  V30 34956 N 3509.01 0.277736 1.55133 0
M  V30 34957 C 3510.26 -0.338796 1.9995 0
M  V30 34958 C 3510.59 -1.55308 1.1659 0
M  V30 34959 O 3509.86 -1.93056 0.236605 0
M  V30 34960 C 3510.15 -0.718395 3.52861 0
M  V30 34961 C 3510 0.503411 4.46974 0
M  V30 34962 C 3511.32 -1.55384 4.11757 0
M  V30 34963 H 3508.44 -0.121669 0.726888 0
M  V30 34964 H 3511.08 0.385203 1.86054 0
M  V30 34965 H 3509.23 -1.33525 3.64833 0
M  V30 34966 H 3510.9 1.14196 4.46942 0
M  V30 34967 H 3509.14 1.14099 4.18526 0
M  V30 34968 H 3509.82 0.194009 5.51659 0
M  V30 34969 H 3512.29 -1.03286 4.03077 0
M  V30 34970 H 3511.17 -1.78826 5.18953 0
M  V30 34971 H 3511.43 -2.53571 3.62152 0
M  V30 34972 N 3510.49 -1.57599 0.00505908 0
M  V30 34973 C 3511.9 -1.55691 -0.351082 0
M  V30 34974 C 3512.1 -1.00821 -1.74463 0
M  V30 34975 O 3511.16 -0.644262 -2.44142 0
M  V30 34976 C 3512.47 -2.99882 -0.221685 0
M  V30 34977 C 3514.02 -3.11595 -0.296248 0
M  V30 34978 C 3514.5 -4.57581 -0.195918 0
M  V30 34979 N 3515.99 -4.62505 -0.25366 0
M  V30 34980 C 3516.72 -5.73053 -0.199445 0
M  V30 34981 N 3516.22 -6.92734 -0.0955335 0
M  V30 34982 N 3518.01 -5.61536 -0.25168 0
M  V30 34983 H 3510.16 -1.91604 0.916612 0
M  V30 34984 H 3512.42 -0.8803 0.351818 0
M  V30 34985 H 3512.13 -3.43885 0.737315 0
M  V30 34986 H 3512 -3.63656 -1.00171 0
M  V30 34987 H 3514.39 -2.67519 -1.2457 0
M  V30 34988 H 3514.47 -2.50588 0.513736 0
M  V30 34989 H 3514.12 -5.02332 0.750006 0
M  V30 34990 H 3514.05 -5.16539 -1.02446 0
M  V30 34991 H 3516.54 -3.76411 -0.335096 0
M  V30 34992 H 3516.85 -7.72777 -0.0601999 0
M  V30 34993 H 3515.2 -6.94973 -0.0610891 0
M  V30 34994 H 3518.39 -4.66928 -0.331091 0
M  V30 34995 H 3518.56 -6.47673 -0.205964 0
M  V30 34996 N 3511.97 0.267771 -1.55309 0
M  V30 34997 C 3513.21 0.996028 -1.77344 0
M  V30 34998 C 3513.57 1.83746 -0.570534 0
M  V30 34999 O 3512.86 1.86557 0.436688 0
M  V30 35000 C 3513.05 1.90673 -3.02289 0
M  V30 35001 C 3512.88 1.15493 -4.34616 0
M  V30 35002 C 3511.65 0.868489 -4.9778 0
M  V30 35003 C 3513.85 0.542775 -5.11428 0
M  V30 35004 N 3511.83 0.0904462 -6.13833 0
M  V30 35005 C 3513.2 -0.100847 -6.19918 0
M  V30 35006 C 3515.26 0.451143 -4.95852 0
M  V30 35007 C 3513.96 -0.827277 -7.14527 0
M  V30 35008 C 3515.99 -0.261706 -5.90821 0
M  V30 35009 C 3515.35 -0.894047 -6.98703 0
M  V30 35010 H 3511.45 0.34628 -0.701152 0
M  V30 35011 H 3514.03 0.271177 -1.92802 0
M  V30 35012 H 3512.2 2.60379 -2.88196 0
M  V30 35013 H 3513.94 2.56899 -3.12706 0
M  V30 35014 H 3510.69 1.17507 -4.58791 0
M  V30 35015 H 3511.11 -0.286058 -6.76395 0
M  V30 35016 H 3515.76 0.925701 -4.12542 0
M  V30 35017 H 3513.47 -1.3135 -7.97354 0
M  V30 35018 H 3517.06 -0.332994 -5.80846 0
M  V30 35019 H 3515.94 -1.43685 -7.70924 0
M  V30 35020 N 3513.44 1.48331 0.532519 0
M  V30 35021 C 3514.35 1.65342 1.6643 0
M  V30 35022 C 3515.37 0.535968 1.6554 0
M  V30 35023 O 3516.55 0.806711 1.84538 0
M  V30 35024 C 3513.61 1.68682 3.02898 0
M  V30 35025 C 3512.67 2.92036 3.14664 0
M  V30 35026 C 3511.9 2.95207 4.44622 0
M  V30 35027 O 3512.13 2.0686 5.31568 0
M  V30 35028 O 3511.06 3.87349 4.607 0
M  V30 35029 H 3514.89 2.61159 1.55016 0
M  V30 35030 H 3512.47 1.31702 0.705325 0
M  V30 35031 H 3514.35 1.73414 3.84065 0
M  V30 35032 H 3513.03 0.760382 3.14642 0
M  V30 35033 H 3511.94 2.92838 2.32802 0
M  V30 35034 H 3513.27 3.84056 3.07835 0
M  V30 35035 N 3514.92 -0.781196 1.36876 0
M  V30 35036 C 3516.15 -1.56789 1.3454 0
M  V30 35037 C 3516.56 -1.89057 -0.0734377 0
M  V30 35038 O 3515.9 -1.51216 -1.04304 0
M  V30 35039 C 3515.96 -2.91083 2.10976 0
M  V30 35040 C 3515.63 -2.815 3.6001 0
M  V30 35041 C 3516.63 -2.53177 4.54089 0
M  V30 35042 C 3514.31 -2.99819 4.03006 0
M  V30 35043 C 3516.3 -2.43287 5.89143 0
M  V30 35044 C 3513.99 -2.8955 5.38149 0
M  V30 35045 C 3514.99 -2.61323 6.3103 0
M  V30 35046 O 3514.68 -2.51064 7.6369 0
M  V30 35047 H 3514.41 -0.492693 0.462849 0
M  V30 35048 H 3516.96 -0.976837 1.80685 0
M  V30 35049 H 3515.19 -3.52271 1.59506 0
M  V30 35050 H 3516.88 -3.52414 2.01393 0
M  V30 35051 H 3517.65 -2.38719 4.22182 0
M  V30 35052 H 3513.53 -3.20793 3.31078 0
M  V30 35053 H 3517.07 -2.21176 6.61609 0
M  V30 35054 H 3512.97 -3.03573 5.69661 0
M  V30 35055 H 3513.74 -2.66484 7.73905 0
M  V30 35056 N 3516.4 -1.21291 -1.0063 0
M  V30 35057 C 3517.64 -1.04076 -1.75919 0
M  V30 35058 C 3518 0.418567 -1.87382 0
M  V30 35059 O 3519.2 0.711191 -2.59221 0
M  V30 35060 C 3517.48 -1.71733 -3.13437 0
M  V30 35061 S 3519.03 -1.69757 -4.04633 0
M  V30 35062 H 3515.85 -0.372982 -0.605314 0
M  V30 35063 H 3518.45 -1.54015 -1.20414 0
M  V30 35064 H 3517.16 -2.77101 -3.02726 0
M  V30 35065 H 3516.69 -1.21968 -3.74015 0
M  V30 35066 H 3518.7 -0.737742 -4.90685 0
M  V30 35067 N 3517.88 1.20103 -1.02045 0
M  V30 35068 C 3518.83 2.25062 -0.587371 0
M  V30 35069 C 3519.82 1.65179 0.375815 0
M  V30 35070 O 3521.03 1.78321 0.245316 0
M  V30 35071 H 3517.4 0.732148 -0.17165 0
M  V30 35072 H 3519.37 2.58915 -1.48344 0
M  V30 35073 C 3518.12 3.47657 0.0546282 0
M  V30 35074 H 3517.44 3.94017 -0.677526 0
M  V30 35075 H 3518.88 4.22785 0.320712 0
M  V30 35076 C 3517.34 3.10865 1.29863 0
M  V30 35077 O 3517.87 3.2275 2.39156 0
M  V30 35078 N 3516.08 2.65378 1.18419 0
M  V30 35079 H 3515.63 2.55907 0.29485 0
M  V30 35080 H 3515.58 2.41131 2.0175 0
M  V30 35081 N 3519.36 0.797189 1.35951 0
M  V30 35082 C 3520.29 0.215318 2.32505 0
M  V30 35083 C 3521.27 -0.654018 1.57024 0
M  V30 35084 O 3522.45 -0.586235 1.8514 0
M  V30 35085 C 3519.58 -0.644497 3.41268 0
M  V30 35086 C 3518.54 0.125576 4.27816 0
M  V30 35087 C 3517.86 -0.855335 5.27814 0
M  V30 35088 C 3519.16 1.31922 5.05365 0
M  V30 35089 H 3520.86 1.02198 2.81418 0
M  V30 35090 H 3518.4 0.492886 1.35302 0
M  V30 35091 H 3520.36 -1.06156 4.0781 0
M  V30 35092 H 3519.08 -1.48395 2.90941 0
M  V30 35093 H 3517.74 0.523703 3.6284 0
M  V30 35094 H 3517.39 -1.69003 4.73758 0
M  V30 35095 H 3517.09 -0.344463 5.86589 0
M  V30 35096 H 3518.61 -1.2708 5.97229 0
M  V30 35097 H 3520.02 0.977518 5.64905 0
M  V30 35098 H 3518.42 1.76392 5.7359 0
M  V30 35099 H 3519.49 2.11065 4.36554 0
M  V30 35100 N 3520.83 -1.47696 0.549872 0
M  V30 35101 C 3522.06 -2.06881 0.0277252 0
M  V30 35102 C 3522.48 -1.40361 -1.2627 0
M  V30 35103 O 3521.83 -0.497675 -1.75583 0
M  V30 35104 C 3521.89 -3.61055 -0.179228 0
M  V30 35105 O 3521.61 -4.25081 1.06009 0
M  V30 35106 C 3523.11 -4.37089 -0.739494 0
M  V30 35107 H 3520.33 -0.669652 0.0425134 0
M  V30 35108 H 3522.87 -1.89805 0.761192 0
M  V30 35109 H 3521.03 -3.7767 -0.862801 0
M  V30 35110 H 3521.44 -5.17514 0.853228 0
M  V30 35111 H 3522.91 -5.45669 -0.833626 0
M  V30 35112 H 3523.39 -4.0287 -1.74908 0
M  V30 35113 H 3524 -4.25201 -0.0918547 0
M  V30 35114 N 3522.31 -0.285959 -1.54984 0
M  V30 35115 C 3523.24 0.630197 -2.20366 0
M  V30 35116 C 3524.26 1.10916 -1.1917 0
M  V30 35117 O 3525.45 1.0292 -1.45841 0
M  V30 35118 C 3522.55 1.87294 -2.82443 0
M  V30 35119 C 3521.72 1.53898 -4.09432 0
M  V30 35120 C 3520.78 2.6353 -4.55454 0
M  V30 35121 O 3519.8 2.29258 -5.20989 0
M  V30 35122 N 3521.01 3.93794 -4.26505 0
M  V30 35123 H 3523.77 0.0705518 -2.99617 0
M  V30 35124 H 3521.33 -0.107515 -1.61543 0
M  V30 35125 H 3523.32 2.59954 -3.10171 0
M  V30 35126 H 3521.89 2.34136 -2.07121 0
M  V30 35127 H 3521.11 0.645705 -3.88876 0
M  V30 35128 H 3522.4 1.29102 -4.92148 0
M  V30 35129 H 3521.8 4.24455 -3.73971 0
M  V30 35130 H 3520.36 4.62799 -4.58978 0
M  V30 35131 N 3523.79 1.57594 -0.0134169 0
M  V30 35132 C 3525.03 1.93005 0.672944 0
M  V30 35133 C 3525.39 0.888846 1.70187 0
M  V30 35134 O 3526.6 1.12863 2.43958 0
M  V30 35135 C 3524.87 3.33409 1.28737 0
M  V30 35136 S 3526.43 3.90725 1.99699 0
M  V30 35137 H 3523.24 0.675466 0.22196 0
M  V30 35138 H 3525.85 1.95362 -0.0733214 0
M  V30 35139 H 3524.55 4.07017 0.52586 0
M  V30 35140 H 3524.08 3.34457 2.07128 0
M  V30 35141 H 3526.1 3.72887 3.27368 0
M  V30 35142 N 3525.27 -0.259531 1.55448 0
M  V30 35143 C 3526.49 -1.01145 1.81065 0
M  V30 35144 C 3526.92 -1.78648 0.588781 0
M  V30 35145 O 3526.28 -1.75316 -0.46194 0
M  V30 35146 C 3526.32 -1.93506 3.04282 0
M  V30 35147 O 3525.43 -3.02488 2.80312 0
M  V30 35148 H 3524.77 -0.288476 0.598061 0
M  V30 35149 H 3527.3 -0.284351 2.02614 0
M  V30 35150 H 3527.31 -2.35209 3.33378 0
M  V30 35151 H 3525.98 -1.36511 3.92858 0
M  V30 35152 H 3524.56 -2.65004 2.6235 0
M  V30 35153 N 3526.75 -1.48611 -0.524645 0
M  V30 35154 C 3528.02 -1.47391 -1.28589 0
M  V30 35155 C 3528.4 -0.188519 -2.10257 0
M  V30 35156 O 3527.75 0.829651 -2.12906 0
M  V30 35157 C 3527.96 -2.73906 -2.16279 0
M  V30 35158 C 3529.31 -3.2245 -2.76245 0
M  V30 35159 O 3530.33 -2.7486 -2.26563 0
M  V30 35160 O 3529.19 -4.05273 -3.66627 0
M  V30 35161 H 3526.29 -0.58887 -0.580655 0
M  V30 35162 H 3528.83 -1.6085 -0.54086 0
M  V30 35163 H 3527.6 -3.58967 -1.55751 0
M  V30 35164 H 3527.23 -2.63193 -2.98019 0
M  V30 35165 N 3528.22 0.773926 -1.37289 0
M  V30 35166 C 3529.19 1.86876 -1.32703 0
M  V30 35167 C 3530.19 1.59125 -0.231514 0
M  V30 35168 O 3531.38 1.67247 -0.487232 0
M  V30 35169 C 3528.51 3.2397 -1.06096 0
M  V30 35170 H 3529.7 1.92355 -2.30086 0
M  V30 35171 H 3527.26 0.973438 -1.22286 0
M  V30 35172 H 3527.99 3.24168 -0.0923438 0
M  V30 35173 H 3527.78 3.45504 -1.85389 0
M  V30 35174 H 3529.27 4.04046 -1.05531 0
M  V30 35175 N 3529.7 1.21823 0.99985 0
M  V30 35176 C 3530.61 0.998267 2.12301 0
M  V30 35177 C 3531.63 -0.0512617 1.73924 0
M  V30 35178 O 3532.8 0.139931 2.00913 0
M  V30 35179 C 3529.87 0.571292 3.41961 0
M  V30 35180 C 3528.93 1.69363 3.9448 0
M  V30 35181 C 3528.16 1.28694 5.17951 0
M  V30 35182 O 3528.39 0.162741 5.70168 0
M  V30 35183 O 3527.32 2.10081 5.64048 0
M  V30 35184 H 3531.15 1.93909 2.33737 0
M  V30 35185 H 3528.73 1.00356 1.10676 0
M  V30 35186 H 3530.61 0.343208 4.2 0
M  V30 35187 H 3529.29 -0.340758 3.21901 0
M  V30 35188 H 3528.2 1.97617 3.17645 0
M  V30 35189 H 3529.53 2.5833 4.18959 0
M  V30 35190 N 3531.18 -1.1956 1.0268 0
M  V30 35191 C 3532.43 -1.88816 0.720623 0
M  V30 35192 C 3532.75 -1.79878 -0.752911 0
M  V30 35193 O 3532.02 -1.20787 -1.54231 0
M  V30 35194 H 3530.6 -0.698959 0.263562 0
M  V30 35195 H 3533.26 -1.45158 1.30059 0
M  V30 35196 H 3532.36 -2.952 1.01308 0
M  V30 35197 N 3532.66 -0.804387 -1.35526 0
M  V30 35198 C 3533.89 -0.396127 -2.03073 0
M  V30 35199 C 3534.3 0.992224 -1.60625 0
M  V30 35200 O 3533.66 1.63897 -0.802746 0
M  V30 35201 C 3533.71 -0.467364 -3.58466 0
M  V30 35202 O 3533.43 -1.80098 -3.9937 0
M  V30 35203 C 3534.93 -0.0516328 -4.4327 0
M  V30 35204 H 3532.15 -0.161224 -0.651343 0
M  V30 35205 H 3534.7 -1.0874 -1.73193 0
M  V30 35206 H 3532.85 0.175635 -3.87002 0
M  V30 35207 H 3533.26 -1.76223 -4.9401 0
M  V30 35208 H 3534.74 -0.152596 -5.51789 0
M  V30 35209 H 3535.22 1.00278 -4.27599 0
M  V30 35210 H 3535.82 -0.667702 -4.20026 0
M  V30 35211 N 3534.14 1.47403 -0.557697 0
M  V30 35212 C 3535.1 2.28498 0.179271 0
M  V30 35213 C 3536.1 1.36977 0.842257 0
M  V30 35214 O 3537.29 1.59603 0.698044 0
M  V30 35215 C 3534.42 3.16671 1.26224 0
M  V30 35216 H 3535.62 2.95124 -0.533085 0
M  V30 35217 H 3533.17 1.531 -0.314661 0
M  V30 35218 H 3533.9 2.54737 2.00698 0
M  V30 35219 H 3533.69 3.84025 0.791644 0
M  V30 35220 H 3535.18 3.77772 1.77984 0
M  V30 35221 N 3535.62 0.294175 1.5483 0
M  V30 35222 C 3536.86 -0.31757 2.00298 0
M  V30 35223 C 3537.19 -1.54062 1.1823 0
M  V30 35224 O 3536.47 -1.92794 0.257068 0
M  V30 35225 C 3536.75 -0.680929 3.53603 0
M  V30 35226 C 3536.61 0.55079 4.46415 0
M  V30 35227 C 3537.92 -1.51008 4.13382 0
M  V30 35228 H 3535.04 -0.113953 0.728137 0
M  V30 35229 H 3537.69 0.404915 1.85635 0
M  V30 35230 H 3535.84 -1.29648 3.66229 0
M  V30 35231 H 3537.51 1.1893 4.45705 0
M  V30 35232 H 3535.75 1.18532 4.17292 0
M  V30 35233 H 3536.42 0.252509 5.51422 0
M  V30 35234 H 3538.9 -0.990049 4.0415 0
M  V30 35235 H 3537.77 -1.73311 5.20821 0
M  V30 35236 H 3538.03 -2.49716 3.64821 0
M  V30 35237 N 3537.09 -1.57585 0.0217743 0
M  V30 35238 C 3538.06 -2.08698 -0.94751 0
M  V30 35239 C 3539.06 -1.00058 -1.25877 0
M  V30 35240 O 3540.25 -1.26244 -1.20033 0
M  V30 35241 C 3537.38 -2.54669 -2.26619 0
M  V30 35242 H 3538.57 -2.95618 -0.504964 0
M  V30 35243 H 3536.12 -1.54656 -0.226125 0
M  V30 35244 H 3536.86 -1.71057 -2.75518 0
M  V30 35245 H 3536.64 -3.34032 -2.05341 0
M  V30 35246 H 3538.13 -2.94464 -2.96109 0
M  V30 35247 N 3538.57 0.251283 -1.55584 0
M  V30 35248 C 3539.98 0.820689 -1.67695 0
M  V30 35249 C 3540.33 1.86199 -0.618426 0
M  V30 35250 O 3539.46 2.15108 0.236121 0
M  V30 35251 C 3540.05 1.49537 -3.04013 0
M  V30 35252 C 3538.61 2.01253 -3.18079 0
M  V30 35253 C 3537.76 0.862092 -2.63559 0
M  V30 35254 H 3540.71 0.0271793 -1.58677 0
M  V30 35255 H 3540.73 2.36323 -2.98214 0
M  V30 35256 H 3540.24 0.737256 -3.81033 0
M  V30 35257 H 3538.34 2.79958 -2.45874 0
M  V30 35258 H 3538.46 2.21292 -4.24931 0
M  V30 35259 H 3536.82 1.26141 -2.2127 0
M  V30 35260 H 3537.6 0.117135 -3.431 0
M  V30 35261 N 3540.05 1.48887 0.516757 0
M  V30 35262 C 3541.46 1.50961 1.09853 0
M  V30 35263 C 3541.81 0.286844 1.94092 0
M  V30 35264 O 3540.94 -0.60484 2.07775 0
M  V30 35265 C 3541.53 2.73546 1.99895 0
M  V30 35266 C 3540.09 2.78449 2.53265 0
M  V30 35267 C 3539.24 2.44662 1.30522 0
M  V30 35268 H 3542.19 1.55812 0.301388 0
M  V30 35269 H 3542.21 2.52814 2.84368 0
M  V30 35270 H 3541.72 3.62524 1.38558 0
M  V30 35271 H 3539.82 1.93712 3.18287 0
M  V30 35272 H 3539.94 3.8022 2.91495 0
M  V30 35273 H 3538.3 1.961 1.62532 0
M  V30 35274 H 3539.08 3.35895 0.709164 0
M  V30 35275 N 3541.53 -0.766635 1.37697 0
M  V30 35276 C 3542.76 -1.55578 1.36393 0
M  V30 35277 C 3543.17 -1.88735 -0.049494 0
M  V30 35278 O 3542.53 -1.51827 -1.01266 0
M  V30 35279 C 3542.58 -2.86294 2.20722 0
M  V30 35280 O 3542.3 -2.54557 3.56556 0
M  V30 35281 C 3543.8 -3.805 2.27453 0
M  V30 35282 H 3541.02 -0.48182 0.467002 0
M  V30 35283 H 3543.56 -0.949802 1.81105 0
M  V30 35284 H 3541.72 -3.43303 1.79505 0
M  V30 35285 H 3542.13 -3.38299 4.00817 0
M  V30 35286 H 3543.61 -4.69208 2.9077 0
M  V30 35287 H 3544.08 -4.19999 1.28442 0
M  V30 35288 H 3544.69 -3.29419 2.69004 0
M  V30 35289 N 3543.01 -1.22351 -0.993375 0
M  V30 35290 C 3544.25 -1.04934 -1.73542 0
M  V30 35291 C 3544.58 0.414628 -1.89722 0
M  V30 35292 O 3543.86 1.30741 -1.44004 0
M  V30 35293 C 3544.14 -1.76056 -3.14128 0
M  V30 35294 C 3544 -3.30045 -3.05599 0
M  V30 35295 C 3545.31 -1.51256 -4.13291 0
M  V30 35296 H 3542.43 -0.382602 -0.629908 0
M  V30 35297 H 3545.08 -1.50684 -1.15734 0
M  V30 35298 H 3543.23 -1.37163 -3.63481 0
M  V30 35299 H 3544.9 -3.78379 -2.6387 0
M  V30 35300 H 3543.14 -3.59747 -2.42415 0
M  V30 35301 H 3543.81 -3.74986 -4.0508 0
M  V30 35302 H 3546.29 -1.85039 -3.72692 0
M  V30 35303 H 3545.16 -2.03516 -5.09777 0
M  V30 35304 H 3545.42 -0.445051 -4.39854 0
M  V30 35305 N 3544.48 1.19014 -1.03313 0
M  V30 35306 C 3545.71 1.92756 -0.751836 0
M  V30 35307 C 3546.13 1.75742 0.689951 0
M  V30 35308 O 3545.48 1.08209 1.46959 0
M  V30 35309 C 3545.53 3.4439 -1.09898 0
M  V30 35310 O 3545.26 3.60862 -2.48415 0
M  V30 35311 C 3546.76 4.35247 -0.841105 0
M  V30 35312 H 3543.98 0.612163 -0.274768 0
M  V30 35313 H 3546.52 1.51031 -1.37876 0
M  V30 35314 H 3544.68 3.83933 -0.517159 0
M  V30 35315 H 3545.09 4.54677 -2.61476 0
M  V30 35316 H 3546.56 5.40228 -1.13393 0
M  V30 35317 H 3547.04 4.38627 0.224357 0
M  V30 35318 H 3547.65 4.01392 -1.40586 0
M  V30 35319 N 3545.96 0.811563 1.35098 0
M  V30 35320 C 3547.37 0.454575 1.81081 0
M  V30 35321 C 3547.72 -1.02392 1.67363 0
M  V30 35322 O 3546.85 -1.79605 1.20711 0
M  V30 35323 C 3547.44 0.818332 3.28769 0
M  V30 35324 C 3546 0.513873 3.72876 0
M  V30 35325 C 3545.15 1.0413 2.57006 0
M  V30 35326 H 3548.1 1.00276 1.23006 0
M  V30 35327 H 3548.12 0.117749 3.80318 0
M  V30 35328 H 3547.63 1.89445 3.38721 0
M  V30 35329 H 3545.73 -0.553303 3.68469 0
M  V30 35330 H 3545.85 1.04998 4.67453 0
M  V30 35331 H 3544.21 0.463381 2.50449 0
M  V30 35332 H 3544.99 2.12363 2.69735 0
M  V30 35333 N 3547.44 -1.47105 0.565506 0
M  V30 35334 C 3548.69 -2.02751 0.0446271 0
M  V30 35335 C 3549.02 -1.43804 -1.30515 0
M  V30 35336 O 3548.29 -0.596679 -1.85122 0
M  V30 35337 C 3548.58 -3.60078 -0.0395841 0
M  V30 35338 C 3548.43 -4.29443 1.33787 0
M  V30 35339 C 3549.75 -4.33682 -0.748877 0
M  V30 35340 H 3546.87 -0.736788 0.0176916 0
M  V30 35341 H 3549.51 -1.75442 0.729394 0
M  V30 35342 H 3547.66 -3.83476 -0.622759 0
M  V30 35343 H 3549.33 -4.17361 1.96489 0
M  V30 35344 H 3547.57 -3.89473 1.91031 0
M  V30 35345 H 3548.25 -5.38085 1.23159 0
M  V30 35346 H 3550.72 -4.15326 -0.253634 0
M  V30 35347 H 3549.6 -5.43376 -0.776782 0
M  V30 35348 H 3549.86 -4.03497 -1.80672 0
M  V30 35349 N 3548.92 -0.302382 -1.54672 0
M  V30 35350 C 3550.33 0.189986 -1.85731 0
M  V30 35351 C 3550.68 1.53314 -1.2243 0
M  V30 35352 O 3549.81 2.09997 -0.522498 0
M  V30 35353 C 3550.4 0.351503 -3.36972 0
M  V30 35354 C 3548.96 0.78809 -3.68057 0
M  V30 35355 C 3548.11 -0.102754 -2.7711 0
M  V30 35356 H 3551.06 -0.52335 -1.49822 0
M  V30 35357 H 3551.08 1.18586 -3.61549 0
M  V30 35358 H 3550.59 -0.626219 -3.83015 0
M  V30 35359 H 3548.69 1.77631 -3.27533 0
M  V30 35360 H 3548.8 0.606521 -4.75245 0
M  V30 35361 H 3547.17 0.418191 -2.51243 0
M  V30 35362 H 3547.95 -1.07685 -3.25974 0
M  V30 35363 N 3550.4 1.57571 -0.0301311 0
M  V30 35364 C 3551.62 1.96551 0.662011 0
M  V30 35365 C 3552.05 0.906609 1.6481 0
M  V30 35366 O 3551.4 -0.132383 1.80816 0
M  V30 35367 C 3551.45 3.34624 1.34383 0
M  V30 35368 O 3550.56 3.3106 2.45913 0
M  V30 35369 H 3549.9 0.640842 0.173831 0
M  V30 35370 H 3552.43 2.04392 -0.092284 0
M  V30 35371 H 3552.44 3.70878 1.70039 0
M  V30 35372 H 3551.11 4.11237 0.62102 0
M  V30 35373 H 3549.69 3.06524 2.12361 0
M  V30 35374 N 3551.87 -0.243029 1.55715 0
M  V30 35375 C 3552.8 -1.30458 1.93657 0
M  V30 35376 C 3553.79 -1.50007 0.801994 0
M  V30 35377 O 3554.97 -1.6255 1.06259 0
M  V30 35378 C 3552.1 -2.65859 2.23464 0
M  V30 35379 C 3551.05 -2.61 3.3921 0
M  V30 35380 C 3550.38 -4.00232 3.54568 0
M  V30 35381 C 3551.68 -2.17648 4.74791 0
M  V30 35382 H 3553.37 -0.98949 2.82576 0
M  V30 35383 H 3550.92 -0.474548 1.35956 0
M  V30 35384 H 3552.87 -3.40261 2.48597 0
M  V30 35385 H 3551.6 -2.99012 1.31375 0
M  V30 35386 H 3550.26 -1.89055 3.14092 0
M  V30 35387 H 3549.9 -4.30657 2.59892 0
M  V30 35388 H 3549.6 -3.97868 4.32406 0
M  V30 35389 H 3551.13 -4.76328 3.82026 0
M  V30 35390 H 3552.54 -2.81783 4.99271 0
M  V30 35391 H 3550.94 -2.26387 5.5576 0
M  V30 35392 H 3552.01 -1.12822 4.71592 0
M  V30 35393 N 3553.35 -1.49159 -0.508854 0
M  V30 35394 C 3554.26 -1.67969 -1.63779 0
M  V30 35395 C 3555.28 -0.562236 -1.64666 0
M  V30 35396 O 3556.45 -0.835968 -1.83231 0
M  V30 35397 C 3553.52 -1.73479 -3.00176 0
M  V30 35398 C 3552.58 -2.97005 -3.09978 0
M  V30 35399 C 3551.81 -3.02243 -4.39869 0
M  V30 35400 O 3552.04 -2.15291 -5.2821 0
M  V30 35401 O 3550.97 -3.94629 -4.54479 0
M  V30 35402 H 3554.8 -2.63592 -1.50841 0
M  V30 35403 H 3552.38 -1.32808 -0.684283 0
M  V30 35404 H 3554.26 -1.79502 -3.81257 0
M  V30 35405 H 3552.94 -0.810343 -3.13393 0
M  V30 35406 H 3551.85 -2.96504 -2.28114 0
M  V30 35407 H 3553.18 -3.88904 -3.01686 0
M  V30 35408 N 3554.83 0.759322 -1.38102 0
M  V30 35409 C 3555.79 1.85458 -1.34677 0
M  V30 35410 C 3556.79 1.5887 -0.248379 0
M  V30 35411 O 3557.98 1.66721 -0.504944 0
M  V30 35412 C 3555.12 3.22826 -1.09526 0
M  V30 35413 H 3556.31 1.89904 -2.32113 0
M  V30 35414 H 3553.86 0.960413 -1.23312 0
M  V30 35415 H 3554.6 3.24052 -0.126721 0
M  V30 35416 H 3554.38 3.43519 -1.89043 0
M  V30 35417 H 3555.87 4.02904 -1.09811 0
M  V30 35418 N 3556.31 1.22876 0.986873 0
M  V30 35419 C 3557.72 1.05286 1.54181 0
M  V30 35420 C 3558.07 -0.381822 1.92449 0
M  V30 35421 O 3557.2 -1.26766 1.75384 0
M  V30 35422 C 3557.79 1.90501 2.80169 0
M  V30 35423 C 3556.35 1.77191 3.32085 0
M  V30 35424 C 3555.5 1.86599 2.05124 0
M  V30 35425 H 3558.45 1.36633 0.80728 0
M  V30 35426 H 3558.47 1.42597 3.52769 0
M  V30 35427 H 3557.98 2.94913 2.52286 0
M  V30 35428 H 3556.08 0.755359 3.64863 0
M  V30 35429 H 3556.19 2.60206 4.02281 0
M  V30 35430 H 3554.56 1.30107 2.18962 0
M  V30 35431 H 3555.34 2.92554 1.7963 0
M  V30 35432 N 3557.79 -1.18464 1.03942 0
M  V30 35433 C 3559.01 -1.92896 0.76196 0
M  V30 35434 C 3559.44 -1.75587 -0.674587 0
M  V30 35435 O 3558.79 -1.06518 -1.46709 0
M  V30 35436 C 3558.84 -3.42385 1.13158 0
M  V30 35437 O 3557.95 -4.11603 0.256339 0
M  V30 35438 H 3557.29 -0.601826 0.280538 0
M  V30 35439 H 3559.82 -1.50233 1.38893 0
M  V30 35440 H 3559.83 -3.93088 1.09297 0
M  V30 35441 H 3558.5 -3.54304 2.1781 0
M  V30 35442 H 3557.08 -3.71212 0.354457 0
M  V30 35443 N 3559.26 -0.818716 -1.34665 0
M  V30 35444 C 3560.17 -0.23947 -2.33375 0
M  V30 35445 C 3561.19 0.623928 -1.62429 0
M  V30 35446 O 3562.37 0.53282 -1.94224 0
M  V30 35447 C 3559.43 0.59252 -3.41599 0
M  V30 35448 C 3558.49 -0.292788 -4.283 0
M  V30 35449 C 3557.73 0.499589 -5.31357 0
M  V30 35450 O 3557.95 1.73324 -5.43429 0
M  V30 35451 O 3556.88 -0.115884 -6.01788 0
M  V30 35452 H 3560.71 -1.05636 -2.84736 0
M  V30 35453 H 3558.29 -0.580765 -1.3765 0
M  V30 35454 H 3560.18 1.066 -4.07694 0
M  V30 35455 H 3558.85 1.3868 -2.92488 0
M  V30 35456 H 3557.76 -0.813674 -3.65144 0
M  V30 35457 H 3559.09 -1.05132 -4.80841 0
M  V30 35458 N 3560.74 1.46803 -0.573299 0
M  V30 35459 C 3561.67 2.28299 0.20301 0
M  V30 35460 C 3562.69 1.3796 0.864343 0
M  V30 35461 O 3563.88 1.62643 0.735488 0
M  V30 35462 C 3560.98 3.12714 1.30627 0
M  V30 35463 C 3560.15 4.31118 0.738665 0
M  V30 35464 C 3559.21 4.97002 1.72844 0
M  V30 35465 O 3558.23 5.54892 1.2682 0
M  V30 35466 N 3559.44 4.93156 3.06231 0
M  V30 35467 H 3562.2 2.95565 -0.496138 0
M  V30 35468 H 3559.76 1.56611 -0.410438 0
M  V30 35469 H 3561.75 3.53655 1.96749 0
M  V30 35470 H 3560.32 2.47585 1.90842 0
M  V30 35471 H 3559.54 3.94074 -0.0997634 0
M  V30 35472 H 3560.83 5.07669 0.339065 0
M  V30 35473 H 3560.23 4.47353 3.46254 0
M  V30 35474 H 3558.79 5.38068 3.67867 0
M  V30 35475 N 3562.22 0.31058 1.54509 0
M  V30 35476 C 3563.18 -0.54845 2.22541 0
M  V30 35477 C 3564.18 -1.05379 1.21458 0
M  V30 35478 O 3565.37 -0.948286 1.46127 0
M  V30 35479 C 3562.51 -1.76038 2.9193 0
M  V30 35480 H 3563.7 0.0460833 2.99865 0
M  V30 35481 H 3561.25 0.0615145 1.56179 0
M  V30 35482 H 3561.99 -2.3945 2.18711 0
M  V30 35483 H 3561.77 -1.40558 3.66041 0
M  V30 35484 H 3563.26 -2.37045 3.43801 0
M  V30 35485 N 3563.7 -1.57553 0.0384871 0
M  V30 35486 C 3565.11 -1.79907 -0.499025 0
M  V30 35487 C 3565.46 -0.949607 -1.71688 0
M  V30 35488 O 3564.59 -0.162622 -2.15788 0
M  V30 35489 C 3565.18 -3.26292 -0.912097 0
M  V30 35490 C 3563.74 -3.49608 -1.39467 0
M  V30 35491 C 3562.89 -2.74903 -0.363811 0
M  V30 35492 H 3565.84 -1.56481 0.264461 0
M  V30 35493 H 3565.86 -3.36516 -1.77586 0
M  V30 35494 H 3565.37 -3.88092 -0.0255245 0
M  V30 35495 H 3563.47 -2.93073 -2.30085 0
M  V30 35496 H 3563.59 -4.58323 -1.39558 0
M  V30 35497 H 3561.95 -2.4066 -0.833951 0
M  V30 35498 H 3562.73 -3.39423 0.514457 0
M  V30 35499 N 3565.18 0.234767 -1.55842 0
M  V30 35500 C 3566.41 0.978323 -1.82309 0
M  V30 35501 C 3566.82 1.78473 -0.615857 0
M  V30 35502 O 3566.18 1.77706 0.415569 0
M  V30 35503 C 3566.23 1.9065 -3.0714 0
M  V30 35504 O 3565.95 1.13271 -4.23204 0
M  V30 35505 C 3567.45 2.76505 -3.46497 0
M  V30 35506 H 3564.67 0.287335 -0.606366 0
M  V30 35507 H 3567.21 0.253987 -2.02917 0
M  V30 35508 H 3565.37 2.58496 -2.88546 0
M  V30 35509 H 3565.78 1.7616 -4.94032 0
M  V30 35510 H 3567.26 3.37358 -4.36914 0
M  V30 35511 H 3567.73 3.48233 -2.67639 0
M  V30 35512 H 3568.34 2.14093 -3.67484 0
M  V30 35513 N 3566.66 1.49427 0.500936 0
M  V30 35514 C 3567.57 1.68835 1.62886 0
M  V30 35515 C 3568.58 0.570961 1.64366 0
M  V30 35516 O 3569.76 0.845673 1.82785 0
M  V30 35517 C 3566.82 1.75069 2.99252 0
M  V30 35518 C 3565.88 2.98645 3.08399 0
M  V30 35519 C 3565.12 3.04571 4.3826 0
M  V30 35520 O 3565.34 2.18089 5.27061 0
M  V30 35521 O 3564.27 3.97034 4.5238 0
M  V30 35522 H 3568.1 2.64388 1.49441 0
M  V30 35523 H 3565.68 1.33169 0.67723 0
M  V30 35524 H 3567.57 1.81521 3.803 0
M  V30 35525 H 3566.24 0.826951 3.12959 0
M  V30 35526 H 3565.15 2.9771 2.26538 0
M  V30 35527 H 3566.48 3.90499 2.99619 0
M  V30 35528 N 3568.13 -0.751987 1.38502 0
M  V30 35529 C 3569.07 -1.87549 1.3175 0
M  V30 35530 C 3570.08 -1.61175 0.229414 0
M  V30 35531 O 3571.27 -1.71725 0.487096 0
M  V30 35532 C 3568.37 -3.23219 1.01895 0
M  V30 35533 C 3567.54 -3.77084 2.21644 0
M  V30 35534 C 3566.6 -4.91275 1.88509 0
M  V30 35535 O 3565.63 -5.05823 2.6102 0
M  V30 35536 N 3566.83 -5.74376 0.84101 0
M  V30 35537 H 3569.59 -1.93852 2.28564 0
M  V30 35538 H 3567.15 -0.931989 1.32384 0
M  V30 35539 H 3569.15 -3.97156 0.777774 0
M  V30 35540 H 3567.72 -3.12292 0.138713 0
M  V30 35541 H 3566.94 -2.94695 2.61817 0
M  V30 35542 H 3568.22 -4.09805 3.01558 0
M  V30 35543 H 3567.62 -5.65192 0.23972 0
M  V30 35544 H 3566.18 -6.48453 0.659718 0
M  V30 35545 N 3569.61 -1.23398 -0.980343 0
M  V30 35546 C 3571.03 -0.996644 -1.24656 0
M  V30 35547 C 3571.23 0.302224 -1.99221 0
M  V30 35548 O 3570.28 1.02165 -2.30908 0
M  V30 35549 C 3571.6 -2.20356 -2.04606 0
M  V30 35550 C 3573.14 -2.24847 -2.17745 0
M  V30 35551 C 3573.62 -3.45126 -3.01085 0
M  V30 35552 N 3575.11 -3.45365 -3.0867 0
M  V30 35553 C 3575.85 -4.35087 -3.73479 0
M  V30 35554 N 3575.34 -5.35045 -4.40112 0
M  V30 35555 N 3577.13 -4.2283 -3.70366 0
M  V30 35556 H 3569.29 -2.06886 -0.480814 0
M  V30 35557 H 3571.55 -0.907227 -0.275033 0
M  V30 35558 H 3571.25 -3.14617 -1.57192 0
M  V30 35559 H 3571.13 -2.21446 -3.05355 0
M  V30 35560 H 3573.52 -1.31127 -2.64367 0
M  V30 35561 H 3573.6 -2.2779 -1.16384 0
M  V30 35562 H 3573.24 -4.39154 -2.5516 0
M  V30 35563 H 3573.17 -3.39424 -4.02615 0
M  V30 35564 H 3575.66 -2.73041 -2.6126 0
M  V30 35565 H 3575.97 -5.99764 -4.87343 0
M  V30 35566 H 3574.32 -5.38945 -4.3882 0
M  V30 35567 H 3577.51 -3.43983 -3.1748 0
M  V30 35568 H 3577.68 -4.92956 -4.20593 0
M  V30 35569 N 3571.09 1.17911 -1.04569 0
M  V30 35570 C 3572.5 1.69665 -0.779148 0
M  V30 35571 C 3572.85 1.8331 0.699416 0
M  V30 35572 O 3571.98 1.51619 1.54404 0
M  V30 35573 C 3572.57 3.08169 -1.40774 0
M  V30 35574 C 3571.13 3.57114 -1.18939 0
M  V30 35575 C 3570.28 2.33534 -1.49523 0
M  V30 35576 H 3573.23 1.02516 -1.21145 0
M  V30 35577 H 3573.25 3.71699 -0.81365 0
M  V30 35578 H 3572.76 2.98206 -2.48385 0
M  V30 35579 H 3570.86 3.72365 -0.132249 0
M  V30 35580 H 3570.98 4.40247 -1.88995 0
M  V30 35581 H 3569.34 2.37693 -0.915098 0
M  V30 35582 H 3570.12 2.26185 -2.58254 0
M  V30 35583 N 3572.57 0.825847 1.34229 0
M  V30 35584 C 3573.82 0.41449 1.97804 0
M  V30 35585 C 3574.14 -1.02662 1.65788 0
M  V30 35586 O 3573.41 -1.71318 0.950099 0
M  V30 35587 H 3571.99 0.150278 0.731728 0
M  V30 35588 H 3574.65 1.05594 1.63817 0
M  V30 35589 H 3573.74 0.535883 3.07465 0
M  V30 35590 N 3574.05 -1.46497 0.581077 0
M  V30 35591 C 3575.29 -2.02692 0.066129 0
M  V30 35592 C 3575.62 -1.4518 -1.28982 0
M  V30 35593 O 3574.9 -0.61628 -1.84478 0
M  V30 35594 C 3575.18 -3.601 -0.00139081 0
M  V30 35595 C 3575.04 -4.28 1.38335 0
M  V30 35596 C 3576.35 -4.34452 -0.702837 0
M  V30 35597 H 3573.47 -0.736559 0.0255053 0
M  V30 35598 H 3576.12 -1.74658 0.747961 0
M  V30 35599 H 3574.27 -3.84115 -0.582051 0
M  V30 35600 H 3575.94 -4.15253 2.00905 0
M  V30 35601 H 3574.18 -3.87425 1.95151 0
M  V30 35602 H 3574.85 -5.36749 1.28859 0
M  V30 35603 H 3577.33 -4.15572 -0.209568 0
M  V30 35604 H 3576.2 -5.44169 -0.719106 0
M  V30 35605 H 3576.46 -4.05391 -1.76382 0
M  V30 35606 N 3575.52 -0.31877 -1.54343 0
M  V30 35607 C 3576.46 0.583312 -2.21653 0
M  V30 35608 C 3577.47 1.08364 -1.21496 0
M  V30 35609 O 3578.66 0.998038 -1.47991 0
M  V30 35610 C 3575.76 1.81261 -2.86353 0
M  V30 35611 C 3574.93 1.45178 -4.12604 0
M  V30 35612 C 3573.99 2.5381 -4.60941 0
M  V30 35613 O 3573.02 2.18155 -5.25735 0
M  V30 35614 N 3574.22 3.84659 -4.34762 0
M  V30 35615 H 3576.98 0.00698271 -2.99699 0
M  V30 35616 H 3574.54 -0.141756 -1.61278 0
M  V30 35617 H 3576.54 2.53316 -3.15615 0
M  V30 35618 H 3575.11 2.2969 -2.12041 0
M  V30 35619 H 3574.33 0.563074 -3.90158 0
M  V30 35620 H 3575.61 1.18634 -4.94776 0
M  V30 35621 H 3575.01 4.16427 -3.8289 0
M  V30 35622 H 3573.57 4.52959 -4.68691 0
M  V30 35623 N 3577 1.5753 -0.0468419 0
M  V30 35624 C 3577.91 2.14755 0.944324 0
M  V30 35625 C 3578.93 1.10425 1.34471 0
M  V30 35626 O 3580.1 1.42571 1.42251 0
M  V30 35627 C 3577.17 2.67772 2.20225 0
M  V30 35628 C 3576.23 3.86884 1.86063 0
M  V30 35629 C 3575.46 4.37362 3.05859 0
M  V30 35630 O 3575.69 3.86934 4.19092 0
M  V30 35631 O 3574.62 5.29002 2.87125 0
M  V30 35632 H 3578.45 2.99759 0.487667 0
M  V30 35633 H 3576.03 1.48374 0.174805 0
M  V30 35634 H 3577.91 3.0186 2.94038 0
M  V30 35635 H 3576.59 1.85841 2.65037 0
M  V30 35636 H 3575.49 3.57691 1.09579 0
M  V30 35637 H 3576.83 4.70031 1.46054 0
M  V30 35638 N 3578.48 -0.226499 1.55964 0
M  V30 35639 C 3579.72 -0.958743 1.8052 0
M  V30 35640 C 3580.08 -1.81728 0.619581 0
M  V30 35641 O 3581.29 -2.58289 0.74434 0
M  V30 35642 C 3579.56 -1.77962 3.09942 0
M  V30 35643 S 3581.12 -2.56818 3.55795 0
M  V30 35644 H 3577.93 -0.32214 0.633835 0
M  V30 35645 H 3580.54 -0.224752 1.94204 0
M  V30 35646 H 3579.24 -1.13896 3.94279 0
M  V30 35647 H 3578.77 -2.556 2.99052 0
M  V30 35648 H 3580.79 -3.80287 3.18741 0
M  V30 35649 N 3579.96 -1.4969 -0.493005 0
M  V30 35650 C 3581.19 -1.63065 -1.26859 0
M  V30 35651 C 3581.6 -0.304484 -1.86734 0
M  V30 35652 O 3580.94 0.72105 -1.68957 0
M  V30 35653 C 3581 -2.64712 -2.43244 0
M  V30 35654 C 3580.67 -4.08853 -2.04178 0
M  V30 35655 C 3581.66 -4.95409 -1.57689 0
M  V30 35656 C 3579.35 -4.54636 -2.13568 0
M  V30 35657 C 3581.34 -6.25789 -1.21105 0
M  V30 35658 C 3579.03 -5.85028 -1.76596 0
M  V30 35659 C 3580.03 -6.70429 -1.3044 0
M  V30 35660 O 3579.71 -7.98389 -0.939703 0
M  V30 35661 H 3579.45 -0.551686 -0.390665 0
M  V30 35662 H 3582 -1.96518 -0.597496 0
M  V30 35663 H 3580.23 -2.26456 -3.13456 0
M  V30 35664 H 3581.92 -2.67533 -3.05256 0
M  V30 35665 H 3582.69 -4.61262 -1.49874 0
M  V30 35666 H 3578.56 -3.88325 -2.48445 0
M  V30 35667 H 3582.11 -6.92401 -0.850077 0
M  V30 35668 H 3578.01 -6.18701 -1.84063 0
M  V30 35669 H 3578.77 -8.1147 -1.07048 0
M  V30 35670 N 3581.44 0.744631 -1.38899 0
M  V30 35671 C 3582.39 1.84941 -1.33345 0
M  V30 35672 C 3583.37 1.59443 -0.216064 0
M  V30 35673 O 3584.56 1.7111 -0.452794 0
M  V30 35674 C 3581.69 3.22758 -1.16972 0
M  V30 35675 C 3580.78 3.54117 -2.33371 0
M  V30 35676 N 3581.17 3.56475 -3.58831 0
M  V30 35677 C 3579.47 3.8443 -2.26119 0
M  V30 35678 C 3580.17 3.85356 -4.35747 0
M  V30 35679 N 3579.14 4.02642 -3.65213 0
M  V30 35680 H 3582.95 1.85055 -2.28324 0
M  V30 35681 H 3580.46 0.942417 -1.32258 0
M  V30 35682 H 3582.46 4.0183 -1.11076 0
M  V30 35683 H 3581.12 3.23889 -0.229345 0
M  V30 35684 H 3582.13 3.38018 -3.92382 0
M  V30 35685 H 3578.8 3.93224 -1.4029 0
M  V30 35686 H 3580.19 3.93728 -5.44452 0
M  V30 35687 N 3582.91 1.23916 0.973785 0
M  V30 35688 C 3584.16 1.0731 1.71257 0
M  V30 35689 C 3584.48 -0.389798 1.91064 0
M  V30 35690 O 3583.75 -1.2788 1.48403 0
M  V30 35691 H 3582.33 0.394101 0.634581 0
M  V30 35692 H 3585 1.55739 1.17181 0
M  V30 35693 H 3584.09 1.56631 2.69951 0
M  V30 35694 N 3584.39 -1.17355 1.05193 0
M  V30 35695 C 3585.34 -2.23425 0.646836 0
M  V30 35696 C 3586.33 -1.66117 -0.331889 0
M  V30 35697 O 3587.54 -1.78908 -0.197951 0
M  V30 35698 H 3583.92 -0.727339 0.191001 0
M  V30 35699 H 3585.89 -2.5489 1.55156 0
M  V30 35700 C 3584.64 -3.4768 0.0375661 0
M  V30 35701 H 3583.96 -3.92082 0.781755 0
M  V30 35702 H 3585.4 -4.23487 -0.208505 0
M  V30 35703 C 3583.86 -3.14199 -1.21576 0
M  V30 35704 O 3584.39 -3.28977 -2.30514 0
M  V30 35705 N 3582.59 -2.68424 -1.11341 0
M  V30 35706 H 3582.14 -2.56599 -0.226897 0
M  V30 35707 H 3582.1 -2.46395 -1.95286 0
M  V30 35708 N 3585.87 -0.832954 -1.3379 0
M  V30 35709 C 3587.12 -0.424975 -1.97581 0
M  V30 35710 C 3587.44 1.01781 -1.6633 0
M  V30 35711 O 3586.71 1.70812 -0.959171 0
M  V30 35712 H 3585.29 -0.154156 -0.730921 0
M  V30 35713 H 3587.95 -1.06461 -1.63255 0
M  V30 35714 H 3587.05 -0.552181 -3.07176 0
M  V30 35715 N 3587.35 1.46186 -0.588837 0
M  V30 35716 C 3588.28 2.28502 0.178784 0
M  V30 35717 C 3589.29 1.38869 0.849662 0
M  V30 35718 O 3590.48 1.63414 0.718196 0
M  V30 35719 C 3587.58 3.14081 1.27303 0
M  V30 35720 C 3586.76 4.31877 0.692898 0
M  V30 35721 C 3585.81 4.98808 1.67563 0
M  V30 35722 O 3584.84 5.56206 1.20927 0
M  V30 35723 N 3586.04 4.96376 3.00983 0
M  V30 35724 H 3588.81 2.95022 -0.527459 0
M  V30 35725 H 3586.37 1.56167 -0.427026 0
M  V30 35726 H 3588.36 3.55722 1.92987 0
M  V30 35727 H 3586.93 2.49595 1.88205 0
M  V30 35728 H 3586.15 3.93946 -0.141555 0
M  V30 35729 H 3587.44 5.08 0.285201 0
M  V30 35730 H 3586.84 4.51 3.4149 0
M  V30 35731 H 3585.39 5.41939 3.62139 0
M  V30 35732 N 3588.83 0.32695 1.54171 0
M  V30 35733 C 3590.05 -0.279195 2.05512 0
M  V30 35734 C 3590.48 -1.44739 1.20134 0
M  V30 35735 O 3589.83 -1.80065 0.211223 0
M  V30 35736 C 3589.88 -0.6882 3.53972 0
M  V30 35737 O 3588.99 -1.79018 3.71519 0
M  V30 35738 H 3588.33 -0.049771 0.662132 0
M  V30 35739 H 3590.86 0.476344 1.98978 0
M  V30 35740 H 3590.87 -0.969932 3.96303 0
M  V30 35741 H 3589.54 0.166205 4.15568 0
M  V30 35742 H 3588.12 -1.507 3.41092 0
M  V30 35743 N 3590.3 -1.57503 0.0551955 0
M  V30 35744 C 3591.53 -1.9688 -0.626256 0
M  V30 35745 C 3591.94 -0.931589 -1.64676 0
M  V30 35746 O 3591.29 0.0921309 -1.83469 0
M  V30 35747 C 3591.35 -3.32509 -1.36668 0
M  V30 35748 C 3591.01 -4.54239 -0.501552 0
M  V30 35749 C 3592.01 -5.19373 0.23403 0
M  V30 35750 C 3589.69 -5.00445 -0.431297 0
M  V30 35751 C 3591.69 -6.29051 1.02826 0
M  V30 35752 C 3589.37 -6.09999 0.366621 0
M  V30 35753 C 3590.37 -6.74164 1.09509 0
M  V30 35754 O 3590.06 -7.81611 1.87987 0
M  V30 35755 H 3589.79 -0.652761 -0.175726 0
M  V30 35756 H 3592.35 -2.05054 0.119126 0
M  V30 35757 H 3590.58 -3.209 -2.15777 0
M  V30 35758 H 3592.27 -3.56605 -1.93875 0
M  V30 35759 H 3593.03 -4.84631 0.189246 0
M  V30 35760 H 3588.91 -4.5029 -0.987901 0
M  V30 35761 H 3592.45 -6.79066 1.59736 0
M  V30 35762 H 3588.35 -6.44177 0.413029 0
M  V30 35763 H 3589.12 -7.98408 1.80242 0
M  V30 35764 N 3591.78 0.218225 -1.56082 0
M  V30 35765 C 3593.2 0.568072 -1.49148 0
M  V30 35766 C 3593.4 1.86985 -0.750926 0
M  V30 35767 O 3592.45 2.50807 -0.291948 0
M  V30 35768 C 3593.77 0.644221 -2.93718 0
M  V30 35769 C 3595.32 0.734623 -3.04257 0
M  V30 35770 C 3595.79 0.842088 -4.50192 0
M  V30 35771 N 3597.28 0.906222 -4.54249 0
M  V30 35772 C 3598.02 1.00914 -5.6445 0
M  V30 35773 N 3597.51 1.0758 -6.84396 0
M  V30 35774 N 3599.31 1.04454 -5.5231 0
M  V30 35775 H 3591.46 -0.635971 -2.02655 0
M  V30 35776 H 3593.72 -0.223579 -0.921258 0
M  V30 35777 H 3593.43 -0.242782 -3.50861 0
M  V30 35778 H 3593.3 1.50672 -3.458 0
M  V30 35779 H 3595.69 1.61207 -2.47177 0
M  V30 35780 H 3595.77 -0.153608 -2.55338 0
M  V30 35781 H 3595.41 -0.0309107 -5.07891 0
M  V30 35782 H 3595.34 1.74578 -4.9682 0
M  V30 35783 H 3597.83 0.86489 -3.6787 0
M  V30 35784 H 3598.15 1.1542 -7.64132 0
M  V30 35785 H 3596.49 1.04488 -6.87101 0
M  V30 35786 H 3599.68 0.989137 -4.5753 0
M  V30 35787 H 3599.85 1.12129 -6.38225 0
M  V30 35788 N 3593.26 1.4995 0.485059 0
M  V30 35789 C 3594.51 1.59923 1.23569 0
M  V30 35790 C 3594.83 0.295142 1.92754 0
M  V30 35791 O 3594.1 -0.68655 1.83476 0
M  V30 35792 H 3592.68 0.589272 0.459094 0
M  V30 35793 H 3595.34 1.86658 0.560789 0
M  V30 35794 H 3594.44 2.40336 1.9911 0
M  V30 35795 N 3594.74 -0.737255 1.39292 0
M  V30 35796 C 3595.97 -1.5265 1.39662 0
M  V30 35797 C 3596.38 -1.88798 -0.0094494 0
M  V30 35798 O 3595.74 -1.53941 -0.980222 0
M  V30 35799 C 3595.79 -2.81548 2.26745 0
M  V30 35800 O 3595.51 -2.46936 3.61876 0
M  V30 35801 C 3597.01 -3.75589 2.35473 0
M  V30 35802 H 3594.23 -0.471806 0.477117 0
M  V30 35803 H 3596.78 -0.911173 1.83079 0
M  V30 35804 H 3594.93 -3.39418 1.86747 0
M  V30 35805 H 3595.35 -3.29721 4.07902 0
M  V30 35806 H 3596.82 -4.62935 3.00658 0
M  V30 35807 H 3597.3 -4.1718 1.37321 0
M  V30 35808 H 3597.9 -3.23639 2.75931 0
M  V30 35809 N 3596.22 -1.24431 -0.967199 0
M  V30 35810 C 3597.45 -1.10975 -1.74265 0
M  V30 35811 C 3597.86 0.34049 -1.86111 0
M  V30 35812 O 3597.2 1.24671 -1.34917 0
M  V30 35813 C 3597.26 -1.67618 -3.18032 0
M  V30 35814 C 3596.92 -3.16506 -3.29655 0
M  V30 35815 C 3597.92 -4.13649 -3.14945 0
M  V30 35816 C 3595.61 -3.56475 -3.5388 0
M  V30 35817 C 3597.6 -5.48743 -3.24284 0
M  V30 35818 C 3595.29 -4.91709 -3.62857 0
M  V30 35819 C 3596.29 -5.87652 -3.48072 0
M  V30 35820 O 3595.97 -7.20428 -3.56706 0
M  V30 35821 H 3595.71 -0.388394 -0.553287 0
M  V30 35822 H 3598.26 -1.65027 -1.22292 0
M  V30 35823 H 3596.49 -1.08 -3.71312 0
M  V30 35824 H 3598.18 -1.49444 -3.77387 0
M  V30 35825 H 3598.94 -3.84112 -2.96113 0
M  V30 35826 H 3594.82 -2.82301 -3.64454 0
M  V30 35827 H 3598.37 -6.2361 -3.12661 0
M  V30 35828 H 3594.26 -5.20917 -3.81203 0
M  V30 35829 H 3595.03 -7.28355 -3.73418 0
M  V30 35830 N 3597.7 1.16795 -1.05814 0
M  V30 35831 C 3598.92 1.9166 -0.792552 0
M  V30 35832 C 3599.35 1.76638 0.646567 0
M  V30 35833 O 3598.7 1.08838 1.44996 0
M  V30 35834 C 3598.75 3.40542 -1.18591 0
M  V30 35835 O 3597.86 4.11143 -0.321789 0
M  V30 35836 H 3597.2 0.597287 -0.290077 0
M  V30 35837 H 3599.73 1.48004 -1.41266 0
M  V30 35838 H 3599.74 3.91299 -1.15537 0
M  V30 35839 H 3598.41 3.50794 -2.23419 0
M  V30 35840 H 3596.99 3.70601 -0.413469 0
M  V30 35841 N 3599.17 0.840037 1.33346 0
M  V30 35842 C 3600.4 0.449829 2.01951 0
M  V30 35843 C 3600.82 -0.949288 1.63199 0
M  V30 35844 O 3600.17 -1.61711 0.845919 0
M  V30 35845 C 3600.22 0.562241 3.57101 0
M  V30 35846 O 3599.95 1.90623 3.94455 0
M  V30 35847 C 3601.45 0.16914 4.42977 0
M  V30 35848 H 3598.67 0.178436 0.64684 0
M  V30 35849 H 3601.21 1.13293 1.70249 0
M  V30 35850 H 3599.37 -0.0729664 3.87331 0
M  V30 35851 H 3599.78 1.89258 4.89164 0
M  V30 35852 H 3601.25 0.298839 5.5119 0
M  V30 35853 H 3601.73 -0.889061 4.30107 0
M  V30 35854 H 3602.34 0.778829 4.18108 0
M  V30 35855 N 3600.65 -1.45872 0.596582 0
M  V30 35856 C 3601.88 -2.06688 0.0935289 0
M  V30 35857 C 3602.29 -1.44307 -1.21741 0
M  V30 35858 O 3601.65 -0.553284 -1.73911 0
M  V30 35859 C 3601.7 -3.61443 -0.0642702 0
M  V30 35860 O 3601.42 -4.21493 1.19479 0
M  V30 35861 C 3602.92 -4.3922 -0.600064 0
M  V30 35862 H 3600.14 -0.66796 0.0637963 0
M  V30 35863 H 3602.69 -1.87288 0.821192 0
M  V30 35864 H 3600.84 -3.80224 -0.742211 0
M  V30 35865 H 3601.26 -5.14537 1.01744 0
M  V30 35866 H 3602.73 -5.48045 -0.659604 0
M  V30 35867 H 3603.21 -4.0823 -1.62002 0
M  V30 35868 H 3603.81 -4.25278 0.0434662 0
M  V30 35869 N 3602.13 -0.335122 -1.53996 0
M  V30 35870 C 3603.38 0.264353 -2.0107 0
M  V30 35871 C 3603.71 1.50874 -1.22274 0
M  V30 35872 O 3602.98 1.92044 -0.308094 0
M  V30 35873 C 3603.27 0.586937 -3.55284 0
M  V30 35874 C 3603.12 -0.668955 -4.44798 0
M  V30 35875 C 3604.44 1.39995 -4.1724 0
M  V30 35876 H 3601.56 0.0946073 -0.730902 0
M  V30 35877 H 3604.2 -0.453991 -1.84496 0
M  V30 35878 H 3602.35 1.19892 -3.69538 0
M  V30 35879 H 3604.02 -1.30705 -4.42395 0
M  V30 35880 H 3602.26 -1.29554 -4.14003 0
M  V30 35881 H 3602.94 -0.39862 -5.50559 0
M  V30 35882 H 3605.41 0.882548 -4.06633 0
M  V30 35883 H 3604.29 1.59442 -5.25233 0
M  V30 35884 H 3604.55 2.39956 -3.71314 0
M  V30 35885 N 3603.61 1.57472 -0.0635475 0
M  V30 35886 C 3604.84 1.97495 0.616701 0
M  V30 35887 C 3605.25 0.941596 1.63644 0
M  V30 35888 O 3604.61 -0.0727448 1.82355 0
M  V30 35889 C 3604.66 3.376 1.29262 0
M  V30 35890 O 3604.38 4.36975 0.313705 0
M  V30 35891 C 3605.88 3.92452 2.06147 0
M  V30 35892 H 3603.1 0.649695 0.167741 0
M  V30 35893 H 3605.64 2.04064 -0.133511 0
M  V30 35894 H 3603.8 3.32143 1.99398 0
M  V30 35895 H 3604.21 5.184 0.797632 0
M  V30 35896 H 3605.69 4.92728 2.48844 0
M  V30 35897 H 3606.16 3.28547 2.91468 0
M  V30 35898 H 3606.77 4.01283 1.40896 0
M  V30 35899 N 3605.09 -0.209945 1.56195 0
M  V30 35900 C 3606.33 -0.930764 1.79391 0
M  V30 35901 C 3606.65 -1.84403 0.634071 0
M  V30 35902 O 3605.92 -1.92776 -0.348434 0
M  V30 35903 H 3604.5 -0.346678 0.661682 0
M  V30 35904 H 3607.17 -0.219015 1.93666 0
M  V30 35905 H 3606.26 -1.53071 2.71985 0
M  V30 35906 N 3606.56 -1.50205 -0.4771 0
M  V30 35907 C 3607.98 -1.37497 -0.810346 0
M  V30 35908 C 3608.18 -0.426433 -1.96936 0
M  V30 35909 O 3607.24 0.133152 -2.52149 0
M  V30 35910 C 3608.55 -2.78739 -1.12806 0
M  V30 35911 C 3610.1 -2.87611 -1.23487 0
M  V30 35912 C 3610.57 -4.29672 -1.58575 0
M  V30 35913 N 3612.06 -4.32594 -1.65579 0
M  V30 35914 C 3612.8 -5.39505 -1.94221 0
M  V30 35915 N 3612.29 -6.56631 -2.20925 0
M  V30 35916 N 3614.09 -5.26943 -1.95673 0
M  V30 35917 H 3606.24 -2.10455 0.286808 0
M  V30 35918 H 3608.5 -0.945715 0.0657815 0
M  V30 35919 H 3608.21 -3.49959 -0.349555 0
M  V30 35920 H 3608.08 -3.15606 -2.06574 0
M  V30 35921 H 3610.47 -2.16613 -2.00406 0
M  V30 35922 H 3610.55 -2.54294 -0.277137 0
M  V30 35923 H 3610.19 -5.01204 -0.821983 0
M  V30 35924 H 3610.12 -4.6047 -2.55489 0
M  V30 35925 H 3612.61 -3.48134 -1.47006 0
M  V30 35926 H 3612.93 -7.3392 -2.42036 0
M  V30 35927 H 3611.27 -6.59816 -2.1833 0
M  V30 35928 H 3614.46 -4.34438 -1.74303 0
M  V30 35929 H 3614.64 -6.10351 -2.17659 0
M  V30 35930 N 3608.04 0.729857 -1.39681 0
M  V30 35931 C 3609.27 1.51907 -1.4047 0
M  V30 35932 C 3609.69 1.888 -0.000563129 0
M  V30 35933 O 3609.04 1.54459 0.972045 0
M  V30 35934 C 3609.09 2.80341 -2.28235 0
M  V30 35935 O 3608.81 2.45014 -3.6318 0
M  V30 35936 C 3610.32 3.74335 -2.37461 0
M  V30 35937 H 3607.54 0.469269 -0.479612 0
M  V30 35938 H 3610.08 0.901451 -1.8356 0
M  V30 35939 H 3608.23 3.38423 -1.88544 0
M  V30 35940 H 3608.65 3.27553 -4.09645 0
M  V30 35941 H 3610.12 4.61334 -3.03108 0
M  V30 35942 H 3610.6 4.16446 -1.39532 0
M  V30 35943 H 3611.21 3.22171 -2.77643 0
M  V30 35944 N 3609.52 1.24942 0.960587 0
M  V30 35945 C 3610.76 1.10534 1.71935 0
M  V30 35946 C 3611.12 -0.348733 1.88806 0
M  V30 35947 O 3612.33 -0.614493 2.61682 0
M  V30 35948 C 3610.6 1.83248 3.06847 0
M  V30 35949 S 3612.16 1.84658 3.98054 0
M  V30 35950 H 3608.97 0.395191 0.591054 0
M  V30 35951 H 3611.58 1.58378 1.14615 0
M  V30 35952 H 3610.28 2.88145 2.92233 0
M  V30 35953 H 3609.81 1.35766 3.69231 0
M  V30 35954 H 3611.83 0.919349 4.87609 0
M  V30 35955 N 3611 -1.16233 1.06432 0
M  V30 35956 C 3611.93 -2.20248 0.634312 0
M  V30 35957 C 3612.94 -1.59852 -0.308404 0
M  V30 35958 O 3614.13 -1.78224 -0.0991754 0
M  V30 35959 C 3611.23 -3.3878 -0.0900998 0
M  V30 35960 C 3610.41 -4.28732 0.866454 0
M  V30 35961 C 3609.46 -5.25888 0.181035 0
M  V30 35962 O 3608.49 -5.63275 0.819133 0
M  V30 35963 N 3609.69 -5.70424 -1.07688 0
M  V30 35964 H 3612.46 -2.5776 1.52905 0
M  V30 35965 H 3610.02 -1.31256 0.947812 0
M  V30 35966 H 3612.01 -4.0082 -0.559076 0
M  V30 35967 H 3610.58 -2.99762 -0.886662 0
M  V30 35968 H 3609.8 -3.63935 1.51477 0
M  V30 35969 H 3611.09 -4.85711 1.51532 0
M  V30 35970 H 3610.49 -5.42145 -1.6154 0
M  V30 35971 H 3609.04 -6.34548 -1.4897 0
M  V30 35972 N 3612.48 -0.847097 -1.32899 0
M  V30 35973 C 3613.44 -0.291364 -2.27341 0
M  V30 35974 C 3614.44 0.544626 -1.51296 0
M  V30 35975 O 3615.63 0.357228 -1.70498 0
M  V30 35976 C 3612.76 0.588609 -3.3578 0
M  V30 35977 H 3613.95 -1.12482 -2.78007 0
M  V30 35978 H 3611.51 -0.620829 -1.43441 0
M  V30 35979 H 3612.24 1.44418 -2.90369 0
M  V30 35980 H 3612.03 -0.00967407 -3.92099 0
M  V30 35981 H 3613.52 0.970455 -4.06167 0
M  V30 35982 N 3613.95 1.45554 -0.604309 0
M  V30 35983 C 3615.2 2.0312 -0.106784 0
M  V30 35984 C 3615.56 1.46475 1.24752 0
M  V30 35985 O 3614.85 0.628691 1.80992 0
M  V30 35986 C 3615.04 3.574 -0.00544525 0
M  V30 35987 C 3614.87 4.29009 -1.34837 0
M  V30 35988 C 3613.64 4.67063 -1.92821 0
M  V30 35989 C 3615.84 4.61176 -2.27642 0
M  V30 35990 N 3613.82 5.23518 -3.20628 0
M  V30 35991 C 3615.19 5.18429 -3.40046 0
M  V30 35992 C 3617.25 4.43115 -2.27055 0
M  V30 35993 C 3615.95 5.59523 -4.52024 0
M  V30 35994 C 3617.98 4.8524 -3.38078 0
M  V30 35995 C 3617.34 5.42582 -4.49204 0
M  V30 35996 H 3613.44 0.77765 -0.0823664 0
M  V30 35997 H 3616.02 1.77417 -0.801943 0
M  V30 35998 H 3614.19 3.8277 0.658928 0
M  V30 35999 H 3615.92 4.01619 0.49844 0
M  V30 36000 H 3612.68 4.50513 -1.46064 0
M  V30 36001 H 3613.1 5.56247 -3.859 0
M  V30 36002 H 3617.75 3.98097 -1.42402 0
M  V30 36003 H 3615.46 6.03508 -5.37404 0
M  V30 36004 H 3619.05 4.72999 -3.38767 0
M  V30 36005 H 3617.93 5.74579 -5.33693 0
M  V30 36006 N 3615.43 0.343284 1.53816 0
M  V30 36007 C 3616.66 -0.257382 2.05797 0
M  V30 36008 C 3617.08 -1.43457 1.21662 0
M  V30 36009 O 3616.44 -1.79831 0.230309 0
M  V30 36010 C 3616.49 -0.650618 3.54682 0
M  V30 36011 O 3615.59 -1.75068 3.73397 0
M  V30 36012 H 3614.93 -0.0427454 0.662623 0
M  V30 36013 H 3617.46 0.497421 1.98461 0
M  V30 36014 H 3617.47 -0.927844 3.9731 0
M  V30 36015 H 3616.15 0.210272 4.15368 0
M  V30 36016 H 3614.73 -1.47074 3.42672 0
M  V30 36017 N 3616.91 -1.57436 0.0718977 0
M  V30 36018 C 3618.14 -1.98237 -0.609666 0
M  V30 36019 C 3618.56 -0.949987 -1.62348 0
M  V30 36020 O 3617.92 0.0843963 -1.81103 0
M  V30 36021 C 3617.97 -3.3807 -1.25464 0
M  V30 36022 O 3617.07 -3.37463 -2.37049 0
M  V30 36023 H 3616.41 -0.645226 -0.156779 0
M  V30 36024 H 3618.94 -2.04075 0.146442 0
M  V30 36025 H 3618.95 -3.75256 -1.60146 0
M  V30 36026 H 3617.63 -4.12739 -0.51177 0
M  V30 36027 H 3616.2 -3.12047 -2.0416 0
M  V30 36028 N 3618.39 0.201658 -1.56305 0
M  V30 36029 C 3619.32 1.27777 -1.89072 0
M  V30 36030 C 3620.3 1.44264 -0.750116 0
M  V30 36031 O 3621.48 1.59759 -1.00047 0
M  V30 36032 C 3618.61 2.64534 -2.11518 0
M  V30 36033 C 3617.66 2.64953 -3.34218 0
M  V30 36034 S 3618.49 2.17038 -4.89545 0
M  V30 36035 C 3619.65 3.55632 -5.1505 0
M  V30 36036 H 3619.88 0.997922 -2.80051 0
M  V30 36037 H 3617.41 0.404846 -1.48998 0
M  V30 36038 H 3619.37 3.43258 -2.25132 0
M  V30 36039 H 3618.03 2.89733 -1.213 0
M  V30 36040 H 3617.22 3.65495 -3.4703 0
M  V30 36041 H 3616.83 1.94306 -3.19564 0
M  V30 36042 H 3619.12 4.51454 -5.05168 0
M  V30 36043 H 3620.06 3.4772 -6.16844 0
M  V30 36044 H 3620.47 3.5024 -4.4271 0
M  V30 36045 N 3619.87 1.50456 0.469128 0
M  V30 36046 C 3621.09 1.65303 1.24429 0
M  V30 36047 C 3621.51 0.337163 1.85765 0
M  V30 36048 O 3620.87 -0.681088 1.69315 0
M  V30 36049 C 3620.92 2.7456 2.35158 0
M  V30 36050 O 3620.64 4.01045 1.76337 0
M  V30 36051 C 3622.14 3.00397 3.26001 0
M  V30 36052 H 3619.36 0.555593 0.376241 0
M  V30 36053 H 3621.9 1.9669 0.559743 0
M  V30 36054 H 3620.06 2.4586 2.99385 0
M  V30 36055 H 3620.47 4.61481 2.4927 0
M  V30 36056 H 3621.95 3.80503 3.99902 0
M  V30 36057 H 3622.42 2.11544 3.84897 0
M  V30 36058 H 3623.03 3.30635 2.67509 0
M  V30 36059 N 3621.34 -0.722439 1.40066 0
M  V30 36060 C 3622.76 -1.30128 1.33879 0
M  V30 36061 C 3623.11 -1.96198 0.00902818 0
M  V30 36062 O 3622.23 -1.97113 -0.893048 0
M  V30 36063 C 3622.83 -2.36626 2.42473 0
M  V30 36064 C 3621.39 -2.90153 2.39767 0
M  V30 36065 C 3620.53 -1.63861 2.23707 0
M  V30 36066 H 3623.48 -0.51905 1.49972 0
M  V30 36067 H 3623.5 -3.17311 2.09985 0
M  V30 36068 H 3623.02 -1.88511 3.39242 0
M  V30 36069 H 3621.12 -3.42516 1.46675 0
M  V30 36070 H 3621.23 -3.42413 3.35098 0
M  V30 36071 H 3619.59 -1.88671 1.71101 0
M  V30 36072 H 3620.38 -1.1778 3.22464 0
M  V30 36073 N 3622.82 -1.2545 -0.953947 0
M  V30 36074 C 3623.77 -1.02578 -2.03622 0
M  V30 36075 C 3624.76 0.0375541 -1.60856 0
M  V30 36076 O 3625.95 -0.177864 -1.76104 0
M  V30 36077 C 3623.08 -0.647199 -3.37144 0
M  V30 36078 C 3622.16 -1.74733 -3.86431 0
M  V30 36079 N 3622.56 -2.98258 -4.08504 0
M  V30 36080 C 3620.85 -1.628 -4.15225 0
M  V30 36081 C 3621.55 -3.69671 -4.4913 0
M  V30 36082 N 3620.53 -2.97295 -4.55101 0
M  V30 36083 H 3624.33 -1.96356 -2.18682 0
M  V30 36084 H 3621.85 -1.15779 -1.13882 0
M  V30 36085 H 3623.84 -0.464535 -4.14304 0
M  V30 36086 H 3622.5 0.283239 -3.23462 0
M  V30 36087 H 3623.51 -3.34297 -3.95558 0
M  V30 36088 H 3620.19 -0.766573 -4.10402 0
M  V30 36089 H 3621.58 -4.75703 -4.74506 0
M  V30 36090 N 3624.3 1.15667 -1.07047 0
M  V30 36091 C 3625.53 1.90808 -0.812836 0
M  V30 36092 C 3625.95 1.77314 0.627796 0
M  V30 36093 O 3625.31 1.1037 1.43834 0
M  V30 36094 C 3625.36 3.39265 -1.22196 0
M  V30 36095 O 3624.46 4.10778 -0.365378 0
M  V30 36096 H 3623.8 0.594177 -0.296395 0
M  V30 36097 H 3626.33 1.46497 -1.42827 0
M  V30 36098 H 3626.34 3.90052 -1.19681 0
M  V30 36099 H 3625.02 3.48405 -2.27127 0
M  V30 36100 H 3623.59 3.70141 -0.452752 0
M  V30 36101 N 3625.78 0.854133 1.32447 0
M  V30 36102 C 3626.73 0.270161 2.26394 0
M  V30 36103 C 3627.71 -0.583683 1.4994 0
M  V30 36104 O 3628.91 -0.433152 1.71618 0
M  V30 36105 C 3626.03 -0.540938 3.39011 0
M  V30 36106 C 3625.12 0.325264 4.22851 0
M  V30 36107 N 3625.51 1.41127 4.85713 0
M  V30 36108 C 3623.81 0.114924 4.45852 0
M  V30 36109 C 3624.51 1.94412 5.48251 0
M  V30 36110 N 3623.49 1.24336 5.29189 0
M  V30 36111 H 3627.29 1.10042 2.72522 0
M  V30 36112 H 3624.8 0.700193 1.4653 0
M  V30 36113 H 3626.8 -0.975707 4.05322 0
M  V30 36114 H 3625.46 -1.369 2.94429 0
M  V30 36115 H 3626.47 1.7942 4.85828 0
M  V30 36116 H 3623.15 -0.678461 4.1195 0
M  V30 36117 H 3624.54 2.85441 6.08254 0
M  V30 36118 N 3627.26 -1.45231 0.61202 0
M  V30 36119 C 3628.48 -2.07088 0.113654 0
M  V30 36120 C 3628.91 -1.4529 -1.19467 0
M  V30 36121 O 3628.27 -0.547238 -1.72844 0
M  V30 36122 C 3628.31 -3.60599 -0.0078364 0
M  V30 36123 O 3627.42 -3.98627 -1.0569 0
M  V30 36124 H 3626.76 -0.659627 0.0760776 0
M  V30 36125 H 3629.29 -1.86413 0.843286 0
M  V30 36126 H 3629.3 -4.07487 -0.204621 0
M  V30 36127 H 3627.97 -4.04964 0.947457 0
M  V30 36128 H 3626.55 -3.63403 -0.836227 0
M  V30 36129 N 3628.74 -0.351436 -1.53632 0
M  V30 36130 C 3630.15 0.000186461 -1.596 0
M  V30 36131 C 3630.35 1.48027 -1.36712 0
M  V30 36132 O 3629.41 2.24004 -1.16527 0
M  V30 36133 C 3630.72 -0.443066 -2.97418 0
M  V30 36134 C 3632.27 -0.39608 -3.10484 0
M  V30 36135 C 3632.74 -0.814922 -4.50692 0
M  V30 36136 N 3634.23 -0.76942 -4.56765 0
M  V30 36137 C 3634.97 -1.06536 -5.63416 0
M  V30 36138 N 3634.47 -1.42986 -6.77884 0
M  V30 36139 N 3636.26 -0.989084 -5.5333 0
M  V30 36140 H 3628.41 -1.31545 -1.66763 0
M  V30 36141 H 3630.67 -0.536754 -0.781409 0
M  V30 36142 H 3630.38 -1.47535 -3.19259 0
M  V30 36143 H 3630.25 0.177659 -3.76781 0
M  V30 36144 H 3632.64 0.627042 -2.88361 0
M  V30 36145 H 3632.72 -1.05211 -2.33161 0
M  V30 36146 H 3632.36 -1.83609 -4.73551 0
M  V30 36147 H 3632.29 -0.136286 -5.26424 0
M  V30 36148 H 3634.79 -0.500689 -3.74568 0
M  V30 36149 H 3635.1 -1.64032 -7.55191 0
M  V30 36150 H 3633.44 -1.46839 -6.79311 0
M  V30 36151 H 3636.63 -0.703607 -4.62782 0
M  V30 36152 H 3636.81 -1.22306 -6.36353 0
M  V30 36153 N 3630.21 1.57396 -0.0802459 0
M  V30 36154 C 3631.44 1.98138 0.595719 0
M  V30 36155 C 3631.86 0.9589 1.62636 0
M  V30 36156 O 3631.21 -0.0533995 1.82422 0
M  V30 36157 C 3631.26 3.38952 1.25674 0
M  V30 36158 O 3630.99 4.37284 0.26734 0
M  V30 36159 C 3632.49 3.94616 2.01973 0
M  V30 36160 H 3629.71 0.651438 0.160841 0
M  V30 36161 H 3632.25 2.03911 -0.155147 0
M  V30 36162 H 3630.41 3.3424 1.95864 0
M  V30 36163 H 3630.82 5.19216 0.742604 0
M  V30 36164 H 3632.29 4.95339 2.43604 0
M  V30 36165 H 3632.77 3.3162 2.87967 0
M  V30 36166 H 3633.38 4.02755 1.36632 0
M  V30 36167 N 3631.69 -0.193366 1.56409 0
M  V30 36168 C 3633.1 -0.757885 1.70625 0
M  V30 36169 C 3633.45 -1.83775 0.687106 0
M  V30 36170 O 3632.58 -2.15836 -0.156122 0
M  V30 36171 C 3633.17 -1.38151 3.09354 0
M  V30 36172 C 3631.73 -1.89309 3.25329 0
M  V30 36173 C 3630.88 -0.76368 2.66577 0
M  V30 36174 H 3633.83 0.0317313 1.58668 0
M  V30 36175 H 3633.85 -2.25092 3.0678 0
M  V30 36176 H 3633.36 -0.59533 3.83507 0
M  V30 36177 H 3631.46 -2.7064 2.56095 0
M  V30 36178 H 3631.58 -2.05369 4.32852 0
M  V30 36179 H 3629.94 -1.17842 2.25799 0
M  V30 36180 H 3630.72 0.0102846 3.43298 0
M  V30 36181 N 3633.17 -1.50702 -0.461142 0
M  V30 36182 C 3634.08 -1.73095 -1.58352 0
M  V30 36183 C 3635.1 -0.614339 -1.62794 0
M  V30 36184 O 3636.27 -0.893838 -1.80479 0
M  V30 36185 C 3633.34 -1.82941 -2.94505 0
M  V30 36186 C 3632.4 -3.06717 -3.00372 0
M  V30 36187 C 3631.63 -3.16084 -4.30031 0
M  V30 36188 O 3631.85 -2.31987 -5.21093 0
M  V30 36189 O 3630.79 -4.08888 -4.41694 0
M  V30 36190 H 3634.61 -2.68257 -1.42379 0
M  V30 36191 H 3632.2 -1.34918 -0.641685 0
M  V30 36192 H 3634.08 -1.9154 -3.75353 0
M  V30 36193 H 3632.76 -0.909636 -3.10656 0
M  V30 36194 H 3631.66 -3.03611 -2.18566 0
M  V30 36195 H 3633 -3.98305 -2.8916 0
M  V30 36196 N 3634.65 0.715001 -1.40447 0
M  V30 36197 C 3635.88 1.50191 -1.41867 0
M  V30 36198 C 3636.29 1.89192 -0.0168477 0
M  V30 36199 O 3635.63 1.56021 0.969704 0
M  V30 36200 C 3635.69 2.80686 -2.24624 0
M  V30 36201 C 3635.35 2.64003 -3.7303 0
M  V30 36202 C 3636.35 2.31224 -4.65652 0
M  V30 36203 C 3634.04 2.80249 -4.16852 0
M  V30 36204 C 3636.03 2.14902 -6.0008 0
M  V30 36205 C 3633.72 2.63544 -5.51351 0
M  V30 36206 C 3634.72 2.30919 -6.4278 0
M  V30 36207 O 3634.4 2.14341 -7.74799 0
M  V30 36208 H 3634.14 0.470049 -0.485829 0
M  V30 36209 H 3636.69 0.889518 -1.8514 0
M  V30 36210 H 3634.92 3.44259 -1.76132 0
M  V30 36211 H 3636.61 3.42404 -2.17978 0
M  V30 36212 H 3637.37 2.18305 -4.33091 0
M  V30 36213 H 3633.25 3.04631 -3.46007 0
M  V30 36214 H 3636.8 1.89358 -6.71408 0
M  V30 36215 H 3632.69 2.76048 -5.83496 0
M  V30 36216 H 3633.46 2.29257 -7.85738 0
M  V30 36217 N 3636.13 1.25954 0.947281 0
M  V30 36218 C 3637.36 1.13733 1.72477 0
M  V30 36219 C 3637.76 -0.310838 1.86629 0
M  V30 36220 O 3637.11 -1.22509 1.36884 0
M  V30 36221 C 3637.17 1.72657 3.15325 0
M  V30 36222 C 3636.83 3.21711 3.24578 0
M  V30 36223 C 3637.83 4.18608 3.08324 0
M  V30 36224 C 3635.51 3.6206 3.48164 0
M  V30 36225 C 3637.51 5.53832 3.15513 0
M  V30 36226 C 3635.2 4.9742 3.54989 0
M  V30 36227 C 3636.19 5.93115 3.38679 0
M  V30 36228 O 3635.88 7.26011 3.452 0
M  V30 36229 H 3635.61 0.397147 0.547037 0
M  V30 36230 H 3638.17 1.66951 1.19651 0
M  V30 36231 H 3636.4 1.13894 3.69547 0
M  V30 36232 H 3638.09 1.55429 3.74962 0
M  V30 36233 H 3638.85 3.88774 2.89965 0
M  V30 36234 H 3634.73 2.88064 3.59917 0
M  V30 36235 H 3638.28 6.28505 3.027 0
M  V30 36236 H 3634.17 5.26916 3.72867 0
M  V30 36237 H 3634.94 7.34204 3.61783 0
M  V30 36238 N 3637.6 -1.15097 1.07659 0
M  V30 36239 C 3639.02 -1.67539 0.823858 0
M  V30 36240 C 3639.37 -1.851 -0.650569 0
M  V30 36241 O 3638.49 -1.55659 -1.5033 0
M  V30 36242 C 3639.09 -3.04328 1.48895 0
M  V30 36243 C 3637.65 -3.53835 1.28365 0
M  V30 36244 C 3636.79 -2.29487 1.55663 0
M  V30 36245 H 3639.74 -0.992677 1.23821 0
M  V30 36246 H 3639.76 -3.69411 0.911913 0
M  V30 36247 H 3639.28 -2.91515 2.56204 0
M  V30 36248 H 3637.38 -3.71884 0.230929 0
M  V30 36249 H 3637.49 -4.35082 2.00601 0
M  V30 36250 H 3635.85 -2.35183 0.977796 0
M  V30 36251 H 3636.64 -2.19258 2.6416 0
M  V30 36252 N 3639.08 -0.861145 -1.31993 0
M  V30 36253 C 3640.03 -0.299393 -2.30665 0
M  V30 36254 C 3641.02 0.580751 -1.59134 0
M  V30 36255 O 3642.23 0.467833 -1.73814 0
M  V30 36256 H 3638.61 -0.0781223 -0.747931 0
M  V30 36257 H 3640.58 -1.14572 -2.75528 0
M  V30 36258 C 3639.33 0.491822 -3.44204 0
M  V30 36259 H 3638.65 -0.17615 -3.99412 0
M  V30 36260 H 3640.09 0.850361 -4.15385 0
M  V30 36261 C 3638.55 1.67962 -2.92045 0
M  V30 36262 O 3639.08 2.77881 -2.90078 0
M  V30 36263 N 3637.28 1.50882 -2.4836 0
M  V30 36264 H 3636.83 0.614639 -2.5016 0
M  V30 36265 H 3636.79 2.30499 -2.13817 0
M  V30 36266 N 3640.56 1.44905 -0.619713 0
M  V30 36267 C 3641.52 2.29053 0.0821962 0
M  V30 36268 C 3642.52 1.40426 0.783403 0
M  V30 36269 O 3643.71 1.6242 0.629723 0
M  V30 36270 C 3640.85 3.21739 1.12679 0
M  V30 36271 H 3642.04 2.92597 -0.657778 0
M  V30 36272 H 3639.59 1.51628 -0.379313 0
M  V30 36273 H 3640.33 2.6302 1.89713 0
M  V30 36274 H 3640.11 3.87037 0.628054 0
M  V30 36275 H 3641.6 3.84981 1.61801 0
M  V30 36276 N 3642.04 0.359579 1.53443 0
M  V30 36277 C 3643.29 -0.231529 2.00769 0
M  V30 36278 C 3643.61 -1.49773 1.24873 0
M  V30 36279 O 3642.88 -1.92558 0.360318 0
M  V30 36280 H 3641.46 -0.0885451 0.741734 0
M  V30 36281 H 3644.12 0.48443 1.88784 0
M  V30 36282 H 3643.22 -0.462735 3.08651 0
M  V30 36283 N 3643.52 -1.57351 0.0885919 0
M  V30 36284 C 3644.45 -2.16691 -0.869908 0
M  V30 36285 C 3645.43 -1.09846 -1.29876 0
M  V30 36286 O 3646.61 -1.37956 -1.36681 0
M  V30 36287 C 3643.74 -2.74203 -2.13143 0
M  V30 36288 C 3642.7 -3.86362 -1.84142 0
M  V30 36289 C 3642.02 -4.30549 -3.17068 0
M  V30 36290 C 3643.32 -5.09852 -1.13348 0
M  V30 36291 H 3645.02 -2.97036 -0.375526 0
M  V30 36292 H 3642.56 -1.42881 -0.179185 0
M  V30 36293 H 3644.52 -3.14365 -2.80628 0
M  V30 36294 H 3643.24 -1.91103 -2.64853 0
M  V30 36295 H 3641.9 -3.46729 -1.19057 0
M  V30 36296 H 3641.55 -3.44348 -3.66652 0
M  V30 36297 H 3641.25 -5.06164 -2.98448 0
M  V30 36298 H 3642.77 -4.7334 -3.85722 0
M  V30 36299 H 3644.18 -5.47225 -1.70931 0
M  V30 36300 H 3642.58 -5.90855 -1.0493 0
M  V30 36301 H 3643.65 -4.84763 -0.115188 0
M  V30 36302 N 3644.99 0.185069 -1.5651 0
M  V30 36303 C 3646.24 0.902126 -1.80401 0
M  V30 36304 C 3646.56 1.84002 -0.663529 0
M  V30 36305 O 3647.76 2.59843 -0.787009 0
M  V30 36306 C 3646.22 1.6546 -3.19611 0
M  V30 36307 C 3645.83 0.761032 -4.41489 0
M  V30 36308 C 3647.57 2.3607 -3.52805 0
M  V30 36309 C 3645.48 1.51295 -5.7172 0
M  V30 36310 H 3644.41 0.340603 -0.672686 0
M  V30 36311 H 3647.06 0.15524 -1.82842 0
M  V30 36312 H 3645.44 2.44574 -3.11448 0
M  V30 36313 H 3646.61 0.00783778 -4.60799 0
M  V30 36314 H 3644.93 0.165271 -4.16072 0
M  V30 36315 H 3647.53 2.92895 -4.47344 0
M  V30 36316 H 3647.87 3.10744 -2.77026 0
M  V30 36317 H 3648.4 1.63913 -3.6246 0
M  V30 36318 H 3645.14 0.808793 -6.50491 0
M  V30 36319 H 3644.66 2.23982 -5.5641 0
M  V30 36320 H 3646.34 2.06409 -6.13192 0
M  V30 36321 N 3646.47 1.50945 0.453144 0
M  V30 36322 C 3647.41 1.65777 1.56822 0
M  V30 36323 C 3648.38 0.505542 1.54541 0
M  V30 36324 O 3649.57 0.727367 1.73901 0
M  V30 36325 C 3646.69 1.65686 2.95408 0
M  V30 36326 C 3645.74 2.86686 3.15775 0
M  V30 36327 S 3646.57 4.47736 2.93755 0
M  V30 36328 C 3647.73 4.50365 4.34651 0
M  V30 36329 H 3647.96 2.60097 1.44004 0
M  V30 36330 H 3645.5 1.40431 0.641746 0
M  V30 36331 H 3647.45 1.66317 3.75298 0
M  V30 36332 H 3646.11 0.725713 3.05601 0
M  V30 36333 H 3645.31 2.82977 4.17061 0
M  V30 36334 H 3644.91 2.83714 2.43685 0
M  V30 36335 H 3647.2 4.25033 5.27592 0
M  V30 36336 H 3648.14 5.5209 4.43398 0
M  V30 36337 H 3648.55 3.79864 4.17568 0
M  V30 36338 N 3647.95 -0.707543 1.40825 0
M  V30 36339 C 3648.9 -1.84292 1.41913 0
M  V30 36340 C 3649.89 -1.66747 0.298622 0
M  V30 36341 O 3651.1 -1.73754 0.470061 0
M  V30 36342 H 3647.47 -0.607101 0.443771 0
M  V30 36343 H 3649.44 -1.8049 2.37626 0
M  V30 36344 C 3648.19 -3.22221 1.30649 0
M  V30 36345 H 3647.52 -3.36331 2.16151 0
M  V30 36346 H 3648.96 -4.01776 1.35471 0
M  V30 36347 C 3647.42 -3.36895 0.0175459 0
M  V30 36348 O 3647.95 -3.90491 -0.942329 0
M  V30 36349 N 3646.15 -2.90549 -0.0546061 0
M  V30 36350 H 3645.7 -2.47121 0.727248 0
M  V30 36351 H 3645.66 -3.00746 -0.916468 0
M  V30 36352 N 3649.43 -1.26454 -0.940588 0
M  V30 36353 C 3650.66 -1.14646 -1.71872 0
M  V30 36354 C 3651.07 0.300936 -1.86791 0
M  V30 36355 O 3650.41 1.21782 -1.37532 0
M  V30 36356 C 3650.47 -1.74326 -3.14405 0
M  V30 36357 C 3650.14 -3.23428 -3.22868 0
M  V30 36358 C 3651.13 -4.20237 -3.061 0
M  V30 36359 C 3648.82 -3.63901 -3.46239 0
M  V30 36360 C 3650.81 -5.55498 -3.12572 0
M  V30 36361 C 3648.5 -4.99295 -3.52346 0
M  V30 36362 C 3649.5 -5.94903 -3.35528 0
M  V30 36363 O 3649.18 -7.27832 -3.41345 0
M  V30 36364 H 3648.92 -0.400043 -0.544924 0
M  V30 36365 H 3651.47 -1.67584 -1.18764 0
M  V30 36366 H 3649.7 -1.15852 -3.68938 0
M  V30 36367 H 3651.39 -1.57416 -3.74132 0
M  V30 36368 H 3652.16 -3.90307 -2.87899 0
M  V30 36369 H 3648.03 -2.89968 -3.58384 0
M  V30 36370 H 3651.58 -6.30101 -2.99363 0
M  V30 36371 H 3647.48 -5.28886 -3.70067 0
M  V30 36372 H 3648.24 -7.36112 -3.57884 0
M  V30 36373 N 3650.91 1.14525 -1.08268 0
M  V30 36374 C 3652.15 1.87188 -0.820978 0
M  V30 36375 C 3652.51 1.80965 0.641525 0
M  V30 36376 O 3653.71 2.4875 1.01866 0
M  V30 36377 C 3651.98 3.31862 -1.32673 0
M  V30 36378 S 3653.54 4.22154 -1.19712 0
M  V30 36379 H 3650.36 0.645883 -0.297248 0
M  V30 36380 H 3652.96 1.38112 -1.38367 0
M  V30 36381 H 3651.67 3.33939 -2.38564 0
M  V30 36382 H 3651.2 3.85996 -0.759656 0
M  V30 36383 H 3653.21 4.96001 -0.140509 0
M  V30 36384 N 3652.39 0.868133 1.31534 0
M  V30 36385 C 3653.8 0.559805 1.4946 0
M  V30 36386 C 3654 -0.906494 1.79958 0
M  V30 36387 O 3653.06 -1.68878 1.87714 0
M  V30 36388 C 3654.37 1.45843 2.62964 0
M  V30 36389 C 3655.92 1.46028 2.76848 0
M  V30 36390 C 3656.39 2.34443 3.93447 0
M  V30 36391 N 3657.88 2.32313 4.0073 0
M  V30 36392 C 3658.62 2.97446 4.90218 0
M  V30 36393 N 3658.12 3.71741 5.8462 0
M  V30 36394 N 3659.91 2.86764 4.83449 0
M  V30 36395 H 3652.06 1.81693 1.10007 0
M  V30 36396 H 3654.32 0.776799 0.543404 0
M  V30 36397 H 3654.03 2.50172 2.47198 0
M  V30 36398 H 3653.9 1.15563 3.59061 0
M  V30 36399 H 3656.29 0.424578 2.9203 0
M  V30 36400 H 3656.37 1.80331 1.81424 0
M  V30 36401 H 3656.01 3.38088 3.79023 0
M  V30 36402 H 3655.94 1.97465 4.88175 0
M  V30 36403 H 3658.44 1.78309 3.33188 0
M  V30 36404 H 3658.75 4.18573 6.49628 0
M  V30 36405 H 3657.09 3.7585 5.84604 0
M  V30 36406 H 3660.28 2.28261 4.08674 0
M  V30 36407 H 3660.46 3.37804 5.52985 0
M  V30 36408 N 3653.86 -1.44574 0.627389 0
M  V30 36409 C 3654.81 -2.32418 -0.092008 0
M  V30 36410 C 3655.81 -1.47129 -0.839607 0
M  V30 36411 O 3657.01 -1.63496 -0.75293 0
M  V30 36412 H 3653.39 -0.750433 -0.0485204 0
M  V30 36413 H 3655.36 -2.9085 0.66701 0
M  V30 36414 C 3654.11 -3.31066 -1.06256 0
M  V30 36415 H 3653.43 -3.96702 -0.49673 0
M  V30 36416 H 3654.87 -3.9522 -1.53549 0
M  V30 36417 C 3653.33 -2.59711 -2.14597 0
M  V30 36418 O 3653.86 -2.39323 -3.22626 0
M  V30 36419 N 3652.06 -2.19513 -1.90427 0
M  V30 36420 H 3651.61 -2.36295 -1.02579 0
M  V30 36421 H 3651.57 -1.72096 -2.63116 0
M  V30 36422 N 3655.34 -0.367711 -1.5325 0
M  V30 36423 C 3656.75 0.11104 -1.8637 0
M  V30 36424 C 3657.1 1.47984 -1.28823 0
M  V30 36425 O 3656.23 2.07592 -0.611095 0
M  V30 36426 C 3656.82 0.208265 -3.38159 0
M  V30 36427 C 3655.38 0.631275 -3.71069 0
M  V30 36428 C 3654.53 -0.220193 -2.76424 0
M  V30 36429 H 3657.48 -0.586424 -1.47468 0
M  V30 36430 H 3657.5 1.03144 -3.66253 0
M  V30 36431 H 3657.01 -0.788105 -3.80014 0
M  V30 36432 H 3655.11 1.6358 -3.34772 0
M  V30 36433 H 3655.23 0.404407 -4.7739 0
M  V30 36434 H 3653.59 0.311254 -2.52791 0
M  V30 36435 H 3654.37 -1.21414 -3.21113 0
M  V30 36436 N 3656.82 1.57302 -0.0969353 0
M  V30 36437 C 3658.1 1.85887 0.608704 0
M  V30 36438 C 3658.48 0.994129 1.86226 0
M  V30 36439 O 3657.82 0.0670377 2.28402 0
M  V30 36440 C 3658.03 3.36592 0.922326 0
M  V30 36441 C 3659.38 4.04689 1.28498 0
M  V30 36442 O 3660.41 3.41484 1.01328 0
M  V30 36443 O 3659.27 5.16218 1.79391 0
M  V30 36444 H 3656.36 0.768784 0.304795 0
M  V30 36445 H 3658.91 1.69203 -0.129772 0
M  V30 36446 H 3657.68 3.91286 0.03308 0
M  V30 36447 H 3657.3 3.58629 1.71672 0
M  V30 36448 N 3658.3 -0.176766 1.56606 0
M  V30 36449 C 3659.26 -1.20268 1.95111 0
M  V30 36450 C 3660.26 -1.37471 0.834164 0
M  V30 36451 O 3661.45 -1.3497 1.1013 0
M  V30 36452 C 3658.58 -2.56874 2.24117 0
M  V30 36453 H 3659.78 -0.87307 2.8691 0
M  V30 36454 H 3657.33 -0.419006 1.50579 0
M  V30 36455 H 3658.06 -2.94859 1.35014 0
M  V30 36456 H 3657.85 -2.45755 3.05527 0
M  V30 36457 H 3659.34 -3.30821 2.54848 0
M  V30 36458 N 3659.78 -1.51183 -0.445132 0
M  V30 36459 C 3661.02 -1.63708 -1.19698 0
M  V30 36460 C 3661.35 -0.348545 -1.91047 0
M  V30 36461 O 3660.63 0.651465 -1.83265 0
M  V30 36462 C 3660.91 -2.83515 -2.22016 0
M  V30 36463 C 3660.77 -4.22323 -1.54802 0
M  V30 36464 C 3662.08 -2.98846 -3.23078 0
M  V30 36465 H 3659.2 -0.595802 -0.433807 0
M  V30 36466 H 3661.85 -1.83646 -0.487244 0
M  V30 36467 H 3660 -2.66646 -2.82546 0
M  V30 36468 H 3661.67 -4.50842 -0.976695 0
M  V30 36469 H 3659.91 -4.25381 -0.850521 0
M  V30 36470 H 3660.58 -5.0213 -2.2928 0
M  V30 36471 H 3663.06 -3.14374 -2.72595 0
M  V30 36472 H 3661.93 -3.84253 -3.91971 0
M  V30 36473 H 3662.19 -2.10577 -3.88728 0
M  V30 36474 N 3661.25 0.700065 -1.41198 0
M  V30 36475 C 3662.22 1.79579 -1.42422 0
M  V30 36476 C 3663.22 1.57674 -0.315537 0
M  V30 36477 O 3664.41 1.6443 -0.575202 0
M  V30 36478 C 3661.54 3.17891 -1.23119 0
M  V30 36479 H 3662.73 1.79888 -2.39959 0
M  V30 36480 H 3660.28 0.907248 -1.27274 0
M  V30 36481 H 3661.02 3.23223 -0.264049 0
M  V30 36482 H 3660.8 3.35191 -2.03443 0
M  V30 36483 H 3662.29 3.97884 -1.268 0
M  V30 36484 N 3662.73 1.26951 0.933869 0
M  V30 36485 C 3663.69 1.09193 2.01518 0
M  V30 36486 C 3664.69 0.0378933 1.60755 0
M  V30 36487 O 3665.88 0.281947 1.71903 0
M  V30 36488 C 3663.02 0.662449 3.34402 0
M  V30 36489 H 3664.21 2.05205 2.18703 0
M  V30 36490 H 3661.76 1.09652 1.11383 0
M  V30 36491 H 3662.5 -0.299331 3.22916 0
M  V30 36492 H 3662.28 1.42362 3.65343 0
M  V30 36493 H 3663.77 0.56026 4.13825 0
M  V30 36494 N 3664.21 -1.13949 1.08873 0
M  V30 36495 C 3665.62 -1.66656 0.841581 0
M  V30 36496 C 3665.97 -1.8578 -0.6309 0
M  V30 36497 O 3665.1 -1.57245 -1.48671 0
M  V30 36498 C 3665.69 -3.02732 1.52115 0
M  V30 36499 C 3664.25 -3.52454 1.32111 0
M  V30 36500 C 3663.4 -2.27823 1.58088 0
M  V30 36501 H 3666.35 -0.979488 1.24867 0
M  V30 36502 H 3666.37 -3.68423 0.951043 0
M  V30 36503 H 3665.88 -2.88781 2.59281 0
M  V30 36504 H 3663.98 -3.71618 0.270359 0
M  V30 36505 H 3664.1 -4.3293 2.05204 0
M  V30 36506 H 3662.46 -2.34133 1.00269 0
M  V30 36507 H 3663.24 -2.16444 2.66471 0
M  V30 36508 N 3665.69 -0.875096 -1.31072 0
M  V30 36509 C 3666.92 -0.502485 -2.00396 0
M  V30 36510 C 3667.33 0.910922 -1.65828 0
M  V30 36511 O 3666.67 1.60905 -0.886304 0
M  V30 36512 C 3666.73 -0.585807 -3.54695 0
M  V30 36513 C 3666.39 -1.96175 -4.12752 0
M  V30 36514 C 3667.39 -2.92991 -4.29479 0
M  V30 36515 C 3665.08 -2.26445 -4.48361 0
M  V30 36516 C 3667.07 -4.18218 -4.81012 0
M  V30 36517 C 3664.76 -3.5192 -4.99595 0
M  V30 36518 C 3665.76 -4.47622 -5.15872 0
M  V30 36519 O 3665.44 -5.70872 -5.66004 0
M  V30 36520 H 3665.18 -0.193744 -0.647641 0
M  V30 36521 H 3667.73 -1.1795 -1.68158 0
M  V30 36522 H 3665.96 0.148146 -3.86416 0
M  V30 36523 H 3667.65 -0.22589 -4.05271 0
M  V30 36524 H 3668.41 -2.70914 -4.02282 0
M  V30 36525 H 3664.29 -1.52729 -4.34965 0
M  V30 36526 H 3667.84 -4.92923 -4.93632 0
M  V30 36527 H 3663.73 -3.73839 -5.26227 0
M  V30 36528 H 3664.5 -5.73115 -5.84364 0
M  V30 36529 N 3667.17 1.44239 -0.635047 0
M  V30 36530 C 3668.41 2.03889 -0.144465 0
M  V30 36531 C 3668.77 1.48899 1.21215 0
M  V30 36532 O 3669.97 2.00076 1.79507 0
M  V30 36533 C 3668.24 3.57146 -0.134839 0
M  V30 36534 S 3669.8 4.37837 0.290551 0
M  V30 36535 H 3666.62 0.708203 -0.063009 0
M  V30 36536 H 3669.22 1.76567 -0.839315 0
M  V30 36537 H 3667.93 3.94673 -1.12523 0
M  V30 36538 H 3667.46 3.89084 0.581133 0
M  V30 36539 H 3669.47 4.71898 1.53383 0
M  V30 36540 N 3668.64 0.375833 1.53053 0
M  V30 36541 C 3669.87 -0.210792 2.05522 0
M  V30 36542 C 3670.28 -1.42168 1.24839 0
M  V30 36543 O 3669.63 -1.81481 0.284666 0
M  V30 36544 C 3669.69 -0.658485 3.53418 0
M  V30 36545 C 3669.35 0.437105 4.54905 0
M  V30 36546 C 3670.35 1.29025 5.03635 0
M  V30 36547 C 3668.03 0.600282 4.987 0
M  V30 36548 C 3670.03 2.29182 5.94773 0
M  V30 36549 C 3667.71 1.6052 5.89641 0
M  V30 36550 C 3668.71 2.4494 6.37568 0
M  V30 36551 O 3668.4 3.43716 7.26715 0
M  V30 36552 H 3668.13 -0.0386509 0.674894 0
M  V30 36553 H 3670.69 0.535569 1.98295 0
M  V30 36554 H 3668.92 -1.45661 3.58217 0
M  V30 36555 H 3670.61 -1.16926 3.88694 0
M  V30 36556 H 3671.37 1.17542 4.70541 0
M  V30 36557 H 3667.25 -0.0470536 4.60976 0
M  V30 36558 H 3670.79 2.9511 6.32104 0
M  V30 36559 H 3666.69 1.72046 6.2215 0
M  V30 36560 H 3667.46 3.39566 7.4474 0
M  V30 36561 N 3670.12 -1.57248 0.105276 0
M  V30 36562 C 3671.35 -1.99061 -0.564122 0
M  V30 36563 C 3671.77 -0.984653 -1.6109 0
M  V30 36564 O 3671.12 0.024371 -1.82484 0
M  V30 36565 C 3671.17 -3.40908 -1.20266 0
M  V30 36566 O 3670.89 -4.37654 -0.197738 0
M  V30 36567 C 3672.4 -3.97779 -1.9567 0
M  V30 36568 H 3669.62 -0.653914 -0.150457 0
M  V30 36569 H 3672.16 -2.03638 0.187568 0
M  V30 36570 H 3670.31 -3.37313 -1.90522 0
M  V30 36571 H 3670.73 -5.20332 -0.659907 0
M  V30 36572 H 3672.2 -4.99152 -2.35693 0
M  V30 36573 H 3672.68 -3.36159 -2.82655 0
M  V30 36574 H 3673.29 -4.04878 -1.30207 0
M  V30 36575 N 3671.6 0.168458 -1.56697 0
M  V30 36576 C 3673.02 0.520334 -1.5088 0
M  V30 36577 C 3673.22 1.84501 -0.810033 0
M  V30 36578 O 3672.27 2.49751 -0.371593 0
M  V30 36579 C 3673.59 0.55045 -2.95619 0
M  V30 36580 C 3675.13 0.637454 -3.0644 0
M  V30 36581 C 3675.61 0.698436 -4.52643 0
M  V30 36582 N 3677.1 0.761248 -4.56902 0
M  V30 36583 C 3677.83 0.829055 -5.67375 0
M  V30 36584 N 3677.33 0.857521 -6.87472 0
M  V30 36585 N 3679.12 0.868295 -5.55353 0
M  V30 36586 H 3671.27 -0.700122 -2.00529 0
M  V30 36587 H 3673.54 -0.252775 -0.913679 0
M  V30 36588 H 3673.24 -0.354283 -3.49911 0
M  V30 36589 H 3673.12 1.39594 -3.50419 0
M  V30 36590 H 3675.5 1.53261 -2.5218 0
M  V30 36591 H 3675.59 -0.234764 -2.5472 0
M  V30 36592 H 3675.23 -0.192477 -5.07535 0
M  V30 36593 H 3675.16 1.58684 -5.02122 0
M  V30 36594 H 3677.65 0.747417 -3.70435 0
M  V30 36595 H 3677.96 0.910513 -7.67417 0
M  V30 36596 H 3676.31 0.825751 -6.90077 0
M  V30 36597 H 3679.5 0.843077 -4.60445 0
M  V30 36598 H 3679.67 0.917676 -6.41469 0
M  V30 36599 N 3673.08 1.51417 0.437109 0
M  V30 36600 C 3674.36 1.54638 1.19777 0
M  V30 36601 C 3674.74 0.310784 2.088 0
M  V30 36602 O 3674.08 -0.70411 2.17381 0
M  V30 36603 C 3674.29 2.8605 1.99942 0
M  V30 36604 C 3675.64 3.38007 2.56975 0
M  V30 36605 O 3676.67 2.87601 2.10152 0
M  V30 36606 O 3675.52 4.25959 3.42375 0
M  V30 36607 H 3672.62 0.621723 0.545335 0
M  V30 36608 H 3675.16 1.6373 0.44616 0
M  V30 36609 H 3673.94 3.67437 1.34557 0
M  V30 36610 H 3673.56 2.8012 2.82167 0
M  V30 36611 N 3674.56 -0.692567 1.41567 0
M  V30 36612 C 3675.97 -1.27259 1.36609 0
M  V30 36613 C 3676.32 -1.96135 0.0506426 0
M  V30 36614 O 3675.44 -1.98963 -0.851036 0
M  V30 36615 C 3676.04 -2.3143 2.47438 0
M  V30 36616 C 3674.6 -2.85002 2.45868 0
M  V30 36617 C 3673.74 -1.59079 2.27132 0
M  V30 36618 H 3676.7 -0.487122 1.51039 0
M  V30 36619 H 3676.72 -3.12786 2.16669 0
M  V30 36620 H 3676.23 -1.81272 3.43165 0
M  V30 36621 H 3674.33 -3.39328 1.53907 0
M  V30 36622 H 3674.44 -3.35228 3.42285 0
M  V30 36623 H 3672.81 -1.84999 1.75064 0
M  V30 36624 H 3673.59 -1.10913 3.24889 0
M  V30 36625 N 3676.03 -1.27445 -0.927123 0
M  V30 36626 C 3677.28 -1.13592 -1.67157 0
M  V30 36627 C 3677.6 0.318617 -1.92379 0
M  V30 36628 O 3676.87 1.22284 -1.53047 0
M  V30 36629 H 3675.45 -0.417382 -0.619517 0
M  V30 36630 H 3678.12 -1.59981 -1.1132 0
M  V30 36631 H 3677.21 -1.66542 -2.63951 0
M  V30 36632 N 3677.51 1.1337 -1.09476 0
M  V30 36633 C 3678.76 1.84932 -0.832355 0
M  V30 36634 C 3679.09 1.83336 0.640437 0
M  V30 36635 O 3678.37 1.27183 1.47156 0
M  V30 36636 C 3678.65 3.3307 -1.36882 0
M  V30 36637 C 3678.5 3.43176 -2.90775 0
M  V30 36638 C 3679.82 4.28518 -1.00302 0
M  V30 36639 H 3676.94 0.671458 -0.303832 0
M  V30 36640 H 3679.58 1.33064 -1.35624 0
M  V30 36641 H 3677.73 3.77372 -0.9232 0
M  V30 36642 H 3679.4 3.07582 -3.43789 0
M  V30 36643 H 3677.65 2.84036 -3.27881 0
M  V30 36644 H 3678.32 4.47352 -3.23389 0
M  V30 36645 H 3680.79 3.9229 -1.38735 0
M  V30 36646 H 3679.67 5.30603 -1.40542 0
M  V30 36647 H 3679.93 4.42011 0.0887356 0
M  V30 36648 N 3678.99 0.882035 1.30606 0
M  V30 36649 C 3680.41 0.575626 1.48858 0
M  V30 36650 C 3680.61 -0.887356 1.80909 0
M  V30 36651 O 3679.66 -1.66877 1.89495 0
M  V30 36652 C 3680.98 1.48624 2.61403 0
M  V30 36653 C 3682.52 1.48956 2.75284 0
M  V30 36654 C 3683 2.38603 3.90938 0
M  V30 36655 N 3684.49 2.3655 3.98244 0
M  V30 36656 C 3685.22 3.02628 4.87035 0
M  V30 36657 N 3684.72 3.77921 5.80644 0
M  V30 36658 N 3686.51 2.91875 4.8038 0
M  V30 36659 H 3678.66 1.82849 1.08073 0
M  V30 36660 H 3680.93 0.782518 0.535135 0
M  V30 36661 H 3680.63 2.5278 2.44531 0
M  V30 36662 H 3680.51 1.19364 3.57816 0
M  V30 36663 H 3682.89 0.455528 2.91563 0
M  V30 36664 H 3682.98 1.82245 1.79501 0
M  V30 36665 H 3682.62 3.42089 3.75416 0
M  V30 36666 H 3682.55 2.02632 4.86053 0
M  V30 36667 H 3685.04 1.81832 3.31278 0
M  V30 36668 H 3685.35 4.2544 6.45152 0
M  V30 36669 H 3683.7 3.82029 5.80585 0
M  V30 36670 H 3686.89 2.32583 4.0623 0
M  V30 36671 H 3687.06 3.4365 5.49371 0
M  V30 36672 N 3680.47 -1.439 0.642688 0
M  V30 36673 C 3681.71 -2.02765 0.1606 0
M  V30 36674 C 3682.07 -1.49731 -1.20824 0
M  V30 36675 O 3681.36 -0.676457 -1.79261 0
M  V30 36676 C 3681.56 -3.5726 0.100202 0
M  V30 36677 C 3681.39 -4.25283 1.46164 0
M  V30 36678 C 3680.16 -4.61787 2.05137 0
M  V30 36679 C 3682.35 -4.54979 2.39789 0
M  V30 36680 N 3680.34 -5.14833 3.34396 0
M  V30 36681 C 3681.71 -5.09231 3.53672 0
M  V30 36682 C 3683.76 -4.36939 2.38723 0
M  V30 36683 C 3682.46 -5.47342 4.667 0
M  V30 36684 C 3684.49 -4.76105 3.50824 0
M  V30 36685 C 3683.85 -5.30481 4.63432 0
M  V30 36686 H 3679.95 -0.775193 0.102955 0
M  V30 36687 H 3682.54 -1.75229 0.848701 0
M  V30 36688 H 3680.71 -3.84382 -0.557212 0
M  V30 36689 H 3682.44 -4.02799 -0.391783 0
M  V30 36690 H 3679.19 -4.46482 1.57957 0
M  V30 36691 H 3679.62 -5.4582 4.00512 0
M  V30 36692 H 3684.26 -3.94182 1.52907 0
M  V30 36693 H 3681.98 -5.89048 5.53216 0
M  V30 36694 H 3685.56 -4.63851 3.51189 0
M  V30 36695 H 3684.44 -5.60227 5.4874 0
M  V30 36696 N 3681.95 -0.383945 -1.52852 0
M  V30 36697 C 3682.86 0.461257 -2.30021 0
M  V30 36698 C 3683.87 1.07629 -1.36719 0
M  V30 36699 O 3685.05 1.08326 -1.69786 0
M  V30 36700 C 3682.11 1.57604 -3.08807 0
M  V30 36701 C 3681.18 0.986663 -4.17808 0
M  V30 36702 C 3680.41 2.04832 -4.92828 0
M  V30 36703 O 3680.63 3.26251 -4.67885 0
M  V30 36704 O 3679.57 1.66861 -5.78309 0
M  V30 36705 H 3683.39 -0.167243 -3.03239 0
M  V30 36706 H 3680.98 -0.147808 -1.48667 0
M  V30 36707 H 3682.86 2.22377 -3.57947 0
M  V30 36708 H 3681.53 2.1896 -2.38407 0
M  V30 36709 H 3680.44 0.302331 -3.72876 0
M  V30 36710 H 3681.77 0.417394 -4.90427 0
M  V30 36711 N 3683.43 1.5719 -0.113614 0
M  V30 36712 C 3684.66 1.99068 0.552754 0
M  V30 36713 C 3685.06 0.992066 1.61105 0
M  V30 36714 O 3684.41 -0.0239742 1.83684 0
M  V30 36715 C 3684.47 3.37352 1.24233 0
M  V30 36716 C 3684.13 4.55788 0.332618 0
M  V30 36717 C 3685.13 5.18147 -0.426631 0
M  V30 36718 C 3682.81 5.01701 0.245263 0
M  V30 36719 C 3684.81 6.24802 -1.26102 0
M  V30 36720 C 3682.5 6.08218 -0.592766 0
M  V30 36721 C 3683.49 6.69635 -1.34454 0
M  V30 36722 O 3683.18 7.74096 -2.16867 0
M  V30 36723 H 3682.91 0.658833 0.151378 0
M  V30 36724 H 3685.47 2.04471 -0.195149 0
M  V30 36725 H 3683.7 3.28688 2.03719 0
M  V30 36726 H 3685.39 3.63555 1.80507 0
M  V30 36727 H 3686.15 4.83594 -0.368983 0
M  V30 36728 H 3682.03 4.53647 0.820098 0
M  V30 36729 H 3685.58 6.72669 -1.84829 0
M  V30 36730 H 3681.47 6.422 -0.651827 0
M  V30 36731 H 3682.24 7.91168 -2.0975 0
M  V30 36732 N 3684.9 -0.160146 1.56784 0
M  V30 36733 C 3686.14 -0.881315 1.84424 0
M  V30 36734 C 3686.51 -1.78937 0.696101 0
M  V30 36735 O 3687.71 -2.54899 0.853219 0
M  V30 36736 C 3685.98 -1.64657 3.17211 0
M  V30 36737 S 3687.54 -2.41496 3.66367 0
M  V30 36738 H 3684.36 -0.294967 0.646928 0
M  V30 36739 H 3686.96 -0.142181 1.94982 0
M  V30 36740 H 3685.66 -0.970712 3.98755 0
M  V30 36741 H 3685.19 -2.42686 3.09624 0
M  V30 36742 H 3687.21 -3.66426 3.34584 0
M  V30 36743 N 3686.38 -1.51647 -0.429072 0
M  V30 36744 C 3687.33 -1.74142 -1.54199 0
M  V30 36745 C 3688.32 -0.607933 -1.58116 0
M  V30 36746 O 3689.53 -0.789514 -1.61761 0
M  V30 36747 H 3685.9 -0.550366 -0.512446 0
M  V30 36748 H 3687.88 -2.67417 -1.32403 0
M  V30 36749 C 3686.62 -1.89109 -2.91776 0
M  V30 36750 H 3685.95 -2.75738 -2.89497 0
M  V30 36751 H 3687.39 -2.08857 -3.68991 0
M  V30 36752 C 3685.85 -0.653003 -3.30511 0
M  V30 36753 O 3686.38 0.188483 -4.01258 0
M  V30 36754 N 3684.58 -0.494684 -2.86359 0
M  V30 36755 H 3684.13 -1.18053 -2.28957 0
M  V30 36756 H 3684.09 0.332448 -3.12637 0
M  V30 36757 N 3687.86 0.685049 -1.41932 0
M  V30 36758 C 3688.79 1.81105 -1.47389 0
M  V30 36759 C 3689.77 1.66839 -0.331462 0
M  V30 36760 O 3690.96 1.86414 -0.544364 0
M  V30 36761 C 3688.09 3.19325 -1.36561 0
M  V30 36762 C 3687.04 3.48311 -2.48724 0
M  V30 36763 C 3686.37 4.85998 -2.22958 0
M  V30 36764 C 3687.67 3.4623 -3.91053 0
M  V30 36765 H 3689.36 1.76796 -2.41627 0
M  V30 36766 H 3686.91 0.849158 -1.16298 0
M  V30 36767 H 3688.86 3.97819 -1.38988 0
M  V30 36768 H 3687.58 3.24286 -0.38812 0
M  V30 36769 H 3686.24 2.72172 -2.45597 0
M  V30 36770 H 3685.89 4.87596 -1.23527 0
M  V30 36771 H 3685.59 5.06355 -2.98124 0
M  V30 36772 H 3687.11 5.66789 -2.27118 0
M  V30 36773 H 3688.53 4.14711 -3.95838 0
M  V30 36774 H 3686.92 3.78121 -4.65987 0
M  V30 36775 H 3687.99 2.44999 -4.18454 0
M  V30 36776 N 3689.34 1.27935 0.920351 0
M  V30 36777 C 3690.57 1.17536 1.70273 0
M  V30 36778 C 3690.98 -0.26687 1.86904 0
M  V30 36779 O 3690.34 -1.18103 1.39133 0
M  V30 36780 C 3690.39 1.86224 3.09843 0
M  V30 36781 O 3690.11 3.24813 2.93986 0
M  V30 36782 C 3691.61 1.82044 4.04197 0
M  V30 36783 H 3688.83 0.408306 0.532473 0
M  V30 36784 H 3691.37 1.6894 1.15237 0
M  V30 36785 H 3689.53 1.38707 3.61717 0
M  V30 36786 H 3689.94 3.59118 3.82275 0
M  V30 36787 H 3691.42 2.34706 4.99617 0
M  V30 36788 H 3691.89 0.791371 4.32012 0
M  V30 36789 H 3692.5 2.2921 3.5825 0
M  V30 36790 N 3690.82 -1.12788 1.10076 0
M  V30 36791 C 3691.75 -2.18118 0.704061 0
M  V30 36792 C 3692.76 -1.60752 -0.257392 0
M  V30 36793 O 3693.95 -1.7845 -0.0424245 0
M  V30 36794 C 3691.05 -3.38895 0.0177262 0
M  V30 36795 C 3690.22 -4.25759 1.00241 0
M  V30 36796 C 3689.28 -5.25046 0.34825 0
M  V30 36797 O 3688.31 -5.60384 0.99792 0
M  V30 36798 N 3689.51 -5.73561 -0.894854 0
M  V30 36799 H 3692.27 -2.52765 1.61028 0
M  V30 36800 H 3689.84 -1.28174 0.98909 0
M  V30 36801 H 3691.83 -4.02395 -0.431276 0
M  V30 36802 H 3690.4 -3.02431 -0.790846 0
M  V30 36803 H 3689.62 -3.58931 1.62979 0
M  V30 36804 H 3690.91 -4.80645 1.66908 0
M  V30 36805 H 3690.3 -5.4701 -1.44211 0
M  V30 36806 H 3688.86 -6.38966 -1.28707 0
M  V30 36807 N 3692.29 -0.888949 -1.30136 0
M  V30 36808 C 3693.53 -0.516157 -1.97776 0
M  V30 36809 C 3693.9 0.918328 -1.68614 0
M  V30 36810 O 3695.1 1.39744 -2.29619 0
M  V30 36811 C 3693.37 -0.787927 -3.48606 0
M  V30 36812 S 3694.93 -0.517833 -4.35734 0
M  V30 36813 H 3691.75 -0.191897 -0.684614 0
M  V30 36814 H 3694.35 -1.14907 -1.58166 0
M  V30 36815 H 3693.05 -1.83037 -3.67322 0
M  V30 36816 H 3692.58 -0.142721 -3.93141 0
M  V30 36817 H 3694.6 0.641833 -4.92031 0
M  V30 36818 N 3693.77 1.43557 -0.65031 0
M  V30 36819 C 3695 2.06714 -0.16852 0
M  V30 36820 C 3695.42 1.48406 1.15573 0
M  V30 36821 O 3694.78 0.592872 1.71332 0
M  V30 36822 C 3694.83 3.60493 -0.0877728 0
M  V30 36823 O 3693.93 4.01289 0.950844 0
M  V30 36824 H 3693.27 0.657378 -0.0935397 0
M  V30 36825 H 3695.8 1.84112 -0.892413 0
M  V30 36826 H 3695.81 4.07886 0.0965108 0
M  V30 36827 H 3694.49 4.0231 -1.05449 0
M  V30 36828 H 3693.06 3.65492 0.739584 0
M  V30 36829 N 3695.25 0.392045 1.52646 0
M  V30 36830 C 3696.53 -0.24697 1.94035 0
M  V30 36831 C 3696.91 -1.6412 1.3277 0
M  V30 36832 O 3696.25 -2.23033 0.496861 0
M  V30 36833 C 3696.46 -0.270554 3.4795 0
M  V30 36834 C 3697.81 -0.498182 4.21667 0
M  V30 36835 O 3698.84 -0.350646 3.5447 0
M  V30 36836 O 3697.7 -0.787491 5.40796 0
M  V30 36837 H 3694.79 -0.154237 0.81249 0
M  V30 36838 H 3697.34 0.446752 1.63714 0
M  V30 36839 H 3696.11 0.70593 3.8488 0
M  V30 36840 H 3695.73 -1.00908 3.84582 0
M  V30 36841 N 3696.73 -1.57127 0.121948 0
M  V30 36842 C 3697.69 -2.14301 -0.812867 0
M  V30 36843 C 3698.69 -1.0786 -1.19259 0
M  V30 36844 O 3699.88 -1.33623 -1.11762 0
M  V30 36845 C 3697.01 -2.68566 -2.09965 0
M  V30 36846 H 3698.21 -2.98231 -0.31594 0
M  V30 36847 H 3695.76 -1.55781 -0.127312 0
M  V30 36848 H 3696.49 -1.88232 -2.64082 0
M  V30 36849 H 3696.28 -3.46415 -1.83682 0
M  V30 36850 H 3697.77 -3.127 -2.76783 0
M  V30 36851 N 3698.21 0.151829 -1.56867 0
M  V30 36852 C 3699.12 1.20714 -2.0116 0
M  V30 36853 C 3700.13 1.47301 -0.926192 0
M  V30 36854 O 3701.31 1.59066 -1.23531 0
M  V30 36855 C 3698.37 2.52181 -2.3792 0
M  V30 36856 C 3697.43 2.33284 -3.60385 0
M  V30 36857 C 3696.67 3.58481 -3.95382 0
M  V30 36858 O 3696.89 4.64465 -3.31101 0
M  V30 36859 O 3695.82 3.51432 -4.88651 0
M  V30 36860 H 3699.65 0.861123 -2.91236 0
M  V30 36861 H 3697.24 0.360187 -1.44993 0
M  V30 36862 H 3699.12 3.29697 -2.62445 0
M  V30 36863 H 3697.79 2.86323 -1.51 0
M  V30 36864 H 3696.7 1.53734 -3.41052 0
M  V30 36865 H 3698.03 2.04059 -4.47907 0
M  V30 36866 N 3699.68 1.51872 0.421024 0
M  V30 36867 C 3700.93 1.6502 1.16675 0
M  V30 36868 C 3701.25 0.37663 1.91328 0
M  V30 36869 O 3700.52 -0.608113 1.86222 0
M  V30 36870 H 3699.1 0.608214 0.433688 0
M  V30 36871 H 3701.77 1.88868 0.481117 0
M  V30 36872 H 3700.86 2.48565 1.88737 0
M  V30 36873 N 3701.16 -0.677513 1.42294 0
M  V30 36874 C 3702.39 -1.46589 1.46011 0
M  V30 36875 C 3702.81 -1.88668 0.0706346 0
M  V30 36876 O 3702.16 -1.5796 -0.914049 0
M  V30 36877 C 3702.21 -2.71677 2.38482 0
M  V30 36878 O 3701.93 -2.31366 3.72024 0
M  V30 36879 C 3703.44 -3.65264 2.51191 0
M  V30 36880 H 3700.66 -0.451145 0.496698 0
M  V30 36881 H 3703.2 -0.832703 1.86779 0
M  V30 36882 H 3701.35 -3.31192 2.00975 0
M  V30 36883 H 3701.77 -3.12124 4.2152 0
M  V30 36884 H 3703.24 -4.49767 3.20022 0
M  V30 36885 H 3703.72 -4.10981 1.54892 0
M  V30 36886 H 3704.33 -3.11645 2.89409 0
M  V30 36887 N 3702.64 -1.28421 -0.913554 0
M  V30 36888 C 3703.6 -1.12385 -1.99755 0
M  V30 36889 C 3704.6 -0.0634633 -1.60675 0
M  V30 36890 O 3705.79 -0.30926 -1.71433 0
M  V30 36891 C 3702.93 -0.715565 -3.33305 0
M  V30 36892 H 3704.12 -2.08658 -2.1541 0
M  V30 36893 H 3701.67 -1.1141 -1.09624 0
M  V30 36894 H 3702.41 0.24792 -3.23351 0
M  V30 36895 H 3702.19 -1.48157 -3.63032 0
M  V30 36896 H 3703.68 -0.626025 -4.12881 0
M  V30 36897 N 3704.12 1.12202 -1.10672 0
M  V30 36898 C 3705.36 1.84038 -0.851923 0
M  V30 36899 C 3705.7 1.84005 0.620956 0
M  V30 36900 O 3704.97 1.28737 1.45798 0
M  V30 36901 C 3705.26 3.31599 -1.40407 0
M  V30 36902 C 3705.11 3.40073 -2.94398 0
M  V30 36903 C 3706.43 4.2743 -1.04841 0
M  V30 36904 H 3703.55 0.668197 -0.310936 0
M  V30 36905 H 3706.19 1.31618 -1.37028 0
M  V30 36906 H 3704.34 3.76371 -0.963174 0
M  V30 36907 H 3706.01 3.03918 -3.47032 0
M  V30 36908 H 3704.25 2.80543 -3.30875 0
M  V30 36909 H 3704.92 4.43897 -3.28115 0
M  V30 36910 H 3707.4 3.90797 -1.42888 0
M  V30 36911 H 3706.28 5.29082 -1.46162 0
M  V30 36912 H 3706.54 4.4208 0.0418495 0
M  V30 36913 N 3705.6 0.895838 1.29663 0
M  V30 36914 C 3706.56 0.37554 2.26102 0
M  V30 36915 C 3707.56 -0.488099 1.53213 0
M  V30 36916 O 3708.75 -0.293702 1.71706 0
M  V30 36917 C 3705.88 -0.46358 3.37733 0
M  V30 36918 H 3707.07 1.22723 2.73641 0
M  V30 36919 H 3704.63 0.673638 1.41038 0
M  V30 36920 H 3705.36 -1.33541 2.95529 0
M  V30 36921 H 3705.15 0.155192 3.91793 0
M  V30 36922 H 3706.64 -0.81904 4.09489 0
M  V30 36923 N 3707.07 -1.43211 0.657914 0
M  V30 36924 C 3708.49 -1.84985 0.252476 0
M  V30 36925 C 3708.84 -1.55074 -1.20193 0
M  V30 36926 O 3707.96 -1.00206 -1.91801 0
M  V30 36927 C 3708.56 -3.35779 0.451447 0
M  V30 36928 C 3707.12 -3.76266 0.100285 0
M  V30 36929 C 3706.26 -2.66907 0.752056 0
M  V30 36930 H 3709.21 -1.33297 0.861262 0
M  V30 36931 H 3709.23 -3.79303 -0.301623 0
M  V30 36932 H 3708.75 -3.57517 1.51007 0
M  V30 36933 H 3706.85 -3.60139 -0.955554 0
M  V30 36934 H 3706.96 -4.7617 0.529026 0
M  V30 36935 H 3705.32 -2.54028 0.184868 0
M  V30 36936 H 3706.11 -2.91473 1.8138 0
M  V30 36937 N 3708.55 -0.400135 -1.52436 0
M  V30 36938 C 3709.96 0.0714834 -1.86563 0
M  V30 36939 C 3710.31 1.45218 -1.31933 0
M  V30 36940 O 3709.44 2.06249 -0.654991 0
M  V30 36941 C 3710.03 0.13649 -3.38525 0
M  V30 36942 C 3708.59 0.552424 -3.72324 0
M  V30 36943 C 3707.74 -0.278777 -2.75895 0
M  V30 36944 H 3710.69 -0.617572 -1.46191 0
M  V30 36945 H 3710.71 0.953523 -3.68359 0
M  V30 36946 H 3710.22 -0.868534 -3.78257 0
M  V30 36947 H 3708.33 1.56442 -3.38167 0
M  V30 36948 H 3708.44 0.303055 -4.78141 0
M  V30 36949 H 3706.8 0.257563 -2.53394 0
M  V30 36950 H 3707.59 -1.28198 -3.18465 0
M  V30 36951 N 3710.03 1.57061 -0.13028 0
M  V30 36952 C 3711.26 1.99933 0.532381 0
M  V30 36953 C 3711.67 1.01016 1.59503 0
M  V30 36954 O 3711.03 0.00466366 1.82499 0
M  V30 36955 C 3711.08 3.42778 1.14827 0
M  V30 36956 O 3710.8 4.37913 0.128086 0
M  V30 36957 C 3712.3 4.00842 1.89317 0
M  V30 36958 H 3709.52 0.656225 0.140035 0
M  V30 36959 H 3712.07 2.03314 -0.219941 0
M  V30 36960 H 3710.22 3.40302 1.85131 0
M  V30 36961 H 3710.64 5.21316 0.577043 0
M  V30 36962 H 3712.11 5.02839 2.27722 0
M  V30 36963 H 3712.59 3.40613 2.77271 0
M  V30 36964 H 3713.19 4.06898 1.2375 0
M  V30 36965 N 3711.51 -0.143508 1.56945 0
M  V30 36966 C 3712.76 -0.856798 1.83812 0
M  V30 36967 C 3713.09 -1.80661 0.712407 0
M  V30 36968 O 3712.36 -1.9242 -0.283709 0
M  V30 36969 C 3712.65 -1.62823 3.21187 0
M  V30 36970 C 3712.5 -0.699666 4.44325 0
M  V30 36971 C 3713.82 -2.58993 3.55824 0
M  V30 36972 H 3710.94 -0.310034 0.668616 0
M  V30 36973 H 3713.58 -0.121867 1.89609 0
M  V30 36974 H 3711.73 -2.25474 3.16376 0
M  V30 36975 H 3713.4 -0.0838808 4.61224 0
M  V30 36976 H 3711.64 -0.00947665 4.33799 0
M  V30 36977 H 3712.32 -1.27555 5.3706 0
M  V30 36978 H 3714.79 -2.06457 3.61268 0
M  V30 36979 H 3713.67 -3.10016 4.5297 0
M  V30 36980 H 3713.93 -3.40514 2.81962 0
M  V30 36981 N 3712.99 -1.52093 -0.412964 0
M  V30 36982 C 3714.22 -1.69807 -1.18209 0
M  V30 36983 C 3714.63 -0.405876 -1.84386 0
M  V30 36984 O 3713.99 0.617779 -1.71726 0
M  V30 36985 C 3714.04 -2.83098 -2.24806 0
M  V30 36986 O 3713.76 -4.07313 -1.61331 0
M  V30 36987 C 3715.26 -3.12289 -3.14627 0
M  V30 36988 H 3712.48 -0.569174 -0.355361 0
M  V30 36989 H 3715.02 -1.98632 -0.486357 0
M  V30 36990 H 3713.18 -2.56802 -2.90054 0
M  V30 36991 H 3713.59 -4.70415 -2.31971 0
M  V30 36992 H 3715.07 -3.95083 -3.85504 0
M  V30 36993 H 3715.54 -2.25683 -3.76781 0
M  V30 36994 H 3716.15 -3.40335 -2.55053 0
M  V30 36995 N 3714.47 0.669957 -1.42651 0
M  V30 36996 C 3715.88 1.2507 -1.38616 0
M  V30 36997 C 3716.23 1.96029 -0.0818395 0
M  V30 36998 O 3715.35 2.00292 0.819275 0
M  V30 36999 C 3715.95 2.27464 -2.51089 0
M  V30 37000 C 3714.51 2.81054 -2.50371 0
M  V30 37001 C 3713.65 1.55446 -2.29634 0
M  V30 37002 H 3716.6 0.463032 -1.51795 0
M  V30 37003 H 3716.63 3.09299 -2.21618 0
M  V30 37004 H 3716.14 1.7579 -3.46005 0
M  V30 37005 H 3714.24 3.36836 -1.59286 0
M  V30 37006 H 3714.35 3.2974 -3.47575 0
M  V30 37007 H 3712.72 1.8219 -1.77985 0
M  V30 37008 H 3713.5 1.0573 -3.26613 0
M  V30 37009 N 3715.94 1.28904 0.90673 0
M  V30 37010 C 3717.19 1.16639 1.65901 0
M  V30 37011 C 3717.52 -0.282947 1.92128 0
M  V30 37012 O 3716.8 -1.2051 1.52668 0
M  V30 37013 C 3717.08 1.97277 3.01253 0
M  V30 37014 C 3716.93 3.50313 2.82136 0
M  V30 37015 C 3718.25 1.79367 4.0189 0
M  V30 37016 H 3715.37 0.425086 0.602055 0
M  V30 37017 H 3718.01 1.58299 1.05079 0
M  V30 37018 H 3716.16 1.61877 3.53169 0
M  V30 37019 H 3717.84 3.95657 2.37177 0
M  V30 37020 H 3716.08 3.75591 2.17057 0
M  V30 37021 H 3716.75 4.02 3.78286 0
M  V30 37022 H 3719.23 2.10274 3.5906 0
M  V30 37023 H 3718.1 2.3815 4.94546 0
M  V30 37024 H 3718.36 0.747 4.35743 0
M  V30 37025 N 3717.42 -1.11614 1.11266 0
M  V30 37026 C 3718.83 -1.64834 0.876742 0
M  V30 37027 C 3719.18 -1.87076 -0.591351 0
M  V30 37028 O 3718.31 -1.60363 -1.45302 0
M  V30 37029 C 3718.9 -2.99437 1.58502 0
M  V30 37030 C 3717.46 -3.49572 1.39558 0
M  V30 37031 C 3716.61 -2.24419 1.62885 0
M  V30 37032 H 3719.56 -0.952782 1.26916 0
M  V30 37033 H 3719.58 -3.66323 1.02898 0
M  V30 37034 H 3719.09 -2.83217 2.65349 0
M  V30 37035 H 3717.19 -3.70961 0.349124 0
M  V30 37036 H 3717.31 -4.28479 2.14341 0
M  V30 37037 H 3715.67 -2.31954 1.05212 0
M  V30 37038 H 3716.45 -2.10743 2.71002 0
M  V30 37039 N 3718.9 -0.902701 -1.29186 0
M  V30 37040 C 3720.12 -0.544988 -2.00112 0
M  V30 37041 C 3720.55 0.863776 -1.67094 0
M  V30 37042 O 3719.91 1.57543 -0.897206 0
M  V30 37043 C 3719.96 -0.747803 -3.52761 0
M  V30 37044 O 3719.06 0.198315 -4.11923 0
M  V30 37045 H 3718.4 -0.212583 -0.62905 0
M  V30 37046 H 3720.93 -1.21511 -1.64609 0
M  V30 37047 H 3720.94 -0.653617 -4.0273 0
M  V30 37048 H 3719.62 -1.77484 -3.76128 0
M  V30 37049 H 3718.19 0.0563304 -3.72857 0
M  V30 37050 N 3720.38 1.4286 -0.6655 0
M  V30 37051 C 3721.31 2.335 0.0047874 0
M  V30 37052 C 3722.29 1.50161 0.799109 0
M  V30 37053 O 3723.47 1.78791 0.758129 0
M  V30 37054 C 3720.6 3.33674 0.963288 0
M  V30 37055 C 3719.56 4.27095 0.278219 0
M  V30 37056 C 3718.88 5.17403 1.34902 0
M  V30 37057 C 3720.18 5.1555 -0.837016 0
M  V30 37058 H 3721.88 2.89798 -0.752179 0
M  V30 37059 H 3719.42 1.39345 -0.363163 0
M  V30 37060 H 3721.38 3.95989 1.44121 0
M  V30 37061 H 3720.1 2.75659 1.75156 0
M  V30 37062 H 3718.76 3.66161 -0.179378 0
M  V30 37063 H 3718.41 4.5572 2.12904 0
M  V30 37064 H 3718.11 5.80731 0.895817 0
M  V30 37065 H 3719.63 5.82593 1.82806 0
M  V30 37066 H 3721.05 5.71604 -0.440718 0
M  V30 37067 H 3719.44 5.87662 -1.21544 0
M  V30 37068 H 3720.51 4.54505 -1.68978 0
M  V30 37069 N 3721.86 0.408213 1.52221 0
M  V30 37070 C 3722.77 -0.424605 2.30726 0
M  V30 37071 C 3723.78 -1.0544 1.38414 0
M  V30 37072 O 3724.96 -1.05611 1.71488 0
M  V30 37073 C 3722.02 -1.52671 3.11276 0
M  V30 37074 C 3721.08 -0.920069 4.19325 0
M  V30 37075 C 3720.32 -1.96966 4.96024 0
M  V30 37076 O 3720.54 -3.18766 4.73016 0
M  V30 37077 O 3719.47 -1.5764 5.8089 0
M  V30 37078 H 3723.3 0.215464 3.02935 0
M  V30 37079 H 3720.88 0.171441 1.48413 0
M  V30 37080 H 3722.77 -2.16655 3.6144 0
M  V30 37081 H 3721.44 -2.1514 2.41861 0
M  V30 37082 H 3720.35 -0.242971 3.7331 0
M  V30 37083 H 3721.68 -0.339319 4.91029 0
M  V30 37084 N 3723.33 -1.56989 0.138607 0
M  V30 37085 C 3724.3 -2.15152 -0.790092 0
M  V30 37086 C 3725.3 -1.09119 -1.18108 0
M  V30 37087 O 3726.49 -1.348 -1.10338 0
M  V30 37088 C 3723.62 -2.70778 -2.07104 0
M  V30 37089 H 3724.81 -2.98549 -0.28429 0
M  V30 37090 H 3722.36 -1.55907 -0.110783 0
M  V30 37091 H 3723.1 -1.91023 -2.6207 0
M  V30 37092 H 3722.88 -3.48344 -1.79998 0
M  V30 37093 H 3724.37 -3.15618 -2.73451 0
M  V30 37094 N 3724.81 0.135183 -1.57019 0
M  V30 37095 C 3726.22 0.694036 -1.73321 0
M  V30 37096 C 3726.57 1.81098 -0.75484 0
M  V30 37097 O 3725.7 2.16267 0.0759083 0
M  V30 37098 C 3726.29 1.26574 -3.14268 0
M  V30 37099 C 3724.85 1.77104 -3.32131 0
M  V30 37100 C 3724 0.664216 -2.69228 0
M  V30 37101 H 3726.95 -0.0905981 -1.58441 0
M  V30 37102 H 3726.97 2.13551 -3.14922 0
M  V30 37103 H 3726.48 0.452584 -3.85452 0
M  V30 37104 H 3724.58 2.60949 -2.65963 0
M  V30 37105 H 3724.7 1.89162 -4.40175 0
M  V30 37106 H 3723.06 1.0938 -2.30017 0
M  V30 37107 H 3723.84 -0.137691 -3.43024 0
M  V30 37108 N 3726.29 1.5231 0.404892 0
M  V30 37109 C 3727.52 1.70725 1.17761 0
M  V30 37110 C 3727.94 0.417777 1.83402 0
M  V30 37111 O 3727.3 -0.625127 1.70182 0
M  V30 37112 C 3727.35 2.84689 2.21325 0
M  V30 37113 O 3726.45 2.50553 3.27562 0
M  V30 37114 H 3725.79 0.568209 0.343562 0
M  V30 37115 H 3728.32 1.99032 0.474058 0
M  V30 37116 H 3728.33 3.09724 2.65584 0
M  V30 37117 H 3727.01 3.78242 1.72932 0
M  V30 37118 H 3725.58 2.36204 2.88552 0
M  V30 37119 N 3727.77 -0.662382 1.43004 0
M  V30 37120 C 3728.68 -1.80481 1.49879 0
M  V30 37121 C 3729.69 -1.69652 0.386556 0
M  V30 37122 O 3730.87 -1.90983 0.639322 0
M  V30 37123 C 3727.94 -3.16705 1.41063 0
M  V30 37124 C 3727 -3.39399 2.62881 0
M  V30 37125 C 3726.23 -4.69124 2.54476 0
M  V30 37126 O 3726.45 -5.47865 1.58744 0
M  V30 37127 O 3725.39 -4.93337 3.44823 0
M  V30 37128 H 3729.21 -1.77637 2.46331 0
M  V30 37129 H 3726.8 -0.819708 1.24905 0
M  V30 37130 H 3728.68 -3.97971 1.38554 0
M  V30 37131 H 3727.35 -3.2016 0.477418 0
M  V30 37132 H 3726.26 -2.57934 2.70963 0
M  V30 37133 H 3727.59 -3.40785 3.55143 0
M  V30 37134 N 3729.25 -1.29383 -0.899882 0
M  V30 37135 C 3730.18 -1.10303 -2.00912 0
M  V30 37136 C 3731.19 -0.0505966 -1.62721 0
M  V30 37137 O 3732.38 -0.295099 -1.76044 0
M  V30 37138 C 3729.48 -0.656954 -3.32472 0
M  V30 37139 C 3728.65 -1.78787 -3.99192 0
M  V30 37140 C 3727.71 -1.33283 -5.0904 0
M  V30 37141 O 3726.74 -2.03752 -5.31483 0
M  V30 37142 N 3727.94 -0.203621 -5.80143 0
M  V30 37143 H 3730.71 -2.05835 -2.17834 0
M  V30 37144 H 3728.27 -1.2132 -1.07205 0
M  V30 37145 H 3730.26 -0.335854 -4.03304 0
M  V30 37146 H 3728.83 0.205904 -3.11921 0
M  V30 37147 H 3728.05 -2.27786 -3.21725 0
M  V30 37148 H 3729.34 -2.54614 -4.4051 0
M  V30 37149 H 3728.73 0.383905 -5.64396 0
M  V30 37150 H 3727.29 0.0581137 -6.51774 0
M  V30 37151 N 3730.72 1.11022 -1.11856 0
M  V30 37152 C 3731.69 2.15372 -0.784071 0
M  V30 37153 C 3732.69 1.59568 0.198657 0
M  V30 37154 O 3733.88 1.7418 -0.0263735 0
M  V30 37155 C 3731.01 3.40505 -0.164047 0
M  V30 37156 H 3732.2 2.46474 -1.70853 0
M  V30 37157 H 3729.76 1.26282 -0.92101 0
M  V30 37158 H 3730.49 3.15016 0.770428 0
M  V30 37159 H 3730.28 3.82292 -0.871514 0
M  V30 37160 H 3731.77 4.17565 0.0537005 0
M  V30 37161 N 3732.2 0.90954 1.28706 0
M  V30 37162 C 3733.61 0.587644 1.77211 0
M  V30 37163 C 3733.96 -0.896955 1.74497 0
M  V30 37164 O 3733.09 -1.70156 1.33701 0
M  V30 37165 C 3733.68 1.05995 3.21793 0
M  V30 37166 C 3732.24 0.789048 3.68037 0
M  V30 37167 C 3731.39 1.22907 2.48574 0
M  V30 37168 H 3734.34 1.09124 1.15228 0
M  V30 37169 H 3734.36 0.399535 3.78397 0
M  V30 37170 H 3733.87 2.14049 3.23736 0
M  V30 37171 H 3731.98 -0.278457 3.71558 0
M  V30 37172 H 3732.09 1.39384 4.58377 0
M  V30 37173 H 3730.45 0.647881 2.46322 0
M  V30 37174 H 3731.24 2.31786 2.53239 0
M  V30 37175 N 3733.68 -1.42505 0.673067 0
M  V30 37176 C 3734.91 -2.05902 0.202959 0
M  V30 37177 C 3735.32 -1.50558 -1.1392 0
M  V30 37178 O 3734.68 -0.644692 -1.70734 0
M  V30 37179 C 3734.73 -3.61275 0.127413 0
M  V30 37180 O 3734.45 -4.14567 1.41654 0
M  V30 37181 C 3735.95 -4.41783 -0.366399 0
M  V30 37182 H 3733.17 -0.66364 0.0991138 0
M  V30 37183 H 3735.72 -1.82671 0.919314 0
M  V30 37184 H 3733.87 -3.83623 -0.53962 0
M  V30 37185 H 3734.29 -5.0842 1.28875 0
M  V30 37186 H 3735.76 -5.50771 -0.36817 0
M  V30 37187 H 3736.24 -4.16244 -1.40135 0
M  V30 37188 H 3736.84 -4.24449 0.268836 0
M  V30 37189 N 3735.16 -0.41628 -1.52003 0
M  V30 37190 C 3736.07 0.412363 -2.30947 0
M  V30 37191 C 3737.08 1.04705 -1.38971 0
M  V30 37192 O 3738.26 1.047 -1.72046 0
M  V30 37193 C 3735.33 1.51018 -3.12081 0
M  V30 37194 C 3734.39 0.897818 -4.19807 0
M  V30 37195 C 3733.62 1.94332 -4.97062 0
M  V30 37196 O 3733.84 3.16253 -4.747 0
M  V30 37197 O 3732.78 1.54557 -5.81718 0
M  V30 37198 H 3736.6 -0.231527 -3.02816 0
M  V30 37199 H 3734.19 -0.179309 -1.4832 0
M  V30 37200 H 3736.07 2.14735 -3.62584 0
M  V30 37201 H 3734.74 2.13854 -2.42998 0
M  V30 37202 H 3733.65 0.22317 -3.73434 0
M  V30 37203 H 3734.98 0.313274 -4.91202 0
M  V30 37204 N 3736.64 1.56914 -0.146931 0
M  V30 37205 C 3737.57 2.13885 0.823765 0
M  V30 37206 C 3738.58 1.08828 1.21079 0
M  V30 37207 O 3739.77 1.36106 1.15488 0
M  V30 37208 C 3736.87 2.64659 2.11681 0
M  V30 37209 C 3736.04 3.94115 1.89716 0
M  V30 37210 C 3735.1 4.302 3.03008 0
M  V30 37211 O 3734.13 4.98525 2.74703 0
M  V30 37212 N 3735.33 3.89776 4.3018 0
M  V30 37213 H 3738.1 2.97801 0.336852 0
M  V30 37214 H 3735.66 1.61859 0.0366419 0
M  V30 37215 H 3737.65 2.85812 2.8652 0
M  V30 37216 H 3736.22 1.85468 2.51635 0
M  V30 37217 H 3735.44 3.81588 0.989141 0
M  V30 37218 H 3736.73 4.7871 1.72378 0
M  V30 37219 H 3736.12 3.34723 4.56045 0
M  V30 37220 H 3734.68 4.15981 5.018 0
M  V30 37221 N 3738.11 -0.126854 1.57089 0
M  V30 37222 C 3739.53 -0.480148 1.52206 0
M  V30 37223 C 3739.73 -1.82289 0.858666 0
M  V30 37224 O 3738.79 -2.48678 0.437679 0
M  V30 37225 C 3740.1 -0.471879 2.96974 0
M  V30 37226 C 3741.65 -0.555983 3.08022 0
M  V30 37227 C 3742.12 -0.578181 4.54336 0
M  V30 37228 N 3743.61 -0.639841 4.58759 0
M  V30 37229 C 3744.35 -0.678334 5.69374 0
M  V30 37230 N 3743.84 -0.674948 6.89504 0
M  V30 37231 N 3745.64 -0.720747 5.5746 0
M  V30 37232 H 3737.79 0.753043 1.98603 0
M  V30 37233 H 3740.05 0.276911 0.906656 0
M  V30 37234 H 3739.76 0.446931 3.48849 0
M  V30 37235 H 3739.63 -1.30254 3.53997 0
M  V30 37236 H 3742.02 -1.46521 2.56155 0
M  V30 37237 H 3742.1 0.302216 2.54008 0
M  V30 37238 H 3741.74 0.326973 5.06846 0
M  V30 37239 H 3741.67 -1.45315 5.06153 0
M  V30 37240 H 3744.16 -0.64894 3.72286 0
M  V30 37241 H 3744.48 -0.706726 7.69562 0
M  V30 37242 H 3742.82 -0.642499 6.92024 0
M  V30 37243 H 3746.01 -0.720702 4.62519 0
M  V30 37244 H 3746.19 -0.747279 6.43677 0
M  V30 37245 N 3739.59 -1.52523 -0.396809 0
M  V30 37246 C 3741 -1.59213 -0.975096 0
M  V30 37247 C 3741.35 -0.440172 -1.91199 0
M  V30 37248 O 3740.48 0.437818 -2.11925 0
M  V30 37249 C 3741.07 -2.88566 -1.77526 0
M  V30 37250 C 3739.63 -2.97694 -2.30337 0
M  V30 37251 C 3738.78 -2.5426 -1.10667 0
M  V30 37252 H 3741.73 -1.57714 -0.176618 0
M  V30 37253 H 3741.75 -2.74612 -2.63379 0
M  V30 37254 H 3741.26 -3.72388 -1.09311 0
M  V30 37255 H 3739.37 -2.18392 -3.01887 0
M  V30 37256 H 3739.48 -4.02182 -2.60359 0
M  V30 37257 H 3737.84 -2.08396 -1.46435 0
M  V30 37258 H 3738.63 -3.40469 -0.440001 0
M  V30 37259 N 3741.07 0.654789 -1.43354 0
M  V30 37260 C 3742.32 1.41191 -1.44601 0
M  V30 37261 C 3742.64 1.94871 -0.0708298 0
M  V30 37262 O 3741.91 1.74332 0.893607 0
M  V30 37263 H 3740.49 0.524002 -0.532382 0
M  V30 37264 H 3743.15 0.772357 -1.78943 0
M  V30 37265 H 3742.25 2.25504 -2.15765 0
M  V30 37266 N 3742.55 1.29858 0.893007 0
M  V30 37267 C 3743.8 1.18392 1.64654 0
M  V30 37268 C 3744.13 -0.262553 1.92417 0
M  V30 37269 O 3743.4 -1.18884 1.53938 0
M  V30 37270 C 3743.69 2.00461 2.99144 0
M  V30 37271 C 3743.54 3.53286 2.78405 0
M  V30 37272 C 3744.86 1.8362 3.99965 0
M  V30 37273 H 3741.98 0.431448 0.597513 0
M  V30 37274 H 3744.62 1.59404 1.03394 0
M  V30 37275 H 3742.77 1.65614 3.51432 0
M  V30 37276 H 3744.44 3.98151 2.32967 0
M  V30 37277 H 3742.68 3.77872 2.13061 0
M  V30 37278 H 3743.36 4.0599 3.74001 0
M  V30 37279 H 3745.83 2.1407 3.5681 0
M  V30 37280 H 3744.71 2.43382 4.91992 0
M  V30 37281 H 3744.97 0.793174 4.34927 0
M  V30 37282 N 3744.03 -1.10427 1.12443 0
M  V30 37283 C 3744.96 -2.16576 0.750169 0
M  V30 37284 C 3745.97 -1.61262 -0.223236 0
M  V30 37285 O 3747.16 -1.78499 -0.00456317 0
M  V30 37286 C 3744.26 -3.38782 0.0896069 0
M  V30 37287 C 3743.43 -4.23537 1.0925 0
M  V30 37288 C 3742.49 -5.2419 0.459542 0
M  V30 37289 O 3741.52 -5.58141 1.11656 0
M  V30 37290 N 3742.72 -5.7533 -0.772992 0
M  V30 37291 H 3745.49 -2.49292 1.66354 0
M  V30 37292 H 3743.05 -1.26047 1.01606 0
M  V30 37293 H 3745.04 -4.0322 -0.345824 0
M  V30 37294 H 3743.61 -3.0404 -0.726519 0
M  V30 37295 H 3742.83 -3.55393 1.70555 0
M  V30 37296 H 3744.12 -4.76996 1.77066 0
M  V30 37297 H 3743.52 -5.49946 -1.32575 0
M  V30 37298 H 3742.07 -6.41553 -1.15124 0
M  V30 37299 N 3745.51 -0.916353 -1.28221 0
M  V30 37300 C 3746.42 -0.411922 -2.30955 0
M  V30 37301 C 3747.43 0.501724 -1.6661 0
M  V30 37302 O 3748.61 0.387282 -1.97641 0
M  V30 37303 C 3745.67 0.337497 -3.45053 0
M  V30 37304 C 3744.73 -0.609684 -4.24949 0
M  V30 37305 C 3743.97 0.104065 -5.33599 0
M  V30 37306 O 3744.19 1.32536 -5.54789 0
M  V30 37307 O 3743.12 -0.561956 -5.99271 0
M  V30 37308 H 3746.95 -1.26466 -2.76116 0
M  V30 37309 H 3744.53 -0.68127 -1.32963 0
M  V30 37310 H 3746.42 0.760649 -4.14478 0
M  V30 37311 H 3745.09 1.16602 -3.0197 0
M  V30 37312 H 3744 -1.08229 -3.58102 0
M  V30 37313 H 3745.33 -1.4051 -4.71718 0
M  V30 37314 N 3746.98 1.42146 -0.680615 0
M  V30 37315 C 3748.22 2.03326 -0.209258 0
M  V30 37316 C 3748.59 1.5268 1.16416 0
M  V30 37317 O 3749.79 2.05686 1.73051 0
M  V30 37318 C 3748.06 3.56536 -0.248394 0
M  V30 37319 S 3749.62 4.3854 0.151109 0
M  V30 37320 H 3746.44 0.705839 -0.085508 0
M  V30 37321 H 3749.04 1.73807 -0.895064 0
M  V30 37322 H 3747.74 3.90893 -1.25023 0
M  V30 37323 H 3747.27 3.90736 0.457055 0
M  V30 37324 H 3749.29 4.76539 1.38293 0
M  V30 37325 N 3748.46 0.424336 1.5178 0
M  V30 37326 C 3749.69 -0.1453 2.06088 0
M  V30 37327 C 3750.1 -1.38124 1.29299 0
M  V30 37328 O 3749.44 -1.80483 0.342258 0
M  V30 37329 C 3749.5 -0.545715 3.55334 0
M  V30 37330 C 3749.17 0.581608 4.53284 0
M  V30 37331 C 3750.17 1.44982 4.99276 0
M  V30 37332 C 3747.85 0.758636 4.96538 0
M  V30 37333 C 3749.84 2.47988 5.8718 0
M  V30 37334 C 3747.53 1.79198 5.84236 0
M  V30 37335 C 3748.53 2.651 6.29453 0
M  V30 37336 O 3748.22 3.66662 7.15412 0
M  V30 37337 H 3747.95 -0.0171601 0.675782 0
M  V30 37338 H 3750.5 0.598383 1.96491 0
M  V30 37339 H 3748.73 -1.34191 3.6267 0
M  V30 37340 H 3750.42 -1.04501 3.92217 0
M  V30 37341 H 3751.19 1.32453 4.66563 0
M  V30 37342 H 3747.07 0.0996262 4.60892 0
M  V30 37343 H 3750.61 3.1507 6.22396 0
M  V30 37344 H 3746.51 1.91752 6.16361 0
M  V30 37345 H 3747.28 3.63087 7.3356 0
M  V30 37346 N 3749.94 -1.56833 0.15525 0
M  V30 37347 C 3750.89 -2.13757 -0.793214 0
M  V30 37348 C 3751.87 -1.06755 -1.20384 0
M  V30 37349 O 3753.07 -1.32914 -1.16888 0
M  V30 37350 C 3750.19 -2.76924 -2.02899 0
M  V30 37351 C 3749.28 -3.91061 -1.64109 0
M  V30 37352 N 3749.67 -4.9657 -0.961859 0
M  V30 37353 C 3747.97 -4.01923 -1.93324 0
M  V30 37354 C 3748.67 -5.76537 -0.773291 0
M  V30 37355 N 3747.65 -5.27586 -1.30973 0
M  V30 37356 H 3751.45 -2.92702 -0.265122 0
M  V30 37357 H 3748.96 -1.62335 -0.0460035 0
M  V30 37358 H 3750.96 -3.16071 -2.71854 0
M  V30 37359 H 3749.62 -1.99455 -2.56219 0
M  V30 37360 H 3750.63 -5.14155 -0.621692 0
M  V30 37361 H 3747.31 -3.35539 -2.48434 0
M  V30 37362 H 3748.7 -6.71481 -0.23734 0
M  V30 37363 N 3751.42 0.118521 -1.57154 0
M  V30 37364 C 3752.67 0.824591 -1.84513 0
M  V30 37365 C 3752.99 1.80393 -0.740504 0
M  V30 37366 O 3752.26 1.9448 0.235447 0
M  V30 37367 H 3750.84 0.30751 -0.680769 0
M  V30 37368 H 3753.5 0.10573 -1.94613 0
M  V30 37369 H 3752.59 1.36953 -2.80447 0
M  V30 37370 N 3752.9 1.52731 0.388715 0
M  V30 37371 C 3753.84 1.78169 1.49528 0
M  V30 37372 C 3754.84 0.649641 1.56448 0
M  V30 37373 O 3756.04 0.832125 1.59611 0
M  V30 37374 H 3752.42 0.563759 0.497674 0
M  V30 37375 H 3754.39 2.70834 1.25267 0
M  V30 37376 C 3753.14 1.96779 2.86659 0
M  V30 37377 H 3752.46 2.83317 2.82084 0
M  V30 37378 H 3753.9 2.18567 3.63324 0
M  V30 37379 C 3752.36 0.740402 3.28663 0
M  V30 37380 O 3752.89 -0.0820299 4.01616 0
M  V30 37381 N 3751.1 0.570433 2.84946 0
M  V30 37382 H 3750.64 1.24082 2.25746 0
M  V30 37383 H 3750.6 -0.249441 3.13409 0
M  V30 37384 N 3754.37 -0.647178 1.43699 0
M  V30 37385 C 3755.62 -1.40422 1.45348 0
M  V30 37386 C 3755.94 -1.94831 0.0811633 0
M  V30 37387 O 3755.21 -1.74803 -0.884349 0
M  V30 37388 H 3753.79 -0.521171 0.535154 0
M  V30 37389 H 3756.45 -0.762856 1.7935 0
M  V30 37390 H 3755.55 -2.24356 2.16958 0
M  V30 37391 N 3755.85 -1.3033 -0.886108 0
M  V30 37392 C 3756.78 -1.12428 -1.99731 0
M  V30 37393 C 3757.8 -0.0678525 -1.62659 0
M  V30 37394 O 3758.99 -0.313754 -1.75721 0
M  V30 37395 C 3756.09 -0.69218 -3.31756 0
M  V30 37396 C 3755.26 -1.83011 -3.97273 0
M  V30 37397 C 3754.32 -1.38675 -5.07598 0
M  V30 37398 O 3753.34 -2.09377 -5.29292 0
M  V30 37399 N 3754.55 -0.265141 -5.79894 0
M  V30 37400 H 3757.31 -2.08134 -2.15639 0
M  V30 37401 H 3754.87 -1.2245 -1.05913 0
M  V30 37402 H 3756.86 -0.378611 -4.02925 0
M  V30 37403 H 3755.43 0.172809 -3.12122 0
M  V30 37404 H 3754.65 -2.31185 -3.19291 0
M  V30 37405 H 3755.94 -2.59272 -4.37785 0
M  V30 37406 H 3755.34 0.324022 -5.64771 0
M  V30 37407 H 3753.9 -0.0110189 -6.51799 0
M  V30 37408 N 3757.33 1.0983 -1.13028 0
M  V30 37409 C 3758.56 1.86231 -0.912836 0
M  V30 37410 C 3758.98 1.80393 0.532923 0
M  V30 37411 O 3758.34 1.17839 1.37781 0
M  V30 37412 C 3758.39 3.3231 -1.40008 0
M  V30 37413 O 3757.49 4.08264 -0.582609 0
M  V30 37414 H 3756.83 0.57763 -0.327475 0
M  V30 37415 H 3759.36 1.3872 -1.50392 0
M  V30 37416 H 3759.37 3.83159 -1.40189 0
M  V30 37417 H 3758.05 3.35876 -2.45276 0
M  V30 37418 H 3756.62 3.67221 -0.64832 0
M  V30 37419 N 3758.81 0.92314 1.27734 0
M  V30 37420 C 3760.04 0.576514 1.98393 0
M  V30 37421 C 3760.45 -0.848749 1.69094 0
M  V30 37422 O 3759.79 -1.57504 0.945412 0
M  V30 37423 C 3759.85 0.717046 3.52276 0
M  V30 37424 C 3759.52 2.11359 4.05187 0
M  V30 37425 C 3760.51 3.08729 4.18309 0
M  V30 37426 C 3758.2 2.4293 4.39648 0
M  V30 37427 C 3760.19 4.35782 4.65159 0
M  V30 37428 C 3757.88 3.7022 4.8619 0
M  V30 37429 C 3758.88 4.6646 4.98903 0
M  V30 37430 O 3758.56 5.91486 5.44426 0
M  V30 37431 H 3758.3 0.217648 0.640004 0
M  V30 37432 H 3760.85 1.2411 1.63664 0
M  V30 37433 H 3759.08 -0.00462804 3.867 0
M  V30 37434 H 3760.77 0.376148 4.04153 0
M  V30 37435 H 3761.54 2.85658 3.9195 0
M  V30 37436 H 3757.41 1.68767 4.28997 0
M  V30 37437 H 3760.96 5.10905 4.74997 0
M  V30 37438 H 3756.86 3.93112 5.1199 0
M  V30 37439 H 3757.62 5.94409 5.6269 0
M  V30 37440 N 3760.29 -1.41783 0.688143 0
M  V30 37441 C 3761.7 -1.55511 0.35897 0
M  V30 37442 C 3761.9 -1.66516 -1.13466 0
M  V30 37443 O 3760.96 -1.63947 -1.92036 0
M  V30 37444 C 3762.27 -2.79819 1.10099 0
M  V30 37445 C 3763.82 -2.93607 1.08461 0
M  V30 37446 C 3764.29 -4.20794 1.80822 0
M  V30 37447 N 3765.79 -4.27735 1.77755 0
M  V30 37448 C 3766.52 -5.24991 2.30591 0
M  V30 37449 N 3766.02 -6.28321 2.91865 0
M  V30 37450 N 3767.81 -5.1688 2.20889 0
M  V30 37451 H 3759.96 -1.32883 1.65698 0
M  V30 37452 H 3762.22 -0.64058 0.698829 0
M  V30 37453 H 3761.93 -2.77871 2.15594 0
M  V30 37454 H 3761.8 -3.71115 0.674778 0
M  V30 37455 H 3764.19 -2.95076 0.0379474 0
M  V30 37456 H 3764.27 -2.03505 1.54982 0
M  V30 37457 H 3763.92 -4.20087 2.85464 0
M  V30 37458 H 3763.85 -5.09855 1.31741 0
M  V30 37459 H 3766.34 -3.53694 1.33075 0
M  V30 37460 H 3766.65 -6.98909 3.29767 0
M  V30 37461 H 3764.99 -6.28844 2.9594 0
M  V30 37462 H 3768.19 -4.35079 1.72697 0
M  V30 37463 H 3768.36 -5.92509 2.62369 0
M  V30 37464 N 3761.76 -0.432379 -1.51553 0
M  V30 37465 C 3763.01 0.135475 -2.01645 0
M  V30 37466 C 3763.33 1.43644 -1.31876 0
M  V30 37467 O 3762.6 1.90619 -0.45178 0
M  V30 37468 H 3761.18 0.0530552 -0.745114 0
M  V30 37469 H 3763.85 -0.57395 -1.86257 0
M  V30 37470 H 3762.94 0.314947 -3.10507 0
M  V30 37471 N 3763.24 1.56749 -0.163565 0
M  V30 37472 C 3764.47 2.01018 0.489853 0
M  V30 37473 C 3764.89 1.04376 1.57325 0
M  V30 37474 O 3764.24 0.0433734 1.82448 0
M  V30 37475 C 3764.29 3.45137 1.07531 0
M  V30 37476 O 3764.01 4.38086 0.0351695 0
M  V30 37477 C 3765.52 4.04767 1.80771 0
M  V30 37478 H 3762.74 0.659048 0.126084 0
M  V30 37479 H 3765.28 2.02802 -0.263018 0
M  V30 37480 H 3763.43 3.44152 1.77871 0
M  V30 37481 H 3763.85 5.22423 0.466334 0
M  V30 37482 H 3765.32 5.07556 2.17005 0
M  V30 37483 H 3765.8 3.46418 2.69984 0
M  V30 37484 H 3766.41 4.09432 1.15091 0
M  V30 37485 N 3764.72 -0.110185 1.57214 0
M  V30 37486 C 3765.95 -0.829154 1.89232 0
M  V30 37487 C 3766.36 -1.73532 0.753865 0
M  V30 37488 O 3765.7 -1.81493 -0.283914 0
M  V30 37489 C 3765.76 -1.70765 3.16354 0
M  V30 37490 C 3765.43 -0.97487 4.46481 0
M  V30 37491 C 3766.42 -0.311605 5.18965 0
M  V30 37492 C 3764.11 -0.95343 4.93168 0
M  V30 37493 C 3766.1 0.363303 6.36364 0
M  V30 37494 C 3763.79 -0.274728 6.10482 0
M  V30 37495 C 3764.79 0.382474 6.81928 0
M  V30 37496 O 3764.48 1.05033 7.97009 0
M  V30 37497 H 3764.21 -0.243173 0.630748 0
M  V30 37498 H 3766.76 -0.096444 2.05173 0
M  V30 37499 H 3764.99 -2.48222 2.96518 0
M  V30 37500 H 3766.68 -2.30183 3.34321 0
M  V30 37501 H 3767.45 -0.31973 4.83945 0
M  V30 37502 H 3763.33 -1.4544 4.37456 0
M  V30 37503 H 3766.87 0.876849 6.92067 0
M  V30 37504 H 3762.77 -0.264397 6.44958 0
M  V30 37505 H 3763.54 0.955693 8.12901 0
M  V30 37506 N 3766.2 -1.52935 -0.38061 0
M  V30 37507 C 3767.42 -1.72577 -1.1503 0
M  V30 37508 C 3767.85 -0.446901 -1.82714 0
M  V30 37509 O 3767.21 0.597974 -1.71155 0
M  V30 37510 C 3767.25 -2.88174 -2.16768 0
M  V30 37511 O 3766.36 -2.55733 -3.23534 0
M  V30 37512 H 3765.7 -0.573602 -0.334479 0
M  V30 37513 H 3768.23 -1.99761 -0.442334 0
M  V30 37514 H 3768.24 -3.1391 -2.60623 0
M  V30 37515 H 3766.91 -3.80946 -1.66893 0
M  V30 37516 H 3765.49 -2.40765 -2.84757 0
M  V30 37517 N 3767.68 0.639548 -1.4404 0
M  V30 37518 C 3768.9 1.42667 -1.49846 0
M  V30 37519 C 3769.32 1.88414 -0.120632 0
M  V30 37520 O 3768.68 1.60328 0.871847 0
M  V30 37521 C 3768.73 2.65259 -2.45601 0
M  V30 37522 O 3768.45 2.21421 -3.78027 0
M  V30 37523 C 3769.95 3.58476 -2.60787 0
M  V30 37524 H 3767.17 0.437817 -0.508485 0
M  V30 37525 H 3769.71 0.782889 -1.88921 0
M  V30 37526 H 3767.87 3.25747 -2.09685 0
M  V30 37527 H 3768.28 3.00838 -4.29647 0
M  V30 37528 H 3769.76 4.41124 -3.31834 0
M  V30 37529 H 3770.23 4.0673 -1.65734 0
M  V30 37530 H 3770.84 3.03862 -2.9757 0
M  V30 37531 N 3769.15 1.30798 0.879184 0
M  V30 37532 C 3770.38 1.22894 1.66447 0
M  V30 37533 C 3770.8 -0.207273 1.87659 0
M  V30 37534 O 3770.15 -1.13617 1.4282 0
M  V30 37535 C 3770.21 1.95987 3.03762 0
M  V30 37536 O 3769.93 3.34002 2.83504 0
M  V30 37537 C 3771.43 1.94811 3.982 0
M  V30 37538 H 3768.65 0.42504 0.519213 0
M  V30 37539 H 3771.19 1.72521 1.09804 0
M  V30 37540 H 3769.35 1.50145 3.57121 0
M  V30 37541 H 3769.76 3.71098 3.70657 0
M  V30 37542 H 3771.23 2.50482 4.91897 0
M  V30 37543 H 3771.71 0.928412 4.29275 0
M  V30 37544 H 3772.32 2.40491 3.50776 0
M  V30 37545 N 3770.63 -1.09229 1.13608 0
M  V30 37546 C 3771.88 -1.81715 0.900418 0
M  V30 37547 C 3772.21 -1.85587 -0.571952 0
M  V30 37548 O 3771.49 -1.32557 -1.42334 0
M  V30 37549 C 3771.77 -3.2776 1.49149 0
M  V30 37550 C 3771.62 -3.32148 3.03311 0
M  V30 37551 C 3772.94 -4.245 1.16137 0
M  V30 37552 H 3770.06 -0.659719 0.328543 0
M  V30 37553 H 3772.7 -1.27939 1.4047 0
M  V30 37554 H 3770.85 -3.73685 1.06262 0
M  V30 37555 H 3772.53 -2.94611 3.54968 0
M  V30 37556 H 3770.77 -2.71671 3.38197 0
M  V30 37557 H 3771.44 -4.35041 3.39769 0
M  V30 37558 H 3773.92 -3.86871 1.53199 0
M  V30 37559 H 3772.79 -5.25021 1.60139 0
M  V30 37560 H 3773.05 -4.42036 0.075375 0
M  V30 37561 N 3772.11 -0.929901 -1.27242 0
M  V30 37562 C 3773.34 -0.58788 -1.98372 0
M  V30 37563 C 3773.75 0.834609 -1.69351 0
M  V30 37564 O 3773.11 1.555 -0.955308 0
M  V30 37565 C 3773.16 -0.806905 -3.52379 0
M  V30 37566 O 3772.88 -2.17343 -3.80386 0
M  V30 37567 C 3774.38 -0.473896 -4.4076 0
M  V30 37568 H 3771.6 -0.222572 -0.633011 0
M  V30 37569 H 3774.15 -1.24752 -1.6204 0
M  V30 37570 H 3772.3 -0.194031 -3.86914 0
M  V30 37571 H 3772.72 -2.22506 -4.74964 0
M  V30 37572 H 3774.19 -0.677833 -5.47822 0
M  V30 37573 H 3774.67 0.590657 -4.3521 0
M  V30 37574 H 3775.27 -1.06501 -4.1175 0
M  V30 37575 N 3773.59 1.41416 -0.695653 0
M  V30 37576 C 3774.84 2.0083 -0.226206 0
M  V30 37577 C 3775.16 1.55373 1.17831 0
M  V30 37578 O 3774.43 0.784394 1.79511 0
M  V30 37579 H 3773.01 0.742635 -0.0806402 0
M  V30 37580 H 3775.67 1.7304 -0.89683 0
M  V30 37581 H 3774.77 3.11147 -0.243698 0
M  V30 37582 N 3775.07 0.44041 1.51321 0
M  V30 37583 C 3776.48 0.0928652 1.5933 0
M  V30 37584 C 3776.68 -1.39805 1.4511 0
M  V30 37585 O 3775.74 -2.16829 1.29389 0
M  V30 37586 C 3777.05 0.615715 2.94329 0
M  V30 37587 C 3778.6 0.576427 3.07646 0
M  V30 37588 C 3779.08 1.0763 4.45174 0
M  V30 37589 N 3780.57 1.03442 4.51502 0
M  V30 37590 C 3781.3 1.39204 5.56246 0
M  V30 37591 N 3780.8 1.82266 6.68394 0
M  V30 37592 N 3782.59 1.31001 5.46622 0
M  V30 37593 H 3774.74 1.41044 1.58809 0
M  V30 37594 H 3777 0.581399 0.748785 0
M  V30 37595 H 3776.71 1.65897 3.10114 0
M  V30 37596 H 3776.58 0.0423176 3.77176 0
M  V30 37597 H 3778.97 -0.457852 2.91527 0
M  V30 37598 H 3779.05 1.18626 2.26631 0
M  V30 37599 H 3778.7 2.10906 4.6204 0
M  V30 37600 H 3778.63 0.442974 5.24734 0
M  V30 37601 H 3781.12 0.718221 3.71012 0
M  V30 37602 H 3781.43 2.07782 7.44343 0
M  V30 37603 H 3779.78 1.86195 6.69594 0
M  V30 37604 H 3782.97 0.972225 4.57892 0
M  V30 37605 H 3783.14 1.59199 6.2814 0
M  V30 37606 N 3776.55 -1.5666 0.171876 0
M  V30 37607 C 3777.77 -2.01274 -0.479185 0
M  V30 37608 C 3778.19 -1.05209 -1.56769 0
M  V30 37609 O 3777.55 -0.0530485 -1.82423 0
M  V30 37610 C 3777.6 -3.45702 -1.05699 0
M  V30 37611 O 3777.32 -4.38098 -0.0119363 0
M  V30 37612 C 3778.82 -4.0572 -1.78622 0
M  V30 37613 H 3776.04 -0.659707 -0.122587 0
M  V30 37614 H 3778.58 -2.02659 0.273769 0
M  V30 37615 H 3776.74 -3.4509 -1.76044 0
M  V30 37616 H 3777.15 -5.22663 -0.438622 0
M  V30 37617 H 3778.63 -5.08699 -2.1431 0
M  V30 37618 H 3779.1 -3.47845 -2.68143 0
M  V30 37619 H 3779.71 -4.10036 -1.12918 0
M  V30 37620 N 3778.02 0.101846 -1.57271 0
M  V30 37621 C 3779.26 0.81226 -1.87568 0
M  V30 37622 C 3779.63 1.7623 -0.762032 0
M  V30 37623 O 3780.83 2.51557 -0.947235 0
M  V30 37624 C 3779.1 1.5277 -3.23104 0
M  V30 37625 S 3780.66 2.27733 -3.75078 0
M  V30 37626 H 3777.48 0.270753 -0.65743 0
M  V30 37627 H 3780.08 0.0697166 -1.95376 0
M  V30 37628 H 3778.78 0.822048 -4.02083 0
M  V30 37629 H 3778.31 2.31028 -3.18418 0
M  V30 37630 H 3780.33 3.53756 -3.47953 0
M  V30 37631 N 3779.5 1.53135 0.372494 0
M  V30 37632 C 3780.43 1.75359 1.47587 0
M  V30 37633 C 3781.45 0.63425 1.49937 0
M  V30 37634 O 3782.64 0.910349 1.53541 0
M  V30 37635 C 3779.74 1.81219 2.86379 0
M  V30 37636 C 3778.91 3.10765 3.07805 0
M  V30 37637 C 3777.97 3.07957 4.26672 0
M  V30 37638 O 3776.99 3.81776 4.2218 0
M  V30 37639 N 3778.2 2.28293 5.33725 0
M  V30 37640 H 3780.96 2.70562 1.28903 0
M  V30 37641 H 3778.52 1.51827 0.56216 0
M  V30 37642 H 3780.51 1.76826 3.64026 0
M  V30 37643 H 3779.08 0.933301 2.98342 0
M  V30 37644 H 3778.3 3.28516 2.17878 0
M  V30 37645 H 3779.59 3.96392 3.18984 0
M  V30 37646 H 3778.99 1.67816 5.40235 0
M  V30 37647 H 3777.55 2.29725 6.09975 0
M  V30 37648 N 3780.98 -0.6319 1.44377 0
M  V30 37649 C 3781.94 -1.72579 1.50828 0
M  V30 37650 C 3782.94 -1.55989 0.390406 0
M  V30 37651 O 3784.13 -1.61498 0.652998 0
M  V30 37652 C 3781.26 -3.11654 1.38146 0
M  V30 37653 H 3782.46 -1.68235 2.48268 0
M  V30 37654 H 3780.01 -0.845491 1.31458 0
M  V30 37655 H 3780.75 -3.21595 0.417962 0
M  V30 37656 H 3780.53 -3.25103 2.19204 0
M  V30 37657 H 3782.02 -3.91381 1.45639 0
M  V30 37658 N 3782.46 -1.31262 -0.872235 0
M  V30 37659 C 3783.7 -1.22007 -1.62745 0
M  V30 37660 C 3784.06 0.220205 -1.91136 0
M  V30 37661 O 3783.35 1.15297 -1.53027 0
M  V30 37662 C 3783.55 -1.99525 -2.96521 0
M  V30 37663 C 3783.37 -3.50944 -2.81192 0
M  V30 37664 C 3782.14 -4.20296 -2.80499 0
M  V30 37665 C 3784.34 -4.45936 -2.56214 0
M  V30 37666 N 3782.32 -5.57886 -2.56196 0
M  V30 37667 C 3783.7 -5.71179 -2.41153 0
M  V30 37668 C 3785.75 -4.35388 -2.41541 0
M  V30 37669 C 3784.45 -6.87067 -2.12911 0
M  V30 37670 C 3786.48 -5.51057 -2.14686 0
M  V30 37671 C 3785.84 -6.75289 -2.00412 0
M  V30 37672 H 3781.94 -0.50156 -0.599968 0
M  V30 37673 H 3784.52 -1.65424 -1.02678 0
M  V30 37674 H 3782.7 -1.5848 -3.54597 0
M  V30 37675 H 3784.43 -1.82307 -3.61312 0
M  V30 37676 H 3781.18 -3.72245 -2.92798 0
M  V30 37677 H 3781.61 -6.30325 -2.47021 0
M  V30 37678 H 3786.25 -3.40008 -2.51305 0
M  V30 37679 H 3783.97 -7.82476 -2.01883 0
M  V30 37680 H 3787.55 -5.44812 -2.04136 0
M  V30 37681 H 3786.43 -7.6328 -1.79925 0
M  V30 37682 N 3783.94 1.08625 -1.14186 0
M  V30 37683 C 3785.16 1.85253 -0.932537 0
M  V30 37684 C 3785.59 1.80948 0.51376 0
M  V30 37685 O 3784.94 1.19294 1.36523 0
M  V30 37686 C 3784.99 3.30807 -1.43525 0
M  V30 37687 O 3784.1 4.07623 -0.625878 0
M  V30 37688 H 3783.44 0.574124 -0.333583 0
M  V30 37689 H 3785.97 1.37118 -1.51855 0
M  V30 37690 H 3785.98 3.81651 -1.44245 0
M  V30 37691 H 3784.65 3.33255 -2.48825 0
M  V30 37692 H 3783.23 3.66513 -0.687232 0
M  V30 37693 N 3785.41 0.936635 1.26747 0
M  V30 37694 C 3786.64 0.597852 1.98596 0
M  V30 37695 C 3787.06 -0.81917 1.69326 0
M  V30 37696 O 3786.42 -1.55109 0.938661 0
M  V30 37697 C 3786.47 0.841069 3.50654 0
M  V30 37698 O 3785.57 -0.0890314 4.12304 0
M  V30 37699 H 3784.92 0.229187 0.623193 0
M  V30 37700 H 3787.45 1.25833 1.6133 0
M  V30 37701 H 3787.46 0.760164 4.00856 0
M  V30 37702 H 3786.13 1.87394 3.7129 0
M  V30 37703 H 3784.71 0.042546 3.72876 0
M  V30 37704 N 3786.89 -1.41045 0.703143 0
M  V30 37705 C 3787.83 -2.28199 -0.00806444 0
M  V30 37706 C 3788.8 -1.42653 -0.780308 0
M  V30 37707 O 3789.99 -1.72076 -0.769547 0
M  V30 37708 C 3787.11 -3.23014 -1.01882 0
M  V30 37709 C 3786.16 -4.25152 -0.338855 0
M  V30 37710 S 3786.99 -5.27463 0.924259 0
M  V30 37711 C 3788.15 -6.25843 -0.0847064 0
M  V30 37712 H 3788.38 -2.8817 0.731112 0
M  V30 37713 H 3785.92 -1.46294 0.493695 0
M  V30 37714 H 3787.87 -3.7817 -1.5968 0
M  V30 37715 H 3786.53 -2.62123 -1.73062 0
M  V30 37716 H 3785.73 -4.91794 -1.1025 0
M  V30 37717 H 3785.33 -3.7363 0.166248 0
M  V30 37718 H 3787.62 -6.71009 -0.935568 0
M  V30 37719 H 3788.56 -7.05976 0.547989 0
M  V30 37720 H 3788.97 -5.6276 -0.442869 0
M  V30 37721 N 3788.37 -0.448429 -1.51086 0
M  V30 37722 C 3789.6 0.112658 -2.06593 0
M  V30 37723 C 3790.01 1.355 -1.31474 0
M  V30 37724 O 3789.37 1.78554 -0.377438 0
M  V30 37725 C 3789.42 0.423705 -3.59008 0
M  V30 37726 O 3789.14 -0.769335 -4.31292 0
M  V30 37727 C 3790.64 1.03425 -4.31066 0
M  V30 37728 H 3787.86 0.00300447 -0.670993 0
M  V30 37729 H 3790.41 -0.630701 -1.94531 0
M  V30 37730 H 3788.56 1.11697 -3.70948 0
M  V30 37731 H 3788.98 -0.500253 -5.22109 0
M  V30 37732 H 3790.45 1.20181 -5.38758 0
M  V30 37733 H 3790.93 2.0183 -3.90079 0
M  V30 37734 H 3791.53 0.380041 -4.23599 0
M  V30 37735 N 3789.85 1.56567 -0.180181 0
M  V30 37736 C 3791.26 1.8367 0.335022 0
M  V30 37737 C 3791.61 1.10033 1.62441 0
M  V30 37738 O 3790.74 0.356243 2.13448 0
M  V30 37739 C 3791.33 3.33178 0.614621 0
M  V30 37740 C 3789.89 3.60745 1.07424 0
M  V30 37741 C 3789.04 2.77062 0.114828 0
M  V30 37742 H 3791.99 1.53464 -0.404272 0
M  V30 37743 H 3792.01 3.51138 1.46567 0
M  V30 37744 H 3791.52 3.86745 -0.323991 0
M  V30 37745 H 3789.62 3.12598 2.02765 0
M  V30 37746 H 3789.73 4.69027 0.977266 0
M  V30 37747 H 3788.1 2.47191 0.613889 0
M  V30 37748 H 3788.88 3.33413 -0.817963 0
M  V30 37749 N 3791.33 -0.0935042 1.57322 0
M  V30 37750 C 3792.28 -1.11973 1.9861 0
M  V30 37751 C 3793.26 -1.35684 0.864786 0
M  V30 37752 O 3794.45 -1.36349 1.12862 0
M  V30 37753 C 3791.58 -2.43952 2.41541 0
M  V30 37754 C 3790.67 -2.23608 3.60361 0
M  V30 37755 N 3791.06 -1.73136 4.75245 0
M  V30 37756 C 3789.36 -2.54168 3.66489 0
M  V30 37757 C 3790.06 -1.67099 5.57183 0
M  V30 37758 N 3789.03 -2.12371 5.00399 0
M  V30 37759 H 3792.84 -0.722463 2.84882 0
M  V30 37760 H 3790.35 -0.300908 1.59588 0
M  V30 37761 H 3792.35 -3.18209 2.69349 0
M  V30 37762 H 3791.01 -2.84415 1.56646 0
M  V30 37763 H 3792.02 -1.42311 4.97964 0
M  V30 37764 H 3788.69 -2.98145 2.9226 0
M  V30 37765 H 3790.08 -1.29114 6.59378 0
M  V30 37766 N 3792.8 -1.5333 -0.364368 0
M  V30 37767 C 3794.03 -1.73788 -1.13193 0
M  V30 37768 C 3794.45 -0.466256 -1.8223 0
M  V30 37769 O 3793.81 0.579787 -1.71779 0
M  V30 37770 C 3793.86 -2.90457 -2.13699 0
M  V30 37771 O 3792.96 -2.5915 -3.20804 0
M  V30 37772 H 3792.31 -0.577118 -0.328376 0
M  V30 37773 H 3794.84 -2.00219 -0.421122 0
M  V30 37774 H 3794.85 -3.16657 -2.57279 0
M  V30 37775 H 3793.52 -3.82694 -1.62843 0
M  V30 37776 H 3792.1 -2.43772 -2.82188 0
M  V30 37777 N 3794.28 0.624234 -1.4471 0
M  V30 37778 C 3795.23 1.72974 -1.48539 0
M  V30 37779 C 3796.22 1.57038 -0.350415 0
M  V30 37780 O 3797.41 1.66657 -0.596182 0
M  V30 37781 C 3794.54 3.11683 -1.43905 0
M  V30 37782 C 3793.62 3.33065 -2.62543 0
M  V30 37783 N 3794.01 3.24781 -3.87751 0
M  V30 37784 C 3792.31 3.63883 -2.57886 0
M  V30 37785 C 3793.01 3.4704 -4.66839 0
M  V30 37786 N 3791.99 3.70241 -3.98023 0
M  V30 37787 H 3795.79 1.65038 -2.43186 0
M  V30 37788 H 3793.31 0.826937 -1.39769 0
M  V30 37789 H 3795.3 3.90971 -1.44732 0
M  V30 37790 H 3793.96 3.2078 -0.503017 0
M  V30 37791 H 3794.97 3.03548 -4.19618 0
M  V30 37792 H 3791.65 3.7992 -1.73111 0
M  V30 37793 H 3793.04 3.46169 -5.75861 0
M  V30 37794 N 3795.76 1.31723 0.865262 0
M  V30 37795 C 3796.99 1.24788 1.65658 0
M  V30 37796 C 3797.41 -0.182919 1.87208 0
M  V30 37797 O 3796.77 -1.13067 1.41723 0
M  V30 37798 C 3796.82 2.00204 2.99918 0
M  V30 37799 O 3795.92 1.3426 3.89934 0
M  V30 37800 H 3795.26 0.430598 0.505452 0
M  V30 37801 H 3797.79 1.73868 1.07847 0
M  V30 37802 H 3797.8 2.09978 3.49819 0
M  V30 37803 H 3796.48 3.04254 2.83553 0
M  V30 37804 H 3795.05 1.32967 3.48388 0
M  V30 37805 N 3797.24 -1.08018 1.14761 0
M  V30 37806 C 3798.65 -1.3256 0.888823 0
M  V30 37807 C 3798.85 -1.95992 -0.467892 0
M  V30 37808 O 3797.91 -2.21548 -1.21131 0
M  V30 37809 C 3799.22 -2.2233 2.0246 0
M  V30 37810 C 3800.77 -2.35798 2.05835 0
M  V30 37811 C 3801.25 -3.28913 3.18717 0
M  V30 37812 N 3802.74 -3.36491 3.18321 0
M  V30 37813 C 3803.47 -4.08582 4.02304 0
M  V30 37814 N 3802.97 -4.83346 4.96335 0
M  V30 37815 N 3804.76 -4.04453 3.90351 0
M  V30 37816 H 3796.91 -0.652271 2.02137 0
M  V30 37817 H 3799.18 -0.349994 0.881027 0
M  V30 37818 H 3798.88 -1.82971 3.00357 0
M  V30 37819 H 3798.76 -3.22816 1.95114 0
M  V30 37820 H 3801.14 -2.74413 1.08542 0
M  V30 37821 H 3801.22 -1.3504 2.17251 0
M  V30 37822 H 3800.87 -2.91018 4.16259 0
M  V30 37823 H 3800.8 -4.29609 3.04538 0
M  V30 37824 H 3803.29 -2.83194 2.50219 0
M  V30 37825 H 3803.6 -5.35828 5.56874 0
M  V30 37826 H 3801.95 -4.82385 5.0033 0
M  V30 37827 H 3805.14 -3.45154 3.16206 0
M  V30 37828 H 3805.31 -4.60373 4.56027 0
M  V30 37829 N 3798.72 -0.943344 -1.26249 0
M  V30 37830 C 3799.94 -0.608887 -1.97738 0
M  V30 37831 C 3800.36 0.8166 -1.70227 0
M  V30 37832 O 3799.72 1.54478 -0.971747 0
M  V30 37833 C 3799.77 -0.844234 -3.51504 0
M  V30 37834 O 3799.49 -2.21366 -3.78059 0
M  V30 37835 C 3800.99 -0.520617 -4.40232 0
M  V30 37836 H 3798.21 -0.229273 -0.630615 0
M  V30 37837 H 3800.75 -1.26464 -1.60708 0
M  V30 37838 H 3798.91 -0.235058 -3.86686 0
M  V30 37839 H 3799.32 -2.27531 -4.72578 0
M  V30 37840 H 3800.8 -0.735898 -5.47073 0
M  V30 37841 H 3801.27 0.544464 -4.35812 0
M  V30 37842 H 3801.88 -1.10862 -4.10597 0
M  V30 37843 N 3800.2 1.4067 -0.710613 0
M  V30 37844 C 3801.61 1.8392 -0.320958 0
M  V30 37845 C 3801.96 1.59428 1.14355 0
M  V30 37846 O 3801.08 1.07255 1.8795 0
M  V30 37847 C 3801.68 3.33872 -0.575759 0
M  V30 37848 C 3800.24 3.75635 -0.239865 0
M  V30 37849 C 3799.38 2.63932 -0.850599 0
M  V30 37850 H 3802.33 1.30008 -0.910141 0
M  V30 37851 H 3802.36 3.80161 0.16064 0
M  V30 37852 H 3801.87 3.51666 -1.64172 0
M  V30 37853 H 3799.97 3.63437 0.821233 0
M  V30 37854 H 3800.08 4.73879 -0.705389 0
M  V30 37855 H 3798.45 2.53167 -0.279021 0
M  V30 37856 H 3799.23 2.8454 -1.92073 0
M  V30 37857 N 3801.67 0.456435 1.50846 0
M  V30 37858 C 3802.58 -0.350986 2.3196 0
M  V30 37859 C 3803.6 -1.00983 1.41698 0
M  V30 37860 O 3804.78 -1.00102 1.74761 0
M  V30 37861 C 3801.84 -1.42691 3.15975 0
M  V30 37862 C 3800.9 -0.786198 4.2204 0
M  V30 37863 C 3800.13 -1.81085 5.0204 0
M  V30 37864 O 3800.36 -3.03556 4.82918 0
M  V30 37865 O 3799.29 -1.39079 5.85611 0
M  V30 37866 H 3803.12 0.311732 3.02096 0
M  V30 37867 H 3800.7 0.21857 1.47793 0
M  V30 37868 H 3802.58 -2.05046 3.68149 0
M  V30 37869 H 3801.26 -2.07336 2.48583 0
M  V30 37870 H 3800.17 -0.124082 3.73894 0
M  V30 37871 H 3801.5 -0.18293 4.9186 0
M  V30 37872 N 3803.15 -1.56469 0.188482 0
M  V30 37873 C 3804.38 -2.01479 -0.457147 0
M  V30 37874 C 3804.79 -1.0678 -1.56188 0
M  V30 37875 O 3804.13 -0.0636913 -1.8359 0
M  V30 37876 C 3804.19 -3.42895 -1.07996 0
M  V30 37877 C 3803.86 -4.56856 -0.114777 0
M  V30 37878 C 3804.86 -5.15521 0.673359 0
M  V30 37879 C 3802.54 -5.023 -0.00561582 0
M  V30 37880 C 3804.53 -6.18073 1.55769 0
M  V30 37881 C 3802.22 -6.04697 0.88228 0
M  V30 37882 C 3803.22 -6.62457 1.6625 0
M  V30 37883 O 3802.91 -7.62867 2.53553 0
M  V30 37884 H 3802.64 -0.665305 -0.119772 0
M  V30 37885 H 3805.19 -2.03307 0.292482 0
M  V30 37886 H 3803.42 -3.38033 -1.87805 0
M  V30 37887 H 3805.11 -3.71753 -1.62955 0
M  V30 37888 H 3805.88 -4.81283 0.599292 0
M  V30 37889 H 3801.76 -4.57043 -0.602724 0
M  V30 37890 H 3805.3 -6.63085 2.16713 0
M  V30 37891 H 3801.2 -6.38359 0.957487 0
M  V30 37892 H 3801.97 -7.8026 2.47259 0
M  V30 37893 N 3804.63 0.0851597 -1.5737 0
M  V30 37894 C 3805.86 0.798943 -1.90527 0
M  V30 37895 C 3806.27 1.72311 -0.781377 0
M  V30 37896 O 3805.61 1.81921 0.255004 0
M  V30 37897 C 3805.67 1.6571 -3.1903 0
M  V30 37898 C 3805.34 0.903716 -4.47975 0
M  V30 37899 C 3806.33 0.229003 -5.19395 0
M  V30 37900 C 3804.02 0.87485 -4.94623 0
M  V30 37901 C 3806.01 -0.464497 -6.35705 0
M  V30 37902 C 3803.7 0.177571 -6.10842 0
M  V30 37903 C 3804.7 -0.490915 -6.81233 0
M  V30 37904 O 3804.39 -1.17699 -7.95237 0
M  V30 37905 H 3804.12 0.233108 -0.634537 0
M  V30 37906 H 3806.67 0.0637905 -2.05301 0
M  V30 37907 H 3804.9 2.43473 -3.00429 0
M  V30 37908 H 3806.59 2.24835 -3.37941 0
M  V30 37909 H 3807.36 0.242698 -4.84392 0
M  V30 37910 H 3803.24 1.38462 -4.39715 0
M  V30 37911 H 3806.78 -0.98684 -6.90585 0
M  V30 37912 H 3802.68 0.161756 -6.45297 0
M  V30 37913 H 3803.44 -1.0849 -8.11278 0
M  V30 37914 N 3806.11 1.53521 0.356231 0
M  V30 37915 C 3807.52 1.61742 0.93254 0
M  V30 37916 C 3807.87 0.49071 1.89964 0
M  V30 37917 O 3806.99 -0.381476 2.13011 0
M  V30 37918 C 3807.59 2.93171 1.69813 0
M  V30 37919 C 3806.15 3.03696 2.22364 0
M  V30 37920 C 3805.3 2.57105 1.03887 0
M  V30 37921 H 3808.25 1.58127 0.134741 0
M  V30 37922 H 3808.27 2.81498 2.56006 0
M  V30 37923 H 3807.78 3.75155 0.993999 0
M  V30 37924 H 3805.88 2.26319 2.9599 0
M  V30 37925 H 3805.99 4.08943 2.49604 0
M  V30 37926 H 3804.36 2.12205 1.40859 0
M  V30 37927 H 3805.14 3.41516 0.349577 0
M  V30 37928 N 3807.59 -0.616551 1.45039 0
M  V30 37929 C 3808.53 -1.74893 1.53346 0
M  V30 37930 C 3809.53 -1.6451 0.404062 0
M  V30 37931 O 3810.73 -1.70413 0.57961 0
M  V30 37932 H 3807.11 -0.57765 0.481482 0
M  V30 37933 H 3809.08 -1.65012 2.48623 0
M  V30 37934 C 3807.83 -3.1326 1.50877 0
M  V30 37935 H 3807.15 -3.21904 2.37103 0
M  V30 37936 H 3808.59 -3.92347 1.60748 0
M  V30 37937 C 3807.05 -3.36102 0.231763 0
M  V30 37938 O 3807.58 -3.95693 -0.692084 0
M  V30 37939 N 3805.79 -2.90308 0.130283 0
M  V30 37940 H 3805.33 -2.41996 0.882935 0
M  V30 37941 H 3805.29 -3.05966 -0.72335 0
M  V30 37942 N 3809.06 -1.3218 -0.858264 0
M  V30 37943 C 3810.03 -1.20757 -1.94809 0
M  V30 37944 C 3811.03 -0.131554 -1.60261 0
M  V30 37945 O 3812.22 -0.381692 -1.69967 0
M  V30 37946 C 3809.35 -0.856287 -3.2997 0
M  V30 37947 H 3810.54 -2.17607 -2.06367 0
M  V30 37948 H 3808.09 -1.15959 -1.048 0
M  V30 37949 H 3808.83 0.110553 -3.24112 0
M  V30 37950 H 3808.61 -1.63421 -3.56421 0
M  V30 37951 H 3810.1 -0.800579 -4.09854 0
M  V30 37952 N 3810.54 1.07407 -1.15332 0
M  V30 37953 C 3811.79 1.79637 -0.926006 0
M  V30 37954 C 3812.11 1.87132 0.548332 0
M  V30 37955 O 3811.38 1.3718 1.39851 0
M  V30 37956 H 3809.96 0.665337 -0.339611 0
M  V30 37957 H 3812.62 1.29804 -1.45386 0
M  V30 37958 H 3811.72 2.82112 -1.33489 0
M  V30 37959 N 3812.02 0.950026 1.25747 0
M  V30 37960 C 3812.95 0.484507 2.28418 0
M  V30 37961 C 3813.93 -0.466784 1.6357 0
M  V30 37962 O 3815.12 -0.366733 1.90706 0
M  V30 37963 C 3812.25 -0.242855 3.4645 0
M  V30 37964 C 3811.2 0.622731 4.23445 0
M  V30 37965 C 3810.53 -0.235105 5.34183 0
M  V30 37966 C 3811.83 1.89853 4.86573 0
M  V30 37967 H 3813.52 1.34262 2.67608 0
M  V30 37968 H 3811.07 0.647037 1.28645 0
M  V30 37969 H 3813.02 -0.57962 4.17395 0
M  V30 37970 H 3811.74 -1.13518 3.06237 0
M  V30 37971 H 3810.4 0.942515 3.54277 0
M  V30 37972 H 3810.05 -1.12705 4.90211 0
M  V30 37973 H 3809.75 0.340712 5.86611 0
M  V30 37974 H 3811.27 -0.566941 6.07962 0
M  V30 37975 H 3812.69 1.62846 5.49685 0
M  V30 37976 H 3811.08 2.41963 5.49157 0
M  V30 37977 H 3812.15 2.60448 4.09017 0
M  V30 37978 N 3813.5 -1.40291 0.718063 0
M  V30 37979 C 3814.75 -2.00074 0.255616 0
M  V30 37980 C 3815.06 -1.57596 -1.15857 0
M  V30 37981 O 3816.27 -2.10095 -1.71966 0
M  V30 37982 C 3814.72 -3.57602 0.406082 0
M  V30 37983 C 3814.33 -4.09051 1.82706 0
M  V30 37984 C 3816.07 -4.245 0.00455316 0
M  V30 37985 C 3813.98 -5.59091 1.92798 0
M  V30 37986 H 3812.91 -0.748389 0.0918143 0
M  V30 37987 H 3815.56 -1.60499 0.889509 0
M  V30 37988 H 3813.94 -3.94889 -0.296435 0
M  V30 37989 H 3815.12 -3.83135 2.56016 0
M  V30 37990 H 3813.43 -3.54758 2.18028 0
M  V30 37991 H 3816.03 -5.34667 0.059204 0
M  V30 37992 H 3816.37 -4.03159 -1.03772 0
M  V30 37993 H 3816.91 -3.92327 0.657604 0
M  V30 37994 H 3813.64 -5.8529 2.95155 0
M  V30 37995 H 3813.16 -5.86863 1.23903 0
M  V30 37996 H 3814.84 -6.24233 1.70125 0
M  V30 37997 N 3814.98 -0.464428 -1.50602 0
M  V30 37998 C 3815.91 0.379035 -2.2503 0
M  V30 37999 C 3816.89 1.00189 -1.28066 0
M  V30 38000 O 3818.07 1.03912 -1.57272 0
M  V30 38001 C 3815.2 1.53052 -3.02147 0
M  V30 38002 C 3814.24 1.02569 -4.13983 0
M  V30 38003 S 3815.08 -0.0542394 -5.35473 0
M  V30 38004 C 3816.23 1.10127 -6.16135 0
M  V30 38005 H 3816.47 -0.252783 -2.96223 0
M  V30 38006 H 3814 -0.249232 -1.52375 0
M  V30 38007 H 3815.96 2.1905 -3.47171 0
M  V30 38008 H 3814.62 2.13383 -2.30492 0
M  V30 38009 H 3813.81 1.88754 -4.6732 0
M  V30 38010 H 3813.41 0.443532 -3.71361 0
M  V30 38011 H 3815.71 2.01426 -6.46865 0
M  V30 38012 H 3816.65 0.607306 -7.05491 0
M  V30 38013 H 3817.06 1.35209 -5.48068 0
M  V30 38014 N 3816.45 1.56367 -0.196777 0
M  V30 38015 C 3817.4 2.20511 0.740099 0
M  V30 38016 C 3818.4 1.1768 1.21852 0
M  V30 38017 O 3819.6 1.35821 1.18122 0
M  V30 38018 H 3815.98 0.706713 0.257022 0
M  V30 38019 H 3817.95 2.97884 0.175402 0
M  V30 38020 C 3816.7 2.87983 1.94836 0
M  V30 38021 H 3816.02 3.66854 1.58929 0
M  V30 38022 H 3817.46 3.363 2.58221 0
M  V30 38023 C 3815.92 1.89109 2.78818 0
M  V30 38024 O 3816.45 1.39243 3.76795 0
M  V30 38025 N 3814.66 1.57302 2.44345 0
M  V30 38026 H 3814.2 1.98046 1.64729 0
M  V30 38027 H 3814.16 0.914031 3.0082 0
M  V30 38028 N 3817.93 -0.0768128 1.57413 0
M  V30 38029 C 3819.16 -0.788828 1.90948 0
M  V30 38030 C 3819.57 -1.71894 0.790504 0
M  V30 38031 O 3818.91 -1.82054 -0.245353 0
M  V30 38032 C 3818.98 -1.64016 3.19905 0
M  V30 38033 C 3818.64 -0.879946 4.48448 0
M  V30 38034 C 3819.64 -0.201455 5.1951 0
M  V30 38035 C 3817.32 -0.848607 4.9508 0
M  V30 38036 C 3819.32 0.498203 6.3545 0
M  V30 38037 C 3817 -0.145174 6.10928 0
M  V30 38038 C 3818 0.527036 6.80964 0
M  V30 38039 O 3817.69 1.21915 7.94602 0
M  V30 38040 H 3817.42 -0.229739 0.635764 0
M  V30 38041 H 3819.97 -0.052902 2.05332 0
M  V30 38042 H 3818.2 -2.41877 3.01716 0
M  V30 38043 H 3819.89 -2.2304 3.39129 0
M  V30 38044 H 3820.66 -0.217006 4.84514 0
M  V30 38045 H 3816.54 -1.36128 4.40443 0
M  V30 38046 H 3820.08 1.02345 6.90052 0
M  V30 38047 H 3815.98 -0.127532 6.45374 0
M  V30 38048 H 3816.75 1.12791 8.10691 0
M  V30 38049 N 3819.41 -1.53708 -0.348084 0
M  V30 38050 C 3820.65 -1.72447 -1.09733 0
M  V30 38051 C 3821.01 -0.475191 -1.86027 0
M  V30 38052 O 3822.22 -0.539539 -2.63329 0
M  V30 38053 C 3820.49 -2.95035 -2.01715 0
M  V30 38054 S 3822.05 -3.34564 -2.83923 0
M  V30 38055 H 3818.86 -0.606627 -0.370844 0
M  V30 38056 H 3821.47 -1.91844 -0.376324 0
M  V30 38057 H 3820.17 -3.84135 -1.44459 0
M  V30 38058 H 3819.7 -2.78091 -2.7826 0
M  V30 38059 H 3821.72 -2.87944 -4.04107 0
M  V30 38060 N 3820.89 0.608851 -1.45364 0
M  V30 38061 C 3822.3 0.929469 -1.29742 0
M  V30 38062 C 3822.5 1.99949 -0.249521 0
M  V30 38063 O 3821.56 2.49964 0.35697 0
M  V30 38064 C 3822.87 1.37159 -2.67596 0
M  V30 38065 C 3824.42 1.48587 -2.75483 0
M  V30 38066 C 3824.9 1.96176 -4.13859 0
M  V30 38067 N 3826.39 2.03412 -4.16147 0
M  V30 38068 C 3827.12 2.41453 -5.20085 0
M  V30 38069 N 3826.62 2.78471 -6.3437 0
M  V30 38070 N 3828.41 2.41781 -5.07443 0
M  V30 38071 H 3820.56 -0.0984211 -2.12172 0
M  V30 38072 H 3822.83 0.018623 -0.947817 0
M  V30 38073 H 3822.53 0.659539 -3.45461 0
M  V30 38074 H 3822.41 2.33835 -2.95974 0
M  V30 38075 H 3824.79 2.18884 -1.97923 0
M  V30 38076 H 3824.87 0.502293 -2.5082 0
M  V30 38077 H 3824.52 1.26466 -4.91903 0
M  V30 38078 H 3824.45 2.95445 -4.35912 0
M  V30 38079 H 3826.94 1.77398 -3.33674 0
M  V30 38080 H 3827.25 3.06376 -7.09474 0
M  V30 38081 H 3825.6 2.7617 -6.37774 0
M  V30 38082 H 3828.79 2.12266 -4.17206 0
M  V30 38083 H 3828.96 2.71101 -5.88564 0
M  V30 38084 N 3822.37 1.32633 0.851242 0
M  V30 38085 C 3823.31 1.21816 1.9815 0
M  V30 38086 C 3824.31 0.122212 1.68959 0
M  V30 38087 O 3825.51 0.285363 1.77724 0
M  V30 38088 H 3821.89 0.377697 0.650268 0
M  V30 38089 H 3823.86 2.174 2.04401 0
M  V30 38090 C 3822.61 0.96158 3.34139 0
M  V30 38091 H 3821.93 1.79711 3.57133 0
M  V30 38092 H 3823.37 0.92615 4.13761 0
M  V30 38093 C 3821.83 -0.335645 3.35224 0
M  V30 38094 O 3822.36 -1.34641 3.78464 0
M  V30 38095 N 3820.57 -0.358825 2.88376 0
M  V30 38096 H 3820.11 0.464239 2.53382 0
M  V30 38097 H 3820.07 -1.22663 2.89484 0
M  V30 38098 N 3823.84 -1.06794 1.159 0
M  V30 38099 C 3825.26 -1.60967 0.945865 0
M  V30 38100 C 3825.61 -1.89416 -0.511474 0
M  V30 38101 O 3824.73 -1.66382 -1.38369 0
M  V30 38102 C 3825.33 -2.92445 1.71059 0
M  V30 38103 C 3823.89 -3.43338 1.54258 0
M  V30 38104 C 3823.03 -2.17308 1.72257 0
M  V30 38105 H 3825.98 -0.898095 1.30843 0
M  V30 38106 H 3826 -3.61629 1.18342 0
M  V30 38107 H 3825.52 -2.71708 2.77122 0
M  V30 38108 H 3823.62 -3.69146 0.506147 0
M  V30 38109 H 3823.73 -4.19003 2.32322 0
M  V30 38110 H 3822.09 -2.27282 1.14956 0
M  V30 38111 H 3822.88 -1.99059 2.79697 0
M  V30 38112 N 3825.32 -0.956681 -1.25241 0
M  V30 38113 C 3826.6 -0.529865 -1.88286 0
M  V30 38114 C 3826.98 0.992896 -1.86292 0
M  V30 38115 O 3826.33 1.85956 -1.32788 0
M  V30 38116 C 3826.54 -1.10883 -3.30917 0
M  V30 38117 C 3827.89 -1.18695 -4.07672 0
M  V30 38118 O 3828.91 -1.06053 -3.40046 0
M  V30 38119 O 3827.77 -1.3855 -5.28646 0
M  V30 38120 H 3824.86 -0.17508 -0.808255 0
M  V30 38121 H 3827.41 -1.05024 -1.33297 0
M  V30 38122 H 3826.18 -2.152 -3.2681 0
M  V30 38123 H 3825.8 -0.571825 -3.93467 0
M  V30 38124 N 3826.8 1.39908 -0.725493 0
M  V30 38125 C 3827.76 2.29031 -0.0879359 0
M  V30 38126 C 3828.76 1.4585 0.67708 0
M  V30 38127 O 3829.95 1.66643 0.507509 0
M  V30 38128 C 3827.09 3.29211 0.88503 0
M  V30 38129 H 3828.28 2.86912 -0.873007 0
M  V30 38130 H 3825.83 1.48396 -0.490741 0
M  V30 38131 H 3826.57 2.76368 1.6968 0
M  V30 38132 H 3826.35 3.9063 0.339229 0
M  V30 38133 H 3827.84 3.95922 1.32799 0
M  V30 38134 N 3828.28 0.472408 1.50353 0
M  V30 38135 C 3829.52 -0.082249 2.02633 0
M  V30 38136 C 3829.86 -1.39252 1.35361 0
M  V30 38137 O 3829.13 -1.88491 0.479747 0
M  V30 38138 C 3829.42 -0.264679 3.59126 0
M  V30 38139 C 3829.27 1.06671 4.36968 0
M  V30 38140 C 3830.59 -1.01861 4.2815 0
M  V30 38141 H 3827.71 -0.0284174 0.736452 0
M  V30 38142 H 3830.35 0.618255 1.7966 0
M  V30 38143 H 3828.5 -0.861344 3.78831 0
M  V30 38144 H 3830.17 1.70005 4.28831 0
M  V30 38145 H 3828.41 1.66302 4.00657 0
M  V30 38146 H 3829.08 0.892688 5.44734 0
M  V30 38147 H 3831.56 -0.512858 4.12927 0
M  V30 38148 H 3830.44 -1.11506 5.37455 0
M  V30 38149 H 3830.7 -2.0555 3.9141 0
M  V30 38150 N 3829.76 -1.5626 0.205067 0
M  V30 38151 C 3830.72 -2.18309 -0.698128 0
M  V30 38152 C 3831.72 -1.14031 -1.13374 0
M  V30 38153 O 3832.91 -1.39359 -1.04521 0
M  V30 38154 C 3830.04 -2.79318 -1.95433 0
M  V30 38155 H 3831.24 -2.99487 -0.15741 0
M  V30 38156 H 3828.79 -1.56236 -0.0445574 0
M  V30 38157 H 3829.52 -2.01966 -2.53733 0
M  V30 38158 H 3829.31 -3.55664 -1.65061 0
M  V30 38159 H 3830.8 -3.26932 -2.59818 0
M  V30 38160 N 3831.24 0.0684638 -1.57451 0
M  V30 38161 C 3832.2 1.06542 -2.02932 0
M  V30 38162 C 3833.2 1.31398 -0.926884 0
M  V30 38163 O 3834.39 1.27063 -1.19167 0
M  V30 38164 C 3831.52 2.40825 -2.4128 0
M  V30 38165 H 3832.71 0.673349 -2.92243 0
M  V30 38166 H 3830.27 0.31428 -1.53108 0
M  V30 38167 H 3831 2.84858 -1.55005 0
M  V30 38168 H 3830.79 2.24125 -3.21731 0
M  V30 38169 H 3832.28 3.12479 -2.77032 0
M  V30 38170 N 3832.71 1.5389 0.339928 0
M  V30 38171 C 3834.12 1.62722 0.915333 0
M  V30 38172 C 3834.48 0.510831 1.89433 0
M  V30 38173 O 3833.6 -0.358862 2.13404 0
M  V30 38174 C 3834.2 2.94955 1.66694 0
M  V30 38175 C 3832.75 3.06038 2.1913 0
M  V30 38176 C 3831.9 2.58192 1.01154 0
M  V30 38177 H 3834.85 1.58261 0.117962 0
M  V30 38178 H 3834.87 2.84198 2.53006 0
M  V30 38179 H 3834.39 3.76188 0.954153 0
M  V30 38180 H 3832.49 2.29446 2.93573 0
M  V30 38181 H 3832.6 4.11568 2.45253 0
M  V30 38182 H 3830.96 2.13687 1.386 0
M  V30 38183 H 3831.75 3.41867 0.313336 0
M  V30 38184 N 3834.19 -0.601133 1.45685 0
M  V30 38185 C 3835.42 -1.38443 1.53353 0
M  V30 38186 C 3835.83 -1.8846 0.167136 0
M  V30 38187 O 3835.17 -1.63233 -0.842656 0
M  V30 38188 C 3835.23 -2.61948 2.46218 0
M  V30 38189 C 3834.9 -2.33525 3.9283 0
M  V30 38190 C 3835.9 -1.9349 4.82553 0
M  V30 38191 C 3833.58 -2.46238 4.37804 0
M  V30 38192 C 3835.57 -1.66536 6.1526 0
M  V30 38193 C 3833.26 -2.18898 5.7055 0
M  V30 38194 C 3834.26 -1.7911 6.59097 0
M  V30 38195 O 3833.95 -1.52094 7.89381 0
M  V30 38196 H 3833.68 -0.429956 0.521645 0
M  V30 38197 H 3836.23 -0.739583 1.91623 0
M  V30 38198 H 3834.46 -3.29174 2.02931 0
M  V30 38199 H 3836.15 -3.23999 2.44498 0
M  V30 38200 H 3836.92 -1.83199 4.49069 0
M  V30 38201 H 3832.8 -2.76173 3.6912 0
M  V30 38202 H 3836.34 -1.35406 6.84333 0
M  V30 38203 H 3832.24 -2.28808 6.03587 0
M  V30 38204 H 3833.01 -1.66093 8.01471 0
M  V30 38205 N 3835.67 -1.33083 -0.844196 0
M  V30 38206 C 3836.91 -1.25565 -1.61285 0
M  V30 38207 C 3837.27 0.177327 -1.91179 0
M  V30 38208 O 3838.47 0.376396 -2.66152 0
M  V30 38209 C 3836.75 -2.1013 -2.89102 0
M  V30 38210 S 3838.3 -2.19746 -3.79812 0
M  V30 38211 H 3835.12 -0.446801 -0.553073 0
M  V30 38212 H 3837.72 -1.68054 -0.998902 0
M  V30 38213 H 3836.43 -3.13286 -2.65104 0
M  V30 38214 H 3835.96 -1.68457 -3.55508 0
M  V30 38215 H 3837.97 -1.35463 -4.77351 0
M  V30 38216 N 3837.15 1.06178 -1.16464 0
M  V30 38217 C 3838.38 1.82429 -0.969699 0
M  V30 38218 C 3838.79 1.82869 0.485361 0
M  V30 38219 O 3838.13 1.24727 1.34866 0
M  V30 38220 C 3838.19 3.30195 -1.42167 0
M  V30 38221 C 3837.85 3.53456 -2.89686 0
M  V30 38222 C 3838.85 3.46407 -3.87683 0
M  V30 38223 C 3836.54 3.8074 -3.27632 0
M  V30 38224 C 3838.53 3.6631 -5.21628 0
M  V30 38225 C 3836.22 4.00292 -4.61746 0
M  V30 38226 C 3837.22 3.93075 -5.58553 0
M  V30 38227 O 3836.9 4.12093 -6.90243 0
M  V30 38228 H 3836.64 0.582035 -0.343819 0
M  V30 38229 H 3839.19 1.34854 -1.5493 0
M  V30 38230 H 3837.42 3.78637 -0.785553 0
M  V30 38231 H 3839.11 3.87943 -1.19396 0
M  V30 38232 H 3839.87 3.25317 -3.59713 0
M  V30 38233 H 3835.75 3.85466 -2.52857 0
M  V30 38234 H 3839.3 3.60592 -5.97176 0
M  V30 38235 H 3835.19 4.20871 -4.89426 0
M  V30 38236 H 3835.96 4.29374 -6.96836 0
M  V30 38237 N 3838.63 0.96331 1.24732 0
M  V30 38238 C 3839.85 0.640268 1.96744 0
M  V30 38239 C 3840.27 -0.789415 1.71504 0
M  V30 38240 O 3839.63 -1.52912 0.996201 0
M  V30 38241 C 3839.68 0.900048 3.50116 0
M  V30 38242 O 3839.4 2.27352 3.7449 0
M  V30 38243 C 3840.9 0.590589 4.39348 0
M  V30 38244 H 3838.12 0.239277 0.626887 0
M  V30 38245 H 3840.66 1.29005 1.58676 0
M  V30 38246 H 3838.82 0.296546 3.86263 0
M  V30 38247 H 3839.23 2.35021 4.68898 0
M  V30 38248 H 3840.71 0.82284 5.45833 0
M  V30 38249 H 3841.18 -0.475061 4.36623 0
M  V30 38250 H 3841.79 1.1738 4.08781 0
M  V30 38251 N 3840.1 -1.39522 0.732902 0
M  V30 38252 C 3841.52 -1.5429 0.408263 0
M  V30 38253 C 3841.72 -1.70042 -1.08111 0
M  V30 38254 O 3840.78 -1.69973 -1.86723 0
M  V30 38255 C 3842.09 -2.76175 1.18945 0
M  V30 38256 C 3843.64 -2.90008 1.17747 0
M  V30 38257 C 3844.11 -4.14828 1.94118 0
M  V30 38258 N 3845.6 -4.21863 1.91274 0
M  V30 38259 C 3846.34 -5.17389 2.47176 0
M  V30 38260 N 3845.83 -6.18717 3.11707 0
M  V30 38261 N 3847.63 -5.09591 2.37221 0
M  V30 38262 H 3839.78 -1.27545 1.69841 0
M  V30 38263 H 3842.04 -0.618023 0.718855 0
M  V30 38264 H 3841.75 -2.70871 2.24325 0
M  V30 38265 H 3841.62 -3.68781 0.792504 0
M  V30 38266 H 3844.01 -2.94806 0.131804 0
M  V30 38267 H 3844.09 -1.98471 1.61378 0
M  V30 38268 H 3843.73 -4.10792 2.98684 0
M  V30 38269 H 3843.66 -5.05405 1.47895 0
M  V30 38270 H 3846.15 -3.49281 1.4426 0
M  V30 38271 H 3846.47 -6.88064 3.51835 0
M  V30 38272 H 3844.81 -6.19111 3.15796 0
M  V30 38273 H 3848 -4.29364 1.86451 0
M  V30 38274 H 3848.18 -5.83862 2.81087 0
M  V30 38275 N 3841.58 -0.480375 -1.501 0
M  V30 38276 C 3842.86 0.133422 -1.95144 0
M  V30 38277 C 3843.24 1.561 -1.42113 0
M  V30 38278 O 3842.59 2.19756 -0.626051 0
M  V30 38279 C 3842.8 0.0672291 -3.48935 0
M  V30 38280 C 3844.14 0.25149 -4.23855 0
M  V30 38281 O 3845.17 0.143384 -3.55911 0
M  V30 38282 O 3844.03 0.470851 -5.44468 0
M  V30 38283 H 3841.12 0.106604 -0.8201 0
M  V30 38284 H 3843.67 -0.541442 -1.60831 0
M  V30 38285 H 3842.44 -0.929125 -3.80109 0
M  V30 38286 H 3842.06 0.783145 -3.89811 0
M  V30 38287 N 3843.06 1.56149 -0.213351 0
M  V30 38288 C 3844.47 1.84339 0.295988 0
M  V30 38289 C 3844.82 1.13454 1.60071 0
M  V30 38290 O 3843.95 0.401438 2.12644 0
M  V30 38291 C 3844.54 3.34407 0.543811 0
M  V30 38292 C 3843.1 3.62943 0.997476 0
M  V30 38293 C 3842.25 2.77243 0.0560336 0
M  V30 38294 H 3845.2 1.52572 -0.436733 0
M  V30 38295 H 3845.22 3.54168 1.39086 0
M  V30 38296 H 3844.73 3.85971 -0.405953 0
M  V30 38297 H 3842.83 3.16828 1.96088 0
M  V30 38298 H 3842.95 4.70994 0.877559 0
M  V30 38299 H 3841.31 2.48438 0.561318 0
M  V30 38300 H 3842.09 3.31603 -0.888501 0
M  V30 38301 N 3844.54 -0.0601128 1.57485 0
M  V30 38302 C 3845.79 -0.755542 1.87446 0
M  V30 38303 C 3846.11 -1.7752 0.806946 0
M  V30 38304 O 3845.38 -1.9522 -0.163105 0
M  V30 38305 H 3843.96 -0.282032 0.691713 0
M  V30 38306 H 3846.62 -0.0334274 1.94871 0
M  V30 38307 H 3845.72 -1.2645 2.85336 0
M  V30 38308 N 3846.02 -1.54068 -0.331762 0
M  V30 38309 C 3847.26 -1.72135 -1.07225 0
M  V30 38310 C 3847.6 -0.489298 -1.87935 0
M  V30 38311 O 3846.87 0.513728 -1.87593 0
M  V30 38312 C 3847.15 -2.99203 -2.00374 0
M  V30 38313 C 3847.01 -4.32642 -1.23049 0
M  V30 38314 C 3848.33 -3.21988 -3.0002 0
M  V30 38315 H 3845.44 -0.62634 -0.388417 0
M  V30 38316 H 3848.09 -1.86755 -0.349677 0
M  V30 38317 H 3846.24 -2.8687 -2.61988 0
M  V30 38318 H 3847.91 -4.56845 -0.639581 0
M  V30 38319 H 3846.15 -4.30518 -0.532641 0
M  V30 38320 H 3846.82 -5.17754 -1.91402 0
M  V30 38321 H 3849.3 -3.33728 -2.48525 0
M  V30 38322 H 3848.17 -4.12269 -3.62388 0
M  V30 38323 H 3848.44 -2.38832 -3.72037 0
M  V30 38324 N 3847.49 0.593399 -1.46002 0
M  V30 38325 C 3848.91 0.915655 -1.30721 0
M  V30 38326 C 3849.11 1.99673 -0.270714 0
M  V30 38327 O 3848.17 2.50329 0.330438 0
M  V30 38328 C 3849.48 1.34313 -2.69036 0
M  V30 38329 C 3851.03 1.45657 -2.77043 0
M  V30 38330 C 3851.5 1.91775 -4.15916 0
M  V30 38331 N 3852.99 1.98986 -4.18281 0
M  V30 38332 C 3853.73 2.35923 -5.22617 0
M  V30 38333 N 3853.22 2.71727 -6.37288 0
M  V30 38334 N 3855.02 2.36385 -5.09979 0
M  V30 38335 H 3847.17 -0.120919 -2.12056 0
M  V30 38336 H 3849.43 0.00856908 -0.947961 0
M  V30 38337 H 3849.14 0.622861 -3.46141 0
M  V30 38338 H 3849.01 2.30683 -2.98438 0
M  V30 38339 H 3851.4 2.16773 -2.00234 0
M  V30 38340 H 3851.48 0.475662 -2.51339 0
M  V30 38341 H 3851.12 1.21242 -4.93217 0
M  V30 38342 H 3851.05 2.90805 -4.39021 0
M  V30 38343 H 3853.54 1.73849 -3.35537 0
M  V30 38344 H 3853.86 2.98834 -7.12684 0
M  V30 38345 H 3852.2 2.6939 -6.40667 0
M  V30 38346 H 3855.39 2.07829 -4.19434 0
M  V30 38347 H 3855.57 2.64844 -5.91407 0
M  V30 38348 N 3848.97 1.33529 0.837127 0
M  V30 38349 C 3850.22 1.26279 1.59453 0
M  V30 38350 C 3850.57 -0.169451 1.91652 0
M  V30 38351 O 3849.87 -1.11199 1.5603 0
M  V30 38352 C 3850.06 2.07317 2.91126 0
M  V30 38353 C 3849.89 3.58276 2.71788 0
M  V30 38354 C 3848.66 4.27585 2.69257 0
M  V30 38355 C 3850.86 4.52572 2.44301 0
M  V30 38356 N 3848.84 5.64483 2.41314 0
M  V30 38357 C 3850.21 5.77372 2.25925 0
M  V30 38358 C 3852.27 4.41639 2.29912 0
M  V30 38359 C 3850.97 6.92471 1.9462 0
M  V30 38360 C 3852.99 5.56555 2 0
M  V30 38361 C 3852.36 6.80365 1.82437 0
M  V30 38362 H 3848.46 0.517291 0.586459 0
M  V30 38363 H 3851.04 1.68089 0.982564 0
M  V30 38364 H 3849.21 1.67825 3.5027 0
M  V30 38365 H 3850.94 1.91823 3.56351 0
M  V30 38366 H 3847.7 3.79877 2.82825 0
M  V30 38367 H 3848.12 6.36653 2.30222 0
M  V30 38368 H 3852.76 3.46551 2.42202 0
M  V30 38369 H 3850.48 7.87554 1.81066 0
M  V30 38370 H 3854.07 5.50033 1.89619 0
M  V30 38371 H 3852.95 7.67782 1.59624 0
M  V30 38372 N 3850.45 -1.05559 1.17026 0
M  V30 38373 C 3851.36 -2.16727 0.898145 0
M  V30 38374 C 3852.38 -1.73496 -0.132339 0
M  V30 38375 O 3853.55 -2.01347 0.0460556 0
M  V30 38376 C 3850.62 -3.44253 0.411152 0
M  V30 38377 C 3849.68 -4.01951 1.50777 0
M  V30 38378 C 3848.91 -5.23391 1.04392 0
M  V30 38379 O 3849.13 -5.70306 -0.103409 0
M  V30 38380 O 3848.07 -5.73233 1.8354 0
M  V30 38381 H 3851.89 -2.42528 1.82795 0
M  V30 38382 H 3849.48 -1.15237 0.950836 0
M  V30 38383 H 3851.36 -4.21144 0.146911 0
M  V30 38384 H 3850.04 -3.19961 -0.490548 0
M  V30 38385 H 3848.94 -3.26518 1.82585 0
M  V30 38386 H 3850.28 -4.30554 2.38505 0
M  V30 38387 N 3851.93 -0.969911 -1.2422 0
M  V30 38388 C 3853.16 -0.64975 -1.96117 0
M  V30 38389 C 3853.57 0.785406 -1.72128 0
M  V30 38390 O 3852.91 1.53887 -1.00322 0
M  V30 38391 C 3852.97 -0.847297 -3.49372 0
M  V30 38392 C 3852.64 -2.26251 -3.97063 0
M  V30 38393 C 3853.63 -3.24042 -4.06562 0
M  V30 38394 C 3851.32 -2.5908 -4.30329 0
M  V30 38395 C 3853.31 -4.52746 -4.48664 0
M  V30 38396 C 3851 -3.8801 -4.72114 0
M  V30 38397 C 3852 -4.84655 -4.81247 0
M  V30 38398 O 3851.68 -6.11284 -5.22099 0
M  V30 38399 H 3851.42 -0.241251 -0.631485 0
M  V30 38400 H 3853.97 -1.30098 -1.58945 0
M  V30 38401 H 3852.2 -0.138896 -3.8645 0
M  V30 38402 H 3853.89 -0.525887 -4.02479 0
M  V30 38403 H 3854.66 -3.00008 -3.81078 0
M  V30 38404 H 3850.53 -1.84573 -4.22438 0
M  V30 38405 H 3854.08 -5.28182 -4.55708 0
M  V30 38406 H 3849.98 -4.11843 -4.97047 0
M  V30 38407 H 3850.74 -6.14883 -5.40242 0
M  V30 38408 N 3853.41 1.39131 -0.740291 0
M  V30 38409 C 3854.65 2.02256 -0.295307 0
M  V30 38410 C 3855.01 1.5748 1.09836 0
M  V30 38411 O 3856.21 2.1284 1.64172 0
M  V30 38412 C 3854.48 3.55161 -0.399389 0
M  V30 38413 S 3856.04 4.38786 -0.0350264 0
M  V30 38414 H 3852.86 0.701578 -0.115368 0
M  V30 38415 H 3855.46 1.69854 -0.967976 0
M  V30 38416 H 3854.17 3.85239 -1.41489 0
M  V30 38417 H 3853.7 3.92323 0.290919 0
M  V30 38418 H 3855.71 4.81976 1.17957 0
M  V30 38419 N 3854.88 0.488329 1.49844 0
M  V30 38420 C 3855.83 -0.310663 2.30516 0
M  V30 38421 C 3856.83 -0.974545 1.3856 0
M  V30 38422 O 3858.03 -0.90368 1.55672 0
M  V30 38423 H 3854.41 -0.119036 0.742519 0
M  V30 38424 H 3856.38 0.389901 2.95842 0
M  V30 38425 C 3855.13 -1.36988 3.19577 0
M  V30 38426 H 3854.45 -0.868429 3.90254 0
M  V30 38427 H 3855.89 -1.90117 3.78988 0
M  V30 38428 C 3854.35 -2.3812 2.38328 0
M  V30 38429 O 3854.88 -3.43747 2.07848 0
M  V30 38430 N 3853.09 -2.1027 2.00587 0
M  V30 38431 H 3852.63 -1.24395 2.25574 0
M  V30 38432 H 3852.59 -2.78166 1.4653 0
M  V30 38433 N 3856.36 -1.56034 0.221629 0
M  V30 38434 C 3857.29 -2.23284 -0.683132 0
M  V30 38435 C 3858.27 -1.20458 -1.20099 0
M  V30 38436 O 3859.46 -1.49043 -1.24498 0
M  V30 38437 C 3856.59 -2.9128 -1.89137 0
M  V30 38438 C 3855.54 -4.00578 -1.50735 0
M  V30 38439 C 3854.87 -4.55871 -2.79438 0
M  V30 38440 C 3856.17 -5.17624 -0.697297 0
M  V30 38441 H 3857.86 -2.9915 -0.122435 0
M  V30 38442 H 3855.41 -1.43885 -0.0574479 0
M  V30 38443 H 3857.36 -3.37018 -2.52976 0
M  V30 38444 H 3856.09 -2.12862 -2.47704 0
M  V30 38445 H 3854.74 -3.55572 -0.89243 0
M  V30 38446 H 3854.39 -3.74183 -3.36149 0
M  V30 38447 H 3854.09 -5.29637 -2.54477 0
M  V30 38448 H 3855.62 -5.04327 -3.44219 0
M  V30 38449 H 3857.03 -5.59743 -1.23939 0
M  V30 38450 H 3855.43 -5.97622 -0.54477 0
M  V30 38451 H 3856.5 -4.83995 0.296066 0
M  V30 38452 N 3857.84 0.0517601 -1.57515 0
M  V30 38453 C 3859.07 0.759451 -1.92458 0
M  V30 38454 C 3859.48 1.70091 -0.819426 0
M  V30 38455 O 3858.84 1.81335 0.205881 0
M  V30 38456 C 3858.89 1.536 -3.27245 0
M  V30 38457 O 3858.61 0.632365 -4.33512 0
M  V30 38458 C 3860.11 2.3429 -3.76328 0
M  V30 38459 H 3857.33 0.214796 -0.635692 0
M  V30 38460 H 3859.88 0.0160503 -2.04494 0
M  V30 38461 H 3858.03 2.23149 -3.16675 0
M  V30 38462 H 3858.45 1.17453 -5.1118 0
M  V30 38463 H 3859.92 2.84205 -4.73214 0
M  V30 38464 H 3860.4 3.1471 -3.06356 0
M  V30 38465 H 3861 1.69859 -3.89907 0
M  V30 38466 N 3859.32 1.54242 0.323587 0
M  V30 38467 C 3860.25 1.79966 1.41933 0
M  V30 38468 C 3861.26 0.68163 1.47843 0
M  V30 38469 O 3862.45 0.958737 1.50567 0
M  V30 38470 C 3859.55 1.90238 2.80469 0
M  V30 38471 C 3858.73 3.20401 2.97762 0
M  V30 38472 C 3857.79 3.21375 4.16659 0
M  V30 38473 O 3856.81 3.95014 4.0982 0
M  V30 38474 N 3858.01 2.45157 5.26192 0
M  V30 38475 H 3860.78 2.74526 1.2023 0
M  V30 38476 H 3858.34 1.53538 0.513573 0
M  V30 38477 H 3860.33 1.88318 3.58216 0
M  V30 38478 H 3858.9 1.02774 2.95222 0
M  V30 38479 H 3858.12 3.35281 2.07316 0
M  V30 38480 H 3859.41 4.06339 3.06212 0
M  V30 38481 H 3858.81 1.84918 5.34623 0
M  V30 38482 H 3857.36 2.49014 6.02358 0
M  V30 38483 N 3860.8 -0.585648 1.46314 0
M  V30 38484 C 3862.04 -1.35504 1.53029 0
M  V30 38485 C 3862.4 -1.91187 0.176506 0
M  V30 38486 O 3863.6 -2.68539 0.118396 0
M  V30 38487 C 3861.87 -2.45633 2.59613 0
M  V30 38488 S 3863.43 -3.33038 2.85712 0
M  V30 38489 H 3860.25 -0.461691 0.540705 0
M  V30 38490 H 3862.85 -0.673552 1.83531 0
M  V30 38491 H 3861.56 -2.03113 3.56614 0
M  V30 38492 H 3861.09 -3.18558 2.30834 0
M  V30 38493 H 3863.1 -4.44387 2.20758 0
M  V30 38494 N 3862.28 -1.33971 -0.830033 0
M  V30 38495 C 3863.5 -1.29136 -1.62292 0
M  V30 38496 C 3863.93 0.13322 -1.87628 0
M  V30 38497 O 3863.28 1.0927 -1.44671 0
M  V30 38498 C 3863.33 -2.08086 -2.94504 0
M  V30 38499 O 3862.44 -1.44551 -3.86237 0
M  V30 38500 H 3861.78 -0.443848 -0.493857 0
M  V30 38501 H 3864.31 -1.76667 -1.03199 0
M  V30 38502 H 3864.32 -2.19179 -3.44129 0
M  V30 38503 H 3862.99 -3.11665 -2.75387 0
M  V30 38504 H 3861.57 -1.42157 -3.4474 0
M  V30 38505 N 3863.75 1.04937 -1.17584 0
M  V30 38506 C 3865.03 1.74904 -0.875669 0
M  V30 38507 C 3865.41 2.01682 0.623494 0
M  V30 38508 O 3864.76 1.65495 1.57555 0
M  V30 38509 C 3864.97 3.04046 -1.71339 0
M  V30 38510 C 3866.32 3.77948 -1.93496 0
M  V30 38511 O 3867.34 3.13922 -1.68319 0
M  V30 38512 O 3866.2 4.93 -2.35824 0
M  V30 38513 H 3863.29 0.760692 -0.324464 0
M  V30 38514 H 3865.84 1.11082 -1.28292 0
M  V30 38515 H 3864.61 2.80326 -2.73008 0
M  V30 38516 H 3864.23 3.75606 -1.30408 0
M  V30 38517 N 3865.23 0.976485 1.23703 0
M  V30 38518 C 3866.19 0.518572 2.23257 0
M  V30 38519 C 3867.19 -0.389673 1.56007 0
M  V30 38520 O 3868.38 -0.183909 1.73226 0
M  V30 38521 C 3865.52 -0.247856 3.39998 0
M  V30 38522 H 3866.71 1.39877 2.65282 0
M  V30 38523 H 3864.26 0.76197 1.36469 0
M  V30 38524 H 3865 -1.14476 3.03423 0
M  V30 38525 H 3864.78 0.404044 3.90013 0
M  V30 38526 H 3866.27 -0.556962 4.13869 0
M  V30 38527 N 3866.71 -1.38737 0.747659 0
M  V30 38528 C 3867.62 -2.34303 0.11792 0
M  V30 38529 C 3868.64 -1.58969 -0.70746 0
M  V30 38530 O 3869.81 -1.91194 -0.632991 0
M  V30 38531 C 3866.88 -3.3806 -0.769164 0
M  V30 38532 C 3865.94 -4.29243 0.0699113 0
M  V30 38533 C 3865.17 -5.28044 -0.774928 0
M  V30 38534 O 3865.39 -5.33692 -2.01319 0
M  V30 38535 O 3864.33 -6.01578 -0.196872 0
M  V30 38536 H 3868.15 -2.89839 0.907023 0
M  V30 38537 H 3865.74 -1.40481 0.508478 0
M  V30 38538 H 3867.62 -4.01606 -1.27634 0
M  V30 38539 H 3866.3 -2.8489 -1.53686 0
M  V30 38540 H 3865.2 -3.68878 0.622901 0
M  V30 38541 H 3866.54 -4.85653 0.800125 0
M  V30 38542 N 3868.19 -0.496268 -1.49583 0
M  V30 38543 C 3869.44 0.0498288 -2.02039 0
M  V30 38544 C 3869.76 1.37922 -1.3785 0
M  V30 38545 O 3869.03 1.88532 -0.532221 0
M  V30 38546 H 3867.61 0.0214046 -0.746693 0
M  V30 38547 H 3870.27 -0.652432 -1.83655 0
M  V30 38548 H 3869.36 0.182967 -3.11563 0
M  V30 38549 N 3869.67 1.55914 -0.2299 0
M  V30 38550 C 3870.89 2.02914 0.404154 0
M  V30 38551 C 3871.31 1.10955 1.52756 0
M  V30 38552 O 3870.67 0.120717 1.821 0
M  V30 38553 C 3870.72 3.49387 0.927955 0
M  V30 38554 O 3870.44 4.37841 -0.150669 0
M  V30 38555 C 3871.94 4.1207 1.63441 0
M  V30 38556 H 3869.16 0.663802 0.0980177 0
M  V30 38557 H 3871.7 2.01504 -0.348796 0
M  V30 38558 H 3869.86 3.51386 1.63114 0
M  V30 38559 H 3870.27 5.23931 0.244337 0
M  V30 38560 H 3871.75 5.16303 1.95283 0
M  V30 38561 H 3872.22 3.57557 2.55048 0
M  V30 38562 H 3872.83 4.13944 0.97622 0
M  V30 38563 N 3871.14 -0.043406 1.5754 0
M  V30 38564 C 3872.11 -1.033 2.04602 0
M  V30 38565 C 3873.11 -1.29907 0.947671 0
M  V30 38566 O 3874.3 -1.25151 1.21173 0
M  V30 38567 C 3871.43 -2.36956 2.45081 0
M  V30 38568 H 3872.62 -0.626771 2.93277 0
M  V30 38569 H 3870.17 -0.289882 1.53588 0
M  V30 38570 H 3870.91 -2.82355 1.59518 0
M  V30 38571 H 3870.69 -2.18978 3.25256 0
M  V30 38572 H 3872.18 -3.08032 2.81968 0
M  V30 38573 N 3872.62 -1.54412 -0.315402 0
M  V30 38574 C 3873.87 -1.73263 -1.05393 0
M  V30 38575 C 3874.2 -0.509204 -1.87405 0
M  V30 38576 O 3873.48 0.493802 -1.88127 0
M  V30 38577 C 3873.76 -3.01311 -1.97189 0
M  V30 38578 C 3873.61 -4.33923 -1.18453 0
M  V30 38579 C 3874.93 -3.25152 -2.96588 0
M  V30 38580 H 3872.05 -0.630424 -0.381752 0
M  V30 38581 H 3874.69 -1.87115 -0.329849 0
M  V30 38582 H 3872.84 -2.89633 -2.58931 0
M  V30 38583 H 3874.51 -4.57497 -0.59109 0
M  V30 38584 H 3872.76 -4.31058 -0.486949 0
M  V30 38585 H 3873.43 -5.19755 -1.85899 0
M  V30 38586 H 3875.9 -3.36345 -2.44971 0
M  V30 38587 H 3874.78 -4.1609 -3.57995 0
M  V30 38588 H 3875.04 -2.42765 -3.69483 0
M  V30 38589 N 3874.1 0.57788 -1.46623 0
M  V30 38590 C 3875.06 1.66863 -1.57129 0
M  V30 38591 C 3876.06 1.54432 -0.448031 0
M  V30 38592 O 3877.25 1.58963 -0.712487 0
M  V30 38593 C 3874.39 3.06312 -1.49618 0
M  V30 38594 H 3875.58 1.58904 -2.54341 0
M  V30 38595 H 3873.13 0.796119 -1.34505 0
M  V30 38596 H 3873.87 3.19823 -0.537032 0
M  V30 38597 H 3873.65 3.16744 -2.31119 0
M  V30 38598 H 3875.14 3.85706 -1.60065 0
M  V30 38599 N 3875.58 1.34409 0.822917 0
M  V30 38600 C 3876.99 1.24006 1.39569 0
M  V30 38601 C 3877.34 -0.134449 1.95739 0
M  V30 38602 O 3876.47 -1.03478 1.90056 0
M  V30 38603 C 3877.06 2.24523 2.53722 0
M  V30 38604 C 3875.62 2.17911 3.06907 0
M  V30 38605 C 3874.77 2.11127 1.79779 0
M  V30 38606 H 3877.72 1.45775 0.627315 0
M  V30 38607 H 3877.74 1.86223 3.31815 0
M  V30 38608 H 3877.25 3.24551 2.1281 0
M  V30 38609 H 3875.35 1.21239 3.52324 0
M  V30 38610 H 3875.46 3.09165 3.65997 0
M  V30 38611 H 3873.83 1.56848 2.00676 0
M  V30 38612 H 3874.61 3.12989 1.41042 0
M  V30 38613 N 3877.06 -1.04312 1.18139 0
M  V30 38614 C 3878.47 -1.58924 0.979795 0
M  V30 38615 C 3878.82 -1.90458 -0.471181 0
M  V30 38616 O 3877.94 -1.69279 -1.34809 0
M  V30 38617 C 3878.54 -2.88751 1.77224 0
M  V30 38618 C 3877.1 -3.39989 1.61506 0
M  V30 38619 C 3876.24 -2.13606 1.76827 0
M  V30 38620 H 3879.2 -0.870139 1.32719 0
M  V30 38621 H 3879.22 -3.59037 1.25986 0
M  V30 38622 H 3878.73 -2.65768 2.82823 0
M  V30 38623 H 3876.83 -3.6799 0.584334 0
M  V30 38624 H 3876.94 -4.13981 2.41157 0
M  V30 38625 H 3875.31 -2.24793 1.19751 0
M  V30 38626 H 3876.09 -1.93082 2.83856 0
M  V30 38627 N 3878.53 -0.983032 -1.23184 0
M  V30 38628 C 3879.76 -0.671487 -1.957 0
M  V30 38629 C 3880.18 0.76203 -1.72738 0
M  V30 38630 O 3879.53 1.51308 -1.0204 0
M  V30 38631 C 3879.59 -0.955635 -3.4864 0
M  V30 38632 O 3879.31 -2.33281 -3.70825 0
M  V30 38633 C 3880.81 -0.66041 -4.38353 0
M  V30 38634 H 3878.03 -0.249219 -0.623001 0
M  V30 38635 H 3880.57 -1.31513 -1.56603 0
M  V30 38636 H 3878.73 -0.35796 -3.85743 0
M  V30 38637 H 3879.14 -2.42451 -4.651 0
M  V30 38638 H 3880.61 -0.909573 -5.44455 0
M  V30 38639 H 3881.09 0.405538 -4.37324 0
M  V30 38640 H 3881.7 -1.23868 -4.06862 0
M  V30 38641 N 3880.01 1.38338 -0.755006 0
M  V30 38642 C 3881.26 2.00382 -0.312259 0
M  V30 38643 C 3881.59 1.59795 1.1036 0
M  V30 38644 O 3880.87 0.836161 1.75609 0
M  V30 38645 C 3881.15 3.57441 -0.436764 0
M  V30 38646 C 3881 4.07988 -1.89383 0
M  V30 38647 C 3882.32 4.39775 0.169006 0
M  V30 38648 H 3879.44 0.727983 -0.114935 0
M  V30 38649 H 3882.08 1.6426 -0.954916 0
M  V30 38650 H 3880.23 3.88343 0.110362 0
M  V30 38651 H 3881.9 3.87723 -2.49937 0
M  V30 38652 H 3880.15 3.60802 -2.40841 0
M  V30 38653 H 3880.82 5.17082 -1.93209 0
M  V30 38654 H 3883.29 4.15034 -0.297627 0
M  V30 38655 H 3882.17 5.48876 0.0516566 0
M  V30 38656 H 3882.43 4.2384 1.25746 0
M  V30 38657 N 3881.49 0.504194 1.49317 0
M  V30 38658 C 3882.72 -0.0359052 2.06869 0
M  V30 38659 C 3883.13 -1.30527 1.36412 0
M  V30 38660 O 3882.49 -1.7703 0.443447 0
M  V30 38661 C 3882.54 -0.29017 3.60334 0
M  V30 38662 O 3882.26 0.928876 4.2814 0
M  V30 38663 C 3883.76 -0.873552 4.34608 0
M  V30 38664 H 3880.98 0.0219011 0.670642 0
M  V30 38665 H 3883.53 0.702465 1.92056 0
M  V30 38666 H 3881.68 -0.978528 3.74838 0
M  V30 38667 H 3882.1 0.693686 5.19893 0
M  V30 38668 H 3883.57 -1.00103 5.42848 0
M  V30 38669 H 3884.05 -1.87214 3.97301 0
M  V30 38670 H 3884.65 -0.222563 4.24717 0
M  V30 38671 N 3882.97 -1.5579 0.238166 0
M  V30 38672 C 3884.38 -1.84786 -0.266623 0
M  V30 38673 C 3884.73 -1.15986 -1.58246 0
M  V30 38674 O 3883.86 -0.435217 -2.11978 0
M  V30 38675 C 3884.45 -3.3523 -0.490541 0
M  V30 38676 C 3883.01 -3.64484 -0.939608 0
M  V30 38677 C 3882.16 -2.77297 -0.0119195 0
M  V30 38678 H 3885.11 -1.51858 0.460951 0
M  V30 38679 H 3885.13 -3.56336 -1.33434 0
M  V30 38680 H 3884.64 -3.85276 0.467306 0
M  V30 38681 H 3882.74 -3.19908 -1.91023 0
M  V30 38682 H 3882.85 -4.72331 -0.802517 0
M  V30 38683 H 3881.22 -2.49299 -0.521723 0
M  V30 38684 H 3882 -3.30148 0.941143 0
M  V30 38685 N 3884.45 0.0350506 -1.57561 0
M  V30 38686 C 3885.69 0.728139 -1.89278 0
M  V30 38687 C 3886.03 1.75324 -0.835168 0
M  V30 38688 O 3885.3 1.93917 0.150481 0
M  V30 38689 C 3885.58 1.4031 -3.3164 0
M  V30 38690 C 3885.44 0.391917 -4.48089 0
M  V30 38691 C 3886.76 2.33865 -3.7282 0
M  V30 38692 H 3883.87 0.263238 -0.688386 0
M  V30 38693 H 3886.52 -0.00904 -1.89998 0
M  V30 38694 H 3884.67 2.03144 -3.31157 0
M  V30 38695 H 3886.34 -0.234046 -4.60706 0
M  V30 38696 H 3884.58 -0.289381 -4.32834 0
M  V30 38697 H 3885.25 0.902546 -5.44571 0
M  V30 38698 H 3887.73 1.8108 -3.74632 0
M  V30 38699 H 3886.6 2.78075 -4.7325 0
M  V30 38700 H 3886.87 3.20281 -3.0475 0
M  V30 38701 N 3885.92 1.54577 0.307209 0
M  V30 38702 C 3887.34 1.64627 0.880611 0
M  V30 38703 C 3887.69 0.550898 1.88307 0
M  V30 38704 O 3886.81 -0.313515 2.14117 0
M  V30 38705 C 3887.41 2.98425 1.604 0
M  V30 38706 C 3885.97 3.10617 2.12589 0
M  V30 38707 C 3885.11 2.6028 0.956547 0
M  V30 38708 H 3888.06 1.58476 0.084366 0
M  V30 38709 H 3888.08 2.89501 2.4692 0
M  V30 38710 H 3887.6 3.78127 0.874143 0
M  V30 38711 H 3885.7 2.35622 2.8864 0
M  V30 38712 H 3885.81 4.16677 2.36468 0
M  V30 38713 H 3884.17 2.16579 1.34036 0
M  V30 38714 H 3884.96 3.42455 0.24075 0
M  V30 38715 N 3887.4 -0.570096 1.46927 0
M  V30 38716 C 3888.63 -1.35839 1.56725 0
M  V30 38717 C 3889.05 -1.86886 0.213347 0
M  V30 38718 O 3888.41 -1.62266 -0.808666 0
M  V30 38719 C 3888.46 -2.51319 2.58595 0
M  V30 38720 O 3887.56 -3.53152 2.12972 0
M  V30 38721 H 3886.9 -0.404023 0.526936 0
M  V30 38722 H 3889.43 -0.690274 1.92604 0
M  V30 38723 H 3889.44 -2.98065 2.78606 0
M  V30 38724 H 3888.12 -2.13519 3.56907 0
M  V30 38725 H 3886.7 -3.12799 2.03005 0
M  V30 38726 N 3888.88 -1.34844 -0.815777 0
M  V30 38727 C 3889.81 -1.29662 -1.9419 0
M  V30 38728 C 3890.79 -0.172733 -1.69221 0
M  V30 38729 O 3891.98 -0.366236 -1.90715 0
M  V30 38730 C 3889.11 -1.05855 -3.30775 0
M  V30 38731 C 3888.06 -2.14787 -3.70203 0
M  V30 38732 C 3887.39 -1.76158 -5.04849 0
M  V30 38733 C 3888.69 -3.56678 -3.81547 0
M  V30 38734 H 3890.38 -2.23888 -1.98783 0
M  V30 38735 H 3887.93 -1.07777 -0.954994 0
M  V30 38736 H 3889.88 -1.00873 -4.09149 0
M  V30 38737 H 3888.6 -0.0807378 -3.265 0
M  V30 38738 H 3887.26 -2.1885 -2.94109 0
M  V30 38739 H 3886.91 -0.770186 -4.97069 0
M  V30 38740 H 3886.61 -2.49071 -5.32201 0
M  V30 38741 H 3888.14 -1.72684 -5.85673 0
M  V30 38742 H 3889.55 -3.54987 -4.50174 0
M  V30 38743 H 3887.95 -4.28273 -4.20359 0
M  V30 38744 H 3889.02 -3.93499 -2.83349 0
M  V30 38745 N 3890.36 1.03684 -1.1869 0
M  V30 38746 C 3891.27 2.15271 -0.932511 0
M  V30 38747 C 3892.29 1.73685 0.10472 0
M  V30 38748 O 3893.46 2.01249 -0.0780824 0
M  V30 38749 C 3890.53 3.43556 -0.465867 0
M  V30 38750 C 3889.59 3.99502 -1.57153 0
M  V30 38751 C 3888.82 5.21664 -1.12705 0
M  V30 38752 O 3889.04 5.70399 0.0126654 0
M  V30 38753 O 3887.98 5.70241 -1.92637 0
M  V30 38754 H 3891.8 2.39589 -1.8663 0
M  V30 38755 H 3889.39 1.13709 -0.969049 0
M  V30 38756 H 3891.27 4.20857 -0.213893 0
M  V30 38757 H 3889.95 3.20701 0.439583 0
M  V30 38758 H 3888.85 3.23571 -1.87756 0
M  V30 38759 H 3890.19 4.26705 -2.45324 0
M  V30 38760 N 3891.84 0.989551 1.22661 0
M  V30 38761 C 3892.8 0.542222 2.22694 0
M  V30 38762 C 3893.8 -0.373104 1.56412 0
M  V30 38763 O 3894.99 -0.165526 1.73412 0
M  V30 38764 C 3892.12 -0.211781 3.40242 0
M  V30 38765 H 3893.32 1.42683 2.63783 0
M  V30 38766 H 3890.87 0.776401 1.35653 0
M  V30 38767 H 3891.6 -1.11252 3.0462 0
M  V30 38768 H 3891.39 0.445387 3.89562 0
M  V30 38769 H 3892.88 -0.513034 4.14437 0
M  V30 38770 N 3893.32 -1.37936 0.762332 0
M  V30 38771 C 3894.73 -1.82603 0.388998 0
M  V30 38772 C 3895.08 -1.63563 -1.08359 0
M  V30 38773 O 3894.2 -1.14157 -1.8384 0
M  V30 38774 C 3894.8 -3.31505 0.699276 0
M  V30 38775 C 3893.36 -3.74486 0.379114 0
M  V30 38776 C 3892.5 -2.60593 0.947969 0
M  V30 38777 H 3895.45 -1.26541 0.957766 0
M  V30 38778 H 3895.48 -3.80495 -0.0194351 0
M  V30 38779 H 3894.99 -3.45331 1.77111 0
M  V30 38780 H 3893.09 -3.66235 -0.68578 0
M  V30 38781 H 3893.2 -4.70934 0.88078 0
M  V30 38782 H 3891.57 -2.51957 0.37279 0
M  V30 38783 H 3892.35 -2.77215 2.02501 0
M  V30 38784 N 3894.79 -0.512106 -1.49048 0
M  V30 38785 C 3896.02 0.027068 -2.07382 0
M  V30 38786 C 3896.44 1.29047 -1.36852 0
M  V30 38787 O 3895.8 1.76158 -0.428744 0
M  V30 38788 C 3895.85 0.252399 -3.59716 0
M  V30 38789 O 3894.95 1.32484 -3.9054 0
M  V30 38790 H 3894.29 -0.0311624 -0.663268 0
M  V30 38791 H 3896.82 -0.714907 -1.91704 0
M  V30 38792 H 3896.83 0.480532 -4.0516 0
M  V30 38793 H 3895.51 -0.670604 -4.10458 0
M  V30 38794 H 3894.09 1.08078 -3.56894 0
M  V30 38795 N 3896.27 1.55662 -0.246424 0
M  V30 38796 C 3897.18 2.25005 0.664086 0
M  V30 38797 C 3898.2 1.26601 1.19366 0
M  V30 38798 O 3899.37 1.59475 1.23003 0
M  V30 38799 C 3896.44 2.9356 1.84454 0
M  V30 38800 C 3895.5 4.07372 1.35449 0
M  V30 38801 C 3894.73 4.72649 2.47868 0
M  V30 38802 O 3894.96 4.37002 3.66586 0
M  V30 38803 O 3893.89 5.61169 2.17654 0
M  V30 38804 H 3897.72 3.03525 0.103223 0
M  V30 38805 H 3895.3 1.49393 -0.014947 0
M  V30 38806 H 3897.18 3.36742 2.53343 0
M  V30 38807 H 3895.86 2.1798 2.39304 0
M  V30 38808 H 3894.76 3.68708 0.632893 0
M  V30 38809 H 3896.1 4.84768 0.852089 0
M  V30 38810 N 3897.75 -0.0266943 1.57577 0
M  V30 38811 C 3898.68 -1.05421 2.03517 0
M  V30 38812 C 3899.69 -1.32323 0.948385 0
M  V30 38813 O 3900.88 -1.29769 1.22565 0
M  V30 38814 C 3897.98 -2.39528 2.39749 0
M  V30 38815 C 3897.16 -2.31947 3.70836 0
M  V30 38816 C 3896.22 -3.48524 3.9423 0
M  V30 38817 O 3895.24 -3.27911 4.65256 0
M  V30 38818 N 3896.44 -4.70473 3.40053 0
M  V30 38819 H 3899.21 -0.662627 2.92283 0
M  V30 38820 H 3896.77 -0.214595 1.60471 0
M  V30 38821 H 3898.76 -3.16241 2.52535 0
M  V30 38822 H 3897.33 -2.70523 1.56641 0
M  V30 38823 H 3896.55 -1.40319 3.68381 0
M  V30 38824 H 3897.84 -2.24027 4.56825 0
M  V30 38825 H 3897.24 -4.9012 2.82487 0
M  V30 38826 H 3895.79 -5.44542 3.58214 0
M  V30 38827 N 3899.23 -1.54738 -0.299007 0
M  V30 38828 C 3900.19 -1.85081 -1.35195 0
M  V30 38829 C 3901.19 -0.723813 -1.43588 0
M  V30 38830 O 3902.38 -0.992092 -1.43189 0
M  V30 38831 C 3899.51 -2.03287 -2.73655 0
M  V30 38832 H 3900.71 -2.79182 -1.09533 0
M  V30 38833 H 3898.26 -1.4683 -0.535777 0
M  V30 38834 H 3898.99 -1.1148 -3.04537 0
M  V30 38835 H 3898.78 -2.85318 -2.68954 0
M  V30 38836 H 3900.27 -2.28126 -3.49783 0
M  V30 38837 N 3900.71 0.562296 -1.47228 0
M  V30 38838 C 3902.12 1.14443 -1.47511 0
M  V30 38839 C 3902.47 1.94882 -0.227024 0
M  V30 38840 O 3901.59 2.05817 0.668446 0
M  V30 38841 C 3902.19 2.08212 -2.6727 0
M  V30 38842 C 3900.75 2.61708 -2.70529 0
M  V30 38843 C 3899.89 1.37984 -2.40532 0
M  V30 38844 H 3902.84 0.349158 -1.54811 0
M  V30 38845 H 3902.87 2.92008 -2.4395 0
M  V30 38846 H 3902.38 1.4964 -3.58091 0
M  V30 38847 H 3900.48 3.24093 -1.83833 0
M  V30 38848 H 3900.59 3.03049 -3.71077 0
M  V30 38849 H 3898.96 1.68486 -1.9101 0
M  V30 38850 H 3899.74 0.812118 -3.33556 0
M  V30 38851 N 3902.18 1.35274 0.808615 0
M  V30 38852 C 3903.41 1.31544 1.59699 0
M  V30 38853 C 3903.83 -0.107508 1.88494 0
M  V30 38854 O 3903.18 -1.05886 1.48642 0
M  V30 38855 C 3903.23 2.11813 2.92946 0
M  V30 38856 O 3902.96 3.4856 2.65401 0
M  V30 38857 C 3904.46 2.15645 3.87314 0
M  V30 38858 H 3901.68 0.451965 0.495953 0
M  V30 38859 H 3904.22 1.78099 1.00504 0
M  V30 38860 H 3902.38 1.68864 3.4866 0
M  V30 38861 H 3902.79 3.90224 3.50464 0
M  V30 38862 H 3904.26 2.76204 4.77928 0
M  V30 38863 H 3904.74 1.15466 4.2375 0
M  V30 38864 H 3905.35 2.58747 3.37535 0
M  V30 38865 N 3903.66 -1.03053 1.19239 0
M  V30 38866 C 3904.57 -2.14773 0.943914 0
M  V30 38867 C 3905.59 -1.73738 -0.0955079 0
M  V30 38868 O 3906.76 -2.01204 0.088754 0
M  V30 38869 C 3903.83 -3.43304 0.48408 0
M  V30 38870 C 3902.89 -3.98663 1.59269 0
M  V30 38871 C 3902.12 -5.21059 1.1547 0
M  V30 38872 O 3902.35 -5.70397 0.0175844 0
M  V30 38873 O 3901.28 -5.69211 1.95658 0
M  V30 38874 H 3905.11 -2.38596 1.87898 0
M  V30 38875 H 3902.69 -1.13194 0.975066 0
M  V30 38876 H 3904.57 -4.20737 0.236209 0
M  V30 38877 H 3903.25 -3.2093 -0.422569 0
M  V30 38878 H 3902.16 -3.22571 1.89469 0
M  V30 38879 H 3903.49 -4.25398 2.47584 0
M  V30 38880 N 3905.14 -0.996042 -1.22134 0
M  V30 38881 C 3906.07 -0.507201 -2.23518 0
M  V30 38882 C 3907.09 0.399398 -1.57825 0
M  V30 38883 O 3908.27 0.201029 -1.77364 0
M  V30 38884 C 3905.37 0.283871 -3.37709 0
M  V30 38885 C 3904.55 -0.619625 -4.32989 0
M  V30 38886 C 3903.61 0.120283 -5.26063 0
M  V30 38887 O 3902.63 -0.495369 -5.6704 0
M  V30 38888 N 3903.83 1.40162 -5.63325 0
M  V30 38889 H 3906.6 -1.379 -2.66089 0
M  V30 38890 H 3904.16 -0.871126 -1.36466 0
M  V30 38891 H 3906.15 0.787591 -3.96962 0
M  V30 38892 H 3904.72 1.05679 -2.94195 0
M  V30 38893 H 3903.94 -1.30397 -3.72008 0
M  V30 38894 H 3905.23 -1.23481 -4.93589 0
M  V30 38895 H 3904.63 1.92308 -5.32009 0
M  V30 38896 H 3903.19 1.85047 -6.24981 0
M  V30 38897 N 3906.62 1.37529 -0.769636 0
M  V30 38898 C 3908.03 1.53153 -0.449027 0
M  V30 38899 C 3908.23 1.72849 1.03565 0
M  V30 38900 O 3907.29 1.74864 1.8215 0
M  V30 38901 C 3908.6 2.72924 -1.26226 0
M  V30 38902 C 3910.15 2.86784 -1.25395 0
M  V30 38903 C 3910.63 4.09535 -2.05048 0
M  V30 38904 N 3912.12 4.16644 -2.02391 0
M  V30 38905 C 3912.85 5.10654 -2.60807 0
M  V30 38906 N 3912.35 6.10235 -3.28001 0
M  V30 38907 N 3914.14 5.03122 -2.50648 0
M  V30 38908 H 3906.29 1.22997 -1.73163 0
M  V30 38909 H 3908.56 0.598746 -0.734988 0
M  V30 38910 H 3908.26 2.64828 -2.31428 0
M  V30 38911 H 3908.14 3.6655 -0.890001 0
M  V30 38912 H 3910.52 2.94352 -0.20992 0
M  V30 38913 H 3910.6 1.94123 -1.66583 0
M  V30 38914 H 3910.25 4.02729 -3.09471 0
M  V30 38915 H 3910.18 5.01306 -1.61243 0
M  V30 38916 H 3912.67 3.45334 -1.5347 0
M  V30 38917 H 3912.98 6.78494 -3.69954 0
M  V30 38918 H 3911.33 6.1052 -3.321 0
M  V30 38919 H 3914.52 4.2427 -1.9777 0
M  V30 38920 H 3914.69 5.76204 -2.96468 0
M  V30 38921 N 3908.1 0.520003 1.48774 0
M  V30 38922 C 3909.51 0.0769953 1.86541 0
M  V30 38923 C 3909.86 -1.34275 1.43055 0
M  V30 38924 O 3908.98 -2.00392 0.816816 0
M  V30 38925 C 3909.58 0.132951 3.38539 0
M  V30 38926 C 3908.14 -0.254809 3.75537 0
M  V30 38927 C 3907.28 0.497136 2.72807 0
M  V30 38928 H 3910.24 0.73179 1.40821 0
M  V30 38929 H 3910.26 -0.657791 3.74771 0
M  V30 38930 H 3909.77 1.16637 3.70159 0
M  V30 38931 H 3907.87 -1.29075 3.49529 0
M  V30 38932 H 3907.98 0.0778589 4.79037 0
M  V30 38933 H 3906.35 -0.0553883 2.5464 0
M  V30 38934 H 3907.13 1.531 3.07271 0
M  V30 38935 N 3909.57 -1.55529 0.254676 0
M  V30 38936 C 3910.82 -1.98737 -0.36717 0
M  V30 38937 C 3911.14 -1.14427 -1.57897 0
M  V30 38938 O 3910.41 -0.228884 -1.94558 0
M  V30 38939 H 3908.99 -0.73402 -0.13865 0
M  V30 38940 H 3911.66 -1.91635 0.35527 0
M  V30 38941 H 3910.75 -3.04801 -0.671015 0
M  V30 38942 N 3911.05 0.0183372 -1.57589 0
M  V30 38943 C 3912.3 0.708022 -1.90039 0
M  V30 38944 C 3912.63 1.74429 -0.853716 0
M  V30 38945 O 3911.91 1.94066 0.129906 0
M  V30 38946 C 3912.19 1.36784 -3.3311 0
M  V30 38947 C 3912.04 0.344369 -4.4848 0
M  V30 38948 C 3913.36 2.29898 -3.7528 0
M  V30 38949 H 3910.48 0.255922 -0.691139 0
M  V30 38950 H 3913.12 -0.0291913 -1.89978 0
M  V30 38951 H 3911.27 1.9962 -3.33293 0
M  V30 38952 H 3912.94 -0.282897 -4.60432 0
M  V30 38953 H 3911.19 -0.335272 -4.32502 0
M  V30 38954 H 3911.86 0.844736 -5.45498 0
M  V30 38955 H 3914.33 1.77096 -3.76532 0
M  V30 38956 H 3913.21 2.7304 -4.76173 0
M  V30 38957 H 3913.47 3.17031 -3.0813 0
M  V30 38958 N 3912.53 1.54894 0.290797 0
M  V30 38959 C 3913.46 1.82936 1.38084 0
M  V30 38960 C 3914.48 0.712836 1.46364 0
M  V30 38961 O 3915.66 0.990458 1.485 0
M  V30 38962 C 3912.76 1.96144 2.7637 0
M  V30 38963 C 3911.94 3.26644 2.90899 0
M  V30 38964 C 3911 3.30141 4.09748 0
M  V30 38965 O 3910.02 4.03618 4.01349 0
M  V30 38966 N 3911.22 2.56263 5.20874 0
M  V30 38967 H 3913.99 2.77015 1.1438 0
M  V30 38968 H 3911.55 1.54593 0.480889 0
M  V30 38969 H 3913.54 1.95874 3.54141 0
M  V30 38970 H 3912.11 1.09013 2.92976 0
M  V30 38971 H 3911.33 3.39603 2.00158 0
M  V30 38972 H 3912.62 4.12743 2.97524 0
M  V30 38973 H 3912.02 1.96217 5.3058 0
M  V30 38974 H 3910.58 2.61735 5.9694 0
M  V30 38975 N 3914.01 -0.55448 1.47524 0
M  V30 38976 C 3914.92 -1.68867 1.62854 0
M  V30 38977 C 3915.93 -1.66317 0.511334 0
M  V30 38978 O 3917.11 -1.85715 0.779228 0
M  V30 38979 C 3914.18 -3.05369 1.64166 0
M  V30 38980 C 3913.24 -3.18965 2.87333 0
M  V30 38981 C 3912.47 -4.48955 2.88574 0
M  V30 38982 O 3912.69 -5.34581 1.98946 0
M  V30 38983 O 3911.63 -4.66399 3.80467 0
M  V30 38984 H 3915.45 -1.58875 2.58829 0
M  V30 38985 H 3913.04 -0.724799 1.30641 0
M  V30 38986 H 3914.92 -3.86597 1.67693 0
M  V30 38987 H 3913.59 -3.15737 0.713589 0
M  V30 38988 H 3912.5 -2.37124 2.89349 0
M  V30 38989 H 3913.83 -3.13502 3.79443 0
M  V30 38990 N 3915.49 -1.35701 -0.80143 0
M  V30 38991 C 3916.73 -1.30632 -1.57209 0
M  V30 38992 C 3917.09 0.116415 -1.91647 0
M  V30 38993 O 3918.29 0.291531 -2.67214 0
M  V30 38994 C 3916.56 -2.19221 -2.82271 0
M  V30 38995 S 3918.12 -2.31718 -3.72629 0
M  V30 38996 H 3914.94 -0.46417 -0.538579 0
M  V30 38997 H 3917.54 -1.71147 -0.944931 0
M  V30 38998 H 3916.25 -3.21561 -2.55003 0
M  V30 38999 H 3915.78 -1.79682 -3.49968 0
M  V30 39000 H 3917.79 -1.50581 -4.728 0
M  V30 39001 N 3916.96 1.02419 -1.19783 0
M  V30 39002 C 3918.19 1.79252 -1.02725 0
M  V30 39003 C 3918.6 1.8432 0.426937 0
M  V30 39004 O 3917.95 1.28955 1.30829 0
M  V30 39005 C 3918.01 3.25505 -1.526 0
M  V30 39006 C 3917.67 3.44061 -3.00784 0
M  V30 39007 C 3918.67 3.33898 -3.98508 0
M  V30 39008 C 3916.35 3.70124 -3.39579 0
M  V30 39009 C 3918.35 3.49529 -5.33018 0
M  V30 39010 C 3916.03 3.854 -4.74247 0
M  V30 39011 C 3917.03 3.75106 -5.70776 0
M  V30 39012 O 3916.72 3.89925 -7.03004 0
M  V30 39013 H 3916.45 0.570802 -0.362161 0
M  V30 39014 H 3919.01 1.29857 -1.59142 0
M  V30 39015 H 3917.24 3.75946 -0.905616 0
M  V30 39016 H 3918.93 3.83948 -1.31677 0
M  V30 39017 H 3919.69 3.13709 -3.69881 0
M  V30 39018 H 3915.57 3.77227 -2.64993 0
M  V30 39019 H 3919.11 3.41411 -6.08346 0
M  V30 39020 H 3915.01 4.05087 -5.02568 0
M  V30 39021 H 3915.78 4.06988 -7.10143 0
M  V30 39022 N 3918.44 1.0025 1.21604 0
M  V30 39023 C 3919.39 0.531863 2.2171 0
M  V30 39024 C 3920.38 -0.405174 1.55715 0
M  V30 39025 O 3921.57 -0.230431 1.75494 0
M  V30 39026 C 3918.7 -0.142626 3.43004 0
M  V30 39027 C 3917.78 0.815282 4.1619 0
M  V30 39028 N 3918.18 1.96708 4.65982 0
M  V30 39029 C 3916.47 0.633147 4.41483 0
M  V30 39030 C 3917.17 2.56911 5.21893 0
M  V30 39031 N 3916.15 1.85093 5.11118 0
M  V30 39032 H 3919.95 1.41017 2.57859 0
M  V30 39033 H 3917.47 0.866004 1.37383 0
M  V30 39034 H 3919.46 -0.497249 4.13924 0
M  V30 39035 H 3918.12 -1.01695 3.08364 0
M  V30 39036 H 3919.13 2.34754 4.61639 0
M  V30 39037 H 3915.81 -0.194308 4.17048 0
M  V30 39038 H 3917.2 3.54306 5.70891 0
M  V30 39039 N 3919.92 -1.37119 0.776919 0
M  V30 39040 C 3921.17 -1.9917 0.342911 0
M  V30 39041 C 3921.49 -1.61979 -1.08572 0
M  V30 39042 O 3920.76 -0.88772 -1.74632 0
M  V30 39043 H 3919.34 -0.73667 0.123801 0
M  V30 39044 H 3922 -1.67517 0.996192 0
M  V30 39045 H 3921.1 -3.09197 0.424691 0
M  V30 39046 N 3921.4 -0.527886 -1.48496 0
M  V30 39047 C 3922.35 0.249436 -2.31259 0
M  V30 39048 C 3923.34 0.937465 -1.41096 0
M  V30 39049 O 3924.55 0.862089 -1.58013 0
M  V30 39050 H 3920.92 0.0993077 -0.745414 0
M  V30 39051 H 3922.89 -0.468202 -2.94704 0
M  V30 39052 C 3921.64 1.28467 -3.23097 0
M  V30 39053 H 3920.97 0.764655 -3.9242 0
M  V30 39054 H 3922.41 1.80002 -3.83895 0
M  V30 39055 C 3920.86 2.31718 -2.44558 0
M  V30 39056 O 3921.39 3.38115 -2.16889 0
M  V30 39057 N 3919.6 2.04877 -2.06091 0
M  V30 39058 H 3919.15 1.1837 -2.28793 0
M  V30 39059 H 3919.11 2.74183 -1.53854 0
M  V30 39060 N 3922.88 1.55391 -0.26292 0
M  V30 39061 C 3924.13 1.98929 0.356625 0
M  V30 39062 C 3924.45 1.15262 1.57288 0
M  V30 39063 O 3923.72 0.239198 1.94434 0
M  V30 39064 H 3922.3 0.734745 0.134755 0
M  V30 39065 H 3924.96 1.91444 -0.365428 0
M  V30 39066 H 3924.05 3.05153 0.654841 0
M  V30 39067 N 3924.36 -0.00997961 1.57597 0
M  V30 39068 C 3925.29 -1.03256 2.04624 0
M  V30 39069 C 3926.3 -1.3131 0.962366 0
M  V30 39070 O 3927.49 -1.28462 1.23935 0
M  V30 39071 C 3924.59 -2.36972 2.42276 0
M  V30 39072 C 3923.76 -2.28001 3.73275 0
M  V30 39073 C 3922.82 -3.44323 3.97905 0
M  V30 39074 O 3921.85 -3.22958 4.68707 0
M  V30 39075 N 3923.05 -4.66839 3.45023 0
M  V30 39076 H 3925.81 -0.631589 2.92969 0
M  V30 39077 H 3923.38 -0.197562 1.6069 0
M  V30 39078 H 3925.37 -3.13545 2.55875 0
M  V30 39079 H 3923.94 -2.68846 1.59501 0
M  V30 39080 H 3923.16 -1.36404 3.69848 0
M  V30 39081 H 3924.45 -2.1917 4.59176 0
M  V30 39082 H 3923.84 -4.87096 2.87669 0
M  V30 39083 H 3922.4 -5.40712 3.6397 0
M  V30 39084 N 3925.83 -1.55046 -0.282578 0
M  V30 39085 C 3927.06 -1.79543 -1.03822 0
M  V30 39086 C 3927.48 -0.562196 -1.79502 0
M  V30 39087 O 3926.84 0.487915 -1.74611 0
M  V30 39088 C 3926.89 -3.01376 -1.98002 0
M  V30 39089 O 3925.99 -2.75791 -3.06616 0
M  V30 39090 H 3925.33 -0.593713 -0.297323 0
M  V30 39091 H 3927.86 -2.0217 -0.314398 0
M  V30 39092 H 3927.87 -3.29849 -2.40132 0
M  V30 39093 H 3926.55 -3.90788 -1.42328 0
M  V30 39094 H 3925.13 -2.58387 -2.68869 0
M  V30 39095 N 3927.31 0.546649 -1.47816 0
M  V30 39096 C 3928.54 1.32656 -1.58386 0
M  V30 39097 C 3928.95 1.8771 -0.236967 0
M  V30 39098 O 3928.29 1.66248 0.781492 0
M  V30 39099 C 3928.35 2.52629 -2.55771 0
M  V30 39100 C 3928.02 2.18784 -4.01226 0
M  V30 39101 C 3929.02 1.75447 -4.89402 0
M  V30 39102 C 3926.7 2.29819 -4.46641 0
M  V30 39103 C 3928.69 1.43587 -6.21017 0
M  V30 39104 C 3926.38 1.97571 -5.78281 0
M  V30 39105 C 3927.38 1.54524 -6.6529 0
M  V30 39106 O 3927.07 1.22692 -7.94482 0
M  V30 39107 H 3926.8 0.4103 -0.537243 0
M  V30 39108 H 3929.35 0.667954 -1.94236 0
M  V30 39109 H 3927.58 3.21416 -2.15009 0
M  V30 39110 H 3929.27 3.14702 -2.56354 0
M  V30 39111 H 3930.04 1.66405 -4.55559 0
M  V30 39112 H 3925.92 2.62283 -3.79116 0
M  V30 39113 H 3929.46 1.09914 -6.88887 0
M  V30 39114 H 3925.36 2.06248 -6.11663 0
M  V30 39115 H 3926.13 1.36232 -8.07083 0
M  V30 39116 N 3928.79 1.36124 0.794222 0
M  V30 39117 C 3930.21 1.16433 1.09158 0
M  V30 39118 C 3930.41 -0.0148443 2.01495 0
M  V30 39119 O 3929.46 -0.681687 2.43124 0
M  V30 39120 C 3930.77 2.47298 1.71067 0
M  V30 39121 C 3932.32 2.53618 1.83431 0
M  V30 39122 C 3932.8 3.84558 2.48755 0
M  V30 39123 N 3934.29 3.85878 2.56228 0
M  V30 39124 C 3935.02 4.8393 3.07571 0
M  V30 39125 N 3934.52 5.92374 3.59257 0
M  V30 39126 N 3936.31 4.71354 3.06238 0
M  V30 39127 H 3928.46 2.1163 0.180668 0
M  V30 39128 H 3930.73 0.93719 0.142758 0
M  V30 39129 H 3930.43 3.33828 1.10688 0
M  V30 39130 H 3930.31 2.62754 2.7063 0
M  V30 39131 H 3932.69 1.6751 2.4295 0
M  V30 39132 H 3932.77 2.42067 0.826877 0
M  V30 39133 H 3932.42 4.7107 1.89882 0
M  V30 39134 H 3932.35 3.93403 3.50059 0
M  V30 39135 H 3934.84 3.07529 2.19623 0
M  V30 39136 H 3935.15 6.63169 3.9677 0
M  V30 39137 H 3933.5 5.96049 3.57422 0
M  V30 39138 H 3936.69 3.85767 2.65144 0
M  V30 39139 H 3936.86 5.4793 3.45944 0
M  V30 39140 N 3930.27 -1.01782 1.20325 0
M  V30 39141 C 3931.52 -1.75015 1.01066 0
M  V30 39142 C 3931.84 -1.89535 -0.458425 0
M  V30 39143 O 3931.11 -1.43696 -1.33147 0
M  V30 39144 H 3929.69 -0.648376 0.370968 0
M  V30 39145 H 3932.35 -1.22719 1.51413 0
M  V30 39146 H 3931.44 -2.75422 1.46797 0
M  V30 39147 N 3931.75 -1.00894 -1.21071 0
M  V30 39148 C 3932.97 -0.712847 -1.94232 0
M  V30 39149 C 3933.39 0.725218 -1.74316 0
M  V30 39150 O 3932.75 1.49109 -1.05227 0
M  V30 39151 C 3932.8 -1.02937 -3.46535 0
M  V30 39152 O 3932.52 -2.41095 -3.65794 0
M  V30 39153 C 3934.02 -0.753243 -4.36854 0
M  V30 39154 H 3931.24 -0.262378 -0.617575 0
M  V30 39155 H 3933.78 -1.34805 -1.53779 0
M  V30 39156 H 3931.94 -0.439701 -3.84897 0
M  V30 39157 H 3932.35 -2.52262 -4.59852 0
M  V30 39158 H 3933.83 -1.02486 -5.42403 0
M  V30 39159 H 3934.3 0.312684 -4.38086 0
M  V30 39160 H 3934.91 -1.32471 -4.04143 0
M  V30 39161 N 3933.22 1.36705 -0.78418 0
M  V30 39162 C 3934.45 2.03343 -0.365407 0
M  V30 39163 C 3934.86 1.59267 1.0213 0
M  V30 39164 O 3934.21 0.775128 1.66546 0
M  V30 39165 C 3934.27 3.57852 -0.343882 0
M  V30 39166 C 3933.93 4.25108 -1.67728 0
M  V30 39167 C 3934.93 4.48362 -2.63186 0
M  V30 39168 C 3932.61 4.62688 -1.95513 0
M  V30 39169 C 3934.61 5.0827 -3.8463 0
M  V30 39170 C 3932.29 5.22314 -3.17224 0
M  V30 39171 C 3933.29 5.45044 -4.11601 0
M  V30 39172 O 3932.98 6.0342 -5.31168 0
M  V30 39173 H 3932.71 0.659291 -0.149371 0
M  V30 39174 H 3935.27 1.75771 -1.06273 0
M  V30 39175 H 3933.5 3.84521 0.409896 0
M  V30 39176 H 3935.19 4.0587 0.0495104 0
M  V30 39177 H 3935.95 4.1973 -2.43005 0
M  V30 39178 H 3931.83 4.44323 -1.22875 0
M  V30 39179 H 3935.37 5.25928 -4.58307 0
M  V30 39180 H 3931.27 5.50371 -3.37286 0
M  V30 39181 H 3932.04 6.2189 -5.3216 0
M  V30 39182 N 3934.7 0.535753 1.48214 0
M  V30 39183 C 3935.93 0.00592817 2.07399 0
M  V30 39184 C 3936.35 -1.26853 1.38888 0
M  V30 39185 O 3935.71 -1.75453 0.456715 0
M  V30 39186 C 3935.76 -0.195139 3.60072 0
M  V30 39187 O 3934.86 -1.26254 3.92598 0
M  V30 39188 H 3934.2 0.0417105 0.662689 0
M  V30 39189 H 3936.73 0.745315 1.90542 0
M  V30 39190 H 3936.74 -0.416014 4.05874 0
M  V30 39191 H 3935.42 0.735819 4.09339 0
M  V30 39192 H 3934 -1.02387 3.58568 0
M  V30 39193 N 3936.18 -1.5525 0.271158 0
M  V30 39194 C 3937.41 -2.03915 -0.350212 0
M  V30 39195 C 3937.82 -1.14966 -1.49761 0
M  V30 39196 O 3937.18 -0.168955 -1.81716 0
M  V30 39197 C 3937.23 -3.51724 -0.834995 0
M  V30 39198 O 3936.95 -4.37287 0.266702 0
M  V30 39199 C 3938.45 -4.16259 -1.52458 0
M  V30 39200 H 3935.67 -0.666168 -0.0803837 0
M  V30 39201 H 3938.22 -2.00508 0.402098 0
M  V30 39202 H 3936.37 -3.55588 -1.53741 0
M  V30 39203 H 3936.79 -5.24394 -0.105341 0
M  V30 39204 H 3938.26 -5.21299 -1.81525 0
M  V30 39205 H 3938.74 -3.64193 -2.45479 0
M  V30 39206 H 3939.34 -4.16387 -0.866126 0
M  V30 39207 N 3937.66 0.00162173 -1.576 0
M  V30 39208 C 3938.89 0.697838 -1.94776 0
M  V30 39209 C 3939.3 1.67398 -0.873124 0
M  V30 39210 O 3938.66 1.81898 0.148087 0
M  V30 39211 C 3938.71 1.43112 -3.31966 0
M  V30 39212 O 3938.43 0.494126 -4.35304 0
M  V30 39213 C 3939.93 2.22199 -3.83592 0
M  V30 39214 H 3937.15 0.194463 -0.642203 0
M  V30 39215 H 3939.7 -0.049016 -2.04441 0
M  V30 39216 H 3937.85 2.12962 -3.23614 0
M  V30 39217 H 3938.26 1.01131 -5.14658 0
M  V30 39218 H 3939.74 2.69006 -4.82016 0
M  V30 39219 H 3940.22 3.04804 -3.16213 0
M  V30 39220 H 3940.82 1.57369 -3.95114 0
M  V30 39221 N 3939.14 1.55194 0.274352 0
M  V30 39222 C 3940.38 1.75996 1.00762 0
M  V30 39223 C 3940.72 0.558712 1.85989 0
M  V30 39224 O 3939.99 -0.44375 1.8937 0
M  V30 39225 C 3940.27 3.06433 1.89131 0
M  V30 39226 C 3940.13 4.36911 1.06907 0
M  V30 39227 C 3941.45 3.32901 2.87863 0
M  V30 39228 H 3938.56 0.640324 0.364903 0
M  V30 39229 H 3941.21 1.87924 0.280123 0
M  V30 39230 H 3939.36 2.96396 2.51161 0
M  V30 39231 H 3941.03 4.58904 0.469585 0
M  V30 39232 H 3939.27 4.32198 0.37249 0
M  V30 39233 H 3939.94 5.24501 1.72054 0
M  V30 39234 H 3942.42 3.42722 2.35968 0
M  V30 39235 H 3941.29 4.25435 3.46837 0
M  V30 39236 H 3941.56 2.52475 3.62917 0
M  V30 39237 N 3940.61 -0.538802 1.48104 0
M  V30 39238 C 3941.84 -1.32005 1.59318 0
M  V30 39239 C 3942.26 -1.87136 0.25014 0
M  V30 39240 O 3941.61 -1.65953 -0.759329 0
M  V30 39241 C 3941.67 -2.4771 2.63291 0
M  V30 39242 O 3941.39 -1.94853 3.92382 0
M  V30 39243 C 3942.89 -3.39659 2.84862 0
M  V30 39244 H 3940.11 -0.401749 0.537437 0
M  V30 39245 H 3942.65 -0.650886 1.93865 0
M  V30 39246 H 3940.81 -3.10528 2.31627 0
M  V30 39247 H 3941.22 -2.70526 4.49351 0
M  V30 39248 H 3942.69 -4.17217 3.61434 0
M  V30 39249 H 3943.17 -3.94346 1.93359 0
M  V30 39250 H 3943.78 -2.82641 3.17796 0
M  V30 39251 N 3942.09 -1.36544 -0.786992 0
M  V30 39252 C 3943.34 -1.3065 -1.54192 0
M  V30 39253 C 3943.66 0.113161 -1.94671 0
M  V30 39254 O 3942.93 1.05394 -1.65133 0
M  V30 39255 H 3941.51 -0.480623 -0.571849 0
M  V30 39256 H 3944.17 -1.70867 -0.93758 0
M  V30 39257 H 3943.27 -1.93549 -2.44837 0
M  V30 39258 N 3943.57 1.01143 -1.20863 0
M  V30 39259 C 3944.99 1.27152 -0.964597 0
M  V30 39260 C 3945.19 1.98387 0.352827 0
M  V30 39261 O 3944.24 2.28233 1.08008 0
M  V30 39262 C 3945.56 2.10147 -2.15078 0
M  V30 39263 C 3947.1 2.23396 -2.19233 0
M  V30 39264 C 3947.58 3.09771 -3.37351 0
M  V30 39265 N 3949.07 3.17359 -3.37398 0
M  V30 39266 C 3949.8 3.84431 -4.25441 0
M  V30 39267 N 3949.3 4.53586 -5.23672 0
M  V30 39268 N 3951.09 3.81007 -4.13268 0
M  V30 39269 H 3943.24 0.53331 -2.05596 0
M  V30 39270 H 3945.51 0.298032 -0.899934 0
M  V30 39271 H 3945.21 1.65148 -3.10514 0
M  V30 39272 H 3945.09 3.10892 -2.13603 0
M  V30 39273 H 3947.47 2.67618 -1.24356 0
M  V30 39274 H 3947.56 1.22144 -2.24754 0
M  V30 39275 H 3947.2 2.66253 -4.32518 0
M  V30 39276 H 3947.13 4.11123 -3.29068 0
M  V30 39277 H 3949.62 2.68124 -2.66304 0
M  V30 39278 H 3949.93 5.02449 -5.87167 0
M  V30 39279 H 3948.28 4.52394 -5.27603 0
M  V30 39280 H 3951.47 3.26131 -3.35792 0
M  V30 39281 H 3951.64 4.33002 -4.82093 0
M  V30 39282 N 3945.05 1.01535 1.20534 0
M  V30 39283 C 3946.28 0.723138 1.93851 0
M  V30 39284 C 3946.69 -0.715964 1.74698 0
M  V30 39285 O 3946.05 -1.48549 1.06016 0
M  V30 39286 C 3946.1 1.04773 3.45984 0
M  V30 39287 O 3945.82 2.43031 3.6451 0
M  V30 39288 C 3947.32 0.7764 4.36448 0
M  V30 39289 H 3944.54 0.26565 0.616175 0
M  V30 39290 H 3947.09 1.35619 1.53061 0
M  V30 39291 H 3945.24 0.460107 3.84658 0
M  V30 39292 H 3945.65 2.54697 4.58508 0
M  V30 39293 H 3947.13 1.05361 5.41852 0
M  V30 39294 H 3947.61 -0.289447 4.38245 0
M  V30 39295 H 3948.21 1.34612 4.03435 0
M  V30 39296 N 3946.53 -1.36288 0.791419 0
M  V30 39297 C 3947.77 -2.0102 0.370169 0
M  V30 39298 C 3948.13 -1.61448 -1.03915 0
M  V30 39299 O 3949.33 -2.18787 -1.56159 0
M  V30 39300 C 3947.6 -3.53434 0.53093 0
M  V30 39301 S 3949.16 -4.38354 0.197855 0
M  V30 39302 H 3945.98 -0.696812 0.141327 0
M  V30 39303 H 3948.58 -1.66145 1.03035 0
M  V30 39304 H 3947.29 -3.79722 1.5569 0
M  V30 39305 H 3946.82 -3.93132 -0.145111 0
M  V30 39306 H 3948.83 -4.86022 -0.99987 0
M  V30 39307 N 3948.01 -0.543606 -1.47928 0
M  V30 39308 C 3948.94 0.248965 -2.27844 0
M  V30 39309 C 3949.95 0.891963 -1.36191 0
M  V30 39310 O 3951.14 0.768107 -1.61128 0
M  V30 39311 C 3948.24 1.36901 -3.10018 0
M  V30 39312 C 3947.41 0.825375 -4.29542 0
M  V30 39313 C 3946.47 1.82822 -4.93419 0
M  V30 39314 O 3945.5 1.37974 -5.52224 0
M  V30 39315 N 3946.7 3.16104 -4.86886 0
M  V30 39316 H 3949.46 -0.436488 -2.96504 0
M  V30 39317 H 3947.03 -0.378801 -1.57406 0
M  V30 39318 H 3949.02 2.03834 -3.49619 0
M  V30 39319 H 3947.59 1.95791 -2.43689 0
M  V30 39320 H 3946.81 -0.0203469 -3.94195 0
M  V30 39321 H 3948.1 0.441279 -5.06883 0
M  V30 39322 H 3947.49 3.55197 -4.40286 0
M  V30 39323 H 3946.05 3.78633 -5.30547 0
M  V30 39324 N 3949.48 1.55104 -0.279387 0
M  V30 39325 C 3950.45 2.21391 0.593175 0
M  V30 39326 C 3951.45 1.1931 1.07804 0
M  V30 39327 O 3952.64 1.44187 0.977534 0
M  V30 39328 C 3949.77 2.88324 1.81884 0
M  V30 39329 H 3950.96 2.99897 0.0143414 0
M  V30 39330 H 3948.51 1.56271 -0.0300358 0
M  V30 39331 H 3949.25 2.13842 2.43808 0
M  V30 39332 H 3949.03 3.63135 1.47904 0
M  V30 39333 H 3950.52 3.38956 2.43924 0
M  V30 39334 N 3950.96 0.0067362 1.57599 0
M  V30 39335 C 3952.21 -0.672031 1.91977 0
M  V30 39336 C 3952.56 -1.71006 0.88175 0
M  V30 39337 O 3951.86 -1.91311 -0.105192 0
M  V30 39338 C 3952.05 -1.35127 3.30871 0
M  V30 39339 C 3951.88 -0.380556 4.48087 0
M  V30 39340 C 3950.65 0.0114918 5.05299 0
M  V30 39341 C 3952.85 0.355993 5.13066 0
M  V30 39342 N 3950.83 0.979717 6.06032 0
M  V30 39343 C 3952.2 1.17868 6.08693 0
M  V30 39344 C 3954.25 0.419105 4.96133 0
M  V30 39345 C 3952.96 2.05874 6.89208 0
M  V30 39346 C 3954.98 1.28642 5.77239 0
M  V30 39347 C 3954.35 2.09694 6.72464 0
M  V30 39348 H 3950.44 -0.218909 0.750735 0
M  V30 39349 H 3953.03 0.0686647 1.94579 0
M  V30 39350 H 3951.2 -2.06222 3.2913 0
M  V30 39351 H 3952.93 -1.98527 3.5266 0
M  V30 39352 H 3949.69 -0.358294 4.72243 0
M  V30 39353 H 3950.11 1.4594 6.61083 0
M  V30 39354 H 3954.75 -0.193261 4.22358 0
M  V30 39355 H 3952.47 2.68176 7.62304 0
M  V30 39356 H 3956.06 1.33925 5.66176 0
M  V30 39357 H 3954.94 2.75721 7.34131 0
M  V30 39358 N 3952.44 -1.55337 -0.266118 0
M  V30 39359 C 3953.66 -1.80634 -1.01911 0
M  V30 39360 C 3954.09 -0.581203 -1.78896 0
M  V30 39361 O 3953.45 0.469368 -1.75119 0
M  V30 39362 C 3953.5 -3.03459 -1.94795 0
M  V30 39363 O 3952.6 -2.79027 -3.03673 0
M  V30 39364 H 3951.94 -0.596833 -0.291009 0
M  V30 39365 H 3954.47 -2.02492 -0.292937 0
M  V30 39366 H 3954.48 -3.32378 -2.3662 0
M  V30 39367 H 3953.16 -3.92276 -1.38175 0
M  V30 39368 H 3951.73 -2.61224 -2.66113 0
M  V30 39369 N 3953.92 0.53094 -1.48387 0
M  V30 39370 C 3955.14 1.31636 -1.60271 0
M  V30 39371 C 3955.57 1.86255 -0.262822 0
M  V30 39372 O 3954.93 1.64353 0.76536 0
M  V30 39373 C 3954.97 2.44374 -2.65167 0
M  V30 39374 O 3954.08 3.47382 -2.22261 0
M  V30 39375 H 3953.42 0.38991 -0.537462 0
M  V30 39376 H 3955.95 0.638966 -1.94367 0
M  V30 39377 H 3955.96 2.90574 -2.86411 0
M  V30 39378 H 3954.63 2.03981 -3.62443 0
M  V30 39379 H 3953.21 3.07307 -2.11227 0
M  V30 39380 N 3955.4 1.36959 0.779739 0
M  V30 39381 C 3956.33 1.26438 1.8997 0
M  V30 39382 C 3957.31 0.14653 1.61938 0
M  V30 39383 O 3958.49 0.319354 1.85775 0
M  V30 39384 C 3955.62 0.953059 3.25015 0
M  V30 39385 C 3954.66 2.08669 3.71967 0
M  V30 39386 S 3955.5 3.7056 3.86582 0
M  V30 39387 C 3956.65 3.41562 5.24487 0
M  V30 39388 H 3956.89 2.21231 1.98605 0
M  V30 39389 H 3954.42 1.22488 0.939999 0
M  V30 39390 H 3956.38 0.780262 4.03016 0
M  V30 39391 H 3955.04 0.0227393 3.14092 0
M  V30 39392 H 3954.23 1.82367 4.69849 0
M  V30 39393 H 3953.83 2.21921 3.01044 0
M  V30 39394 H 3956.12 2.96055 6.09391 0
M  V30 39395 H 3957.07 4.38742 5.55797 0
M  V30 39396 H 3957.48 2.76679 4.92046 0
M  V30 39397 N 3956.87 -1.00501 1.21398 0
M  V30 39398 C 3958.1 -1.77853 1.05717 0
M  V30 39399 C 3958.52 -1.84664 -0.393026 0
M  V30 39400 O 3957.87 -1.30802 -1.27268 0
M  V30 39401 C 3957.92 -3.21761 1.6478 0
M  V30 39402 O 3957.65 -3.1534 3.04125 0
M  V30 39403 C 3959.15 -4.15613 1.5421 0
M  V30 39404 H 3956.37 -0.55894 0.37125 0
M  V30 39405 H 3958.91 -1.2643 1.60735 0
M  V30 39406 H 3957.07 -3.70292 1.13854 0
M  V30 39407 H 3957.48 -4.05752 3.32363 0
M  V30 39408 H 3958.95 -5.14386 2.00278 0
M  V30 39409 H 3959.43 -4.36384 0.496532 0
M  V30 39410 H 3960.04 -3.72971 2.04383 0
M  V30 39411 N 3958.35 -1.02172 -1.19994 0
M  V30 39412 C 3959.76 -0.744807 -1.712 0
M  V30 39413 C 3960.11 0.736207 -1.81864 0
M  V30 39414 O 3959.24 1.57428 -1.48477 0
M  V30 39415 C 3959.83 -1.34537 -3.10943 0
M  V30 39416 C 3958.39 -1.1172 -3.59438 0
M  V30 39417 C 3957.54 -1.44788 -2.36499 0
M  V30 39418 H 3960.49 -1.19055 -1.04936 0
M  V30 39419 H 3960.51 -0.738596 -3.73263 0
M  V30 39420 H 3960.02 -2.42326 -3.03149 0
M  V30 39421 H 3958.12 -0.0572001 -3.72556 0
M  V30 39422 H 3958.24 -1.80087 -4.43966 0
M  V30 39423 H 3956.6 -0.867023 -2.39489 0
M  V30 39424 H 3957.38 -2.53645 -2.31342 0
M  V30 39425 N 3959.83 1.35866 -0.798635 0
M  V30 39426 C 3960.78 2.27317 -0.176315 0
M  V30 39427 C 3961.76 1.47398 0.645184 0
M  V30 39428 O 3962.96 1.6968 0.503746 0
M  V30 39429 C 3960.08 3.36485 0.680657 0
M  V30 39430 C 3959.17 4.23834 -0.150136 0
M  V30 39431 N 3959.56 4.91133 -1.20922 0
M  V30 39432 C 3957.86 4.45946 0.0695351 0
M  V30 39433 C 3958.56 5.55821 -1.71575 0
M  V30 39434 N 3957.54 5.33878 -1.02348 0
M  V30 39435 H 3961.34 2.76839 -0.986789 0
M  V30 39436 H 3958.85 1.493 -0.639004 0
M  V30 39437 H 3960.85 4.0094 1.14247 0
M  V30 39438 H 3959.51 2.88517 1.48957 0
M  V30 39439 H 3960.52 4.92832 -1.59177 0
M  V30 39440 H 3957.2 4.08793 0.848223 0
M  V30 39441 H 3958.59 6.19537 -2.60046 0
M  V30 39442 N 3961.31 0.551443 1.47638 0
M  V30 39443 C 3962.53 0.0279253 2.07381 0
M  V30 39444 C 3962.96 -1.25373 1.40226 0
M  V30 39445 O 3962.32 -1.74959 0.475299 0
M  V30 39446 C 3962.36 -0.156938 3.60258 0
M  V30 39447 O 3961.47 -1.22083 3.93915 0
M  V30 39448 H 3960.81 0.0487368 0.662209 0
M  V30 39449 H 3963.34 0.765482 1.89741 0
M  V30 39450 H 3963.35 -0.372942 4.06292 0
M  V30 39451 H 3962.02 0.779194 4.08536 0
M  V30 39452 H 3960.6 -0.98578 3.59634 0
M  V30 39453 N 3962.79 -1.54953 0.287609 0
M  V30 39454 C 3963.74 -2.19711 -0.6092 0
M  V30 39455 C 3964.72 -1.16573 -1.10903 0
M  V30 39456 O 3965.91 -1.42342 -1.05203 0
M  V30 39457 C 3963.04 -2.93123 -1.787 0
M  V30 39458 C 3962.13 -4.03563 -1.30376 0
M  V30 39459 N 3962.52 -5.02935 -0.537553 0
M  V30 39460 C 3960.82 -4.16861 -1.58565 0
M  V30 39461 C 3961.52 -5.81017 -0.281891 0
M  V30 39462 N 3960.49 -5.36788 -0.857889 0
M  V30 39463 H 3964.3 -2.93896 -0.0161021 0
M  V30 39464 H 3961.81 -1.62141 0.0917416 0
M  V30 39465 H 3963.81 -3.37974 -2.44089 0
M  V30 39466 H 3962.47 -2.20452 -2.38393 0
M  V30 39467 H 3963.48 -5.17574 -0.183706 0
M  V30 39468 H 3960.15 -3.55387 -2.19104 0
M  V30 39469 H 3961.54 -6.71076 0.332597 0
M  V30 39470 N 3964.26 -0.0150939 -1.57593 0
M  V30 39471 C 3965.49 0.680736 -1.9591 0
M  V30 39472 C 3965.91 1.65667 -0.890842 0
M  V30 39473 O 3965.27 1.80681 0.149631 0
M  V30 39474 C 3965.32 1.3757 -3.33327 0
M  V30 39475 O 3964.42 2.49061 -3.28698 0
M  V30 39476 H 3963.77 0.179938 -0.639154 0
M  V30 39477 H 3966.3 -0.0727763 -2.04471 0
M  V30 39478 H 3966.31 1.7357 -3.69239 0
M  V30 39479 H 3964.98 0.660233 -4.10626 0
M  V30 39480 H 3963.56 2.15276 -3.04484 0
M  V30 39481 N 3965.74 1.55476 0.257876 0
M  V30 39482 C 3967.16 1.47654 0.605845 0
M  V30 39483 C 3967.36 0.703096 1.88835 0
M  V30 39484 O 3966.41 0.228025 2.51468 0
M  V30 39485 C 3967.73 2.91983 0.718761 0
M  V30 39486 C 3969.28 3.02289 0.811817 0
M  V30 39487 C 3969.75 4.47903 0.956386 0
M  V30 39488 N 3971.24 4.51795 1.02153 0
M  V30 39489 C 3971.98 5.61699 1.15246 0
M  V30 39490 N 3971.47 6.81437 1.24963 0
M  V30 39491 N 3973.27 5.49472 1.18476 0
M  V30 39492 H 3965.42 2.04208 -0.58419 0
M  V30 39493 H 3967.68 0.92665 -0.200061 0
M  V30 39494 H 3967.39 3.51365 -0.153412 0
M  V30 39495 H 3967.26 3.41854 1.59423 0
M  V30 39496 H 3969.65 2.42994 1.67445 0
M  V30 39497 H 3969.73 2.55647 -0.0885757 0
M  V30 39498 H 3969.37 5.07805 0.0983545 0
M  V30 39499 H 3969.3 4.92216 1.87166 0
M  V30 39500 H 3971.79 3.65549 0.95823 0
M  V30 39501 H 3972.11 7.60947 1.34829 0
M  V30 39502 H 3970.45 6.84219 1.2194 0
M  V30 39503 H 3973.64 4.54864 1.10526 0
M  V30 39504 H 3973.81 6.35165 1.28335 0
M  V30 39505 N 3967.22 -0.523064 1.48667 0
M  V30 39506 C 3968.45 -1.30308 1.60709 0
M  V30 39507 C 3968.86 -1.8686 0.269974 0
M  V30 39508 O 3968.22 -1.66749 -0.741685 0
M  V30 39509 C 3968.27 -2.44903 2.65903 0
M  V30 39510 O 3967.99 -1.90681 3.94427 0
M  V30 39511 C 3969.49 -3.36619 2.88449 0
M  V30 39512 H 3966.71 -0.396026 0.541668 0
M  V30 39513 H 3969.26 -0.630287 1.94545 0
M  V30 39514 H 3967.41 -3.08054 2.34907 0
M  V30 39515 H 3967.83 -2.65745 4.52195 0
M  V30 39516 H 3969.3 -4.1336 3.65839 0
M  V30 39517 H 3969.78 -3.92273 1.97531 0
M  V30 39518 H 3970.38 -2.79254 3.20776 0
M  V30 39519 N 3968.7 -1.37371 -0.772465 0
M  V30 39520 C 3970.11 -1.291 -1.3487 0
M  V30 39521 C 3970.46 0.0617088 -1.96103 0
M  V30 39522 O 3969.59 0.963528 -1.93766 0
M  V30 39523 C 3970.18 -2.33785 -2.45214 0
M  V30 39524 C 3968.74 -2.29151 -2.98608 0
M  V30 39525 C 3967.89 -2.17654 -1.7182 0
M  V30 39526 H 3970.84 -1.48003 -0.572779 0
M  V30 39527 H 3970.86 -1.9841 -3.24675 0
M  V30 39528 H 3970.37 -3.32226 -2.00618 0
M  V30 39529 H 3968.47 -1.34232 -3.47581 0
M  V30 39530 H 3968.58 -3.22535 -3.54271 0
M  V30 39531 H 3966.95 -1.64188 -1.94716 0
M  V30 39532 H 3967.73 -3.18008 -1.29328 0
M  V30 39533 N 3970.18 0.998553 -1.21929 0
M  V30 39534 C 3971.09 2.12195 -1.00053 0
M  V30 39535 C 3972.1 1.7393 0.0494108 0
M  V30 39536 O 3973.28 2.00898 -0.142069 0
M  V30 39537 C 3970.34 3.419 -0.574931 0
M  V30 39538 C 3969.4 3.943 -1.69783 0
M  V30 39539 C 3968.64 5.17814 -1.29245 0
M  V30 39540 O 3968.86 5.7015 -0.168809 0
M  V30 39541 O 3967.79 5.63824 -2.10681 0
M  V30 39542 H 3971.62 2.3353 -1.94158 0
M  V30 39543 H 3969.21 1.10569 -1.00473 0
M  V30 39544 H 3971.09 4.19963 -0.347677 0
M  V30 39545 H 3969.76 3.21938 0.337332 0
M  V30 39546 H 3968.67 3.17434 -1.97955 0
M  V30 39547 H 3970 4.18684 -2.58775 0
M  V30 39548 N 3971.65 1.02807 1.1945 0
M  V30 39549 C 3972.88 0.742579 1.92793 0
M  V30 39550 C 3973.29 -0.702387 1.75679 0
M  V30 39551 O 3972.64 -1.48925 1.0755 0
M  V30 39552 C 3972.7 1.01302 3.44932 0
M  V30 39553 C 3972.36 2.44938 3.85817 0
M  V30 39554 C 3973.36 3.4307 3.90639 0
M  V30 39555 C 3971.04 2.79316 4.17478 0
M  V30 39556 C 3973.04 4.73637 4.26552 0
M  V30 39557 C 3970.72 4.10093 4.53064 0
M  V30 39558 C 3971.72 5.07064 4.57576 0
M  V30 39559 O 3971.41 6.35498 4.92339 0
M  V30 39560 H 3971.14 0.271105 0.619256 0
M  V30 39561 H 3973.7 1.37534 1.52557 0
M  V30 39562 H 3971.93 0.323119 3.85348 0
M  V30 39563 H 3973.62 0.717316 3.99511 0
M  V30 39564 H 3974.38 3.17848 3.6633 0
M  V30 39565 H 3970.26 2.04518 4.13151 0
M  V30 39566 H 3973.8 5.49323 4.29989 0
M  V30 39567 H 3969.7 4.35089 4.76831 0
M  V30 39568 H 3970.47 6.39958 5.1029 0
M  V30 39569 N 3973.13 -1.35441 0.805829 0
M  V30 39570 C 3974.36 -2.02736 0.39771 0
M  V30 39571 C 3974.77 -1.60872 -0.995832 0
M  V30 39572 O 3974.11 -0.801525 -1.65291 0
M  V30 39573 C 3974.18 -3.57259 0.400769 0
M  V30 39574 C 3973.84 -4.22385 1.74469 0
M  V30 39575 C 3974.84 -4.44119 2.70286 0
M  V30 39576 C 3972.52 -4.59519 2.02849 0
M  V30 39577 C 3974.52 -5.02087 3.92667 0
M  V30 39578 C 3972.2 -5.17201 3.25494 0
M  V30 39579 C 3973.2 -5.38427 4.2022 0
M  V30 39580 O 3972.89 -5.94894 5.407 0
M  V30 39581 H 3972.62 -0.656831 0.159841 0
M  V30 39582 H 3975.17 -1.74058 1.09055 0
M  V30 39583 H 3973.4 -3.85125 -0.34867 0
M  V30 39584 H 3975.09 -4.05897 0.0150662 0
M  V30 39585 H 3975.86 -4.15811 2.49652 0
M  V30 39586 H 3971.74 -4.42312 1.29928 0
M  V30 39587 H 3975.28 -5.1857 4.66616 0
M  V30 39588 H 3971.18 -5.44936 3.45999 0
M  V30 39589 H 3971.95 -6.13345 5.41987 0
M  V30 39590 N 3974.61 -0.559265 -1.47343 0
M  V30 39591 C 3976.02 -0.126426 -1.86271 0
M  V30 39592 C 3976.37 1.30435 -1.46565 0
M  V30 39593 O 3975.5 1.98156 -0.869659 0
M  V30 39594 C 3976.09 -0.222662 -3.38068 0
M  V30 39595 C 3974.65 0.155153 -3.7608 0
M  V30 39596 C 3973.8 -0.569291 -2.71393 0
M  V30 39597 H 3976.75 -0.768869 -1.38831 0
M  V30 39598 H 3976.77 0.558195 -3.76383 0
M  V30 39599 H 3976.28 -1.2641 -3.66936 0
M  V30 39600 H 3974.38 1.19762 -3.52828 0
M  V30 39601 H 3974.5 -0.20484 -4.78662 0
M  V30 39602 H 3972.86 -0.0121444 -2.54697 0
M  V30 39603 H 3973.64 -1.61193 -3.03104 0
M  V30 39604 N 3976.09 1.54799 -0.295822 0
M  V30 39605 C 3977.04 2.24772 0.598364 0
M  V30 39606 C 3978.03 1.25191 1.14121 0
M  V30 39607 O 3979.24 1.43058 1.09245 0
M  V30 39608 H 3975.61 0.721628 0.211557 0
M  V30 39609 H 3977.58 2.98397 -0.0143961 0
M  V30 39610 C 3976.33 2.99791 1.76126 0
M  V30 39611 H 3975.65 3.76218 1.35277 0
M  V30 39612 H 3977.09 3.52041 2.36311 0
M  V30 39613 C 3975.55 2.06458 2.66227 0
M  V30 39614 O 3976.08 1.62924 3.67176 0
M  V30 39615 N 3974.29 1.72523 2.33847 0
M  V30 39616 H 3973.84 2.08121 1.518 0
M  V30 39617 H 3973.79 1.10349 2.94398 0
M  V30 39618 N 3977.57 0.0234513 1.57583 0
M  V30 39619 C 3978.53 -0.945288 2.08799 0
M  V30 39620 C 3979.53 -1.25771 1.00192 0
M  V30 39621 O 3980.72 -1.19899 1.26372 0
M  V30 39622 C 3977.85 -2.26348 2.5491 0
M  V30 39623 H 3979.05 -0.501818 2.95672 0
M  V30 39624 H 3976.6 -0.224479 1.5468 0
M  V30 39625 H 3977.33 -2.75336 1.7135 0
M  V30 39626 H 3977.12 -2.04986 3.3425 0
M  V30 39627 H 3978.61 -2.95796 2.94779 0
M  V30 39628 N 3979.05 -1.5561 -0.249627 0
M  V30 39629 C 3980.29 -1.76964 -0.976117 0
M  V30 39630 C 3980.61 -0.586936 -1.85957 0
M  V30 39631 O 3979.88 0.397381 -1.91827 0
M  V30 39632 H 3978.46 -0.652645 -0.363405 0
M  V30 39633 H 3981.13 -1.93045 -0.268231 0
M  V30 39634 H 3980.22 -2.68001 -1.59943 0
M  V30 39635 N 3980.52 0.515172 -1.48942 0
M  V30 39636 C 3981.45 1.62716 -1.67468 0
M  V30 39637 C 3982.43 1.61847 -0.523422 0
M  V30 39638 O 3983.62 1.7881 -0.757663 0
M  V30 39639 C 3980.75 3.01257 -1.72804 0
M  V30 39640 C 3979.7 3.16989 -2.87579 0
M  V30 39641 C 3979.03 4.5674 -2.78016 0
M  V30 39642 C 3980.33 2.98355 -4.28698 0
M  V30 39643 H 3982.02 1.47467 -2.60565 0
M  V30 39644 H 3979.57 0.708005 -1.25393 0
M  V30 39645 H 3981.52 3.78936 -1.84352 0
M  V30 39646 H 3980.25 3.17563 -0.762973 0
M  V30 39647 H 3978.91 2.41732 -2.7561 0
M  V30 39648 H 3978.55 4.69902 -1.79447 0
M  V30 39649 H 3978.25 4.68209 -3.55041 0
M  V30 39650 H 3979.78 5.36498 -2.91552 0
M  V30 39651 H 3981.19 3.65813 -4.41422 0
M  V30 39652 H 3979.59 3.21306 -5.06836 0
M  V30 39653 H 3980.66 1.94622 -4.44129 0
M  V30 39654 N 3982 1.37779 0.765169 0
M  V30 39655 C 3983.25 1.32671 1.51925 0
M  V30 39656 C 3983.56 -0.0843828 1.95418 0
M  V30 39657 O 3984.77 -0.257953 2.70272 0
M  V30 39658 C 3983.23 2.32911 2.74373 0
M  V30 39659 C 3982.83 3.79582 2.37953 0
M  V30 39660 C 3984.58 2.36826 3.52298 0
M  V30 39661 C 3982.48 4.71537 3.56941 0
M  V30 39662 H 3981.41 0.493108 0.570404 0
M  V30 39663 H 3984.07 1.63273 0.837503 0
M  V30 39664 H 3982.45 1.95335 3.44471 0
M  V30 39665 H 3983.62 4.26031 1.75596 0
M  V30 39666 H 3981.94 3.78675 1.73188 0
M  V30 39667 H 3984.53 3.02729 4.40749 0
M  V30 39668 H 3984.88 1.38378 3.92629 0
M  V30 39669 H 3985.41 2.73142 2.89203 0
M  V30 39670 H 3982.15 5.71137 3.21687 0
M  V30 39671 H 3981.67 4.29788 4.18381 0
M  V30 39672 H 3983.35 4.8899 4.23671 0
M  V30 39673 N 3983.48 -0.992073 1.22457 0
M  V30 39674 C 3984.41 -2.08002 0.938634 0
M  V30 39675 C 3985.39 -1.62166 -0.118751 0
M  V30 39676 O 3986.57 -1.88496 0.013011 0
M  V30 39677 C 3983.7 -3.36187 0.411862 0
M  V30 39678 C 3982.75 -4.00948 1.45405 0
M  V30 39679 S 3983.58 -4.41694 3.02765 0
M  V30 39680 C 3984.74 -5.73048 2.51728 0
M  V30 39681 H 3984.97 -2.31936 1.85991 0
M  V30 39682 H 3982.5 -1.12667 1.05572 0
M  V30 39683 H 3984.46 -4.1034 0.114525 0
M  V30 39684 H 3983.12 -3.10281 -0.488314 0
M  V30 39685 H 3982.31 -4.93251 1.03536 0
M  V30 39686 H 3981.92 -3.33124 1.70014 0
M  V30 39687 H 3984.21 -6.49422 1.9302 0
M  V30 39688 H 3985.15 -6.19744 3.42524 0
M  V30 39689 H 3985.56 -5.30488 1.92984 0
M  V30 39690 N 3984.96 -1.03439 -1.18904 0
M  V30 39691 C 3985.91 -0.613597 -2.24361 0
M  V30 39692 C 3986.9 0.356512 -1.65606 0
M  V30 39693 O 3988.11 0.224488 -1.78595 0
M  V30 39694 H 3984.48 -0.180183 -0.730095 0
M  V30 39695 H 3986.45 -1.51355 -2.57166 0
M  V30 39696 C 3985.2 0.0140514 -3.47697 0
M  V30 39697 H 3984.52 -0.723463 -3.932 0
M  V30 39698 H 3985.96 0.271349 -4.23131 0
M  V30 39699 C 3984.42 1.26226 -3.1236 0
M  V30 39700 O 3984.95 2.35373 -3.25519 0
M  V30 39701 N 3983.16 1.15314 -2.66742 0
M  V30 39702 H 3982.71 0.264965 -2.56234 0
M  V30 39703 H 3982.66 1.98922 -2.43469 0
M  V30 39704 N 3986.44 1.35011 -0.813001 0
M  V30 39705 C 3987.67 2.02522 -0.408456 0
M  V30 39706 C 3988.07 1.61398 0.987286 0
M  V30 39707 O 3987.42 0.81028 1.64864 0
M  V30 39708 C 3987.48 3.57042 -0.41971 0
M  V30 39709 C 3987.14 4.21454 -1.76707 0
M  V30 39710 C 3988.14 4.42679 -2.72638 0
M  V30 39711 C 3985.82 4.58436 -2.05284 0
M  V30 39712 C 3987.82 4.99998 -3.95324 0
M  V30 39713 C 3985.51 5.15468 -3.28232 0
M  V30 39714 C 3986.5 5.36191 -4.2307 0
M  V30 39715 O 3986.19 5.92018 -5.43848 0
M  V30 39716 H 3985.92 0.655974 -0.163322 0
M  V30 39717 H 3988.48 1.73477 -1.09977 0
M  V30 39718 H 3986.71 3.85304 0.328241 0
M  V30 39719 H 3988.4 4.05884 -0.0365917 0
M  V30 39720 H 3989.16 4.14481 -2.51854 0
M  V30 39721 H 3985.04 4.41616 -1.32272 0
M  V30 39722 H 3988.59 5.16088 -4.6936 0
M  V30 39723 H 3984.48 5.43093 -3.48884 0
M  V30 39724 H 3985.25 6.10463 -5.45232 0
M  V30 39725 N 3987.91 0.567071 1.47044 0
M  V30 39726 C 3989.15 0.0491972 2.04341 0
M  V30 39727 C 3989.52 -1.28029 1.43083 0
M  V30 39728 O 3990.72 -1.88645 1.91485 0
M  V30 39729 C 3988.99 -0.0319104 3.57386 0
M  V30 39730 S 3990.55 -0.494478 4.36005 0
M  V30 39731 H 3987.37 0.0299039 0.710371 0
M  V30 39732 H 3989.97 0.756036 1.8029 0
M  V30 39733 H 3988.67 0.9399 3.99492 0
M  V30 39734 H 3988.2 -0.762002 3.8595 0
M  V30 39735 H 3990.22 -1.7523 4.64229 0
M  V30 39736 N 3989.39 -1.5464 0.304027 0
M  V30 39737 C 3990.81 -1.59524 -0.0492643 0
M  V30 39738 C 3991.01 -1.32095 -1.52161 0
M  V30 39739 O 3990.06 -1.09584 -2.27481 0
M  V30 39740 C 3991.38 -2.9864 0.351398 0
M  V30 39741 C 3992.92 -3.11555 0.300417 0
M  V30 39742 C 3993.4 -4.52985 0.675947 0
M  V30 39743 N 3994.89 -4.58915 0.628598 0
M  V30 39744 C 3995.63 -5.66426 0.891604 0
M  V30 39745 N 3995.12 -6.8196 1.22073 0
M  V30 39746 N 3996.91 -5.56109 0.818464 0
M  V30 39747 H 3989.07 -1.70729 1.26354 0
M  V30 39748 H 3991.33 -0.797545 0.512471 0
M  V30 39749 H 3991.03 -3.23645 1.37647 0
M  V30 39750 H 3990.91 -3.76057 -0.293437 0
M  V30 39751 H 3993.3 -2.86297 -0.715418 0
M  V30 39752 H 3993.38 -2.36286 0.979917 0
M  V30 39753 H 3993.02 -4.78973 1.6896 0
M  V30 39754 H 3992.95 -5.26594 -0.0256573 0
M  V30 39755 H 3995.44 -3.75931 0.38527 0
M  V30 39756 H 3995.75 -7.59878 1.40731 0
M  V30 39757 H 3994.1 -6.83505 1.2588 0
M  V30 39758 H 3997.29 -4.64727 0.560966 0
M  V30 39759 H 3997.46 -6.39813 1.0268 0
M  V30 39760 N 3990.87 -0.0318079 -1.57568 0
M  V30 39761 C 3991.82 0.967137 -2.1154 0
M  V30 39762 C 3992.81 1.33515 -1.0426 0
M  V30 39763 O 3994.02 1.31706 -1.22692 0
M  V30 39764 H 3990.39 0.329676 -0.675883 0
M  V30 39765 H 3992.36 0.486643 -2.94405 0
M  V30 39766 C 3991.11 2.23946 -2.65977 0
M  V30 39767 H 3990.44 1.96503 -3.48176 0
M  V30 39768 H 3991.88 2.92046 -3.07384 0
M  V30 39769 C 3990.33 2.97102 -1.58845 0
M  V30 39770 O 3990.86 3.89313 -0.989853 0
M  V30 39771 N 3989.07 2.59486 -1.30826 0
M  V30 39772 H 3988.62 1.84578 -1.7969 0
M  V30 39773 H 3988.58 3.08743 -0.593712 0
M  V30 39774 N 3992.35 1.55741 0.241371 0
M  V30 39775 C 3993.76 1.68214 0.809995 0
M  V30 39776 C 3994.11 0.630269 1.85801 0
M  V30 39777 O 3993.24 -0.222419 2.15254 0
M  V30 39778 C 3993.83 3.04959 1.47598 0
M  V30 39779 C 3992.39 3.19354 1.99224 0
M  V30 39780 C 3991.54 2.64102 0.845293 0
M  V30 39781 H 3994.49 1.58691 0.0170752 0
M  V30 39782 H 3994.51 2.99713 2.34419 0
M  V30 39783 H 3994.02 3.81495 0.712979 0
M  V30 39784 H 3992.12 2.47652 2.78387 0
M  V30 39785 H 3992.23 4.26332 2.18582 0
M  V30 39786 H 3990.6 2.22069 1.2473 0
M  V30 39787 H 3991.38 3.43168 0.0952865 0
M  V30 39788 N 3993.83 -0.507266 1.49213 0
M  V30 39789 C 3995.1 -1.2686 1.48882 0
M  V30 39790 C 3995.48 -2.10022 0.213044 0
M  V30 39791 O 3994.83 -2.1386 -0.804748 0
M  V30 39792 C 3995.04 -2.13068 2.76411 0
M  V30 39793 C 3996.39 -2.72463 3.25652 0
M  V30 39794 O 3997.41 -2.23339 2.77485 0
M  V30 39795 O 3996.27 -3.61873 4.09525 0
M  V30 39796 H 3993.37 -0.573743 0.595607 0
M  V30 39797 H 3995.91 -0.522051 1.6147 0
M  V30 39798 H 3994.68 -1.51551 3.6076 0
M  V30 39799 H 3994.31 -2.94927 2.66653 0
M  V30 39800 N 3995.3 -1.38182 -0.757851 0
M  V30 39801 C 3996.27 -1.34874 -1.85315 0
M  V30 39802 C 3997.27 -0.250069 -1.58844 0
M  V30 39803 O 3998.46 -0.506718 -1.66667 0
M  V30 39804 C 3995.59 -1.09869 -3.2271 0
M  V30 39805 H 3996.78 -2.32315 -1.89657 0
M  V30 39806 H 3994.34 -1.23414 -0.9591 0
M  V30 39807 H 3995.07 -0.130169 -3.24039 0
M  V30 39808 H 3994.86 -1.89409 -3.43317 0
M  V30 39809 H 3996.35 -1.10239 -4.02787 0
M  V30 39810 N 3996.78 0.985565 -1.22981 0
M  V30 39811 C 3998.03 1.7287 -1.06037 0
M  V30 39812 C 3998.36 1.89982 0.402539 0
M  V30 39813 O 3997.64 1.44833 1.29821 0
M  V30 39814 C 3997.92 3.13 -1.78053 0
M  V30 39815 C 3997.77 3.03491 -3.31984 0
M  V30 39816 C 3999.09 4.1232 -1.53884 0
M  V30 39817 H 3996.21 0.627459 -0.386605 0
M  V30 39818 H 3998.85 1.14772 -1.51418 0
M  V30 39819 H 3997 3.626 -1.39475 0
M  V30 39820 H 3998.67 2.61455 -3.80051 0
M  V30 39821 H 3996.92 2.40119 -3.61283 0
M  V30 39822 H 3997.59 4.02684 -3.77557 0
M  V30 39823 H 4000.06 3.71507 -1.87409 0
M  V30 39824 H 3998.94 5.08471 -2.06758 0
M  V30 39825 H 3999.2 4.39562 -0.473049 0
M  V30 39826 N 3998.26 1.04068 1.18353 0
M  V30 39827 C 3999.22 0.636187 2.20194 0
M  V30 39828 C 4000.22 -0.306429 1.57853 0
M  V30 39829 O 4001.41 -0.091827 1.73958 0
M  V30 39830 C 3998.55 -0.0672824 3.40834 0
M  V30 39831 H 3999.74 1.53742 2.57494 0
M  V30 39832 H 3997.29 0.833237 1.32238 0
M  V30 39833 H 3998.03 -0.982317 3.09065 0
M  V30 39834 H 3997.81 0.610213 3.87323 0
M  V30 39835 H 3999.3 -0.336796 4.1624 0
M  V30 39836 N 3999.74 -1.34578 0.820149 0
M  V30 39837 C 4000.7 -2.27881 0.245502 0
M  V30 39838 C 4001.7 -1.50168 -0.574998 0
M  V30 39839 O 4002.89 -1.69744 -0.391506 0
M  V30 39840 C 4000.02 -3.34526 -0.65614 0
M  V30 39841 H 4001.22 -2.80217 1.06858 0
M  V30 39842 H 3998.77 -1.44663 0.591803 0
M  V30 39843 H 3999.5 -2.874 -1.50239 0
M  V30 39844 H 3999.29 -3.92039 -0.0693262 0
M  V30 39845 H 4000.78 -4.0413 -1.05209 0
M  V30 39846 N 4001.22 -0.574861 -1.46742 0
M  V30 39847 C 4002.63 -0.146176 -1.86127 0
M  V30 39848 C 4002.98 1.28873 -1.4794 0
M  V30 39849 O 4002.1 1.97223 -0.890627 0
M  V30 39850 C 4002.7 -0.258506 -3.37812 0
M  V30 39851 C 4001.26 0.115256 -3.76223 0
M  V30 39852 C 4000.4 -0.598044 -2.70774 0
M  V30 39853 H 4003.36 -0.783551 -1.38008 0
M  V30 39854 H 4003.38 0.518244 -3.76954 0
M  V30 39855 H 4002.89 -1.30295 -3.65575 0
M  V30 39856 H 4000.99 1.16013 -3.54079 0
M  V30 39857 H 4001.1 -0.255597 -4.78418 0
M  V30 39858 H 3999.47 -0.0391577 -2.5467 0
M  V30 39859 H 4000.25 -1.64398 -3.01377 0
M  V30 39860 N 4002.69 1.54476 -0.312224 0
M  V30 39861 C 4003.92 2.04474 0.295596 0
M  V30 39862 C 4004.33 1.18854 1.47209 0
M  V30 39863 O 4003.68 0.20938 1.82503 0
M  V30 39864 C 4003.74 3.50393 0.804061 0
M  V30 39865 C 4003.4 4.56323 -0.248627 0
M  V30 39866 C 4004.4 5.0854 -1.08089 0
M  V30 39867 C 4002.08 5.00756 -0.393555 0
M  V30 39868 C 4004.08 6.03741 -2.04392 0
M  V30 39869 C 4001.76 5.95774 -1.36001 0
M  V30 39870 C 4002.76 6.47151 -2.18367 0
M  V30 39871 O 4002.45 7.40306 -3.13373 0
M  V30 39872 H 4002.18 0.672719 0.0665248 0
M  V30 39873 H 4004.74 2.0034 -0.453115 0
M  V30 39874 H 4002.97 3.51888 1.60349 0
M  V30 39875 H 4004.66 3.83527 1.32899 0
M  V30 39876 H 4005.42 4.74999 -0.979849 0
M  V30 39877 H 4001.3 4.60387 0.237628 0
M  V30 39878 H 4004.84 6.43767 -2.6872 0
M  V30 39879 H 4000.74 6.28732 -1.46173 0
M  V30 39880 H 4001.51 7.58144 -3.0848 0
M  V30 39881 N 4004.17 0.0401637 1.57549 0
M  V30 39882 C 4005.41 -0.640088 1.94119 0
M  V30 39883 C 4005.78 -1.68654 0.917604 0
M  V30 39884 O 4006.98 -2.42007 1.16987 0
M  V30 39885 C 4005.25 -1.23059 3.35546 0
M  V30 39886 S 4006.81 -1.93038 3.94058 0
M  V30 39887 H 4003.63 -0.210463 0.679136 0
M  V30 39888 H 4006.23 0.10647 1.9521 0
M  V30 39889 H 4004.93 -0.4567 4.07851 0
M  V30 39890 H 4004.46 -2.01421 3.37925 0
M  V30 39891 H 4006.48 -3.20992 3.78389 0
M  V30 39892 N 4005.65 -1.55866 -0.233109 0
M  V30 39893 C 4006.88 -1.82148 -0.974967 0
M  V30 39894 C 4007.29 -0.615487 -1.78909 0
M  V30 39895 O 4006.63 0.425338 -1.78708 0
M  V30 39896 C 4006.69 -3.01991 -1.95043 0
M  V30 39897 C 4006.36 -4.37463 -1.32193 0
M  V30 39898 C 4007.35 -5.14925 -0.717537 0
M  V30 39899 C 4005.04 -4.84175 -1.33716 0
M  V30 39900 C 4007.03 -6.37253 -0.136752 0
M  V30 39901 C 4004.72 -6.06449 -0.752527 0
M  V30 39902 C 4005.72 -6.82828 -0.153364 0
M  V30 39903 O 4005.41 -8.02791 0.422204 0
M  V30 39904 H 4005.14 -0.60974 -0.291878 0
M  V30 39905 H 4007.69 -2.03786 -0.257012 0
M  V30 39906 H 4005.92 -2.76143 -2.70706 0
M  V30 39907 H 4007.61 -3.15245 -2.55686 0
M  V30 39908 H 4008.38 -4.79948 -0.698179 0
M  V30 39909 H 4004.26 -4.24707 -1.79291 0
M  V30 39910 H 4007.8 -6.96812 0.33154 0
M  V30 39911 H 4003.7 -6.409 -0.769258 0
M  V30 39912 H 4004.47 -8.17892 0.315402 0
M  V30 39913 N 4007.13 0.499346 -1.4948 0
M  V30 39914 C 4008.36 1.27735 -1.62762 0
M  V30 39915 C 4008.77 1.86407 -0.299668 0
M  V30 39916 O 4008.13 1.67908 0.715063 0
M  V30 39917 C 4008.18 2.40642 -2.69766 0
M  V30 39918 O 4007.9 1.84381 -3.9741 0
M  V30 39919 C 4009.4 3.31987 -2.93768 0
M  V30 39920 H 4006.62 0.387358 -0.5479 0
M  V30 39921 H 4009.17 0.599257 -1.95523 0
M  V30 39922 H 4007.32 3.04278 -2.39779 0
M  V30 39923 H 4007.74 2.58517 -4.56365 0
M  V30 39924 H 4009.21 4.07487 -3.72368 0
M  V30 39925 H 4009.69 3.89081 -2.03746 0
M  V30 39926 H 4010.29 2.74116 -3.25178 0
M  V30 39927 N 4008.61 1.38582 0.750513 0
M  V30 39928 C 4010.02 1.19847 1.05399 0
M  V30 39929 C 4010.22 0.0492671 2.0144 0
M  V30 39930 O 4009.28 -0.603994 2.4517 0
M  V30 39931 C 4010.59 2.52616 1.63113 0
M  V30 39932 C 4012.14 2.59326 1.75269 0
M  V30 39933 C 4012.62 3.92278 2.36394 0
M  V30 39934 N 4014.11 3.93834 2.43822 0
M  V30 39935 C 4014.84 4.9347 2.92019 0
M  V30 39936 N 4014.34 6.03503 3.40229 0
M  V30 39937 N 4016.13 4.80858 2.91087 0
M  V30 39938 H 4008.28 2.12098 0.113248 0
M  V30 39939 H 4010.54 0.941257 0.112869 0
M  V30 39940 H 4010.25 3.3718 1.00011 0
M  V30 39941 H 4010.12 2.7123 2.62133 0
M  V30 39942 H 4012.51 1.75154 2.37497 0
M  V30 39943 H 4012.59 2.44575 0.749447 0
M  V30 39944 H 4012.24 4.76873 1.74799 0
M  V30 39945 H 4012.17 4.04341 3.37366 0
M  V30 39946 H 4014.66 3.1436 2.09728 0
M  V30 39947 H 4014.97 6.75457 3.7547 0
M  V30 39948 H 4013.32 6.07119 3.38278 0
M  V30 39949 H 4016.51 3.94007 2.52737 0
M  V30 39950 H 4016.68 5.58658 3.28337 0
M  V30 39951 N 4010.09 -0.979029 1.23502 0
M  V30 39952 C 4011.36 -1.69501 0.976153 0
M  V30 39953 C 4011.74 -2.04974 -0.504847 0
M  V30 39954 O 4011.09 -1.74399 -1.47639 0
M  V30 39955 C 4011.3 -2.93539 1.88775 0
M  V30 39956 C 4012.65 -3.66024 2.15202 0
M  V30 39957 O 4013.67 -3.03574 1.86336 0
M  V30 39958 O 4012.53 -4.78413 2.64166 0
M  V30 39959 H 4009.63 -0.740481 0.368263 0
M  V30 39960 H 4012.17 -1.03413 1.34551 0
M  V30 39961 H 4010.94 -2.63932 2.88887 0
M  V30 39962 H 4010.57 -3.67363 1.52085 0
M  V30 39963 N 4011.56 -1.04695 -1.178 0
M  V30 39964 C 4012.97 -0.780953 -1.69582 0
M  V30 39965 C 4013.33 0.697465 -1.83384 0
M  V30 39966 O 4012.45 1.54243 -1.51783 0
M  V30 39967 C 4013.05 -1.41102 -3.08019 0
M  V30 39968 C 4011.6 -1.19319 -3.56987 0
M  V30 39969 C 4010.75 -1.49772 -2.33375 0
M  V30 39970 H 4013.7 -1.21255 -1.02387 0
M  V30 39971 H 4013.72 -0.817605 -3.71612 0
M  V30 39972 H 4013.24 -2.48702 -2.97941 0
M  V30 39973 H 4011.34 -0.136212 -3.72351 0
M  V30 39974 H 4011.45 -1.89463 -4.40046 0
M  V30 39975 H 4009.81 -0.917627 -2.37596 0
M  V30 39976 H 4010.6 -2.58495 -2.2591 0
M  V30 39977 N 4013.04 1.34141 -0.827275 0
M  V30 39978 C 4014.29 1.9776 -0.416595 0
M  V30 39979 C 4014.61 1.65897 1.02485 0
M  V30 39980 O 4013.88 0.951921 1.71217 0
M  V30 39981 H 4012.46 0.731567 -0.151056 0
M  V30 39982 H 4015.12 1.63705 -1.05768 0
M  V30 39983 H 4014.22 3.07408 -0.539155 0
M  V30 39984 N 4014.52 0.582635 1.46435 0
M  V30 39985 C 4015.77 0.068286 2.02685 0
M  V30 39986 C 4016.1 -1.28828 1.45317 0
M  V30 39987 O 4015.37 -1.84413 0.618243 0
M  V30 39988 C 4015.66 0.00244126 3.601 0
M  V30 39989 C 4015.51 1.3879 4.27852 0
M  V30 39990 C 4016.83 -0.698214 4.34526 0
M  V30 39991 H 4013.95 0.0262891 0.736531 0
M  V30 39992 H 4016.59 0.749819 1.74579 0
M  V30 39993 H 4014.74 -0.577963 3.84177 0
M  V30 39994 H 4016.41 2.01346 4.15039 0
M  V30 39995 H 4014.65 1.95563 3.87217 0
M  V30 39996 H 4015.33 1.2943 5.36611 0
M  V30 39997 H 4017.8 -0.205146 4.15594 0
M  V30 39998 H 4016.68 -0.713315 5.44245 0
M  V30 39999 H 4016.94 -1.7595 4.05578 0
M  V30 40000 N 4016 -1.54309 0.320412 0
M  V30 40001 C 4017.41 -1.59567 -0.0323419 0
M  V30 40002 C 4017.61 -1.33702 -1.50752 0
M  V30 40003 O 4016.67 -1.11991 -2.26306 0
M  V30 40004 C 4017.98 -2.9825 0.383053 0
M  V30 40005 C 4019.53 -3.11219 0.333444 0
M  V30 40006 C 4020.01 -4.52242 0.723954 0
M  V30 40007 N 4021.5 -4.58222 0.677237 0
M  V30 40008 C 4022.23 -5.65448 0.951631 0
M  V30 40009 N 4021.73 -6.80627 1.293 0
M  V30 40010 N 4023.52 -5.5521 0.877401 0
M  V30 40011 H 4015.67 -1.69379 1.28158 0
M  V30 40012 H 4017.93 -0.792064 0.520901 0
M  V30 40013 H 4017.64 -3.22167 1.41072 0
M  V30 40014 H 4017.51 -3.76347 -0.253535 0
M  V30 40015 H 4019.9 -2.87039 -0.685012 0
M  V30 40016 H 4019.98 -2.35234 1.00492 0
M  V30 40017 H 4019.63 -4.77154 1.74031 0
M  V30 40018 H 4019.56 -5.26591 0.0301965 0
M  V30 40019 H 4022.05 -3.75501 0.425121 0
M  V30 40020 H 4022.36 -7.58343 1.48783 0
M  V30 40021 H 4020.71 -6.82132 1.33123 0
M  V30 40022 H 4023.9 -4.64105 0.610225 0
M  V30 40023 H 4024.07 -6.38688 1.0946 0
M  V30 40024 N 4017.48 -0.0485183 -1.57525 0
M  V30 40025 C 4018.72 0.620895 -1.93692 0
M  V30 40026 C 4019.08 1.68608 -0.92678 0
M  V30 40027 O 4018.37 1.91523 0.0544321 0
M  V30 40028 C 4018.56 1.26307 -3.34337 0
M  V30 40029 C 4018.39 0.26162 -4.48938 0
M  V30 40030 C 4017.16 -0.145459 -5.05091 0
M  V30 40031 C 4019.36 -0.491898 -5.11942 0
M  V30 40032 N 4017.34 -1.14005 -6.03221 0
M  V30 40033 C 4018.71 -1.33965 -6.05354 0
M  V30 40034 C 4020.77 -0.550499 -4.94847 0
M  V30 40035 C 4019.47 -2.24075 -6.83508 0
M  V30 40036 C 4021.5 -1.43901 -5.73626 0
M  V30 40037 C 4020.86 -2.2745 -6.66668 0
M  V30 40038 H 4016.96 0.198927 -0.756275 0
M  V30 40039 H 4019.54 -0.12023 -1.94328 0
M  V30 40040 H 4017.71 1.97424 -3.34482 0
M  V30 40041 H 4019.45 1.89107 -3.578 0
M  V30 40042 H 4016.2 0.232962 -4.73027 0
M  V30 40043 H 4016.62 -1.63416 -6.56981 0
M  V30 40044 H 4021.27 0.0812124 -4.22722 0
M  V30 40045 H 4018.98 -2.88293 -7.54926 0
M  V30 40046 H 4022.57 -1.48889 -5.62426 0
M  V30 40047 H 4021.45 -2.95088 -7.26562 0
M  V30 40048 N 4018.95 1.55988 0.224839 0
M  V30 40049 C 4019.86 1.95309 1.29967 0
M  V30 40050 C 4020.88 0.85647 1.51461 0
M  V30 40051 O 4022.06 1.15976 1.64656 0
M  V30 40052 C 4019.12 2.25897 2.63005 0
M  V30 40053 C 4018.18 3.4911 2.49841 0
M  V30 40054 C 4017.41 3.78229 3.76535 0
M  V30 40055 O 4017.64 3.09074 4.79405 0
M  V30 40056 O 4016.57 4.71725 3.73844 0
M  V30 40057 H 4020.4 2.86902 0.996042 0
M  V30 40058 H 4017.98 1.43155 0.427432 0
M  V30 40059 H 4019.86 2.4678 3.41581 0
M  V30 40060 H 4018.54 1.37479 2.93055 0
M  V30 40061 H 4017.45 3.3351 1.69476 0
M  V30 40062 H 4018.78 4.379 2.24731 0
M  V30 40063 N 4020.43 -0.491412 1.49743 0
M  V30 40064 C 4021.66 -1.26686 1.632 0
M  V30 40065 C 4022.07 -1.86701 0.306471 0
M  V30 40066 O 4021.41 -1.69034 -0.719252 0
M  V30 40067 C 4021.47 -2.42963 2.64971 0
M  V30 40068 C 4021.14 -2.03742 4.0907 0
M  V30 40069 C 4022.14 -1.57162 4.95577 0
M  V30 40070 C 4019.82 -2.13084 4.54863 0
M  V30 40071 C 4021.81 -1.20439 6.25918 0
M  V30 40072 C 4019.5 -1.75973 5.85215 0
M  V30 40073 C 4020.5 -1.29726 6.70567 0
M  V30 40074 O 4020.19 -0.931207 7.98488 0
M  V30 40075 H 4019.92 -0.390077 0.552101 0
M  V30 40076 H 4022.47 -0.595404 1.96581 0
M  V30 40077 H 4020.7 -3.13214 2.2679 0
M  V30 40078 H 4022.39 -3.04971 2.67858 0
M  V30 40079 H 4023.16 -1.49383 4.61421 0
M  V30 40080 H 4019.04 -2.48031 3.88589 0
M  V30 40081 H 4022.58 -0.842708 6.92491 0
M  V30 40082 H 4018.48 -1.83405 6.18897 0
M  V30 40083 H 4019.25 -1.06184 8.11583 0
M  V30 40084 N 4021.91 -1.38978 -0.743153 0
M  V30 40085 C 4023.15 -1.37183 -1.51527 0
M  V30 40086 C 4023.51 0.0350267 -1.91968 0
M  V30 40087 O 4024.72 0.177934 -2.6821 0
M  V30 40088 C 4022.99 -2.30996 -2.72719 0
M  V30 40089 S 4024.55 -2.47314 -3.62465 0
M  V30 40090 H 4021.36 -0.486596 -0.518407 0
M  V30 40091 H 4023.97 -1.75001 -0.871491 0
M  V30 40092 H 4022.67 -3.32088 -2.41135 0
M  V30 40093 H 4022.2 -1.94364 -3.42032 0
M  V30 40094 H 4024.22 -1.70498 -4.65988 0
M  V30 40095 N 4023.39 0.972465 -1.2402 0
M  V30 40096 C 4024.34 2.0875 -1.02597 0
M  V30 40097 C 4025.33 1.69358 0.037583 0
M  V30 40098 O 4026.54 1.79622 -0.11658 0
M  V30 40099 H 4022.91 0.682973 -0.314725 0
M  V30 40100 H 4024.88 2.23982 -1.97167 0
M  V30 40101 C 4023.63 3.41715 -0.642358 0
M  V30 40102 H 4022.95 3.72482 -1.45249 0
M  V30 40103 H 4024.39 4.20649 -0.532038 0
M  V30 40104 C 4022.85 3.30568 0.650115 0
M  V30 40105 O 4023.38 3.64088 1.69713 0
M  V30 40106 N 4021.59 2.8371 0.629035 0
M  V30 40107 H 4021.14 2.5663 -0.223348 0
M  V30 40108 H 4021.09 2.76634 1.49402 0
M  V30 40109 N 4024.87 1.05318 1.17243 0
M  V30 40110 C 4025.8 0.676349 2.2349 0
M  V30 40111 C 4026.78 -0.326478 1.66938 0
M  V30 40112 O 4027.96 -0.203789 1.93128 0
M  V30 40113 C 4025.09 0.0516366 3.47262 0
M  V30 40114 C 4024.05 0.979363 4.16644 0
M  V30 40115 C 4023.37 0.218463 5.34254 0
M  V30 40116 C 4024.67 2.30407 4.68732 0
M  V30 40117 H 4026.37 1.56459 2.55266 0
M  V30 40118 H 4023.91 0.753736 1.22698 0
M  V30 40119 H 4025.87 -0.223791 4.20805 0
M  V30 40120 H 4024.59 -0.871559 3.14756 0
M  V30 40121 H 4023.25 1.23938 3.45015 0
M  V30 40122 H 4022.9 -0.707537 4.97999 0
M  V30 40123 H 4022.6 0.836643 5.81613 0
M  V30 40124 H 4024.12 -0.0496501 6.1058 0
M  V30 40125 H 4025.53 2.08847 5.33906 0
M  V30 40126 H 4023.93 2.87634 5.26675 0
M  V30 40127 H 4025 2.94176 3.85472 0
M  V30 40128 N 4026.34 -1.33701 0.834377 0
M  V30 40129 C 4027.57 -2.0214 0.441264 0
M  V30 40130 C 4027.99 -1.62795 -0.956198 0
M  V30 40131 O 4027.34 -0.839056 -1.62068 0
M  V30 40132 C 4027.4 -3.57336 0.547098 0
M  V30 40133 O 4027.12 -3.95259 1.88949 0
M  V30 40134 C 4028.62 -4.43045 0.15036 0
M  V30 40135 H 4025.84 -0.64759 0.175692 0
M  V30 40136 H 4028.38 -1.70728 1.12571 0
M  V30 40137 H 4026.54 -3.87297 -0.0893851 0
M  V30 40138 H 4026.95 -4.89962 1.87183 0
M  V30 40139 H 4028.42 -5.51312 0.275471 0
M  V30 40140 H 4028.9 -4.29727 -0.907286 0
M  V30 40141 H 4029.51 -4.18434 0.761098 0
M  V30 40142 N 4027.82 -0.590393 -1.46124 0
M  V30 40143 C 4028.75 0.176353 -2.28521 0
M  V30 40144 C 4029.77 0.848183 -1.38959 0
M  V30 40145 O 4030.96 0.716456 -1.63491 0
M  V30 40146 C 4028.06 1.26969 -3.14217 0
M  V30 40147 C 4027.23 0.688301 -4.3195 0
M  V30 40148 C 4026.29 1.67032 -4.98986 0
M  V30 40149 O 4025.31 1.20335 -5.56334 0
M  V30 40150 N 4026.52 3.00454 -4.96696 0
M  V30 40151 H 4029.28 -0.530598 -2.94966 0
M  V30 40152 H 4026.84 -0.428687 -1.56121 0
M  V30 40153 H 4028.83 1.92608 -3.55927 0
M  V30 40154 H 4027.4 1.87939 -2.49795 0
M  V30 40155 H 4026.62 -0.145747 -3.9393 0
M  V30 40156 H 4027.91 0.279794 -5.0803 0
M  V30 40157 H 4027.31 3.4101 -4.51363 0
M  V30 40158 H 4025.87 3.61562 -5.42325 0
M  V30 40159 N 4029.3 1.54136 -0.328591 0
M  V30 40160 C 4030.54 2.02569 0.273001 0
M  V30 40161 C 4030.9 1.21151 1.48951 0
M  V30 40162 O 4032.11 1.5941 2.1643 0
M  V30 40163 C 4030.38 3.5243 0.593955 0
M  V30 40164 S 4031.94 4.2279 1.17449 0
M  V30 40165 H 4028.75 0.706225 0.0822647 0
M  V30 40166 H 4031.36 1.89941 -0.462881 0
M  V30 40167 H 4030.06 4.09306 -0.29948 0
M  V30 40168 H 4029.59 3.69148 1.3599 0
M  V30 40169 H 4031.61 4.30867 2.46105 0
M  V30 40170 N 4030.78 0.0568716 1.57497 0
M  V30 40171 C 4032 -0.628555 1.97646 0
M  V30 40172 C 4032.43 -1.63247 0.934452 0
M  V30 40173 O 4031.79 -1.81015 -0.101674 0
M  V30 40174 C 4031.83 -1.28684 3.36857 0
M  V30 40175 O 4030.94 -2.40258 3.35186 0
M  V30 40176 H 4030.28 -0.162929 0.6437 0
M  V30 40177 H 4032.81 0.126962 2.04206 0
M  V30 40178 H 4032.82 -1.63719 3.73711 0
M  V30 40179 H 4031.49 -0.551131 4.12232 0
M  V30 40180 H 4030.07 -2.07128 3.10085 0
M  V30 40181 N 4032.26 -1.56105 -0.216564 0
M  V30 40182 C 4033.53 -1.70147 -0.964844 0
M  V30 40183 C 4033.91 -0.60556 -2.02228 0
M  V30 40184 O 4033.26 0.386702 -2.25204 0
M  V30 40185 C 4033.47 -3.11654 -1.57076 0
M  V30 40186 C 4034.82 -3.71218 -2.06112 0
M  V30 40187 O 4035.84 -3.14647 -1.66961 0
M  V30 40188 O 4034.7 -4.70457 -2.78087 0
M  V30 40189 H 4031.8 -0.693179 -0.451034 0
M  V30 40190 H 4034.34 -1.68421 -0.207952 0
M  V30 40191 H 4033.11 -3.82878 -0.807473 0
M  V30 40192 H 4032.74 -3.17519 -2.39306 0
M  V30 40193 N 4033.73 0.483463 -1.50001 0
M  V30 40194 C 4034.7 1.56532 -1.67423 0
M  V30 40195 C 4035.7 1.5127 -0.545338 0
M  V30 40196 O 4036.89 1.5411 -0.812139 0
M  V30 40197 C 4034.02 2.96177 -1.68795 0
M  V30 40198 H 4035.21 1.42407 -2.63932 0
M  V30 40199 H 4032.77 0.708967 -1.39296 0
M  V30 40200 H 4033.5 3.1576 -0.73934 0
M  V30 40201 H 4033.29 3.01404 -2.50795 0
M  V30 40202 H 4034.78 3.74745 -1.8427 0
M  V30 40203 N 4035.21 1.39371 0.735772 0
M  V30 40204 C 4036.12 1.40301 1.88023 0
M  V30 40205 C 4037.14 0.297908 1.71431 0
M  V30 40206 O 4038.31 0.539253 1.94046 0
M  V30 40207 C 4035.38 1.24421 3.23605 0
M  V30 40208 C 4034.44 2.44896 3.52597 0
M  V30 40209 C 4033.67 2.29764 4.8171 0
M  V30 40210 O 4033.9 1.30071 5.55372 0
M  V30 40211 O 4032.83 3.18731 5.10582 0
M  V30 40212 H 4036.66 2.36771 1.90193 0
M  V30 40213 H 4034.24 1.20478 0.883483 0
M  V30 40214 H 4036.12 1.17695 4.04631 0
M  V30 40215 H 4034.8 0.310466 3.22208 0
M  V30 40216 H 4033.71 2.57199 2.71661 0
M  V30 40217 H 4035.04 3.36962 3.58772 0
M  V30 40218 N 4036.69 -0.965875 1.24534 0
M  V30 40219 C 4037.94 -1.70571 1.08398 0
M  V30 40220 C 4038.26 -1.91309 -0.377624 0
M  V30 40221 O 4037.53 -1.49214 -1.26933 0
M  V30 40222 H 4036.11 -0.632059 0.398134 0
M  V30 40223 H 4038.77 -1.16187 1.56482 0
M  V30 40224 H 4037.87 -2.68948 1.58346 0
M  V30 40225 N 4038.17 -1.05938 -1.16683 0
M  V30 40226 C 4039.4 -0.794586 -1.91034 0
M  V30 40227 C 4039.81 0.650632 -1.77235 0
M  V30 40228 O 4039.17 1.44512 -1.11456 0
M  V30 40229 C 4039.22 -1.17542 -3.41857 0
M  V30 40230 O 4038.94 -2.56392 -3.55239 0
M  V30 40231 C 4040.44 -0.93785 -4.33266 0
M  V30 40232 H 4037.66 -0.288336 -0.605891 0
M  V30 40233 H 4040.21 -1.41206 -1.47923 0
M  V30 40234 H 4038.36 -0.602553 -3.82685 0
M  V30 40235 H 4038.78 -2.71539 -4.48739 0
M  V30 40236 H 4040.25 -1.25398 -5.37568 0
M  V30 40237 H 4040.73 0.126596 -4.39018 0
M  V30 40238 H 4041.33 -1.49493 -3.98161 0
M  V30 40239 N 4039.65 1.33256 -0.841456 0
M  V30 40240 C 4040.61 2.27462 -0.281725 0
M  V30 40241 C 4041.61 1.51064 0.551035 0
M  V30 40242 O 4042.8 1.70345 0.364452 0
M  V30 40243 C 4039.93 3.35527 0.602837 0
M  V30 40244 H 4041.13 2.78481 -1.11303 0
M  V30 40245 H 4038.68 1.43703 -0.614742 0
M  V30 40246 H 4039.41 2.89754 1.45647 0
M  V30 40247 H 4039.2 3.92099 0.00694742 0
M  V30 40248 H 4040.69 4.05752 0.987664 0
M  V30 40249 N 4041.13 0.598134 1.45809 0
M  V30 40250 C 4042.37 0.0897796 2.02601 0
M  V30 40251 C 4042.7 -1.27279 1.46675 0
M  V30 40252 O 4041.98 -1.83747 0.637767 0
M  V30 40253 C 4042.26 0.0406345 3.60077 0
M  V30 40254 C 4042.12 1.4332 4.26356 0
M  V30 40255 C 4043.43 -0.652087 4.35242 0
M  V30 40256 H 4040.55 0.0340995 0.736211 0
M  V30 40257 H 4043.2 0.768294 1.73774 0
M  V30 40258 H 4041.35 -0.537183 3.84768 0
M  V30 40259 H 4043.02 2.05737 4.1288 0
M  V30 40260 H 4041.26 1.99659 3.85121 0
M  V30 40261 H 4041.93 1.35114 5.35209 0
M  V30 40262 H 4044.41 -0.161055 4.15788 0
M  V30 40263 H 4043.28 -0.65555 5.44971 0
M  V30 40264 H 4043.54 -1.71639 4.07422 0
M  V30 40265 N 4042.6 -1.5396 0.33676 0
M  V30 40266 C 4043.57 -2.2344 -0.510598 0
M  V30 40267 C 4044.57 -1.23229 -1.03302 0
M  V30 40268 O 4045.76 -1.47716 -0.923347 0
M  V30 40269 C 4042.89 -2.94876 -1.71058 0
M  V30 40270 H 4044.08 -2.99743 0.0969732 0
M  V30 40271 H 4041.63 -1.56052 0.0880141 0
M  V30 40272 H 4042.37 -2.22743 -2.35703 0
M  V30 40273 H 4042.15 -3.68374 -1.34325 0
M  V30 40274 H 4043.64 -3.47775 -2.31176 0
M  V30 40275 N 4044.08 -0.0652232 -1.57465 0
M  V30 40276 C 4045.49 0.468418 -1.80728 0
M  V30 40277 C 4045.84 1.70052 -0.978611 0
M  V30 40278 O 4044.97 2.15481 -0.199224 0
M  V30 40279 C 4045.56 0.856584 -3.27793 0
M  V30 40280 C 4044.12 1.33512 -3.51925 0
M  V30 40281 C 4043.27 0.317099 -2.75481 0
M  V30 40282 H 4046.22 -0.290983 -1.5601 0
M  V30 40283 H 4046.24 1.71849 -3.39482 0
M  V30 40284 H 4045.75 -0.0403505 -3.88079 0
M  V30 40285 H 4043.85 2.25078 -2.96936 0
M  V30 40286 H 4043.97 1.31759 -4.60626 0
M  V30 40287 H 4042.33 0.792983 -2.42041 0
M  V30 40288 H 4043.11 -0.571994 -3.38501 0
M  V30 40289 N 4045.56 1.56218 0.208282 0
M  V30 40290 C 4046.97 1.69894 0.774132 0
M  V30 40291 C 4047.32 0.669539 1.84422 0
M  V30 40292 O 4046.45 -0.17671 2.15677 0
M  V30 40293 C 4047.04 3.08022 1.41096 0
M  V30 40294 C 4045.6 3.23508 1.92405 0
M  V30 40295 C 4044.75 2.65836 0.789083 0
M  V30 40296 H 4047.7 1.58691 -0.0165893 0
M  V30 40297 H 4047.72 3.04618 2.28009 0
M  V30 40298 H 4047.23 3.82921 0.631898 0
M  V30 40299 H 4045.33 2.53501 2.73071 0
M  V30 40300 H 4045.45 4.30872 2.0949 0
M  V30 40301 H 4043.81 2.24665 1.19991 0
M  V30 40302 H 4044.59 3.43293 0.0224741 0
M  V30 40303 N 4047.04 -0.475502 1.50256 0
M  V30 40304 C 4048.27 -1.25129 1.64774 0
M  V30 40305 C 4048.68 -1.85906 0.329285 0
M  V30 40306 O 4048.04 -1.69024 -0.688259 0
M  V30 40307 C 4048.09 -2.3632 2.7356 0
M  V30 40308 O 4047.81 -1.78036 4.00294 0
M  V30 40309 C 4049.31 -3.27272 2.99012 0
M  V30 40310 H 4046.53 -0.378593 0.553993 0
M  V30 40311 H 4049.07 -0.568075 1.96451 0
M  V30 40312 H 4047.23 -3.00425 2.44589 0
M  V30 40313 H 4047.64 -2.51224 4.6042 0
M  V30 40314 H 4049.12 -4.01511 3.78804 0
M  V30 40315 H 4049.59 -3.8579 2.09911 0
M  V30 40316 H 4050.2 -2.68908 3.29498 0
M  V30 40317 N 4048.52 -1.39759 -0.72837 0
M  V30 40318 C 4049.76 -1.37547 -1.49026 0
M  V30 40319 C 4050.09 0.0264833 -1.94182 0
M  V30 40320 O 4049.37 0.992707 -1.67259 0
M  V30 40321 C 4049.65 -2.3537 -2.72531 0
M  V30 40322 C 4049.51 -3.84535 -2.33351 0
M  V30 40323 C 4050.82 -2.3092 -3.74652 0
M  V30 40324 H 4047.94 -0.500944 -0.540578 0
M  V30 40325 H 4050.59 -1.708 -0.832304 0
M  V30 40326 H 4048.74 -2.07143 -3.2867 0
M  V30 40327 H 4050.41 -4.23538 -1.82792 0
M  V30 40328 H 4048.65 -4.00989 -1.65501 0
M  V30 40329 H 4049.32 -4.48479 -3.21824 0
M  V30 40330 H 4051.8 -2.55894 -3.28112 0
M  V30 40331 H 4050.67 -3.01436 -4.58724 0
M  V30 40332 H 4050.93 -1.31647 -4.22044 0
M  V30 40333 N 4049.99 0.959257 -1.25044 0
M  V30 40334 C 4051.22 1.73807 -1.12245 0
M  V30 40335 C 4051.64 1.85995 0.324218 0
M  V30 40336 O 4050.99 1.35435 1.22325 0
M  V30 40337 C 4051.04 3.15423 -1.76608 0
M  V30 40338 O 4050.77 3.03836 -3.15619 0
M  V30 40339 C 4052.27 4.09603 -1.69529 0
M  V30 40340 H 4049.49 0.544776 -0.391739 0
M  V30 40341 H 4052.03 1.20377 -1.65317 0
M  V30 40342 H 4050.19 3.65811 -1.27518 0
M  V30 40343 H 4050.6 3.93137 -3.47193 0
M  V30 40344 H 4052.07 5.06598 -2.19232 0
M  V30 40345 H 4052.55 4.34241 -0.658151 0
M  V30 40346 H 4053.16 3.65129 -2.18085 0
M  V30 40347 N 4051.47 1.06556 1.16119 0
M  V30 40348 C 4052.88 0.807833 1.68318 0
M  V30 40349 C 4053.23 -0.668202 1.84471 0
M  V30 40350 O 4052.36 -1.51808 1.54218 0
M  V30 40351 C 4052.95 1.45984 3.05735 0
M  V30 40352 C 4051.51 1.24983 3.55044 0
M  V30 40353 C 4050.66 1.53466 2.30962 0
M  V30 40354 H 4053.61 1.22868 1.00445 0
M  V30 40355 H 4053.63 0.876622 3.70264 0
M  V30 40356 H 4053.14 2.53411 2.93947 0
M  V30 40357 H 4051.25 0.195432 3.72087 0
M  V30 40358 H 4051.36 1.9644 4.36976 0
M  V30 40359 H 4049.72 0.95531 2.36106 0
M  V30 40360 H 4050.51 2.62056 2.21769 0
M  V30 40361 N 4052.95 -1.32808 0.848511 0
M  V30 40362 C 4054.2 -1.97754 0.449556 0
M  V30 40363 C 4054.53 -1.67018 -0.990894 0
M  V30 40364 O 4053.8 -0.955148 -1.69432 0
M  V30 40365 C 4054.09 -3.53584 0.68196 0
M  V30 40366 C 4053.94 -3.93973 2.17038 0
M  V30 40367 C 4055.26 -4.39895 0.134348 0
M  V30 40368 H 4052.38 -0.718336 0.164811 0
M  V30 40369 H 4055.02 -1.57292 1.0658 0
M  V30 40370 H 4053.17 -3.88181 0.157421 0
M  V30 40371 H 4054.84 -3.69584 2.76053 0
M  V30 40372 H 4053.09 -3.43354 2.65123 0
M  V30 40373 H 4053.76 -5.02544 2.28371 0
M  V30 40374 H 4056.23 -4.11998 0.582828 0
M  V30 40375 H 4055.11 -5.47928 0.326575 0
M  V30 40376 H 4055.37 -4.31495 -0.9625 0
M  V30 40377 N 4054.43 -0.605858 -1.45489 0
M  V30 40378 C 4055.84 -0.185623 -1.85775 0
M  V30 40379 C 4056.19 1.25706 -1.5064 0
M  V30 40380 O 4055.32 1.95289 -0.932261 0
M  V30 40381 C 4055.91 -0.330103 -3.37188 0
M  V30 40382 C 4054.47 0.0354272 -3.76383 0
M  V30 40383 C 4053.62 -0.655345 -2.69445 0
M  V30 40384 H 4056.57 -0.812648 -1.36315 0
M  V30 40385 H 4056.59 0.438169 -3.77969 0
M  V30 40386 H 4056.1 -1.3802 -3.62729 0
M  V30 40387 H 4054.2 1.08477 -3.5646 0
M  V30 40388 H 4054.31 -0.357019 -4.77768 0
M  V30 40389 H 4052.68 -0.0931682 -2.5453 0
M  V30 40390 H 4053.46 -1.70754 -2.97822 0
M  V30 40391 N 4055.91 1.53779 -0.34492 0
M  V30 40392 C 4057.13 2.05824 0.255192 0
M  V30 40393 C 4057.56 1.21815 1.43327 0
M  V30 40394 O 4056.91 0.232223 1.79807 0
M  V30 40395 C 4056.96 3.54751 0.646843 0
M  V30 40396 O 4056.07 3.73583 1.7467 0
M  V30 40397 H 4055.41 0.662668 0.0420402 0
M  V30 40398 H 4057.94 1.98408 -0.499533 0
M  V30 40399 H 4057.95 3.97408 0.923616 0
M  V30 40400 H 4056.62 4.15345 -0.214692 0
M  V30 40401 H 4055.2 3.42828 1.46709 0
M  V30 40402 N 4057.38 0.0735731 1.57428 0
M  V30 40403 C 4058.31 -0.890546 2.15851 0
M  V30 40404 C 4059.3 -1.30918 1.08602 0
M  V30 40405 O 4060.48 -1.37992 1.36645 0
M  V30 40406 C 4057.61 -2.1575 2.72157 0
M  V30 40407 C 4056.56 -1.87821 3.84587 0
M  V30 40408 C 4055.89 -3.21161 4.27504 0
M  V30 40409 C 4057.19 -1.18208 5.08748 0
M  V30 40410 H 4058.88 -0.403852 2.96664 0
M  V30 40411 H 4056.43 -0.192811 1.42703 0
M  V30 40412 H 4058.38 -2.83615 3.11673 0
M  V30 40413 H 4057.11 -2.66665 1.88567 0
M  V30 40414 H 4055.77 -1.2236 3.45577 0
M  V30 40415 H 4055.41 -3.69921 3.40834 0
M  V30 40416 H 4055.11 -3.03264 5.03294 0
M  V30 40417 H 4056.64 -3.90221 4.69638 0
M  V30 40418 H 4058.05 -1.76145 5.45569 0
M  V30 40419 H 4056.45 -1.10563 5.89827 0
M  V30 40420 H 4057.52 -0.16144 4.84631 0
M  V30 40421 N 4058.86 -1.56326 -0.199995 0
M  V30 40422 C 4059.77 -1.97352 -1.26843 0
M  V30 40423 C 4060.79 -0.880458 -1.5008 0
M  V30 40424 O 4061.96 -1.18581 -1.6279 0
M  V30 40425 C 4059.03 -2.30053 -2.59378 0
M  V30 40426 C 4058.09 -3.53041 -2.44255 0
M  V30 40427 C 4057.32 -3.84172 -3.7047 0
M  V30 40428 O 4057.55 -3.16662 -4.74427 0
M  V30 40429 O 4056.48 -4.77613 -3.66292 0
M  V30 40430 H 4060.31 -2.8845 -0.950273 0
M  V30 40431 H 4057.89 -1.43817 -0.404603 0
M  V30 40432 H 4059.77 -2.52183 -3.37612 0
M  V30 40433 H 4058.45 -1.42124 -2.90831 0
M  V30 40434 H 4057.36 -3.36164 -1.64149 0
M  V30 40435 H 4058.69 -4.4142 -2.17736 0
M  V30 40436 N 4060.34 0.467527 -1.50506 0
M  V30 40437 C 4061.3 1.54748 -1.69073 0
M  V30 40438 C 4062.3 1.50683 -0.561351 0
M  V30 40439 O 4063.49 1.5324 -0.828439 0
M  V30 40440 C 4060.63 2.9437 -1.71927 0
M  V30 40441 H 4061.82 1.396 -2.65428 0
M  V30 40442 H 4059.37 0.694153 -1.4004 0
M  V30 40443 H 4060.11 3.14958 -0.772789 0
M  V30 40444 H 4059.89 2.98727 -2.53977 0
M  V30 40445 H 4061.38 3.7277 -1.88235 0
M  V30 40446 N 4061.82 1.40143 0.720948 0
M  V30 40447 C 4063.23 1.34017 1.29986 0
M  V30 40448 C 4063.58 0.0111161 1.96197 0
M  V30 40449 O 4062.71 -0.89095 1.97208 0
M  V30 40450 C 4063.3 2.42725 2.36368 0
M  V30 40451 C 4061.86 2.40076 2.89898 0
M  V30 40452 C 4061.01 2.23881 1.63623 0
M  V30 40453 H 4063.96 1.50027 0.517454 0
M  V30 40454 H 4063.98 2.10323 3.17088 0
M  V30 40455 H 4063.49 3.39443 1.8815 0
M  V30 40456 H 4061.59 1.47039 3.4236 0
M  V30 40457 H 4061.7 3.35462 3.42056 0
M  V30 40458 H 4060.07 1.71302 1.88488 0
M  V30 40459 H 4060.85 3.22589 1.17436 0
M  V30 40460 N 4063.3 -0.952612 1.25551 0
M  V30 40461 C 4064.52 -1.73741 1.13265 0
M  V30 40462 C 4064.95 -1.85537 -0.309474 0
M  V30 40463 O 4064.3 -1.33728 -1.22419 0
M  V30 40464 C 4064.35 -3.12806 1.79401 0
M  V30 40465 O 4063.46 -3.98142 1.07503 0
M  V30 40466 H 4062.8 -0.533494 0.395324 0
M  V30 40467 H 4065.33 -1.19391 1.66153 0
M  V30 40468 H 4065.34 -3.63256 1.85767 0
M  V30 40469 H 4064.01 -3.03537 2.84321 0
M  V30 40470 H 4062.59 -3.56604 1.09031 0
M  V30 40471 N 4064.77 -1.0717 -1.15553 0
M  V30 40472 C 4065.68 -0.701754 -2.23858 0
M  V30 40473 C 4066.7 0.286179 -1.7163 0
M  V30 40474 O 4067.88 0.133273 -2.00959 0
M  V30 40475 C 4064.94 -0.103226 -3.46546 0
M  V30 40476 C 4064 -1.14416 -4.13772 0
M  V30 40477 C 4063.24 -0.5741 -5.30603 0
M  V30 40478 O 4063.46 0.610421 -5.67124 0
M  V30 40479 O 4062.39 -1.3181 -5.8729 0
M  V30 40480 H 4066.22 -1.60491 -2.5783 0
M  V30 40481 H 4063.8 -0.844535 -1.23239 0
M  V30 40482 H 4065.69 0.228378 -4.20781 0
M  V30 40483 H 4064.36 0.773284 -3.14328 0
M  V30 40484 H 4063.27 -1.52809 -3.41468 0
M  V30 40485 H 4064.6 -1.99251 -4.50067 0
M  V30 40486 N 4066.25 1.32356 -0.855542 0
M  V30 40487 C 4067.19 2.27742 -0.258069 0
M  V30 40488 C 4068.2 1.52469 0.570706 0
M  V30 40489 O 4069.39 1.74074 0.395052 0
M  V30 40490 C 4066.49 3.32532 0.653899 0
M  V30 40491 C 4065.66 4.37178 -0.139221 0
M  V30 40492 C 4064.72 5.21541 0.698647 0
M  V30 40493 O 4063.75 5.69047 0.131845 0
M  V30 40494 N 4064.95 5.44472 2.01322 0
M  V30 40495 H 4067.71 2.79653 -1.07771 0
M  V30 40496 H 4065.27 1.45226 -0.715609 0
M  V30 40497 H 4067.27 3.8588 1.21978 0
M  V30 40498 H 4065.84 2.80774 1.37422 0
M  V30 40499 H 4065.06 3.84102 -0.886534 0
M  V30 40500 H 4066.34 5.04182 -0.683962 0
M  V30 40501 H 4065.74 5.07607 2.49704 0
M  V30 40502 H 4064.3 6.00812 2.52721 0
M  V30 40503 N 4067.73 0.613565 1.45166 0
M  V30 40504 C 4068.69 -0.0919052 2.29016 0
M  V30 40505 C 4069.69 -0.789348 1.40093 0
M  V30 40506 O 4070.88 -0.636602 1.62151 0
M  V30 40507 C 4068.02 -1.14042 3.21259 0
M  V30 40508 H 4069.21 0.645368 2.92874 0
M  V30 40509 H 4066.76 0.372882 1.51787 0
M  V30 40510 H 4067.5 -1.90826 2.62213 0
M  V30 40511 H 4067.28 -0.644455 3.86768 0
M  V30 40512 H 4068.77 -1.63432 3.84291 0
M  V30 40513 N 4069.21 -1.53594 0.353071 0
M  V30 40514 C 4070.62 -1.86255 -0.128819 0
M  V30 40515 C 4070.97 -1.27405 -1.49206 0
M  V30 40516 O 4070.1 -0.591258 -2.08166 0
M  V30 40517 C 4070.69 -3.37945 -0.240524 0
M  V30 40518 C 4069.25 -3.70449 -0.666655 0
M  V30 40519 C 4068.4 -2.76622 0.193806 0
M  V30 40520 H 4071.35 -1.48021 0.572326 0
M  V30 40521 H 4071.37 -3.65252 -1.06634 0
M  V30 40522 H 4070.88 -3.80749 0.751807 0
M  V30 40523 H 4068.98 -3.33196 -1.66767 0
M  V30 40524 H 4069.1 -4.76983 -0.449942 0
M  V30 40525 H 4067.46 -2.52483 -0.335361 0
M  V30 40526 H 4068.24 -3.22257 1.18345 0
M  V30 40527 N 4070.69 -0.0819208 -1.57387 0
M  V30 40528 C 4071.92 0.59361 -1.98202 0
M  V30 40529 C 4072.33 1.62534 -0.96063 0
M  V30 40530 O 4071.69 1.82427 0.0514582 0
M  V30 40531 C 4071.74 1.25314 -3.39085 0
M  V30 40532 O 4071.46 0.262686 -4.37312 0
M  V30 40533 C 4072.96 2.01553 -3.94831 0
M  V30 40534 H 4070.18 0.160148 -0.651609 0
M  V30 40535 H 4072.72 -0.157317 -2.03894 0
M  V30 40536 H 4070.88 1.95508 -3.34448 0
M  V30 40537 H 4071.29 0.737078 -5.19295 0
M  V30 40538 H 4072.77 2.43077 -4.95598 0
M  V30 40539 H 4073.24 2.87614 -3.31926 0
M  V30 40540 H 4073.85 1.36204 -4.029 0
M  V30 40541 N 4072.17 1.5643 0.191702 0
M  V30 40542 C 4073.08 1.98022 1.25795 0
M  V30 40543 C 4074.09 0.888405 1.49611 0
M  V30 40544 O 4075.27 1.19443 1.62159 0
M  V30 40545 C 4072.33 2.31425 2.58154 0
M  V30 40546 C 4071.39 3.54331 2.4238 0
M  V30 40547 C 4070.63 3.86131 3.68427 0
M  V30 40548 O 4070.85 3.19174 4.72741 0
M  V30 40549 O 4069.78 4.79549 3.63754 0
M  V30 40550 H 4073.61 2.8895 0.934962 0
M  V30 40551 H 4071.19 1.4403 0.39697 0
M  V30 40552 H 4073.08 2.5397 3.3627 0
M  V30 40553 H 4071.75 1.43664 2.90073 0
M  V30 40554 H 4070.66 3.3703 1.62363 0
M  V30 40555 H 4071.99 4.42569 2.15392 0
M  V30 40556 N 4073.64 -0.459538 1.50751 0
M  V30 40557 C 4074.58 -1.57382 1.66624 0
M  V30 40558 C 4075.59 -1.53322 0.547385 0
M  V30 40559 O 4076.78 -1.585 0.820969 0
M  V30 40560 C 4073.88 -2.96282 1.64529 0
M  V30 40561 C 4073.05 -3.25088 2.92637 0
M  V30 40562 C 4072.11 -4.436 2.83029 0
M  V30 40563 O 4071.14 -4.43341 3.56984 0
M  V30 40564 N 4072.34 -5.45918 1.97368 0
M  V30 40565 H 4075.1 -1.44179 2.6274 0
M  V30 40566 H 4072.66 -0.648144 1.4836 0
M  V30 40567 H 4074.66 -3.7355 1.55699 0
M  V30 40568 H 4073.23 -3.03196 0.760998 0
M  V30 40569 H 4072.45 -2.36325 3.15506 0
M  V30 40570 H 4073.73 -3.41151 3.77483 0
M  V30 40571 H 4073.13 -5.48956 1.36617 0
M  V30 40572 H 4071.69 -6.22125 1.94433 0
M  V30 40573 N 4075.12 -1.40523 -0.713506 0
M  V30 40574 C 4076.54 -1.22599 -1.02184 0
M  V30 40575 C 4076.74 -0.102658 -2.01238 0
M  V30 40576 O 4075.79 0.538779 -2.46685 0
M  V30 40577 C 4077.11 -2.56851 -1.56358 0
M  V30 40578 C 4078.65 -2.63881 -1.68332 0
M  V30 40579 C 4079.13 -3.98407 -2.25911 0
M  V30 40580 N 4080.62 -4.0016 -2.33294 0
M  V30 40581 C 4081.36 -5.01039 -2.78833 0
M  V30 40582 N 4080.85 -6.12312 -3.24109 0
M  V30 40583 N 4082.64 -4.88407 -2.78236 0
M  V30 40584 H 4074.8 -2.12324 -0.0569745 0
M  V30 40585 H 4077.06 -0.943919 -0.087874 0
M  V30 40586 H 4076.76 -3.39714 -0.910362 0
M  V30 40587 H 4076.64 -2.78085 -2.5485 0
M  V30 40588 H 4079.03 -1.81389 -2.3277 0
M  V30 40589 H 4079.11 -2.46476 -0.684338 0
M  V30 40590 H 4078.75 -4.8134 -1.62094 0
M  V30 40591 H 4078.68 -4.13144 -3.26527 0
M  V30 40592 H 4081.17 -3.1981 -2.0132 0
M  V30 40593 H 4081.48 -6.85174 -3.5743 0
M  V30 40594 H 4079.83 -6.15874 -3.22062 0
M  V30 40595 H 4083.02 -4.00569 -2.42202 0
M  V30 40596 H 4083.19 -5.67167 -3.13409 0
M  V30 40597 N 4076.6 0.94594 -1.26054 0
M  V30 40598 C 4078.01 1.50636 -1.10299 0
M  V30 40599 C 4078.36 1.936 0.318343 0
M  V30 40600 O 4077.49 1.79457 1.20931 0
M  V30 40601 C 4078.08 2.73755 -1.99609 0
M  V30 40602 C 4076.64 3.2608 -1.88013 0
M  V30 40603 C 4075.79 1.98879 -1.93242 0
M  V30 40604 H 4078.74 0.761922 -1.39214 0
M  V30 40605 H 4078.76 3.4789 -1.54119 0
M  V30 40606 H 4078.27 2.42453 -3.03048 0
M  V30 40607 H 4076.37 3.62182 -0.87491 0
M  V30 40608 H 4076.49 3.93508 -2.73291 0
M  V30 40609 H 4074.85 2.14566 -1.37235 0
M  V30 40610 H 4075.63 1.69914 -2.98302 0
M  V30 40611 N 4078.08 1.07781 1.14983 0
M  V30 40612 C 4079.33 0.802032 1.85504 0
M  V30 40613 C 4079.65 -0.673994 1.82982 0
M  V30 40614 O 4078.92 -1.48834 1.27379 0
M  V30 40615 H 4077.5 0.293701 0.68684 0
M  V30 40616 H 4080.16 1.36247 1.39366 0
M  V30 40617 H 4079.25 1.14047 2.90516 0
M  V30 40618 N 4079.56 -1.31901 0.862549 0
M  V30 40619 C 4080.8 -1.97267 0.470505 0
M  V30 40620 C 4081.13 -1.68059 -0.973124 0
M  V30 40621 O 4080.41 -0.973065 -1.68409 0
M  V30 40622 C 4080.69 -3.5284 0.719424 0
M  V30 40623 C 4080.55 -3.91649 2.21205 0
M  V30 40624 C 4081.86 -4.39728 0.180997 0
M  V30 40625 H 4078.98 -0.716547 0.172421 0
M  V30 40626 H 4081.63 -1.56152 1.08243 0
M  V30 40627 H 4079.78 -3.87992 0.198584 0
M  V30 40628 H 4081.45 -3.66636 2.79957 0
M  V30 40629 H 4079.69 -3.40523 2.6875 0
M  V30 40630 H 4080.36 -5.00094 2.33688 0
M  V30 40631 H 4082.84 -4.11357 0.626494 0
M  V30 40632 H 4081.71 -5.4755 0.384672 0
M  V30 40633 H 4081.97 -4.32492 -0.91668 0
M  V30 40634 N 4081.03 -0.621255 -1.44838 0
M  V30 40635 C 4081.97 0.12784 -2.28843 0
M  V30 40636 C 4082.98 0.818517 -1.40727 0
M  V30 40637 O 4084.17 0.681616 -1.64973 0
M  V30 40638 C 4081.27 1.20275 -3.16839 0
M  V30 40639 C 4080.44 0.596523 -4.33313 0
M  V30 40640 C 4079.5 1.5641 -5.02416 0
M  V30 40641 O 4078.53 1.08508 -5.58762 0
M  V30 40642 N 4079.73 2.89851 -5.02958 0
M  V30 40643 H 4082.49 -0.593045 -2.93774 0
M  V30 40644 H 4080.05 -0.461707 -1.55177 0
M  V30 40645 H 4082.05 1.85015 -3.59933 0
M  V30 40646 H 4080.62 1.82599 -2.53725 0
M  V30 40647 H 4079.84 -0.229272 -3.93533 0
M  V30 40648 H 4081.12 0.171971 -5.08509 0
M  V30 40649 H 4080.52 3.31359 -4.58495 0
M  V30 40650 H 4079.08 3.49978 -5.49872 0
M  V30 40651 N 4082.51 1.53405 -0.361211 0
M  V30 40652 C 4083.42 2.29311 0.495353 0
M  V30 40653 C 4084.44 1.35106 1.09647 0
M  V30 40654 O 4085.61 1.68159 1.10835 0
M  V30 40655 C 4082.68 3.06434 1.62171 0
M  V30 40656 C 4081.74 4.16297 1.04858 0
M  V30 40657 C 4080.97 4.89733 2.12126 0
M  V30 40658 O 4081.2 4.6299 3.33161 0
M  V30 40659 O 4080.13 5.75768 1.75428 0
M  V30 40660 H 4083.96 3.03454 -0.122208 0
M  V30 40661 H 4081.54 1.4887 -0.125722 0
M  V30 40662 H 4083.42 3.54607 2.27667 0
M  V30 40663 H 4082.1 2.35131 2.22475 0
M  V30 40664 H 4081.01 3.72386 0.357651 0
M  V30 40665 H 4082.34 4.89753 0.490153 0
M  V30 40666 N 4083.99 0.0902663 1.57341 0
M  V30 40667 C 4085.23 -0.578006 1.96057 0
M  V30 40668 C 4085.59 -1.65649 0.970795 0
M  V30 40669 O 4086.8 -2.38163 1.24627 0
M  V30 40670 C 4085.07 -1.12322 3.39291 0
M  V30 40671 S 4086.63 -1.80404 4 0
M  V30 40672 H 4083.44 -0.18875 0.685488 0
M  V30 40673 H 4086.05 0.168521 1.94772 0
M  V30 40674 H 4084.75 -0.326714 4.09097 0
M  V30 40675 H 4084.28 -1.90568 3.44162 0
M  V30 40676 H 4086.3 -3.08791 3.8841 0
M  V30 40677 N 4085.47 -1.56529 -0.183403 0
M  V30 40678 C 4086.7 -1.85158 -0.916524 0
M  V30 40679 C 4087.11 -0.672094 -1.7686 0
M  V30 40680 O 4086.45 0.368268 -1.79971 0
M  V30 40681 C 4086.51 -3.08043 -1.85336 0
M  V30 40682 C 4086.18 -4.41447 -1.18209 0
M  V30 40683 C 4087.17 -5.16947 -0.553354 0
M  V30 40684 C 4084.86 -4.88184 -1.18245 0
M  V30 40685 C 4086.85 -6.37366 0.0660542 0
M  V30 40686 C 4084.54 -6.08536 -0.559209 0
M  V30 40687 C 4085.54 -6.8297 0.0639501 0
M  V30 40688 O 4085.22 -8.01041 0.677392 0
M  V30 40689 H 4084.96 -0.618718 -0.272332 0
M  V30 40690 H 4087.51 -2.045 -0.192049 0
M  V30 40691 H 4085.74 -2.84616 -2.61784 0
M  V30 40692 H 4087.43 -3.2322 -2.45528 0
M  V30 40693 H 4088.2 -4.81927 -0.545134 0
M  V30 40694 H 4084.07 -4.30196 -1.65689 0
M  V30 40695 H 4087.62 -6.95404 0.553057 0
M  V30 40696 H 4083.52 -6.43023 -0.564971 0
M  V30 40697 H 4084.28 -8.16475 0.575448 0
M  V30 40698 N 4086.95 0.451537 -1.50993 0
M  V30 40699 C 4087.9 1.54507 -1.67665 0
M  V30 40700 C 4088.88 1.51891 -0.530837 0
M  V30 40701 O 4090.07 1.58584 -0.786131 0
M  V30 40702 C 4087.2 2.92812 -1.79209 0
M  V30 40703 C 4086.29 3.00238 -2.99529 0
M  V30 40704 N 4086.68 2.77436 -4.22922 0
M  V30 40705 C 4084.98 3.3139 -2.98491 0
M  V30 40706 C 4085.68 2.90337 -5.04063 0
M  V30 40707 N 4084.65 3.21391 -4.38416 0
M  V30 40708 H 4088.46 1.35608 -2.60745 0
M  V30 40709 H 4085.97 0.658613 -1.48445 0
M  V30 40710 H 4087.97 3.71465 -1.8926 0
M  V30 40711 H 4086.63 3.12744 -0.873009 0
M  V30 40712 H 4087.64 2.52637 -4.521 0
M  V30 40713 H 4084.31 3.57185 -2.1616 0
M  V30 40714 H 4085.7 2.76781 -6.12243 0
M  V30 40715 N 4088.42 1.409 0.706044 0
M  V30 40716 C 4089.67 1.39417 1.46312 0
M  V30 40717 C 4089.99 0.000530869 1.95 0
M  V30 40718 O 4089.26 -0.955874 1.70997 0
M  V30 40719 H 4087.84 0.513145 0.542854 0
M  V30 40720 H 4090.51 1.76042 0.836365 0
M  V30 40721 H 4089.6 2.07495 2.33136 0
M  V30 40722 N 4089.9 -0.939242 1.26554 0
M  V30 40723 C 4090.85 -2.05956 1.08096 0
M  V30 40724 C 4091.84 -1.69398 0.00733257 0
M  V30 40725 O 4093.05 -1.7925 0.164163 0
M  V30 40726 H 4089.43 -0.674389 0.332722 0
M  V30 40727 H 4091.4 -2.18676 2.03036 0
M  V30 40728 C 4090.15 -3.39892 0.732732 0
M  V30 40729 H 4089.47 -3.685 1.55074 0
M  V30 40730 H 4090.91 -4.1909 0.643378 0
M  V30 40731 C 4089.37 -3.32175 -0.562242 0
M  V30 40732 O 4089.9 -3.6846 -1.6 0
M  V30 40733 N 4088.1 -2.85278 -0.553593 0
M  V30 40734 H 4087.65 -2.55948 0.29131 0
M  V30 40735 H 4087.61 -2.80498 -1.42015 0
M  V30 40736 N 4091.38 -1.08389 -1.14409 0
M  V30 40737 C 4092.63 -0.811859 -1.85076 0
M  V30 40738 C 4092.95 0.66428 -1.83337 0
M  V30 40739 O 4092.22 1.48156 -1.28166 0
M  V30 40740 H 4090.8 -0.29734 -0.685272 0
M  V30 40741 H 4093.46 -1.36984 -1.38641 0
M  V30 40742 H 4092.56 -1.15586 -2.89907 0
M  V30 40743 N 4092.86 1.31442 -0.869532 0
M  V30 40744 C 4093.79 2.27456 -0.282209 0
M  V30 40745 C 4094.8 1.53066 0.554503 0
M  V30 40746 O 4095.99 1.74483 0.376567 0
M  V30 40747 C 4093.09 3.33207 0.618593 0
M  V30 40748 C 4092.27 4.37006 -0.185582 0
M  V30 40749 C 4091.32 5.22253 0.643291 0
M  V30 40750 O 4090.35 5.69155 0.0714827 0
M  V30 40751 N 4091.55 5.46577 1.95536 0
M  V30 40752 H 4094.32 2.78494 -1.10731 0
M  V30 40753 H 4091.88 1.44459 -0.730972 0
M  V30 40754 H 4093.87 3.87152 1.17879 0
M  V30 40755 H 4092.44 2.82215 1.34437 0
M  V30 40756 H 4091.66 3.8314 -0.927223 0
M  V30 40757 H 4092.95 5.03428 -0.737399 0
M  V30 40758 H 4092.35 5.10227 2.44306 0
M  V30 40759 H 4090.9 6.03459 2.46334 0
M  V30 40760 N 4094.34 0.628927 1.44507 0
M  V30 40761 C 4095.56 0.137814 2.06942 0
M  V30 40762 C 4095.99 -1.17764 1.46674 0
M  V30 40763 O 4095.34 -1.72193 0.567372 0
M  V30 40764 C 4095.39 0.0342476 3.60584 0
M  V30 40765 O 4094.5 -1.01031 3.99833 0
M  V30 40766 H 4093.84 0.0837705 0.658695 0
M  V30 40767 H 4096.37 0.864983 1.85416 0
M  V30 40768 H 4096.38 -0.157051 4.07698 0
M  V30 40769 H 4095.05 0.994654 4.03831 0
M  V30 40770 H 4093.63 -0.79376 3.64354 0
M  V30 40771 N 4095.82 -1.53211 0.369342 0
M  V30 40772 C 4097.05 -2.05431 -0.219503 0
M  V30 40773 C 4097.45 -1.24236 -1.42696 0
M  V30 40774 O 4096.8 -0.27697 -1.816 0
M  V30 40775 C 4096.86 -3.53136 -0.673461 0
M  V30 40776 C 4096.52 -4.55086 0.417817 0
M  V30 40777 C 4097.52 -5.04178 1.26889 0
M  V30 40778 C 4095.2 -4.9895 0.579136 0
M  V30 40779 C 4097.2 -5.95739 2.26658 0
M  V30 40780 C 4094.89 -5.90316 1.58019 0
M  V30 40781 C 4095.88 -6.38601 2.42235 0
M  V30 40782 O 4095.57 -7.28165 3.40633 0
M  V30 40783 H 4095.3 -0.674724 -0.0415114 0
M  V30 40784 H 4097.86 -1.9852 0.527158 0
M  V30 40785 H 4096.09 -3.57597 -1.47178 0
M  V30 40786 H 4097.78 -3.88195 -1.18573 0
M  V30 40787 H 4098.54 -4.71035 1.15547 0
M  V30 40788 H 4094.42 -4.60952 -0.0665943 0
M  V30 40789 H 4097.97 -6.3335 2.92428 0
M  V30 40790 H 4093.86 -6.22873 1.69407 0
M  V30 40791 H 4094.63 -7.46172 3.36406 0
M  V30 40792 N 4097.29 -0.0986092 -1.57291 0
M  V30 40793 C 4098.71 0.258037 -1.575 0
M  V30 40794 C 4098.91 1.6817 -1.11 0
M  V30 40795 O 4097.97 2.39887 -0.788062 0
M  V30 40796 C 4099.28 0.0432686 -3.00669 0
M  V30 40797 C 4100.83 0.110747 -3.12804 0
M  V30 40798 C 4101.3 -0.0760712 -4.57937 0
M  V30 40799 N 4102.79 -0.0213544 -4.63195 0
M  V30 40800 C 4103.53 -0.141101 -5.73226 0
M  V30 40801 N 4103.02 -0.315878 -6.9208 0
M  V30 40802 N 4104.82 -0.082121 -5.6204 0
M  V30 40803 H 4096.97 -1.02874 -1.85824 0
M  V30 40804 H 4099.23 -0.403456 -0.857862 0
M  V30 40805 H 4098.94 -0.940163 -3.38901 0
M  V30 40806 H 4098.81 0.784059 -3.68961 0
M  V30 40807 H 4101.2 1.08469 -2.74442 0
M  V30 40808 H 4101.28 -0.661592 -2.47096 0
M  V30 40809 H 4100.92 -1.04689 -4.96994 0
M  V30 40810 H 4100.85 0.716004 -5.2171 0
M  V30 40811 H 4103.34 0.111048 -3.77737 0
M  V30 40812 H 4103.66 -0.398667 -7.71771 0
M  V30 40813 H 4102 -0.351591 -6.9411 0
M  V30 40814 H 4105.19 0.0533145 -4.6807 0
M  V30 40815 H 4105.37 -0.178891 -6.47753 0
M  V30 40816 N 4098.77 1.56624 0.175099 0
M  V30 40817 C 4100.02 1.8142 0.890573 0
M  V30 40818 C 4100.34 0.67499 1.82945 0
M  V30 40819 O 4099.61 -0.305405 1.93505 0
M  V30 40820 H 4098.19 0.669241 0.331852 0
M  V30 40821 H 4100.85 1.94105 0.175821 0
M  V30 40822 H 4099.95 2.75327 1.46974 0
M  V30 40823 N 4100.25 -0.443523 1.5123 0
M  V30 40824 C 4101.48 -1.21606 1.67391 0
M  V30 40825 C 4101.89 -1.85166 0.368645 0
M  V30 40826 O 4101.25 -1.70446 -0.652252 0
M  V30 40827 C 4101.3 -2.30464 2.78511 0
M  V30 40828 O 4101.02 -1.69505 4.0398 0
M  V30 40829 C 4102.52 -3.20855 3.05887 0
M  V30 40830 H 4099.74 -0.366757 0.561899 0
M  V30 40831 H 4102.29 -0.526277 1.97612 0
M  V30 40832 H 4100.44 -2.95169 2.50906 0
M  V30 40833 H 4100.86 -2.41401 4.65645 0
M  V30 40834 H 4102.33 -3.93386 3.87236 0
M  V30 40835 H 4102.81 -3.81251 2.18046 0
M  V30 40836 H 4103.41 -2.61858 3.35127 0
M  V30 40837 N 4101.73 -1.41272 -0.698562 0
M  V30 40838 C 4102.96 -1.4361 -1.48525 0
M  V30 40839 C 4103.37 -0.0389261 -1.8916 0
M  V30 40840 O 4102.71 0.95143 -1.57142 0
M  V30 40841 C 4102.77 -2.27884 -2.78045 0
M  V30 40842 C 4102.43 -3.76086 -2.59631 0
M  V30 40843 C 4103.43 -4.68319 -2.25774 0
M  V30 40844 C 4101.12 -4.20094 -2.75365 0
M  V30 40845 C 4103.11 -6.02547 -2.07884 0
M  V30 40846 C 4100.8 -5.54389 -2.57092 0
M  V30 40847 C 4101.8 -6.45431 -2.23401 0
M  V30 40848 O 4101.48 -7.77247 -2.05285 0
M  V30 40849 H 4101.22 -0.491282 -0.464347 0
M  V30 40850 H 4103.77 -1.86165 -0.86785 0
M  V30 40851 H 4102 -1.80138 -3.4218 0
M  V30 40852 H 4103.69 -2.21959 -3.39837 0
M  V30 40853 H 4104.45 -4.3561 -2.13235 0
M  V30 40854 H 4100.33 -3.49538 -3.00573 0
M  V30 40855 H 4103.88 -6.73573 -1.8151 0
M  V30 40856 H 4099.77 -5.86678 -2.6922 0
M  V30 40857 H 4100.54 -7.8836 -2.20071 0
M  V30 40858 N 4103.21 0.932517 -1.27051 0
M  V30 40859 C 4104.43 1.71917 -1.16014 0
M  V30 40860 C 4104.86 1.86006 0.279918 0
M  V30 40861 O 4104.21 1.35659 1.20276 0
M  V30 40862 C 4104.26 3.09912 -1.84355 0
M  V30 40863 O 4103.37 3.96381 -1.13823 0
M  V30 40864 H 4102.71 0.527137 -0.403761 0
M  V30 40865 H 4105.24 1.16733 -1.68032 0
M  V30 40866 H 4105.25 3.60254 -1.91523 0
M  V30 40867 H 4103.92 2.98975 -2.89114 0
M  V30 40868 H 4102.5 3.54825 -1.14691 0
M  V30 40869 N 4104.68 1.08995 1.13833 0
M  V30 40870 C 4105.91 0.844956 1.8886 0
M  V30 40871 C 4106.33 -0.603413 1.78898 0
M  V30 40872 O 4105.68 -1.41506 1.15249 0
M  V30 40873 C 4105.73 1.26565 3.3862 0
M  V30 40874 O 4105.46 2.65721 3.48316 0
M  V30 40875 C 4106.96 1.05239 4.30627 0
M  V30 40876 H 4104.18 0.304298 0.598033 0
M  V30 40877 H 4106.72 1.45078 1.44127 0
M  V30 40878 H 4104.88 0.703804 3.80953 0
M  V30 40879 H 4105.29 2.83341 4.41382 0
M  V30 40880 H 4106.76 1.39607 5.34054 0
M  V30 40881 H 4107.24 -0.0101536 4.39199 0
M  V30 40882 H 4107.85 1.59997 3.94057 0
M  V30 40883 N 4106.16 -1.30979 0.87649 0
M  V30 40884 C 4107.39 -2.00634 0.50535 0
M  V30 40885 C 4107.8 -1.65755 -0.903922 0
M  V30 40886 O 4107.16 -0.890192 -1.59317 0
M  V30 40887 C 4107.21 -3.55415 0.660505 0
M  V30 40888 O 4106.93 -3.89048 2.01428 0
M  V30 40889 C 4108.43 -4.42342 0.291235 0
M  V30 40890 H 4105.65 -0.641673 0.196206 0
M  V30 40891 H 4108.2 -1.6706 1.17945 0
M  V30 40892 H 4106.35 -3.87385 0.0338757 0
M  V30 40893 H 4106.77 -4.83759 2.02676 0
M  V30 40894 H 4108.24 -5.50157 0.450727 0
M  V30 40895 H 4108.72 -4.32396 -0.770112 0
M  V30 40896 H 4109.32 -4.15801 0.893835 0
M  V30 40897 N 4107.64 -0.636582 -1.44171 0
M  V30 40898 C 4108.89 -0.143464 -2.02292 0
M  V30 40899 C 4109.22 1.23346 -1.49998 0
M  V30 40900 O 4108.49 1.81991 -0.68626 0
M  V30 40901 C 4108.78 -0.136088 -3.59843 0
M  V30 40902 C 4108.63 -1.54574 -4.22406 0
M  V30 40903 C 4109.95 0.536461 -4.36818 0
M  V30 40904 H 4107.07 -0.0536068 -0.735048 0
M  V30 40905 H 4109.71 -0.814096 -1.71675 0
M  V30 40906 H 4107.86 0.43498 -3.86057 0
M  V30 40907 H 4109.53 -2.16611 -4.0728 0
M  V30 40908 H 4107.77 -2.098 -3.79692 0
M  V30 40909 H 4108.45 -1.49257 -5.31438 0
M  V30 40910 H 4110.92 0.0507595 -4.16069 0
M  V30 40911 H 4109.8 0.51083 -5.46518 0
M  V30 40912 H 4110.06 1.60776 -4.11829 0
M  V30 40913 N 4109.12 1.53013 -0.377462 0
M  V30 40914 C 4110.35 2.05843 0.208908 0
M  V30 40915 C 4110.76 1.2501 1.41485 0
M  V30 40916 O 4110.12 0.293734 1.80121 0
M  V30 40917 C 4110.17 3.56641 0.590715 0
M  V30 40918 O 4109.89 4.34411 -0.567307 0
M  V30 40919 C 4111.39 4.25772 1.23421 0
M  V30 40920 H 4108.61 0.670123 0.0343019 0
M  V30 40921 H 4111.15 1.97262 -0.539269 0
M  V30 40922 H 4109.31 3.65334 1.2888 0
M  V30 40923 H 4109.72 5.23874 -0.256154 0
M  V30 40924 H 4111.2 5.32565 1.45183 0
M  V30 40925 H 4111.67 3.80239 2.19807 0
M  V30 40926 H 4112.28 4.21365 0.577229 0
M  V30 40927 N 4110.6 0.106949 1.57237 0
M  V30 40928 C 4111.84 -0.552854 1.94391 0
M  V30 40929 C 4112.17 -1.6798 0.990346 0
M  V30 40930 O 4111.44 -1.95849 0.0444847 0
M  V30 40931 H 4110.02 -0.207218 0.717684 0
M  V30 40932 H 4112.68 0.173064 1.9413 0
M  V30 40933 H 4111.77 -0.955317 2.9712 0
M  V30 40934 N 4112.07 -1.56715 -0.166791 0
M  V30 40935 C 4113.49 -1.50935 -0.518728 0
M  V30 40936 C 4113.69 -0.811996 -1.84415 0
M  V30 40937 O 4112.75 -0.37425 -2.49711 0
M  V30 40938 C 4114.06 -2.95677 -0.547304 0
M  V30 40939 C 4115.61 -3.06508 -0.634193 0
M  V30 40940 C 4116.08 -4.52717 -0.693619 0
M  V30 40941 N 4117.57 -4.56983 -0.756385 0
M  V30 40942 C 4118.31 -5.67463 -0.823017 0
M  V30 40943 N 4117.8 -6.87563 -0.850205 0
M  V30 40944 N 4119.6 -5.55445 -0.862384 0
M  V30 40945 H 4111.75 -2.00455 0.702256 0
M  V30 40946 H 4114.01 -0.913409 0.253747 0
M  V30 40947 H 4113.72 -3.49873 0.358007 0
M  V30 40948 H 4113.59 -3.50567 -1.39221 0
M  V30 40949 H 4115.98 -2.52343 -1.52993 0
M  V30 40950 H 4116.06 -2.54695 0.237474 0
M  V30 40951 H 4115.7 -5.07514 0.197878 0
M  V30 40952 H 4115.63 -5.02291 -1.5815 0
M  V30 40953 H 4118.12 -3.70514 -0.743474 0
M  V30 40954 H 4118.44 -7.67514 -0.902346 0
M  V30 40955 H 4116.78 -6.90165 -0.818407 0
M  V30 40956 H 4119.97 -4.60535 -0.838177 0
M  V30 40957 H 4120.15 -6.41566 -0.910849 0
M  V30 40958 N 4113.55 0.435497 -1.51463 0
M  V30 40959 C 4114.78 1.20716 -1.68033 0
M  V30 40960 C 4115.2 1.84968 -0.378459 0
M  V30 40961 O 4114.55 1.7079 0.643204 0
M  V30 40962 C 4114.6 2.28984 -2.7973 0
M  V30 40963 O 4114.32 1.6736 -4.04873 0
M  V30 40964 C 4115.83 3.19229 -3.07584 0
M  V30 40965 H 4113.05 0.363771 -0.563836 0
M  V30 40966 H 4115.59 0.51579 -1.97888 0
M  V30 40967 H 4113.74 2.93834 -2.52468 0
M  V30 40968 H 4114.16 2.38928 -4.66919 0
M  V30 40969 H 4115.63 3.91327 -3.89316 0
M  V30 40970 H 4116.11 3.80089 -2.20065 0
M  V30 40971 H 4116.72 2.60077 -3.36511 0
M  V30 40972 N 4115.03 1.41641 0.69106 0
M  V30 40973 C 4116.27 1.42712 1.46331 0
M  V30 40974 C 4116.63 0.0362451 1.91966 0
M  V30 40975 O 4117.84 -0.0782668 2.68686 0
M  V30 40976 C 4116.11 2.40959 2.63958 0
M  V30 40977 S 4117.67 2.60597 3.53037 0
M  V30 40978 H 4114.48 0.505501 0.49999 0
M  V30 40979 H 4117.09 1.78115 0.80594 0
M  V30 40980 H 4115.79 3.40808 2.28643 0
M  V30 40981 H 4115.32 2.06924 3.34583 0
M  V30 40982 H 4117.34 1.87676 4.59339 0
M  V30 40983 N 4116.51 -0.925766 1.27543 0
M  V30 40984 C 4117.44 -2.03094 1.06233 0
M  V30 40985 C 4118.45 -1.6279 0.017802 0
M  V30 40986 O 4119.64 -1.76603 0.259571 0
M  V30 40987 C 4116.74 -3.33728 0.589836 0
M  V30 40988 C 4115.92 -4.02713 1.70708 0
M  V30 40989 C 4114.97 -5.11622 1.23 0
M  V30 40990 O 4114 -5.3548 1.93002 0
M  V30 40991 N 4115.2 -5.80435 0.0866951 0
M  V30 40992 H 4117.97 -2.21937 2.01405 0
M  V30 40993 H 4115.53 -1.09628 1.19136 0
M  V30 40994 H 4117.52 -4.03899 0.25453 0
M  V30 40995 H 4116.09 -3.11443 -0.268707 0
M  V30 40996 H 4115.31 -3.26249 2.21258 0
M  V30 40997 H 4116.6 -4.45551 2.45687 0
M  V30 40998 H 4116 -5.63508 -0.497539 0
M  V30 40999 H 4114.55 -6.51525 -0.189418 0
M  V30 41000 N 4117.99 -1.09597 -1.13253 0
M  V30 41001 C 4118.95 -0.740519 -2.16908 0
M  V30 41002 C 4119.95 0.230766 -1.59136 0
M  V30 41003 O 4121.14 0.00872489 -1.74198 0
M  V30 41004 C 4118.27 -0.0954103 -3.40766 0
M  V30 41005 H 4119.46 -1.65852 -2.49866 0
M  V30 41006 H 4117.02 -0.895381 -1.28112 0
M  V30 41007 H 4117.75 0.833739 -3.134 0
M  V30 41008 H 4117.54 -0.794315 -3.8397 0
M  V30 41009 H 4119.03 0.137819 -4.17373 0
M  V30 41010 N 4119.46 1.30512 -0.883424 0
M  V30 41011 C 4120.71 1.96871 -0.511193 0
M  V30 41012 C 4121.07 1.68481 0.929081 0
M  V30 41013 O 4120.36 0.978246 1.64745 0
M  V30 41014 C 4120.55 3.50058 -0.720716 0
M  V30 41015 C 4120.38 3.93338 -2.1798 0
M  V30 41016 C 4119.15 4.19016 -2.82408 0
M  V30 41017 C 4121.35 4.06278 -3.15345 0
M  V30 41018 N 4119.33 4.48745 -4.18928 0
M  V30 41019 C 4120.7 4.39873 -4.36935 0
M  V30 41020 C 4122.76 3.88699 -3.11155 0
M  V30 41021 C 4121.46 4.57722 -5.54872 0
M  V30 41022 C 4123.49 4.07749 -4.28363 0
M  V30 41023 C 4122.85 4.41688 -5.48718 0
M  V30 41024 H 4118.95 0.745426 -0.236356 0
M  V30 41025 H 4121.53 1.57775 -1.14084 0
M  V30 41026 H 4119.7 3.88213 -0.12057 0
M  V30 41027 H 4121.43 4.03468 -0.315539 0
M  V30 41028 H 4118.19 4.12159 -2.33284 0
M  V30 41029 H 4118.61 4.67747 -4.8943 0
M  V30 41030 H 4123.26 3.61537 -2.19204 0
M  V30 41031 H 4120.97 4.83726 -6.47329 0
M  V30 41032 H 4124.56 3.95618 -4.26588 0
M  V30 41033 H 4123.44 4.56125 -6.37902 0
M  V30 41034 N 4120.94 0.644219 1.43832 0
M  V30 41035 C 4122.17 0.159755 2.06784 0
M  V30 41036 C 4122.59 -1.16201 1.47915 0
M  V30 41037 O 4121.95 -1.71582 0.585604 0
M  V30 41038 C 4122 0.0724904 3.60527 0
M  V30 41039 O 4121.1 -0.967847 4.00882 0
M  V30 41040 H 4120.44 0.0907522 0.657769 0
M  V30 41041 H 4122.97 0.884601 1.84488 0
M  V30 41042 H 4122.98 -0.113801 4.07841 0
M  V30 41043 H 4121.66 1.03743 4.02753 0
M  V30 41044 H 4120.24 -0.755071 3.65175 0
M  V30 41045 N 4122.42 -1.52811 0.385571 0
M  V30 41046 C 4123.65 -2.06428 -0.200532 0
M  V30 41047 C 4124.07 -1.25572 -1.40047 0
M  V30 41048 O 4123.43 -0.279814 -1.79128 0
M  V30 41049 C 4123.48 -3.56341 -0.55256 0
M  V30 41050 O 4122.58 -3.78082 -1.64704 0
M  V30 41051 H 4121.92 -0.663549 -0.024456 0
M  V30 41052 H 4124.45 -1.97014 0.551962 0
M  V30 41053 H 4124.46 -3.99717 -0.817925 0
M  V30 41054 H 4123.14 -4.1463 0.324738 0
M  V30 41055 H 4121.71 -3.46597 -1.37568 0
M  V30 41056 N 4123.9 -0.115287 -1.57178 0
M  V30 41057 C 4124.83 0.873461 -2.10822 0
M  V30 41058 C 4125.81 1.2633 -1.0237 0
M  V30 41059 O 4126.99 1.365 -1.3 0
M  V30 41060 C 4124.12 2.16842 -2.60187 0
M  V30 41061 C 4123.17 1.92693 -3.80489 0
M  V30 41062 S 4124 1.14657 -5.23081 0
M  V30 41063 C 4125.16 2.45341 -5.75811 0
M  V30 41064 H 4125.39 0.417167 -2.94359 0
M  V30 41065 H 4122.92 0.0984146 -1.54086 0
M  V30 41066 H 4124.88 2.91248 -2.89283 0
M  V30 41067 H 4123.54 2.5959 -1.76839 0
M  V30 41068 H 4122.73 2.88636 -4.13165 0
M  V30 41069 H 4122.34 1.26409 -3.5199 0
M  V30 41070 H 4124.63 3.41202 -5.8531 0
M  V30 41071 H 4125.57 2.17214 -6.73961 0
M  V30 41072 H 4125.98 2.54538 -5.03856 0
M  V30 41073 N 4125.38 1.56801 0.158477 0
M  V30 41074 C 4126.61 1.86863 0.888239 0
M  V30 41075 C 4127.02 0.702172 1.75257 0
M  V30 41076 O 4126.38 -0.3284 1.79521 0
M  V30 41077 C 4126.43 3.16073 1.75442 0
M  V30 41078 O 4126.15 4.28225 0.924944 0
M  V30 41079 C 4127.65 3.59571 2.59275 0
M  V30 41080 H 4124.87 0.619659 0.257418 0
M  V30 41081 H 4127.41 2.03914 0.154714 0
M  V30 41082 H 4125.57 3.00811 2.44114 0
M  V30 41083 H 4125.98 5.02036 1.51854 0
M  V30 41084 H 4127.46 4.52848 3.15647 0
M  V30 41085 H 4127.93 2.84305 3.34765 0
M  V30 41086 H 4128.54 3.77489 1.95914 0
M  V30 41087 N 4126.86 -0.427458 1.51692 0
M  V30 41088 C 4128.27 -1.00698 1.57216 0
M  V30 41089 C 4128.62 -1.92047 0.401561 0
M  V30 41090 O 4127.74 -2.11 -0.480427 0
M  V30 41091 C 4128.34 -1.83304 2.8493 0
M  V30 41092 C 4126.9 -2.36288 2.92993 0
M  V30 41093 C 4126.04 -1.15767 2.51979 0
M  V30 41094 H 4128.99 -0.208358 1.57326 0
M  V30 41095 H 4129.02 -2.68858 2.6925 0
M  V30 41096 H 4128.53 -1.16792 3.7011 0
M  V30 41097 H 4126.63 -3.06226 2.12266 0
M  V30 41098 H 4126.74 -2.68409 3.96854 0
M  V30 41099 H 4125.11 -1.50604 2.05403 0
M  V30 41100 H 4125.89 -0.508508 3.39513 0
M  V30 41101 N 4128.33 -1.42005 -0.683539 0
M  V30 41102 C 4129.28 -1.4126 -1.78968 0
M  V30 41103 C 4130.27 -0.28518 -1.58353 0
M  V30 41104 O 4131.46 -0.526759 -1.6898 0
M  V30 41105 C 4128.59 -1.30894 -3.17367 0
M  V30 41106 C 4127.67 -2.48546 -3.43636 0
M  V30 41107 N 4128.07 -3.7399 -3.40537 0
M  V30 41108 C 4126.36 -2.42618 -3.74236 0
M  V30 41109 C 4127.06 -4.52089 -3.66047 0
M  V30 41110 N 4126.04 -3.82373 -3.86383 0
M  V30 41111 H 4129.84 -2.36154 -1.74953 0
M  V30 41112 H 4127.36 -1.36231 -0.884025 0
M  V30 41113 H 4129.35 -1.28442 -3.96621 0
M  V30 41114 H 4128.01 -0.369944 -3.22586 0
M  V30 41115 H 4129.02 -4.06707 -3.20639 0
M  V30 41116 H 4125.7 -1.57253 -3.86753 0
M  V30 41117 H 4127.09 -5.61055 -3.69685 0
M  V30 41118 N 4129.81 0.918989 -1.28033 0
M  V30 41119 C 4131.04 1.70677 -1.17831 0
M  V30 41120 C 4131.46 1.86292 0.260174 0
M  V30 41121 O 4130.82 1.36927 1.18831 0
M  V30 41122 C 4130.87 3.0794 -1.87631 0
M  V30 41123 O 4129.97 3.95152 -1.18021 0
M  V30 41124 H 4129.31 0.522825 -0.409329 0
M  V30 41125 H 4131.84 1.14944 -1.6926 0
M  V30 41126 H 4131.85 3.58203 -1.95333 0
M  V30 41127 H 4130.53 2.95892 -2.92269 0
M  V30 41128 H 4129.1 3.53588 -1.18448 0
M  V30 41129 N 4131.29 1.10196 1.12671 0
M  V30 41130 C 4132.24 0.71785 2.16405 0
M  V30 41131 C 4133.22 -0.271747 1.58589 0
M  V30 41132 O 4134.42 -0.0808702 1.76815 0
M  V30 41133 C 4131.54 0.148584 3.42978 0
M  V30 41134 C 4130.63 1.16507 4.07783 0
M  V30 41135 N 4131.02 2.35493 4.47635 0
M  V30 41136 C 4129.32 1.00503 4.34529 0
M  V30 41137 C 4130.02 3.00217 4.98242 0
M  V30 41138 N 4129 2.27744 4.93592 0
M  V30 41139 H 4132.8 1.62364 2.4498 0
M  V30 41140 H 4130.31 0.979322 1.29549 0
M  V30 41141 H 4132.31 -0.144657 4.16649 0
M  V30 41142 H 4130.97 -0.751952 3.15873 0
M  V30 41143 H 4131.98 2.73034 4.40083 0
M  V30 41144 H 4128.66 0.159841 4.17194 0
M  V30 41145 H 4130.05 4.01414 5.3881 0
M  V30 41146 N 4132.77 -1.30042 0.890333 0
M  V30 41147 C 4133.99 -2.00623 0.525868 0
M  V30 41148 C 4134.42 -1.66263 -0.879681 0
M  V30 41149 O 4133.78 -0.882132 -1.58392 0
M  V30 41150 C 4133.82 -3.53458 0.714108 0
M  V30 41151 O 4132.93 -4.11715 -0.237613 0
M  V30 41152 H 4132.27 -0.63105 0.206571 0
M  V30 41153 H 4134.8 -1.65761 1.19935 0
M  V30 41154 H 4134.81 -4.03336 0.615157 0
M  V30 41155 H 4133.48 -3.77804 1.73887 0
M  V30 41156 H 4132.06 -3.72787 -0.0919067 0
M  V30 41157 N 4134.25 -0.651838 -1.43488 0
M  V30 41158 C 4135.66 -0.319277 -1.56374 0
M  V30 41159 C 4135.86 1.17667 -1.63575 0
M  V30 41160 O 4134.92 1.96146 -1.59006 0
M  V30 41161 C 4136.23 -1.02942 -2.8253 0
M  V30 41162 C 4137.78 -1.00954 -2.96272 0
M  V30 41163 C 4138.25 -1.70055 -4.25259 0
M  V30 41164 N 4139.74 -1.66812 -4.3212 0
M  V30 41165 C 4140.48 -2.17155 -5.30689 0
M  V30 41166 N 4139.98 -2.7578 -6.35545 0
M  V30 41167 N 4141.77 -2.07663 -5.22334 0
M  V30 41168 H 4133.92 -1.62262 -1.37057 0
M  V30 41169 H 4136.18 -0.6823 -0.658157 0
M  V30 41170 H 4135.89 -2.08453 -2.83267 0
M  V30 41171 H 4135.76 -0.580113 -3.72712 0
M  V30 41172 H 4138.15 0.0371599 -2.95077 0
M  V30 41173 H 4138.23 -1.49752 -2.07383 0
M  V30 41174 H 4137.87 -2.74681 -4.27215 0
M  V30 41175 H 4137.8 -1.18723 -5.13042 0
M  V30 41176 H 4140.3 -1.2403 -3.56966 0
M  V30 41177 H 4140.61 -3.11873 -7.07075 0
M  V30 41178 H 4138.95 -2.7984 -6.36172 0
M  V30 41179 H 4142.14 -1.61569 -4.39333 0
M  V30 41180 H 4142.32 -2.47205 -5.98994 0
M  V30 41181 N 4135.72 1.52604 -0.39367 0
M  V30 41182 C 4136.95 2.06053 0.187064 0
M  V30 41183 C 4137.37 1.26503 1.40151 0
M  V30 41184 O 4136.72 0.312822 1.79799 0
M  V30 41185 C 4136.77 3.57247 0.552856 0
M  V30 41186 O 4136.5 4.33785 -0.61335 0
M  V30 41187 C 4138 4.27057 1.18898 0
M  V30 41188 H 4135.22 0.670449 0.0271924 0
M  V30 41189 H 4137.76 1.96679 -0.560161 0
M  V30 41190 H 4135.92 3.6668 1.24998 0
M  V30 41191 H 4136.33 5.23573 -0.311703 0
M  V30 41192 H 4137.8 5.34075 1.39526 0
M  V30 41193 H 4138.28 3.82549 2.15762 0
M  V30 41194 H 4138.89 4.21953 0.532505 0
M  V30 41195 N 4137.2 0.12362 1.57114 0
M  V30 41196 C 4138.61 -0.401019 1.82342 0
M  V30 41197 C 4138.96 -1.66303 1.04105 0
M  V30 41198 O 4138.09 -2.14593 0.279061 0
M  V30 41199 C 4138.68 -0.734335 3.30746 0
M  V30 41200 C 4137.24 -1.20359 3.56638 0
M  V30 41201 C 4136.39 -0.214637 2.76468 0
M  V30 41202 H 4139.34 0.348684 1.54822 0
M  V30 41203 H 4139.36 -1.59131 3.45626 0
M  V30 41204 H 4138.87 0.184356 3.87662 0
M  V30 41205 H 4136.97 -2.13902 3.05085 0
M  V30 41206 H 4137.09 -1.14572 4.65199 0
M  V30 41207 H 4135.45 -0.702605 2.44817 0
M  V30 41208 H 4136.23 0.697233 3.36145 0
M  V30 41209 N 4138.68 -1.56883 -0.15016 0
M  V30 41210 C 4139.59 -2.01288 -1.205 0
M  V30 41211 C 4140.61 -0.927759 -1.47203 0
M  V30 41212 O 4141.78 -1.237 -1.58935 0
M  V30 41213 C 4138.85 -2.38188 -2.51927 0
M  V30 41214 C 4137.91 -3.60633 -2.329 0
M  V30 41215 C 4137.14 -3.95763 -3.5806 0
M  V30 41216 O 4137.36 -3.31595 -4.64113 0
M  V30 41217 O 4136.3 -4.89024 -3.50911 0
M  V30 41218 H 4140.12 -2.91327 -0.858024 0
M  V30 41219 H 4137.71 -1.45031 -0.358644 0
M  V30 41220 H 4139.59 -2.62796 -3.29418 0
M  V30 41221 H 4138.27 -1.51305 -2.86162 0
M  V30 41222 H 4137.17 -3.41216 -1.53371 0
M  V30 41223 H 4138.51 -4.48124 -2.03582 0
M  V30 41224 N 4140.16 0.419408 -1.51917 0
M  V30 41225 C 4141.39 1.18755 -1.69059 0
M  V30 41226 C 4141.8 1.85027 -0.3952 0
M  V30 41227 O 4141.14 1.72273 0.637785 0
M  V30 41228 C 4141.2 2.30044 -2.76261 0
M  V30 41229 C 4140.87 1.83993 -4.18325 0
M  V30 41230 C 4141.86 1.33338 -5.02511 0
M  V30 41231 C 4139.55 1.91139 -4.64512 0
M  V30 41232 C 4141.54 0.904387 -6.30951 0
M  V30 41233 C 4139.23 1.47851 -5.92945 0
M  V30 41234 C 4140.23 0.975848 -6.75993 0
M  V30 41235 O 4139.91 0.549177 -8.02022 0
M  V30 41236 H 4139.65 0.363292 -0.570083 0
M  V30 41237 H 4142.2 0.500935 -1.99198 0
M  V30 41238 H 4140.43 3.02037 -2.41475 0
M  V30 41239 H 4142.12 2.91843 -2.82103 0
M  V30 41240 H 4142.89 1.27198 -4.68023 0
M  V30 41241 H 4138.76 2.29209 -3.9998 0
M  V30 41242 H 4142.31 0.511352 -6.95723 0
M  V30 41243 H 4138.21 1.53667 -6.26942 0
M  V30 41244 H 4138.97 0.673415 -8.15725 0
M  V30 41245 N 4141.64 1.42366 0.675998 0
M  V30 41246 C 4142.87 1.45955 1.46222 0
M  V30 41247 C 4143.27 0.0690149 1.89074 0
M  V30 41248 O 4142.62 -0.92631 1.58635 0
M  V30 41249 C 4142.68 2.32279 2.74384 0
M  V30 41250 C 4142.34 3.80169 2.53615 0
M  V30 41251 C 4143.34 4.71851 2.18295 0
M  V30 41252 C 4141.03 4.24422 2.68647 0
M  V30 41253 C 4143.02 6.05778 1.98271 0
M  V30 41254 C 4140.71 5.58409 2.4824 0
M  V30 41255 C 4141.7 6.48903 2.13105 0
M  V30 41256 O 4141.39 7.80415 1.92893 0
M  V30 41257 H 4141.12 0.498607 0.456473 0
M  V30 41258 H 4143.68 1.87522 0.838123 0
M  V30 41259 H 4141.91 1.85559 3.39271 0
M  V30 41260 H 4143.6 2.27337 3.36263 0
M  V30 41261 H 4144.36 4.38947 2.06278 0
M  V30 41262 H 4140.24 3.54276 2.94974 0
M  V30 41263 H 4143.79 6.76375 1.70771 0
M  V30 41264 H 4139.68 5.90887 2.59852 0
M  V30 41265 H 4140.45 7.91761 2.07501 0
M  V30 41266 N 4143.11 -0.912187 1.28518 0
M  V30 41267 C 4144.53 -1.47658 1.14254 0
M  V30 41268 C 4144.88 -1.94376 -0.266901 0
M  V30 41269 O 4144 -1.826 -1.1613 0
M  V30 41270 C 4144.6 -2.68366 2.06797 0
M  V30 41271 C 4143.16 -3.2098 1.96592 0
M  V30 41272 C 4142.3 -1.93685 1.98447 0
M  V30 41273 H 4145.25 -0.724744 1.41185 0
M  V30 41274 H 4145.27 -3.43682 1.63288 0
M  V30 41275 H 4144.79 -2.34333 3.0937 0
M  V30 41276 H 4142.89 -3.59735 0.970629 0
M  V30 41277 H 4143 -3.86124 2.83629 0
M  V30 41278 H 4141.36 -2.10852 1.42876 0
M  V30 41279 H 4142.15 -1.61946 3.02702 0
M  V30 41280 N 4144.59 -1.10792 -1.12085 0
M  V30 41281 C 4145.54 -0.75504 -2.20004 0
M  V30 41282 C 4146.53 0.250471 -1.67538 0
M  V30 41283 O 4147.74 0.110454 -1.79661 0
M  V30 41284 H 4144.12 -0.226249 -0.717158 0
M  V30 41285 H 4146.09 -1.67404 -2.47019 0
M  V30 41286 C 4144.84 -0.207099 -3.47083 0
M  V30 41287 H 4144.16 -0.972059 -3.87803 0
M  V30 41288 H 4145.6 0.00170462 -4.24 0
M  V30 41289 C 4144.06 1.06106 -3.19755 0
M  V30 41290 O 4144.59 2.14194 -3.39829 0
M  V30 41291 N 4142.79 0.981164 -2.73535 0
M  V30 41292 H 4142.34 0.101473 -2.574 0
M  V30 41293 H 4142.3 1.83036 -2.55627 0
M  V30 41294 N 4146.07 1.29568 -0.897217 0
M  V30 41295 C 4147.03 2.26062 -0.377946 0
M  V30 41296 C 4148.03 1.53265 0.486468 0
M  V30 41297 O 4149.22 1.71737 0.291875 0
M  V30 41298 C 4146.36 3.37782 0.459986 0
M  V30 41299 H 4147.55 2.7351 -1.23014 0
M  V30 41300 H 4145.1 1.40967 -0.675139 0
M  V30 41301 H 4145.84 2.95671 1.33227 0
M  V30 41302 H 4145.62 3.91776 -0.159362 0
M  V30 41303 H 4147.11 4.09576 0.814681 0
M  V30 41304 N 4147.55 0.659438 1.4314 0
M  V30 41305 C 4148.8 0.175023 2.01341 0
M  V30 41306 C 4149.12 -1.21747 1.52324 0
M  V30 41307 O 4148.39 -1.81449 0.738456 0
M  V30 41308 H 4146.97 0.0617144 0.744446 0
M  V30 41309 H 4149.63 0.852502 1.75267 0
M  V30 41310 H 4148.73 0.164434 3.11667 0
M  V30 41311 N 4149.03 -1.52393 0.401757 0
M  V30 41312 C 4149.96 -2.29718 -0.418569 0
M  V30 41313 C 4150.94 -1.3362 -1.0526 0
M  V30 41314 O 4152.12 -1.62523 -1.06302 0
M  V30 41315 C 4149.25 -3.11317 -1.53944 0
M  V30 41316 C 4148.21 -4.15402 -1.0308 0
M  V30 41317 C 4147.53 -4.85301 -2.24471 0
M  V30 41318 C 4148.83 -5.22222 -0.0900038 0
M  V30 41319 H 4150.53 -2.98541 0.226629 0
M  V30 41320 H 4148.07 -1.43576 0.110436 0
M  V30 41321 H 4150.03 -3.64175 -2.12025 0
M  V30 41322 H 4148.75 -2.40249 -2.21241 0
M  V30 41323 H 4147.41 -3.63543 -0.472451 0
M  V30 41324 H 4147.06 -4.10769 -2.90306 0
M  V30 41325 H 4146.76 -5.55659 -1.91093 0
M  V30 41326 H 4148.28 -5.40968 -2.83171 0
M  V30 41327 H 4149.69 -5.70365 -0.579378 0
M  V30 41328 H 4148.09 -5.99901 0.15461 0
M  V30 41329 H 4149.16 -4.77258 0.857459 0
M  V30 41330 N 4150.5 -0.131951 -1.57047 0
M  V30 41331 C 4151.75 0.522773 -1.94808 0
M  V30 41332 C 4152.07 1.66997 -1.0184 0
M  V30 41333 O 4153.27 2.38832 -1.29119 0
M  V30 41334 C 4151.73 0.981373 -3.46262 0
M  V30 41335 C 4151.34 -0.138066 -4.47787 0
M  V30 41336 C 4153.08 1.60674 -3.92918 0
M  V30 41337 C 4150.99 0.337959 -5.90434 0
M  V30 41338 H 4149.92 0.199063 -0.727248 0
M  V30 41339 H 4152.57 -0.213883 -1.82249 0
M  V30 41340 H 4150.95 1.77284 -3.54099 0
M  V30 41341 H 4152.12 -0.91467 -4.51631 0
M  V30 41342 H 4150.44 -0.670895 -4.1096 0
M  V30 41343 H 4153.04 1.97425 -4.96918 0
M  V30 41344 H 4153.38 2.49005 -3.3362 0
M  V30 41345 H 4153.91 0.880445 -3.87934 0
M  V30 41346 H 4150.65 -0.509617 -6.53516 0
M  V30 41347 H 4150.17 1.08076 -5.89983 0
M  V30 41348 H 4151.85 0.79494 -6.42098 0
M  V30 41349 N 4151.98 1.5696 0.141838 0
M  V30 41350 C 4152.92 1.93812 1.20466 0
M  V30 41351 C 4153.89 0.804645 1.41295 0
M  V30 41352 O 4155.08 1.06073 1.55823 0
M  V30 41353 C 4152.2 2.21463 2.56265 0
M  V30 41354 C 4151.25 3.4409 2.52 0
M  V30 41355 S 4152.08 4.97474 1.9819 0
M  V30 41356 C 4153.24 5.28252 3.35709 0
M  V30 41357 H 4153.47 2.83657 0.890277 0
M  V30 41358 H 4151.01 1.50435 0.347667 0
M  V30 41359 H 4152.96 2.38072 3.34413 0
M  V30 41360 H 4151.62 1.32273 2.84891 0
M  V30 41361 H 4150.82 3.6073 3.51979 0
M  V30 41362 H 4150.42 3.26749 1.81964 0
M  V30 41363 H 4152.71 5.22036 4.31839 0
M  V30 41364 H 4153.65 6.29669 3.23917 0
M  V30 41365 H 4154.06 4.55759 3.33083 0
M  V30 41366 N 4153.46 -0.411345 1.52137 0
M  V30 41367 C 4154.41 -1.52156 1.7593 0
M  V30 41368 C 4155.4 -1.57395 0.626344 0
M  V30 41369 O 4156.61 -1.60829 0.808339 0
M  V30 41370 H 4152.98 -0.505988 0.556309 0
M  V30 41371 H 4154.95 -1.29273 2.68944 0
M  V30 41372 C 4153.7 -2.89549 1.92502 0
M  V30 41373 H 4153.03 -2.86259 2.79098 0
M  V30 41374 H 4154.47 -3.66529 2.1315 0
M  V30 41375 C 4152.93 -3.29726 0.69153 0
M  V30 41376 O 4153.46 -4.0145 -0.141641 0
M  V30 41377 N 4151.66 -2.85762 0.52807 0
M  V30 41378 H 4151.21 -2.27563 1.20717 0
M  V30 41379 H 4151.17 -3.13004 -0.295939 0
M  V30 41380 N 4154.94 -1.42722 -0.668439 0
M  V30 41381 C 4156.17 -1.46728 -1.45445 0
M  V30 41382 C 4156.58 -0.079041 -1.89035 0
M  V30 41383 O 4155.92 0.917884 -1.59124 0
M  V30 41384 C 4155.98 -2.33731 -2.73149 0
M  V30 41385 C 4155.65 -3.81508 -2.51596 0
M  V30 41386 C 4156.64 -4.73002 -2.15789 0
M  V30 41387 C 4154.33 -4.25841 -2.66392 0
M  V30 41388 C 4156.32 -6.06821 -1.95056 0
M  V30 41389 C 4154.01 -5.59717 -2.45275 0
M  V30 41390 C 4155.01 -6.50024 -2.09661 0
M  V30 41391 O 4154.7 -7.81427 -1.88752 0
M  V30 41392 H 4154.43 -0.501021 -0.453822 0
M  V30 41393 H 4156.98 -1.87964 -0.828167 0
M  V30 41394 H 4155.21 -1.87355 -3.38282 0
M  V30 41395 H 4156.9 -2.29118 -3.35052 0
M  V30 41396 H 4157.67 -4.40035 -2.03948 0
M  V30 41397 H 4153.55 -3.55835 -2.93091 0
M  V30 41398 H 4157.09 -6.77271 -1.67181 0
M  V30 41399 H 4152.99 -5.92257 -2.56715 0
M  V30 41400 H 4153.75 -7.9285 -2.03299 0
M  V30 41401 N 4156.42 0.905358 -1.29 0
M  V30 41402 C 4157.66 1.66967 -1.17904 0
M  V30 41403 C 4158.02 1.90144 0.266316 0
M  V30 41404 O 4159.22 2.64106 0.500141 0
M  V30 41405 C 4157.49 2.9859 -1.96415 0
M  V30 41406 S 4159.05 3.89649 -2.01789 0
M  V30 41407 H 4155.87 0.573314 -0.420515 0
M  V30 41408 H 4158.47 1.07621 -1.63212 0
M  V30 41409 H 4157.18 2.7943 -3.00578 0
M  V30 41410 H 4156.71 3.62979 -1.5169 0
M  V30 41411 H 4158.72 4.83151 -1.13048 0
M  V30 41412 N 4157.9 1.11385 1.11495 0
M  V30 41413 C 4159.31 0.84764 1.3523 0
M  V30 41414 C 4159.51 -0.527939 1.94461 0
M  V30 41415 O 4158.57 -1.27886 2.17718 0
M  V30 41416 C 4159.88 1.95527 2.2845 0
M  V30 41417 C 4161.43 1.98487 2.42016 0
M  V30 41418 C 4161.9 3.08452 3.38558 0
M  V30 41419 N 4163.39 3.07823 3.4612 0
M  V30 41420 C 4164.13 3.8955 4.2076 0
M  V30 41421 N 4163.63 4.81238 4.9838 0
M  V30 41422 N 4165.42 3.77729 4.16266 0
M  V30 41423 H 4157.57 2.00035 0.714121 0
M  V30 41424 H 4159.83 0.869848 0.376921 0
M  V30 41425 H 4159.54 2.94589 1.9212 0
M  V30 41426 H 4159.41 1.85095 3.28664 0
M  V30 41427 H 4161.8 1.00052 2.77621 0
M  V30 41428 H 4161.88 2.12995 1.41657 0
M  V30 41429 H 4161.52 4.07113 3.0368 0
M  V30 41430 H 4161.45 2.91184 4.38771 0
M  V30 41431 H 4163.95 2.41392 2.90755 0
M  V30 41432 H 4164.26 5.40134 5.52698 0
M  V30 41433 H 4162.6 4.8526 4.97542 0
M  V30 41434 H 4165.79 3.05443 3.54714 0
M  V30 41435 H 4165.97 4.41655 4.74178 0
M  V30 41436 N 4159.37 -1.2909 0.904076 0
M  V30 41437 C 4160.32 -2.29556 0.375069 0
M  V30 41438 C 4161.32 -1.60957 -0.528118 0
M  V30 41439 O 4162.52 -1.75258 -0.410434 0
M  V30 41440 H 4158.9 -0.744958 0.10267 0
M  V30 41441 H 4160.87 -2.71613 1.23568 0
M  V30 41442 C 4159.62 -3.45635 -0.37839 0
M  V30 41443 H 4158.94 -3.98617 0.307373 0
M  V30 41444 H 4160.38 -4.17956 -0.713331 0
M  V30 41445 C 4158.84 -2.9741 -1.58269 0
M  V30 41446 O 4159.37 -2.99057 -2.68193 0
M  V30 41447 N 4157.57 -2.53187 -1.42635 0
M  V30 41448 H 4157.12 -2.52045 -0.53206 0
M  V30 41449 H 4157.08 -2.21279 -2.23344 0
M  V30 41450 N 4160.85 -0.66702 -1.42789 0
M  V30 41451 C 4162.26 -0.26425 -1.8482 0
M  V30 41452 C 4162.61 1.19203 -1.55836 0
M  V30 41453 O 4161.74 1.91159 -1.01425 0
M  V30 41454 C 4162.33 -0.472819 -3.35485 0
M  V30 41455 C 4160.89 -0.124242 -3.76195 0
M  V30 41456 C 4160.04 -0.769036 -2.66423 0
M  V30 41457 H 4162.99 -0.869732 -1.32745 0
M  V30 41458 H 4163.01 0.277466 -3.79487 0
M  V30 41459 H 4162.52 -1.5328 -3.56548 0
M  V30 41460 H 4160.62 0.932603 -3.6074 0
M  V30 41461 H 4160.74 -0.559335 -4.75824 0
M  V30 41462 H 4159.1 -0.201039 -2.53905 0
M  V30 41463 H 4159.88 -1.83232 -2.90312 0
M  V30 41464 N 4162.33 1.52178 -0.409833 0
M  V30 41465 C 4163.61 1.9431 0.224308 0
M  V30 41466 C 4163.99 1.34677 1.62559 0
M  V30 41467 O 4163.33 0.522856 2.22438 0
M  V30 41468 C 4163.54 3.48242 0.229928 0
M  V30 41469 C 4164.89 4.2222 0.448937 0
M  V30 41470 O 4165.92 3.54855 0.309254 0
M  V30 41471 O 4164.78 5.41679 0.724324 0
M  V30 41472 H 4161.87 0.814235 0.144745 0
M  V30 41473 H 4164.42 1.63181 -0.465827 0
M  V30 41474 H 4163.19 3.8403 -0.750799 0
M  V30 41475 H 4162.81 3.85733 0.964133 0
M  V30 41476 N 4163.81 0.140278 1.56974 0
M  V30 41477 C 4164.77 -0.787802 2.15235 0
M  V30 41478 C 4165.77 -1.17992 1.09245 0
M  V30 41479 O 4166.96 -1.10195 1.34918 0
M  V30 41480 C 4164.09 -2.06816 2.70998 0
M  V30 41481 H 4165.29 -0.281113 2.9858 0
M  V30 41482 H 4162.84 -0.109123 1.55919 0
M  V30 41483 H 4163.57 -2.61867 1.91301 0
M  V30 41484 H 4163.36 -1.79627 3.48535 0
M  V30 41485 H 4164.85 -2.73115 3.15908 0
M  V30 41486 N 4165.29 -1.57033 -0.133512 0
M  V30 41487 C 4166.53 -1.84354 -0.845077 0
M  V30 41488 C 4166.86 -0.723896 -1.80204 0
M  V30 41489 O 4166.14 0.271451 -1.92596 0
M  V30 41490 C 4166.42 -3.22217 -1.60774 0
M  V30 41491 C 4166.28 -4.44762 -0.671359 0
M  V30 41492 C 4167.59 -3.57466 -2.56722 0
M  V30 41493 H 4164.71 -0.670577 -0.305771 0
M  V30 41494 H 4167.36 -1.89683 -0.109791 0
M  V30 41495 H 4165.51 -3.17805 -2.23455 0
M  V30 41496 H 4167.18 -4.61268 -0.0545112 0
M  V30 41497 H 4165.42 -4.33796 0.0181452 0
M  V30 41498 H 4166.09 -5.37862 -1.24132 0
M  V30 41499 H 4168.57 -3.62575 -2.04153 0
M  V30 41500 H 4167.44 -4.54934 -3.07125 0
M  V30 41501 H 4167.7 -2.84125 -3.38712 0
M  V30 41502 N 4166.76 0.403271 -1.52353 0
M  V30 41503 C 4167.73 1.47437 -1.75485 0
M  V30 41504 C 4168.73 1.48167 -0.624756 0
M  V30 41505 O 4169.92 1.49589 -0.892688 0
M  V30 41506 C 4167.05 2.86813 -1.84258 0
M  V30 41507 H 4168.24 1.28217 -2.7111 0
M  V30 41508 H 4165.79 0.634132 -1.42858 0
M  V30 41509 H 4166.53 3.11397 -0.905678 0
M  V30 41510 H 4166.31 2.87686 -2.66419 0
M  V30 41511 H 4167.8 3.64451 -2.03876 0
M  V30 41512 N 4168.24 1.43075 0.66086 0
M  V30 41513 C 4169.2 1.4732 1.75583 0
M  V30 41514 C 4170.2 0.358899 1.56744 0
M  V30 41515 O 4171.39 0.620328 1.62781 0
M  V30 41516 C 4168.53 1.31839 3.14374 0
M  V30 41517 H 4169.72 2.44828 1.73202 0
M  V30 41518 H 4167.27 1.29728 0.871805 0
M  V30 41519 H 4168.01 0.353084 3.22372 0
M  V30 41520 H 4167.79 2.12609 3.29454 0
M  V30 41521 H 4169.28 1.37725 3.94236 0
M  V30 41522 N 4169.72 -0.898504 1.29478 0
M  V30 41523 C 4171.13 -1.46438 1.15813 0
M  V30 41524 C 4171.48 -1.94648 -0.24627 0
M  V30 41525 O 4170.61 -1.83821 -1.14187 0
M  V30 41526 C 4171.2 -2.66158 2.09632 0
M  V30 41527 C 4169.76 -3.18877 1.99986 0
M  V30 41528 C 4168.91 -1.9157 2.0049 0
M  V30 41529 H 4171.86 -0.709729 1.41946 0
M  V30 41530 H 4171.88 -3.41931 1.66924 0
M  V30 41531 H 4171.39 -2.31039 3.11838 0
M  V30 41532 H 4169.49 -3.58686 1.00873 0
M  V30 41533 H 4169.61 -3.83094 2.87708 0
M  V30 41534 H 4167.97 -2.09325 1.45104 0
M  V30 41535 H 4168.75 -1.58726 3.04403 0
M  V30 41536 N 4171.2 -1.11974 -1.10903 0
M  V30 41537 C 4172.43 -0.893435 -1.86283 0
M  V30 41538 C 4172.84 0.560562 -1.80705 0
M  V30 41539 O 4172.18 1.39908 -1.19044 0
M  V30 41540 C 4172.24 -1.28392 -3.35791 0
M  V30 41541 C 4171.91 -2.74822 -3.65132 0
M  V30 41542 C 4172.9 -3.73027 -3.62142 0
M  V30 41543 C 4170.59 -3.11608 -3.93962 0
M  V30 41544 C 4172.58 -5.06035 -3.87566 0
M  V30 41545 C 4170.27 -4.44799 -4.19043 0
M  V30 41546 C 4171.27 -5.41822 -4.15835 0
M  V30 41547 O 4170.95 -6.72612 -4.40282 0
M  V30 41548 H 4170.69 -0.319457 -0.595754 0
M  V30 41549 H 4173.24 -1.49222 -1.41146 0
M  V30 41550 H 4171.47 -0.628314 -3.81561 0
M  V30 41551 H 4173.16 -1.03252 -3.92548 0
M  V30 41552 H 4173.93 -3.45954 -3.39913 0
M  V30 41553 H 4169.8 -2.36702 -3.95592 0
M  V30 41554 H 4173.35 -5.81755 -3.84977 0
M  V30 41555 H 4169.25 -4.71604 -4.40749 0
M  V30 41556 H 4170.01 -6.78485 -4.57821 0
M  V30 41557 N 4172.68 1.28609 -0.910909 0
M  V30 41558 C 4173.92 1.96871 -0.549651 0
M  V30 41559 C 4174.28 1.70149 0.889577 0
M  V30 41560 O 4175.48 2.31958 1.35827 0
M  V30 41561 C 4173.75 3.47219 -0.846983 0
M  V30 41562 S 4175.31 4.34792 -0.591716 0
M  V30 41563 H 4172.13 0.681258 -0.20349 0
M  V30 41564 H 4174.73 1.56193 -1.17575 0
M  V30 41565 H 4173.44 3.64163 -1.89245 0
M  V30 41566 H 4172.97 3.92842 -0.209429 0
M  V30 41567 H 4174.98 4.9305 0.558227 0
M  V30 41568 N 4174.15 0.674583 1.42433 0
M  V30 41569 C 4175.38 0.204852 2.05582 0
M  V30 41570 C 4175.79 -1.14303 1.5077 0
M  V30 41571 O 4175.14 -1.7211 0.642162 0
M  V30 41572 C 4175.2 0.0622521 3.59446 0
M  V30 41573 C 4174.86 1.33881 4.3695 0
M  V30 41574 C 4175.86 2.27223 4.67617 0
M  V30 41575 C 4173.54 1.58635 4.76592 0
M  V30 41576 C 4175.54 3.43595 5.36862 0
M  V30 41577 C 4173.22 2.75296 5.45578 0
M  V30 41578 C 4174.22 3.67601 5.75638 0
M  V30 41579 O 4173.91 4.82222 6.43209 0
M  V30 41580 H 4173.64 0.0972201 0.668973 0
M  V30 41581 H 4176.2 0.921643 1.83562 0
M  V30 41582 H 4174.43 -0.710116 3.80124 0
M  V30 41583 H 4176.12 -0.367577 4.04232 0
M  V30 41584 H 4176.88 2.09348 4.37491 0
M  V30 41585 H 4172.76 0.876602 4.52589 0
M  V30 41586 H 4176.3 4.15661 5.60242 0
M  V30 41587 H 4172.2 2.93096 5.75122 0
M  V30 41588 H 4172.97 4.81763 6.617 0
M  V30 41589 N 4175.63 -1.51958 0.417898 0
M  V30 41590 C 4176.86 -2.06324 -0.154259 0
M  V30 41591 C 4177.28 -1.28717 -1.38121 0
M  V30 41592 O 4176.63 -0.341387 -1.79279 0
M  V30 41593 C 4176.68 -3.58082 -0.495951 0
M  V30 41594 O 4176.4 -4.32755 0.682284 0
M  V30 41595 C 4177.91 -4.28895 -1.12089 0
M  V30 41596 H 4175.13 -0.670797 -0.0165227 0
M  V30 41597 H 4177.67 -1.95762 0.59138 0
M  V30 41598 H 4175.82 -3.68622 -1.19148 0
M  V30 41599 H 4176.24 -5.23011 0.39496 0
M  V30 41600 H 4177.71 -5.36228 -1.31012 0
M  V30 41601 H 4178.19 -3.85933 -2.09648 0
M  V30 41602 H 4178.8 -4.22747 -0.465308 0
M  V30 41603 N 4177.11 -0.1486 -1.56898 0
M  V30 41604 C 4178.53 0.207798 -1.58241 0
M  V30 41605 C 4178.73 1.64554 -1.16294 0
M  V30 41606 O 4177.78 2.37259 -0.863981 0
M  V30 41607 C 4179.1 -0.0524088 -3.00654 0
M  V30 41608 C 4180.64 0.0111747 -3.12998 0
M  V30 41609 C 4181.12 -0.221722 -4.57463 0
M  V30 41610 N 4182.61 -0.168706 -4.62893 0
M  V30 41611 C 4183.34 -0.323397 -5.72487 0
M  V30 41612 N 4182.84 -0.535898 -6.90724 0
M  V30 41613 N 4184.63 -0.260888 -5.61494 0
M  V30 41614 H 4176.78 -1.08734 -1.82457 0
M  V30 41615 H 4179.05 -0.430544 -0.844592 0
M  V30 41616 H 4178.75 -1.04751 -3.35738 0
M  V30 41617 H 4178.63 0.66628 -3.71269 0
M  V30 41618 H 4181.01 0.996825 -2.77754 0
M  V30 41619 H 4181.1 -0.739869 -2.44866 0
M  V30 41620 H 4180.74 -1.20448 -4.93411 0
M  V30 41621 H 4180.67 0.549664 -5.23723 0
M  V30 41622 H 4183.16 -0.00918224 -3.77899 0
M  V30 41623 H 4183.47 -0.643998 -7.70112 0
M  V30 41624 H 4181.82 -0.572239 -6.9264 0
M  V30 41625 H 4185.01 -0.0956253 -4.68002 0
M  V30 41626 H 4185.18 -0.384879 -6.46856 0
M  V30 41627 N 4178.59 1.57102 0.125182 0
M  V30 41628 C 4179.87 1.75483 0.864002 0
M  V30 41629 C 4180.25 0.722434 1.98353 0
M  V30 41630 O 4179.59 -0.254744 2.27076 0
M  V30 41631 C 4179.8 3.20282 1.38639 0
M  V30 41632 C 4181.15 3.82604 1.84118 0
M  V30 41633 O 4182.18 3.23846 1.48332 0
M  V30 41634 O 4181.03 4.8587 2.50185 0
M  V30 41635 H 4178.13 0.718296 0.409853 0
M  V30 41636 H 4180.67 1.69347 0.109404 0
M  V30 41637 H 4179.45 3.86935 0.58287 0
M  V30 41638 H 4179.07 3.30931 2.20387 0
M  V30 41639 N 4180.07 -0.395186 1.52565 0
M  V30 41640 C 4181.48 -0.973401 1.59317 0
M  V30 41641 C 4181.83 -1.91152 0.442207 0
M  V30 41642 O 4180.95 -2.11971 -0.435563 0
M  V30 41643 C 4181.55 -1.77219 2.88754 0
M  V30 41644 C 4180.11 -2.3002 2.97939 0
M  V30 41645 C 4179.25 -1.10396 2.54378 0
M  V30 41646 H 4182.21 -0.17494 1.57733 0
M  V30 41647 H 4182.23 -2.63087 2.74892 0
M  V30 41648 H 4181.74 -1.08915 3.72504 0
M  V30 41649 H 4179.84 -3.01654 2.18713 0
M  V30 41650 H 4179.95 -2.59931 4.02458 0
M  V30 41651 H 4178.32 -1.46213 2.08551 0
M  V30 41652 H 4179.1 -0.436378 3.40515 0
M  V30 41653 N 4181.54 -1.43423 -0.653263 0
M  V30 41654 C 4182.79 -1.44752 -1.41037 0
M  V30 41655 C 4183.11 -0.0729035 -1.94864 0
M  V30 41656 O 4182.38 0.891751 -1.74427 0
M  V30 41657 H 4180.96 -0.53294 -0.523435 0
M  V30 41658 H 4183.63 -1.79025 -0.770452 0
M  V30 41659 H 4182.72 -2.16005 -2.25274 0
M  V30 41660 N 4183.02 0.891625 -1.29953 0
M  V30 41661 C 4184.27 1.64528 -1.18567 0
M  V30 41662 C 4184.6 1.92445 0.260506 0
M  V30 41663 O 4183.88 1.54064 1.1872 0
M  V30 41664 C 4184.16 2.98931 -2.0078 0
M  V30 41665 C 4184.01 2.78029 -3.53582 0
M  V30 41666 C 4185.33 3.99769 -1.84045 0
M  V30 41667 H 4182.45 0.597053 -0.432084 0
M  V30 41668 H 4185.09 1.03224 -1.59514 0
M  V30 41669 H 4183.24 3.51255 -1.65987 0
M  V30 41670 H 4184.91 2.32543 -3.98398 0
M  V30 41671 H 4183.16 2.12658 -3.78099 0
M  V30 41672 H 4183.83 3.73568 -4.06387 0
M  V30 41673 H 4186.3 3.56582 -2.1445 0
M  V30 41674 H 4185.18 4.91733 -2.43905 0
M  V30 41675 H 4185.44 4.34842 -0.797802 0
M  V30 41676 N 4184.5 1.12561 1.10308 0
M  V30 41677 C 4185.92 0.861935 1.34324 0
M  V30 41678 C 4186.12 -0.507284 1.9501 0
M  V30 41679 O 4185.17 -1.2557 2.19063 0
M  V30 41680 C 4186.49 1.97939 2.26364 0
M  V30 41681 C 4188.03 2.01043 2.39897 0
M  V30 41682 C 4188.51 3.12026 3.35267 0
M  V30 41683 N 4190 3.11477 3.42836 0
M  V30 41684 C 4190.74 3.93991 4.16604 0
M  V30 41685 N 4190.23 4.86496 4.93247 0
M  V30 41686 N 4192.02 3.82123 4.12236 0
M  V30 41687 H 4184.18 2.00781 0.692864 0
M  V30 41688 H 4186.44 0.873796 0.367674 0
M  V30 41689 H 4186.14 2.9661 1.88985 0
M  V30 41690 H 4186.02 1.8857 3.26682 0
M  V30 41691 H 4188.41 1.02991 2.76545 0
M  V30 41692 H 4188.49 2.14486 1.39389 0
M  V30 41693 H 4188.13 4.10311 2.99345 0
M  V30 41694 H 4188.06 2.95821 4.35657 0
M  V30 41695 H 4190.55 2.44462 2.88178 0
M  V30 41696 H 4190.86 5.45965 5.46938 0
M  V30 41697 H 4189.21 4.90509 4.92367 0
M  V30 41698 H 4192.4 3.09188 3.51454 0
M  V30 41699 H 4192.57 4.4666 4.69467 0
M  V30 41700 N 4185.98 -1.28124 0.917717 0
M  V30 41701 C 4187.23 -1.95447 0.56321 0
M  V30 41702 C 4187.58 -1.70885 -0.884084 0
M  V30 41703 O 4186.87 -1.02158 -1.62093 0
M  V30 41704 C 4187.07 -3.48024 0.813275 0
M  V30 41705 C 4186.9 -3.8742 2.28332 0
M  V30 41706 C 4185.67 -4.11381 2.93418 0
M  V30 41707 C 4187.86 -3.97774 3.26006 0
M  V30 41708 N 4185.85 -4.3748 4.30679 0
M  V30 41709 C 4187.22 -4.28133 4.48444 0
M  V30 41710 C 4189.27 -3.80313 3.21351 0
M  V30 41711 C 4187.98 -4.42849 5.66813 0
M  V30 41712 C 4190 -3.96248 4.39023 0
M  V30 41713 C 4189.36 -4.26984 5.60236 0
M  V30 41714 H 4185.46 -0.738897 0.256037 0
M  V30 41715 H 4188.05 -1.54695 1.18227 0
M  V30 41716 H 4186.22 -3.87757 0.223455 0
M  V30 41717 H 4187.95 -4.0249 0.4224 0
M  V30 41718 H 4184.7 -4.05829 2.4413 0
M  V30 41719 H 4185.13 -4.54606 5.0166 0
M  V30 41720 H 4189.77 -3.55598 2.28713 0
M  V30 41721 H 4187.49 -4.66393 6.59926 0
M  V30 41722 H 4191.07 -3.84169 4.36928 0
M  V30 41723 H 4189.95 -4.39052 6.49771 0
M  V30 41724 N 4187.46 -0.682127 -1.42073 0
M  V30 41725 C 4188.37 -0.00849349 -2.34598 0
M  V30 41726 C 4189.38 0.780846 -1.55495 0
M  V30 41727 O 4190.56 0.721491 -1.88033 0
M  V30 41728 C 4187.62 0.926026 -3.34104 0
M  V30 41729 C 4186.69 0.130399 -4.29102 0
M  V30 41730 C 4185.92 1.02041 -5.23854 0
M  V30 41731 O 4186.14 2.25995 -5.2372 0
M  V30 41732 O 4185.08 0.477284 -6.00005 0
M  V30 41733 H 4188.9 -0.77083 -2.93755 0
M  V30 41734 H 4186.49 -0.442393 -1.427 0
M  V30 41735 H 4188.37 1.46229 -3.95215 0
M  V30 41736 H 4187.04 1.66809 -2.7741 0
M  V30 41737 H 4185.95 -0.450148 -3.71382 0
M  V30 41738 H 4187.28 -0.572705 -4.88857 0
M  V30 41739 N 4188.94 1.51735 -0.425951 0
M  V30 41740 C 4190.17 2.06104 0.143107 0
M  V30 41741 C 4190.57 1.29446 1.37987 0
M  V30 41742 O 4189.92 0.344179 1.80447 0
M  V30 41743 C 4189.98 3.55392 0.541933 0
M  V30 41744 C 4189.64 4.53222 -0.586431 0
M  V30 41745 C 4190.64 4.99121 -1.45513 0
M  V30 41746 C 4188.32 4.96457 -0.763919 0
M  V30 41747 C 4190.32 5.86916 -2.48613 0
M  V30 41748 C 4188.01 5.84045 -1.7982 0
M  V30 41749 C 4189 6.29171 -2.65769 0
M  V30 41750 O 4188.69 7.15021 -3.67423 0
M  V30 41751 H 4188.42 0.6758 0.0164409 0
M  V30 41752 H 4190.98 1.96427 -0.600474 0
M  V30 41753 H 4189.21 3.62813 1.33805 0
M  V30 41754 H 4190.9 3.92328 1.04084 0
M  V30 41755 H 4191.66 4.66422 -1.32949 0
M  V30 41756 H 4187.54 4.60881 -0.104531 0
M  V30 41757 H 4191.09 6.2206 -3.15732 0
M  V30 41758 H 4186.98 6.16157 -1.92408 0
M  V30 41759 H 4187.75 7.33173 -3.63868 0
M  V30 41760 N 4190.41 0.156919 1.56817 0
M  V30 41761 C 4191.65 -0.494331 1.98332 0
M  V30 41762 C 4192.02 -1.61382 1.04018 0
M  V30 41763 O 4193.22 -2.32662 1.34617 0
M  V30 41764 C 4191.49 -0.978304 3.4375 0
M  V30 41765 S 4193.05 -1.63276 4.07292 0
M  V30 41766 H 4189.87 -0.159507 0.692877 0
M  V30 41767 H 4192.47 0.250979 1.93882 0
M  V30 41768 H 4191.17 -0.152908 4.10115 0
M  V30 41769 H 4190.7 -1.758 3.51935 0
M  V30 41770 H 4192.72 -2.9204 4.01157 0
M  V30 41771 N 4191.89 -1.57166 -0.116849 0
M  V30 41772 C 4192.84 -2.01483 -1.16222 0
M  V30 41773 C 4193.83 -0.912119 -1.42747 0
M  V30 41774 O 4195.04 -1.09732 -1.42684 0
M  V30 41775 H 4191.41 -0.641801 -0.391913 0
M  V30 41776 H 4193.39 -2.88508 -0.761967 0
M  V30 41777 C 4192.13 -2.43685 -2.48018 0
M  V30 41778 H 4191.46 -3.28105 -2.28446 0
M  V30 41779 H 4192.9 -2.78489 -3.19718 0
M  V30 41780 C 4191.36 -1.30135 -3.10752 0
M  V30 41781 O 4191.89 -0.618501 -3.9691 0
M  V30 41782 N 4190.09 -1.05786 -2.70662 0
M  V30 41783 H 4189.64 -1.61493 -2.00693 0
M  V30 41784 H 4189.6 -0.300064 -3.12965 0
M  V30 41785 N 4193.37 0.38709 -1.52772 0
M  V30 41786 C 4194.3 1.47938 -1.80656 0
M  V30 41787 C 4195.28 1.56828 -0.658705 0
M  V30 41788 O 4196.47 1.71746 -0.90648 0
M  V30 41789 C 4193.6 2.85528 -1.97714 0
M  V30 41790 C 4192.55 2.91476 -3.13409 0
M  V30 41791 C 4191.88 4.31534 -3.15725 0
M  V30 41792 C 4193.18 2.60949 -4.52441 0
M  V30 41793 H 4194.87 1.24853 -2.72125 0
M  V30 41794 H 4192.42 0.599187 -1.30942 0
M  V30 41795 H 4194.37 3.61948 -2.15804 0
M  V30 41796 H 4193.09 3.09954 -1.02936 0
M  V30 41797 H 4191.75 2.17504 -2.95106 0
M  V30 41798 H 4191.4 4.53003 -2.18626 0
M  V30 41799 H 4191.1 4.36434 -3.93445 0
M  V30 41800 H 4192.62 5.09858 -3.35972 0
M  V30 41801 H 4194.04 3.27086 -4.70837 0
M  V30 41802 H 4192.43 2.77196 -5.32243 0
M  V30 41803 H 4193.5 1.56281 -4.59025 0
M  V30 41804 N 4194.85 1.43768 0.645648 0
M  V30 41805 C 4196.08 1.4924 1.43301 0
M  V30 41806 C 4196.49 0.112644 1.88464 0
M  V30 41807 O 4195.85 -0.878636 1.59957 0
M  V30 41808 C 4195.9 2.44475 2.66298 0
M  V30 41809 O 4195.62 3.77085 2.23021 0
M  V30 41810 C 4197.12 2.59265 3.59578 0
M  V30 41811 H 4194.34 0.506624 0.439969 0
M  V30 41812 H 4196.88 1.88587 0.790891 0
M  V30 41813 H 4195.04 2.08302 3.26633 0
M  V30 41814 H 4195.45 4.28368 3.02657 0
M  V30 41815 H 4196.93 3.29961 4.42527 0
M  V30 41816 H 4197.4 1.64008 4.07428 0
M  V30 41817 H 4198.01 2.96279 3.05121 0
M  V30 41818 N 4196.33 -0.884721 1.30424 0
M  V30 41819 C 4197.26 -1.99612 1.12641 0
M  V30 41820 C 4198.27 -1.62651 0.0695835 0
M  V30 41821 O 4199.46 -1.75687 0.315624 0
M  V30 41822 C 4196.56 -3.31682 0.69571 0
M  V30 41823 C 4195.73 -3.97078 1.83434 0
M  V30 41824 C 4194.79 -5.0745 1.39215 0
M  V30 41825 O 4193.82 -5.29069 2.09941 0
M  V30 41826 N 4195.02 -5.79866 0.271312 0
M  V30 41827 H 4197.78 -2.15417 2.08364 0
M  V30 41828 H 4195.35 -1.05782 1.22563 0
M  V30 41829 H 4197.34 -4.02885 0.382899 0
M  V30 41830 H 4195.91 -3.1214 -0.169488 0
M  V30 41831 H 4195.13 -3.19045 2.31525 0
M  V30 41832 H 4196.42 -4.37509 2.59737 0
M  V30 41833 H 4195.81 -5.64805 -0.318012 0
M  V30 41834 H 4194.37 -6.51798 0.0179552 0
M  V30 41835 N 4197.8 -1.13144 -1.09709 0
M  V30 41836 C 4199.04 -0.901585 -1.83442 0
M  V30 41837 C 4199.41 0.56224 -1.83583 0
M  V30 41838 O 4200.61 0.909551 -2.52944 0
M  V30 41839 C 4198.88 -1.46976 -3.2578 0
M  V30 41840 S 4200.44 -1.37953 -4.16551 0
M  V30 41841 H 4197.26 -0.325048 -0.632349 0
M  V30 41842 H 4199.86 -1.44241 -1.31965 0
M  V30 41843 H 4198.56 -2.52857 -3.23252 0
M  V30 41844 H 4198.09 -0.926755 -3.82328 0
M  V30 41845 H 4200.11 -0.35602 -4.94921 0
M  V30 41846 N 4199.28 1.27635 -0.924498 0
M  V30 41847 C 4200.51 1.99158 -0.578875 0
M  V30 41848 C 4200.93 1.68536 0.83529 0
M  V30 41849 O 4200.29 0.923817 1.55998 0
M  V30 41850 C 4200.34 3.51441 -0.80757 0
M  V30 41851 O 4199.44 4.122 0.12837 0
M  V30 41852 H 4198.78 0.625352 -0.223229 0
M  V30 41853 H 4201.31 1.62523 -1.24288 0
M  V30 41854 H 4201.32 4.01563 -0.721878 0
M  V30 41855 H 4200 3.73061 -1.83843 0
M  V30 41856 H 4198.58 3.72899 -0.0069634 0
M  V30 41857 N 4200.76 0.689652 1.41709 0
M  V30 41858 C 4202.04 0.146414 1.95051 0
M  V30 41859 C 4202.42 -1.34223 1.62934 0
M  V30 41860 O 4201.77 -2.08574 0.933235 0
M  V30 41861 C 4201.98 0.431388 3.46324 0
M  V30 41862 C 4203.32 0.355922 4.23106 0
M  V30 41863 O 4204.35 0.365967 3.54315 0
M  V30 41864 O 4203.21 0.31092 5.45615 0
M  V30 41865 H 4200.3 0.0115145 0.82692 0
M  V30 41866 H 4202.85 0.765405 1.51458 0
M  V30 41867 H 4201.62 1.46203 3.62961 0
M  V30 41868 H 4201.24 -0.218873 3.96997 0
M  V30 41869 N 4202.24 -1.51507 0.433991 0
M  V30 41870 C 4203.2 -2.26235 -0.367465 0
M  V30 41871 C 4204.2 -1.29549 -0.95256 0
M  V30 41872 O 4205.39 -1.53289 -0.827536 0
M  V30 41873 C 4202.52 -3.05158 -1.51959 0
M  V30 41874 H 4203.72 -2.9852 0.287402 0
M  V30 41875 H 4201.27 -1.55176 0.187079 0
M  V30 41876 H 4202 -2.37282 -2.2106 0
M  V30 41877 H 4201.79 -3.76171 -1.10626 0
M  V30 41878 H 4203.28 -3.61773 -2.08591 0
M  V30 41879 N 4203.72 -0.165233 -1.56731 0
M  V30 41880 C 4204.63 0.780068 -2.21251 0
M  V30 41881 C 4205.64 1.25781 -1.20229 0
M  V30 41882 O 4206.82 1.31121 -1.5287 0
M  V30 41883 C 4203.88 1.99454 -2.83582 0
M  V30 41884 C 4202.94 1.56427 -3.99786 0
M  V30 41885 C 4202.18 2.72085 -4.59135 0
M  V30 41886 O 4202.4 3.88792 -4.17369 0
M  V30 41887 O 4201.33 2.4651 -5.49105 0
M  V30 41888 H 4205.16 0.26075 -3.02579 0
M  V30 41889 H 4202.75 0.0626753 -1.49268 0
M  V30 41890 H 4204.63 2.70493 -3.23127 0
M  V30 41891 H 4203.3 2.50304 -2.05255 0
M  V30 41892 H 4202.21 0.823564 -3.64922 0
M  V30 41893 H 4203.54 1.10275 -4.79688 0
M  V30 41894 N 4205.19 1.57226 0.108512 0
M  V30 41895 C 4206.44 1.85034 0.812826 0
M  V30 41896 C 4206.76 0.751976 1.79918 0
M  V30 41897 O 4206.03 -0.223059 1.94626 0
M  V30 41898 H 4204.61 0.682713 0.303169 0
M  V30 41899 H 4207.28 1.94676 0.0933357 0
M  V30 41900 H 4206.37 2.81313 1.35164 0
M  V30 41901 N 4206.67 -0.378982 1.52975 0
M  V30 41902 C 4207.9 -1.14397 1.72398 0
M  V30 41903 C 4208.32 -1.83436 0.446848 0
M  V30 41904 O 4207.67 -1.73059 -0.579373 0
M  V30 41905 C 4207.72 -2.18444 2.88035 0
M  V30 41906 O 4207.44 -1.52218 4.10806 0
M  V30 41907 C 4208.95 -3.07593 3.1922 0
M  V30 41908 H 4206.17 -0.342594 0.576949 0
M  V30 41909 H 4208.71 -0.44199 1.99666 0
M  V30 41910 H 4206.86 -2.84262 2.632 0
M  V30 41911 H 4207.28 -2.21434 4.75465 0
M  V30 41912 H 4208.75 -3.76608 4.03572 0
M  V30 41913 H 4209.23 -3.7166 2.3402 0
M  V30 41914 H 4209.84 -2.47409 3.45932 0
M  V30 41915 N 4208.15 -1.44108 -0.638015 0
M  V30 41916 C 4209.11 -1.50095 -1.73217 0
M  V30 41917 C 4210.11 -0.38379 -1.56153 0
M  V30 41918 O 4211.3 -0.646146 -1.61773 0
M  V30 41919 C 4208.44 -1.36824 -3.12237 0
M  V30 41920 H 4209.63 -2.47553 -1.69285 0
M  V30 41921 H 4207.18 -1.31098 -0.851056 0
M  V30 41922 H 4207.92 -0.404325 -3.2177 0
M  V30 41923 H 4207.7 -2.17824 -3.26029 0
M  V30 41924 H 4209.19 -1.43979 -3.91995 0
M  V30 41925 N 4209.63 0.877792 -1.30891 0
M  V30 41926 C 4210.87 1.63262 -1.20306 0
M  V30 41927 C 4211.21 1.9271 0.24008 0
M  V30 41928 O 4210.48 1.55315 1.17079 0
M  V30 41929 C 4210.77 2.96784 -2.03939 0
M  V30 41930 C 4210.62 2.74263 -3.56511 0
M  V30 41931 C 4211.94 3.97795 -1.88275 0
M  V30 41932 H 4209.06 0.592437 -0.438392 0
M  V30 41933 H 4211.7 1.01526 -1.606 0
M  V30 41934 H 4209.85 3.49475 -1.69704 0
M  V30 41935 H 4211.52 2.28305 -4.00842 0
M  V30 41936 H 4209.76 2.08636 -3.80333 0
M  V30 41937 H 4210.43 3.69237 -4.10327 0
M  V30 41938 H 4212.91 3.54287 -2.1822 0
M  V30 41939 H 4211.79 4.89119 -2.49107 0
M  V30 41940 H 4212.05 4.33971 -0.843878 0
M  V30 41941 N 4211.11 1.13725 1.09108 0
M  V30 41942 C 4212.07 0.820513 2.1401 0
M  V30 41943 C 4213.07 -0.171545 1.59882 0
M  V30 41944 O 4214.26 0.0559335 1.7411 0
M  V30 41945 C 4211.39 0.221818 3.40178 0
M  V30 41946 H 4212.58 1.75012 2.43538 0
M  V30 41947 H 4210.14 0.942312 1.247 0
M  V30 41948 H 4210.87 -0.716848 3.16278 0
M  V30 41949 H 4210.66 0.936275 3.80758 0
M  V30 41950 H 4212.15 0.0171813 4.17596 0
M  V30 41951 N 4212.58 -1.27143 0.931254 0
M  V30 41952 C 4214 -1.76188 0.617638 0
M  V30 41953 C 4214.35 -1.75994 -0.867208 0
M  V30 41954 O 4213.47 -1.36569 -1.67862 0
M  V30 41955 C 4214.07 -3.19947 1.11442 0
M  V30 41956 C 4212.63 -3.66644 0.851402 0
M  V30 41957 C 4211.77 -2.46452 1.27109 0
M  V30 41958 H 4214.72 -1.1336 1.11064 0
M  V30 41959 H 4214.74 -3.77664 0.463704 0
M  V30 41960 H 4214.26 -3.20056 2.19513 0
M  V30 41961 H 4212.36 -3.71977 -0.215352 0
M  V30 41962 H 4212.47 -4.55945 1.47144 0
M  V30 41963 H 4210.83 -2.45187 0.689597 0
M  V30 41964 H 4211.62 -2.49268 2.36051 0
M  V30 41965 N 4214.06 -0.697157 -1.41342 0
M  V30 41966 C 4215.47 -0.303393 -1.84218 0
M  V30 41967 C 4215.83 1.15871 -1.5833 0
M  V30 41968 O 4214.95 1.88965 -1.05457 0
M  V30 41969 C 4215.55 -0.543874 -3.34406 0
M  V30 41970 C 4214.1 -0.20401 -3.75847 0
M  V30 41971 C 4213.25 -0.825375 -2.64732 0
M  V30 41972 H 4216.2 -0.897694 -1.30871 0
M  V30 41973 H 4216.22 0.196908 -3.7999 0
M  V30 41974 H 4215.74 -1.60809 -3.53217 0
M  V30 41975 H 4213.84 0.855875 -3.62637 0
M  V30 41976 H 4213.95 -0.660138 -4.7453 0
M  V30 41977 H 4212.31 -0.254851 -2.53422 0
M  V30 41978 H 4213.1 -1.89349 -2.8636 0
M  V30 41979 N 4215.54 1.51274 -0.44202 0
M  V30 41980 C 4216.77 2.06543 0.121415 0
M  V30 41981 C 4217.18 1.30898 1.36056 0
M  V30 41982 O 4216.54 0.369865 1.78713 0
M  V30 41983 C 4216.59 3.58826 0.43892 0
M  V30 41984 O 4216.31 4.31614 -0.751045 0
M  V30 41985 C 4217.81 4.30624 1.05252 0
M  V30 41986 H 4215.03 0.670975 0.00584884 0
M  V30 41987 H 4217.58 1.94797 -0.622449 0
M  V30 41988 H 4215.73 3.70471 1.13269 0
M  V30 41989 H 4216.15 5.22316 -0.478116 0
M  V30 41990 H 4217.62 5.38244 1.22464 0
M  V30 41991 H 4218.1 3.89219 2.03482 0
M  V30 41992 H 4218.7 4.23434 0.397994 0
M  V30 41993 N 4217.02 0.173543 1.56642 0
M  V30 41994 C 4218.27 -0.471536 1.97242 0
M  V30 41995 C 4218.6 -1.62745 1.05961 0
M  V30 41996 O 4217.87 -1.94204 0.107185 0
M  V30 41997 C 4218.16 -0.952378 3.47278 0
M  V30 41998 C 4218.01 0.203868 4.49338 0
M  V30 41999 C 4219.33 -1.82528 4.00464 0
M  V30 42000 H 4216.45 -0.169928 0.717143 0
M  V30 42001 H 4219.09 0.260126 1.88211 0
M  V30 42002 H 4217.24 -1.57585 3.55105 0
M  V30 42003 H 4218.91 0.841016 4.53569 0
M  V30 42004 H 4217.15 0.85902 4.2521 0
M  V30 42005 H 4217.83 -0.174736 5.51723 0
M  V30 42006 H 4220.3 -1.29967 3.95282 0
M  V30 42007 H 4219.18 -2.13074 5.05856 0
M  V30 42008 H 4219.44 -2.77184 3.44414 0
M  V30 42009 N 4218.5 -1.57281 -0.100172 0
M  V30 42010 C 4219.73 -1.90031 -0.818274 0
M  V30 42011 C 4220.14 -0.766734 -1.7253 0
M  V30 42012 O 4219.5 0.261545 -1.80616 0
M  V30 42013 C 4219.55 -3.22367 -1.63591 0
M  V30 42014 O 4219.27 -4.31363 -0.765374 0
M  V30 42015 C 4220.77 -3.68946 -2.45752 0
M  V30 42016 H 4217.99 -0.628786 -0.234242 0
M  V30 42017 H 4220.53 -2.04348 -0.0789257 0
M  V30 42018 H 4218.69 -3.09663 -2.32782 0
M  V30 42019 H 4219.1 -5.07327 -1.33117 0
M  V30 42020 H 4220.58 -4.64251 -2.98622 0
M  V30 42021 H 4221.05 -2.96534 -3.23982 0
M  V30 42022 H 4221.66 -3.845 -1.81769 0
M  V30 42023 N 4219.98 0.370864 -1.53174 0
M  V30 42024 C 4221.39 0.947932 -1.60845 0
M  V30 42025 C 4221.74 1.90424 -0.472561 0
M  V30 42026 O 4220.86 2.12637 0.401785 0
M  V30 42027 C 4221.46 1.72602 -2.91537 0
M  V30 42028 C 4220.02 2.25251 -3.01561 0
M  V30 42029 C 4219.16 1.06335 -2.56102 0
M  V30 42030 H 4222.11 0.149824 -1.57991 0
M  V30 42031 H 4222.14 2.5868 -2.79043 0
M  V30 42032 H 4221.65 1.02975 -3.74189 0
M  V30 42033 H 4219.75 2.98136 -2.23485 0
M  V30 42034 H 4219.86 2.53495 -4.06543 0
M  V30 42035 H 4218.23 1.42877 -2.10851 0
M  V30 42036 H 4219.01 0.38215 -3.41166 0
M  V30 42037 N 4221.45 1.44444 0.630363 0
M  V30 42038 C 4222.7 1.47486 1.39197 0
M  V30 42039 C 4223.03 0.107347 1.93903 0
M  V30 42040 O 4222.31 -0.875128 1.737 0
M  V30 42041 C 4222.59 2.53585 2.55669 0
M  V30 42042 C 4222.44 3.99697 2.06307 0
M  V30 42043 C 4223.76 2.56181 3.57854 0
M  V30 42044 H 4220.88 0.536993 0.504785 0
M  V30 42045 H 4223.52 1.76128 0.712667 0
M  V30 42046 H 4221.67 2.29292 3.1362 0
M  V30 42047 H 4223.35 4.35124 1.53181 0
M  V30 42048 H 4221.59 4.11437 1.37484 0
M  V30 42049 H 4222.26 4.69583 2.90165 0
M  V30 42050 H 4224.74 2.77889 3.09705 0
M  V30 42051 H 4223.61 3.3232 4.36869 0
M  V30 42052 H 4223.87 1.60408 4.11973 0
M  V30 42053 N 4222.93 -0.870838 1.31355 0
M  V30 42054 C 4224.34 -1.43949 1.18894 0
M  V30 42055 C 4224.69 -1.95127 -0.204927 0
M  V30 42056 O 4223.82 -1.86202 -1.10262 0
M  V30 42057 C 4224.41 -2.61651 2.1523 0
M  V30 42058 C 4222.97 -3.14563 2.06705 0
M  V30 42059 C 4222.12 -1.87274 2.04509 0
M  V30 42060 H 4225.07 -0.67946 1.43419 0
M  V30 42061 H 4225.09 -3.38313 1.7414 0
M  V30 42062 H 4224.6 -2.24372 3.16668 0
M  V30 42063 H 4222.7 -3.56465 1.08458 0
M  V30 42064 H 4222.82 -3.76905 2.95769 0
M  V30 42065 H 4221.18 -2.062 1.49512 0
M  V30 42066 H 4221.96 -1.52234 3.07701 0
M  V30 42067 N 4224.41 -1.14302 -1.08503 0
M  V30 42068 C 4225.63 -0.934508 -1.85153 0
M  V30 42069 C 4226.06 0.511834 -1.81002 0
M  V30 42070 O 4225.42 1.36396 -1.19439 0
M  V30 42071 C 4225.47 -1.43877 -3.30654 0
M  V30 42072 O 4224.57 -0.630215 -4.07556 0
M  V30 42073 H 4223.91 -0.334194 -0.573769 0
M  V30 42074 H 4226.44 -1.52001 -1.36956 0
M  V30 42075 H 4226.45 -1.44651 -3.81497 0
M  V30 42076 H 4225.13 -2.49179 -3.3299 0
M  V30 42077 H 4223.7 -0.691132 -3.66439 0
M  V30 42078 N 4225.89 1.26648 -0.937984 0
M  V30 42079 C 4226.82 2.2887 -0.462689 0
M  V30 42080 C 4227.8 1.63117 0.482371 0
M  V30 42081 O 4228.98 1.90347 0.384914 0
M  V30 42082 C 4226.11 3.46202 0.275903 0
M  V30 42083 C 4225.07 4.2402 -0.582297 0
M  V30 42084 C 4224.39 5.33934 0.286067 0
M  V30 42085 C 4225.69 4.88362 -1.85202 0
M  V30 42086 H 4227.39 2.68877 -1.31702 0
M  V30 42087 H 4224.93 1.29256 -0.634732 0
M  V30 42088 H 4226.89 4.16823 0.619422 0
M  V30 42089 H 4225.61 3.0514 1.16435 0
M  V30 42090 H 4224.27 3.5516 -0.908666 0
M  V30 42091 H 4223.92 4.89113 1.17377 0
M  V30 42092 H 4223.62 5.8691 -0.284721 0
M  V30 42093 H 4225.14 6.07394 0.624928 0
M  V30 42094 H 4226.56 5.51214 -1.57594 0
M  V30 42095 H 4224.95 5.51441 -2.36712 0
M  V30 42096 H 4226.02 4.11483 -2.56534 0
M  V30 42097 N 4227.37 0.704643 1.4097 0
M  V30 42098 C 4228.28 0.045815 2.34555 0
M  V30 42099 C 4229.29 -0.756009 1.56718 0
M  V30 42100 O 4230.47 -0.691485 1.89157 0
M  V30 42101 C 4227.53 -0.872756 3.35535 0
M  V30 42102 C 4226.59 -0.0621166 4.29255 0
M  V30 42103 C 4225.83 -0.936938 5.25411 0
M  V30 42104 O 4226.05 -2.17635 5.27249 0
M  V30 42105 O 4224.98 -0.381768 6.00688 0
M  V30 42106 H 4228.81 0.817467 2.92491 0
M  V30 42107 H 4226.39 0.465039 1.41978 0
M  V30 42108 H 4228.28 -1.39923 3.97491 0
M  V30 42109 H 4226.95 -1.62374 2.80029 0
M  V30 42110 H 4225.86 0.509174 3.70619 0
M  V30 42111 H 4227.19 0.650406 4.87884 0
M  V30 42112 N 4228.84 -1.51038 0.450036 0
M  V30 42113 C 4229.81 -2.26612 -0.343449 0
M  V30 42114 C 4230.81 -1.30552 -0.938766 0
M  V30 42115 O 4232 -1.54158 -0.811231 0
M  V30 42116 C 4229.13 -3.06753 -1.48713 0
M  V30 42117 H 4230.32 -2.98198 0.319048 0
M  V30 42118 H 4227.88 -1.54969 0.203527 0
M  V30 42119 H 4228.61 -2.39614 -2.18531 0
M  V30 42120 H 4228.4 -3.77323 -1.0663 0
M  V30 42121 H 4229.89 -3.63965 -2.04742 0
M  V30 42122 N 4230.32 -0.181847 -1.56547 0
M  V30 42123 C 4231.73 0.333067 -1.83705 0
M  V30 42124 C 4232.08 1.62324 -1.10206 0
M  V30 42125 O 4231.21 2.1341 -0.358514 0
M  V30 42126 C 4231.8 0.611075 -3.33244 0
M  V30 42127 C 4230.36 1.0704 -3.60859 0
M  V30 42128 C 4229.51 0.11188 -2.77074 0
M  V30 42129 H 4232.46 -0.405905 -1.53421 0
M  V30 42130 H 4232.48 1.46194 -3.51294 0
M  V30 42131 H 4231.99 -0.328107 -3.86711 0
M  V30 42132 H 4230.1 2.02432 -3.12813 0
M  V30 42133 H 4230.21 0.972275 -4.69131 0
M  V30 42134 H 4228.57 0.611258 -2.47256 0
M  V30 42135 H 4229.36 -0.82151 -3.33326 0
M  V30 42136 N 4231.8 1.57332 0.09183 0
M  V30 42137 C 4233.03 1.90842 0.812047 0
M  V30 42138 C 4233.45 0.776424 1.71328 0
M  V30 42139 O 4232.81 -0.271836 1.79251 0
M  V30 42140 C 4232.86 3.23228 1.59862 0
M  V30 42141 O 4231.96 3.11048 2.70781 0
M  V30 42142 H 4231.3 0.625478 0.222875 0
M  V30 42143 H 4233.83 2.04493 0.0660759 0
M  V30 42144 H 4233.84 3.56616 1.98214 0
M  V30 42145 H 4232.52 4.05202 0.937225 0
M  V30 42146 H 4231.09 2.89181 2.35433 0
M  V30 42147 N 4233.28 -0.362736 1.53369 0
M  V30 42148 C 4234.19 -1.46829 1.82971 0
M  V30 42149 C 4235.2 -1.58481 0.718313 0
M  V30 42150 O 4236.38 -1.74321 1.00866 0
M  V30 42151 C 4233.45 -2.8206 2.01601 0
M  V30 42152 C 4232.51 -2.79912 3.25496 0
M  V30 42153 C 4231.74 -4.08694 3.43227 0
M  V30 42154 O 4231.96 -5.05003 2.65194 0
M  V30 42155 O 4230.9 -4.14332 4.36592 0
M  V30 42156 H 4234.72 -1.24736 2.76902 0
M  V30 42157 H 4232.31 -0.553107 1.38784 0
M  V30 42158 H 4234.19 -3.62183 2.15409 0
M  V30 42159 H 4232.86 -3.04125 1.1086 0
M  V30 42160 H 4231.77 -1.98477 3.17108 0
M  V30 42161 H 4233.1 -2.62801 4.16169 0
M  V30 42162 N 4234.76 -1.44777 -0.622694 0
M  V30 42163 C 4235.69 -1.48286 -1.74768 0
M  V30 42164 C 4236.7 -0.37528 -1.58416 0
M  V30 42165 O 4237.89 -0.641501 -1.66574 0
M  V30 42166 C 4234.99 -1.30914 -3.12593 0
M  V30 42167 C 4234.16 -2.55072 -3.55326 0
M  V30 42168 C 4233.22 -2.32477 -4.7206 0
M  V30 42169 O 4232.25 -3.06012 -4.79943 0
M  V30 42170 N 4233.45 -1.36073 -5.64326 0
M  V30 42171 H 4236.22 -2.45272 -1.72225 0
M  V30 42172 H 4233.78 -1.40324 -0.807521 0
M  V30 42173 H 4235.77 -1.13632 -3.8842 0
M  V30 42174 H 4234.34 -0.422613 -3.0973 0
M  V30 42175 H 4233.56 -2.87574 -2.6962 0
M  V30 42176 H 4234.85 -3.37635 -3.80631 0
M  V30 42177 H 4234.24 -0.753575 -5.60658 0
M  V30 42178 H 4232.8 -1.24767 -6.39747 0
M  V30 42179 N 4236.23 0.863859 -1.31815 0
M  V30 42180 C 4237.2 1.95319 -1.1993 0
M  V30 42181 C 4238.2 1.60315 -0.124759 0
M  V30 42182 O 4239.39 1.70127 -0.374484 0
M  V30 42183 C 4236.52 3.30331 -0.842292 0
M  V30 42184 H 4237.71 2.07287 -2.1673 0
M  V30 42185 H 4235.27 1.05291 -1.15514 0
M  V30 42186 H 4236 3.24062 0.124292 0
M  V30 42187 H 4235.79 3.57111 -1.61908 0
M  V30 42188 H 4237.28 4.1019 -0.783197 0
M  V30 42189 N 4237.71 1.14875 1.07895 0
M  V30 42190 C 4239.12 0.930462 1.61862 0
M  V30 42191 C 4239.47 -0.529525 1.88919 0
M  V30 42192 O 4238.6 -1.39951 1.65054 0
M  V30 42193 C 4239.19 1.68261 2.94064 0
M  V30 42194 C 4237.75 1.50975 3.44795 0
M  V30 42195 C 4236.9 1.70175 2.18942 0
M  V30 42196 H 4239.85 1.2998 0.910539 0
M  V30 42197 H 4239.87 1.14886 3.62742 0
M  V30 42198 H 4239.38 2.74517 2.7434 0
M  V30 42199 H 4237.49 0.470899 3.69612 0
M  V30 42200 H 4237.6 2.28313 4.21201 0
M  V30 42201 H 4235.96 1.12782 2.28369 0
M  V30 42202 H 4236.75 2.77785 2.01719 0
M  V30 42203 N 4239.19 -1.26148 0.944687 0
M  V30 42204 C 4240.42 -1.97673 0.610991 0
M  V30 42205 C 4240.83 -1.70313 -0.814788 0
M  V30 42206 O 4240.19 -0.973391 -1.54374 0
M  V30 42207 C 4240.24 -3.51414 0.847974 0
M  V30 42208 O 4239.96 -3.77824 2.21768 0
M  V30 42209 C 4241.46 -4.40177 0.525302 0
M  V30 42210 H 4238.68 -0.63037 0.229944 0
M  V30 42211 H 4241.23 -1.60573 1.26635 0
M  V30 42212 H 4239.38 -3.86661 0.239173 0
M  V30 42213 H 4239.8 -4.72335 2.28034 0
M  V30 42214 H 4241.27 -5.46994 0.74172 0
M  V30 42215 H 4241.75 -4.3587 -0.539826 0
M  V30 42216 H 4242.35 -4.10479 1.11299 0
M  V30 42217 N 4240.67 -0.712109 -1.40594 0
M  V30 42218 C 4241.58 -0.0582534 -2.34528 0
M  V30 42219 C 4242.59 0.747687 -1.57117 0
M  V30 42220 O 4243.77 0.681444 -1.89521 0
M  V30 42221 C 4240.84 0.854949 -3.35993 0
M  V30 42222 C 4239.9 0.0393513 -4.29282 0
M  V30 42223 C 4239.13 0.909061 -5.25901 0
M  V30 42224 O 4239.35 2.14835 -5.28396 0
M  V30 42225 O 4238.29 0.349907 -6.00882 0
M  V30 42226 H 4242.11 -0.832967 -2.92054 0
M  V30 42227 H 4239.7 -0.472562 -1.41729 0
M  V30 42228 H 4241.58 1.37813 -3.98228 0
M  V30 42229 H 4240.25 1.60887 -2.80886 0
M  V30 42230 H 4239.16 -0.528822 -3.70343 0
M  V30 42231 H 4240.49 -0.67627 -4.87532 0
M  V30 42232 N 4242.15 1.50797 -0.45804 0
M  V30 42233 C 4243.08 2.26045 0.378976 0
M  V30 42234 C 4244.09 1.30862 0.968457 0
M  V30 42235 O 4245.28 1.56468 0.859078 0
M  V30 42236 C 4242.38 3.01674 1.54422 0
M  V30 42237 C 4241.55 4.24113 1.06989 0
M  V30 42238 C 4240.61 4.82145 2.10766 0
M  V30 42239 O 4239.64 5.43421 1.69357 0
M  V30 42240 N 4240.84 4.67994 3.43456 0
M  V30 42241 H 4243.61 2.98517 -0.266052 0
M  V30 42242 H 4241.17 1.59316 -0.28808 0
M  V30 42243 H 4243.16 3.37379 2.23512 0
M  V30 42244 H 4241.73 2.32083 2.09419 0
M  V30 42245 H 4240.95 3.93665 0.205325 0
M  V30 42246 H 4242.24 5.03526 0.730697 0
M  V30 42247 H 4241.63 4.19232 3.79817 0
M  V30 42248 H 4240.19 5.08004 4.08381 0
M  V30 42249 N 4243.63 0.190147 1.56449 0
M  V30 42250 C 4245.04 -0.16577 1.58737 0
M  V30 42251 C 4245.24 -1.61412 1.20616 0
M  V30 42252 O 4244.3 -2.34884 0.926582 0
M  V30 42253 C 4245.61 0.132104 3.0041 0
M  V30 42254 C 4247.16 0.0718151 3.12918 0
M  V30 42255 C 4247.63 0.342932 4.56714 0
M  V30 42256 N 4249.12 0.291374 4.62283 0
M  V30 42257 C 4249.86 0.475068 5.71429 0
M  V30 42258 N 4249.36 0.718843 6.89061 0
M  V30 42259 N 4251.15 0.409667 5.60605 0
M  V30 42260 H 4243.3 1.13533 1.7951 0
M  V30 42261 H 4245.56 0.452786 0.83288 0
M  V30 42262 H 4245.27 1.13615 3.32843 0
M  V30 42263 H 4245.14 -0.567611 3.72905 0
M  V30 42264 H 4247.53 -0.922833 2.80299 0
M  V30 42265 H 4247.61 0.804531 2.42819 0
M  V30 42266 H 4247.25 1.33487 4.90044 0
M  V30 42267 H 4247.18 -0.410614 5.24997 0
M  V30 42268 H 4249.68 0.109372 3.77742 0
M  V30 42269 H 4249.99 0.847953 7.68134 0
M  V30 42270 H 4248.33 0.755679 6.9088 0
M  V30 42271 H 4251.52 0.219674 4.67584 0
M  V30 42272 H 4251.7 0.556246 6.45608 0
M  V30 42273 N 4245.1 -1.57379 -0.083485 0
M  V30 42274 C 4246.51 -1.75509 -0.636677 0
M  V30 42275 C 4246.87 -0.813973 -1.78519 0
M  V30 42276 O 4245.99 0.00476339 -2.16399 0
M  V30 42277 C 4246.59 -3.1826 -1.16173 0
M  V30 42278 C 4245.14 -3.37774 -1.66089 0
M  V30 42279 C 4244.29 -2.71266 -0.57534 0
M  V30 42280 H 4247.24 -1.58058 0.142641 0
M  V30 42281 H 4247.26 -3.21773 -2.03082 0
M  V30 42282 H 4246.78 -3.86732 -0.325611 0
M  V30 42283 H 4244.88 -2.74399 -2.52063 0
M  V30 42284 H 4244.99 -4.46157 -1.74588 0
M  V30 42285 H 4243.35 -2.33489 -1.01759 0
M  V30 42286 H 4244.14 -3.42386 0.250395 0
M  V30 42287 N 4246.58 0.354597 -1.53559 0
M  V30 42288 C 4247.83 1.0939 -1.69936 0
M  V30 42289 C 4248.15 1.8951 -0.459456 0
M  V30 42290 O 4247.42 1.8869 0.526575 0
M  V30 42291 H 4246 0.406834 -0.626494 0
M  V30 42292 H 4248.66 0.398548 -1.90782 0
M  V30 42293 H 4247.76 1.77752 -2.56536 0
M  V30 42294 N 4248.06 1.45105 0.615008 0
M  V30 42295 C 4249.31 1.48954 1.37625 0
M  V30 42296 C 4249.64 0.127907 1.93778 0
M  V30 42297 O 4248.91 -0.856656 1.74619 0
M  V30 42298 C 4249.2 2.56282 2.52965 0
M  V30 42299 C 4249.05 4.01862 2.02056 0
M  V30 42300 C 4250.37 2.59962 3.55117 0
M  V30 42301 H 4247.49 0.542317 0.499061 0
M  V30 42302 H 4250.13 1.76874 0.693946 0
M  V30 42303 H 4248.28 2.32606 3.1117 0
M  V30 42304 H 4249.95 4.36725 1.48558 0
M  V30 42305 H 4248.19 4.12872 1.33113 0
M  V30 42306 H 4248.87 4.72634 2.85168 0
M  V30 42307 H 4251.34 2.81158 3.0674 0
M  V30 42308 H 4250.22 3.36935 4.3332 0
M  V30 42309 H 4250.48 1.64768 4.10248 0
M  V30 42310 N 4249.54 -0.856857 1.32271 0
M  V30 42311 C 4250.47 -1.97177 1.16849 0
M  V30 42312 C 4251.48 -1.62467 0.104069 0
M  V30 42313 O 4252.67 -1.74978 0.352819 0
M  V30 42314 C 4249.77 -3.30132 0.765908 0
M  V30 42315 C 4248.94 -3.93098 1.91815 0
M  V30 42316 C 4248 -5.04383 1.49948 0
M  V30 42317 O 4247.03 -5.24496 2.21116 0
M  V30 42318 N 4248.23 -5.7916 0.394249 0
M  V30 42319 H 4251 -2.10949 2.12886 0
M  V30 42320 H 4248.56 -1.03159 1.24779 0
M  V30 42321 H 4250.55 -4.01982 0.46827 0
M  V30 42322 H 4249.12 -3.12429 -0.10324 0
M  V30 42323 H 4248.34 -3.14062 2.3824 0
M  V30 42324 H 4249.63 -4.31901 2.68959 0
M  V30 42325 H 4249.03 -5.65353 -0.198137 0
M  V30 42326 H 4247.58 -6.51613 0.156207 0
M  V30 42327 N 4251.02 -1.15446 -1.07285 0
M  V30 42328 C 4251.93 -0.865873 -2.18036 0
M  V30 42329 C 4252.94 0.15808 -1.7328 0
M  V30 42330 O 4254.12 -0.0161604 -2.01394 0
M  V30 42331 C 4251.18 -0.360002 -3.44826 0
M  V30 42332 C 4250.24 -1.44794 -4.04145 0
M  V30 42333 C 4249.48 -0.966107 -5.24883 0
M  V30 42334 O 4249.7 0.18806 -5.7009 0
M  V30 42335 O 4248.63 -1.7501 -5.75895 0
M  V30 42336 H 4252.46 -1.79174 -2.45215 0
M  V30 42337 H 4250.04 -0.933625 -1.16635 0
M  V30 42338 H 4251.93 -0.084376 -4.21316 0
M  V30 42339 H 4250.6 0.537993 -3.19198 0
M  V30 42340 H 4249.51 -1.77717 -3.29192 0
M  V30 42341 H 4250.84 -2.32087 -4.34047 0
M  V30 42342 N 4252.49 1.25646 -0.951364 0
M  V30 42343 C 4253.73 1.95023 -0.612006 0
M  V30 42344 C 4254.1 1.72893 0.834995 0
M  V30 42345 O 4255.3 2.36162 1.28379 0
M  V30 42346 C 4253.57 3.44349 -0.957019 0
M  V30 42347 S 4255.13 4.32689 -0.729743 0
M  V30 42348 H 4251.95 0.67444 -0.22506 0
M  V30 42349 H 4254.55 1.52374 -1.22485 0
M  V30 42350 H 4253.25 3.57958 -2.00735 0
M  V30 42351 H 4252.78 3.91977 -0.334303 0
M  V30 42352 H 4254.8 4.94576 0.401085 0
M  V30 42353 N 4253.97 0.719555 1.40215 0
M  V30 42354 C 4255.2 0.270153 2.04826 0
M  V30 42355 C 4255.61 -1.09448 1.5433 0
M  V30 42356 O 4254.95 -1.6998 0.696593 0
M  V30 42357 C 4255.01 0.176576 3.59066 0
M  V30 42358 C 4254.68 1.47714 4.32469 0
M  V30 42359 C 4255.68 2.41985 4.60152 0
M  V30 42360 C 4253.36 1.73717 4.71304 0
M  V30 42361 C 4255.35 3.60501 5.25659 0
M  V30 42362 C 4253.04 2.92514 5.36543 0
M  V30 42363 C 4254.04 3.85728 5.63651 0
M  V30 42364 O 4253.73 5.02441 6.27542 0
M  V30 42365 H 4253.46 0.118454 0.665541 0
M  V30 42366 H 4256.01 0.979575 1.80537 0
M  V30 42367 H 4254.24 -0.588823 3.82191 0
M  V30 42368 H 4255.93 -0.238788 4.05197 0
M  V30 42369 H 4256.7 2.23161 4.30609 0
M  V30 42370 H 4252.58 1.02015 4.49571 0
M  V30 42371 H 4256.12 4.33275 5.46735 0
M  V30 42372 H 4252.02 3.11245 5.65506 0
M  V30 42373 H 4252.79 5.02571 6.46038 0
M  V30 42374 N 4255.45 -1.50552 0.466031 0
M  V30 42375 C 4256.4 -2.25308 -0.349299 0
M  V30 42376 C 4257.38 -1.2869 -0.965794 0
M  V30 42377 O 4258.58 -1.53621 -0.879181 0
M  V30 42378 C 4255.7 -3.11932 -1.43363 0
M  V30 42379 C 4254.79 -4.15996 -0.825121 0
M  V30 42380 N 4255.18 -5.05774 0.0515558 0
M  V30 42381 C 4253.48 -4.32485 -1.08962 0
M  V30 42382 C 4254.18 -5.80348 0.396372 0
M  V30 42383 N 4253.16 -5.43125 -0.227196 0
M  V30 42384 H 4256.96 -2.92085 0.326123 0
M  V30 42385 H 4254.47 -1.5997 0.279862 0
M  V30 42386 H 4256.47 -3.6409 -2.03087 0
M  V30 42387 H 4255.13 -2.46704 -2.1111 0
M  V30 42388 H 4256.14 -5.16194 0.420037 0
M  V30 42389 H 4252.82 -3.78476 -1.76244 0
M  V30 42390 H 4254.21 -6.62642 1.11152 0
M  V30 42391 N 4256.93 -0.198441 -1.56346 0
M  V30 42392 C 4258.18 0.438578 -1.97284 0
M  V30 42393 C 4258.5 1.6192 -1.0866 0
M  V30 42394 O 4257.77 1.95257 -0.158595 0
M  V30 42395 H 4256.35 0.165022 -0.728544 0
M  V30 42396 H 4259.01 -0.285953 -1.92791 0
M  V30 42397 H 4258.1 0.780463 -3.02184 0
M  V30 42398 N 4258.41 1.57421 0.0751377 0
M  V30 42399 C 4259.35 2.04493 1.10839 0
M  V30 42400 C 4260.35 0.949645 1.40279 0
M  V30 42401 O 4261.55 1.13477 1.39725 0
M  V30 42402 H 4257.93 0.651966 0.374759 0
M  V30 42403 H 4259.9 2.90426 0.685206 0
M  V30 42404 C 4258.65 2.50175 2.4147 0
M  V30 42405 H 4257.97 3.34046 2.19666 0
M  V30 42406 H 4259.41 2.86868 3.12222 0
M  V30 42407 C 4257.87 1.38328 3.07192 0
M  V30 42408 O 4258.4 0.723517 3.95131 0
M  V30 42409 N 4256.61 1.12925 2.67762 0
M  V30 42410 H 4256.15 1.66757 1.96341 0
M  V30 42411 H 4256.11 0.382936 3.12059 0
M  V30 42412 N 4259.88 -0.346449 1.53745 0
M  V30 42413 C 4261.13 -1.08487 1.70514 0
M  V30 42414 C 4261.45 -1.89264 0.4695 0
M  V30 42415 O 4260.72 -1.88967 -0.516561 0
M  V30 42416 H 4259.3 -0.403506 0.628643 0
M  V30 42417 H 4261.97 -0.388425 1.9099 0
M  V30 42418 H 4261.06 -1.76389 2.57475 0
M  V30 42419 N 4261.36 -1.45429 -0.607304 0
M  V30 42420 C 4262.29 -1.50132 -1.73185 0
M  V30 42421 C 4263.31 -0.392061 -1.58009 0
M  V30 42422 O 4264.5 -0.659133 -1.65885 0
M  V30 42423 C 4261.6 -1.34222 -3.11187 0
M  V30 42424 C 4260.77 -2.58827 -3.52601 0
M  V30 42425 C 4259.83 -2.37471 -4.69568 0
M  V30 42426 O 4258.85 -3.11085 -4.76671 0
M  V30 42427 N 4260.06 -1.42051 -5.62851 0
M  V30 42428 H 4262.82 -2.47085 -1.69614 0
M  V30 42429 H 4260.38 -1.41172 -0.792593 0
M  V30 42430 H 4262.37 -1.17746 -3.87193 0
M  V30 42431 H 4260.94 -0.45544 -3.09264 0
M  V30 42432 H 4260.16 -2.90417 -2.66555 0
M  V30 42433 H 4261.45 -3.41653 -3.77029 0
M  V30 42434 H 4260.85 -0.812998 -5.59828 0
M  V30 42435 H 4259.41 -1.31546 -6.38388 0
M  V30 42436 N 4262.84 0.84983 -1.32724 0
M  V30 42437 C 4264.07 1.64191 -1.26713 0
M  V30 42438 C 4264.49 1.87409 0.161059 0
M  V30 42439 O 4263.85 1.43033 1.11406 0
M  V30 42440 C 4263.9 2.97561 -2.03691 0
M  V30 42441 O 4263 3.8834 -1.38801 0
M  V30 42442 H 4262.34 0.500392 -0.436468 0
M  V30 42443 H 4264.87 1.0581 -1.75115 0
M  V30 42444 H 4264.88 3.47345 -2.14046 0
M  V30 42445 H 4263.56 2.79983 -3.07542 0
M  V30 42446 H 4262.13 3.46812 -1.37024 0
M  V30 42447 N 4264.32 1.16013 1.06671 0
M  V30 42448 C 4265.55 0.961957 1.82839 0
M  V30 42449 C 4265.96 -0.493108 1.82661 0
M  V30 42450 O 4265.3 -1.35393 1.24155 0
M  V30 42451 C 4265.36 1.40766 3.30795 0
M  V30 42452 C 4265.03 2.88185 3.54681 0
M  V30 42453 C 4266.02 3.86211 3.48047 0
M  V30 42454 C 4263.71 3.26015 3.82125 0
M  V30 42455 C 4265.7 5.20071 3.68518 0
M  V30 42456 C 4263.39 4.60045 4.02246 0
M  V30 42457 C 4264.39 5.56882 3.95439 0
M  V30 42458 O 4264.07 6.88489 4.15015 0
M  V30 42459 H 4263.81 0.341348 0.583487 0
M  V30 42460 H 4266.36 1.54357 1.3551 0
M  V30 42461 H 4264.59 0.769495 3.78967 0
M  V30 42462 H 4266.28 1.1775 3.88445 0
M  V30 42463 H 4267.05 3.58331 3.26839 0
M  V30 42464 H 4262.92 2.51221 3.86535 0
M  V30 42465 H 4266.47 5.95642 3.6312 0
M  V30 42466 H 4262.37 4.87637 4.22942 0
M  V30 42467 H 4263.13 6.95009 4.32324 0
M  V30 42468 N 4265.8 -1.25139 0.958014 0
M  V30 42469 C 4267.21 -1.45178 0.66298 0
M  V30 42470 C 4267.41 -1.85858 -0.778394 0
M  V30 42471 O 4266.47 -1.99067 -1.55333 0
M  V30 42472 C 4267.78 -2.52119 1.6388 0
M  V30 42473 C 4269.33 -2.65956 1.65035 0
M  V30 42474 C 4269.8 -3.76084 2.6139 0
M  V30 42475 N 4271.3 -3.83499 2.59775 0
M  V30 42476 C 4272.03 -4.68211 3.31008 0
M  V30 42477 N 4271.53 -5.57184 4.11725 0
M  V30 42478 N 4273.32 -4.62206 3.19879 0
M  V30 42479 H 4265.47 -0.970277 1.88943 0
M  V30 42480 H 4267.73 -0.487736 0.812907 0
M  V30 42481 H 4267.44 -2.29093 2.6685 0
M  V30 42482 H 4267.31 -3.50098 1.40396 0
M  V30 42483 H 4269.7 -2.88344 0.627811 0
M  V30 42484 H 4269.78 -1.68365 1.92579 0
M  V30 42485 H 4269.43 -3.54446 3.63773 0
M  V30 42486 H 4269.36 -4.73167 2.31129 0
M  V30 42487 H 4271.85 -3.199 2.01178 0
M  V30 42488 H 4272.16 -6.18758 4.62989 0
M  V30 42489 H 4270.5 -5.56882 4.15822 0
M  V30 42490 H 4273.7 -3.91706 2.56289 0
M  V30 42491 H 4273.87 -5.28001 3.75658 0
M  V30 42492 N 4267.27 -0.726981 -1.39831 0
M  V30 42493 C 4268.52 -0.270886 -2.00276 0
M  V30 42494 C 4268.84 1.14341 -1.5796 0
M  V30 42495 O 4268.11 1.77719 -0.824186 0
M  V30 42496 H 4266.69 -0.0971626 -0.740654 0
M  V30 42497 H 4269.36 -0.935153 -1.71 0
M  V30 42498 H 4268.45 -0.312947 -3.10527 0
M  V30 42499 N 4268.75 1.50303 -0.474008 0
M  V30 42500 C 4269.98 2.06755 0.0775768 0
M  V30 42501 C 4270.4 1.33754 1.33249 0
M  V30 42502 O 4269.75 0.40769 1.77888 0
M  V30 42503 C 4269.8 3.59676 0.362709 0
M  V30 42504 O 4269.52 4.29924 -0.842428 0
M  V30 42505 C 4271.03 4.3276 0.960937 0
M  V30 42506 H 4268.25 0.670948 -0.00838484 0
M  V30 42507 H 4270.79 1.93433 -0.663628 0
M  V30 42508 H 4268.94 3.7279 1.05385 0
M  V30 42509 H 4269.36 5.21185 -0.5888 0
M  V30 42510 H 4270.83 5.4072 1.1102 0
M  V30 42511 H 4271.31 3.93448 1.9518 0
M  V30 42512 H 4271.92 4.24183 0.308088 0
M  V30 42513 N 4270.23 0.20673 1.56238 0
M  V30 42514 C 4271.46 -0.433602 2.01999 0
M  V30 42515 C 4271.87 -1.54931 1.08596 0
M  V30 42516 O 4271.21 -1.83503 0.0851127 0
M  V30 42517 C 4271.27 -1.03987 3.44132 0
M  V30 42518 C 4270.94 -0.0614524 4.56959 0
M  V30 42519 C 4271.93 0.733477 5.147 0
M  V30 42520 C 4269.62 0.0530052 5.02272 0
M  V30 42521 C 4271.61 1.62971 6.16213 0
M  V30 42522 C 4269.3 0.95279 6.03627 0
M  V30 42523 C 4270.3 1.7397 6.60472 0
M  V30 42524 O 4269.99 2.62439 7.59856 0
M  V30 42525 H 4269.72 -0.112 0.666657 0
M  V30 42526 H 4272.27 0.316189 2.02952 0
M  V30 42527 H 4270.5 -1.83847 3.40202 0
M  V30 42528 H 4272.19 -1.58606 3.73629 0
M  V30 42529 H 4272.96 0.655419 4.80551 0
M  V30 42530 H 4268.84 -0.549344 4.57715 0
M  V30 42531 H 4272.38 2.24437 6.6051 0
M  V30 42532 H 4268.28 1.03192 6.37198 0
M  V30 42533 H 4269.05 2.56348 7.77321 0
M  V30 42534 N 4271.71 -1.57458 -0.0667882 0
M  V30 42535 C 4272.93 -1.92109 -0.781583 0
M  V30 42536 C 4273.36 -0.803583 -1.70071 0
M  V30 42537 O 4272.72 0.243284 -1.7966 0
M  V30 42538 C 4272.76 -3.25731 -1.54699 0
M  V30 42539 O 4271.87 -3.15317 -2.65799 0
M  V30 42540 H 4271.21 -0.628945 -0.212896 0
M  V30 42541 H 4273.74 -2.04573 -0.0335345 0
M  V30 42542 H 4273.75 -3.59724 -1.92516 0
M  V30 42543 H 4272.42 -4.06642 -0.872642 0
M  V30 42544 H 4271 -2.9289 -2.30802 0
M  V30 42545 N 4273.19 0.33829 -1.53926 0
M  V30 42546 C 4274.42 1.09786 -1.7537 0
M  V30 42547 C 4274.83 1.82187 -0.495326 0
M  V30 42548 O 4274.19 1.74535 0.533286 0
M  V30 42549 C 4274.24 2.10731 -2.93726 0
M  V30 42550 O 4273.96 1.41273 -4.14697 0
M  V30 42551 C 4275.46 2.99021 -3.27263 0
M  V30 42552 H 4272.68 0.327177 -0.585829 0
M  V30 42553 H 4275.22 0.388896 -2.00768 0
M  V30 42554 H 4273.38 2.77183 -2.70644 0
M  V30 42555 H 4273.79 2.0875 -4.81169 0
M  V30 42556 H 4275.27 3.65776 -4.13415 0
M  V30 42557 H 4275.74 3.65325 -2.43792 0
M  V30 42558 H 4276.35 2.3815 -3.5237 0
M  V30 42559 N 4274.67 1.45749 0.599583 0
M  V30 42560 C 4275.89 1.53723 1.3848 0
M  V30 42561 C 4276.31 0.172545 1.8801 0
M  V30 42562 O 4275.67 -0.827302 1.62671 0
M  V30 42563 C 4275.72 2.52823 2.58385 0
M  V30 42564 O 4275.44 3.83989 2.10912 0
M  V30 42565 C 4276.94 2.70574 3.51148 0
M  V30 42566 H 4274.16 0.520365 0.423628 0
M  V30 42567 H 4276.7 1.91008 0.730493 0
M  V30 42568 H 4274.86 2.18588 3.1984 0
M  V30 42569 H 4275.27 4.3778 2.88875 0
M  V30 42570 H 4276.75 3.43873 4.31805 0
M  V30 42571 H 4277.22 1.76887 4.02004 0
M  V30 42572 H 4277.83 3.05837 2.9554 0
M  V30 42573 N 4276.14 -0.84278 1.33173 0
M  V30 42574 C 4277.39 -1.60014 1.24592 0
M  V30 42575 C 4277.72 -1.93279 -0.188902 0
M  V30 42576 O 4277 -1.58364 -1.1292 0
M  V30 42577 C 4277.28 -2.91273 2.11736 0
M  V30 42578 C 4277.13 -2.64714 3.63657 0
M  V30 42579 C 4278.45 -3.92663 1.98756 0
M  V30 42580 H 4275.57 -0.580605 0.453945 0
M  V30 42581 H 4278.21 -0.972327 1.63235 0
M  V30 42582 H 4276.36 -3.44853 1.7891 0
M  V30 42583 H 4278.04 -2.17597 4.06755 0
M  V30 42584 H 4276.28 -1.98479 3.85731 0
M  V30 42585 H 4276.95 -3.58228 4.19972 0
M  V30 42586 H 4279.43 -3.48377 2.27536 0
M  V30 42587 H 4278.3 -4.82342 2.61987 0
M  V30 42588 H 4278.56 -4.31581 0.958641 0
M  V30 42589 N 4277.62 -1.16577 -1.06054 0
M  V30 42590 C 4278.85 -0.973051 -1.82591 0
M  V30 42591 C 4279.26 0.478741 -1.82629 0
M  V30 42592 O 4278.62 1.33231 -1.24723 0
M  V30 42593 C 4278.67 -1.49591 -3.29097 0
M  V30 42594 O 4278.39 -2.89084 -3.29184 0
M  V30 42595 C 4279.89 -1.34654 -4.22354 0
M  V30 42596 H 4277.11 -0.344773 -0.57565 0
M  V30 42597 H 4279.66 -1.54662 -1.3379 0
M  V30 42598 H 4277.81 -0.964562 -3.752 0
M  V30 42599 H 4278.23 -3.13074 -4.20815 0
M  V30 42600 H 4279.7 -1.76065 -5.23168 0
M  V30 42601 H 4280.18 -0.292425 -4.38225 0
M  V30 42602 H 4280.78 -1.86762 -3.82099 0
M  V30 42603 N 4279.1 1.2463 -0.964637 0
M  V30 42604 C 4280.35 1.92238 -0.623615 0
M  V30 42605 C 4280.67 1.75814 0.843462 0
M  V30 42606 O 4279.94 1.12783 1.60177 0
M  V30 42607 H 4278.52 0.711464 -0.227656 0
M  V30 42608 H 4281.18 1.51587 -1.22504 0
M  V30 42609 H 4280.28 2.99972 -0.861567 0
M  V30 42610 N 4280.58 0.734386 1.39444 0
M  V30 42611 C 4281.99 0.409905 1.54246 0
M  V30 42612 C 4282.19 -1.0793 1.70157 0
M  V30 42613 O 4281.25 -1.86542 1.70172 0
M  V30 42614 C 4282.56 1.19239 2.76048 0
M  V30 42615 C 4284.11 1.18056 2.89883 0
M  V30 42616 C 4284.59 1.94559 4.14621 0
M  V30 42617 N 4286.08 1.91722 4.2166 0
M  V30 42618 C 4286.81 2.47726 5.17126 0
M  V30 42619 N 4286.31 3.12365 6.18385 0
M  V30 42620 N 4288.1 2.37763 5.09338 0
M  V30 42621 H 4280.25 1.69977 1.27364 0
M  V30 42622 H 4282.51 0.719512 0.617257 0
M  V30 42623 H 4282.22 2.24613 2.70632 0
M  V30 42624 H 4282.09 0.796428 3.68696 0
M  V30 42625 H 4284.48 0.134941 2.94791 0
M  V30 42626 H 4284.56 1.61589 1.983 0
M  V30 42627 H 4284.21 2.99121 4.10474 0
M  V30 42628 H 4284.14 1.48433 5.05248 0
M  V30 42629 H 4286.63 1.44632 3.49128 0
M  V30 42630 H 4286.94 3.52567 6.87689 0
M  V30 42631 H 4285.29 3.16455 6.18774 0
M  V30 42632 H 4288.48 1.86908 4.29165 0
M  V30 42633 H 4288.65 2.81708 5.83562 0
M  V30 42634 N 4282.06 -1.50049 0.481972 0
M  V30 42635 C 4283.28 -2.06793 -0.0666111 0
M  V30 42636 C 4283.7 -1.34459 -1.32537 0
M  V30 42637 O 4283.06 -0.417118 -1.77669 0
M  V30 42638 C 4283.11 -3.59863 -0.34363 0
M  V30 42639 O 4282.83 -4.29471 0.865216 0
M  V30 42640 C 4284.33 -4.33263 -0.937974 0
M  V30 42641 H 4281.55 -0.670894 0.0119429 0
M  V30 42642 H 4284.09 -1.93078 0.673877 0
M  V30 42643 H 4282.25 -3.73344 -1.03407 0
M  V30 42644 H 4282.66 -5.20865 0.616431 0
M  V30 42645 H 4284.14 -5.41302 -1.0815 0
M  V30 42646 H 4284.61 -3.94478 -1.93091 0
M  V30 42647 H 4285.22 -4.2434 -0.285588 0
M  V30 42648 N 4283.53 -0.215012 -1.56126 0
M  V30 42649 C 4284.77 0.420381 -2.0003 0
M  V30 42650 C 4285.14 1.57411 -1.09936 0
M  V30 42651 O 4286.34 2.27506 -1.43159 0
M  V30 42652 C 4284.61 0.850049 -3.47144 0
M  V30 42653 S 4286.17 1.48047 -4.13071 0
M  V30 42654 H 4282.99 0.133681 -0.69832 0
M  V30 42655 H 4285.59 -0.322764 -1.92817 0
M  V30 42656 H 4284.29 0.000591171 -4.104 0
M  V30 42657 H 4283.82 1.62617 -3.58217 0
M  V30 42658 H 4285.84 2.7695 -4.1172 0
M  V30 42659 N 4285.01 1.57492 0.0584368 0
M  V30 42660 C 4285.94 2.01352 1.09499 0
M  V30 42661 C 4286.96 0.921532 1.34207 0
M  V30 42662 O 4288.15 1.19926 1.32212 0
M  V30 42663 C 4285.25 2.34874 2.4431 0
M  V30 42664 C 4284.42 3.66087 2.39372 0
M  V30 42665 C 4283.48 3.87129 3.56396 0
M  V30 42666 O 4282.5 4.58555 3.37218 0
M  V30 42667 N 4283.71 3.30505 4.77228 0
M  V30 42668 H 4286.47 2.90889 0.72138 0
M  V30 42669 H 4284.03 1.60007 0.246882 0
M  V30 42670 H 4286.02 2.46112 3.21265 0
M  V30 42671 H 4284.59 1.51158 2.73624 0
M  V30 42672 H 4283.81 3.65479 1.47712 0
M  V30 42673 H 4285.1 4.52219 2.33186 0
M  V30 42674 H 4284.5 2.72555 4.95712 0
M  V30 42675 H 4283.06 3.4717 5.51649 0
M  V30 42676 N 4286.49 -0.330122 1.54104 0
M  V30 42677 C 4287.45 -1.38897 1.82319 0
M  V30 42678 C 4288.45 -1.45017 0.694737 0
M  V30 42679 O 4289.64 -1.45159 0.963042 0
M  V30 42680 C 4286.77 -2.77696 1.97732 0
M  V30 42681 H 4287.97 -1.15136 2.76918 0
M  V30 42682 H 4285.52 -0.565251 1.45721 0
M  V30 42683 H 4286.26 -3.06721 1.05322 0
M  V30 42684 H 4286.04 -2.74647 2.79841 0
M  V30 42685 H 4287.53 -3.54309 2.21032 0
M  V30 42686 N 4287.97 -1.46065 -0.591845 0
M  V30 42687 C 4289.21 -1.52113 -1.3503 0
M  V30 42688 C 4289.57 -0.166834 -1.91675 0
M  V30 42689 O 4288.86 0.823337 -1.73008 0
M  V30 42690 C 4289.06 -2.5484 -2.50582 0
M  V30 42691 C 4288.89 -4.00126 -2.05255 0
M  V30 42692 C 4287.66 -4.67936 -1.90695 0
M  V30 42693 C 4289.85 -4.88196 -1.61769 0
M  V30 42694 N 4287.84 -5.97877 -1.39343 0
M  V30 42695 C 4289.21 -6.07889 -1.21944 0
M  V30 42696 C 4291.26 -4.74924 -1.49504 0
M  V30 42697 C 4289.96 -7.1578 -0.710766 0
M  V30 42698 C 4291.99 -5.82877 -1.0004 0
M  V30 42699 C 4291.35 -7.01737 -0.61188 0
M  V30 42700 H 4287.45 -0.611501 -0.487432 0
M  V30 42701 H 4290.04 -1.82629 -0.674887 0
M  V30 42702 H 4288.21 -2.26249 -3.15699 0
M  V30 42703 H 4289.94 -2.50939 -3.17509 0
M  V30 42704 H 4286.69 -4.23319 -2.12362 0
M  V30 42705 H 4287.12 -6.67013 -1.15854 0
M  V30 42706 H 4291.76 -3.83429 -1.78163 0
M  V30 42707 H 4289.48 -8.0705 -0.411751 0
M  V30 42708 H 4293.06 -5.74647 -0.909535 0
M  V30 42709 H 4291.94 -7.83848 -0.235029 0
M  V30 42710 N 4289.45 0.835705 -1.33618 0
M  V30 42711 C 4290.67 1.62838 -1.28447 0
M  V30 42712 C 4291.1 1.87569 0.141172 0
M  V30 42713 O 4290.45 1.44207 1.09882 0
M  V30 42714 C 4290.5 2.95384 -2.06835 0
M  V30 42715 O 4289.61 3.86846 -1.42912 0
M  V30 42716 H 4288.95 0.495734 -0.44175 0
M  V30 42717 H 4291.48 1.03947 -1.76228 0
M  V30 42718 H 4291.49 3.45055 -2.17718 0
M  V30 42719 H 4290.16 2.76705 -3.10495 0
M  V30 42720 H 4288.74 3.4534 -1.40695 0
M  V30 42721 N 4290.92 1.17138 1.05434 0
M  V30 42722 C 4292.15 0.983269 1.8261 0
M  V30 42723 C 4292.57 -0.463665 1.82296 0
M  V30 42724 O 4291.93 -1.33182 1.23014 0
M  V30 42725 C 4291.98 1.52593 3.26723 0
M  V30 42726 O 4291.08 0.73805 4.05742 0
M  V30 42727 H 4290.43 0.349289 0.564707 0
M  V30 42728 H 4292.96 1.55579 1.32878 0
M  V30 42729 H 4292.97 1.54714 3.77528 0
M  V30 42730 H 4291.64 2.5792 3.26267 0
M  V30 42731 H 4290.22 0.788044 3.64478 0
M  V30 42732 N 4292.4 -1.24116 0.971232 0
M  V30 42733 C 4293.34 -2.23742 0.448868 0
M  V30 42734 C 4294.31 -1.55385 -0.478977 0
M  V30 42735 O 4295.5 -1.83997 -0.409541 0
M  V30 42736 C 4292.62 -3.3687 -0.351646 0
M  V30 42737 C 4291.67 -4.2333 0.518999 0
M  V30 42738 S 4292.5 -4.98289 1.96134 0
M  V30 42739 C 4293.66 -6.14873 1.16971 0
M  V30 42740 H 4293.89 -2.67704 1.29313 0
M  V30 42741 H 4291.43 -1.33452 0.77653 0
M  V30 42742 H 4293.38 -4.02479 -0.807529 0
M  V30 42743 H 4292.04 -2.91459 -1.17092 0
M  V30 42744 H 4291.24 -5.03909 -0.0958034 0
M  V30 42745 H 4290.84 -3.62741 0.910753 0
M  V30 42746 H 4293.13 -6.76156 0.426477 0
M  V30 42747 H 4294.07 -6.80721 1.95 0
M  V30 42748 H 4294.48 -5.60236 0.692531 0
M  V30 42749 N 4293.88 -0.741771 -1.39052 0
M  V30 42750 C 4295.11 -0.303144 -2.04667 0
M  V30 42751 C 4295.52 1.06441 -1.55935 0
M  V30 42752 O 4294.88 1.67386 -0.727199 0
M  V30 42753 C 4294.93 -0.303471 -3.60224 0
M  V30 42754 O 4294.65 -1.61705 -4.07165 0
M  V30 42755 C 4296.15 0.150487 -4.43044 0
M  V30 42756 H 4293.37 -0.131364 -0.658016 0
M  V30 42757 H 4295.92 -1.00732 -1.7797 0
M  V30 42758 H 4294.07 0.351868 -3.85799 0
M  V30 42759 H 4294.49 -1.5352 -5.0153 0
M  V30 42760 H 4295.96 0.0990976 -5.51911 0
M  V30 42761 H 4296.44 1.19666 -4.22583 0
M  V30 42762 H 4297.04 -0.475538 -4.22633 0
M  V30 42763 N 4295.36 1.49792 -0.489923 0
M  V30 42764 C 4296.77 1.86658 -0.0393962 0
M  V30 42765 C 4297.12 1.40321 1.3713 0
M  V30 42766 O 4296.25 0.776276 2.01997 0
M  V30 42767 C 4296.84 3.38738 -0.0647167 0
M  V30 42768 C 4295.4 3.74947 0.330419 0
M  V30 42769 C 4294.55 2.73754 -0.442071 0
M  V30 42770 H 4297.5 1.42267 -0.70327 0
M  V30 42771 H 4297.52 3.7337 0.733164 0
M  V30 42772 H 4297.03 3.72433 -1.09156 0
M  V30 42773 H 4295.13 3.46857 1.36091 0
M  V30 42774 H 4295.24 4.79096 0.018671 0
M  V30 42775 H 4293.61 2.54476 0.106681 0
M  V30 42776 H 4294.39 3.10293 -1.46878 0
M  V30 42777 N 4296.84 0.223289 1.5601 0
M  V30 42778 C 4297.79 -0.699529 2.17004 0
M  V30 42779 C 4298.77 -1.15629 1.11887 0
M  V30 42780 O 4299.96 -1.10999 1.3787 0
M  V30 42781 C 4297.09 -1.90668 2.85483 0
M  V30 42782 C 4296.18 -1.46952 3.97826 0
M  V30 42783 N 4296.57 -0.745058 5.00282 0
M  V30 42784 C 4294.87 -1.75667 4.09948 0
M  V30 42785 C 4295.57 -0.521901 5.79354 0
M  V30 42786 N 4294.54 -1.07912 5.32781 0
M  V30 42787 H 4298.35 -0.137615 2.93578 0
M  V30 42788 H 4295.86 0.0246176 1.62381 0
M  V30 42789 H 4297.86 -2.57855 3.27592 0
M  V30 42790 H 4296.52 -2.47305 2.10406 0
M  V30 42791 H 4297.53 -0.397567 5.16372 0
M  V30 42792 H 4294.2 -2.33611 3.46023 0
M  V30 42793 H 4295.59 0.0548212 6.71878 0
M  V30 42794 N 4298.31 -1.5752 -0.0500839 0
M  V30 42795 C 4299.54 -1.92928 -0.761163 0
M  V30 42796 C 4299.96 -0.821576 -1.69209 0
M  V30 42797 O 4299.32 0.224215 -1.79908 0
M  V30 42798 C 4299.37 -3.27353 -1.51236 0
M  V30 42799 O 4298.47 -3.18118 -2.62439 0
M  V30 42800 H 4297.82 -0.631167 -0.206213 0
M  V30 42801 H 4300.35 -2.04597 -0.0118349 0
M  V30 42802 H 4300.36 -3.61746 -1.8869 0
M  V30 42803 H 4299.03 -4.07545 -0.829463 0
M  V30 42804 H 4297.61 -2.95322 -2.27683 0
M  V30 42805 N 4299.79 0.321945 -1.54277 0
M  V30 42806 C 4300.74 1.39742 -1.80156 0
M  V30 42807 C 4301.73 1.46846 -0.657656 0
M  V30 42808 O 4302.92 1.51351 -0.917703 0
M  V30 42809 C 4300.05 2.76571 -2.0338 0
M  V30 42810 C 4299.13 2.73773 -3.23897 0
M  V30 42811 N 4299.52 2.40595 -4.44913 0
M  V30 42812 C 4297.82 3.049 -3.25503 0
M  V30 42813 C 4298.52 2.46573 -5.26856 0
M  V30 42814 N 4297.5 2.83079 -4.64077 0
M  V30 42815 H 4301.3 1.13021 -2.71299 0
M  V30 42816 H 4298.82 0.530435 -1.53493 0
M  V30 42817 H 4300.81 3.54089 -2.20061 0
M  V30 42818 H 4299.47 3.0422 -1.13492 0
M  V30 42819 H 4300.48 2.13413 -4.71885 0
M  V30 42820 H 4297.16 3.37581 -2.45653 0
M  V30 42821 H 4298.55 2.23898 -6.33498 0
M  V30 42822 N 4301.27 1.46377 0.58409 0
M  V30 42823 C 4302.5 1.55421 1.37328 0
M  V30 42824 C 4302.92 0.195505 1.87081 0
M  V30 42825 O 4302.28 -0.824113 1.61487 0
M  V30 42826 C 4302.33 2.56185 2.53775 0
M  V30 42827 O 4301.43 2.09593 3.55168 0
M  V30 42828 H 4300.77 0.523056 0.409033 0
M  V30 42829 H 4303.3 1.91937 0.708621 0
M  V30 42830 H 4303.31 2.75749 3.0071 0
M  V30 42831 H 4301.99 3.54853 2.16914 0
M  V30 42832 H 4300.56 2.00011 3.14722 0
M  V30 42833 N 4302.75 -0.828607 1.34059 0
M  V30 42834 C 4304.17 -1.12086 1.13617 0
M  V30 42835 C 4304.37 -2.01391 -0.0661187 0
M  V30 42836 O 4303.42 -2.4131 -0.74334 0
M  V30 42837 C 4304.73 -1.77305 2.42865 0
M  V30 42838 C 4306.28 -1.89826 2.48868 0
M  V30 42839 C 4306.76 -2.58461 3.78103 0
M  V30 42840 N 4308.25 -2.65965 3.79232 0
M  V30 42841 C 4308.98 -3.19787 4.75945 0
M  V30 42842 N 4308.48 -3.74216 5.83039 0
M  V30 42843 N 4310.27 -3.18135 4.63408 0
M  V30 42844 H 4302.42 -0.234468 2.11102 0
M  V30 42845 H 4304.69 -0.166562 0.933253 0
M  V30 42846 H 4304.39 -1.19147 3.30903 0
M  V30 42847 H 4304.27 -2.77229 2.55781 0
M  V30 42848 H 4306.65 -2.47134 1.61273 0
M  V30 42849 H 4306.73 -0.888214 2.39884 0
M  V30 42850 H 4306.38 -2.01809 4.66086 0
M  V30 42851 H 4306.31 -3.59958 3.84367 0
M  V30 42852 H 4308.8 -2.27379 3.0184 0
M  V30 42853 H 4309.11 -4.13518 6.52857 0
M  V30 42854 H 4307.46 -3.72475 5.8676 0
M  V30 42855 H 4310.65 -2.74876 3.78894 0
M  V30 42856 H 4310.82 -3.59776 5.38948 0
M  V30 42857 N 4304.23 -1.17696 -1.04812 0
M  V30 42858 C 4305.46 -0.992362 -1.81548 0
M  V30 42859 C 4305.87 0.459343 -1.83127 0
M  V30 42860 O 4305.23 1.31901 -1.26129 0
M  V30 42861 C 4305.28 -1.53073 -3.27492 0
M  V30 42862 O 4305 -2.92559 -3.26099 0
M  V30 42863 C 4306.5 -1.39126 -4.20902 0
M  V30 42864 H 4303.72 -0.350859 -0.571961 0
M  V30 42865 H 4306.26 -1.56073 -1.32142 0
M  V30 42866 H 4304.42 -1.0043 -3.74156 0
M  V30 42867 H 4304.83 -3.17519 -4.17471 0
M  V30 42868 H 4306.31 -1.81604 -5.21271 0
M  V30 42869 H 4306.78 -0.338889 -4.37891 0
M  V30 42870 H 4307.39 -1.90804 -3.80097 0
M  V30 42871 N 4305.71 1.23599 -0.977801 0
M  V30 42872 C 4307.12 1.73774 -0.682603 0
M  V30 42873 C 4307.47 1.79091 0.801291 0
M  V30 42874 O 4306.59 1.42705 1.62678 0
M  V30 42875 C 4307.19 3.15591 -1.23239 0
M  V30 42876 C 4305.75 3.63232 -0.986893 0
M  V30 42877 C 4304.89 2.41565 -1.36168 0
M  V30 42878 H 4307.84 1.09159 -1.15195 0
M  V30 42879 H 4307.87 3.75683 -0.603552 0
M  V30 42880 H 4307.38 3.11688 -2.3124 0
M  V30 42881 H 4305.48 3.7252 0.0771469 0
M  V30 42882 H 4305.59 4.50169 -1.63964 0
M  V30 42883 H 4303.96 2.42459 -0.780121 0
M  V30 42884 H 4304.74 2.40336 -2.4514 0
M  V30 42885 N 4307.18 0.749135 1.38657 0
M  V30 42886 C 4308.09 0.120414 2.34291 0
M  V30 42887 C 4309.11 -0.705768 1.59044 0
M  V30 42888 O 4310.29 -0.630956 1.91261 0
M  V30 42889 C 4307.35 -0.765566 3.38142 0
M  V30 42890 C 4306.41 0.0744791 4.29235 0
M  V30 42891 C 4305.64 -0.769309 5.28126 0
M  V30 42892 O 4305.87 -2.0075 5.33906 0
M  V30 42893 O 4304.8 -0.190471 6.01599 0
M  V30 42894 H 4308.63 0.910107 2.89743 0
M  V30 42895 H 4306.21 0.509973 1.40427 0
M  V30 42896 H 4308.09 -1.27207 4.01742 0
M  V30 42897 H 4306.77 -1.53383 2.85053 0
M  V30 42898 H 4305.68 0.626826 3.68811 0
M  V30 42899 H 4307.01 0.805293 4.85568 0
M  V30 42900 N 4308.66 -1.4953 0.49786 0
M  V30 42901 C 4309.89 -2.06552 -0.0446094 0
M  V30 42902 C 4310.3 -1.35882 -1.31654 0
M  V30 42903 O 4309.64 -0.429881 -1.78599 0
M  V30 42904 C 4309.7 -3.57573 -0.371754 0
M  V30 42905 C 4309.37 -4.49908 0.802001 0
M  V30 42906 C 4310.37 -4.9161 1.69161 0
M  V30 42907 C 4308.05 -4.92247 0.999915 0
M  V30 42908 C 4310.04 -5.74386 2.76332 0
M  V30 42909 C 4307.73 -5.748 2.0748 0
M  V30 42910 C 4308.73 -6.15774 2.95485 0
M  V30 42911 O 4308.42 -6.96677 4.01119 0
M  V30 42912 H 4308.15 -0.675815 0.0158211 0
M  V30 42913 H 4310.7 -1.93338 0.693508 0
M  V30 42914 H 4308.93 -3.68784 -1.16342 0
M  V30 42915 H 4310.62 -3.96847 -0.852465 0
M  V30 42916 H 4311.39 -4.59548 1.55051 0
M  V30 42917 H 4307.27 -4.59858 0.324304 0
M  V30 42918 H 4310.81 -6.06288 3.45052 0
M  V30 42919 H 4306.71 -6.06275 2.21587 0
M  V30 42920 H 4307.48 -7.14977 3.98434 0
M  V30 42921 N 4310.14 -0.23156 -1.5589 0
M  V30 42922 C 4311.37 0.401411 -2.02663 0
M  V30 42923 C 4311.78 1.53184 -1.11047 0
M  V30 42924 O 4311.12 1.83344 -0.114296 0
M  V30 42925 C 4311.18 0.984988 -3.45743 0
M  V30 42926 C 4310.85 -0.0112536 -4.56999 0
M  V30 42927 C 4311.84 -0.815269 -5.13468 0
M  V30 42928 C 4309.53 -0.132906 -5.02124 0
M  V30 42929 C 4311.52 -1.72754 -6.13543 0
M  V30 42930 C 4309.21 -1.0487 -6.02034 0
M  V30 42931 C 4310.21 -1.84456 -6.57621 0
M  V30 42932 O 4309.9 -2.74494 -7.55585 0
M  V30 42933 H 4309.63 0.101379 -0.668355 0
M  V30 42934 H 4312.18 -0.348437 -2.02423 0
M  V30 42935 H 4310.41 1.78411 -3.43083 0
M  V30 42936 H 4312.1 1.52642 -3.76105 0
M  V30 42937 H 4312.87 -0.731788 -4.79447 0
M  V30 42938 H 4308.75 0.476456 -4.58531 0
M  V30 42939 H 4312.29 -2.34916 -6.56856 0
M  V30 42940 H 4308.19 -1.13316 -6.35476 0
M  V30 42941 H 4308.95 -2.68682 -7.73144 0
M  V30 42942 N 4311.62 1.57545 0.0417295 0
M  V30 42943 C 4313.03 1.77135 0.58992 0
M  V30 42944 C 4313.38 0.861018 1.76298 0
M  V30 42945 O 4312.5 0.0526128 2.16336 0
M  V30 42946 C 4313.1 3.21228 1.07694 0
M  V30 42947 C 4311.66 3.42059 1.57075 0
M  V30 42948 C 4310.81 2.72696 0.503217 0
M  V30 42949 H 4313.76 1.57624 -0.184497 0
M  V30 42950 H 4313.78 3.27045 1.94479 0
M  V30 42951 H 4313.29 3.87459 0.222962 0
M  V30 42952 H 4311.39 2.80986 2.447 0
M  V30 42953 H 4311.5 4.50629 1.62698 0
M  V30 42954 H 4309.87 2.36105 0.955324 0
M  V30 42955 H 4310.65 3.41601 -0.341084 0
M  V30 42956 N 4313.1 -0.313759 1.54445 0
M  V30 42957 C 4314.04 -1.4066 1.8525 0
M  V30 42958 C 4315.04 -1.53093 0.725174 0
M  V30 42959 O 4316.24 -1.55362 0.908984 0
M  V30 42960 H 4312.62 -0.469585 0.587362 0
M  V30 42961 H 4314.59 -1.11908 2.76621 0
M  V30 42962 C 4313.34 -2.7672 2.10526 0
M  V30 42963 H 4312.66 -2.6793 2.96738 0
M  V30 42964 H 4314.1 -3.52231 2.36028 0
M  V30 42965 C 4312.56 -3.24661 0.899824 0
M  V30 42966 O 4313.09 -4.01538 0.113953 0
M  V30 42967 N 4311.3 -2.81825 0.708734 0
M  V30 42968 H 4310.84 -2.19425 1.34945 0
M  V30 42969 H 4310.8 -3.14253 -0.096281 0
M  V30 42970 N 4314.57 -1.46684 -0.576319 0
M  V30 42971 C 4315.54 -1.57306 -1.66695 0
M  V30 42972 C 4316.54 -0.449674 -1.54384 0
M  V30 42973 O 4317.73 -0.714178 -1.58887 0
M  V30 42974 C 4314.86 -1.49944 -3.06153 0
M  V30 42975 H 4316.05 -2.5451 -1.58634 0
M  V30 42976 H 4313.6 -1.3459 -0.794687 0
M  V30 42977 H 4314.34 -0.540435 -3.19765 0
M  V30 42978 H 4314.12 -2.31456 -3.16497 0
M  V30 42979 H 4315.61 -1.60475 -3.85535 0
M  V30 42980 N 4316.05 0.821486 -1.34497 0
M  V30 42981 C 4317.3 1.57467 -1.26683 0
M  V30 42982 C 4317.62 1.9432 0.162667 0
M  V30 42983 O 4316.89 1.62397 1.09563 0
M  V30 42984 H 4315.47 0.583895 -0.465914 0
M  V30 42985 H 4318.13 0.980761 -1.68425 0
M  V30 42986 H 4317.23 2.49683 -1.87256 0
M  V30 42987 N 4317.53 1.1825 1.04186 0
M  V30 42988 C 4318.46 0.93191 2.14097 0
M  V30 42989 C 4319.44 -0.129931 1.69603 0
M  V30 42990 O 4320.63 0.0224111 1.94187 0
M  V30 42991 C 4317.76 0.455524 3.443 0
M  V30 42992 C 4316.71 1.45771 4.02411 0
M  V30 42993 C 4316.04 0.838889 5.28078 0
M  V30 42994 C 4317.34 2.83405 4.38724 0
M  V30 42995 H 4319.03 1.8511 2.35318 0
M  V30 42996 H 4316.58 0.891441 1.1309 0
M  V30 42997 H 4318.53 0.267579 4.2055 0
M  V30 42998 H 4317.25 -0.499234 3.22762 0
M  V30 42999 H 4315.91 1.63257 3.28242 0
M  V30 43000 H 4315.56 -0.123019 5.0285 0
M  V30 43001 H 4315.26 1.508 5.6792 0
M  V30 43002 H 4316.78 0.661447 6.07007 0
M  V30 43003 H 4318.2 2.69577 5.05965 0
M  V30 43004 H 4316.6 3.46987 4.89612 0
M  V30 43005 H 4317.67 3.37048 3.48607 0
M  V30 43006 N 4319.01 -1.23079 0.984342 0
M  V30 43007 C 4320.26 -1.90908 0.650917 0
M  V30 43008 C 4320.57 -1.77597 -0.81967 0
M  V30 43009 O 4321.78 -2.40265 -1.26432 0
M  V30 43010 C 4320.23 -3.42237 1.11365 0
M  V30 43011 C 4319.84 -3.64201 2.60886 0
M  V30 43012 C 4321.58 -4.15818 0.854152 0
M  V30 43013 C 4319.49 -5.09185 3.00806 0
M  V30 43014 H 4318.42 -0.714866 0.239756 0
M  V30 43015 H 4321.07 -1.39446 1.19277 0
M  V30 43016 H 4319.45 -3.92831 0.499985 0
M  V30 43017 H 4320.63 -3.24137 3.27524 0
M  V30 43018 H 4318.94 -3.03937 2.84625 0
M  V30 43019 H 4321.54 -5.22662 1.12821 0
M  V30 43020 H 4321.88 -4.15771 -0.20974 0
M  V30 43021 H 4322.42 -3.71224 1.42959 0
M  V30 43022 H 4319.16 -5.14366 4.06335 0
M  V30 43023 H 4318.68 -5.50185 2.38864 0
M  V30 43024 H 4320.35 -5.77547 2.9163 0
M  V30 43025 N 4320.49 -0.756478 -1.38258 0
M  V30 43026 C 4321.42 -0.0790626 -2.28063 0
M  V30 43027 C 4322.4 0.725277 -1.45528 0
M  V30 43028 O 4323.58 0.703291 -1.74889 0
M  V30 43029 C 4320.71 0.894756 -3.26668 0
M  V30 43030 C 4319.75 0.176294 -4.26135 0
M  V30 43031 S 4320.59 -1.12496 -5.2355 0
M  V30 43032 C 4321.74 -0.154288 -6.2571 0
M  V30 43033 H 4321.98 -0.840596 -2.85169 0
M  V30 43034 H 4319.51 -0.549187 -1.44303 0
M  V30 43035 H 4321.47 1.45126 -3.83991 0
M  V30 43036 H 4320.13 1.62928 -2.68539 0
M  V30 43037 H 4319.32 0.913944 -4.95644 0
M  V30 43038 H 4318.92 -0.308771 -3.72723 0
M  V30 43039 H 4321.22 0.67871 -6.74092 0
M  V30 43040 H 4322.16 -0.817115 -7.0337 0
M  V30 43041 H 4322.57 0.227696 -5.64041 0
M  V30 43042 N 4321.96 1.49264 -0.505783 0
M  V30 43043 C 4322.91 2.30863 0.283739 0
M  V30 43044 C 4323.91 1.39688 0.958308 0
M  V30 43045 O 4325.11 1.56716 0.885451 0
M  V30 43046 H 4321.49 0.743858 0.110362 0
M  V30 43047 H 4323.46 2.95367 -0.424401 0
M  V30 43048 C 4322.21 3.21154 1.33249 0
M  V30 43049 H 4321.53 3.91241 0.822825 0
M  V30 43050 H 4322.97 3.81181 1.85681 0
M  V30 43051 C 4321.43 2.41091 2.35323 0
M  V30 43052 O 4321.96 2.11846 3.41298 0
M  V30 43053 N 4320.17 2.03027 2.07914 0
M  V30 43054 H 4319.71 2.27011 1.21754 0
M  V30 43055 H 4319.67 1.49766 2.76437 0
M  V30 43056 N 4323.44 0.239823 1.55765 0
M  V30 43057 C 4324.67 -0.390658 2.02873 0
M  V30 43058 C 4325.08 -1.52593 1.11858 0
M  V30 43059 O 4324.42 -1.83281 0.124017 0
M  V30 43060 C 4324.49 -0.966638 3.46261 0
M  V30 43061 C 4324.15 0.0354892 4.56986 0
M  V30 43062 C 4325.15 0.842488 5.13028 0
M  V30 43063 C 4322.83 0.159533 5.02047 0
M  V30 43064 C 4324.83 1.76006 6.12618 0
M  V30 43065 C 4322.51 1.08061 6.0147 0
M  V30 43066 C 4323.51 1.87941 6.56633 0
M  V30 43067 O 4323.2 2.78497 7.54118 0
M  V30 43068 H 4322.93 -0.0978336 0.668883 0
M  V30 43069 H 4325.48 0.359167 2.02235 0
M  V30 43070 H 4323.71 -1.76589 3.44025 0
M  V30 43071 H 4325.4 -1.50645 3.7691 0
M  V30 43072 H 4326.17 0.757204 4.79053 0
M  V30 43073 H 4322.05 -0.452132 4.58777 0
M  V30 43074 H 4325.59 2.38397 6.55601 0
M  V30 43075 H 4321.49 1.16685 6.34866 0
M  V30 43076 H 4322.26 2.72778 7.71709 0
M  V30 43077 N 4324.92 -1.57565 -0.0333739 0
M  V30 43078 C 4326.16 -1.90922 -0.729944 0
M  V30 43079 C 4326.52 -0.837931 -1.7275 0
M  V30 43080 O 4327.73 -1.05571 -2.47201 0
M  V30 43081 C 4326 -3.2944 -1.38578 0
M  V30 43082 S 4327.56 -3.84624 -2.1121 0
M  V30 43083 H 4324.37 -0.668579 -0.241915 0
M  V30 43084 H 4326.98 -1.95494 0.015292 0
M  V30 43085 H 4325.68 -4.05277 -0.646459 0
M  V30 43086 H 4325.21 -3.28161 -2.16966 0
M  V30 43087 H 4327.23 -3.63004 -3.38294 0
M  V30 43088 N 4326.4 0.305564 -1.54609 0
M  V30 43089 C 4327.81 0.650963 -1.45721 0
M  V30 43090 C 4328.01 1.90908 -0.644695 0
M  V30 43091 O 4327.07 2.52051 -0.150589 0
M  V30 43092 C 4328.38 0.808208 -2.89635 0
M  V30 43093 C 4329.93 0.904389 -2.99649 0
M  V30 43094 C 4330.41 1.09367 -4.4475 0
M  V30 43095 N 4331.9 1.15998 -4.4844 0
M  V30 43096 C 4332.63 1.32464 -5.5789 0
M  V30 43097 N 4332.13 1.45858 -6.77272 0
M  V30 43098 N 4333.92 1.35316 -5.45569 0
M  V30 43099 H 4326.07 -0.521119 -2.05908 0
M  V30 43100 H 4328.34 -0.171472 -0.932363 0
M  V30 43101 H 4328.04 -0.0452921 -3.51671 0
M  V30 43102 H 4327.92 1.6986 -3.3679 0
M  V30 43103 H 4330.3 1.74838 -2.3773 0
M  V30 43104 H 4330.38 -0.00992095 -2.55798 0
M  V30 43105 H 4330.03 0.254461 -5.07262 0
M  V30 43106 H 4329.96 2.02213 -4.86228 0
M  V30 43107 H 4332.45 1.07019 -3.6243 0
M  V30 43108 H 4332.76 1.58165 -7.56441 0
M  V30 43109 H 4331.11 1.42922 -6.80146 0
M  V30 43110 H 4334.3 1.24461 -4.51251 0
M  V30 43111 H 4334.47 1.47806 -6.30918 0
M  V30 43112 N 4327.88 1.46988 0.568532 0
M  V30 43113 C 4328.82 1.59013 1.69757 0
M  V30 43114 C 4329.82 0.457931 1.63093 0
M  V30 43115 O 4331.02 0.635325 1.68415 0
M  V30 43116 H 4327.4 0.500213 0.561508 0
M  V30 43117 H 4329.37 2.53914 1.56749 0
M  V30 43118 C 4328.12 1.61094 3.0813 0
M  V30 43119 H 4327.44 2.47559 3.13934 0
M  V30 43120 H 4328.88 1.7356 3.8685 0
M  V30 43121 C 4327.34 0.342141 3.35158 0
M  V30 43122 O 4327.87 -0.561614 3.97755 0
M  V30 43123 N 4326.08 0.225659 2.89723 0
M  V30 43124 H 4325.62 0.962021 2.38962 0
M  V30 43125 H 4325.58 -0.622364 3.08179 0
M  V30 43126 N 4329.35 -0.814342 1.3493 0
M  V30 43127 C 4330.77 -1.38776 1.24892 0
M  V30 43128 C 4331.12 -1.9582 -0.121982 0
M  V30 43129 O 4330.24 -1.90711 -1.02266 0
M  V30 43130 C 4330.84 -2.52287 2.26134 0
M  V30 43131 C 4329.4 -3.05513 2.1986 0
M  V30 43132 C 4328.54 -1.78431 2.12268 0
M  V30 43133 H 4331.49 -0.61802 1.46172 0
M  V30 43134 H 4331.51 -3.30623 1.88332 0
M  V30 43135 H 4331.03 -2.10739 3.259 0
M  V30 43136 H 4329.13 -3.51544 1.2348 0
M  V30 43137 H 4329.24 -3.64021 3.11489 0
M  V30 43138 H 4327.6 -1.99673 1.58123 0
M  V30 43139 H 4328.39 -1.39046 3.13881 0
M  V30 43140 N 4330.83 -1.18801 -1.03557 0
M  V30 43141 C 4332.11 -0.896021 -1.7387 0
M  V30 43142 C 4332.49 0.599915 -2.02396 0
M  V30 43143 O 4331.84 1.55613 -1.67322 0
M  V30 43144 C 4332.05 -1.74876 -3.02025 0
M  V30 43145 C 4333.4 -1.97893 -3.75664 0
M  V30 43146 O 4334.42 -1.71972 -3.11936 0
M  V30 43147 O 4333.28 -2.41561 -4.90215 0
M  V30 43148 H 4330.37 -0.33332 -0.756853 0
M  V30 43149 H 4332.92 -1.2958 -1.09577 0
M  V30 43150 H 4331.69 -2.7626 -2.77121 0
M  V30 43151 H 4331.31 -1.34783 -3.74058 0
M  V30 43152 N 4332.31 1.22555 -0.990855 0
M  V30 43153 C 4333.27 2.22636 -0.544592 0
M  V30 43154 C 4334.27 1.56451 0.37144 0
M  V30 43155 O 4335.46 1.73429 0.16368 0
M  V30 43156 C 4332.6 3.40264 0.20816 0
M  V30 43157 H 4333.79 2.63631 -1.42963 0
M  V30 43158 H 4331.34 1.3557 -0.777844 0
M  V30 43159 H 4332.08 3.04739 1.10928 0
M  V30 43160 H 4331.86 3.89515 -0.449532 0
M  V30 43161 H 4333.35 4.14491 0.508623 0
M  V30 43162 N 4333.79 0.763799 1.37855 0
M  V30 43163 C 4335.04 0.325012 2.00179 0
M  V30 43164 C 4335.37 -1.0934 1.60494 0
M  V30 43165 O 4334.64 -1.75073 0.847326 0
M  V30 43166 C 4334.93 0.459515 3.57156 0
M  V30 43167 C 4334.78 1.91977 4.06774 0
M  V30 43168 C 4336.1 -0.141 4.39874 0
M  V30 43169 H 4333.22 0.119568 0.727236 0
M  V30 43170 H 4335.86 0.965356 1.63649 0
M  V30 43171 H 4334.01 -0.0856326 3.88406 0
M  V30 43172 H 4335.68 2.52401 3.86124 0
M  V30 43173 H 4333.92 2.43133 3.59261 0
M  V30 43174 H 4334.6 1.96498 5.15842 0
M  V30 43175 H 4337.07 0.324048 4.14836 0
M  V30 43176 H 4335.95 -0.0167065 5.48897 0
M  V30 43177 H 4336.21 -1.23045 4.24632 0
M  V30 43178 N 4335.27 -1.48993 0.513692 0
M  V30 43179 C 4336.23 -2.27865 -0.247026 0
M  V30 43180 C 4337.23 -1.34416 -0.88255 0
M  V30 43181 O 4338.42 -1.5746 -0.745117 0
M  V30 43182 C 4335.55 -3.12784 -1.35569 0
M  V30 43183 H 4336.75 -2.96577 0.445237 0
M  V30 43184 H 4334.3 -1.53967 0.269072 0
M  V30 43185 H 4335.03 -2.48667 -2.08172 0
M  V30 43186 H 4334.82 -3.81506 -0.905301 0
M  V30 43187 H 4336.31 -3.72321 -1.89121 0
M  V30 43188 N 4336.75 -0.248081 -1.55635 0
M  V30 43189 C 4337.71 0.637659 -2.20151 0
M  V30 43190 C 4338.71 1.10186 -1.17114 0
M  V30 43191 O 4339.9 1.00639 -1.42188 0
M  V30 43192 C 4337.03 1.87656 -2.84601 0
M  V30 43193 H 4338.22 0.0747603 -2.99807 0
M  V30 43194 H 4335.78 0.00145511 -1.563 0
M  V30 43195 H 4336.51 2.48066 -2.08886 0
M  V30 43196 H 4336.3 1.5519 -3.60081 0
M  V30 43197 H 4337.79 2.50704 -3.33972 0
M  V30 43198 N 4338.22 1.5758 0.0250174 0
M  V30 43199 C 4339.63 1.77751 0.571099 0
M  V30 43200 C 4339.99 0.879668 1.75375 0
M  V30 43201 O 4339.11 0.0755552 2.16268 0
M  V30 43202 C 4339.71 3.22352 1.04281 0
M  V30 43203 C 4338.26 3.43706 1.53438 0
M  V30 43204 C 4337.41 2.73214 0.474265 0
M  V30 43205 H 4340.36 1.57419 -0.201205 0
M  V30 43206 H 4340.38 3.29089 1.90999 0
M  V30 43207 H 4339.9 3.87674 0.181854 0
M  V30 43208 H 4338 2.83565 2.41706 0
M  V30 43209 H 4338.11 4.52329 1.57909 0
M  V30 43210 H 4336.47 2.37105 0.930228 0
M  V30 43211 H 4337.26 3.4122 -0.377297 0
M  V30 43212 N 4339.7 -0.29736 1.54769 0
M  V30 43213 C 4340.93 -1.04945 1.77961 0
M  V30 43214 C 4341.34 -1.81301 0.540982 0
M  V30 43215 O 4340.68 -1.76796 -0.498871 0
M  V30 43216 C 4340.74 -2.07363 2.93668 0
M  V30 43217 C 4340.41 -1.50169 4.31623 0
M  V30 43218 C 4341.41 -0.929845 5.11517 0
M  V30 43219 C 4339.09 -1.53622 4.78232 0
M  V30 43220 C 4341.08 -0.400141 6.36143 0
M  V30 43221 C 4338.77 -1.00265 6.02818 0
M  V30 43222 C 4339.77 -0.435583 6.8161 0
M  V30 43223 O 4339.46 0.0898876 8.0385 0
M  V30 43224 H 4339.19 -0.316841 0.59715 0
M  V30 43225 H 4341.74 -0.341058 2.02549 0
M  V30 43226 H 4339.97 -2.81893 2.64713 0
M  V30 43227 H 4341.66 -2.68503 3.04402 0
M  V30 43228 H 4342.43 -0.896042 4.76651 0
M  V30 43229 H 4338.31 -1.96699 4.1693 0
M  V30 43230 H 4341.85 0.0431231 6.97587 0
M  V30 43231 H 4337.75 -1.03361 6.37171 0
M  V30 43232 H 4338.52 -0.0230679 8.18497 0
M  V30 43233 N 4341.18 -1.47287 -0.560729 0
M  V30 43234 C 4342.42 -1.55307 -1.32888 0
M  V30 43235 C 4342.78 -0.208931 -1.9086 0
M  V30 43236 O 4343.98 -0.163958 -2.68299 0
M  V30 43237 C 4342.26 -2.63745 -2.41192 0
M  V30 43238 S 4343.81 -2.91323 -3.2814 0
M  V30 43239 H 4340.63 -0.548464 -0.452447 0
M  V30 43240 H 4343.23 -1.84648 -0.642304 0
M  V30 43241 H 4341.94 -3.6001 -1.97031 0
M  V30 43242 H 4341.47 -2.36208 -3.14594 0
M  V30 43243 H 4343.48 -2.28269 -4.40576 0
M  V30 43244 N 4342.66 0.807175 -1.3536 0
M  V30 43245 C 4343.89 1.59328 -1.31523 0
M  V30 43246 C 4344.3 1.88883 0.109503 0
M  V30 43247 O 4343.64 1.49198 1.07171 0
M  V30 43248 C 4343.7 2.95056 -2.05383 0
M  V30 43249 C 4343.36 2.88319 -3.54572 0
M  V30 43250 C 4344.36 2.61797 -4.49175 0
M  V30 43251 C 4342.05 3.07455 -3.97211 0
M  V30 43252 C 4344.04 2.54486 -5.84393 0
M  V30 43253 C 4341.73 2.99767 -5.32525 0
M  V30 43254 C 4342.73 2.73318 -6.25928 0
M  V30 43255 O 4342.41 2.65592 -7.5876 0
M  V30 43256 H 4342.15 0.501436 -0.453362 0
M  V30 43257 H 4344.7 1.01114 -1.78788 0
M  V30 43258 H 4342.93 3.55251 -1.52755 0
M  V30 43259 H 4344.62 3.56193 -1.94631 0
M  V30 43260 H 4345.38 2.46733 -4.1755 0
M  V30 43261 H 4341.26 3.27053 -3.24896 0
M  V30 43262 H 4344.81 2.33762 -6.57268 0
M  V30 43263 H 4340.7 3.14389 -5.63764 0
M  V30 43264 H 4341.47 2.81204 -7.68678 0
M  V30 43265 N 4344.14 1.19348 1.02926 0
M  V30 43266 C 4345.36 1.02112 1.79947 0
M  V30 43267 C 4345.78 -0.430151 1.83835 0
M  V30 43268 O 4345.14 -1.29877 1.28211 0
M  V30 43269 C 4345.19 1.58264 3.25015 0
M  V30 43270 O 4344.91 2.9771 3.21404 0
M  V30 43271 C 4346.41 1.45805 4.18636 0
M  V30 43272 H 4343.63 0.359914 0.566307 0
M  V30 43273 H 4346.17 1.58155 1.29643 0
M  V30 43274 H 4344.33 1.0637 3.72511 0
M  V30 43275 H 4344.74 3.24121 4.12366 0
M  V30 43276 H 4346.22 1.89874 5.18316 0
M  V30 43277 H 4346.69 0.40851 4.37296 0
M  V30 43278 H 4347.3 1.96827 3.77013 0
M  V30 43279 N 4345.61 -1.22028 0.997341 0
M  V30 43280 C 4347.03 -1.42996 0.708832 0
M  V30 43281 C 4347.23 -1.88241 -0.71887 0
M  V30 43282 O 4346.29 -2.03908 -1.48922 0
M  V30 43283 C 4347.6 -2.46777 1.71818 0
M  V30 43284 C 4349.15 -2.6057 1.73413 0
M  V30 43285 C 4349.62 -3.67578 2.73223 0
M  V30 43286 N 4351.11 -3.7504 2.71844 0
M  V30 43287 C 4351.85 -4.57443 3.45736 0
M  V30 43288 N 4351.34 -5.43804 4.29243 0
M  V30 43289 N 4353.14 -4.51795 3.34421 0
M  V30 43290 H 4345.29 -0.909675 1.91934 0
M  V30 43291 H 4347.55 -0.461627 0.828012 0
M  V30 43292 H 4347.26 -2.20488 2.74004 0
M  V30 43293 H 4347.13 -3.45455 1.51463 0
M  V30 43294 H 4349.52 -2.86201 0.719228 0
M  V30 43295 H 4349.6 -1.62153 1.97838 0
M  V30 43296 H 4349.24 -3.42693 3.74865 0
M  V30 43297 H 4349.17 -4.65574 2.46066 0
M  V30 43298 H 4351.66 -3.13337 2.11254 0
M  V30 43299 H 4351.98 -6.03715 4.8244 0
M  V30 43300 H 4350.32 -5.43371 4.33328 0
M  V30 43301 H 4353.51 -3.83354 2.68621 0
M  V30 43302 H 4353.69 -5.15783 3.92266 0
M  V30 43303 N 4347.09 -0.771099 -1.37448 0
M  V30 43304 C 4348.37 -0.259885 -1.93866 0
M  V30 43305 C 4348.75 1.24495 -1.70482 0
M  V30 43306 O 4348.1 2.02778 -1.05325 0
M  V30 43307 C 4348.31 -0.63257 -3.43219 0
M  V30 43308 C 4349.66 -0.601999 -4.20311 0
M  V30 43309 O 4350.68 -0.571921 -3.51579 0
M  V30 43310 O 4349.54 -0.6285 -5.42874 0
M  V30 43311 H 4346.63 -0.0597067 -0.824842 0
M  V30 43312 H 4349.18 -0.852408 -1.46738 0
M  V30 43313 H 4347.95 -1.67116 -3.53819 0
M  V30 43314 H 4347.57 -0.0129603 -3.97598 0
M  V30 43315 N 4348.57 1.48719 -0.521586 0
M  V30 43316 C 4349.98 1.86533 -0.0789803 0
M  V30 43317 C 4350.33 1.43198 1.34122 0
M  V30 43318 O 4349.46 0.818948 2.00305 0
M  V30 43319 C 4350.05 3.38525 -0.136553 0
M  V30 43320 C 4348.61 3.75563 0.250813 0
M  V30 43321 C 4347.76 2.72754 -0.500039 0
M  V30 43322 H 4350.71 1.40743 -0.733288 0
M  V30 43323 H 4350.73 3.74841 0.653802 0
M  V30 43324 H 4350.24 3.70034 -1.17031 0
M  V30 43325 H 4348.34 3.49666 1.28703 0
M  V30 43326 H 4348.46 4.79028 -0.0829566 0
M  V30 43327 H 4346.82 2.54646 0.0526785 0
M  V30 43328 H 4347.6 3.07108 -1.53427 0
M  V30 43329 N 4350.05 0.256331 1.55501 0
M  V30 43330 C 4351.3 -0.365055 1.98776 0
M  V30 43331 C 4351.62 -1.57775 1.14594 0
M  V30 43332 O 4350.89 -1.94534 0.230954 0
M  V30 43333 H 4349.47 -0.137869 0.734167 0
M  V30 43334 H 4352.13 0.357309 1.91597 0
M  V30 43335 H 4351.23 -0.667771 3.04872 0
M  V30 43336 N 4351.53 -1.57591 -0.0166602 0
M  V30 43337 C 4352.77 -1.90114 -0.706 0
M  V30 43338 C 4353.11 -0.855572 -1.74338 0
M  V30 43339 O 4352.38 0.12784 -1.94079 0
M  V30 43340 C 4352.66 -3.33255 -1.3643 0
M  V30 43341 C 4352.52 -4.48516 -0.339597 0
M  V30 43342 C 4353.84 -3.75524 -2.29498 0
M  V30 43343 H 4350.95 -0.691411 -0.255187 0
M  V30 43344 H 4353.6 -1.89974 0.031213 0
M  V30 43345 H 4351.75 -3.33505 -1.99266 0
M  V30 43346 H 4353.42 -4.60401 0.287796 0
M  V30 43347 H 4351.66 -4.32467 0.339875 0
M  V30 43348 H 4352.33 -5.45588 -0.83893 0
M  V30 43349 H 4354.81 -3.7672 -1.76695 0
M  V30 43350 H 4353.68 -4.76463 -2.72533 0
M  V30 43351 H 4353.95 -3.08467 -3.16703 0
M  V30 43352 N 4353 0.289148 -1.54925 0
M  V30 43353 C 4354.42 0.635471 -1.46403 0
M  V30 43354 C 4354.62 1.90214 -0.664908 0
M  V30 43355 O 4353.68 2.51877 -0.177314 0
M  V30 43356 C 4354.99 0.777443 -2.90476 0
M  V30 43357 C 4356.54 0.872556 -3.00592 0
M  V30 43358 C 4357.01 1.04643 -4.45885 0
M  V30 43359 N 4358.5 1.11235 -4.49645 0
M  V30 43360 C 4359.24 1.2654 -5.59263 0
M  V30 43361 N 4358.73 1.38667 -6.78781 0
M  V30 43362 N 4360.53 1.29522 -5.46974 0
M  V30 43363 H 4352.68 -0.542929 -2.05344 0
M  V30 43364 H 4354.94 -0.181351 -0.930492 0
M  V30 43365 H 4354.65 -0.082589 -3.51603 0
M  V30 43366 H 4354.52 1.66278 -3.38573 0
M  V30 43367 H 4356.91 1.72307 -2.39571 0
M  V30 43368 H 4356.99 -0.0370512 -2.55773 0
M  V30 43369 H 4356.63 0.200645 -5.07504 0
M  V30 43370 H 4356.56 1.97044 -4.88345 0
M  V30 43371 H 4359.05 1.03168 -3.63545 0
M  V30 43372 H 4359.37 1.50133 -7.58076 0
M  V30 43373 H 4357.71 1.35701 -6.81623 0
M  V30 43374 H 4360.9 1.19668 -4.52545 0
M  V30 43375 H 4361.08 1.41106 -6.3245 0
M  V30 43376 N 4354.48 1.47583 0.55291 0
M  V30 43377 C 4355.73 1.5564 1.3095 0
M  V30 43378 C 4356.08 0.217595 1.91166 0
M  V30 43379 O 4355.38 -0.777177 1.7513 0
M  V30 43380 C 4355.57 2.61394 2.43738 0
M  V30 43381 C 4355.4 4.05427 1.94574 0
M  V30 43382 C 4354.17 4.72827 1.78221 0
M  V30 43383 C 4356.37 4.92313 1.48769 0
M  V30 43384 N 4354.35 6.01361 1.23442 0
M  V30 43385 C 4355.72 6.10909 1.05784 0
M  V30 43386 C 4357.78 4.78721 1.3686 0
M  V30 43387 C 4356.48 7.17413 0.52074 0
M  V30 43388 C 4358.5 5.85325 0.845508 0
M  V30 43389 C 4357.87 7.03113 0.425612 0
M  V30 43390 H 4353.97 0.62421 0.471048 0
M  V30 43391 H 4356.55 1.84354 0.626229 0
M  V30 43392 H 4354.72 2.3454 3.09589 0
M  V30 43393 H 4356.45 2.59269 3.10744 0
M  V30 43394 H 4353.21 4.28801 2.01064 0
M  V30 43395 H 4353.63 6.69851 0.981287 0
M  V30 43396 H 4358.27 3.88018 1.67934 0
M  V30 43397 H 4355.99 8.07858 0.197631 0
M  V30 43398 H 4359.58 5.76856 0.756858 0
M  V30 43399 H 4358.46 7.84195 0.0271233 0
M  V30 43400 N 4355.96 -0.799985 1.35787 0
M  V30 43401 C 4356.87 -1.94363 1.31378 0
M  V30 43402 C 4357.89 -1.72634 0.217614 0
M  V30 43403 O 4359.06 -1.96351 0.448146 0
M  V30 43404 C 4356.13 -3.29057 1.0919 0
M  V30 43405 C 4355.19 -3.63637 2.28181 0
M  V30 43406 C 4354.42 -4.91903 2.07043 0
M  V30 43407 O 4354.64 -5.60835 1.04022 0
M  V30 43408 O 4353.58 -5.24895 2.94566 0
M  V30 43409 H 4357.4 -2.01031 2.27641 0
M  V30 43410 H 4354.99 -0.938722 1.16225 0
M  V30 43411 H 4356.87 -4.0968 0.986912 0
M  V30 43412 H 4355.55 -3.23305 0.159823 0
M  V30 43413 H 4354.45 -2.83363 2.44246 0
M  V30 43414 H 4355.79 -3.74101 3.19859 0
M  V30 43415 N 4357.44 -1.19892 -1.02292 0
M  V30 43416 C 4358.67 -1.02915 -1.79142 0
M  V30 43417 C 4359.08 0.424975 -1.84365 0
M  V30 43418 O 4358.42 1.30692 -1.29094 0
M  V30 43419 C 4358.48 -1.52946 -3.25342 0
M  V30 43420 C 4358.15 -3.0115 -3.43741 0
M  V30 43421 C 4359.14 -3.98863 -3.33474 0
M  V30 43422 C 4356.83 -3.39973 -3.69762 0
M  V30 43423 C 4358.82 -5.3339 -3.48962 0
M  V30 43424 C 4356.51 -4.74657 -3.84895 0
M  V30 43425 C 4357.51 -5.71174 -3.74498 0
M  V30 43426 O 4357.19 -7.03418 -3.89176 0
M  V30 43427 H 4356.93 -0.362769 -0.570416 0
M  V30 43428 H 4359.48 -1.5928 -1.29688 0
M  V30 43429 H 4357.71 -0.909616 -3.7585 0
M  V30 43430 H 4359.4 -1.32086 -3.83807 0
M  V30 43431 H 4360.17 -3.70214 -3.13315 0
M  V30 43432 H 4356.04 -2.65394 -3.76944 0
M  V30 43433 H 4359.59 -6.08709 -3.40763 0
M  V30 43434 H 4355.49 -5.02999 -4.04552 0
M  V30 43435 H 4356.25 -7.10576 -4.06232 0
M  V30 43436 N 4358.92 1.21498 -1.0038 0
M  V30 43437 C 4360.16 1.92251 -0.694171 0
M  V30 43438 C 4360.52 1.76278 0.760914 0
M  V30 43439 O 4361.72 2.41394 1.18247 0
M  V30 43440 C 4359.99 3.3998 -1.10221 0
M  V30 43441 S 4361.55 4.29205 -0.912604 0
M  V30 43442 H 4358.37 0.664287 -0.253463 0
M  V30 43443 H 4360.97 1.47042 -1.28837 0
M  V30 43444 H 4359.68 3.49122 -2.15736 0
M  V30 43445 H 4359.21 3.90206 -0.500253 0
M  V30 43446 H 4361.22 4.95832 0.190957 0
M  V30 43447 N 4360.39 0.778378 1.37037 0
M  V30 43448 C 4361.34 0.157032 2.32069 0
M  V30 43449 C 4362.34 -0.677476 1.55263 0
M  V30 43450 O 4363.54 -0.573796 1.70609 0
M  V30 43451 H 4359.92 0.0319976 0.751319 0
M  V30 43452 H 4361.89 0.974176 2.8205 0
M  V30 43453 C 4360.64 -0.702482 3.4053 0
M  V30 43454 H 4359.96 -0.06971 3.99739 0
M  V30 43455 H 4361.4 -1.1041 4.09372 0
M  V30 43456 C 4359.86 -1.85597 2.81168 0
M  V30 43457 O 4360.39 -2.95187 2.72447 0
M  V30 43458 N 4358.6 -1.65864 2.38616 0
M  V30 43459 H 4358.14 -0.767255 2.45908 0
M  V30 43460 H 4358.1 -2.43207 1.99243 0
M  V30 43461 N 4361.87 -1.4844 0.529465 0
M  V30 43462 C 4362.8 -2.32439 -0.222377 0
M  V30 43463 C 4363.78 -1.4206 -0.935573 0
M  V30 43464 O 4364.97 -1.70947 -0.921453 0
M  V30 43465 C 4362.1 -3.23244 -1.27006 0
M  V30 43466 C 4361.05 -4.22643 -0.675039 0
M  V30 43467 C 4360.38 -5.02579 -1.82534 0
M  V30 43468 C 4361.68 -5.21106 0.352906 0
M  V30 43469 H 4363.37 -2.95546 0.478829 0
M  V30 43470 H 4360.92 -1.42123 0.23172 0
M  V30 43471 H 4362.87 -3.80834 -1.80398 0
M  V30 43472 H 4361.6 -2.58135 -2.00084 0
M  V30 43473 H 4360.26 -3.66239 -0.162646 0
M  V30 43474 H 4359.9 -4.33895 -2.54449 0
M  V30 43475 H 4359.6 -5.69855 -1.43313 0
M  V30 43476 H 4361.13 -5.63021 -2.36305 0
M  V30 43477 H 4362.54 -5.73223 -0.0939067 0
M  V30 43478 H 4360.94 -5.96432 0.662473 0
M  V30 43479 H 4362.01 -4.68274 1.25885 0
M  V30 43480 N 4363.35 -0.264574 -1.55363 0
M  V30 43481 C 4364.58 0.358853 -2.03764 0
M  V30 43482 C 4364.99 1.50247 -1.1433 0
M  V30 43483 O 4364.35 1.81786 -0.161251 0
M  V30 43484 C 4364.4 0.849897 -3.51367 0
M  V30 43485 O 4364.12 -0.248163 -4.37397 0
M  V30 43486 C 4365.62 1.54222 -4.15609 0
M  V30 43487 H 4362.84 0.083207 -0.665821 0
M  V30 43488 H 4365.39 -0.393595 -2.00677 0
M  V30 43489 H 4363.54 1.55247 -3.54933 0
M  V30 43490 H 4363.96 0.127569 -5.24345 0
M  V30 43491 H 4365.43 1.83733 -5.20525 0
M  V30 43492 H 4365.91 2.4702 -3.6315 0
M  V30 43493 H 4366.51 0.88377 -4.16016 0
M  V30 43494 N 4364.83 1.57598 0.00830251 0
M  V30 43495 C 4365.76 2.04733 1.03038 0
M  V30 43496 C 4366.77 0.963763 1.31208 0
M  V30 43497 O 4367.96 1.24071 1.2833 0
M  V30 43498 C 4365.06 2.42528 2.36714 0
M  V30 43499 C 4364.24 3.73517 2.27604 0
M  V30 43500 C 4363.3 3.98271 3.43899 0
M  V30 43501 O 4362.32 4.69051 3.22459 0
M  V30 43502 N 4363.52 3.4552 4.66472 0
M  V30 43503 H 4366.29 2.93036 0.628471 0
M  V30 43504 H 4363.85 1.60711 0.195852 0
M  V30 43505 H 4365.84 2.56208 3.13272 0
M  V30 43506 H 4364.41 1.59787 2.68676 0
M  V30 43507 H 4363.63 3.69993 1.3601 0
M  V30 43508 H 4364.92 4.59408 2.18681 0
M  V30 43509 H 4364.32 2.88187 4.8679 0
M  V30 43510 H 4362.87 3.64545 5.40324 0
M  V30 43511 N 4366.31 -0.280928 1.55076 0
M  V30 43512 C 4367.55 -1.02131 1.77055 0
M  V30 43513 C 4367.91 -1.83785 0.55562 0
M  V30 43514 O 4369.11 -2.60735 0.653516 0
M  V30 43515 C 4367.38 -1.88697 3.03526 0
M  V30 43516 S 4368.94 -2.69109 3.46592 0
M  V30 43517 H 4365.76 -0.344119 0.622176 0
M  V30 43518 H 4368.36 -0.292561 1.93299 0
M  V30 43519 H 4367.07 -1.27621 3.90052 0
M  V30 43520 H 4366.6 -2.65907 2.89926 0
M  V30 43521 H 4368.61 -3.91207 3.05241 0
M  V30 43522 N 4367.79 -1.47874 -0.545076 0
M  V30 43523 C 4369.01 -1.59008 -1.33159 0
M  V30 43524 C 4369.44 -0.245037 -1.86497 0
M  V30 43525 O 4368.79 0.781008 -1.63615 0
M  V30 43526 C 4368.84 -2.62823 -2.46893 0
M  V30 43527 O 4367.95 -2.18936 -3.49487 0
M  V30 43528 H 4367.29 -0.533717 -0.395021 0
M  V30 43529 H 4369.82 -1.93748 -0.657483 0
M  V30 43530 H 4369.83 -2.83625 -2.93293 0
M  V30 43531 H 4368.5 -3.6048 -2.0743 0
M  V30 43532 H 4367.08 -2.08285 -3.09309 0
M  V30 43533 N 4369.26 0.792773 -1.36209 0
M  V30 43534 C 4370.54 1.53837 -1.20804 0
M  V30 43535 C 4370.92 2.10081 0.207183 0
M  V30 43536 O 4370.27 1.93682 1.21241 0
M  V30 43537 C 4370.48 2.63597 -2.28731 0
M  V30 43538 C 4371.83 3.31569 -2.65231 0
M  V30 43539 O 4372.85 2.73878 -2.27749 0
M  V30 43540 O 4371.71 4.3582 -3.29732 0
M  V30 43541 H 4368.8 0.680352 -0.47016 0
M  V30 43542 H 4371.35 0.831544 -1.47931 0
M  V30 43543 H 4370.12 2.20007 -3.23593 0
M  V30 43544 H 4369.74 3.41901 -2.02951 0
M  V30 43545 N 4370.74 1.20433 1.01654 0
M  V30 43546 C 4371.7 0.954954 2.08358 0
M  V30 43547 C 4372.7 -0.0695187 1.6065 0
M  V30 43548 O 4373.89 0.166548 1.73402 0
M  V30 43549 C 4371.03 0.437709 3.38078 0
M  V30 43550 H 4372.22 1.90146 2.31915 0
M  V30 43551 H 4369.77 1.01971 1.18455 0
M  V30 43552 H 4370.51 -0.514256 3.20197 0
M  V30 43553 H 4370.29 1.17653 3.74032 0
M  V30 43554 H 4371.78 0.282722 4.16642 0
M  V30 43555 N 4372.22 -1.20963 1.01023 0
M  V30 43556 C 4373.13 -2.27201 0.584523 0
M  V30 43557 C 4374.15 -1.69912 -0.374947 0
M  V30 43558 O 4375.32 -1.99995 -0.237481 0
M  V30 43559 C 4372.39 -3.46615 -0.0769269 0
M  V30 43560 C 4371.45 -4.19157 0.927682 0
M  V30 43561 C 4370.68 -5.32869 0.297703 0
M  V30 43562 O 4370.9 -5.63188 -0.90419 0
M  V30 43563 O 4369.84 -5.93344 1.01125 0
M  V30 43564 H 4373.66 -2.65818 1.46882 0
M  V30 43565 H 4371.25 -1.2746 0.779378 0
M  V30 43566 H 4373.13 -4.19026 -0.446645 0
M  V30 43567 H 4371.81 -3.09887 -0.935518 0
M  V30 43568 H 4370.71 -3.48944 1.34865 0
M  V30 43569 H 4372.05 -4.59809 1.75603 0
M  V30 43570 N 4373.7 -0.785634 -1.36622 0
M  V30 43571 C 4374.95 -0.355586 -1.98947 0
M  V30 43572 C 4375.27 1.07538 -1.62667 0
M  V30 43573 O 4374.54 1.74063 -0.898821 0
M  V30 43574 H 4373.12 -0.128489 -0.735867 0
M  V30 43575 H 4375.78 -1.00684 -1.6688 0
M  V30 43576 H 4374.87 -0.44437 -3.0892 0
M  V30 43577 N 4375.18 1.48157 -0.53733 0
M  V30 43578 C 4376.4 2.06897 -0.0101846 0
M  V30 43579 C 4376.82 1.39286 1.27456 0
M  V30 43580 O 4376.18 0.482771 1.75999 0
M  V30 43581 C 4376.23 3.60891 0.209832 0
M  V30 43582 O 4375.95 4.25964 -1.02402 0
M  V30 43583 C 4377.45 4.36446 0.776525 0
M  V30 43584 H 4374.67 0.669988 -0.0368345 0
M  V30 43585 H 4377.21 1.90444 -0.745072 0
M  V30 43586 H 4375.37 3.76925 0.894789 0
M  V30 43587 H 4375.78 5.18218 -0.809322 0
M  V30 43588 H 4377.26 5.44943 0.879859 0
M  V30 43589 H 4377.73 4.01372 1.78317 0
M  V30 43590 H 4378.34 4.25108 0.1279 0
M  V30 43591 N 4376.65 0.272809 1.55221 0
M  V30 43592 C 4377.62 -0.602555 2.21138 0
M  V30 43593 C 4378.62 -1.08309 1.18852 0
M  V30 43594 O 4379.81 -0.983638 1.43771 0
M  V30 43595 C 4376.94 -1.83105 2.87551 0
M  V30 43596 H 4378.13 -0.0270541 2.99888 0
M  V30 43597 H 4375.69 0.023411 1.56282 0
M  V30 43598 H 4376.42 -2.44712 2.12806 0
M  V30 43599 H 4376.21 -1.49442 3.62504 0
M  V30 43600 H 4377.7 -2.45359 3.37918 0
M  V30 43601 N 4378.13 -1.576 5.54043e-05 0
M  V30 43602 C 4379.38 -1.90853 -0.685796 0
M  V30 43603 C 4379.71 -0.874015 -1.7342 0
M  V30 43604 O 4378.99 0.107248 -1.94204 0
M  V30 43605 C 4379.27 -3.34683 -1.32888 0
M  V30 43606 C 4379.12 -4.48851 -0.292006 0
M  V30 43607 C 4380.44 -3.77937 -2.25503 0
M  V30 43608 H 4377.56 -0.694078 -0.247839 0
M  V30 43609 H 4380.2 -1.89931 0.0513605 0
M  V30 43610 H 4378.35 -3.356 -1.95717 0
M  V30 43611 H 4380.02 -4.6007 0.336612 0
M  V30 43612 H 4378.27 -4.32082 0.385724 0
M  V30 43613 H 4378.94 -5.46447 -0.781016 0
M  V30 43614 H 4381.41 -3.78573 -1.7269 0
M  V30 43615 H 4380.29 -4.79327 -2.67464 0
M  V30 43616 H 4380.55 -3.11809 -3.13413 0
M  V30 43617 N 4379.61 0.2727 -1.55223 0
M  V30 43618 C 4380.57 1.32034 -1.87349 0
M  V30 43619 C 4381.57 1.42339 -0.74808 0
M  V30 43620 O 4382.76 1.41485 -1.01625 0
M  V30 43621 C 4379.9 2.70166 -2.07902 0
M  V30 43622 H 4381.09 1.04779 -2.81001 0
M  V30 43623 H 4378.64 0.510778 -1.47718 0
M  V30 43624 H 4379.38 3.02601 -1.16633 0
M  V30 43625 H 4379.16 2.64072 -2.89842 0
M  V30 43626 H 4380.65 3.45861 -2.3403 0
M  V30 43627 N 4381.09 1.48161 0.537226 0
M  V30 43628 C 4382.5 1.49433 1.11923 0
M  V30 43629 C 4382.85 0.260069 1.94469 0
M  V30 43630 O 4381.98 -0.633416 2.06922 0
M  V30 43631 C 4382.57 2.70765 2.03646 0
M  V30 43632 C 4381.13 2.74932 2.57078 0
M  V30 43633 C 4380.28 2.4284 1.33881 0
M  V30 43634 H 4383.23 1.55382 0.322831 0
M  V30 43635 H 4383.25 2.48871 2.87825 0
M  V30 43636 H 4382.76 3.6058 1.4354 0
M  V30 43637 H 4380.86 1.89307 3.20926 0
M  V30 43638 H 4380.97 3.76167 2.96707 0
M  V30 43639 H 4379.34 1.93842 1.65219 0
M  V30 43640 H 4380.12 3.34886 0.755386 0
M  V30 43641 N 4382.57 -0.785538 1.36627 0
M  V30 43642 C 4383.98 -1.36096 1.27807 0
M  V30 43643 C 4384.33 -1.96035 -0.0804186 0
M  V30 43644 O 4383.45 -1.92837 -0.981974 0
M  V30 43645 C 4384.05 -2.47434 2.31435 0
M  V30 43646 C 4382.61 -3.00781 2.26291 0
M  V30 43647 C 4381.75 -1.73889 2.16005 0
M  V30 43648 H 4384.71 -0.586876 1.4745 0
M  V30 43649 H 4384.73 -3.26554 1.95302 0
M  V30 43650 H 4384.24 -2.03779 3.30296 0
M  V30 43651 H 4382.34 -3.48846 1.30909 0
M  V30 43652 H 4382.45 -3.57332 3.1914 0
M  V30 43653 H 4380.82 -1.96274 1.62322 0
M  V30 43654 H 4381.6 -1.32357 3.16759 0
M  V30 43655 N 4384.04 -1.20971 -1.01014 0
M  V30 43656 C 4385.27 -1.04962 -1.78299 0
M  V30 43657 C 4385.69 0.40085 -1.84496 0
M  V30 43658 O 4385.04 1.27821 -1.30261 0
M  V30 43659 C 4385.1 -1.63414 -3.22456 0
M  V30 43660 O 4384.82 -3.02786 -3.16627 0
M  V30 43661 C 4386.32 -1.52447 -4.16263 0
M  V30 43662 H 4383.54 -0.368878 -0.560509 0
M  V30 43663 H 4386.08 -1.60198 -1.2711 0
M  V30 43664 H 4384.24 -1.12283 -3.70771 0
M  V30 43665 H 4384.65 -3.3064 -4.07158 0
M  V30 43666 H 4386.12 -1.98096 -5.1523 0
M  V30 43667 H 4386.6 -0.478029 -4.36591 0
M  V30 43668 H 4387.21 -2.028 -3.73834 0
M  V30 43669 N 4385.52 1.20426 -1.01663 0
M  V30 43670 C 4386.77 1.90076 -0.707029 0
M  V30 43671 C 4387.1 1.78651 0.761411 0
M  V30 43672 O 4386.38 1.17074 1.55318 0
M  V30 43673 C 4386.66 3.41465 -1.14339 0
M  V30 43674 C 4386.51 3.61824 -2.67214 0
M  V30 43675 C 4387.83 4.34258 -0.714682 0
M  V30 43676 H 4384.95 0.690245 -0.258324 0
M  V30 43677 H 4387.59 1.41822 -1.26438 0
M  V30 43678 H 4385.74 3.82693 -0.66919 0
M  V30 43679 H 4387.41 3.29849 -3.22487 0
M  V30 43680 H 4385.66 3.05293 -3.08186 0
M  V30 43681 H 4386.33 4.67945 -2.928 0
M  V30 43682 H 4388.8 4.00678 -1.12235 0
M  V30 43683 H 4387.68 5.38802 -1.04803 0
M  V30 43684 H 4387.94 4.40432 0.383644 0
M  V30 43685 N 4387 0.792868 1.36203 0
M  V30 43686 C 4388.23 0.378896 2.03401 0
M  V30 43687 C 4388.64 -1.00581 1.59778 0
M  V30 43688 O 4388 -1.64572 0.788822 0
M  V30 43689 C 4388.05 0.436956 3.58849 0
M  V30 43690 O 4387.77 1.76705 4.00883 0
M  V30 43691 C 4389.27 0.0140501 4.43298 0
M  V30 43692 H 4386.49 0.155696 0.652687 0
M  V30 43693 H 4389.04 1.07268 1.74109 0
M  V30 43694 H 4387.19 -0.208439 3.86839 0
M  V30 43695 H 4387.61 1.72028 4.95486 0
M  V30 43696 H 4389.08 0.105809 5.51899 0
M  V30 43697 H 4389.56 -1.039 4.26733 0
M  V30 43698 H 4390.16 0.632067 4.20577 0
M  V30 43699 N 4388.48 -1.4787 0.54518 0
M  V30 43700 C 4389.89 -1.86384 0.108646 0
M  V30 43701 C 4390.24 -1.45314 -1.31827 0
M  V30 43702 O 4389.37 -0.850711 -1.98977 0
M  V30 43703 C 4389.96 -3.38265 0.190393 0
M  V30 43704 C 4388.52 -3.75915 -0.191032 0
M  V30 43705 C 4387.67 -2.71924 0.543368 0
M  V30 43706 H 4390.62 -1.39559 0.755586 0
M  V30 43707 H 4390.64 -3.75834 -0.594085 0
M  V30 43708 H 4390.15 -3.68126 1.22903 0
M  V30 43709 H 4388.25 -3.51669 -1.23124 0
M  V30 43710 H 4388.36 -4.78836 0.159155 0
M  V30 43711 H 4386.73 -2.54697 -0.0121599 0
M  V30 43712 H 4387.51 -3.04628 1.58293 0
M  V30 43713 N 4389.96 -0.281037 -1.55074 0
M  V30 43714 C 4391.2 0.33454 -2.00022 0
M  V30 43715 C 4391.54 1.55059 -1.1692 0
M  V30 43716 O 4390.81 1.93005 -0.240714 0
M  V30 43717 C 4391.09 0.710883 -3.53013 0
M  V30 43718 C 4390.95 -0.512923 -4.46866 0
M  V30 43719 C 4392.27 1.54508 -4.12087 0
M  V30 43720 H 4389.38 0.120122 -0.727145 0
M  V30 43721 H 4392.03 -0.389162 -1.85972 0
M  V30 43722 H 4390.18 1.32748 -3.65117 0
M  V30 43723 H 4391.85 -1.15147 -4.46698 0
M  V30 43724 H 4390.09 -1.1499 -4.18282 0
M  V30 43725 H 4390.76 -0.205749 -5.51616 0
M  V30 43726 H 4393.24 1.02428 -4.03296 0
M  V30 43727 H 4392.11 1.77721 -5.19333 0
M  V30 43728 H 4392.38 2.528 -3.62691 0
M  V30 43729 N 4391.44 1.57598 -0.00841331 0
M  V30 43730 C 4392.85 1.78922 0.533267 0
M  V30 43731 C 4393.2 0.91667 1.73469 0
M  V30 43732 O 4392.32 0.121412 2.16059 0
M  V30 43733 C 4392.92 3.24492 0.974199 0
M  V30 43734 C 4391.48 3.46883 1.46113 0
M  V30 43735 C 4390.62 2.74159 0.416206 0
M  V30 43736 H 4393.57 1.56957 -0.234551 0
M  V30 43737 H 4393.6 3.33066 1.83976 0
M  V30 43738 H 4393.11 3.87972 0.0995817 0
M  V30 43739 H 4391.21 2.88628 2.35636 0
M  V30 43740 H 4391.32 4.55577 1.48279 0
M  V30 43741 H 4389.69 2.39025 0.879726 0
M  V30 43742 H 4390.47 3.40343 -0.44959 0
M  V30 43743 N 4392.91 -0.264465 1.55365 0
M  V30 43744 C 4394.14 -1.01719 1.80743 0
M  V30 43745 C 4394.56 -1.78834 0.583107 0
M  V30 43746 O 4393.92 -1.75169 -0.467504 0
M  V30 43747 C 4393.97 -1.94471 3.03666 0
M  V30 43748 O 4393.07 -3.03376 2.7935 0
M  V30 43749 H 4392.41 -0.290374 0.597142 0
M  V30 43750 H 4394.94 -0.290782 2.02523 0
M  V30 43751 H 4394.95 -2.36266 3.32629 0
M  V30 43752 H 4393.63 -1.37758 3.92423 0
M  V30 43753 H 4392.21 -2.65835 2.61507 0
M  V30 43754 N 4394.39 -1.48444 -0.529361 0
M  V30 43755 C 4395.32 -1.65908 -1.64307 0
M  V30 43756 C 4396.3 -0.507954 -1.62339 0
M  V30 43757 O 4397.49 -0.740566 -1.79525 0
M  V30 43758 C 4394.62 -1.69922 -3.02892 0
M  V30 43759 C 4393.57 -2.84541 -3.19719 0
M  V30 43760 C 4392.9 -2.73645 -4.59372 0
M  V30 43761 C 4394.2 -4.25831 -3.02432 0
M  V30 43762 H 4395.89 -2.59146 -1.49946 0
M  V30 43763 H 4393.44 -1.24711 -0.719938 0
M  V30 43764 H 4395.39 -1.80728 -3.80677 0
M  V30 43765 H 4394.11 -0.732636 -3.18277 0
M  V30 43766 H 4392.77 -2.73291 -2.44351 0
M  V30 43767 H 4392.42 -1.74955 -4.71593 0
M  V30 43768 H 4392.12 -3.50557 -4.71575 0
M  V30 43769 H 4393.65 -2.8642 -5.39255 0
M  V30 43770 H 4395.06 -4.37911 -3.70009 0
M  V30 43771 H 4393.46 -5.03746 -3.26128 0
M  V30 43772 H 4394.53 -4.42251 -1.98851 0
M  V30 43773 N 4395.87 0.778281 -1.37042 0
M  V30 43774 C 4396.78 1.92249 -1.34453 0
M  V30 43775 C 4397.8 1.72266 -0.245051 0
M  V30 43776 O 4398.97 1.95613 -0.479327 0
M  V30 43777 C 4396.04 3.27278 -1.14411 0
M  V30 43778 C 4395.1 3.59961 -2.33938 0
M  V30 43779 C 4394.33 4.88547 -2.14842 0
M  V30 43780 O 4394.55 5.59109 -1.12932 0
M  V30 43781 O 4393.49 5.20142 -3.02879 0
M  V30 43782 H 4397.31 1.97384 -2.3081 0
M  V30 43783 H 4394.9 0.920113 -1.17704 0
M  V30 43784 H 4396.78 4.08058 -1.05196 0
M  V30 43785 H 4395.46 3.2301 -0.211238 0
M  V30 43786 H 4394.36 2.79441 -2.48723 0
M  V30 43787 H 4395.7 3.68965 -3.2577 0
M  V30 43788 N 4397.35 1.21505 1.00371 0
M  V30 43789 C 4398.31 0.977 2.07334 0
M  V30 43790 C 4399.31 -0.0524757 1.60714 0
M  V30 43791 O 4400.5 0.18493 1.73216 0
M  V30 43792 C 4397.63 0.473542 3.37595 0
M  V30 43793 H 4398.83 1.92595 2.29885 0
M  V30 43794 H 4396.38 1.03222 1.17367 0
M  V30 43795 H 4397.11 -0.480266 3.20724 0
M  V30 43796 H 4396.9 1.21613 3.72763 0
M  V30 43797 H 4398.39 0.326897 4.16319 0
M  V30 43798 N 4398.83 -1.19885 1.023 0
M  V30 43799 C 4400.24 -1.71121 0.746628 0
M  V30 43800 C 4400.59 -1.81942 -0.734271 0
M  V30 43801 O 4399.71 -1.48645 -1.57269 0
M  V30 43802 C 4400.31 -3.10799 1.34867 0
M  V30 43803 C 4398.87 -3.59319 1.12102 0
M  V30 43804 C 4398.01 -2.36345 1.4504 0
M  V30 43805 H 4400.96 -1.04809 1.19167 0
M  V30 43806 H 4400.99 -3.73184 0.742568 0
M  V30 43807 H 4400.5 -3.02891 2.42649 0
M  V30 43808 H 4398.6 -3.7255 0.0611647 0
M  V30 43809 H 4398.71 -4.43774 1.80559 0
M  V30 43810 H 4397.08 -2.39396 0.869571 0
M  V30 43811 H 4397.86 -2.31072 2.53891 0
M  V30 43812 N 4400.3 -0.80008 -1.35781 0
M  V30 43813 C 4401.53 -0.388582 -2.03727 0
M  V30 43814 C 4401.95 0.990425 -1.59913 0
M  V30 43815 O 4401.31 1.64011 -0.77267 0
M  V30 43816 C 4401.36 -0.472726 -3.57488 0
M  V30 43817 O 4400.46 0.516316 -4.09155 0
M  V30 43818 H 4399.8 -0.163293 -0.643608 0
M  V30 43819 H 4402.33 -1.08416 -1.73514 0
M  V30 43820 H 4402.34 -0.340173 -4.06579 0
M  V30 43821 H 4401.02 -1.47862 -3.88728 0
M  V30 43822 H 4399.6 0.344542 -3.71305 0
M  V30 43823 N 4401.78 1.47579 -0.553014 0
M  V30 43824 C 4402.69 2.33744 0.200271 0
M  V30 43825 C 4403.71 1.47931 0.916099 0
M  V30 43826 O 4404.88 1.80868 0.885929 0
M  V30 43827 C 4401.95 3.2454 1.21962 0
M  V30 43828 C 4401.01 4.2624 0.51167 0
M  V30 43829 C 4400.24 5.12698 1.48245 0
M  V30 43830 O 4400.47 5.01535 2.71696 0
M  V30 43831 O 4399.4 5.93378 1.00924 0
M  V30 43832 H 4403.23 2.99448 -0.506409 0
M  V30 43833 H 4400.81 1.4607 -0.313673 0
M  V30 43834 H 4402.69 3.80637 1.80813 0
M  V30 43835 H 4401.37 2.61469 1.90829 0
M  V30 43836 H 4400.27 3.73914 -0.117931 0
M  V30 43837 H 4401.61 4.92014 -0.135481 0
M  V30 43838 N 4403.26 0.289257 1.54923 0
M  V30 43839 C 4404.19 -0.625505 2.205 0
M  V30 43840 C 4405.2 -1.10662 1.19405 0
M  V30 43841 O 4406.39 -1.0261 1.4606 0
M  V30 43842 C 4403.49 -1.86692 2.82841 0
M  V30 43843 C 4402.67 -1.53026 4.09758 0
M  V30 43844 C 4401.73 -2.6256 4.56014 0
M  V30 43845 O 4400.75 -2.28148 5.21476 0
M  V30 43846 N 4401.95 -3.92886 4.27342 0
M  V30 43847 H 4404.72 -0.0641748 2.99631 0
M  V30 43848 H 4402.28 0.110953 1.61519 0
M  V30 43849 H 4404.27 -2.59293 3.10724 0
M  V30 43850 H 4402.84 -2.33694 2.07619 0
M  V30 43851 H 4402.06 -0.637427 3.89012 0
M  V30 43852 H 4403.35 -1.28054 4.92422 0
M  V30 43853 H 4402.75 -4.23658 3.74874 0
M  V30 43854 H 4401.3 -4.61821 4.59962 0
M  V30 43855 N 4404.74 -1.57591 0.016771 0
M  V30 43856 C 4405.7 -2.08396 -0.954131 0
M  V30 43857 C 4406.7 -0.996576 -1.26194 0
M  V30 43858 O 4407.89 -1.25863 -1.20433 0
M  V30 43859 C 4405.02 -2.53948 -2.27427 0
M  V30 43860 H 4406.22 -2.95456 -0.514347 0
M  V30 43861 H 4403.77 -1.54583 -0.231034 0
M  V30 43862 H 4404.5 -1.70181 -2.7606 0
M  V30 43863 H 4404.29 -3.33378 -2.06401 0
M  V30 43864 H 4405.78 -2.93523 -2.97042 0
M  V30 43865 N 4406.22 0.256222 -1.55503 0
M  V30 43866 C 4407.63 0.826009 -1.67434 0
M  V30 43867 C 4407.98 1.86394 -0.612511 0
M  V30 43868 O 4407.1 2.15032 0.242949 0
M  V30 43869 C 4407.7 1.50501 -3.03537 0
M  V30 43870 C 4406.26 2.02262 -3.17438 0
M  V30 43871 C 4405.4 0.870456 -2.63284 0
M  V30 43872 H 4408.36 0.032217 -1.58667 0
M  V30 43873 H 4408.38 2.37269 -2.97462 0
M  V30 43874 H 4407.89 0.74935 -3.80797 0
M  V30 43875 H 4405.99 2.80738 -2.44984 0
M  V30 43876 H 4406.1 2.2264 -4.24226 0
M  V30 43877 H 4404.47 1.26843 -2.20869 0
M  V30 43878 H 4405.25 0.128028 -3.43061 0
M  V30 43879 N 4407.69 1.48722 0.521481 0
M  V30 43880 C 4408.92 1.60848 1.30137 0
M  V30 43881 C 4409.34 0.271962 1.86831 0
M  V30 43882 O 4408.69 -0.73991 1.66828 0
M  V30 43883 C 4408.75 2.66164 2.4462 0
M  V30 43884 O 4408.47 3.9463 1.90261 0
M  V30 43885 C 4409.97 2.88807 3.36312 0
M  V30 43886 H 4407.19 0.542089 0.395449 0
M  V30 43887 H 4409.73 1.94612 0.628217 0
M  V30 43888 H 4407.89 2.35235 3.07804 0
M  V30 43889 H 4408.3 4.52477 2.65263 0
M  V30 43890 H 4409.77 3.66278 4.1297 0
M  V30 43891 H 4410.25 1.97948 3.92063 0
M  V30 43892 H 4410.86 3.21073 2.78913 0
M  V30 43893 N 4409.17 -0.771003 1.37453 0
M  V30 43894 C 4410.08 -1.91533 1.35471 0
M  V30 43895 C 4411.1 -1.72133 0.254183 0
M  V30 43896 O 4412.27 -1.95356 0.489694 0
M  V30 43897 C 4409.34 -3.26667 1.16145 0
M  V30 43898 C 4408.4 -3.58715 2.35843 0
M  V30 43899 C 4407.63 -4.87401 2.1743 0
M  V30 43900 O 4407.86 -5.58502 1.15895 0
M  V30 43901 O 4406.79 -5.18529 3.05633 0
M  V30 43902 H 4410.62 -1.96157 2.31854 0
M  V30 43903 H 4408.2 -0.913858 1.18191 0
M  V30 43904 H 4410.08 -4.07495 1.07359 0
M  V30 43905 H 4408.76 -3.22893 0.228365 0
M  V30 43906 H 4407.67 -2.78118 2.50202 0
M  V30 43907 H 4409 -3.67232 3.27722 0
M  V30 43908 N 4410.65 -1.22035 -0.997255 0
M  V30 43909 C 4411.58 -0.944336 -2.08842 0
M  V30 43910 C 4412.6 0.0754091 -1.62625 0
M  V30 43911 O 4413.78 -0.158057 -1.77799 0
M  V30 43912 C 4410.88 -0.397842 -3.36557 0
M  V30 43913 C 4410.06 -1.47377 -4.11824 0
M  V30 43914 C 4409.12 -0.935133 -5.17824 0
M  V30 43915 O 4408.14 -1.62035 -5.45649 0
M  V30 43916 N 4409.34 0.245691 -5.7998 0
M  V30 43917 H 4412.11 -1.88371 -2.33102 0
M  V30 43918 H 4409.67 -1.12665 -1.16268 0
M  V30 43919 H 4411.66 -0.0229194 -4.04694 0
M  V30 43920 H 4410.23 0.446538 -3.09394 0
M  V30 43921 H 4409.45 -2.0222 -3.38379 0
M  V30 43922 H 4410.74 -2.19781 -4.58883 0
M  V30 43923 H 4410.14 0.819278 -5.59736 0
M  V30 43924 H 4408.7 0.562044 -6.49372 0
M  V30 43925 N 4412.13 1.19341 -1.02934 0
M  V30 43926 C 4413.54 1.41066 -0.746495 0
M  V30 43927 C 4413.74 1.9008 0.668709 0
M  V30 43928 O 4412.8 2.07785 1.43463 0
M  V30 43929 C 4414.11 2.42135 -1.78301 0
M  V30 43930 C 4415.66 2.55881 -1.80261 0
M  V30 43931 C 4416.14 3.60204 -2.82872 0
M  V30 43932 N 4417.63 3.67701 -2.81692 0
M  V30 43933 C 4418.36 4.48116 -3.57743 0
M  V30 43934 N 4417.86 5.32232 -4.4351 0
M  V30 43935 N 4419.65 4.4277 -3.46282 0
M  V30 43936 H 4411.8 0.858468 -1.94278 0
M  V30 43937 H 4414.07 0.439512 -0.83996 0
M  V30 43938 H 4413.77 2.13145 -2.79753 0
M  V30 43939 H 4413.65 3.41317 -1.60569 0
M  V30 43940 H 4416.03 2.84194 -0.794856 0
M  V30 43941 H 4416.11 1.56851 -2.02068 0
M  V30 43942 H 4415.76 3.32634 -3.83819 0
M  V30 43943 H 4415.69 4.58886 -2.58323 0
M  V30 43944 H 4418.18 3.07626 -2.19487 0
M  V30 43945 H 4418.49 5.90712 -4.98277 0
M  V30 43946 H 4416.84 5.31691 -4.47582 0
M  V30 43947 H 4420.03 3.76098 -2.7869 0
M  V30 43948 H 4420.2 5.05201 -4.05803 0
M  V30 43949 N 4413.61 0.80727 1.35355 0
M  V30 43950 C 4415.02 0.448823 1.81225 0
M  V30 43951 C 4415.37 -1.02923 1.67037 0
M  V30 43952 O 4414.49 -1.79987 1.2014 0
M  V30 43953 C 4415.09 0.80789 3.29027 0
M  V30 43954 C 4413.65 0.502032 3.73037 0
M  V30 43955 C 4412.79 1.03313 2.57336 0
M  V30 43956 H 4415.75 0.998852 1.23323 0
M  V30 43957 H 4415.77 0.105674 3.80353 0
M  V30 43958 H 4415.28 1.88369 3.39321 0
M  V30 43959 H 4413.38 -0.564999 3.68291 0
M  V30 43960 H 4413.49 1.03514 4.67784 0
M  V30 43961 H 4411.86 0.455427 2.50595 0
M  V30 43962 H 4412.64 2.11506 2.70408 0
M  V30 43963 N 4415.08 -1.47283 0.560833 0
M  V30 43964 C 4416.33 -2.02064 0.0380578 0
M  V30 43965 C 4416.65 -1.43716 -1.31798 0
M  V30 43966 O 4415.92 -0.613685 -1.8604 0
M  V30 43967 H 4414.5 -0.746918 0.0110793 0
M  V30 43968 H 4417.17 -1.80645 0.731662 0
M  V30 43969 H 4416.26 -3.12064 -0.0473366 0
M  V30 43970 N 4416.56 -0.297469 -1.54767 0
M  V30 43971 C 4417.81 0.313306 -2.00365 0
M  V30 43972 C 4418.14 1.5381 -1.18558 0
M  V30 43973 O 4417.42 1.92739 -0.261171 0
M  V30 43974 C 4417.7 0.673401 -3.53748 0
M  V30 43975 C 4417.55 -0.56029 -4.46297 0
M  V30 43976 C 4418.87 1.50128 -4.13702 0
M  V30 43977 H 4415.99 0.112403 -0.728378 0
M  V30 43978 H 4418.63 -0.408865 -1.85549 0
M  V30 43979 H 4416.78 1.28868 -3.66504 0
M  V30 43980 H 4418.45 -1.19879 -4.45451 0
M  V30 43981 H 4416.7 -1.1942 -4.17039 0
M  V30 43982 H 4417.37 -0.264244 -5.51367 0
M  V30 43983 H 4419.84 0.981446 -4.0436 0
M  V30 43984 H 4418.72 1.72203 -5.21189 0
M  V30 43985 H 4418.98 2.48939 -3.65352 0
M  V30 43986 N 4418.04 1.5758 -0.0251282 0
M  V30 43987 C 4418.97 2.06873 0.986723 0
M  V30 43988 C 4419.99 0.991377 1.29134 0
M  V30 43989 O 4421.17 1.26766 1.25669 0
M  V30 43990 C 4418.27 2.47494 2.31516 0
M  V30 43991 C 4417.45 3.78261 2.1963 0
M  V30 43992 C 4416.51 4.05476 3.35374 0
M  V30 43993 O 4415.53 4.75785 3.12437 0
M  V30 43994 N 4416.73 3.55337 4.59038 0
M  V30 43995 H 4419.5 2.94304 0.566172 0
M  V30 43996 H 4417.06 1.6109 0.161719 0
M  V30 43997 H 4419.05 2.62796 3.07767 0
M  V30 43998 H 4417.62 1.6545 2.65226 0
M  V30 43999 H 4416.84 3.72795 1.28131 0
M  V30 44000 H 4418.13 4.63944 2.08887 0
M  V30 44001 H 4417.53 2.98448 4.80568 0
M  V30 44002 H 4416.09 3.75924 5.3247 0
M  V30 44003 N 4419.52 -0.247971 1.55637 0
M  V30 44004 C 4420.43 -1.32852 1.93359 0
M  V30 44005 C 4421.44 -1.52716 0.833891 0
M  V30 44006 O 4422.62 -1.66359 1.13519 0
M  V30 44007 C 4419.69 -2.66329 2.21968 0
M  V30 44008 C 4418.75 -2.54996 3.45363 0
M  V30 44009 C 4417.98 -3.82108 3.72598 0
M  V30 44010 O 4418.2 -4.8394 3.01924 0
M  V30 44011 O 4417.14 -3.80805 4.66123 0
M  V30 44012 H 4420.96 -1.03852 2.85392 0
M  V30 44013 H 4418.55 -0.448636 1.42505 0
M  V30 44014 H 4420.43 -3.45207 2.41682 0
M  V30 44015 H 4419.1 -2.95064 1.33114 0
M  V30 44016 H 4418.01 -1.74408 3.30957 0
M  V30 44017 H 4419.34 -2.31207 4.34516 0
M  V30 44018 N 4421 -1.48997 -0.513587 0
M  V30 44019 C 4422.24 -1.59456 -1.27879 0
M  V30 44020 C 4422.6 -0.269546 -1.90099 0
M  V30 44021 O 4423.8 -0.249233 -2.67642 0
M  V30 44022 C 4422.07 -2.71285 -2.32679 0
M  V30 44023 S 4423.63 -3.01615 -3.18706 0
M  V30 44024 H 4420.45 -0.56258 -0.434769 0
M  V30 44025 H 4423.05 -1.86597 -0.583235 0
M  V30 44026 H 4421.76 -3.66096 -1.85477 0
M  V30 44027 H 4421.29 -2.46097 -3.0692 0
M  V30 44028 H 4423.3 -2.4217 -4.33091 0
M  V30 44029 N 4422.48 0.763702 -1.3786 0
M  V30 44030 C 4423.71 1.55063 -1.36525 0
M  V30 44031 C 4424.11 1.89136 0.0493562 0
M  V30 44032 O 4423.46 1.52532 1.0237 0
M  V30 44033 C 4423.52 2.88373 -2.14666 0
M  V30 44034 C 4423.18 2.76892 -3.63565 0
M  V30 44035 C 4424.18 2.47374 -4.57277 0
M  V30 44036 C 4421.86 2.94662 -4.06792 0
M  V30 44037 C 4423.86 2.35765 -5.92194 0
M  V30 44038 C 4421.55 2.82673 -5.41792 0
M  V30 44039 C 4422.54 2.53266 -6.34307 0
M  V30 44040 O 4422.23 2.41318 -7.66825 0
M  V30 44041 H 4421.96 0.486759 -0.469086 0
M  V30 44042 H 4424.52 0.953749 -1.81914 0
M  V30 44043 H 4422.75 3.50211 -1.63979 0
M  V30 44044 H 4424.44 3.49821 -2.05865 0
M  V30 44045 H 4425.2 2.33324 -4.25188 0
M  V30 44046 H 4421.08 3.16551 -3.35137 0
M  V30 44047 H 4424.63 2.12733 -6.64372 0
M  V30 44048 H 4420.52 2.96294 -5.73481 0
M  V30 44049 H 4421.29 2.56607 -7.77236 0
M  V30 44050 N 4423.95 1.22562 0.990769 0
M  V30 44051 C 4424.9 0.96488 2.06577 0
M  V30 44052 C 4425.89 -0.0852908 1.60674 0
M  V30 44053 O 4427.08 0.125505 1.76554 0
M  V30 44054 C 4424.21 0.546826 3.38917 0
M  V30 44055 C 4423.29 1.63184 3.91448 0
M  V30 44056 N 4423.69 2.86 4.17179 0
M  V30 44057 C 4421.98 1.50402 4.19875 0
M  V30 44058 C 4422.68 3.56175 4.59907 0
M  V30 44059 N 4421.66 2.83654 4.63726 0
M  V30 44060 H 4425.46 1.89777 2.24414 0
M  V30 44061 H 4422.98 1.12347 1.17269 0
M  V30 44062 H 4424.97 0.341336 4.155 0
M  V30 44063 H 4423.63 -0.379141 3.22479 0
M  V30 44064 H 4424.64 3.22406 4.05308 0
M  V30 44065 H 4421.32 0.644399 4.12497 0
M  V30 44066 H 4422.71 4.61407 4.88419 0
M  V30 44067 N 4425.43 -1.18793 1.03566 0
M  V30 44068 C 4426.68 -1.88275 0.734635 0
M  V30 44069 C 4427 -1.80433 -0.739522 0
M  V30 44070 O 4426.27 -1.2193 -1.53329 0
M  V30 44071 H 4424.85 -0.696981 0.268749 0
M  V30 44072 H 4427.51 -1.44187 1.31134 0
M  V30 44073 H 4426.61 -2.94439 1.03499 0
M  V30 44074 N 4426.91 -0.814437 -1.34925 0
M  V30 44075 C 4427.86 -0.218506 -2.31571 0
M  V30 44076 C 4428.85 0.636073 -1.57005 0
M  V30 44077 O 4430.06 0.52836 -1.72071 0
M  V30 44078 H 4426.43 -0.0519063 -0.750206 0
M  V30 44079 H 4428.4 -1.04861 -2.79368 0
M  V30 44080 C 4427.15 0.611949 -3.42273 0
M  V30 44081 H 4426.48 -0.0362983 -3.99784 0
M  V30 44082 H 4427.92 0.995173 -4.12156 0
M  V30 44083 C 4426.37 1.78077 -2.8599 0
M  V30 44084 O 4426.9 2.8786 -2.80178 0
M  V30 44085 N 4425.11 1.5948 -2.42929 0
M  V30 44086 H 4424.66 0.701787 -2.47856 0
M  V30 44087 H 4424.62 2.37839 -2.05621 0
M  V30 44088 N 4428.39 1.46984 -0.568636 0
M  V30 44089 C 4429.64 2.02041 -0.0487733 0
M  V30 44090 C 4429.96 1.44413 1.31034 0
M  V30 44091 O 4429.23 0.623543 1.85711 0
M  V30 44092 H 4427.81 0.746849 -0.0150403 0
M  V30 44093 H 4430.47 1.80255 -0.741232 0
M  V30 44094 H 4429.56 3.12085 0.0307864 0
M  V30 44095 N 4429.87 0.305673 1.54607 0
M  V30 44096 C 4430.8 -0.602083 2.21151 0
M  V30 44097 C 4431.81 -1.0939 1.20572 0
M  V30 44098 O 4433 -1.01055 1.4714 0
M  V30 44099 C 4430.1 -1.83682 2.84806 0
M  V30 44100 C 4429.27 -1.48671 4.11358 0
M  V30 44101 C 4428.33 -2.57709 4.58773 0
M  V30 44102 O 4427.36 -2.22604 5.23866 0
M  V30 44103 N 4428.56 -3.88331 4.31485 0
M  V30 44104 H 4431.32 -0.0323912 2.99682 0
M  V30 44105 H 4428.89 0.128078 1.61393 0
M  V30 44106 H 4430.88 -2.55983 3.13457 0
M  V30 44107 H 4429.45 -2.31479 2.10086 0
M  V30 44108 H 4428.67 -0.596132 3.89666 0
M  V30 44109 H 4429.96 -1.22824 4.93753 0
M  V30 44110 H 4429.35 -4.19658 3.79346 0
M  V30 44111 H 4427.91 -4.56916 4.64834 0
M  V30 44112 N 4431.34 -1.57564 0.0334847 0
M  V30 44113 C 4432.57 -1.96691 -0.657826 0
M  V30 44114 C 4432.99 -0.910115 -1.64616 0
M  V30 44115 O 4432.35 0.128534 -1.80844 0
M  V30 44116 C 4432.4 -3.3491 -1.33671 0
M  V30 44117 O 4431.5 -3.31583 -2.45208 0
M  V30 44118 H 4430.84 -0.641211 -0.172467 0
M  V30 44119 H 4433.37 -2.04372 0.0966339 0
M  V30 44120 H 4433.38 -3.71239 -1.69249 0
M  V30 44121 H 4432.06 -4.11369 -0.612266 0
M  V30 44122 H 4430.64 -3.06976 -2.11708 0
M  V30 44123 N 4432.82 0.239714 -1.55766 0
M  V30 44124 C 4434.05 0.982679 -1.81733 0
M  V30 44125 C 4434.46 1.79168 -0.607898 0
M  V30 44126 O 4433.8 1.78526 0.43291 0
M  V30 44127 C 4433.86 1.96321 -3.01162 0
M  V30 44128 C 4433.53 1.34046 -4.36899 0
M  V30 44129 C 4434.53 0.739359 -5.14616 0
M  V30 44130 C 4432.21 1.35767 -4.83604 0
M  V30 44131 C 4434.2 0.163765 -6.3719 0
M  V30 44132 C 4431.89 0.778228 -6.06124 0
M  V30 44133 C 4432.89 0.182308 -6.82757 0
M  V30 44134 O 4432.58 -0.388169 -8.02962 0
M  V30 44135 H 4432.31 0.29446 -0.608498 0
M  V30 44136 H 4434.86 0.265648 -2.03675 0
M  V30 44137 H 4433.09 2.71874 -2.74993 0
M  V30 44138 H 4434.78 2.57021 -3.14158 0
M  V30 44139 H 4435.55 0.718518 -4.79648 0
M  V30 44140 H 4431.43 1.8109 -4.23943 0
M  V30 44141 H 4434.97 -0.301998 -6.96946 0
M  V30 44142 H 4430.87 0.79642 -6.40568 0
M  V30 44143 H 4431.64 -0.280728 -8.18018 0
M  V30 44144 N 4434.3 1.49267 0.505678 0
M  V30 44145 C 4435.72 1.35926 0.836438 0
M  V30 44146 C 4435.92 0.388773 1.97714 0
M  V30 44147 O 4434.97 -0.181247 2.51849 0
M  V30 44148 C 4436.28 2.76535 1.18105 0
M  V30 44149 C 4437.83 2.85202 1.28953 0
M  V30 44150 C 4438.31 4.26567 1.66746 0
M  V30 44151 N 4439.8 4.29356 1.73804 0
M  V30 44152 C 4440.53 5.357 2.04481 0
M  V30 44153 N 4440.03 6.52295 2.33415 0
M  V30 44154 N 4441.82 5.23113 2.05693 0
M  V30 44155 H 4433.97 2.10964 -0.246593 0
M  V30 44156 H 4436.24 0.946798 -0.0477219 0
M  V30 44157 H 4435.94 3.49228 0.416276 0
M  V30 44158 H 4435.82 3.11606 2.12559 0
M  V30 44159 H 4438.2 2.12749 2.04504 0
M  V30 44160 H 4438.28 2.53719 0.325615 0
M  V30 44161 H 4437.93 4.99544 0.917481 0
M  V30 44162 H 4437.86 4.55511 2.6423 0
M  V30 44163 H 4440.35 3.45266 1.53623 0
M  V30 44164 H 4440.66 7.29167 2.55998 0
M  V30 44165 H 4439.01 6.55529 2.30882 0
M  V30 44166 H 4442.2 4.31032 1.82562 0
M  V30 44167 H 4442.37 6.06086 2.29267 0
M  V30 44168 N 4435.78 -0.756381 1.38263 0
M  V30 44169 C 4437.03 -1.51243 1.34052 0
M  V30 44170 C 4437.35 -1.94875 -0.0697687 0
M  V30 44171 O 4436.62 -1.6744 -1.0169 0
M  V30 44172 H 4435.2 -0.561001 0.493242 0
M  V30 44173 H 4437.86 -0.899286 1.72913 0
M  V30 44174 H 4436.96 -2.40465 1.98955 0
M  V30 44175 N 4437.26 -1.23086 -0.984255 0
M  V30 44176 C 4438.48 -1.0872 -1.76033 0
M  V30 44177 C 4438.9 0.361626 -1.85304 0
M  V30 44178 O 4438.26 1.25029 -1.32943 0
M  V30 44179 C 4438.31 -1.70217 -3.18917 0
M  V30 44180 O 4438.03 -3.09434 -3.10133 0
M  V30 44181 C 4439.53 -1.61242 -4.12936 0
M  V30 44182 H 4436.75 -0.380684 -0.552558 0
M  V30 44183 H 4439.29 -1.62858 -1.23684 0
M  V30 44184 H 4437.45 -1.20122 -3.68306 0
M  V30 44185 H 4437.86 -3.39202 -4.00053 0
M  V30 44186 H 4439.34 -2.0898 -5.10912 0
M  V30 44187 H 4439.81 -0.570528 -4.35479 0
M  V30 44188 H 4440.42 -2.10684 -3.69449 0
M  V30 44189 N 4438.73 1.18243 -1.04194 0
M  V30 44190 C 4439.96 1.91914 -0.765029 0
M  V30 44191 C 4440.37 1.76487 0.681836 0
M  V30 44192 O 4439.72 1.0928 1.4766 0
M  V30 44193 C 4439.78 3.43726 -1.05321 0
M  V30 44194 C 4439.44 3.82932 -2.49424 0
M  V30 44195 C 4440.44 3.86609 -3.47606 0
M  V30 44196 C 4438.12 4.1419 -2.84169 0
M  V30 44197 C 4440.12 4.20996 -4.78583 0
M  V30 44198 C 4437.8 4.48247 -4.15352 0
M  V30 44199 C 4438.8 4.51627 -5.12369 0
M  V30 44200 O 4438.49 4.84889 -6.41201 0
M  V30 44201 H 4438.22 0.61605 -0.278314 0
M  V30 44202 H 4440.78 1.50942 -1.39305 0
M  V30 44203 H 4439.01 3.84944 -0.368068 0
M  V30 44204 H 4440.7 3.98647 -0.763892 0
M  V30 44205 H 4441.46 3.62595 -3.22102 0
M  V30 44206 H 4437.34 4.10736 -2.09325 0
M  V30 44207 H 4440.88 4.23549 -5.54304 0
M  V30 44208 H 4436.78 4.71721 -4.40624 0
M  V30 44209 H 4437.55 5.02786 -6.4587 0
M  V30 44210 N 4440.21 0.821581 1.34491 0
M  V30 44211 C 4441.44 0.420944 2.03083 0
M  V30 44212 C 4441.86 -0.964858 1.61469 0
M  V30 44213 O 4441.22 -1.62761 0.798664 0
M  V30 44214 C 4441.27 0.529539 3.56691 0
M  V30 44215 O 4440.37 -0.451158 4.09925 0
M  V30 44216 H 4439.71 0.173512 0.640929 0
M  V30 44217 H 4442.24 1.11163 1.71767 0
M  V30 44218 H 4442.25 0.404814 4.05987 0
M  V30 44219 H 4440.93 1.54027 3.86327 0
M  V30 44220 H 4439.51 -0.285427 3.71806 0
M  V30 44221 N 4441.69 -1.4668 0.576422 0
M  V30 44222 C 4442.92 -2.06798 0.0650362 0
M  V30 44223 C 4443.33 -1.42616 -1.23718 0
M  V30 44224 O 4442.69 -0.529265 -1.74657 0
M  V30 44225 C 4442.74 -3.6132 -0.114075 0
M  V30 44226 O 4442.46 -4.231 1.13659 0
M  V30 44227 C 4443.96 -4.38351 -0.660536 0
M  V30 44228 H 4441.18 -0.668776 0.0545851 0
M  V30 44229 H 4443.73 -1.88402 0.795303 0
M  V30 44230 H 4441.88 -3.79165 -0.79454 0
M  V30 44231 H 4442.3 -5.1589 0.946434 0
M  V30 44232 H 4443.77 -5.47084 -0.735068 0
M  V30 44233 H 4444.25 -4.05959 -1.67613 0
M  V30 44234 H 4444.85 -4.25297 -0.0151456 0
M  V30 44235 N 4443.17 -0.313868 -1.54443 0
M  V30 44236 C 4444.4 0.293846 -2.04803 0
M  V30 44237 C 4444.81 1.46533 -1.19052 0
M  V30 44238 O 4444.17 1.81181 -0.219003 0
M  V30 44239 C 4444.22 0.737682 -3.53893 0
M  V30 44240 O 4443.94 -0.387191 -4.36386 0
M  V30 44241 C 4445.44 1.40921 -4.20305 0
M  V30 44242 H 4442.66 0.0619823 -0.668131 0
M  V30 44243 H 4445.21 -0.45724 -1.99323 0
M  V30 44244 H 4443.36 1.43876 -3.59692 0
M  V30 44245 H 4443.77 -0.0393118 -5.24485 0
M  V30 44246 H 4445.25 1.6708 -5.26107 0
M  V30 44247 H 4445.73 2.35342 -3.70825 0
M  V30 44248 H 4446.33 0.75097 -4.18617 0
M  V30 44249 N 4444.65 1.57544 -0.0418402 0
M  V30 44250 C 4445.89 1.92604 0.634954 0
M  V30 44251 C 4446.23 0.919687 1.71042 0
M  V30 44252 O 4445.5 -0.0557209 1.9442 0
M  V30 44253 C 4445.78 3.38089 1.23967 0
M  V30 44254 C 4445.64 4.49468 0.172899 0
M  V30 44255 C 4446.96 3.83783 2.15403 0
M  V30 44256 H 4444.07 0.700405 0.22935 0
M  V30 44257 H 4446.72 1.89728 -0.101699 0
M  V30 44258 H 4444.87 3.40671 1.8675 0
M  V30 44259 H 4446.54 4.59016 -0.458473 0
M  V30 44260 H 4444.78 4.30907 -0.500148 0
M  V30 44261 H 4445.45 5.48325 0.635861 0
M  V30 44262 H 4447.93 3.83018 1.62592 0
M  V30 44263 H 4446.8 4.86249 2.54662 0
M  V30 44264 H 4447.07 3.20008 3.05036 0
M  V30 44265 N 4446.12 -0.23145 1.55891 0
M  V30 44266 C 4447.35 -0.974441 1.82516 0
M  V30 44267 C 4447.77 -1.78342 0.619654 0
M  V30 44268 O 4447.12 -1.77794 -0.411786 0
M  V30 44269 C 4447.18 -1.89996 3.07545 0
M  V30 44270 O 4446.9 -1.1237 4.23444 0
M  V30 44271 C 4448.4 -2.75767 3.47085 0
M  V30 44272 H 4445.62 -0.286043 0.606976 0
M  V30 44273 H 4448.16 -0.249668 2.0297 0
M  V30 44274 H 4446.32 -2.57881 2.89096 0
M  V30 44275 H 4446.73 -1.75108 4.94406 0
M  V30 44276 H 4448.2 -3.36428 4.37631 0
M  V30 44277 H 4448.68 -3.47662 2.68379 0
M  V30 44278 H 4449.29 -2.1331 3.67939 0
M  V30 44279 N 4447.6 -1.49533 -0.497755 0
M  V30 44280 C 4448.85 -1.58869 -1.2492 0
M  V30 44281 C 4449.17 -0.278789 -1.92997 0
M  V30 44282 O 4448.44 0.70208 -1.82887 0
M  V30 44283 H 4447.02 -0.585359 -0.464073 0
M  V30 44284 H 4449.68 -1.86176 -0.576594 0
M  V30 44285 H 4448.78 -2.3864 -2.0114 0
M  V30 44286 N 4449.08 0.749038 -1.38662 0
M  V30 44287 C 4450.5 1.05271 -1.19959 0
M  V30 44288 C 4450.7 2.01434 -0.0514108 0
M  V30 44289 O 4449.75 2.45234 0.601384 0
M  V30 44290 C 4451.07 1.62844 -2.52789 0
M  V30 44291 C 4452.61 1.74993 -2.59512 0
M  V30 44292 C 4453.09 2.35977 -3.92529 0
M  V30 44293 N 4454.58 2.43402 -3.94093 0
M  V30 44294 C 4455.31 2.91494 -4.9378 0
M  V30 44295 N 4454.81 3.39587 -6.03865 0
M  V30 44296 N 4456.6 2.90575 -4.81168 0
M  V30 44297 H 4448.75 0.110991 -2.1211 0
M  V30 44298 H 4451.02 0.111868 -0.941376 0
M  V30 44299 H 4450.72 0.996522 -3.37287 0
M  V30 44300 H 4450.6 2.61845 -2.71509 0
M  V30 44301 H 4452.98 2.37311 -1.75407 0
M  V30 44302 H 4453.07 0.746844 -2.44655 0
M  V30 44303 H 4452.71 1.74291 -4.77059 0
M  V30 44304 H 4452.64 3.36935 -4.047 0
M  V30 44305 H 4455.13 2.09394 -3.14583 0
M  V30 44306 H 4455.44 3.74751 -6.75856 0
M  V30 44307 H 4453.79 3.37632 -6.07478 0
M  V30 44308 H 4456.98 2.52318 -3.94276 0
M  V30 44309 H 4457.15 3.27742 -5.59007 0
M  V30 44310 N 4450.56 1.23606 0.977714 0
M  V30 44311 C 4451.79 1.09652 1.75454 0
M  V30 44312 C 4452.2 -0.351794 1.85494 0
M  V30 44313 O 4451.56 -1.24323 1.33604 0
M  V30 44314 C 4451.61 1.71906 3.1801 0
M  V30 44315 O 4451.33 3.11074 3.08487 0
M  V30 44316 C 4452.83 1.63429 4.12075 0
M  V30 44317 H 4450.05 0.383609 0.550532 0
M  V30 44318 H 4452.6 1.63511 1.22818 0
M  V30 44319 H 4450.75 1.22074 3.67664 0
M  V30 44320 H 4451.17 3.41319 3.98248 0
M  V30 44321 H 4452.64 2.11687 5.09797 0
M  V30 44322 H 4453.12 0.593615 4.3517 0
M  V30 44323 H 4453.72 2.12641 3.68326 0
M  V30 44324 N 4452.04 -1.17688 1.0482 0
M  V30 44325 C 4453.28 -1.89543 0.765046 0
M  V30 44326 C 4453.64 -1.78981 -0.694965 0
M  V30 44327 O 4454.84 -2.45617 -1.09206 0
M  V30 44328 C 4453.11 -3.35655 1.22763 0
M  V30 44329 S 4454.67 -4.25522 1.07127 0
M  V30 44330 H 4451.49 -0.654422 0.277943 0
M  V30 44331 H 4454.09 -1.42159 1.34206 0
M  V30 44332 H 4452.8 -3.40874 2.28545 0
M  V30 44333 H 4452.33 -3.88081 0.644731 0
M  V30 44334 H 4454.34 -4.962 -0.00680064 0
M  V30 44335 N 4453.52 -0.828702 -1.34053 0
M  V30 44336 C 4454.45 -0.212132 -2.28216 0
M  V30 44337 C 4455.46 0.601309 -1.51288 0
M  V30 44338 O 4456.65 0.430043 -1.73242 0
M  V30 44339 C 4453.75 0.720764 -3.31147 0
M  V30 44340 C 4452.92 -0.0511124 -4.3737 0
M  V30 44341 C 4451.98 0.803583 -5.20028 0
M  V30 44342 O 4451.01 0.246467 -5.68666 0
M  V30 44343 N 4452.21 2.12251 -5.40305 0
M  V30 44344 H 4454.97 -1.02115 -2.81767 0
M  V30 44345 H 4452.54 -0.686204 -1.46638 0
M  V30 44346 H 4454.53 1.29728 -3.83344 0
M  V30 44347 H 4453.1 1.43051 -2.77948 0
M  V30 44348 H 4452.32 -0.808967 -3.8581 0
M  V30 44349 H 4453.61 -0.582243 -5.05458 0
M  V30 44350 H 4453 2.5988 -5.02473 0
M  V30 44351 H 4451.56 2.64775 -5.95599 0
M  V30 44352 N 4454.99 1.46373 -0.584193 0
M  V30 44353 C 4455.96 2.28784 0.138028 0
M  V30 44354 C 4456.96 1.38474 0.817413 0
M  V30 44355 O 4458.15 1.60836 0.669142 0
M  V30 44356 C 4455.28 3.18896 1.20492 0
M  V30 44357 H 4456.47 2.94115 -0.586231 0
M  V30 44358 H 4454.02 1.52507 -0.342225 0
M  V30 44359 H 4454.76 2.58316 1.9607 0
M  V30 44360 H 4454.54 3.85391 0.722248 0
M  V30 44361 H 4456.03 3.8092 1.71141 0
M  V30 44362 N 4456.47 0.322054 1.54274 0
M  V30 44363 C 4457.72 -0.274163 2.01544 0
M  V30 44364 C 4458.07 -1.49896 1.2062 0
M  V30 44365 O 4457.37 -1.89545 0.279871 0
M  V30 44366 C 4457.56 -0.661646 3.51222 0
M  V30 44367 C 4457.39 0.524049 4.46636 0
M  V30 44368 C 4456.16 1.02268 4.94843 0
M  V30 44369 C 4458.36 1.37576 4.95558 0
M  V30 44370 N 4456.34 2.17294 5.74157 0
M  V30 44371 C 4457.71 2.37321 5.72782 0
M  V30 44372 C 4459.76 1.4037 4.77704 0
M  V30 44373 C 4458.47 3.39662 6.34052 0
M  V30 44374 C 4460.49 2.41581 5.39808 0
M  V30 44375 C 4459.86 3.40053 6.16882 0
M  V30 44376 H 4455.95 -0.0642093 0.779359 0
M  V30 44377 H 4458.54 0.45675 1.89267 0
M  V30 44378 H 4456.71 -1.36169 3.63748 0
M  V30 44379 H 4458.44 -1.2392 3.85261 0
M  V30 44380 H 4455.2 0.594211 4.69858 0
M  V30 44381 H 4455.62 2.75311 6.18492 0
M  V30 44382 H 4460.26 0.656054 4.17679 0
M  V30 44383 H 4457.98 4.15334 6.93198 0
M  V30 44384 H 4461.57 2.44542 5.27911 0
M  V30 44385 H 4460.45 4.17087 6.64085 0
M  V30 44386 N 4457.95 -1.5752 0.0501946 0
M  V30 44387 C 4459.17 -1.97378 -0.636927 0
M  V30 44388 C 4459.6 -0.927524 -1.63642 0
M  V30 44389 O 4458.96 0.109346 -1.8097 0
M  V30 44390 C 4459.01 -3.36309 -1.30111 0
M  V30 44391 O 4458.11 -3.34165 -2.41677 0
M  V30 44392 H 4457.45 -0.643004 -0.165656 0
M  V30 44393 H 4459.98 -2.04258 0.118305 0
M  V30 44394 H 4459.99 -3.73014 -1.65302 0
M  V30 44395 H 4458.67 -4.11995 -0.568601 0
M  V30 44396 H 4457.24 -3.09204 -2.08441 0
M  V30 44397 N 4459.43 0.223179 -1.56012 0
M  V30 44398 C 4460.65 0.968914 -1.83376 0
M  V30 44399 C 4461.08 1.77225 -0.630316 0
M  V30 44400 O 4460.44 1.76347 0.420897 0
M  V30 44401 C 4460.48 1.86352 -3.08716 0
M  V30 44402 O 4459.59 2.95863 -2.87296 0
M  V30 44403 H 4458.93 0.27444 -0.604631 0
M  V30 44404 H 4461.46 0.236985 -2.03223 0
M  V30 44405 H 4461.47 2.27364 -3.38776 0
M  V30 44406 H 4460.14 1.27305 -3.95937 0
M  V30 44407 H 4458.72 2.58808 -2.68463 0
M  V30 44408 N 4460.91 1.49795 0.489818 0
M  V30 44409 C 4461.84 1.61904 1.60818 0
M  V30 44410 C 4462.82 0.467706 1.55728 0
M  V30 44411 O 4464 0.684744 1.75623 0
M  V30 44412 C 4461.13 1.58433 2.9936 0
M  V30 44413 C 4460.17 2.789 3.22672 0
M  V30 44414 S 4461.01 4.4044 3.04586 0
M  V30 44415 C 4462.16 4.39632 4.45505 0
M  V30 44416 H 4462.4 2.56508 1.50303 0
M  V30 44417 H 4459.93 1.38825 0.6758 0
M  V30 44418 H 4461.89 1.57116 3.79242 0
M  V30 44419 H 4460.55 0.650974 3.0728 0
M  V30 44420 H 4459.74 2.72723 4.23838 0
M  V30 44421 H 4459.34 2.77687 2.50531 0
M  V30 44422 H 4461.63 4.12041 5.378 0
M  V30 44423 H 4462.58 5.41113 4.5673 0
M  V30 44424 H 4462.99 3.69569 4.26707 0
M  V30 44425 N 4462.38 -0.741673 1.39057 0
M  V30 44426 C 4463.61 -1.53093 1.39177 0
M  V30 44427 C 4464.03 -1.88794 -0.0154435 0
M  V30 44428 O 4463.38 -1.53629 -0.985105 0
M  V30 44429 C 4463.43 -2.82266 2.2585 0
M  V30 44430 O 4463.16 -2.48084 3.6109 0
M  V30 44431 C 4464.66 -3.76335 2.34279 0
M  V30 44432 H 4461.88 -0.473318 0.475616 0
M  V30 44433 H 4464.42 -0.916981 1.82789 0
M  V30 44434 H 4462.58 -3.40009 1.85668 0
M  V30 44435 H 4462.99 -3.31014 4.06854 0
M  V30 44436 H 4464.46 -4.63887 2.99186 0
M  V30 44437 H 4464.94 -4.17614 1.35996 0
M  V30 44438 H 4465.55 -3.24513 2.74902 0
M  V30 44439 N 4463.86 -1.24123 -0.971145 0
M  V30 44440 C 4465.27 -1.07241 -1.52827 0
M  V30 44441 C 4465.62 0.357284 -1.92919 0
M  V30 44442 O 4464.75 1.24522 -1.76984 0
M  V30 44443 C 4465.34 -1.94053 -2.77721 0
M  V30 44444 C 4463.9 -1.81405 -3.29802 0
M  V30 44445 C 4463.05 -1.89196 -2.02732 0
M  V30 44446 H 4466 -1.3765 -0.789815 0
M  V30 44447 H 4466.02 -1.47078 -3.50925 0
M  V30 44448 H 4465.53 -2.98102 -2.4851 0
M  V30 44449 H 4463.63 -0.801762 -3.63872 0
M  V30 44450 H 4463.75 -2.65308 -3.98934 0
M  V30 44451 H 4462.11 -1.32884 -2.17287 0
M  V30 44452 H 4462.89 -2.94818 -1.7589 0
M  V30 44453 N 4465.34 1.17131 -1.05443 0
M  V30 44454 C 4466.29 2.19188 -0.627752 0
M  V30 44455 C 4467.27 1.57329 0.337091 0
M  V30 44456 O 4468.47 1.7633 0.153914 0
M  V30 44457 C 4465.6 3.43299 -0.00663504 0
M  V30 44458 C 4464.68 4.12252 -0.995457 0
M  V30 44459 N 4465.07 4.5699 -2.16781 0
M  V30 44460 C 4463.37 4.38313 -0.82449 0
M  V30 44461 C 4464.07 5.10229 -2.79358 0
M  V30 44462 N 4463.05 5.02588 -2.07139 0
M  V30 44463 H 4466.85 2.51484 -1.52095 0
M  V30 44464 H 4464.36 1.33488 -0.924915 0
M  V30 44465 H 4466.36 4.15694 0.316819 0
M  V30 44466 H 4465.02 3.12494 0.881923 0
M  V30 44467 H 4466.03 4.50997 -2.54603 0
M  V30 44468 H 4462.71 4.17498 0.0128059 0
M  V30 44469 H 4464.1 5.54948 -3.78791 0
M  V30 44470 N 4466.82 0.835799 1.33612 0
M  V30 44471 C 4468.04 0.44246 2.02625 0
M  V30 44472 C 4468.47 -0.947678 1.62483 0
M  V30 44473 O 4467.83 -1.61904 0.815882 0
M  V30 44474 C 4467.87 0.567341 3.56109 0
M  V30 44475 O 4466.98 -0.407654 4.1038 0
M  V30 44476 H 4466.32 0.1803 0.639052 0
M  V30 44477 H 4468.85 1.12978 1.70579 0
M  V30 44478 H 4468.86 0.447851 4.05535 0
M  V30 44479 H 4467.53 1.58116 3.84671 0
M  V30 44480 H 4466.11 -0.245976 3.72088 0
M  V30 44481 N 4468.3 -1.46061 0.591947 0
M  V30 44482 C 4469.25 -2.27458 -0.157092 0
M  V30 44483 C 4470.23 -1.36413 -0.853253 0
M  V30 44484 O 4471.42 -1.60519 -0.745824 0
M  V30 44485 C 4468.55 -3.2296 -1.16411 0
M  V30 44486 C 4467.64 -4.21492 -0.469594 0
M  V30 44487 N 4468.03 -5.03517 0.480016 0
M  V30 44488 C 4466.33 -4.40164 -0.719164 0
M  V30 44489 C 4467.03 -5.74901 0.886794 0
M  V30 44490 N 4466 -5.43096 0.233922 0
M  V30 44491 H 4469.81 -2.8827 0.572494 0
M  V30 44492 H 4467.32 -1.57023 0.41443 0
M  V30 44493 H 4469.32 -3.79992 -1.71499 0
M  V30 44494 H 4467.98 -2.63708 -1.89442 0
M  V30 44495 H 4468.99 -5.10777 0.856003 0
M  V30 44496 H 4465.66 -3.92051 -1.43534 0
M  V30 44497 H 4467.05 -6.50838 1.66911 0
M  V30 44498 N 4469.77 -0.330231 -1.54101 0
M  V30 44499 C 4471 0.27482 -2.05571 0
M  V30 44500 C 4471.42 1.44483 -1.20442 0
M  V30 44501 O 4470.78 1.8002 -0.215055 0
M  V30 44502 C 4470.83 0.680665 -3.54118 0
M  V30 44503 O 4469.93 1.78227 -3.71899 0
M  V30 44504 H 4469.28 0.0483616 -0.662236 0
M  V30 44505 H 4471.81 -0.480578 -1.98876 0
M  V30 44506 H 4471.82 0.961495 -3.96509 0
M  V30 44507 H 4470.49 -0.175049 -4.15531 0
M  V30 44508 H 4469.07 1.49973 -3.41412 0
M  V30 44509 N 4471.25 1.57491 -0.0585476 0
M  V30 44510 C 4472.67 1.56793 0.298036 0
M  V30 44511 C 4472.87 1.06685 1.70941 0
M  V30 44512 O 4471.92 0.726757 2.41815 0
M  V30 44513 C 4473.24 3.00461 0.119773 0
M  V30 44514 C 4474.79 3.12421 0.190318 0
M  V30 44515 C 4475.26 4.57982 0.0404957 0
M  V30 44516 N 4476.75 4.63099 0.096533 0
M  V30 44517 C 4477.49 5.734 0.00482785 0
M  V30 44518 N 4476.98 6.92659 -0.139645 0
M  V30 44519 N 4478.78 5.62067 0.0609415 0
M  V30 44520 H 4470.93 1.88382 -0.981117 0
M  V30 44521 H 4473.19 0.867852 -0.381493 0
M  V30 44522 H 4472.9 3.41184 -0.85361 0
M  V30 44523 H 4472.77 3.66846 0.877704 0
M  V30 44524 H 4475.16 2.71593 1.15418 0
M  V30 44525 H 4475.24 2.487 -0.598493 0
M  V30 44526 H 4474.88 4.99497 -0.920073 0
M  V30 44527 H 4474.81 5.19718 0.848544 0
M  V30 44528 H 4477.3 3.77332 0.207144 0
M  V30 44529 H 4477.62 7.72536 -0.202126 0
M  V30 44530 H 4475.96 6.9478 -0.17483 0
M  V30 44531 H 4479.15 4.67782 0.172418 0
M  V30 44532 H 4479.32 6.47998 -0.013984 0
M  V30 44533 N 4472.73 -0.214903 1.56128 0
M  V30 44534 C 4473.96 -0.955028 1.8354 0
M  V30 44535 C 4474.37 -1.77674 0.638534 0
M  V30 44536 O 4473.73 -1.7822 -0.392905 0
M  V30 44537 C 4473.78 -1.86723 3.09543 0
M  V30 44538 O 4473.5 -1.07872 4.24612 0
M  V30 44539 C 4475 -2.7207 3.4999 0
M  V30 44540 H 4472.22 -0.27959 0.609976 0
M  V30 44541 H 4474.77 -0.228126 2.03224 0
M  V30 44542 H 4472.92 -2.548 2.91814 0
M  V30 44543 H 4473.34 -1.69854 4.96236 0
M  V30 44544 H 4474.81 -3.31767 4.41174 0
M  V30 44545 H 4475.29 -3.44796 2.72052 0
M  V30 44546 H 4475.89 -2.09396 3.7018 0
M  V30 44547 N 4474.21 -1.50053 -0.481867 0
M  V30 44548 C 4475.62 -1.53484 -1.063 0
M  V30 44549 C 4475.97 -0.332065 -1.9337 0
M  V30 44550 O 4475.1 0.556182 -2.09131 0
M  V30 44551 C 4475.69 -2.78137 -1.93456 0
M  V30 44552 C 4474.25 -2.84284 -2.46697 0
M  V30 44553 C 4473.4 -2.47641 -1.24776 0
M  V30 44554 H 4476.35 -1.56473 -0.26494 0
M  V30 44555 H 4476.37 -2.59382 -2.7839 0
M  V30 44556 H 4475.88 -3.65659 -1.30059 0
M  V30 44557 H 4473.98 -2.01088 -3.13679 0
M  V30 44558 H 4474.09 -3.8692 -2.82542 0
M  V30 44559 H 4472.46 -1.9984 -1.57911 0
M  V30 44560 H 4473.24 -3.37459 -0.630575 0
M  V30 44561 N 4475.69 0.734288 -1.39449 0
M  V30 44562 C 4476.6 1.87874 -1.40501 0
M  V30 44563 C 4477.61 1.71399 -0.299732 0
M  V30 44564 O 4478.79 1.93989 -0.541317 0
M  V30 44565 C 4475.85 3.23473 -1.24765 0
M  V30 44566 C 4474.91 3.52336 -2.45271 0
M  V30 44567 C 4474.15 4.81465 -2.30276 0
M  V30 44568 O 4474.37 5.55233 -1.30662 0
M  V30 44569 O 4473.3 5.10243 -3.19274 0
M  V30 44570 H 4477.13 1.89941 -2.36973 0
M  V30 44571 H 4474.72 0.882201 -1.20572 0
M  V30 44572 H 4476.6 4.04505 -1.18125 0
M  V30 44573 H 4475.27 3.22174 -0.313894 0
M  V30 44574 H 4474.18 2.71387 -2.57488 0
M  V30 44575 H 4475.51 3.58414 -3.37343 0
M  V30 44576 N 4477.16 1.24636 0.964549 0
M  V30 44577 C 4478.39 1.11345 1.74028 0
M  V30 44578 C 4478.8 -0.336528 1.86183 0
M  V30 44579 O 4478.15 -1.24384 1.35182 0
M  V30 44580 C 4478.21 1.68295 3.17675 0
M  V30 44581 C 4477.87 3.17207 3.28981 0
M  V30 44582 C 4478.87 4.14319 3.14064 0
M  V30 44583 C 4476.55 3.57227 3.5312 0
M  V30 44584 C 4478.55 5.49432 3.23116 0
M  V30 44585 C 4476.23 4.9248 3.6181 0
M  V30 44586 C 4477.23 5.88392 3.4682 0
M  V30 44587 O 4476.92 7.21185 3.55172 0
M  V30 44588 H 4476.65 0.389571 0.552459 0
M  V30 44589 H 4479.21 1.65287 1.21941 0
M  V30 44590 H 4477.44 1.0879 3.71082 0
M  V30 44591 H 4479.13 1.50247 3.77068 0
M  V30 44592 H 4479.89 3.84741 2.95295 0
M  V30 44593 H 4475.77 2.83076 3.63853 0
M  V30 44594 H 4479.31 6.24274 3.11333 0
M  V30 44595 H 4475.21 5.21727 3.80093 0
M  V30 44596 H 4475.98 7.29148 3.71867 0
M  V30 44597 N 4478.64 -1.1657 1.06062 0
M  V30 44598 C 4479.87 -1.90672 0.795464 0
M  V30 44599 C 4480.28 -1.77549 -0.653673 0
M  V30 44600 O 4479.62 -1.11616 -1.45903 0
M  V30 44601 C 4479.69 -3.42007 1.10776 0
M  V30 44602 C 4479.35 -3.78915 2.55484 0
M  V30 44603 C 4480.35 -3.8103 3.53712 0
M  V30 44604 C 4478.03 -4.09616 2.90723 0
M  V30 44605 C 4480.03 -4.13329 4.8522 0
M  V30 44606 C 4477.71 -4.41583 4.22431 0
M  V30 44607 C 4478.71 -4.43418 5.19489 0
M  V30 44608 O 4478.4 -4.74626 6.48834 0
M  V30 44609 H 4478.13 -0.611544 0.288079 0
M  V30 44610 H 4480.68 -1.48706 1.41688 0
M  V30 44611 H 4478.91 -3.8431 0.429263 0
M  V30 44612 H 4480.6 -3.97381 0.827217 0
M  V30 44613 H 4481.37 -3.57425 3.2783 0
M  V30 44614 H 4477.25 -4.07354 2.15833 0
M  V30 44615 H 4480.79 -4.14676 5.60972 0
M  V30 44616 H 4476.69 -4.64652 4.48073 0
M  V30 44617 H 4477.46 -4.92447 6.53787 0
M  V30 44618 N 4480.12 -0.842873 -1.33167 0
M  V30 44619 C 4481.53 -0.496714 -1.79971 0
M  V30 44620 C 4481.88 0.984581 -1.69707 0
M  V30 44621 O 4481.01 1.76739 -1.24869 0
M  V30 44622 C 4481.6 -0.894842 -3.26769 0
M  V30 44623 C 4480.16 -0.60076 -3.71575 0
M  V30 44624 C 4479.31 -1.101 -2.54506 0
M  V30 44625 H 4482.26 -1.0312 -1.20632 0
M  V30 44626 H 4482.28 -0.206481 -3.79939 0
M  V30 44627 H 4481.79 -1.97299 -3.34208 0
M  V30 44628 H 4479.89 0.467154 -3.6966 0
M  V30 44629 H 4480.01 -1.1588 -4.64875 0
M  V30 44630 H 4478.37 -0.521708 -2.493 0
M  V30 44631 H 4479.15 -2.18601 -2.64705 0
M  V30 44632 N 4481.6 1.45745 -0.599685 0
M  V30 44633 C 4482.55 2.322 0.136345 0
M  V30 44634 C 4483.54 1.455 0.867531 0
M  V30 44635 O 4484.75 1.62029 0.783994 0
M  V30 44636 H 4481.12 0.74937 0.0628325 0
M  V30 44637 H 4483.09 2.9207 -0.611384 0
M  V30 44638 C 4481.84 3.28978 1.12555 0
M  V30 44639 H 4481.17 3.95682 0.572345 0
M  V30 44640 H 4482.61 3.92218 1.61063 0
M  V30 44641 C 4481.06 2.55569 2.19514 0
M  V30 44642 O 4481.59 2.33122 3.27134 0
M  V30 44643 N 4479.8 2.15839 1.94582 0
M  V30 44644 H 4479.35 2.34294 1.0707 0
M  V30 44645 H 4479.31 1.67044 2.66353 0
M  V30 44646 N 4483.08 0.338398 1.53924 0
M  V30 44647 C 4484.04 -0.50822 2.23494 0
M  V30 44648 C 4485.04 -1.03171 1.23339 0
M  V30 44649 O 4486.23 -0.921774 1.47814 0
M  V30 44650 C 4483.36 -1.70744 2.95058 0
M  V30 44651 H 4484.56 0.100163 2.99733 0
M  V30 44652 H 4482.11 0.0896747 1.56043 0
M  V30 44653 H 4482.84 -2.35466 2.22994 0
M  V30 44654 H 4482.63 -1.33933 3.68517 0
M  V30 44655 H 4484.12 -2.30806 3.48021 0
M  V30 44656 N 4484.56 -1.57458 0.0668989 0
M  V30 44657 C 4485.8 -1.92921 -0.602146 0
M  V30 44658 C 4486.12 -0.947275 -1.70446 0
M  V30 44659 O 4485.39 0.00537231 -1.95899 0
M  V30 44660 H 4483.97 -0.712178 -0.225415 0
M  V30 44661 H 4486.64 -1.94508 0.123603 0
M  V30 44662 H 4485.73 -2.94592 -1.03062 0
M  V30 44663 N 4486.03 0.20662 -1.5624 0
M  V30 44664 C 4486.96 1.25902 -1.96649 0
M  V30 44665 C 4487.94 1.48094 -0.836786 0
M  V30 44666 O 4489.13 1.60026 -1.10024 0
M  V30 44667 C 4486.26 2.60572 -2.29608 0
M  V30 44668 C 4485.21 2.53012 -3.45209 0
M  V30 44669 C 4484.54 3.91848 -3.63812 0
M  V30 44670 C 4485.84 2.06507 -4.79742 0
M  V30 44671 H 4487.53 0.923269 -2.84809 0
M  V30 44672 H 4485.08 0.442687 -1.37027 0
M  V30 44673 H 4487.03 3.34366 -2.5647 0
M  V30 44674 H 4485.76 2.95864 -1.38318 0
M  V30 44675 H 4484.42 1.81673 -3.18419 0
M  V30 44676 H 4484.06 4.24474 -2.69872 0
M  V30 44677 H 4483.76 3.87667 -4.41574 0
M  V30 44678 H 4485.29 4.67282 -3.93039 0
M  V30 44679 H 4486.7 2.70054 -5.05711 0
M  V30 44680 H 4485.1 2.13354 -5.60892 0
M  V30 44681 H 4486.17 1.01785 -4.74097 0
M  V30 44682 N 4487.51 1.50306 0.473902 0
M  V30 44683 C 4488.76 1.60396 1.22295 0
M  V30 44684 C 4489.07 0.308479 1.93152 0
M  V30 44685 O 4490.28 0.288251 2.69965 0
M  V30 44686 C 4488.74 2.83117 2.222 0
M  V30 44687 C 4488.34 4.1953 1.57159 0
M  V30 44688 C 4490.09 3.0255 2.97764 0
M  V30 44689 C 4487.99 5.3344 2.55334 0
M  V30 44690 H 4486.92 0.597303 0.460158 0
M  V30 44691 H 4489.58 1.76733 0.493741 0
M  V30 44692 H 4487.96 2.60333 2.98401 0
M  V30 44693 H 4489.13 4.52557 0.867664 0
M  V30 44694 H 4487.45 4.05678 0.93886 0
M  V30 44695 H 4490.04 3.84824 3.71234 0
M  V30 44696 H 4490.39 2.14167 3.56985 0
M  V30 44697 H 4490.92 3.25502 2.28677 0
M  V30 44698 H 4487.66 6.23969 2.00856 0
M  V30 44699 H 4487.18 5.04834 3.23886 0
M  V30 44700 H 4488.86 5.63898 3.1722 0
M  V30 44701 N 4488.99 -0.726883 1.39836 0
M  V30 44702 C 4489.92 -1.85005 1.33598 0
M  V30 44703 C 4490.9 -1.61261 0.208248 0
M  V30 44704 O 4492.08 -1.8442 0.390046 0
M  V30 44705 C 4489.21 -3.21139 1.07645 0
M  V30 44706 C 4488.26 -3.63729 2.22718 0
M  V30 44707 S 4489.09 -3.72153 3.85048 0
M  V30 44708 C 4490.25 -5.11064 3.61336 0
M  V30 44709 H 4490.48 -1.90014 2.28652 0
M  V30 44710 H 4488.01 -0.89255 1.25988 0
M  V30 44711 H 4489.97 -3.99744 0.933556 0
M  V30 44712 H 4488.63 -3.13776 0.142636 0
M  V30 44713 H 4487.82 -4.62544 2.00172 0
M  V30 44714 H 4487.43 -2.92352 2.33252 0
M  V30 44715 H 4489.72 -5.97644 3.19104 0
M  V30 44716 H 4490.66 -5.38642 4.59642 0
M  V30 44717 H 4491.07 -4.81124 2.95262 0
M  V30 44718 N 4490.47 -1.25146 -0.957926 0
M  V30 44719 C 4491.42 -1.05027 -2.07538 0
M  V30 44720 C 4492.41 0.0178156 -1.69391 0
M  V30 44721 O 4493.62 -0.137535 -1.79474 0
M  V30 44722 H 4489.99 -0.322674 -0.679254 0
M  V30 44723 H 4491.96 -1.99767 -2.21666 0
M  V30 44724 C 4490.71 -0.682194 -3.40942 0
M  V30 44725 H 4490.03 -1.49586 -3.70761 0
M  V30 44726 H 4491.47 -0.581093 -4.19999 0
M  V30 44727 C 4489.93 0.611492 -3.31304 0
M  V30 44728 O 4490.46 1.65453 -3.66044 0
M  V30 44729 N 4488.67 0.595882 -2.84425 0
M  V30 44730 H 4488.22 -0.253282 -2.56352 0
M  V30 44731 H 4488.17 1.46163 -2.78359 0
M  V30 44732 N 4491.95 1.16006 -1.06679 0
M  V30 44733 C 4493.18 1.90248 -0.805564 0
M  V30 44734 C 4493.58 1.77893 0.644248 0
M  V30 44735 O 4492.93 1.12388 1.45309 0
M  V30 44736 C 4492.99 3.41415 -1.12588 0
M  V30 44737 C 4492.65 3.77555 -2.5749 0
M  V30 44738 C 4493.65 3.79148 -3.55728 0
M  V30 44739 C 4491.33 4.08069 -2.92891 0
M  V30 44740 C 4493.33 4.1075 -4.87405 0
M  V30 44741 C 4491.02 4.39336 -4.24767 0
M  V30 44742 C 4492.01 4.40657 -5.21834 0
M  V30 44743 O 4491.7 4.71179 -6.51341 0
M  V30 44744 H 4491.43 0.610008 -0.291319 0
M  V30 44745 H 4493.99 1.47953 -1.42475 0
M  V30 44746 H 4492.22 3.84077 -0.449638 0
M  V30 44747 H 4493.91 3.96937 -0.848279 0
M  V30 44748 H 4494.67 3.55682 -3.29721 0
M  V30 44749 H 4490.55 4.06203 -2.17991 0
M  V30 44750 H 4494.1 4.11696 -5.63163 0
M  V30 44751 H 4489.99 4.62269 -4.50531 0
M  V30 44752 H 4490.76 4.88973 -6.5639 0
M  V30 44753 N 4493.42 0.849923 1.32718 0
M  V30 44754 C 4494.66 0.457216 1.99221 0
M  V30 44755 C 4495.03 -0.96798 1.65814 0
M  V30 44756 O 4496.23 -1.46499 2.25369 0
M  V30 44757 C 4494.5 0.684089 3.50792 0
M  V30 44758 S 4496.06 0.388249 4.37079 0
M  V30 44759 H 4492.88 0.171489 0.690009 0
M  V30 44760 H 4495.48 1.10161 1.61508 0
M  V30 44761 H 4494.18 1.72051 3.72594 0
M  V30 44762 H 4493.71 0.0259468 3.93391 0
M  V30 44763 H 4495.73 -0.787619 4.89909 0
M  V30 44764 N 4494.9 -1.45425 0.607406 0
M  V30 44765 C 4496.32 -1.57282 0.27104 0
M  V30 44766 C 4496.52 -1.59879 -1.22641 0
M  V30 44767 O 4495.57 -1.529 -2.00943 0
M  V30 44768 C 4496.89 -2.85562 0.942053 0
M  V30 44769 C 4498.44 -2.99237 0.917954 0
M  V30 44770 C 4498.91 -4.30287 1.56897 0
M  V30 44771 N 4500.4 -4.37045 1.53445 0
M  V30 44772 C 4501.14 -5.37116 2.00733 0
M  V30 44773 N 4500.63 -6.43725 2.56106 0
M  V30 44774 N 4502.43 -5.28473 1.91502 0
M  V30 44775 H 4494.58 -1.41982 1.57971 0
M  V30 44776 H 4496.84 -0.678827 0.661739 0
M  V30 44777 H 4496.55 -2.89543 1.99643 0
M  V30 44778 H 4496.42 -3.7432 0.465227 0
M  V30 44779 H 4498.81 -2.94823 -0.12788 0
M  V30 44780 H 4498.89 -2.1189 1.43304 0
M  V30 44781 H 4498.53 -4.3546 2.61414 0
M  V30 44782 H 4498.46 -5.1645 1.02891 0
M  V30 44783 H 4500.95 -3.60611 1.12995 0
M  V30 44784 H 4501.27 -7.16331 2.89983 0
M  V30 44785 H 4499.61 -6.44476 2.60145 0
M  V30 44786 H 4502.8 -4.44093 1.47982 0
M  V30 44787 H 4502.97 -6.06312 2.28669 0
M  V30 44788 N 4496.38 -0.346557 -1.53742 0
M  V30 44789 C 4497.33 0.52414 -2.26618 0
M  V30 44790 C 4498.32 1.09943 -1.28875 0
M  V30 44791 O 4499.53 1.04483 -1.46572 0
M  V30 44792 H 4495.9 0.187717 -0.728194 0
M  V30 44793 H 4497.87 -0.112495 -2.98188 0
M  V30 44794 C 4496.62 1.66175 -3.0542 0
M  V30 44795 H 4495.95 1.22835 -3.80462 0
M  V30 44796 H 4497.39 2.24609 -3.5962 0
M  V30 44797 C 4495.85 2.59295 -2.15099 0
M  V30 44798 O 4496.38 3.61621 -1.74908 0
M  V30 44799 N 4494.58 2.28048 -1.80118 0
M  V30 44800 H 4494.13 1.44876 -2.13 0
M  V30 44801 H 4494.09 2.90611 -1.19969 0
M  V30 44802 N 4497.86 1.5742 -0.0752483 0
M  V30 44803 C 4499.27 1.81023 0.4569 0
M  V30 44804 C 4499.62 0.989419 1.69425 0
M  V30 44805 O 4498.75 0.212941 2.1535 0
M  V30 44806 C 4499.34 3.28332 0.835695 0
M  V30 44807 C 4497.9 3.52768 1.31269 0
M  V30 44808 C 4497.05 2.75677 0.299551 0
M  V30 44809 H 4500 1.55821 -0.300911 0
M  V30 44810 H 4500.02 3.4057 1.69684 0
M  V30 44811 H 4499.53 3.88045 -0.0650602 0
M  V30 44812 H 4497.63 2.98363 2.23183 0
M  V30 44813 H 4497.74 4.61456 1.28823 0
M  V30 44814 H 4496.11 2.42541 0.777555 0
M  V30 44815 H 4496.89 3.3813 -0.593536 0
M  V30 44816 N 4499.34 -0.198331 1.56347 0
M  V30 44817 C 4500.61 -0.944922 1.71262 0
M  V30 44818 C 4500.99 -2.01508 0.629119 0
M  V30 44819 O 4500.34 -2.2564 -0.360393 0
M  V30 44820 C 4500.55 -1.53428 3.13466 0
M  V30 44821 C 4501.9 -2.01765 3.73599 0
M  V30 44822 O 4502.92 -1.63277 3.16574 0
M  V30 44823 O 4501.78 -2.72578 4.7367 0
M  V30 44824 H 4498.88 -0.442914 0.698395 0
M  V30 44825 H 4501.42 -0.188282 1.68652 0
M  V30 44826 H 4500.19 -0.762734 3.83794 0
M  V30 44827 H 4499.82 -2.35585 3.2029 0
M  V30 44828 N 4500.81 -1.50555 -0.465925 0
M  V30 44829 C 4501.78 -1.69238 -1.54568 0
M  V30 44830 C 4502.78 -0.562954 -1.50624 0
M  V30 44831 O 4503.97 -0.830069 -1.53152 0
M  V30 44832 C 4501.1 -1.7224 -2.94187 0
M  V30 44833 H 4502.29 -2.65576 -1.39318 0
M  V30 44834 H 4499.85 -1.40114 -0.692662 0
M  V30 44835 H 4500.58 -0.77614 -3.14875 0
M  V30 44836 H 4500.37 -2.54295 -2.98457 0
M  V30 44837 H 4501.86 -1.88631 -3.72569 0
M  V30 44838 N 4502.29 0.719457 -1.4022 0
M  V30 44839 C 4503.54 1.48147 -1.38493 0
M  V30 44840 C 4503.87 1.94195 0.0141185 0
M  V30 44841 O 4503.15 1.67888 0.982037 0
M  V30 44842 C 4503.43 2.71027 -2.371 0
M  V30 44843 C 4503.28 2.30898 -3.86013 0
M  V30 44844 C 4504.6 3.73174 -2.33301 0
M  V30 44845 H 4501.72 0.537377 -0.504376 0
M  V30 44846 H 4504.36 0.821412 -1.71327 0
M  V30 44847 H 4502.51 3.27345 -2.09231 0
M  V30 44848 H 4504.18 1.80092 -4.24694 0
M  V30 44849 H 4502.43 1.62944 -4.02034 0
M  V30 44850 H 4503.1 3.18962 -4.50519 0
M  V30 44851 H 4505.57 3.26476 -2.57978 0
M  V30 44852 H 4504.45 4.56795 -3.0435 0
M  V30 44853 H 4504.71 4.21198 -1.34332 0
M  V30 44854 N 4503.77 1.25652 0.951275 0
M  V30 44855 C 4504.73 1.06406 2.03004 0
M  V30 44856 C 4505.73 0.015736 1.60792 0
M  V30 44857 O 4506.92 0.25823 1.72275 0
M  V30 44858 C 4504.06 0.616302 3.35283 0
M  V30 44859 H 4505.25 2.02172 2.2151 0
M  V30 44860 H 4502.8 1.08107 1.12883 0
M  V30 44861 H 4503.54 -0.343804 3.22472 0
M  V30 44862 H 4503.32 1.37314 3.6727 0
M  V30 44863 H 4504.81 0.503178 4.14557 0
M  V30 44864 N 4505.25 -1.15438 1.07293 0
M  V30 44865 C 4506.21 -2.18356 0.696667 0
M  V30 44866 C 4507.21 -1.58638 -0.262781 0
M  V30 44867 O 4508.4 -1.74145 -0.0438197 0
M  V30 44868 C 4505.53 -3.4089 0.0267349 0
M  V30 44869 H 4506.73 -2.53157 1.60785 0
M  V30 44870 H 4504.28 -1.2989 0.869388 0
M  V30 44871 H 4505.01 -3.11656 -0.896712 0
M  V30 44872 H 4504.8 -3.85493 0.716793 0
M  V30 44873 H 4506.29 -4.1701 -0.221881 0
M  V30 44874 N 4506.73 -0.85695 -1.32265 0
M  V30 44875 C 4508.14 -0.515775 -1.79434 0
M  V30 44876 C 4508.49 0.966526 -1.70742 0
M  V30 44877 O 4507.61 1.75404 -1.26737 0
M  V30 44878 C 4508.21 -0.929449 -3.25802 0
M  V30 44879 C 4506.77 -0.640137 -3.70917 0
M  V30 44880 C 4505.91 -1.12793 -2.53324 0
M  V30 44881 H 4508.87 -1.04393 -1.19531 0
M  V30 44882 H 4508.89 -0.246767 -3.79699 0
M  V30 44883 H 4508.4 -2.00832 -3.32096 0
M  V30 44884 H 4506.5 0.427921 -3.70135 0
M  V30 44885 H 4506.61 -1.20804 -4.6362 0
M  V30 44886 H 4504.98 -0.54812 -2.48732 0
M  V30 44887 H 4505.76 -2.21396 -2.62371 0
M  V30 44888 N 4508.2 1.45101 -0.61511 0
M  V30 44889 C 4509.43 2.06253 -0.119668 0
M  V30 44890 C 4509.84 1.45914 1.20439 0
M  V30 44891 O 4509.19 0.570445 1.74618 0
M  V30 44892 C 4509.25 3.59396 0.0864328 0
M  V30 44893 C 4508.91 4.42112 -1.15699 0
M  V30 44894 C 4509.91 4.76613 -2.07692 0
M  V30 44895 C 4507.59 4.82744 -1.38792 0
M  V30 44896 C 4509.59 5.50611 -3.21102 0
M  V30 44897 C 4507.27 5.56495 -2.52501 0
M  V30 44898 C 4508.27 5.90346 -3.43483 0
M  V30 44899 O 4507.96 6.62599 -4.55212 0
M  V30 44900 H 4507.69 0.67242 -0.0694748 0
M  V30 44901 H 4510.25 1.87216 -0.844951 0
M  V30 44902 H 4508.48 3.76863 0.86669 0
M  V30 44903 H 4510.17 4.02367 0.534414 0
M  V30 44904 H 4510.93 4.45773 -1.91079 0
M  V30 44905 H 4506.81 4.55827 -0.688705 0
M  V30 44906 H 4510.35 5.76951 -3.9214 0
M  V30 44907 H 4506.25 5.86749 -2.69064 0
M  V30 44908 H 4507.02 6.81055 -4.5399 0
M  V30 44909 N 4509.68 0.354705 1.53557 0
M  V30 44910 C 4510.92 -0.238579 2.03003 0
M  V30 44911 C 4511.29 -1.46873 1.23662 0
M  V30 44912 O 4512.49 -2.13693 1.63061 0
M  V30 44913 C 4510.76 -0.534051 3.53387 0
M  V30 44914 S 4512.32 -1.10256 4.24722 0
M  V30 44915 H 4509.14 -0.0702659 0.707519 0
M  V30 44916 H 4511.74 0.495053 1.89128 0
M  V30 44917 H 4510.44 0.368909 4.08739 0
M  V30 44918 H 4509.97 -1.29705 3.71403 0
M  V30 44919 H 4511.99 -2.38756 4.34983 0
M  V30 44920 N 4511.16 -1.57378 0.0835957 0
M  V30 44921 C 4512.39 -1.97977 -0.590643 0
M  V30 44922 C 4512.8 -0.961141 -1.62968 0
M  V30 44923 O 4512.14 0.0590234 -1.83605 0
M  V30 44924 C 4512.2 -3.3492 -1.30648 0
M  V30 44925 C 4511.87 -4.5507 -0.419538 0
M  V30 44926 C 4512.87 -5.18866 0.327672 0
M  V30 44927 C 4510.55 -5.01141 -0.340961 0
M  V30 44928 C 4512.54 -6.27094 1.14156 0
M  V30 44929 C 4510.23 -6.09239 0.476588 0
M  V30 44930 C 4511.23 -6.72079 1.21651 0
M  V30 44931 O 4510.92 -7.78093 2.02055 0
M  V30 44932 H 4510.65 -0.655824 -0.163924 0
M  V30 44933 H 4513.2 -2.04806 0.156093 0
M  V30 44934 H 4511.43 -3.2474 -2.09954 0
M  V30 44935 H 4513.12 -3.60044 -1.87412 0
M  V30 44936 H 4513.89 -4.8421 0.276629 0
M  V30 44937 H 4509.77 -4.51999 -0.906521 0
M  V30 44938 H 4513.31 -6.76074 1.71959 0
M  V30 44939 H 4509.21 -6.43327 0.529153 0
M  V30 44940 H 4509.98 -7.95027 1.94614 0
M  V30 44941 N 4512.64 0.190037 -1.5645 0
M  V30 44942 C 4513.87 0.925707 -1.85036 0
M  V30 44943 C 4514.28 1.76636 -0.66672 0
M  V30 44944 O 4513.64 1.78823 0.364502 0
M  V30 44945 C 4513.69 1.81775 -3.12474 0
M  V30 44946 O 4513.41 1.01103 -4.26274 0
M  V30 44947 C 4514.91 2.66467 -3.54274 0
M  V30 44948 H 4512.13 0.26985 -0.614347 0
M  V30 44949 H 4514.68 0.195766 -2.03561 0
M  V30 44950 H 4512.83 2.50125 -2.95831 0
M  V30 44951 H 4513.25 1.61938 -4.98875 0
M  V30 44952 H 4514.72 3.24706 -4.46396 0
M  V30 44953 H 4515.2 3.40425 -2.77503 0
M  V30 44954 H 4515.8 2.0348 -3.73465 0
M  V30 44955 N 4514.12 1.508 0.457934 0
M  V30 44956 C 4515.53 1.38518 0.792771 0
M  V30 44957 C 4515.73 0.451478 1.96377 0
M  V30 44958 O 4514.79 -0.101032 2.52298 0
M  V30 44959 C 4516.1 2.80153 1.09248 0
M  V30 44960 C 4517.65 2.8916 1.19815 0
M  V30 44961 C 4518.13 4.31656 1.53091 0
M  V30 44962 N 4519.62 4.34668 1.60056 0
M  V30 44963 C 4520.35 5.41935 1.87335 0
M  V30 44964 N 4519.85 6.59391 2.12545 0
M  V30 44965 N 4521.64 5.29392 1.88946 0
M  V30 44966 H 4513.79 2.10072 -0.313585 0
M  V30 44967 H 4516.05 0.944801 -0.0778194 0
M  V30 44968 H 4515.76 3.50375 0.304961 0
M  V30 44969 H 4515.63 3.18211 2.02538 0
M  V30 44970 H 4518.02 2.19148 1.97632 0
M  V30 44971 H 4518.1 2.54627 0.244731 0
M  V30 44972 H 4517.75 5.02211 0.75809 0
M  V30 44973 H 4517.68 4.63687 2.49604 0
M  V30 44974 H 4520.17 3.49978 1.42561 0
M  V30 44975 H 4520.48 7.36942 2.32671 0
M  V30 44976 H 4518.83 6.62543 2.0991 0
M  V30 44977 H 4522.02 4.36622 1.68757 0
M  V30 44978 H 4522.19 6.13073 2.09869 0
M  V30 44979 N 4515.6 -0.71201 1.40599 0
M  V30 44980 C 4516.87 -1.46532 1.29568 0
M  V30 44981 C 4517.25 -2.10931 -0.0843476 0
M  V30 44982 O 4516.6 -2.00422 -1.09743 0
M  V30 44983 C 4516.81 -2.49813 2.4371 0
M  V30 44984 C 4518.16 -3.15541 2.84111 0
M  V30 44985 O 4519.18 -2.60133 2.43329 0
M  V30 44986 O 4518.04 -4.15855 3.5458 0
M  V30 44987 H 4515.14 -0.651783 0.509027 0
M  V30 44988 H 4517.68 -0.743882 1.52527 0
M  V30 44989 H 4516.45 -2.00766 3.3587 0
M  V30 44990 H 4516.08 -3.29487 2.2254 0
M  V30 44991 N 4517.07 -1.26155 -0.944598 0
M  V30 44992 C 4518.48 -1.10459 -1.50518 0
M  V30 44993 C 4518.84 0.316282 -1.93634 0
M  V30 44994 O 4517.96 1.2074 -1.79585 0
M  V30 44995 C 4518.56 -1.999 -2.73542 0
M  V30 44996 C 4517.11 -1.8836 -3.2588 0
M  V30 44997 C 4516.26 -1.93454 -1.98673 0
M  V30 44998 H 4519.21 -1.39295 -0.76044 0
M  V30 44999 H 4519.23 -1.54489 -3.47726 0
M  V30 45000 H 4518.75 -3.03306 -2.42131 0
M  V30 45001 H 4516.85 -0.878764 -3.62089 0
M  V30 45002 H 4516.96 -2.7371 -3.93217 0
M  V30 45003 H 4515.32 -1.37463 -2.1442 0
M  V30 45004 H 4516.11 -2.98482 -1.69597 0
M  V30 45005 N 4518.55 1.14868 -1.07903 0
M  V30 45006 C 4519.8 1.85419 -0.804006 0
M  V30 45007 C 4520.12 1.83053 0.672046 0
M  V30 45008 O 4519.39 1.27537 1.48698 0
M  V30 45009 H 4517.97 0.686527 -0.294432 0
M  V30 45010 H 4520.63 1.39221 -1.36395 0
M  V30 45011 H 4519.73 2.90395 -1.14356 0
M  V30 45012 N 4520.03 0.863952 1.31809 0
M  V30 45013 C 4521.28 0.472604 1.97216 0
M  V30 45014 C 4521.61 -0.971335 1.68163 0
M  V30 45015 O 4520.88 -1.68306 0.974857 0
M  V30 45016 C 4521.17 0.723178 3.52764 0
M  V30 45017 C 4521.02 2.21621 3.91413 0
M  V30 45018 C 4522.34 0.185676 4.39708 0
M  V30 45019 H 4519.46 0.173183 0.716363 0
M  V30 45020 H 4522.1 1.08409 1.56037 0
M  V30 45021 H 4520.25 0.202713 3.87971 0
M  V30 45022 H 4521.92 2.80347 3.66338 0
M  V30 45023 H 4520.16 2.69112 3.40237 0
M  V30 45024 H 4520.84 2.3422 4.99845 0
M  V30 45025 H 4523.31 0.630871 4.1129 0
M  V30 45026 H 4522.19 0.390498 5.47509 0
M  V30 45027 H 4522.45 -0.912077 4.32589 0
M  V30 45028 N 4521.51 -1.44772 0.622796 0
M  V30 45029 C 4522.92 -1.56985 0.287707 0
M  V30 45030 C 4523.12 -1.61171 -1.20939 0
M  V30 45031 O 4522.18 -1.55022 -1.9931 0
M  V30 45032 C 4523.49 -2.84547 0.972288 0
M  V30 45033 C 4525.04 -2.98246 0.949641 0
M  V30 45034 C 4525.52 -4.28599 1.61452 0
M  V30 45035 N 4527.01 -4.35393 1.58072 0
M  V30 45036 C 4527.74 -5.34957 2.06419 0
M  V30 45037 N 4527.24 -6.40972 2.62919 0
M  V30 45038 N 4529.03 -5.26412 1.97097 0
M  V30 45039 H 4521.18 -1.40299 1.59468 0
M  V30 45040 H 4523.44 -0.67177 0.668901 0
M  V30 45041 H 4523.15 -2.8741 2.02703 0
M  V30 45042 H 4523.02 -3.73806 0.504903 0
M  V30 45043 H 4525.41 -2.94942 -0.0966031 0
M  V30 45044 H 4525.49 -2.10358 1.45544 0
M  V30 45045 H 4525.14 -4.32663 2.66018 0
M  V30 45046 H 4525.07 -5.1533 1.08363 0
M  V30 45047 H 4527.56 -3.59393 1.16813 0
M  V30 45048 H 4527.87 -7.13215 2.97564 0
M  V30 45049 H 4526.22 -6.41681 2.66966 0
M  V30 45050 H 4529.41 -4.42499 1.52684 0
M  V30 45051 H 4529.58 -6.03853 2.35087 0
M  V30 45052 N 4522.99 -0.362844 -1.53366 0
M  V30 45053 C 4524.23 0.220631 -2.022 0
M  V30 45054 C 4524.59 1.46645 -1.24551 0
M  V30 45055 O 4523.88 1.88736 -0.330027 0
M  V30 45056 C 4524.07 0.568293 -3.52853 0
M  V30 45057 C 4523.9 -0.642283 -4.4509 0
M  V30 45058 C 4522.67 -1.15352 -4.91957 0
M  V30 45059 C 4524.87 -1.50666 -4.91736 0
M  V30 45060 N 4522.85 -2.3244 -5.68194 0
M  V30 45061 C 4524.22 -2.52424 -5.66288 0
M  V30 45062 C 4526.28 -1.52986 -4.73814 0
M  V30 45063 C 4524.98 -3.56353 -6.24824 0
M  V30 45064 C 4527.01 -2.55808 -5.33213 0
M  V30 45065 C 4526.37 -3.56289 -6.07649 0
M  V30 45066 H 4522.47 0.0435233 -0.780788 0
M  V30 45067 H 4525.05 -0.50677 -1.87989 0
M  V30 45068 H 4523.22 1.26477 -3.6723 0
M  V30 45069 H 4524.96 1.13662 -3.88411 0
M  V30 45070 H 4521.71 -0.718577 -4.68117 0
M  V30 45071 H 4522.13 -2.91612 -6.10976 0
M  V30 45072 H 4526.78 -0.766564 -4.15793 0
M  V30 45073 H 4524.49 -4.33566 -6.81943 0
M  V30 45074 H 4528.08 -2.58453 -5.21242 0
M  V30 45075 H 4526.96 -4.34547 -6.52793 0
M  V30 45076 N 4524.46 1.57332 -0.0919406 0
M  V30 45077 C 4525.37 2.17371 0.882429 0
M  V30 45078 C 4526.39 1.14231 1.31253 0
M  V30 45079 O 4527.57 1.46587 1.38109 0
M  V30 45080 C 4524.63 2.73969 2.12466 0
M  V30 45081 C 4523.69 3.92054 1.74906 0
M  V30 45082 C 4522.93 4.45943 2.93207 0
M  V30 45083 O 4523.15 3.98779 4.07838 0
M  V30 45084 O 4522.08 5.37008 2.71856 0
M  V30 45085 H 4525.91 3.01033 0.401614 0
M  V30 45086 H 4523.49 1.48814 0.132238 0
M  V30 45087 H 4525.38 3.10157 2.85272 0
M  V30 45088 H 4524.05 1.93356 2.59606 0
M  V30 45089 H 4522.96 3.60683 0.992898 0
M  V30 45090 H 4524.29 4.74021 1.32532 0
M  V30 45091 N 4525.94 -0.181737 1.56549 0
M  V30 45092 C 4527.17 -0.914553 1.85255 0
M  V30 45093 C 4527.58 -1.76789 0.673976 0
M  V30 45094 O 4526.92 -1.8001 -0.366353 0
M  V30 45095 C 4526.99 -1.85008 3.0824 0
M  V30 45096 C 4526.65 -1.17739 4.41573 0
M  V30 45097 C 4527.65 -0.547853 5.17005 0
M  V30 45098 C 4525.33 -1.17725 4.88309 0
M  V30 45099 C 4527.33 0.0728368 6.37358 0
M  V30 45100 C 4525.01 -0.552733 6.08595 0
M  V30 45101 C 4526.01 0.0712181 6.82963 0
M  V30 45102 O 4525.7 0.685916 8.00968 0
M  V30 45103 H 4525.43 -0.271673 0.619007 0
M  V30 45104 H 4527.98 -0.189873 2.04521 0
M  V30 45105 H 4526.21 -2.61481 2.84894 0
M  V30 45106 H 4527.9 -2.45184 3.23481 0
M  V30 45107 H 4528.67 -0.540005 4.81984 0
M  V30 45108 H 4524.55 -1.65231 4.30372 0
M  V30 45109 H 4528.09 0.560457 6.95345 0
M  V30 45110 H 4523.99 -0.558128 6.43083 0
M  V30 45111 H 4524.76 0.584137 8.16413 0
M  V30 45112 N 4527.42 -1.51041 -0.44993 0
M  V30 45113 C 4528.66 -1.64736 -1.21001 0
M  V30 45114 C 4529.02 -0.349931 -1.88784 0
M  V30 45115 O 4530.23 -0.362525 -2.66344 0
M  V30 45116 C 4528.5 -2.80909 -2.20963 0
M  V30 45117 S 4530.06 -3.14861 -3.05627 0
M  V30 45118 H 4526.87 -0.580514 -0.410517 0
M  V30 45119 H 4529.48 -1.88903 -0.503568 0
M  V30 45120 H 4528.18 -3.73633 -1.69783 0
M  V30 45121 H 4527.71 -2.58893 -2.96206 0
M  V30 45122 H 4529.73 -2.60321 -4.2243 0
M  V30 45123 N 4528.9 0.704544 -1.40975 0
M  V30 45124 C 4529.85 1.83989 -1.42305 0
M  V30 45125 C 4530.84 1.66683 -0.30217 0
M  V30 45126 O 4532.05 1.73653 -0.473758 0
M  V30 45127 H 4528.42 0.606155 -0.445062 0
M  V30 45128 H 4530.39 1.79984 -2.38009 0
M  V30 45129 C 4529.14 3.21942 -1.31334 0
M  V30 45130 H 4528.46 3.3587 -2.16867 0
M  V30 45131 H 4529.9 4.01486 -1.36325 0
M  V30 45132 C 4528.36 3.36891 -0.0247161 0
M  V30 45133 O 4528.89 3.9069 0.934016 0
M  V30 45134 N 4527.1 2.9056 0.0484222 0
M  V30 45135 H 4526.65 2.46966 -0.732505 0
M  V30 45136 H 4526.6 3.0094 0.910065 0
M  V30 45137 N 4530.38 1.26654 0.937895 0
M  V30 45138 C 4531.31 1.11001 2.05429 0
M  V30 45139 C 4532.29 0.0142759 1.70094 0
M  V30 45140 O 4533.47 0.186905 1.93298 0
M  V30 45141 C 4530.6 0.745681 3.392 0
M  V30 45142 C 4529.56 1.79351 3.88609 0
M  V30 45143 C 4528.88 1.28342 5.19069 0
M  V30 45144 C 4530.18 3.19567 4.13127 0
M  V30 45145 H 4531.88 2.04388 2.18783 0
M  V30 45146 H 4529.42 0.984078 1.05128 0
M  V30 45147 H 4531.38 0.623035 4.16769 0
M  V30 45148 H 4530.1 -0.223896 3.25832 0
M  V30 45149 H 4528.76 1.90488 3.13225 0
M  V30 45150 H 4528.41 0.303591 5.02083 0
M  V30 45151 H 4528.11 1.98389 5.53097 0
M  V30 45152 H 4529.63 1.17351 5.99217 0
M  V30 45153 H 4531.04 3.11488 4.81298 0
M  V30 45154 H 4529.44 3.87234 4.58443 0
M  V30 45155 H 4530.51 3.6538 3.18788 0
M  V30 45156 N 4531.85 -1.14294 1.08511 0
M  V30 45157 C 4533.08 -1.89216 0.836943 0
M  V30 45158 C 4533.5 -1.7864 -0.610991 0
M  V30 45159 O 4532.85 -1.14648 -1.41994 0
M  V30 45160 C 4532.91 -3.39154 1.25128 0
M  V30 45161 O 4532.63 -3.4944 2.64242 0
M  V30 45162 C 4534.13 -4.31069 1.03413 0
M  V30 45163 H 4531.35 -0.599318 0.30176 0
M  V30 45164 H 4533.89 -1.44741 1.44466 0
M  V30 45165 H 4532.05 -3.81248 0.687648 0
M  V30 45166 H 4532.46 -4.42579 2.81467 0
M  V30 45167 H 4533.93 -5.34641 1.37342 0
M  V30 45168 H 4534.41 -4.39191 -0.0287715 0
M  V30 45169 H 4535.02 -3.94732 1.58325 0
M  V30 45170 N 4533.33 -0.87093 -1.31349 0
M  V30 45171 C 4534.26 -0.28463 -2.27426 0
M  V30 45172 C 4535.28 0.552873 -1.53125 0
M  V30 45173 O 4536.47 0.37471 -1.74523 0
M  V30 45174 C 4533.57 0.615047 -3.33272 0
M  V30 45175 C 4532.74 -0.190233 -4.36986 0
M  V30 45176 C 4531.8 0.637733 -5.22321 0
M  V30 45177 O 4530.82 0.0654259 -5.69162 0
M  V30 45178 N 4532.03 1.94954 -5.46784 0
M  V30 45179 H 4534.79 -1.11027 -2.78376 0
M  V30 45180 H 4532.35 -0.732509 -1.44381 0
M  V30 45181 H 4534.34 1.17467 -3.87277 0
M  V30 45182 H 4532.91 1.34136 -2.82358 0
M  V30 45183 H 4532.13 -0.9313 -3.83041 0
M  V30 45184 H 4533.42 -0.742756 -5.03349 0
M  V30 45185 H 4532.82 2.43763 -5.10486 0
M  V30 45186 H 4531.38 2.45692 -6.03721 0
M  V30 45187 N 4534.81 1.4444 -0.630465 0
M  V30 45188 C 4536.05 2.03934 -0.137991 0
M  V30 45189 C 4536.41 1.48514 1.21687 0
M  V30 45190 O 4537.62 1.99505 1.80142 0
M  V30 45191 C 4535.89 3.57187 -0.123499 0
M  V30 45192 S 4537.45 4.37743 0.30445 0
M  V30 45193 H 4534.26 0.708399 -0.0607602 0
M  V30 45194 H 4536.87 1.76832 -0.833705 0
M  V30 45195 H 4535.57 3.95028 -1.1127 0
M  V30 45196 H 4535.1 3.88898 0.593484 0
M  V30 45197 H 4537.12 4.71409 1.54881 0
M  V30 45198 N 4536.29 0.370972 1.53172 0
M  V30 45199 C 4537.51 -0.22022 2.06228 0
M  V30 45200 C 4537.94 -1.41239 1.2423 0
M  V30 45201 O 4537.3 -1.79387 0.262708 0
M  V30 45202 C 4537.34 -0.586538 3.55798 0
M  V30 45203 O 4536.45 -1.68304 3.76494 0
M  V30 45204 H 4535.79 -0.0307866 0.663286 0
M  V30 45205 H 4538.32 0.533137 1.97532 0
M  V30 45206 H 4538.33 -0.85603 3.98919 0
M  V30 45207 H 4537 0.285159 4.14921 0
M  V30 45208 H 4535.58 -1.40869 3.45269 0
M  V30 45209 N 4537.77 -1.57281 0.100283 0
M  V30 45210 C 4539.04 -1.86017 -0.604747 0
M  V30 45211 C 4539.42 -0.99809 -1.86014 0
M  V30 45212 O 4538.77 -0.0718987 -2.28387 0
M  V30 45213 C 4538.98 -3.36788 -0.91516 0
M  V30 45214 C 4540.33 -4.04962 -1.27636 0
M  V30 45215 O 4541.35 -3.41698 -1.00601 0
M  V30 45216 O 4540.21 -5.16599 -1.78291 0
M  V30 45217 H 4537.31 -0.769431 -0.303158 0
M  V30 45218 H 4539.85 -1.69175 0.133373 0
M  V30 45219 H 4538.62 -3.91292 -0.024752 0
M  V30 45220 H 4538.25 -3.58993 -1.70908 0
M  V30 45221 N 4539.25 0.173432 -1.56643 0
M  V30 45222 C 4540.21 1.19853 -1.95366 0
M  V30 45223 C 4541.21 1.37293 -0.837088 0
M  V30 45224 O 4542.4 1.34735 -1.10418 0
M  V30 45225 C 4539.53 2.56397 -2.24663 0
M  V30 45226 H 4540.72 0.866961 -2.87095 0
M  V30 45227 H 4538.28 0.4158 -1.50668 0
M  V30 45228 H 4539.01 2.94571 -1.35641 0
M  V30 45229 H 4538.8 2.45105 -3.06049 0
M  V30 45230 H 4540.29 3.30278 -2.55551 0
M  V30 45231 N 4540.72 1.51278 0.441914 0
M  V30 45232 C 4541.63 1.75097 1.56135 0
M  V30 45233 C 4542.65 0.63502 1.61998 0
M  V30 45234 O 4543.83 0.916749 1.79326 0
M  V30 45235 C 4540.89 1.86677 2.92152 0
M  V30 45236 C 4539.95 3.10517 2.96442 0
M  V30 45237 C 4539.18 3.21534 4.25971 0
M  V30 45238 O 4539.41 2.38604 5.18097 0
M  V30 45239 O 4538.34 4.1448 4.36452 0
M  V30 45240 H 4542.17 2.70049 1.38951 0
M  V30 45241 H 4539.75 1.35724 0.624452 0
M  V30 45242 H 4541.63 1.96305 3.72884 0
M  V30 45243 H 4540.31 0.949123 3.09473 0
M  V30 45244 H 4539.22 3.0637 2.14681 0
M  V30 45245 H 4540.55 4.01955 2.84065 0
M  V30 45246 N 4542.2 -0.697058 1.41347 0
M  V30 45247 C 4543.45 -1.45421 1.40346 0
M  V30 45248 C 4543.77 -1.94996 0.0129473 0
M  V30 45249 O 4543.04 -1.71602 -0.944966 0
M  V30 45250 H 4541.62 -0.539576 0.516592 0
M  V30 45251 H 4544.28 -0.825139 1.76571 0
M  V30 45252 H 4543.38 -2.3181 2.08975 0
M  V30 45253 N 4543.68 -1.2715 -0.931165 0
M  V30 45254 C 4544.91 -1.16088 -1.71263 0
M  V30 45255 C 4545.32 0.282707 -1.86671 0
M  V30 45256 O 4544.68 1.19278 -1.38127 0
M  V30 45257 C 4544.73 -1.83591 -3.11411 0
M  V30 45258 O 4544.45 -3.22309 -2.9673 0
M  V30 45259 C 4545.95 -1.78611 -4.05725 0
M  V30 45260 H 4543.17 -0.403777 -0.535915 0
M  V30 45261 H 4545.72 -1.67957 -1.16665 0
M  V30 45262 H 4543.87 -1.35635 -3.6288 0
M  V30 45263 H 4544.29 -3.55864 -3.85306 0
M  V30 45264 H 4545.76 -2.30462 -5.01589 0
M  V30 45265 H 4546.24 -0.754716 -4.32667 0
M  V30 45266 H 4546.84 -2.26164 -3.6018 0
M  V30 45267 N 4545.16 1.13717 -1.09116 0
M  V30 45268 C 4546.12 2.1722 -0.731318 0
M  V30 45269 C 4547.12 1.59036 0.23751 0
M  V30 45270 O 4548.31 1.74193 0.0161092 0
M  V30 45271 C 4545.44 3.40804 -0.0809641 0
M  V30 45272 H 4546.64 2.50567 -1.64792 0
M  V30 45273 H 4544.19 1.2849 -0.889942 0
M  V30 45274 H 4544.92 3.13043 0.847017 0
M  V30 45275 H 4544.71 3.84303 -0.778031 0
M  V30 45276 H 4546.2 4.1731 0.15551 0
M  V30 45277 N 4546.64 0.877884 1.30885 0
M  V30 45278 C 4547.88 0.493495 1.96704 0
M  V30 45279 C 4548.21 -0.953444 1.69184 0
M  V30 45280 O 4547.49 -1.67262 0.992653 0
M  V30 45281 C 4547.77 0.760553 3.51977 0
M  V30 45282 C 4547.63 2.2576 3.8904 0
M  V30 45283 C 4548.94 0.232303 4.39486 0
M  V30 45284 H 4546.06 0.180771 0.714486 0
M  V30 45285 H 4548.71 1.10058 1.54878 0
M  V30 45286 H 4546.86 0.243851 3.87734 0
M  V30 45287 H 4548.53 2.84217 3.63344 0
M  V30 45288 H 4546.77 2.72706 3.37363 0
M  V30 45289 H 4547.44 2.39509 4.97332 0
M  V30 45290 H 4549.92 0.674458 4.10597 0
M  V30 45291 H 4548.79 0.448547 5.47064 0
M  V30 45292 H 4549.05 -0.866144 4.33532 0
M  V30 45293 N 4548.11 -1.44104 0.638116 0
M  V30 45294 C 4549.08 -2.29139 -0.0530207 0
M  V30 45295 C 4550.08 -1.41412 -0.765456 0
M  V30 45296 O 4551.27 -1.63208 -0.608988 0
M  V30 45297 C 4548.4 -3.23148 -1.08573 0
M  V30 45298 H 4549.59 -2.91736 0.694985 0
M  V30 45299 H 4547.14 -1.51132 0.398591 0
M  V30 45300 H 4547.88 -2.65415 -1.86348 0
M  V30 45301 H 4547.66 -3.87806 -0.578715 0
M  V30 45302 H 4549.15 -3.8701 -1.56886 0
M  V30 45303 N 4549.59 -0.37909 -1.52973 0
M  V30 45304 C 4551 0.097187 -1.86447 0
M  V30 45305 C 4551.35 1.47022 -1.29919 0
M  V30 45306 O 4550.48 2.07132 -0.626505 0
M  V30 45307 C 4551.07 0.183129 -3.38305 0
M  V30 45308 C 4549.63 0.603682 -3.71527 0
M  V30 45309 C 4548.78 -0.240729 -2.76253 0
M  V30 45310 H 4551.73 -0.597367 -1.47028 0
M  V30 45311 H 4551.75 1.0042 -3.6701 0
M  V30 45312 H 4551.26 -0.816324 -3.79418 0
M  V30 45313 H 4549.36 1.61087 -3.35979 0
M  V30 45314 H 4549.48 0.368918 -4.77678 0
M  V30 45315 H 4547.84 0.292459 -2.53015 0
M  V30 45316 H 4548.62 -1.23797 -3.20202 0
M  V30 45317 N 4551.07 1.57225 -0.108623 0
M  V30 45318 C 4552.48 1.81951 0.4184 0
M  V30 45319 C 4552.83 1.02513 1.67288 0
M  V30 45320 O 4551.96 0.258572 2.1485 0
M  V30 45321 C 4552.55 3.3003 0.765863 0
M  V30 45322 C 4551.11 3.55473 1.23757 0
M  V30 45323 C 4550.26 2.76251 0.241009 0
M  V30 45324 H 4553.21 1.55148 -0.333895 0
M  V30 45325 H 4553.23 3.44092 1.62422 0
M  V30 45326 H 4552.74 3.8782 -0.147356 0
M  V30 45327 H 4550.84 3.0303 2.16804 0
M  V30 45328 H 4550.96 4.64085 1.19006 0
M  V30 45329 H 4549.32 2.44136 0.725934 0
M  V30 45330 H 4550.1 3.36795 -0.665125 0
M  V30 45331 N 4552.55 -0.165123 1.56733 0
M  V30 45332 C 4553.78 -0.896153 1.86485 0
M  V30 45333 C 4554.19 -1.75553 0.694737 0
M  V30 45334 O 4553.55 -1.7938 -0.336007 0
M  V30 45335 C 4553.6 -1.76781 3.15327 0
M  V30 45336 O 4553.32 -0.943088 4.27829 0
M  V30 45337 C 4554.82 -2.60797 3.58468 0
M  V30 45338 H 4552.04 -0.260042 0.618562 0
M  V30 45339 H 4554.58 -0.163356 2.03847 0
M  V30 45340 H 4552.74 -2.45387 2.99773 0
M  V30 45341 H 4553.15 -1.53981 5.01388 0
M  V30 45342 H 4554.63 -3.17563 4.51506 0
M  V30 45343 H 4555.1 -3.35967 2.82883 0
M  V30 45344 H 4555.71 -1.97513 3.76655 0
M  V30 45345 N 4554.03 -1.5151 -0.433885 0
M  V30 45346 C 4555.27 -1.64593 -1.18478 0
M  V30 45347 C 4555.61 -0.362733 -1.90782 0
M  V30 45348 O 4554.88 0.637827 -1.83744 0
M  V30 45349 C 4555.16 -2.85157 -2.19903 0
M  V30 45350 C 4555.02 -4.23461 -1.51659 0
M  V30 45351 C 4556.34 -3.01239 -3.20848 0
M  V30 45352 H 4553.45 -0.59901 -0.429368 0
M  V30 45353 H 4556.1 -1.84003 -0.473582 0
M  V30 45354 H 4554.25 -2.68738 -2.80556 0
M  V30 45355 H 4555.92 -4.51555 -0.943164 0
M  V30 45356 H 4554.16 -4.26001 -0.818885 0
M  V30 45357 H 4554.83 -5.0382 -2.25542 0
M  V30 45358 H 4557.31 -3.16391 -2.70252 0
M  V30 45359 H 4556.18 -3.87155 -3.89104 0
M  V30 45360 H 4556.45 -2.1346 -3.87153 0
M  V30 45361 N 4555.5 0.689552 -1.41714 0
M  V30 45362 C 4556.73 1.47822 -1.44763 0
M  V30 45363 C 4557.15 1.88721 -0.0546367 0
M  V30 45364 O 4556.5 1.5718 0.927408 0
M  V30 45365 C 4556.56 2.73689 -2.3617 0
M  V30 45366 O 4556.28 2.34511 -3.70049 0
M  V30 45367 C 4557.78 3.67381 -2.48085 0
M  V30 45368 H 4555 0.45534 -0.492856 0
M  V30 45369 H 4557.54 0.848509 -1.86066 0
M  V30 45370 H 4555.7 3.32884 -1.9816 0
M  V30 45371 H 4556.11 3.15686 -4.18859 0
M  V30 45372 H 4557.58 4.52464 -3.16197 0
M  V30 45373 H 4558.06 4.12279 -1.51402 0
M  V30 45374 H 4558.67 3.14087 -2.86757 0
M  V30 45375 N 4556.98 1.27642 0.924409 0
M  V30 45376 C 4558.39 1.1284 1.48742 0
M  V30 45377 C 4558.74 -0.285437 1.94113 0
M  V30 45378 O 4557.87 -1.17868 1.81483 0
M  V30 45379 C 4558.46 2.04227 2.70327 0
M  V30 45380 C 4557.02 1.93521 3.22842 0
M  V30 45381 C 4556.17 1.9659 1.9557 0
M  V30 45382 H 4559.12 1.40487 0.738183 0
M  V30 45383 H 4559.14 1.60001 3.45224 0
M  V30 45384 H 4558.65 3.07119 2.37275 0
M  V30 45385 H 4556.76 0.936258 3.60645 0
M  V30 45386 H 4556.87 2.79931 3.88813 0
M  V30 45387 H 4555.23 1.40857 2.12206 0
M  V30 45388 H 4556.02 3.01143 1.64827 0
M  V30 45389 N 4558.46 -1.13137 1.09717 0
M  V30 45390 C 4559.71 -1.84754 0.836289 0
M  V30 45391 C 4560.04 -1.83472 -0.636533 0
M  V30 45392 O 4559.31 -1.27496 -1.46885 0
M  V30 45393 C 4559.6 -3.32778 1.3759 0
M  V30 45394 C 4559.45 -3.42557 2.91505 0
M  V30 45395 C 4560.77 -4.28303 1.01214 0
M  V30 45396 H 4557.89 -0.670809 0.30526 0
M  V30 45397 H 4560.53 -1.32775 1.35907 0
M  V30 45398 H 4558.68 -3.77174 0.93123 0
M  V30 45399 H 4560.35 -3.0685 3.44443 0
M  V30 45400 H 4558.6 -2.83338 3.28485 0
M  V30 45401 H 4559.27 -4.46663 3.2434 0
M  V30 45402 H 4561.74 -3.91994 1.3957 0
M  V30 45403 H 4560.62 -5.30302 1.41671 0
M  V30 45404 H 4560.88 -4.42029 -0.0793279 0
M  V30 45405 N 4559.94 -0.884812 -1.30418 0
M  V30 45406 C 4561.35 -0.553719 -1.783 0
M  V30 45407 C 4561.7 0.930092 -1.72753 0
M  V30 45408 O 4560.83 1.72677 -1.30429 0
M  V30 45409 C 4561.42 -0.998348 -3.23757 0
M  V30 45410 C 4559.98 -0.71867 -3.69475 0
M  V30 45411 C 4559.13 -1.18141 -2.50874 0
M  V30 45412 H 4562.08 -1.06905 -1.1729 0
M  V30 45413 H 4562.1 -0.327251 -3.7909 0
M  V30 45414 H 4561.61 -2.07832 -3.27762 0
M  V30 45415 H 4559.71 0.349313 -3.70959 0
M  V30 45416 H 4559.82 -1.30611 -4.60953 0
M  V30 45417 H 4558.19 -0.600756 -2.47514 0
M  V30 45418 H 4558.97 -2.26911 -2.57616 0
M  V30 45419 N 4561.42 1.43763 -0.645749 0
M  V30 45420 C 4562.64 2.06767 -0.161956 0
M  V30 45421 C 4563.07 1.48039 1.16044 0
M  V30 45422 O 4562.42 0.587429 1.7152 0
M  V30 45423 C 4562.47 3.60519 -0.076327 0
M  V30 45424 O 4561.58 4.00985 0.96358 0
M  V30 45425 H 4560.92 0.657672 -0.0914521 0
M  V30 45426 H 4563.45 1.84394 -0.886563 0
M  V30 45427 H 4563.46 4.07853 0.10946 0
M  V30 45428 H 4562.13 4.02643 -1.04172 0
M  V30 45429 H 4560.71 3.65256 0.751184 0
M  V30 45430 N 4562.89 0.387197 1.5277 0
M  V30 45431 C 4563.82 -0.440471 2.29308 0
M  V30 45432 C 4564.81 -1.06531 1.32609 0
M  V30 45433 O 4565.99 -1.07848 1.61501 0
M  V30 45434 C 4563.12 -1.56908 3.09834 0
M  V30 45435 C 4562.07 -1.07039 4.14399 0
M  V30 45436 C 4561.4 -2.29092 4.83137 0
M  V30 45437 C 4562.7 -0.139831 5.22113 0
M  V30 45438 H 4564.39 0.198131 2.98744 0
M  V30 45439 H 4561.94 0.0967305 1.43675 0
M  V30 45440 H 4563.89 -2.1549 3.62135 0
M  V30 45441 H 4562.62 -2.23524 2.38127 0
M  V30 45442 H 4561.28 -0.507119 3.63076 0
M  V30 45443 H 4560.92 -2.94212 4.07981 0
M  V30 45444 H 4560.62 -1.96387 5.53811 0
M  V30 45445 H 4562.15 -2.8832 5.38241 0
M  V30 45446 H 4563.56 -0.633777 5.69786 0
M  V30 45447 H 4561.96 0.0973594 6.00021 0
M  V30 45448 H 4563.03 0.811879 4.78055 0
M  V30 45449 N 4564.37 -1.57165 0.116959 0
M  V30 45450 C 4565.28 -2.18748 -0.847735 0
M  V30 45451 C 4566.3 -1.16304 -1.29419 0
M  V30 45452 O 4567.47 -1.48766 -1.3576 0
M  V30 45453 C 4564.54 -2.77315 -2.0808 0
M  V30 45454 C 4563.6 -3.94787 -1.68647 0
M  V30 45455 C 4562.83 -4.50551 -2.86075 0
M  V30 45456 O 4563.06 -4.05217 -4.01442 0
M  V30 45457 O 4561.99 -5.41265 -2.63278 0
M  V30 45458 H 4565.82 -3.01634 -0.353672 0
M  V30 45459 H 4563.4 -1.49005 -0.108547 0
M  V30 45460 H 4565.28 -3.14657 -2.80302 0
M  V30 45461 H 4563.96 -1.97461 -2.56497 0
M  V30 45462 H 4562.87 -3.62217 -0.935391 0
M  V30 45463 H 4564.2 -4.7607 -1.24974 0
M  V30 45464 N 4565.85 0.156809 -1.56818 0
M  V30 45465 C 4566.81 1.17774 -1.96627 0
M  V30 45466 C 4567.81 1.36398 -0.851603 0
M  V30 45467 O 4569 1.33557 -1.1184 0
M  V30 45468 C 4566.14 2.54 -2.2737 0
M  V30 45469 H 4567.33 0.836462 -2.87999 0
M  V30 45470 H 4564.88 0.399797 -1.511 0
M  V30 45471 H 4565.62 2.93116 -1.38758 0
M  V30 45472 H 4565.4 2.41845 -3.08632 0
M  V30 45473 H 4566.89 3.27548 -2.5904 0
M  V30 45474 N 4567.33 1.51738 0.425844 0
M  V30 45475 C 4568.74 1.57323 1.0053 0
M  V30 45476 C 4569.09 0.403604 1.92004 0
M  V30 45477 O 4568.22 -0.478182 2.11051 0
M  V30 45478 C 4568.81 2.85125 1.83 0
M  V30 45479 C 4567.37 2.93244 2.35976 0
M  V30 45480 C 4566.52 2.52102 1.15499 0
M  V30 45481 H 4569.47 1.57348 0.206684 0
M  V30 45482 H 4569.49 2.69536 2.68572 0
M  V30 45483 H 4569 3.70234 1.16398 0
M  V30 45484 H 4567.1 2.12591 3.05999 0
M  V30 45485 H 4567.21 3.9714 2.67987 0
M  V30 45486 H 4565.58 2.05563 1.50386 0
M  V30 45487 H 4566.36 3.39567 0.504895 0
M  V30 45488 N 4568.81 -0.682027 1.42078 0
M  V30 45489 C 4570.03 -1.47553 1.45749 0
M  V30 45490 C 4570.46 -1.87976 0.0681642 0
M  V30 45491 O 4569.82 -1.55526 -0.931746 0
M  V30 45492 C 4569.86 -2.70566 2.38382 0
M  V30 45493 O 4568.97 -3.68566 1.8502 0
M  V30 45494 H 4568.31 -0.443568 0.494109 0
M  V30 45495 H 4570.84 -0.837173 1.86688 0
M  V30 45496 H 4570.85 -3.18721 2.54718 0
M  V30 45497 H 4569.52 -2.40483 3.39324 0
M  V30 45498 H 4568.1 -3.27564 1.78204 0
M  V30 45499 N 4570.29 -1.2813 -0.917626 0
M  V30 45500 C 4571.2 -1.13563 -2.05282 0
M  V30 45501 C 4572.21 -0.0631525 -1.73885 0
M  V30 45502 O 4573.39 -0.271669 -1.99559 0
M  V30 45503 C 4570.45 -0.794794 -3.37467 0
M  V30 45504 C 4569.51 -1.94922 -3.82497 0
M  V30 45505 C 4568.75 -1.62455 -5.08374 0
M  V30 45506 O 4568.97 -0.537105 -5.67866 0
M  V30 45507 O 4567.9 -2.46696 -5.49022 0
M  V30 45508 H 4571.73 -2.08851 -2.20488 0
M  V30 45509 H 4569.31 -1.07412 -1.03841 0
M  V30 45510 H 4571.2 -0.618491 -4.16836 0
M  V30 45511 H 4569.87 0.128467 -3.23445 0
M  V30 45512 H 4568.78 -2.18066 -3.03971 0
M  V30 45513 H 4570.11 -2.85305 -4.01076 0
M  V30 45514 N 4571.76 1.12553 -1.10316 0
M  V30 45515 C 4572.7 2.17968 -0.708702 0
M  V30 45516 C 4573.71 1.60807 0.25397 0
M  V30 45517 O 4574.9 1.78458 0.0386264 0
M  V30 45518 C 4572 3.38891 -0.024939 0
M  V30 45519 C 4571.17 4.25544 -1.01147 0
M  V30 45520 C 4570.23 5.24971 -0.359424 0
M  V30 45521 O 4569.26 5.6017 -1.00984 0
M  V30 45522 N 4570.46 5.7375 0.882645 0
M  V30 45523 H 4573.22 2.52421 -1.61566 0
M  V30 45524 H 4570.78 1.27963 -0.991816 0
M  V30 45525 H 4572.78 4.02486 0.42271 0
M  V30 45526 H 4571.35 3.02598 0.784408 0
M  V30 45527 H 4570.57 3.58584 -1.63742 0
M  V30 45528 H 4571.85 4.80288 -1.67931 0
M  V30 45529 H 4571.25 5.47316 1.43046 0
M  V30 45530 H 4569.81 6.39239 1.27346 0
M  V30 45531 N 4573.24 0.891716 1.29947 0
M  V30 45532 C 4574.2 0.368359 2.26221 0
M  V30 45533 C 4575.2 -0.492961 1.53057 0
M  V30 45534 O 4576.39 -0.299152 1.71612 0
M  V30 45535 C 4573.53 -0.474301 3.37584 0
M  V30 45536 H 4574.72 1.21853 2.74029 0
M  V30 45537 H 4572.27 0.669157 1.41251 0
M  V30 45538 H 4573.01 -1.34479 2.95103 0
M  V30 45539 H 4572.79 0.142752 3.9184 0
M  V30 45540 H 4574.28 -0.832036 4.09227 0
M  V30 45541 N 4574.72 -1.43419 0.653364 0
M  V30 45542 C 4576.13 -1.85064 0.246602 0
M  V30 45543 C 4576.48 -1.54692 -1.20685 0
M  V30 45544 O 4575.61 -0.995964 -1.92119 0
M  V30 45545 C 4576.2 -3.3592 0.440784 0
M  V30 45546 C 4574.76 -3.76296 0.0883387 0
M  V30 45547 C 4573.91 -2.67145 0.743578 0
M  V30 45548 H 4576.86 -1.33569 0.857026 0
M  V30 45549 H 4576.88 -3.79205 -0.313665 0
M  V30 45550 H 4576.39 -3.57995 1.49871 0
M  V30 45551 H 4574.49 -3.59834 -0.966984 0
M  V30 45552 H 4574.61 -4.76336 0.513905 0
M  V30 45553 H 4572.97 -2.54086 0.176802 0
M  V30 45554 H 4573.75 -2.92047 1.80453 0
M  V30 45555 N 4576.2 -0.395293 -1.52562 0
M  V30 45556 C 4577.43 0.184871 -2.06072 0
M  V30 45557 C 4577.84 1.40017 -1.26652 0
M  V30 45558 O 4577.2 1.79766 -0.314735 0
M  V30 45559 C 4577.25 0.549054 -3.57306 0
M  V30 45560 O 4576.97 -0.617966 -4.3372 0
M  V30 45561 C 4578.47 1.18444 -4.27184 0
M  V30 45562 H 4575.69 0.0264789 -0.670477 0
M  V30 45563 H 4578.23 -0.562253 -1.96619 0
M  V30 45564 H 4576.39 1.24607 -3.66813 0
M  V30 45565 H 4576.8 -0.317275 -5.2354 0
M  V30 45566 H 4578.28 1.38957 -5.34224 0
M  V30 45567 H 4578.75 2.15354 -3.82778 0
M  V30 45568 H 4579.36 0.528014 -4.2201 0
M  V30 45569 N 4577.68 1.57101 -0.125292 0
M  V30 45570 C 4578.59 2.19194 0.836123 0
M  V30 45571 C 4579.6 1.16989 1.288 0
M  V30 45572 O 4580.78 1.49484 1.34969 0
M  V30 45573 C 4577.84 2.78414 2.06607 0
M  V30 45574 C 4576.9 3.95676 1.66551 0
M  V30 45575 C 4576.14 4.52062 2.83682 0
M  V30 45576 O 4576.36 4.0734 3.99287 0
M  V30 45577 O 4575.29 5.42654 2.60404 0
M  V30 45578 H 4579.12 3.01817 0.33767 0
M  V30 45579 H 4576.7 1.49061 0.100643 0
M  V30 45580 H 4578.59 3.16139 2.78629 0
M  V30 45581 H 4577.26 1.98819 2.55446 0
M  V30 45582 H 4576.17 3.62708 0.916168 0
M  V30 45583 H 4577.5 4.76726 1.22447 0
M  V30 45584 N 4579.15 -0.14849 1.56899 0
M  V30 45585 C 4580.09 -1.20845 1.94754 0
M  V30 45586 C 4581.1 -1.39262 0.8432 0
M  V30 45587 O 4582.29 -1.3886 1.12161 0
M  V30 45588 C 4579.39 -2.57354 2.20504 0
M  V30 45589 C 4578.56 -2.59934 3.51785 0
M  V30 45590 C 4577.62 -3.77971 3.66094 0
M  V30 45591 O 4576.65 -3.62913 4.385 0
M  V30 45592 N 4577.85 -4.95364 3.02646 0
M  V30 45593 H 4580.61 -0.886703 2.86282 0
M  V30 45594 H 4578.17 -0.338066 1.58331 0
M  V30 45595 H 4580.17 -3.34825 2.27319 0
M  V30 45596 H 4578.74 -2.81827 1.35248 0
M  V30 45597 H 4577.96 -1.6839 3.56425 0
M  V30 45598 H 4579.24 -2.58689 4.3813 0
M  V30 45599 H 4578.64 -5.105 2.43733 0
M  V30 45600 H 4577.2 -5.70616 3.15024 0
M  V30 45601 N 4580.63 -1.51961 -0.417791 0
M  V30 45602 C 4582.05 -1.40571 -0.755766 0
M  V30 45603 C 4582.25 -0.503385 -1.95111 0
M  V30 45604 O 4581.3 0.0341037 -2.52477 0
M  V30 45605 C 4582.62 -2.82951 -1.01782 0
M  V30 45606 C 4584.16 -2.92235 -1.12106 0
M  V30 45607 C 4584.64 -4.35564 -1.41592 0
M  V30 45608 N 4586.13 -4.38759 -1.48476 0
M  V30 45609 C 4586.87 -5.46711 -1.72901 0
M  V30 45610 N 4586.36 -6.64795 -1.94987 0
M  V30 45611 N 4588.15 -5.34215 -1.74844 0
M  V30 45612 H 4580.31 -2.09167 0.369172 0
M  V30 45613 H 4582.57 -0.942405 0.102842 0
M  V30 45614 H 4582.27 -3.51061 -0.211958 0
M  V30 45615 H 4582.15 -3.23469 -1.9403 0
M  V30 45616 H 4584.54 -2.24311 -1.91752 0
M  V30 45617 H 4584.62 -2.55186 -0.177136 0
M  V30 45618 H 4584.26 -5.04044 -0.624671 0
M  V30 45619 H 4584.19 -4.70141 -2.37223 0
M  V30 45620 H 4586.68 -3.53635 -1.33232 0
M  V30 45621 H 4586.99 -7.42852 -2.1305 0
M  V30 45622 H 4585.34 -6.67875 -1.9227 0
M  V30 45623 H 4588.53 -4.40943 -1.57121 0
M  V30 45624 H 4588.7 -6.18422 -1.93541 0
M  V30 45625 N 4582.11 0.674483 -1.42438 0
M  V30 45626 C 4583.52 1.25509 -1.38218 0
M  V30 45627 C 4583.87 1.96054 -0.0756154 0
M  V30 45628 O 4583 2.00031 0.82563 0
M  V30 45629 C 4583.59 2.2826 -2.50365 0
M  V30 45630 C 4582.15 2.81848 -2.49477 0
M  V30 45631 C 4581.3 1.56174 -2.2914 0
M  V30 45632 H 4584.25 0.467849 -1.51647 0
M  V30 45633 H 4584.27 3.10001 -2.20634 0
M  V30 45634 H 4583.78 1.76888 -3.45445 0
M  V30 45635 H 4581.88 3.3734 -1.58216 0
M  V30 45636 H 4582 3.30842 -3.46526 0
M  V30 45637 H 4580.36 1.82754 -1.77406 0
M  V30 45638 H 4581.14 1.06767 -3.26276 0
M  V30 45639 N 4583.59 1.28615 0.910818 0
M  V30 45640 C 4584.84 1.15711 1.65696 0
M  V30 45641 C 4585.16 -0.294092 1.9277 0
M  V30 45642 O 4584.43 -1.20325 1.54592 0
M  V30 45643 H 4583.01 0.425237 0.614152 0
M  V30 45644 H 4585.67 1.61385 1.09274 0
M  V30 45645 H 4584.77 1.69889 2.61809 0
M  V30 45646 N 4585.07 -1.11967 1.10911 0
M  V30 45647 C 4586.31 -1.83857 0.855838 0
M  V30 45648 C 4586.65 -1.84137 -0.617038 0
M  V30 45649 O 4585.92 -1.29047 -1.45524 0
M  V30 45650 C 4586.2 -3.313 1.41112 0
M  V30 45651 C 4586.06 -3.39446 2.95122 0
M  V30 45652 C 4587.38 -4.27206 1.05751 0
M  V30 45653 H 4584.49 -0.667534 0.312358 0
M  V30 45654 H 4587.14 -1.31326 1.37308 0
M  V30 45655 H 4585.29 -3.76165 0.971182 0
M  V30 45656 H 4586.96 -3.03179 3.47678 0
M  V30 45657 H 4585.2 -2.79838 3.31471 0
M  V30 45658 H 4585.87 -4.43197 3.29059 0
M  V30 45659 H 4588.35 -3.90492 1.4372 0
M  V30 45660 H 4587.22 -5.2877 1.47288 0
M  V30 45661 H 4587.49 -4.42088 -0.0324404 0
M  V30 45662 N 4586.54 -0.898595 -1.29472 0
M  V30 45663 C 4587.48 -0.332806 -2.26771 0
M  V30 45664 C 4588.49 0.520269 -1.54263 0
M  V30 45665 O 4589.68 0.337607 -1.75278 0
M  V30 45666 C 4586.78 0.544217 -3.34502 0
M  V30 45667 C 4585.95 -0.282881 -4.36484 0
M  V30 45668 C 4585.01 0.526797 -5.23556 0
M  V30 45669 O 4584.04 -0.0553166 -5.69173 0
M  V30 45670 N 4585.24 1.83312 -5.50797 0
M  V30 45671 H 4588 -1.16907 -2.75958 0
M  V30 45672 H 4585.56 -0.762969 -1.42795 0
M  V30 45673 H 4587.56 1.09226 -3.89682 0
M  V30 45674 H 4586.13 1.28117 -2.8514 0
M  V30 45675 H 4585.35 -1.01234 -3.80979 0
M  V30 45676 H 4586.63 -0.849356 -5.01661 0
M  V30 45677 H 4586.03 2.3288 -5.15542 0
M  V30 45678 H 4584.59 2.32831 -6.08796 0
M  V30 45679 N 4588.02 1.4307 -0.660961 0
M  V30 45680 C 4588.93 2.34585 0.0263338 0
M  V30 45681 C 4589.95 1.54319 0.803843 0
M  V30 45682 O 4591.12 1.86941 0.749325 0
M  V30 45683 C 4588.19 3.32693 0.975522 0
M  V30 45684 C 4587.25 4.28861 0.194086 0
M  V30 45685 C 4586.48 5.22282 1.09806 0
M  V30 45686 O 4586.71 5.20307 2.33745 0
M  V30 45687 O 4585.64 5.9923 0.566303 0
M  V30 45688 H 4589.47 2.94867 -0.727137 0
M  V30 45689 H 4587.05 1.43341 -0.42116 0
M  V30 45690 H 4588.93 3.93001 1.5208 0
M  V30 45691 H 4587.61 2.74904 1.70908 0
M  V30 45692 H 4586.52 3.72009 -0.394966 0
M  V30 45693 H 4587.85 4.89653 -0.500071 0
M  V30 45694 N 4589.5 0.403378 1.5235 0
M  V30 45695 C 4590.74 -0.173875 2.03659 0
M  V30 45696 C 4591.1 -1.42865 1.28272 0
M  V30 45697 O 4592.31 -2.08397 1.69777 0
M  V30 45698 C 4590.58 -0.421353 3.54908 0
M  V30 45699 S 4592.14 -0.966877 4.28015 0
M  V30 45700 H 4588.95 -0.0477212 0.709397 0
M  V30 45701 H 4591.56 0.554972 1.87457 0
M  V30 45702 H 4590.26 0.498759 4.07358 0
M  V30 45703 H 4589.79 -1.17823 3.75341 0
M  V30 45704 H 4591.81 -2.24797 4.42358 0
M  V30 45705 N 4590.98 -1.57033 0.133622 0
M  V30 45706 C 4592.21 -1.99756 -0.527359 0
M  V30 45707 C 4592.62 -1.0125 -1.59828 0
M  V30 45708 O 4591.96 0.000580916 -1.837 0
M  V30 45709 C 4592.02 -3.38907 -1.19927 0
M  V30 45710 C 4591.69 -4.56175 -0.274549 0
M  V30 45711 C 4592.68 -5.17561 0.49258 0
M  V30 45712 C 4590.37 -5.01973 -0.181354 0
M  V30 45713 C 4592.36 -6.23145 1.34049 0
M  V30 45714 C 4590.05 -6.07414 0.670172 0
M  V30 45715 C 4591.05 -6.67868 1.42971 0
M  V30 45716 O 4590.73 -7.71271 2.26707 0
M  V30 45717 H 4590.47 -0.660707 -0.142976 0
M  V30 45718 H 4593.02 -2.04206 0.221171 0
M  V30 45719 H 4591.25 -3.31255 -1.99517 0
M  V30 45720 H 4592.94 -3.65824 -1.75862 0
M  V30 45721 H 4593.71 -4.83085 0.430537 0
M  V30 45722 H 4589.58 -4.54654 -0.762262 0
M  V30 45723 H 4593.13 -6.70261 1.93381 0
M  V30 45724 H 4589.03 -6.41318 0.733555 0
M  V30 45725 H 4589.79 -7.88433 2.19808 0
M  V30 45726 N 4592.46 0.140167 -1.56975 0
M  V30 45727 C 4593.41 1.1782 -1.95198 0
M  V30 45728 C 4594.39 1.38192 -0.824124 0
M  V30 45729 O 4595.58 1.3964 -1.08765 0
M  V30 45730 C 4592.71 2.51016 -2.34192 0
M  V30 45731 C 4591.8 2.34208 -3.53564 0
M  V30 45732 N 4592.19 1.87168 -4.69895 0
M  V30 45733 C 4590.49 2.64936 -3.58782 0
M  V30 45734 C 4591.19 1.83566 -5.51977 0
M  V30 45735 N 4590.16 2.27133 -4.93874 0
M  V30 45736 H 4593.97 0.806717 -2.82612 0
M  V30 45737 H 4591.48 0.348152 -1.58624 0
M  V30 45738 H 4593.48 3.26065 -2.59783 0
M  V30 45739 H 4592.14 2.8894 -1.48134 0
M  V30 45740 H 4593.15 1.57031 -4.9352 0
M  V30 45741 H 4589.82 3.0669 -2.8328 0
M  V30 45742 H 4591.21 1.48632 -6.55254 0
M  V30 45743 N 4593.93 1.52181 0.409726 0
M  V30 45744 C 4595.18 1.65882 1.15445 0
M  V30 45745 C 4595.5 0.390838 1.91043 0
M  V30 45746 O 4594.77 -0.594257 1.86669 0
M  V30 45747 H 4593.35 0.61142 0.429156 0
M  V30 45748 H 4596.02 1.89221 0.467068 0
M  V30 45749 H 4595.11 2.49961 1.86885 0
M  V30 45750 N 4595.41 -0.666919 1.42793 0
M  V30 45751 C 4596.36 -1.80152 1.47133 0
M  V30 45752 C 4597.35 -1.65823 0.346257 0
M  V30 45753 O 4598.56 -1.72336 0.519632 0
M  V30 45754 H 4594.94 -0.594142 0.460976 0
M  V30 45755 H 4596.91 -1.7361 2.42698 0
M  V30 45756 C 4595.66 -3.18347 1.39824 0
M  V30 45757 H 4594.98 -3.30002 2.25695 0
M  V30 45758 H 4596.42 -3.97731 1.46922 0
M  V30 45759 C 4594.88 -3.36707 0.114028 0
M  V30 45760 O 4595.41 -3.93029 -0.830103 0
M  V30 45761 N 4593.61 -2.90586 0.0286316 0
M  V30 45762 H 4593.16 -2.44937 0.797727 0
M  V30 45763 H 4593.12 -3.03248 -0.829956 0
M  V30 45764 N 4596.89 -1.29096 -0.903985 0
M  V30 45765 C 4598.14 -1.16588 -1.65081 0
M  V30 45766 C 4598.46 0.283865 -1.92923 0
M  V30 45767 O 4597.73 1.19504 -1.55228 0
M  V30 45768 H 4596.31 -0.428488 -0.611888 0
M  V30 45769 H 4598.97 -1.61963 -1.08417 0
M  V30 45770 H 4598.07 -1.71276 -2.60904 0
M  V30 45771 N 4598.37 1.11377 -1.11503 0
M  V30 45772 C 4599.3 2.17204 -0.731781 0
M  V30 45773 C 4600.31 1.61067 0.2369 0
M  V30 45774 O 4601.5 1.78489 0.0196964 0
M  V30 45775 C 4598.6 3.38845 -0.0608815 0
M  V30 45776 C 4597.78 4.24448 -1.05655 0
M  V30 45777 C 4596.84 5.2456 -0.415084 0
M  V30 45778 O 4595.86 5.59068 -1.0692 0
M  V30 45779 N 4597.06 5.74654 0.821741 0
M  V30 45780 H 4599.83 2.50694 -1.64234 0
M  V30 45781 H 4597.39 1.26904 -1.00533 0
M  V30 45782 H 4599.38 4.02912 0.379997 0
M  V30 45783 H 4597.95 3.03413 0.752269 0
M  V30 45784 H 4597.17 3.56827 -1.67536 0
M  V30 45785 H 4598.46 4.7848 -1.73015 0
M  V30 45786 H 4597.86 5.48802 1.37233 0
M  V30 45787 H 4596.41 6.40553 1.20559 0
M  V30 45788 N 4599.85 0.905449 1.28994 0
M  V30 45789 C 4601.07 0.549246 1.99995 0
M  V30 45790 C 4601.5 -0.860217 1.67278 0
M  V30 45791 O 4600.86 -1.57352 0.900557 0
M  V30 45792 C 4600.9 0.755309 3.52601 0
M  V30 45793 O 4600.01 -0.189548 4.11964 0
M  V30 45794 H 4599.35 0.213921 0.628597 0
M  V30 45795 H 4601.88 1.21861 1.6435 0
M  V30 45796 H 4601.89 0.662186 4.0259 0
M  V30 45797 H 4600.56 1.78284 3.75749 0
M  V30 45798 H 4599.14 -0.0483946 3.72869 0
M  V30 45799 N 4601.33 -1.42718 0.668539 0
M  V30 45800 C 4602.56 -2.05667 0.196135 0
M  V30 45801 C 4602.96 -1.50284 -1.14941 0
M  V30 45802 O 4602.31 -0.634861 -1.72381 0
M  V30 45803 C 4602.37 -3.59469 0.0470143 0
M  V30 45804 C 4602.03 -4.37513 1.32027 0
M  V30 45805 C 4603.03 -4.68576 2.25238 0
M  V30 45806 C 4600.71 -4.77261 1.56613 0
M  V30 45807 C 4602.71 -5.38314 3.41316 0
M  V30 45808 C 4600.4 -5.4674 2.72981 0
M  V30 45809 C 4601.39 -5.77191 3.65157 0
M  V30 45810 O 4601.08 -6.45247 4.79491 0
M  V30 45811 H 4600.81 -0.669379 0.0943834 0
M  V30 45812 H 4603.37 -1.83951 0.913853 0
M  V30 45813 H 4601.6 -3.7982 -0.726223 0
M  V30 45814 H 4603.29 -4.04073 -0.38471 0
M  V30 45815 H 4604.05 -4.38374 2.07492 0
M  V30 45816 H 4599.93 -4.52956 0.857408 0
M  V30 45817 H 4603.48 -5.61999 4.13283 0
M  V30 45818 H 4599.37 -5.76359 2.90655 0
M  V30 45819 H 4600.14 -6.63736 4.78954 0
M  V30 45820 N 4602.8 -0.411452 -1.52134 0
M  V30 45821 C 4604.22 -0.0624425 -1.59478 0
M  V30 45822 C 4604.42 1.42549 -1.42415 0
M  V30 45823 O 4603.48 2.19258 -1.25228 0
M  V30 45824 C 4604.79 -0.559435 -2.9545 0
M  V30 45825 C 4606.34 -0.517612 -3.0869 0
M  V30 45826 C 4606.81 -0.991151 -4.47147 0
M  V30 45827 N 4608.3 -0.948067 -4.53394 0
M  V30 45828 C 4609.04 -1.28563 -5.58801 0
M  V30 45829 N 4608.53 -1.69477 -6.71751 0
M  V30 45830 N 4610.33 -1.20545 -5.49022 0
M  V30 45831 H 4602.48 -1.37987 -1.61472 0
M  V30 45832 H 4604.74 -0.567003 -0.759744 0
M  V30 45833 H 4604.45 -1.59949 -3.13224 0
M  V30 45834 H 4604.32 0.0296688 -3.77188 0
M  V30 45835 H 4606.71 0.513403 -2.906 0
M  V30 45836 H 4606.79 -1.1428 -2.28853 0
M  V30 45837 H 4606.43 -2.0205 -4.65981 0
M  V30 45838 H 4606.36 -0.342755 -5.25483 0
M  V30 45839 H 4608.85 -0.647288 -3.72315 0
M  V30 45840 H 4609.17 -1.9354 -7.48173 0
M  V30 45841 H 4607.51 -1.73383 -6.73026 0
M  V30 45842 H 4610.7 -0.884666 -4.59664 0
M  V30 45843 H 4610.88 -1.47183 -6.31063 0
M  V30 45844 N 4604.28 1.56959 -0.141948 0
M  V30 45845 C 4605.53 1.95574 0.509415 0
M  V30 45846 C 4605.85 1.02752 1.65732 0
M  V30 45847 O 4605.12 0.0880999 1.95702 0
M  V30 45848 H 4603.7 0.722121 0.191179 0
M  V30 45849 H 4606.36 1.93696 -0.216264 0
M  V30 45850 H 4605.46 2.99174 0.888895 0
M  V30 45851 N 4605.76 -0.13184 1.57048 0
M  V30 45852 C 4606.99 -0.856395 1.88344 0
M  V30 45853 C 4607.4 -1.7404 0.731818 0
M  V30 45854 O 4606.76 -1.80053 -0.297882 0
M  V30 45855 C 4606.81 -1.70052 3.19005 0
M  V30 45856 O 4606.53 -0.852127 4.29733 0
M  V30 45857 C 4608.03 -2.53135 3.6392 0
M  V30 45858 H 4605.25 -0.246863 0.623939 0
M  V30 45859 H 4607.8 -0.120081 2.04147 0
M  V30 45860 H 4605.95 -2.38973 3.04911 0
M  V30 45861 H 4606.37 -1.43311 5.04542 0
M  V30 45862 H 4607.84 -3.07915 4.5814 0
M  V30 45863 H 4608.32 -3.29891 2.89946 0
M  V30 45864 H 4608.92 -1.89479 3.8076 0
M  V30 45865 N 4607.24 -1.52396 -0.40165 0
M  V30 45866 C 4608.47 -1.70433 -1.16774 0
M  V30 45867 C 4608.88 -0.416766 -1.84553 0
M  V30 45868 O 4608.22 0.617636 -1.73006 0
M  V30 45869 C 4608.28 -2.78927 -2.26804 0
M  V30 45870 C 4607.94 -4.20443 -1.79099 0
M  V30 45871 C 4608.94 -5.04033 -1.27465 0
M  V30 45872 C 4606.63 -4.66711 -1.85705 0
M  V30 45873 C 4608.62 -6.31964 -0.830691 0
M  V30 45874 C 4606.31 -5.9463 -1.40921 0
M  V30 45875 C 4607.31 -6.77086 -0.89689 0
M  V30 45876 O 4606.99 -8.02608 -0.45554 0
M  V30 45877 H 4606.73 -0.574284 -0.356614 0
M  V30 45878 H 4609.28 -1.99769 -0.477653 0
M  V30 45879 H 4607.51 -2.44984 -2.99199 0
M  V30 45880 H 4609.2 -2.8549 -2.88531 0
M  V30 45881 H 4609.96 -4.69476 -1.21727 0
M  V30 45882 H 4605.84 -4.02628 -2.24525 0
M  V30 45883 H 4609.39 -6.96273 -0.430123 0
M  V30 45884 H 4605.28 -6.28693 -1.4634 0
M  V30 45885 H 4606.05 -8.16455 -0.57817 0
M  V30 45886 N 4608.72 0.659337 -1.43145 0
M  V30 45887 C 4609.94 1.45216 -1.48078 0
M  V30 45888 C 4610.37 1.87844 -0.098061 0
M  V30 45889 O 4609.72 1.56988 0.906885 0
M  V30 45890 C 4609.77 2.6674 -2.42657 0
M  V30 45891 O 4608.88 3.65576 -1.9086 0
M  V30 45892 H 4608.22 0.435651 -0.501103 0
M  V30 45893 H 4610.75 0.807366 -1.87997 0
M  V30 45894 H 4610.76 3.14628 -2.59756 0
M  V30 45895 H 4609.43 2.35055 -3.43107 0
M  V30 45896 H 4608.01 3.24687 -1.83392 0
M  V30 45897 N 4610.19 1.29574 0.897126 0
M  V30 45898 C 4611.42 1.20588 1.68125 0
M  V30 45899 C 4611.84 -0.233115 1.87355 0
M  V30 45900 O 4611.19 -1.15574 1.4124 0
M  V30 45901 C 4611.24 1.91783 3.06434 0
M  V30 45902 O 4610.97 3.30063 2.8808 0
M  V30 45903 C 4612.47 1.89305 4.00847 0
M  V30 45904 H 4609.69 0.417844 0.525021 0
M  V30 45905 H 4612.23 1.70991 1.12171 0
M  V30 45906 H 4610.39 1.45209 3.59156 0
M  V30 45907 H 4610.8 3.65955 3.75735 0
M  V30 45908 H 4612.27 2.4368 4.95302 0
M  V30 45909 H 4612.75 0.869165 4.30514 0
M  V30 45910 H 4613.36 2.35634 3.54057 0
M  V30 45911 N 4611.67 -1.10784 1.12092 0
M  V30 45912 C 4612.9 -1.86458 0.896717 0
M  V30 45913 C 4613.31 -1.80494 -0.553849 0
M  V30 45914 O 4612.67 -1.19107 -1.38274 0
M  V30 45915 C 4612.72 -3.35001 1.35855 0
M  V30 45916 O 4612.44 -3.40856 2.75225 0
M  V30 45917 C 4613.94 -4.27561 1.17075 0
M  V30 45918 H 4611.16 -0.589414 0.320675 0
M  V30 45919 H 4613.71 -1.40071 1.48998 0
M  V30 45920 H 4611.86 -3.78867 0.808592 0
M  V30 45921 H 4612.28 -4.33401 2.95405 0
M  V30 45922 H 4613.75 -5.30001 1.54282 0
M  V30 45923 H 4614.23 -4.3906 0.110968 0
M  V30 45924 H 4614.83 -3.89495 1.70803 0
M  V30 45925 N 4613.15 -0.912277 -1.28512 0
M  V30 45926 C 4614.4 -0.545474 -1.95326 0
M  V30 45927 C 4614.73 0.908253 -1.71652 0
M  V30 45928 O 4614 1.64572 -1.03665 0
M  V30 45929 C 4614.29 -0.853606 -3.49837 0
M  V30 45930 C 4614.14 -2.35996 -3.82918 0
M  V30 45931 C 4615.46 -0.348743 -4.38716 0
M  V30 45932 H 4612.58 -0.199651 -0.709442 0
M  V30 45933 H 4615.22 -1.14125 -1.51906 0
M  V30 45934 H 4613.37 -0.346566 -3.86951 0
M  V30 45935 H 4615.04 -2.9375 -3.5568 0
M  V30 45936 H 4613.29 -2.81555 -3.30014 0
M  V30 45937 H 4613.96 -2.5261 -4.90808 0
M  V30 45938 H 4616.43 -0.783084 -4.08665 0
M  V30 45939 H 4615.31 -0.593434 -5.45683 0
M  V30 45940 H 4615.57 0.750896 -4.35676 0
M  V30 45941 N 4614.63 1.42361 -0.676098 0
M  V30 45942 C 4615.86 2.05858 -0.20734 0
M  V30 45943 C 4616.27 1.508 1.136 0
M  V30 45944 O 4615.63 0.648325 1.70596 0
M  V30 45945 C 4615.68 3.61247 -0.135102 0
M  V30 45946 O 4615.4 4.14265 -1.42536 0
M  V30 45947 C 4616.9 4.4186 0.356996 0
M  V30 45948 H 4614.12 0.663427 -0.100526 0
M  V30 45949 H 4616.67 1.82475 -0.9232 0
M  V30 45950 H 4614.82 3.83737 0.531454 0
M  V30 45951 H 4615.23 5.08145 -1.29957 0
M  V30 45952 H 4616.71 5.50848 0.356447 0
M  V30 45953 H 4617.19 4.16541 1.39249 0
M  V30 45954 H 4617.79 4.24391 -0.277869 0
M  V30 45955 N 4616.11 0.419515 1.51914 0
M  V30 45956 C 4617.35 -0.152566 2.01523 0
M  V30 45957 C 4617.68 -1.44757 1.30654 0
M  V30 45958 O 4616.95 -1.90996 0.435602 0
M  V30 45959 H 4615.53 -0.0593704 0.744637 0
M  V30 45960 H 4618.19 0.558138 1.86737 0
M  V30 45961 H 4617.28 -0.34126 3.10229 0
M  V30 45962 N 4617.58 -1.56882 0.15027 0
M  V30 45963 C 4619 -1.58263 -0.206114 0
M  V30 45964 C 4619.2 -1.16469 -1.6443 0
M  V30 45965 O 4618.26 -0.866506 -2.37166 0
M  V30 45966 C 4619.57 -3.00649 0.0556082 0
M  V30 45967 C 4621.12 -3.12999 -0.00784384 0
M  V30 45968 C 4621.59 -4.57439 0.22659 0
M  V30 45969 N 4623.08 -4.62874 0.173631 0
M  V30 45970 C 4623.82 -5.72453 0.329489 0
M  V30 45971 N 4623.31 -6.90667 0.543248 0
M  V30 45972 N 4625.11 -5.61466 0.266863 0
M  V30 45973 H 4617.26 -1.82342 1.08928 0
M  V30 45974 H 4619.52 -0.844133 0.431443 0
M  V30 45975 H 4619.23 -3.35627 1.05108 0
M  V30 45976 H 4619.1 -3.7134 -0.662329 0
M  V30 45977 H 4621.49 -2.7786 -0.993868 0
M  V30 45978 H 4621.57 -2.44788 0.742474 0
M  V30 45979 H 4621.21 -4.93283 1.20973 0
M  V30 45980 H 4621.14 -5.23782 -0.54409 0
M  V30 45981 H 4623.63 -3.77898 0.0132037 0
M  V30 45982 H 4623.95 -7.70043 0.652193 0
M  V30 45983 H 4622.29 -6.92579 0.579609 0
M  V30 45984 H 4625.48 -4.67992 0.100606 0
M  V30 45985 H 4625.66 -6.46815 0.391762 0
M  V30 45986 N 4619.06 0.12351 -1.57115 0
M  V30 45987 C 4620.29 0.846394 -1.88796 0
M  V30 45988 C 4620.71 1.73649 -0.741037 0
M  V30 45989 O 4620.06 1.80208 0.288329 0
M  V30 45990 C 4620.11 1.68358 -3.19903 0
M  V30 45991 O 4619.83 0.829325 -4.30179 0
M  V30 45992 C 4621.34 2.51202 -3.65257 0
M  V30 45993 H 4618.56 0.243551 -0.625239 0
M  V30 45994 H 4621.1 0.109253 -2.04208 0
M  V30 45995 H 4619.25 2.37353 -3.06174 0
M  V30 45996 H 4619.67 1.40633 -5.05294 0
M  V30 45997 H 4621.14 3.05481 -4.59767 0
M  V30 45998 H 4621.62 3.28348 -2.91692 0
M  V30 45999 H 4622.23 1.87457 -3.81759 0
M  V30 46000 N 4620.54 1.52607 0.393562 0
M  V30 46001 C 4621.78 1.69114 1.14804 0
M  V30 46002 C 4622.14 0.419756 1.87355 0
M  V30 46003 O 4623.35 0.461127 2.64815 0
M  V30 46004 C 4621.62 2.88917 2.10385 0
M  V30 46005 S 4623.18 3.25988 2.9373 0
M  V30 46006 H 4619.99 0.59535 0.388689 0
M  V30 46007 H 4622.6 1.90642 0.433111 0
M  V30 46008 H 4621.3 3.79677 1.55799 0
M  V30 46009 H 4620.83 2.69708 2.86393 0
M  V30 46010 H 4622.85 2.7582 4.12478 0
M  V30 46011 N 4622.02 -0.651737 1.43493 0
M  V30 46012 C 4622.95 -1.7772 1.44735 0
M  V30 46013 C 4623.96 -1.59139 0.343287 0
M  V30 46014 O 4625.15 -1.67833 0.60781 0
M  V30 46015 C 4622.25 -3.15168 1.2459 0
M  V30 46016 C 4621.43 -3.60393 2.47862 0
M  V30 46017 C 4620.48 -4.76648 2.22919 0
M  V30 46018 O 4619.51 -4.86011 2.9628 0
M  V30 46019 N 4620.71 -5.66953 1.24676 0
M  V30 46020 H 4623.48 -1.77132 2.41753 0
M  V30 46021 H 4621.04 -0.835629 1.38668 0
M  V30 46022 H 4623.03 -3.9063 1.05783 0
M  V30 46023 H 4621.6 -3.10519 0.360124 0
M  V30 46024 H 4620.82 -2.75359 2.82083 0
M  V30 46025 H 4622.11 -3.87356 3.29898 0
M  V30 46026 H 4621.51 -5.62063 0.640463 0
M  V30 46027 H 4620.06 -6.42131 1.11853 0
M  V30 46028 N 4623.5 -1.30048 -0.890242 0
M  V30 46029 C 4624.46 -1.1597 -1.97696 0
M  V30 46030 C 4625.46 -0.0924341 -1.60534 0
M  V30 46031 O 4626.65 -0.340131 -1.70847 0
M  V30 46032 C 4623.78 -0.775567 -3.3196 0
M  V30 46033 H 4624.97 -2.1251 -2.11612 0
M  V30 46034 H 4622.53 -1.13369 -1.07597 0
M  V30 46035 H 4623.26 0.189557 -3.23746 0
M  V30 46036 H 4623.05 -1.54681 -3.603 0
M  V30 46037 H 4624.54 -0.700395 -4.11685 0
M  V30 46038 N 4624.97 1.10188 -1.12678 0
M  V30 46039 C 4626.22 1.82655 -0.894911 0
M  V30 46040 C 4626.58 1.83668 0.573042 0
M  V30 46041 O 4625.87 1.28821 1.4183 0
M  V30 46042 C 4626.06 3.28547 -1.40682 0
M  V30 46043 C 4625.89 3.41746 -2.92301 0
M  V30 46044 C 4624.66 3.54008 -3.60564 0
M  V30 46045 C 4626.86 3.34935 -3.90285 0
M  V30 46046 N 4624.84 3.5581 -5.00273 0
M  V30 46047 C 4626.21 3.43513 -5.16139 0
M  V30 46048 C 4628.27 3.18551 -3.82661 0
M  V30 46049 C 4626.97 3.37394 -6.35262 0
M  V30 46050 C 4629 3.13755 -5.0131 0
M  V30 46051 C 4628.36 3.22916 -6.26023 0
M  V30 46052 H 4624.46 0.683031 -0.38078 0
M  V30 46053 H 4627.04 1.31747 -1.43356 0
M  V30 46054 H 4625.21 3.77943 -0.895188 0
M  V30 46055 H 4626.94 3.88987 -1.11675 0
M  V30 46056 H 4623.7 3.57124 -3.11062 0
M  V30 46057 H 4624.12 3.60315 -5.73151 0
M  V30 46058 H 4628.77 3.10344 -2.87135 0
M  V30 46059 H 4626.48 3.44366 -7.31053 0
M  V30 46060 H 4630.07 3.02225 -4.97143 0
M  V30 46061 H 4628.95 3.1921 -7.16292 0
M  V30 46062 N 4626.45 0.919079 1.28026 0
M  V30 46063 C 4627.68 0.570427 1.99401 0
M  V30 46064 C 4628.1 -0.842427 1.68181 0
M  V30 46065 O 4627.46 -1.56388 0.917196 0
M  V30 46066 C 4627.51 0.792665 3.5178 0
M  V30 46067 O 4626.61 -0.145843 4.12142 0
M  V30 46068 H 4625.95 0.220577 0.626292 0
M  V30 46069 H 4628.48 1.23598 1.63048 0
M  V30 46070 H 4628.49 0.704849 4.01865 0
M  V30 46071 H 4627.17 1.8226 3.73837 0
M  V30 46072 H 4625.75 -0.00884419 3.72899 0
M  V30 46073 N 4627.93 -1.42001 0.683638 0
M  V30 46074 C 4629.16 -2.06265 0.21672 0
M  V30 46075 C 4629.58 -1.51063 -1.12078 0
M  V30 46076 O 4628.94 -0.632698 -1.69902 0
M  V30 46077 C 4628.99 -3.6019 0.171885 0
M  V30 46078 O 4628.09 -4.03399 -0.856927 0
M  V30 46079 H 4627.43 -0.655016 0.108857 0
M  V30 46080 H 4629.96 -1.81979 0.935141 0
M  V30 46081 H 4629.97 -4.08 -0.00128686 0
M  V30 46082 H 4628.65 -3.99739 1.1481 0
M  V30 46083 H 4627.22 -3.67119 -0.654079 0
M  V30 46084 N 4629.41 -0.427565 -1.51689 0
M  V30 46085 C 4630.34 0.433797 -2.24039 0
M  V30 46086 C 4631.32 1.03282 -1.25585 0
M  V30 46087 O 4632.5 1.07716 -1.54691 0
M  V30 46088 C 4629.63 1.60374 -2.98325 0
M  V30 46089 C 4628.68 1.12634 -4.11359 0
M  V30 46090 S 4629.51 0.0763548 -5.35446 0
M  V30 46091 C 4630.67 1.25119 -6.13267 0
M  V30 46092 H 4630.9 -0.180472 -2.96752 0
M  V30 46093 H 4628.43 -0.212 -1.52938 0
M  V30 46094 H 4630.39 2.2745 -3.41726 0
M  V30 46095 H 4629.05 2.1894 -2.2522 0
M  V30 46096 H 4628.24 2.00094 -4.62578 0
M  V30 46097 H 4627.85 0.533958 -3.70169 0
M  V30 46098 H 4630.14 2.1714 -6.4176 0
M  V30 46099 H 4631.08 0.779164 -7.038 0
M  V30 46100 H 4631.49 1.48534 -5.44608 0
M  V30 46101 N 4630.89 1.568 -0.158588 0
M  V30 46102 C 4632.12 2.00861 0.496232 0
M  V30 46103 C 4632.53 1.03876 1.57655 0
M  V30 46104 O 4631.89 0.0375806 1.82461 0
M  V30 46105 C 4631.94 3.44794 1.08626 0
M  V30 46106 O 4631.66 4.38073 0.0490782 0
M  V30 46107 C 4633.16 4.04191 1.82056 0
M  V30 46108 H 4630.38 0.658644 0.128175 0
M  V30 46109 H 4632.92 2.02884 -0.256577 0
M  V30 46110 H 4631.08 3.43586 1.78963 0
M  V30 46111 H 4631.49 5.22272 0.482919 0
M  V30 46112 H 4632.97 5.06864 2.18615 0
M  V30 46113 H 4633.44 3.45559 2.71082 0
M  V30 46114 H 4634.05 4.09064 1.1639 0
M  V30 46115 N 4632.37 -0.115176 1.57179 0
M  V30 46116 C 4633.78 -0.671908 1.7419 0
M  V30 46117 C 4634.13 -1.80122 0.777841 0
M  V30 46118 O 4633.25 -2.16346 -0.0483616 0
M  V30 46119 C 4633.85 -1.22562 3.15855 0
M  V30 46120 C 4632.41 -1.7286 3.3436 0
M  V30 46121 C 4631.55 -0.629877 2.70052 0
M  V30 46122 H 4634.5 0.110767 1.58313 0
M  V30 46123 H 4634.53 -2.09524 3.17616 0
M  V30 46124 H 4634.04 -0.403462 3.85997 0
M  V30 46125 H 4632.14 -2.57541 2.69265 0
M  V30 46126 H 4632.25 -1.83542 4.42549 0
M  V30 46127 H 4630.62 -1.06442 2.31392 0
M  V30 46128 H 4631.4 0.181362 3.42821 0
M  V30 46129 N 4633.84 -1.52813 -0.385464 0
M  V30 46130 C 4634.79 -1.74224 -1.47072 0
M  V30 46131 C 4635.78 -0.596372 -1.4944 0
M  V30 46132 O 4636.97 -0.854334 -1.55017 0
M  V30 46133 C 4634.1 -1.9177 -2.84744 0
M  V30 46134 C 4633.18 -3.12299 -2.86932 0
M  V30 46135 N 4633.58 -4.34584 -2.58786 0
M  V30 46136 C 4631.87 -3.12617 -3.18099 0
M  V30 46137 C 4632.57 -5.16209 -2.68147 0
M  V30 46138 N 4631.55 -4.51974 -3.02027 0
M  V30 46139 H 4635.35 -2.66394 -1.24143 0
M  V30 46140 H 4632.87 -1.51168 -0.593451 0
M  V30 46141 H 4634.86 -2.05231 -3.62885 0
M  V30 46142 H 4633.52 -1.00815 -3.08652 0
M  V30 46143 H 4634.53 -4.62657 -2.32743 0
M  V30 46144 H 4631.21 -2.31484 -3.4745 0
M  V30 46145 H 4632.6 -6.23698 -2.49902 0
M  V30 46146 N 4635.32 0.644118 -1.43836 0
M  V30 46147 C 4636.55 1.43637 -1.4961 0
M  V30 46148 C 4636.97 1.8773 -0.117979 0
M  V30 46149 O 4636.33 1.57941 0.890183 0
M  V30 46150 C 4636.38 2.64151 -2.45472 0
M  V30 46151 O 4635.48 3.63531 -1.94727 0
M  V30 46152 H 4634.82 0.430312 -0.505696 0
M  V30 46153 H 4637.35 0.787381 -1.88842 0
M  V30 46154 H 4637.36 3.11855 -2.63079 0
M  V30 46155 H 4636.04 2.31402 -3.4558 0
M  V30 46156 H 4634.61 3.22724 -1.86826 0
M  V30 46157 N 4636.8 1.30518 0.883332 0
M  V30 46158 C 4637.75 1.13648 1.97656 0
M  V30 46159 C 4638.73 0.0511879 1.60819 0
M  V30 46160 O 4639.93 0.274685 1.74856 0
M  V30 46161 C 4637.05 0.832093 3.33063 0
M  V30 46162 C 4636.14 1.95772 3.7621 0
M  V30 46163 N 4636.53 3.20327 3.91439 0
M  V30 46164 C 4634.83 1.85445 4.05618 0
M  V30 46165 C 4635.53 3.93871 4.28066 0
M  V30 46166 N 4634.51 3.21934 4.38018 0
M  V30 46167 H 4638.31 2.08114 2.07523 0
M  V30 46168 H 4635.82 1.21881 1.07325 0
M  V30 46169 H 4637.82 0.692247 4.11113 0
M  V30 46170 H 4636.48 -0.104474 3.24532 0
M  V30 46171 H 4637.49 3.55596 3.76526 0
M  V30 46172 H 4634.17 0.991674 4.05552 0
M  V30 46173 H 4635.56 5.01141 4.47557 0
M  V30 46174 N 4638.28 -1.09589 1.13261 0
M  V30 46175 C 4639.5 -1.86037 0.916798 0
M  V30 46176 C 4639.93 -1.80506 -0.529082 0
M  V30 46177 O 4639.29 -1.18132 -1.3753 0
M  V30 46178 C 4639.33 -3.32012 1.40715 0
M  V30 46179 O 4638.44 -4.08139 0.591296 0
M  V30 46180 H 4637.78 -0.576932 0.328703 0
M  V30 46181 H 4640.31 -1.384 1.50687 0
M  V30 46182 H 4640.32 -3.8286 1.41004 0
M  V30 46183 H 4638.99 -3.35353 2.45991 0
M  V30 46184 H 4637.57 -3.67082 0.656134 0
M  V30 46185 N 4639.76 -0.925856 -1.27537 0
M  V30 46186 C 4641.17 -0.625818 -1.46819 0
M  V30 46187 C 4641.37 0.825441 -1.83817 0
M  V30 46188 O 4640.43 1.60349 -1.9505 0
M  V30 46189 C 4641.74 -1.57411 -2.56208 0
M  V30 46190 C 4643.29 -1.58213 -2.70069 0
M  V30 46191 C 4643.76 -2.51734 -3.82614 0
M  V30 46192 N 4645.25 -2.49931 -3.89986 0
M  V30 46193 C 4645.99 -3.18985 -4.76483 0
M  V30 46194 N 4645.49 -3.97411 -5.67482 0
M  V30 46195 N 4647.28 -3.08012 -4.70197 0
M  V30 46196 H 4639.43 -1.86412 -1.01805 0
M  V30 46197 H 4641.69 -0.800231 -0.508266 0
M  V30 46198 H 4641.4 -2.60934 -2.3581 0
M  V30 46199 H 4641.27 -1.3144 -3.53558 0
M  V30 46200 H 4643.66 -0.554226 -2.89849 0
M  V30 46201 H 4643.74 -1.88232 -1.73212 0
M  V30 46202 H 4643.38 -3.54634 -3.63589 0
M  V30 46203 H 4643.31 -2.19013 -4.78896 0
M  V30 46204 H 4645.81 -1.92972 -3.24916 0
M  V30 46205 H 4646.12 -4.47092 -6.3034 0
M  V30 46206 H 4644.46 -4.01515 -5.67284 0
M  V30 46207 H 4647.65 -2.46237 -3.98102 0
M  V30 46208 H 4647.83 -3.62099 -5.3739 0
M  V30 46209 N 4641.23 1.41636 -0.691159 0
M  V30 46210 C 4642.46 2.05627 -0.229163 0
M  V30 46211 C 4642.88 1.51996 1.11994 0
M  V30 46212 O 4642.23 0.666382 1.69899 0
M  V30 46213 C 4642.28 3.61084 -0.17341 0
M  V30 46214 O 4642.01 4.1273 -1.46921 0
M  V30 46215 C 4643.51 4.42214 0.31011 0
M  V30 46216 H 4640.73 0.662324 -0.107557 0
M  V30 46217 H 4643.27 1.81486 -0.942502 0
M  V30 46218 H 4641.43 3.84279 0.490723 0
M  V30 46219 H 4641.84 5.06738 -1.35339 0
M  V30 46220 H 4643.31 5.51195 0.298002 0
M  V30 46221 H 4643.79 4.17994 1.34823 0
M  V30 46222 H 4644.4 4.24073 -0.322865 0
M  V30 46223 N 4642.71 0.435603 1.5146 0
M  V30 46224 C 4644.12 -0.0279215 1.86679 0
M  V30 46225 C 4644.47 -1.42099 1.35286 0
M  V30 46226 O 4643.6 -2.04665 0.70295 0
M  V30 46227 C 4644.19 -0.0574435 3.38751 0
M  V30 46228 C 4642.75 -0.465376 3.73512 0
M  V30 46229 C 4641.9 0.343093 2.75169 0
M  V30 46230 H 4644.85 0.651524 1.4471 0
M  V30 46231 H 4644.87 -0.867291 3.70484 0
M  V30 46232 H 4644.38 0.95658 3.76127 0
M  V30 46233 H 4642.49 -1.48507 3.41726 0
M  V30 46234 H 4642.6 -0.191377 4.78718 0
M  V30 46235 H 4640.96 -0.198352 2.53926 0
M  V30 46236 H 4641.75 1.35596 3.15386 0
M  V30 46237 N 4644.19 -1.56714 0.166901 0
M  V30 46238 C 4645.1 -2.21334 -0.777713 0
M  V30 46239 C 4646.12 -1.20363 -1.25653 0
M  V30 46240 O 4647.29 -1.53009 -1.30958 0
M  V30 46241 C 4644.36 -2.83794 -1.99153 0
M  V30 46242 C 4643.42 -3.99953 -1.56001 0
M  V30 46243 C 4642.65 -4.59425 -2.71597 0
M  V30 46244 O 4642.87 -4.17783 -3.88347 0
M  V30 46245 O 4641.81 -5.49367 -2.45925 0
M  V30 46246 H 4645.63 -3.02606 -0.25753 0
M  V30 46247 H 4643.22 -1.49275 -0.0610868 0
M  V30 46248 H 4645.1 -3.23415 -2.70149 0
M  V30 46249 H 4643.78 -2.05522 -2.50085 0
M  V30 46250 H 4642.68 -3.6501 -0.819681 0
M  V30 46251 H 4644.02 -4.79805 -1.09765 0
M  V30 46252 N 4645.67 0.106839 -1.57237 0
M  V30 46253 C 4646.9 0.825124 -1.89408 0
M  V30 46254 C 4647.31 1.73372 -0.757557 0
M  V30 46255 O 4646.65 1.81553 0.280051 0
M  V30 46256 C 4646.71 1.70091 -3.16716 0
M  V30 46257 C 4646.38 0.965366 -4.46687 0
M  V30 46258 C 4647.37 0.300559 -5.1903 0
M  V30 46259 C 4645.06 0.942931 -4.9337 0
M  V30 46260 C 4647.05 -0.376846 -6.36285 0
M  V30 46261 C 4644.74 0.261734 -6.10539 0
M  V30 46262 C 4645.74 -0.396987 -6.81845 0
M  V30 46263 O 4645.42 -1.06729 -7.96784 0
M  V30 46264 H 4645.16 0.24183 -0.631264 0
M  V30 46265 H 4647.71 0.092077 -2.05194 0
M  V30 46266 H 4645.94 2.4759 -2.97045 0
M  V30 46267 H 4647.63 2.29471 -3.3481 0
M  V30 46268 H 4648.4 0.309429 -4.84012 0
M  V30 46269 H 4644.27 1.44509 -4.37765 0
M  V30 46270 H 4647.82 -0.891577 -6.91879 0
M  V30 46271 H 4643.72 0.25067 -6.45013 0
M  V30 46272 H 4644.48 -0.972992 -8.12696 0
M  V30 46273 N 4647.15 1.53016 0.377354 0
M  V30 46274 C 4648.38 1.72269 1.14048 0
M  V30 46275 C 4648.78 0.446074 1.83866 0
M  V30 46276 O 4648.13 -0.590034 1.73966 0
M  V30 46277 C 4648.19 2.825 2.22338 0
M  V30 46278 C 4647.85 4.2324 1.72387 0
M  V30 46279 C 4648.85 5.05997 1.1943 0
M  V30 46280 C 4646.54 4.69606 1.78257 0
M  V30 46281 C 4648.53 6.33205 0.730046 0
M  V30 46282 C 4646.22 5.96796 1.31443 0
M  V30 46283 C 4647.21 6.78427 0.789058 0
M  V30 46284 O 4646.9 8.03231 0.327794 0
M  V30 46285 H 4646.63 0.579885 0.347432 0
M  V30 46286 H 4649.19 2.00504 0.445812 0
M  V30 46287 H 4647.42 2.49713 2.95263 0
M  V30 46288 H 4649.11 2.90044 2.83953 0
M  V30 46289 H 4649.87 4.71353 1.14243 0
M  V30 46290 H 4645.75 4.06149 2.18091 0
M  V30 46291 H 4649.3 6.96869 0.319297 0
M  V30 46292 H 4645.19 6.30942 1.3632 0
M  V30 46293 H 4645.96 8.17272 0.448206 0
M  V30 46294 N 4648.62 -0.636481 1.44176 0
M  V30 46295 C 4650.04 -1.21801 1.41497 0
M  V30 46296 C 4650.39 -1.95785 0.127569 0
M  V30 46297 O 4649.51 -2.02149 -0.772305 0
M  V30 46298 C 4650.11 -2.21542 2.56329 0
M  V30 46299 C 4648.67 -2.75134 2.56862 0
M  V30 46300 C 4647.81 -1.50044 2.332 0
M  V30 46301 H 4650.76 -0.427478 1.52834 0
M  V30 46302 H 4650.78 -3.04042 2.28776 0
M  V30 46303 H 4650.3 -1.67667 3.50014 0
M  V30 46304 H 4648.4 -3.33027 1.67104 0
M  V30 46305 H 4648.51 -3.21538 3.55176 0
M  V30 46306 H 4646.87 -1.77987 1.82189 0
M  V30 46307 H 4647.66 -0.980787 3.28992 0
M  V30 46308 N 4650.1 -1.30985 -0.876398 0
M  V30 46309 C 4651.05 -1.18013 -2.00439 0
M  V30 46310 C 4652.04 -0.0899466 -1.69161 0
M  V30 46311 O 4653.25 -0.251395 -1.78236 0
M  V30 46312 H 4649.63 -0.365219 -0.657358 0
M  V30 46313 H 4651.6 -2.1346 -2.08512 0
M  V30 46314 C 4650.35 -0.897639 -3.35913 0
M  V30 46315 H 4649.67 -1.72862 -3.60498 0
M  V30 46316 H 4651.11 -0.84702 -4.15453 0
M  V30 46317 C 4649.57 0.399557 -3.34522 0
M  V30 46318 O 4650.1 1.41839 -3.75825 0
M  V30 46319 N 4648.3 0.413792 -2.87639 0
M  V30 46320 H 4647.85 -0.4158 -2.54222 0
M  V30 46321 H 4647.81 1.28165 -2.87091 0
M  V30 46322 N 4651.58 1.08987 -1.13841 0
M  V30 46323 C 4652.54 2.13922 -0.82279 0
M  V30 46324 C 4653.54 1.59901 0.169844 0
M  V30 46325 O 4654.73 1.74104 -0.0577863 0
M  V30 46326 C 4651.87 3.40154 -0.225438 0
M  V30 46327 H 4653.06 2.43352 -1.75271 0
M  V30 46328 H 4650.61 1.246 -0.943638 0
M  V30 46329 H 4651.35 3.16354 0.713482 0
M  V30 46330 H 4651.13 3.80658 -0.940327 0
M  V30 46331 H 4652.62 4.17594 -0.0216252 0
M  V30 46332 N 4653.06 0.932607 1.27044 0
M  V30 46333 C 4654.31 0.57449 1.93763 0
M  V30 46334 C 4654.63 -0.887932 1.73611 0
M  V30 46335 O 4653.9 -1.62996 1.0867 0
M  V30 46336 H 4652.48 0.209476 0.717028 0
M  V30 46337 H 4655.14 1.18607 1.54656 0
M  V30 46338 H 4654.24 0.784947 3.02068 0
M  V30 46339 N 4654.54 -1.41267 0.698661 0
M  V30 46340 C 4655.47 -2.33447 0.049711 0
M  V30 46341 C 4656.45 -1.51985 -0.763845 0
M  V30 46342 O 4657.63 -1.80511 -0.716194 0
M  V30 46343 C 4654.76 -3.35831 -0.885149 0
M  V30 46344 C 4653.72 -4.27628 -0.178462 0
M  V30 46345 C 4653.04 -5.2041 -1.22789 0
M  V30 46346 C 4654.34 -5.13456 0.957113 0
M  V30 46347 H 4656.04 -2.87963 0.819611 0
M  V30 46348 H 4653.58 -1.3846 0.395587 0
M  V30 46349 H 4655.54 -3.99245 -1.3484 0
M  V30 46350 H 4654.26 -2.79672 -1.68675 0
M  V30 46351 H 4652.92 -3.65642 0.264789 0
M  V30 46352 H 4652.57 -4.60565 -2.0221 0
M  V30 46353 H 4652.27 -5.82664 -0.760034 0
M  V30 46354 H 4653.79 -5.86701 -1.69159 0
M  V30 46355 H 4655.2 -5.70419 0.574006 0
M  V30 46356 H 4653.6 -5.84666 1.35226 0
M  V30 46357 H 4654.67 -4.50437 1.7954 0
M  V30 46358 N 4656.01 -0.44363 -1.51227 0
M  V30 46359 C 4657.26 0.122261 -2.01329 0
M  V30 46360 C 4657.58 1.43232 -1.33206 0
M  V30 46361 O 4658.78 2.08153 -1.74311 0
M  V30 46362 C 4657.24 0.268425 -3.58898 0
M  V30 46363 C 4656.85 -1.03158 -4.35962 0
M  V30 46364 C 4658.59 0.787747 -4.17127 0
M  V30 46365 C 4656.5 -0.850709 -5.85249 0
M  V30 46366 H 4655.43 0.0494665 -0.752376 0
M  V30 46367 H 4658.08 -0.57435 -1.7428 0
M  V30 46368 H 4656.46 1.02819 -3.82419 0
M  V30 46369 H 4657.63 -1.80016 -4.24183 0
M  V30 46370 H 4655.95 -1.47991 -3.89214 0
M  V30 46371 H 4658.55 0.939656 -5.26379 0
M  V30 46372 H 4658.89 1.77188 -3.7671 0
M  V30 46373 H 4659.42 0.0861271 -3.97707 0
M  V30 46374 H 4656.16 -1.8074 -6.3009 0
M  V30 46375 H 4655.68 -0.122036 -5.99676 0
M  V30 46376 H 4657.36 -0.50639 -6.45015 0
M  V30 46377 N 4657.49 1.56623 -0.175209 0
M  V30 46378 C 4658.43 2.14003 0.792337 0
M  V30 46379 C 4659.4 1.07118 1.22329 0
M  V30 46380 O 4660.59 1.35117 1.31437 0
M  V30 46381 C 4657.72 2.68276 2.06751 0
M  V30 46382 C 4656.76 3.87568 1.78027 0
M  V30 46383 S 4657.59 5.27077 0.946036 0
M  V30 46384 C 4658.75 5.84758 2.23178 0
M  V30 46385 H 4658.98 2.95737 0.304484 0
M  V30 46386 H 4656.52 1.54349 0.0395162 0
M  V30 46387 H 4658.47 3.00191 2.79992 0
M  V30 46388 H 4657.14 1.8662 2.52649 0
M  V30 46389 H 4656.33 4.23883 2.72652 0
M  V30 46390 H 4655.93 3.56559 1.12879 0
M  V30 46391 H 4658.22 5.97909 3.18608 0
M  V30 46392 H 4659.17 6.81763 1.91326 0
M  V30 46393 H 4659.57 5.13206 2.35116 0
M  V30 46394 N 4658.97 -0.0984986 1.57292 0
M  V30 46395 C 4659.92 -1.13862 2.02825 0
M  V30 46396 C 4660.91 -1.41673 0.928716 0
M  V30 46397 O 4662.12 -1.41394 1.1139 0
M  V30 46398 H 4658.49 -0.384396 0.646331 0
M  V30 46399 H 4660.47 -0.728245 2.89377 0
M  V30 46400 C 4659.21 -2.45157 2.46563 0
M  V30 46401 H 4658.54 -2.24601 3.30748 0
M  V30 46402 H 4659.98 -3.16446 2.82201 0
M  V30 46403 C 4658.44 -3.09212 1.33753 0
M  V30 46404 O 4658.97 -3.96161 0.66478 0
M  V30 46405 N 4657.17 -2.69409 1.08937 0
M  V30 46406 H 4656.72 -1.98795 1.63824 0
M  V30 46407 H 4656.68 -3.12593 0.336568 0
M  V30 46408 N 4660.45 -1.53214 -0.369234 0
M  V30 46409 C 4661.68 -1.72872 -1.13132 0
M  V30 46410 C 4662.09 -0.455819 -1.83627 0
M  V30 46411 O 4661.43 0.5808 -1.74277 0
M  V30 46412 C 4661.49 -2.83675 -2.20837 0
M  V30 46413 C 4661.16 -4.24148 -1.7014 0
M  V30 46414 C 4662.15 -5.06623 -1.16745 0
M  V30 46415 C 4659.84 -4.70545 -1.75764 0
M  V30 46416 C 4661.83 -6.33584 -0.696455 0
M  V30 46417 C 4659.52 -5.97485 -1.28276 0
M  V30 46418 C 4660.52 -6.78836 -0.753068 0
M  V30 46419 O 4660.21 -8.03394 -0.285193 0
M  V30 46420 H 4659.94 -0.58172 -0.344352 0
M  V30 46421 H 4662.49 -2.00737 -0.435172 0
M  V30 46422 H 4660.72 -2.51275 -2.93935 0
M  V30 46423 H 4662.41 -2.91546 -2.82411 0
M  V30 46424 H 4663.18 -4.71952 -1.11742 0
M  V30 46425 H 4659.06 -4.073 -2.15934 0
M  V30 46426 H 4662.6 -6.97028 -0.282336 0
M  V30 46427 H 4658.5 -6.31656 -1.32972 0
M  V30 46428 H 4659.26 -8.17498 -0.404858 0
M  V30 46429 N 4661.93 0.628826 -1.44511 0
M  V30 46430 C 4663.17 1.39988 -1.48939 0
M  V30 46431 C 4663.53 1.91627 -0.119671 0
M  V30 46432 O 4664.73 2.68772 -0.0386228 0
M  V30 46433 C 4663 2.53232 -2.52207 0
M  V30 46434 S 4664.56 3.41373 -2.75699 0
M  V30 46435 H 4661.38 0.47754 -0.526761 0
M  V30 46436 H 4663.98 0.72774 -1.8145 0
M  V30 46437 H 4662.69 2.1361 -3.50427 0
M  V30 46438 H 4662.22 3.2527 -2.21275 0
M  V30 46439 H 4664.23 4.50745 -2.07469 0
M  V30 46440 N 4663.41 1.31448 0.869439 0
M  V30 46441 C 4664.82 1.10117 1.15527 0
M  V30 46442 C 4665.02 -0.128017 2.01093 0
M  V30 46443 O 4664.08 -0.817192 2.3891 0
M  V30 46444 C 4665.39 2.37298 1.8469 0
M  V30 46445 C 4666.94 2.42913 1.97389 0
M  V30 46446 C 4667.41 3.69976 2.69966 0
M  V30 46447 N 4668.9 3.70874 2.77501 0
M  V30 46448 C 4669.64 4.65887 3.34271 0
M  V30 46449 N 4669.14 5.71256 3.91968 0
M  V30 46450 N 4670.93 4.53406 3.32234 0
M  V30 46451 H 4663.08 2.10281 0.299273 0
M  V30 46452 H 4665.34 0.92769 0.195182 0
M  V30 46453 H 4665.05 3.27083 1.29267 0
M  V30 46454 H 4664.92 2.47135 2.84963 0
M  V30 46455 H 4667.31 1.53597 2.51976 0
M  V30 46456 H 4667.39 2.37039 0.96156 0
M  V30 46457 H 4667.03 4.59659 2.16046 0
M  V30 46458 H 4666.96 3.73117 3.71607 0
M  V30 46459 H 4669.46 2.94705 2.36553 0
M  V30 46460 H 4669.77 6.39832 4.33399 0
M  V30 46461 H 4668.11 5.75029 3.90342 0
M  V30 46462 H 4671.3 3.70262 2.86397 0
M  V30 46463 H 4671.48 5.2763 3.76179 0
M  V30 46464 N 4664.88 -1.08381 1.14417 0
M  V30 46465 C 4665.83 -2.17403 0.826964 0
M  V30 46466 C 4666.83 -1.68271 -0.195253 0
M  V30 46467 O 4668.03 -1.79927 -0.0513259 0
M  V30 46468 H 4664.41 -0.709331 0.249706 0
M  V30 46469 H 4666.38 -2.41382 1.75435 0
M  V30 46470 C 4665.13 -3.46214 0.321101 0
M  V30 46471 H 4664.45 -3.84397 1.09904 0
M  V30 46472 H 4665.89 -4.23776 0.137698 0
M  V30 46473 C 4664.35 -3.2307 -0.955358 0
M  V30 46474 O 4664.88 -3.46687 -2.02906 0
M  V30 46475 N 4663.08 -2.76613 -0.890701 0
M  V30 46476 H 4662.63 -2.57595 -0.0167909 0
M  V30 46477 H 4662.59 -2.61507 -1.74533 0
M  V30 46478 N 4666.36 -0.939331 -1.26548 0
M  V30 46479 C 4667.77 -0.628844 -1.75791 0
M  V30 46480 C 4668.12 0.855984 -1.76543 0
M  V30 46481 O 4667.25 1.66989 -1.37636 0
M  V30 46482 C 4667.84 -1.13477 -3.19231 0
M  V30 46483 C 4666.4 -0.87473 -3.66095 0
M  V30 46484 C 4665.55 -1.28675 -2.45638 0
M  V30 46485 H 4668.5 -1.11784 -1.1265 0
M  V30 46486 H 4668.52 -0.487742 -3.77361 0
M  V30 46487 H 4668.03 -2.21546 -3.18652 0
M  V30 46488 H 4666.13 0.191663 -3.72107 0
M  V30 46489 H 4666.25 -1.50044 -4.54999 0
M  V30 46490 H 4664.61 -0.705195 -2.44743 0
M  V30 46491 H 4665.39 -2.37634 -2.4776 0
M  V30 46492 N 4667.84 1.40895 -0.706143 0
M  V30 46493 C 4669.12 1.94867 -0.169167 0
M  V30 46494 C 4669.5 1.64489 1.32312 0
M  V30 46495 O 4668.84 0.957513 2.0747 0
M  V30 46496 C 4669.05 3.45797 -0.471776 0
M  V30 46497 C 4670.4 4.22661 -0.405276 0
M  V30 46498 O 4671.43 3.53864 -0.407292 0
M  V30 46499 O 4670.29 5.45215 -0.374574 0
M  V30 46500 H 4667.38 0.826729 -0.0211643 0
M  V30 46501 H 4669.93 1.50555 -0.783029 0
M  V30 46502 H 4668.7 3.6123 -1.50429 0
M  V30 46503 H 4668.32 3.97226 0.172526 0
M  V30 46504 N 4669.32 0.451643 1.5099 0
M  V30 46505 C 4670.28 -0.341037 2.26649 0
M  V30 46506 C 4671.28 -0.937376 1.30652 0
M  V30 46507 O 4672.47 -0.80959 1.54244 0
M  V30 46508 C 4669.6 -1.48387 3.06911 0
M  V30 46509 H 4670.8 0.322221 2.98164 0
M  V30 46510 H 4668.35 0.205176 1.54947 0
M  V30 46511 H 4669.08 -2.18276 2.39846 0
M  V30 46512 H 4668.87 -1.06228 3.77436 0
M  V30 46513 H 4670.36 -2.04354 3.64183 0
M  V30 46514 N 4670.8 -1.56528 0.183513 0
M  V30 46515 C 4672.04 -1.97538 -0.458967 0
M  V30 46516 C 4672.37 -1.06995 -1.62067 0
M  V30 46517 O 4671.65 -0.119549 -1.94132 0
M  V30 46518 C 4671.93 -3.47877 -0.930246 0
M  V30 46519 C 4671.79 -4.49199 0.232475 0
M  V30 46520 C 4673.1 -4.01618 -1.79975 0
M  V30 46521 H 4670.22 -0.71821 -0.165358 0
M  V30 46522 H 4672.87 -1.88041 0.272105 0
M  V30 46523 H 4671.02 -3.56101 -1.5532 0
M  V30 46524 H 4672.69 -4.53024 0.869879 0
M  V30 46525 H 4670.93 -4.24654 0.886077 0
M  V30 46526 H 4671.6 -5.51823 -0.139602 0
M  V30 46527 H 4674.08 -3.96102 -1.27447 0
M  V30 46528 H 4672.95 -5.07203 -2.09849 0
M  V30 46529 H 4673.21 -3.46172 -2.74986 0
M  V30 46530 N 4672.27 0.0901557 -1.57342 0
M  V30 46531 C 4673.24 1.09328 -2.01445 0
M  V30 46532 C 4674.24 1.32663 -0.908688 0
M  V30 46533 O 4675.43 1.28693 -1.17404 0
M  V30 46534 C 4672.56 2.44127 -2.37938 0
M  V30 46535 H 4673.75 0.713559 -2.91287 0
M  V30 46536 H 4671.31 0.33535 -1.5266 0
M  V30 46537 H 4672.04 2.86967 -1.51065 0
M  V30 46538 H 4671.83 2.28537 -3.18611 0
M  V30 46539 H 4673.32 3.16267 -2.72699 0
M  V30 46540 N 4673.75 1.53407 0.361103 0
M  V30 46541 C 4674.72 1.79484 1.42542 0
M  V30 46542 C 4675.72 0.665378 1.46388 0
M  V30 46543 O 4676.91 0.933601 1.4707 0
M  V30 46544 C 4674.04 1.92097 2.81623 0
M  V30 46545 H 4675.23 2.74542 1.20692 0
M  V30 46546 H 4672.78 1.44553 0.594495 0
M  V30 46547 H 4673.52 0.991208 3.08781 0
M  V30 46548 H 4673.3 2.74251 2.8023 0
M  V30 46549 H 4674.79 2.13849 3.5869 0
M  V30 46550 N 4675.23 -0.621153 1.44843 0
M  V30 46551 C 4676.64 -1.20293 1.42781 0
M  V30 46552 C 4676.99 -1.95639 0.148328 0
M  V30 46553 O 4676.12 -2.02957 -0.750821 0
M  V30 46554 C 4676.71 -2.18811 2.58664 0
M  V30 46555 C 4675.27 -2.72394 2.59766 0
M  V30 46556 C 4674.42 -1.47562 2.34778 0
M  V30 46557 H 4677.37 -0.411243 1.53279 0
M  V30 46558 H 4677.39 -3.01599 2.31988 0
M  V30 46559 H 4676.9 -1.63945 3.51772 0
M  V30 46560 H 4675 -3.31236 1.70627 0
M  V30 46561 H 4675.12 -3.17753 3.58567 0
M  V30 46562 H 4673.48 -1.76044 1.84067 0
M  V30 46563 H 4674.26 -0.945838 3.30013 0
M  V30 46564 N 4676.71 -1.31907 -0.862456 0
M  V30 46565 C 4677.94 -1.24822 -1.6463 0
M  V30 46566 C 4678.35 0.187513 -1.88269 0
M  V30 46567 O 4677.69 1.13248 -1.44639 0
M  V30 46568 C 4677.75 -1.93007 -3.03296 0
M  V30 46569 C 4677.42 -3.42347 -3.02734 0
M  V30 46570 C 4678.41 -4.37966 -2.80146 0
M  V30 46571 C 4676.1 -3.84158 -3.23617 0
M  V30 46572 C 4678.09 -5.73371 -2.78433 0
M  V30 46573 C 4675.78 -5.19674 -3.21531 0
M  V30 46574 C 4676.78 -6.14091 -2.98967 0
M  V30 46575 O 4676.46 -7.47128 -2.9674 0
M  V30 46576 H 4676.2 -0.43224 -0.519754 0
M  V30 46577 H 4678.75 -1.74454 -1.0842 0
M  V30 46578 H 4676.98 -1.37934 -3.61263 0
M  V30 46579 H 4678.67 -1.79736 -3.63937 0
M  V30 46580 H 4679.44 -4.0699 -2.63787 0
M  V30 46581 H 4675.31 -3.11095 -3.40207 0
M  V30 46582 H 4678.86 -6.4704 -2.6074 0
M  V30 46583 H 4674.76 -5.50282 -3.37432 0
M  V30 46584 H 4675.52 -7.56393 -3.12749 0
M  V30 46585 N 4678.19 1.07773 -1.1499 0
M  V30 46586 C 4679.43 1.81885 -0.932591 0
M  V30 46587 C 4679.79 1.84511 0.531 0
M  V30 46588 O 4680.99 2.54451 0.866487 0
M  V30 46589 C 4679.26 3.23239 -1.52485 0
M  V30 46590 S 4680.82 4.14149 -1.45003 0
M  V30 46591 H 4677.64 0.62674 -0.335734 0
M  V30 46592 H 4680.24 1.29498 -1.4646 0
M  V30 46593 H 4678.95 3.18913 -2.58307 0
M  V30 46594 H 4678.48 3.807 -0.991515 0
M  V30 46595 H 4680.49 4.94246 -0.439973 0
M  V30 46596 N 4679.66 0.946029 1.26048 0
M  V30 46597 C 4680.89 0.612205 1.97321 0
M  V30 46598 C 4681.3 -0.818111 1.70598 0
M  V30 46599 O 4680.65 -1.55774 0.973668 0
M  V30 46600 C 4680.71 0.78047 3.50926 0
M  V30 46601 C 4680.37 2.18633 4.01309 0
M  V30 46602 C 4681.37 3.16224 4.12672 0
M  V30 46603 C 4679.05 2.5082 4.35195 0
M  V30 46604 C 4681.05 4.44101 4.57223 0
M  V30 46605 C 4678.73 3.78929 4.79433 0
M  V30 46606 C 4679.73 4.75383 4.90408 0
M  V30 46607 O 4679.42 6.01209 5.33669 0
M  V30 46608 H 4679.15 0.229156 0.635974 0
M  V30 46609 H 4681.71 1.27041 1.61399 0
M  V30 46610 H 4679.94 0.0651224 3.86645 0
M  V30 46611 H 4681.63 0.448984 4.03409 0
M  V30 46612 H 4682.39 2.92681 3.86733 0
M  V30 46613 H 4678.27 1.76478 4.25883 0
M  V30 46614 H 4681.81 5.19389 4.65704 0
M  V30 46615 H 4677.71 4.02282 5.04816 0
M  V30 46616 H 4678.48 6.04461 5.51877 0
M  V30 46617 N 4681.14 -1.40518 0.713605 0
M  V30 46618 C 4682.37 -2.05236 0.261847 0
M  V30 46619 C 4682.79 -1.53759 -1.09561 0
M  V30 46620 O 4682.14 -0.693327 -1.68817 0
M  V30 46621 C 4682.19 -3.60762 0.230833 0
M  V30 46622 O 4681.91 -4.1034 1.53469 0
M  V30 46623 C 4683.42 -4.42651 -0.239719 0
M  V30 46624 H 4680.64 -0.660529 0.11808 0
M  V30 46625 H 4683.18 -1.79964 0.971256 0
M  V30 46626 H 4681.33 -3.85011 -0.429526 0
M  V30 46627 H 4681.75 -5.04521 1.43384 0
M  V30 46628 H 4683.22 -5.51599 -0.210274 0
M  V30 46629 H 4683.7 -4.20086 -1.28156 0
M  V30 46630 H 4684.31 -4.23505 0.390291 0
M  V30 46631 N 4682.62 -0.459644 -1.50748 0
M  V30 46632 C 4684.04 -0.113148 -1.59198 0
M  V30 46633 C 4684.24 1.37946 -1.46878 0
M  V30 46634 O 4683.29 2.15163 -1.3214 0
M  V30 46635 C 4684.61 -0.653147 -2.93521 0
M  V30 46636 C 4686.15 -0.615557 -3.06887 0
M  V30 46637 C 4686.63 -1.13291 -4.43767 0
M  V30 46638 N 4688.12 -1.09183 -4.50148 0
M  V30 46639 C 4688.85 -1.46276 -5.54428 0
M  V30 46640 N 4688.35 -1.90763 -6.66019 0
M  V30 46641 N 4690.14 -1.37951 -5.44909 0
M  V30 46642 H 4682.29 -1.43055 -1.57 0
M  V30 46643 H 4684.56 -0.590887 -0.741321 0
M  V30 46644 H 4684.26 -1.69833 -3.07977 0
M  V30 46645 H 4684.14 -0.0903458 -3.77092 0
M  V30 46646 H 4686.52 0.420691 -2.92086 0
M  V30 46647 H 4686.61 -1.21503 -2.25102 0
M  V30 46648 H 4686.25 -2.16773 -4.59317 0
M  V30 46649 H 4686.18 -0.50976 -5.24127 0
M  V30 46650 H 4688.67 -0.76541 -3.70067 0
M  V30 46651 H 4688.98 -2.17244 -7.41637 0
M  V30 46652 H 4687.33 -1.94707 -6.67169 0
M  V30 46653 H 4690.52 -1.03046 -4.56617 0
M  V30 46654 H 4690.69 -1.67186 -6.26061 0
M  V30 46655 N 4684.1 1.56428 -0.191812 0
M  V30 46656 C 4685.38 1.89226 0.495265 0
M  V30 46657 C 4685.76 1.10484 1.79879 0
M  V30 46658 O 4685.1 0.204932 2.27579 0
M  V30 46659 C 4685.31 3.4155 0.717247 0
M  V30 46660 C 4686.66 4.11715 1.03809 0
M  V30 46661 O 4687.69 3.46983 0.805082 0
M  V30 46662 O 4686.54 5.26115 1.47869 0
M  V30 46663 H 4683.64 0.785797 0.257782 0
M  V30 46664 H 4686.18 1.6811 -0.23178 0
M  V30 46665 H 4684.96 3.90771 -0.203425 0
M  V30 46666 H 4684.58 3.68347 1.49687 0
M  V30 46667 N 4685.58 -0.0818102 1.57388 0
M  V30 46668 C 4686.99 -0.634809 1.75576 0
M  V30 46669 C 4687.34 -1.78432 0.815872 0
M  V30 46670 O 4686.46 -2.164 -0.00246053 0
M  V30 46671 C 4687.06 -1.15834 3.18383 0
M  V30 46672 C 4685.62 -1.65729 3.37951 0
M  V30 46673 C 4684.76 -0.572453 2.71327 0
M  V30 46674 H 4687.72 0.144323 1.58042 0
M  V30 46675 H 4687.74 -2.02739 3.21989 0
M  V30 46676 H 4687.25 -0.321496 3.86766 0
M  V30 46677 H 4685.35 -2.51771 2.74667 0
M  V30 46678 H 4685.46 -1.74113 4.46342 0
M  V30 46679 H 4683.83 -1.0151 2.33597 0
M  V30 46680 H 4684.61 0.254038 3.42359 0
M  V30 46681 N 4687.06 -1.53597 -0.352963 0
M  V30 46682 C 4688.3 -1.70052 -1.09209 0
M  V30 46683 C 4688.62 -0.461473 -1.89461 0
M  V30 46684 O 4687.89 0.524567 -1.88746 0
M  V30 46685 H 4686.47 -0.626927 -0.406167 0
M  V30 46686 H 4689.14 -1.90824 -0.396518 0
M  V30 46687 H 4688.23 -2.56725 -1.77479 0
M  V30 46688 N 4688.53 0.613463 -1.4517 0
M  V30 46689 C 4689.78 1.37466 -1.491 0
M  V30 46690 C 4690.11 1.93765 -0.129969 0
M  V30 46691 O 4689.39 1.7471 0.854797 0
M  V30 46692 C 4689.67 2.52692 -2.56551 0
M  V30 46693 C 4689.52 2.01628 -4.02077 0
M  V30 46694 C 4690.84 3.5484 -2.6034 0
M  V30 46695 H 4687.96 0.498483 -0.542847 0
M  V30 46696 H 4690.6 0.692063 -1.76948 0
M  V30 46697 H 4688.75 3.10922 -2.32937 0
M  V30 46698 H 4690.43 1.48093 -4.36882 0
M  V30 46699 H 4688.67 1.32673 -4.13014 0
M  V30 46700 H 4689.34 2.84665 -4.72938 0
M  V30 46701 H 4691.82 3.06441 -2.81484 0
M  V30 46702 H 4690.69 4.32961 -3.37396 0
M  V30 46703 H 4690.95 4.10073 -1.65205 0
M  V30 46704 N 4690.01 1.32363 0.855449 0
M  V30 46705 C 4691.43 1.11336 1.14353 0
M  V30 46706 C 4691.63 -0.106681 2.01217 0
M  V30 46707 O 4690.68 -0.791807 2.39764 0
M  V30 46708 C 4692 2.39243 1.82162 0
M  V30 46709 C 4693.54 2.44993 1.94801 0
M  V30 46710 C 4694.02 3.72819 2.66026 0
M  V30 46711 N 4695.51 3.73796 2.73552 0
M  V30 46712 C 4696.25 4.69406 3.29311 0
M  V30 46713 N 4695.74 5.75381 3.85887 0
M  V30 46714 N 4697.53 4.56904 3.27407 0
M  V30 46715 H 4689.69 2.10587 0.276953 0
M  V30 46716 H 4691.95 0.929708 0.185331 0
M  V30 46717 H 4691.65 3.28435 1.2579 0
M  V30 46718 H 4691.53 2.50144 2.82326 0
M  V30 46719 H 4693.92 1.56261 2.50333 0
M  V30 46720 H 4694 2.38046 0.936364 0
M  V30 46721 H 4693.64 4.61925 2.11158 0
M  V30 46722 H 4693.57 3.77037 3.67628 0
M  V30 46723 H 4696.06 2.97198 2.33414 0
M  V30 46724 H 4696.37 6.44393 4.26588 0
M  V30 46725 H 4694.72 5.79136 3.84221 0
M  V30 46726 H 4697.91 3.73279 2.82454 0
M  V30 46727 H 4698.08 5.3159 3.70562 0
M  V30 46728 N 4691.49 -1.07162 1.1556 0
M  V30 46729 C 4692.74 -1.80218 0.943024 0
M  V30 46730 C 4693.09 -1.85123 -0.524144 0
M  V30 46731 O 4692.38 -1.32536 -1.38365 0
M  V30 46732 C 4692.58 -3.24702 1.49343 0
M  V30 46733 C 4692.41 -3.33876 3.01259 0
M  V30 46734 C 4691.18 -3.44324 3.69823 0
M  V30 46735 C 4693.37 -3.2447 3.99028 0
M  V30 46736 N 4691.36 -3.42421 5.0953 0
M  V30 46737 C 4692.73 -3.29707 5.25065 0
M  V30 46738 C 4694.78 -3.08294 3.90972 0
M  V30 46739 C 4693.49 -3.20432 6.43984 0
M  V30 46740 C 4695.51 -3.00353 5.09453 0
M  V30 46741 C 4694.87 -3.06205 6.34364 0
M  V30 46742 H 4690.97 -0.672695 0.398755 0
M  V30 46743 H 4693.56 -1.279 1.46798 0
M  V30 46744 H 4691.73 -3.75437 0.995078 0
M  V30 46745 H 4693.46 -3.85889 1.21949 0
M  V30 46746 H 4690.21 -3.48751 3.20421 0
M  V30 46747 H 4690.64 -3.44992 5.82503 0
M  V30 46748 H 4695.28 -3.02622 2.95262 0
M  V30 46749 H 4693 -3.24862 7.39926 0
M  V30 46750 H 4696.58 -2.88937 5.04982 0
M  V30 46751 H 4695.46 -3.00107 7.24504 0
M  V30 46752 N 4692.97 -0.9527 -1.25544 0
M  V30 46753 C 4693.88 -0.477901 -2.29681 0
M  V30 46754 C 4694.89 0.4538 -1.67978 0
M  V30 46755 O 4696.07 0.330517 -1.98669 0
M  V30 46756 C 4693.13 0.238533 -3.45878 0
M  V30 46757 C 4692.2 -0.731142 -4.23028 0
M  V30 46758 C 4691.43 -0.0488041 -5.33678 0
M  V30 46759 O 4691.65 1.16592 -5.58357 0
M  V30 46760 O 4690.59 -0.733362 -5.97416 0
M  V30 46761 H 4694.41 -1.34322 -2.72381 0
M  V30 46762 H 4692 -0.719072 -1.30957 0
M  V30 46763 H 4693.88 0.641627 -4.16487 0
M  V30 46764 H 4692.55 1.07906 -3.05185 0
M  V30 46765 H 4691.46 -1.18441 -3.54856 0
M  V30 46766 H 4692.79 -1.53963 -4.675 0
M  V30 46767 N 4694.45 1.40138 -0.721047 0
M  V30 46768 C 4695.68 2.04797 -0.272332 0
M  V30 46769 C 4696.08 1.54446 1.09284 0
M  V30 46770 O 4695.43 0.698401 1.69906 0
M  V30 46771 C 4695.49 3.59047 -0.180397 0
M  V30 46772 C 4695.15 4.32312 -1.48175 0
M  V30 46773 C 4696.15 4.59894 -2.42474 0
M  V30 46774 C 4693.83 4.71119 -1.74218 0
M  V30 46775 C 4695.83 5.25276 -3.6106 0
M  V30 46776 C 4693.52 5.36232 -2.93085 0
M  V30 46777 C 4694.51 5.63241 -3.86328 0
M  V30 46778 O 4694.2 6.27007 -5.03108 0
M  V30 46779 H 4693.93 0.665414 -0.119162 0
M  V30 46780 H 4696.49 1.80432 -0.981496 0
M  V30 46781 H 4694.72 3.82253 0.584755 0
M  V30 46782 H 4696.41 4.05222 0.234476 0
M  V30 46783 H 4697.17 4.30371 -2.23619 0
M  V30 46784 H 4693.05 4.49462 -1.02493 0
M  V30 46785 H 4696.6 5.46273 -4.33856 0
M  V30 46786 H 4692.49 5.65174 -3.11846 0
M  V30 46787 H 4693.26 6.45503 -5.03258 0
M  V30 46788 N 4695.92 0.467632 1.50502 0
M  V30 46789 C 4697.16 -0.0873396 2.04213 0
M  V30 46790 C 4697.53 -1.37296 1.34216 0
M  V30 46791 O 4698.73 -2.01009 1.78463 0
M  V30 46792 C 4697 -0.270446 3.56375 0
M  V30 46793 S 4698.56 -0.784471 4.31731 0
M  V30 46794 H 4695.38 -0.0175903 0.710782 0
M  V30 46795 H 4697.98 0.63398 1.84935 0
M  V30 46796 H 4696.68 0.671085 4.04876 0
M  V30 46797 H 4696.21 -1.01798 3.80001 0
M  V30 46798 H 4698.23 -2.05833 4.51495 0
M  V30 46799 N 4697.4 -1.56324 0.200105 0
M  V30 46800 C 4698.35 -2.20668 -0.735404 0
M  V30 46801 C 4699.34 -1.17939 -1.21601 0
M  V30 46802 O 4700.55 -1.36072 -1.17832 0
M  V30 46803 H 4696.92 -0.707259 -0.255517 0
M  V30 46804 H 4698.9 -2.97921 -0.169062 0
M  V30 46805 C 4697.64 -2.88397 -1.94222 0
M  V30 46806 H 4696.97 -3.67191 -1.58148 0
M  V30 46807 H 4698.41 -3.36849 -2.57505 0
M  V30 46808 C 4696.87 -1.89702 -2.78415 0
M  V30 46809 O 4697.4 -1.40045 -3.76497 0
M  V30 46810 N 4695.6 -1.57821 -2.4401 0
M  V30 46811 H 4695.15 -1.98396 -1.64307 0
M  V30 46812 H 4695.11 -0.920431 -3.00625 0
M  V30 46813 N 4698.88 0.0734624 -1.57429 0
M  V30 46814 C 4699.81 1.08783 -2.06612 0
M  V30 46815 C 4700.79 1.4047 -0.959286 0
M  V30 46816 O 4701.98 1.50126 -1.23191 0
M  V30 46817 C 4699.11 2.40175 -2.50865 0
M  V30 46818 C 4698.06 2.22845 -3.6541 0
M  V30 46819 C 4697.39 3.59605 -3.95712 0
M  V30 46820 C 4698.69 1.65106 -4.95517 0
M  V30 46821 H 4700.38 0.678571 -2.91609 0
M  V30 46822 H 4697.93 0.324964 -1.40285 0
M  V30 46823 H 4699.88 3.11427 -2.83885 0
M  V30 46824 H 4698.6 2.83078 -1.62895 0
M  V30 46825 H 4697.26 1.54033 -3.3267 0
M  V30 46826 H 4696.91 4.00075 -3.04876 0
M  V30 46827 H 4696.61 3.48849 -4.7284 0
M  V30 46828 H 4698.13 4.32291 -4.31227 0
M  V30 46829 H 4699.55 2.26223 -5.26779 0
M  V30 46830 H 4697.94 1.65051 -5.76956 0
M  V30 46831 H 4699.01 0.61239 -4.81017 0
M  V30 46832 N 4700.36 1.53782 0.344812 0
M  V30 46833 C 4701.59 1.74903 1.10528 0
M  V30 46834 C 4702 0.487598 1.82395 0
M  V30 46835 O 4701.36 -0.54068 1.74307 0
M  V30 46836 C 4701.41 2.9283 2.11974 0
M  V30 46837 O 4701.13 4.14094 1.4303 0
M  V30 46838 C 4702.63 3.25993 3.00406 0
M  V30 46839 H 4699.85 0.584437 0.329658 0
M  V30 46840 H 4702.39 2.00601 0.397404 0
M  V30 46841 H 4700.55 2.69466 2.78328 0
M  V30 46842 H 4700.96 4.8028 2.10788 0
M  V30 46843 H 4702.44 4.11861 3.67525 0
M  V30 46844 H 4702.91 2.42241 3.66355 0
M  V30 46845 H 4703.52 3.51357 2.39642 0
M  V30 46846 N 4701.84 -0.605756 1.45494 0
M  V30 46847 C 4702.77 -1.73025 1.50316 0
M  V30 46848 C 4703.78 -1.57967 0.393743 0
M  V30 46849 O 4704.97 -1.65814 0.660898 0
M  V30 46850 C 4702.07 -3.11044 1.34554 0
M  V30 46851 C 4701.24 -3.52325 2.59202 0
M  V30 46852 C 4700.3 -4.69315 2.3797 0
M  V30 46853 O 4699.33 -4.76339 3.11592 0
M  V30 46854 N 4700.53 -5.627 1.4265 0
M  V30 46855 H 4703.3 -1.69351 2.47265 0
M  V30 46856 H 4700.86 -0.79109 1.41256 0
M  V30 46857 H 4702.85 -3.87067 1.18158 0
M  V30 46858 H 4701.42 -3.09216 0.458731 0
M  V30 46859 H 4700.64 -2.66246 2.90701 0
M  V30 46860 H 4701.93 -3.76665 3.42054 0
M  V30 46861 H 4701.32 -5.59741 0.818955 0
M  V30 46862 H 4699.88 -6.38247 1.32225 0
M  V30 46863 N 4703.31 -1.32814 -0.848417 0
M  V30 46864 C 4704.55 -1.25052 -1.61683 0
M  V30 46865 C 4704.92 0.183396 -1.91122 0
M  V30 46866 O 4706.12 0.384844 -2.66031 0
M  V30 46867 C 4704.39 -2.09211 -2.89768 0
M  V30 46868 S 4705.95 -2.18539 -3.80508 0
M  V30 46869 H 4702.77 -0.445043 -0.554489 0
M  V30 46870 H 4705.37 -1.67736 -1.00423 0
M  V30 46871 H 4704.07 -3.12443 -2.66097 0
M  V30 46872 H 4703.6 -1.67328 -3.56041 0
M  V30 46873 H 4705.62 -1.33946 -4.77779 0
M  V30 46874 N 4704.79 1.06547 -1.16127 0
M  V30 46875 C 4706.02 1.8354 -0.9658 0
M  V30 46876 C 4706.44 1.81845 0.481039 0
M  V30 46877 O 4705.8 1.21737 1.34349 0
M  V30 46878 C 4705.85 3.28164 -1.49468 0
M  V30 46879 O 4704.95 4.06428 -0.699299 0
M  V30 46880 H 4704.29 0.568014 -0.343884 0
M  V30 46881 H 4706.82 1.34356 -1.54303 0
M  V30 46882 H 4706.83 3.78987 -1.51105 0
M  V30 46883 H 4705.51 3.28713 -2.54795 0
M  V30 46884 H 4704.09 3.65213 -0.753229 0
M  V30 46885 N 4706.27 0.959345 1.25037 0
M  V30 46886 C 4707.55 0.533871 1.88173 0
M  V30 46887 C 4707.93 -0.988929 1.86503 0
M  V30 46888 O 4707.28 -1.85673 1.33184 0
M  V30 46889 C 4707.49 1.11587 3.3068 0
M  V30 46890 C 4708.83 1.19562 4.07419 0
M  V30 46891 O 4709.86 1.06777 3.39819 0
M  V30 46892 O 4708.72 1.39675 5.2835 0
M  V30 46893 H 4705.81 0.1768 0.80788 0
M  V30 46894 H 4708.36 1.05308 1.33073 0
M  V30 46895 H 4707.13 2.15895 3.26351 0
M  V30 46896 H 4706.75 0.580198 3.93344 0
M  V30 46897 N 4707.75 -1.39754 0.728469 0
M  V30 46898 C 4708.71 -2.29012 0.0928102 0
M  V30 46899 C 4709.71 -1.45994 -0.673974 0
M  V30 46900 O 4710.9 -1.66751 -0.503961 0
M  V30 46901 C 4708.03 -3.29399 -0.878021 0
M  V30 46902 H 4709.23 -2.86726 0.879112 0
M  V30 46903 H 4706.78 -1.48291 0.493899 0
M  V30 46904 H 4707.51 -2.76728 -1.69091 0
M  V30 46905 H 4707.3 -3.90701 -0.330914 0
M  V30 46906 H 4708.79 -3.96204 -1.31956 0
M  V30 46907 N 4709.23 -0.475607 -1.50252 0
M  V30 46908 C 4710.14 0.321419 -2.32388 0
M  V30 46909 C 4711.15 0.991705 -1.42973 0
M  V30 46910 O 4712.33 0.978685 -1.76022 0
M  V30 46911 C 4709.39 1.38655 -3.17767 0
M  V30 46912 C 4708.45 0.73239 -4.23007 0
M  V30 46913 C 4707.69 1.74677 -5.04305 0
M  V30 46914 O 4707.91 2.97382 -4.86745 0
M  V30 46915 O 4706.84 1.31611 -5.87335 0
M  V30 46916 H 4710.67 -0.350177 -3.01674 0
M  V30 46917 H 4708.26 -0.237373 -1.47502 0
M  V30 46918 H 4710.14 2.00341 -3.70731 0
M  V30 46919 H 4708.81 2.04154 -2.51203 0
M  V30 46920 H 4707.72 0.0764587 -3.74022 0
M  V30 46921 H 4709.05 0.120279 -4.92053 0
M  V30 46922 N 4710.7 1.56216 -0.208392 0
M  V30 46923 C 4711.95 1.97559 0.426007 0
M  V30 46924 C 4712.27 1.09689 1.61225 0
M  V30 46925 O 4711.54 0.171024 1.95152 0
M  V30 46926 H 4710.12 0.72958 0.16038 0
M  V30 46927 H 4712.79 1.92605 -0.298223 0
M  V30 46928 H 4711.88 3.02675 0.761205 0
M  V30 46929 N 4712.18 -0.0651125 1.57465 0
M  V30 46930 C 4713.41 -0.775741 1.91807 0
M  V30 46931 C 4713.83 -1.70779 0.804976 0
M  V30 46932 O 4713.18 -1.81154 -0.221248 0
M  V30 46933 C 4713.23 -1.56369 3.25931 0
M  V30 46934 O 4712.95 -0.669096 4.3296 0
M  V30 46935 C 4714.46 -2.37472 3.74329 0
M  V30 46936 H 4711.68 -0.220177 0.633848 0
M  V30 46937 H 4714.22 -0.0333869 2.04473 0
M  V30 46938 H 4712.37 -2.25826 3.14772 0
M  V30 46939 H 4712.79 -1.21783 5.10166 0
M  V30 46940 H 4714.26 -2.88206 4.70788 0
M  V30 46941 H 4714.74 -3.17296 3.03677 0
M  V30 46942 H 4715.35 -1.73159 3.88453 0
M  V30 46943 N 4713.66 -1.53962 -0.336652 0
M  V30 46944 C 4714.62 -1.81729 -1.39668 0
M  V30 46945 C 4715.62 -0.688583 -1.45311 0
M  V30 46946 O 4716.81 -0.95688 -1.45566 0
M  V30 46947 C 4713.95 -1.96553 -2.78531 0
M  V30 46948 H 4715.14 -2.76428 -1.16309 0
M  V30 46949 H 4712.69 -1.4548 -0.571423 0
M  V30 46950 H 4713.43 -1.04021 -3.07165 0
M  V30 46951 H 4713.21 -2.78675 -2.75831 0
M  V30 46952 H 4714.7 -2.19528 -3.55242 0
M  V30 46953 N 4715.14 0.598031 -1.45813 0
M  V30 46954 C 4716.38 1.35877 -1.5055 0
M  V30 46955 C 4716.72 1.93616 -0.150513 0
M  V30 46956 O 4715.99 1.75606 0.836218 0
M  V30 46957 C 4716.28 2.49957 -2.59217 0
M  V30 46958 C 4716.13 1.97353 -4.04193 0
M  V30 46959 C 4717.45 3.52059 -2.64089 0
M  V30 46960 H 4714.57 0.492698 -0.548104 0
M  V30 46961 H 4717.21 0.673257 -1.77672 0
M  V30 46962 H 4715.36 3.08434 -2.36221 0
M  V30 46963 H 4717.03 1.43451 -4.38429 0
M  V30 46964 H 4715.27 1.28285 -4.14398 0
M  V30 46965 H 4715.94 2.79632 -4.7593 0
M  V30 46966 H 4718.42 3.03438 -2.84719 0
M  V30 46967 H 4717.3 4.29358 -3.41969 0
M  V30 46968 H 4717.56 4.08298 -1.69545 0
M  V30 46969 N 4716.62 1.33262 0.841362 0
M  V30 46970 C 4717.58 1.23228 1.93255 0
M  V30 46971 C 4718.58 0.151952 1.6008 0
M  V30 46972 O 4719.77 0.403306 1.69467 0
M  V30 46973 C 4716.9 0.898238 3.28853 0
M  V30 46974 H 4718.1 2.20217 2.03579 0
M  V30 46975 H 4715.65 1.17285 1.03315 0
M  V30 46976 H 4716.38 -0.0692701 3.24226 0
M  V30 46977 H 4716.17 1.67946 3.54311 0
M  V30 46978 H 4717.66 0.852707 4.08802 0
M  V30 46979 N 4718.1 -1.0593 1.1669 0
M  V30 46980 C 4719.51 -1.60259 0.957801 0
M  V30 46981 C 4719.86 -1.89791 -0.497383 0
M  V30 46982 O 4718.98 -1.67405 -1.37129 0
M  V30 46983 C 4719.58 -2.91166 1.73228 0
M  V30 46984 C 4718.14 -3.42183 1.56806 0
M  V30 46985 C 4717.28 -2.16022 1.73867 0
M  V30 46986 H 4720.23 -0.888346 1.31507 0
M  V30 46987 H 4720.26 -3.60739 1.21026 0
M  V30 46988 H 4719.77 -2.69641 2.79134 0
M  V30 46989 H 4717.87 -3.6876 0.533566 0
M  V30 46990 H 4717.98 -4.17265 2.35429 0
M  V30 46991 H 4716.35 -2.26422 1.16641 0
M  V30 46992 H 4717.13 -1.96975 2.81168 0
M  V30 46993 N 4719.57 -0.965962 -1.24527 0
M  V30 46994 C 4720.98 -0.66599 -1.74417 0
M  V30 46995 C 4721.34 0.818344 -1.78319 0
M  V30 46996 O 4720.46 1.64032 -1.41147 0
M  V30 46997 C 4721.06 -1.20222 -3.16752 0
M  V30 46998 C 4719.61 -0.952187 -3.64157 0
M  V30 46999 C 4718.76 -1.33857 -2.42853 0
M  V30 47000 H 4721.71 -1.14148 -1.10254 0
M  V30 47001 H 4721.73 -0.567676 -3.76242 0
M  V30 47002 H 4721.25 -2.28255 -3.13881 0
M  V30 47003 H 4719.35 0.11269 -3.7243 0
M  V30 47004 H 4719.46 -1.59661 -4.51714 0
M  V30 47005 H 4717.82 -0.75695 -2.43192 0
M  V30 47006 H 4718.61 -2.42835 -2.42664 0
M  V30 47007 N 4721.05 1.39365 -0.73587 0
M  V30 47008 C 4722.28 2.04794 -0.294465 0
M  V30 47009 C 4722.69 1.55482 1.07101 0
M  V30 47010 O 4722.05 0.720097 1.67693 0
M  V30 47011 C 4722.1 3.60349 -0.288198 0
M  V30 47012 O 4721.82 4.07846 -1.59978 0
M  V30 47013 C 4723.32 4.42977 0.169266 0
M  V30 47014 H 4720.54 0.658566 -0.128574 0
M  V30 47015 H 4723.09 1.78396 -0.999763 0
M  V30 47016 H 4721.24 3.85646 0.368219 0
M  V30 47017 H 4721.66 5.02176 -1.51392 0
M  V30 47018 H 4723.13 5.51864 0.122493 0
M  V30 47019 H 4723.61 4.22072 1.21457 0
M  V30 47020 H 4724.21 4.22831 -0.457618 0
M  V30 47021 N 4722.53 0.483569 1.49998 0
M  V30 47022 C 4723.78 -0.0671879 2.02689 0
M  V30 47023 C 4724.11 -1.38242 1.36392 0
M  V30 47024 O 4723.38 -1.88129 0.493741 0
M  V30 47025 C 4723.67 -0.237983 3.59313 0
M  V30 47026 C 4723.52 1.09915 4.36164 0
M  V30 47027 C 4724.84 -0.986765 4.28895 0
M  V30 47028 H 4721.96 -0.0229437 0.736643 0
M  V30 47029 H 4724.6 0.63159 1.79195 0
M  V30 47030 H 4722.75 -0.833167 3.79461 0
M  V30 47031 H 4724.42 1.73187 4.27556 0
M  V30 47032 H 4722.66 1.69275 3.9941 0
M  V30 47033 H 4723.34 0.933146 5.44056 0
M  V30 47034 H 4725.81 -0.482157 4.13297 0
M  V30 47035 H 4724.69 -1.07509 5.38269 0
M  V30 47036 H 4724.95 -2.02636 3.92926 0
M  V30 47037 N 4724.01 -1.56103 0.216674 0
M  V30 47038 C 4725.24 -2.02564 -0.421342 0
M  V30 47039 C 4725.65 -1.09656 -1.53691 0
M  V30 47040 O 4725.01 -0.105274 -1.82196 0
M  V30 47041 C 4725.06 -3.48588 -0.957543 0
M  V30 47042 O 4724.78 -4.37953 0.113543 0
M  V30 47043 C 4726.28 -4.1067 -1.66929 0
M  V30 47044 H 4723.5 -0.662947 -0.103642 0
M  V30 47045 H 4726.04 -2.01792 0.3317 0
M  V30 47046 H 4724.2 -3.49991 -1.66088 0
M  V30 47047 H 4724.61 -5.23705 -0.288748 0
M  V30 47048 H 4726.09 -5.14629 -1.99653 0
M  V30 47049 H 4726.56 -3.55382 -2.5807 0
M  V30 47050 H 4727.17 -4.13102 -1.01128 0
M  V30 47051 N 4725.49 0.0567608 -1.57498 0
M  V30 47052 C 4726.9 0.606796 -1.76564 0
M  V30 47053 C 4727.25 1.77111 -0.844156 0
M  V30 47054 O 4726.37 2.16376 -0.0319671 0
M  V30 47055 C 4726.97 1.10754 -3.20186 0
M  V30 47056 C 4725.53 1.60332 -3.40545 0
M  V30 47057 C 4724.67 0.529215 -2.72203 0
M  V30 47058 H 4727.62 -0.169448 -1.57793 0
M  V30 47059 H 4727.65 1.97591 -3.25174 0
M  V30 47060 H 4727.16 0.259924 -3.87229 0
M  V30 47061 H 4725.26 2.4737 -2.78638 0
M  V30 47062 H 4725.37 1.6699 -4.49056 0
M  V30 47063 H 4723.74 0.97781 -2.35183 0
M  V30 47064 H 4724.52 -0.308473 -3.41911 0
M  V30 47065 N 4726.96 1.54139 0.328482 0
M  V30 47066 C 4728.21 1.72363 1.06858 0
M  V30 47067 C 4728.54 0.493297 1.8783 0
M  V30 47068 O 4727.82 -0.509734 1.87702 0
M  V30 47069 C 4728.1 2.99628 1.99737 0
M  V30 47070 C 4727.95 4.32903 1.22128 0
M  V30 47071 C 4729.27 3.22625 2.99334 0
M  V30 47072 H 4726.39 0.627165 0.387083 0
M  V30 47073 H 4729.03 1.86829 0.345701 0
M  V30 47074 H 4727.18 2.87427 2.61377 0
M  V30 47075 H 4728.86 4.5698 0.629856 0
M  V30 47076 H 4727.1 4.3063 0.523477 0
M  V30 47077 H 4727.77 5.1816 1.90299 0
M  V30 47078 H 4730.25 3.34256 2.47814 0
M  V30 47079 H 4729.12 4.1304 3.6151 0
M  V30 47080 H 4729.38 2.39623 3.71528 0
M  V30 47081 N 4728.44 -0.59029 1.46128 0
M  V30 47082 C 4729.85 -1.17237 1.45301 0
M  V30 47083 C 4730.2 -1.9528 0.189792 0
M  V30 47084 O 4729.33 -2.04504 -0.707602 0
M  V30 47085 C 4729.92 -2.13275 2.63247 0
M  V30 47086 C 4728.48 -2.66823 2.65485 0
M  V30 47087 C 4727.63 -1.42549 2.37855 0
M  V30 47088 H 4730.58 -0.378638 1.54117 0
M  V30 47089 H 4730.6 -2.9661 2.38333 0
M  V30 47090 H 4730.11 -1.56446 3.55171 0
M  V30 47091 H 4728.21 -3.27542 1.77615 0
M  V30 47092 H 4728.33 -3.10075 3.65226 0
M  V30 47093 H 4726.69 -1.721 1.87759 0
M  V30 47094 H 4727.47 -0.875625 3.31945 0
M  V30 47095 N 4729.92 -1.33707 -0.834283 0
M  V30 47096 C 4731.14 -1.2862 -1.62701 0
M  V30 47097 C 4731.57 0.139176 -1.87584 0
M  V30 47098 O 4730.93 1.09729 -1.44324 0
M  V30 47099 C 4730.98 -2.0715 -2.95163 0
M  V30 47100 O 4730.08 -1.43324 -3.86694 0
M  V30 47101 H 4729.42 -0.442278 -0.495264 0
M  V30 47102 H 4731.95 -1.76338 -1.03759 0
M  V30 47103 H 4731.96 -2.18085 -3.44823 0
M  V30 47104 H 4730.64 -3.10789 -2.76375 0
M  V30 47105 H 4729.21 -1.41062 -3.4519 0
M  V30 47106 N 4731.4 1.0531 -1.1725 0
M  V30 47107 C 4732.33 2.14977 -0.911438 0
M  V30 47108 C 4733.31 1.69471 0.146109 0
M  V30 47109 O 4734.49 1.942 -0.00388027 0
M  V30 47110 C 4731.62 3.44719 -0.422649 0
M  V30 47111 C 4730.58 4.03784 -1.41924 0
M  V30 47112 C 4729.9 5.28855 -0.78846 0
M  V30 47113 C 4731.2 4.41409 -2.79206 0
M  V30 47114 H 4732.9 2.37074 -1.82856 0
M  V30 47115 H 4730.44 1.13935 -0.880609 0
M  V30 47116 H 4732.4 4.20786 -0.227437 0
M  V30 47117 H 4731.12 3.22271 0.53001 0
M  V30 47118 H 4729.78 3.29785 -1.60118 0
M  V30 47119 H 4729.43 5.02709 0.170997 0
M  V30 47120 H 4729.13 5.69333 -1.45373 0
M  V30 47121 H 4730.65 6.0761 -0.603495 0
M  V30 47122 H 4732.07 5.08515 -2.64737 0
M  V30 47123 H 4730.46 4.92901 -3.423 0
M  V30 47124 H 4731.53 3.51808 -3.33706 0
M  V30 47125 N 4732.88 0.972553 1.24013 0
M  V30 47126 C 4733.79 0.51438 2.28891 0
M  V30 47127 C 4734.8 -0.427018 1.68679 0
M  V30 47128 O 4735.98 -0.298868 1.9917 0
M  V30 47129 C 4733.04 -0.183477 3.46214 0
M  V30 47130 C 4732.1 0.79835 4.21811 0
M  V30 47131 C 4731.34 0.133701 5.33533 0
M  V30 47132 O 4731.56 -1.07695 5.60141 0
M  V30 47133 O 4730.49 0.828312 5.96173 0
M  V30 47134 H 4734.32 1.38638 2.70209 0
M  V30 47135 H 4731.91 0.739815 1.29796 0
M  V30 47136 H 4733.79 -0.575287 4.17455 0
M  V30 47137 H 4732.46 -1.03037 3.06863 0
M  V30 47138 H 4731.37 1.24071 3.52927 0
M  V30 47139 H 4732.7 1.61381 4.64992 0
M  V30 47140 N 4734.35 -1.38973 0.74325 0
M  V30 47141 C 4735.32 -2.28901 0.117095 0
M  V30 47142 C 4736.32 -1.46701 -0.658452 0
M  V30 47143 O 4737.51 -1.67276 -0.486247 0
M  V30 47144 C 4734.64 -3.30312 -0.843034 0
M  V30 47145 H 4735.83 -2.85777 0.909473 0
M  V30 47146 H 4733.39 -1.47759 0.509599 0
M  V30 47147 H 4734.12 -2.78506 -1.66147 0
M  V30 47148 H 4733.91 -3.9103 -0.289456 0
M  V30 47149 H 4735.4 -3.97581 -1.27746 0
M  V30 47150 N 4735.83 -0.491517 -1.49739 0
M  V30 47151 C 4737.24 -0.0413825 -1.86654 0
M  V30 47152 C 4737.59 1.3698 -1.40467 0
M  V30 47153 O 4736.72 2.01915 -0.778425 0
M  V30 47154 C 4737.31 -0.0683214 -3.38731 0
M  V30 47155 C 4735.87 0.326429 -3.74982 0
M  V30 47156 C 4735.02 -0.444984 -2.73706 0
M  V30 47157 H 4737.97 -0.704783 -1.42192 0
M  V30 47158 H 4737.99 0.729191 -3.73448 0
M  V30 47159 H 4737.5 -1.09552 -3.72317 0
M  V30 47160 H 4735.61 1.35721 -3.47002 0
M  V30 47161 H 4735.72 0.0135726 -4.79098 0
M  V30 47162 H 4734.08 0.103973 -2.54488 0
M  V30 47163 H 4734.87 -1.47208 -3.10137 0
M  V30 47164 N 4737.31 1.55986 -0.224949 0
M  V30 47165 C 4738.54 2.03234 0.413619 0
M  V30 47166 C 4738.96 1.10365 1.5232 0
M  V30 47167 O 4738.32 0.0924586 1.81064 0
M  V30 47168 C 4738.37 3.48685 0.919282 0
M  V30 47169 O 4737.47 3.58954 2.03041 0
M  V30 47170 H 4736.81 0.657431 0.0931672 0
M  V30 47171 H 4739.34 2.01677 -0.344581 0
M  V30 47172 H 4739.35 3.89074 1.22822 0
M  V30 47173 H 4738.03 4.15762 0.107193 0
M  V30 47174 H 4736.6 3.30454 1.72785 0
M  V30 47175 N 4738.79 -0.0484076 1.57526 0
M  V30 47176 C 4739.7 -1.07233 2.08658 0
M  V30 47177 C 4740.71 -1.40896 1.021 0
M  V30 47178 O 4741.89 -1.50604 1.33718 0
M  V30 47179 C 4738.96 -2.35999 2.53979 0
M  V30 47180 C 4738.02 -2.09095 3.74937 0
M  V30 47181 C 4737.25 -3.31721 4.18087 0
M  V30 47182 O 4737.47 -4.41701 3.6091 0
M  V30 47183 O 4736.41 -3.18558 5.1069 0
M  V30 47184 H 4740.23 -0.667861 2.96266 0
M  V30 47185 H 4737.82 -0.264119 1.47047 0
M  V30 47186 H 4739.7 -3.11737 2.83546 0
M  V30 47187 H 4738.37 -2.7578 1.69491 0
M  V30 47188 H 4737.28 -1.30987 3.50419 0
M  V30 47189 H 4738.61 -1.74182 4.60349 0
M  V30 47190 N 4740.27 -1.54311 -0.320303 0
M  V30 47191 C 4741.2 -1.80267 -1.4155 0
M  V30 47192 C 4742.21 -0.684775 -1.47698 0
M  V30 47193 O 4743.4 -0.961939 -1.50363 0
M  V30 47194 C 4740.5 -1.90835 -2.80063 0
M  V30 47195 C 4739.67 -3.21034 -2.97079 0
M  V30 47196 C 4738.73 -3.22261 -4.15974 0
M  V30 47197 O 4737.76 -3.95885 -4.08978 0
M  V30 47198 N 4738.96 -2.46277 -5.25669 0
M  V30 47199 H 4741.73 -2.74782 -1.19646 0
M  V30 47200 H 4739.29 -1.53647 -0.510304 0
M  V30 47201 H 4741.28 -1.8908 -3.57814 0
M  V30 47202 H 4739.85 -1.03403 -2.95003 0
M  V30 47203 H 4739.07 -3.35722 -2.06602 0
M  V30 47204 H 4740.36 -4.0699 -3.05346 0
M  V30 47205 H 4739.75 -1.86055 -5.34228 0
M  V30 47206 H 4738.31 -2.50296 -6.01827 0
M  V30 47207 N 4741.74 0.582532 -1.46439 0
M  V30 47208 C 4742.71 1.67361 -1.56598 0
M  V30 47209 C 4743.71 1.54574 -0.443126 0
M  V30 47210 O 4744.9 1.59188 -0.707436 0
M  V30 47211 C 4742.03 3.06786 -1.48645 0
M  V30 47212 H 4743.22 1.59711 -2.53835 0
M  V30 47213 H 4740.78 0.800385 -1.34252 0
M  V30 47214 H 4741.51 3.19991 -0.526875 0
M  V30 47215 H 4741.3 3.17476 -2.30112 0
M  V30 47216 H 4742.79 3.86212 -1.5884 0
M  V30 47217 N 4743.22 1.34147 0.82718 0
M  V30 47218 C 4744.63 1.23562 1.39962 0
M  V30 47219 C 4744.98 -0.140662 1.95695 0
M  V30 47220 O 4744.11 -1.04081 1.89726 0
M  V30 47221 C 4744.7 2.23716 2.54433 0
M  V30 47222 C 4743.26 2.16935 3.07597 0
M  V30 47223 C 4742.41 2.10555 1.80449 0
M  V30 47224 H 4745.36 1.45575 0.63194 0
M  V30 47225 H 4745.38 1.85168 3.32405 0
M  V30 47226 H 4744.89 3.23874 2.1384 0
M  V30 47227 H 4743 1.2012 3.52707 0
M  V30 47228 H 4743.11 3.08001 3.66977 0
M  V30 47229 H 4741.47 1.5621 2.01173 0
M  V30 47230 H 4742.26 3.1254 1.42035 0
M  V30 47231 N 4744.7 -1.04686 1.17807 0
M  V30 47232 C 4745.93 -1.81443 0.994293 0
M  V30 47233 C 4746.34 -1.83176 -0.457394 0
M  V30 47234 O 4745.7 -1.26269 -1.31766 0
M  V30 47235 C 4745.75 -3.27329 1.53421 0
M  V30 47236 O 4745.47 -3.25788 2.92906 0
M  V30 47237 C 4746.97 -4.20754 1.39574 0
M  V30 47238 H 4744.19 -0.571587 0.351467 0
M  V30 47239 H 4746.74 -1.31976 1.56213 0
M  V30 47240 H 4744.89 -3.74049 1.00828 0
M  V30 47241 H 4745.31 -4.17133 3.17963 0
M  V30 47242 H 4746.78 -5.21078 1.82159 0
M  V30 47243 H 4747.26 -4.37854 0.343548 0
M  V30 47244 H 4747.86 -3.79894 1.91209 0
M  V30 47245 N 4746.18 -0.979116 -1.23495 0
M  V30 47246 C 4747.09 -0.526512 -2.28615 0
M  V30 47247 C 4748.11 0.418067 -1.68903 0
M  V30 47248 O 4749.28 0.288302 -1.99326 0
M  V30 47249 C 4746.35 0.165113 -3.46307 0
M  V30 47250 C 4745.41 -0.820708 -4.21382 0
M  V30 47251 C 4744.64 -0.161994 -5.33454 0
M  V30 47252 O 4744.86 1.04723 -5.60704 0
M  V30 47253 O 4743.8 -0.859917 -5.95726 0
M  V30 47254 H 4747.62 -1.40069 -2.6947 0
M  V30 47255 H 4745.21 -0.746688 -1.29402 0
M  V30 47256 H 4747.09 0.55314 -4.17754 0
M  V30 47257 H 4745.77 1.01408 -3.07405 0
M  V30 47258 H 4744.67 -1.25941 -3.52264 0
M  V30 47259 H 4746.01 -1.63844 -4.64129 0
M  V30 47260 N 4747.66 1.38577 -0.75061 0
M  V30 47261 C 4748.59 2.29056 -0.0811519 0
M  V30 47262 C 4749.6 1.47598 0.686921 0
M  V30 47263 O 4750.79 1.70497 0.528503 0
M  V30 47264 C 4747.89 3.26478 0.909132 0
M  V30 47265 C 4747.06 4.36946 0.199324 0
M  V30 47266 C 4746.12 5.14576 1.09993 0
M  V30 47267 O 4745.15 5.66323 0.571571 0
M  V30 47268 N 4746.35 5.2727 2.4283 0
M  V30 47269 H 4749.12 2.8715 -0.858188 0
M  V30 47270 H 4746.68 1.50326 -0.601143 0
M  V30 47271 H 4748.67 3.7529 1.51458 0
M  V30 47272 H 4747.24 2.69304 1.58727 0
M  V30 47273 H 4746.46 3.89808 -0.586801 0
M  V30 47274 H 4747.75 5.07962 -0.291962 0
M  V30 47275 H 4747.15 4.86773 2.88216 0
M  V30 47276 H 4745.7 5.79466 2.98433 0
M  V30 47277 N 4749.14 0.499451 1.49477 0
M  V30 47278 C 4750.55 0.155316 1.58842 0
M  V30 47279 C 4750.75 -1.34003 1.50484 0
M  V30 47280 O 4749.81 -2.11584 1.37798 0
M  V30 47281 C 4751.12 0.730739 2.91686 0
M  V30 47282 C 4752.67 0.696707 3.05148 0
M  V30 47283 C 4753.14 1.25016 4.40607 0
M  V30 47284 N 4754.63 1.2108 4.47095 0
M  V30 47285 C 4755.37 1.60924 5.50355 0
M  V30 47286 N 4754.87 2.08354 6.60727 0
M  V30 47287 N 4756.66 1.5235 5.4106 0
M  V30 47288 H 4748.81 1.47167 1.53152 0
M  V30 47289 H 4751.07 0.610334 0.725394 0
M  V30 47290 H 4750.78 1.77939 3.03366 0
M  V30 47291 H 4750.65 0.190293 3.7672 0
M  V30 47292 H 4753.04 -0.343101 2.93099 0
M  V30 47293 H 4753.12 1.27428 2.21801 0
M  V30 47294 H 4752.76 2.28875 4.53408 0
M  V30 47295 H 4752.69 0.648544 5.22591 0
M  V30 47296 H 4755.19 0.863258 3.67908 0
M  V30 47297 H 4755.5 2.36831 7.35616 0
M  V30 47298 H 4753.84 2.12327 6.61772 0
M  V30 47299 H 4757.03 1.15116 4.53725 0
M  V30 47300 H 4757.21 1.83726 6.21409 0
M  V30 47301 N 4750.61 -1.55865 0.233218 0
M  V30 47302 C 4752.02 -1.84701 -0.272489 0
M  V30 47303 C 4752.38 -1.15483 -1.58613 0
M  V30 47304 O 4751.5 -0.428484 -2.12115 0
M  V30 47305 C 4752.1 -3.35073 -0.501182 0
M  V30 47306 C 4750.65 -3.64183 -0.951176 0
M  V30 47307 C 4749.8 -2.77292 -0.0207234 0
M  V30 47308 H 4752.75 -1.52004 0.456127 0
M  V30 47309 H 4752.77 -3.55911 -1.34565 0
M  V30 47310 H 4752.29 -3.85423 0.455072 0
M  V30 47311 H 4750.39 -3.193 -1.92038 0
M  V30 47312 H 4750.5 -4.72074 -0.817509 0
M  V30 47313 H 4748.86 -2.49132 -0.529635 0
M  V30 47314 H 4749.65 -3.30445 0.930657 0
M  V30 47315 N 4752.09 0.0400529 -1.57549 0
M  V30 47316 C 4753.34 0.73161 -1.88393 0
M  V30 47317 C 4753.66 1.76478 -0.829487 0
M  V30 47318 O 4752.93 1.95412 0.138231 0
M  V30 47319 H 4751.51 0.2732 -0.695249 0
M  V30 47320 H 4754.17 0.00860874 -1.94898 0
M  V30 47321 H 4753.27 1.22806 -2.86924 0
M  V30 47322 N 4753.57 1.54478 0.312115 0
M  V30 47323 C 4754.82 1.73487 1.05024 0
M  V30 47324 C 4755.15 0.513191 1.87297 0
M  V30 47325 O 4754.42 -0.489797 1.88232 0
M  V30 47326 C 4754.71 3.0173 1.96548 0
M  V30 47327 C 4754.56 4.34174 1.17529 0
M  V30 47328 C 4755.88 3.25782 2.95895 0
M  V30 47329 H 4753 0.631235 0.380409 0
M  V30 47330 H 4755.64 1.87185 0.325866 0
M  V30 47331 H 4753.79 2.90183 2.58314 0
M  V30 47332 H 4755.46 4.57622 0.581352 0
M  V30 47333 H 4753.7 4.31161 0.477773 0
M  V30 47334 H 4754.38 5.2015 1.84793 0
M  V30 47335 H 4756.85 3.36866 2.44255 0
M  V30 47336 H 4755.73 4.16851 3.57109 0
M  V30 47337 H 4755.99 2.4355 3.68966 0
M  V30 47338 N 4755.05 -0.574758 1.46746 0
M  V30 47339 C 4755.98 -1.69798 1.53952 0
M  V30 47340 C 4756.99 -1.57096 0.427161 0
M  V30 47341 O 4758.18 -1.64375 0.69592 0
M  V30 47342 C 4755.28 -3.0812 1.41121 0
M  V30 47343 C 4754.45 -3.46748 2.66617 0
M  V30 47344 C 4753.51 -4.64162 2.47872 0
M  V30 47345 O 4752.54 -4.69623 3.21626 0
M  V30 47346 N 4753.74 -5.59548 1.54553 0
M  V30 47347 H 4756.51 -1.64068 2.50802 0
M  V30 47348 H 4754.07 -0.760949 1.42903 0
M  V30 47349 H 4756.06 -3.84474 1.26341 0
M  V30 47350 H 4754.63 -3.08173 0.524217 0
M  V30 47351 H 4753.85 -2.6002 2.96283 0
M  V30 47352 H 4755.14 -3.69325 3.49967 0
M  V30 47353 H 4754.54 -5.57878 0.9375 0
M  V30 47354 H 4753.09 -6.35299 1.45733 0
M  V30 47355 N 4756.53 -1.34584 -0.820054 0
M  V30 47356 C 4757.44 -1.28478 -1.96292 0
M  V30 47357 C 4758.45 -0.191962 -1.72938 0
M  V30 47358 O 4759.63 -0.418948 -1.96994 0
M  V30 47359 C 4756.69 -1.04293 -3.30642 0
M  V30 47360 C 4755.75 -2.22758 -3.66984 0
M  V30 47361 C 4754.99 -1.99718 -4.94923 0
M  V30 47362 O 4755.21 -0.956854 -5.62317 0
M  V30 47363 O 4754.14 -2.86741 -5.2921 0
M  V30 47364 H 4757.97 -2.24631 -2.04388 0
M  V30 47365 H 4755.55 -1.14819 -0.955873 0
M  V30 47366 H 4757.44 -0.925986 -4.111 0
M  V30 47367 H 4756.11 -0.111811 -3.23507 0
M  V30 47368 H 4755.02 -2.40013 -2.86958 0
M  V30 47369 H 4756.35 -3.1427 -3.78808 0
M  V30 47370 N 4758 1.0406 -1.18361 0
M  V30 47371 C 4759.24 1.78826 -0.989984 0
M  V30 47372 C 4759.61 1.86107 0.47203 0
M  V30 47373 O 4760.81 2.57079 0.785097 0
M  V30 47374 C 4759.08 3.18224 -1.62691 0
M  V30 47375 S 4760.64 4.09326 -1.58106 0
M  V30 47376 H 4757.46 0.615742 -0.355504 0
M  V30 47377 H 4760.06 1.24773 -1.50505 0
M  V30 47378 H 4758.76 3.10534 -2.68322 0
M  V30 47379 H 4758.29 3.77353 -1.11213 0
M  V30 47380 H 4760.31 4.92596 -0.59699 0
M  V30 47381 N 4759.48 0.985651 1.22974 0
M  V30 47382 C 4760.71 0.674671 1.95274 0
M  V30 47383 C 4761.12 -0.763422 1.73114 0
M  V30 47384 O 4760.46 -1.52597 1.02273 0
M  V30 47385 C 4760.52 0.891719 3.48265 0
M  V30 47386 C 4760.19 2.31289 3.9415 0
M  V30 47387 C 4761.19 3.29193 4.02403 0
M  V30 47388 C 4758.87 2.64539 4.26995 0
M  V30 47389 C 4760.86 4.58423 4.42863 0
M  V30 47390 C 4758.55 3.9399 4.67135 0
M  V30 47391 C 4759.55 4.90744 4.75036 0
M  V30 47392 O 4759.24 6.17883 5.14272 0
M  V30 47393 H 4758.97 0.249273 0.628362 0
M  V30 47394 H 4761.52 1.32112 1.57276 0
M  V30 47395 H 4759.75 0.188098 3.86242 0
M  V30 47396 H 4761.44 0.577099 4.01777 0
M  V30 47397 H 4762.21 3.04837 3.77226 0
M  V30 47398 H 4758.09 1.89937 4.20053 0
M  V30 47399 H 4761.63 5.33942 4.48945 0
M  V30 47400 H 4757.53 4.18139 4.91762 0
M  V30 47401 H 4758.3 6.21713 5.32368 0
M  V30 47402 N 4760.96 -1.38177 0.757949 0
M  V30 47403 C 4761.91 -2.2774 0.108754 0
M  V30 47404 C 4762.89 -1.45418 -0.688658 0
M  V30 47405 O 4764.09 -1.6811 -0.553897 0
M  V30 47406 C 4761.22 -3.34316 -0.780249 0
M  V30 47407 C 4760.3 -4.24093 0.0242468 0
M  V30 47408 N 4760.69 -4.94506 1.06288 0
M  V30 47409 C 4758.99 -4.45543 -0.201892 0
M  V30 47410 C 4759.69 -5.60669 1.54999 0
M  V30 47411 N 4758.67 -5.36681 0.864536 0
M  V30 47412 H 4762.47 -2.79646 0.904169 0
M  V30 47413 H 4759.98 -1.51131 0.594399 0
M  V30 47414 H 4761.98 -3.97372 -1.261 0
M  V30 47415 H 4760.64 -2.83967 -1.57457 0
M  V30 47416 H 4761.65 -4.9734 1.44477 0
M  V30 47417 H 4758.33 -4.06094 -0.969207 0
M  V30 47418 H 4759.72 -6.26984 2.41539 0
M  V30 47419 N 4762.44 -0.507371 -1.4921 0
M  V30 47420 C 4763.69 0.0348128 -2.0207 0
M  V30 47421 C 4764.01 1.36893 -1.38871 0
M  V30 47422 O 4763.28 1.88131 -0.546217 0
M  V30 47423 H 4761.86 0.0158549 -0.746832 0
M  V30 47424 H 4764.52 -0.666062 -1.83166 0
M  V30 47425 H 4763.62 0.159808 -3.11691 0
M  V30 47426 N 4763.92 1.55739 -0.241481 0
M  V30 47427 C 4764.86 2.22541 0.676639 0
M  V30 47428 C 4765.86 1.21121 1.18431 0
M  V30 47429 O 4767.06 1.39148 1.14183 0
M  V30 47430 H 4763.44 0.713785 0.236675 0
M  V30 47431 H 4765.41 2.98264 0.0900138 0
M  V30 47432 C 4764.16 2.93445 1.86508 0
M  V30 47433 H 4763.48 3.71255 1.48357 0
M  V30 47434 H 4764.92 3.43558 2.48483 0
M  V30 47435 C 4763.38 1.97017 2.73287 0
M  V30 47436 O 4763.91 1.49978 3.72652 0
M  V30 47437 N 4762.12 1.64235 2.3974 0
M  V30 47438 H 4761.66 2.02683 1.58989 0
M  V30 47439 H 4761.62 0.999813 2.98079 0
M  V30 47440 N 4765.39 -0.0316971 1.57568 0
M  V30 47441 C 4766.64 -0.721609 1.88778 0
M  V30 47442 C 4766.96 -1.76036 0.838834 0
M  V30 47443 O 4766.23 -1.95482 -0.127866 0
M  V30 47444 H 4764.81 -0.269509 0.696688 0
M  V30 47445 H 4767.48 0.00172731 1.949 0
M  V30 47446 H 4766.57 -1.21283 2.87571 0
M  V30 47447 N 4766.87 -1.54642 -0.303919 0
M  V30 47448 C 4767.8 -1.81759 -1.3963 0
M  V30 47449 C 4768.82 -0.700402 -1.46963 0
M  V30 47450 O 4770.01 -0.977833 -1.49334 0
M  V30 47451 C 4767.11 -1.93794 -2.78023 0
M  V30 47452 C 4766.28 -3.24166 -2.93658 0
M  V30 47453 C 4765.34 -3.26655 -4.12532 0
M  V30 47454 O 4764.36 -4.00201 -4.04756 0
M  V30 47455 N 4765.57 -2.51838 -5.23028 0
M  V30 47456 H 4768.33 -2.76035 -1.16725 0
M  V30 47457 H 4765.89 -1.5418 -0.493978 0
M  V30 47458 H 4767.88 -1.92864 -3.55789 0
M  V30 47459 H 4766.45 -1.06526 -2.9389 0
M  V30 47460 H 4765.67 -3.37894 -2.0303 0
M  V30 47461 H 4766.96 -4.10206 -3.01012 0
M  V30 47462 H 4766.36 -1.91711 -5.32225 0
M  V30 47463 H 4764.92 -2.56665 -5.99138 0
M  V30 47464 N 4768.35 0.566968 -1.47048 0
M  V30 47465 C 4769.58 1.35505 -1.57013 0
M  V30 47466 C 4770 1.8684 -0.217324 0
M  V30 47467 O 4769.36 1.62438 0.805211 0
M  V30 47468 C 4769.41 2.50768 -2.59129 0
M  V30 47469 O 4768.51 3.52698 -2.13723 0
M  V30 47470 H 4767.85 0.402901 -0.527794 0
M  V30 47471 H 4770.38 0.686173 -1.92751 0
M  V30 47472 H 4770.39 2.97471 -2.7924 0
M  V30 47473 H 4769.07 2.12758 -3.57361 0
M  V30 47474 H 4767.64 3.12367 -2.0367 0
M  V30 47475 N 4769.83 1.35017 0.812906 0
M  V30 47476 C 4771.06 1.30846 1.59884 0
M  V30 47477 C 4771.47 -0.117509 1.88835 0
M  V30 47478 O 4770.81 -1.07802 1.48743 0
M  V30 47479 C 4770.87 2.0413 2.95924 0
M  V30 47480 C 4770.54 3.53347 2.89819 0
M  V30 47481 C 4771.53 4.48061 2.63699 0
M  V30 47482 C 4769.22 3.95904 3.09136 0
M  V30 47483 C 4771.21 5.83309 2.56961 0
M  V30 47484 C 4768.9 5.3125 3.02022 0
M  V30 47485 C 4769.9 6.24764 2.75969 0
M  V30 47486 O 4769.58 7.57627 2.68806 0
M  V30 47487 H 4769.32 0.451233 0.503354 0
M  V30 47488 H 4771.87 1.78358 1.01871 0
M  V30 47489 H 4770.1 1.51247 3.55895 0
M  V30 47490 H 4771.79 1.93119 3.57015 0
M  V30 47491 H 4772.56 4.165 2.485 0
M  V30 47492 H 4768.43 3.23507 3.28427 0
M  V30 47493 H 4771.98 6.56271 2.36546 0
M  V30 47494 H 4767.88 5.62426 3.16776 0
M  V30 47495 H 4768.64 7.67479 2.8446 0
M  V30 47496 N 4771.31 -1.03431 1.18911 0
M  V30 47497 C 4772.72 -1.2897 0.940156 0
M  V30 47498 C 4772.92 -1.97678 -0.390622 0
M  V30 47499 O 4771.98 -2.26131 -1.12344 0
M  V30 47500 C 4773.29 -2.14214 2.11028 0
M  V30 47501 C 4774.84 -2.27539 2.1493 0
M  V30 47502 C 4775.31 -3.16152 3.31378 0
M  V30 47503 N 4776.81 -3.2374 3.3128 0
M  V30 47504 C 4777.54 -3.9248 4.18027 0
M  V30 47505 N 4777.04 -4.63497 5.1492 0
M  V30 47506 N 4778.83 -3.88824 4.05921 0
M  V30 47507 H 4770.98 -0.572448 2.0454 0
M  V30 47508 H 4773.24 -0.315152 0.894082 0
M  V30 47509 H 4772.95 -1.71043 3.07306 0
M  V30 47510 H 4772.82 -3.14911 2.07631 0
M  V30 47511 H 4775.21 -2.69943 1.19226 0
M  V30 47512 H 4775.29 -1.26411 2.22383 0
M  V30 47513 H 4774.94 -2.74459 4.27358 0
M  V30 47514 H 4774.87 -4.17328 3.21162 0
M  V30 47515 H 4777.36 -2.73157 2.61139 0
M  V30 47516 H 4777.67 -5.13563 5.77472 0
M  V30 47517 H 4776.01 -4.6238 5.18874 0
M  V30 47518 H 4779.21 -3.3248 3.29507 0
M  V30 47519 H 4779.38 -4.42123 4.73742 0
M  V30 47520 N 4772.78 -0.992159 -1.2245 0
M  V30 47521 C 4774.03 -0.666283 -1.90801 0
M  V30 47522 C 4774.35 0.804089 -1.7765 0
M  V30 47523 O 4773.62 1.57625 -1.16323 0
M  V30 47524 H 4772.2 -0.243448 -0.706217 0
M  V30 47525 H 4774.87 -1.25851 -1.48821 0
M  V30 47526 H 4773.96 -0.928173 -2.97979 0
M  V30 47527 N 4774.26 1.37773 -0.765266 0
M  V30 47528 C 4775.49 2.04123 -0.337839 0
M  V30 47529 C 4775.91 1.57719 1.03779 0
M  V30 47530 O 4775.26 0.755505 1.66128 0
M  V30 47531 C 4775.31 3.59657 -0.364568 0
M  V30 47532 O 4775.03 4.04361 -1.68593 0
M  V30 47533 C 4776.54 4.43236 0.0752663 0
M  V30 47534 H 4773.76 0.655691 -0.142514 0
M  V30 47535 H 4776.3 1.76235 -1.03738 0
M  V30 47536 H 4774.45 3.8634 0.286335 0
M  V30 47537 H 4774.87 4.98852 -1.6201 0
M  V30 47538 H 4776.34 5.52 0.00540662 0
M  V30 47539 H 4776.82 4.24553 1.12477 0
M  V30 47540 H 4777.43 4.21765 -0.547203 0
M  V30 47541 N 4775.74 0.515277 1.48938 0
M  V30 47542 C 4776.97 -0.0205009 2.0659 0
M  V30 47543 C 4777.38 -1.30059 1.37409 0
M  V30 47544 O 4776.72 -1.78085 0.450695 0
M  V30 47545 C 4776.78 -0.329998 3.57982 0
M  V30 47546 C 4776.45 0.854453 4.48941 0
M  V30 47547 C 4777.45 1.74887 4.89602 0
M  V30 47548 C 4775.13 1.05729 4.91046 0
M  V30 47549 C 4777.12 2.83016 5.71122 0
M  V30 47550 C 4774.81 2.14174 5.72339 0
M  V30 47551 C 4775.81 3.02651 6.12284 0
M  V30 47552 O 4775.5 4.09223 6.91948 0
M  V30 47553 H 4775.23 0.0237071 0.675584 0
M  V30 47554 H 4777.78 0.716024 1.92516 0
M  V30 47555 H 4776.01 -1.12031 3.70116 0
M  V30 47556 H 4777.7 -0.806093 3.97815 0
M  V30 47557 H 4778.47 1.60404 4.57707 0
M  V30 47558 H 4774.35 0.37795 4.59448 0
M  V30 47559 H 4777.89 3.52104 6.0222 0
M  V30 47560 H 4773.79 2.28647 6.03648 0
M  V30 47561 H 4774.56 4.06751 7.10279 0
M  V30 47562 N 4777.22 -1.55609 0.249737 0
M  V30 47563 C 4778.44 -2.03866 -0.381234 0
M  V30 47564 C 4778.87 -1.12774 -1.50544 0
M  V30 47565 O 4778.23 -0.121253 -1.80894 0
M  V30 47566 C 4778.28 -3.50104 -0.863693 0
M  V30 47567 O 4777.38 -3.62139 -1.97305 0
M  V30 47568 H 4776.72 -0.65883 -0.0826963 0
M  V30 47569 H 4779.25 -2.01104 0.376622 0
M  V30 47570 H 4779.26 -3.90979 -1.16616 0
M  V30 47571 H 4777.94 -4.1588 -0.0410354 0
M  V30 47572 H 4776.51 -3.33161 -1.67506 0
M  V30 47573 N 4778.7 0.0233405 -1.57583 0
M  V30 47574 C 4779.93 0.724614 -1.93796 0
M  V30 47575 C 4780.34 1.68585 -0.849972 0
M  V30 47576 O 4779.7 1.81677 0.17314 0
M  V30 47577 C 4779.75 1.47673 -3.29962 0
M  V30 47578 O 4779.47 0.554069 -4.34582 0
M  V30 47579 C 4780.97 2.27464 -3.80493 0
M  V30 47580 H 4778.19 0.203295 -0.639462 0
M  V30 47581 H 4780.73 -0.0208372 -2.04489 0
M  V30 47582 H 4778.89 2.17401 -3.20649 0
M  V30 47583 H 4779.3 1.08214 -5.13215 0
M  V30 47584 H 4780.78 2.75623 -4.78263 0
M  V30 47585 H 4781.25 3.09133 -3.11983 0
M  V30 47586 H 4781.86 1.62799 -3.92908 0
M  V30 47587 N 4780.18 1.54801 0.295713 0
M  V30 47588 C 4781.4 1.78331 1.04908 0
M  V30 47589 C 4781.82 0.545379 1.80751 0
M  V30 47590 O 4781.18 -0.484952 1.75939 0
M  V30 47591 C 4781.23 2.99425 2.0255 0
M  V30 47592 O 4780.95 4.18435 1.29783 0
M  V30 47593 C 4782.45 3.35385 2.89883 0
M  V30 47594 H 4779.67 0.594629 0.310897 0
M  V30 47595 H 4782.21 2.01764 0.333383 0
M  V30 47596 H 4780.37 2.78185 2.69614 0
M  V30 47597 H 4780.78 4.86743 1.95402 0
M  V30 47598 H 4782.26 4.23345 3.54236 0
M  V30 47599 H 4782.73 2.53774 3.58463 0
M  V30 47600 H 4783.34 3.58804 2.28342 0
M  V30 47601 N 4781.65 -0.559161 1.47347 0
M  V30 47602 C 4782.9 -1.31837 1.541 0
M  V30 47603 C 4783.23 -1.93149 0.201794 0
M  V30 47604 O 4782.51 -1.77762 -0.789365 0
M  V30 47605 C 4782.79 -2.42997 2.65753 0
M  V30 47606 C 4782.64 -1.86567 4.09283 0
M  V30 47607 C 4783.96 -3.44933 2.7333 0
M  V30 47608 H 4781.08 -0.477993 0.560974 0
M  V30 47609 H 4783.72 -0.625913 1.79394 0
M  V30 47610 H 4781.87 -3.02063 2.44316 0
M  V30 47611 H 4783.55 -1.31776 4.42078 0
M  V30 47612 H 4781.79 -1.17253 4.17653 0
M  V30 47613 H 4782.46 -2.66916 4.83177 0
M  V30 47614 H 4784.94 -2.95782 2.92664 0
M  V30 47615 H 4783.81 -4.2014 3.53232 0
M  V30 47616 H 4784.07 -4.03659 1.80311 0
M  V30 47617 N 4783.13 -1.35446 -0.805734 0
M  V30 47618 C 4784.36 -1.31884 -1.59419 0
M  V30 47619 C 4784.77 0.103496 -1.88516 0
M  V30 47620 O 4784.13 1.0557 -1.48867 0
M  V30 47621 C 4784.18 -2.12436 -2.92494 0
M  V30 47622 O 4783.9 -3.49124 -2.64658 0
M  V30 47623 C 4785.4 -2.16469 -3.86854 0
M  V30 47624 H 4782.62 -0.453019 -0.49499 0
M  V30 47625 H 4785.17 -1.78312 -1.00125 0
M  V30 47626 H 4783.32 -1.69605 -3.483 0
M  V30 47627 H 4783.74 -3.90969 -3.49633 0
M  V30 47628 H 4785.21 -2.77221 -4.77339 0
M  V30 47629 H 4785.69 -1.16367 -4.23504 0
M  V30 47630 H 4786.29 -2.59465 -3.36984 0
M  V30 47631 N 4784.61 1.02799 -1.19458 0
M  V30 47632 C 4785.86 1.75865 -0.995784 0
M  V30 47633 C 4786.18 1.89139 0.474477 0
M  V30 47634 O 4785.45 1.42562 1.34361 0
M  V30 47635 H 4784.03 0.651498 -0.365458 0
M  V30 47636 H 4786.69 1.23999 -1.50367 0
M  V30 47637 H 4785.79 2.76656 -1.44456 0
M  V30 47638 N 4786.09 0.998639 1.21922 0
M  V30 47639 C 4787.5 0.710353 1.4292 0
M  V30 47640 C 4787.7 -0.716867 1.88317 0
M  V30 47641 O 4786.76 -1.48704 2.04067 0
M  V30 47642 C 4788.07 1.72081 2.46594 0
M  V30 47643 C 4789.62 1.7369 2.60386 0
M  V30 47644 C 4790.1 2.73614 3.67287 0
M  V30 47645 N 4791.59 2.72243 3.74751 0
M  V30 47646 C 4792.32 3.46223 4.57075 0
M  V30 47647 N 4791.82 4.29821 5.43347 0
M  V30 47648 N 4793.61 3.34902 4.51439 0
M  V30 47649 H 4785.76 1.92031 0.907632 0
M  V30 47650 H 4788.02 0.828503 0.460746 0
M  V30 47651 H 4787.73 2.74238 2.20196 0
M  V30 47652 H 4787.6 1.5183 3.45293 0
M  V30 47653 H 4789.99 0.722273 2.86124 0
M  V30 47654 H 4790.07 1.98011 1.61942 0
M  V30 47655 H 4789.72 3.75229 3.42294 0
M  V30 47656 H 4789.65 2.46561 4.65312 0
M  V30 47657 H 4792.14 2.11587 3.13112 0
M  V30 47658 H 4792.45 4.83082 6.03201 0
M  V30 47659 H 4790.8 4.33906 5.42909 0
M  V30 47660 H 4793.99 2.69029 3.83068 0
M  V30 47661 H 4794.16 3.92814 5.15365 0
M  V30 47662 N 4787.57 -1.37365 0.772562 0
M  V30 47663 C 4788.79 -2.03941 0.348659 0
M  V30 47664 C 4789.21 -1.58267 -1.02941 0
M  V30 47665 O 4788.57 -0.764305 -1.65725 0
M  V30 47666 C 4788.62 -3.59459 0.383637 0
M  V30 47667 O 4788.34 -4.03462 1.70735 0
M  V30 47668 C 4789.84 -4.4327 -0.0517594 0
M  V30 47669 H 4787.06 -0.654926 0.145989 0
M  V30 47670 H 4789.6 -1.75682 1.04671 0
M  V30 47671 H 4787.76 -3.86487 -0.265842 0
M  V30 47672 H 4788.17 -4.97985 1.64653 0
M  V30 47673 H 4789.65 -5.51995 0.0238673 0
M  V30 47674 H 4790.12 -4.25144 -1.10223 0
M  V30 47675 H 4790.73 -4.21469 0.569563 0
M  V30 47676 N 4789.04 -0.523168 -1.48663 0
M  V30 47677 C 4790.28 0.0114869 -2.04397 0
M  V30 47678 C 4790.65 1.3222 -1.39219 0
M  V30 47679 O 4791.85 1.94247 -1.858 0
M  V30 47680 C 4790.12 0.137993 -3.57134 0
M  V30 47681 S 4791.68 0.623697 -4.34345 0
M  V30 47682 H 4788.5 -0.00880205 -0.710946 0
M  V30 47683 H 4791.1 -0.702181 -1.82455 0
M  V30 47684 H 4789.8 -0.820889 -4.02106 0
M  V30 47685 H 4789.33 0.876243 -3.83517 0
M  V30 47686 H 4791.35 1.88934 -4.58823 0
M  V30 47687 N 4790.52 1.55474 -0.257986 0
M  V30 47688 C 4791.45 2.19195 0.669804 0
M  V30 47689 C 4792.47 1.17152 1.13046 0
M  V30 47690 O 4793.66 1.43963 1.05532 0
M  V30 47691 C 4790.76 2.79023 1.92353 0
M  V30 47692 C 4789.93 4.06592 1.6125 0
M  V30 47693 C 4788.99 4.50631 2.71694 0
M  V30 47694 O 4788.01 5.16773 2.38608 0
M  V30 47695 N 4789.22 4.1934 4.01416 0
M  V30 47696 H 4791.98 2.99441 0.12453 0
M  V30 47697 H 4789.54 1.6171 -0.078388 0
M  V30 47698 H 4791.53 3.05437 2.65501 0
M  V30 47699 H 4790.1 2.02869 2.3783 0
M  V30 47700 H 4789.32 3.87649 0.715674 0
M  V30 47701 H 4790.61 4.89742 1.37949 0
M  V30 47702 H 4790.01 3.66262 4.31125 0
M  V30 47703 H 4788.57 4.50564 4.70994 0
M  V30 47704 N 4792 -0.0149831 1.57593 0
M  V30 47705 C 4792.96 -0.995924 2.06432 0
M  V30 47706 C 4793.96 -1.28177 0.970948 0
M  V30 47707 O 4795.15 -1.22945 1.23411 0
M  V30 47708 C 4792.29 -2.32497 2.49315 0
M  V30 47709 H 4793.48 -0.57377 2.9436 0
M  V30 47710 H 4791.03 -0.262132 1.54086 0
M  V30 47711 H 4791.77 -2.79432 1.64585 0
M  V30 47712 H 4791.55 -2.13075 3.29152 0
M  V30 47713 H 4793.04 -3.02896 2.87478 0
M  V30 47714 N 4793.48 -1.54955 -0.2875 0
M  V30 47715 C 4794.72 -1.76063 -1.0185 0
M  V30 47716 C 4795.08 -0.547121 -1.84457 0
M  V30 47717 O 4794.37 0.460377 -1.85987 0
M  V30 47718 C 4794.57 -2.9984 -1.94502 0
M  V30 47719 C 4794.4 -4.33112 -1.21011 0
M  V30 47720 C 4793.17 -4.96636 -0.931721 0
M  V30 47721 C 4795.36 -5.10696 -0.607769 0
M  V30 47722 N 4793.35 -6.13669 -0.1685 0
M  V30 47723 C 4794.72 -6.19996 0.0220045 0
M  V30 47724 C 4796.77 -4.95238 -0.514164 0
M  V30 47725 C 4795.47 -7.15521 0.736344 0
M  V30 47726 C 4797.5 -5.91106 0.186551 0
M  V30 47727 C 4796.86 -6.99784 0.805121 0
M  V30 47728 H 4792.96 -0.696692 -0.355168 0
M  V30 47729 H 4795.55 -1.92442 -0.295673 0
M  V30 47730 H 4793.72 -2.84862 -2.64023 0
M  V30 47731 H 4795.45 -3.09414 -2.60854 0
M  V30 47732 H 4792.2 -4.57259 -1.23332 0
M  V30 47733 H 4792.63 -6.76704 0.200018 0
M  V30 47734 H 4797.27 -4.11331 -0.978089 0
M  V30 47735 H 4794.99 -7.98959 1.212 0
M  V30 47736 H 4798.57 -5.81223 0.259101 0
M  V30 47737 H 4797.45 -7.72689 1.3387 0
M  V30 47738 N 4794.96 0.551339 -1.47641 0
M  V30 47739 C 4796.18 1.33832 -1.58442 0
M  V30 47740 C 4796.61 1.86599 -0.237129 0
M  V30 47741 O 4795.96 1.63283 0.787937 0
M  V30 47742 C 4796.01 2.48005 -2.61774 0
M  V30 47743 O 4795.12 3.50412 -2.17452 0
M  V30 47744 H 4794.46 0.39728 -0.532038 0
M  V30 47745 H 4796.99 0.665691 -1.93468 0
M  V30 47746 H 4797 2.94493 -2.82379 0
M  V30 47747 H 4795.67 2.08956 -3.59597 0
M  V30 47748 H 4794.25 3.10189 -2.06972 0
M  V30 47749 N 4796.43 1.35872 0.79854 0
M  V30 47750 C 4797.66 1.32889 1.59233 0
M  V30 47751 C 4798.08 -0.0893926 1.87887 0
M  V30 47752 O 4797.44 -1.05864 1.47182 0
M  V30 47753 C 4797.49 2.14902 2.89567 0
M  V30 47754 O 4796.59 1.53526 3.82758 0
M  V30 47755 H 4795.94 0.455253 0.483364 0
M  V30 47756 H 4798.47 1.79027 0.990476 0
M  V30 47757 H 4798.48 2.27151 3.3892 0
M  V30 47758 H 4797.15 3.18007 2.68038 0
M  V30 47759 H 4795.73 1.50165 3.41328 0
M  V30 47760 N 4797.91 -1.02164 1.20001 0
M  V30 47761 C 4798.85 -2.10229 0.887632 0
M  V30 47762 C 4799.82 -1.61828 -0.158261 0
M  V30 47763 O 4801.01 -1.88471 -0.0329586 0
M  V30 47764 C 4798.13 -3.37091 0.329758 0
M  V30 47765 C 4797.18 -4.04375 1.35585 0
M  V30 47766 S 4798.01 -4.48946 2.91904 0
M  V30 47767 C 4799.17 -5.79016 2.37679 0
M  V30 47768 H 4799.4 -2.36403 1.8028 0
M  V30 47769 H 4796.94 -1.15208 1.02794 0
M  V30 47770 H 4798.89 -4.10497 0.0144267 0
M  V30 47771 H 4797.55 -3.08998 -0.563832 0
M  V30 47772 H 4796.75 -4.95629 0.914774 0
M  V30 47773 H 4796.35 -3.37171 1.6184 0
M  V30 47774 H 4798.64 -6.53936 1.77126 0
M  V30 47775 H 4799.58 -6.27913 3.27309 0
M  V30 47776 H 4799.99 -5.35036 1.7999 0
M  V30 47777 N 4799.39 -1.00509 -1.21391 0
M  V30 47778 C 4800.62 -0.706677 -1.94457 0
M  V30 47779 C 4801.03 0.730749 -1.74085 0
M  V30 47780 O 4800.39 1.49443 -1.04753 0
M  V30 47781 C 4800.44 -1.01836 -3.4686 0
M  V30 47782 O 4800.16 -2.39932 -3.66557 0
M  V30 47783 C 4801.66 -0.73937 -4.37091 0
M  V30 47784 H 4798.88 -0.260416 -0.618405 0
M  V30 47785 H 4801.43 -1.34316 -1.54206 0
M  V30 47786 H 4799.58 -0.427479 -3.85034 0
M  V30 47787 H 4800 -2.50801 -4.60651 0
M  V30 47788 H 4801.47 -1.00763 -5.42725 0
M  V30 47789 H 4801.95 0.326592 -4.37984 0
M  V30 47790 H 4802.55 -1.31187 -4.04562 0
M  V30 47791 N 4800.87 1.36954 -0.779835 0
M  V30 47792 C 4802.28 1.82092 -0.41222 0
M  V30 47793 C 4802.63 1.64929 1.06267 0
M  V30 47794 O 4801.76 1.16489 1.82371 0
M  V30 47795 C 4802.35 3.30588 -0.741435 0
M  V30 47796 C 4800.91 3.73973 -0.426773 0
M  V30 47797 C 4800.06 2.59365 -0.981078 0
M  V30 47798 H 4803.01 1.25311 -0.973802 0
M  V30 47799 H 4803.03 3.80489 -0.0290207 0
M  V30 47800 H 4802.54 3.43047 -1.81494 0
M  V30 47801 H 4800.64 3.67078 0.639086 0
M  V30 47802 H 4800.75 4.69774 -0.94068 0
M  V30 47803 H 4799.12 2.51462 -0.404846 0
M  V30 47804 H 4799.9 2.74614 -2.06015 0
M  V30 47805 N 4802.35 0.531045 1.48384 0
M  V30 47806 C 4803.3 -0.251012 2.26614 0
M  V30 47807 C 4804.28 -0.90893 1.32768 0
M  V30 47808 O 4805.47 -0.811561 1.57298 0
M  V30 47809 C 4802.6 -1.29666 3.1787 0
M  V30 47810 C 4801.69 -0.64348 4.1919 0
M  V30 47811 N 4802.08 0.2714 5.05071 0
M  V30 47812 C 4800.38 -0.900557 4.36813 0
M  V30 47813 C 4801.08 0.648313 5.78076 0
M  V30 47814 N 4800.05 0.00915097 5.43599 0
M  V30 47815 H 4803.86 0.452804 2.90391 0
M  V30 47816 H 4801.37 0.349147 1.58602 0
M  V30 47817 H 4803.37 -1.87065 3.72575 0
M  V30 47818 H 4802.03 -2.00184 2.55649 0
M  V30 47819 H 4803.04 0.644064 5.1388 0
M  V30 47820 H 4799.71 -1.59623 3.85781 0
M  V30 47821 H 4801.1 1.39856 6.57183 0
M  V30 47822 N 4803.82 -1.55335 0.266227 0
M  V30 47823 C 4805.05 -2.04259 -0.359589 0
M  V30 47824 C 4805.47 -1.14364 -1.4934 0
M  V30 47825 O 4804.83 -0.140432 -1.80755 0
M  V30 47826 C 4804.88 -3.51 -0.826511 0
M  V30 47827 O 4803.98 -3.64211 -1.93453 0
M  V30 47828 H 4803.33 -0.65967 -0.0757038 0
M  V30 47829 H 4805.86 -2.00693 0.397931 0
M  V30 47830 H 4805.87 -3.92194 -1.12463 0
M  V30 47831 H 4804.54 -4.159 0.00307653 0
M  V30 47832 H 4803.12 -3.34919 -1.63963 0
M  V30 47833 N 4805.3 0.0066254 -1.57599 0
M  V30 47834 C 4806.25 1.00853 -2.04481 0
M  V30 47835 C 4807.24 1.3071 -0.938277 0
M  V30 47836 O 4808.43 1.29919 -1.20208 0
M  V30 47837 C 4805.56 2.30265 -2.54624 0
M  V30 47838 C 4804.64 2.034 -3.72141 0
M  V30 47839 N 4805.04 1.46671 -4.84067 0
M  V30 47840 C 4803.33 2.33576 -3.79945 0
M  V30 47841 C 4804.03 1.36126 -5.65548 0
M  V30 47842 N 4803.01 1.84459 -5.11347 0
M  V30 47843 H 4806.81 0.5643 -2.88432 0
M  V30 47844 H 4804.33 0.212464 -1.61004 0
M  V30 47845 H 4806.32 3.02875 -2.86483 0
M  V30 47846 H 4804.98 2.75346 -1.72089 0
M  V30 47847 H 4805.99 1.1464 -5.05053 0
M  V30 47848 H 4802.67 2.81578 -3.08253 0
M  V30 47849 H 4804.06 0.925639 -6.65493 0
M  V30 47850 N 4806.78 1.55106 0.279278 0
M  V30 47851 C 4808.01 1.79764 1.03439 0
M  V30 47852 C 4808.43 0.566015 1.79382 0
M  V30 47853 O 4807.79 -0.484198 1.74715 0
M  V30 47854 C 4807.84 3.01797 1.9736 0
M  V30 47855 O 4806.94 2.76443 3.06028 0
M  V30 47856 H 4806.28 0.594344 0.296059 0
M  V30 47857 H 4808.81 2.02236 0.310094 0
M  V30 47858 H 4808.82 3.3036 2.3943 0
M  V30 47859 H 4807.5 3.9109 1.41496 0
M  V30 47860 H 4806.07 2.58959 2.68319 0
M  V30 47861 N 4808.26 -0.543502 1.47932 0
M  V30 47862 C 4809.68 -0.870759 1.33753 0
M  V30 47863 C 4809.88 -1.98639 0.33833 0
M  V30 47864 O 4808.93 -2.51306 -0.245282 0
M  V30 47865 C 4810.24 -1.25105 2.7344 0
M  V30 47866 C 4811.79 -1.3617 2.81828 0
M  V30 47867 C 4812.27 -1.77548 4.22186 0
M  V30 47868 N 4813.76 -1.84675 4.24794 0
M  V30 47869 C 4814.49 -2.18048 5.30323 0
M  V30 47870 N 4813.99 -2.4994 6.46144 0
M  V30 47871 N 4815.78 -2.18939 5.17708 0
M  V30 47872 H 4807.93 0.192824 2.11523 0
M  V30 47873 H 4810.2 0.023611 0.947706 0
M  V30 47874 H 4809.9 -0.505017 3.48055 0
M  V30 47875 H 4809.78 -2.20421 3.06096 0
M  V30 47876 H 4812.16 -2.09852 2.07476 0
M  V30 47877 H 4812.24 -0.39008 2.52808 0
M  V30 47878 H 4811.89 -1.04431 4.97048 0
M  V30 47879 H 4811.82 -2.75737 4.48639 0
M  V30 47880 H 4814.31 -1.6236 3.41244 0
M  V30 47881 H 4814.62 -2.74472 7.22416 0
M  V30 47882 H 4812.97 -2.4749 6.49441 0
M  V30 47883 H 4816.16 -1.93473 4.26246 0
M  V30 47884 H 4816.33 -2.44618 6.00055 0
M  V30 47885 N 4809.74 -1.36293 -0.791323 0
M  V30 47886 C 4810.97 -1.33567 -1.58011 0
M  V30 47887 C 4811.38 0.0834953 -1.88615 0
M  V30 47888 O 4810.74 1.03985 -1.49978 0
M  V30 47889 C 4810.79 -2.15527 -2.90225 0
M  V30 47890 O 4810.51 -3.51912 -2.6094 0
M  V30 47891 C 4812.01 -2.2056 -3.84536 0
M  V30 47892 H 4809.23 -0.458244 -0.490157 0
M  V30 47893 H 4811.77 -1.79364 -0.982282 0
M  V30 47894 H 4809.93 -1.7329 -3.46481 0
M  V30 47895 H 4810.34 -3.94656 -3.45467 0
M  V30 47896 H 4811.82 -2.82268 -4.74372 0
M  V30 47897 H 4812.29 -1.20852 -4.22246 0
M  V30 47898 H 4812.9 -2.63024 -3.34213 0
M  V30 47899 N 4811.22 1.01526 -1.20541 0
M  V30 47900 C 4812.63 1.56594 -1.01662 0
M  V30 47901 C 4812.98 1.91506 0.426601 0
M  V30 47902 O 4812.1 1.7238 1.30821 0
M  V30 47903 C 4812.7 2.84536 -1.83915 0
M  V30 47904 C 4811.26 3.36127 -1.69398 0
M  V30 47905 C 4810.4 2.0942 -1.81765 0
M  V30 47906 H 4813.35 0.838926 -1.34713 0
M  V30 47907 H 4813.38 3.55999 -1.34331 0
M  V30 47908 H 4812.89 2.59095 -2.88949 0
M  V30 47909 H 4810.99 3.66525 -0.670061 0
M  V30 47910 H 4811.1 4.0824 -2.50753 0
M  V30 47911 H 4809.47 2.21937 -1.24965 0
M  V30 47912 H 4810.25 1.86404 -2.88285 0
M  V30 47913 N 4812.69 1.01151 1.20856 0
M  V30 47914 C 4813.6 0.58694 2.27139 0
M  V30 47915 C 4814.62 -0.373138 1.69952 0
M  V30 47916 O 4815.8 -0.235353 2.0002 0
M  V30 47917 C 4812.86 -0.0732383 3.46623 0
M  V30 47918 C 4811.92 0.932142 4.19058 0
M  V30 47919 C 4811.15 0.303373 5.32837 0
M  V30 47920 O 4811.38 -0.898197 5.63284 0
M  V30 47921 O 4810.31 1.01756 5.93236 0
M  V30 47922 H 4814.14 1.47165 2.65662 0
M  V30 47923 H 4811.72 0.780734 1.27377 0
M  V30 47924 H 4813.6 -0.442185 4.19074 0
M  V30 47925 H 4812.28 -0.93222 3.09986 0
M  V30 47926 H 4811.19 1.35236 3.48801 0
M  V30 47927 H 4812.52 1.76092 4.59622 0
M  V30 47928 N 4814.17 -1.36538 0.787088 0
M  V30 47929 C 4815.4 -2.03265 0.369734 0
M  V30 47930 C 4815.81 -1.59484 -1.01791 0
M  V30 47931 O 4815.15 -0.77867 -1.6638 0
M  V30 47932 C 4815.21 -3.57778 0.351497 0
M  V30 47933 C 4814.88 -4.2475 1.68632 0
M  V30 47934 C 4815.88 -4.47801 2.6414 0
M  V30 47935 C 4813.56 -4.6227 1.96498 0
M  V30 47936 C 4815.55 -5.07451 3.8571 0
M  V30 47937 C 4813.24 -5.21638 3.18335 0
M  V30 47938 C 4814.24 -5.44167 4.1276 0
M  V30 47939 O 4813.93 -6.02289 5.32451 0
M  V30 47940 H 4813.66 -0.658971 0.150774 0
M  V30 47941 H 4816.21 -1.75544 1.06646 0
M  V30 47942 H 4814.44 -3.84608 -0.401711 0
M  V30 47943 H 4816.13 -4.05879 -0.040872 0
M  V30 47944 H 4816.9 -4.19212 2.43898 0
M  V30 47945 H 4812.78 -4.4406 1.23821 0
M  V30 47946 H 4816.32 -5.24951 4.59425 0
M  V30 47947 H 4812.22 -5.49652 3.38456 0
M  V30 47948 H 4812.99 -6.20756 5.33483 0
M  V30 47949 N 4815.65 -0.538906 -1.481 0
M  V30 47950 C 4816.88 -0.0123684 -2.06596 0
M  V30 47951 C 4817.29 1.27856 -1.39461 0
M  V30 47952 O 4816.63 1.77346 -0.478969 0
M  V30 47953 C 4816.69 0.273005 -3.58462 0
M  V30 47954 C 4816.36 -0.925767 -4.47525 0
M  V30 47955 C 4817.35 -1.82654 -4.86758 0
M  V30 47956 C 4815.04 -1.13528 -4.89302 0
M  V30 47957 C 4817.03 -2.92067 -5.66547 0
M  V30 47958 C 4814.72 -2.23253 -5.6886 0
M  V30 47959 C 4815.72 -3.12354 -6.07391 0
M  V30 47960 O 4815.41 -4.20179 -6.8535 0
M  V30 47961 H 4815.14 -0.0344521 -0.675122 0
M  V30 47962 H 4817.69 -0.746561 -1.91352 0
M  V30 47963 H 4815.92 1.06128 -3.71852 0
M  V30 47964 H 4817.61 0.742702 -3.99047 0
M  V30 47965 H 4818.38 -1.67665 -4.55097 0
M  V30 47966 H 4814.26 -0.450996 -4.58789 0
M  V30 47967 H 4817.8 -3.61641 -5.96542 0
M  V30 47968 H 4813.7 -2.38222 -5.99934 0
M  V30 47969 H 4814.46 -4.17999 -7.03718 0
M  V30 47970 N 4817.13 1.55192 -0.274461 0
M  V30 47971 C 4818.54 1.85358 0.223423 0
M  V30 47972 C 4818.89 1.19648 1.55496 0
M  V30 47973 O 4818.01 0.484573 2.10905 0
M  V30 47974 C 4818.61 3.36284 0.412167 0
M  V30 47975 C 4817.17 3.66577 0.854284 0
M  V30 47976 C 4816.32 2.7725 -0.052803 0
M  V30 47977 H 4819.27 1.50741 -0.496268 0
M  V30 47978 H 4819.29 3.59354 1.25081 0
M  V30 47979 H 4818.8 3.84081 -0.5571 0
M  V30 47980 H 4816.9 3.24279 1.83505 0
M  V30 47981 H 4817.01 4.74075 0.692059 0
M  V30 47982 H 4815.38 2.50449 0.463396 0
M  V30 47983 H 4816.16 3.27861 -1.01794 0
M  V30 47984 N 4818.61 0.00173253 1.576 0
M  V30 47985 C 4819.55 -1.00733 2.09656 0
M  V30 47986 C 4820.55 -1.3548 1.01693 0
M  V30 47987 O 4821.75 -1.34024 1.20157 0
M  V30 47988 H 4818.13 -0.342514 0.669469 0
M  V30 47989 H 4820.1 -0.542738 2.93423 0
M  V30 47990 C 4818.85 -2.28981 2.61655 0
M  V30 47991 H 4818.17 -2.03112 3.44363 0
M  V30 47992 H 4819.61 -2.97859 3.01755 0
M  V30 47993 C 4818.07 -3.0008 1.53147 0
M  V30 47994 O 4818.6 -3.91131 0.915378 0
M  V30 47995 N 4816.81 -2.61935 1.2585 0
M  V30 47996 H 4816.35 -1.87974 1.76135 0
M  V30 47997 H 4816.31 -3.0982 0.534684 0
M  V30 47998 N 4820.08 -1.55252 -0.271048 0
M  V30 47999 C 4821.05 -1.87489 -1.31835 0
M  V30 48000 C 4822.05 -0.749595 -1.42259 0
M  V30 48001 O 4823.24 -1.01776 -1.41377 0
M  V30 48002 C 4820.37 -2.0819 -2.69944 0
M  V30 48003 H 4821.56 -2.81112 -1.0448 0
M  V30 48004 H 4819.12 -1.47773 -0.509206 0
M  V30 48005 H 4819.85 -1.16955 -3.02476 0
M  V30 48006 H 4819.64 -2.90123 -2.63764 0
M  V30 48007 H 4821.13 -2.34398 -3.45612 0
M  V30 48008 N 4821.56 0.535649 -1.48218 0
M  V30 48009 C 4822.81 1.28923 -1.55639 0
M  V30 48010 C 4823.13 1.93644 -0.229582 0
M  V30 48011 O 4822.4 1.81041 0.748396 0
M  V30 48012 H 4820.98 0.47882 -0.573359 0
M  V30 48013 H 4823.64 0.623788 -1.84648 0
M  V30 48014 H 4822.74 2.07149 -2.33444 0
M  V30 48015 N 4823.04 1.36711 0.784084 0
M  V30 48016 C 4823.97 1.34159 1.91111 0
M  V30 48017 C 4824.95 0.212181 1.68771 0
M  V30 48018 O 4826.14 0.410648 1.89809 0
M  V30 48019 C 4823.27 1.13547 3.28214 0
M  V30 48020 C 4822.22 2.23369 3.6509 0
M  V30 48021 C 4821.55 1.87893 5.006 0
M  V30 48022 C 4822.85 3.65486 3.73118 0
M  V30 48023 H 4824.54 2.28466 1.93504 0
M  V30 48024 H 4822.09 1.09976 0.929579 0
M  V30 48025 H 4824.04 1.10395 4.06683 0
M  V30 48026 H 4822.76 0.156919 3.26223 0
M  V30 48027 H 4821.42 2.25655 2.88921 0
M  V30 48028 H 4821.07 0.885989 4.95136 0
M  V30 48029 H 4820.77 2.61424 5.26242 0
M  V30 48030 H 4822.29 1.86306 5.81483 0
M  V30 48031 H 4823.71 3.65397 4.41767 0
M  V30 48032 H 4822.11 4.37967 4.10249 0
M  V30 48033 H 4823.18 4.00005 2.74088 0
M  V30 48034 N 4824.52 -1.00885 1.21078 0
M  V30 48035 C 4825.77 -1.74016 1.01987 0
M  V30 48036 C 4826.08 -1.9041 -0.447598 0
M  V30 48037 O 4827.29 -2.60709 -0.757815 0
M  V30 48038 C 4825.74 -3.13019 1.77614 0
M  V30 48039 C 4825.35 -3.04611 3.28506 0
M  V30 48040 C 4827.09 -3.90306 1.66918 0
M  V30 48041 C 4825 -4.38671 3.96638 0
M  V30 48042 H 4823.93 -0.652409 0.377994 0
M  V30 48043 H 4826.58 -1.1275 1.44775 0
M  V30 48044 H 4824.96 -3.74873 1.27617 0
M  V30 48045 H 4826.14 -2.52019 3.85776 0
M  V30 48046 H 4824.45 -2.40815 3.39701 0
M  V30 48047 H 4827.05 -4.89502 2.15155 0
M  V30 48048 H 4827.39 -4.11555 0.626725 0
M  V30 48049 H 4827.93 -3.35097 2.14371 0
M  V30 48050 H 4824.67 -4.22623 5.01069 0
M  V30 48051 H 4824.19 -4.91239 3.44157 0
M  V30 48052 H 4825.86 -5.07486 4.01332 0
M  V30 48053 N 4826 -1.01791 -1.20318 0
M  V30 48054 C 4826.93 -0.53396 -2.21865 0
M  V30 48055 C 4827.91 0.419306 -1.57101 0
M  V30 48056 O 4829.09 0.338996 -1.85427 0
M  V30 48057 C 4826.22 0.222781 -3.37967 0
M  V30 48058 C 4825.26 -0.680239 -4.2104 0
M  V30 48059 S 4826.1 -2.15015 -4.90438 0
M  V30 48060 C 4827.25 -1.4036 -6.09959 0
M  V30 48061 H 4827.49 -1.39439 -2.62572 0
M  V30 48062 H 4825.02 -0.826913 -1.3039 0
M  V30 48063 H 4826.98 0.653283 -4.05268 0
M  V30 48064 H 4825.64 1.0588 -2.95717 0
M  V30 48065 H 4824.83 -0.0966476 -5.03907 0
M  V30 48066 H 4824.43 -1.04858 -3.59 0
M  V30 48067 H 4826.73 -0.684307 -6.74035 0
M  V30 48068 H 4827.67 -2.20846 -6.7278 0
M  V30 48069 H 4828.08 -0.905912 -5.57184 0
M  V30 48070 N 4827.47 1.36119 -0.794317 0
M  V30 48071 C 4828.42 2.3187 -0.184105 0
M  V30 48072 C 4829.42 1.56043 0.65931 0
M  V30 48073 O 4830.62 1.71267 0.553846 0
M  V30 48074 H 4827 0.750894 -0.0407637 0
M  V30 48075 H 4828.97 2.80894 -1.00703 0
M  V30 48076 C 4827.72 3.41326 0.662693 0
M  V30 48077 H 4827.04 3.99793 0.0230539 0
M  V30 48078 H 4828.48 4.10633 1.05625 0
M  V30 48079 C 4826.94 2.83315 1.82303 0
M  V30 48080 O 4827.47 2.75874 2.91987 0
M  V30 48081 N 4825.68 2.40535 1.63068 0
M  V30 48082 H 4825.22 2.46787 0.738504 0
M  V30 48083 H 4825.18 2.02068 2.40865 0
M  V30 48084 N 4828.95 0.546753 1.47812 0
M  V30 48085 C 4830.18 0.0233245 2.06587 0
M  V30 48086 C 4830.59 -1.27115 1.40137 0
M  V30 48087 O 4829.93 -1.77089 0.488368 0
M  V30 48088 C 4830 -0.253991 3.58602 0
M  V30 48089 C 4829.66 0.949488 4.47028 0
M  V30 48090 C 4830.66 1.85233 4.85783 0
M  V30 48091 C 4828.34 1.16122 4.88693 0
M  V30 48092 C 4830.34 2.95067 5.6499 0
M  V30 48093 C 4828.02 2.26266 5.67668 0
M  V30 48094 C 4829.02 3.15571 6.05726 0
M  V30 48095 O 4828.71 4.23808 6.83112 0
M  V30 48096 H 4828.44 0.0380319 0.674929 0
M  V30 48097 H 4830.99 0.756698 1.90953 0
M  V30 48098 H 4829.22 -1.04155 3.72409 0
M  V30 48099 H 4830.91 -0.721529 3.99436 0
M  V30 48100 H 4831.68 1.70077 4.54201 0
M  V30 48101 H 4827.56 0.47532 4.58543 0
M  V30 48102 H 4831.1 3.64799 5.94615 0
M  V30 48103 H 4827 2.414 5.98662 0
M  V30 48104 H 4827.77 4.21726 7.01491 0
M  V30 48105 N 4830.43 -1.55044 0.282687 0
M  V30 48106 C 4831.67 -2.01669 -0.333017 0
M  V30 48107 C 4832.03 -1.16676 -1.52482 0
M  V30 48108 O 4833.24 -1.52915 -2.21067 0
M  V30 48109 C 4831.51 -3.50511 -0.698319 0
M  V30 48110 S 4833.07 -4.19117 -1.29948 0
M  V30 48111 H 4829.88 -0.703471 -0.103194 0
M  V30 48112 H 4832.49 -1.91232 0.406289 0
M  V30 48113 H 4831.19 -4.10015 0.177837 0
M  V30 48114 H 4830.72 -3.64948 -1.46889 0
M  V30 48115 H 4832.74 -4.23371 -2.58788 0
M  V30 48116 N 4831.91 -0.0100904 -1.57597 0
M  V30 48117 C 4833.32 0.34611 -1.55802 0
M  V30 48118 C 4833.52 1.7414 -1.01378 0
M  V30 48119 O 4832.58 2.43935 -0.652053 0
M  V30 48120 C 4833.89 0.21211 -2.99951 0
M  V30 48121 C 4835.44 0.286299 -3.11688 0
M  V30 48122 C 4835.92 0.181309 -4.57641 0
M  V30 48123 N 4837.41 0.238893 -4.62584 0
M  V30 48124 C 4838.14 0.181149 -5.73114 0
M  V30 48125 N 4837.64 0.0734175 -6.92761 0
M  V30 48126 N 4839.43 0.233752 -5.61614 0
M  V30 48127 H 4831.58 -0.922724 -1.9131 0
M  V30 48128 H 4833.85 -0.354626 -0.879173 0
M  V30 48129 H 4833.55 -0.74829 -3.43647 0
M  V30 48130 H 4833.43 0.990096 -3.63974 0
M  V30 48131 H 4835.81 1.23715 -2.67915 0
M  V30 48132 H 4835.89 -0.521733 -2.50423 0
M  V30 48133 H 4835.54 -0.766039 -5.0209 0
M  V30 48134 H 4835.47 1.00796 -5.16863 0
M  V30 48135 H 4837.96 0.323078 -3.76516 0
M  V30 48136 H 4838.27 0.0355286 -7.72792 0
M  V30 48137 H 4836.62 0.0389018 -6.94989 0
M  V30 48138 H 4839.81 0.316183 -4.67031 0
M  V30 48139 H 4839.98 0.185286 -6.47735 0
M  V30 48140 N 4833.39 1.55393 0.262811 0
M  V30 48141 C 4834.33 1.89774 1.34493 0
M  V30 48142 C 4835.33 0.775116 1.50626 0
M  V30 48143 O 4836.53 0.959572 1.5229 0
M  V30 48144 H 4832.91 0.602483 0.45002 0
M  V30 48145 H 4834.88 2.80151 1.02753 0
M  V30 48146 C 4833.63 2.1951 2.69649 0
M  V30 48147 H 4832.95 3.05387 2.58029 0
M  V30 48148 H 4834.39 2.47481 3.44281 0
M  V30 48149 C 4832.85 1.00608 3.21527 0
M  V30 48150 O 4833.38 0.245908 4.00947 0
M  V30 48151 N 4831.59 0.801009 2.79342 0
M  V30 48152 H 4831.13 1.42087 2.1487 0
M  V30 48153 H 4831.09 0.00709049 3.14399 0
M  V30 48154 N 4834.87 -0.527781 1.485 0
M  V30 48155 C 4836.28 -1.10969 1.50142 0
M  V30 48156 C 4836.63 -1.94299 0.272446 0
M  V30 48157 O 4835.75 -2.07321 -0.620228 0
M  V30 48158 C 4836.35 -2.01918 2.72056 0
M  V30 48159 C 4834.91 -2.55323 2.76563 0
M  V30 48160 C 4834.05 -1.32332 2.43687 0
M  V30 48161 H 4837 -0.312931 1.55584 0
M  V30 48162 H 4837.03 -2.86235 2.50699 0
M  V30 48163 H 4836.54 -1.41242 3.61486 0
M  V30 48164 H 4834.64 -3.19714 1.91347 0
M  V30 48165 H 4834.75 -2.94306 3.78049 0
M  V30 48166 H 4833.12 -1.63982 1.9489 0
M  V30 48167 H 4833.9 -0.734047 3.3536 0
M  V30 48168 N 4836.34 -1.37125 -0.776822 0
M  V30 48169 C 4837.62 -1.22591 -1.52416 0
M  V30 48170 C 4838 0.182652 -2.10308 0
M  V30 48171 O 4837.35 1.18972 -1.95084 0
M  V30 48172 C 4837.56 -2.31791 -2.60909 0
M  V30 48173 C 4838.91 -2.69082 -3.28451 0
M  V30 48174 O 4839.93 -2.30929 -2.71201 0
M  V30 48175 O 4838.79 -3.34795 -4.31942 0
M  V30 48176 H 4835.88 -0.478068 -0.674818 0
M  V30 48177 H 4838.43 -1.48891 -0.814223 0
M  V30 48178 H 4837.2 -3.26139 -2.16215 0
M  V30 48179 H 4836.82 -2.06928 -3.3951 0
M  V30 48180 N 4837.82 1.00242 -1.21611 0
M  V30 48181 C 4838.78 2.0723 -0.979206 0
M  V30 48182 C 4839.78 1.6072 0.0507654 0
M  V30 48183 O 4840.97 1.73196 -0.186773 0
M  V30 48184 C 4838.11 3.37544 -0.477134 0
M  V30 48185 H 4839.3 2.2968 -1.92839 0
M  V30 48186 H 4836.85 1.17257 -1.03346 0
M  V30 48187 H 4837.59 3.20775 0.476853 0
M  V30 48188 H 4837.37 3.72634 -1.2201 0
M  V30 48189 H 4838.86 4.16284 -0.331327 0
M  V30 48190 N 4839.3 1.02428 1.19776 0
M  V30 48191 C 4840.55 0.719118 1.89622 0
M  V30 48192 C 4840.88 -0.75002 1.79132 0
M  V30 48193 O 4840.15 -1.5457 1.18061 0
M  V30 48194 C 4840.44 1.16511 3.4073 0
M  V30 48195 C 4840.29 2.69513 3.60115 0
M  V30 48196 C 4841.61 0.742318 4.33794 0
M  V30 48197 H 4838.73 0.262714 0.688586 0
M  V30 48198 H 4841.37 1.27338 1.41014 0
M  V30 48199 H 4839.52 0.693544 3.82259 0
M  V30 48200 H 4841.19 3.2458 3.27788 0
M  V30 48201 H 4839.43 3.10123 3.03325 0
M  V30 48202 H 4840.11 2.95774 4.66071 0
M  V30 48203 H 4842.58 1.14784 3.99955 0
M  V30 48204 H 4841.46 1.08232 5.38124 0
M  V30 48205 H 4841.72 -0.355592 4.40668 0
M  V30 48206 N 4840.78 -1.35696 0.801525 0
M  V30 48207 C 4841.74 -2.28198 0.214074 0
M  V30 48208 C 4842.74 -1.49361 -0.595638 0
M  V30 48209 O 4843.93 -1.69188 -0.414862 0
M  V30 48210 C 4841.06 -3.3359 -0.702179 0
M  V30 48211 H 4842.26 -2.81663 1.02986 0
M  V30 48212 H 4839.81 -1.45465 0.57181 0
M  V30 48213 H 4840.54 -2.85302 -1.54185 0
M  V30 48214 H 4840.33 -3.91906 -0.123347 0
M  V30 48215 H 4841.82 -4.02641 -1.10768 0
M  V30 48216 N 4842.26 -0.554584 -1.4752 0
M  V30 48217 C 4843.22 0.184094 -2.28459 0
M  V30 48218 C 4844.22 0.845146 -1.36799 0
M  V30 48219 O 4845.41 0.701411 -1.59455 0
M  V30 48220 C 4842.54 1.26892 -3.16404 0
M  V30 48221 H 4843.73 -0.526855 -2.95236 0
M  V30 48222 H 4841.29 -0.311429 -1.53166 0
M  V30 48223 H 4842.02 2.01235 -2.54313 0
M  V30 48224 H 4841.81 0.799748 -3.83857 0
M  V30 48225 H 4843.3 1.78781 -3.77395 0
M  V30 48226 N 4843.73 1.54892 -0.290906 0
M  V30 48227 C 4845.14 1.85585 0.203751 0
M  V30 48228 C 4845.5 1.2129 1.54218 0
M  V30 48229 O 4844.62 0.506915 2.10379 0
M  V30 48230 C 4845.22 3.36702 0.376476 0
M  V30 48231 C 4843.77 3.67463 0.815356 0
M  V30 48232 C 4842.92 2.77178 -0.0822061 0
M  V30 48233 H 4845.87 1.50206 -0.512228 0
M  V30 48234 H 4845.89 3.6066 1.21263 0
M  V30 48235 H 4845.41 3.83468 -0.597805 0
M  V30 48236 H 4843.51 3.26207 1.80055 0
M  V30 48237 H 4843.62 4.74783 0.641738 0
M  V30 48238 H 4841.98 2.50926 0.436807 0
M  V30 48239 H 4842.77 3.26763 -1.05266 0
M  V30 48240 N 4845.21 0.018448 1.57589 0
M  V30 48241 C 4846.44 -0.672002 1.95366 0
M  V30 48242 C 4846.85 -1.66803 0.892931 0
M  V30 48243 O 4846.19 -1.83204 -0.134894 0
M  V30 48244 C 4846.25 -1.44385 3.29231 0
M  V30 48245 C 4845.92 -0.607352 4.52946 0
M  V30 48246 C 4846.92 0.11284 5.19778 0
M  V30 48247 C 4844.6 -0.547892 4.99303 0
M  V30 48248 C 4846.59 0.881279 6.31278 0
M  V30 48249 C 4844.28 0.224259 6.10688 0
M  V30 48250 C 4845.28 0.937561 6.76534 0
M  V30 48251 O 4844.97 1.69708 7.85783 0
M  V30 48252 H 4844.7 -0.190902 0.648485 0
M  V30 48253 H 4847.25 0.0712715 2.05276 0
M  V30 48254 H 4845.48 -2.23203 3.15781 0
M  V30 48255 H 4847.17 -2.02139 3.51987 0
M  V30 48256 H 4847.94 0.0761703 4.8494 0
M  V30 48257 H 4843.82 -1.09265 4.47864 0
M  V30 48258 H 4847.36 1.43856 6.82606 0
M  V30 48259 H 4843.26 0.262684 6.44965 0
M  V30 48260 H 4844.03 1.61573 8.02394 0
M  V30 48261 N 4846.69 -1.5553 -0.254567 0
M  V30 48262 C 4847.93 -1.78763 -0.991116 0
M  V30 48263 C 4848.29 -0.586734 -1.82815 0
M  V30 48264 O 4849.49 -0.697676 -2.59588 0
M  V30 48265 C 4847.77 -3.06685 -1.83519 0
M  V30 48266 S 4849.32 -3.51109 -2.63188 0
M  V30 48267 H 4846.14 -0.627927 -0.333509 0
M  V30 48268 H 4848.74 -1.93767 -0.25971 0
M  V30 48269 H 4847.45 -3.92162 -1.20983 0
M  V30 48270 H 4846.98 -2.94398 -2.60948 0
M  V30 48271 H 4848.99 -3.11837 -3.85969 0
M  V30 48272 N 4848.17 0.519898 -1.48778 0
M  V30 48273 C 4849.4 1.29777 -1.60753 0
M  V30 48274 C 4849.81 1.87252 -0.270786 0
M  V30 48275 O 4849.15 1.67631 0.751379 0
M  V30 48276 C 4849.21 2.47975 -2.60286 0
M  V30 48277 C 4848.87 2.11512 -4.05107 0
M  V30 48278 C 4849.87 1.66591 -4.92487 0
M  V30 48279 C 4847.56 2.21726 -4.50714 0
M  V30 48280 C 4849.55 1.32362 -6.23505 0
M  V30 48281 C 4847.24 1.87109 -5.8175 0
M  V30 48282 C 4848.24 1.42499 -6.67969 0
M  V30 48283 O 4847.92 1.08342 -7.96566 0
M  V30 48284 H 4847.66 0.400542 -0.544556 0
M  V30 48285 H 4850.21 0.632811 -1.95409 0
M  V30 48286 H 4848.44 3.17485 -2.20771 0
M  V30 48287 H 4850.13 3.10027 -2.61989 0
M  V30 48288 H 4850.89 1.58161 -4.58487 0
M  V30 48289 H 4846.77 2.55402 -3.83785 0
M  V30 48290 H 4850.32 0.974706 -6.90757 0
M  V30 48291 H 4846.21 1.95182 -6.15284 0
M  V30 48292 H 4846.98 1.21653 -8.09409 0
M  V30 48293 N 4849.65 1.37535 0.769539 0
M  V30 48294 C 4850.87 1.36064 1.55866 0
M  V30 48295 C 4851.29 -0.0534777 1.88724 0
M  V30 48296 O 4850.65 -1.01586 1.51613 0
M  V30 48297 C 4850.7 2.20117 2.86759 0
M  V30 48298 O 4850.42 3.56018 2.55309 0
M  V30 48299 C 4851.92 2.2665 3.80979 0
M  V30 48300 H 4849.14 0.465984 0.482805 0
M  V30 48301 H 4851.68 1.80904 0.953623 0
M  V30 48302 H 4849.84 1.7878 3.43681 0
M  V30 48303 H 4850.25 4.00102 3.39144 0
M  V30 48304 H 4851.73 2.89779 4.69821 0
M  V30 48305 H 4852.2 1.27555 4.20269 0
M  V30 48306 H 4852.81 2.68308 3.29986 0
M  V30 48307 N 4851.12 -0.995956 1.22141 0
M  V30 48308 C 4852.54 -1.25914 0.980711 0
M  V30 48309 C 4852.74 -1.9882 -0.327534 0
M  V30 48310 O 4851.8 -2.2959 -1.05093 0
M  V30 48311 C 4853.11 -2.07392 2.17737 0
M  V30 48312 C 4854.66 -2.20586 2.2206 0
M  V30 48313 C 4855.13 -3.0545 3.41269 0
M  V30 48314 N 4856.62 -3.13037 3.41412 0
M  V30 48315 C 4857.36 -3.78982 4.30302 0
M  V30 48316 N 4856.85 -4.4688 5.29405 0
M  V30 48317 N 4858.65 -3.75713 4.18086 0
M  V30 48318 H 4850.8 -0.507085 2.06258 0
M  V30 48319 H 4853.06 -0.286548 0.903656 0
M  V30 48320 H 4852.77 -1.6118 3.12592 0
M  V30 48321 H 4852.64 -3.08146 2.17545 0
M  V30 48322 H 4855.03 -2.66013 1.27754 0
M  V30 48323 H 4855.11 -1.19272 2.26292 0
M  V30 48324 H 4854.75 -2.60724 4.35873 0
M  V30 48325 H 4854.68 -4.06899 3.34277 0
M  V30 48326 H 4857.17 -2.64711 2.69697 0
M  V30 48327 H 4857.49 -4.94931 5.93518 0
M  V30 48328 H 4855.83 -4.45638 5.33321 0
M  V30 48329 H 4859.02 -3.21828 3.39918 0
M  V30 48330 H 4859.2 -4.26827 4.87568 0
M  V30 48331 N 4852.6 -1.03061 -1.19231 0
M  V30 48332 C 4853.88 -0.642673 -1.84741 0
M  V30 48333 C 4854.26 0.87851 -1.91952 0
M  V30 48334 O 4853.61 1.77592 -1.43782 0
M  V30 48335 C 4853.82 -1.30677 -3.23612 0
M  V30 48336 C 4855.17 -1.43112 -3.99755 0
M  V30 48337 O 4856.19 -1.26408 -3.33016 0
M  V30 48338 O 4855.05 -1.70241 -5.19307 0
M  V30 48339 H 4852.14 -0.223601 -0.796198 0
M  V30 48340 H 4854.69 -1.12887 -1.26707 0
M  V30 48341 H 4853.46 -2.34555 -3.13208 0
M  V30 48342 H 4853.08 -0.808541 -3.89292 0
M  V30 48343 N 4854.08 1.35269 -0.80871 0
M  V30 48344 C 4855.49 1.81177 -0.450752 0
M  V30 48345 C 4855.84 1.67146 1.02745 0
M  V30 48346 O 4854.97 1.20331 1.79859 0
M  V30 48347 C 4855.56 3.28941 -0.811391 0
M  V30 48348 C 4854.12 3.72983 -0.506002 0
M  V30 48349 C 4853.27 2.57226 -1.03587 0
M  V30 48350 H 4856.22 1.23217 -1.00016 0
M  V30 48351 H 4856.24 3.80342 -0.109722 0
M  V30 48352 H 4855.75 3.39121 -1.8873 0
M  V30 48353 H 4853.85 3.68351 0.561079 0
M  V30 48354 H 4853.97 4.67673 -1.04011 0
M  V30 48355 H 4852.33 2.50547 -0.458093 0
M  V30 48356 H 4853.11 2.70182 -2.11793 0
M  V30 48357 N 4855.56 0.5624 1.47224 0
M  V30 48358 C 4856.81 0.0402081 2.0206 0
M  V30 48359 C 4857.13 -1.31645 1.43856 0
M  V30 48360 O 4856.4 -1.85974 0.615665 0
M  V30 48361 H 4854.98 0.0118742 0.746906 0
M  V30 48362 H 4857.64 0.733584 1.80567 0
M  V30 48363 H 4856.74 -0.0440156 3.12069 0
M  V30 48364 N 4857.04 -1.54735 0.299116 0
M  V30 48365 C 4858.28 -2.00398 -0.311174 0
M  V30 48366 C 4858.62 -1.18722 -1.53684 0
M  V30 48367 O 4857.89 -0.263222 -1.92711 0
M  V30 48368 C 4858.17 -3.53819 -0.669636 0
M  V30 48369 C 4858.03 -4.46237 0.565039 0
M  V30 48370 C 4859.35 -4.13862 -1.49688 0
M  V30 48371 H 4856.46 -0.728497 -0.111628 0
M  V30 48372 H 4859.11 -1.85505 0.410839 0
M  V30 48373 H 4857.26 -3.66641 -1.28478 0
M  V30 48374 H 4858.93 -4.45323 1.20352 0
M  V30 48375 H 4857.17 -4.16912 1.19863 0
M  V30 48376 H 4857.84 -5.51339 0.270112 0
M  V30 48377 H 4860.32 -4.04464 -0.977142 0
M  V30 48378 H 4859.19 -5.21372 -1.71648 0
M  V30 48379 H 4859.46 -3.65616 -2.4855 0
M  V30 48380 N 4858.51 -0.0268051 -1.57577 0
M  V30 48381 C 4859.93 0.329565 -1.5616 0
M  V30 48382 C 4860.13 1.73055 -1.03219 0
M  V30 48383 O 4859.19 2.4323 -0.677889 0
M  V30 48384 C 4860.5 0.180284 -3.00159 0
M  V30 48385 C 4862.05 0.253224 -3.11974 0
M  V30 48386 C 4862.52 0.13276 -4.57808 0
M  V30 48387 N 4864.01 0.189817 -4.62811 0
M  V30 48388 C 4864.75 0.120353 -5.73274 0
M  V30 48389 N 4864.24 -6.32383e-05 -6.928 0
M  V30 48390 N 4866.04 0.174172 -5.6183 0
M  V30 48391 H 4858.19 -0.942963 -1.90321 0
M  V30 48392 H 4860.45 -0.363931 -0.875362 0
M  V30 48393 H 4860.16 -0.784696 -3.42834 0
M  V30 48394 H 4860.03 0.951436 -3.65003 0
M  V30 48395 H 4862.42 1.20866 -2.69212 0
M  V30 48396 H 4862.5 -0.548264 -2.49855 0
M  V30 48397 H 4862.14 -0.81925 -5.01249 0
M  V30 48398 H 4862.07 0.953082 -5.17903 0
M  V30 48399 H 4864.56 0.283125 -3.76838 0
M  V30 48400 H 4864.88 -0.0464383 -7.72786 0
M  V30 48401 H 4863.22 -0.0348133 -6.94991 0
M  V30 48402 H 4866.41 0.26663 -4.6734 0
M  V30 48403 H 4866.59 0.116575 -6.47895 0
M  V30 48404 N 4859.99 1.55663 0.246315 0
M  V30 48405 C 4861.24 1.78701 0.971463 0
M  V30 48406 C 4861.59 0.595834 1.82941 0
M  V30 48407 O 4860.89 -0.410904 1.87142 0
M  V30 48408 C 4861.08 3.04891 1.86484 0
M  V30 48409 C 4860.91 4.36169 1.09485 0
M  V30 48410 C 4859.68 4.98931 0.799719 0
M  V30 48411 C 4861.88 5.12128 0.472154 0
M  V30 48412 N 4859.86 6.139 0.00573717 0
M  V30 48413 C 4861.23 6.1972 -0.186378 0
M  V30 48414 C 4863.29 4.96427 0.382679 0
M  V30 48415 C 4861.99 7.13317 -0.925793 0
M  V30 48416 C 4864.01 5.90403 -0.343206 0
M  V30 48417 C 4863.38 6.97403 -0.990373 0
M  V30 48418 H 4859.48 0.705864 0.336572 0
M  V30 48419 H 4862.06 1.93158 0.244547 0
M  V30 48420 H 4860.23 2.91762 2.56378 0
M  V30 48421 H 4861.96 3.16221 2.52559 0
M  V30 48422 H 4858.72 4.60369 1.11165 0
M  V30 48423 H 4859.14 6.75936 -0.379364 0
M  V30 48424 H 4863.78 4.1378 0.868688 0
M  V30 48425 H 4861.5 7.95465 -1.4234 0
M  V30 48426 H 4865.09 5.80331 -0.413111 0
M  V30 48427 H 4863.97 7.68868 -1.54309 0
M  V30 48428 N 4861.47 -0.512001 1.49051 0
M  V30 48429 C 4862.38 -1.64133 1.67623 0
M  V30 48430 C 4863.4 -1.64784 0.558759 0
M  V30 48431 O 4864.57 -1.83407 0.832098 0
M  V30 48432 C 4861.64 -3.00542 1.72845 0
M  V30 48433 C 4860.7 -3.10604 2.9635 0
M  V30 48434 C 4859.93 -4.40506 3.01314 0
M  V30 48435 O 4860.15 -5.28663 2.14176 0
M  V30 48436 O 4859.09 -4.55311 3.93669 0
M  V30 48437 H 4862.91 -1.51397 2.63273 0
M  V30 48438 H 4860.5 -0.687085 1.32663 0
M  V30 48439 H 4862.38 -3.81635 1.78697 0
M  V30 48440 H 4861.06 -3.13563 0.803726 0
M  V30 48441 H 4859.96 -2.28739 2.96022 0
M  V30 48442 H 4861.3 -3.02506 3.88267 0
M  V30 48443 N 4862.95 -1.37941 -0.762235 0
M  V30 48444 C 4864.18 -1.3669 -1.54917 0
M  V30 48445 C 4864.59 0.0473434 -1.89141 0
M  V30 48446 O 4863.93 1.02207 -1.52641 0
M  V30 48447 C 4863.99 -2.14973 -2.88144 0
M  V30 48448 C 4863.66 -3.6386 -2.76505 0
M  V30 48449 C 4864.65 -4.5754 -2.46887 0
M  V30 48450 C 4862.34 -4.07105 -2.94229 0
M  V30 48451 C 4864.33 -5.92444 -2.35135 0
M  V30 48452 C 4862.02 -5.42093 -2.82097 0
M  V30 48453 C 4863.02 -6.34576 -2.52591 0
M  V30 48454 O 4862.7 -7.67081 -2.40502 0
M  V30 48455 H 4862.44 -0.469603 -0.48626 0
M  V30 48456 H 4864.99 -1.82016 -0.951812 0
M  V30 48457 H 4863.22 -1.64352 -3.50036 0
M  V30 48458 H 4864.91 -2.06237 -3.49601 0
M  V30 48459 H 4865.68 -4.25436 -2.32871 0
M  V30 48460 H 4861.55 -3.35473 -3.16194 0
M  V30 48461 H 4865.1 -6.64598 -2.12026 0
M  V30 48462 H 4861 -5.73796 -2.95684 0
M  V30 48463 H 4861.76 -7.77508 -2.5578 0
M  V30 48464 N 4864.43 0.989464 -1.22668 0
M  V30 48465 C 4865.67 1.74466 -1.06494 0
M  V30 48466 C 4866.03 1.87942 0.392671 0
M  V30 48467 O 4867.23 2.60178 0.675354 0
M  V30 48468 C 4865.5 3.11037 -1.76042 0
M  V30 48469 S 4867.06 4.02252 -1.75324 0
M  V30 48470 H 4863.88 0.60011 -0.381299 0
M  V30 48471 H 4866.48 1.18277 -1.55662 0
M  V30 48472 H 4865.19 2.98874 -2.81252 0
M  V30 48473 H 4864.72 3.72296 -1.27118 0
M  V30 48474 H 4866.73 4.8962 -0.80538 0
M  V30 48475 N 4865.91 1.03692 1.18683 0
M  V30 48476 C 4866.85 0.618371 2.2423 0
M  V30 48477 C 4867.85 -0.352987 1.65682 0
M  V30 48478 O 4869.05 -0.220687 1.78642 0
M  V30 48479 H 4865.43 0.181736 0.729709 0
M  V30 48480 H 4867.4 1.51902 2.56843 0
M  V30 48481 C 4866.15 -0.00665119 3.47699 0
M  V30 48482 H 4865.47 0.73183 3.93045 0
M  V30 48483 H 4866.91 -0.262343 4.23188 0
M  V30 48484 C 4865.37 -1.25561 3.12628 0
M  V30 48485 O 4865.9 -2.34679 3.26019 0
M  V30 48486 N 4864.11 -1.14746 2.66987 0
M  V30 48487 H 4863.65 -0.259511 2.56289 0
M  V30 48488 H 4863.61 -1.98404 2.43892 0
M  V30 48489 N 4867.38 -1.34838 0.815872 0
M  V30 48490 C 4868.31 -2.32186 0.24738 0
M  V30 48491 C 4869.29 -1.57912 -0.632289 0
M  V30 48492 O 4870.48 -1.85932 -0.560633 0
M  V30 48493 C 4867.61 -3.42124 -0.597346 0
M  V30 48494 C 4866.56 -4.27602 0.184597 0
M  V30 48495 C 4865.89 -5.28944 -0.782423 0
M  V30 48496 C 4867.19 -5.03497 1.38883 0
M  V30 48497 H 4868.88 -2.79981 1.06071 0
M  V30 48498 H 4866.43 -1.34609 0.511509 0
M  V30 48499 H 4868.38 -4.09236 -1.00518 0
M  V30 48500 H 4867.11 -2.92961 -1.44366 0
M  V30 48501 H 4865.77 -3.62083 0.57372 0
M  V30 48502 H 4865.41 -4.76045 -1.62449 0
M  V30 48503 H 4865.11 -5.87009 -0.263489 0
M  V30 48504 H 4866.64 -5.98926 -1.18827 0
M  V30 48505 H 4868.05 -5.63502 1.05537 0
M  V30 48506 H 4866.45 -5.71102 1.8429 0
M  V30 48507 H 4867.52 -4.336 2.17069 0
M  V30 48508 N 4868.86 -0.570199 -1.46923 0
M  V30 48509 C 4870.09 -0.0562693 -2.06823 0
M  V30 48510 C 4870.5 1.24321 -1.4209 0
M  V30 48511 O 4869.86 1.7488 -0.521856 0
M  V30 48512 C 4869.91 0.12939 -3.61268 0
M  V30 48513 O 4869.63 -1.11865 -4.23578 0
M  V30 48514 C 4871.13 0.679112 -4.38067 0
M  V30 48515 H 4868.35 -0.0517496 -0.669001 0
M  V30 48516 H 4870.9 -0.78731 -1.88737 0
M  V30 48517 H 4869.05 0.810605 -3.78824 0
M  V30 48518 H 4869.47 -0.924556 -5.16287 0
M  V30 48519 H 4870.94 0.758252 -5.46767 0
M  V30 48520 H 4871.42 1.69332 -4.05245 0
M  V30 48521 H 4872.02 0.0331742 -4.25287 0
M  V30 48522 N 4870.34 1.54575 -0.307318 0
M  V30 48523 C 4871.27 2.21215 0.59973 0
M  V30 48524 C 4872.28 1.20689 1.09261 0
M  V30 48525 O 4873.47 1.47247 1.00898 0
M  V30 48526 C 4870.57 2.85001 1.83379 0
M  V30 48527 C 4869.75 4.11516 1.48233 0
M  V30 48528 C 4868.81 4.59047 2.5722 0
M  V30 48529 O 4867.83 5.24103 2.22047 0
M  V30 48530 N 4869.03 4.31898 3.87872 0
M  V30 48531 H 4871.8 2.99686 0.0292021 0
M  V30 48532 H 4869.36 1.61379 -0.129795 0
M  V30 48533 H 4871.35 3.13729 2.55649 0
M  V30 48534 H 4869.92 2.10332 2.31255 0
M  V30 48535 H 4869.14 3.8973 0.591985 0
M  V30 48536 H 4870.43 4.93883 1.22299 0
M  V30 48537 H 4869.83 3.79793 4.19254 0
M  V30 48538 H 4868.38 4.6532 4.56421 0
M  V30 48539 N 4871.82 0.0351614 1.57561 0
M  V30 48540 C 4873.06 -0.646247 1.93915 0
M  V30 48541 C 4873.42 -1.68944 0.912244 0
M  V30 48542 O 4874.62 -2.42377 1.16218 0
M  V30 48543 C 4872.89 -1.24124 3.35154 0
M  V30 48544 S 4874.45 -1.94288 3.93443 0
M  V30 48545 H 4871.27 -0.212618 0.678465 0
M  V30 48546 H 4873.87 0.100272 1.95243 0
M  V30 48547 H 4872.58 -0.469647 4.07704 0
M  V30 48548 H 4872.11 -2.02493 3.37283 0
M  V30 48549 H 4874.12 -3.22192 3.77368 0
M  V30 48550 N 4873.3 -1.55792 -0.238056 0
M  V30 48551 C 4874.52 -1.82443 -0.986368 0
M  V30 48552 C 4874.95 -0.613376 -1.77818 0
M  V30 48553 O 4874.3 0.437705 -1.75937 0
M  V30 48554 C 4874.35 -3.06923 -1.89289 0
M  V30 48555 O 4873.46 -2.84459 -2.98591 0
M  V30 48556 H 4872.8 -0.601985 -0.280197 0
M  V30 48557 H 4875.33 -2.02987 -0.256366 0
M  V30 48558 H 4875.34 -3.36591 -2.30587 0
M  V30 48559 H 4874.01 -3.94704 -1.31077 0
M  V30 48560 H 4872.59 -2.65982 -2.61358 0
M  V30 48561 N 4874.77 0.504089 -1.49321 0
M  V30 48562 C 4876.05 1.26543 -1.49152 0
M  V30 48563 C 4876.43 2.09976 -0.217514 0
M  V30 48564 O 4875.78 2.14031 0.800194 0
M  V30 48565 C 4875.99 2.12479 -2.76864 0
M  V30 48566 C 4877.34 2.71769 -3.26231 0
M  V30 48567 O 4878.36 2.22748 -2.7796 0
M  V30 48568 O 4877.22 3.61 -4.10294 0
M  V30 48569 H 4874.31 0.572474 -0.596827 0
M  V30 48570 H 4876.86 0.518614 -1.61581 0
M  V30 48571 H 4875.63 1.50783 -3.61082 0
M  V30 48572 H 4875.25 2.94359 -2.6728 0
M  V30 48573 N 4876.25 1.38343 0.754909 0
M  V30 48574 C 4877.21 1.35268 1.85027 0
M  V30 48575 C 4878.21 0.253449 1.5879 0
M  V30 48576 O 4879.4 0.510264 1.66559 0
M  V30 48577 C 4876.54 1.10556 3.22475 0
M  V30 48578 H 4877.73 2.32718 1.89162 0
M  V30 48579 H 4875.28 1.23618 0.956471 0
M  V30 48580 H 4876.02 0.137066 3.2401 0
M  V30 48581 H 4875.8 1.90139 3.42913 0
M  V30 48582 H 4877.29 1.11096 4.02551 0
M  V30 48583 N 4877.73 -0.982945 1.23191 0
M  V30 48584 C 4878.64 -2.10904 1.02747 0
M  V30 48585 C 4879.66 -1.73979 -0.0272577 0
M  V30 48586 O 4880.83 -2.00701 0.167641 0
M  V30 48587 C 4877.9 -3.4114 0.618424 0
M  V30 48588 C 4876.96 -3.92106 1.7479 0
M  V30 48589 C 4876.19 -5.16126 1.35828 0
M  V30 48590 O 4876.41 -5.69889 0.241401 0
M  V30 48591 O 4875.35 -5.61095 2.17844 0
M  V30 48592 H 4879.17 -2.31039 1.97116 0
M  V30 48593 H 4876.76 -1.0928 1.01873 0
M  V30 48594 H 4878.64 -4.19486 0.401129 0
M  V30 48595 H 4877.32 -3.22341 -0.296307 0
M  V30 48596 H 4876.22 -3.14888 2.01982 0
M  V30 48597 H 4877.56 -4.15355 2.64086 0
M  V30 48598 N 4879.21 -1.0432 -1.18132 0
M  V30 48599 C 4880.46 -0.746608 -1.87804 0
M  V30 48600 C 4880.78 0.728018 -1.809 0
M  V30 48601 O 4880.05 1.5255 -1.22904 0
M  V30 48602 H 4878.63 -0.273182 -0.695256 0
M  V30 48603 H 4881.29 -1.32049 -1.43349 0
M  V30 48604 H 4880.39 -1.05372 -2.93774 0
M  V30 48605 N 4880.69 1.34403 -0.823012 0
M  V30 48606 C 4881.91 2.02507 -0.424111 0
M  V30 48607 C 4882.33 1.61979 0.969965 0
M  V30 48608 O 4881.69 0.825286 1.62774 0
M  V30 48609 C 4881.74 3.57787 -0.516783 0
M  V30 48610 O 4881.46 3.96847 -1.85591 0
M  V30 48611 C 4882.96 4.43156 -0.112793 0
M  V30 48612 H 4880.18 0.649057 -0.170196 0
M  V30 48613 H 4882.72 1.71676 -1.11119 0
M  V30 48614 H 4880.88 3.87207 0.122217 0
M  V30 48615 H 4881.29 4.91531 -1.83022 0
M  V30 48616 H 4882.77 5.51526 -0.22872 0
M  V30 48617 H 4883.24 4.28942 0.943686 0
M  V30 48618 H 4883.85 4.19065 -0.725596 0
M  V30 48619 N 4882.16 0.577983 1.46619 0
M  V30 48620 C 4883.13 -0.147725 2.28723 0
M  V30 48621 C 4884.13 -0.823276 1.38126 0
M  V30 48622 O 4885.32 -0.675954 1.60551 0
M  V30 48623 C 4882.45 -1.21842 3.18382 0
M  V30 48624 H 4883.64 0.573757 2.9436 0
M  V30 48625 H 4881.2 0.335757 1.52651 0
M  V30 48626 H 4881.93 -1.97164 2.57482 0
M  V30 48627 H 4881.72 -0.738579 3.85081 0
M  V30 48628 H 4883.21 -1.72754 3.80192 0
M  V30 48629 N 4883.64 -1.54409 0.315511 0
M  V30 48630 C 4884.89 -2.00717 -0.289901 0
M  V30 48631 C 4885.22 -1.20345 -1.52416 0
M  V30 48632 O 4884.5 -0.283647 -1.92421 0
M  V30 48633 C 4884.78 -3.54509 -0.632071 0
M  V30 48634 C 4884.63 -4.45612 0.612337 0
M  V30 48635 C 4885.95 -4.15426 -1.4529 0
M  V30 48636 H 4883.07 -0.72964 -0.103895 0
M  V30 48637 H 4885.71 -1.85059 0.430492 0
M  V30 48638 H 4883.86 -3.67983 -1.24582 0
M  V30 48639 H 4885.53 -4.44022 1.25069 0
M  V30 48640 H 4883.78 -4.15617 1.24279 0
M  V30 48641 H 4884.45 -5.51021 0.328573 0
M  V30 48642 H 4886.92 -4.05478 -0.934188 0
M  V30 48643 H 4885.8 -5.23163 -1.66108 0
M  V30 48644 H 4886.06 -3.68232 -2.44658 0
M  V30 48645 N 4885.12 -0.0435168 -1.5754 0
M  V30 48646 C 4886.08 0.918622 -2.09986 0
M  V30 48647 C 4887.08 1.24485 -1.01785 0
M  V30 48648 O 4888.27 1.1828 -1.27889 0
M  V30 48649 C 4885.41 2.23084 -2.57772 0
M  V30 48650 H 4886.6 0.464125 -2.96287 0
M  V30 48651 H 4884.15 0.204763 -1.54953 0
M  V30 48652 H 4884.89 2.73131 -1.74842 0
M  V30 48653 H 4884.67 2.00712 -3.36834 0
M  V30 48654 H 4886.16 2.92018 -2.98522 0
M  V30 48655 N 4886.6 1.55916 0.229791 0
M  V30 48656 C 4888.01 1.68811 0.797472 0
M  V30 48657 C 4888.36 0.64406 1.85328 0
M  V30 48658 O 4887.49 -0.206416 2.15413 0
M  V30 48659 C 4888.08 3.06048 1.45328 0
M  V30 48660 C 4886.64 3.20826 1.96845 0
M  V30 48661 C 4885.79 2.64723 0.825643 0
M  V30 48662 H 4888.74 1.58699 0.00528154 0
M  V30 48663 H 4888.76 3.01447 2.32186 0
M  V30 48664 H 4888.27 3.82014 0.684609 0
M  V30 48665 H 4886.37 2.49714 2.76539 0
M  V30 48666 H 4886.48 4.27944 2.15408 0
M  V30 48667 H 4884.85 2.2299 1.23076 0
M  V30 48668 H 4885.63 3.43229 0.0697813 0
M  V30 48669 N 4888.08 -0.496163 1.49586 0
M  V30 48670 C 4889.49 -1.0776 1.52462 0
M  V30 48671 C 4889.84 -1.93678 0.313598 0
M  V30 48672 O 4888.96 -2.0859 -0.576113 0
M  V30 48673 C 4889.56 -1.96102 2.76278 0
M  V30 48674 C 4888.12 -2.49399 2.81917 0
M  V30 48675 C 4887.26 -1.27133 2.46439 0
M  V30 48676 H 4890.22 -0.279859 1.56213 0
M  V30 48677 H 4890.24 -2.80853 2.56714 0
M  V30 48678 H 4889.75 -1.33542 3.64401 0
M  V30 48679 H 4887.85 -3.15583 1.98086 0
M  V30 48680 H 4887.96 -2.86221 3.84206 0
M  V30 48681 H 4886.33 -1.59811 1.98324 0
M  V30 48682 H 4887.11 -0.662747 3.36842 0
M  V30 48683 N 4889.55 -1.38742 -0.747561 0
M  V30 48684 C 4890.78 -1.38527 -1.53682 0
M  V30 48685 C 4891.2 0.0234465 -1.88785 0
M  V30 48686 O 4890.55 0.991609 -1.5321 0
M  V30 48687 C 4890.61 -2.24651 -2.83221 0
M  V30 48688 O 4890.33 -3.60035 -2.49612 0
M  V30 48689 C 4891.83 -2.32682 -3.77325 0
M  V30 48690 H 4889.05 -0.473606 -0.47533 0
M  V30 48691 H 4891.59 -1.82398 -0.924722 0
M  V30 48692 H 4889.75 -1.84225 -3.40793 0
M  V30 48693 H 4890.16 -4.05447 -3.32736 0
M  V30 48694 H 4891.63 -2.97217 -4.65152 0
M  V30 48695 H 4892.11 -1.34225 -4.18187 0
M  V30 48696 H 4892.72 -2.73524 -3.25676 0
M  V30 48697 N 4891.03 0.976398 -1.2371 0
M  V30 48698 C 4892.28 1.72077 -1.07318 0
M  V30 48699 C 4892.61 1.90276 0.388409 0
M  V30 48700 O 4891.89 1.45794 1.28741 0
M  V30 48701 C 4892.17 3.11669 -1.80374 0
M  V30 48702 C 4892.02 3.01015 -3.3423 0
M  V30 48703 C 4893.34 4.11165 -1.56944 0
M  V30 48704 H 4890.46 0.624569 -0.391258 0
M  V30 48705 H 4893.1 1.13644 -1.52267 0
M  V30 48706 H 4891.25 3.61554 -1.42166 0
M  V30 48707 H 4892.92 2.58623 -3.81984 0
M  V30 48708 H 4891.17 2.37428 -3.63057 0
M  V30 48709 H 4891.84 3.99867 -3.8054 0
M  V30 48710 H 4894.31 3.70104 -1.90164 0
M  V30 48711 H 4893.19 5.0692 -2.10531 0
M  V30 48712 H 4893.45 4.39198 -0.505702 0
M  V30 48713 N 4892.51 1.04945 1.17577 0
M  V30 48714 C 4893.74 0.778362 1.91701 0
M  V30 48715 C 4894.15 -0.665635 1.76677 0
M  V30 48716 O 4893.51 -1.45452 1.10227 0
M  V30 48717 C 4893.56 1.1464 3.42841 0
M  V30 48718 O 4893.28 2.53371 3.574 0
M  V30 48719 C 4894.78 0.901083 4.34045 0
M  V30 48720 H 4892 0.283188 0.608314 0
M  V30 48721 H 4894.55 1.39947 1.49114 0
M  V30 48722 H 4892.7 0.570087 3.83182 0
M  V30 48723 H 4893.12 2.67725 4.51025 0
M  V30 48724 H 4894.59 1.20836 5.38612 0
M  V30 48725 H 4895.07 -0.163812 4.38894 0
M  V30 48726 H 4895.67 1.46112 3.99414 0
M  V30 48727 N 4893.99 -1.33965 0.830128 0
M  V30 48728 C 4895.4 -1.80437 0.479518 0
M  V30 48729 C 4895.75 -1.6876 -1.00073 0
M  V30 48730 O 4894.88 -1.23177 -1.77922 0
M  V30 48731 C 4895.47 -3.27608 0.86362 0
M  V30 48732 C 4894.03 -3.72131 0.565276 0
M  V30 48733 C 4893.18 -2.55545 1.07666 0
M  V30 48734 H 4896.13 -1.2161 1.01964 0
M  V30 48735 H 4896.15 -3.80119 0.170217 0
M  V30 48736 H 4895.66 -3.36075 1.94101 0
M  V30 48737 H 4893.76 -3.69197 -0.502407 0
M  V30 48738 H 4893.88 -4.6596 1.11439 0
M  V30 48739 H 4892.24 -2.49786 0.497895 0
M  V30 48740 H 4893.02 -2.66779 2.16065 0
M  V30 48741 N 4895.47 -0.585751 -1.4631 0
M  V30 48742 C 4896.71 -0.0725996 -2.0267 0
M  V30 48743 C 4897.05 1.28518 -1.45591 0
M  V30 48744 O 4896.32 1.84281 -0.622166 0
M  V30 48745 C 4896.6 -0.0101054 -3.60099 0
M  V30 48746 C 4896.46 -1.397 -4.27556 0
M  V30 48747 C 4897.78 0.688964 -4.34674 0
M  V30 48748 H 4894.9 -0.0278566 -0.736473 0
M  V30 48749 H 4897.54 -0.753533 -1.74419 0
M  V30 48750 H 4895.69 0.569785 -3.84299 0
M  V30 48751 H 4897.36 -2.02229 -4.1461 0
M  V30 48752 H 4895.6 -1.96387 -3.868 0
M  V30 48753 H 4896.27 -1.30572 -5.36335 0
M  V30 48754 H 4898.75 0.1963 -4.15637 0
M  V30 48755 H 4897.63 0.70173 -5.44396 0
M  V30 48756 H 4897.89 1.75087 -4.05952 0
M  V30 48757 N 4896.95 1.5424 -0.323695 0
M  V30 48758 C 4898.36 1.85975 0.16434 0
M  V30 48759 C 4898.71 1.24534 1.5161 0
M  V30 48760 O 4897.83 0.551425 2.09256 0
M  V30 48761 C 4898.43 3.37425 0.304972 0
M  V30 48762 C 4896.99 3.6911 0.737228 0
M  V30 48763 C 4896.13 2.76941 -0.140981 0
M  V30 48764 H 4899.08 1.49086 -0.543974 0
M  V30 48765 H 4899.11 3.63151 1.13585 0
M  V30 48766 H 4898.62 3.82114 -0.67901 0
M  V30 48767 H 4896.72 3.29953 1.73095 0
M  V30 48768 H 4896.83 4.76037 0.540886 0
M  V30 48769 H 4895.2 2.51797 0.383483 0
M  V30 48770 H 4895.98 3.24457 -1.12173 0
M  V30 48771 N 4898.42 0.0518709 1.57515 0
M  V30 48772 C 4899.65 -0.634827 1.97445 0
M  V30 48773 C 4900.07 -1.63543 0.929265 0
M  V30 48774 O 4899.43 -1.80981 -0.10742 0
M  V30 48775 C 4899.48 -1.29753 3.36447 0
M  V30 48776 O 4898.58 -2.41321 3.34422 0
M  V30 48777 H 4897.92 -0.164972 0.64318 0
M  V30 48778 H 4900.45 0.120478 2.04245 0
M  V30 48779 H 4900.46 -1.64905 3.73189 0
M  V30 48780 H 4899.14 -0.564216 4.12055 0
M  V30 48781 H 4897.72 -2.08111 3.09425 0
M  V30 48782 N 4899.9 -1.56035 -0.221519 0
M  V30 48783 C 4900.83 -1.95439 -1.27773 0
M  V30 48784 C 4901.81 -0.822616 -1.48886 0
M  V30 48785 O 4903 -1.08492 -1.61069 0
M  V30 48786 C 4900.13 -2.27111 -2.62751 0
M  V30 48787 C 4899.08 -3.42779 -2.56294 0
M  V30 48788 C 4898.41 -3.60056 -3.95302 0
M  V30 48789 C 4899.71 -4.77749 -2.11076 0
M  V30 48790 H 4901.4 -2.83915 -0.950404 0
M  V30 48791 H 4898.95 -1.36598 -0.455743 0
M  V30 48792 H 4900.9 -2.53268 -3.36799 0
M  V30 48793 H 4899.62 -1.35488 -2.97171 0
M  V30 48794 H 4898.28 -3.16671 -1.84703 0
M  V30 48795 H 4897.93 -2.65809 -4.2703 0
M  V30 48796 H 4897.63 -4.37855 -3.91863 0
M  V30 48797 H 4899.16 -3.88562 -4.71012 0
M  V30 48798 H 4900.57 -5.03111 -2.74867 0
M  V30 48799 H 4898.97 -5.58831 -2.18697 0
M  V30 48800 H 4900.04 -4.73104 -1.06304 0
M  V30 48801 N 4901.38 0.488223 -1.49847 0
M  V30 48802 C 4902.29 1.61445 -1.70213 0
M  V30 48803 C 4903.31 1.63875 -0.584904 0
M  V30 48804 O 4904.48 1.8206 -0.861171 0
M  V30 48805 C 4901.55 2.97754 -1.77605 0
M  V30 48806 C 4900.61 3.0585 -3.01254 0
M  V30 48807 C 4899.84 4.35657 -3.08284 0
M  V30 48808 O 4900.06 5.25189 -2.22559 0
M  V30 48809 O 4899 4.48991 -4.00863 0
M  V30 48810 H 4902.82 1.4719 -2.65648 0
M  V30 48811 H 4900.41 0.665892 -1.33739 0
M  V30 48812 H 4902.29 3.78744 -1.84746 0
M  V30 48813 H 4900.97 3.12245 -0.853509 0
M  V30 48814 H 4899.87 2.24001 -2.99624 0
M  V30 48815 H 4901.21 2.96291 -3.9303 0
M  V30 48816 N 4902.86 1.39136 0.740193 0
M  V30 48817 C 4903.82 1.37223 1.83582 0
M  V30 48818 C 4904.82 0.270277 1.58512 0
M  V30 48819 O 4906.01 0.527901 1.66009 0
M  V30 48820 C 4903.14 1.1397 3.21284 0
M  V30 48821 H 4904.34 2.34712 1.86683 0
M  V30 48822 H 4901.89 1.24625 0.943306 0
M  V30 48823 H 4902.62 0.171424 3.23847 0
M  V30 48824 H 4902.41 1.93766 3.40877 0
M  V30 48825 H 4903.9 1.1536 4.0135 0
M  V30 48826 N 4904.34 -0.969824 1.24226 0
M  V30 48827 C 4905.75 -1.52713 1.07404 0
M  V30 48828 C 4906.1 -1.92957 -0.355231 0
M  V30 48829 O 4905.22 -1.77116 -1.24334 0
M  V30 48830 C 4905.82 -2.77514 1.94349 0
M  V30 48831 C 4904.38 -3.29608 1.81756 0
M  V30 48832 C 4903.52 -2.0253 1.89412 0
M  V30 48833 H 4906.47 -0.78835 1.37734 0
M  V30 48834 H 4906.5 -3.50768 1.47452 0
M  V30 48835 H 4906.01 -2.48192 2.98366 0
M  V30 48836 H 4904.11 -3.63786 0.805633 0
M  V30 48837 H 4904.22 -3.98652 2.65732 0
M  V30 48838 H 4902.59 -2.17146 1.33116 0
M  V30 48839 H 4903.37 -1.75576 2.95005 0
M  V30 48840 N 4905.81 -1.05567 -1.17018 0
M  V30 48841 C 4907.04 -0.788505 -1.91826 0
M  V30 48842 C 4907.46 0.650294 -1.76502 0
M  V30 48843 O 4906.82 1.45226 -1.08532 0
M  V30 48844 C 4906.87 -1.17872 -3.40791 0
M  V30 48845 O 4905.97 -0.31311 -4.1121 0
M  V30 48846 H 4905.31 -0.288815 -0.597898 0
M  V30 48847 H 4907.84 -1.40953 -1.48302 0
M  V30 48848 H 4907.85 -1.14711 -3.91542 0
M  V30 48849 H 4906.53 -2.22678 -3.51265 0
M  V30 48850 H 4905.11 -0.405645 -3.70687 0
M  V30 48851 N 4907.29 1.33523 -0.837221 0
M  V30 48852 C 4908.2 2.33022 -0.27165 0
M  V30 48853 C 4909.22 1.63274 0.601456 0
M  V30 48854 O 4910.39 1.94941 0.505969 0
M  V30 48855 C 4907.46 3.42384 0.545327 0
M  V30 48856 C 4906.52 4.27856 -0.351859 0
M  V30 48857 C 4905.75 5.31995 0.426222 0
M  V30 48858 O 4905.98 5.45769 1.65809 0
M  V30 48859 O 4904.91 6.01571 -0.198911 0
M  V30 48860 H 4908.74 2.83252 -1.09554 0
M  V30 48861 H 4906.32 1.36835 -0.599703 0
M  V30 48862 H 4908.2 4.09126 1.00965 0
M  V30 48863 H 4906.88 2.94374 1.34631 0
M  V30 48864 H 4905.78 3.63987 -0.863981 0
M  V30 48865 H 4907.12 4.79345 -1.11757 0
M  V30 48866 N 4908.77 0.593501 1.45998 0
M  V30 48867 C 4909.7 -0.171489 2.28558 0
M  V30 48868 C 4910.72 -0.845224 1.3914 0
M  V30 48869 O 4911.9 -0.712975 1.63643 0
M  V30 48870 C 4909 -1.263 3.14486 0
M  V30 48871 C 4908.18 -0.679106 4.32096 0
M  V30 48872 C 4907.24 -1.6597 4.9934 0
M  V30 48873 O 4906.26 -1.19151 5.56589 0
M  V30 48874 N 4907.46 -2.99397 4.97335 0
M  V30 48875 H 4910.23 0.536875 2.94852 0
M  V30 48876 H 4907.79 0.432009 1.5603 0
M  V30 48877 H 4909.78 -1.9185 3.56336 0
M  V30 48878 H 4908.35 -1.87407 2.50194 0
M  V30 48879 H 4907.57 0.154131 3.93899 0
M  V30 48880 H 4908.86 -0.268981 5.08089 0
M  V30 48881 H 4908.26 -3.40048 4.52088 0
M  V30 48882 H 4906.82 -3.60407 5.43093 0
M  V30 48883 N 4910.25 -1.54066 0.33187 0
M  V30 48884 C 4911.21 -2.23277 -0.51769 0
M  V30 48885 C 4912.21 -1.229 -1.03693 0
M  V30 48886 O 4913.4 -1.47422 -0.928032 0
M  V30 48887 C 4910.53 -2.94332 -1.71993 0
M  V30 48888 H 4911.73 -2.99772 0.0874561 0
M  V30 48889 H 4909.28 -1.56079 0.0830591 0
M  V30 48890 H 4910.01 -2.21994 -2.36409 0
M  V30 48891 H 4909.8 -3.67946 -1.35494 0
M  V30 48892 H 4911.29 -3.47039 -2.32279 0
M  V30 48893 N 4911.73 -0.0602235 -1.57485 0
M  V30 48894 C 4913.14 0.474153 -1.80579 0
M  V30 48895 C 4913.49 1.70362 -0.973207 0
M  V30 48896 O 4912.61 2.15543 -0.192382 0
M  V30 48897 C 4913.21 0.866987 -3.27519 0
M  V30 48898 C 4911.77 1.34629 -3.515 0
M  V30 48899 C 4910.91 0.325843 -2.75379 0
M  V30 48900 H 4913.87 -0.286028 -1.56101 0
M  V30 48901 H 4913.89 1.72926 -3.38935 0
M  V30 48902 H 4913.4 -0.0280291 -3.8809 0
M  V30 48903 H 4911.5 2.26019 -2.96219 0
M  V30 48904 H 4911.61 1.3322 -4.60206 0
M  V30 48905 H 4909.98 0.800664 -2.41788 0
M  V30 48906 H 4910.76 -0.561244 -3.38681 0
M  V30 48907 N 4913.2 1.56151 0.213241 0
M  V30 48908 C 4914.43 1.83641 0.953074 0
M  V30 48909 C 4914.85 0.640425 1.77606 0
M  V30 48910 O 4914.2 -0.391008 1.78262 0
M  V30 48911 C 4914.26 3.09741 1.86394 0
M  V30 48912 O 4913.98 4.24726 1.0742 0
M  V30 48913 C 4915.48 3.50279 2.71697 0
M  V30 48914 H 4912.7 0.610273 0.27894 0
M  V30 48915 H 4915.24 2.03248 0.225963 0
M  V30 48916 H 4913.4 2.92085 2.54489 0
M  V30 48917 H 4913.81 4.96416 1.69326 0
M  V30 48918 H 4915.28 4.41527 3.31297 0
M  V30 48919 H 4915.76 2.72418 3.44507 0
M  V30 48920 H 4916.37 3.70403 2.09002 0
M  V30 48921 N 4914.68 -0.48027 1.50104 0
M  V30 48922 C 4915.59 -1.60541 1.71067 0
M  V30 48923 C 4916.61 -1.63562 0.593587 0
M  V30 48924 O 4917.78 -1.81601 0.870814 0
M  V30 48925 C 4914.85 -2.96808 1.79181 0
M  V30 48926 C 4913.91 -3.04248 3.02872 0
M  V30 48927 C 4913.14 -4.34016 3.1059 0
M  V30 48928 O 4913.37 -5.24001 2.25341 0
M  V30 48929 O 4912.3 -4.46858 4.03238 0
M  V30 48930 H 4916.13 -1.45779 2.66425 0
M  V30 48931 H 4913.71 -0.65879 1.34091 0
M  V30 48932 H 4915.59 -3.77759 1.86752 0
M  V30 48933 H 4914.27 -3.11788 0.870056 0
M  V30 48934 H 4913.18 -2.22409 3.00807 0
M  V30 48935 H 4914.51 -2.94202 3.94596 0
M  V30 48936 N 4916.16 -1.39527 -0.732804 0
M  V30 48937 C 4917.09 -1.34325 -1.85713 0
M  V30 48938 C 4918.11 -0.251632 -1.60844 0
M  V30 48939 O 4919.29 -0.510745 -1.71037 0
M  V30 48940 C 4916.39 -1.06345 -3.21782 0
M  V30 48941 C 4915.57 -2.26826 -3.7399 0
M  V30 48942 C 4914.63 -1.9527 -4.88627 0
M  V30 48943 O 4913.65 -2.67974 -5.02174 0
M  V30 48944 N 4914.85 -0.920186 -5.7316 0
M  V30 48945 H 4917.62 -2.31217 -1.9068 0
M  V30 48946 H 4915.18 -1.33658 -0.913633 0
M  V30 48947 H 4917.17 -0.832502 -3.96045 0
M  V30 48948 H 4915.74 -0.181792 -3.12071 0
M  V30 48949 H 4914.96 -2.65859 -2.91054 0
M  V30 48950 H 4916.25 -3.07184 -4.05605 0
M  V30 48951 H 4915.65 -0.317686 -5.64807 0
M  V30 48952 H 4914.21 -0.749133 -6.47481 0
M  V30 48953 N 4917.64 0.963222 -1.24739 0
M  V30 48954 C 4919.05 1.23269 -1.01375 0
M  V30 48955 C 4919.25 1.99619 0.274706 0
M  V30 48956 O 4918.31 2.32296 0.989688 0
M  V30 48957 C 4919.62 2.01546 -2.23159 0
M  V30 48958 C 4921.17 2.14621 -2.2783 0
M  V30 48959 C 4921.65 2.96294 -3.49247 0
M  V30 48960 N 4923.14 3.03875 -3.49591 0
M  V30 48961 C 4923.87 3.6744 -4.40199 0
M  V30 48962 N 4923.37 4.32687 -5.41067 0
M  V30 48963 N 4925.16 3.64496 -4.27901 0
M  V30 48964 H 4917.31 0.452221 -2.0753 0
M  V30 48965 H 4919.58 0.262488 -0.910936 0
M  V30 48966 H 4919.28 1.52836 -3.16756 0
M  V30 48967 H 4919.16 3.0227 -2.25638 0
M  V30 48968 H 4921.54 2.62532 -1.34762 0
M  V30 48969 H 4921.62 1.1323 -2.29374 0
M  V30 48970 H 4921.27 2.49076 -4.42633 0
M  V30 48971 H 4921.2 3.97893 -3.44947 0
M  V30 48972 H 4923.69 2.57468 -2.7662 0
M  V30 48973 H 4924 4.79021 -6.06431 0
M  V30 48974 H 4922.35 4.31341 -5.44949 0
M  V30 48975 H 4925.54 3.12703 -3.48331 0
M  V30 48976 H 4925.71 4.1375 -4.98713 0
M  V30 48977 N 4919.12 1.06186 1.16457 0
M  V30 48978 C 4920.53 0.802485 1.68574 0
M  V30 48979 C 4920.88 -0.674055 1.84258 0
M  V30 48980 O 4920 -1.52297 1.53735 0
M  V30 48981 C 4920.6 1.45013 3.06197 0
M  V30 48982 C 4919.16 1.23855 3.55439 0
M  V30 48983 C 4918.3 1.52732 2.31448 0
M  V30 48984 H 4921.26 1.22549 1.00834 0
M  V30 48985 H 4921.28 0.864861 3.70541 0
M  V30 48986 H 4920.79 2.52476 2.9475 0
M  V30 48987 H 4918.89 0.183618 3.72147 0
M  V30 48988 H 4919 1.95052 4.37598 0
M  V30 48989 H 4917.37 0.947809 2.36408 0
M  V30 48990 H 4918.15 2.61351 2.226 0
M  V30 48991 N 4920.59 -1.33077 0.84429 0
M  V30 48992 C 4921.84 -1.97213 0.441745 0
M  V30 48993 C 4922.16 -1.67189 -1.00364 0
M  V30 48994 O 4921.43 -0.973648 -1.69991 0
M  V30 48995 H 4920.01 -0.729585 0.16036 0
M  V30 48996 H 4922.68 -1.62344 1.07844 0
M  V30 48997 H 4921.77 -3.06696 0.578258 0
M  V30 48998 N 4922.07 -0.601236 -1.45681 0
M  V30 48999 C 4923.32 -0.0940914 -2.02582 0
M  V30 49000 C 4923.65 1.26967 -1.46946 0
M  V30 49001 O 4922.93 1.8361 -0.641677 0
M  V30 49002 C 4923.21 -0.0482981 -3.60068 0
M  V30 49003 C 4923.06 -1.44227 -4.2605 0
M  V30 49004 C 4924.38 0.642822 -4.3538 0
M  V30 49005 H 4921.5 -0.0356663 -0.736136 0
M  V30 49006 H 4924.14 -0.77199 -1.7361 0
M  V30 49007 H 4922.29 0.528993 -3.84882 0
M  V30 49008 H 4923.96 -2.06615 -4.12441 0
M  V30 49009 H 4922.21 -2.00479 -3.84696 0
M  V30 49010 H 4922.88 -1.36253 -5.3492 0
M  V30 49011 H 4925.35 0.152205 -4.15822 0
M  V30 49012 H 4924.23 0.64395 -5.4511 0
M  V30 49013 H 4924.49 1.70771 -4.07786 0
M  V30 49014 N 4923.55 1.53888 -0.340036 0
M  V30 49015 C 4924.48 2.22437 0.552672 0
M  V30 49016 C 4925.5 1.22979 1.06677 0
M  V30 49017 O 4926.69 1.49354 0.977522 0
M  V30 49018 C 4923.79 2.88826 1.77292 0
M  V30 49019 C 4922.96 4.14568 1.39471 0
M  V30 49020 C 4922.02 4.644 2.47426 0
M  V30 49021 O 4921.04 5.28695 2.1088 0
M  V30 49022 N 4922.25 4.40028 3.78623 0
M  V30 49023 H 4925.01 2.9968 -0.0343723 0
M  V30 49024 H 4922.57 1.61067 -0.163997 0
M  V30 49025 H 4924.56 3.19081 2.48937 0
M  V30 49026 H 4923.13 2.1519 2.26742 0
M  V30 49027 H 4922.35 3.90898 0.509184 0
M  V30 49028 H 4923.64 4.96366 1.11795 0
M  V30 49029 H 4923.04 3.886 4.11104 0
M  V30 49030 H 4921.6 4.74897 4.46448 0
M  V30 49031 N 4925.03 0.0685745 1.57451 0
M  V30 49032 C 4925.94 -0.914601 2.16038 0
M  V30 49033 C 4926.96 -1.32934 1.1227 0
M  V30 49034 O 4928.13 -1.4027 1.44521 0
M  V30 49035 C 4925.2 -2.1651 2.70785 0
M  V30 49036 C 4924.26 -1.80707 3.89414 0
M  V30 49037 C 4923.49 -2.99795 4.41541 0
M  V30 49038 O 4923.71 -4.13713 3.9268 0
M  V30 49039 O 4922.65 -2.79798 5.32913 0
M  V30 49040 H 4926.47 -0.446258 3.00403 0
M  V30 49041 H 4924.06 -0.154315 1.48601 0
M  V30 49042 H 4925.94 -2.89845 3.05888 0
M  V30 49043 H 4924.62 -2.62448 1.8948 0
M  V30 49044 H 4923.52 -1.04633 3.59169 0
M  V30 49045 H 4924.86 -1.39554 4.72002 0
M  V30 49046 N 4926.51 -1.56262 -0.204957 0
M  V30 49047 C 4927.75 -1.81826 -0.933742 0
M  V30 49048 C 4928.11 -0.644598 -1.80856 0
M  V30 49049 O 4929.31 -0.779909 -2.57237 0
M  V30 49050 C 4927.58 -3.12368 -1.73669 0
M  V30 49051 S 4929.14 -3.59305 -2.51884 0
M  V30 49052 H 4925.96 -0.63822 -0.313363 0
M  V30 49053 H 4928.56 -1.94495 -0.197933 0
M  V30 49054 H 4927.27 -3.95813 -1.08445 0
M  V30 49055 H 4926.8 -3.0255 -2.51449 0
M  V30 49056 H 4928.81 -3.23958 -3.75853 0
M  V30 49057 N 4927.99 0.472303 -1.50356 0
M  V30 49058 C 4929.22 1.24597 -1.648 0
M  V30 49059 C 4929.62 1.86296 -0.330222 0
M  V30 49060 O 4928.97 1.69936 0.697668 0
M  V30 49061 C 4929.03 2.39569 -2.68043 0
M  V30 49062 C 4928.69 1.98517 -4.11631 0
M  V30 49063 C 4929.69 1.50838 -4.97538 0
M  V30 49064 C 4927.37 2.07274 -4.5754 0
M  V30 49065 C 4929.37 1.12459 -6.27401 0
M  V30 49066 C 4927.06 1.68506 -5.87409 0
M  V30 49067 C 4928.05 1.21176 -6.72165 0
M  V30 49068 O 4927.74 0.829447 -7.9961 0
M  V30 49069 H 4927.47 0.383015 -0.557024 0
M  V30 49070 H 4930.03 0.570322 -1.97323 0
M  V30 49071 H 4928.26 3.10301 -2.3076 0
M  V30 49072 H 4929.95 3.01535 -2.7172 0
M  V30 49073 H 4930.71 1.43495 -4.63286 0
M  V30 49074 H 4926.59 2.43063 -3.91716 0
M  V30 49075 H 4930.14 0.754454 -6.93508 0
M  V30 49076 H 4926.03 1.75508 -6.21182 0
M  V30 49077 H 4926.8 0.958403 -8.1287 0
M  V30 49078 N 4929.46 1.39914 0.725394 0
M  V30 49079 C 4930.41 1.35884 1.83083 0
M  V30 49080 C 4931.4 0.238045 1.59129 0
M  V30 49081 O 4932.59 0.476362 1.70469 0
M  V30 49082 C 4929.72 1.21415 3.21113 0
M  V30 49083 C 4928.8 2.38235 3.50863 0
M  V30 49084 N 4929.2 3.63715 3.51489 0
M  V30 49085 C 4927.49 2.31402 3.81273 0
M  V30 49086 C 4928.19 4.41023 3.79306 0
M  V30 49087 N 4927.17 3.70734 3.97564 0
M  V30 49088 H 4930.97 2.30856 1.81886 0
M  V30 49089 H 4928.49 1.33546 0.924078 0
M  V30 49090 H 4930.48 1.16611 4.00259 0
M  V30 49091 H 4929.14 0.274015 3.23542 0
M  V30 49092 H 4930.15 3.97009 3.32572 0
M  V30 49093 H 4926.83 1.45702 3.91251 0
M  V30 49094 H 4928.22 5.49833 3.86178 0
M  V30 49095 N 4930.94 -0.956593 1.25248 0
M  V30 49096 C 4932.19 -1.6976 1.09662 0
M  V30 49097 C 4932.51 -1.91584 -0.363396 0
M  V30 49098 O 4931.78 -1.50154 -1.2582 0
M  V30 49099 H 4930.36 -0.629083 0.40282 0
M  V30 49100 H 4933.02 -1.15021 1.57341 0
M  V30 49101 H 4932.12 -2.67764 1.60341 0
M  V30 49102 N 4932.42 -1.06802 -1.15892 0
M  V30 49103 C 4933.37 -0.677604 -2.22511 0
M  V30 49104 C 4934.36 0.308935 -1.66559 0
M  V30 49105 O 4935.57 0.173245 -1.79164 0
M  V30 49106 H 4931.94 -0.201019 -0.724635 0
M  V30 49107 H 4933.91 -1.58658 -2.52725 0
M  V30 49108 C 4932.66 -0.0855375 -3.47595 0
M  V30 49109 H 4931.99 -0.835782 -3.90966 0
M  V30 49110 H 4933.43 0.15005 -4.23734 0
M  V30 49111 C 4931.88 1.17228 -3.15847 0
M  V30 49112 O 4932.41 2.25953 -3.32127 0
M  V30 49113 N 4930.62 1.07627 -2.69935 0
M  V30 49114 H 4930.17 0.191469 -2.56887 0
M  V30 49115 H 4930.13 1.91868 -2.49067 0
M  V30 49116 N 4933.9 1.32627 -0.851335 0
M  V30 49117 C 4935.15 1.96976 -0.452198 0
M  V30 49118 C 4935.47 1.67719 0.994761 0
M  V30 49119 O 4934.74 0.982649 1.69472 0
M  V30 49120 H 4933.32 0.728724 -0.164227 0
M  V30 49121 H 4935.98 1.6177 -1.08703 0
M  V30 49122 H 4935.07 3.06385 -0.594515 0
M  V30 49123 N 4935.38 0.608953 1.4536 0
M  V30 49124 C 4936.31 -0.147237 2.28727 0
M  V30 49125 C 4937.32 -0.830419 1.40028 0
M  V30 49126 O 4938.51 -0.695579 1.6439 0
M  V30 49127 C 4935.61 -1.22957 3.15808 0
M  V30 49128 C 4934.78 -0.633239 4.32792 0
M  V30 49129 C 4933.84 -1.60664 5.01072 0
M  V30 49130 O 4932.87 -1.13241 5.57822 0
M  V30 49131 N 4934.07 -2.94105 5.00482 0
M  V30 49132 H 4936.83 0.568117 2.94266 0
M  V30 49133 H 4934.4 0.448534 1.55563 0
M  V30 49134 H 4936.39 -1.8806 3.58351 0
M  V30 49135 H 4934.96 -1.84743 2.52168 0
M  V30 49136 H 4934.18 0.1959 3.93713 0
M  V30 49137 H 4935.47 -0.215076 5.08345 0
M  V30 49138 H 4934.86 -3.35234 4.55669 0
M  V30 49139 H 4933.42 -3.54627 5.46885 0
M  V30 49140 N 4936.85 -1.53705 0.348193 0
M  V30 49141 C 4938.08 -2.05878 -0.250811 0
M  V30 49142 C 4938.5 -1.2212 -1.43068 0
M  V30 49143 O 4937.86 -0.236049 -1.79757 0
M  V30 49144 C 4937.91 -3.54888 -0.639292 0
M  V30 49145 O 4937.01 -3.73954 -1.73875 0
M  V30 49146 H 4936.35 -0.662756 -0.0406297 0
M  V30 49147 H 4938.88 -1.98301 0.503755 0
M  V30 49148 H 4938.89 -3.97604 -0.915156 0
M  V30 49149 H 4937.57 -4.15299 0.223532 0
M  V30 49150 H 4936.15 -3.43139 -1.45979 0
M  V30 49151 N 4938.33 -0.0769235 -1.57412 0
M  V30 49152 C 4939.56 0.59903 -1.97725 0
M  V30 49153 C 4939.97 1.63374 -0.954224 0
M  V30 49154 O 4939.31 1.83578 0.066806 0
M  V30 49155 C 4939.38 1.32067 -3.34363 0
M  V30 49156 C 4939.04 0.438826 -4.54888 0
M  V30 49157 C 4940.04 -0.305674 -5.19001 0
M  V30 49158 C 4937.72 0.362202 -5.00992 0
M  V30 49159 C 4939.72 -1.11497 -6.27573 0
M  V30 49160 C 4937.4 -0.450758 -6.09435 0
M  V30 49161 C 4938.4 -1.18801 -6.72589 0
M  V30 49162 O 4938.09 -1.98755 -7.78943 0
M  V30 49163 H 4937.82 0.166702 -0.655123 0
M  V30 49164 H 4940.37 -0.147409 -2.0487 0
M  V30 49165 H 4938.6 2.11329 -3.23847 0
M  V30 49166 H 4940.29 1.88936 -3.59246 0
M  V30 49167 H 4941.06 -0.2561 -4.84323 0
M  V30 49168 H 4936.94 0.925673 -4.51611 0
M  V30 49169 H 4940.48 -1.69091 -6.76797 0
M  V30 49170 H 4936.38 -0.501877 -6.43546 0
M  V30 49171 H 4937.15 -1.91242 -7.95845 0
M  V30 49172 N 4939.81 1.56368 0.196667 0
M  V30 49173 C 4941.23 1.49918 0.547437 0
M  V30 49174 C 4941.43 0.776656 1.85931 0
M  V30 49175 O 4940.48 0.326528 2.5038 0
M  V30 49176 C 4941.8 2.94579 0.60363 0
M  V30 49177 C 4943.34 3.05242 0.69257 0
M  V30 49178 C 4943.82 4.51311 0.779887 0
M  V30 49179 N 4945.31 4.55456 0.843456 0
M  V30 49180 C 4946.04 5.65789 0.931159 0
M  V30 49181 N 4945.54 6.85816 0.981261 0
M  V30 49182 N 4947.33 5.53698 0.968226 0
M  V30 49183 H 4939.48 2.01758 -0.663874 0
M  V30 49184 H 4941.75 0.918085 -0.23627 0
M  V30 49185 H 4941.45 3.50493 -0.291173 0
M  V30 49186 H 4941.33 3.47847 1.45886 0
M  V30 49187 H 4943.71 2.49378 1.57781 0
M  V30 49188 H 4943.8 2.55102 -0.188826 0
M  V30 49189 H 4943.44 5.078 -0.10099 0
M  V30 49190 H 4943.37 4.99181 1.67706 0
M  V30 49191 H 4945.86 3.69028 0.814046 0
M  V30 49192 H 4946.17 7.65652 1.04865 0
M  V30 49193 H 4944.52 6.88477 0.949966 0
M  V30 49194 H 4947.71 4.58851 0.92591 0
M  V30 49195 H 4947.88 6.39711 1.03312 0
M  V30 49196 N 4941.29 -0.464322 1.50605 0
M  V30 49197 C 4942.54 -1.2135 1.61612 0
M  V30 49198 C 4942.86 -1.92328 0.321711 0
M  V30 49199 O 4942.13 -1.84406 -0.661167 0
M  V30 49200 H 4940.71 -0.450919 0.595551 0
M  V30 49201 H 4943.37 -0.53498 1.87414 0
M  V30 49202 H 4942.47 -1.95775 2.43061 0
M  V30 49203 N 4942.77 -1.40296 -0.717964 0
M  V30 49204 C 4943.99 -1.41755 -1.50709 0
M  V30 49205 C 4944.41 -0.0166029 -1.88793 0
M  V30 49206 O 4943.77 0.958887 -1.55279 0
M  V30 49207 C 4943.82 -2.30608 -2.78392 0
M  V30 49208 O 4943.54 -3.65249 -2.41919 0
M  V30 49209 C 4945.04 -2.40633 -3.72304 0
M  V30 49210 H 4942.26 -0.483582 -0.465177 0
M  V30 49211 H 4944.8 -1.84319 -0.885824 0
M  V30 49212 H 4942.96 -1.91413 -3.36809 0
M  V30 49213 H 4943.37 -4.12413 -3.24061 0
M  V30 49214 H 4944.85 -3.07017 -4.58742 0
M  V30 49215 H 4945.32 -1.43065 -4.15246 0
M  V30 49216 H 4945.93 -2.8037 -3.19801 0
M  V30 49217 N 4944.24 0.949938 -1.25754 0
M  V30 49218 C 4945.47 1.72717 -1.13369 0
M  V30 49219 C 4945.88 1.86563 0.314777 0
M  V30 49220 O 4945.23 1.36625 1.22798 0
M  V30 49221 C 4945.29 3.15689 -1.71991 0
M  V30 49222 C 4944.95 3.25257 -3.21025 0
M  V30 49223 C 4945.95 3.09207 -4.17956 0
M  V30 49224 C 4943.63 3.48927 -3.61324 0
M  V30 49225 C 4945.63 3.16682 -5.53165 0
M  V30 49226 C 4943.31 3.56038 -4.96669 0
M  V30 49227 C 4944.31 3.3993 -5.92399 0
M  V30 49228 O 4944 3.46731 -7.25281 0
M  V30 49229 H 4943.73 0.547875 -0.395992 0
M  V30 49230 H 4946.29 1.20003 -1.66698 0
M  V30 49231 H 4944.52 3.69787 -1.13114 0
M  V30 49232 H 4946.21 3.75289 -1.54638 0
M  V30 49233 H 4946.97 2.90785 -3.88161 0
M  V30 49234 H 4942.85 3.60524 -2.87303 0
M  V30 49235 H 4946.39 3.04026 -6.27865 0
M  V30 49236 H 4942.29 3.73978 -5.26128 0
M  V30 49237 H 4943.06 3.63332 -7.33439 0
M  V30 49238 N 4945.72 1.07416 1.15324 0
M  V30 49239 C 4946.95 0.818923 1.90548 0
M  V30 49240 C 4947.37 -0.622132 1.77514 0
M  V30 49241 O 4946.73 -1.43481 1.10829 0
M  V30 49242 C 4946.78 1.23279 3.38873 0
M  V30 49243 O 4945.88 0.37849 4.10659 0
M  V30 49244 H 4945.22 0.298291 0.593227 0
M  V30 49245 H 4947.75 1.43294 1.46041 0
M  V30 49246 H 4947.76 1.20926 3.89668 0
M  V30 49247 H 4946.44 2.28238 3.47678 0
M  V30 49248 H 4945.02 0.464567 3.69995 0
M  V30 49249 N 4947.2 -1.32174 0.858357 0
M  V30 49250 C 4948.43 -2.01311 0.477652 0
M  V30 49251 C 4948.84 -1.64493 -0.926679 0
M  V30 49252 O 4948.2 -0.868152 -1.60528 0
M  V30 49253 C 4948.25 -3.56291 0.611462 0
M  V30 49254 O 4947.97 -3.91787 1.96048 0
M  V30 49255 C 4949.47 -4.42702 0.230248 0
M  V30 49256 H 4946.69 -0.644316 0.187345 0
M  V30 49257 H 4949.24 -1.6867 1.15632 0
M  V30 49258 H 4947.39 -3.87395 -0.0195132 0
M  V30 49259 H 4947.81 -4.86506 1.9599 0
M  V30 49260 H 4949.28 -5.50726 0.374867 0
M  V30 49261 H 4949.76 -4.31293 -0.829628 0
M  V30 49262 H 4950.36 -4.16994 0.836448 0
M  V30 49263 N 4948.68 -0.616653 -1.45035 0
M  V30 49264 C 4949.91 -0.12204 -2.0654 0
M  V30 49265 C 4950.32 1.19738 -1.45973 0
M  V30 49266 O 4949.68 1.73131 -0.577228 0
M  V30 49267 C 4949.73 0.01439 -3.61497 0
M  V30 49268 O 4949.45 -1.25284 -4.19804 0
M  V30 49269 C 4950.95 0.5394 -4.40006 0
M  V30 49270 H 4948.17 -0.0730072 -0.667016 0
M  V30 49271 H 4950.72 -0.846956 -1.86137 0
M  V30 49272 H 4948.87 0.689675 -3.81212 0
M  V30 49273 H 4949.28 -1.08834 -5.13084 0
M  V30 49274 H 4950.76 0.583919 -5.48903 0
M  V30 49275 H 4951.24 1.56354 -4.10427 0
M  V30 49276 H 4951.84 -0.102144 -4.25177 0
M  V30 49277 N 4950.16 1.53519 -0.356339 0
M  V30 49278 C 4951.4 2.01415 0.236583 0
M  V30 49279 C 4951.74 1.24344 1.49172 0
M  V30 49280 O 4951.01 0.334564 1.91601 0
M  V30 49281 C 4951.29 3.56061 0.537857 0
M  V30 49282 C 4951.15 4.43832 -0.730268 0
M  V30 49283 C 4952.47 4.19132 1.34225 0
M  V30 49284 H 4949.58 0.732138 0.0845129 0
M  V30 49285 H 4952.23 1.83852 -0.479405 0
M  V30 49286 H 4950.38 3.71157 1.14782 0
M  V30 49287 H 4952.05 4.4055 -1.36797 0
M  V30 49288 H 4950.29 4.12176 -1.35254 0
M  V30 49289 H 4950.96 5.49956 -0.474551 0
M  V30 49290 H 4953.44 4.07812 0.826354 0
M  V30 49291 H 4952.31 5.27383 1.52179 0
M  V30 49292 H 4952.58 3.74589 2.34809 0
M  V30 49293 N 4951.63 0.0852704 1.57369 0
M  V30 49294 C 4952.86 -0.58939 1.98328 0
M  V30 49295 C 4953.28 -1.62329 0.964087 0
M  V30 49296 O 4952.63 -1.82438 -0.0475754 0
M  V30 49297 C 4952.69 -1.24592 3.39351 0
M  V30 49298 O 4952.41 -0.253378 4.37367 0
M  V30 49299 C 4953.91 -2.00712 3.95259 0
M  V30 49300 H 4951.13 -0.158761 0.651948 0
M  V30 49301 H 4953.67 0.161656 2.0386 0
M  V30 49302 H 4951.83 -1.94796 3.34863 0
M  V30 49303 H 4952.24 -0.726024 5.19451 0
M  V30 49304 H 4953.71 -2.42022 4.96114 0
M  V30 49305 H 4954.19 -2.86907 3.32537 0
M  V30 49306 H 4954.8 -1.35346 4.03189 0
M  V30 49307 N 4953.11 -1.5647 -0.188372 0
M  V30 49308 C 4954.36 -1.80658 -0.905922 0
M  V30 49309 C 4954.68 -0.659455 -1.83511 0
M  V30 49310 O 4953.95 0.3218 -1.93239 0
M  V30 49311 H 4952.53 -0.666403 -0.337514 0
M  V30 49312 H 4955.19 -1.93949 -0.192271 0
M  V30 49313 H 4954.29 -2.74071 -1.49303 0
M  V30 49314 N 4954.59 0.456329 -1.50849 0
M  V30 49315 C 4956.01 0.791296 -1.38603 0
M  V30 49316 C 4956.21 1.96329 -0.453567 0
M  V30 49317 O 4955.26 2.52308 0.0983466 0
M  V30 49318 C 4956.58 1.08949 -2.80269 0
M  V30 49319 C 4958.12 1.19507 -2.89287 0
M  V30 49320 C 4958.6 1.52631 -4.31819 0
M  V30 49321 N 4960.09 1.59594 -4.34838 0
M  V30 49322 C 4960.83 1.86758 -5.42134 0
M  V30 49323 N 4960.32 2.11843 -6.59617 0
M  V30 49324 N 4962.11 1.88383 -5.29593 0
M  V30 49325 H 4954.27 -0.31582 -2.10039 0
M  V30 49326 H 4956.53 -0.0788248 -0.944717 0
M  V30 49327 H 4956.23 0.301232 -3.50408 0
M  V30 49328 H 4956.11 2.02199 -3.18426 0
M  V30 49329 H 4958.5 1.97398 -2.19358 0
M  V30 49330 H 4958.58 0.242022 -2.54652 0
M  V30 49331 H 4958.22 0.752745 -5.02291 0
M  V30 49332 H 4958.15 2.49111 -4.63952 0
M  V30 49333 H 4960.64 1.42188 -3.5013 0
M  V30 49334 H 4960.95 2.31886 -7.3719 0
M  V30 49335 H 4959.3 2.09204 -6.62766 0
M  V30 49336 H 4962.49 1.68292 -4.36801 0
M  V30 49337 H 4962.66 2.09217 -6.13296 0
M  V30 49338 N 4956.07 1.40675 0.710514 0
M  V30 49339 C 4957.3 1.42552 1.49955 0
M  V30 49340 C 4957.71 0.0266148 1.88781 0
M  V30 49341 O 4957.07 -0.950639 1.55785 0
M  V30 49342 C 4957.12 2.32081 2.77165 0
M  V30 49343 O 4956.84 3.66527 2.39979 0
M  V30 49344 C 4958.34 2.42604 3.71023 0
M  V30 49345 H 4955.56 0.486042 0.462606 0
M  V30 49346 H 4958.11 1.84786 0.876037 0
M  V30 49347 H 4956.26 1.93196 3.35789 0
M  V30 49348 H 4956.68 4.14126 3.21869 0
M  V30 49349 H 4958.15 3.09445 4.57108 0
M  V30 49350 H 4958.63 1.45265 4.14481 0
M  V30 49351 H 4959.23 2.82062 3.18309 0
M  V30 49352 N 4957.55 -0.943255 1.26256 0
M  V30 49353 C 4958.79 -1.70393 1.12896 0
M  V30 49354 C 4959.15 -1.8927 -0.322647 0
M  V30 49355 O 4960.35 -2.62505 -0.578326 0
M  V30 49356 C 4958.62 -3.04289 1.87464 0
M  V30 49357 S 4960.18 -3.95468 1.90133 0
M  V30 49358 H 4957 -0.585545 0.403309 0
M  V30 49359 H 4959.6 -1.12419 1.59945 0
M  V30 49360 H 4958.31 -2.8823 2.9215 0
M  V30 49361 H 4957.84 -3.67322 1.40848 0
M  V30 49362 H 4959.85 -4.86294 0.986544 0
M  V30 49363 N 4959.03 -1.08026 -1.14753 0
M  V30 49364 C 4959.96 -0.664643 -2.19352 0
M  V30 49365 C 4960.97 0.286317 -1.60262 0
M  V30 49366 O 4962.16 0.0745735 -1.78344 0
M  V30 49367 C 4959.26 0.0433442 -3.38872 0
M  V30 49368 C 4958.43 -0.925531 -4.27496 0
M  V30 49369 C 4957.49 -0.253583 -5.25589 0
M  V30 49370 O 4956.52 -0.896779 -5.62091 0
M  V30 49371 N 4957.72 0.998062 -5.71856 0
M  V30 49372 H 4960.48 -1.56447 -2.55625 0
M  V30 49373 H 4958.05 -0.965833 -1.29936 0
M  V30 49374 H 4960.04 0.503716 -4.01553 0
M  V30 49375 H 4958.61 0.845215 -3.00957 0
M  V30 49376 H 4957.83 -1.56484 -3.6181 0
M  V30 49377 H 4959.12 -1.5822 -4.83574 0
M  V30 49378 H 4958.51 1.54044 -5.44322 0
M  V30 49379 H 4957.07 1.402 -6.36543 0
M  V30 49380 N 4960.5 1.31717 -0.865354 0
M  V30 49381 C 4961.47 2.26917 -0.322707 0
M  V30 49382 C 4962.47 1.52033 0.523698 0
M  V30 49383 O 4963.66 1.70975 0.333667 0
M  V30 49384 C 4960.79 3.3656 0.54222 0
M  V30 49385 H 4961.98 2.76428 -1.16307 0
M  V30 49386 H 4959.53 1.42571 -0.640562 0
M  V30 49387 H 4960.27 2.92334 1.40397 0
M  V30 49388 H 4960.05 3.92048 -0.0637773 0
M  V30 49389 H 4961.54 4.07468 0.914317 0
M  V30 49390 N 4961.98 0.624336 1.44706 0
M  V30 49391 C 4963.23 0.134801 2.02953 0
M  V30 49392 C 4963.58 -1.22718 1.48182 0
M  V30 49393 O 4962.88 -1.80107 0.653605 0
M  V30 49394 C 4963.07 0.0547609 3.57358 0
M  V30 49395 C 4962.9 1.40744 4.27108 0
M  V30 49396 C 4961.67 1.99248 4.64358 0
M  V30 49397 C 4963.87 2.33984 4.57991 0
M  V30 49398 N 4961.85 3.27822 5.19044 0
M  V30 49399 C 4963.22 3.47168 5.13687 0
M  V30 49400 C 4965.27 2.33148 4.39939 0
M  V30 49401 C 4963.98 4.59702 5.53233 0
M  V30 49402 C 4966 3.44741 4.80528 0
M  V30 49403 C 4965.37 4.56648 5.36332 0
M  V30 49404 H 4961.46 0.093089 0.77644 0
M  V30 49405 H 4964.05 0.826348 1.76294 0
M  V30 49406 H 4962.22 -0.606048 3.83643 0
M  V30 49407 H 4963.95 -0.442975 4.02268 0
M  V30 49408 H 4960.71 1.52267 4.48455 0
M  V30 49409 H 4961.13 3.93539 5.50869 0
M  V30 49410 H 4965.77 1.47882 3.96095 0
M  V30 49411 H 4963.49 5.45681 5.96035 0
M  V30 49412 H 4967.08 3.45262 4.68279 0
M  V30 49413 H 4965.96 5.41571 5.6716 0
M  V30 49414 N 4963.46 -1.53328 0.364476 0
M  V30 49415 C 4964.68 -2.06132 -0.22896 0
M  V30 49416 C 4965.11 -1.2363 -1.41764 0
M  V30 49417 O 4964.47 -0.255101 -1.79496 0
M  V30 49418 C 4964.52 -3.55546 -0.601615 0
M  V30 49419 O 4963.62 -3.75777 -1.69899 0
M  V30 49420 H 4962.96 -0.663149 -0.033598 0
M  V30 49421 H 4965.49 -1.97756 0.524759 0
M  V30 49422 H 4965.5 -3.98552 -0.872933 0
M  V30 49423 H 4964.18 -4.15038 0.267567 0
M  V30 49424 H 4962.75 -3.44668 -1.42331 0
M  V30 49425 N 4964.94 -0.0936148 -1.57322 0
M  V30 49426 C 4966.16 0.582254 -1.99059 0
M  V30 49427 C 4966.59 1.61022 -0.972298 0
M  V30 49428 O 4965.95 1.81203 0.0593985 0
M  V30 49429 C 4965.99 1.20787 -3.39769 0
M  V30 49430 O 4965.1 2.3237 -3.40702 0
M  V30 49431 H 4964.44 0.147861 -0.647328 0
M  V30 49432 H 4966.97 -0.174588 -2.03854 0
M  V30 49433 H 4966.98 1.54953 -3.7743 0
M  V30 49434 H 4965.65 0.454769 -4.13406 0
M  V30 49435 H 4964.23 1.99834 -3.14834 0
M  V30 49436 N 4966.42 1.56568 0.180071 0
M  V30 49437 C 4967.35 1.90817 1.25156 0
M  V30 49438 C 4968.33 0.769951 1.43215 0
M  V30 49439 O 4969.51 1.02242 1.58363 0
M  V30 49440 C 4966.64 2.15148 2.6159 0
M  V30 49441 C 4965.68 3.37843 2.60316 0
M  V30 49442 S 4966.52 4.92494 2.10263 0
M  V30 49443 C 4967.67 5.19909 3.48491 0
M  V30 49444 H 4967.91 2.81402 0.959184 0
M  V30 49445 H 4965.44 1.49542 0.384248 0
M  V30 49446 H 4967.4 2.29847 3.40119 0
M  V30 49447 H 4966.06 1.25286 2.88032 0
M  V30 49448 H 4965.25 3.5204 3.60671 0
M  V30 49449 H 4964.85 3.22215 1.89878 0
M  V30 49450 H 4967.14 5.1135 4.44441 0
M  V30 49451 H 4968.09 6.21583 3.39176 0
M  V30 49452 H 4968.5 4.47501 3.44098 0
M  V30 49453 N 4967.89 -0.448323 1.51089 0
M  V30 49454 C 4969.12 -1.22137 1.67004 0
M  V30 49455 C 4969.54 -1.85282 0.362764 0
M  V30 49456 O 4968.89 -1.70238 -0.65766 0
M  V30 49457 C 4968.95 -2.31347 2.77778 0
M  V30 49458 O 4968.67 -1.70787 4.0344 0
M  V30 49459 C 4970.17 -3.21825 3.04866 0
M  V30 49460 H 4967.39 -0.368539 0.560732 0
M  V30 49461 H 4969.93 -0.532549 1.97444 0
M  V30 49462 H 4968.09 -2.95964 2.49968 0
M  V30 49463 H 4968.5 -2.42878 4.64877 0
M  V30 49464 H 4969.97 -3.94614 3.85985 0
M  V30 49465 H 4970.45 -3.81941 2.16835 0
M  V30 49466 H 4971.06 -2.62921 3.34294 0
M  V30 49467 N 4969.37 -1.4105 -0.703043 0
M  V30 49468 C 4970.78 -1.35661 -1.28269 0
M  V30 49469 C 4971.13 -0.0360999 -1.96167 0
M  V30 49470 O 4970.26 0.865764 -1.98327 0
M  V30 49471 C 4970.85 -2.45715 -2.33258 0
M  V30 49472 C 4969.41 -2.43748 -2.86817 0
M  V30 49473 C 4968.56 -2.25947 -1.60759 0
M  V30 49474 H 4971.51 -1.50674 -0.498307 0
M  V30 49475 H 4971.53 -2.14344 -3.14383 0
M  V30 49476 H 4971.04 -3.41811 -1.83812 0
M  V30 49477 H 4969.15 -1.51387 -3.4046 0
M  V30 49478 H 4969.26 -3.3979 -3.37756 0
M  V30 49479 H 4967.62 -1.73688 -1.86292 0
M  V30 49480 H 4968.41 -3.24058 -1.13319 0
M  V30 49481 N 4970.85 0.936546 -1.26754 0
M  V30 49482 C 4971.8 2.02187 -1.05378 0
M  V30 49483 C 4972.78 1.60893 0.0153546 0
M  V30 49484 O 4973.98 1.75842 -0.202147 0
M  V30 49485 C 4971.11 3.36219 -0.693659 0
M  V30 49486 C 4970.19 3.83983 -1.80049 0
M  V30 49487 N 4970.58 4.0435 -3.03867 0
M  V30 49488 C 4968.88 4.12939 -1.68514 0
M  V30 49489 C 4969.58 4.43987 -3.75833 0
M  V30 49490 N 4968.56 4.50955 -3.03547 0
M  V30 49491 H 4972.36 2.15951 -1.99355 0
M  V30 49492 H 4969.87 1.12273 -1.17339 0
M  V30 49493 H 4971.87 4.13623 -0.521659 0
M  V30 49494 H 4970.53 3.23822 0.238579 0
M  V30 49495 H 4971.54 3.90908 -3.39723 0
M  V30 49496 H 4968.22 4.09305 -0.823129 0
M  V30 49497 H 4969.61 4.67897 -4.82205 0
M  V30 49498 N 4972.33 1.08633 1.14178 0
M  V30 49499 C 4973.55 0.839087 1.89668 0
M  V30 49500 C 4973.98 -0.603269 1.78164 0
M  V30 49501 O 4973.34 -1.42297 1.12344 0
M  V30 49502 C 4973.38 1.26866 3.37546 0
M  V30 49503 O 4972.49 0.422024 4.10235 0
M  V30 49504 H 4971.83 0.304566 0.59003 0
M  V30 49505 H 4974.36 1.44835 1.44513 0
M  V30 49506 H 4974.37 1.25052 3.88363 0
M  V30 49507 H 4973.04 2.31913 3.45238 0
M  V30 49508 H 4971.62 0.503784 3.69481 0
M  V30 49509 N 4973.81 -1.31256 0.872327 0
M  V30 49510 C 4974.76 -2.25999 0.301374 0
M  V30 49511 C 4975.74 -1.50731 -0.562938 0
M  V30 49512 O 4976.93 -1.722 -0.40943 0
M  V30 49513 C 4974.06 -3.39726 -0.494108 0
M  V30 49514 C 4973.15 -4.22362 0.383581 0
M  V30 49515 N 4973.54 -4.83719 1.47816 0
M  V30 49516 C 4971.84 -4.45651 0.176434 0
M  V30 49517 C 4972.54 -5.45516 2.01959 0
M  V30 49518 N 4971.51 -5.27423 1.31627 0
M  V30 49519 H 4975.32 -2.70977 1.13792 0
M  V30 49520 H 4972.83 -1.4555 0.720345 0
M  V30 49521 H 4974.83 -4.06629 -0.919685 0
M  V30 49522 H 4973.49 -2.9629 -1.32824 0
M  V30 49523 H 4974.5 -4.83306 1.86107 0
M  V30 49524 H 4971.17 -4.12847 -0.621553 0
M  V30 49525 H 4972.56 -6.04257 2.93807 0
M  V30 49526 N 4975.28 -0.632002 -1.44373 0
M  V30 49527 C 4976.51 -0.142218 -2.06912 0
M  V30 49528 C 4976.93 1.17451 -1.46925 0
M  V30 49529 O 4976.29 1.72072 -0.571036 0
M  V30 49530 C 4976.34 -0.041922 -3.60576 0
M  V30 49531 O 4975.44 1.0018 -4.00047 0
M  V30 49532 H 4974.79 -0.0851723 -0.658515 0
M  V30 49533 H 4977.32 -0.868928 -1.85232 0
M  V30 49534 H 4977.33 0.148374 -4.0773 0
M  V30 49535 H 4976 -1.00325 -4.03618 0
M  V30 49536 H 4974.58 0.786003 -3.64522 0
M  V30 49537 N 4976.76 1.53132 -0.372602 0
M  V30 49538 C 4978.18 1.59585 -0.0218361 0
M  V30 49539 C 4978.38 1.38741 1.46127 0
M  V30 49540 O 4977.43 1.19607 2.22374 0
M  V30 49541 C 4978.75 2.96778 -0.484063 0
M  V30 49542 C 4980.3 3.09908 -0.438884 0
M  V30 49543 C 4980.77 4.49524 -0.877034 0
M  V30 49544 N 4982.26 4.5566 -0.832374 0
M  V30 49545 C 4983 5.61892 -1.143 0
M  V30 49546 N 4982.49 6.75846 -1.52327 0
M  V30 49547 N 4984.29 5.51912 -1.06534 0
M  V30 49548 H 4976.44 1.64932 -1.33833 0
M  V30 49549 H 4978.7 0.773928 -0.547485 0
M  V30 49550 H 4978.41 3.17193 -1.51926 0
M  V30 49551 H 4978.28 3.76991 0.125651 0
M  V30 49552 H 4980.67 2.89199 0.587192 0
M  V30 49553 H 4980.75 2.31687 -1.08419 0
M  V30 49554 H 4980.39 4.70972 -1.90126 0
M  V30 49555 H 4980.32 5.26185 -0.208912 0
M  V30 49556 H 4982.81 3.73842 -0.552326 0
M  V30 49557 H 4983.13 7.52856 -1.74437 0
M  V30 49558 H 4981.47 6.7722 -1.56198 0
M  V30 49559 H 4984.66 4.61767 -0.767398 0
M  V30 49560 H 4984.83 6.34605 -1.31075 0
M  V30 49561 N 4978.24 0.101957 1.5727 0
M  V30 49562 C 4979.47 -0.568322 1.98941 0
M  V30 49563 C 4979.88 -1.61298 0.98125 0
M  V30 49564 O 4979.24 -1.82478 -0.0282227 0
M  V30 49565 C 4979.29 -1.20985 3.40653 0
M  V30 49566 O 4979.01 -0.206975 4.37611 0
M  V30 49567 C 4980.51 -1.96509 3.97365 0
M  V30 49568 H 4977.73 -0.151837 0.653595 0
M  V30 49569 H 4980.28 0.183269 2.03677 0
M  V30 49570 H 4978.43 -1.91233 3.3691 0
M  V30 49571 H 4978.85 -0.670888 5.20192 0
M  V30 49572 H 4980.32 -2.36746 4.98653 0
M  V30 49573 H 4980.8 -2.83364 3.35562 0
M  V30 49574 H 4981.4 -1.31062 4.04602 0
M  V30 49575 N 4979.72 -1.56661 -0.171765 0
M  V30 49576 C 4981.13 -1.71655 -0.734269 0
M  V30 49577 C 4981.48 -0.712399 -1.8281 0
M  V30 49578 O 4980.61 0.126325 -2.16031 0
M  V30 49579 C 4981.2 -3.11231 -1.33869 0
M  V30 49580 C 4979.76 -3.2791 -1.84802 0
M  V30 49581 C 4978.91 -2.67605 -0.726823 0
M  V30 49582 H 4981.86 -1.58609 0.0536222 0
M  V30 49583 H 4981.88 -3.09856 -2.20838 0
M  V30 49584 H 4981.39 -3.84292 -0.542355 0
M  V30 49585 H 4979.49 -2.59805 -2.6708 0
M  V30 49586 H 4979.6 -4.35644 -1.99377 0
M  V30 49587 H 4977.97 -2.27404 -1.14715 0
M  V30 49588 H 4978.75 -3.43252 0.0576541 0
M  V30 49589 N 4981.2 0.440304 -1.51324 0
M  V30 49590 C 4982.11 1.55949 -1.75263 0
M  V30 49591 C 4983.12 1.61931 -0.636743 0
M  V30 49592 O 4984.3 1.79228 -0.918656 0
M  V30 49593 C 4981.36 2.91953 -1.86988 0
M  V30 49594 C 4980.42 2.96111 -3.10832 0
M  V30 49595 C 4979.66 4.25629 -3.21988 0
M  V30 49596 O 4979.88 5.17843 -2.39155 0
M  V30 49597 O 4978.81 4.3601 -4.14944 0
M  V30 49598 H 4982.64 1.38664 -2.70196 0
M  V30 49599 H 4980.23 0.623007 -1.3579 0
M  V30 49600 H 4982.11 3.72675 -1.96702 0
M  V30 49601 H 4980.78 3.09372 -0.952416 0
M  V30 49602 H 4979.69 2.14355 -3.06598 0
M  V30 49603 H 4981.02 2.83637 -4.02257 0
M  V30 49604 N 4982.68 1.41421 0.695553 0
M  V30 49605 C 4983.91 1.43926 1.48219 0
M  V30 49606 C 4984.31 0.042952 1.89151 0
M  V30 49607 O 4983.66 -0.948083 1.57344 0
M  V30 49608 C 4983.72 2.28476 2.77559 0
M  V30 49609 C 4983.38 3.76638 2.5883 0
M  V30 49610 C 4984.38 4.68798 2.24776 0
M  V30 49611 C 4982.06 4.2068 2.7447 0
M  V30 49612 C 4984.06 6.02988 2.06601 0
M  V30 49613 C 4981.75 5.54935 2.55911 0
M  V30 49614 C 4982.74 6.45905 2.22027 0
M  V30 49615 O 4982.43 7.77683 2.0363 0
M  V30 49616 H 4982.16 0.492269 0.463301 0
M  V30 49617 H 4984.72 1.8635 0.863886 0
M  V30 49618 H 4982.95 1.80865 3.41796 0
M  V30 49619 H 4984.64 2.22682 3.39364 0
M  V30 49620 H 4985.4 4.36062 2.12308 0
M  V30 49621 H 4981.28 3.50177 2.99828 0
M  V30 49622 H 4984.83 6.73957 1.80076 0
M  V30 49623 H 4980.72 5.8725 2.6797 0
M  V30 49624 H 4981.49 7.88826 2.18393 0
M  V30 49625 N 4984.15 -0.929811 1.27249 0
M  V30 49626 C 4985.38 -1.70891 1.16102 0
M  V30 49627 C 4985.79 -1.8704 -0.285056 0
M  V30 49628 O 4985.13 -1.38561 -1.20609 0
M  V30 49629 C 4985.2 -3.12913 1.76991 0
M  V30 49630 C 4984.86 -3.20108 3.26159 0
M  V30 49631 C 4985.86 -3.02518 4.22822 0
M  V30 49632 C 4983.54 -3.43135 3.66829 0
M  V30 49633 C 4985.54 -3.07841 5.58133 0
M  V30 49634 C 4983.22 -3.48091 5.02271 0
M  V30 49635 C 4984.22 -3.30462 5.97732 0
M  V30 49636 O 4983.91 -3.35149 7.30705 0
M  V30 49637 H 4983.64 -0.541505 0.404658 0
M  V30 49638 H 4986.2 -1.17336 1.68586 0
M  V30 49639 H 4984.43 -3.6794 1.18982 0
M  V30 49640 H 4986.11 -3.72782 1.60589 0
M  V30 49641 H 4986.88 -2.84572 3.92738 0
M  V30 49642 H 4982.76 -3.55908 2.93003 0
M  V30 49643 H 4986.3 -2.93999 6.32622 0
M  V30 49644 H 4982.2 -3.65561 5.32011 0
M  V30 49645 H 4982.97 -3.51618 7.39126 0
M  V30 49646 N 4985.63 -1.09237 -1.13601 0
M  V30 49647 C 4987.04 -0.846898 -1.66387 0
M  V30 49648 C 4987.39 0.624966 -1.8598 0
M  V30 49649 O 4986.52 1.48168 -1.57719 0
M  V30 49650 C 4987.11 -1.5308 -3.02245 0
M  V30 49651 C 4985.67 -1.33236 -3.5203 0
M  V30 49652 C 4984.82 -1.58814 -2.27318 0
M  V30 49653 H 4987.77 -1.25179 -0.975497 0
M  V30 49654 H 4987.79 -0.9628 -3.68117 0
M  V30 49655 H 4987.3 -2.60202 -2.87952 0
M  V30 49656 H 4985.4 -0.282222 -3.7153 0
M  V30 49657 H 4985.52 -2.06585 -4.32272 0
M  V30 49658 H 4983.88 -1.01016 -2.33812 0
M  V30 49659 H 4984.66 -2.67161 -2.15592 0
M  V30 49660 N 4987.11 1.30792 -0.879276 0
M  V30 49661 C 4988.06 2.3023 -0.331193 0
M  V30 49662 C 4989.05 1.5992 0.558738 0
M  V30 49663 O 4990.26 1.74443 0.443805 0
M  V30 49664 H 4986.63 0.746782 -0.0884352 0
M  V30 49665 H 4988.6 2.73921 -1.18363 0
M  V30 49666 C 4987.35 3.4485 0.44428 0
M  V30 49667 H 4986.68 3.99131 -0.231246 0
M  V30 49668 H 4988.12 4.16519 0.792962 0
M  V30 49669 C 4986.57 2.94335 1.63916 0
M  V30 49670 O 4987.1 2.93885 2.73852 0
M  V30 49671 N 4985.31 2.50419 1.47441 0
M  V30 49672 H 4984.86 2.50984 0.580062 0
M  V30 49673 H 4984.82 2.16977 2.27527 0
M  V30 49674 N 4988.59 0.639649 1.44036 0
M  V30 49675 C 4989.55 -0.0505823 2.29144 0
M  V30 49676 C 4990.55 -0.763951 1.41494 0
M  V30 49677 O 4991.74 -0.607251 1.63273 0
M  V30 49678 C 4988.87 -1.08229 3.23264 0
M  V30 49679 H 4990.07 0.698089 2.91662 0
M  V30 49680 H 4987.62 0.400199 1.5109 0
M  V30 49681 H 4988.35 -1.86065 2.65613 0
M  V30 49682 H 4988.14 -0.574588 3.87867 0
M  V30 49683 H 4989.63 -1.56474 3.87177 0
M  V30 49684 N 4990.07 -1.52932 0.380717 0
M  V30 49685 C 4991.31 -2.0107 -0.203803 0
M  V30 49686 C 4991.63 -1.26927 -1.48035 0
M  V30 49687 O 4990.9 -0.386854 -1.92042 0
M  V30 49688 H 4989.48 -0.742885 -0.0783017 0
M  V30 49689 H 4992.15 -1.88097 0.510434 0
M  V30 49690 H 4991.24 -3.0926 -0.420101 0
M  V30 49691 N 4991.54 -0.110296 -1.57214 0
M  V30 49692 C 4992.47 0.839925 -2.1787 0
M  V30 49693 C 4993.45 1.28348 -1.11628 0
M  V30 49694 O 4994.64 1.34765 -1.39829 0
M  V30 49695 C 4991.77 2.09339 -2.77118 0
M  V30 49696 C 4990.72 1.78793 -3.88866 0
M  V30 49697 C 4990.05 3.11096 -4.34883 0
M  V30 49698 C 4991.35 1.06302 -5.11368 0
M  V30 49699 H 4993.04 0.334503 -2.97526 0
M  V30 49700 H 4990.59 0.159452 -1.43114 0
M  V30 49701 H 4992.54 2.76264 -3.18208 0
M  V30 49702 H 4991.27 2.62191 -1.9474 0
M  V30 49703 H 4989.93 1.14261 -3.48339 0
M  V30 49704 H 4989.57 3.61865 -3.49375 0
M  V30 49705 H 4989.27 2.91435 -5.10234 0
M  V30 49706 H 4990.8 3.79154 -4.78617 0
M  V30 49707 H 4992.21 1.63364 -5.49532 0
M  V30 49708 H 4990.61 0.967668 -5.92247 0
M  V30 49709 H 4991.68 0.0482865 -4.84876 0
M  V30 49710 N 4993.02 1.5675 0.163455 0
M  V30 49711 C 4994.27 1.81629 0.877147 0
M  V30 49712 C 4994.58 0.688855 1.83069 0
M  V30 49713 O 4995.79 0.822788 2.58732 0
M  V30 49714 C 4994.25 3.21863 1.61034 0
M  V30 49715 C 4993.85 4.42497 0.70004 0
M  V30 49716 C 4995.6 3.56029 2.31179 0
M  V30 49717 C 4993.5 5.73753 1.43392 0
M  V30 49718 H 4992.43 0.677321 0.331288 0
M  V30 49719 H 4995.09 1.83039 0.129996 0
M  V30 49720 H 4993.47 3.14793 2.40253 0
M  V30 49721 H 4994.64 4.60766 -0.0557468 0
M  V30 49722 H 4992.96 4.1626 0.107843 0
M  V30 49723 H 4995.55 4.51343 2.86694 0
M  V30 49724 H 4995.9 2.81288 3.06892 0
M  V30 49725 H 4996.43 3.64688 1.58896 0
M  V30 49726 H 4993.17 6.51545 0.718957 0
M  V30 49727 H 4992.69 5.59448 2.16283 0
M  V30 49728 H 4994.37 6.15982 1.97929 0
M  V30 49729 N 4994.5 -0.432272 1.51556 0
M  V30 49730 C 4995.43 -1.54519 1.67926 0
M  V30 49731 C 4996.41 -1.53829 0.526818 0
M  V30 49732 O 4997.59 -1.72881 0.751294 0
M  V30 49733 C 4994.72 -2.93094 1.69746 0
M  V30 49734 C 4993.77 -3.11789 2.91016 0
M  V30 49735 S 4994.6 -2.87549 4.51747 0
M  V30 49736 C 4995.76 -4.28396 4.5632 0
M  V30 49737 H 4995.99 -1.40401 2.62059 0
M  V30 49738 H 4993.52 -0.622307 1.41304 0
M  V30 49739 H 4995.48 -3.72968 1.7148 0
M  V30 49740 H 4994.14 -3.04571 0.767812 0
M  V30 49741 H 4993.33 -4.13117 2.88705 0
M  V30 49742 H 4992.94 -2.39747 2.87049 0
M  V30 49743 H 4995.23 -5.21677 4.32272 0
M  V30 49744 H 4996.17 -4.35738 5.58156 0
M  V30 49745 H 4996.58 -4.12287 3.8559 0
M  V30 49746 N 4995.98 -1.41788 -0.688044 0
M  V30 49747 C 4996.93 -1.44443 -1.82316 0
M  V30 49748 C 4997.92 -0.321602 -1.66319 0
M  V30 49749 O 4999.13 -0.493992 -1.73089 0
M  V30 49750 H 4995.5 -0.452106 -0.60092 0
M  V30 49751 H 4997.47 -2.40094 -1.77194 0
M  V30 49752 C 4996.22 -1.35083 -3.20387 0
M  V30 49753 H 4995.54 -2.20772 -3.33317 0
M  V30 49754 H 4996.98 -1.41002 -3.99868 0
M  V30 49755 C 4995.44 -0.0640311 -3.36839 0
M  V30 49756 O 4995.97 0.888357 -3.91754 0
M  V30 49757 N 4994.18 0.0145093 -2.90596 0
M  V30 49758 H 4993.73 -0.761278 -2.46094 0
M  V30 49759 H 4993.68 0.874882 -3.01982 0
M  V30 49760 N 4997.46 0.92305 -1.2774 0
M  V30 49761 C 4998.69 1.70273 -1.17007 0
M  V30 49762 C 4999.09 1.87189 0.275133 0
M  V30 49763 O 4998.44 1.39199 1.19872 0
M  V30 49764 C 4998.5 3.1197 -1.78648 0
M  V30 49765 C 4998.16 3.18374 -3.27852 0
M  V30 49766 C 4999.16 3.00272 -4.24421 0
M  V30 49767 C 4996.85 3.41185 -3.68644 0
M  V30 49768 C 4998.84 3.04877 -5.59758 0
M  V30 49769 C 4996.53 3.45423 -5.0411 0
M  V30 49770 C 4997.52 3.27288 -5.99476 0
M  V30 49771 O 4997.21 3.31269 -7.32473 0
M  V30 49772 H 4996.94 0.539352 -0.407524 0
M  V30 49773 H 4999.5 1.1644 -1.69206 0
M  V30 49774 H 4997.73 3.67304 -1.20932 0
M  V30 49775 H 4999.42 3.71925 -1.62563 0
M  V30 49776 H 5000.18 2.82486 -3.94242 0
M  V30 49777 H 4996.06 3.54349 -2.94886 0
M  V30 49778 H 4999.61 2.9064 -6.34172 0
M  V30 49779 H 4995.5 3.62734 -5.33942 0
M  V30 49780 H 4996.27 3.47693 -7.4098 0
M  V30 49781 N 4998.93 1.09838 1.1302 0
M  V30 49782 C 5000.17 0.846729 1.86037 0
M  V30 49783 C 5000.54 -0.616493 1.81833 0
M  V30 49784 O 5001.74 -0.984241 2.50132 0
M  V30 49785 C 5000.01 1.3724 3.3 0
M  V30 49786 S 5001.57 1.25526 4.20462 0
M  V30 49787 H 4998.39 0.306132 0.64172 0
M  V30 49788 H 5000.99 1.40259 1.36189 0
M  V30 49789 H 4999.69 2.43149 3.30616 0
M  V30 49790 H 4999.22 0.812845 3.84911 0
M  V30 49791 H 5001.24 0.208936 4.9576 0
M  V30 49792 N 5000.41 -1.30324 0.8862 0
M  V30 49793 C 5001.83 -1.48674 0.580375 0
M  V30 49794 C 5002.03 -1.81192 -0.881576 0
M  V30 49795 O 5001.08 -1.90027 -1.66271 0
M  V30 49796 C 5002.4 -2.60927 1.49458 0
M  V30 49797 C 5003.95 -2.74807 1.49834 0
M  V30 49798 C 5004.42 -3.90174 2.3985 0
M  V30 49799 N 5005.91 -3.97487 2.3782 0
M  V30 49800 C 5006.65 -4.86067 3.04182 0
M  V30 49801 N 5006.14 -5.79434 3.79773 0
M  V30 49802 N 5007.94 -4.79446 2.93408 0
M  V30 49803 H 5000.09 -1.07489 1.83194 0
M  V30 49804 H 5002.35 -0.532634 0.784223 0
M  V30 49805 H 5002.06 -2.43723 2.53559 0
M  V30 49806 H 5001.93 -3.57433 1.20506 0
M  V30 49807 H 5004.32 -2.91416 0.464834 0
M  V30 49808 H 5004.4 -1.78918 1.82817 0
M  V30 49809 H 5004.04 -3.74322 3.43286 0
M  V30 49810 H 5003.97 -4.85404 2.04183 0
M  V30 49811 H 5006.46 -3.30696 1.82889 0
M  V30 49812 H 5006.78 -6.4379 4.27497 0
M  V30 49813 H 5005.12 -5.79362 3.83881 0
M  V30 49814 H 5008.31 -4.05485 2.33879 0
M  V30 49815 H 5008.48 -5.48271 3.45403 0
M  V30 49816 N 5001.89 -0.647279 -1.43694 0
M  V30 49817 C 5002.84 0.0599288 -2.32523 0
M  V30 49818 C 5003.83 0.819225 -1.48274 0
M  V30 49819 O 5005.04 0.730298 -1.64519 0
M  V30 49820 H 5001.41 0.0381608 -0.751031 0
M  V30 49821 H 5003.38 -0.70708 -2.89902 0
M  V30 49822 C 5002.13 1.01678 -3.32501 0
M  V30 49823 H 5001.46 0.441944 -3.9735 0
M  V30 49824 H 5002.9 1.48081 -3.97301 0
M  V30 49825 C 5001.36 2.10992 -2.62648 0
M  V30 49826 O 5001.89 3.19293 -2.43752 0
M  V30 49827 N 5000.09 1.8738 -2.22119 0
M  V30 49828 H 4999.64 0.993091 -2.37688 0
M  V30 49829 H 4999.6 2.60717 -1.7571 0
M  V30 49830 N 5003.37 1.52728 -0.388822 0
M  V30 49831 C 5004.78 1.86505 0.0853132 0
M  V30 49832 C 5005.13 1.30852 1.46192 0
M  V30 49833 O 5004.26 0.639682 2.06729 0
M  V30 49834 C 5004.85 3.38414 0.161584 0
M  V30 49835 C 5003.41 3.71904 0.580013 0
M  V30 49836 C 5002.56 2.76094 -0.258315 0
M  V30 49837 H 5005.51 1.46645 -0.606717 0
M  V30 49838 H 5005.53 3.67642 0.980807 0
M  V30 49839 H 5005.04 3.7889 -0.840467 0
M  V30 49840 H 5003.14 3.36998 1.58945 0
M  V30 49841 H 5003.25 4.77903 0.338495 0
M  V30 49842 H 5001.62 2.53196 0.276342 0
M  V30 49843 H 5002.4 3.19407 -1.25834 0
M  V30 49844 N 5004.85 0.118632 1.57153 0
M  V30 49845 C 5006.12 -0.582997 1.8671 0
M  V30 49846 C 5006.5 -1.84837 1.01973 0
M  V30 49847 O 5005.85 -2.28287 0.0985475 0
M  V30 49848 C 5006.06 -0.875793 3.37833 0
M  V30 49849 C 5007.41 -1.22902 4.06424 0
M  V30 49850 O 5008.43 -0.966067 3.42849 0
M  V30 49851 O 5007.29 -1.7225 5.18644 0
M  V30 49852 H 5004.39 -0.294158 0.772917 0
M  V30 49853 H 5006.93 0.153107 1.69008 0
M  V30 49854 H 5005.7 0.0209152 3.91294 0
M  V30 49855 H 5005.33 -1.66707 3.60963 0
M  V30 49856 N 5006.32 -1.56835 -0.15514 0
M  V30 49857 C 5007.74 -1.72424 -0.716021 0
M  V30 49858 C 5008.09 -0.731749 -1.82044 0
M  V30 49859 O 5007.21 0.103405 -2.16153 0
M  V30 49860 C 5007.81 -3.12633 -1.3056 0
M  V30 49861 C 5006.37 -3.29852 -1.81314 0
M  V30 49862 C 5005.51 -2.68361 -0.698399 0
M  V30 49863 H 5008.46 -1.58544 0.0704419 0
M  V30 49864 H 5008.48 -3.12181 -2.17539 0
M  V30 49865 H 5008 -3.84845 -0.501565 0
M  V30 49866 H 5006.1 -2.62623 -2.6431 0
M  V30 49867 H 5006.21 -4.37734 -1.94745 0
M  V30 49868 H 5004.57 -2.28608 -1.12297 0
M  V30 49869 H 5005.36 -3.43171 0.0940572 0
M  V30 49870 N 5007.8 0.424229 -1.51783 0
M  V30 49871 C 5009.05 1.17428 -1.65344 0
M  V30 49872 C 5009.38 1.90547 -0.374873 0
M  V30 49873 O 5008.66 1.84147 0.626115 0
M  V30 49874 C 5008.94 2.18083 -2.86552 0
M  V30 49875 C 5008.79 1.4896 -4.24418 0
M  V30 49876 C 5010.11 3.18923 -3.03275 0
M  V30 49877 H 5007.23 0.425545 -0.601731 0
M  V30 49878 H 5009.87 0.461856 -1.84301 0
M  V30 49879 H 5008.02 2.7884 -2.70519 0
M  V30 49880 H 5009.69 0.914392 -4.52147 0
M  V30 49881 H 5007.94 0.791743 -4.26514 0
M  V30 49882 H 5008.61 2.2233 -5.05246 0
M  V30 49883 H 5011.08 2.68232 -3.18105 0
M  V30 49884 H 5009.96 3.86631 -3.89625 0
M  V30 49885 H 5010.22 3.85786 -2.15921 0
M  V30 49886 N 5009.28 1.4215 0.680515 0
M  V30 49887 C 5010.24 1.44886 1.77597 0
M  V30 49888 C 5011.24 0.337264 1.57223 0
M  V30 49889 O 5012.43 0.597836 1.6362 0
M  V30 49890 C 5009.57 1.27494 3.16161 0
M  V30 49891 H 5010.76 2.42418 1.7656 0
M  V30 49892 H 5008.31 1.28514 0.8896 0
M  V30 49893 H 5009.05 0.308624 3.22828 0
M  V30 49894 H 5008.83 2.08049 3.32352 0
M  V30 49895 H 5010.32 1.32278 3.96096 0
M  V30 49896 N 5010.76 -0.916262 1.28228 0
M  V30 49897 C 5011.72 -1.99992 1.11964 0
M  V30 49898 C 5012.72 -1.60688 0.0600717 0
M  V30 49899 O 5013.91 -1.71498 0.305641 0
M  V30 49900 C 5011.04 -3.33456 0.708528 0
M  V30 49901 H 5012.24 -2.1585 2.08203 0
M  V30 49902 H 5009.79 -1.09859 1.11178 0
M  V30 49903 H 5010.52 -3.23298 -0.254745 0
M  V30 49904 H 5010.31 -3.63344 1.4739 0
M  V30 49905 H 5011.8 -4.13012 0.617309 0
M  V30 49906 N 5012.24 -1.10435 -1.12436 0
M  V30 49907 C 5013.65 -0.864497 -1.65479 0
M  V30 49908 C 5014 0.605205 -1.86633 0
M  V30 49909 O 5013.12 1.46487 -1.59282 0
M  V30 49910 C 5013.72 -1.56277 -3.00604 0
M  V30 49911 C 5012.28 -1.36962 -3.50597 0
M  V30 49912 C 5011.43 -1.61217 -2.2562 0
M  V30 49913 H 5014.38 -1.26206 -0.962165 0
M  V30 49914 H 5014.4 -1.00179 -3.67076 0
M  V30 49915 H 5013.91 -2.63242 -2.85176 0
M  V30 49916 H 5012.01 -0.321612 -3.71209 0
M  V30 49917 H 5012.12 -2.11159 -4.30057 0
M  V30 49918 H 5010.49 -1.0349 -2.32727 0
M  V30 49919 H 5011.27 -2.69432 -2.12746 0
M  V30 49920 N 5013.72 1.29852 -0.893099 0
M  V30 49921 C 5014.95 1.99684 -0.530089 0
M  V30 49922 C 5015.35 1.67069 0.887954 0
M  V30 49923 O 5014.7 0.908422 1.59666 0
M  V30 49924 C 5014.76 3.53853 -0.634694 0
M  V30 49925 C 5014.42 4.10006 -2.01851 0
M  V30 49926 C 5015.42 4.25395 -2.98889 0
M  V30 49927 C 5013.1 4.45194 -2.32611 0
M  V30 49928 C 5015.1 4.75195 -4.24815 0
M  V30 49929 C 5012.79 4.94692 -3.58781 0
M  V30 49930 C 5013.78 5.09646 -4.54697 0
M  V30 49931 O 5013.47 5.58073 -5.78628 0
M  V30 49932 H 5013.2 0.644906 -0.202662 0
M  V30 49933 H 5015.76 1.66514 -1.20259 0
M  V30 49934 H 5013.99 3.86584 0.0948118 0
M  V30 49935 H 5015.68 4.04921 -0.28179 0
M  V30 49936 H 5016.44 3.98505 -2.76439 0
M  V30 49937 H 5012.32 4.32816 -1.58716 0
M  V30 49938 H 5015.87 4.86783 -4.99688 0
M  V30 49939 H 5011.76 5.21019 -3.81064 0
M  V30 49940 H 5012.53 5.764 -5.81124 0
M  V30 49941 N 5015.19 0.65489 1.43349 0
M  V30 49942 C 5016.43 0.172585 2.0367 0
M  V30 49943 C 5016.8 -1.19149 1.50558 0
M  V30 49944 O 5018 -1.7673 2.02534 0
M  V30 49945 C 5016.27 0.184107 3.56925 0
M  V30 49946 S 5017.83 -0.230108 4.38196 0
M  V30 49947 H 5014.65 0.0727752 0.707266 0
M  V30 49948 H 5017.25 0.863599 1.75392 0
M  V30 49949 H 5015.95 1.17959 3.93083 0
M  V30 49950 H 5015.48 -0.52739 3.89849 0
M  V30 49951 H 5017.5 -1.46857 4.7397 0
M  V30 49952 N 5016.67 -1.5252 0.396917 0
M  V30 49953 C 5017.9 -2.05793 -0.182413 0
M  V30 49954 C 5018.31 -1.26789 -1.40432 0
M  V30 49955 O 5017.65 -0.309681 -1.81071 0
M  V30 49956 C 5017.71 -3.54293 -0.609656 0
M  V30 49957 C 5017.38 -4.54258 0.499834 0
M  V30 49958 C 5018.38 -5.01807 1.35962 0
M  V30 49959 C 5016.06 -4.97824 0.669039 0
M  V30 49960 C 5018.05 -5.91554 2.37367 0
M  V30 49961 C 5015.74 -5.8737 1.68641 0
M  V30 49962 C 5016.74 -6.34128 2.53714 0
M  V30 49963 O 5016.43 -7.21903 3.53711 0
M  V30 49964 H 5016.16 -0.675363 -0.0293346 0
M  V30 49965 H 5018.71 -1.97537 0.562879 0
M  V30 49966 H 5016.94 -3.60193 -1.40704 0
M  V30 49967 H 5018.63 -3.9027 -1.11552 0
M  V30 49968 H 5019.4 -4.68874 1.24024 0
M  V30 49969 H 5015.28 -4.60997 0.0165592 0
M  V30 49970 H 5018.82 -6.27972 3.03804 0
M  V30 49971 H 5014.72 -6.19717 1.80615 0
M  V30 49972 H 5015.49 -7.39983 3.4981 0
M  V30 49973 N 5018.15 -0.126964 -1.57088 0
M  V30 49974 C 5019.38 0.5366 -1.9982 0
M  V30 49975 C 5019.79 1.59716 -1.00679 0
M  V30 49976 O 5019.15 1.825 -0.000811523 0
M  V30 49977 C 5019.2 1.15551 -3.42535 0
M  V30 49978 O 5018.92 0.137329 -4.37885 0
M  V30 49979 C 5020.42 1.90162 -4.00441 0
M  V30 49980 H 5017.64 0.141419 -0.655928 0
M  V30 49981 H 5020.19 -0.215649 -2.0336 0
M  V30 49982 H 5018.34 1.85849 -3.3991 0
M  V30 49983 H 5018.76 0.588045 -5.21193 0
M  V30 49984 H 5020.23 2.28783 -5.02357 0
M  V30 49985 H 5020.71 2.7799 -3.40027 0
M  V30 49986 H 5021.31 1.24608 -4.06636 0
M  V30 49987 N 5019.63 1.56915 0.14682 0
M  V30 49988 C 5021.04 1.51583 0.499465 0
M  V30 49989 C 5021.24 0.835415 1.83366 0
M  V30 49990 O 5020.3 0.40602 2.49214 0
M  V30 49991 C 5021.61 2.9635 0.509607 0
M  V30 49992 C 5023.16 3.0729 0.595109 0
M  V30 49993 C 5023.64 4.53564 0.635911 0
M  V30 49994 N 5025.13 4.57909 0.698129 0
M  V30 49995 C 5025.86 5.68465 0.750686 0
M  V30 49996 N 5025.36 6.8859 0.762578 0
M  V30 49997 N 5027.15 5.56498 0.791581 0
M  V30 49998 H 5019.3 1.99544 -0.727726 0
M  V30 49999 H 5021.56 0.910104 -0.265359 0
M  V30 50000 H 5021.27 3.49389 -0.402532 0
M  V30 50001 H 5021.14 3.52312 1.34745 0
M  V30 50002 H 5023.53 2.54271 1.49767 0
M  V30 50003 H 5023.61 2.54372 -0.269889 0
M  V30 50004 H 5023.26 5.07221 -0.262491 0
M  V30 50005 H 5023.19 5.04264 1.5174 0
M  V30 50006 H 5025.68 3.71431 0.696231 0
M  V30 50007 H 5025.99 7.68601 0.804534 0
M  V30 50008 H 5024.34 6.91151 0.730451 0
M  V30 50009 H 5027.53 4.61565 0.779462 0
M  V30 50010 H 5027.7 6.42674 0.829075 0
M  V30 50011 N 5021.11 -0.416173 1.52006 0
M  V30 50012 C 5022.38 -1.17632 1.56276 0
M  V30 50013 C 5022.76 -2.08351 0.339566 0
M  V30 50014 O 5022.11 -2.18332 -0.674047 0
M  V30 50015 C 5022.32 -1.95976 2.88781 0
M  V30 50016 C 5023.67 -2.52287 3.41521 0
M  V30 50017 O 5024.69 -2.06164 2.90474 0
M  V30 50018 O 5023.55 -3.36465 4.30643 0
M  V30 50019 H 5020.65 -0.536704 0.629188 0
M  V30 50020 H 5023.19 -0.423525 1.6433 0
M  V30 50021 H 5021.96 -1.29474 3.69259 0
M  V30 50022 H 5021.59 -2.78275 2.83987 0
M  V30 50023 N 5022.58 -1.42509 -0.672966 0
M  V30 50024 C 5023.99 -1.38352 -1.25362 0
M  V30 50025 C 5024.35 -0.0777017 -1.96046 0
M  V30 50026 O 5023.47 0.823501 -2.00119 0
M  V30 50027 C 5024.07 -2.50608 -2.27994 0
M  V30 50028 C 5022.62 -2.49777 -2.81582 0
M  V30 50029 C 5021.77 -2.29306 -1.5593 0
M  V30 50030 H 5024.72 -1.51697 -0.466235 0
M  V30 50031 H 5024.74 -2.20964 -3.09766 0
M  V30 50032 H 5024.26 -3.45633 -1.7652 0
M  V30 50033 H 5022.36 -1.58575 -3.37172 0
M  V30 50034 H 5022.47 -3.46878 -3.30473 0
M  V30 50035 H 5020.83 -1.776 -1.82566 0
M  V30 50036 H 5021.62 -3.26389 -1.0642 0
M  V30 50037 N 5024.06 0.909449 -1.28712 0
M  V30 50038 C 5025.29 1.69796 -1.19096 0
M  V30 50039 C 5025.71 1.8648 0.246322 0
M  V30 50040 O 5025.07 1.37806 1.1781 0
M  V30 50041 C 5025.12 3.06537 -1.89915 0
M  V30 50042 O 5024.22 3.94264 -1.20954 0
M  V30 50043 H 5023.56 0.519768 -0.413203 0
M  V30 50044 H 5026.09 1.13683 -1.7011 0
M  V30 50045 H 5026.1 3.56741 -1.97989 0
M  V30 50046 H 5024.78 2.93711 -2.94459 0
M  V30 50047 H 5023.35 3.52698 -1.21072 0
M  V30 50048 N 5025.54 1.1103 1.11848 0
M  V30 50049 C 5026.79 0.857794 1.83765 0
M  V30 50050 C 5027.12 -0.615078 1.84202 0
M  V30 50051 O 5026.39 -1.45387 1.29201 0
M  V30 50052 C 5026.68 1.41464 3.31149 0
M  V30 50053 C 5026.53 2.95483 3.39131 0
M  V30 50054 C 5027.85 1.06205 4.27093 0
M  V30 50055 H 5024.97 0.313068 0.667201 0
M  V30 50056 H 5027.61 1.37448 1.3118 0
M  V30 50057 H 5025.76 0.975184 3.76062 0
M  V30 50058 H 5027.43 3.48001 3.02809 0
M  V30 50059 H 5025.67 3.31769 2.79485 0
M  V30 50060 H 5026.35 3.29531 4.42847 0
M  V30 50061 H 5028.82 1.44135 3.90339 0
M  V30 50062 H 5027.7 1.47851 5.28613 0
M  V30 50063 H 5027.96 -0.0277358 4.42091 0
M  V30 50064 N 5027.02 -1.29376 0.899973 0
M  V30 50065 C 5028.43 -1.4805 0.596111 0
M  V30 50066 C 5028.63 -1.82117 -0.862308 0
M  V30 50067 O 5027.69 -1.91779 -1.64246 0
M  V30 50068 C 5029 -2.59327 1.52217 0
M  V30 50069 C 5030.55 -2.73202 1.5274 0
M  V30 50070 C 5031.03 -3.87609 2.43975 0
M  V30 50071 N 5032.52 -3.94942 2.42023 0
M  V30 50072 C 5033.25 -4.82813 3.0932 0
M  V30 50073 N 5032.75 -5.75374 3.85897 0
M  V30 50074 N 5034.54 -4.76307 2.98476 0
M  V30 50075 H 5026.69 -1.0554 1.84323 0
M  V30 50076 H 5028.96 -0.524286 0.789828 0
M  V30 50077 H 5028.66 -2.4102 2.5613 0
M  V30 50078 H 5028.54 -3.56134 1.2429 0
M  V30 50079 H 5030.92 -2.90907 0.495716 0
M  V30 50080 H 5031 -1.76969 1.84704 0
M  V30 50081 H 5030.65 -3.7066 3.47237 0
M  V30 50082 H 5030.58 -4.83211 2.0932 0
M  V30 50083 H 5033.07 -3.28738 1.86386 0
M  V30 50084 H 5033.38 -6.3922 4.34301 0
M  V30 50085 H 5031.73 -5.75258 3.90004 0
M  V30 50086 H 5034.92 -4.02982 2.38166 0
M  V30 50087 H 5035.09 -5.44577 3.51198 0
M  V30 50088 N 5028.5 -0.662483 -1.43 0
M  V30 50089 C 5029.74 -0.188563 -2.02524 0
M  V30 50090 C 5030.1 1.18747 -1.51384 0
M  V30 50091 O 5029.39 1.78311 -0.701128 0
M  V30 50092 C 5029.58 -0.149489 -3.57087 0
M  V30 50093 C 5029.41 -1.52019 -4.23226 0
M  V30 50094 C 5028.18 -2.11489 -4.58912 0
M  V30 50095 C 5030.38 -2.46044 -4.51627 0
M  V30 50096 N 5028.36 -3.41468 -5.10169 0
M  V30 50097 C 5029.73 -3.60665 -5.04302 0
M  V30 50098 C 5031.79 -2.4473 -4.33603 0
M  V30 50099 C 5030.49 -4.74208 -5.4085 0
M  V30 50100 C 5032.52 -3.5736 -4.71219 0
M  V30 50101 C 5031.88 -4.70707 -5.24036 0
M  V30 50102 H 5027.98 -0.113642 -0.773699 0
M  V30 50103 H 5030.56 -0.872799 -1.74041 0
M  V30 50104 H 5028.73 0.504119 -3.85115 0
M  V30 50105 H 5030.47 0.336165 -4.03301 0
M  V30 50106 H 5027.22 -1.64103 -4.4426 0
M  V30 50107 H 5027.65 -4.08006 -5.40241 0
M  V30 50108 H 5032.29 -1.58331 -3.92034 0
M  V30 50109 H 5030.01 -5.61292 -5.81358 0
M  V30 50110 H 5033.59 -3.57556 -4.58961 0
M  V30 50111 H 5032.47 -5.56418 -5.52602 0
M  V30 50112 N 5029.97 1.52307 -0.404999 0
M  V30 50113 C 5030.88 2.30635 0.429474 0
M  V30 50114 C 5031.9 1.38191 1.05732 0
M  V30 50115 O 5033.08 1.71265 1.05973 0
M  V30 50116 C 5030.14 3.10953 1.53328 0
M  V30 50117 C 5029.2 4.1913 0.928918 0
M  V30 50118 C 5028.44 4.95608 1.98012 0
M  V30 50119 O 5028.66 4.72342 3.19764 0
M  V30 50120 O 5027.59 5.80556 1.58865 0
M  V30 50121 H 5031.42 3.0298 -0.209069 0
M  V30 50122 H 5029 1.48449 -0.168307 0
M  V30 50123 H 5030.89 3.60982 2.17417 0
M  V30 50124 H 5029.56 2.41406 2.1565 0
M  V30 50125 H 5028.47 3.73258 0.25085 0
M  V30 50126 H 5029.8 4.90956 0.349683 0
M  V30 50127 N 5031.45 0.135293 1.57018 0
M  V30 50128 C 5032.68 -0.525233 1.99812 0
M  V30 50129 C 5033.09 -1.5972 1.0142 0
M  V30 50130 O 5032.43 -1.837 0.00137396 0
M  V30 50131 C 5032.5 -1.19566 3.39034 0
M  V30 50132 C 5032.16 -0.269694 4.56204 0
M  V30 50133 C 5033.16 0.498087 5.17509 0
M  V30 50134 C 5030.84 -0.176012 5.01992 0
M  V30 50135 C 5032.84 1.34712 6.23002 0
M  V30 50136 C 5030.52 0.676635 6.07342 0
M  V30 50137 C 5031.52 1.43682 6.67716 0
M  V30 50138 O 5031.21 2.27528 7.71029 0
M  V30 50139 H 5030.94 -0.142273 0.660859 0
M  V30 50140 H 5033.49 0.223344 2.04182 0
M  V30 50141 H 5031.72 -1.99164 3.31467 0
M  V30 50142 H 5033.41 -1.75473 3.66011 0
M  V30 50143 H 5034.18 0.435677 4.83039 0
M  V30 50144 H 5030.06 -0.757423 4.54735 0
M  V30 50145 H 5033.6 1.94094 6.70055 0
M  V30 50146 H 5029.5 0.74038 6.4124 0
M  V30 50147 H 5030.27 2.20647 7.88199 0
M  V30 50148 N 5032.93 -1.5699 -0.138497 0
M  V30 50149 C 5034.17 -1.85622 -0.855783 0
M  V30 50150 C 5034.53 -0.720725 -1.77959 0
M  V30 50151 O 5035.74 -0.88831 -2.53698 0
M  V30 50152 C 5034.01 -3.19453 -1.60264 0
M  V30 50153 S 5035.57 -3.69665 -2.36418 0
M  V30 50154 H 5032.38 -0.650936 -0.286012 0
M  V30 50155 H 5034.99 -1.9516 -0.115263 0
M  V30 50156 H 5033.69 -4.00056 -0.915597 0
M  V30 50157 H 5033.22 -3.12943 -2.38391 0
M  V30 50158 H 5035.24 -3.39608 -3.61775 0
M  V30 50159 N 5034.41 0.408106 -1.52224 0
M  V30 50160 C 5035.36 1.51782 -1.76253 0
M  V30 50161 C 5036.35 1.57262 -0.629693 0
M  V30 50162 O 5037.56 1.60656 -0.81176 0
M  V30 50163 H 5033.93 0.504803 -0.557385 0
M  V30 50164 H 5035.9 1.28701 -2.69219 0
M  V30 50165 C 5034.65 2.89138 -1.93117 0
M  V30 50166 H 5033.97 2.85665 -2.79707 0
M  V30 50167 H 5035.41 3.66074 -2.13929 0
M  V30 50168 C 5033.87 3.29578 -0.698547 0
M  V30 50169 O 5034.4 4.01479 0.133097 0
M  V30 50170 N 5032.61 2.85649 -0.53415 0
M  V30 50171 H 5032.16 2.27306 -1.21202 0
M  V30 50172 H 5032.11 3.13066 0.289277 0
M  V30 50173 N 5035.89 1.42864 0.665399 0
M  V30 50174 C 5036.82 1.49874 1.79054 0
M  V30 50175 C 5037.8 0.354452 1.66366 0
M  V30 50176 O 5038.98 0.570034 1.85645 0
M  V30 50177 C 5036.11 1.40954 3.1741 0
M  V30 50178 C 5035.07 2.53507 3.44845 0
M  V30 50179 C 5034.39 2.29643 4.82875 0
M  V30 50180 C 5035.69 3.95793 3.40801 0
M  V30 50181 H 5037.39 2.44044 1.73445 0
M  V30 50182 H 5034.93 1.17459 0.833029 0
M  V30 50183 H 5036.89 1.44464 3.95864 0
M  V30 50184 H 5035.61 0.43283 3.23719 0
M  V30 50185 H 5034.27 2.49329 2.68757 0
M  V30 50186 H 5033.92 1.30243 4.85845 0
M  V30 50187 H 5033.62 3.05083 5.02193 0
M  V30 50188 H 5035.14 2.34917 5.63601 0
M  V30 50189 H 5036.55 4.01523 4.0921 0
M  V30 50190 H 5034.95 4.71161 3.71655 0
M  V30 50191 H 5036.02 4.21795 2.39201 0
M  V30 50192 N 5037.36 -0.902611 1.29192 0
M  V30 50193 C 5038.59 -1.68635 1.19875 0
M  V30 50194 C 5039.01 -1.87255 -0.241055 0
M  V30 50195 O 5038.36 -1.40749 -1.16172 0
M  V30 50196 C 5038.42 -3.07244 1.90482 0
M  V30 50197 O 5038.14 -2.89476 3.28839 0
M  V30 50198 C 5039.64 -4.01646 1.87604 0
M  V30 50199 H 5036.86 -0.526788 0.415615 0
M  V30 50200 H 5039.4 -1.12895 1.70514 0
M  V30 50201 H 5037.56 -3.59769 1.43685 0
M  V30 50202 H 5037.97 -3.77283 3.64359 0
M  V30 50203 H 5039.44 -4.96331 2.41578 0
M  V30 50204 H 5039.92 -4.30878 0.850907 0
M  V30 50205 H 5040.53 -3.55053 2.34131 0
M  V30 50206 N 5038.84 -1.11622 -1.11258 0
M  V30 50207 C 5039.77 -0.734092 -2.17126 0
M  V30 50208 C 5040.79 0.235186 -1.61092 0
M  V30 50209 O 5041.98 0.0177969 -1.78491 0
M  V30 50210 C 5039.08 -0.0644873 -3.38839 0
M  V30 50211 C 5038.25 -1.06107 -4.24335 0
M  V30 50212 C 5037.31 -0.420666 -5.24516 0
M  V30 50213 O 5036.33 -1.07515 -5.58954 0
M  V30 50214 N 5037.54 0.815626 -5.74742 0
M  V30 50215 H 5040.3 -1.64501 -2.50519 0
M  V30 50216 H 5037.86 -1.00668 -1.26797 0
M  V30 50217 H 5039.85 0.37571 -4.02952 0
M  V30 50218 H 5038.42 0.74904 -3.03493 0
M  V30 50219 H 5037.64 -1.67916 -3.56648 0
M  V30 50220 H 5038.93 -1.73524 -4.78296 0
M  V30 50221 H 5038.33 1.36649 -5.48948 0
M  V30 50222 H 5036.89 1.19877 -6.40681 0
M  V30 50223 N 5040.32 1.28897 -0.906821 0
M  V30 50224 C 5041.56 1.97045 -0.543398 0
M  V30 50225 C 5041.92 1.69865 0.894974 0
M  V30 50226 O 5043.13 2.31526 1.36563 0
M  V30 50227 C 5041.4 3.47486 -0.835955 0
M  V30 50228 S 5042.96 4.34978 -0.577909 0
M  V30 50229 H 5039.77 0.681901 -0.201326 0
M  V30 50230 H 5042.38 1.56566 -1.17079 0
M  V30 50231 H 5041.08 3.64762 -1.88088 0
M  V30 50232 H 5040.61 3.92907 -0.196956 0
M  V30 50233 H 5042.63 4.9287 0.573879 0
M  V30 50234 N 5041.8 0.670057 1.42646 0
M  V30 50235 C 5043.02 0.197027 2.06462 0
M  V30 50236 C 5043.45 -1.13515 1.49987 0
M  V30 50237 O 5042.81 -1.70498 0.616457 0
M  V30 50238 C 5042.86 0.137508 3.60338 0
M  V30 50239 O 5041.96 -0.895381 4.02563 0
M  V30 50240 H 5041.3 0.102602 0.656025 0
M  V30 50241 H 5043.83 0.917733 1.82863 0
M  V30 50242 H 5043.84 -0.0402191 4.0798 0
M  V30 50243 H 5042.52 1.10991 4.00817 0
M  V30 50244 H 5041.09 -0.68908 3.66478 0
M  V30 50245 N 5043.28 -1.5209 0.413071 0
M  V30 50246 C 5044.55 -1.94357 -0.220172 0
M  V30 50247 C 5044.93 -1.35022 -1.62272 0
M  V30 50248 O 5044.28 -0.527589 -2.22326 0
M  V30 50249 C 5044.49 -3.4829 -0.222516 0
M  V30 50250 C 5045.84 -4.22315 -0.43995 0
M  V30 50251 O 5046.86 -3.5492 -0.301701 0
M  V30 50252 O 5045.72 -5.41832 -0.712793 0
M  V30 50253 H 5042.82 -0.814541 -0.143011 0
M  V30 50254 H 5045.36 -1.63082 0.469299 0
M  V30 50255 H 5044.14 -3.83869 0.758971 0
M  V30 50256 H 5043.76 -3.85938 -0.955921 0
M  V30 50257 N 5044.76 -0.143618 -1.56944 0
M  V30 50258 C 5045.72 0.783219 -2.15403 0
M  V30 50259 C 5046.72 1.1776 -1.09496 0
M  V30 50260 O 5047.91 1.09907 -1.35152 0
M  V30 50261 C 5045.04 2.06239 -2.71438 0
M  V30 50262 H 5046.23 0.274758 -2.98639 0
M  V30 50263 H 5043.79 0.105805 -1.55941 0
M  V30 50264 H 5044.52 2.61459 -1.91858 0
M  V30 50265 H 5044.31 1.78885 -3.48916 0
M  V30 50266 H 5045.8 2.72442 -3.16489 0
M  V30 50267 N 5046.23 1.57062 0.130169 0
M  V30 50268 C 5047.14 2.02806 1.17927 0
M  V30 50269 C 5048.16 0.94643 1.46009 0
M  V30 50270 O 5049.34 1.25714 1.57347 0
M  V30 50271 C 5046.4 2.41377 2.48874 0
M  V30 50272 C 5045.46 3.63569 2.28289 0
M  V30 50273 C 5044.69 4.00291 3.52991 0
M  V30 50274 O 5044.92 3.37479 4.59852 0
M  V30 50275 O 5043.85 4.93453 3.44655 0
M  V30 50276 H 5047.68 2.92396 0.820855 0
M  V30 50277 H 5045.26 1.45476 0.340146 0
M  V30 50278 H 5047.14 2.6697 3.26045 0
M  V30 50279 H 5045.82 1.54936 2.84212 0
M  V30 50280 H 5044.73 3.43141 1.49013 0
M  V30 50281 H 5046.06 4.5068 1.97859 0
M  V30 50282 N 5047.71 -0.400028 1.52439 0
M  V30 50283 C 5048.96 -1.14386 1.66614 0
M  V30 50284 C 5049.28 -1.9079 0.402994 0
M  V30 50285 O 5048.55 -1.87044 -0.582359 0
M  V30 50286 H 5047.13 -0.425254 0.61414 0
M  V30 50287 H 5049.79 -0.45501 1.89514 0
M  V30 50288 H 5048.89 -1.8529 2.51146 0
M  V30 50289 N 5049.19 -1.43215 -0.657814 0
M  V30 50290 C 5050.42 -1.4802 -1.44561 0
M  V30 50291 C 5050.83 -0.0966614 -1.88552 0
M  V30 50292 O 5050.19 0.892165 -1.59206 0
M  V30 50293 C 5050.24 -2.42208 -2.68361 0
M  V30 50294 O 5049.96 -3.75181 -2.2621 0
M  V30 50295 C 5051.46 -2.56207 -3.61763 0
M  V30 50296 H 5048.68 -0.502876 -0.444248 0
M  V30 50297 H 5051.23 -1.8791 -0.806851 0
M  V30 50298 H 5049.38 -2.05526 -3.28387 0
M  V30 50299 H 5049.8 -4.25787 -3.06278 0
M  V30 50300 H 5051.27 -3.26197 -4.45308 0
M  V30 50301 H 5051.75 -1.60548 -4.08804 0
M  V30 50302 H 5052.35 -2.93682 -3.07621 0
M  V30 50303 N 5050.67 0.895746 -1.29669 0
M  V30 50304 C 5051.63 1.98185 -1.15131 0
M  V30 50305 C 5052.63 1.60572 -0.0856281 0
M  V30 50306 O 5053.82 1.7099 -0.332886 0
M  V30 50307 C 5050.95 3.32286 -0.761488 0
M  V30 50308 H 5052.15 2.12511 -2.11611 0
M  V30 50309 H 5049.7 1.08077 -1.12912 0
M  V30 50310 H 5050.43 3.23662 0.203279 0
M  V30 50311 H 5050.22 3.60953 -1.53152 0
M  V30 50312 H 5051.71 4.11978 -0.682937 0
M  V30 50313 N 5052.15 1.1221 1.10665 0
M  V30 50314 C 5053.39 0.877236 1.82845 0
M  V30 50315 C 5053.72 -0.595506 1.84844 0
M  V30 50316 O 5053 -1.44008 1.30736 0
M  V30 50317 C 5053.28 1.44969 3.2963 0
M  V30 50318 C 5053.14 2.99063 3.35978 0
M  V30 50319 C 5054.45 1.10729 4.25943 0
M  V30 50320 H 5051.57 0.320127 0.663843 0
M  V30 50321 H 5054.22 1.38831 1.29715 0
M  V30 50322 H 5052.37 1.01502 3.75006 0
M  V30 50323 H 5054.04 3.51193 2.99101 0
M  V30 50324 H 5052.28 3.34715 2.7595 0
M  V30 50325 H 5052.95 3.34209 4.39327 0
M  V30 50326 H 5055.43 1.48267 3.88788 0
M  V30 50327 H 5054.3 1.53449 5.27015 0
M  V30 50328 H 5054.56 0.0191554 4.42096 0
M  V30 50329 N 5053.62 -1.28415 0.913644 0
M  V30 50330 C 5054.59 -2.25563 0.406703 0
M  V30 50331 C 5055.59 -1.53872 -0.466911 0
M  V30 50332 O 5056.78 -1.72095 -0.269981 0
M  V30 50333 C 5053.91 -3.38341 -0.416934 0
M  V30 50334 H 5055.1 -2.71921 1.26487 0
M  V30 50335 H 5052.65 -1.40095 0.693035 0
M  V30 50336 H 5053.39 -2.97343 -1.29451 0
M  V30 50337 H 5053.17 -3.91541 0.209239 0
M  V30 50338 H 5054.66 -4.1058 -0.762458 0
M  V30 50339 N 5055.1 -0.677613 -1.42289 0
M  V30 50340 C 5056.51 -0.277977 -1.84619 0
M  V30 50341 C 5056.86 1.18042 -1.56718 0
M  V30 50342 O 5055.99 1.904 -1.02843 0
M  V30 50343 C 5056.58 -0.497737 -3.35124 0
M  V30 50344 C 5055.14 -0.152195 -3.76092 0
M  V30 50345 C 5054.29 -0.788814 -2.65844 0
M  V30 50346 H 5057.24 -0.879573 -1.32095 0
M  V30 50347 H 5057.26 0.249256 -3.79683 0
M  V30 50348 H 5056.77 -1.55926 -3.55399 0
M  V30 50349 H 5054.87 0.905769 -3.61423 0
M  V30 50350 H 5054.99 -0.594681 -4.75395 0
M  V30 50351 H 5053.35 -0.219903 -2.53749 0
M  V30 50352 H 5054.13 -1.85384 -2.88942 0
M  V30 50353 N 5056.58 1.51869 -0.421131 0
M  V30 50354 C 5057.99 1.86644 0.0457335 0
M  V30 50355 C 5058.34 1.33924 1.43384 0
M  V30 50356 O 5057.47 0.683388 2.05326 0
M  V30 50357 C 5058.06 3.38681 0.0897653 0
M  V30 50358 C 5056.62 3.73051 0.500996 0
M  V30 50359 C 5055.77 2.75484 -0.31682 0
M  V30 50360 H 5058.72 1.45325 -0.637686 0
M  V30 50361 H 5058.74 3.69639 0.902604 0
M  V30 50362 H 5058.25 3.77022 -0.920646 0
M  V30 50363 H 5056.35 3.40293 1.51761 0
M  V30 50364 H 5056.47 4.78513 0.237049 0
M  V30 50365 H 5054.83 2.53726 0.222574 0
M  V30 50366 H 5055.61 3.16666 -1.3258 0
M  V30 50367 N 5058.06 0.151939 1.56866 0
M  V30 50368 C 5059.29 -0.504743 2.00649 0
M  V30 50369 C 5059.7 -1.58094 1.03207 0
M  V30 50370 O 5059.06 -1.82476 0.0298456 0
M  V30 50371 C 5059.11 -1.10087 3.4433 0
M  V30 50372 O 5058.83 -0.0676481 4.38048 0
M  V30 50373 C 5060.33 -1.83767 4.03416 0
M  V30 50374 H 5057.55 -0.130966 0.658095 0
M  V30 50375 H 5060.1 0.247975 2.02991 0
M  V30 50376 H 5058.25 -1.80418 3.42824 0
M  V30 50377 H 5058.66 -0.505054 5.22063 0
M  V30 50378 H 5060.14 -2.20762 5.05933 0
M  V30 50379 H 5060.62 -2.72545 3.44407 0
M  V30 50380 H 5061.22 -1.18123 4.08567 0
M  V30 50381 N 5059.54 -1.57128 -0.121838 0
M  V30 50382 C 5060.79 -1.83891 -0.828683 0
M  V30 50383 C 5061.1 -0.73715 -1.81178 0
M  V30 50384 O 5062.3 -0.891097 -2.5646 0
M  V30 50385 C 5060.76 -3.2602 -1.52444 0
M  V30 50386 C 5060.37 -4.44197 -0.582473 0
M  V30 50387 C 5062.11 -3.62033 -2.21658 0
M  V30 50388 C 5060.02 -5.77353 -1.28129 0
M  V30 50389 H 5058.95 -0.685867 -0.313214 0
M  V30 50390 H 5061.6 -1.83319 -0.0814207 0
M  V30 50391 H 5059.98 -3.21052 -2.31822 0
M  V30 50392 H 5061.16 -4.60456 0.177891 0
M  V30 50393 H 5059.47 -4.164 0.00255867 0
M  V30 50394 H 5062.07 -4.58786 -2.74627 0
M  V30 50395 H 5062.41 -2.89326 -2.99326 0
M  V30 50396 H 5062.94 -3.68772 -1.49171 0
M  V30 50397 H 5059.68 -6.53222 -0.545959 0
M  V30 50398 H 5059.2 -5.64985 -2.01374 0
M  V30 50399 H 5060.88 -6.21013 -1.81527 0
M  V30 50400 N 5061.01 0.391938 -1.52649 0
M  V30 50401 C 5062.24 1.15854 -1.71422 0
M  V30 50402 C 5062.66 1.83808 -0.43128 0
M  V30 50403 O 5062.01 1.72562 0.594024 0
M  V30 50404 C 5062.07 2.20878 -2.86173 0
M  V30 50405 O 5061.79 1.55696 -4.095 0
M  V30 50406 C 5063.29 3.10288 -3.16601 0
M  V30 50407 H 5060.51 0.347474 -0.574024 0
M  V30 50408 H 5063.05 0.458902 -1.99285 0
M  V30 50409 H 5061.21 2.86483 -2.6078 0
M  V30 50410 H 5061.62 2.25458 -4.73571 0
M  V30 50411 H 5063.09 3.80016 -4.00364 0
M  V30 50412 H 5063.57 3.73631 -2.30861 0
M  V30 50413 H 5064.18 2.50333 -3.43822 0
M  V30 50414 N 5062.49 1.43562 0.650209 0
M  V30 50415 C 5063.9 1.40329 1.23145 0
M  V30 50416 C 5064.25 0.108881 1.95898 0
M  V30 50417 O 5063.38 -0.79156 2.01403 0
M  V30 50418 C 5063.97 2.54203 2.23978 0
M  V30 50419 C 5062.53 2.54225 2.77573 0
M  V30 50420 C 5061.68 2.31757 1.52262 0
M  V30 50421 H 5064.63 1.52419 0.442042 0
M  V30 50422 H 5064.65 2.25864 3.06212 0
M  V30 50423 H 5064.16 3.48398 1.70999 0
M  V30 50424 H 5062.27 1.63919 3.34606 0
M  V30 50425 H 5062.38 3.52092 3.24912 0
M  V30 50426 H 5060.74 1.80482 1.79717 0
M  V30 50427 H 5061.53 3.28041 1.01214 0
M  V30 50428 N 5063.97 -0.888857 1.30143 0
M  V30 50429 C 5065.22 -1.63503 1.18109 0
M  V30 50430 C 5065.53 -1.93809 -0.264073 0
M  V30 50431 O 5066.74 -2.66746 -0.505872 0
M  V30 50432 C 5065.19 -2.94665 2.06641 0
M  V30 50433 C 5064.8 -2.71913 3.56044 0
M  V30 50434 C 5066.55 -3.72619 2.0336 0
M  V30 50435 C 5064.45 -3.98868 4.36644 0
M  V30 50436 H 5063.38 -0.61341 0.438456 0
M  V30 50437 H 5066.03 -0.984373 1.54862 0
M  V30 50438 H 5064.42 -3.61003 1.62766 0
M  V30 50439 H 5065.59 -2.14101 4.08041 0
M  V30 50440 H 5063.91 -2.0734 3.61108 0
M  V30 50441 H 5066.5 -4.66766 2.60832 0
M  V30 50442 H 5066.85 -4.03708 1.01614 0
M  V30 50443 H 5067.38 -3.13139 2.45335 0
M  V30 50444 H 5064.12 -3.7294 5.39069 0
M  V30 50445 H 5063.64 -4.562 3.89412 0
M  V30 50446 H 5065.32 -4.66923 4.47875 0
M  V30 50447 N 5065.45 -1.12795 -1.10068 0
M  V30 50448 C 5066.86 -0.899403 -1.63608 0
M  V30 50449 C 5067.21 0.565481 -1.87874 0
M  V30 50450 O 5066.34 1.43075 -1.62353 0
M  V30 50451 C 5066.93 -1.62618 -2.97222 0
M  V30 50452 C 5065.49 -1.44368 -3.47613 0
M  V30 50453 C 5064.64 -1.65966 -2.2215 0
M  V30 50454 H 5067.59 -1.28219 -0.935178 0
M  V30 50455 H 5067.61 -1.07943 -3.64868 0
M  V30 50456 H 5067.12 -2.69231 -2.79528 0
M  V30 50457 H 5065.22 -0.400278 -3.70444 0
M  V30 50458 H 5065.33 -2.20233 -4.25481 0
M  V30 50459 H 5063.7 -1.08403 -2.3048 0
M  V30 50460 H 5064.48 -2.73884 -2.06984 0
M  V30 50461 N 5066.93 1.27928 -0.920441 0
M  V30 50462 C 5068.15 1.99341 -0.572549 0
M  V30 50463 C 5068.58 1.6827 0.840637 0
M  V30 50464 O 5067.93 0.91886 1.5629 0
M  V30 50465 C 5067.98 3.51695 -0.796408 0
M  V30 50466 O 5067.09 4.12157 0.141457 0
M  V30 50467 H 5066.43 0.626057 -0.221243 0
M  V30 50468 H 5068.96 1.62917 -1.23771 0
M  V30 50469 H 5068.97 4.0179 -0.709125 0
M  V30 50470 H 5067.64 3.73643 -1.82657 0
M  V30 50471 H 5066.22 3.729 0.00487591 0
M  V30 50472 N 5068.4 0.685149 1.41928 0
M  V30 50473 C 5069.33 0.0274327 2.33484 0
M  V30 50474 C 5070.32 -0.778313 1.51249 0
M  V30 50475 O 5071.5 -0.733386 1.7982 0
M  V30 50476 C 5068.63 -0.917154 3.34971 0
M  V30 50477 C 5067.58 -0.219259 4.27438 0
M  V30 50478 C 5066.91 -1.27749 5.19215 0
M  V30 50479 C 5068.21 0.908075 5.14346 0
M  V30 50480 H 5069.9 0.792096 2.88732 0
M  V30 50481 H 5067.45 0.382356 1.38831 0
M  V30 50482 H 5069.4 -1.38643 3.9794 0
M  V30 50483 H 5068.13 -1.71336 2.78049 0
M  V30 50484 H 5066.79 0.229886 3.65879 0
M  V30 50485 H 5066.43 -2.06596 4.58614 0
M  V30 50486 H 5066.13 -0.815598 5.81912 0
M  V30 50487 H 5067.66 -1.74749 5.8506 0
M  V30 50488 H 5069.07 0.519549 5.70941 0
M  V30 50489 H 5067.47 1.29641 5.85929 0
M  V30 50490 H 5068.54 1.75234 4.5213 0
M  V30 50491 N 5069.88 -1.51644 0.429179 0
M  V30 50492 C 5070.79 -2.31289 -0.392727 0
M  V30 50493 C 5071.81 -1.39856 -1.0352 0
M  V30 50494 O 5072.98 -1.72929 -1.03235 0
M  V30 50495 C 5070.05 -3.13353 -1.48361 0
M  V30 50496 C 5069.11 -4.20554 -0.86212 0
M  V30 50497 C 5068.34 -4.98695 -1.90102 0
M  V30 50498 O 5068.57 -4.7737 -3.12209 0
M  V30 50499 O 5067.5 -5.8301 -1.49609 0
M  V30 50500 H 5071.33 -3.02609 0.257244 0
M  V30 50501 H 5068.91 -1.48162 0.191903 0
M  V30 50502 H 5070.79 -3.64395 -2.11647 0
M  V30 50503 H 5069.47 -2.44806 -2.11782 0
M  V30 50504 H 5068.38 -3.7361 -0.191437 0
M  V30 50505 H 5069.71 -4.9145 -0.271531 0
M  V30 50506 N 5071.36 -0.160256 -1.56783 0
M  V30 50507 C 5072.32 0.760329 -2.16221 0
M  V30 50508 C 5073.32 1.16592 -1.10739 0
M  V30 50509 O 5074.51 1.08468 -1.3631 0
M  V30 50510 C 5071.65 2.03348 -2.7361 0
M  V30 50511 H 5072.84 0.243068 -2.98913 0
M  V30 50512 H 5070.39 0.089259 -1.56045 0
M  V30 50513 H 5071.13 2.5941 -1.94621 0
M  V30 50514 H 5070.91 1.75174 -3.50794 0
M  V30 50515 H 5072.4 2.6907 -3.19361 0
M  V30 50516 N 5072.84 1.57191 0.113503 0
M  V30 50517 C 5074.25 1.74262 0.670054 0
M  V30 50518 C 5074.6 0.779757 1.8004 0
M  V30 50519 O 5073.73 -0.0460593 2.16351 0
M  V30 50520 C 5074.32 3.15985 1.22225 0
M  V30 50521 C 5072.88 3.34543 1.72504 0
M  V30 50522 C 5072.03 2.70118 0.627003 0
M  V30 50523 H 5074.98 1.58301 -0.112452 0
M  V30 50524 H 5075 3.17839 2.09185 0
M  V30 50525 H 5074.51 3.8604 0.399354 0
M  V30 50526 H 5072.61 2.69539 2.57254 0
M  V30 50527 H 5072.73 4.42744 1.83071 0
M  V30 50528 H 5071.09 2.31505 1.06196 0
M  V30 50529 H 5071.87 3.42801 -0.18501 0
M  V30 50530 N 5074.32 -0.383837 1.52854 0
M  V30 50531 C 5075.54 -1.15394 1.72334 0
M  V30 50532 C 5075.97 -1.82808 0.443044 0
M  V30 50533 O 5075.33 -1.71028 -0.601585 0
M  V30 50534 C 5075.37 -2.17375 2.87716 0
M  V30 50535 O 5074.48 -3.24073 2.55049 0
M  V30 50536 H 5073.82 -0.335689 0.572895 0
M  V30 50537 H 5076.35 -0.44655 1.99667 0
M  V30 50538 H 5076.36 -2.61285 3.13359 0
M  V30 50539 H 5075.03 -1.67697 3.80593 0
M  V30 50540 H 5073.61 -2.85265 2.40163 0
M  V30 50541 N 5075.8 -1.43905 -0.642587 0
M  V30 50542 C 5076.71 -1.52355 -1.78396 0
M  V30 50543 C 5077.72 -0.409928 -1.69102 0
M  V30 50544 O 5078.9 -0.665615 -1.90083 0
M  V30 50545 C 5075.96 -1.45419 -3.14729 0
M  V30 50546 C 5075.02 -2.67539 -3.3574 0
M  V30 50547 C 5074.26 -2.60925 -4.65568 0
M  V30 50548 O 5074.48 -1.66289 -5.45623 0
M  V30 50549 O 5073.41 -3.51597 -4.88532 0
M  V30 50550 H 5077.24 -2.48758 -1.74221 0
M  V30 50551 H 5074.82 -1.26024 -0.802395 0
M  V30 50552 H 5076.71 -1.44033 -3.96021 0
M  V30 50553 H 5075.38 -0.52155 -3.19471 0
M  V30 50554 H 5074.29 -2.74496 -2.5417 0
M  V30 50555 H 5075.62 -3.59812 -3.35852 0
M  V30 50556 N 5077.27 0.881943 -1.30612 0
M  V30 50557 C 5078.21 1.99371 -1.13065 0
M  V30 50558 C 5079.22 1.62636 -0.0730451 0
M  V30 50559 O 5080.41 1.7562 -0.319362 0
M  V30 50560 C 5077.51 3.31533 -0.702768 0
M  V30 50561 C 5076.68 3.96687 -1.84279 0
M  V30 50562 C 5075.74 5.07153 -1.40295 0
M  V30 50563 O 5074.77 5.28621 -2.11066 0
M  V30 50564 N 5075.97 5.79807 -0.283653 0
M  V30 50565 H 5078.73 2.14974 -2.08822 0
M  V30 50566 H 5076.29 1.05521 -1.22788 0
M  V30 50567 H 5078.29 4.02802 -0.391473 0
M  V30 50568 H 5076.86 3.12176 0.162844 0
M  V30 50569 H 5076.08 3.18552 -2.32204 0
M  V30 50570 H 5077.36 4.36955 -2.60668 0
M  V30 50571 H 5076.76 5.64872 0.30599 0
M  V30 50572 H 5075.32 6.51792 -0.0318276 0
M  V30 50573 N 5078.75 1.13378 1.09468 0
M  V30 50574 C 5079.71 0.813714 2.14269 0
M  V30 50575 C 5080.71 -0.17662 1.59827 0
M  V30 50576 O 5081.9 0.0504054 1.74127 0
M  V30 50577 C 5079.04 0.211016 3.40246 0
M  V30 50578 H 5080.23 1.74238 2.44093 0
M  V30 50579 H 5077.78 0.938348 1.24999 0
M  V30 50580 H 5078.52 -0.726886 3.16049 0
M  V30 50581 H 5078.3 0.924182 3.81053 0
M  V30 50582 H 5079.79 0.00392283 4.176 0
M  V30 50583 N 5080.23 -1.27438 0.927213 0
M  V30 50584 C 5081.64 -1.76383 0.612041 0
M  V30 50585 C 5081.99 -1.75718 -0.872791 0
M  V30 50586 O 5081.12 -1.36036 -1.68295 0
M  V30 50587 C 5081.71 -3.20299 1.10425 0
M  V30 50588 C 5080.27 -3.66913 0.839757 0
M  V30 50589 C 5079.42 -2.46855 1.26325 0
M  V30 50590 H 5082.37 -1.13712 1.10704 0
M  V30 50591 H 5082.39 -3.77809 0.451711 0
M  V30 50592 H 5081.9 -3.20751 2.18495 0
M  V30 50593 H 5080 -3.71907 -0.227161 0
M  V30 50594 H 5080.12 -4.5641 1.45695 0
M  V30 50595 H 5078.48 -2.45405 0.681809 0
M  V30 50596 H 5079.26 -2.50017 2.35259 0
M  V30 50597 N 5081.71 -0.692666 -1.41562 0
M  V30 50598 C 5082.94 -0.231351 -2.05602 0
M  V30 50599 C 5083.35 1.11832 -1.52115 0
M  V30 50600 O 5082.71 1.69828 -0.66819 0
M  V30 50601 C 5082.76 -0.177252 -3.61065 0
M  V30 50602 O 5082.48 -1.47361 -4.12573 0
M  V30 50603 C 5083.98 0.305404 -4.42247 0
M  V30 50604 H 5081.2 -0.108262 -0.662209 0
M  V30 50605 H 5083.74 -0.944433 -1.81386 0
M  V30 50606 H 5081.9 0.486633 -3.84331 0
M  V30 50607 H 5082.31 -1.35879 -5.06594 0
M  V30 50608 H 5083.79 0.292136 -5.51226 0
M  V30 50609 H 5084.26 1.34378 -4.18138 0
M  V30 50610 H 5084.87 -0.327378 -4.24038 0
M  V30 50611 N 5083.19 1.51414 -0.437215 0
M  V30 50612 C 5084.1 2.31494 0.380456 0
M  V30 50613 C 5085.11 1.40403 1.02777 0
M  V30 50614 O 5086.29 1.73474 1.02316 0
M  V30 50615 C 5083.35 3.14135 1.46697 0
M  V30 50616 C 5082.41 4.21006 0.839805 0
M  V30 50617 C 5081.65 4.99696 1.87455 0
M  V30 50618 O 5081.87 4.79019 3.09673 0
M  V30 50619 O 5080.8 5.83795 1.46515 0
M  V30 50620 H 5084.63 3.02468 -0.273289 0
M  V30 50621 H 5082.21 1.48059 -0.199758 0
M  V30 50622 H 5084.1 3.65512 2.09711 0
M  V30 50623 H 5082.77 2.45926 2.10481 0
M  V30 50624 H 5081.68 3.73706 0.17162 0
M  V30 50625 H 5083.01 4.91588 0.245465 0
M  V30 50626 N 5084.66 0.168568 1.56696 0
M  V30 50627 C 5085.6 -0.794174 2.15001 0
M  V30 50628 C 5086.61 -1.19566 1.10489 0
M  V30 50629 O 5087.8 -1.13599 1.37686 0
M  V30 50630 C 5084.9 -2.08009 2.67555 0
M  V30 50631 C 5084.07 -1.8426 3.96695 0
M  V30 50632 C 5083.13 -2.97043 4.34341 0
M  V30 50633 O 5082.16 -2.67798 5.02268 0
M  V30 50634 N 5083.36 -4.24761 3.95675 0
M  V30 50635 H 5086.12 -0.295727 2.98237 0
M  V30 50636 H 5083.68 -0.0143042 1.61894 0
M  V30 50637 H 5085.68 -2.82549 2.89738 0
M  V30 50638 H 5084.25 -2.49052 1.88923 0
M  V30 50639 H 5083.47 -0.936393 3.82917 0
M  V30 50640 H 5084.75 -1.65756 4.81043 0
M  V30 50641 H 5084.15 -4.51383 3.40984 0
M  V30 50642 H 5082.71 -4.96012 4.22865 0
M  V30 50643 N 5086.14 -1.57249 -0.105165 0
M  V30 50644 C 5087.56 -1.52854 -0.4591 0
M  V30 50645 C 5087.76 -0.883738 -1.81087 0
M  V30 50646 O 5086.81 -0.471952 -2.4805 0
M  V30 50647 C 5088.13 -2.97597 -0.430855 0
M  V30 50648 C 5089.68 -3.0876 -0.513427 0
M  V30 50649 C 5090.15 -4.5509 -0.515434 0
M  V30 50650 N 5091.64 -4.59599 -0.576478 0
M  V30 50651 C 5092.38 -5.70255 -0.599704 0
M  V30 50652 N 5091.87 -6.9037 -0.579742 0
M  V30 50653 N 5093.67 -5.58401 -0.643757 0
M  V30 50654 H 5085.82 -1.97545 0.780375 0
M  V30 50655 H 5088.08 -0.902748 0.289395 0
M  V30 50656 H 5087.79 -3.48199 0.495025 0
M  V30 50657 H 5087.66 -3.5576 -1.25357 0
M  V30 50658 H 5090.05 -2.58153 -1.42973 0
M  V30 50659 H 5090.13 -2.53567 0.337237 0
M  V30 50660 H 5089.77 -5.06347 0.39688 0
M  V30 50661 H 5089.7 -5.0811 -1.38317 0
M  V30 50662 H 5092.19 -3.73146 -0.597508 0
M  V30 50663 H 5092.51 -7.70464 -0.60047 0
M  V30 50664 H 5090.85 -6.92844 -0.546948 0
M  V30 50665 H 5094.04 -4.63469 -0.656812 0
M  V30 50666 H 5094.21 -6.44647 -0.65839 0
M  V30 50667 N 5087.62 0.375726 -1.53056 0
M  V30 50668 C 5089.03 0.953034 -1.60543 0
M  V30 50669 C 5089.38 1.90573 -0.466513 0
M  V30 50670 O 5088.51 2.12509 0.408534 0
M  V30 50671 C 5089.1 1.73527 -2.90988 0
M  V30 50672 C 5087.66 2.26208 -3.00844 0
M  V30 50673 C 5086.81 1.07148 -2.55763 0
M  V30 50674 H 5089.76 0.154839 -1.57943 0
M  V30 50675 H 5089.78 2.59565 -2.7822 0
M  V30 50676 H 5089.29 1.04163 -3.73861 0
M  V30 50677 H 5087.39 2.98844 -2.22537 0
M  V30 50678 H 5087.51 2.54785 -4.05736 0
M  V30 50679 H 5085.87 1.43546 -2.10397 0
M  V30 50680 H 5086.65 0.39298 -3.41043 0
M  V30 50681 N 5089.1 1.44244 0.634946 0
M  V30 50682 C 5090.35 1.46536 1.39182 0
M  V30 50683 C 5090.67 0.0977125 1.94755 0
M  V30 50684 O 5089.94 -0.869466 1.75548 0
M  V30 50685 H 5088.52 0.539562 0.516606 0
M  V30 50686 H 5091.18 1.79992 0.747591 0
M  V30 50687 H 5090.28 2.18856 2.22505 0
M  V30 50688 N 5090.58 -0.875004 1.31078 0
M  V30 50689 C 5091.82 -1.63005 1.20653 0
M  V30 50690 C 5092.16 -1.92761 -0.235978 0
M  V30 50691 O 5091.43 -1.55564 -1.16749 0
M  V30 50692 C 5091.71 -2.9635 2.0457 0
M  V30 50693 C 5091.57 -2.73504 3.57093 0
M  V30 50694 C 5092.89 -3.97393 1.89121 0
M  V30 50695 H 5090 -0.591503 0.439652 0
M  V30 50696 H 5092.65 -1.01184 1.60816 0
M  V30 50697 H 5090.8 -3.49113 1.70447 0
M  V30 50698 H 5092.47 -2.27451 4.01327 0
M  V30 50699 H 5090.71 -2.07826 3.80776 0
M  V30 50700 H 5091.38 -3.68363 4.11112 0
M  V30 50701 H 5093.86 -3.53822 2.18973 0
M  V30 50702 H 5092.73 -4.88587 2.50147 0
M  V30 50703 H 5093 -4.33791 0.853112 0
M  V30 50704 N 5092.05 -1.13957 -1.08865 0
M  V30 50705 C 5092.99 -0.779982 -2.1552 0
M  V30 50706 C 5094 0.200963 -1.61555 0
M  V30 50707 O 5095.19 -0.0200677 -1.78489 0
M  V30 50708 C 5092.29 -0.136346 -3.38626 0
M  V30 50709 C 5091.46 -1.15084 -4.21989 0
M  V30 50710 C 5090.52 -0.531829 -5.23506 0
M  V30 50711 O 5089.55 -1.19347 -5.56547 0
M  V30 50712 N 5090.75 0.693531 -5.76342 0
M  V30 50713 H 5093.51 -1.69778 -2.46973 0
M  V30 50714 H 5091.07 -1.03335 -1.24633 0
M  V30 50715 H 5093.07 0.290153 -4.03659 0
M  V30 50716 H 5091.64 0.684496 -3.05014 0
M  V30 50717 H 5090.86 -1.75443 -3.53006 0
M  V30 50718 H 5092.14 -1.83631 -4.74507 0
M  V30 50719 H 5091.54 1.24974 -5.51723 0
M  V30 50720 H 5090.1 1.06261 -6.4308 0
M  V30 50721 N 5093.53 1.26945 -0.933958 0
M  V30 50722 C 5094.44 2.30365 -0.443752 0
M  V30 50723 C 5095.46 1.67286 0.478686 0
M  V30 50724 O 5096.63 1.98157 0.359973 0
M  V30 50725 C 5093.7 3.45486 0.289853 0
M  V30 50726 C 5092.76 4.24067 -0.668263 0
M  V30 50727 C 5091.99 5.33691 0.0304262 0
M  V30 50728 O 5092.22 5.56565 1.24868 0
M  V30 50729 O 5091.15 5.98438 -0.644594 0
M  V30 50730 H 5094.98 2.74345 -1.30264 0
M  V30 50731 H 5092.56 1.3201 -0.699552 0
M  V30 50732 H 5094.44 4.15488 0.703384 0
M  V30 50733 H 5093.12 3.0355 1.12424 0
M  V30 50734 H 5092.03 3.56575 -1.1316 0
M  V30 50735 H 5093.36 4.69734 -1.47005 0
M  V30 50736 N 5095.01 0.700164 1.41193 0
M  V30 50737 C 5096.25 0.237294 2.03018 0
M  V30 50738 C 5096.61 -1.14298 1.54272 0
M  V30 50739 O 5097.82 -1.70197 2.08054 0
M  V30 50740 C 5096.09 0.297567 3.56159 0
M  V30 50741 S 5097.65 -0.0905825 4.38706 0
M  V30 50742 H 5094.46 0.0952395 0.704592 0
M  V30 50743 H 5097.07 0.918961 1.72555 0
M  V30 50744 H 5095.77 1.30404 3.89131 0
M  V30 50745 H 5095.3 -0.403096 3.91329 0
M  V30 50746 H 5097.32 -1.31704 4.78402 0
M  V30 50747 N 5096.49 -1.5118 0.445239 0
M  V30 50748 C 5097.72 -2.06269 -0.116849 0
M  V30 50749 C 5098.13 -1.31193 -1.36327 0
M  V30 50750 O 5097.47 -0.36713 -1.79994 0
M  V30 50751 C 5097.53 -3.56053 -0.496632 0
M  V30 50752 C 5097.2 -4.52438 0.644099 0
M  V30 50753 C 5098.19 -4.97228 1.51858 0
M  V30 50754 C 5095.88 -4.95444 0.827079 0
M  V30 50755 C 5097.87 -5.83703 2.56066 0
M  V30 50756 C 5095.56 -5.81707 1.87243 0
M  V30 50757 C 5096.56 -6.25735 2.7376 0
M  V30 50758 O 5096.24 -7.10284 3.76499 0
M  V30 50759 H 5095.98 -0.675955 -0.00783357 0
M  V30 50760 H 5098.53 -1.95646 0.625439 0
M  V30 50761 H 5096.76 -3.64487 -1.29174 0
M  V30 50762 H 5098.45 -3.93622 -0.99079 0
M  V30 50763 H 5099.22 -4.64691 1.38878 0
M  V30 50764 H 5095.09 -4.60711 0.163213 0
M  V30 50765 H 5098.64 -6.17989 3.23628 0
M  V30 50766 H 5094.54 -6.13657 2.00239 0
M  V30 50767 H 5095.3 -7.2848 3.73175 0
M  V30 50768 N 5097.97 -0.176876 -1.56604 0
M  V30 50769 C 5098.92 0.763643 -2.14831 0
M  V30 50770 C 5099.9 1.18899 -1.08405 0
M  V30 50771 O 5101.09 1.15043 -1.34514 0
M  V30 50772 C 5098.22 1.99059 -2.79697 0
M  V30 50773 C 5097.31 1.58697 -3.93289 0
M  V30 50774 N 5097.7 0.893248 -4.9785 0
M  V30 50775 C 5096 1.8776 -4.04552 0
M  V30 50776 C 5096.7 0.693663 -5.77549 0
M  V30 50777 N 5095.67 1.23681 -5.29343 0
M  V30 50778 H 5099.48 0.224708 -2.9304 0
M  V30 50779 H 5096.99 0.0235992 -1.62383 0
M  V30 50780 H 5098.99 2.67467 -3.19792 0
M  V30 50781 H 5097.65 2.53442 -2.02971 0
M  V30 50782 H 5098.66 0.550686 -5.14964 0
M  V30 50783 H 5095.33 2.43781 -3.38935 0
M  V30 50784 H 5096.72 0.144663 -6.71744 0
M  V30 50785 N 5099.44 1.57302 0.0968247 0
M  V30 50786 C 5100.69 1.85633 0.799052 0
M  V30 50787 C 5101.01 0.765326 1.79354 0
M  V30 50788 O 5100.28 -0.208589 1.94786 0
M  V30 50789 H 5098.86 0.684948 0.298087 0
M  V30 50790 H 5101.53 1.9474 0.0788656 0
M  V30 50791 H 5100.62 2.8231 1.3307 0
M  V30 50792 N 5100.92 -0.367603 1.53253 0
M  V30 50793 C 5101.87 -1.47055 1.80215 0
M  V30 50794 C 5102.87 -1.55537 0.671167 0
M  V30 50795 O 5104.07 -1.58448 0.85407 0
M  V30 50796 H 5100.45 -0.489848 0.570573 0
M  V30 50797 H 5102.42 -1.21518 2.72536 0
M  V30 50798 C 5101.17 -2.83916 2.00716 0
M  V30 50799 H 5100.49 -2.78148 2.87182 0
M  V30 50800 H 5101.93 -3.60274 2.2356 0
M  V30 50801 C 5100.39 -3.2761 0.785683 0
M  V30 50802 O 5100.92 -4.01691 -0.0266047 0
M  V30 50803 N 5099.12 -2.84132 0.609697 0
M  V30 50804 H 5098.67 -2.24012 1.27186 0
M  V30 50805 H 5098.63 -3.13723 -0.206171 0
M  V30 50806 N 5102.4 -1.44578 -0.627288 0
M  V30 50807 C 5103.65 -1.47272 -1.38403 0
M  V30 50808 C 5103.97 -0.10804 -1.947 0
M  V30 50809 O 5103.24 0.860144 -1.76007 0
M  V30 50810 H 5101.82 -0.542294 -0.513737 0
M  V30 50811 H 5104.48 -1.80386 -0.738035 0
M  V30 50812 H 5103.58 -2.20033 -2.21341 0
M  V30 50813 N 5103.88 0.86804 -1.3154 0
M  V30 50814 C 5104.81 1.98161 -1.15173 0
M  V30 50815 C 5105.82 1.62549 -0.0902907 0
M  V30 50816 O 5107.01 1.75271 -0.337971 0
M  V30 50817 C 5104.11 3.30769 -0.737892 0
M  V30 50818 C 5103.29 3.9471 -1.88476 0
M  V30 50819 C 5102.35 5.05636 -1.45666 0
M  V30 50820 O 5101.37 5.26352 -2.16661 0
M  V30 50821 N 5102.57 5.79473 -0.345133 0
M  V30 50822 H 5105.34 2.12747 -2.1109 0
M  V30 50823 H 5102.9 1.04213 -1.239 0
M  V30 50824 H 5104.89 4.02364 -0.434173 0
M  V30 50825 H 5103.46 3.12331 0.129724 0
M  V30 50826 H 5102.68 3.16071 -2.35569 0
M  V30 50827 H 5103.97 4.34166 -2.65288 0
M  V30 50828 H 5103.37 5.65165 0.246061 0
M  V30 50829 H 5101.92 6.51722 -0.100957 0
M  V30 50830 N 5105.36 1.14532 1.0826 0
M  V30 50831 C 5106.58 0.938446 1.84954 0
M  V30 50832 C 5107.01 -0.507981 1.81111 0
M  V30 50833 O 5106.37 -1.36142 1.19729 0
M  V30 50834 C 5106.41 1.4458 3.30347 0
M  V30 50835 O 5105.52 0.638888 4.07421 0
M  V30 50836 H 5104.86 0.335414 0.573056 0
M  V30 50837 H 5107.39 1.52292 1.36632 0
M  V30 50838 H 5107.4 1.45462 3.81189 0
M  V30 50839 H 5106.07 2.49887 3.32459 0
M  V30 50840 H 5104.65 0.698929 3.66291 0
M  V30 50841 N 5106.84 -1.26448 0.940677 0
M  V30 50842 C 5108.07 -1.97579 0.603835 0
M  V30 50843 C 5108.47 -1.70249 -0.825335 0
M  V30 50844 O 5107.82 -0.967056 -1.56185 0
M  V30 50845 C 5107.88 -3.51253 0.765587 0
M  V30 50846 C 5107.54 -4.02232 2.16929 0
M  V30 50847 C 5108.54 -4.14009 3.14472 0
M  V30 50848 C 5106.22 -4.36254 2.48973 0
M  V30 50849 C 5108.22 -4.59101 4.42159 0
M  V30 50850 C 5105.91 -4.81035 3.76894 0
M  V30 50851 C 5106.9 -4.92419 4.73299 0
M  V30 50852 O 5106.59 -5.36213 5.98942 0
M  V30 50853 H 5106.32 -0.63694 0.226458 0
M  V30 50854 H 5108.88 -1.61936 1.26356 0
M  V30 50855 H 5107.11 -3.86669 0.0487316 0
M  V30 50856 H 5108.8 -4.03596 0.431879 0
M  V30 50857 H 5109.56 -3.87971 2.91039 0
M  V30 50858 H 5105.44 -4.26628 1.74671 0
M  V30 50859 H 5108.99 -4.67902 5.1741 0
M  V30 50860 H 5104.88 -5.06517 4.00139 0
M  V30 50861 H 5105.65 -5.54435 6.02116 0
M  V30 50862 N 5108.31 -0.707642 -1.4082 0
M  V30 50863 C 5109.25 -0.0106774 -2.29198 0
M  V30 50864 C 5110.26 0.731984 -1.45416 0
M  V30 50865 O 5111.45 0.580682 -1.68791 0
M  V30 50866 C 5108.55 1.0091 -3.23528 0
M  V30 50867 C 5107.72 0.333593 -4.36126 0
M  V30 50868 C 5106.78 1.25765 -5.1095 0
M  V30 50869 O 5105.81 0.745448 -5.64298 0
M  V30 50870 N 5107.01 2.58929 -5.19554 0
M  V30 50871 H 5109.77 -0.769481 -2.89653 0
M  V30 50872 H 5107.33 -0.554632 -1.52103 0
M  V30 50873 H 5109.33 1.62927 -3.70455 0
M  V30 50874 H 5107.9 1.66933 -2.64296 0
M  V30 50875 H 5107.12 -0.466655 -3.91428 0
M  V30 50876 H 5108.4 -0.135623 -5.08619 0
M  V30 50877 H 5107.8 3.03048 -4.7768 0
M  V30 50878 H 5106.36 3.16111 -5.70015 0
M  V30 50879 N 5109.79 1.50942 -0.45325 0
M  V30 50880 C 5111.04 2.01813 0.107638 0
M  V30 50881 C 5111.36 1.33846 1.41811 0
M  V30 50882 O 5110.63 0.478039 1.89978 0
M  V30 50883 H 5109.21 0.745775 0.0427686 0
M  V30 50884 H 5111.87 1.85448 -0.599596 0
M  V30 50885 H 5110.97 3.10912 0.272071 0
M  V30 50886 N 5111.27 0.185179 1.56508 0
M  V30 50887 C 5112.5 -0.462068 2.01674 0
M  V30 50888 C 5112.91 -1.55869 1.06537 0
M  V30 50889 O 5112.27 -1.82371 0.0685446 0
M  V30 50890 C 5112.32 -1.02758 3.46588 0
M  V30 50891 O 5112.04 0.0252836 4.38093 0
M  V30 50892 C 5113.54 -1.75169 4.07223 0
M  V30 50893 H 5110.76 -0.116978 0.660725 0
M  V30 50894 H 5113.31 0.290976 2.02419 0
M  V30 50895 H 5111.46 -1.73105 3.46574 0
M  V30 50896 H 5111.88 -0.394203 5.23017 0
M  V30 50897 H 5113.35 -2.09981 5.10502 0
M  V30 50898 H 5113.83 -2.65178 3.5011 0
M  V30 50899 H 5114.43 -1.0943 4.10981 0
M  V30 50900 N 5112.75 -1.57351 -0.0884812 0
M  V30 50901 C 5113.98 -1.90358 -0.802963 0
M  V30 50902 C 5114.39 -0.777738 -1.72476 0
M  V30 50903 O 5113.73 0.258844 -1.81867 0
M  V30 50904 C 5113.79 -3.1868 -1.66383 0
M  V30 50905 C 5113.45 -4.47784 -0.91317 0
M  V30 50906 C 5114.45 -5.19346 -0.239965 0
M  V30 50907 C 5112.14 -4.94437 -0.885289 0
M  V30 50908 C 5114.13 -6.35802 0.451077 0
M  V30 50909 C 5111.82 -6.10803 -0.190464 0
M  V30 50910 C 5112.82 -6.81336 0.476535 0
M  V30 50911 O 5112.5 -7.95484 1.1602 0
M  V30 50912 H 5112.24 -0.634043 -0.234446 0
M  V30 50913 H 5114.79 -2.05287 -0.0681237 0
M  V30 50914 H 5113.02 -2.99914 -2.44107 0
M  V30 50915 H 5114.71 -3.37466 -2.25548 0
M  V30 50916 H 5115.47 -4.8434 -0.252922 0
M  V30 50917 H 5111.35 -4.39422 -1.3939 0
M  V30 50918 H 5114.9 -6.90791 0.972261 0
M  V30 50919 H 5110.79 -6.45262 -0.175377 0
M  V30 50920 H 5111.56 -8.11505 1.06777 0
M  V30 50921 N 5114.23 0.359471 -1.53446 0
M  V30 50922 C 5115.47 1.10146 -1.69924 0
M  V30 50923 C 5115.8 1.89123 -0.454166 0
M  V30 50924 O 5115.06 1.87398 0.563957 0
M  V30 50925 C 5115.35 2.08277 -2.9044 0
M  V30 50926 C 5115.02 1.45734 -4.26699 0
M  V30 50927 C 5113.68 1.28405 -4.63752 0
M  V30 50928 C 5116.03 1.00539 -5.11411 0
M  V30 50929 C 5113.36 0.644746 -5.83147 0
M  V30 50930 C 5115.71 0.380066 -6.31457 0
M  V30 50931 C 5114.38 0.194323 -6.67217 0
M  V30 50932 H 5113.65 0.403054 -0.621795 0
M  V30 50933 H 5116.3 0.382546 -1.8764 0
M  V30 50934 H 5114.6 2.86494 -2.67261 0
M  V30 50935 H 5116.3 2.65652 -3.00383 0
M  V30 50936 H 5112.89 1.60216 -3.97528 0
M  V30 50937 H 5117.07 1.12718 -4.8333 0
M  V30 50938 H 5112.33 0.489306 -6.09439 0
M  V30 50939 H 5116.5 0.0217007 -6.96397 0
M  V30 50940 H 5114.13 -0.303117 -7.59595 0
M  V30 50941 N 5115.7 1.44909 0.619611 0
M  V30 50942 C 5116.95 1.47573 1.37495 0
M  V30 50943 C 5117.27 0.116775 1.95251 0
M  V30 50944 O 5118.47 0.0210045 2.71492 0
M  V30 50945 C 5116.93 2.5986 2.49 0
M  V30 50946 C 5116.54 4.02015 1.97708 0
M  V30 50947 C 5118.28 2.71758 3.2611 0
M  V30 50948 C 5116.19 5.05704 3.06623 0
M  V30 50949 H 5115.12 0.549086 0.51674 0
M  V30 50950 H 5117.77 1.71012 0.665377 0
M  V30 50951 H 5116.15 2.29683 3.22586 0
M  V30 50952 H 5117.32 4.41814 1.3091 0
M  V30 50953 H 5115.64 3.94461 1.33378 0
M  V30 50954 H 5118.24 3.46396 4.07325 0
M  V30 50955 H 5118.58 1.77972 3.7634 0
M  V30 50956 H 5119.11 3.01401 2.59619 0
M  V30 50957 H 5115.85 6.01157 2.61324 0
M  V30 50958 H 5115.37 4.70486 3.72025 0
M  V30 50959 H 5117.05 5.29919 3.71207 0
M  V30 50960 N 5117.18 -0.861052 1.31999 0
M  V30 50961 C 5118.41 -1.64736 1.25179 0
M  V30 50962 C 5118.83 -1.87927 -0.181359 0
M  V30 50963 O 5118.18 -1.44374 -1.11635 0
M  V30 50964 C 5118.23 -3.01029 2.0016 0
M  V30 50965 O 5117.95 -2.78868 3.37882 0
M  V30 50966 C 5119.46 -3.95474 2.00287 0
M  V30 50967 H 5116.68 -0.513299 0.432164 0
M  V30 50968 H 5119.22 -1.07413 1.74019 0
M  V30 50969 H 5117.37 -3.55015 1.55058 0
M  V30 50970 H 5117.79 -3.65501 3.76178 0
M  V30 50971 H 5119.26 -4.88394 2.57246 0
M  V30 50972 H 5119.74 -4.27953 0.987557 0
M  V30 50973 H 5120.35 -3.47425 2.45308 0
M  V30 50974 N 5118.66 -1.15105 -1.07651 0
M  V30 50975 C 5119.91 -0.925406 -1.80455 0
M  V30 50976 C 5120.24 0.546289 -1.86358 0
M  V30 50977 O 5119.51 1.40491 -1.34508 0
M  V30 50978 C 5119.8 -1.53657 -3.25671 0
M  V30 50979 C 5119.65 -3.07866 -3.27931 0
M  V30 50980 C 5120.97 -1.21983 -4.22857 0
M  V30 50981 H 5118.09 -0.337615 -0.655122 0
M  V30 50982 H 5120.73 -1.42222 -1.25988 0
M  V30 50983 H 5118.88 -1.11409 -3.72183 0
M  V30 50984 H 5120.55 -3.58999 -2.89684 0
M  V30 50985 H 5118.8 -3.41913 -2.66979 0
M  V30 50986 H 5119.47 -3.4574 -4.30312 0
M  V30 50987 H 5121.94 -1.58523 -3.8472 0
M  V30 50988 H 5120.82 -1.67368 -5.22761 0
M  V30 50989 H 5121.08 -0.136363 -4.4189 0
M  V30 50990 N 5120.14 1.25947 -0.94737 0
M  V30 50991 C 5121.37 1.97542 -0.615197 0
M  V30 50992 C 5121.78 1.70486 0.811161 0
M  V30 50993 O 5121.14 0.976674 1.54167 0
M  V30 50994 C 5121.19 3.51233 -0.855451 0
M  V30 50995 O 5120.91 3.77351 -2.22571 0
M  V30 50996 C 5122.41 4.40064 -0.534669 0
M  V30 50997 H 5119.63 0.62988 -0.231285 0
M  V30 50998 H 5122.18 1.60304 -1.26976 0
M  V30 50999 H 5120.33 3.86609 -0.247401 0
M  V30 51000 H 5120.74 4.71849 -2.29039 0
M  V30 51001 H 5122.22 5.46835 -0.75336 0
M  V30 51002 H 5122.7 4.35984 0.530548 0
M  V30 51003 H 5123.3 4.10241 -1.12172 0
M  V30 51004 N 5121.62 0.7151 1.40442 0
M  V30 51005 C 5122.86 0.253896 2.00499 0
M  V30 51006 C 5123.19 -1.15676 1.56985 0
M  V30 51007 O 5122.46 -1.78411 0.809089 0
M  V30 51008 H 5121.04 0.0908798 0.741451 0
M  V30 51009 H 5123.7 0.920622 1.71786 0
M  V30 51010 H 5122.79 0.286609 3.10781 0
M  V30 51011 N 5123.09 -1.50699 0.461248 0
M  V30 51012 C 5124.51 -1.59186 0.114842 0
M  V30 51013 C 5124.71 -1.47025 -1.37789 0
M  V30 51014 O 5123.77 -1.32369 -2.15023 0
M  V30 51015 C 5125.08 -2.93451 0.65627 0
M  V30 51016 C 5126.63 -3.06822 0.618823 0
M  V30 51017 C 5127.1 -4.43646 1.13763 0
M  V30 51018 N 5128.59 -4.50032 1.09662 0
M  V30 51019 C 5129.33 -5.54272 1.46866 0
M  V30 51020 N 5128.82 -6.65816 1.91471 0
M  V30 51021 N 5130.62 -5.44762 1.38531 0
M  V30 51022 H 5122.77 -1.56848 1.43222 0
M  V30 51023 H 5125.03 -0.740691 0.591676 0
M  V30 51024 H 5124.74 -3.07796 1.70161 0
M  V30 51025 H 5124.61 -3.77082 0.0943587 0
M  V30 51026 H 5127 -2.92131 -0.417582 0
M  V30 51027 H 5127.08 -2.24972 1.21742 0
M  V30 51028 H 5126.72 -4.59086 2.17262 0
M  V30 51029 H 5126.65 -5.24072 0.515338 0
M  V30 51030 H 5129.14 -3.69986 0.769347 0
M  V30 51031 H 5129.46 -7.41405 2.18033 0
M  V30 51032 H 5127.8 -6.66961 1.95417 0
M  V30 51033 H 5130.99 -4.56507 1.03532 0
M  V30 51034 H 5131.17 -6.25883 1.67852 0
M  V30 51035 N 5124.57 -0.193476 -1.56408 0
M  V30 51036 C 5125.8 0.451367 -2.01917 0
M  V30 51037 C 5126.22 1.55302 -1.07362 0
M  V30 51038 O 5125.57 1.82332 -0.0782153 0
M  V30 51039 C 5125.62 1.00919 -3.47128 0
M  V30 51040 O 5125.34 -0.0485163 -4.38073 0
M  V30 51041 C 5126.85 1.73007 -4.08146 0
M  V30 51042 H 5124.07 0.113472 -0.661336 0
M  V30 51043 H 5126.61 -0.301707 -2.02262 0
M  V30 51044 H 5124.76 1.71265 -3.47487 0
M  V30 51045 H 5125.18 0.366461 -5.23218 0
M  V30 51046 H 5126.65 2.07271 -5.11608 0
M  V30 51047 H 5127.13 2.63318 -3.51512 0
M  V30 51048 H 5127.74 1.07249 -4.11555 0
M  V30 51049 N 5126.05 1.57396 0.0801353 0
M  V30 51050 C 5127.29 1.88671 0.786301 0
M  V30 51051 C 5127.65 0.786277 1.75162 0
M  V30 51052 O 5128.86 0.981857 2.50226 0
M  V30 51053 C 5127.13 3.25181 1.48297 0
M  V30 51054 S 5128.69 3.78184 2.22535 0
M  V30 51055 H 5125.5 0.661103 0.261656 0
M  V30 51056 H 5128.11 1.95453 0.0427509 0
M  V30 51057 H 5126.81 4.03179 0.766488 0
M  V30 51058 H 5126.34 3.21575 2.26612 0
M  V30 51059 H 5128.36 3.52801 3.48921 0
M  V30 51060 N 5127.53 -0.351328 1.53634 0
M  V30 51061 C 5128.46 -1.45153 1.77379 0
M  V30 51062 C 5129.47 -1.49048 0.654878 0
M  V30 51063 O 5130.66 -1.5227 0.931449 0
M  V30 51064 C 5127.76 -2.83851 1.85153 0
M  V30 51065 C 5126.94 -3.03487 3.14983 0
M  V30 51066 C 5125.99 -4.22382 3.13815 0
M  V30 51067 O 5125.02 -4.16871 3.87565 0
M  V30 51068 N 5126.22 -5.30524 2.35636 0
M  V30 51069 H 5128.99 -1.25158 2.72315 0
M  V30 51070 H 5126.55 -0.541156 1.52588 0
M  V30 51071 H 5128.54 -3.61551 1.81832 0
M  V30 51072 H 5127.11 -2.97026 0.97438 0
M  V30 51073 H 5126.33 -2.13324 3.31491 0
M  V30 51074 H 5127.62 -3.13484 4.00756 0
M  V30 51075 H 5127.02 -5.37868 1.75254 0
M  V30 51076 H 5125.57 -6.06747 2.3812 0
M  V30 51077 N 5129.01 -1.45235 -0.611918 0
M  V30 51078 C 5129.97 -1.53195 -1.70482 0
M  V30 51079 C 5130.97 -0.411893 -1.55435 0
M  V30 51080 O 5132.16 -0.67522 -1.60581 0
M  V30 51081 C 5129.29 -1.42433 -3.09718 0
M  V30 51082 H 5130.48 -2.50566 -1.64793 0
M  V30 51083 H 5128.04 -1.32612 -0.827271 0
M  V30 51084 H 5128.77 -0.462298 -3.20988 0
M  V30 51085 H 5128.56 -2.23669 -3.22048 0
M  V30 51086 H 5130.05 -1.51026 -3.89334 0
M  V30 51087 N 5130.49 0.85404 -1.32453 0
M  V30 51088 C 5131.73 1.61046 -1.24241 0
M  V30 51089 C 5132.09 1.91421 0.19381 0
M  V30 51090 O 5131.38 1.54603 1.13175 0
M  V30 51091 C 5131.57 2.93739 -2.03598 0
M  V30 51092 C 5131.4 2.76322 -3.5479 0
M  V30 51093 C 5130.17 2.74673 -4.24126 0
M  V30 51094 C 5132.37 2.50037 -4.49429 0
M  V30 51095 N 5130.35 2.48473 -5.61368 0
M  V30 51096 C 5131.72 2.33249 -5.74452 0
M  V30 51097 C 5133.78 2.3551 -4.38679 0
M  V30 51098 C 5132.48 2.0341 -6.8994 0
M  V30 51099 C 5134.51 2.07062 -5.53967 0
M  V30 51100 C 5133.87 1.91074 -6.7799 0
M  V30 51101 H 5129.97 0.59299 -0.509791 0
M  V30 51102 H 5132.55 1.00386 -1.66825 0
M  V30 51103 H 5130.72 3.52376 -1.63357 0
M  V30 51104 H 5132.46 3.58762 -1.87275 0
M  V30 51105 H 5129.21 2.87633 -3.7625 0
M  V30 51106 H 5129.63 2.383 -6.33674 0
M  V30 51107 H 5134.28 2.4659 -3.43443 0
M  V30 51108 H 5131.99 1.91067 -7.85187 0
M  V30 51109 H 5135.58 1.96599 -5.47577 0
M  V30 51110 H 5134.46 1.69375 -7.6569 0
M  V30 51111 N 5131.96 1.15674 1.07039 0
M  V30 51112 C 5133.19 0.95801 1.83948 0
M  V30 51113 C 5133.61 -0.488743 1.8164 0
M  V30 51114 O 5132.97 -1.34864 1.21167 0
M  V30 51115 C 5133.02 1.48076 3.28795 0
M  V30 51116 O 5132.12 0.682064 4.06721 0
M  V30 51117 H 5131.46 0.341473 0.569467 0
M  V30 51118 H 5133.99 1.53733 1.35009 0
M  V30 51119 H 5134 1.49497 3.79624 0
M  V30 51120 H 5132.68 2.534 3.2979 0
M  V30 51121 H 5131.26 0.73774 3.65529 0
M  V30 51122 N 5133.44 -1.25443 0.954036 0
M  V30 51123 C 5134.67 -1.97752 0.625199 0
M  V30 51124 C 5135.09 -1.7044 -0.795727 0
M  V30 51125 O 5134.45 -0.959974 -1.53799 0
M  V30 51126 C 5134.5 -3.4946 0.889374 0
M  V30 51127 O 5133.6 -4.12387 -0.0321307 0
M  V30 51128 H 5132.94 -0.619971 0.237764 0
M  V30 51129 H 5135.47 -1.59578 1.28047 0
M  V30 51130 H 5135.48 -3.99769 0.815404 0
M  V30 51131 H 5134.16 -3.68669 1.925 0
M  V30 51132 H 5132.73 -3.72782 0.0939936 0
M  V30 51133 N 5134.92 -0.722538 -1.40061 0
M  V30 51134 C 5135.85 -0.0234245 -2.28188 0
M  V30 51135 C 5136.83 0.760549 -1.43716 0
M  V30 51136 O 5138.01 0.74573 -1.73122 0
M  V30 51137 C 5135.14 0.974149 -3.24389 0
M  V30 51138 C 5134.19 0.280157 -4.25579 0
M  V30 51139 S 5135.02 -0.996954 -5.26138 0
M  V30 51140 C 5136.18 -0.00165927 -6.259 0
M  V30 51141 H 5136.41 -0.770806 -2.87134 0
M  V30 51142 H 5133.94 -0.513834 -1.45599 0
M  V30 51143 H 5135.9 1.54447 -3.80337 0
M  V30 51144 H 5134.56 1.69428 -2.64486 0
M  V30 51145 H 5133.75 1.03454 -4.93268 0
M  V30 51146 H 5133.36 -0.217788 -3.73365 0
M  V30 51147 H 5135.65 0.842889 -6.72236 0
M  V30 51148 H 5136.59 -0.645351 -7.05153 0
M  V30 51149 H 5137 0.365173 -5.63318 0
M  V30 51150 N 5136.4 1.50453 -0.469234 0
M  V30 51151 C 5137.63 2.06729 0.0841408 0
M  V30 51152 C 5138.04 1.33331 1.33673 0
M  V30 51153 O 5137.4 0.40204 1.78017 0
M  V30 51154 C 5137.45 3.59559 0.374127 0
M  V30 51155 O 5137.17 4.30189 -0.828774 0
M  V30 51156 C 5138.67 4.32452 0.974672 0
M  V30 51157 H 5135.89 0.670971 -0.00625459 0
M  V30 51158 H 5138.43 1.93642 -0.657484 0
M  V30 51159 H 5136.59 3.72454 1.06568 0
M  V30 51160 H 5137 5.21369 -0.572249 0
M  V30 51161 H 5138.48 5.40365 1.12736 0
M  V30 51162 H 5138.95 3.92826 1.96428 0
M  V30 51163 H 5139.56 4.24083 0.321554 0
M  V30 51164 N 5137.88 0.201768 1.56303 0
M  V30 51165 C 5139.29 -0.309646 1.84114 0
M  V30 51166 C 5139.64 -1.60908 1.12264 0
M  V30 51167 O 5138.76 -2.12936 0.385661 0
M  V30 51168 C 5139.36 -0.568589 3.33995 0
M  V30 51169 C 5137.92 -1.02436 3.62193 0
M  V30 51170 C 5137.06 -0.0765867 2.77194 0
M  V30 51171 H 5140.01 0.42541 1.52892 0
M  V30 51172 H 5140.04 -1.41708 3.53127 0
M  V30 51173 H 5139.55 0.377326 3.86261 0
M  V30 51174 H 5137.65 -1.98432 3.15366 0
M  V30 51175 H 5137.76 -0.912454 4.70331 0
M  V30 51176 H 5136.13 -0.579722 2.48015 0
M  V30 51177 H 5136.91 0.863891 3.32253 0
M  V30 51178 N 5139.35 -1.57436 -0.071787 0
M  V30 51179 C 5140.3 -2.00136 -1.09222 0
M  V30 51180 C 5141.29 -0.883426 -1.34478 0
M  V30 51181 O 5142.48 -1.14733 -1.34779 0
M  V30 51182 C 5139.61 -2.44884 -2.40596 0
M  V30 51183 C 5138.69 -3.63412 -2.18614 0
M  V30 51184 N 5139.09 -4.77589 -1.66562 0
M  V30 51185 C 5137.38 -3.69962 -2.49087 0
M  V30 51186 C 5138.08 -5.59436 -1.59395 0
M  V30 51187 N 5137.06 -5.03282 -2.05446 0
M  V30 51188 H 5140.86 -2.85852 -0.683085 0
M  V30 51189 H 5138.38 -1.59988 -0.278858 0
M  V30 51190 H 5140.37 -2.73714 -3.14462 0
M  V30 51191 H 5139.03 -1.60556 -2.82227 0
M  V30 51192 H 5140.04 -4.9988 -1.35426 0
M  V30 51193 H 5136.72 -2.96346 -2.94084 0
M  V30 51194 H 5138.11 -6.61097 -1.20003 0
M  V30 51195 N 5140.83 0.343176 -1.53818 0
M  V30 51196 C 5142.06 1.10784 -1.75333 0
M  V30 51197 C 5142.48 1.81569 -0.491356 0
M  V30 51198 O 5141.84 1.72563 0.556029 0
M  V30 51199 C 5141.89 2.09671 -2.93378 0
M  V30 51200 O 5140.99 3.17197 -2.63552 0
M  V30 51201 H 5140.33 0.320382 -0.581594 0
M  V30 51202 H 5142.86 0.393454 -2.00781 0
M  V30 51203 H 5142.87 2.52885 -3.20176 0
M  V30 51204 H 5141.55 1.57547 -3.84905 0
M  V30 51205 H 5140.12 2.78797 -2.47642 0
M  V30 51206 N 5142.31 1.45558 0.604207 0
M  V30 51207 C 5143.26 1.50912 1.70908 0
M  V30 51208 C 5144.24 0.372051 1.56539 0
M  V30 51209 O 5145.44 0.619122 1.65819 0
M  V30 51210 C 5142.56 1.48192 3.09667 0
M  V30 51211 C 5141.65 2.67114 3.2941 0
M  V30 51212 N 5142.04 3.92196 3.194 0
M  V30 51213 C 5140.34 2.62882 3.6029 0
M  V30 51214 C 5141.04 4.71583 3.40565 0
M  V30 51215 N 5140.02 4.03094 3.64714 0
M  V30 51216 H 5143.82 2.45441 1.61667 0
M  V30 51217 H 5141.33 1.40897 0.807572 0
M  V30 51218 H 5143.33 1.50113 3.88937 0
M  V30 51219 H 5141.99 0.547233 3.20055 0
M  V30 51220 H 5143 4.23767 2.97729 0
M  V30 51221 H 5139.68 1.78337 3.77495 0
M  V30 51222 H 5141.07 5.80583 3.3819 0
M  V30 51223 N 5143.79 -0.847003 1.32905 0
M  V30 51224 C 5145.01 -1.63921 1.27062 0
M  V30 51225 C 5145.44 -1.87443 -0.15707 0
M  V30 51226 O 5144.8 -1.4327 -1.11101 0
M  V30 51227 C 5144.84 -2.97127 2.04324 0
M  V30 51228 O 5143.95 -3.88044 1.39627 0
M  V30 51229 H 5143.29 -0.499462 0.437532 0
M  V30 51230 H 5145.82 -1.05437 1.7534 0
M  V30 51231 H 5145.83 -3.46888 2.14785 0
M  V30 51232 H 5144.5 -2.79328 3.08138 0
M  V30 51233 H 5143.08 -3.4652 1.37762 0
M  V30 51234 N 5145.27 -1.1624 -1.06424 0
M  V30 51235 C 5146.68 -0.90703 -1.31321 0
M  V30 51236 C 5146.88 0.440803 -1.96619 0
M  V30 51237 O 5145.94 1.18062 -2.23198 0
M  V30 51238 C 5147.25 -2.05508 -2.19515 0
M  V30 51239 C 5148.8 -2.0907 -2.32935 0
M  V30 51240 C 5149.27 -3.23225 -3.24483 0
M  V30 51241 N 5150.77 -3.22934 -3.32066 0
M  V30 51242 C 5151.5 -4.07904 -4.02992 0
M  V30 51243 N 5151 -5.02958 -4.76451 0
M  V30 51244 N 5152.79 -3.95895 -3.99029 0
M  V30 51245 H 5144.94 -2.03017 -0.624317 0
M  V30 51246 H 5147.2 -0.885772 -0.337804 0
M  V30 51247 H 5146.91 -3.02854 -1.78809 0
M  V30 51248 H 5146.78 -1.9955 -3.20093 0
M  V30 51249 H 5149.17 -1.12318 -2.7289 0
M  V30 51250 H 5149.25 -2.19093 -1.32029 0
M  V30 51251 H 5148.9 -4.20235 -2.85246 0
M  V30 51252 H 5148.83 -3.10438 -4.25366 0
M  V30 51253 H 5151.32 -2.54103 -2.79715 0
M  V30 51254 H 5151.63 -5.64215 -5.28092 0
M  V30 51255 H 5149.97 -5.06938 -4.75435 0
M  V30 51256 H 5153.17 -3.20939 -3.40758 0
M  V30 51257 H 5153.34 -4.62337 -4.54036 0
M  V30 51258 N 5146.74 1.24935 -0.960675 0
M  V30 51259 C 5147.97 1.96879 -0.636114 0
M  V30 51260 C 5148.39 1.71337 0.793033 0
M  V30 51261 O 5147.74 0.992971 1.53122 0
M  V30 51262 C 5147.8 3.50305 -0.892656 0
M  V30 51263 O 5147.52 3.74969 -2.26561 0
M  V30 51264 C 5149.02 4.39472 -0.581314 0
M  V30 51265 H 5146.24 0.627391 -0.237953 0
M  V30 51266 H 5148.78 1.58948 -1.2867 0
M  V30 51267 H 5146.94 3.86325 -0.288393 0
M  V30 51268 H 5147.35 4.69393 -2.34031 0
M  V30 51269 H 5148.82 5.46005 -0.811317 0
M  V30 51270 H 5149.3 4.36522 0.484276 0
M  V30 51271 H 5149.91 4.09028 -1.16517 0
M  V30 51272 N 5148.22 0.729956 1.39676 0
M  V30 51273 C 5149.63 0.346306 1.8346 0
M  V30 51274 C 5149.98 -1.12144 1.60991 0
M  V30 51275 O 5149.11 -1.86452 1.09839 0
M  V30 51276 C 5149.7 0.621773 3.33046 0
M  V30 51277 C 5148.26 0.291675 3.75268 0
M  V30 51278 C 5147.41 0.886937 2.62733 0
M  V30 51279 H 5150.36 0.927994 1.2874 0
M  V30 51280 H 5150.38 -0.108168 3.80346 0
M  V30 51281 H 5149.89 1.69009 3.49368 0
M  V30 51282 H 5148 -0.771005 3.64536 0
M  V30 51283 H 5148.11 0.770711 4.7286 0
M  V30 51284 H 5146.47 0.313928 2.52758 0
M  V30 51285 H 5147.26 1.95981 2.81863 0
M  V30 51286 N 5149.7 -1.50202 0.477206 0
M  V30 51287 C 5150.66 -2.27195 -0.302519 0
M  V30 51288 C 5151.66 -1.32224 -0.915066 0
M  V30 51289 O 5152.85 -1.55596 -0.783293 0
M  V30 51290 C 5149.99 -3.09385 -1.43156 0
M  V30 51291 H 5151.18 -2.97574 0.372783 0
M  V30 51292 H 5148.73 -1.54577 0.231446 0
M  V30 51293 H 5149.47 -2.43516 -2.14174 0
M  V30 51294 H 5149.25 -3.79185 -0.998064 0
M  V30 51295 H 5150.74 -3.67599 -1.98144 0
M  V30 51296 N 5151.18 -0.210054 -1.56194 0
M  V30 51297 C 5152.41 0.429302 -2.0209 0
M  V30 51298 C 5152.82 1.547 -1.08925 0
M  V30 51299 O 5152.16 1.83484 -0.089018 0
M  V30 51300 C 5152.22 1.03254 -3.44353 0
M  V30 51301 C 5151.89 0.0517266 -4.56971 0
M  V30 51302 C 5152.88 -0.74443 -5.14543 0
M  V30 51303 C 5150.57 -0.0636951 -5.0226 0
M  V30 51304 C 5152.56 -1.64283 -6.15865 0
M  V30 51305 C 5150.25 -0.965635 -6.03422 0
M  V30 51306 C 5151.25 -1.75375 -6.601 0
M  V30 51307 O 5150.93 -2.64055 -7.59296 0
M  V30 51308 H 5150.67 0.11058 -0.666894 0
M  V30 51309 H 5153.22 -0.320508 -2.02884 0
M  V30 51310 H 5151.45 1.83122 -3.40592 0
M  V30 51311 H 5153.14 1.5781 -3.73966 0
M  V30 51312 H 5153.91 -0.665645 -4.8041 0
M  V30 51313 H 5149.78 0.539601 -4.57831 0
M  V30 51314 H 5153.33 -2.25842 -6.60031 0
M  V30 51315 H 5149.23 -1.04548 -6.36977 0
M  V30 51316 H 5149.99 -2.58002 -7.76774 0
M  V30 51317 N 5152.66 1.57472 0.0634368 0
M  V30 51318 C 5153.89 1.91611 0.772577 0
M  V30 51319 C 5154.29 0.805079 1.71217 0
M  V30 51320 O 5153.64 -0.229877 1.82256 0
M  V30 51321 C 5153.7 3.21287 1.61292 0
M  V30 51322 C 5153.36 4.4918 0.841815 0
M  V30 51323 C 5154.36 5.19662 0.157312 0
M  V30 51324 C 5152.05 4.95783 0.806516 0
M  V30 51325 C 5154.04 6.35004 -0.552171 0
M  V30 51326 C 5151.73 6.11029 0.0932664 0
M  V30 51327 C 5152.72 6.80491 -0.584869 0
M  V30 51328 O 5152.41 7.93537 -1.28661 0
M  V30 51329 H 5152.14 0.637693 0.22433 0
M  V30 51330 H 5154.7 2.05369 0.0354557 0
M  V30 51331 H 5152.93 3.0376 2.39305 0
M  V30 51332 H 5154.62 3.41011 2.2015 0
M  V30 51333 H 5155.38 4.84681 0.175835 0
M  V30 51334 H 5151.26 4.41584 1.32382 0
M  V30 51335 H 5154.81 6.89157 -1.08204 0
M  V30 51336 H 5150.7 6.45459 0.0726989 0
M  V30 51337 H 5151.47 8.09704 -1.19674 0
M  V30 51338 N 5154.13 -0.335013 1.53998 0
M  V30 51339 C 5155.55 -0.910133 1.63014 0
M  V30 51340 C 5155.9 -1.89269 0.516876 0
M  V30 51341 O 5155.02 -2.13517 -0.352048 0
M  V30 51342 C 5155.62 -1.65751 2.95486 0
M  V30 51343 C 5154.18 -2.18152 3.06736 0
M  V30 51344 C 5153.32 -1.00329 2.58514 0
M  V30 51345 H 5156.27 -0.112909 1.58298 0
M  V30 51346 H 5156.29 -2.52097 2.85004 0
M  V30 51347 H 5155.81 -0.942138 3.76491 0
M  V30 51348 H 5153.91 -2.92839 2.30382 0
M  V30 51349 H 5154.02 -2.43938 4.12348 0
M  V30 51350 H 5152.38 -1.37917 2.14128 0
M  V30 51351 H 5153.17 -0.30242 3.41965 0
M  V30 51352 N 5155.61 -1.45876 -0.596479 0
M  V30 51353 C 5156.56 -1.55745 -1.72761 0
M  V30 51354 C 5157.55 -0.426724 -1.63937 0
M  V30 51355 O 5158.76 -0.60307 -1.69597 0
M  V30 51356 H 5155.14 -0.489407 -0.570951 0
M  V30 51357 H 5157.11 -2.50876 -1.61566 0
M  V30 51358 C 5155.86 -1.55185 -3.11148 0
M  V30 51359 H 5155.18 -2.41522 -3.18602 0
M  V30 51360 H 5156.62 -1.66146 -3.90092 0
M  V30 51361 C 5155.08 -0.278119 -3.3575 0
M  V30 51362 O 5155.61 0.637418 -3.9661 0
M  V30 51363 N 5153.81 -0.170329 -2.901 0
M  V30 51364 H 5153.36 -0.916243 -2.40755 0
M  V30 51365 H 5153.32 0.681062 -3.06935 0
M  V30 51366 N 5157.09 0.839943 -1.33352 0
M  V30 51367 C 5158.05 1.93124 -1.23433 0
M  V30 51368 C 5159.05 1.60064 -0.153655 0
M  V30 51369 O 5160.24 1.69424 -0.405109 0
M  V30 51370 C 5157.38 3.28758 -0.901737 0
M  V30 51371 H 5158.57 2.03344 -2.20434 0
M  V30 51372 H 5156.12 1.0319 -1.17394 0
M  V30 51373 H 5156.86 3.24233 0.0658198 0
M  V30 51374 H 5156.64 3.54132 -1.68323 0
M  V30 51375 H 5158.13 4.08711 -0.857057 0
M  V30 51376 N 5158.57 1.16803 1.05806 0
M  V30 51377 C 5159.82 0.950705 1.78342 0
M  V30 51378 C 5160.14 -0.522458 1.87871 0
M  V30 51379 O 5159.41 -1.37945 1.39097 0
M  V30 51380 H 5157.99 0.348759 0.660588 0
M  V30 51381 H 5160.65 1.47163 1.27785 0
M  V30 51382 H 5159.75 1.37369 2.80243 0
M  V30 51383 N 5160.05 -1.24424 0.967287 0
M  V30 51384 C 5160.98 -2.27728 0.515979 0
M  V30 51385 C 5161.96 -1.64199 -0.444169 0
M  V30 51386 O 5163.14 -1.91194 -0.340383 0
M  V30 51387 C 5160.27 -3.46752 -0.195027 0
M  V30 51388 C 5159.23 -4.22546 0.681102 0
M  V30 51389 C 5158.55 -5.34456 -0.161373 0
M  V30 51390 C 5159.85 -4.83907 1.96549 0
M  V30 51391 H 5161.55 -2.6573 1.37942 0
M  V30 51392 H 5159.09 -1.2774 0.664726 0
M  V30 51393 H 5161.05 -4.18155 -0.52197 0
M  V30 51394 H 5159.77 -3.07774 -1.09282 0
M  V30 51395 H 5158.43 -3.52943 0.99131 0
M  V30 51396 H 5158.08 -4.91719 -1.0593 0
M  V30 51397 H 5157.78 -5.86085 0.421624 0
M  V30 51398 H 5159.3 -6.08687 -0.482997 0
M  V30 51399 H 5160.72 -5.47386 1.70416 0
M  V30 51400 H 5159.11 -5.45766 2.49518 0
M  V30 51401 H 5160.18 -4.05384 2.66067 0
M  V30 51402 N 5161.53 -0.737353 -1.39287 0
M  V30 51403 C 5162.77 -0.283199 -1.99702 0
M  V30 51404 C 5163.09 1.13671 -1.5918 0
M  V30 51405 O 5164.29 1.6905 -2.12448 0
M  V30 51406 C 5162.75 -0.455387 -3.57007 0
M  V30 51407 C 5162.36 -1.88333 -4.06491 0
M  V30 51408 C 5164.1 -0.0631278 -4.24453 0
M  V30 51409 C 5162.01 -2.00495 -5.56377 0
M  V30 51410 H 5160.94 -0.102132 -0.747051 0
M  V30 51411 H 5163.59 -0.911571 -1.59257 0
M  V30 51412 H 5161.97 0.241918 -3.9526 0
M  V30 51413 H 5163.15 -2.61278 -3.79566 0
M  V30 51414 H 5161.46 -2.22902 -3.51715 0
M  V30 51415 H 5164.06 -0.132975 -5.34535 0
M  V30 51416 H 5164.4 0.981986 -4.04552 0
M  V30 51417 H 5164.93 -0.711677 -3.91382 0
M  V30 51418 H 5161.67 -3.03203 -5.81161 0
M  V30 51419 H 5161.19 -1.31989 -5.85097 0
M  V30 51420 H 5162.87 -1.78722 -6.21826 0
M  V30 51421 N 5163 1.49946 -0.485165 0
M  V30 51422 C 5163.95 2.2882 0.301649 0
M  V30 51423 C 5164.92 1.34499 0.974636 0
M  V30 51424 O 5166.11 1.63447 0.98436 0
M  V30 51425 C 5163.25 3.16763 1.3695 0
M  V30 51426 C 5162.36 4.26128 0.709877 0
M  V30 51427 C 5161.49 5.01308 1.75681 0
M  V30 51428 C 5160.53 6.02529 1.0782 0
M  V30 51429 N 5159.67 6.70934 2.06862 0
M  V30 51430 H 5164.51 2.95603 -0.377231 0
M  V30 51431 H 5162.05 1.45763 -0.197877 0
M  V30 51432 H 5164 3.66113 2.00043 0
M  V30 51433 H 5162.63 2.51998 2.01735 0
M  V30 51434 H 5161.69 3.80385 -0.0339615 0
M  V30 51435 H 5163 4.98493 0.174903 0
M  V30 51436 H 5162.15 5.54447 2.4632 0
M  V30 51437 H 5160.89 4.2868 2.32562 0
M  V30 51438 H 5159.9 5.48636 0.357514 0
M  V30 51439 H 5161.12 6.77136 0.516107 0
M  V30 51440 H 5159.07 6.01088 2.62734 0
M  V30 51441 H 5158.98 7.39222 1.58388 0
M  V30 51442 H 5160.25 7.28685 2.76838 0
M  V30 51443 N 5164.48 0.218335 1.5608 0
M  V30 51444 C 5165.43 -0.709601 2.21512 0
M  V30 51445 C 5166.42 -1.20216 1.1935 0
M  V30 51446 O 5167.63 -1.16236 1.37438 0
M  V30 51447 H 5164 -0.247246 0.710193 0
M  V30 51448 H 5165.98 -0.134282 2.98098 0
M  V30 51449 C 5164.72 -1.90843 2.90644 0
M  V30 51450 H 5164.05 -1.53852 3.69012 0
M  V30 51451 H 5165.49 -2.53556 3.39831 0
M  V30 51452 C 5163.95 -2.76182 1.92938 0
M  V30 51453 O 5164.48 -3.74837 1.44429 0
M  V30 51454 N 5162.68 -2.42151 1.60658 0
M  V30 51455 H 5162.23 -1.6198 2.003 0
M  V30 51456 H 5162.19 -2.9953 0.955453 0
M  V30 51457 N 5165.96 -1.57504 -0.0550848 0
M  V30 51458 C 5167.19 -1.92018 -0.762405 0
M  V30 51459 C 5167.6 -0.814148 -1.70787 0
M  V30 51460 O 5166.94 0.220209 -1.82375 0
M  V30 51461 C 5167 -3.22137 -1.59586 0
M  V30 51462 C 5166.67 -4.4962 -0.817983 0
M  V30 51463 C 5167.66 -5.19738 -0.12975 0
M  V30 51464 C 5165.35 -4.96204 -0.780212 0
M  V30 51465 C 5167.34 -6.34702 0.585839 0
M  V30 51466 C 5165.03 -6.1107 -0.0608608 0
M  V30 51467 C 5166.03 -6.80171 0.620949 0
M  V30 51468 O 5165.72 -7.92844 1.32868 0
M  V30 51469 H 5165.45 -0.638874 -0.220945 0
M  V30 51470 H 5168 -2.05385 -0.024564 0
M  V30 51471 H 5166.23 -3.05025 -2.3769 0
M  V30 51472 H 5167.92 -3.42174 -2.18339 0
M  V30 51473 H 5168.69 -4.84768 -0.150129 0
M  V30 51474 H 5164.57 -4.42279 -1.30038 0
M  V30 51475 H 5168.11 -6.88574 1.11857 0
M  V30 51476 H 5164.01 -6.45489 -0.0384676 0
M  V30 51477 H 5164.77 -8.09058 1.23966 0
M  V30 51478 N 5167.44 0.326842 -1.54174 0
M  V30 51479 C 5168.68 1.07343 -1.73945 0
M  V30 51480 C 5169.04 1.85353 -0.500815 0
M  V30 51481 O 5170.24 2.6256 -0.575823 0
M  V30 51482 C 5168.51 1.97625 -2.9779 0
M  V30 51483 S 5170.07 2.7928 -3.3845 0
M  V30 51484 H 5166.89 0.362438 -0.611686 0
M  V30 51485 H 5169.49 0.349816 -1.92345 0
M  V30 51486 H 5168.2 1.39145 -3.86092 0
M  V30 51487 H 5167.73 2.74397 -2.81904 0
M  V30 51488 H 5169.74 4.00096 -2.93492 0
M  V30 51489 N 5168.92 1.46191 0.588735 0
M  V30 51490 C 5170.33 1.31012 0.911478 0
M  V30 51491 C 5170.53 0.277088 1.99586 0
M  V30 51492 O 5169.59 -0.322444 2.50433 0
M  V30 51493 C 5170.9 2.69463 1.33454 0
M  V30 51494 C 5172.45 2.77507 1.44772 0
M  V30 51495 C 5172.92 4.16526 1.90447 0
M  V30 51496 N 5174.41 4.18914 1.9765 0
M  V30 51497 C 5175.15 5.23367 2.34253 0
M  V30 51498 N 5174.65 6.38152 2.69691 0
M  V30 51499 N 5176.44 5.10731 2.34756 0
M  V30 51500 H 5168.59 2.12016 -0.127689 0
M  V30 51501 H 5170.85 0.947984 0.00554267 0
M  V30 51502 H 5170.56 3.46338 0.611807 0
M  V30 51503 H 5170.43 2.99173 2.29729 0
M  V30 51504 H 5172.82 2.00925 2.16133 0
M  V30 51505 H 5172.9 2.51489 0.467635 0
M  V30 51506 H 5172.54 4.93601 1.19667 0
M  V30 51507 H 5172.47 4.39948 2.89402 0
M  V30 51508 H 5174.97 3.3609 1.72777 0
M  V30 51509 H 5175.28 7.13634 2.96557 0
M  V30 51510 H 5173.62 6.41524 2.67343 0
M  V30 51511 H 5176.81 4.20095 2.06488 0
M  V30 51512 H 5176.99 5.92249 2.62954 0
M  V30 51513 N 5170.39 -0.832859 1.33795 0
M  V30 51514 C 5171.34 -1.96451 1.24539 0
M  V30 51515 C 5172.34 -1.68774 0.145514 0
M  V30 51516 O 5173.54 -1.77313 0.30986 0
M  V30 51517 H 5169.92 -0.644995 0.386634 0
M  V30 51518 H 5171.89 -2.01382 2.202 0
M  V30 51519 C 5170.64 -3.3278 1.00759 0
M  V30 51520 H 5169.96 -3.54619 1.84621 0
M  V30 51521 H 5171.4 -4.12444 0.983155 0
M  V30 51522 C 5169.86 -3.35655 -0.289357 0
M  V30 51523 O 5170.39 -3.80286 -1.29406 0
M  V30 51524 N 5168.59 -2.88844 -0.318999 0
M  V30 51525 H 5168.14 -2.52718 0.499158 0
M  V30 51526 H 5168.1 -2.91149 -1.18657 0
M  V30 51527 N 5171.87 -1.17362 -1.05185 0
M  V30 51528 C 5173.28 -0.967986 -1.59646 0
M  V30 51529 C 5173.63 0.485288 -1.90104 0
M  V30 51530 O 5172.76 1.3606 -1.68275 0
M  V30 51531 C 5173.35 -1.75078 -2.90057 0
M  V30 51532 C 5171.91 -1.58981 -3.41177 0
M  V30 51533 C 5171.06 -1.75239 -2.14911 0
M  V30 51534 H 5174.01 -1.3207 -0.879955 0
M  V30 51535 H 5174.03 -1.23321 -3.59961 0
M  V30 51536 H 5173.54 -2.80845 -2.67858 0
M  V30 51537 H 5171.64 -0.557036 -3.68413 0
M  V30 51538 H 5171.76 -2.38081 -4.15757 0
M  V30 51539 H 5170.12 -1.18081 -2.25675 0
M  V30 51540 H 5170.9 -2.82417 -1.95181 0
M  V30 51541 N 5173.35 1.23909 -0.973872 0
M  V30 51542 C 5174.63 1.87537 -0.555795 0
M  V30 51543 C 5175.01 1.87645 0.967096 0
M  V30 51544 O 5174.35 1.35341 1.84106 0
M  V30 51545 C 5174.56 3.29355 -1.15438 0
M  V30 51546 C 5175.91 4.05996 -1.24309 0
M  V30 51547 O 5176.94 3.3855 -1.10735 0
M  V30 51548 O 5175.8 5.26684 -1.45831 0
M  V30 51549 H 5172.89 0.805762 -0.186216 0
M  V30 51550 H 5175.44 1.31835 -1.06854 0
M  V30 51551 H 5174.21 3.23809 -2.19689 0
M  V30 51552 H 5173.83 3.9264 -0.626063 0
M  V30 51553 N 5174.83 0.744729 1.38894 0
M  V30 51554 C 5176.24 0.365745 1.83082 0
M  V30 51555 C 5176.59 -1.1043 1.62171 0
M  V30 51556 O 5175.72 -1.85277 1.1181 0
M  V30 51557 C 5176.31 0.657062 3.32367 0
M  V30 51558 C 5174.87 0.33146 3.74938 0
M  V30 51559 C 5174.02 0.914753 2.61778 0
M  V30 51560 H 5176.97 0.941596 1.27748 0
M  V30 51561 H 5176.99 -0.0678209 3.8044 0
M  V30 51562 H 5176.5 1.72705 3.47555 0
M  V30 51563 H 5174.6 -0.732298 3.65333 0
M  V30 51564 H 5174.71 0.82082 4.72016 0
M  V30 51565 H 5173.08 0.340719 2.52411 0
M  V30 51566 H 5173.86 1.98959 2.79768 0
M  V30 51567 N 5176.31 -1.49687 0.49311 0
M  V30 51568 C 5177.55 -2.02727 -0.0542806 0
M  V30 51569 C 5177.89 -1.37269 -1.37371 0
M  V30 51570 O 5177.16 -0.50571 -1.87811 0
M  V30 51571 C 5177.44 -3.59457 -0.215099 0
M  V30 51572 C 5177.3 -4.35455 1.1269 0
M  V30 51573 C 5178.62 -4.29515 -0.959435 0
M  V30 51574 H 5175.73 -0.736774 -0.0182527 0
M  V30 51575 H 5178.38 -1.78789 0.642987 0
M  V30 51576 H 5176.53 -3.79984 -0.808988 0
M  V30 51577 H 5178.2 -4.26444 1.75906 0
M  V30 51578 H 5176.44 -3.98324 1.71815 0
M  V30 51579 H 5177.11 -5.4345 0.967769 0
M  V30 51580 H 5179.59 -4.13596 -0.455831 0
M  V30 51581 H 5178.46 -5.38942 -1.04079 0
M  V30 51582 H 5178.73 -3.94209 -2.0013 0
M  V30 51583 N 5177.78 -0.226609 -1.55962 0
M  V30 51584 C 5178.75 0.667938 -2.19252 0
M  V30 51585 C 5179.75 1.1179 -1.15584 0
M  V30 51586 O 5180.94 1.02589 -1.40788 0
M  V30 51587 C 5178.07 1.91561 -2.81988 0
M  V30 51588 H 5179.26 0.11607 -2.99675 0
M  V30 51589 H 5176.82 0.0229947 -1.56283 0
M  V30 51590 H 5177.55 2.50922 -2.05448 0
M  V30 51591 H 5177.34 1.60138 -3.57908 0
M  V30 51592 H 5178.83 2.55282 -3.30486 0
M  V30 51593 N 5179.26 1.57531 0.0467312 0
M  V30 51594 C 5180.23 2.04383 1.03731 0
M  V30 51595 C 5181.23 0.944927 1.30107 0
M  V30 51596 O 5182.42 1.20909 1.25406 0
M  V30 51597 C 5179.55 2.4458 2.37473 0
M  V30 51598 H 5180.74 2.93144 0.63296 0
M  V30 51599 H 5178.29 1.53527 0.293123 0
M  V30 51600 H 5179.03 1.58921 2.82692 0
M  V30 51601 H 5178.81 3.24793 2.19664 0
M  V30 51602 H 5180.3 2.81317 3.08626 0
M  V30 51603 N 5180.74 -0.318661 1.54345 0
M  V30 51604 C 5182.15 -0.892792 1.6397 0
M  V30 51605 C 5182.5 -1.8871 0.536921 0
M  V30 51606 O 5181.63 -2.13879 -0.329381 0
M  V30 51607 C 5182.22 -1.62608 2.97227 0
M  V30 51608 C 5180.78 -2.14886 3.09032 0
M  V30 51609 C 5179.93 -0.975818 2.59563 0
M  V30 51610 H 5182.88 -0.096113 1.58409 0
M  V30 51611 H 5182.9 -2.4906 2.87662 0
M  V30 51612 H 5182.41 -0.902153 3.77469 0
M  V30 51613 H 5180.51 -2.90379 2.33475 0
M  V30 51614 H 5180.63 -2.3955 4.14913 0
M  V30 51615 H 5178.99 -1.35638 2.15579 0
M  V30 51616 H 5179.77 -0.266133 3.42267 0
M  V30 51617 N 5182.22 -1.46501 -0.580974 0
M  V30 51618 C 5183.46 -1.53112 -1.33896 0
M  V30 51619 C 5183.82 -0.181074 -1.91546 0
M  V30 51620 O 5183.11 0.810457 -1.73615 0
M  V30 51621 C 5183.31 -2.56695 -2.48682 0
M  V30 51622 C 5183.14 -4.0164 -2.02276 0
M  V30 51623 C 5181.91 -4.6934 -1.87212 0
M  V30 51624 C 5184.1 -4.89385 -1.58137 0
M  V30 51625 N 5182.09 -5.98896 -1.34896 0
M  V30 51626 C 5183.46 -6.08779 -1.17423 0
M  V30 51627 C 5185.51 -4.76022 -1.45971 0
M  V30 51628 C 5184.21 -7.16288 -0.657553 0
M  V30 51629 C 5186.24 -5.83605 -0.957055 0
M  V30 51630 C 5185.6 -7.02173 -0.559713 0
M  V30 51631 H 5181.7 -0.615107 -0.482875 0
M  V30 51632 H 5184.29 -1.83126 -0.661296 0
M  V30 51633 H 5182.46 -2.28589 -3.14009 0
M  V30 51634 H 5184.19 -2.53292 -3.15635 0
M  V30 51635 H 5180.94 -4.24886 -2.09211 0
M  V30 51636 H 5181.37 -6.67856 -1.10894 0
M  V30 51637 H 5186.01 -3.84743 -1.75308 0
M  V30 51638 H 5183.73 -8.07334 -0.351764 0
M  V30 51639 H 5187.31 -5.75307 -0.866805 0
M  V30 51640 H 5186.19 -7.84001 -0.176771 0
M  V30 51641 N 5183.7 0.825752 -1.34235 0
M  V30 51642 C 5184.94 1.59537 -1.27778 0
M  V30 51643 C 5185.3 1.91406 0.15093 0
M  V30 51644 O 5186.5 2.66646 0.339635 0
M  V30 51645 C 5184.77 2.86175 -2.14099 0
M  V30 51646 S 5186.33 3.76743 -2.24966 0
M  V30 51647 H 5183.15 0.546855 -0.45439 0
M  V30 51648 H 5185.75 0.975617 -1.69417 0
M  V30 51649 H 5184.46 2.60756 -3.16914 0
M  V30 51650 H 5183.99 3.53149 -1.73347 0
M  V30 51651 H 5186 4.75437 -1.42037 0
M  V30 51652 N 5185.17 1.17918 1.04561 0
M  V30 51653 C 5186.4 0.994779 1.81074 0
M  V30 51654 C 5186.81 -0.460081 1.83521 0
M  V30 51655 O 5186.16 -1.33132 1.26576 0
M  V30 51656 C 5186.22 1.4671 3.28202 0
M  V30 51657 C 5185.88 2.94535 3.49425 0
M  V30 51658 C 5186.88 3.92426 3.41025 0
M  V30 51659 C 5184.56 3.32854 3.76183 0
M  V30 51660 C 5186.56 5.26633 3.59077 0
M  V30 51661 C 5184.24 4.67225 3.93883 0
M  V30 51662 C 5185.24 5.63924 3.8533 0
M  V30 51663 O 5184.93 6.95863 4.02529 0
M  V30 51664 H 5184.66 0.351817 0.577235 0
M  V30 51665 H 5187.22 1.56776 1.32704 0
M  V30 51666 H 5185.45 0.837725 3.77517 0
M  V30 51667 H 5187.14 1.24737 3.86258 0
M  V30 51668 H 5187.9 3.64168 3.20323 0
M  V30 51669 H 5183.78 2.58152 3.8194 0
M  V30 51670 H 5187.32 6.02095 3.52317 0
M  V30 51671 H 5183.22 4.95187 4.14078 0
M  V30 51672 H 5183.99 7.02694 4.19718 0
M  V30 51673 N 5186.65 -1.23391 0.980429 0
M  V30 51674 C 5187.88 -1.95842 0.667355 0
M  V30 51675 C 5188.3 -1.72577 -0.765674 0
M  V30 51676 O 5187.65 -1.01721 -1.51523 0
M  V30 51677 C 5187.7 -3.48841 0.948274 0
M  V30 51678 O 5187.42 -3.71317 2.32498 0
M  V30 51679 C 5188.93 -4.38492 0.651156 0
M  V30 51680 H 5186.15 -0.623526 0.247904 0
M  V30 51681 H 5188.69 -1.56881 1.31182 0
M  V30 51682 H 5186.84 -3.85817 0.349817 0
M  V30 51683 H 5187.26 -4.6561 2.41469 0
M  V30 51684 H 5188.73 -5.44645 0.898079 0
M  V30 51685 H 5189.21 -4.37237 -0.414768 0
M  V30 51686 H 5189.82 -4.07123 1.23009 0
M  V30 51687 N 5188.13 -0.752084 -1.38497 0
M  V30 51688 C 5189.36 -0.318346 -2.04436 0
M  V30 51689 C 5189.77 1.0528 -1.56722 0
M  V30 51690 O 5189.13 1.66841 -0.739618 0
M  V30 51691 C 5189.18 -0.330233 -3.59988 0
M  V30 51692 O 5188.9 -1.64727 -4.05952 0
M  V30 51693 C 5190.4 0.117557 -4.43144 0
M  V30 51694 H 5187.62 -0.136251 -0.657021 0
M  V30 51695 H 5190.17 -1.02051 -1.77217 0
M  V30 51696 H 5188.32 0.323187 -3.8605 0
M  V30 51697 H 5188.74 -1.57243 -5.00375 0
M  V30 51698 H 5190.21 0.0580794 -5.51969 0
M  V30 51699 H 5190.69 1.16523 -4.23461 0
M  V30 51700 H 5191.29 -0.506933 -4.22268 0
M  V30 51701 N 5189.61 1.49423 -0.501041 0
M  V30 51702 C 5190.89 1.9531 0.106482 0
M  V30 51703 C 5191.27 1.44254 1.54124 0
M  V30 51704 O 5190.61 0.656314 2.18872 0
M  V30 51705 C 5190.82 3.48995 0.0190745 0
M  V30 51706 C 5192.17 4.24161 0.19298 0
M  V30 51707 O 5193.2 3.56075 0.0942591 0
M  V30 51708 O 5192.06 5.45066 0.395677 0
M  V30 51709 H 5189.15 0.821493 0.0952779 0
M  V30 51710 H 5191.7 1.60068 -0.563582 0
M  V30 51711 H 5190.47 3.78791 -0.981486 0
M  V30 51712 H 5190.09 3.90854 0.729282 0
M  V30 51713 N 5191.09 0.234877 1.5584 0
M  V30 51714 C 5192.5 -0.270523 1.8473 0
M  V30 51715 C 5192.85 -1.5849 1.15652 0
M  V30 51716 O 5191.97 -2.1207 0.430741 0
M  V30 51717 C 5192.57 -0.497616 3.35126 0
M  V30 51718 C 5191.13 -0.9473 3.64284 0
M  V30 51719 C 5190.28 -0.0177725 2.77294 0
M  V30 51720 H 5193.23 0.457745 1.51955 0
M  V30 51721 H 5193.25 -1.34186 3.56054 0
M  V30 51722 H 5192.76 0.459173 3.85374 0
M  V30 51723 H 5190.86 -1.91698 3.19504 0
M  V30 51724 H 5190.97 -0.812485 4.7216 0
M  V30 51725 H 5189.34 -0.526984 2.49189 0
M  V30 51726 H 5190.12 0.934173 3.30345 0
M  V30 51727 N 5192.57 -1.57553 -0.0383763 0
M  V30 51728 C 5193.79 -1.93488 -0.746804 0
M  V30 51729 C 5194.22 -0.834128 -1.68594 0
M  V30 51730 O 5193.57 0.210839 -1.8007 0
M  V30 51731 C 5193.62 -3.28468 -1.48799 0
M  V30 51732 O 5192.73 -3.2006 -2.60068 0
M  V30 51733 H 5192.07 -0.632682 -0.201517 0
M  V30 51734 H 5194.6 -2.046 0.00337007 0
M  V30 51735 H 5194.61 -3.63138 -1.85996 0
M  V30 51736 H 5193.28 -4.0815 -0.799153 0
M  V30 51737 H 5191.86 -2.97006 -2.25482 0
M  V30 51738 N 5194.04 0.310471 -1.54512 0
M  V30 51739 C 5195.29 1.0484 -1.73599 0
M  V30 51740 C 5195.62 1.87242 -0.515184 0
M  V30 51741 O 5194.9 1.88284 0.487794 0
M  V30 51742 C 5195.18 1.96227 -3.01939 0
M  V30 51743 C 5195.03 1.17067 -4.34299 0
M  V30 51744 C 5196.35 2.95548 -3.26097 0
M  V30 51745 H 5193.47 0.379737 -0.631639 0
M  V30 51746 H 5196.11 0.323874 -1.87219 0
M  V30 51747 H 5194.26 2.58005 -2.90458 0
M  V30 51748 H 5195.94 0.576482 -4.57684 0
M  V30 51749 H 5194.18 0.473185 -4.31212 0
M  V30 51750 H 5194.85 1.84239 -5.20346 0
M  V30 51751 H 5197.33 2.43896 -3.37126 0
M  V30 51752 H 5196.2 3.56665 -4.17231 0
M  V30 51753 H 5196.46 3.68706 -2.43943 0
M  V30 51754 N 5195.52 1.46807 0.573196 0
M  V30 51755 C 5196.94 1.31972 0.897531 0
M  V30 51756 C 5197.14 0.298241 1.99281 0
M  V30 51757 O 5196.19 -0.295865 2.50761 0
M  V30 51758 C 5197.51 2.70864 1.30588 0
M  V30 51759 C 5199.05 2.79027 1.4182 0
M  V30 51760 C 5199.53 4.18523 1.86018 0
M  V30 51761 N 5201.02 4.20987 1.93196 0
M  V30 51762 C 5201.76 5.25822 2.28689 0
M  V30 51763 N 5201.25 6.40977 2.62908 0
M  V30 51764 N 5203.04 5.13192 2.29325 0
M  V30 51765 H 5195.2 2.11868 -0.150168 0
M  V30 51766 H 5197.46 0.947989 -0.00451228 0
M  V30 51767 H 5197.16 3.46967 0.575039 0
M  V30 51768 H 5197.04 3.01593 2.26543 0
M  V30 51769 H 5199.43 2.03206 2.13989 0
M  V30 51770 H 5199.51 2.51971 0.440935 0
M  V30 51771 H 5199.15 4.94843 1.14425 0
M  V30 51772 H 5199.08 4.42992 2.8472 0
M  V30 51773 H 5201.57 3.37904 1.69202 0
M  V30 51774 H 5201.88 7.16739 2.88971 0
M  V30 51775 H 5200.23 6.44323 2.60524 0
M  V30 51776 H 5203.42 4.22262 2.02021 0
M  V30 51777 H 5203.59 5.95005 2.56658 0
M  V30 51778 N 5197 -0.818622 1.34671 0
M  V30 51779 C 5198.25 -1.57695 1.28467 0
M  V30 51780 C 5198.6 -1.91868 -0.14299 0
M  V30 51781 O 5197.89 -1.57549 -1.09036 0
M  V30 51782 C 5198.09 -2.88238 2.11314 0
M  V30 51783 C 5197.92 -2.66818 3.61992 0
M  V30 51784 C 5196.69 -2.63331 4.3126 0
M  V30 51785 C 5198.88 -2.38033 4.559 0
M  V30 51786 N 5196.87 -2.33502 5.67759 0
M  V30 51787 C 5198.24 -2.17936 5.80434 0
M  V30 51788 C 5200.29 -2.23796 4.44769 0
M  V30 51789 C 5199 -1.85046 6.9509 0
M  V30 51790 C 5201.02 -1.92301 5.59262 0
M  V30 51791 C 5200.38 -1.73032 6.82817 0
M  V30 51792 H 5196.48 -0.579265 0.525334 0
M  V30 51793 H 5199.07 -0.959277 1.69428 0
M  V30 51794 H 5197.24 -3.47921 1.72643 0
M  V30 51795 H 5198.97 -3.5367 1.96721 0
M  V30 51796 H 5195.72 -2.77557 3.83744 0
M  V30 51797 H 5196.15 -2.21415 6.39769 0
M  V30 51798 H 5200.79 -2.37397 3.4986 0
M  V30 51799 H 5198.51 -1.70182 7.89977 0
M  V30 51800 H 5202.09 -1.82012 5.52597 0
M  V30 51801 H 5200.97 -1.49015 7.69912 0
M  V30 51802 N 5198.48 -1.18471 -1.03934 0
M  V30 51803 C 5199.39 -0.927965 -2.15467 0
M  V30 51804 C 5200.4 0.108386 -1.73662 0
M  V30 51805 O 5201.58 -0.0738344 -2.01265 0
M  V30 51806 C 5198.64 -0.458615 -3.43653 0
M  V30 51807 C 5197.71 -1.56309 -3.99832 0
M  V30 51808 C 5196.94 -1.11604 -5.21901 0
M  V30 51809 O 5197.16 0.0247052 -5.70395 0
M  V30 51810 O 5196.1 -1.91432 -5.70646 0
M  V30 51811 H 5199.92 -1.86124 -2.39982 0
M  V30 51812 H 5197.51 -0.966647 -1.13914 0
M  V30 51813 H 5199.39 -0.205009 -4.20901 0
M  V30 51814 H 5198.06 0.446351 -3.20608 0
M  V30 51815 H 5196.97 -1.87073 -3.23967 0
M  V30 51816 H 5198.3 -2.44423 -4.27222 0
M  V30 51817 N 5199.96 1.22869 -0.986959 0
M  V30 51818 C 5201.19 1.95202 -0.676749 0
M  V30 51819 C 5201.59 1.73195 0.76158 0
M  V30 51820 O 5200.94 1.02436 1.52488 0
M  V30 51821 C 5201 3.4817 -0.895425 0
M  V30 51822 C 5200.66 3.93904 -2.31709 0
M  V30 51823 C 5201.66 4.02052 -3.29621 0
M  V30 51824 C 5199.34 4.26713 -2.64993 0
M  V30 51825 C 5201.34 4.42374 -4.58894 0
M  V30 51826 C 5199.03 4.66715 -3.94487 0
M  V30 51827 C 5200.02 4.74514 -4.91249 0
M  V30 51828 O 5199.71 5.13614 -6.1843 0
M  V30 51829 H 5199.44 0.628096 -0.249942 0
M  V30 51830 H 5202 1.57135 -1.32279 0
M  V30 51831 H 5200.23 3.86222 -0.192208 0
M  V30 51832 H 5201.92 4.01715 -0.581374 0
M  V30 51833 H 5202.68 3.76902 -3.05238 0
M  V30 51834 H 5198.56 4.19851 -1.90384 0
M  V30 51835 H 5202.11 4.48376 -5.3442 0
M  V30 51836 H 5198 4.91317 -4.18662 0
M  V30 51837 H 5198.77 5.31706 -6.22279 0
M  V30 51838 N 5201.43 0.759419 1.38096 0
M  V30 51839 C 5202.67 0.323187 2.01829 0
M  V30 51840 C 5203.04 -1.07652 1.58981 0
M  V30 51841 O 5204.24 -1.61219 2.15086 0
M  V30 51842 C 5202.51 0.448358 3.54577 0
M  V30 51843 S 5204.07 0.0955694 4.38696 0
M  V30 51844 H 5200.89 0.125038 0.699919 0
M  V30 51845 H 5203.49 0.991321 1.68502 0
M  V30 51846 H 5202.19 1.46792 3.8325 0
M  V30 51847 H 5201.72 -0.236757 3.92687 0
M  V30 51848 H 5203.74 -1.11295 4.83558 0
M  V30 51849 N 5202.91 -1.49156 0.508959 0
M  V30 51850 C 5203.86 -2.30923 -0.278825 0
M  V30 51851 C 5204.85 -1.39892 -0.955333 0
M  V30 51852 O 5206.06 -1.56904 -0.882114 0
M  V30 51853 H 5202.43 -0.744091 -0.108779 0
M  V30 51854 H 5204.41 -2.95276 0.430686 0
M  V30 51855 C 5203.15 -3.21437 -1.32565 0
M  V30 51856 H 5202.48 -3.91415 -0.814497 0
M  V30 51857 H 5203.92 -3.81575 -1.84869 0
M  V30 51858 C 5202.38 -2.41591 -2.34809 0
M  V30 51859 O 5202.91 -2.12572 -3.40846 0
M  V30 51860 N 5201.11 -2.03469 -2.07482 0
M  V30 51861 H 5200.66 -2.27269 -1.2127 0
M  V30 51862 H 5200.62 -1.50354 -2.76118 0
M  V30 51863 N 5204.39 -0.243138 -1.55713 0
M  V30 51864 C 5205.32 0.652257 -2.24205 0
M  V30 51865 C 5206.3 1.18426 -1.22104 0
M  V30 51866 O 5207.49 1.22429 -1.50747 0
M  V30 51867 C 5204.62 1.851 -2.93863 0
M  V30 51868 C 5203.57 1.45194 -4.0262 0
M  V30 51869 C 5202.9 2.73121 -4.59684 0
M  V30 51870 C 5204.2 0.625806 -5.18537 0
M  V30 51871 H 5205.89 0.0811451 -2.9929 0
M  V30 51872 H 5203.44 0.0375882 -1.43951 0
M  V30 51873 H 5205.39 2.48302 -3.40476 0
M  V30 51874 H 5204.11 2.44743 -2.1626 0
M  V30 51875 H 5202.77 0.843281 -3.56769 0
M  V30 51876 H 5202.42 3.30954 -3.78786 0
M  V30 51877 H 5202.12 2.47144 -5.33098 0
M  V30 51878 H 5203.64 3.37227 -5.09029 0
M  V30 51879 H 5205.06 1.16203 -5.614 0
M  V30 51880 H 5203.46 0.462254 -5.98317 0
M  V30 51881 H 5204.53 -0.362822 -4.83541 0
M  V30 51882 N 5205.87 1.57571 0.0300203 0
M  V30 51883 C 5207.1 1.93487 0.732823 0
M  V30 51884 C 5207.51 0.842818 1.68944 0
M  V30 51885 O 5206.87 -0.18084 1.81602 0
M  V30 51886 C 5206.92 3.29333 1.4907 0
M  V30 51887 O 5206.64 4.34343 0.572486 0
M  V30 51888 C 5208.14 3.79525 2.29075 0
M  V30 51889 H 5205.36 0.638595 0.206004 0
M  V30 51890 H 5207.91 2.04496 -0.0121685 0
M  V30 51891 H 5206.06 3.19724 2.18758 0
M  V30 51892 H 5206.47 5.12752 1.10388 0
M  V30 51893 H 5207.95 4.77091 2.77648 0
M  V30 51894 H 5208.43 3.1067 3.10453 0
M  V30 51895 H 5209.03 3.92214 1.64463 0
M  V30 51896 N 5207.35 -0.302273 1.54674 0
M  V30 51897 C 5208.76 -0.64786 1.45859 0
M  V30 51898 C 5208.96 -1.90771 0.648757 0
M  V30 51899 O 5208.02 -2.52018 0.155953 0
M  V30 51900 C 5209.33 -0.802042 2.89806 0
M  V30 51901 C 5210.88 -0.898009 2.99841 0
M  V30 51902 C 5211.35 -1.0842 4.44982 0
M  V30 51903 N 5212.85 -1.15043 4.48686 0
M  V30 51904 C 5213.58 -1.31277 5.5817 0
M  V30 51905 N 5213.08 -1.44416 6.77581 0
M  V30 51906 N 5214.87 -1.34155 5.45856 0
M  V30 51907 H 5207.02 0.5255 2.05797 0
M  V30 51908 H 5209.28 0.173456 0.931996 0
M  V30 51909 H 5208.99 0.0527768 3.5166 0
M  V30 51910 H 5208.86 -1.69143 3.37151 0
M  V30 51911 H 5211.25 -1.74332 2.38102 0
M  V30 51912 H 5211.33 0.0153652 2.55795 0
M  V30 51913 H 5210.98 -0.243664 5.07315 0
M  V30 51914 H 5210.91 -2.01178 4.86657 0
M  V30 51915 H 5213.4 -1.06247 3.62657 0
M  V30 51916 H 5213.71 -1.56555 7.56776 0
M  V30 51917 H 5212.05 -1.41475 6.80448 0
M  V30 51918 H 5215.25 -1.235 4.51515 0
M  V30 51919 H 5215.42 -1.46463 6.31231 0
M  V30 51920 N 5208.82 -1.47109 -0.565403 0
M  V30 51921 C 5210.06 -1.54884 -1.3338 0
M  V30 51922 C 5210.43 -0.202871 -1.90925 0
M  V30 51923 O 5211.63 -0.155439 -2.6835 0
M  V30 51924 C 5209.9 -2.62978 -2.42028 0
M  V30 51925 S 5211.46 -2.9028 -3.29064 0
M  V30 51926 H 5208.28 -0.547024 -0.454186 0
M  V30 51927 H 5210.88 -1.84443 -0.648163 0
M  V30 51928 H 5209.58 -3.59382 -1.98173 0
M  V30 51929 H 5209.11 -2.35208 -3.15342 0
M  V30 51930 H 5211.13 -2.26869 -4.41299 0
M  V30 51931 N 5210.3 0.811468 -1.35103 0
M  V30 51932 C 5211.53 1.60494 -1.31363 0
M  V30 51933 C 5211.95 1.87794 0.107317 0
M  V30 51934 O 5211.31 1.46165 1.07263 0
M  V30 51935 C 5211.36 2.91605 -2.1213 0
M  V30 51936 O 5210.46 3.84205 -1.49867 0
M  V30 51937 H 5209.8 0.487686 -0.45062 0
M  V30 51938 H 5212.33 1.00751 -1.78074 0
M  V30 51939 H 5212.34 3.41072 -2.23906 0
M  V30 51940 H 5211.02 2.7106 -3.15435 0
M  V30 51941 H 5209.6 3.42746 -1.46901 0
M  V30 51942 N 5211.78 1.19021 1.03304 0
M  V30 51943 C 5213.06 0.89972 1.73679 0
M  V30 51944 C 5213.44 -0.595606 2.02523 0
M  V30 51945 O 5212.79 -1.55257 1.67653 0
M  V30 51946 C 5213 1.75519 3.01653 0
M  V30 51947 C 5214.34 1.98692 3.75242 0
M  V30 51948 O 5215.37 1.72635 3.11569 0
M  V30 51949 O 5214.23 2.42604 4.89699 0
M  V30 51950 H 5211.32 0.33493 0.756142 0
M  V30 51951 H 5213.87 1.29813 1.09301 0
M  V30 51952 H 5212.64 2.7685 2.76532 0
M  V30 51953 H 5212.26 1.35578 3.7377 0
M  V30 51954 N 5213.26 -1.22344 0.993461 0
M  V30 51955 C 5214.22 -2.2252 0.549329 0
M  V30 51956 C 5215.22 -1.5653 -0.368109 0
M  V30 51957 O 5216.41 -1.73464 -0.159989 0
M  V30 51958 C 5213.54 -3.40307 -0.200918 0
M  V30 51959 H 5214.74 -2.63327 1.43524 0
M  V30 51960 H 5212.29 -1.35404 0.780728 0
M  V30 51961 H 5213.02 -3.04974 -1.10279 0
M  V30 51962 H 5212.81 -3.89418 0.457822 0
M  V30 51963 H 5214.3 -4.14598 -0.499801 0
M  V30 51964 N 5214.74 -0.766732 -1.37692 0
M  V30 51965 C 5215.65 -0.15024 -2.34118 0
M  V30 51966 C 5216.66 0.685457 -1.5993 0
M  V30 51967 O 5217.84 0.606549 -1.92049 0
M  V30 51968 C 5214.9 0.722443 -3.39089 0
M  V30 51969 C 5213.96 -0.129134 -4.29106 0
M  V30 51970 C 5213.2 0.701992 -5.29063 0
M  V30 51971 O 5213.42 1.93935 -5.36419 0
M  V30 51972 O 5212.35 0.113844 -6.01792 0
M  V30 51973 H 5216.18 -0.94693 -2.8856 0
M  V30 51974 H 5213.77 -0.527814 -1.39766 0
M  V30 51975 H 5215.65 1.2208 -4.03329 0
M  V30 51976 H 5214.32 1.49741 -2.86983 0
M  V30 51977 H 5213.23 -0.673742 -3.67983 0
M  V30 51978 H 5214.56 -0.867063 -4.84503 0
M  V30 51979 N 5216.21 1.48884 -0.516862 0
M  V30 51980 C 5217.46 2.03395 0.013951 0
M  V30 51981 C 5217.82 1.38813 1.33225 0
M  V30 51982 O 5217.11 0.520168 1.84404 0
M  V30 51983 C 5217.3 3.56802 0.206673 0
M  V30 51984 C 5217.13 4.36255 -1.09139 0
M  V30 51985 C 5215.9 4.77684 -1.64762 0
M  V30 51986 C 5218.1 4.73874 -1.99871 0
M  V30 51987 N 5216.08 5.41623 -2.88994 0
M  V30 51988 C 5217.45 5.37696 -3.08679 0
M  V30 51989 C 5219.51 4.55809 -2.00357 0
M  V30 51990 C 5218.21 5.85364 -4.18021 0
M  V30 51991 C 5220.24 5.04448 -3.08684 0
M  V30 51992 C 5219.6 5.68285 -4.16211 0
M  V30 51993 H 5215.7 0.781168 -0.0360695 0
M  V30 51994 H 5218.28 1.81864 -0.695237 0
M  V30 51995 H 5216.45 3.78185 0.884931 0
M  V30 51996 H 5218.18 3.97953 0.735913 0
M  V30 51997 H 5214.94 4.58388 -1.1907 0
M  V30 51998 H 5215.36 5.78168 -3.52208 0
M  V30 51999 H 5220.01 4.05847 -1.18525 0
M  V30 52000 H 5217.72 6.34338 -5.0064 0
M  V30 52001 H 5221.31 4.9227 -3.10099 0
M  V30 52002 H 5220.19 6.0524 -4.98653 0
M  V30 52003 N 5217.69 0.251393 1.55582 0
M  V30 52004 C 5218.92 -0.376116 2.03453 0
M  V30 52005 C 5219.34 -1.51211 1.13052 0
M  V30 52006 O 5218.69 -1.81916 0.145833 0
M  V30 52007 C 5218.74 -0.879656 3.50634 0
M  V30 52008 O 5218.46 0.211071 4.37591 0
M  V30 52009 C 5219.97 -1.5774 4.14286 0
M  V30 52010 H 5217.19 -0.0888489 0.665092 0
M  V30 52011 H 5219.73 0.376567 2.01003 0
M  V30 52012 H 5217.88 -1.5825 3.53604 0
M  V30 52013 H 5218.3 -0.172019 5.24218 0
M  V30 52014 H 5219.77 -1.8814 5.18948 0
M  V30 52015 H 5220.25 -2.5009 3.61042 0
M  V30 52016 H 5220.86 -0.919008 4.15252 0
M  V30 52017 N 5219.17 -1.57585 -0.0216635 0
M  V30 52018 C 5220.13 -2.06008 -1.00467 0
M  V30 52019 C 5221.13 -0.965506 -1.28587 0
M  V30 52020 O 5222.32 -1.22888 -1.23467 0
M  V30 52021 C 5219.46 -2.48327 -2.33552 0
M  V30 52022 H 5220.65 -2.94114 -0.586243 0
M  V30 52023 H 5218.2 -1.53974 -0.268662 0
M  V30 52024 H 5218.94 -1.63399 -2.80127 0
M  V30 52025 H 5218.72 -3.28246 -2.14469 0
M  V30 52026 H 5220.21 -2.86192 -3.04112 0
M  V30 52027 N 5220.65 0.294066 -1.54832 0
M  V30 52028 C 5221.9 1.0284 -1.74442 0
M  V30 52029 C 5222.22 1.87027 -0.533971 0
M  V30 52030 O 5221.48 1.89621 0.483968 0
M  V30 52031 C 5221.78 1.95771 -2.99012 0
M  V30 52032 C 5221.44 1.27505 -4.32497 0
M  V30 52033 C 5220.11 1.0862 -4.6878 0
M  V30 52034 C 5222.46 0.78758 -5.15215 0
M  V30 52035 C 5219.79 0.396834 -5.85356 0
M  V30 52036 C 5222.14 0.111901 -6.32501 0
M  V30 52037 C 5220.8 -0.0888417 -6.67441 0
M  V30 52038 H 5220.07 0.376319 -0.63833 0
M  V30 52039 H 5222.72 0.302617 -1.89094 0
M  V30 52040 H 5221.02 2.74901 -2.79172 0
M  V30 52041 H 5222.72 2.52673 -3.1138 0
M  V30 52042 H 5219.31 1.43211 -4.03966 0
M  V30 52043 H 5223.5 0.92117 -4.87676 0
M  V30 52044 H 5218.75 0.230382 -6.10966 0
M  V30 52045 H 5222.93 -0.273684 -6.95862 0
M  V30 52046 H 5220.55 -0.625014 -7.57626 0
M  V30 52047 N 5222.13 1.47406 0.557593 0
M  V30 52048 C 5223.37 1.5424 1.31673 0
M  V30 52049 C 5223.71 0.20385 1.93127 0
M  V30 52050 O 5222.98 -0.787473 1.77846 0
M  V30 52051 C 5223.26 2.66011 2.42714 0
M  V30 52052 C 5223.12 4.09482 1.86131 0
M  V30 52053 C 5224.44 2.73697 3.44642 0
M  V30 52054 H 5221.56 0.561483 0.477395 0
M  V30 52055 H 5224.2 1.79461 0.624004 0
M  V30 52056 H 5222.35 2.44637 3.01803 0
M  V30 52057 H 5224.02 4.42218 1.31306 0
M  V30 52058 H 5222.26 4.17778 1.16809 0
M  V30 52059 H 5222.93 4.83461 2.66401 0
M  V30 52060 H 5225.41 2.92978 2.95471 0
M  V30 52061 H 5224.29 3.53679 4.19764 0
M  V30 52062 H 5224.55 1.8074 4.03467 0
M  V30 52063 N 5223.61 -0.804292 1.35532 0
M  V30 52064 C 5225.02 -1.37845 1.2592 0
M  V30 52065 C 5225.37 -1.95906 -0.107427 0
M  V30 52066 O 5224.49 -1.91466 -1.00846 0
M  V30 52067 C 5225.09 -2.506 2.28003 0
M  V30 52068 C 5223.65 -3.03871 2.22125 0
M  V30 52069 C 5222.79 -1.76849 2.13588 0
M  V30 52070 H 5225.74 -0.60714 1.46627 0
M  V30 52071 H 5225.77 -3.29214 1.90784 0
M  V30 52072 H 5225.28 -2.08312 3.27457 0
M  V30 52073 H 5223.38 -3.50617 1.26089 0
M  V30 52074 H 5223.49 -3.61696 3.14186 0
M  V30 52075 H 5221.86 -1.98492 1.59602 0
M  V30 52076 H 5222.64 -1.36709 3.14905 0
M  V30 52077 N 5225.08 -1.19567 -1.02672 0
M  V30 52078 C 5226.49 -1.00163 -1.57557 0
M  V30 52079 C 5226.85 0.444855 -1.9109 0
M  V30 52080 O 5225.97 1.3246 -1.71123 0
M  V30 52081 C 5226.57 -1.81191 -2.86278 0
M  V30 52082 C 5225.12 -1.66182 -3.37728 0
M  V30 52083 C 5224.27 -1.79758 -2.11145 0
M  V30 52084 H 5227.22 -1.33907 -0.851743 0
M  V30 52085 H 5227.24 -1.30928 -3.57265 0
M  V30 52086 H 5226.76 -2.86463 -2.6184 0
M  V30 52087 H 5224.86 -0.635056 -3.67148 0
M  V30 52088 H 5224.97 -2.46846 -4.10614 0
M  V30 52089 H 5223.33 -1.22841 -2.23119 0
M  V30 52090 H 5224.12 -2.86493 -1.89147 0
M  V30 52091 N 5226.56 1.21816 -0.999936 0
M  V30 52092 C 5227.51 2.26025 -0.549126 0
M  V30 52093 C 5228.5 1.64518 0.403768 0
M  V30 52094 O 5229.71 1.77879 0.275516 0
M  V30 52095 H 5226.08 0.734953 -0.159211 0
M  V30 52096 H 5228.06 2.61393 -1.43932 0
M  V30 52097 C 5226.8 3.47514 0.113568 0
M  V30 52098 H 5226.13 3.95109 -0.610621 0
M  V30 52099 H 5227.57 4.22181 0.392352 0
M  V30 52100 C 5226.03 3.08619 1.35115 0
M  V30 52101 O 5226.56 3.18648 2.44594 0
M  V30 52102 N 5224.76 2.63332 1.22901 0
M  V30 52103 H 5224.31 2.5537 0.338198 0
M  V30 52104 H 5224.27 2.37676 2.0581 0
M  V30 52105 N 5228.04 0.774023 1.37283 0
M  V30 52106 C 5229.29 0.339879 1.99932 0
M  V30 52107 C 5229.62 -1.08144 1.61303 0
M  V30 52108 O 5228.89 -1.74439 0.860313 0
M  V30 52109 C 5229.18 0.486044 3.56805 0
M  V30 52110 C 5229.03 1.94994 4.05336 0
M  V30 52111 C 5230.35 -0.108307 4.39967 0
M  V30 52112 H 5227.47 0.124969 0.726328 0
M  V30 52113 H 5230.11 0.977491 1.62927 0
M  V30 52114 H 5228.26 -0.0567657 3.88459 0
M  V30 52115 H 5229.93 2.55263 3.84237 0
M  V30 52116 H 5228.17 2.45796 3.57445 0
M  V30 52117 H 5228.85 2.00326 5.14367 0
M  V30 52118 H 5231.32 0.354868 4.14584 0
M  V30 52119 H 5230.2 0.0240855 5.48895 0
M  V30 52120 H 5230.46 -1.19886 4.25535 0
M  V30 52121 N 5229.52 -1.48607 0.52475 0
M  V30 52122 C 5230.77 -2.01696 -0.0132227 0
M  V30 52123 C 5231.08 -1.40756 -1.3582 0
M  V30 52124 O 5232.29 -1.85311 -1.98424 0
M  V30 52125 C 5230.74 -3.59824 -0.0739747 0
M  V30 52126 C 5230.35 -4.29746 1.26579 0
M  V30 52127 C 5232.09 -4.20776 -0.561053 0
M  V30 52128 C 5230 -5.79793 1.16591 0
M  V30 52129 H 5228.93 -0.75395 -0.0087128 0
M  V30 52130 H 5231.58 -1.70919 0.667744 0
M  V30 52131 H 5229.96 -3.87419 -0.819907 0
M  V30 52132 H 5231.14 -4.13829 2.02688 0
M  V30 52133 H 5229.45 -3.80643 1.68819 0
M  V30 52134 H 5232.05 -5.30689 -0.653666 0
M  V30 52135 H 5232.39 -3.85739 -1.5656 0
M  V30 52136 H 5232.93 -3.97591 0.129041 0
M  V30 52137 H 5229.66 -6.19395 2.14545 0
M  V30 52138 H 5229.18 -5.98139 0.446105 0
M  V30 52139 H 5230.86 -6.41334 0.854412 0
M  V30 52140 N 5231 -0.25964 -1.55447 0
M  V30 52141 C 5231.93 0.628441 -2.24884 0
M  V30 52142 C 5232.91 1.17124 -1.23353 0
M  V30 52143 O 5234.09 1.20824 -1.52037 0
M  V30 52144 C 5231.22 1.81973 -2.95809 0
M  V30 52145 C 5230.18 1.40915 -4.04137 0
M  V30 52146 C 5229.5 2.6823 -4.62555 0
M  V30 52147 C 5230.8 0.570773 -5.19172 0
M  V30 52148 H 5232.5 0.0493969 -2.99359 0
M  V30 52149 H 5230.04 0.0223182 -1.43983 0
M  V30 52150 H 5231.99 2.44676 -3.43091 0
M  V30 52151 H 5230.72 2.42436 -2.18843 0
M  V30 52152 H 5229.38 0.805393 -3.57644 0
M  V30 52153 H 5229.03 3.26917 -3.82275 0
M  V30 52154 H 5228.73 2.41476 -5.35689 0
M  V30 52155 H 5230.25 3.31809 -5.12577 0
M  V30 52156 H 5231.66 1.10242 -5.62601 0
M  V30 52157 H 5230.06 0.398769 -5.98774 0
M  V30 52158 H 5231.13 -0.414088 -4.83129 0
M  V30 52159 N 5232.47 1.57594 0.0133061 0
M  V30 52160 C 5233.44 2.06537 0.993727 0
M  V30 52161 C 5234.44 0.972312 1.28073 0
M  V30 52162 O 5235.63 1.23541 1.22813 0
M  V30 52163 C 5232.76 2.49562 2.32232 0
M  V30 52164 H 5233.95 2.94421 0.570637 0
M  V30 52165 H 5231.5 1.54114 0.260492 0
M  V30 52166 H 5232.24 1.64882 2.79257 0
M  V30 52167 H 5232.02 3.29379 2.12725 0
M  V30 52168 H 5233.51 2.87801 3.0259 0
M  V30 52169 N 5233.95 -0.28585 1.54986 0
M  V30 52170 C 5235.36 -0.857811 1.65827 0
M  V30 52171 C 5235.71 -1.87529 0.576829 0
M  V30 52172 O 5234.84 -2.14529 -0.28394 0
M  V30 52173 C 5235.43 -1.56266 3.0061 0
M  V30 52174 C 5233.99 -2.08283 3.13521 0
M  V30 52175 C 5233.14 -0.920541 2.61575 0
M  V30 52176 H 5236.09 -0.0624906 1.58577 0
M  V30 52177 H 5236.11 -2.42902 2.9288 0
M  V30 52178 H 5235.62 -0.821883 3.79298 0
M  V30 52179 H 5233.73 -2.85362 2.39582 0
M  V30 52180 H 5233.84 -2.30696 4.199 0
M  V30 52181 H 5232.2 -1.31035 2.18408 0
M  V30 52182 H 5232.99 -0.193473 3.42754 0
M  V30 52183 N 5235.43 -1.477 -0.549768 0
M  V30 52184 C 5236.66 -1.58584 -1.33663 0
M  V30 52185 C 5237.08 -0.239115 -1.86574 0
M  V30 52186 O 5236.44 0.786199 -1.63366 0
M  V30 52187 C 5236.49 -2.62038 -2.47726 0
M  V30 52188 O 5235.59 -2.17825 -3.5018 0
M  V30 52189 H 5234.93 -0.532461 -0.396714 0
M  V30 52190 H 5237.46 -1.93538 -0.663632 0
M  V30 52191 H 5237.47 -2.82692 -2.94192 0
M  V30 52192 H 5236.15 -3.59819 -2.08573 0
M  V30 52193 H 5234.72 -2.07302 -3.09969 0
M  V30 52194 N 5236.91 0.797093 -1.35957 0
M  V30 52195 C 5237.84 1.92383 -1.3233 0
M  V30 52196 C 5238.82 1.68966 -0.196067 0
M  V30 52197 O 5240 1.90192 -0.392517 0
M  V30 52198 C 5237.13 3.29283 -1.10409 0
M  V30 52199 C 5236.09 3.67204 -2.19875 0
M  V30 52200 C 5235.41 5.0237 -1.83107 0
M  V30 52201 C 5236.71 3.76589 -3.61909 0
M  V30 52202 H 5238.41 1.95675 -2.26609 0
M  V30 52203 H 5235.95 0.940031 -1.09084 0
M  V30 52204 H 5237.91 4.07718 -1.06509 0
M  V30 52205 H 5236.63 3.26358 -0.125783 0
M  V30 52206 H 5235.29 2.91061 -2.22888 0
M  V30 52207 H 5234.94 4.95958 -0.838701 0
M  V30 52208 H 5234.64 5.28713 -2.56391 0
M  V30 52209 H 5236.16 5.83234 -1.80749 0
M  V30 52210 H 5237.58 4.45233 -3.61165 0
M  V30 52211 H 5235.97 4.1441 -4.34033 0
M  V30 52212 H 5237.04 2.77892 -3.97371 0
M  V30 52213 N 5238.39 1.2011 1.02036 0
M  V30 52214 C 5239.3 0.962126 2.13963 0
M  V30 52215 C 5240.31 -0.0807442 1.73813 0
M  V30 52216 O 5241.49 0.105844 2.01122 0
M  V30 52217 C 5238.55 0.513229 3.4288 0
M  V30 52218 C 5237.61 1.6265 3.97295 0
M  V30 52219 C 5236.85 1.19893 5.20059 0
M  V30 52220 O 5237.07 0.0660428 5.70362 0
M  V30 52221 O 5236 2.00487 5.67529 0
M  V30 52222 H 5239.83 1.89918 2.36991 0
M  V30 52223 H 5237.42 0.984647 1.12361 0
M  V30 52224 H 5239.3 0.271945 4.20522 0
M  V30 52225 H 5237.97 -0.395289 3.21277 0
M  V30 52226 H 5236.88 1.92203 3.2095 0
M  V30 52227 H 5238.21 2.51189 4.23279 0
M  V30 52228 N 5239.86 -1.21284 1.00638 0
M  V30 52229 C 5240.83 -2.21925 0.572899 0
M  V30 52230 C 5241.83 -1.56911 -0.351486 0
M  V30 52231 O 5243.02 -1.73624 -0.141582 0
M  V30 52232 C 5240.15 -3.40501 -0.164812 0
M  V30 52233 H 5241.34 -2.6179 1.46309 0
M  V30 52234 H 5238.9 -1.34569 0.795045 0
M  V30 52235 H 5239.63 -3.06126 -1.07038 0
M  V30 52236 H 5239.42 -3.88911 0.499099 0
M  V30 52237 H 5240.91 -4.15105 -0.455799 0
M  V30 52238 N 5241.34 -0.781292 -1.36871 0
M  V30 52239 C 5242.59 -0.349959 -1.99453 0
M  V30 52240 C 5242.92 1.07615 -1.62016 0
M  V30 52241 O 5242.17 1.75662 -0.862642 0
M  V30 52242 C 5242.47 -0.451584 -3.54536 0
M  V30 52243 C 5242.14 -1.83732 -4.11769 0
M  V30 52244 C 5240.8 -2.21649 -4.27112 0
M  V30 52245 C 5243.15 -2.74506 -4.43053 0
M  V30 52246 C 5240.48 -3.49758 -4.71048 0
M  V30 52247 C 5242.83 -4.02035 -4.88417 0
M  V30 52248 C 5241.5 -4.39984 -5.01966 0
M  V30 52249 H 5240.77 -0.128059 -0.729851 0
M  V30 52250 H 5243.41 -0.997174 -1.63489 0
M  V30 52251 H 5241.72 0.279151 -3.90804 0
M  V30 52252 H 5243.41 -0.0990018 -4.00878 0
M  V30 52253 H 5240 -1.53265 -4.0026 0
M  V30 52254 H 5244.19 -2.46469 -4.30775 0
M  V30 52255 H 5239.44 -3.79043 -4.79725 0
M  V30 52256 H 5243.62 -4.72493 -5.11589 0
M  V30 52257 H 5241.25 -5.3931 -5.35769 0
M  V30 52258 N 5242.82 1.48327 -0.532624 0
M  V30 52259 C 5244.07 2.025 0.000511167 0
M  V30 52260 C 5244.4 1.40947 1.34031 0
M  V30 52261 O 5243.65 0.545611 1.8794 0
M  V30 52262 C 5243.95 3.57001 0.168817 0
M  V30 52263 C 5243.62 4.37353 -1.09696 0
M  V30 52264 C 5242.28 4.59028 -1.44385 0
M  V30 52265 C 5244.63 4.83875 -1.93686 0
M  V30 52266 C 5241.96 5.24472 -2.62957 0
M  V30 52267 C 5244.31 5.50626 -3.11439 0
M  V30 52268 C 5242.97 5.70539 -3.46471 0
M  V30 52269 H 5242.24 0.741 0.000187049 0
M  V30 52270 H 5244.89 1.7828 -0.69918 0
M  V30 52271 H 5243.2 3.80076 0.951295 0
M  V30 52272 H 5244.89 3.96542 0.596283 0
M  V30 52273 H 5241.48 4.20745 -0.816803 0
M  V30 52274 H 5245.67 4.6693 -1.68196 0
M  V30 52275 H 5240.92 5.38086 -2.90299 0
M  V30 52276 H 5245.1 5.85642 -3.76824 0
M  V30 52277 H 5242.72 6.21022 -4.38447 0
M  V30 52278 N 5244.3 0.26788 1.55307 0
M  V30 52279 C 5245.21 -0.632975 2.259 0
M  V30 52280 C 5246.22 -1.17608 1.28236 0
M  V30 52281 O 5247.4 -1.20791 1.61157 0
M  V30 52282 C 5244.47 -1.80386 2.96077 0
M  V30 52283 C 5243.53 -1.29815 4.09202 0
M  V30 52284 C 5242.76 -2.41323 4.76024 0
M  V30 52285 O 5242.98 -3.60521 4.42019 0
M  V30 52286 O 5241.92 -2.0989 5.64119 0
M  V30 52287 H 5245.74 -0.0613314 3.03638 0
M  V30 52288 H 5243.33 0.0355597 1.49358 0
M  V30 52289 H 5245.21 -2.48673 3.40206 0
M  V30 52290 H 5243.88 -2.36273 2.21262 0
M  V30 52291 H 5242.79 -0.581957 3.69546 0
M  V30 52292 H 5244.12 -0.785117 4.85898 0
M  V30 52293 N 5245.78 -1.57599 -0.00494828 0
M  V30 52294 C 5246.71 -2.04952 -1.02602 0
M  V30 52295 C 5247.72 -0.966553 -1.31002 0
M  V30 52296 O 5248.91 -1.24344 -1.28065 0
M  V30 52297 C 5246.01 -2.43031 -2.36197 0
M  V30 52298 C 5245.18 -3.74001 -2.26808 0
M  V30 52299 C 5244.24 -3.99002 -3.43051 0
M  V30 52300 O 5243.27 -4.69736 -3.2146 0
M  V30 52301 N 5244.47 -3.46512 -4.65736 0
M  V30 52302 H 5247.24 -2.93169 -0.622233 0
M  V30 52303 H 5244.8 -1.60752 -0.192431 0
M  V30 52304 H 5246.79 -2.56874 -3.12726 0
M  V30 52305 H 5245.36 -1.60359 -2.68335 0
M  V30 52306 H 5244.58 -3.70282 -1.35222 0
M  V30 52307 H 5245.87 -4.59873 -2.17703 0
M  V30 52308 H 5245.26 -2.89223 -4.86176 0
M  V30 52309 H 5243.82 -3.65694 -5.39547 0
M  V30 52310 N 5247.25 0.277627 -1.55135 0
M  V30 52311 C 5248.22 1.32629 -1.86929 0
M  V30 52312 C 5249.22 1.42576 -0.743557 0
M  V30 52313 O 5250.41 1.41807 -1.01176 0
M  V30 52314 C 5247.54 2.70824 -2.07044 0
M  V30 52315 H 5248.73 1.0567 -2.80667 0
M  V30 52316 H 5246.29 0.515465 -1.47556 0
M  V30 52317 H 5247.02 3.0297 -1.15672 0
M  V30 52318 H 5246.81 2.64991 -2.89002 0
M  V30 52319 H 5248.3 3.46602 -2.3293 0
M  V30 52320 N 5248.73 1.4799 0.541927 0
M  V30 52321 C 5249.66 1.64509 1.65708 0
M  V30 52322 C 5250.64 0.494173 1.62763 0
M  V30 52323 O 5251.83 0.725319 1.80147 0
M  V30 52324 C 5248.96 1.67348 3.04322 0
M  V30 52325 C 5247.91 2.8182 3.2212 0
M  V30 52326 C 5247.24 2.69741 4.61675 0
M  V30 52327 C 5248.54 4.23252 3.06031 0
M  V30 52328 H 5250.23 2.57865 1.52138 0
M  V30 52329 H 5247.78 1.24096 0.730485 0
M  V30 52330 H 5249.73 1.77494 3.82196 0
M  V30 52331 H 5248.46 0.705626 3.18886 0
M  V30 52332 H 5247.12 2.7121 2.46659 0
M  V30 52333 H 5246.76 1.7095 4.73059 0
M  V30 52334 H 5246.46 3.46547 4.74531 0
M  V30 52335 H 5247.99 2.81837 5.41664 0
M  V30 52336 H 5249.4 4.34759 3.73708 0
M  V30 52337 H 5247.8 5.00963 3.30387 0
M  V30 52338 H 5248.87 4.4055 2.02593 0
M  V30 52339 N 5250.21 -0.789872 1.36377 0
M  V30 52340 C 5251.44 -1.57869 1.33735 0
M  V30 52341 C 5251.85 -1.88624 -0.0814881 0
M  V30 52342 O 5251.21 -1.50089 -1.03825 0
M  V30 52343 C 5251.26 -2.89995 2.15836 0
M  V30 52344 O 5250.98 -2.60566 3.52189 0
M  V30 52345 C 5252.48 -3.84301 2.20969 0
M  V30 52346 H 5249.7 -0.489669 0.458765 0
M  V30 52347 H 5252.25 -0.980373 1.79468 0
M  V30 52348 H 5250.4 -3.46297 1.73659 0
M  V30 52349 H 5250.82 -3.45046 3.95023 0
M  V30 52350 H 5252.29 -4.74071 2.82773 0
M  V30 52351 H 5252.77 -4.22117 1.21302 0
M  V30 52352 H 5253.37 -3.33933 2.6338 0
M  V30 52353 N 5251.69 -1.20649 -1.01398 0
M  V30 52354 C 5252.6 -0.97346 -2.1345 0
M  V30 52355 C 5253.62 0.0715254 -1.73853 0
M  V30 52356 O 5254.79 -0.116509 -2.01063 0
M  V30 52357 C 5251.86 -0.531405 -3.42603 0
M  V30 52358 C 5250.92 -1.64755 -3.96427 0
M  V30 52359 C 5250.15 -1.22649 -5.19416 0
M  V30 52360 O 5250.37 -0.0962896 -5.70319 0
M  V30 52361 O 5249.31 -2.03494 -5.66457 0
M  V30 52362 H 5253.13 -1.91173 -2.3598 0
M  V30 52363 H 5250.72 -0.990592 -1.11838 0
M  V30 52364 H 5252.6 -0.294243 -4.20371 0
M  V30 52365 H 5251.28 0.378245 -3.21482 0
M  V30 52366 H 5250.18 -1.93902 -3.19926 0
M  V30 52367 H 5251.52 -2.5343 -4.21941 0
M  V30 52368 N 5253.17 1.20748 -1.0128 0
M  V30 52369 C 5254.08 2.27077 -0.589357 0
M  V30 52370 C 5255.09 1.69992 0.37133 0
M  V30 52371 O 5256.27 2.00045 0.233224 0
M  V30 52372 C 5253.33 3.4663 0.0695496 0
M  V30 52373 C 5252.4 4.18959 -0.936601 0
M  V30 52374 C 5251.63 5.32804 -0.309043 0
M  V30 52375 O 5251.85 5.63379 0.892202 0
M  V30 52376 O 5250.79 5.93128 -1.02387 0
M  V30 52377 H 5254.61 2.65505 -1.47447 0
M  V30 52378 H 5252.2 1.27294 -0.782089 0
M  V30 52379 H 5254.08 4.1912 0.437725 0
M  V30 52380 H 5252.75 3.10085 0.92892 0
M  V30 52381 H 5251.66 3.48657 -1.35607 0
M  V30 52382 H 5252.99 4.59434 -1.76581 0
M  V30 52383 N 5254.65 0.78854 1.36454 0
M  V30 52384 C 5255.87 0.372436 2.0352 0
M  V30 52385 C 5256.29 -1.01087 1.59458 0
M  V30 52386 O 5255.65 -1.64821 0.783593 0
M  V30 52387 C 5255.7 0.425561 3.58986 0
M  V30 52388 O 5255.42 1.75432 4.01442 0
M  V30 52389 C 5256.92 -2.43248e-05 4.433 0
M  V30 52390 H 5254.14 0.153623 0.653178 0
M  V30 52391 H 5256.68 1.06714 1.74449 0
M  V30 52392 H 5254.84 -0.22072 3.86771 0
M  V30 52393 H 5255.25 1.70454 4.9603 0
M  V30 52394 H 5256.73 0.0882859 5.51929 0
M  V30 52395 H 5257.2 -1.05254 4.26401 0
M  V30 52396 H 5257.81 0.618711 4.20776 0
M  V30 52397 N 5256.12 -1.48042 0.540482 0
M  V30 52398 C 5257.53 -1.86417 0.102728 0
M  V30 52399 C 5257.89 -1.44894 -1.32288 0
M  V30 52400 O 5257.01 -0.84439 -1.99246 0
M  V30 52401 C 5257.61 -3.38323 0.179652 0
M  V30 52402 C 5256.16 -3.75852 -0.202966 0
M  V30 52403 C 5255.31 -2.72095 0.534732 0
M  V30 52404 H 5258.26 -1.39798 0.751152 0
M  V30 52405 H 5258.28 -3.75643 -0.606015 0
M  V30 52406 H 5257.8 -3.68514 1.21734 0
M  V30 52407 H 5255.9 -3.51277 -1.24239 0
M  V30 52408 H 5256.01 -4.78884 0.143952 0
M  V30 52409 H 5254.37 -2.54692 -0.0202463 0
M  V30 52410 H 5255.16 -3.05129 1.57325 0
M  V30 52411 N 5257.6 -0.276112 -1.55162 0
M  V30 52412 C 5258.85 0.339712 -1.99224 0
M  V30 52413 C 5259.17 1.56303 -1.16594 0
M  V30 52414 O 5258.44 1.94224 -0.255708 0
M  V30 52415 H 5257.02 0.128508 -0.735863 0
M  V30 52416 H 5259.68 -0.381679 -1.91126 0
M  V30 52417 H 5258.78 0.628893 -3.05698 0
M  V30 52418 N 5259.08 1.576 -0.00340966 0
M  V30 52419 C 5260.33 1.90998 0.681732 0
M  V30 52420 C 5260.66 0.877704 1.73234 0
M  V30 52421 O 5259.93 -0.103115 1.94226 0
M  V30 52422 C 5260.22 3.34965 1.32175 0
M  V30 52423 C 5260.07 4.48912 0.282453 0
M  V30 52424 C 5261.39 3.78416 2.24698 0
M  V30 52425 H 5258.51 0.694604 0.246361 0
M  V30 52426 H 5261.15 1.89919 -0.0554028 0
M  V30 52427 H 5259.3 3.36015 1.95002 0
M  V30 52428 H 5260.97 4.59998 -0.346403 0
M  V30 52429 H 5259.21 4.31999 -0.39492 0
M  V30 52430 H 5259.89 5.46612 0.769384 0
M  V30 52431 H 5262.36 3.7894 1.71884 0
M  V30 52432 H 5261.24 4.79895 2.66444 0
M  V30 52433 H 5261.5 3.12475 3.12749 0
M  V30 52434 N 5260.56 -0.269396 1.5528 0
M  V30 52435 C 5261.49 -1.35546 1.84824 0
M  V30 52436 C 5262.5 -1.45367 0.732965 0
M  V30 52437 O 5263.69 -1.47119 1.01086 0
M  V30 52438 C 5260.79 -2.73637 1.99939 0
M  V30 52439 C 5259.96 -2.86364 3.30627 0
M  V30 52440 C 5259.02 -4.05154 3.35763 0
M  V30 52441 O 5258.05 -3.95741 4.09118 0
M  V30 52442 N 5259.25 -5.17288 2.63426 0
M  V30 52443 H 5262.02 -1.10547 2.78567 0
M  V30 52444 H 5259.58 -0.459512 1.55242 0
M  V30 52445 H 5261.57 -3.51404 2.00742 0
M  V30 52446 H 5260.14 -2.91444 1.13046 0
M  V30 52447 H 5259.36 -1.95453 3.42333 0
M  V30 52448 H 5260.65 -2.918 4.16809 0
M  V30 52449 H 5260.05 -5.27822 2.03519 0
M  V30 52450 H 5258.6 -5.93272 2.69947 0
M  V30 52451 N 5262.04 -1.48275 -0.534071 0
M  V30 52452 C 5263.31 -1.46572 -1.29522 0
M  V30 52453 C 5263.69 -0.175164 -2.10372 0
M  V30 52454 O 5263.04 0.843154 -2.12375 0
M  V30 52455 C 5263.25 -2.72527 -2.18014 0
M  V30 52456 C 5264.6 -3.20689 -2.78287 0
M  V30 52457 O 5265.62 -2.73416 -2.28303 0
M  V30 52458 O 5264.48 -4.02937 -3.69193 0
M  V30 52459 H 5261.58 -0.585171 -0.584383 0
M  V30 52460 H 5264.12 -1.60504 -0.551063 0
M  V30 52461 H 5262.89 -3.57971 -1.58027 0
M  V30 52462 H 5262.52 -2.61295 -2.99684 0
M  V30 52463 N 5263.51 0.782628 -1.36794 0
M  V30 52464 C 5264.75 1.55391 -1.32789 0
M  V30 52465 C 5265.12 1.91789 0.0899598 0
M  V30 52466 O 5266.32 2.67591 0.254631 0
M  V30 52467 C 5264.59 2.79219 -2.23095 0
M  V30 52468 S 5266.15 3.69396 -2.36838 0
M  V30 52469 H 5262.97 0.532122 -0.471558 0
M  V30 52470 H 5265.57 0.921225 -1.72435 0
M  V30 52471 H 5264.27 2.50541 -3.2505 0
M  V30 52472 H 5263.8 3.47456 -1.84494 0
M  V30 52473 H 5265.82 4.70677 -1.5709 0
M  V30 52474 N 5264.99 1.21185 1.00757 0
M  V30 52475 C 5266.22 1.05188 1.77817 0
M  V30 52476 C 5266.63 -0.401462 1.84892 0
M  V30 52477 O 5265.97 -1.29038 1.30748 0
M  V30 52478 C 5266.04 1.57077 3.23368 0
M  V30 52479 C 5265.7 3.05503 3.39878 0
M  V30 52480 C 5266.7 4.03077 3.28367 0
M  V30 52481 C 5264.38 3.44654 3.65403 0
M  V30 52482 C 5266.38 5.3779 3.42141 0
M  V30 52483 C 5264.06 4.7952 3.78819 0
M  V30 52484 C 5265.06 5.75897 3.67194 0
M  V30 52485 O 5264.75 7.08317 3.80187 0
M  V30 52486 H 5264.48 0.370003 0.56575 0
M  V30 52487 H 5267.03 1.60919 1.27649 0
M  V30 52488 H 5265.26 0.957405 3.74661 0
M  V30 52489 H 5266.95 1.36963 3.82094 0
M  V30 52490 H 5267.72 3.74174 3.08575 0
M  V30 52491 H 5263.6 2.70173 3.73534 0
M  V30 52492 H 5267.14 6.12999 3.32984 0
M  V30 52493 H 5263.04 5.0811 3.98114 0
M  V30 52494 H 5263.81 7.15691 3.9715 0
M  V30 52495 N 5266.47 -1.20209 1.01919 0
M  V30 52496 C 5267.7 -1.93339 0.728265 0
M  V30 52497 C 5268.11 -1.75154 -0.715392 0
M  V30 52498 O 5267.45 -1.06443 -1.49719 0
M  V30 52499 C 5267.51 -3.45674 0.987421 0
M  V30 52500 C 5267.18 -3.87622 2.42071 0
M  V30 52501 C 5268.17 -3.93172 3.40165 0
M  V30 52502 C 5265.86 -4.19537 2.76213 0
M  V30 52503 C 5267.85 -4.30052 4.70461 0
M  V30 52504 C 5265.54 -4.56092 4.06723 0
M  V30 52505 C 5266.54 -4.61322 5.03657 0
M  V30 52506 O 5266.23 -4.97037 6.3183 0
M  V30 52507 H 5265.96 -0.621249 0.266507 0
M  V30 52508 H 5268.51 -1.53573 1.36399 0
M  V30 52509 H 5266.74 -3.85577 0.29454 0
M  V30 52510 H 5268.43 -4.00032 0.687677 0
M  V30 52511 H 5269.2 -3.68676 3.15124 0
M  V30 52512 H 5265.08 -4.14656 2.01449 0
M  V30 52513 H 5268.62 -4.34049 5.4612 0
M  V30 52514 H 5264.52 -4.80044 4.31541 0
M  V30 52515 H 5265.29 -5.1502 6.36158 0
M  V30 52516 N 5267.95 -0.795765 -1.36034 0
M  V30 52517 C 5268.9 -0.171517 -2.27354 0
M  V30 52518 C 5269.88 0.648294 -1.47262 0
M  V30 52519 O 5271.07 0.507326 -1.69574 0
M  V30 52520 C 5268.2 0.687758 -3.3634 0
M  V30 52521 C 5267.29 -0.14119 -4.23865 0
M  V30 52522 N 5267.68 -1.19885 -4.91387 0
M  V30 52523 C 5265.98 0.0789478 -4.4593 0
M  V30 52524 C 5266.68 -1.70402 -5.56182 0
M  V30 52525 N 5265.66 -1.01221 -5.34093 0
M  V30 52526 H 5269.46 -0.980944 -2.77046 0
M  V30 52527 H 5266.97 -0.635851 -1.49435 0
M  V30 52528 H 5268.97 1.15093 -4.00698 0
M  V30 52529 H 5267.63 1.49566 -2.88202 0
M  V30 52530 H 5268.64 -1.58137 -4.93166 0
M  V30 52531 H 5265.32 0.85685 -4.08613 0
M  V30 52532 H 5266.71 -2.58737 -6.20084 0
M  V30 52533 N 5269.43 1.47754 -0.548326 0
M  V30 52534 C 5270.66 2.06584 -0.0255229 0
M  V30 52535 C 5271.06 1.40272 1.26966 0
M  V30 52536 O 5270.41 0.490252 1.77037 0
M  V30 52537 C 5270.47 3.58628 0.250175 0
M  V30 52538 C 5270.13 4.46926 -0.954244 0
M  V30 52539 C 5271.13 4.85585 -1.8575 0
M  V30 52540 C 5268.82 4.88569 -1.16641 0
M  V30 52541 C 5270.81 5.64676 -2.95668 0
M  V30 52542 C 5268.5 5.67427 -2.2687 0
M  V30 52543 C 5269.49 6.0539 -3.16215 0
M  V30 52544 O 5269.18 6.82661 -4.24535 0
M  V30 52545 H 5268.91 0.674888 -0.0387501 0
M  V30 52546 H 5271.47 1.90873 -0.75873 0
M  V30 52547 H 5269.7 3.7252 1.03758 0
M  V30 52548 H 5271.39 3.99512 0.717278 0
M  V30 52549 H 5272.15 4.5402 -1.7056 0
M  V30 52550 H 5268.03 4.58492 -0.4802 0
M  V30 52551 H 5271.58 5.94227 -3.65432 0
M  V30 52552 H 5267.47 5.98405 -2.42037 0
M  V30 52553 H 5268.24 7.01042 -4.22472 0
M  V30 52554 N 5270.9 0.284337 1.55014 0
M  V30 52555 C 5272.15 -0.329142 1.99402 0
M  V30 52556 C 5272.47 -1.55683 1.17422 0
M  V30 52557 O 5271.74 -1.94086 0.266005 0
M  V30 52558 H 5270.32 -0.124604 0.736534 0
M  V30 52559 H 5272.99 0.39181 1.90921 0
M  V30 52560 H 5272.08 -0.612672 3.06027 0
M  V30 52561 N 5272.38 -1.57596 0.0117675 0
M  V30 52562 C 5273.31 -2.06029 -1.00423 0
M  V30 52563 C 5274.33 -0.980393 -1.2997 0
M  V30 52564 O 5275.52 -1.25696 -1.26739 0
M  V30 52565 C 5272.62 -2.45522 -2.33606 0
M  V30 52566 C 5271.79 -3.76386 -2.22829 0
M  V30 52567 C 5270.85 -4.02618 -3.38799 0
M  V30 52568 O 5269.87 -4.73119 -3.1646 0
M  V30 52569 N 5271.08 -3.51432 -4.62034 0
M  V30 52570 H 5273.84 -2.93813 -0.591103 0
M  V30 52571 H 5271.4 -1.60947 -0.175371 0
M  V30 52572 H 5273.39 -2.60177 -3.09984 0
M  V30 52573 H 5271.96 -1.63196 -2.66619 0
M  V30 52574 H 5271.18 -3.71695 -1.31287 0
M  V30 52575 H 5272.47 -4.62156 -2.12813 0
M  V30 52576 H 5271.87 -2.94363 -4.83081 0
M  V30 52577 H 5270.43 -3.71396 -5.35638 0
M  V30 52578 N 5273.86 0.261157 -1.55421 0
M  V30 52579 C 5275.09 1.01334 -1.80959 0
M  V30 52580 C 5275.51 1.78709 -0.586911 0
M  V30 52581 O 5274.87 1.75268 0.463775 0
M  V30 52582 C 5274.92 1.93825 -3.04079 0
M  V30 52583 O 5274.02 3.02781 -2.79995 0
M  V30 52584 H 5273.36 0.289102 -0.597759 0
M  V30 52585 H 5275.89 0.286471 -2.02585 0
M  V30 52586 H 5275.9 2.35558 -3.33131 0
M  V30 52587 H 5274.58 1.36922 -3.92715 0
M  V30 52588 H 5273.15 2.65278 -2.62072 0
M  V30 52589 N 5275.34 1.48556 0.526201 0
M  V30 52590 C 5276.57 1.60201 1.30457 0
M  V30 52591 C 5276.98 0.262846 1.87365 0
M  V30 52592 O 5276.32 -0.758478 1.6731 0
M  V30 52593 C 5276.38 2.59232 2.49076 0
M  V30 52594 C 5276.05 4.04207 2.13227 0
M  V30 52595 C 5277.04 4.91777 1.68677 0
M  V30 52596 C 5274.73 4.4977 2.23634 0
M  V30 52597 C 5276.72 6.22939 1.35004 0
M  V30 52598 C 5274.41 5.80952 1.89573 0
M  V30 52599 C 5275.41 6.67359 1.4533 0
M  V30 52600 O 5275.09 7.961 1.11717 0
M  V30 52601 H 5274.83 0.542854 0.402847 0
M  V30 52602 H 5277.38 1.95139 0.641088 0
M  V30 52603 H 5275.61 2.19423 3.18418 0
M  V30 52604 H 5277.3 2.60672 3.11135 0
M  V30 52605 H 5278.07 4.57812 1.60104 0
M  V30 52606 H 5273.94 3.82699 2.57026 0
M  V30 52607 H 5277.49 6.90338 1.00398 0
M  V30 52608 H 5273.39 6.14451 1.97788 0
M  V30 52609 H 5274.15 8.08886 1.25083 0
M  V30 52610 N 5276.82 -0.775363 1.37207 0
M  V30 52611 C 5278.23 -1.07541 1.17928 0
M  V30 52612 C 5278.43 -2.01496 0.0129605 0
M  V30 52613 O 5277.49 -2.44041 -0.648074 0
M  V30 52614 C 5278.8 -1.67638 2.49635 0
M  V30 52615 C 5280.35 -1.79914 2.56125 0
M  V30 52616 C 5280.82 -2.43425 3.87954 0
M  V30 52617 N 5282.32 -2.50879 3.89376 0
M  V30 52618 C 5283.05 -3.00864 4.88128 0
M  V30 52619 N 5282.55 -3.51049 5.97274 0
M  V30 52620 N 5284.34 -2.99705 4.75535 0
M  V30 52621 H 5276.49 -0.151449 2.11859 0
M  V30 52622 H 5278.75 -0.129812 0.93907 0
M  V30 52623 H 5278.46 -1.06071 3.35324 0
M  V30 52624 H 5278.33 -2.66978 2.66463 0
M  V30 52625 H 5280.72 -2.40615 1.70846 0
M  V30 52626 H 5280.8 -0.793396 2.43185 0
M  V30 52627 H 5280.45 -1.83363 4.73646 0
M  V30 52628 H 5280.38 -3.44597 3.98196 0
M  V30 52629 H 5282.87 -2.15359 3.1053 0
M  V30 52630 H 5283.18 -3.87581 6.68581 0
M  V30 52631 H 5281.52 -3.49163 6.00924 0
M  V30 52632 H 5284.72 -2.59796 3.89389 0
M  V30 52633 H 5284.89 -3.3835 5.52651 0
M  V30 52634 N 5278.3 -1.21718 -1.00112 0
M  V30 52635 C 5279.54 -1.03471 -1.73603 0
M  V30 52636 C 5279.86 0.432228 -1.90149 0
M  V30 52637 O 5279.13 1.31152 -1.4552 0
M  V30 52638 H 5277.71 -0.379879 -0.643196 0
M  V30 52639 H 5280.38 -1.53092 -1.20618 0
M  V30 52640 H 5279.47 -1.50583 -2.7337 0
M  V30 52641 N 5279.77 1.19667 -1.02555 0
M  V30 52642 C 5281 1.9323 -0.739581 0
M  V30 52643 C 5281.42 1.753 0.701096 0
M  V30 52644 O 5280.77 1.07274 1.47643 0
M  V30 52645 C 5280.82 3.45081 -1.07709 0
M  V30 52646 O 5280.55 3.62432 -2.46119 0
M  V30 52647 C 5282.05 4.35773 -0.813451 0
M  V30 52648 H 5279.27 0.613896 -0.270875 0
M  V30 52649 H 5281.81 1.51904 -1.36914 0
M  V30 52650 H 5279.97 3.84253 -0.49277 0
M  V30 52651 H 5280.38 4.56328 -2.58583 0
M  V30 52652 H 5281.85 5.40937 -1.0996 0
M  V30 52653 H 5282.33 4.38475 0.252205 0
M  V30 52654 H 5282.94 4.02277 -1.38035 0
M  V30 52655 N 5281.25 0.802969 1.3561 0
M  V30 52656 C 5282.48 0.39343 2.02819 0
M  V30 52657 C 5282.89 -0.999225 1.60662 0
M  V30 52658 O 5282.23 -1.6546 0.798035 0
M  V30 52659 C 5282.29 0.393227 3.57343 0
M  V30 52660 C 5281.96 1.73577 4.22753 0
M  V30 52661 C 5282.96 2.69348 4.44688 0
M  V30 52662 C 5280.64 2.01879 4.59946 0
M  V30 52663 C 5282.63 3.91606 5.02915 0
M  V30 52664 C 5280.32 3.24401 5.17887 0
M  V30 52665 C 5281.32 4.19083 5.39313 0
M  V30 52666 O 5281.01 5.39443 5.96034 0
M  V30 52667 H 5280.74 0.158454 0.657167 0
M  V30 52668 H 5283.29 1.08688 1.74287 0
M  V30 52669 H 5281.52 -0.356799 3.8505 0
M  V30 52670 H 5283.21 0.00649865 4.05899 0
M  V30 52671 H 5283.98 2.48774 4.16337 0
M  V30 52672 H 5279.86 1.28995 4.42585 0
M  V30 52673 H 5283.4 4.65521 5.19554 0
M  V30 52674 H 5279.3 3.44848 5.45665 0
M  V30 52675 H 5280.07 5.40691 6.14488 0
M  V30 52676 N 5282.73 -1.47461 0.556154 0
M  V30 52677 C 5283.95 -2.07371 0.0345458 0
M  V30 52678 C 5284.38 -1.40625 -1.24925 0
M  V30 52679 O 5283.74 -0.480882 -1.74806 0
M  V30 52680 C 5283.79 -3.60307 -0.145436 0
M  V30 52681 O 5282.89 -3.94303 -1.20825 0
M  V30 52682 H 5282.23 -0.66205 0.0508507 0
M  V30 52683 H 5284.76 -1.89495 0.771536 0
M  V30 52684 H 5284.77 -4.06409 -0.359969 0
M  V30 52685 H 5283.45 -4.08285 0.792232 0
M  V30 52686 H 5282.02 -3.59947 -0.974294 0
M  V30 52687 N 5284.21 -0.292554 -1.54861 0
M  V30 52688 C 5285.44 0.322042 -2.04378 0
M  V30 52689 C 5285.85 1.4816 -1.17022 0
M  V30 52690 O 5285.21 1.81466 -0.194013 0
M  V30 52691 C 5285.26 0.786382 -3.52843 0
M  V30 52692 O 5284.98 -0.327016 -4.36878 0
M  V30 52693 C 5286.48 1.467 -4.18323 0
M  V30 52694 H 5283.7 0.0711839 -0.667213 0
M  V30 52695 H 5286.24 -0.429727 -1.99934 0
M  V30 52696 H 5284.4 1.48819 -3.57675 0
M  V30 52697 H 5284.81 0.0329714 -5.2449 0
M  V30 52698 H 5286.29 1.74315 -5.23754 0
M  V30 52699 H 5286.76 2.4043 -3.67546 0
M  V30 52700 H 5287.37 0.808588 -4.17543 0
M  V30 52701 N 5285.69 1.57587 -0.020125 0
M  V30 52702 C 5286.91 1.95721 0.670895 0
M  V30 52703 C 5287.33 0.896139 1.66177 0
M  V30 52704 O 5286.69 -0.122973 1.82085 0
M  V30 52705 C 5286.74 3.33909 1.38517 0
M  V30 52706 O 5286.46 4.35945 0.434013 0
M  V30 52707 C 5287.96 3.86621 2.16885 0
M  V30 52708 H 5285.18 0.644826 0.185583 0
M  V30 52709 H 5287.72 2.04354 -0.0772213 0
M  V30 52710 H 5285.88 3.26522 2.08476 0
M  V30 52711 H 5286.29 5.16004 0.940197 0
M  V30 52712 H 5287.77 4.85682 2.62329 0
M  V30 52713 H 5288.24 3.20389 3.00412 0
M  V30 52714 H 5288.85 3.97248 1.51902 0
M  V30 52715 N 5287.16 -0.252911 1.55557 0
M  V30 52716 C 5288.41 -0.983244 1.7737 0
M  V30 52717 C 5288.74 -1.85201 0.584323 0
M  V30 52718 O 5288.02 -1.89965 -0.417578 0
M  V30 52719 C 5288.3 -1.84885 3.09014 0
M  V30 52720 C 5288.15 -1.00868 4.38344 0
M  V30 52721 C 5289.47 -2.83242 3.36841 0
M  V30 52722 H 5286.59 -0.356033 0.645298 0
M  V30 52723 H 5289.23 -0.254166 1.88292 0
M  V30 52724 H 5287.38 -2.47047 2.99833 0
M  V30 52725 H 5289.06 -0.406218 4.59508 0
M  V30 52726 H 5287.3 -0.312818 4.32671 0
M  V30 52727 H 5287.97 -1.648 5.26825 0
M  V30 52728 H 5290.45 -2.31216 3.45946 0
M  V30 52729 H 5289.32 -3.40934 4.30181 0
M  V30 52730 H 5289.58 -3.59398 2.57459 0
M  V30 52731 N 5288.64 -1.48833 -0.518315 0
M  V30 52732 C 5289.87 -1.61124 -1.29794 0
M  V30 52733 C 5290.28 -0.275938 -1.86773 0
M  V30 52734 O 5289.64 0.736358 -1.66985 0
M  V30 52735 C 5289.69 -2.66684 -2.44053 0
M  V30 52736 O 5289.41 -3.95034 -1.8942 0
M  V30 52737 C 5290.91 -2.89522 -3.35696 0
M  V30 52738 H 5288.13 -0.54293 -0.394295 0
M  V30 52739 H 5290.68 -1.94745 -0.624073 0
M  V30 52740 H 5288.83 -2.3589 -3.07303 0
M  V30 52741 H 5289.25 -4.53041 -2.643 0
M  V30 52742 H 5290.72 -3.67156 -4.1219 0
M  V30 52743 H 5291.2 -1.98782 -3.91641 0
M  V30 52744 H 5291.8 -3.21666 -2.78229 0
M  V30 52745 N 5290.12 0.768075 -1.37617 0
M  V30 52746 C 5291.37 1.52374 -1.32765 0
M  V30 52747 C 5291.69 1.94809 0.0862879 0
M  V30 52748 O 5290.96 1.66571 1.03106 0
M  V30 52749 H 5289.54 0.565162 -0.488468 0
M  V30 52750 H 5292.2 0.913914 -1.72144 0
M  V30 52751 H 5291.3 2.42143 -1.96909 0
M  V30 52752 N 5291.6 1.22247 0.994655 0
M  V30 52753 C 5293.01 0.98205 1.25809 0
M  V30 52754 C 5293.21 -0.325418 1.98855 0
M  V30 52755 O 5292.27 -1.04848 2.29702 0
M  V30 52756 C 5293.58 2.17957 2.0716 0
M  V30 52757 C 5295.13 2.22295 2.2035 0
M  V30 52758 C 5295.61 3.41594 3.05086 0
M  V30 52759 N 5297.1 3.41745 3.12674 0
M  V30 52760 C 5297.83 4.30705 3.78524 0
M  V30 52761 N 5297.33 5.29881 4.46316 0
M  V30 52762 N 5299.12 4.18486 3.75268 0
M  V30 52763 H 5291.27 2.06312 0.50489 0
M  V30 52764 H 5293.53 0.90396 0.285586 0
M  V30 52765 H 5293.24 3.12764 1.60847 0
M  V30 52766 H 5293.11 2.17873 3.07915 0
M  V30 52767 H 5295.5 1.28037 2.65877 0
M  V30 52768 H 5295.58 2.26418 1.19031 0
M  V30 52769 H 5295.23 4.3615 2.6026 0
M  V30 52770 H 5295.16 3.34709 4.06543 0
M  V30 52771 H 5297.65 2.69978 2.64424 0
M  V30 52772 H 5297.96 5.94044 4.94299 0
M  V30 52773 H 5296.31 5.33795 4.4507 0
M  V30 52774 H 5299.5 3.4026 3.21466 0
M  V30 52775 H 5299.67 4.88022 4.26308 0
M  V30 52776 N 5293.08 -1.19122 1.03188 0
M  V30 52777 C 5294.3 -1.92835 0.749818 0
M  V30 52778 C 5294.72 -1.75669 -0.69179 0
M  V30 52779 O 5294.08 -1.08056 -1.47072 0
M  V30 52780 C 5294.13 -3.44505 1.09538 0
M  V30 52781 O 5293.85 -3.61122 2.48038 0
M  V30 52782 C 5295.35 -4.35335 0.83655 0
M  V30 52783 H 5292.57 -0.61245 0.274127 0
M  V30 52784 H 5295.11 -1.51176 1.37718 0
M  V30 52785 H 5293.27 -3.83986 0.513141 0
M  V30 52786 H 5293.68 -4.5495 2.61 0
M  V30 52787 H 5295.16 -5.40346 1.12827 0
M  V30 52788 H 5295.63 -4.38603 -0.228948 0
M  V30 52789 H 5296.24 -4.01539 1.40166 0
M  V30 52790 N 5294.55 -0.810149 -1.35183 0
M  V30 52791 C 5295.79 -0.397872 -2.0049 0
M  V30 52792 C 5296.16 1.01678 -1.62867 0
M  V30 52793 O 5297.36 1.53125 -2.20921 0
M  V30 52794 C 5295.63 -0.579648 -3.52668 0
M  V30 52795 S 5297.19 -0.258323 -4.38039 0
M  V30 52796 H 5294.01 -0.150929 -0.694796 0
M  V30 52797 H 5296.61 -1.05318 -1.64707 0
M  V30 52798 H 5295.31 -1.60914 -3.77538 0
M  V30 52799 H 5294.84 0.0908503 -3.93295 0
M  V30 52800 H 5296.86 0.932711 -4.87355 0
M  V30 52801 N 5296.03 1.47164 -0.563966 0
M  V30 52802 C 5296.96 2.28166 0.217502 0
M  V30 52803 C 5297.98 1.37408 0.873086 0
M  V30 52804 O 5299.17 1.62173 0.7458 0
M  V30 52805 C 5296.27 3.11878 1.3261 0
M  V30 52806 C 5295.44 4.3064 0.766025 0
M  V30 52807 C 5294.5 4.95895 1.75996 0
M  V30 52808 O 5293.52 5.54076 1.30341 0
M  V30 52809 N 5294.73 4.91202 3.09356 0
M  V30 52810 H 5297.49 2.95874 -0.47736 0
M  V30 52811 H 5295.05 1.56868 -0.400485 0
M  V30 52812 H 5297.04 3.52399 1.9899 0
M  V30 52813 H 5295.61 2.46368 1.9241 0
M  V30 52814 H 5294.83 3.94129 -0.0747384 0
M  V30 52815 H 5296.12 5.07443 0.371294 0
M  V30 52816 H 5295.52 4.45145 3.49088 0
M  V30 52817 H 5294.08 5.35721 3.71276 0
M  V30 52818 N 5297.51 0.300763 1.54704 0
M  V30 52819 C 5298.47 -0.56257 2.22189 0
M  V30 52820 C 5299.47 -1.06148 1.20786 0
M  V30 52821 O 5300.66 -0.957545 1.45522 0
M  V30 52822 C 5297.8 -1.77888 2.90807 0
M  V30 52823 H 5298.99 0.0270415 2.99888 0
M  V30 52824 H 5296.54 0.0515961 1.56215 0
M  V30 52825 H 5297.28 -2.40834 2.17186 0
M  V30 52826 H 5297.06 -1.42879 3.65141 0
M  V30 52827 H 5298.55 -2.39224 3.42289 0
M  V30 52828 N 5298.99 -1.57574 0.028482 0
M  V30 52829 C 5300.23 -1.92886 -0.645476 0
M  V30 52830 C 5300.59 -0.905263 -1.69773 0
M  V30 52831 O 5299.88 0.0787836 -1.91438 0
M  V30 52832 C 5300.08 -3.32704 -1.30549 0
M  V30 52833 C 5299.91 -4.48569 -0.31869 0
M  V30 52834 C 5298.68 -5.05235 0.0812149 0
M  V30 52835 C 5300.87 -5.12526 0.426755 0
M  V30 52836 N 5298.86 -6.04622 1.06325 0
M  V30 52837 C 5300.23 -6.07009 1.26256 0
M  V30 52838 C 5302.28 -4.95507 0.487525 0
M  V30 52839 C 5300.98 -6.86302 2.15365 0
M  V30 52840 C 5303.01 -5.75409 1.36595 0
M  V30 52841 C 5302.37 -6.69506 2.18953 0
M  V30 52842 H 5298.47 -0.753684 -0.208529 0
M  V30 52843 H 5301.06 -1.94466 0.0955074 0
M  V30 52844 H 5299.23 -3.31945 -2.01661 0
M  V30 52845 H 5300.96 -3.55366 -1.93642 0
M  V30 52846 H 5297.71 -4.72692 -0.293097 0
M  V30 52847 H 5298.14 -6.59006 1.55048 0
M  V30 52848 H 5302.78 -4.22585 -0.134963 0
M  V30 52849 H 5300.5 -7.58531 2.78669 0
M  V30 52850 H 5304.08 -5.64274 1.41725 0
M  V30 52851 H 5302.96 -7.30256 2.85824 0
M  V30 52852 N 5300.47 0.244658 -1.55689 0
M  V30 52853 C 5301.69 0.994093 -1.82024 0
M  V30 52854 C 5302.12 1.78077 -0.605833 0
M  V30 52855 O 5301.47 1.7575 0.445159 0
M  V30 52856 C 5301.52 1.90589 -3.06118 0
M  V30 52857 O 5300.63 2.99794 -2.83191 0
M  V30 52858 H 5299.97 0.282746 -0.600792 0
M  V30 52859 H 5302.5 0.264968 -2.02877 0
M  V30 52860 H 5302.51 2.32011 -3.35611 0
M  V30 52861 H 5301.18 1.32749 -3.94145 0
M  V30 52862 H 5299.76 2.62484 -2.64871 0
M  V30 52863 N 5301.94 1.49106 0.510415 0
M  V30 52864 C 5303.17 1.62072 1.29412 0
M  V30 52865 C 5303.59 0.288497 1.85874 0
M  V30 52866 O 5302.95 -0.742608 1.65394 0
M  V30 52867 C 5303 2.68514 2.40692 0
M  V30 52868 O 5302.1 2.27033 3.44282 0
M  V30 52869 H 5301.45 0.542792 0.382457 0
M  V30 52870 H 5303.98 1.9523 0.612085 0
M  V30 52871 H 5303.99 2.90393 2.86594 0
M  V30 52872 H 5302.66 3.65223 1.9896 0
M  V30 52873 H 5301.24 2.15447 3.04363 0
M  V30 52874 N 5303.42 -0.760766 1.38022 0
M  V30 52875 C 5304.36 -1.88208 1.29047 0
M  V30 52876 C 5305.33 -1.61721 0.168862 0
M  V30 52877 O 5306.52 -1.85317 0.344958 0
M  V30 52878 C 5303.64 -3.23669 0.997816 0
M  V30 52879 C 5302.69 -3.69052 2.13782 0
M  V30 52880 S 5303.52 -3.81432 3.75859 0
M  V30 52881 C 5304.68 -5.19724 3.48766 0
M  V30 52882 H 5304.91 -1.95533 2.23951 0
M  V30 52883 H 5302.45 -0.923008 1.23774 0
M  V30 52884 H 5304.4 -4.01901 0.835798 0
M  V30 52885 H 5303.06 -3.1403 0.0660774 0
M  V30 52886 H 5302.26 -4.67288 1.88833 0
M  V30 52887 H 5301.86 -2.97953 2.26053 0
M  V30 52888 H 5304.15 -6.05248 3.04435 0
M  V30 52889 H 5305.09 -5.4969 4.4637 0
M  V30 52890 H 5305.5 -4.88181 2.83442 0
M  V30 52891 N 5304.9 -1.22773 -0.988158 0
M  V30 52892 C 5306.13 -1.08161 -1.76377 0
M  V30 52893 C 5306.54 0.367507 -1.85189 0
M  V30 52894 O 5305.9 1.25451 -1.32546 0
M  V30 52895 C 5305.95 -1.69204 -3.19456 0
M  V30 52896 O 5305.67 -3.08448 -3.11114 0
M  V30 52897 C 5307.17 -1.5993 -4.13446 0
M  V30 52898 H 5304.39 -0.378928 -0.553764 0
M  V30 52899 H 5306.94 -1.62464 -1.242 0
M  V30 52900 H 5305.09 -1.18952 -3.68686 0
M  V30 52901 H 5305.51 -3.3793 -4.01128 0
M  V30 52902 H 5306.98 -2.07357 -5.11573 0
M  V30 52903 H 5307.46 -0.556699 -4.35658 0
M  V30 52904 H 5308.06 -2.0951 -3.70116 0
M  V30 52905 N 5306.38 1.18573 -1.03818 0
M  V30 52906 C 5307.79 1.70156 -0.768359 0
M  V30 52907 C 5308.14 1.82862 0.711042 0
M  V30 52908 O 5307.27 1.50636 1.55364 0
M  V30 52909 C 5307.86 3.09057 -1.38814 0
M  V30 52910 C 5306.42 3.57862 -1.16669 0
M  V30 52911 C 5305.57 2.34479 -1.48038 0
M  V30 52912 H 5308.52 1.03283 -1.20492 0
M  V30 52913 H 5308.54 3.72208 -0.790031 0
M  V30 52914 H 5308.05 2.99777 -2.46486 0
M  V30 52915 H 5306.15 3.72442 -0.108602 0
M  V30 52916 H 5306.27 4.41439 -1.86196 0
M  V30 52917 H 5304.63 2.38269 -0.899986 0
M  V30 52918 H 5305.41 2.2782 -2.56813 0
M  V30 52919 N 5307.86 0.817307 1.34751 0
M  V30 52920 C 5308.81 0.207665 2.27052 0
M  V30 52921 C 5309.79 -0.624784 1.48274 0
M  V30 52922 O 5310.98 -0.480284 1.70359 0
M  V30 52923 C 5308.11 -0.634162 3.37392 0
M  V30 52924 C 5307.2 0.208605 4.23587 0
M  V30 52925 N 5307.59 1.27687 4.89418 0
M  V30 52926 C 5305.89 -0.00799417 4.45999 0
M  V30 52927 C 5306.59 1.79229 5.534 0
M  V30 52928 N 5305.56 1.09705 5.32415 0
M  V30 52929 H 5309.37 1.0249 2.75451 0
M  V30 52930 H 5306.88 0.659544 1.48404 0
M  V30 52931 H 5308.88 -1.08704 4.02479 0
M  V30 52932 H 5307.54 -1.44962 2.90545 0
M  V30 52933 H 5308.55 1.65963 4.90588 0
M  V30 52934 H 5305.23 -0.791734 4.09924 0
M  V30 52935 H 5306.62 2.6857 6.1589 0
M  V30 52936 N 5309.34 -1.46863 0.571763 0
M  V30 52937 C 5310.27 -2.28278 -0.205399 0
M  V30 52938 C 5311.28 -1.37869 -0.865786 0
M  V30 52939 O 5312.47 -1.62566 -0.737189 0
M  V30 52940 C 5309.57 -3.12577 -1.30954 0
M  V30 52941 C 5308.74 -4.3104 -0.743177 0
M  V30 52942 C 5307.8 -4.96821 -1.73364 0
M  V30 52943 O 5306.83 -5.54759 -1.27401 0
M  V30 52944 N 5308.03 -4.92835 -3.06747 0
M  V30 52945 H 5310.79 -2.95617 0.493044 0
M  V30 52946 H 5308.36 -1.56654 0.408799 0
M  V30 52947 H 5310.35 -3.53449 -1.97119 0
M  V30 52948 H 5308.92 -2.47385 -1.91101 0
M  V30 52949 H 5308.14 -3.94084 0.095639 0
M  V30 52950 H 5309.43 -5.07633 -0.344378 0
M  V30 52951 H 5308.82 -4.4699 -3.46722 0
M  V30 52952 H 5307.38 -5.37683 -3.6843 0
M  V30 52953 N 5310.81 -0.308963 -1.54542 0
M  V30 52954 C 5311.76 0.578825 -2.2053 0
M  V30 52955 C 5312.75 1.09284 -1.18092 0
M  V30 52956 O 5313.94 1.03229 -1.4378 0
M  V30 52957 C 5311.07 1.74638 -2.95561 0
M  V30 52958 C 5310.15 1.24795 -4.05323 0
M  V30 52959 N 5310.55 0.468103 -5.03629 0
M  V30 52960 C 5308.84 1.52798 -4.19009 0
M  V30 52961 C 5309.54 0.201692 -5.8135 0
M  V30 52962 N 5308.52 0.783738 -5.37921 0
M  V30 52963 H 5312.32 -0.0244529 -2.9389 0
M  V30 52964 H 5309.84 -0.114106 -1.61999 0
M  V30 52965 H 5311.83 2.39402 -3.4131 0
M  V30 52966 H 5310.49 2.35328 -2.2372 0
M  V30 52967 H 5311.5 0.112271 -5.17778 0
M  V30 52968 H 5308.18 2.14179 -3.58376 0
M  V30 52969 H 5309.57 -0.425164 -6.70553 0
M  V30 52970 N 5312.29 1.57557 -0.0368381 0
M  V30 52971 C 5313.52 1.96831 0.653638 0
M  V30 52972 C 5313.94 0.913617 1.64422 0
M  V30 52973 O 5313.3 -0.124685 1.80871 0
M  V30 52974 C 5313.35 3.35193 1.32958 0
M  V30 52975 O 5312.45 3.32104 2.44501 0
M  V30 52976 H 5311.79 0.641576 0.171102 0
M  V30 52977 H 5314.32 2.04351 -0.100983 0
M  V30 52978 H 5314.33 3.71599 1.68459 0
M  V30 52979 H 5313.01 4.11498 0.60351 0
M  V30 52980 H 5311.58 3.07425 2.11055 0
M  V30 52981 N 5313.77 -0.236398 1.55817 0
M  V30 52982 C 5315.19 -0.585413 1.48476 0
M  V30 52983 C 5315.39 -1.87847 0.729086 0
M  V30 52984 O 5314.44 -2.5113 0.262703 0
M  V30 52985 C 5315.75 -0.678403 2.92947 0
M  V30 52986 C 5317.3 -0.770028 3.0338 0
M  V30 52987 C 5317.78 -0.894491 4.4918 0
M  V30 52988 N 5319.27 -0.959094 4.53162 0
M  V30 52989 C 5320 -1.07485 5.63236 0
M  V30 52990 N 5319.5 -1.15548 6.83096 0
M  V30 52991 N 5321.29 -1.10883 5.51055 0
M  V30 52992 H 5313.44 0.612312 2.03383 0
M  V30 52993 H 5315.71 0.212829 0.923801 0
M  V30 52994 H 5315.41 0.20188 3.5112 0
M  V30 52995 H 5315.29 -1.54691 3.44021 0
M  V30 52996 H 5317.67 -1.64076 2.45282 0
M  V30 52997 H 5317.75 0.123843 2.555 0
M  V30 52998 H 5317.4 -0.0282752 5.07892 0
M  V30 52999 H 5317.33 -1.80356 4.94752 0
M  V30 53000 H 5319.82 -0.907698 3.66837 0
M  V30 53001 H 5320.13 -1.24317 7.62735 0
M  V30 53002 H 5318.48 -1.12487 6.85836 0
M  V30 53003 H 5321.67 -1.04239 4.56346 0
M  V30 53004 H 5321.84 -1.19559 6.36875 0
M  V30 53005 N 5315.25 -1.49374 -0.5025 0
M  V30 53006 C 5316.48 -1.62492 -1.28078 0
M  V30 53007 C 5316.89 -0.295732 -1.86469 0
M  V30 53008 O 5316.25 0.718605 -1.67757 0
M  V30 53009 C 5316.3 -2.69257 -2.41211 0
M  V30 53010 O 5316.02 -3.9702 -1.8522 0
M  V30 53011 C 5317.52 -2.93066 -3.32607 0
M  V30 53012 H 5314.74 -0.547081 -0.388514 0
M  V30 53013 H 5317.28 -1.95396 -0.603383 0
M  V30 53014 H 5315.44 -2.39136 -3.04783 0
M  V30 53015 H 5315.85 -4.55818 -2.5948 0
M  V30 53016 H 5317.33 -3.71508 -4.08272 0
M  V30 53017 H 5317.8 -2.02925 -3.8951 0
M  V30 53018 H 5318.41 -3.24598 -2.74802 0
M  V30 53019 N 5316.73 0.753436 -1.38424 0
M  V30 53020 C 5318.14 1.33076 -1.30949 0
M  V30 53021 C 5318.49 1.96169 0.0346434 0
M  V30 53022 O 5317.61 1.95077 0.9367 0
M  V30 53023 C 5318.21 2.41965 -2.37147 0
M  V30 53024 C 5316.77 2.95418 -2.3325 0
M  V30 53025 C 5315.91 1.688 -2.20004 0
M  V30 53026 H 5318.86 0.552302 -1.48779 0
M  V30 53027 H 5318.89 3.21906 -2.02871 0
M  V30 53028 H 5318.4 1.96015 -3.34962 0
M  V30 53029 H 5316.5 3.45696 -1.39015 0
M  V30 53030 H 5316.61 3.49786 -3.27393 0
M  V30 53031 H 5314.98 1.92432 -1.66859 0
M  V30 53032 H 5315.76 1.24928 -3.19762 0
M  V30 53033 N 5318.2 1.23295 0.981634 0
M  V30 53034 C 5319.11 1.02971 2.10794 0
M  V30 53035 C 5320.13 -0.0254062 1.73981 0
M  V30 53036 O 5321.31 0.169776 2.00683 0
M  V30 53037 C 5318.37 0.622054 3.41074 0
M  V30 53038 C 5317.43 1.75208 3.91919 0
M  V30 53039 C 5316.66 1.36378 5.15981 0
M  V30 53040 O 5316.89 0.247466 5.69863 0
M  V30 53041 O 5315.82 2.18441 5.60863 0
M  V30 53042 H 5319.65 1.97362 2.30829 0
M  V30 53043 H 5317.23 1.0199 1.09172 0
M  V30 53044 H 5319.11 0.405593 4.19444 0
M  V30 53045 H 5317.79 -0.292877 3.22372 0
M  V30 53046 H 5316.7 2.02317 3.14673 0
M  V30 53047 H 5318.03 2.64528 4.15073 0
M  V30 53048 N 5319.68 -1.1802 1.04446 0
M  V30 53049 C 5320.63 -2.23831 0.632636 0
M  V30 53050 C 5321.62 -1.65903 -0.34243 0
M  V30 53051 O 5322.83 -1.78779 -0.209307 0
M  V30 53052 H 5319.2 -0.728538 0.186379 0
M  V30 53053 H 5321.18 -2.55871 1.53534 0
M  V30 53054 C 5319.92 -3.47697 0.0154883 0
M  V30 53055 H 5319.25 -3.92571 0.756842 0
M  V30 53056 H 5320.69 -4.23346 -0.235392 0
M  V30 53057 C 5319.15 -3.13421 -1.23568 0
M  V30 53058 O 5319.68 -3.27507 -2.32599 0
M  V30 53059 N 5317.88 -2.67712 -1.13043 0
M  V30 53060 H 5317.43 -2.5645 -0.243186 0
M  V30 53061 H 5317.39 -2.4515 -1.96847 0
M  V30 53062 N 5321.16 -0.824441 -1.34316 0
M  V30 53063 C 5322.39 -0.425647 -2.02168 0
M  V30 53064 C 5322.8 0.973539 -1.62231 0
M  V30 53065 O 5322.14 1.6417 -0.824257 0
M  V30 53066 C 5322.2 -0.450028 -3.56672 0
M  V30 53067 C 5321.87 -1.80281 -4.19938 0
M  V30 53068 C 5322.86 -2.76389 -4.40347 0
M  V30 53069 C 5320.55 -2.09171 -4.56676 0
M  V30 53070 C 5322.54 -3.99558 -4.96621 0
M  V30 53071 C 5320.23 -3.32599 -5.12661 0
M  V30 53072 C 5321.23 -4.2761 -5.32577 0
M  V30 53073 O 5320.92 -5.48857 -5.87376 0
M  V30 53074 H 5320.65 -0.168889 -0.654563 0
M  V30 53075 H 5323.2 -1.11447 -1.72536 0
M  V30 53076 H 5321.43 0.295495 -3.85569 0
M  V30 53077 H 5323.12 -0.0710729 -4.05838 0
M  V30 53078 H 5323.89 -2.55366 -4.12327 0
M  V30 53079 H 5319.77 -1.36019 -4.40477 0
M  V30 53080 H 5323.31 -4.73727 -5.12082 0
M  V30 53081 H 5319.21 -3.53485 -5.4011 0
M  V30 53082 H 5319.98 -5.50398 -6.05808 0
M  V30 53083 N 5322.64 1.46557 -0.579543 0
M  V30 53084 C 5324.05 1.86079 -0.152117 0
M  V30 53085 C 5324.4 1.48351 1.284 0
M  V30 53086 O 5323.53 0.896919 1.96937 0
M  V30 53087 C 5324.12 3.37728 -0.269289 0
M  V30 53088 C 5322.68 3.76258 0.103244 0
M  V30 53089 C 5321.83 2.70582 -0.606686 0
M  V30 53090 H 5324.78 1.37757 -0.787953 0
M  V30 53091 H 5324.8 3.77118 0.506207 0
M  V30 53092 H 5324.31 3.65157 -1.31461 0
M  V30 53093 H 5322.41 3.54447 1.14882 0
M  V30 53094 H 5322.52 4.78334 -0.270869 0
M  V30 53095 H 5320.89 2.54656 -0.0472879 0
M  V30 53096 H 5321.67 3.00851 -1.6536 0
M  V30 53097 N 5324.12 0.317154 1.54376 0
M  V30 53098 C 5325.06 -0.567292 2.25576 0
M  V30 53099 C 5326.06 -1.12383 1.26753 0
M  V30 53100 O 5327.26 -1.07261 1.44552 0
M  V30 53101 H 5323.64 -0.201579 0.724479 0
M  V30 53102 H 5325.61 0.0555693 2.98348 0
M  V30 53103 C 5324.36 -1.71973 3.02193 0
M  V30 53104 H 5323.68 -1.30073 3.78049 0
M  V30 53105 H 5325.12 -2.31431 3.55269 0
M  V30 53106 C 5323.58 -2.63353 2.10112 0
M  V30 53107 O 5324.11 -3.64893 1.67975 0
M  V30 53108 N 5322.32 -2.31444 1.75733 0
M  V30 53109 H 5321.86 -1.48914 2.10196 0
M  V30 53110 H 5321.82 -2.92848 1.14401 0
M  V30 53111 N 5325.59 -1.57535 0.0451932 0
M  V30 53112 C 5326.56 -2.10083 -0.916387 0
M  V30 53113 C 5327.56 -1.01918 -1.24376 0
M  V30 53114 O 5328.75 -1.28014 -1.18144 0
M  V30 53115 C 5325.88 -2.58009 -2.22809 0
M  V30 53116 H 5327.07 -2.96336 -0.460971 0
M  V30 53117 H 5324.63 -1.54975 -0.203114 0
M  V30 53118 H 5325.36 -1.75133 -2.72945 0
M  V30 53119 H 5325.15 -3.37047 -2.00354 0
M  V30 53120 H 5326.64 -2.98833 -2.917 0
M  V30 53121 N 5327.07 0.228132 -1.5594 0
M  V30 53122 C 5328.32 0.951605 -1.78294 0
M  V30 53123 C 5328.64 1.8513 -0.612539 0
M  V30 53124 O 5327.91 1.92357 0.370874 0
M  V30 53125 H 5326.49 0.354365 -0.657598 0
M  V30 53126 H 5329.15 0.241567 -1.93397 0
M  V30 53127 H 5328.25 1.5623 -2.70183 0
M  V30 53128 N 5328.55 1.49639 0.494571 0
M  V30 53129 C 5329.48 1.69698 1.6039 0
M  V30 53130 C 5330.46 0.545705 1.61109 0
M  V30 53131 O 5331.65 0.782264 1.77748 0
M  V30 53132 C 5328.78 1.76945 2.98844 0
M  V30 53133 C 5327.73 2.91926 3.12991 0
M  V30 53134 C 5327.06 2.84292 4.5286 0
M  V30 53135 C 5328.36 4.32774 2.92411 0
M  V30 53136 H 5330.05 2.62575 1.43857 0
M  V30 53137 H 5327.6 1.26358 0.690635 0
M  V30 53138 H 5329.55 1.89564 3.76356 0
M  V30 53139 H 5328.27 0.80672 3.1648 0
M  V30 53140 H 5326.93 2.7892 2.37906 0
M  V30 53141 H 5326.58 1.85914 4.67381 0
M  V30 53142 H 5326.28 3.61468 4.63265 0
M  V30 53143 H 5327.8 2.98927 5.32424 0
M  V30 53144 H 5329.22 4.46428 3.59687 0
M  V30 53145 H 5327.62 5.11221 3.14282 0
M  V30 53146 H 5328.69 4.46772 1.88475 0
M  V30 53147 N 5330.03 -0.746085 1.38821 0
M  V30 53148 C 5331.26 -1.53534 1.3869 0
M  V30 53149 C 5331.67 -1.88788 -0.0214375 0
M  V30 53150 O 5331.03 -1.53316 -0.989978 0
M  V30 53151 C 5331.08 -2.82982 2.24952 0
M  V30 53152 O 5330.8 -2.49229 3.603 0
M  V30 53153 C 5332.3 -3.77077 2.33083 0
M  V30 53154 H 5329.52 -0.474826 0.474111 0
M  V30 53155 H 5332.07 -0.92278 1.82497 0
M  V30 53156 H 5330.22 -3.40597 1.84588 0
M  V30 53157 H 5330.63 -3.32304 4.05801 0
M  V30 53158 H 5332.11 -4.64835 2.97712 0
M  V30 53159 H 5332.59 -4.18044 1.3467 0
M  V30 53160 H 5333.19 -3.25385 2.7387 0
M  V30 53161 N 5331.51 -1.23814 -0.975081 0
M  V30 53162 C 5332.92 -1.00194 -1.24231 0
M  V30 53163 C 5333.12 0.293741 -1.99347 0
M  V30 53164 O 5332.18 1.01181 -2.31341 0
M  V30 53165 C 5333.49 -2.21225 -2.03666 0
M  V30 53166 C 5335.04 -2.25772 -2.16785 0
M  V30 53167 C 5335.51 -3.46404 -2.99613 0
M  V30 53168 N 5337.01 -3.46676 -3.07197 0
M  V30 53169 C 5337.74 -4.36673 -3.71624 0
M  V30 53170 N 5337.24 -5.36914 -4.3783 0
M  V30 53171 N 5339.03 -4.24403 -3.68563 0
M  V30 53172 H 5331.18 -2.07089 -0.472004 0
M  V30 53173 H 5333.44 -0.908389 -0.271169 0
M  V30 53174 H 5333.15 -3.15283 -1.55851 0
M  V30 53175 H 5333.02 -2.22744 -3.04409 0
M  V30 53176 H 5335.41 -1.32251 -2.63806 0
M  V30 53177 H 5335.49 -2.28283 -1.15414 0
M  V30 53178 H 5335.14 -4.40236 -2.53288 0
M  V30 53179 H 5335.07 -3.41135 -4.01167 0
M  V30 53180 H 5337.56 -2.74151 -2.60095 0
M  V30 53181 H 5337.87 -6.01833 -4.84786 0
M  V30 53182 H 5336.21 -5.40808 -4.36522 0
M  V30 53183 H 5339.41 -3.45331 -3.16012 0
M  V30 53184 H 5339.58 -4.94742 -4.1849 0
M  V30 53185 N 5332.98 1.17465 -1.0507 0
M  V30 53186 C 5333.93 2.23493 -0.644497 0
M  V30 53187 C 5334.93 1.66082 0.333627 0
M  V30 53188 O 5336.13 1.78887 0.199823 0
M  V30 53189 H 5332.51 0.727539 -0.19024 0
M  V30 53190 H 5334.48 2.55053 -1.54889 0
M  V30 53191 C 5333.23 3.47683 -0.0339273 0
M  V30 53192 H 5332.55 3.92164 -0.777651 0
M  V30 53193 H 5333.99 4.23465 0.212937 0
M  V30 53194 C 5332.45 3.14072 1.21904 0
M  V30 53195 O 5332.98 3.28736 2.30859 0
M  V30 53196 N 5331.19 2.68307 1.11622 0
M  V30 53197 H 5330.73 2.56575 0.229583 0
M  V30 53198 H 5330.69 2.46191 1.95544 0
M  V30 53199 N 5334.46 0.831553 1.33877 0
M  V30 53200 C 5335.69 0.436363 2.01939 0
M  V30 53201 C 5336.1 -0.964922 1.62745 0
M  V30 53202 O 5335.44 -1.6373 0.832952 0
M  V30 53203 C 5335.51 0.468937 3.56428 0
M  V30 53204 C 5335.17 1.82506 4.18976 0
M  V30 53205 C 5336.17 2.7872 4.38875 0
M  V30 53206 C 5333.85 2.1159 4.5556 0
M  V30 53207 C 5335.85 4.02186 4.94495 0
M  V30 53208 C 5333.53 3.35313 5.1089 0
M  V30 53209 C 5334.53 4.30428 5.30302 0
M  V30 53210 O 5334.22 5.51965 5.84457 0
M  V30 53211 H 5333.95 0.172358 0.653658 0
M  V30 53212 H 5336.5 1.1236 1.71943 0
M  V30 53213 H 5334.73 -0.275043 3.85721 0
M  V30 53214 H 5336.42 0.0925945 4.05794 0
M  V30 53215 H 5337.19 2.57549 4.10967 0
M  V30 53216 H 5333.07 1.38353 4.39749 0
M  V30 53217 H 5336.61 4.76436 5.09563 0
M  V30 53218 H 5332.51 3.56345 5.38227 0
M  V30 53219 H 5333.28 5.53603 6.02881 0
M  V30 53220 N 5335.94 -1.46248 0.587307 0
M  V30 53221 C 5337.18 -2.04253 0.0773887 0
M  V30 53222 C 5337.55 -1.44836 -1.26042 0
M  V30 53223 O 5338.75 -1.9407 -1.85985 0
M  V30 53224 C 5337.02 -3.57396 0.0174069 0
M  V30 53225 S 5338.58 -4.36646 -0.434268 0
M  V30 53226 H 5335.39 -0.709891 0.0397032 0
M  V30 53227 H 5338 -1.79229 0.780842 0
M  V30 53228 H 5336.7 -3.98157 0.994935 0
M  V30 53229 H 5336.23 -3.86964 -0.708674 0
M  V30 53230 H 5338.25 -4.66603 -1.68807 0
M  V30 53231 N 5337.42 -0.325336 -1.54205 0
M  V30 53232 C 5338.84 0.0272475 -1.59577 0
M  V30 53233 C 5339.04 1.50324 -1.34182 0
M  V30 53234 O 5338.09 2.25947 -1.12713 0
M  V30 53235 C 5339.4 -0.392573 -2.98126 0
M  V30 53236 C 5340.95 -0.343378 -3.11111 0
M  V30 53237 C 5341.43 -0.738388 -4.52009 0
M  V30 53238 N 5342.92 -0.691862 -4.58004 0
M  V30 53239 C 5343.65 -0.969678 -5.65141 0
M  V30 53240 N 5343.15 -1.31472 -6.80211 0
M  V30 53241 N 5344.94 -0.895121 -5.54927 0
M  V30 53242 H 5337.09 -1.28698 -1.68969 0
M  V30 53243 H 5339.36 -0.523427 -0.790397 0
M  V30 53244 H 5339.06 -1.421 -3.21715 0
M  V30 53245 H 5338.94 0.241519 -3.76426 0
M  V30 53246 H 5341.32 0.675845 -2.87257 0
M  V30 53247 H 5341.4 -1.01243 -2.34912 0
M  V30 53248 H 5341.05 -1.75553 -4.76596 0
M  V30 53249 H 5340.98 -0.0470078 -5.26579 0
M  V30 53250 H 5343.47 -0.437107 -3.75364 0
M  V30 53251 H 5343.78 -1.51203 -7.57864 0
M  V30 53252 H 5342.13 -1.353 -6.81703 0
M  V30 53253 H 5345.32 -0.625039 -4.63908 0
M  V30 53254 H 5345.49 -1.11499 -6.38335 0
M  V30 53255 N 5338.9 1.57509 -0.0535471 0
M  V30 53256 C 5339.85 2.12854 0.937856 0
M  V30 53257 C 5340.84 1.06093 1.32063 0
M  V30 53258 O 5342.05 1.24498 1.30001 0
M  V30 53259 H 5338.42 0.680368 0.320318 0
M  V30 53260 H 5340.39 2.95049 0.445973 0
M  V30 53261 C 5339.14 2.69042 2.20254 0
M  V30 53262 H 5338.46 3.50854 1.9168 0
M  V30 53263 H 5339.9 3.11385 2.87777 0
M  V30 53264 C 5338.36 1.6293 2.94882 0
M  V30 53265 O 5338.89 1.04348 3.8791 0
M  V30 53266 N 5337.1 1.34394 2.57656 0
M  V30 53267 H 5336.65 1.8222 1.82081 0
M  V30 53268 H 5336.6 0.636258 3.07895 0
M  V30 53269 N 5340.38 -0.219858 1.56059 0
M  V30 53270 C 5341.79 -0.786706 1.69316 0
M  V30 53271 C 5342.14 -1.84914 0.655847 0
M  V30 53272 O 5341.26 -2.1554 -0.192696 0
M  V30 53273 C 5341.86 -1.43376 3.06967 0
M  V30 53274 C 5340.42 -1.94798 3.22073 0
M  V30 53275 C 5339.56 -0.80877 2.65244 0
M  V30 53276 H 5342.51 0.00482356 1.58699 0
M  V30 53277 H 5342.54 -2.30261 3.02919 0
M  V30 53278 H 5342.05 -0.660271 3.82442 0
M  V30 53279 H 5340.15 -2.74943 2.5147 0
M  V30 53280 H 5340.26 -2.12679 4.29307 0
M  V30 53281 H 5338.63 -1.21654 2.23769 0
M  V30 53282 H 5339.41 -0.0479251 3.43267 0
M  V30 53283 N 5341.85 -1.49899 -0.486629 0
M  V30 53284 C 5343.13 -1.50618 -1.24794 0
M  V30 53285 C 5343.51 -0.242004 -2.09708 0
M  V30 53286 O 5342.86 0.775161 -2.1495 0
M  V30 53287 C 5343.07 -2.79325 -2.09233 0
M  V30 53288 C 5344.42 -3.29381 -2.67943 0
M  V30 53289 O 5345.44 -2.8054 -2.19489 0
M  V30 53290 O 5344.3 -4.14479 -3.56187 0
M  V30 53291 H 5341.39 -0.603467 -0.56547 0
M  V30 53292 H 5343.94 -1.62175 -0.499721 0
M  V30 53293 H 5342.71 -3.62817 -1.46559 0
M  V30 53294 H 5342.33 -2.70697 -2.9122 0
M  V30 53295 N 5343.33 0.738712 -1.39215 0
M  V30 53296 C 5344.29 1.83436 -1.37419 0
M  V30 53297 C 5345.29 1.58483 -0.271963 0
M  V30 53298 O 5346.48 1.65952 -0.529667 0
M  V30 53299 C 5343.62 3.21163 -1.14312 0
M  V30 53300 H 5344.81 1.86433 -2.3491 0
M  V30 53301 H 5342.36 0.94198 -1.24725 0
M  V30 53302 H 5343.1 3.23828 -0.17487 0
M  V30 53303 H 5342.88 3.40671 -1.94128 0
M  V30 53304 H 5344.37 4.01227 -1.15787 0
M  V30 53305 N 5344.81 1.24329 0.968501 0
M  V30 53306 C 5345.72 1.05201 2.0969 0
M  V30 53307 C 5346.74 -0.00695174 1.73999 0
M  V30 53308 O 5347.91 0.191052 2.00492 0
M  V30 53309 C 5344.98 0.658194 3.40395 0
M  V30 53310 C 5344.04 1.79355 3.90039 0
M  V30 53311 C 5343.27 1.41843 5.14506 0
M  V30 53312 O 5343.49 0.307893 5.69568 0
M  V30 53313 O 5342.43 2.24377 5.58515 0
M  V30 53314 H 5346.25 1.99799 2.28723 0
M  V30 53315 H 5343.84 1.03142 1.08084 0
M  V30 53316 H 5345.72 0.450058 4.1899 0
M  V30 53317 H 5344.4 -0.258669 3.22665 0
M  V30 53318 H 5343.3 2.05643 3.12509 0
M  V30 53319 H 5344.64 2.68915 4.12244 0
M  V30 53320 N 5346.29 -1.16906 1.05692 0
M  V30 53321 C 5347.54 -1.86626 0.765088 0
M  V30 53322 C 5347.85 -1.82226 -0.710854 0
M  V30 53323 O 5349.06 -2.47466 -1.11683 0
M  V30 53324 C 5347.51 -3.34882 1.31842 0
M  V30 53325 C 5347.12 -3.47771 2.82417 0
M  V30 53326 C 5348.86 -4.09897 1.10386 0
M  V30 53327 C 5346.77 -4.90078 3.31025 0
M  V30 53328 H 5345.7 -0.699072 0.282515 0
M  V30 53329 H 5348.35 -1.31984 1.27485 0
M  V30 53330 H 5346.73 -3.89092 0.736449 0
M  V30 53331 H 5347.91 -3.03753 3.46513 0
M  V30 53332 H 5346.22 -2.86183 3.02471 0
M  V30 53333 H 5348.82 -5.14889 1.44198 0
M  V30 53334 H 5349.16 -4.16279 0.0418835 0
M  V30 53335 H 5349.7 -3.61907 1.6513 0
M  V30 53336 H 5346.43 -4.88872 4.36674 0
M  V30 53337 H 5345.95 -5.34746 2.71674 0
M  V30 53338 H 5347.63 -5.58869 3.25997 0
M  V30 53339 N 5347.77 -0.838641 -1.33434 0
M  V30 53340 C 5349.18 -0.526399 -1.50669 0
M  V30 53341 C 5349.38 0.946324 -1.77896 0
M  V30 53342 O 5348.44 1.73014 -1.83909 0
M  V30 53343 C 5349.75 -1.39954 -2.66145 0
M  V30 53344 C 5351.3 -1.39829 -2.8003 0
M  V30 53345 C 5351.77 -2.25628 -3.98568 0
M  V30 53346 N 5353.26 -2.23336 -4.05802 0
M  V30 53347 C 5354 -2.86461 -4.96717 0
M  V30 53348 N 5353.5 -3.58637 -5.92749 0
M  V30 53349 N 5355.29 -2.75932 -4.89712 0
M  V30 53350 H 5347.44 -1.79199 -1.14023 0
M  V30 53351 H 5349.7 -0.764511 -0.560559 0
M  V30 53352 H 5349.41 -2.44608 -2.52705 0
M  V30 53353 H 5349.28 -1.07542 -3.61545 0
M  V30 53354 H 5351.67 -0.359473 -2.92902 0
M  V30 53355 H 5351.75 -1.76248 -1.85392 0
M  V30 53356 H 5351.39 -3.29568 -3.86454 0
M  V30 53357 H 5351.32 -1.86551 -4.92449 0
M  V30 53358 H 5353.82 -1.70848 -3.37075 0
M  V30 53359 H 5354.13 -4.0401 -6.58784 0
M  V30 53360 H 5352.47 -3.62745 -5.92825 0
M  V30 53361 H 5355.66 -2.19108 -4.13653 0
M  V30 53362 H 5355.84 -3.25412 -5.60367 0
M  V30 53363 N 5349.24 1.45934 -0.595055 0
M  V30 53364 C 5350.65 1.85907 -0.171845 0
M  V30 53365 C 5351.01 1.49704 1.26819 0
M  V30 53366 O 5350.13 0.917757 1.95975 0
M  V30 53367 C 5350.73 3.37423 -0.305095 0
M  V30 53368 C 5349.28 3.76347 0.0633311 0
M  V30 53369 C 5348.43 2.69923 -0.63535 0
M  V30 53370 H 5351.38 1.36914 -0.802519 0
M  V30 53371 H 5351.4 3.77633 0.46618 0
M  V30 53372 H 5350.92 3.63742 -1.35327 0
M  V30 53373 H 5349.02 3.55646 1.11116 0
M  V30 53374 H 5349.13 4.78019 -0.321587 0
M  V30 53375 H 5347.49 2.54592 -0.0742949 0
M  V30 53376 H 5348.28 2.9908 -1.68541 0
M  V30 53377 N 5350.72 0.33351 1.54031 0
M  V30 53378 C 5351.97 -0.259178 2.01742 0
M  V30 53379 C 5352.32 -1.48995 1.2173 0
M  V30 53380 O 5351.62 -1.89332 0.293949 0
M  V30 53381 C 5351.81 -0.635526 3.51704 0
M  V30 53382 C 5351.64 0.557227 4.46234 0
M  V30 53383 C 5350.41 1.05943 4.94069 0
M  V30 53384 C 5352.61 1.41255 4.94522 0
M  V30 53385 N 5350.59 2.21555 5.72527 0
M  V30 53386 C 5351.96 2.41571 5.71002 0
M  V30 53387 C 5354.02 1.43916 4.76647 0
M  V30 53388 C 5352.72 3.44365 6.3151 0
M  V30 53389 C 5354.74 2.45586 5.37998 0
M  V30 53390 C 5354.11 3.44628 6.14338 0
M  V30 53391 H 5350.21 -0.0584156 0.779815 0
M  V30 53392 H 5352.79 0.470803 1.88922 0
M  V30 53393 H 5350.96 -1.33462 3.6475 0
M  V30 53394 H 5352.69 -1.21054 3.86171 0
M  V30 53395 H 5349.45 0.629112 4.69403 0
M  V30 53396 H 5349.87 2.799 6.16429 0
M  V30 53397 H 5354.51 0.687076 4.1718 0
M  V30 53398 H 5352.23 4.20474 6.90092 0
M  V30 53399 H 5355.82 2.48459 5.26079 0
M  V30 53400 H 5354.7 4.2201 6.60967 0
M  V30 53401 N 5352.2 -1.57478 0.0618994 0
M  V30 53402 C 5353.44 -1.94984 -0.613241 0
M  V30 53403 C 5353.8 -0.940788 -1.67371 0
M  V30 53404 O 5355.01 -1.20316 -2.4037 0
M  V30 53405 C 5353.28 -3.37212 -1.18418 0
M  V30 53406 S 5354.84 -3.96684 -1.87582 0
M  V30 53407 H 5351.65 -0.681976 -0.201072 0
M  V30 53408 H 5354.26 -1.95044 0.133396 0
M  V30 53409 H 5352.96 -4.08442 -0.400379 0
M  V30 53410 H 5352.49 -3.40672 -1.96739 0
M  V30 53411 H 5354.51 -3.82783 -3.1574 0
M  V30 53412 N 5353.68 0.211579 -1.56173 0
M  V30 53413 C 5354.91 0.94974 -1.83476 0
M  V30 53414 C 5355.32 1.78043 -0.640116 0
M  V30 53415 O 5354.66 1.79278 0.400639 0
M  V30 53416 C 5354.72 1.90857 -3.04654 0
M  V30 53417 C 5354.39 1.26144 -4.39246 0
M  V30 53418 C 5355.38 0.646416 -5.15866 0
M  V30 53419 C 5353.07 1.27022 -4.85974 0
M  V30 53420 C 5355.06 0.0488072 -6.37381 0
M  V30 53421 C 5352.75 0.668774 -6.0743 0
M  V30 53422 C 5353.75 0.0591287 -6.82974 0
M  V30 53423 O 5353.43 -0.532938 -8.02132 0
M  V30 53424 H 5353.17 0.283436 -0.61371 0
M  V30 53425 H 5355.72 0.228868 -2.04121 0
M  V30 53426 H 5353.95 2.6687 -2.79852 0
M  V30 53427 H 5355.64 2.51312 -3.18743 0
M  V30 53428 H 5356.41 0.631886 -4.80866 0
M  V30 53429 H 5352.28 1.73414 -4.2714 0
M  V30 53430 H 5355.83 -0.427658 -6.96288 0
M  V30 53431 H 5351.73 0.68075 -6.419 0
M  V30 53432 H 5352.49 -0.428229 -8.17379 0
M  V30 53433 N 5355.16 1.50155 0.478672 0
M  V30 53434 C 5356.38 1.64509 1.25477 0
M  V30 53435 C 5356.8 0.32536 1.85975 0
M  V30 53436 O 5356.16 -0.691826 1.68879 0
M  V30 53437 C 5356.21 2.73061 2.36897 0
M  V30 53438 O 5355.93 3.99917 1.7888 0
M  V30 53439 C 5357.43 2.98321 3.27902 0
M  V30 53440 H 5354.65 0.553193 0.379761 0
M  V30 53441 H 5357.19 1.96331 0.572221 0
M  V30 53442 H 5355.35 2.43954 3.0094 0
M  V30 53443 H 5355.76 4.59889 2.52195 0
M  V30 53444 H 5357.24 3.77956 4.0231 0
M  V30 53445 H 5357.71 2.09096 3.86233 0
M  V30 53446 H 5358.32 3.28929 2.69603 0
M  V30 53447 N 5356.63 -0.731319 1.39605 0
M  V30 53448 C 5357.57 -1.85428 1.3301 0
M  V30 53449 C 5358.55 -1.61326 0.203127 0
M  V30 53450 O 5359.73 -1.84543 0.384189 0
M  V30 53451 C 5356.86 -3.21479 1.06625 0
M  V30 53452 C 5355.9 -3.64435 2.21562 0
M  V30 53453 S 5356.74 -3.73374 3.83865 0
M  V30 53454 C 5357.89 -5.12209 3.59712 0
M  V30 53455 H 5358.12 -1.90739 2.28048 0
M  V30 53456 H 5355.66 -0.896546 1.25704 0
M  V30 53457 H 5357.62 -4.00038 0.92086 0
M  V30 53458 H 5356.28 -3.1382 0.132673 0
M  V30 53459 H 5355.47 -4.63178 1.98702 0
M  V30 53460 H 5355.07 -2.93091 2.32323 0
M  V30 53461 H 5357.36 -5.98655 3.17205 0
M  V30 53462 H 5358.31 -5.40099 4.57929 0
M  V30 53463 H 5358.71 -4.82059 2.93733 0
M  V30 53464 N 5358.11 -1.24841 -0.961894 0
M  V30 53465 C 5359.39 -0.999449 -1.68138 0
M  V30 53466 C 5359.77 0.476515 -2.05652 0
M  V30 53467 O 5359.12 1.45218 -1.7642 0
M  V30 53468 C 5359.33 -1.92807 -2.90906 0
M  V30 53469 C 5360.68 -2.20232 -3.63019 0
M  V30 53470 O 5361.7 -1.90507 -3.00974 0
M  V30 53471 O 5360.56 -2.70742 -4.74722 0
M  V30 53472 H 5357.65 -0.378445 -0.735329 0
M  V30 53473 H 5360.2 -1.35965 -1.01547 0
M  V30 53474 H 5358.97 -2.92501 -2.59921 0
M  V30 53475 H 5358.59 -1.5714 -3.6523 0
M  V30 53476 N 5359.59 1.16344 -1.0631 0
M  V30 53477 C 5361 1.68488 -0.804279 0
M  V30 53478 C 5361.35 1.84329 0.672094 0
M  V30 53479 O 5360.48 1.53897 1.52134 0
M  V30 53480 C 5361.07 3.06043 -1.45339 0
M  V30 53481 C 5359.63 3.55307 -1.24234 0
M  V30 53482 C 5358.78 2.31286 -1.52978 0
M  V30 53483 H 5361.73 1.00704 -1.22656 0
M  V30 53484 H 5361.75 3.70448 -0.868804 0
M  V30 53485 H 5361.26 2.94481 -2.5279 0
M  V30 53486 H 5359.36 3.72128 -0.187578 0
M  V30 53487 H 5359.48 4.3739 -1.95517 0
M  V30 53488 H 5357.84 2.36307 -0.950324 0
M  V30 53489 H 5358.62 2.22321 -2.61588 0
M  V30 53490 N 5361.07 0.845705 1.32987 0
M  V30 53491 C 5362.29 0.457506 2.02291 0
M  V30 53492 C 5362.72 -0.935577 1.63183 0
M  V30 53493 O 5362.08 -1.61294 0.827892 0
M  V30 53494 C 5362.12 0.59379 3.55678 0
M  V30 53495 O 5361.23 -0.377146 4.10672 0
M  V30 53496 H 5360.57 0.185044 0.637695 0
M  V30 53497 H 5363.1 1.14243 1.69734 0
M  V30 53498 H 5363.11 0.477976 4.05191 0
M  V30 53499 H 5361.78 1.6097 3.83486 0
M  V30 53500 H 5360.36 -0.218317 3.7226 0
M  V30 53501 N 5362.55 -1.45617 0.602786 0
M  V30 53502 C 5363.79 -2.02571 0.0962472 0
M  V30 53503 C 5364.13 -1.47081 -1.2681 0
M  V30 53504 O 5363.4 -0.64363 -1.83542 0
M  V30 53505 C 5363.68 -3.60062 0.0521298 0
M  V30 53506 C 5363.54 -4.25896 1.4468 0
M  V30 53507 C 5364.86 -4.35448 -0.638189 0
M  V30 53508 H 5361.97 -0.736098 0.0364497 0
M  V30 53509 H 5364.62 -1.73527 0.773837 0
M  V30 53510 H 5362.77 -3.84938 -0.524897 0
M  V30 53511 H 5364.44 -4.12221 2.07054 0
M  V30 53512 H 5362.68 -3.84482 2.00888 0
M  V30 53513 H 5363.35 -5.34774 1.36822 0
M  V30 53514 H 5365.83 -4.15837 -0.14778 0
M  V30 53515 H 5364.7 -5.45178 -0.638148 0
M  V30 53516 H 5364.97 -4.07968 -1.70337 0
M  V30 53517 N 5364.02 -0.341674 -1.53852 0
M  V30 53518 C 5365.44 0.0103208 -1.59597 0
M  V30 53519 C 5365.64 1.48892 -1.35769 0
M  V30 53520 O 5364.7 2.24739 -1.15103 0
M  V30 53521 C 5366.01 -0.424171 -2.97693 0
M  V30 53522 C 5367.56 -0.376356 -3.10729 0
M  V30 53523 C 5368.03 -0.786288 -4.512 0
M  V30 53524 N 5369.52 -0.740401 -4.57244 0
M  V30 53525 C 5370.26 -1.02956 -5.64081 0
M  V30 53526 N 5369.75 -1.38679 -6.78778 0
M  V30 53527 N 5371.55 -0.953928 -5.53946 0
M  V30 53528 H 5363.7 -1.30483 -1.67594 0
M  V30 53529 H 5365.96 -0.531781 -0.784801 0
M  V30 53530 H 5365.67 -1.45504 -3.2019 0
M  V30 53531 H 5365.54 0.20158 -3.76661 0
M  V30 53532 H 5367.93 0.64534 -2.87957 0
M  V30 53533 H 5368.01 -1.03729 -2.33825 0
M  V30 53534 H 5367.65 -1.80598 -4.74707 0
M  V30 53535 H 5367.58 -0.102856 -5.265 0
M  V30 53536 H 5370.07 -0.476894 -3.74879 0
M  V30 53537 H 5370.39 -1.59233 -7.56217 0
M  V30 53538 H 5368.73 -1.42522 -6.8023 0
M  V30 53539 H 5371.92 -0.674207 -4.63219 0
M  V30 53540 H 5372.1 -1.18263 -6.37117 0
M  V30 53541 N 5365.5 1.57443 -0.07025 0
M  V30 53542 C 5366.75 1.9453 0.594109 0
M  V30 53543 C 5367.1 0.949957 1.67313 0
M  V30 53544 O 5366.4 -0.0279995 1.9158 0
M  V30 53545 C 5366.59 3.36048 1.21682 0
M  V30 53546 C 5366.42 4.49257 0.199648 0
M  V30 53547 C 5365.19 5.04842 -0.21514 0
M  V30 53548 C 5367.39 5.11215 -0.562492 0
M  V30 53549 N 5365.37 6.01591 -1.22318 0
M  V30 53550 C 5366.74 6.03448 -1.42306 0
M  V30 53551 C 5368.8 4.94041 -0.618728 0
M  V30 53552 C 5367.5 6.80351 -2.33485 0
M  V30 53553 C 5369.53 5.71585 -1.51803 0
M  V30 53554 C 5368.89 6.63466 -2.36627 0
M  V30 53555 H 5364.99 0.758948 0.188473 0
M  V30 53556 H 5367.57 1.94144 -0.147033 0
M  V30 53557 H 5365.74 3.37175 1.92789 0
M  V30 53558 H 5367.47 3.60375 1.84152 0
M  V30 53559 H 5364.23 4.73303 0.167668 0
M  V30 53560 H 5364.65 6.54664 -1.72466 0
M  V30 53561 H 5369.29 4.22794 0.0228749 0
M  V30 53562 H 5367.01 7.50876 -2.98682 0
M  V30 53563 H 5370.6 5.60318 -1.56636 0
M  V30 53564 H 5369.48 7.22421 -3.05085 0
M  V30 53565 N 5366.98 -0.203294 1.56283 0
M  V30 53566 C 5367.89 -1.27259 1.97084 0
M  V30 53567 C 5368.91 -1.50265 0.877288 0
M  V30 53568 O 5370.08 -1.6304 1.18237 0
M  V30 53569 C 5367.15 -2.59863 2.29505 0
M  V30 53570 C 5366.21 -2.45 3.52524 0
M  V30 53571 C 5365.44 -3.7128 3.83389 0
M  V30 53572 O 5365.67 -4.75095 3.1566 0
M  V30 53573 O 5364.6 -3.67299 4.76839 0
M  V30 53574 H 5368.43 -0.956359 2.88249 0
M  V30 53575 H 5366.01 -0.407638 1.43731 0
M  V30 53576 H 5367.89 -3.38143 2.5147 0
M  V30 53577 H 5366.57 -2.9113 1.4151 0
M  V30 53578 H 5365.47 -1.64858 3.35817 0
M  V30 53579 H 5366.81 -2.18667 4.4096 0
M  V30 53580 N 5368.46 -1.50407 -0.470702 0
M  V30 53581 C 5369.69 -1.64933 -1.24422 0
M  V30 53582 C 5370.1 -0.332204 -1.86261 0
M  V30 53583 O 5369.44 0.695859 -1.7001 0
M  V30 53584 C 5369.5 -2.68298 -2.39283 0
M  V30 53585 C 5369.17 -4.11842 -1.98078 0
M  V30 53586 C 5370.16 -4.97698 -1.50309 0
M  V30 53587 C 5367.85 -4.5776 -2.06787 0
M  V30 53588 C 5369.84 -6.2752 -1.11791 0
M  V30 53589 C 5367.53 -5.87588 -1.67881 0
M  V30 53590 C 5368.53 -6.72293 -1.20461 0
M  V30 53591 O 5368.22 -7.99697 -0.820938 0
M  V30 53592 H 5367.95 -0.557431 -0.382422 0
M  V30 53593 H 5370.5 -1.97384 -0.568222 0
M  V30 53594 H 5368.73 -2.3109 -3.10055 0
M  V30 53595 H 5370.42 -2.7204 -3.01246 0
M  V30 53596 H 5371.19 -4.63439 -1.43002 0
M  V30 53597 H 5367.07 -3.91975 -2.42646 0
M  V30 53598 H 5370.61 -6.93588 -0.747073 0
M  V30 53599 H 5366.51 -6.21368 -1.74847 0
M  V30 53600 H 5367.27 -8.12971 -0.949752 0
M  V30 53601 N 5369.94 0.723905 -1.39991 0
M  V30 53602 C 5371.18 1.49619 -1.3926 0
M  V30 53603 C 5371.54 1.91998 0.00853448 0
M  V30 53604 O 5372.74 2.6843 0.140908 0
M  V30 53605 C 5371.01 2.69506 -2.34737 0
M  V30 53606 S 5372.57 3.59018 -2.52292 0
M  V30 53607 H 5369.39 0.511643 -0.493703 0
M  V30 53608 H 5371.99 0.84726 -1.76187 0
M  V30 53609 H 5370.7 2.36529 -3.35383 0
M  V30 53610 H 5370.23 3.39318 -1.99065 0
M  V30 53611 H 5372.24 4.63591 -1.76912 0
M  V30 53612 N 5371.42 1.2535 0.95526 0
M  V30 53613 C 5372.36 1.05468 2.07314 0
M  V30 53614 C 5373.36 -0.0142103 1.69394 0
M  V30 53615 O 5374.56 0.141355 1.79444 0
M  V30 53616 H 5370.94 0.324119 0.678565 0
M  V30 53617 H 5372.91 2.00238 2.2124 0
M  V30 53618 C 5371.66 0.689449 3.40796 0
M  V30 53619 H 5370.98 1.50375 3.70442 0
M  V30 53620 H 5372.42 0.590031 4.19875 0
M  V30 53621 C 5370.88 -0.604439 3.31433 0
M  V30 53622 O 5371.41 -1.64673 3.66396 0
M  V30 53623 N 5369.62 -0.589827 2.84551 0
M  V30 53624 H 5369.16 0.258738 2.56297 0
M  V30 53625 H 5369.12 -1.45571 2.78669 0
M  V30 53626 N 5372.89 -1.15778 1.06926 0
M  V30 53627 C 5373.82 -2.22535 0.707123 0
M  V30 53628 C 5374.8 -1.67372 -0.303412 0
M  V30 53629 O 5375.99 -1.93391 -0.177121 0
M  V30 53630 C 5373.12 -3.47157 0.0995489 0
M  V30 53631 C 5372.07 -4.15253 1.03676 0
M  V30 53632 C 5371.4 -5.33901 0.292162 0
M  V30 53633 C 5372.7 -4.65508 2.36853 0
M  V30 53634 H 5374.39 -2.53083 1.59966 0
M  V30 53635 H 5371.94 -1.21646 0.770594 0
M  V30 53636 H 5373.89 -4.21074 -0.165704 0
M  V30 53637 H 5372.62 -3.15929 -0.828044 0
M  V30 53638 H 5371.28 -3.43272 1.28686 0
M  V30 53639 H 5370.92 -4.98928 -0.638753 0
M  V30 53640 H 5370.62 -5.80403 0.916818 0
M  V30 53641 H 5372.15 -6.1059 0.0346062 0
M  V30 53642 H 5373.56 -5.30974 2.16194 0
M  V30 53643 H 5371.96 -5.22656 2.94874 0
M  V30 53644 H 5373.03 -3.81376 2.99467 0
M  V30 53645 N 5374.37 -0.852746 -1.32537 0
M  V30 53646 C 5375.6 -0.469114 -2.01512 0
M  V30 53647 C 5376.01 0.933643 -1.64099 0
M  V30 53648 O 5375.37 1.60895 -0.861339 0
M  V30 53649 C 5375.42 -0.596353 -3.56547 0
M  V30 53650 O 5375.14 -1.94385 -3.92614 0
M  V30 53651 C 5376.64 -0.21148 -4.42795 0
M  V30 53652 H 5373.86 -0.184612 -0.645104 0
M  V30 53653 H 5376.41 -1.14916 -1.69159 0
M  V30 53654 H 5374.56 0.035935 -3.87383 0
M  V30 53655 H 5374.98 -1.93926 -4.87332 0
M  V30 53656 H 5376.45 -0.351518 -5.5088 0
M  V30 53657 H 5376.93 0.847903 -4.30938 0
M  V30 53658 H 5377.53 -0.818764 -4.17344 0
M  V30 53659 N 5375.85 1.45295 -0.6105 0
M  V30 53660 C 5376.78 2.28742 0.144803 0
M  V30 53661 C 5377.79 1.40116 0.828928 0
M  V30 53662 O 5378.98 1.64464 0.693829 0
M  V30 53663 C 5376.08 3.15939 1.22621 0
M  V30 53664 C 5375.26 4.32859 0.628633 0
M  V30 53665 C 5374.32 5.01243 1.60131 0
M  V30 53666 O 5373.34 5.57942 1.12647 0
M  V30 53667 N 5374.54 5.00795 2.93572 0
M  V30 53668 H 5377.31 2.94205 -0.571249 0
M  V30 53669 H 5374.87 1.55515 -0.450189 0
M  V30 53670 H 5376.86 3.58551 1.87678 0
M  V30 53671 H 5375.43 2.52365 1.84475 0
M  V30 53672 H 5374.65 3.93692 -0.20009 0
M  V30 53673 H 5375.94 5.08368 0.209667 0
M  V30 53674 H 5375.34 4.56026 3.34749 0
M  V30 53675 H 5373.89 5.47262 3.54045 0
M  V30 53676 N 5377.33 0.349828 1.53668 0
M  V30 53677 C 5378.57 -0.245023 2.02926 0
M  V30 53678 C 5378.93 -1.47265 1.23195 0
M  V30 53679 O 5380.13 -2.1421 1.62381 0
M  V30 53680 C 5378.4 -0.545268 3.53216 0
M  V30 53681 S 5379.96 -1.11604 4.2437 0
M  V30 53682 H 5376.78 -0.0725119 0.707293 0
M  V30 53683 H 5379.38 0.489046 1.89284 0
M  V30 53684 H 5378.09 0.35593 4.08854 0
M  V30 53685 H 5377.62 -1.30884 3.70989 0
M  V30 53686 H 5379.63 -2.40136 4.34222 0
M  V30 53687 N 5378.81 -1.57404 0.0785986 0
M  V30 53688 C 5379.74 -2.16134 -0.88365 0
M  V30 53689 C 5380.72 -1.0902 -1.30571 0
M  V30 53690 O 5381.9 -1.37085 -1.37555 0
M  V30 53691 C 5379.03 -2.72844 -2.1488 0
M  V30 53692 C 5377.99 -3.85185 -1.86592 0
M  V30 53693 C 5377.31 -4.28527 -3.19795 0
M  V30 53694 C 5378.61 -5.09122 -1.16583 0
M  V30 53695 H 5380.31 -2.96791 -0.394379 0
M  V30 53696 H 5377.85 -1.42764 -0.188254 0
M  V30 53697 H 5379.8 -3.12577 -2.82619 0
M  V30 53698 H 5378.53 -1.89418 -2.66061 0
M  V30 53699 H 5377.19 -3.45966 -1.21256 0
M  V30 53700 H 5376.84 -3.42013 -3.68831 0
M  V30 53701 H 5376.54 -5.04259 -3.01656 0
M  V30 53702 H 5378.06 -4.70881 -3.8872 0
M  V30 53703 H 5379.47 -5.46129 -1.74403 0
M  V30 53704 H 5377.87 -5.90177 -1.08679 0
M  V30 53705 H 5378.94 -4.8468 -0.145967 0
M  V30 53706 N 5380.28 0.195003 -1.56389 0
M  V30 53707 C 5381.53 0.916737 -1.80897 0
M  V30 53708 C 5381.86 1.82904 -0.652656 0
M  V30 53709 O 5381.14 1.91384 0.346786 0
M  V30 53710 C 5381.42 1.73289 -3.15663 0
M  V30 53711 C 5381.27 0.845294 -4.41786 0
M  V30 53712 C 5382.59 2.70545 -3.47121 0
M  V30 53713 H 5379.71 0.331838 -0.658067 0
M  V30 53714 H 5382.35 0.184107 -1.89106 0
M  V30 53715 H 5380.5 2.35749 -3.08796 0
M  V30 53716 H 5382.18 0.235395 -4.60699 0
M  V30 53717 H 5380.42 0.152019 -4.33534 0
M  V30 53718 H 5381.09 1.45134 -5.32579 0
M  V30 53719 H 5383.57 2.18217 -3.54289 0
M  V30 53720 H 5382.44 3.24733 -4.42538 0
M  V30 53721 H 5382.7 3.49595 -2.70621 0
M  V30 53722 N 5381.76 1.50654 0.462719 0
M  V30 53723 C 5382.99 1.65831 1.23725 0
M  V30 53724 C 5383.41 0.345067 1.8562 0
M  V30 53725 O 5382.76 -0.673875 1.69603 0
M  V30 53726 C 5382.81 2.75558 2.33987 0
M  V30 53727 O 5382.53 4.01792 1.74629 0
M  V30 53728 C 5384.04 3.01782 3.24719 0
M  V30 53729 H 5381.26 0.55719 0.373873 0
M  V30 53730 H 5383.8 1.96927 0.551365 0
M  V30 53731 H 5381.95 2.47132 2.98336 0
M  V30 53732 H 5382.37 4.62538 2.47303 0
M  V30 53733 H 5383.84 3.82202 3.98279 0
M  V30 53734 H 5384.32 2.1318 3.83993 0
M  V30 53735 H 5384.93 3.3177 2.66099 0
M  V30 53736 N 5383.24 -0.716471 1.40373 0
M  V30 53737 C 5384.15 -1.86069 1.42882 0
M  V30 53738 C 5385.17 -1.71003 0.321535 0
M  V30 53739 O 5386.34 -1.93284 0.565977 0
M  V30 53740 C 5383.41 -3.21858 1.28874 0
M  V30 53741 C 5382.47 -3.49184 2.49738 0
M  V30 53742 C 5381.7 -4.78493 2.36389 0
M  V30 53743 O 5381.92 -5.53524 1.37722 0
M  V30 53744 O 5380.86 -5.06136 3.25746 0
M  V30 53745 H 5384.68 -1.86908 2.39373 0
M  V30 53746 H 5382.27 -0.866775 1.21686 0
M  V30 53747 H 5384.15 -4.02968 1.23267 0
M  V30 53748 H 5382.83 -3.21749 0.354896 0
M  V30 53749 H 5381.73 -2.68086 2.60923 0
M  V30 53750 H 5383.07 -3.54089 3.4188 0
M  V30 53751 N 5384.72 -1.25855 -0.948599 0
M  V30 53752 C 5385.94 -1.13819 -1.73378 0
M  V30 53753 C 5386.37 0.30355 -1.85635 0
M  V30 53754 O 5385.73 1.21992 -1.34118 0
M  V30 53755 C 5385.77 -1.80399 -3.12232 0
M  V30 53756 O 5384.88 -1.08773 -3.97797 0
M  V30 53757 H 5384.22 -0.397025 -0.532229 0
M  V30 53758 H 5386.75 -1.66534 -1.1886 0
M  V30 53759 H 5386.76 -1.86926 -3.62661 0
M  V30 53760 H 5385.43 -2.85288 -3.02627 0
M  V30 53761 H 5384.01 -1.10169 -3.56254 0
M  V30 53762 N 5386.2 1.1521 -1.07538 0
M  V30 53763 C 5387.42 1.9046 -0.82095 0
M  V30 53764 C 5387.85 1.7758 0.620243 0
M  V30 53765 O 5387.2 1.10981 1.43363 0
M  V30 53766 C 5387.25 3.38741 -1.23639 0
M  V30 53767 O 5386.36 4.10619 -0.38286 0
M  V30 53768 H 5385.7 0.59291 -0.298922 0
M  V30 53769 H 5388.23 1.45888 -1.4345 0
M  V30 53770 H 5388.24 3.89539 -1.2134 0
M  V30 53771 H 5386.91 3.47435 -2.28608 0
M  V30 53772 H 5385.49 3.69945 -0.468504 0
M  V30 53773 N 5387.67 0.859763 1.32083 0
M  V30 53774 C 5388.92 0.46634 1.97365 0
M  V30 53775 C 5389.25 -0.976669 1.67854 0
M  V30 53776 O 5388.53 -1.68614 0.969508 0
M  V30 53777 C 5388.81 0.711975 3.52991 0
M  V30 53778 C 5388.66 2.20377 3.92115 0
M  V30 53779 C 5389.98 0.171715 4.39765 0
M  V30 53780 H 5387.1 0.170908 0.71691 0
M  V30 53781 H 5389.74 1.07913 1.5638 0
M  V30 53782 H 5387.89 0.190394 3.88033 0
M  V30 53783 H 5389.57 2.79182 3.67226 0
M  V30 53784 H 5387.81 2.68031 3.41089 0
M  V30 53785 H 5388.48 2.32632 5.00586 0
M  V30 53786 H 5390.96 0.617809 4.11488 0
M  V30 53787 H 5389.83 0.373113 5.4763 0
M  V30 53788 H 5390.09 -0.925807 4.32298 0
M  V30 53789 N 5389.15 -1.44969 0.618196 0
M  V30 53790 C 5390.08 -2.33358 -0.0815134 0
M  V30 53791 C 5391.06 -1.47454 -0.848021 0
M  V30 53792 O 5392.25 -1.76203 -0.81647 0
M  V30 53793 C 5389.38 -3.30328 -1.07241 0
M  V30 53794 C 5388.33 -4.2595 -0.418413 0
M  V30 53795 C 5387.66 -5.1269 -1.51831 0
M  V30 53796 C 5388.96 -5.18022 0.667153 0
M  V30 53797 H 5390.65 -2.92113 0.656545 0
M  V30 53798 H 5388.2 -1.40463 0.317178 0
M  V30 53799 H 5390.15 -3.91039 -1.57056 0
M  V30 53800 H 5388.88 -2.69754 -1.8412 0
M  V30 53801 H 5387.53 -3.66553 0.0589596 0
M  V30 53802 H 5387.18 -4.48478 -2.27764 0
M  V30 53803 H 5386.88 -5.77474 -1.08616 0
M  V30 53804 H 5388.41 -5.76271 -2.01851 0
M  V30 53805 H 5389.82 -5.72743 0.252649 0
M  V30 53806 H 5388.22 -5.91339 1.02167 0
M  V30 53807 H 5389.29 -4.59812 1.53952 0
M  V30 53808 N 5390.63 -0.357973 -1.53481 0
M  V30 53809 C 5391.59 0.479718 -2.24124 0
M  V30 53810 C 5392.59 1.01592 -1.24642 0
M  V30 53811 O 5393.78 0.902876 -1.48976 0
M  V30 53812 C 5390.92 1.66973 -2.97209 0
M  V30 53813 H 5392.11 -0.138324 -2.99581 0
M  V30 53814 H 5389.66 -0.109539 -1.55916 0
M  V30 53815 H 5390.4 2.32607 -2.25975 0
M  V30 53816 H 5390.18 1.29229 -3.70192 0
M  V30 53817 H 5391.67 2.26355 -3.50932 0
M  V30 53818 N 5392.11 1.5736 -0.086945 0
M  V30 53819 C 5393.34 1.9839 0.58728 0
M  V30 53820 C 5393.75 0.965814 1.62227 0
M  V30 53821 O 5393.11 -0.0456339 1.82443 0
M  V30 53822 C 5393.16 3.39483 1.2423 0
M  V30 53823 O 5392.88 4.37393 0.248724 0
M  V30 53824 C 5394.38 3.95472 2.00292 0
M  V30 53825 H 5391.6 0.652116 0.158067 0
M  V30 53826 H 5394.15 2.03843 -0.163825 0
M  V30 53827 H 5392.3 3.3507 1.94439 0
M  V30 53828 H 5392.71 5.19528 0.720496 0
M  V30 53829 H 5394.19 4.96372 2.41494 0
M  V30 53830 H 5394.67 3.32842 2.86553 0
M  V30 53831 H 5395.27 4.03333 1.34917 0
M  V30 53832 N 5393.59 -0.186707 1.5649 0
M  V30 53833 C 5394.52 -1.23388 1.98236 0
M  V30 53834 C 5395.5 -1.47017 0.855577 0
M  V30 53835 O 5396.68 -1.58612 1.12053 0
M  V30 53836 C 5393.81 -2.57626 2.32907 0
M  V30 53837 C 5392.77 -2.48595 3.48403 0
M  V30 53838 C 5392.09 -3.87183 3.68773 0
M  V30 53839 C 5393.39 -2.00381 4.82332 0
M  V30 53840 H 5395.09 -0.886925 2.85962 0
M  V30 53841 H 5392.63 -0.425202 1.37579 0
M  V30 53842 H 5394.59 -3.31073 2.60708 0
M  V30 53843 H 5393.31 -2.94079 1.42074 0
M  V30 53844 H 5391.97 -1.77604 3.20706 0
M  V30 53845 H 5391.62 -4.21003 2.75256 0
M  V30 53846 H 5391.32 -3.82013 4.46475 0
M  V30 53847 H 5392.84 -4.62239 3.98958 0
M  V30 53848 H 5394.25 -2.63592 5.09109 0
M  V30 53849 H 5392.65 -2.06194 5.63564 0
M  V30 53850 H 5393.72 -0.957395 4.75355 0
M  V30 53851 N 5395.07 -1.50897 -0.454723 0
M  V30 53852 C 5396.29 -1.66484 -1.22844 0
M  V30 53853 C 5396.71 -0.354906 -1.85434 0
M  V30 53854 O 5396.07 0.664871 -1.69958 0
M  V30 53855 C 5396.12 -2.76795 -2.32523 0
M  V30 53856 O 5395.84 -4.02712 -1.72495 0
M  V30 53857 C 5397.34 -3.03499 -3.23114 0
M  V30 53858 H 5394.56 -0.559165 -0.370912 0
M  V30 53859 H 5397.1 -1.97217 -0.540914 0
M  V30 53860 H 5395.26 -2.48711 -2.97021 0
M  V30 53861 H 5395.67 -4.63843 -2.44847 0
M  V30 53862 H 5397.15 -3.84308 -3.96246 0
M  V30 53863 H 5397.62 -2.15214 -3.82857 0
M  V30 53864 H 5398.23 -3.33177 -2.64336 0
M  V30 53865 N 5396.54 0.709016 -1.40751 0
M  V30 53866 C 5397.79 1.47114 -1.3959 0
M  V30 53867 C 5398.12 1.942 -0.000313594 0
M  V30 53868 O 5397.4 1.68613 0.969533 0
M  V30 53869 C 5397.68 2.69257 -2.39108 0
M  V30 53870 C 5397.53 2.28023 -3.87718 0
M  V30 53871 C 5398.85 3.7143 -2.36068 0
M  V30 53872 H 5395.97 0.533614 -0.508355 0
M  V30 53873 H 5398.61 0.808657 -1.71932 0
M  V30 53874 H 5396.76 3.25781 -2.11658 0
M  V30 53875 H 5398.44 1.76931 -4.2602 0
M  V30 53876 H 5396.68 1.59952 -4.03234 0
M  V30 53877 H 5397.35 3.15605 -4.52877 0
M  V30 53878 H 5399.83 3.2455 -2.60397 0
M  V30 53879 H 5398.7 4.54521 -3.07737 0
M  V30 53880 H 5398.96 4.20188 -1.37458 0
M  V30 53881 N 5398.02 1.26356 0.941911 0
M  V30 53882 C 5399.27 1.12023 1.69052 0
M  V30 53883 C 5399.6 -0.335789 1.91275 0
M  V30 53884 O 5398.88 -1.24672 1.49289 0
M  V30 53885 C 5399.16 1.889 3.06576 0
M  V30 53886 C 5399.01 3.42404 2.91684 0
M  V30 53887 C 5400.33 1.68223 4.0668 0
M  V30 53888 H 5397.45 0.408333 0.613542 0
M  V30 53889 H 5400.09 1.55343 1.09401 0
M  V30 53890 H 5398.24 1.52082 3.57496 0
M  V30 53891 H 5399.91 3.88971 2.47991 0
M  V30 53892 H 5398.16 3.69467 2.27325 0
M  V30 53893 H 5398.83 3.91422 3.89221 0
M  V30 53894 H 5401.3 2.00298 3.64719 0
M  V30 53895 H 5400.18 2.2443 5.00922 0
M  V30 53896 H 5400.44 0.626628 4.37637 0
M  V30 53897 N 5399.5 -1.14638 1.08148 0
M  V30 53898 C 5400.91 -1.67187 0.830982 0
M  V30 53899 C 5401.26 -1.85375 -0.642684 0
M  V30 53900 O 5400.39 -1.56298 -1.49666 0
M  V30 53901 C 5400.98 -3.03692 1.50189 0
M  V30 53902 C 5399.54 -3.53285 1.2987 0
M  V30 53903 C 5398.69 -2.28823 1.56638 0
M  V30 53904 H 5401.64 -0.987397 1.24242 0
M  V30 53905 H 5401.66 -3.69019 0.927629 0
M  V30 53906 H 5401.17 -2.90422 2.57442 0
M  V30 53907 H 5399.27 -3.71782 0.246757 0
M  V30 53908 H 5399.39 -4.34224 2.02451 0
M  V30 53909 H 5397.75 -2.34765 0.987798 0
M  V30 53910 H 5398.53 -2.18132 2.65091 0
M  V30 53911 N 5400.98 -0.866756 -1.31625 0
M  V30 53912 C 5402.25 -0.396895 -1.91531 0
M  V30 53913 C 5402.63 1.12074 -1.78893 0
M  V30 53914 O 5401.98 1.94787 -1.19459 0
M  V30 53915 C 5402.19 -0.874697 -3.37861 0
M  V30 53916 C 5403.54 -0.898946 -4.14975 0
M  V30 53917 O 5404.56 -0.820136 -3.4663 0
M  V30 53918 O 5403.42 -1.01241 -5.3704 0
M  V30 53919 H 5400.52 -0.118129 -0.81852 0
M  V30 53920 H 5403.06 -0.954456 -1.40315 0
M  V30 53921 H 5401.84 -1.91819 -3.41059 0
M  V30 53922 H 5401.46 -0.295266 -3.96502 0
M  V30 53923 N 5402.46 1.44639 -0.625876 0
M  V30 53924 C 5403.87 1.85501 -0.21124 0
M  V30 53925 C 5404.22 1.52361 1.23615 0
M  V30 53926 O 5403.34 0.959119 1.93984 0
M  V30 53927 C 5403.94 3.367 -0.376599 0
M  V30 53928 C 5402.5 3.76396 -0.0165118 0
M  V30 53929 C 5401.64 2.68515 -0.692462 0
M  V30 53930 H 5404.59 1.3518 -0.83138 0
M  V30 53931 H 5404.62 3.78537 0.385973 0
M  V30 53932 H 5404.13 3.6079 -1.43012 0
M  V30 53933 H 5402.23 3.57923 1.03548 0
M  V30 53934 H 5402.34 4.7723 -0.42291 0
M  V30 53935 H 5400.71 2.54377 -0.128281 0
M  V30 53936 H 5401.49 2.95437 -1.74847 0
M  V30 53937 N 5403.93 0.366107 1.53289 0
M  V30 53938 C 5405.16 -0.226767 2.06157 0
M  V30 53939 C 5405.58 -1.41633 1.23781 0
M  V30 53940 O 5404.94 -1.79469 0.257011 0
M  V30 53941 C 5404.99 -0.597831 3.5561 0
M  V30 53942 O 5404.09 -1.69499 3.75957 0
M  V30 53943 H 5403.43 -0.0328923 0.663185 0
M  V30 53944 H 5405.96 0.526863 1.977 0
M  V30 53945 H 5405.97 -0.868691 3.98645 0
M  V30 53946 H 5404.65 0.271984 4.1501 0
M  V30 53947 H 5403.23 -1.41964 3.4482 0
M  V30 53948 N 5405.41 -1.57312 0.095289 0
M  V30 53949 C 5406.64 -1.98699 -0.57675 0
M  V30 53950 C 5407.05 -0.974404 -1.61712 0
M  V30 53951 O 5406.41 0.0359579 -1.82465 0
M  V30 53952 C 5406.46 -3.40138 -1.22428 0
M  V30 53953 O 5406.18 -4.37519 -0.225524 0
M  V30 53954 C 5407.68 -3.96529 -1.98191 0
M  V30 53955 H 5404.9 -0.652946 -0.154606 0
M  V30 53956 H 5407.45 -2.03753 0.174633 0
M  V30 53957 H 5405.6 -3.36097 -1.9266 0
M  V30 53958 H 5406.02 -5.19903 -0.692934 0
M  V30 53959 H 5407.49 -4.97645 -2.38858 0
M  V30 53960 H 5407.97 -3.34357 -2.84784 0
M  V30 53961 H 5408.57 -4.04043 -1.32776 0
M  V30 53962 N 5406.89 0.178405 -1.56587 0
M  V30 53963 C 5407.8 1.24108 -1.99084 0
M  V30 53964 C 5408.82 1.48851 -0.901083 0
M  V30 53965 O 5409.99 1.61138 -1.20816 0
M  V30 53966 C 5407.06 2.56178 -2.3361 0
M  V30 53967 C 5406.12 2.39361 -3.56378 0
M  V30 53968 C 5405.35 3.65133 -3.89247 0
M  V30 53969 O 5405.57 4.70013 -3.23178 0
M  V30 53970 O 5404.51 3.59666 -4.82622 0
M  V30 53971 H 5408.33 0.91038 -2.89734 0
M  V30 53972 H 5405.92 0.38472 -1.44362 0
M  V30 53973 H 5407.8 3.341 -2.56817 0
M  V30 53974 H 5406.48 2.88842 -1.46124 0
M  V30 53975 H 5405.38 1.59494 -3.38397 0
M  V30 53976 H 5406.72 2.11624 -4.44383 0
M  V30 53977 N 5408.37 1.51136 0.446714 0
M  V30 53978 C 5409.33 1.71193 1.524 0
M  V30 53979 C 5410.33 0.58209 1.49894 0
M  V30 53980 O 5411.52 0.849505 1.52082 0
M  V30 53981 C 5408.65 1.75973 2.9197 0
M  V30 53982 H 5409.85 2.67329 1.35924 0
M  V30 53983 H 5407.4 1.40985 0.674763 0
M  V30 53984 H 5408.13 0.816175 3.13862 0
M  V30 53985 H 5407.92 2.58075 2.95194 0
M  V30 53986 H 5409.41 1.9336 3.70137 0
M  V30 53987 N 5409.85 -0.701542 1.41125 0
M  V30 53988 C 5411.07 -1.49548 1.43702 0
M  V30 53989 C 5411.5 -1.88053 0.0422526 0
M  V30 53990 O 5410.85 -1.54227 -0.95309 0
M  V30 53991 C 5410.9 -2.73826 2.34631 0
M  V30 53992 O 5410.01 -3.71081 1.79924 0
M  V30 53993 H 5409.35 -0.450335 0.487949 0
M  V30 53994 H 5411.88 -0.862821 1.85517 0
M  V30 53995 H 5411.89 -3.22201 2.50301 0
M  V30 53996 H 5410.56 -2.45137 3.35977 0
M  V30 53997 H 5409.14 -3.29988 1.73672 0
M  V30 53998 N 5411.32 -1.26854 -0.935197 0
M  V30 53999 C 5412.55 -1.15651 -1.72161 0
M  V30 54000 C 5412.97 0.283843 -1.85946 0
M  V30 54001 O 5412.33 1.20562 -1.35404 0
M  V30 54002 C 5412.38 -1.837 -3.10301 0
M  V30 54003 O 5411.48 -1.12986 -3.96621 0
M  V30 54004 H 5410.83 -0.402647 -0.527988 0
M  V30 54005 H 5413.36 -1.67785 -1.17087 0
M  V30 54006 H 5413.37 -1.90762 -3.60658 0
M  V30 54007 H 5412.04 -2.88482 -2.99584 0
M  V30 54008 H 5410.62 -1.13941 -3.55066 0
M  V30 54009 N 5412.8 1.14063 -1.08754 0
M  V30 54010 C 5413.71 2.22869 -0.732576 0
M  V30 54011 C 5414.73 1.72009 0.26247 0
M  V30 54012 O 5415.9 2.01123 0.105531 0
M  V30 54013 C 5412.97 3.46371 -0.151035 0
M  V30 54014 C 5412.03 4.12154 -1.20115 0
M  V30 54015 C 5411.26 5.29761 -0.647261 0
M  V30 54016 O 5411.49 5.67913 0.532108 0
M  V30 54017 O 5410.42 5.85416 -1.39901 0
M  V30 54018 H 5414.25 2.55591 -1.64034 0
M  V30 54019 H 5411.83 1.22062 -0.86146 0
M  V30 54020 H 5413.71 4.21056 0.170294 0
M  V30 54021 H 5412.39 3.15365 0.729837 0
M  V30 54022 H 5411.3 3.39327 -1.57506 0
M  V30 54023 H 5412.63 4.47274 -2.05442 0
M  V30 54024 N 5414.28 0.873724 1.31163 0
M  V30 54025 C 5415.19 0.335807 2.32184 0
M  V30 54026 C 5416.21 -0.556201 1.64871 0
M  V30 54027 O 5417.38 -0.452018 1.96262 0
M  V30 54028 C 5414.45 -0.450701 3.43758 0
M  V30 54029 C 5413.51 0.469715 4.26723 0
M  V30 54030 C 5412.74 -0.279351 5.32968 0
M  V30 54031 O 5412.96 -1.50695 5.50134 0
M  V30 54032 O 5411.9 0.364731 6.00794 0
M  V30 54033 H 5415.72 1.17324 2.80123 0
M  V30 54034 H 5413.31 0.63721 1.3513 0
M  V30 54035 H 5415.19 -0.896437 4.11755 0
M  V30 54036 H 5413.87 -1.26462 2.97975 0
M  V30 54037 H 5412.77 0.964029 3.61465 0
M  V30 54038 H 5414.11 1.24933 4.7608 0
M  V30 54039 N 5415.76 -1.44305 0.633538 0
M  V30 54040 C 5416.72 -2.29121 -0.0602954 0
M  V30 54041 C 5417.72 -1.41168 -0.769942 0
M  V30 54042 O 5418.91 -1.63014 -0.614167 0
M  V30 54043 C 5416.04 -3.22802 -1.09598 0
M  V30 54044 H 5417.24 -2.91955 0.685719 0
M  V30 54045 H 5414.79 -1.51258 0.393791 0
M  V30 54046 H 5415.52 -2.64822 -1.8719 0
M  V30 54047 H 5415.31 -3.8762 -0.591025 0
M  V30 54048 H 5416.8 -3.8651 -1.58114 0
M  V30 54049 N 5417.24 -0.374231 -1.53092 0
M  V30 54050 C 5418.65 0.103106 -1.86415 0
M  V30 54051 C 5419 1.47434 -1.29451 0
M  V30 54052 O 5418.12 2.0733 -0.619926 0
M  V30 54053 C 5418.72 0.193869 -3.38245 0
M  V30 54054 C 5417.28 0.615474 -3.71334 0
M  V30 54055 C 5416.42 -0.231957 -2.76328 0
M  V30 54056 H 5419.38 -0.592696 -1.47217 0
M  V30 54057 H 5419.4 1.01584 -3.66689 0
M  V30 54058 H 5418.91 -0.804274 -3.79675 0
M  V30 54059 H 5417.01 1.62153 -3.35465 0
M  V30 54060 H 5417.12 0.384082 -4.77558 0
M  V30 54061 H 5415.49 0.30049 -2.52921 0
M  V30 54062 H 5416.27 -1.2278 -3.20593 0
M  V30 54063 N 5418.71 1.57259 -0.10363 0
M  V30 54064 C 5419.94 1.99002 0.566205 0
M  V30 54065 C 5420.36 0.982966 1.61193 0
M  V30 54066 O 5419.71 -0.0262809 1.82481 0
M  V30 54067 C 5419.77 3.40782 1.20623 0
M  V30 54068 O 5419.49 4.37633 0.202318 0
M  V30 54069 C 5420.99 3.97574 1.96086 0
M  V30 54070 H 5418.21 0.653756 0.151141 0
M  V30 54071 H 5420.75 2.03658 -0.185436 0
M  V30 54072 H 5418.91 3.37114 1.90875 0
M  V30 54073 H 5419.32 5.20263 0.665352 0
M  V30 54074 H 5420.79 4.98905 2.36215 0
M  V30 54075 H 5421.27 3.35863 2.83007 0
M  V30 54076 H 5421.88 4.04741 1.30631 0
M  V30 54077 N 5420.19 -0.170098 1.56679 0
M  V30 54078 C 5421.1 -1.2305 1.99739 0
M  V30 54079 C 5422.12 -1.48371 0.908964 0
M  V30 54080 O 5423.29 -1.60495 1.21669 0
M  V30 54081 C 5420.36 -2.54936 2.34965 0
M  V30 54082 C 5419.42 -2.37467 3.57642 0
M  V30 54083 C 5418.65 -3.63064 3.91178 0
M  V30 54084 O 5418.88 -4.68292 3.25667 0
M  V30 54085 O 5417.81 -3.57102 4.84522 0
M  V30 54086 H 5421.64 -0.895002 2.90213 0
M  V30 54087 H 5419.22 -0.377058 1.44564 0
M  V30 54088 H 5421.1 -3.32733 2.58586 0
M  V30 54089 H 5419.78 -2.88063 1.47653 0
M  V30 54090 H 5418.69 -1.57697 3.39238 0
M  V30 54091 H 5420.02 -2.09265 4.45499 0
M  V30 54092 N 5421.67 -1.51371 -0.438693 0
M  V30 54093 C 5422.6 -1.68779 -1.55068 0
M  V30 54094 C 5423.62 -0.568489 -1.52552 0
M  V30 54095 O 5424.8 -0.842762 -1.57352 0
M  V30 54096 C 5421.9 -1.68602 -2.93984 0
M  V30 54097 C 5421.08 -2.97095 -3.21019 0
M  V30 54098 C 5420.14 -2.89123 -4.39652 0
M  V30 54099 O 5419.16 -3.63068 -4.38372 0
M  V30 54100 N 5420.36 -2.04882 -5.43142 0
M  V30 54101 H 5423.13 -2.64705 -1.4054 0
M  V30 54102 H 5420.69 -1.4924 -0.627611 0
M  V30 54103 H 5422.68 -1.60839 -3.71366 0
M  V30 54104 H 5421.25 -0.802763 -3.02117 0
M  V30 54105 H 5420.47 -3.18737 -2.31949 0
M  V30 54106 H 5421.76 -3.82155 -3.3591 0
M  V30 54107 H 5421.16 -1.44179 -5.47018 0
M  V30 54108 H 5419.72 -2.02999 -6.19383 0
M  V30 54109 N 5423.15 0.694048 -1.41495 0
M  V30 54110 C 5424.37 1.48784 -1.44493 0
M  V30 54111 C 5424.8 1.88027 -0.0522249 0
M  V30 54112 O 5424.16 1.5473 0.944898 0
M  V30 54113 C 5424.2 2.72578 -2.3608 0
M  V30 54114 O 5423.31 3.70122 -1.81889 0
M  V30 54115 H 5422.65 0.447741 -0.49033 0
M  V30 54116 H 5425.18 0.85297 -1.85972 0
M  V30 54117 H 5425.19 3.20869 -2.52007 0
M  V30 54118 H 5423.86 2.43352 -3.37273 0
M  V30 54119 H 5422.44 3.29063 -1.7542 0
M  V30 54120 N 5424.63 1.27348 0.928456 0
M  V30 54121 C 5426.04 1.12367 1.49099 0
M  V30 54122 C 5426.39 -0.291598 1.94021 0
M  V30 54123 O 5425.51 -1.18443 1.81108 0
M  V30 54124 C 5426.11 2.03368 2.70974 0
M  V30 54125 C 5424.67 1.92495 3.23454 0
M  V30 54126 C 5423.82 1.95968 1.96193 0
M  V30 54127 H 5426.77 1.40252 0.74264 0
M  V30 54128 H 5426.79 1.58904 3.45731 0
M  V30 54129 H 5426.3 3.06365 2.38249 0
M  V30 54130 H 5424.4 0.924803 3.60941 0
M  V30 54131 H 5424.51 2.78695 3.897 0
M  V30 54132 H 5422.88 1.40183 2.12652 0
M  V30 54133 H 5423.66 3.00618 1.65782 0
M  V30 54134 N 5426.11 -1.13484 1.09357 0
M  V30 54135 C 5427.35 -1.8438 0.827553 0
M  V30 54136 C 5427.67 -1.83894 -0.648681 0
M  V30 54137 O 5426.94 -1.2942 -1.47062 0
M  V30 54138 H 5425.52 -0.682721 0.303151 0
M  V30 54139 H 5428.19 -1.37473 1.38157 0
M  V30 54140 H 5427.28 -2.88915 1.18045 0
M  V30 54141 N 5427.58 -0.880667 -1.30698 0
M  V30 54142 C 5428.83 -0.49768 -1.96599 0
M  V30 54143 C 5429.16 0.949841 -1.69386 0
M  V30 54144 O 5428.44 1.67051 -0.996211 0
M  V30 54145 C 5428.72 -0.768042 -3.51814 0
M  V30 54146 C 5428.57 -2.26588 -3.88559 0
M  V30 54147 C 5429.89 -0.241656 -4.39436 0
M  V30 54148 H 5427.01 -0.182292 -0.7141 0
M  V30 54149 H 5429.65 -1.10387 -1.54644 0
M  V30 54150 H 5427.8 -0.252103 -3.87681 0
M  V30 54151 H 5429.48 -2.84989 -3.62738 0
M  V30 54152 H 5427.72 -2.73423 -3.36782 0
M  V30 54153 H 5428.39 -2.40567 -4.96822 0
M  V30 54154 H 5430.87 -0.683195 -4.10453 0
M  V30 54155 H 5429.74 -0.460189 -5.46968 0
M  V30 54156 H 5430 0.856915 -4.33716 0
M  V30 54157 N 5429.06 1.43967 -0.641182 0
M  V30 54158 C 5429.99 2.28998 0.096251 0
M  V30 54159 C 5431.01 1.41843 0.799021 0
M  V30 54160 O 5432.2 1.65898 0.658787 0
M  V30 54161 C 5429.3 3.18469 1.15892 0
M  V30 54162 C 5428.47 4.34095 0.536675 0
M  V30 54163 C 5427.53 5.04527 1.49463 0
M  V30 54164 O 5426.55 5.60206 1.00787 0
M  V30 54165 N 5427.76 5.06909 2.82884 0
M  V30 54166 H 5430.52 2.92928 -0.633525 0
M  V30 54167 H 5428.08 1.54525 -0.483075 0
M  V30 54168 H 5430.07 3.62451 1.80031 0
M  V30 54169 H 5428.64 2.56221 1.7908 0
M  V30 54170 H 5427.86 3.93179 -0.283553 0
M  V30 54171 H 5429.15 5.08698 0.101787 0
M  V30 54172 H 5428.55 4.63024 3.25001 0
M  V30 54173 H 5427.11 5.54649 3.42357 0
M  V30 54174 N 5430.54 0.382345 1.52892 0
M  V30 54175 C 5431.82 -0.259285 1.93874 0
M  V30 54176 C 5432.2 -1.64959 1.31726 0
M  V30 54177 O 5431.54 -2.23344 0.482689 0
M  V30 54178 C 5431.75 -0.292643 3.47771 0
M  V30 54179 C 5433.1 -0.524947 4.21342 0
M  V30 54180 O 5434.13 -0.373147 3.5424 0
M  V30 54181 O 5432.99 -0.821814 5.40286 0
M  V30 54182 H 5430.08 -0.159393 0.811494 0
M  V30 54183 H 5432.63 0.436347 1.63994 0
M  V30 54184 H 5431.4 0.681476 3.8532 0
M  V30 54185 H 5431.02 -1.03348 3.83933 0
M  V30 54186 N 5432.02 -1.57202 0.111969 0
M  V30 54187 C 5433.26 -1.96836 -0.550898 0
M  V30 54188 C 5433.62 -0.99356 -1.64294 0
M  V30 54189 O 5434.82 -1.27902 -2.3642 0
M  V30 54190 C 5433.09 -3.40809 -1.0763 0
M  V30 54191 S 5434.65 -4.02451 -1.74867 0
M  V30 54192 H 5431.47 -0.688028 -0.179274 0
M  V30 54193 H 5434.07 -1.94521 0.19538 0
M  V30 54194 H 5432.78 -4.09509 -0.270233 0
M  V30 54195 H 5432.31 -3.46758 -1.85801 0
M  V30 54196 H 5434.32 -3.92634 -3.03402 0
M  V30 54197 N 5433.5 0.161787 -1.56767 0
M  V30 54198 C 5434.73 0.890888 -1.86405 0
M  V30 54199 C 5435.13 1.75916 -0.696435 0
M  V30 54200 O 5434.48 1.80462 0.3434 0
M  V30 54201 C 5434.54 1.81068 -3.10571 0
M  V30 54202 C 5434.2 1.12106 -4.43036 0
M  V30 54203 C 5435.2 0.48197 -5.17661 0
M  V30 54204 C 5432.88 1.11497 -4.89769 0
M  V30 54205 C 5434.88 -0.153996 -6.37214 0
M  V30 54206 C 5432.57 0.475186 -6.0925 0
M  V30 54207 C 5433.56 -0.158184 -6.82817 0
M  V30 54208 O 5433.25 -0.78786 -8.0003 0
M  V30 54209 H 5432.98 0.263768 -0.622416 0
M  V30 54210 H 5435.54 0.163812 -2.04746 0
M  V30 54211 H 5433.77 2.57832 -2.88201 0
M  V30 54212 H 5435.46 2.41044 -3.26577 0
M  V30 54213 H 5436.22 0.478583 -4.82633 0
M  V30 54214 H 5432.1 1.59737 -4.32441 0
M  V30 54215 H 5435.65 -0.648961 -6.94575 0
M  V30 54216 H 5431.54 0.476189 -6.43741 0
M  V30 54217 H 5432.31 -0.688055 -8.15603 0
M  V30 54218 N 5434.97 1.51602 0.430659 0
M  V30 54219 C 5435.92 1.69781 1.52179 0
M  V30 54220 C 5436.91 0.551745 1.51144 0
M  V30 54221 O 5438.1 0.807938 1.57484 0
M  V30 54222 C 5435.23 1.83232 2.90312 0
M  V30 54223 C 5434.31 3.03644 2.96077 0
M  V30 54224 N 5434.71 4.2671 2.71574 0
M  V30 54225 C 5433 3.03035 3.27239 0
M  V30 54226 C 5433.7 5.08021 2.83354 0
M  V30 54227 N 5432.68 4.42809 3.15311 0
M  V30 54228 H 5436.48 2.62591 1.31997 0
M  V30 54229 H 5434 1.4934 0.638067 0
M  V30 54230 H 5435.99 1.94368 3.68818 0
M  V30 54231 H 5434.65 0.91608 3.11509 0
M  V30 54232 H 5435.66 4.55543 2.46375 0
M  V30 54233 H 5432.34 2.21068 3.54169 0
M  V30 54234 H 5433.73 6.16004 2.68307 0
M  V30 54235 N 5436.45 -0.686534 1.41861 0
M  V30 54236 C 5437.7 -1.44374 1.41423 0
M  V30 54237 C 5438.02 -1.94981 0.0274381 0
M  V30 54238 O 5437.29 -1.72299 -0.932188 0
M  V30 54239 H 5435.87 -0.535722 0.520587 0
M  V30 54240 H 5438.53 -0.811994 1.7718 0
M  V30 54241 H 5437.63 -2.3025 2.10692 0
M  V30 54242 N 5437.93 -1.27838 -0.92169 0
M  V30 54243 C 5439.21 -1.05244 -1.64873 0
M  V30 54244 C 5439.59 0.410848 -2.07063 0
M  V30 54245 O 5438.93 1.39532 -1.80951 0
M  V30 54246 C 5439.14 -2.01965 -2.84625 0
M  V30 54247 C 5440.49 -2.3167 -3.55829 0
M  V30 54248 O 5441.52 -1.99986 -2.94761 0
M  V30 54249 O 5440.38 -2.85708 -4.65868 0
M  V30 54250 H 5437.47 -0.401648 -0.722916 0
M  V30 54251 H 5440.02 -1.39126 -0.971695 0
M  V30 54252 H 5438.79 -3.00622 -2.50483 0
M  V30 54253 H 5438.41 -1.6868 -3.60046 0
M  V30 54254 N 5439.41 1.12903 -1.09958 0
M  V30 54255 C 5440.66 1.83939 -0.837319 0
M  V30 54256 C 5440.98 1.84236 0.638919 0
M  V30 54257 O 5440.25 1.30198 1.46373 0
M  V30 54258 H 5438.83 0.681104 -0.306767 0
M  V30 54259 H 5441.49 1.36738 -1.38884 0
M  V30 54260 H 5440.59 2.88285 -1.19575 0
M  V30 54261 N 5440.89 0.887586 1.30229 0
M  V30 54262 C 5441.82 0.313568 2.27045 0
M  V30 54263 C 5442.83 -0.533329 1.53816 0
M  V30 54264 O 5444.02 -0.352455 1.74986 0
M  V30 54265 C 5441.12 -0.572556 3.34028 0
M  V30 54266 C 5440.29 0.245865 4.36708 0
M  V30 54267 C 5439.35 -0.571166 5.23091 0
M  V30 54268 O 5438.38 0.00705958 5.692 0
M  V30 54269 N 5439.58 -1.87975 5.49223 0
M  V30 54270 H 5442.35 1.14563 2.76939 0
M  V30 54271 H 5439.91 0.750836 1.43437 0
M  V30 54272 H 5441.9 -1.12525 3.88742 0
M  V30 54273 H 5440.47 -1.3053 2.84044 0
M  V30 54274 H 5439.69 0.980003 3.81824 0
M  V30 54275 H 5440.98 0.806795 5.02363 0
M  V30 54276 H 5440.37 -2.37242 5.13549 0
M  V30 54277 H 5438.93 -2.37984 6.068 0
M  V30 54278 N 5442.36 -1.43625 0.648807 0
M  V30 54279 C 5443.59 -2.06732 0.166356 0
M  V30 54280 C 5444.01 -1.48285 -1.15729 0
M  V30 54281 O 5443.37 -0.591078 -1.71394 0
M  V30 54282 C 5443.42 -3.60502 0.0839999 0
M  V30 54283 O 5442.52 -4.01189 -0.955043 0
M  V30 54284 H 5441.87 -0.657476 0.0928516 0
M  V30 54285 H 5444.4 -1.84205 0.890486 0
M  V30 54286 H 5444.41 -4.07876 -0.10078 0
M  V30 54287 H 5443.08 -4.0242 1.05028 0
M  V30 54288 H 5441.66 -3.65415 -0.743408 0
M  V30 54289 N 5443.84 -0.390448 -1.52687 0
M  V30 54290 C 5445.07 0.191135 -2.05714 0
M  V30 54291 C 5445.48 1.40968 -1.26193 0
M  V30 54292 O 5444.82 1.81201 -0.302002 0
M  V30 54293 C 5444.89 0.624669 -3.54031 0
M  V30 54294 C 5444.55 -0.480573 -4.54466 0
M  V30 54295 C 5445.55 -1.33833 -5.02379 0
M  V30 54296 C 5443.23 -0.647929 -4.98104 0
M  V30 54297 C 5445.23 -2.34857 -5.92555 0
M  V30 54298 C 5442.91 -1.6615 -5.88079 0
M  V30 54299 C 5443.91 -2.51024 -6.35198 0
M  V30 54300 O 5443.6 -3.50648 -7.23396 0
M  V30 54301 H 5443.33 0.0321972 -0.675233 0
M  V30 54302 H 5445.88 -0.554501 -1.97774 0
M  V30 54303 H 5444.11 1.4223 -3.59594 0
M  V30 54304 H 5445.8 1.13205 -3.89794 0
M  V30 54305 H 5446.57 -1.22035 -4.69396 0
M  V30 54306 H 5442.45 0.00298305 -4.61 0
M  V30 54307 H 5445.99 -3.01139 -6.29254 0
M  V30 54308 H 5441.89 -1.77986 -6.20477 0
M  V30 54309 H 5442.66 -3.4667 -7.41459 0
M  V30 54310 N 5445.32 1.5714 -0.120304 0
M  V30 54311 C 5446.74 1.57841 0.236279 0
M  V30 54312 C 5446.94 1.1331 1.66622 0
M  V30 54313 O 5445.99 0.821088 2.38777 0
M  V30 54314 C 5447.31 3.007 0.0017764 0
M  V30 54315 C 5448.85 3.12927 0.0675738 0
M  V30 54316 C 5449.33 4.57788 -0.139253 0
M  V30 54317 N 5450.82 4.63122 -0.0852668 0
M  V30 54318 C 5451.55 5.72977 -0.220184 0
M  V30 54319 N 5451.05 6.91578 -0.411345 0
M  V30 54320 N 5452.84 5.61873 -0.159667 0
M  V30 54321 H 5444.99 1.84387 -1.05428 0
M  V30 54322 H 5447.26 0.852213 -0.415255 0
M  V30 54323 H 5446.96 3.37571 -0.986837 0
M  V30 54324 H 5446.84 3.70008 0.733073 0
M  V30 54325 H 5449.22 2.75913 1.04671 0
M  V30 54326 H 5449.31 2.4616 -0.695625 0
M  V30 54327 H 5448.95 4.95502 -1.11537 0
M  V30 54328 H 5448.88 5.22648 0.643947 0
M  V30 54329 H 5451.37 3.77854 0.0589151 0
M  V30 54330 H 5451.68 7.71147 -0.505122 0
M  V30 54331 H 5450.03 6.93559 -0.447335 0
M  V30 54332 H 5453.22 4.68099 -0.0112777 0
M  V30 54333 H 5453.39 6.47445 -0.268255 0
M  V30 54334 N 5446.8 -0.153471 1.56851 0
M  V30 54335 C 5448.05 -0.865455 1.82632 0
M  V30 54336 C 5448.37 -1.81996 0.700169 0
M  V30 54337 O 5447.64 -1.93908 -0.278675 0
M  V30 54338 H 5446.22 -0.322586 0.673756 0
M  V30 54339 H 5448.88 -0.14902 1.94329 0
M  V30 54340 H 5447.98 -1.43161 2.77329 0
M  V30 54341 N 5448.28 -1.51828 -0.422613 0
M  V30 54342 C 5449.5 -1.69342 -1.19742 0
M  V30 54343 C 5449.93 -0.396377 -1.83876 0
M  V30 54344 O 5449.28 0.644916 -1.69442 0
M  V30 54345 C 5449.33 -2.8209 -2.24627 0
M  V30 54346 O 5448.44 -2.46719 -3.30459 0
M  V30 54347 H 5447.78 -0.564167 -0.35016 0
M  V30 54348 H 5450.31 -1.98466 -0.497219 0
M  V30 54349 H 5450.32 -3.06608 -2.69176 0
M  V30 54350 H 5448.99 -3.76201 -1.77328 0
M  V30 54351 H 5447.57 -2.32826 -2.91284 0
M  V30 54352 N 5449.75 0.679002 -1.42223 0
M  V30 54353 C 5451 1.43907 -1.42468 0
M  V30 54354 C 5451.33 1.9446 -0.0396258 0
M  V30 54355 O 5450.58 1.71022 0.951305 0
M  V30 54356 C 5450.88 2.6552 -2.39237 0
M  V30 54357 C 5450.55 2.33532 -3.85712 0
M  V30 54358 C 5449.21 2.24519 -4.25611 0
M  V30 54359 C 5451.56 2.07479 -4.78123 0
M  V30 54360 C 5448.89 1.87573 -5.55908 0
M  V30 54361 C 5451.24 1.72037 -6.08758 0
M  V30 54362 C 5449.91 1.61532 -6.4766 0
M  V30 54363 H 5449.18 0.526592 -0.521327 0
M  V30 54364 H 5451.82 0.7746 -1.75135 0
M  V30 54365 H 5450.13 3.36978 -1.99882 0
M  V30 54366 H 5451.83 3.23694 -2.36692 0
M  V30 54367 H 5448.42 2.41447 -3.5412 0
M  V30 54368 H 5452.6 2.13377 -4.48089 0
M  V30 54369 H 5447.86 1.78005 -5.84914 0
M  V30 54370 H 5452.03 1.50902 -6.79854 0
M  V30 54371 H 5449.66 1.32673 -7.48533 0
M  V30 54372 N 5451.23 1.28325 0.914897 0
M  V30 54373 C 5452.46 1.18376 1.703 0
M  V30 54374 C 5452.88 -0.254225 1.86374 0
M  V30 54375 O 5452.24 -1.18393 1.37305 0
M  V30 54376 C 5452.29 1.88613 3.07339 0
M  V30 54377 O 5451.39 1.19282 3.94773 0
M  V30 54378 H 5450.73 0.410996 0.521515 0
M  V30 54379 H 5453.26 1.69626 1.14403 0
M  V30 54380 H 5453.27 1.96475 3.57577 0
M  V30 54381 H 5451.95 2.93212 2.94957 0
M  V30 54382 H 5450.53 1.19576 3.53208 0
M  V30 54383 N 5452.71 -1.12318 1.10555 0
M  V30 54384 C 5453.94 -1.87676 0.870936 0
M  V30 54385 C 5454.35 -1.79713 -0.57867 0
M  V30 54386 O 5453.71 -1.1719 -1.39903 0
M  V30 54387 C 5453.76 -3.36842 1.31225 0
M  V30 54388 O 5453.48 -3.44616 2.70502 0
M  V30 54389 C 5454.98 -4.29134 1.11171 0
M  V30 54390 H 5452.2 -0.593777 0.312521 0
M  V30 54391 H 5454.75 -1.42111 1.47053 0
M  V30 54392 H 5452.9 -3.79946 0.756303 0
M  V30 54393 H 5453.32 -4.3743 2.89404 0
M  V30 54394 H 5454.79 -5.32077 1.46963 0
M  V30 54395 H 5455.27 -4.39171 0.0504507 0
M  V30 54396 H 5455.87 -3.91812 1.65419 0
M  V30 54397 N 5454.19 -0.89448 -1.29757 0
M  V30 54398 C 5455.42 -0.532986 -1.99917 0
M  V30 54399 C 5455.83 0.880964 -1.66986 0
M  V30 54400 O 5455.19 1.58073 -0.912091 0
M  V30 54401 C 5455.24 -0.709484 -3.54469 0
M  V30 54402 O 5454.96 -2.06778 -3.86231 0
M  V30 54403 C 5456.46 -0.352245 -4.41898 0
M  V30 54404 H 5453.68 -0.205042 -0.638904 0
M  V30 54405 H 5456.23 -1.20239 -1.65417 0
M  V30 54406 H 5454.38 -0.0873262 -3.87302 0
M  V30 54407 H 5454.8 -2.09332 -4.80916 0
M  V30 54408 H 5456.27 -0.526598 -5.49482 0
M  V30 54409 H 5456.75 0.710374 -4.33417 0
M  V30 54410 H 5457.35 -0.951125 -4.14528 0
M  V30 54411 N 5455.67 1.43279 -0.656415 0
M  V30 54412 C 5456.91 2.02075 -0.171364 0
M  V30 54413 C 5457.25 1.51686 1.21264 0
M  V30 54414 O 5456.52 0.711307 1.81027 0
M  V30 54415 C 5456.8 3.59621 -0.185729 0
M  V30 54416 C 5456.66 4.20233 -1.60388 0
M  V30 54417 C 5457.98 4.37517 0.476135 0
M  V30 54418 H 5455.1 0.734238 -0.0637444 0
M  V30 54419 H 5457.74 1.70536 -0.837708 0
M  V30 54420 H 5455.89 3.86621 0.381668 0
M  V30 54421 H 5457.56 4.04252 -2.22211 0
M  V30 54422 H 5455.8 3.76761 -2.15019 0
M  V30 54423 H 5456.47 5.29328 -1.56576 0
M  V30 54424 H 5458.95 4.16099 -0.00665701 0
M  V30 54425 H 5457.83 5.47171 0.43537 0
M  V30 54426 H 5458.09 4.14009 1.55078 0
M  V30 54427 N 5457.15 0.398539 1.52478 0
M  V30 54428 C 5458.37 -0.180485 2.06111 0
M  V30 54429 C 5458.79 -1.39747 1.2695 0
M  V30 54430 O 5458.15 -1.79698 0.318561 0
M  V30 54431 C 5458.2 -0.541448 3.57422 0
M  V30 54432 O 5457.92 0.627195 4.33587 0
M  V30 54433 C 5459.42 -1.17534 4.27435 0
M  V30 54434 H 5456.64 -0.0250519 0.670532 0
M  V30 54435 H 5459.18 0.566437 1.96499 0
M  V30 54436 H 5457.34 -1.23826 3.67077 0
M  V30 54437 H 5457.75 0.328417 5.23471 0
M  V30 54438 H 5459.23 -1.3782 5.34518 0
M  V30 54439 H 5459.7 -2.14539 3.83236 0
M  V30 54440 H 5460.31 -0.519031 4.22121 0
M  V30 54441 N 5458.62 -1.57074 0.128636 0
M  V30 54442 C 5459.87 -1.95136 -0.525978 0
M  V30 54443 C 5460.19 -1.01343 -1.66597 0
M  V30 54444 O 5459.46 -0.0715049 -1.95769 0
M  V30 54445 H 5458.04 -0.720475 -0.197295 0
M  V30 54446 H 5460.7 -1.93873 0.199835 0
M  V30 54447 H 5459.8 -2.9841 -0.914228 0
M  V30 54448 N 5460.1 0.14515 -1.5693 0
M  V30 54449 C 5461.52 0.497852 -1.51636 0
M  V30 54450 C 5461.72 1.83277 -0.837366 0
M  V30 54451 O 5460.77 2.49171 -0.408671 0
M  V30 54452 C 5462.09 0.506453 -2.96404 0
M  V30 54453 C 5463.63 0.591839 -3.07354 0
M  V30 54454 C 5464.11 0.631084 -4.53631 0
M  V30 54455 N 5465.6 0.693256 -4.57983 0
M  V30 54456 C 5466.34 0.744636 -5.68544 0
M  V30 54457 N 5465.83 0.75525 -6.88671 0
M  V30 54458 N 5467.62 0.785658 -5.56582 0
M  V30 54459 H 5459.78 -0.729849 -1.99467 0
M  V30 54460 H 5462.04 -0.266327 -0.909821 0
M  V30 54461 H 5461.74 -0.40625 -3.49346 0
M  V30 54462 H 5461.62 1.3437 -3.52455 0
M  V30 54463 H 5464.01 1.49496 -2.54431 0
M  V30 54464 H 5464.09 -0.272596 -2.54343 0
M  V30 54465 H 5463.73 -0.267889 -5.07193 0
M  V30 54466 H 5463.66 1.51204 -5.04425 0
M  V30 54467 H 5466.15 0.692278 -3.71505 0
M  V30 54468 H 5466.46 0.796354 -7.68686 0
M  V30 54469 H 5464.81 0.723096 -6.91228 0
M  V30 54470 H 5468 0.774549 -4.61647 0
M  V30 54471 H 5468.17 0.822235 -6.42762 0
M  V30 54472 N 5461.58 1.5205 0.414556 0
M  V30 54473 C 5462.81 1.69683 1.18386 0
M  V30 54474 C 5463.22 0.403946 1.84428 0
M  V30 54475 O 5462.58 -0.619576 1.71661 0
M  V30 54476 C 5462.63 2.82863 2.25102 0
M  V30 54477 O 5462.35 4.07144 1.61757 0
M  V30 54478 C 5463.85 3.1196 3.14954 0
M  V30 54479 H 5461.07 0.568802 0.355957 0
M  V30 54480 H 5463.62 1.98581 0.488435 0
M  V30 54481 H 5461.77 2.56499 2.90323 0
M  V30 54482 H 5462.19 4.70172 2.32463 0
M  V30 54483 H 5463.66 3.94679 3.85918 0
M  V30 54484 H 5464.14 2.25289 3.77017 0
M  V30 54485 H 5464.74 3.40068 2.55409 0
M  V30 54486 N 5463.06 -0.67145 1.42581 0
M  V30 54487 C 5464.3 -1.44348 1.44717 0
M  V30 54488 C 5464.66 -1.91897 0.0627302 0
M  V30 54489 O 5465.86 -2.68768 -0.0411844 0
M  V30 54490 C 5464.13 -2.60608 2.44578 0
M  V30 54491 S 5465.69 -3.49407 2.65443 0
M  V30 54492 H 5462.51 -0.492967 0.512352 0
M  V30 54493 H 5465.11 -0.781286 1.7921 0
M  V30 54494 H 5463.82 -2.23919 3.43931 0
M  V30 54495 H 5463.35 -3.31696 2.11522 0
M  V30 54496 H 5465.36 -4.56706 1.93996 0
M  V30 54497 N 5464.54 -1.28809 -0.908079 0
M  V30 54498 C 5465.47 -1.09025 -2.01609 0
M  V30 54499 C 5466.48 -0.0402631 -1.6275 0
M  V30 54500 O 5467.67 -0.283915 -1.76228 0
M  V30 54501 C 5464.77 -0.63583 -3.32882 0
M  V30 54502 C 5463.94 -1.76249 -4.00319 0
M  V30 54503 C 5463 -1.30048 -5.09876 0
M  V30 54504 O 5462.03 -2.00373 -5.32766 0
M  V30 54505 N 5463.23 -0.166779 -5.8026 0
M  V30 54506 H 5465.99 -2.04448 -2.19137 0
M  V30 54507 H 5463.56 -1.20637 -1.07974 0
M  V30 54508 H 5465.55 -0.310238 -4.03509 0
M  V30 54509 H 5464.12 0.225706 -3.11784 0
M  V30 54510 H 5463.34 -2.25738 -3.23165 0
M  V30 54511 H 5464.63 -2.51811 -4.42118 0
M  V30 54512 H 5464.02 0.419736 -5.64141 0
M  V30 54513 H 5462.58 0.099499 -6.51724 0
M  V30 54514 N 5466.01 1.1173 -1.11149 0
M  V30 54515 C 5467.24 1.87752 -0.881128 0
M  V30 54516 C 5467.66 1.79463 0.563433 0
M  V30 54517 O 5467.02 1.15486 1.39759 0
M  V30 54518 C 5467.07 3.34636 -1.34353 0
M  V30 54519 O 5466.17 4.09193 -0.513301 0
M  V30 54520 H 5465.51 0.583099 -0.317634 0
M  V30 54521 H 5468.04 1.41251 -1.48018 0
M  V30 54522 H 5468.05 3.85481 -1.33672 0
M  V30 54523 H 5466.73 3.39986 -2.39546 0
M  V30 54524 H 5465.31 3.68267 -0.585962 0
M  V30 54525 N 5467.49 0.901349 1.29281 0
M  V30 54526 C 5468.74 0.53831 1.96147 0
M  V30 54527 C 5469.09 -0.905744 1.69747 0
M  V30 54528 O 5468.39 -1.63379 1.00089 0
M  V30 54529 C 5468.58 0.768951 3.4903 0
M  V30 54530 C 5468.41 2.23387 3.90293 0
M  V30 54531 C 5467.18 2.88163 4.15079 0
M  V30 54532 C 5469.38 3.20921 4.01888 0
M  V30 54533 N 5467.36 4.25081 4.42922 0
M  V30 54534 C 5468.73 4.42963 4.33802 0
M  V30 54535 C 5470.78 3.16489 3.84369 0
M  V30 54536 C 5469.49 5.61135 4.50022 0
M  V30 54537 C 5471.51 4.33948 4.01799 0
M  V30 54538 C 5470.88 5.5476 4.34074 0
M  V30 54539 H 5466.97 0.24662 0.742094 0
M  V30 54540 H 5469.56 1.1625 1.56186 0
M  V30 54541 H 5467.73 0.174127 3.88009 0
M  V30 54542 H 5469.46 0.371182 4.02994 0
M  V30 54543 H 5466.22 2.38949 4.08901 0
M  V30 54544 H 5466.64 4.95838 4.60949 0
M  V30 54545 H 5471.28 2.24172 3.58478 0
M  V30 54546 H 5469 6.53942 4.74748 0
M  V30 54547 H 5472.59 4.32007 3.89694 0
M  V30 54548 H 5471.47 6.44135 4.4728 0
M  V30 54549 N 5468.97 -1.42929 0.664004 0
M  V30 54550 C 5470.2 -2.06544 0.188274 0
M  V30 54551 C 5470.62 -1.49504 -1.14149 0
M  V30 54552 O 5469.98 -0.609224 -1.70758 0
M  V30 54553 C 5470.03 -3.60393 0.122231 0
M  V30 54554 O 5469.13 -4.02179 -0.912438 0
M  V30 54555 H 5468.47 -0.656454 0.0998198 0
M  V30 54556 H 5471 -1.8325 0.909973 0
M  V30 54557 H 5471.01 -4.07959 -0.0575133 0
M  V30 54558 H 5469.69 -4.01283 1.09291 0
M  V30 54559 H 5468.26 -3.66183 -0.70461 0
M  V30 54560 N 5470.45 -0.40662 -1.52264 0
M  V30 54561 C 5471.67 0.172028 -2.06685 0
M  V30 54562 C 5472.1 1.38301 -1.27493 0
M  V30 54563 O 5471.46 1.78725 -0.304504 0
M  V30 54564 C 5471.5 0.503337 -3.5707 0
M  V30 54565 O 5470.61 1.59471 -3.80319 0
M  V30 54566 H 5469.95 0.0152976 -0.663824 0
M  V30 54567 H 5472.48 -0.579094 -1.96234 0
M  V30 54568 H 5472.49 0.762692 -4.00808 0
M  V30 54569 H 5471.16 -0.381921 -4.14143 0
M  V30 54570 H 5469.74 1.32772 -3.48462 0
M  V30 54571 N 5471.93 1.57004 -0.136964 0
M  V30 54572 C 5472.86 2.12007 0.844287 0
M  V30 54573 C 5473.84 1.04103 1.24905 0
M  V30 54574 O 5475.02 1.31871 1.34693 0
M  V30 54575 C 5472.15 2.63154 2.13231 0
M  V30 54576 C 5471.19 3.83111 1.87425 0
M  V30 54577 S 5472.03 5.24614 1.07429 0
M  V30 54578 C 5473.18 5.79142 2.37372 0
M  V30 54579 H 5473.42 2.94906 0.37651 0
M  V30 54580 H 5470.95 1.54207 0.0771435 0
M  V30 54581 H 5472.91 2.93274 2.87229 0
M  V30 54582 H 5471.57 1.80404 2.57125 0
M  V30 54583 H 5470.76 4.17109 2.82907 0
M  V30 54584 H 5470.36 3.537 1.2154 0
M  V30 54585 H 5472.66 5.89962 3.33093 0
M  V30 54586 H 5473.6 6.76894 2.07894 0
M  V30 54587 H 5474.01 5.0732 2.47561 0
M  V30 54588 N 5473.4 -0.136826 1.57005 0
M  V30 54589 C 5474.63 -0.86237 1.88071 0
M  V30 54590 C 5475.05 -1.74271 0.726289 0
M  V30 54591 O 5474.4 -1.79957 -0.303597 0
M  V30 54592 C 5474.46 -1.71064 3.18464 0
M  V30 54593 O 5474.18 -0.865767 4.2946 0
M  V30 54594 C 5475.68 -2.54289 3.63114 0
M  V30 54595 H 5472.9 -0.248843 0.623152 0
M  V30 54596 H 5475.44 -0.126562 2.04108 0
M  V30 54597 H 5473.6 -2.3994 3.0415 0
M  V30 54598 H 5474.01 -1.44912 5.04084 0
M  V30 54599 H 5475.48 -3.09368 4.5716 0
M  V30 54600 H 5475.96 -3.3081 2.88897 0
M  V30 54601 H 5476.57 -1.90687 3.80156 0
M  V30 54602 N 5474.88 -1.52268 -0.406486 0
M  V30 54603 C 5476.29 -1.58591 -0.985186 0
M  V30 54604 C 5476.64 -0.428022 -1.91474 0
M  V30 54605 O 5475.77 0.451266 -2.11642 0
M  V30 54606 C 5476.36 -2.87432 -1.79355 0
M  V30 54607 C 5474.92 -2.96225 -2.32223 0
M  V30 54608 C 5474.07 -2.53552 -1.12279 0
M  V30 54609 H 5477.02 -1.57599 -0.186629 0
M  V30 54610 H 5477.04 -2.72934 -2.65117 0
M  V30 54611 H 5476.55 -3.71686 -1.11674 0
M  V30 54612 H 5474.66 -2.16471 -3.03267 0
M  V30 54613 H 5474.77 -4.0052 -2.62907 0
M  V30 54614 H 5473.13 -2.07462 -1.47756 0
M  V30 54615 H 5473.92 -3.40182 -0.461612 0
M  V30 54616 N 5476.36 0.663879 -1.42935 0
M  V30 54617 C 5477.31 1.77002 -1.43716 0
M  V30 54618 C 5478.29 1.57944 -0.307004 0
M  V30 54619 O 5479.49 1.68237 -0.550026 0
M  V30 54620 C 5476.62 3.1553 -1.35261 0
M  V30 54621 C 5475.7 3.40174 -2.53264 0
M  V30 54622 N 5476.09 3.35344 -3.78653 0
M  V30 54623 C 5474.39 3.70852 -2.47759 0
M  V30 54624 C 5475.09 3.59774 -4.57097 0
M  V30 54625 N 5474.07 3.8107 -3.87668 0
M  V30 54626 H 5477.87 1.71678 -2.38546 0
M  V30 54627 H 5475.38 0.865143 -1.37437 0
M  V30 54628 H 5477.38 3.94811 -1.33902 0
M  V30 54629 H 5476.04 3.22044 -0.414421 0
M  V30 54630 H 5477.05 3.14997 -4.11093 0
M  V30 54631 H 5473.73 3.84546 -1.62575 0
M  V30 54632 H 5475.12 3.61908 -5.66102 0
M  V30 54633 N 5477.84 1.29288 0.901235 0
M  V30 54634 C 5479.08 1.18354 1.6542 0
M  V30 54635 C 5479.44 -0.262693 1.90598 0
M  V30 54636 O 5478.73 -1.18675 1.50422 0
M  V30 54637 C 5478.93 1.92876 3.00888 0
M  V30 54638 C 5478.76 3.44598 2.88933 0
M  V30 54639 C 5477.53 4.13948 2.89784 0
M  V30 54640 C 5479.72 4.40123 2.66076 0
M  V30 54641 N 5477.71 5.52046 2.68549 0
M  V30 54642 C 5479.08 5.6567 2.53807 0
M  V30 54643 C 5481.13 4.29904 2.51172 0
M  V30 54644 C 5479.83 6.82158 2.28151 0
M  V30 54645 C 5481.86 5.46142 2.26898 0
M  V30 54646 C 5481.22 6.7066 2.15392 0
M  V30 54647 H 5477.32 0.488082 0.610983 0
M  V30 54648 H 5479.91 1.63098 1.06335 0
M  V30 54649 H 5478.08 1.50548 3.58036 0
M  V30 54650 H 5479.81 1.7422 3.6528 0
M  V30 54651 H 5476.56 3.65636 3.0101 0
M  V30 54652 H 5476.99 6.24671 2.60989 0
M  V30 54653 H 5481.63 3.3433 2.58811 0
M  V30 54654 H 5479.35 7.77789 2.1925 0
M  V30 54655 H 5482.93 5.40133 2.16212 0
M  V30 54656 H 5481.81 7.59086 1.96869 0
M  V30 54657 N 5479.32 -1.11139 1.1174 0
M  V30 54658 C 5480.27 -2.15393 0.747642 0
M  V30 54659 C 5481.25 -1.58948 -0.249838 0
M  V30 54660 O 5482.44 -1.7691 -0.0564645 0
M  V30 54661 C 5479.57 -3.42741 0.195896 0
M  V30 54662 C 5478.66 -4.06136 1.22123 0
M  V30 54663 N 5479.05 -4.44343 2.41647 0
M  V30 54664 C 5477.35 -4.33101 1.06489 0
M  V30 54665 C 5478.05 -4.94052 3.07063 0
M  V30 54666 N 5477.02 -4.90403 2.34533 0
M  V30 54667 H 5480.83 -2.42716 1.65729 0
M  V30 54668 H 5478.34 -1.28186 0.997104 0
M  V30 54669 H 5480.34 -4.16809 -0.0871518 0
M  V30 54670 H 5479 -3.16881 -0.708295 0
M  V30 54671 H 5480.01 -4.36274 2.7908 0
M  V30 54672 H 5476.68 -4.16934 0.217393 0
M  V30 54673 H 5478.07 -5.3322 4.08811 0
M  V30 54674 N 5480.79 -0.908192 -1.28801 0
M  V30 54675 C 5481.73 -0.349649 -2.26517 0
M  V30 54676 C 5482.74 0.508791 -1.54645 0
M  V30 54677 O 5483.93 0.324571 -1.75524 0
M  V30 54678 C 5481.03 0.519343 -3.34897 0
M  V30 54679 C 5480.2 -0.315311 -4.36262 0
M  V30 54680 C 5479.26 0.487875 -5.23933 0
M  V30 54681 O 5478.29 -0.0976134 -5.69116 0
M  V30 54682 N 5479.49 1.79214 -5.52144 0
M  V30 54683 H 5482.25 -1.18955 -2.75082 0
M  V30 54684 H 5479.81 -0.77356 -1.42224 0
M  V30 54685 H 5481.81 1.06327 -3.90483 0
M  V30 54686 H 5480.38 1.25994 -2.86084 0
M  V30 54687 H 5479.6 -1.04062 -3.80217 0
M  V30 54688 H 5480.88 -0.886614 -5.01016 0
M  V30 54689 H 5480.28 2.29042 -5.17258 0
M  V30 54690 H 5478.84 2.283 -6.1051 0
M  V30 54691 N 5482.27 1.42575 -0.671575 0
M  V30 54692 C 5483.69 1.55918 -0.340824 0
M  V30 54693 C 5483.89 1.65183 1.15399 0
M  V30 54694 O 5482.94 1.61698 1.93933 0
M  V30 54695 C 5484.26 2.81083 -1.06831 0
M  V30 54696 C 5485.81 2.94851 -1.05032 0
M  V30 54697 C 5486.28 4.22872 -1.75907 0
M  V30 54698 N 5487.77 4.29777 -1.72759 0
M  V30 54699 C 5488.51 5.27642 -2.24457 0
M  V30 54700 N 5488 6.31679 -2.84523 0
M  V30 54701 N 5489.8 5.19419 -2.1485 0
M  V30 54702 H 5481.95 1.34805 -1.64138 0
M  V30 54703 H 5484.21 0.648679 -0.691317 0
M  V30 54704 H 5483.92 2.80364 -2.12342 0
M  V30 54705 H 5483.79 3.71876 -0.631487 0
M  V30 54706 H 5486.18 2.951 -0.00356007 0
M  V30 54707 H 5486.26 2.05297 -1.526 0
M  V30 54708 H 5485.9 4.23384 -2.80549 0
M  V30 54709 H 5485.83 5.11355 -1.25791 0
M  V30 54710 H 5488.32 3.55221 -1.28944 0
M  V30 54711 H 5488.64 7.02704 -3.216 0
M  V30 54712 H 5486.98 6.3225 -2.88592 0
M  V30 54713 H 5490.17 4.37061 -1.67615 0
M  V30 54714 H 5490.34 5.95526 -2.55447 0
M  V30 54715 N 5483.75 0.414689 1.52046 0
M  V30 54716 C 5484.98 -0.158614 2.06291 0
M  V30 54717 C 5485.39 -1.38392 1.28425 0
M  V30 54718 O 5484.75 -1.7935 0.337602 0
M  V30 54719 C 5484.8 -0.503508 3.57976 0
M  V30 54720 O 5484.52 0.673148 4.32898 0
M  V30 54721 C 5486.02 -1.12994 4.28657 0
M  V30 54722 H 5483.24 -0.0179386 0.67076 0
M  V30 54723 H 5485.79 0.587246 1.95887 0
M  V30 54724 H 5483.94 -1.19926 3.6837 0
M  V30 54725 H 5484.36 0.383919 5.23093 0
M  V30 54726 H 5485.83 -1.32143 5.3595 0
M  V30 54727 H 5486.31 -2.10462 3.8549 0
M  V30 54728 H 5486.91 -0.47423 4.22648 0
M  V30 54729 N 5485.23 -1.56929 0.145288 0
M  V30 54730 C 5486.46 -2.00433 -0.513244 0
M  V30 54731 C 5486.87 -1.02536 -1.5853 0
M  V30 54732 O 5486.23 -0.02211 -1.82487 0
M  V30 54733 C 5486.28 -3.4386 -1.11545 0
M  V30 54734 O 5486 -4.38015 -0.0862167 0
M  V30 54735 C 5487.5 -4.02633 -1.85476 0
M  V30 54736 H 5484.72 -0.657534 -0.133755 0
M  V30 54737 H 5487.27 -2.03094 0.239367 0
M  V30 54738 H 5485.42 -3.42056 -1.81869 0
M  V30 54739 H 5485.84 -5.21844 -0.52718 0
M  V30 54740 H 5487.31 -5.04993 -2.22905 0
M  V30 54741 H 5487.79 -3.43248 -2.74002 0
M  V30 54742 H 5488.39 -4.08063 -1.19854 0
M  V30 54743 N 5486.71 0.128498 -1.57075 0
M  V30 54744 C 5487.62 1.17711 -2.02932 0
M  V30 54745 C 5488.63 1.45908 -0.947983 0
M  V30 54746 O 5489.81 1.57213 -1.25881 0
M  V30 54747 C 5486.87 2.48617 -2.41642 0
M  V30 54748 C 5485.94 2.27902 -3.63812 0
M  V30 54749 C 5485.17 3.52565 -4.00666 0
M  V30 54750 O 5485.39 4.59493 -3.37968 0
M  V30 54751 O 5484.33 3.4413 -4.9382 0
M  V30 54752 H 5488.15 0.817743 -2.92484 0
M  V30 54753 H 5485.74 0.338597 -1.45512 0
M  V30 54754 H 5487.62 3.2576 -2.67316 0
M  V30 54755 H 5486.29 2.84047 -1.55239 0
M  V30 54756 H 5485.2 1.48648 -3.433 0
M  V30 54757 H 5486.53 1.9738 -4.5089 0
M  V30 54758 N 5488.19 1.52481 0.398405 0
M  V30 54759 C 5489.42 1.70681 1.16411 0
M  V30 54760 C 5489.82 0.420693 1.84464 0
M  V30 54761 O 5489.17 -0.613953 1.73137 0
M  V30 54762 C 5489.23 2.79409 2.2621 0
M  V30 54763 C 5488.89 4.20824 1.78203 0
M  V30 54764 C 5489.89 5.04303 1.26392 0
M  V30 54765 C 5487.57 4.67105 1.84711 0
M  V30 54766 C 5489.57 6.32139 0.817239 0
M  V30 54767 C 5487.26 5.94928 1.39655 0
M  V30 54768 C 5488.25 6.77275 0.882477 0
M  V30 54769 O 5487.94 8.02703 0.438457 0
M  V30 54770 H 5487.67 0.575042 0.355391 0
M  V30 54771 H 5490.23 1.9987 0.473401 0
M  V30 54772 H 5488.46 2.4562 2.98677 0
M  V30 54773 H 5490.15 2.86103 2.87923 0
M  V30 54774 H 5490.91 4.69734 1.20728 0
M  V30 54775 H 5486.79 4.03105 2.23668 0
M  V30 54776 H 5490.34 6.96363 0.415303 0
M  V30 54777 H 5486.23 6.29003 1.45002 0
M  V30 54778 H 5487 8.16577 0.560792 0
M  V30 54779 N 5489.66 -0.656289 1.43285 0
M  V30 54780 C 5490.89 -1.44194 1.47959 0
M  V30 54781 C 5491.3 -1.88961 0.0950979 0
M  V30 54782 O 5490.64 -1.59898 -0.904332 0
M  V30 54783 C 5490.71 -2.71153 2.36043 0
M  V30 54784 C 5490.37 -2.48345 3.83632 0
M  V30 54785 C 5491.37 -2.11763 4.74818 0
M  V30 54786 C 5489.05 -2.62765 4.28089 0
M  V30 54787 C 5491.05 -1.89894 6.08456 0
M  V30 54788 C 5488.73 -2.40511 5.61781 0
M  V30 54789 C 5489.73 -2.04131 6.51782 0
M  V30 54790 O 5489.42 -1.82106 7.83002 0
M  V30 54791 H 5489.15 -0.449549 0.504858 0
M  V30 54792 H 5491.71 -0.812168 1.88661 0
M  V30 54793 H 5489.94 -3.36678 1.90222 0
M  V30 54794 H 5491.62 -3.33094 2.31956 0
M  V30 54795 H 5492.39 -2.00202 4.41751 0
M  V30 54796 H 5488.27 -2.90057 3.58313 0
M  V30 54797 H 5491.81 -1.61422 6.78667 0
M  V30 54798 H 5487.71 -2.51674 5.94416 0
M  V30 54799 H 5488.48 -1.96556 7.94549 0
M  V30 54800 N 5491.14 -1.29765 -0.894366 0
M  V30 54801 C 5492.55 -1.1628 -1.46068 0
M  V30 54802 C 5492.9 0.240055 -1.94726 0
M  V30 54803 O 5492.03 1.136 -1.84185 0
M  V30 54804 C 5492.62 -2.10481 -2.65487 0
M  V30 54805 C 5491.18 -2.01003 -3.18237 0
M  V30 54806 C 5490.33 -2.01101 -1.90928 0
M  V30 54807 H 5493.28 -1.42171 -0.705194 0
M  V30 54808 H 5493.3 -1.68015 -3.41396 0
M  V30 54809 H 5492.81 -3.12574 -2.30042 0
M  V30 54810 H 5490.91 -1.02017 -3.58362 0
M  V30 54811 H 5491.03 -2.8893 -3.82173 0
M  V30 54812 H 5489.39 -1.45772 -2.08861 0
M  V30 54813 H 5490.17 -3.04908 -1.57754 0
M  V30 54814 N 5492.62 1.10545 -1.12328 0
M  V30 54815 C 5493.57 2.18942 -0.785325 0
M  V30 54816 C 5494.56 1.67868 0.22733 0
M  V30 54817 O 5495.77 1.79796 0.085653 0
M  V30 54818 H 5492.14 0.713968 -0.236124 0
M  V30 54819 H 5494.11 2.44686 -1.70796 0
M  V30 54820 C 5492.86 3.46764 -0.254972 0
M  V30 54821 H 5492.19 3.86425 -1.02548 0
M  V30 54822 H 5493.63 4.23962 -0.0568016 0
M  V30 54823 C 5492.08 3.21188 1.01684 0
M  V30 54824 O 5492.61 3.42752 2.09485 0
M  V30 54825 N 5490.82 2.74863 0.943327 0
M  V30 54826 H 5490.37 2.57516 0.0659461 0
M  V30 54827 H 5490.33 2.58128 1.79491 0
M  V30 54828 N 5494.1 0.91501 1.28317 0
M  V30 54829 C 5495.35 0.547733 1.94536 0
M  V30 54830 C 5495.67 -0.911773 1.72371 0
M  V30 54831 O 5494.94 -1.64478 1.06414 0
M  V30 54832 H 5493.52 0.199575 0.719846 0
M  V30 54833 H 5496.18 1.16464 1.56276 0
M  V30 54834 H 5495.27 0.743244 3.03121 0
M  V30 54835 N 5495.58 -1.42217 0.679127 0
M  V30 54836 C 5496.82 -2.0108 0.202788 0
M  V30 54837 C 5497.14 -1.5399 -1.19633 0
M  V30 54838 O 5496.41 -0.763423 -1.80412 0
M  V30 54839 H 5494.99 -0.743524 0.0719809 0
M  V30 54840 H 5497.66 -1.74074 0.876605 0
M  V30 54841 H 5496.75 -3.1141 0.207424 0
M  V30 54842 N 5497.05 -0.422747 -1.51824 0
M  V30 54843 C 5497.98 0.386832 -2.30273 0
M  V30 54844 C 5498.96 1.03407 -1.3506 0
M  V30 54845 O 5500.15 1.04049 -1.63974 0
M  V30 54846 C 5497.28 1.49634 -3.13412 0
M  V30 54847 C 5496.23 0.973385 -4.16784 0
M  V30 54848 C 5495.56 2.17753 -4.88352 0
M  V30 54849 C 5496.86 0.0179358 -5.22297 0
M  V30 54850 H 5498.55 -0.267802 -2.982 0
M  V30 54851 H 5496.1 -0.130237 -1.4341 0
M  V30 54852 H 5498.05 2.0698 -3.67066 0
M  V30 54853 H 5496.78 2.17905 -2.43279 0
M  V30 54854 H 5495.44 0.422242 -3.6416 0
M  V30 54855 H 5495.08 2.8461 -4.14736 0
M  V30 54856 H 5494.78 1.83407 -5.58243 0
M  V30 54857 H 5496.31 2.7568 -5.44824 0
M  V30 54858 H 5497.72 0.500621 -5.7111 0
M  V30 54859 H 5496.12 -0.237374 -5.9963 0
M  V30 54860 H 5497.19 -0.923232 -4.7603 0
M  V30 54861 N 5498.53 1.5685 -0.153609 0
M  V30 54862 C 5499.76 2.00702 0.502607 0
M  V30 54863 C 5500.18 1.03375 1.57984 0
M  V30 54864 O 5499.53 0.0317874 1.82472 0
M  V30 54865 C 5499.58 3.44447 1.0972 0
M  V30 54866 O 5499.3 4.38055 0.0629865 0
M  V30 54867 C 5500.81 4.03611 1.83338 0
M  V30 54868 H 5498.03 0.658234 0.130266 0
M  V30 54869 H 5500.57 2.02964 -0.250135 0
M  V30 54870 H 5498.72 3.43016 1.80053 0
M  V30 54871 H 5499.14 5.22116 0.499498 0
M  V30 54872 H 5500.61 5.06168 2.20224 0
M  V30 54873 H 5501.09 3.44696 2.72178 0
M  V30 54874 H 5501.7 4.08692 1.17688 0
M  V30 54875 N 5500.01 -0.120166 1.57141 0
M  V30 54876 C 5501.43 -0.473665 1.52409 0
M  V30 54877 C 5501.63 -1.81922 0.866418 0
M  V30 54878 O 5500.68 -2.48489 0.448261 0
M  V30 54879 C 5502 -0.459233 2.97173 0
M  V30 54880 C 5503.54 -0.542867 3.08256 0
M  V30 54881 C 5504.02 -0.558836 4.54578 0
M  V30 54882 N 5505.51 -0.620307 4.59028 0
M  V30 54883 C 5506.24 -0.654092 5.69657 0
M  V30 54884 N 5505.74 -0.645592 6.89785 0
M  V30 54885 N 5507.53 -0.697012 5.57762 0
M  V30 54886 H 5499.68 0.76149 1.9828 0
M  V30 54887 H 5501.95 0.280768 0.905469 0
M  V30 54888 H 5501.65 0.461777 3.48655 0
M  V30 54889 H 5501.53 -1.28746 3.54548 0
M  V30 54890 H 5503.91 -1.4543 2.56777 0
M  V30 54891 H 5504 0.313025 2.53878 0
M  V30 54892 H 5503.64 0.348545 5.06703 0
M  V30 54893 H 5503.57 -1.43159 5.06767 0
M  V30 54894 H 5506.06 -0.633087 3.72559 0
M  V30 54895 H 5506.37 -0.673962 7.69856 0
M  V30 54896 H 5504.72 -0.613036 6.92291 0
M  V30 54897 H 5507.91 -0.701007 4.62821 0
M  V30 54898 H 5508.08 -0.719873 6.43989 0
M  V30 54899 N 5501.49 -1.5269 -0.390313 0
M  V30 54900 C 5502.44 -1.78012 -1.49714 0
M  V30 54901 C 5503.43 -0.648003 -1.56516 0
M  V30 54902 O 5504.64 -0.830454 -1.59698 0
M  V30 54903 H 5501.01 -0.563238 -0.498264 0
M  V30 54904 H 5502.98 -2.70702 -1.2555 0
M  V30 54905 C 5501.73 -1.96479 -2.86865 0
M  V30 54906 H 5501.05 -2.83021 -2.82381 0
M  V30 54907 H 5502.49 -2.18187 -3.63553 0
M  V30 54908 C 5500.95 -0.736962 -3.28741 0
M  V30 54909 O 5501.48 0.0862332 -4.01607 0
M  V30 54910 N 5499.69 -0.56745 -2.85006 0
M  V30 54911 H 5499.24 -1.23846 -2.25876 0
M  V30 54912 H 5499.19 0.252721 -3.13383 0
M  V30 54913 N 5502.97 0.648681 -1.43631 0
M  V30 54914 C 5504.2 1.43407 -1.48721 0
M  V30 54915 C 5504.6 1.88908 -0.105118 0
M  V30 54916 O 5503.95 1.60376 0.895839 0
M  V30 54917 C 5504.01 2.69897 -2.37478 0
M  V30 54918 C 5503.67 2.46307 -3.84944 0
M  V30 54919 C 5504.67 2.09242 -4.75935 0
M  V30 54920 C 5502.36 2.60491 -4.29476 0
M  V30 54921 C 5504.35 1.86664 -6.09455 0
M  V30 54922 C 5502.04 2.37528 -5.63049 0
M  V30 54923 C 5503.03 2.00671 -6.52855 0
M  V30 54924 O 5502.72 1.77951 -7.83957 0
M  V30 54925 H 5502.45 0.446865 -0.507235 0
M  V30 54926 H 5505.01 0.802151 -1.89089 0
M  V30 54927 H 5503.24 3.35665 -1.92005 0
M  V30 54928 H 5504.93 3.31859 -2.33719 0
M  V30 54929 H 5505.69 1.97856 -4.42807 0
M  V30 54930 H 5501.57 2.88153 -3.59846 0
M  V30 54931 H 5505.12 1.5782 -6.79513 0
M  V30 54932 H 5501.01 2.48518 -5.95742 0
M  V30 54933 H 5501.78 1.9234 -7.9558 0
M  V30 54934 N 5504.44 1.30237 0.887472 0
M  V30 54935 C 5505.68 1.20197 1.65324 0
M  V30 54936 C 5506.05 -0.240054 1.90493 0
M  V30 54937 O 5507.25 -0.463651 2.64771 0
M  V30 54938 C 5505.52 2.00516 2.95851 0
M  V30 54939 S 5507.08 2.07147 3.86828 0
M  V30 54940 H 5503.9 0.428386 0.567456 0
M  V30 54941 H 5506.5 1.64681 1.05359 0
M  V30 54942 H 5505.2 3.04405 2.75255 0
M  V30 54943 H 5504.73 1.56684 3.60851 0
M  V30 54944 H 5506.75 1.19704 4.81545 0
M  V30 54945 N 5505.92 -1.09948 1.12913 0
M  V30 54946 C 5507.34 -1.34048 0.866219 0
M  V30 54947 C 5507.54 -1.95171 -0.501056 0
M  V30 54948 O 5506.59 -2.19462 -1.2487 0
M  V30 54949 C 5507.91 -2.25731 1.98661 0
M  V30 54950 C 5509.46 -2.39254 2.01808 0
M  V30 54951 C 5509.93 -3.34269 3.13094 0
M  V30 54952 N 5511.42 -3.4184 3.1257 0
M  V30 54953 C 5512.16 -4.15344 3.95319 0
M  V30 54954 N 5511.65 -4.91692 4.88069 0
M  V30 54955 N 5513.45 -4.11014 3.83437 0
M  V30 54956 H 5505.6 -0.686451 2.01002 0
M  V30 54957 H 5507.86 -0.364882 0.874966 0
M  V30 54958 H 5507.57 -1.88037 2.97212 0
M  V30 54959 H 5507.44 -3.26078 1.89612 0
M  V30 54960 H 5509.83 -2.76214 1.03873 0
M  V30 54961 H 5509.91 -1.38704 2.1493 0
M  V30 54962 H 5509.55 -2.98034 4.11264 0
M  V30 54963 H 5509.48 -4.34711 2.9721 0
M  V30 54964 H 5511.97 -2.87396 2.45381 0
M  V30 54965 H 5512.29 -5.45193 5.47709 0
M  V30 54966 H 5510.63 -4.90799 4.92079 0
M  V30 54967 H 5513.82 -3.50466 3.10309 0
M  V30 54968 H 5513.99 -4.68039 4.48156 0
M  V30 54969 N 5507.4 -0.921802 -1.2783 0
M  V30 54970 C 5508.35 -0.406708 -2.29017 0
M  V30 54971 C 5509.34 0.505858 -1.61671 0
M  V30 54972 O 5510.55 0.386212 -1.75808 0
M  V30 54973 H 5506.92 -0.11294 -0.743471 0
M  V30 54974 H 5508.89 -1.27305 -2.69882 0
M  V30 54975 C 5507.64 0.330661 -3.46124 0
M  V30 54976 H 5506.97 -0.362347 -3.98155 0
M  V30 54977 H 5508.41 0.655591 -4.18901 0
M  V30 54978 C 5506.87 1.5415 -2.99565 0
M  V30 54979 O 5507.4 2.64041 -3.02729 0
M  V30 54980 N 5505.6 1.39128 -2.55131 0
M  V30 54981 H 5505.15 0.49723 -2.52756 0
M  V30 54982 H 5505.11 2.2027 -2.2434 0
M  V30 54983 N 5508.88 1.41855 -0.686659 0
M  V30 54984 C 5510.29 1.84438 -0.289727 0
M  V30 54985 C 5510.64 1.57466 1.17042 0
M  V30 54986 O 5509.77 1.04053 1.89742 0
M  V30 54987 C 5510.36 3.348 -0.519066 0
M  V30 54988 C 5508.92 3.75988 -0.17614 0
M  V30 54989 C 5508.07 2.65336 -0.805725 0
M  V30 54990 H 5511.02 1.31533 -0.887967 0
M  V30 54991 H 5511.04 3.79834 0.225075 0
M  V30 54992 H 5510.55 3.54399 -1.58186 0
M  V30 54993 H 5508.65 3.61992 0.882738 0
M  V30 54994 H 5508.76 4.75007 -0.624939 0
M  V30 54995 H 5507.13 2.53604 -0.236055 0
M  V30 54996 H 5507.91 2.87756 -1.8722 0
M  V30 54997 N 5510.36 0.430792 1.51598 0
M  V30 54998 C 5511.63 -0.197475 1.94601 0
M  V30 54999 C 5512.01 -1.60685 1.36907 0
M  V30 55000 O 5511.36 -2.21695 0.5535 0
M  V30 55001 C 5511.57 -0.181854 3.48526 0
M  V30 55002 C 5512.92 -0.390634 4.22799 0
M  V30 55003 O 5513.94 -0.26026 3.55248 0
M  V30 55004 O 5512.8 -0.649511 5.42627 0
M  V30 55005 H 5509.9 -0.133495 0.816154 0
M  V30 55006 H 5512.44 0.4883 1.62523 0
M  V30 55007 H 5511.21 0.803718 3.82957 0
M  V30 55008 H 5510.84 -0.910815 3.87027 0
M  V30 55009 N 5511.83 -1.56766 0.161924 0
M  V30 55010 C 5512.8 -2.16302 -0.758028 0
M  V30 55011 C 5513.8 -1.10863 -1.16474 0
M  V30 55012 O 5514.99 -1.36425 -1.08322 0
M  V30 55013 C 5512.12 -2.73826 -2.03057 0
M  V30 55014 H 5513.31 -2.98939 -0.239887 0
M  V30 55015 H 5510.87 -1.56054 -0.0875984 0
M  V30 55016 H 5511.6 -1.94897 -2.59202 0
M  V30 55017 H 5511.39 -3.5098 -1.74801 0
M  V30 55018 H 5512.88 -3.19647 -2.6873 0
M  V30 55019 N 5513.31 0.11183 -1.57203 0
M  V30 55020 C 5514.22 1.15552 -2.04169 0
M  V30 55021 C 5515.24 1.44895 -0.963405 0
M  V30 55022 O 5516.42 1.55869 -1.27542 0
M  V30 55023 C 5513.48 2.4604 -2.44265 0
M  V30 55024 C 5512.54 2.2403 -3.66209 0
M  V30 55025 C 5511.77 3.48296 -4.04383 0
M  V30 55026 O 5512 4.55883 -3.42823 0
M  V30 55027 O 5510.93 3.38873 -4.97442 0
M  V30 55028 H 5514.76 0.786675 -2.93334 0
M  V30 55029 H 5512.34 0.323145 -1.45863 0
M  V30 55030 H 5514.22 3.22907 -2.70757 0
M  V30 55031 H 5512.9 2.82384 -1.58243 0
M  V30 55032 H 5511.81 1.44998 -3.44857 0
M  V30 55033 H 5513.14 1.92586 -4.52958 0
M  V30 55034 N 5514.79 1.52895 0.38221 0
M  V30 55035 C 5516.04 1.67493 1.12379 0
M  V30 55036 C 5516.35 0.424632 1.90935 0
M  V30 55037 O 5517.56 0.450858 2.6773 0
M  V30 55038 C 5516.02 2.96026 2.04686 0
M  V30 55039 C 5515.62 4.2826 1.3152 0
M  V30 55040 C 5517.37 3.1999 2.78938 0
M  V30 55041 C 5515.27 5.47895 2.22633 0
M  V30 55042 H 5514.2 0.624017 0.423224 0
M  V30 55043 H 5516.86 1.79393 0.386044 0
M  V30 55044 H 5515.24 2.77888 2.82124 0
M  V30 55045 H 5516.41 4.56973 0.59261 0
M  V30 55046 H 5514.73 4.1061 0.692003 0
M  V30 55047 H 5517.32 4.06553 3.47302 0
M  V30 55048 H 5517.67 2.35347 3.43391 0
M  V30 55049 H 5518.2 3.38726 2.0859 0
M  V30 55050 H 5514.94 6.34966 1.62784 0
M  V30 55051 H 5514.46 5.23483 2.92789 0
M  V30 55052 H 5516.14 5.82036 2.82565 0
M  V30 55053 N 5516.27 -0.641055 1.43973 0
M  V30 55054 C 5517.49 -1.43318 1.49915 0
M  V30 55055 C 5517.92 -1.87704 0.121974 0
M  V30 55056 O 5517.28 -1.5813 -0.88682 0
M  V30 55057 C 5517.33 -2.63628 2.46034 0
M  V30 55058 O 5516.43 -3.63116 1.955 0
M  V30 55059 H 5515.77 -0.429234 0.50661 0
M  V30 55060 H 5518.3 -0.78336 1.8901 0
M  V30 55061 H 5518.31 -3.11294 2.63742 0
M  V30 55062 H 5516.99 -2.30666 3.46072 0
M  V30 55063 H 5515.56 -3.22325 1.87512 0
M  V30 55064 N 5517.75 -1.30706 -0.880552 0
M  V30 55065 C 5519.16 -1.17823 -1.44826 0
M  V30 55066 C 5519.51 0.219388 -1.9497 0
M  V30 55067 O 5518.63 1.1164 -1.85379 0
M  V30 55068 C 5519.23 -2.13285 -2.6324 0
M  V30 55069 C 5517.79 -2.04367 -3.16087 0
M  V30 55070 C 5516.94 -2.03115 -1.88785 0
M  V30 55071 H 5519.89 -1.42911 -0.690075 0
M  V30 55072 H 5519.91 -1.71626 -3.39595 0
M  V30 55073 H 5519.42 -3.14996 -2.26714 0
M  V30 55074 H 5517.52 -1.05813 -3.5726 0
M  V30 55075 H 5517.63 -2.92967 -3.79087 0
M  V30 55076 H 5516 -1.47979 -2.07303 0
M  V30 55077 H 5516.78 -3.06564 -1.54511 0
M  V30 55078 N 5519.23 1.09347 -1.13494 0
M  V30 55079 C 5520.47 1.81985 -0.908461 0
M  V30 55080 C 5520.83 1.84089 0.559377 0
M  V30 55081 O 5520.12 1.29871 1.40869 0
M  V30 55082 C 5520.31 3.27493 -1.43119 0
M  V30 55083 C 5520.14 3.39564 -2.94832 0
M  V30 55084 C 5518.91 3.51319 -3.63185 0
M  V30 55085 C 5521.11 3.32026 -3.92764 0
M  V30 55086 N 5519.09 3.52082 -5.02903 0
M  V30 55087 C 5520.46 3.39667 -5.18677 0
M  V30 55088 C 5522.52 3.15699 -3.85018 0
M  V30 55089 C 5521.22 3.32663 -6.37752 0
M  V30 55090 C 5523.25 3.10021 -5.03628 0
M  V30 55091 C 5522.61 3.18255 -6.28405 0
M  V30 55092 H 5518.71 0.680182 -0.385845 0
M  V30 55093 H 5521.29 1.30678 -1.44331 0
M  V30 55094 H 5519.46 3.77267 -0.92325 0
M  V30 55095 H 5521.2 3.88146 -1.14562 0
M  V30 55096 H 5517.95 3.54802 -3.13708 0
M  V30 55097 H 5518.37 3.56046 -5.75813 0
M  V30 55098 H 5523.02 3.08202 -2.89433 0
M  V30 55099 H 5520.73 3.38923 -7.33592 0
M  V30 55100 H 5524.32 2.98522 -4.99376 0
M  V30 55101 H 5523.2 3.13878 -7.18645 0
M  V30 55102 N 5520.7 0.928568 1.2734 0
M  V30 55103 C 5521.94 0.576764 1.96094 0
M  V30 55104 C 5522.31 -0.866014 1.7136 0
M  V30 55105 O 5523.51 -1.32613 2.3381 0
M  V30 55106 C 5521.78 0.894814 3.46017 0
M  V30 55107 S 5523.34 0.651655 4.33934 0
M  V30 55108 H 5520.16 0.212871 0.678386 0
M  V30 55109 H 5522.76 1.19719 1.54556 0
M  V30 55110 H 5521.46 1.94252 3.61517 0
M  V30 55111 H 5520.99 0.263616 3.92516 0
M  V30 55112 H 5523.01 -0.49014 4.93773 0
M  V30 55113 N 5522.18 -1.41489 0.694172 0
M  V30 55114 C 5523.41 -2.0528 0.2332 0
M  V30 55115 C 5523.82 -1.52333 -1.12211 0
M  V30 55116 O 5523.16 -0.66585 -1.71208 0
M  V30 55117 C 5523.22 -3.59326 0.111845 0
M  V30 55118 C 5522.89 -4.35061 1.39897 0
M  V30 55119 C 5523.89 -4.64437 2.33654 0
M  V30 55120 C 5521.57 -4.74358 1.65196 0
M  V30 55121 C 5523.56 -5.3207 3.5097 0
M  V30 55122 C 5521.25 -5.41727 2.82798 0
M  V30 55123 C 5522.25 -5.70511 3.75509 0
M  V30 55124 O 5521.94 -6.36493 4.91051 0
M  V30 55125 H 5521.67 -0.667567 0.106442 0
M  V30 55126 H 5524.22 -1.82273 0.946884 0
M  V30 55127 H 5522.45 -3.81068 -0.657596 0
M  V30 55128 H 5524.14 -4.04701 -0.311764 0
M  V30 55129 H 5524.91 -4.3456 2.15365 0
M  V30 55130 H 5520.79 -4.51336 0.938969 0
M  V30 55131 H 5524.33 -5.54453 4.23352 0
M  V30 55132 H 5520.23 -5.71023 3.01004 0
M  V30 55133 H 5521 -6.54989 4.90848 0
M  V30 55134 N 5523.66 -0.438826 -1.51367 0
M  V30 55135 C 5524.89 0.125774 -2.06517 0
M  V30 55136 C 5525.3 1.36332 -1.3061 0
M  V30 55137 O 5524.66 1.7879 -0.366092 0
M  V30 55138 C 5524.71 0.446493 -3.58732 0
M  V30 55139 O 5524.43 -0.741933 -4.31772 0
M  V30 55140 C 5525.93 1.0616 -4.30401 0
M  V30 55141 H 5523.15 0.00726509 -0.670961 0
M  V30 55142 H 5525.7 -0.618336 -1.94928 0
M  V30 55143 H 5523.85 1.14051 -3.70231 0
M  V30 55144 H 5524.27 -0.46709 -5.22416 0
M  V30 55145 H 5525.74 1.236 -5.37984 0
M  V30 55146 H 5526.22 2.04303 -3.88789 0
M  V30 55147 H 5526.82 0.406931 -4.23349 0
M  V30 55148 N 5525.14 1.56678 -0.170236 0
M  V30 55149 C 5526.07 2.1375 0.799128 0
M  V30 55150 C 5527.05 1.06729 1.22669 0
M  V30 55151 O 5528.23 1.34699 1.31866 0
M  V30 55152 C 5525.36 2.67618 2.07601 0
M  V30 55153 C 5524.41 3.87001 1.79256 0
M  V30 55154 S 5525.24 5.26774 0.962766 0
M  V30 55155 C 5526.39 5.84047 2.25034 0
M  V30 55156 H 5526.63 2.95639 0.313872 0
M  V30 55157 H 5524.16 1.54336 0.0444165 0
M  V30 55158 H 5526.12 2.99301 2.80943 0
M  V30 55159 H 5524.78 1.85817 2.5324 0
M  V30 55160 H 5523.97 4.23016 2.73996 0
M  V30 55161 H 5523.57 3.56199 1.1401 0
M  V30 55162 H 5525.87 5.96895 3.20504 0
M  V30 55163 H 5526.81 6.81152 1.93489 0
M  V30 55164 H 5527.22 5.12457 2.36745 0
M  V30 55165 N 5526.62 -0.103492 1.5726 0
M  V30 55166 C 5527.89 -0.839706 1.76659 0
M  V30 55167 C 5528.27 -1.97338 0.749735 0
M  V30 55168 O 5527.62 -2.27405 -0.223386 0
M  V30 55169 C 5527.83 -1.34206 3.22164 0
M  V30 55170 C 5529.18 -1.78821 3.85108 0
M  V30 55171 O 5530.2 -1.43849 3.25862 0
M  V30 55172 O 5529.06 -2.43457 4.89276 0
M  V30 55173 H 5526.16 -0.399902 0.723883 0
M  V30 55174 H 5528.7 -0.0860262 1.69482 0
M  V30 55175 H 5527.47 -0.529423 3.87702 0
M  V30 55176 H 5527.1 -2.158 3.3394 0
M  V30 55177 N 5528.09 -1.53096 -0.374097 0
M  V30 55178 C 5529.51 -1.60645 -0.951325 0
M  V30 55179 C 5529.86 -0.468541 -1.90523 0
M  V30 55180 O 5528.98 0.406272 -2.12552 0
M  V30 55181 C 5529.58 -2.91172 -1.73217 0
M  V30 55182 C 5528.14 -3.01084 -2.25887 0
M  V30 55183 C 5527.28 -2.55877 -1.06876 0
M  V30 55184 H 5530.23 -1.57959 -0.153158 0
M  V30 55185 H 5530.25 -2.78496 -2.59268 0
M  V30 55186 H 5529.77 -3.73971 -1.03765 0
M  V30 55187 H 5527.87 -2.22855 -2.98608 0
M  V30 55188 H 5527.98 -4.06007 -2.54353 0
M  V30 55189 H 5526.34 -2.10549 -1.43322 0
M  V30 55190 H 5527.13 -3.41085 -0.38935 0
M  V30 55191 N 5529.57 0.633411 -1.44311 0
M  V30 55192 C 5530.52 1.76668 -1.51298 0
M  V30 55193 C 5531.51 1.6497 -0.384865 0
M  V30 55194 O 5532.72 1.71077 -0.559713 0
M  V30 55195 H 5529.1 0.583221 -0.474718 0
M  V30 55196 H 5531.07 1.67898 -2.46683 0
M  V30 55197 C 5529.82 3.14996 -1.47216 0
M  V30 55198 H 5529.14 3.24645 -2.33336 0
M  V30 55199 H 5530.58 3.94194 -1.56165 0
M  V30 55200 C 5529.04 3.36349 -0.192582 0
M  V30 55201 O 5529.57 3.9486 0.738147 0
M  V30 55202 N 5527.77 2.9044 -0.0964445 0
M  V30 55203 H 5527.32 2.43008 -0.854676 0
M  V30 55204 H 5527.28 3.05102 0.758954 0
M  V30 55205 N 5531.05 1.31171 0.873608 0
M  V30 55206 C 5532.3 1.20826 1.62877 0
M  V30 55207 C 5532.63 -0.233926 1.92786 0
M  V30 55208 O 5531.9 -1.16583 1.55688 0
M  V30 55209 C 5532.19 2.04885 2.96132 0
M  V30 55210 C 5532.04 3.57384 2.73124 0
M  V30 55211 C 5533.36 1.89544 3.97191 0
M  V30 55212 H 5530.48 0.440281 0.591034 0
M  V30 55213 H 5533.12 1.60923 1.01013 0
M  V30 55214 H 5531.27 1.70819 3.48932 0
M  V30 55215 H 5532.94 4.01569 2.27024 0
M  V30 55216 H 5531.19 3.80997 2.07421 0
M  V30 55217 H 5531.86 4.11503 3.67925 0
M  V30 55218 H 5534.33 2.1935 3.53589 0
M  V30 55219 H 5533.21 2.50667 4.88321 0
M  V30 55220 H 5533.47 0.857728 4.337 0
M  V30 55221 N 5532.53 -1.08744 1.14072 0
M  V30 55222 C 5533.94 -1.33122 0.880388 0
M  V30 55223 C 5534.14 -1.95691 -0.480327 0
M  V30 55224 O 5533.2 -2.20774 -1.22535 0
M  V30 55225 C 5534.51 -2.23611 2.01044 0
M  V30 55226 C 5536.06 -2.371 2.04334 0
M  V30 55227 C 5536.54 -3.3093 3.16622 0
M  V30 55228 N 5538.03 -3.38505 3.16178 0
M  V30 55229 C 5538.76 -4.11128 3.99702 0
M  V30 55230 N 5538.26 -4.86487 4.93256 0
M  V30 55231 N 5540.05 -4.06924 3.87775 0
M  V30 55232 H 5532.2 -0.665093 2.01718 0
M  V30 55233 H 5534.47 -0.355581 0.878787 0
M  V30 55234 H 5534.17 -1.84874 2.9919 0
M  V30 55235 H 5534.05 -3.24049 1.9306 0
M  V30 55236 H 5536.43 -2.75097 1.06797 0
M  V30 55237 H 5536.51 -1.36417 2.16389 0
M  V30 55238 H 5536.16 -2.93655 4.14402 0
M  V30 55239 H 5536.09 -4.31534 3.01804 0
M  V30 55240 H 5538.58 -2.84777 2.48415 0
M  V30 55241 H 5538.89 -5.39353 5.5346 0
M  V30 55242 H 5537.24 -4.85552 4.97257 0
M  V30 55243 H 5540.43 -3.47155 3.14008 0
M  V30 55244 H 5540.6 -4.63259 4.53095 0
M  V30 55245 N 5534.01 -0.935308 -1.26845 0
M  V30 55246 C 5535.25 -0.590125 -1.94651 0
M  V30 55247 C 5535.61 0.86042 -1.72089 0
M  V30 55248 O 5534.9 1.60668 -1.04385 0
M  V30 55249 C 5535.09 -0.86122 -3.46869 0
M  V30 55250 C 5534.92 -2.33657 -3.84233 0
M  V30 55251 C 5533.69 -2.99066 -4.07293 0
M  V30 55252 C 5535.89 -3.31464 -3.93238 0
M  V30 55253 N 5533.87 -4.36674 -4.31496 0
M  V30 55254 C 5535.24 -4.54309 -4.21905 0
M  V30 55255 C 5537.3 -3.26568 -3.75842 0
M  V30 55256 C 5536 -5.7287 -4.34986 0
M  V30 55257 C 5538.03 -4.44449 -3.90153 0
M  V30 55258 C 5537.39 -5.66074 -4.19213 0
M  V30 55259 H 5533.49 -0.266208 -0.735294 0
M  V30 55260 H 5536.07 -1.2035 -1.53049 0
M  V30 55261 H 5534.24 -0.276939 -3.87411 0
M  V30 55262 H 5535.98 -0.477898 -4.01868 0
M  V30 55263 H 5532.73 -2.49706 -4.02422 0
M  V30 55264 H 5533.16 -5.07885 -4.47641 0
M  V30 55265 H 5537.8 -2.33598 -3.52409 0
M  V30 55266 H 5535.52 -6.66299 -4.57243 0
M  V30 55267 H 5539.1 -4.42187 -3.78103 0
M  V30 55268 H 5537.98 -6.55768 -4.30044 0
M  V30 55269 N 5535.48 1.41118 -0.701666 0
M  V30 55270 C 5536.39 2.34564 -0.040864 0
M  V30 55271 C 5537.41 1.56558 0.759315 0
M  V30 55272 O 5538.59 1.89011 0.695476 0
M  V30 55273 C 5535.65 3.3535 0.879836 0
M  V30 55274 C 5534.71 4.29241 0.071177 0
M  V30 55275 C 5533.95 5.25212 0.948027 0
M  V30 55276 O 5534.17 5.26788 2.18747 0
M  V30 55277 O 5533.1 6.00606 0.394446 0
M  V30 55278 H 5536.93 2.92663 -0.811291 0
M  V30 55279 H 5534.51 1.42076 -0.462041 0
M  V30 55280 H 5536.4 3.97195 1.40762 0
M  V30 55281 H 5535.07 2.79686 1.62965 0
M  V30 55282 H 5533.98 3.70725 -0.50135 0
M  V30 55283 H 5535.31 4.8802 -0.640106 0
M  V30 55284 N 5536.96 0.446847 1.51133 0
M  V30 55285 C 5538.19 -0.114654 2.06282 0
M  V30 55286 C 5538.6 -1.36187 1.31338 0
M  V30 55287 O 5537.94 -1.79955 0.369045 0
M  V30 55288 C 5538.01 -0.492843 3.56106 0
M  V30 55289 C 5537.67 0.648914 4.52369 0
M  V30 55290 C 5538.67 1.52387 4.97066 0
M  V30 55291 C 5536.35 0.832351 4.95356 0
M  V30 55292 C 5538.35 2.56687 5.8343 0
M  V30 55293 C 5536.03 1.87862 5.81508 0
M  V30 55294 C 5537.03 2.74426 6.25443 0
M  V30 55295 O 5536.72 3.77255 7.09883 0
M  V30 55296 H 5536.45 -0.00711423 0.675963 0
M  V30 55297 H 5539 0.627521 1.95579 0
M  V30 55298 H 5537.23 -1.28786 3.64625 0
M  V30 55299 H 5538.92 -0.9866 3.93727 0
M  V30 55300 H 5539.69 1.39373 4.64543 0
M  V30 55301 H 5535.57 0.168116 4.60693 0
M  V30 55302 H 5539.11 3.24286 6.17644 0
M  V30 55303 H 5535.01 2.00892 6.13443 0
M  V30 55304 H 5535.78 3.7395 7.28082 0
M  V30 55305 N 5538.44 -1.56585 0.178542 0
M  V30 55306 C 5539.68 -1.98996 -0.466917 0
M  V30 55307 C 5540.04 -1.06235 -1.59932 0
M  V30 55308 O 5541.25 -1.37814 -2.30783 0
M  V30 55309 C 5539.52 -3.45067 -0.930778 0
M  V30 55310 S 5541.08 -4.09506 -1.5764 0
M  V30 55311 H 5537.89 -0.695012 -0.149931 0
M  V30 55312 H 5540.5 -1.93518 0.277708 0
M  V30 55313 H 5539.2 -4.10287 -0.0963033 0
M  V30 55314 H 5538.73 -3.54327 -1.70927 0
M  V30 55315 H 5540.75 -4.05149 -2.86476 0
M  V30 55316 N 5539.92 0.0951507 -1.57313 0
M  V30 55317 C 5540.87 1.13431 -2.03067 0
M  V30 55318 C 5541.86 1.41475 -0.931729 0
M  V30 55319 O 5543.07 1.41157 -1.11691 0
M  V30 55320 H 5539.44 0.38302 -0.647148 0
M  V30 55321 H 5541.41 0.722084 -2.89532 0
M  V30 55322 C 5540.16 2.44632 -2.47084 0
M  V30 55323 H 5539.48 2.23897 -3.31226 0
M  V30 55324 H 5540.92 3.15845 -2.82874 0
M  V30 55325 C 5539.38 3.08926 -1.3441 0
M  V30 55326 O 5539.91 3.96019 -0.67321 0
M  V30 55327 N 5538.12 2.69176 -1.0951 0
M  V30 55328 H 5537.67 1.98446 -1.64247 0
M  V30 55329 H 5537.62 3.12521 -0.34322 0
M  V30 55330 N 5541.4 1.53292 0.365972 0
M  V30 55331 C 5542.33 1.8268 1.45431 0
M  V30 55332 C 5543.31 0.680282 1.55904 0
M  V30 55333 O 5544.49 0.930092 1.70479 0
M  V30 55334 C 5541.62 2.01636 2.82773 0
M  V30 55335 C 5540.58 3.17402 2.87124 0
M  V30 55336 C 5539.9 3.21649 4.27137 0
M  V30 55337 C 5541.2 4.55999 2.54681 0
M  V30 55338 H 5542.9 2.73822 1.21086 0
M  V30 55339 H 5540.44 1.31756 0.581062 0
M  V30 55340 H 5542.4 2.20778 3.58936 0
M  V30 55341 H 5541.12 1.07204 3.08504 0
M  V30 55342 H 5539.78 2.98079 2.13412 0
M  V30 55343 H 5539.43 2.24856 4.49943 0
M  V30 55344 H 5539.13 3.99429 4.30964 0
M  V30 55345 H 5540.65 3.42975 5.05174 0
M  V30 55346 H 5542.06 4.75305 3.20558 0
M  V30 55347 H 5540.46 5.36017 2.69825 0
M  V30 55348 H 5541.53 4.61138 1.49933 0
M  V30 55349 N 5542.88 -0.625749 1.44645 0
M  V30 55350 C 5544.1 -1.41228 1.51203 0
M  V30 55351 C 5544.52 -1.8829 0.138638 0
M  V30 55352 O 5543.88 -1.61154 -0.85648 0
M  V30 55353 C 5543.93 -2.62899 2.48126 0
M  V30 55354 O 5543.65 -2.17797 3.80127 0
M  V30 55355 C 5545.15 -3.55966 2.64202 0
M  V30 55356 H 5542.37 -0.432936 0.512647 0
M  V30 55357 H 5544.91 -0.764793 1.89661 0
M  V30 55358 H 5543.07 -3.23727 2.12789 0
M  V30 55359 H 5543.48 -2.96717 4.32503 0
M  V30 55360 H 5544.96 -4.37931 3.36036 0
M  V30 55361 H 5545.43 -4.05127 1.69615 0
M  V30 55362 H 5546.04 -3.01003 3.00462 0
M  V30 55363 N 5544.35 -1.31632 -0.86664 0
M  V30 55364 C 5545.29 -1.15384 -1.98038 0
M  V30 55365 C 5546.3 -0.0920204 -1.6254 0
M  V30 55366 O 5547.49 -0.339836 -1.75235 0
M  V30 55367 C 5544.59 -0.741412 -3.30691 0
M  V30 55368 C 5543.76 -1.88895 -3.94509 0
M  V30 55369 C 5542.82 -1.46204 -5.05481 0
M  V30 55370 O 5541.85 -2.17221 -5.26121 0
M  V30 55371 N 5543.05 -0.3513 -5.79436 0
M  V30 55372 H 5545.81 -2.11316 -2.12522 0
M  V30 55373 H 5543.37 -1.24011 -1.04081 0
M  V30 55374 H 5545.37 -0.438455 -4.02318 0
M  V30 55375 H 5543.94 0.1264 -3.12344 0
M  V30 55376 H 5543.16 -2.35905 -3.1582 0
M  V30 55377 H 5544.44 -2.6575 -4.33883 0
M  V30 55378 H 5543.84 0.240046 -5.6519 0
M  V30 55379 H 5542.4 -0.107892 -6.51711 0
M  V30 55380 N 5545.83 1.08138 -1.14647 0
M  V30 55381 C 5547.07 1.8218 -0.926811 0
M  V30 55382 C 5547.44 1.84342 0.536855 0
M  V30 55383 O 5548.64 2.54175 0.874561 0
M  V30 55384 C 5546.91 3.23721 -1.51458 0
M  V30 55385 S 5548.47 4.14607 -1.43688 0
M  V30 55386 H 5545.28 0.627803 -0.333743 0
M  V30 55387 H 5547.89 1.29963 -1.46048 0
M  V30 55388 H 5546.59 3.19732 -2.57293 0
M  V30 55389 H 5546.12 3.81013 -0.979423 0
M  V30 55390 H 5548.14 4.94383 -0.424279 0
M  V30 55391 N 5547.31 0.942022 1.26348 0
M  V30 55392 C 5548.72 0.632584 1.75657 0
M  V30 55393 C 5549.07 -0.852225 1.76725 0
M  V30 55394 O 5548.2 -1.66696 1.37991 0
M  V30 55395 C 5548.79 1.14156 3.18989 0
M  V30 55396 C 5547.35 0.88252 3.65908 0
M  V30 55397 C 5546.5 1.29198 2.45363 0
M  V30 55398 H 5549.45 1.12023 1.12412 0
M  V30 55399 H 5549.47 0.495772 3.77256 0
M  V30 55400 H 5548.98 2.22224 3.1818 0
M  V30 55401 H 5547.08 -0.183742 3.72147 0
M  V30 55402 H 5547.2 1.51012 4.54678 0
M  V30 55403 H 5545.56 0.710402 2.44592 0
M  V30 55404 H 5546.34 2.3816 2.47254 0
M  V30 55405 N 5548.79 -1.40744 0.70914 0
M  V30 55406 C 5550.03 -2.01299 0.246245 0
M  V30 55407 C 5550.37 -1.56082 -1.15551 0
M  V30 55408 O 5549.64 -0.778004 -1.78262 0
M  V30 55409 C 5549.92 -3.58684 0.319072 0
M  V30 55410 C 5549.78 -4.13991 1.75874 0
M  V30 55411 C 5551.1 -4.38983 -0.313426 0
M  V30 55412 H 5548.22 -0.731366 0.0909512 0
M  V30 55413 H 5550.86 -1.67309 0.900424 0
M  V30 55414 H 5549.01 -3.87771 -0.237913 0
M  V30 55415 H 5550.68 -3.95727 2.37061 0
M  V30 55416 H 5548.92 -3.68522 2.28854 0
M  V30 55417 H 5549.59 -5.23152 1.76113 0
M  V30 55418 H 5552.07 -4.15788 0.161085 0
M  V30 55419 H 5550.95 -5.4841 -0.231991 0
M  V30 55420 H 5551.21 -4.19479 -1.39606 0
M  V30 55421 N 5550.27 -0.454856 -1.50893 0
M  V30 55422 C 5551.49 0.103863 -2.06639 0
M  V30 55423 C 5551.91 1.34939 -1.32049 0
M  V30 55424 O 5551.27 1.78392 -0.385035 0
M  V30 55425 C 5551.32 0.40842 -3.59185 0
M  V30 55426 O 5551.04 -0.787686 -4.30961 0
M  V30 55427 C 5552.54 1.01589 -4.31503 0
M  V30 55428 H 5549.76 0.00014825 -0.671 0
M  V30 55429 H 5552.3 -0.638976 -1.94261 0
M  V30 55430 H 5550.46 1.10117 -3.7142 0
M  V30 55431 H 5550.87 -0.522473 -5.21891 0
M  V30 55432 H 5552.35 1.17887 -5.39265 0
M  V30 55433 H 5552.82 2.00168 -3.90934 0
M  V30 55434 H 5553.43 0.362006 -4.23757 0
M  V30 55435 N 5551.74 1.56489 -0.186844 0
M  V30 55436 C 5552.65 2.22307 0.749464 0
M  V30 55437 C 5553.67 1.21953 1.2411 0
M  V30 55438 O 5554.85 1.54665 1.28999 0
M  V30 55439 C 5551.91 2.86307 1.95522 0
M  V30 55440 C 5550.97 4.01907 1.50896 0
M  V30 55441 C 5550.2 4.62846 2.65724 0
M  V30 55442 O 5550.43 4.22695 3.82995 0
M  V30 55443 O 5549.36 5.52454 2.38909 0
M  V30 55444 H 5553.19 3.0291 0.218974 0
M  V30 55445 H 5550.77 1.49341 0.0420724 0
M  V30 55446 H 5552.65 3.26829 2.66009 0
M  V30 55447 H 5551.33 2.0869 2.47448 0
M  V30 55448 H 5550.24 3.66024 0.773132 0
M  V30 55449 H 5551.57 4.81164 1.03646 0
M  V30 55450 N 5553.22 -0.0868067 1.57361 0
M  V30 55451 C 5554.45 -0.80595 1.911 0
M  V30 55452 C 5554.87 -1.71079 0.78189 0
M  V30 55453 O 5554.23 -1.79336 -0.266112 0
M  V30 55454 C 5554.28 -1.58829 3.23737 0
M  V30 55455 O 5553.38 -2.69787 3.11911 0
M  V30 55456 H 5552.72 -0.220877 0.626186 0
M  V30 55457 H 5555.25 -0.0595471 2.04513 0
M  V30 55458 H 5555.26 -1.97075 3.57247 0
M  V30 55459 H 5553.94 -0.924284 4.05499 0
M  V30 55460 H 5552.51 -2.34508 2.89931 0
M  V30 55461 N 5554.7 -1.53484 -0.357838 0
M  V30 55462 C 5555.92 -1.74268 -1.12452 0
M  V30 55463 C 5556.35 -0.474008 -1.8203 0
M  V30 55464 O 5555.71 0.57247 -1.72025 0
M  V30 55465 C 5555.76 -2.91364 -2.12461 0
M  V30 55466 O 5554.86 -2.60513 -3.19698 0
M  V30 55467 H 5554.2 -0.57851 -0.325917 0
M  V30 55468 H 5556.73 -2.00397 -0.412595 0
M  V30 55469 H 5556.74 -3.17749 -2.55929 0
M  V30 55470 H 5555.42 -3.83384 -1.61213 0
M  V30 55471 H 5553.99 -2.44971 -2.81147 0
M  V30 55472 N 5556.18 0.618069 -1.44975 0
M  V30 55473 C 5557.42 1.37939 -1.48663 0
M  V30 55474 C 5557.76 1.93805 -0.123817 0
M  V30 55475 O 5557.03 1.74437 0.860339 0
M  V30 55476 C 5557.31 2.53506 -2.55748 0
M  V30 55477 C 5557.17 2.02904 -4.01435 0
M  V30 55478 C 5558.49 3.55665 -2.59212 0
M  V30 55479 H 5555.61 0.500204 -0.541262 0
M  V30 55480 H 5558.25 0.697678 -1.76727 0
M  V30 55481 H 5556.4 3.1166 -2.31948 0
M  V30 55482 H 5558.07 1.49479 -4.3641 0
M  V30 55483 H 5556.31 1.33984 -4.1259 0
M  V30 55484 H 5556.98 2.86165 -4.72032 0
M  V30 55485 H 5559.46 3.07333 -2.8051 0
M  V30 55486 H 5558.34 4.3403 -3.3602 0
M  V30 55487 H 5558.6 4.10595 -1.63902 0
M  V30 55488 N 5557.66 1.3209 0.859647 0
M  V30 55489 C 5558.59 1.23211 1.98346 0
M  V30 55490 C 5559.57 0.117033 1.69697 0
M  V30 55491 O 5560.75 0.303369 1.91816 0
M  V30 55492 C 5557.88 0.949288 3.34075 0
M  V30 55493 C 5556.84 2.02506 3.77061 0
M  V30 55494 C 5556.16 1.59473 5.10365 0
M  V30 55495 C 5557.46 3.43948 3.93062 0
M  V30 55496 H 5559.16 2.17235 2.06033 0
M  V30 55497 H 5556.7 1.04581 0.989894 0
M  V30 55498 H 5558.66 0.873739 4.12242 0
M  V30 55499 H 5557.38 -0.0265947 3.26589 0
M  V30 55500 H 5556.04 2.09068 3.01142 0
M  V30 55501 H 5555.69 0.606432 4.99331 0
M  V30 55502 H 5555.39 2.31448 5.40098 0
M  V30 55503 H 5556.91 1.53346 5.91031 0
M  V30 55504 H 5558.32 3.40003 4.61596 0
M  V30 55505 H 5556.72 4.14229 4.34206 0
M  V30 55506 H 5557.79 3.83975 2.96127 0
M  V30 55507 N 5559.13 -1.07528 1.15219 0
M  V30 55508 C 5560.1 -2.12857 0.849965 0
M  V30 55509 C 5561.1 -1.60104 -0.149467 0
M  V30 55510 O 5562.29 -1.74016 0.079953 0
M  V30 55511 C 5559.42 -3.39839 0.268736 0
M  V30 55512 H 5560.61 -2.411 1.78356 0
M  V30 55513 H 5558.17 -1.23388 0.959429 0
M  V30 55514 H 5558.9 -3.17237 -0.673138 0
M  V30 55515 H 5558.69 -3.79429 0.988725 0
M  V30 55516 H 5560.18 -4.17533 0.0748021 0
M  V30 55517 N 5560.61 -0.948709 -1.25846 0
M  V30 55518 C 5561.84 -0.617298 -1.97477 0
M  V30 55519 C 5562.26 0.809346 -1.70573 0
M  V30 55520 O 5561.61 1.54063 -0.978314 0
M  V30 55521 C 5561.66 -0.859189 -3.51141 0
M  V30 55522 O 5561.38 -2.22973 -3.77114 0
M  V30 55523 C 5562.89 -0.539352 -4.40007 0
M  V30 55524 H 5560.11 -0.231955 -0.629633 0
M  V30 55525 H 5562.65 -1.27147 -1.60168 0
M  V30 55526 H 5560.8 -0.251515 -3.86583 0
M  V30 55527 H 5561.22 -2.29541 -4.71605 0
M  V30 55528 H 5562.69 -0.759179 -5.46754 0
M  V30 55529 H 5563.17 0.525908 -4.3604 0
M  V30 55530 H 5563.78 -1.12608 -4.10121 0
M  V30 55531 N 5562.09 1.40366 -0.716594 0
M  V30 55532 C 5563.32 2.05703 -0.264801 0
M  V30 55533 C 5563.74 1.53638 1.08522 0
M  V30 55534 O 5563.1 0.67218 1.68379 0
M  V30 55535 C 5563.15 3.59691 -0.255904 0
M  V30 55536 O 5562.25 4.05289 0.762543 0
M  V30 55537 H 5561.59 0.652297 -0.124115 0
M  V30 55538 H 5564.12 1.79747 -0.977358 0
M  V30 55539 H 5564.13 4.07892 -0.0939378 0
M  V30 55540 H 5562.81 3.96951 -1.24109 0
M  V30 55541 H 5561.38 3.68545 0.568218 0
M  V30 55542 N 5563.57 0.462852 1.5065 0
M  V30 55543 C 5564.8 -0.0929034 2.06691 0
M  V30 55544 C 5565.21 -1.34237 1.32763 0
M  V30 55545 O 5564.57 -1.78185 0.39449 0
M  V30 55546 C 5564.62 -0.389366 3.59397 0
M  V30 55547 O 5564.34 0.81053 4.30537 0
M  V30 55548 C 5565.84 -0.992996 4.32035 0
M  V30 55549 H 5563.06 0.00341023 0.670991 0
M  V30 55550 H 5565.61 0.649269 1.93919 0
M  V30 55551 H 5563.76 -1.08146 3.71999 0
M  V30 55552 H 5564.17 0.550143 5.21607 0
M  V30 55553 H 5565.65 -1.15025 5.39883 0
M  V30 55554 H 5566.13 -1.98092 3.9199 0
M  V30 55555 H 5566.73 -0.339528 4.23943 0
M  V30 55556 N 5565.05 -1.56387 0.19514 0
M  V30 55557 C 5566.01 -2.17861 -0.711976 0
M  V30 55558 C 5567.01 -1.13308 -1.14096 0
M  V30 55559 O 5568.2 -1.38692 -1.05404 0
M  V30 55560 C 5565.33 -2.78071 -1.97203 0
M  V30 55561 H 5566.52 -2.99381 -0.176423 0
M  V30 55562 H 5564.08 -1.56205 -0.0544772 0
M  V30 55563 H 5564.81 -2.00351 -2.5501 0
M  V30 55564 H 5564.6 -3.54609 -1.67316 0
M  V30 55565 H 5566.09 -3.25275 -2.61889 0
M  V30 55566 N 5566.52 0.0784603 -1.57405 0
M  V30 55567 C 5567.77 0.780026 -1.87199 0
M  V30 55568 C 5568.1 1.77559 -0.786532 0
M  V30 55569 O 5567.38 1.93429 0.203867 0
M  V30 55570 C 5567.66 1.49396 -3.27647 0
M  V30 55571 C 5567.51 0.515259 -4.46839 0
M  V30 55572 C 5568.83 2.44051 -3.66234 0
M  V30 55573 H 5565.95 0.28211 -0.680869 0
M  V30 55574 H 5568.59 0.0433258 -1.89951 0
M  V30 55575 H 5566.74 2.12193 -3.25432 0
M  V30 55576 H 5568.42 -0.106989 -4.61176 0
M  V30 55577 H 5566.66 -0.169984 -4.33467 0
M  V30 55578 H 5567.33 1.05228 -5.41877 0
M  V30 55579 H 5569.81 1.91336 -3.69499 0
M  V30 55580 H 5568.68 2.91012 -4.65406 0
M  V30 55581 H 5568.94 3.28558 -2.95807 0
M  V30 55582 N 5568 1.53671 0.349693 0
M  V30 55583 C 5569.23 1.74862 1.11526 0
M  V30 55584 C 5569.65 0.483655 1.81776 0
M  V30 55585 O 5569.01 -0.563339 1.72326 0
M  V30 55586 C 5569.06 2.92486 2.10913 0
M  V30 55587 O 5568.16 2.62205 3.18312 0
M  V30 55588 H 5567.5 0.580231 0.322844 0
M  V30 55589 H 5570.03 2.00613 0.401962 0
M  V30 55590 H 5570.04 3.19102 2.5424 0
M  V30 55591 H 5568.72 3.84234 1.59177 0
M  V30 55592 H 5567.3 2.46458 2.79844 0
M  V30 55593 N 5569.48 -0.610372 1.453 0
M  V30 55594 C 5570.39 -1.74958 1.56291 0
M  V30 55595 C 5571.41 -1.68147 0.447495 0
M  V30 55596 O 5572.58 -1.88553 0.707791 0
M  V30 55597 C 5569.65 -3.11411 1.52394 0
M  V30 55598 C 5568.71 -3.29697 2.74952 0
M  V30 55599 C 5567.94 -4.5964 2.71231 0
M  V30 55600 O 5568.16 -5.41783 1.78402 0
M  V30 55601 O 5567.1 -4.80578 3.62392 0
M  V30 55602 H 5570.92 -1.68637 2.52577 0
M  V30 55603 H 5568.51 -0.774124 1.2778 0
M  V30 55604 H 5570.39 -3.92714 1.52818 0
M  V30 55605 H 5569.07 -3.1823 0.592584 0
M  V30 55606 H 5567.97 -2.47993 2.8009 0
M  V30 55607 H 5569.31 -3.27753 3.67204 0
M  V30 55608 N 5570.96 -1.32544 -0.85263 0
M  V30 55609 C 5571.89 -1.17478 -1.96803 0
M  V30 55610 C 5572.9 -0.109255 -1.62433 0
M  V30 55611 O 5574.09 -0.358403 -1.74865 0
M  V30 55612 C 5571.19 -0.776444 -3.29886 0
M  V30 55613 C 5570.37 -1.93069 -3.92483 0
M  V30 55614 C 5569.42 -1.51557 -5.03902 0
M  V30 55615 O 5568.45 -2.22789 -5.23788 0
M  V30 55616 N 5569.65 -0.412737 -5.79031 0
M  V30 55617 H 5572.42 -2.13558 -2.10269 0
M  V30 55618 H 5569.98 -1.25108 -1.0276 0
M  V30 55619 H 5571.97 -0.481101 -4.0183 0
M  V30 55620 H 5570.54 0.0932651 -3.12461 0
M  V30 55621 H 5569.76 -2.39242 -3.133 0
M  V30 55622 H 5571.05 -2.70337 -4.3104 0
M  V30 55623 H 5570.45 0.180087 -5.65413 0
M  V30 55624 H 5569 -0.177009 -6.5156 0
M  V30 55625 N 5572.44 1.06915 -1.15788 0
M  V30 55626 C 5573.4 2.12404 -0.861242 0
M  V30 55627 C 5574.4 1.60181 0.140974 0
M  V30 55628 O 5575.59 1.73972 -0.0891803 0
M  V30 55629 C 5572.72 3.39692 -0.286755 0
M  V30 55630 H 5573.92 2.40151 -1.79632 0
M  V30 55631 H 5571.47 1.22878 -0.965959 0
M  V30 55632 H 5572.2 3.1759 0.656305 0
M  V30 55633 H 5571.99 3.789 -1.00883 0
M  V30 55634 H 5573.48 4.17487 -0.0969439 0
M  V30 55635 N 5573.92 0.95537 1.25341 0
M  V30 55636 C 5575.33 0.651179 1.74976 0
M  V30 55637 C 5575.68 -0.833433 1.77619 0
M  V30 55638 O 5574.8 -1.65223 1.39751 0
M  V30 55639 C 5575.4 1.17533 3.1776 0
M  V30 55640 C 5573.96 0.92128 3.64951 0
M  V30 55641 C 5573.1 1.31793 2.43979 0
M  V30 55642 H 5576.05 1.13209 1.11218 0
M  V30 55643 H 5576.08 0.535757 3.76709 0
M  V30 55644 H 5575.59 2.25586 3.15805 0
M  V30 55645 H 5573.69 -0.144261 3.72321 0
M  V30 55646 H 5573.8 1.55826 4.53051 0
M  V30 55647 H 5572.17 0.736305 2.43825 0
M  V30 55648 H 5572.95 2.40769 2.44714 0
M  V30 55649 N 5575.39 -1.39984 0.724028 0
M  V30 55650 C 5576.62 -2.05036 0.277092 0
M  V30 55651 C 5577.04 -1.54569 -1.08416 0
M  V30 55652 O 5576.39 -0.705854 -1.68297 0
M  V30 55653 C 5576.44 -3.60581 0.257637 0
M  V30 55654 O 5576.17 -4.09188 1.56514 0
M  V30 55655 C 5577.67 -4.42817 -0.206816 0
M  V30 55656 H 5574.89 -0.659633 0.122986 0
M  V30 55657 H 5577.43 -1.79237 0.984603 0
M  V30 55658 H 5575.59 -3.8532 -0.400901 0
M  V30 55659 H 5576 -5.03441 1.47129 0
M  V30 55660 H 5577.47 -5.5174 -0.169276 0
M  V30 55661 H 5577.95 -4.21027 -1.25031 0
M  V30 55662 H 5578.56 -4.23204 0.421753 0
M  V30 55663 N 5576.87 -0.470835 -1.50402 0
M  V30 55664 C 5577.78 0.328795 -2.32285 0
M  V30 55665 C 5578.8 0.996239 -1.42657 0
M  V30 55666 O 5579.97 0.984269 -1.7571 0
M  V30 55667 C 5577.04 1.39664 -3.17325 0
M  V30 55668 C 5576.1 0.745816 -4.22772 0
M  V30 55669 C 5575.33 1.76278 -5.03748 0
M  V30 55670 O 5575.56 2.98925 -4.85798 0
M  V30 55671 O 5574.49 1.33475 -5.86914 0
M  V30 55672 H 5578.32 -0.340597 -3.01784 0
M  V30 55673 H 5575.9 -0.232689 -1.47577 0
M  V30 55674 H 5577.78 2.01517 -3.70093 0
M  V30 55675 H 5576.46 2.0495 -2.50554 0
M  V30 55676 H 5575.36 0.0883333 -3.73996 0
M  V30 55677 H 5576.7 0.135901 -4.92012 0
M  V30 55678 N 5578.35 1.56282 -0.203431 0
M  V30 55679 C 5579.28 2.16717 0.746084 0
M  V30 55680 C 5580.29 1.13125 1.17075 0
M  V30 55681 O 5581.48 1.40182 1.10504 0
M  V30 55682 C 5578.58 2.72122 2.01997 0
M  V30 55683 C 5577.76 4.00701 1.75377 0
M  V30 55684 C 5576.82 4.4085 2.87295 0
M  V30 55685 O 5575.84 5.08109 2.56543 0
M  V30 55686 N 5577.04 4.05038 4.15842 0
M  V30 55687 H 5579.81 2.98822 0.22922 0
M  V30 55688 H 5577.37 1.61885 -0.0217618 0
M  V30 55689 H 5579.36 2.9596 2.76024 0
M  V30 55690 H 5577.93 1.94423 2.44782 0
M  V30 55691 H 5577.15 3.84908 0.850865 0
M  V30 55692 H 5578.44 4.84616 1.55 0
M  V30 55693 H 5577.84 3.50954 4.43675 0
M  V30 55694 H 5576.39 4.33809 4.8647 0
M  V30 55695 N 5579.83 -0.0701116 1.57444 0
M  V30 55696 C 5581.05 -0.785636 1.91944 0
M  V30 55697 C 5581.48 -1.7024 0.799991 0
M  V30 55698 O 5580.84 -1.79609 -0.247076 0
M  V30 55699 C 5580.88 -1.55386 3.25403 0
M  V30 55700 O 5579.99 -2.66464 3.14755 0
M  V30 55701 H 5579.33 -0.214223 0.628494 0
M  V30 55702 H 5581.86 -0.0378524 2.04565 0
M  V30 55703 H 5581.87 -1.93275 3.59317 0
M  V30 55704 H 5580.54 -0.881223 4.06457 0
M  V30 55705 H 5579.12 -2.3142 2.92402 0
M  V30 55706 N 5581.31 -1.53855 -0.341539 0
M  V30 55707 C 5582.72 -1.62626 -0.917036 0
M  V30 55708 C 5583.07 -0.508848 -1.89487 0
M  V30 55709 O 5582.19 0.361096 -2.13366 0
M  V30 55710 C 5582.79 -2.94781 -1.67002 0
M  V30 55711 C 5581.35 -3.05808 -2.1945 0
M  V30 55712 C 5580.49 -2.58086 -1.01424 0
M  V30 55713 H 5583.44 -1.58249 -0.119618 0
M  V30 55714 H 5583.47 -2.83933 -2.53303 0
M  V30 55715 H 5582.98 -3.76088 -0.958089 0
M  V30 55716 H 5581.08 -2.29139 -2.93813 0
M  V30 55717 H 5581.19 -4.11311 -2.45683 0
M  V30 55718 H 5579.56 -2.13542 -1.38824 0
M  V30 55719 H 5580.34 -3.41834 -0.316913 0
M  V30 55720 N 5582.78 0.602658 -1.45622 0
M  V30 55721 C 5584.01 1.38804 -1.53431 0
M  V30 55722 C 5584.43 1.88046 -0.168576 0
M  V30 55723 O 5583.78 1.62496 0.830733 0
M  V30 55724 C 5583.83 2.58918 -2.52277 0
M  V30 55725 O 5583.56 2.11722 -3.83543 0
M  V30 55726 C 5585.06 3.51718 -2.69832 0
M  V30 55727 H 5582.28 0.424726 -0.51947 0
M  V30 55728 H 5584.82 0.734523 -1.90853 0
M  V30 55729 H 5582.98 3.20301 -2.17913 0
M  V30 55730 H 5583.39 2.89799 -4.37169 0
M  V30 55731 H 5584.86 4.3253 -3.4296 0
M  V30 55732 H 5585.34 4.02377 -1.76038 0
M  V30 55733 H 5585.95 2.96185 -3.05212 0
M  V30 55734 N 5584.26 1.32995 0.845589 0
M  V30 55735 C 5585.51 1.24254 1.60277 0
M  V30 55736 C 5585.84 -0.192981 1.93239 0
M  V30 55737 O 5585.12 -1.13254 1.58126 0
M  V30 55738 C 5585.4 2.11121 2.91719 0
M  V30 55739 C 5585.25 3.63097 2.65481 0
M  V30 55740 C 5586.57 1.97926 3.93082 0
M  V30 55741 H 5583.69 0.452719 0.581562 0
M  V30 55742 H 5586.33 1.6303 0.975771 0
M  V30 55743 H 5584.48 1.78181 3.4523 0
M  V30 55744 H 5586.15 4.06294 2.18455 0
M  V30 55745 H 5584.4 3.85311 1.99293 0
M  V30 55746 H 5585.07 4.19215 3.59114 0
M  V30 55747 H 5587.54 2.268 3.48856 0
M  V30 55748 H 5586.42 2.60969 4.82894 0
M  V30 55749 H 5586.68 0.949529 4.31783 0
M  V30 55750 N 5585.74 -1.063 1.16353 0
M  V30 55751 C 5586.67 -2.13729 0.827797 0
M  V30 55752 C 5587.68 -1.61962 -0.164926 0
M  V30 55753 O 5588.87 -1.784 0.0598218 0
M  V30 55754 C 5585.97 -3.38238 0.211742 0
M  V30 55755 C 5585.15 -4.19321 1.24455 0
M  V30 55756 C 5584.21 -5.22191 0.64831 0
M  V30 55757 O 5583.23 -5.53751 1.31715 0
M  V30 55758 N 5584.43 -5.77744 -0.564976 0
M  V30 55759 H 5587.2 -2.4313 1.75237 0
M  V30 55760 H 5584.76 -1.22301 1.06086 0
M  V30 55761 H 5586.75 -4.04205 -0.200164 0
M  V30 55762 H 5585.32 -3.06463 -0.616383 0
M  V30 55763 H 5584.54 -3.4901 1.83263 0
M  V30 55764 H 5585.83 -4.70299 1.94155 0
M  V30 55765 H 5585.23 -5.5437 -1.12653 0
M  V30 55766 H 5583.78 -6.45287 -0.919094 0
M  V30 55767 N 5587.22 -0.962004 -1.24833 0
M  V30 55768 C 5588.5 -0.537875 -1.88059 0
M  V30 55769 C 5588.88 0.984957 -1.86713 0
M  V30 55770 O 5588.22 1.85389 -1.33578 0
M  V30 55771 C 5588.43 -1.1229 -3.30442 0
M  V30 55772 C 5589.78 -1.20429 -4.07163 0
M  V30 55773 O 5590.81 -1.075 -3.39591 0
M  V30 55774 O 5589.66 -1.40799 -5.28051 0
M  V30 55775 H 5586.76 -0.178519 -0.807502 0
M  V30 55776 H 5589.3 -1.05591 -1.32848 0
M  V30 55777 H 5588.08 -2.1659 -3.25891 0
M  V30 55778 H 5587.7 -0.588568 -3.9322 0
M  V30 55779 N 5588.7 1.39598 -0.731441 0
M  V30 55780 C 5589.94 2.02439 -0.282458 0
M  V30 55781 C 5590.3 1.5678 1.10834 0
M  V30 55782 O 5591.5 2.11794 1.6552 0
M  V30 55783 C 5589.77 3.55408 -0.376829 0
M  V30 55784 S 5591.33 4.38799 -0.00716357 0
M  V30 55785 H 5588.15 0.702296 -0.110911 0
M  V30 55786 H 5590.75 1.70466 -0.957171 0
M  V30 55787 H 5589.46 3.86129 -1.3904 0
M  V30 55788 H 5588.99 3.9213 0.315825 0
M  V30 55789 H 5591 4.81217 1.21015 0
M  V30 55790 N 5590.17 0.478804 1.50151 0
M  V30 55791 C 5591.4 -0.0708729 2.06478 0
M  V30 55792 C 5591.81 -1.33371 1.34197 0
M  V30 55793 O 5591.16 -1.79132 0.407133 0
M  V30 55794 C 5591.22 -0.417196 3.57071 0
M  V30 55795 C 5590.88 0.744722 4.50891 0
M  V30 55796 C 5591.88 1.62896 4.93721 0
M  V30 55797 C 5589.56 0.937236 4.93479 0
M  V30 55798 C 5591.56 2.69005 5.77854 0
M  V30 55799 C 5589.24 2.00154 5.77392 0
M  V30 55800 C 5590.24 2.87631 6.19482 0
M  V30 55801 O 5589.93 3.92227 7.01721 0
M  V30 55802 H 5589.66 0.00722554 0.675961 0
M  V30 55803 H 5592.22 0.668865 1.94204 0
M  V30 55804 H 5590.45 -1.21023 3.67274 0
M  V30 55805 H 5592.14 -0.902863 3.95731 0
M  V30 55806 H 5592.9 1.49195 4.61482 0
M  V30 55807 H 5588.78 0.265798 4.60233 0
M  V30 55808 H 5592.32 3.37314 6.10627 0
M  V30 55809 H 5588.22 2.13859 6.09044 0
M  V30 55810 H 5588.99 3.89309 7.19986 0
M  V30 55811 N 5591.65 -1.56171 0.211716 0
M  V30 55812 C 5592.6 -2.16479 -0.715599 0
M  V30 55813 C 5593.59 -1.11027 -1.16455 0
M  V30 55814 O 5594.78 -1.37044 -1.12018 0
M  V30 55815 C 5591.91 -2.84062 -1.92779 0
M  V30 55816 C 5590.99 -3.96726 -1.49897 0
M  V30 55817 N 5591.38 -4.99716 -0.782128 0
M  V30 55818 C 5589.68 -4.08634 -1.78702 0
M  V30 55819 C 5590.38 -5.78951 -0.56484 0
M  V30 55820 N 5589.36 -5.31967 -1.11859 0
M  V30 55821 H 5593.16 -2.93468 -0.159377 0
M  V30 55822 H 5590.68 -1.62395 0.0125781 0
M  V30 55823 H 5592.67 -3.25671 -2.60277 0
M  V30 55824 H 5591.33 -2.08566 -2.48858 0
M  V30 55825 H 5592.34 -5.16063 -0.43584 0
M  V30 55826 H 5589.02 -3.44282 -2.3617 0
M  V30 55827 H 5590.41 -6.719 0.00500694 0
M  V30 55828 N 5593.13 0.061761 -1.57479 0
M  V30 55829 C 5594.38 0.757503 -1.87367 0
M  V30 55830 C 5594.7 1.77604 -0.805087 0
M  V30 55831 O 5593.97 1.95203 0.165148 0
M  V30 55832 H 5592.55 0.282756 -0.691418 0
M  V30 55833 H 5595.21 0.0354669 -1.94868 0
M  V30 55834 H 5594.31 1.26748 -2.85204 0
M  V30 55835 N 5594.61 1.54034 0.333374 0
M  V30 55836 C 5595.89 1.62408 1.0901 0
M  V30 55837 C 5596.27 0.451725 2.0621 0
M  V30 55838 O 5595.61 -0.555008 2.21657 0
M  V30 55839 C 5595.82 2.98955 1.80074 0
M  V30 55840 C 5597.17 3.54663 2.33451 0
M  V30 55841 O 5598.2 3.01196 1.90156 0
M  V30 55842 O 5597.05 4.48206 3.12688 0
M  V30 55843 H 5594.15 0.657288 0.501898 0
M  V30 55844 H 5596.69 1.6638 0.334051 0
M  V30 55845 H 5595.47 3.75719 1.09319 0
M  V30 55846 H 5595.09 2.98618 2.62513 0
M  V30 55847 N 5596.09 -0.594927 1.4594 0
M  V30 55848 C 5597.33 -1.35088 1.50318 0
M  V30 55849 C 5597.66 -1.94412 0.151383 0
M  V30 55850 O 5596.93 -1.77879 -0.820725 0
M  V30 55851 H 5595.51 -0.50153 0.553603 0
M  V30 55852 H 5598.17 -0.697671 1.81985 0
M  V30 55853 H 5597.26 -2.16385 2.24909 0
M  V30 55854 N 5597.56 -1.33441 -0.838524 0
M  V30 55855 C 5598.5 -1.19559 -1.95546 0
M  V30 55856 C 5599.51 -0.126477 -1.62308 0
M  V30 55857 O 5600.7 -0.37693 -1.74475 0
M  V30 55858 C 5597.8 -0.811389 -3.29044 0
M  V30 55859 C 5596.97 -1.97221 -3.90413 0
M  V30 55860 C 5596.03 -1.56893 -5.02266 0
M  V30 55861 O 5595.06 -2.28332 -5.21395 0
M  V30 55862 N 5596.26 -0.474128 -5.78561 0
M  V30 55863 H 5599.02 -2.15777 -2.07992 0
M  V30 55864 H 5596.58 -1.26191 -1.01427 0
M  V30 55865 H 5598.58 -0.523694 -4.01297 0
M  V30 55866 H 5597.15 0.0601192 -3.12542 0
M  V30 55867 H 5596.37 -2.42551 -3.10745 0
M  V30 55868 H 5597.65 -2.74893 -4.28149 0
M  V30 55869 H 5597.05 0.120107 -5.65572 0
M  V30 55870 H 5595.61 -0.246106 -6.51335 0
M  V30 55871 N 5599.04 1.05681 -1.16915 0
M  V30 55872 C 5600.27 1.82818 -0.979413 0
M  V30 55873 C 5600.69 1.82198 0.467511 0
M  V30 55874 O 5600.05 1.22732 1.33441 0
M  V30 55875 C 5600.1 3.27044 -1.51903 0
M  V30 55876 O 5599.2 4.05897 -0.729484 0
M  V30 55877 H 5598.54 0.565443 -0.348096 0
M  V30 55878 H 5601.07 1.33206 -1.55298 0
M  V30 55879 H 5601.08 3.77854 -1.53917 0
M  V30 55880 H 5599.76 3.2681 -2.57231 0
M  V30 55881 H 5598.34 3.64644 -0.780349 0
M  V30 55882 N 5600.52 0.96861 1.24321 0
M  V30 55883 C 5601.75 0.647697 1.96185 0
M  V30 55884 C 5602.16 -0.787207 1.72046 0
M  V30 55885 O 5601.5 -1.53992 1.00161 0
M  V30 55886 C 5601.56 0.84364 3.49461 0
M  V30 55887 C 5601.23 2.25836 3.973 0
M  V30 55888 C 5602.22 3.23616 4.06901 0
M  V30 55889 C 5599.91 2.58629 4.306 0
M  V30 55890 C 5601.9 4.52276 4.49138 0
M  V30 55891 C 5599.59 3.87515 4.7252 0
M  V30 55892 C 5600.59 4.84151 4.81754 0
M  V30 55893 O 5600.28 6.10737 5.22738 0
M  V30 55894 H 5600.01 0.24059 0.631738 0
M  V30 55895 H 5602.56 1.29932 1.59081 0
M  V30 55896 H 5600.79 0.134852 3.86465 0
M  V30 55897 H 5602.48 0.521675 4.02534 0
M  V30 55898 H 5603.25 2.99609 3.81391 0
M  V30 55899 H 5599.13 1.84131 4.22631 0
M  V30 55900 H 5602.67 5.27705 4.5626 0
M  V30 55901 H 5598.57 4.11322 4.97478 0
M  V30 55902 H 5599.34 6.14317 5.40885 0
M  V30 55903 N 5602 -1.39208 0.738834 0
M  V30 55904 C 5603.42 -1.54115 0.414827 0
M  V30 55905 C 5603.62 -1.70501 -1.07386 0
M  V30 55906 O 5602.67 -1.70767 -1.85997 0
M  V30 55907 C 5603.98 -2.75666 1.2012 0
M  V30 55908 C 5605.53 -2.89504 1.1898 0
M  V30 55909 C 5606.01 -4.13998 1.95882 0
M  V30 55910 N 5607.5 -4.21045 1.93068 0
M  V30 55911 C 5608.23 -5.16332 2.49376 0
M  V30 55912 N 5607.73 -6.17385 3.14338 0
M  V30 55913 N 5609.52 -5.08576 2.39388 0
M  V30 55914 H 5601.67 -1.26821 1.70383 0
M  V30 55915 H 5603.94 -0.614957 0.721479 0
M  V30 55916 H 5603.64 -2.69914 2.25476 0
M  V30 55917 H 5603.52 -3.6844 0.808195 0
M  V30 55918 H 5605.9 -2.94747 0.144352 0
M  V30 55919 H 5605.98 -1.97783 1.62221 0
M  V30 55920 H 5605.63 -4.09517 3.0043 0
M  V30 55921 H 5605.56 -5.04771 1.50045 0
M  V30 55922 H 5608.05 -3.48664 1.45745 0
M  V30 55923 H 5608.36 -6.8656 3.54761 0
M  V30 55924 H 5606.71 -6.17761 3.18428 0
M  V30 55925 H 5609.9 -4.28567 1.88277 0
M  V30 55926 H 5610.07 -5.8266 2.83569 0
M  V30 55927 N 5603.48 -0.48676 -1.49895 0
M  V30 55928 C 5604.73 0.0626569 -2.02003 0
M  V30 55929 C 5605.05 1.38794 -1.36971 0
M  V30 55930 O 5604.32 1.88866 -0.520239 0
M  V30 55931 H 5602.9 0.0261455 -0.746542 0
M  V30 55932 H 5605.56 -0.640757 -1.84066 0
M  V30 55933 H 5604.65 0.202747 -3.11441 0
M  V30 55934 N 5604.96 1.56057 -0.219996 0
M  V30 55935 C 5606.18 2.03101 0.420069 0
M  V30 55936 C 5606.61 1.09881 1.52669 0
M  V30 55937 O 5605.96 0.0867095 1.81093 0
M  V30 55938 C 5606.01 3.48392 0.930348 0
M  V30 55939 O 5605.12 3.58308 2.0418 0
M  V30 55940 H 5604.46 0.657132 0.095254 0
M  V30 55941 H 5606.99 2.01786 -0.338176 0
M  V30 55942 H 5607 3.88682 1.24056 0
M  V30 55943 H 5605.67 4.15726 0.120393 0
M  V30 55944 H 5604.25 3.29904 1.73833 0
M  V30 55945 N 5606.43 -0.0534086 1.57509 0
M  V30 55946 C 5607.68 -0.749036 1.88137 0
M  V30 55947 C 5608.01 -1.76639 0.814173 0
M  V30 55948 O 5607.26 -1.94797 -0.187776 0
M  V30 55949 C 5607.56 -1.47655 3.25473 0
M  V30 55950 C 5607.23 -0.597462 4.46924 0
M  V30 55951 C 5605.89 -0.35526 4.79887 0
M  V30 55952 C 5608.24 0.0109701 5.21199 0
M  V30 55953 C 5605.57 0.504553 5.84526 0
M  V30 55954 C 5607.92 0.858343 6.2675 0
M  V30 55955 C 5606.59 1.11024 6.58202 0
M  V30 55956 H 5605.86 -0.274092 0.688444 0
M  V30 55957 H 5608.5 -0.0093743 1.91498 0
M  V30 55958 H 5606.81 -2.2889 3.17988 0
M  V30 55959 H 5608.51 -2.0199 3.46412 0
M  V30 55960 H 5605.1 -0.796378 4.21136 0
M  V30 55961 H 5609.28 -0.16323 4.96032 0
M  V30 55962 H 5604.54 0.708271 6.07284 0
M  V30 55963 H 5608.71 1.33644 6.83456 0
M  V30 55964 H 5606.34 1.77824 7.39109 0
M  V30 55965 N 5607.91 -1.54208 -0.325201 0
M  V30 55966 C 5609.14 -1.76614 -1.0873 0
M  V30 55967 C 5609.56 -0.512513 -1.80983 0
M  V30 55968 O 5608.92 0.535852 -1.732 0
M  V30 55969 C 5608.97 -2.95805 -2.06233 0
M  V30 55970 O 5608.07 -2.67236 -3.141 0
M  V30 55971 H 5607.41 -0.585293 -0.313572 0
M  V30 55972 H 5609.94 -2.01227 -0.369995 0
M  V30 55973 H 5609.95 -3.23106 -2.49132 0
M  V30 55974 H 5608.63 -3.86717 -1.53044 0
M  V30 55975 H 5607.2 -2.50879 -2.75888 0
M  V30 55976 N 5609.39 0.587179 -1.46253 0
M  V30 55977 C 5610.62 1.37169 -1.54894 0
M  V30 55978 C 5611.03 1.87857 -0.188511 0
M  V30 55979 O 5610.39 1.63368 0.813452 0
M  V30 55980 C 5610.44 2.56228 -2.55009 0
M  V30 55981 O 5610.16 2.07642 -3.85767 0
M  V30 55982 C 5611.66 3.48836 -2.73547 0
M  V30 55983 H 5608.88 0.419192 -0.523946 0
M  V30 55984 H 5611.43 0.714239 -1.91622 0
M  V30 55985 H 5609.58 3.17972 -2.21298 0
M  V30 55986 H 5610 2.85146 -4.40218 0
M  V30 55987 H 5611.47 4.28868 -3.47529 0
M  V30 55988 H 5611.95 4.00487 -1.80296 0
M  V30 55989 H 5612.55 2.92931 -3.08336 0
M  V30 55990 N 5610.87 1.33884 0.831435 0
M  V30 55991 C 5612.1 1.28817 1.61906 0
M  V30 55992 C 5612.51 -0.139453 1.88284 0
M  V30 55993 O 5611.87 -1.08391 1.46825 0
M  V30 55994 C 5611.92 2.06816 2.96495 0
M  V30 55995 O 5611.64 3.4401 2.71272 0
M  V30 55996 C 5613.14 2.09047 3.90915 0
M  V30 55997 H 5610.36 0.44349 0.503545 0
M  V30 55998 H 5612.9 1.76369 1.0351 0
M  V30 55999 H 5611.06 1.62928 3.51473 0
M  V30 56000 H 5611.47 3.84226 3.5703 0
M  V30 56001 H 5612.95 2.68061 4.82542 0
M  V30 56002 H 5613.42 1.08264 4.25647 0
M  V30 56003 H 5614.03 2.52987 3.41874 0
M  V30 56004 N 5612.35 -1.0506 1.17474 0
M  V30 56005 C 5613.59 -1.78349 0.965374 0
M  V30 56006 C 5613.92 -1.87529 -0.504641 0
M  V30 56007 O 5613.2 -1.37604 -1.3746 0
M  V30 56008 C 5613.48 -3.22167 1.60874 0
M  V30 56009 C 5613.34 -3.20992 3.15094 0
M  V30 56010 C 5614.65 -4.20035 1.31372 0
M  V30 56011 H 5611.77 -0.647439 0.352124 0
M  V30 56012 H 5614.42 -1.22789 1.44993 0
M  V30 56013 H 5612.57 -3.69609 1.19671 0
M  V30 56014 H 5614.24 -2.81616 3.65363 0
M  V30 56015 H 5612.48 -2.59296 3.47776 0
M  V30 56016 H 5613.15 -4.22503 3.55239 0
M  V30 56017 H 5615.63 -3.81094 1.67054 0
M  V30 56018 H 5614.5 -5.18903 1.78971 0
M  V30 56019 H 5614.76 -4.41476 0.234761 0
M  V30 56020 N 5613.82 -0.97519 -1.23806 0
M  V30 56021 C 5615.05 -0.659047 -1.96123 0
M  V30 56022 C 5615.47 0.772983 -1.72251 0
M  V30 56023 O 5614.82 1.51953 -1.01077 0
M  V30 56024 C 5614.87 -0.933477 -3.4924 0
M  V30 56025 O 5614.6 -2.30922 -3.72299 0
M  V30 56026 C 5616.1 -0.632563 -4.38764 0
M  V30 56027 H 5613.32 -0.245259 -0.624571 0
M  V30 56028 H 5615.86 -1.30516 -1.57435 0
M  V30 56029 H 5614.02 -0.333459 -3.85962 0
M  V30 56030 H 5614.43 -2.39493 -4.6663 0
M  V30 56031 H 5615.9 -0.874983 -5.45021 0
M  V30 56032 H 5616.38 0.433299 -4.37057 0
M  V30 56033 H 5616.99 -1.21282 -4.0764 0
M  V30 56034 N 5615.3 1.38815 -0.746207 0
M  V30 56035 C 5616.55 1.99884 -0.298495 0
M  V30 56036 C 5616.87 1.59522 1.1215 0
M  V30 56037 O 5616.14 0.84863 1.76565 0
M  V30 56038 H 5614.72 0.739243 -0.107373 0
M  V30 56039 H 5617.38 1.69693 -0.958659 0
M  V30 56040 H 5616.48 3.10066 -0.355765 0
M  V30 56041 N 5616.78 0.494703 1.49634 0
M  V30 56042 C 5618.2 0.150273 1.58891 0
M  V30 56043 C 5618.4 -1.3448 1.50058 0
M  V30 56044 O 5617.45 -2.12021 1.37126 0
M  V30 56045 C 5618.77 0.721474 2.91916 0
M  V30 56046 C 5620.31 0.687015 3.05367 0
M  V30 56047 C 5620.79 1.23617 4.41002 0
M  V30 56048 N 5622.28 1.19659 4.47477 0
M  V30 56049 C 5623.01 1.59176 5.50863 0
M  V30 56050 N 5622.51 2.06255 6.61385 0
M  V30 56051 N 5624.3 1.50631 5.41541 0
M  V30 56052 H 5616.45 1.4668 1.53619 0
M  V30 56053 H 5618.72 0.608028 0.727328 0
M  V30 56054 H 5618.42 1.76975 3.03929 0
M  V30 56055 H 5618.3 0.178332 3.76778 0
M  V30 56056 H 5620.68 -0.352405 2.92988 0
M  V30 56057 H 5620.77 1.26723 2.22204 0
M  V30 56058 H 5620.41 2.27434 4.54132 0
M  V30 56059 H 5620.34 0.631949 5.22794 0
M  V30 56060 H 5622.83 0.851572 3.6818 0
M  V30 56061 H 5623.14 2.34494 7.36364 0
M  V30 56062 H 5621.49 2.10225 6.62443 0
M  V30 56063 H 5624.68 1.13675 4.54088 0
M  V30 56064 H 5624.85 1.81752 6.21989 0
M  V30 56065 N 5618.26 -1.55938 0.228269 0
M  V30 56066 C 5619.49 -2.02872 -0.406277 0
M  V30 56067 C 5619.9 -1.10795 -1.52872 0
M  V30 56068 O 5619.26 -0.118811 -1.82113 0
M  V30 56069 C 5619.31 -3.4929 -0.931611 0
M  V30 56070 O 5619.03 -4.37856 0.146087 0
M  V30 56071 C 5620.53 -4.11899 -1.63872 0
M  V30 56072 H 5617.75 -0.663699 -0.0987124 0
M  V30 56073 H 5620.3 -2.0154 0.346687 0
M  V30 56074 H 5618.45 -3.51216 -1.63482 0
M  V30 56075 H 5618.86 -5.23905 -0.249821 0
M  V30 56076 H 5620.34 -5.16098 -1.95823 0
M  V30 56077 H 5620.82 -3.5729 -2.55422 0
M  V30 56078 H 5621.42 -4.13842 -0.980551 0
M  V30 56079 N 5619.74 0.0450548 -1.57536 0
M  V30 56080 C 5620.98 0.744079 -1.90375 0
M  V30 56081 C 5621.34 1.73367 -0.8251 0
M  V30 56082 O 5622.54 2.47977 -1.03735 0
M  V30 56083 C 5620.81 1.41017 -3.28404 0
M  V30 56084 S 5622.37 2.14056 -3.83048 0
M  V30 56085 H 5619.19 0.246865 -0.666767 0
M  V30 56086 H 5621.79 -0.000797747 -1.955 0
M  V30 56087 H 5620.5 0.676488 -4.04786 0
M  V30 56088 H 5620.03 2.19393 -3.26543 0
M  V30 56089 H 5622.04 3.40976 -3.60486 0
M  V30 56090 N 5621.21 1.54379 0.317018 0
M  V30 56091 C 5622.15 1.80568 1.41166 0
M  V30 56092 C 5623.16 0.687917 1.47552 0
M  V30 56093 O 5624.35 0.965137 1.50158 0
M  V30 56094 C 5621.45 1.9143 2.79656 0
M  V30 56095 C 5620.62 3.21665 2.96396 0
M  V30 56096 C 5619.68 3.23146 4.15287 0
M  V30 56097 O 5618.71 3.96755 4.08135 0
M  V30 56098 N 5619.91 2.47395 5.25144 0
M  V30 56099 H 5622.67 2.75036 1.19061 0
M  V30 56100 H 5620.23 1.53756 0.507032 0
M  V30 56101 H 5622.23 1.89841 3.57411 0
M  V30 56102 H 5620.8 1.0403 2.94782 0
M  V30 56103 H 5620.02 3.36161 2.05887 0
M  V30 56104 H 5621.3 4.07639 3.04479 0
M  V30 56105 H 5620.7 1.87192 5.33831 0
M  V30 56106 H 5619.26 2.51576 6.01292 0
M  V30 56107 N 5622.69 -0.579414 1.46562 0
M  V30 56108 C 5623.92 -1.36831 1.55859 0
M  V30 56109 C 5624.34 -1.87018 0.201476 0
M  V30 56110 O 5623.7 -1.61749 -0.818953 0
M  V30 56111 C 5623.75 -2.52956 2.56994 0
M  V30 56112 O 5622.85 -3.54498 2.10726 0
M  V30 56113 H 5622.19 -0.407361 0.52436 0
M  V30 56114 H 5624.72 -0.70249 1.92162 0
M  V30 56115 H 5624.73 -2.99828 2.76708 0
M  V30 56116 H 5623.41 -2.15781 3.55544 0
M  V30 56117 H 5621.99 -3.14082 2.01014 0
M  V30 56118 N 5624.17 -1.34323 -0.824323 0
M  V30 56119 C 5625.42 -1.27797 -1.58238 0
M  V30 56120 C 5625.77 0.151122 -1.91806 0
M  V30 56121 O 5625.06 1.09703 -1.57086 0
M  V30 56122 C 5625.26 -2.1009 -2.89131 0
M  V30 56123 C 5625.09 -3.60857 -2.68351 0
M  V30 56124 C 5623.86 -4.30139 -2.65157 0
M  V30 56125 C 5626.06 -4.54887 -2.39963 0
M  V30 56126 N 5624.04 -5.66764 -2.35907 0
M  V30 56127 C 5625.41 -5.79505 -2.20395 0
M  V30 56128 C 5627.46 -4.43816 -2.2568 0
M  V30 56129 C 5626.17 -6.943 -1.87991 0
M  V30 56130 C 5628.19 -5.58442 -1.9467 0
M  V30 56131 C 5627.55 -6.82078 -1.75925 0
M  V30 56132 H 5623.65 -0.522874 -0.581487 0
M  V30 56133 H 5626.24 -1.6902 -0.96645 0
M  V30 56134 H 5624.41 -1.71166 -3.4865 0
M  V30 56135 H 5626.14 -1.9522 -3.54501 0
M  V30 56136 H 5622.9 -3.82564 -2.79181 0
M  V30 56137 H 5623.32 -6.38825 -2.24125 0
M  V30 56138 H 5627.96 -3.48851 -2.38878 0
M  V30 56139 H 5625.68 -7.89248 -1.73529 0
M  V30 56140 H 5629.27 -5.5182 -1.84352 0
M  V30 56141 H 5628.15 -7.69273 -1.52277 0
M  V30 56142 N 5625.65 1.04435 -1.1803 0
M  V30 56143 C 5626.87 1.81768 -0.998748 0
M  V30 56144 C 5627.3 1.82683 0.448161 0
M  V30 56145 O 5626.66 1.24141 1.32132 0
M  V30 56146 C 5626.7 3.25415 -1.55363 0
M  V30 56147 O 5625.81 4.051 -0.772494 0
M  V30 56148 H 5625.15 0.561719 -0.354073 0
M  V30 56149 H 5627.68 1.31551 -1.56702 0
M  V30 56150 H 5627.69 3.762 -1.57916 0
M  V30 56151 H 5626.36 3.24064 -2.60683 0
M  V30 56152 H 5624.94 3.63795 -0.81898 0
M  V30 56153 N 5627.13 0.981742 1.23287 0
M  V30 56154 C 5628.35 0.669094 1.96311 0
M  V30 56155 C 5628.78 -0.757564 1.7217 0
M  V30 56156 O 5628.13 -1.51623 0.993996 0
M  V30 56157 C 5628.18 0.966997 3.47392 0
M  V30 56158 O 5627.29 0.0597382 4.12357 0
M  V30 56159 H 5626.63 0.251515 0.614521 0
M  V30 56160 H 5629.16 1.3157 1.56686 0
M  V30 56161 H 5629.17 0.904252 3.97853 0
M  V30 56162 H 5627.84 2.00664 3.64289 0
M  V30 56163 H 5626.42 0.177009 3.7248 0
M  V30 56164 N 5628.6 -1.38417 0.753558 0
M  V30 56165 C 5629.54 -2.28079 0.0742485 0
M  V30 56166 C 5630.52 -1.45375 -0.728347 0
M  V30 56167 O 5631.7 -1.7474 -0.706981 0
M  V30 56168 C 5628.83 -3.26478 -0.901649 0
M  V30 56169 C 5627.87 -4.26097 -0.185289 0
M  V30 56170 S 5628.71 -5.23787 1.11391 0
M  V30 56171 C 5629.86 -6.25741 0.141081 0
M  V30 56172 H 5630.09 -2.85346 0.834575 0
M  V30 56173 H 5627.63 -1.44418 0.546139 0
M  V30 56174 H 5629.59 -3.83683 -1.45936 0
M  V30 56175 H 5628.25 -2.68194 -1.63495 0
M  V30 56176 H 5627.44 -4.9545 -0.924404 0
M  V30 56177 H 5627.04 -3.72788 0.300903 0
M  V30 56178 H 5629.33 -6.73947 -0.692937 0
M  V30 56179 H 5630.28 -7.03541 0.802267 0
M  V30 56180 H 5630.68 -5.63991 -0.239601 0
M  V30 56181 N 5630.08 -0.502631 -1.4937 0
M  V30 56182 C 5631.31 0.0380702 -2.06865 0
M  V30 56183 C 5631.73 1.30669 -1.36275 0
M  V30 56184 O 5631.08 1.77077 -0.441594 0
M  V30 56185 C 5631.13 0.293941 -3.60303 0
M  V30 56186 O 5630.85 -0.924394 -4.28237 0
M  V30 56187 C 5632.36 0.8781 -4.34516 0
M  V30 56188 H 5629.58 -0.0211992 -0.670665 0
M  V30 56189 H 5632.12 -0.700455 -1.9213 0
M  V30 56190 H 5630.27 0.982451 -3.74735 0
M  V30 56191 H 5630.69 -0.688244 -5.19965 0
M  V30 56192 H 5632.16 1.00671 -5.42742 0
M  V30 56193 H 5632.64 1.87629 -3.97104 0
M  V30 56194 H 5633.25 0.227008 -4.24694 0
M  V30 56195 N 5631.56 1.55815 -0.236535 0
M  V30 56196 C 5632.97 1.84758 0.268557 0
M  V30 56197 C 5633.32 1.1582 1.58367 0
M  V30 56198 O 5632.45 0.432998 2.12024 0
M  V30 56199 C 5633.04 3.35178 0.494049 0
M  V30 56200 C 5631.6 3.64385 0.943422 0
M  V30 56201 C 5630.75 2.77296 0.0148216 0
M  V30 56202 H 5633.7 1.51906 -0.459361 0
M  V30 56203 H 5633.72 3.56196 1.33807 0
M  V30 56204 H 5633.23 3.85325 -0.463274 0
M  V30 56205 H 5631.33 3.19708 1.91358 0
M  V30 56206 H 5631.45 4.72247 0.80746 0
M  V30 56207 H 5629.81 2.49245 0.524332 0
M  V30 56208 H 5630.59 3.30246 -0.937687 0
M  V30 56209 N 5633.04 -0.0366996 1.57557 0
M  V30 56210 C 5633.99 -1.04737 2.0252 0
M  V30 56211 C 5634.97 -1.32477 0.913162 0
M  V30 56212 O 5636.17 -1.3219 1.17707 0
M  V30 56213 C 5633.29 -2.35082 2.50183 0
M  V30 56214 C 5632.38 -2.10465 3.68192 0
M  V30 56215 N 5632.77 -1.55882 4.8118 0
M  V30 56216 C 5631.07 -2.40784 3.75418 0
M  V30 56217 C 5631.77 -1.46894 5.62847 0
M  V30 56218 N 5630.75 -1.94184 5.07734 0
M  V30 56219 H 5634.55 -0.619241 2.87302 0
M  V30 56220 H 5632.06 -0.243151 1.60569 0
M  V30 56221 H 5634.06 -3.08287 2.80651 0
M  V30 56222 H 5632.72 -2.7858 1.66803 0
M  V30 56223 H 5633.73 -1.24257 5.02773 0
M  V30 56224 H 5630.41 -2.87409 3.02824 0
M  V30 56225 H 5631.8 -1.05247 6.63606 0
M  V30 56226 N 5634.52 -1.54545 -0.308827 0
M  V30 56227 C 5635.76 -1.74643 -1.04267 0
M  V30 56228 C 5636.12 -0.521649 -1.85193 0
M  V30 56229 O 5635.41 0.485964 -1.85335 0
M  V30 56230 C 5635.61 -2.97131 -1.98615 0
M  V30 56231 C 5635.43 -4.31404 -1.26968 0
M  V30 56232 C 5634.2 -4.95305 -1.00007 0
M  V30 56233 C 5636.4 -5.0981 -0.678091 0
M  V30 56234 N 5634.38 -6.13378 -0.253054 0
M  V30 56235 C 5635.76 -6.19968 -0.0634395 0
M  V30 56236 C 5637.81 -4.94482 -0.582364 0
M  V30 56237 C 5636.51 -7.16468 0.637667 0
M  V30 56238 C 5638.54 -5.91307 0.105072 0
M  V30 56239 C 5637.9 -7.00827 0.708607 0
M  V30 56240 H 5634 -0.691731 -0.364736 0
M  V30 56241 H 5636.58 -1.92016 -0.322166 0
M  V30 56242 H 5634.76 -2.81196 -2.67924 0
M  V30 56243 H 5636.49 -3.0579 -2.65094 0
M  V30 56244 H 5633.24 -4.55516 -1.29622 0
M  V30 56245 H 5633.67 -6.76916 0.106743 0
M  V30 56246 H 5638.31 -4.09944 -1.03468 0
M  V30 56247 H 5636.03 -8.00554 1.10178 0
M  V30 56248 H 5639.61 -5.81525 0.178978 0
M  V30 56249 H 5638.49 -7.74461 1.23209 0
M  V30 56250 N 5636 0.571634 -1.46868 0
M  V30 56251 C 5636.95 1.67504 -1.54682 0
M  V30 56252 C 5637.93 1.55672 -0.406829 0
M  V30 56253 O 5639.12 1.64399 -0.655905 0
M  V30 56254 C 5636.25 3.0629 -1.55053 0
M  V30 56255 C 5635.34 3.23378 -2.74385 0
M  V30 56256 N 5635.73 3.10584 -3.99213 0
M  V30 56257 C 5634.03 3.54345 -2.70843 0
M  V30 56258 C 5634.73 3.29976 -4.79052 0
M  V30 56259 N 5633.7 3.55644 -4.11118 0
M  V30 56260 H 5637.5 1.56159 -2.48981 0
M  V30 56261 H 5635.02 0.775986 -1.42661 0
M  V30 56262 H 5637.02 3.85496 -1.5874 0
M  V30 56263 H 5635.68 3.18757 -0.61839 0
M  V30 56264 H 5636.69 2.88215 -4.30293 0
M  V30 56265 H 5633.36 3.73428 -1.86701 0
M  V30 56266 H 5634.75 3.25174 -5.87973 0
M  V30 56267 N 5637.47 1.34758 0.817188 0
M  V30 56268 C 5638.41 1.22655 1.93619 0
M  V30 56269 C 5639.42 0.152283 1.62086 0
M  V30 56270 O 5640.61 0.40464 1.73853 0
M  V30 56271 C 5637.71 0.863634 3.27711 0
M  V30 56272 C 5636.88 2.03407 3.87226 0
M  V30 56273 C 5635.94 1.64864 4.99706 0
M  V30 56274 O 5634.97 2.36598 5.17697 0
M  V30 56275 N 5636.17 0.566112 5.77733 0
M  V30 56276 H 5638.93 2.19058 2.04533 0
M  V30 56277 H 5636.49 1.27789 0.994068 0
M  V30 56278 H 5638.49 0.58747 4.00413 0
M  V30 56279 H 5637.06 -0.0103888 3.12598 0
M  V30 56280 H 5636.28 2.47464 3.06847 0
M  V30 56281 H 5637.56 2.8167 4.23721 0
M  V30 56282 H 5636.96 -0.0301142 5.65692 0
M  V30 56283 H 5635.52 0.349696 6.50861 0
M  V30 56284 N 5638.95 -1.03808 1.18582 0
M  V30 56285 C 5640.37 -1.29268 0.936057 0
M  V30 56286 C 5640.57 -1.97552 -0.396896 0
M  V30 56287 O 5639.62 -2.25773 -1.13061 0
M  V30 56288 C 5640.94 -2.14883 2.10347 0
M  V30 56289 C 5642.48 -2.28221 2.14206 0
M  V30 56290 C 5642.96 -3.17203 3.30373 0
M  V30 56291 N 5644.45 -3.24791 3.3025 0
M  V30 56292 C 5645.19 -3.93805 4.16779 0
M  V30 56293 N 5644.68 -4.65129 5.13446 0
M  V30 56294 N 5646.47 -3.90111 4.04685 0
M  V30 56295 H 5638.63 -0.578939 2.04358 0
M  V30 56296 H 5640.89 -0.317989 0.893077 0
M  V30 56297 H 5640.59 -1.72018 3.06761 0
M  V30 56298 H 5640.47 -3.15569 2.0663 0
M  V30 56299 H 5642.86 -2.7032 1.18369 0
M  V30 56300 H 5642.94 -1.27116 2.2198 0
M  V30 56301 H 5642.58 -2.75814 4.26484 0
M  V30 56302 H 5642.51 -4.18345 3.19836 0
M  V30 56303 H 5645 -2.73985 2.6027 0
M  V30 56304 H 5645.31 -5.15393 5.75838 0
M  V30 56305 H 5643.66 -4.64025 5.17403 0
M  V30 56306 H 5646.85 -3.33524 3.2845 0
M  V30 56307 H 5647.02 -4.43625 4.72336 0
M  V30 56308 N 5640.43 -0.988266 -1.22764 0
M  V30 56309 C 5641.66 -0.679812 -1.95413 0
M  V30 56310 C 5642.07 0.75467 -1.73061 0
M  V30 56311 O 5641.43 1.50872 -1.02683 0
M  V30 56312 C 5641.48 -0.970467 -3.4823 0
M  V30 56313 O 5641.2 -2.34858 -3.69829 0
M  V30 56314 C 5642.7 -0.679064 -4.38068 0
M  V30 56315 H 5639.92 -0.251869 -0.621935 0
M  V30 56316 H 5642.47 -1.32178 -1.56042 0
M  V30 56317 H 5640.62 -0.374377 -3.85587 0
M  V30 56318 H 5641.04 -2.44429 -4.64064 0
M  V30 56319 H 5642.51 -0.93274 -5.44062 0
M  V30 56320 H 5642.99 0.386919 -4.37492 0
M  V30 56321 H 5643.59 -1.25599 -4.06331 0
M  V30 56322 N 5641.91 1.38015 -0.760888 0
M  V30 56323 C 5643.14 2.04229 -0.331356 0
M  V30 56324 C 5643.55 1.57389 1.0428 0
M  V30 56325 O 5642.91 0.750227 1.66367 0
M  V30 56326 C 5642.96 3.59771 -0.353148 0
M  V30 56327 O 5642.68 4.04895 -1.67308 0
M  V30 56328 C 5644.18 4.4321 0.0893384 0
M  V30 56329 H 5641.4 0.65614 -0.140431 0
M  V30 56330 H 5643.94 1.76563 -1.03178 0
M  V30 56331 H 5642.1 3.86248 0.2986 0
M  V30 56332 H 5642.51 4.99363 -1.60426 0
M  V30 56333 H 5643.99 5.51995 0.0229322 0
M  V30 56334 H 5644.46 4.24194 1.13824 0
M  V30 56335 H 5645.07 4.21937 -0.53381 0
M  V30 56336 N 5643.39 0.510546 1.49101 0
M  V30 56337 C 5644.3 -0.267094 2.33075 0
M  V30 56338 C 5645.31 -0.958066 1.45248 0
M  V30 56339 O 5646.49 -0.937336 1.78258 0
M  V30 56340 C 5643.55 -1.31201 3.20916 0
M  V30 56341 C 5642.61 -0.633463 4.24601 0
M  V30 56342 C 5641.85 -1.6286 5.08244 0
M  V30 56343 O 5642.07 -2.8594 4.93553 0
M  V30 56344 O 5641 -1.17867 5.90247 0
M  V30 56345 H 5644.83 0.42049 3.00775 0
M  V30 56346 H 5642.41 0.271734 1.46908 0
M  V30 56347 H 5644.3 -1.91634 3.75306 0
M  V30 56348 H 5642.97 -1.98235 2.55899 0
M  V30 56349 H 5641.88 0.0108561 3.74098 0
M  V30 56350 H 5643.21 -0.00540467 4.922 0
M  V30 56351 N 5644.86 -1.55687 0.244795 0
M  V30 56352 C 5646.09 -2.02997 -0.384179 0
M  V30 56353 C 5646.5 -1.12344 -1.52235 0
M  V30 56354 O 5645.84 -0.129868 -1.8324 0
M  V30 56355 C 5645.91 -3.46567 -0.955579 0
M  V30 56356 C 5645.57 -4.56973 0.0500783 0
M  V30 56357 C 5646.57 -5.12757 0.858862 0
M  V30 56358 C 5644.25 -5.01993 0.17556 0
M  V30 56359 C 5646.25 -6.12053 1.7796 0
M  V30 56360 C 5643.93 -6.01122 1.09981 0
M  V30 56361 C 5644.93 -6.5603 1.90036 0
M  V30 56362 O 5644.62 -7.53225 2.80903 0
M  V30 56363 H 5644.35 -0.669192 -0.0956977 0
M  V30 56364 H 5646.91 -2.0212 0.365621 0
M  V30 56365 H 5645.14 -3.44587 -1.7549 0
M  V30 56366 H 5646.82 -3.77389 -1.49441 0
M  V30 56367 H 5647.59 -4.78808 0.772493 0
M  V30 56368 H 5643.47 -4.58919 -0.437483 0
M  V30 56369 H 5647.01 -6.54837 2.40488 0
M  V30 56370 H 5642.91 -6.3449 1.18711 0
M  V30 56371 H 5643.68 -7.70834 2.75241 0
M  V30 56372 N 5646.34 0.0283435 -1.57575 0
M  V30 56373 C 5647.57 0.729704 -1.93284 0
M  V30 56374 C 5647.98 1.69381 -0.843019 0
M  V30 56375 O 5647.32 1.82723 0.189222 0
M  V30 56376 C 5647.39 1.54096 -3.248 0
M  V30 56377 C 5647.05 0.74155 -4.50943 0
M  V30 56378 C 5648.05 0.0415157 -5.19883 0
M  V30 56379 C 5645.73 0.695878 -4.97456 0
M  V30 56380 C 5647.73 -0.693484 -6.33616 0
M  V30 56381 C 5645.41 -0.0428658 -6.11085 0
M  V30 56382 C 5646.41 -0.736306 -6.7902 0
M  V30 56383 O 5646.1 -1.46305 -7.90474 0
M  V30 56384 H 5645.83 0.210069 -0.642532 0
M  V30 56385 H 5648.38 -0.0102999 -2.05397 0
M  V30 56386 H 5646.61 2.32479 -3.09015 0
M  V30 56387 H 5648.3 2.125 -3.4583 0
M  V30 56388 H 5649.07 0.067827 -4.84953 0
M  V30 56389 H 5644.95 1.22512 -4.44423 0
M  V30 56390 H 5648.49 -1.23528 -6.86576 0
M  V30 56391 H 5644.39 -0.0710977 -6.45461 0
M  V30 56392 H 5645.16 -1.37681 -8.06837 0
M  V30 56393 N 5647.82 1.54706 0.300627 0
M  V30 56394 C 5649.23 1.65001 0.873596 0
M  V30 56395 C 5649.58 0.558908 1.88071 0
M  V30 56396 O 5648.71 -0.304398 2.14248 0
M  V30 56397 C 5649.3 2.99105 1.59128 0
M  V30 56398 C 5647.86 3.11519 2.11265 0
M  V30 56399 C 5647.01 2.60684 0.945459 0
M  V30 56400 H 5649.96 1.5851 0.0776195 0
M  V30 56401 H 5649.98 2.90549 2.45686 0
M  V30 56402 H 5649.49 3.78496 0.858039 0
M  V30 56403 H 5647.59 2.36848 2.87635 0
M  V30 56404 H 5647.71 4.1768 2.34692 0
M  V30 56405 H 5646.07 2.17147 1.33113 0
M  V30 56406 H 5646.85 3.42554 0.226171 0
M  V30 56407 N 5649.3 -0.563837 1.47169 0
M  V30 56408 C 5650.25 -1.69249 1.59555 0
M  V30 56409 C 5651.24 -1.62946 0.463136 0
M  V30 56410 O 5652.45 -1.68211 0.640698 0
M  V30 56411 H 5648.82 -0.559908 0.502003 0
M  V30 56412 H 5650.79 -1.55937 2.54413 0
M  V30 56413 C 5649.54 -3.07614 1.62077 0
M  V30 56414 H 5648.86 -3.13142 2.4856 0
M  V30 56415 H 5650.3 -3.86294 1.74794 0
M  V30 56416 C 5648.76 -3.35047 0.352839 0
M  V30 56417 O 5649.29 -3.97932 -0.548913 0
M  V30 56418 N 5647.5 -2.89649 0.234907 0
M  V30 56419 H 5647.05 -2.38654 0.969645 0
M  V30 56420 H 5647 -3.08376 -0.612522 0
M  V30 56421 N 5650.78 -1.3519 -0.81003 0
M  V30 56422 C 5652.02 -1.28017 -1.56385 0
M  V30 56423 C 5652.35 0.146152 -1.94452 0
M  V30 56424 O 5651.62 1.08179 -1.63322 0
M  V30 56425 H 5650.2 -0.470857 -0.579916 0
M  V30 56426 H 5652.86 -1.69252 -0.966417 0
M  V30 56427 H 5651.95 -1.8937 -2.48083 0
M  V30 56428 N 5652.25 1.03178 -1.19131 0
M  V30 56429 C 5653.5 1.7618 -0.990196 0
M  V30 56430 C 5653.82 1.88988 0.48048 0
M  V30 56431 O 5653.09 1.42135 1.34812 0
M  V30 56432 H 5651.67 0.652655 -0.363387 0
M  V30 56433 H 5654.34 1.24476 -1.49973 0
M  V30 56434 H 5653.43 2.77114 -1.43577 0
M  V30 56435 N 5653.73 0.994763 1.22238 0
M  V30 56436 C 5654.66 0.566579 2.26522 0
M  V30 56437 C 5655.64 -0.407483 1.65147 0
M  V30 56438 O 5656.83 -0.29771 1.91904 0
M  V30 56439 C 5653.96 -0.117738 3.471 0
M  V30 56440 C 5652.91 0.775056 4.20924 0
M  V30 56441 C 5652.24 -0.0422807 5.34683 0
M  V30 56442 C 5653.54 2.0728 4.79408 0
M  V30 56443 H 5655.23 1.43827 2.62591 0
M  V30 56444 H 5652.78 0.693016 1.26227 0
M  V30 56445 H 5654.73 -0.428695 4.19214 0
M  V30 56446 H 5653.46 -1.02399 3.10132 0
M  V30 56447 H 5652.11 1.06968 3.50647 0
M  V30 56448 H 5651.76 -0.949503 4.93957 0
M  V30 56449 H 5651.46 0.552072 5.85001 0
M  V30 56450 H 5652.99 -0.347289 6.09612 0
M  V30 56451 H 5654.4 1.82567 5.43454 0
M  V30 56452 H 5652.8 2.61613 5.40073 0
M  V30 56453 H 5653.87 2.75031 3.99357 0
M  V30 56454 N 5655.21 -1.3761 0.768196 0
M  V30 56455 C 5656.44 -2.04051 0.342183 0
M  V30 56456 C 5656.85 -1.5794 -1.03443 0
M  V30 56457 O 5656.21 -0.759039 -1.65966 0
M  V30 56458 C 5656.26 -3.59579 0.372222 0
M  V30 56459 O 5655.98 -4.04002 1.69453 0
M  V30 56460 C 5657.48 -4.43251 -0.0658326 0
M  V30 56461 H 5654.7 -0.655386 0.143909 0
M  V30 56462 H 5657.25 -1.76014 1.04113 0
M  V30 56463 H 5655.4 -3.864 -0.278112 0
M  V30 56464 H 5655.82 -4.98506 1.63072 0
M  V30 56465 H 5657.29 -5.52 0.00634181 0
M  V30 56466 H 5657.77 -4.24792 -1.11573 0
M  V30 56467 H 5658.37 -4.21648 0.556179 0
M  V30 56468 N 5656.69 -0.518446 -1.48828 0
M  V30 56469 C 5658.1 -0.175532 -1.58632 0
M  V30 56470 C 5658.3 1.32076 -1.52178 0
M  V30 56471 O 5657.36 2.09812 -1.40481 0
M  V30 56472 C 5658.67 -0.767824 -2.90732 0
M  V30 56473 C 5660.22 -0.735509 -3.04236 0
M  V30 56474 C 5660.7 -1.30617 -4.3898 0
M  V30 56475 N 5662.19 -1.26763 -4.45517 0
M  V30 56476 C 5662.92 -1.6792 -5.48261 0
M  V30 56477 N 5662.42 -2.16751 -6.5802 0
M  V30 56478 N 5664.21 -1.59228 -5.39076 0
M  V30 56479 H 5656.36 -1.49105 -1.51266 0
M  V30 56480 H 5658.63 -0.619522 -0.717563 0
M  V30 56481 H 5658.33 -1.81788 -3.01075 0
M  V30 56482 H 5658.21 -0.238251 -3.76447 0
M  V30 56483 H 5660.59 0.305749 -2.93512 0
M  V30 56484 H 5660.67 -1.30242 -2.2016 0
M  V30 56485 H 5660.32 -2.3463 -4.50457 0
M  V30 56486 H 5660.25 -0.715041 -5.21723 0
M  V30 56487 H 5662.74 -0.910039 -3.66779 0
M  V30 56488 H 5663.05 -2.4618 -7.3254 0
M  V30 56489 H 5661.4 -2.20737 -6.59014 0
M  V30 56490 H 5664.59 -1.20885 -4.52222 0
M  V30 56491 H 5664.76 -1.91624 -6.19019 0
M  V30 56492 N 5658.17 1.55555 -0.253048 0
M  V30 56493 C 5659.11 2.23037 0.660083 0
M  V30 56494 C 5660.11 1.21998 1.17528 0
M  V30 56495 O 5661.31 1.39993 1.13146 0
M  V30 56496 H 5657.69 0.715524 0.231364 0
M  V30 56497 H 5659.66 2.98323 0.0678457 0
M  V30 56498 C 5658.41 2.94823 1.84322 0
M  V30 56499 H 5657.73 3.72347 1.45594 0
M  V30 56500 H 5659.17 3.45395 2.45923 0
M  V30 56501 C 5657.63 1.99043 2.71815 0
M  V30 56502 O 5658.16 1.52743 3.71527 0
M  V30 56503 N 5656.37 1.66012 2.38513 0
M  V30 56504 H 5655.91 2.03859 1.57478 0
M  V30 56505 H 5655.87 1.02194 2.97328 0
M  V30 56506 N 5659.64 -0.0199865 1.57587 0
M  V30 56507 C 5660.87 -0.719443 1.93669 0
M  V30 56508 C 5661.28 -1.68931 0.851989 0
M  V30 56509 O 5660.63 -1.82821 -0.179529 0
M  V30 56510 C 5660.69 -1.52371 3.25612 0
M  V30 56511 C 5660.35 -0.717625 4.5133 0
M  V30 56512 C 5661.35 -0.0139444 5.19898 0
M  V30 56513 C 5659.03 -0.669487 4.97818 0
M  V30 56514 C 5661.03 0.727076 6.3324 0
M  V30 56515 C 5658.71 0.0752725 6.11054 0
M  V30 56516 C 5659.71 0.772306 6.7862 0
M  V30 56517 O 5659.4 1.50496 7.89687 0
M  V30 56518 H 5659.13 -0.206659 0.643637 0
M  V30 56519 H 5661.69 0.0211925 2.05389 0
M  V30 56520 H 5659.92 -2.30837 3.10244 0
M  V30 56521 H 5661.61 -2.10663 3.46953 0
M  V30 56522 H 5662.37 -0.0421079 4.84982 0
M  V30 56523 H 5658.25 -1.20154 4.45066 0
M  V30 56524 H 5661.79 1.27167 6.85911 0
M  V30 56525 H 5657.69 0.105327 6.45414 0
M  V30 56526 H 5658.46 1.41958 8.06096 0
M  V30 56527 N 5661.12 -1.54863 -0.292418 0
M  V30 56528 C 5662.36 -1.76293 -1.03441 0
M  V30 56529 C 5662.73 -0.541979 -1.84192 0
M  V30 56530 O 5663.93 -0.634167 -2.61212 0
M  V30 56531 C 5662.2 -3.02119 -1.90943 0
M  V30 56532 S 5663.76 -3.44587 -2.71671 0
M  V30 56533 H 5660.58 -0.619608 -0.348722 0
M  V30 56534 H 5663.18 -1.93076 -0.306884 0
M  V30 56535 H 5661.88 -3.89096 -1.3051 0
M  V30 56536 H 5661.41 -2.87947 -2.68049 0
M  V30 56537 H 5663.43 -3.02332 -3.93459 0
M  V30 56538 N 5662.6 0.556024 -1.47466 0
M  V30 56539 C 5664.02 0.882068 -1.3301 0
M  V30 56540 C 5664.22 1.98919 -0.321477 0
M  V30 56541 O 5663.27 2.51089 0.26658 0
M  V30 56542 C 5664.59 1.27418 -2.72369 0
M  V30 56543 C 5666.13 1.38554 -2.80663 0
M  V30 56544 C 5666.61 1.81121 -4.20665 0
M  V30 56545 N 5668.1 1.88269 -4.23213 0
M  V30 56546 C 5668.84 2.22537 -5.28455 0
M  V30 56547 N 5668.33 2.55409 -6.44002 0
M  V30 56548 N 5670.12 2.23321 -5.15834 0
M  V30 56549 H 5662.28 -0.174884 -2.11679 0
M  V30 56550 H 5664.54 -0.0155754 -0.947872 0
M  V30 56551 H 5664.24 0.534508 -3.47615 0
M  V30 56552 H 5664.12 2.23008 -3.04216 0
M  V30 56553 H 5666.51 2.11603 -2.05689 0
M  V30 56554 H 5666.59 0.411499 -2.52468 0
M  V30 56555 H 5666.23 1.08642 -4.96145 0
M  V30 56556 H 5666.16 2.79531 -4.46285 0
M  V30 56557 H 5668.65 1.65247 -3.39855 0
M  V30 56558 H 5668.96 2.80587 -7.20063 0
M  V30 56559 H 5667.31 2.52987 -6.4732 0
M  V30 56560 H 5670.5 1.97079 -4.24591 0
M  V30 56561 H 5670.67 2.49696 -5.9796 0
M  V30 56562 N 5664.08 1.35617 0.802849 0
M  V30 56563 C 5665.03 1.28884 1.93628 0
M  V30 56564 C 5666.02 0.183073 1.68408 0
M  V30 56565 O 5667.23 0.34928 1.76579 0
M  V30 56566 H 5663.6 0.400906 0.636222 0
M  V30 56567 H 5665.57 2.24631 1.96427 0
M  V30 56568 C 5664.32 1.08147 3.30453 0
M  V30 56569 H 5663.65 1.92475 3.50419 0
M  V30 56570 H 5665.09 1.07478 4.10152 0
M  V30 56571 C 5663.54 -0.214517 3.36216 0
M  V30 56572 O 5664.07 -1.20902 3.83074 0
M  V30 56573 N 5662.28 -0.254578 2.89483 0
M  V30 56574 H 5661.83 0.555328 2.51543 0
M  V30 56575 H 5661.79 -1.12142 2.9372 0
M  V30 56576 N 5665.56 -1.02544 1.19676 0
M  V30 56577 C 5666.97 -1.5745 1.00331 0
M  V30 56578 C 5667.32 -1.91137 -0.442821 0
M  V30 56579 O 5666.44 -1.71264 -1.32278 0
M  V30 56580 C 5667.04 -2.86085 1.81496 0
M  V30 56581 C 5665.6 -3.37551 1.66542 0
M  V30 56582 C 5664.75 -2.10954 1.79983 0
M  V30 56583 H 5667.7 -0.850317 1.33997 0
M  V30 56584 H 5667.72 -3.57125 1.31308 0
M  V30 56585 H 5667.23 -2.61535 2.86742 0
M  V30 56586 H 5665.33 -3.6708 0.638963 0
M  V30 56587 H 5665.44 -4.10351 2.47283 0
M  V30 56588 H 5663.81 -2.22988 1.23078 0
M  V30 56589 H 5664.59 -1.88842 2.86695 0
M  V30 56590 N 5667.04 -1.00123 -1.21709 0
M  V30 56591 C 5668.31 -0.597432 -1.86253 0
M  V30 56592 C 5668.69 0.925057 -1.89752 0
M  V30 56593 O 5668.04 1.81045 -1.39409 0
M  V30 56594 C 5668.25 -1.22746 -3.26702 0
M  V30 56595 C 5669.6 -1.33321 -4.03126 0
M  V30 56596 O 5670.62 -1.18249 -3.35999 0
M  V30 56597 O 5669.48 -1.57527 -5.23304 0
M  V30 56598 H 5666.58 -0.204119 -0.801414 0
M  V30 56599 H 5669.12 -1.09764 -1.29422 0
M  V30 56600 H 5667.89 -2.26848 -3.18835 0
M  V30 56601 H 5667.52 -0.71337 -3.91148 0
M  V30 56602 N 5668.51 1.37201 -0.775483 0
M  V30 56603 C 5669.48 2.28565 -0.170487 0
M  V30 56604 C 5670.48 1.48197 0.624033 0
M  V30 56605 O 5671.67 1.68365 0.447073 0
M  V30 56606 C 5668.8 3.32189 0.765712 0
M  V30 56607 H 5669.99 2.83577 -0.975924 0
M  V30 56608 H 5667.54 1.4653 -0.543946 0
M  V30 56609 H 5668.28 2.82308 1.59601 0
M  V30 56610 H 5668.06 3.91599 0.198114 0
M  V30 56611 H 5669.55 4.00454 1.18432 0
M  V30 56612 N 5669.99 0.526331 1.48551 0
M  V30 56613 C 5670.9 -0.242358 2.33345 0
M  V30 56614 C 5671.92 -0.942607 1.46256 0
M  V30 56615 O 5673.09 -0.918377 1.79242 0
M  V30 56616 C 5670.16 -1.2779 3.2229 0
M  V30 56617 C 5669.22 -0.588393 4.25249 0
M  V30 56618 C 5668.45 -1.5746 5.09943 0
M  V30 56619 O 5668.68 -2.80689 4.96558 0
M  V30 56620 O 5667.61 -1.116 5.91464 0
M  V30 56621 H 5671.44 0.452368 3.00312 0
M  V30 56622 H 5669.02 0.287301 1.46612 0
M  V30 56623 H 5670.9 -1.87643 3.77317 0
M  V30 56624 H 5669.58 -1.9551 2.57988 0
M  V30 56625 H 5668.48 0.0505337 3.74066 0
M  V30 56626 H 5669.82 0.0468 4.92178 0
M  V30 56627 N 5671.47 -1.55419 0.261294 0
M  V30 56628 C 5672.72 -1.98462 -0.359982 0
M  V30 56629 C 5673.03 -1.15294 -1.58009 0
M  V30 56630 O 5674.24 -1.48416 -2.27343 0
M  V30 56631 C 5672.69 -3.53188 -0.69184 0
M  V30 56632 C 5672.3 -4.45114 0.507677 0
M  V30 56633 C 5674.05 -4.04853 -1.27651 0
M  V30 56634 C 5671.95 -5.91207 0.151174 0
M  V30 56635 H 5670.88 -0.741212 -0.138277 0
M  V30 56636 H 5673.53 -1.79858 0.363776 0
M  V30 56637 H 5671.92 -3.6754 -1.47412 0
M  V30 56638 H 5673.09 -4.42526 1.2848 0
M  V30 56639 H 5671.4 -4.04009 1.00825 0
M  V30 56640 H 5674 -5.11534 -1.55681 0
M  V30 56641 H 5674.34 -3.53058 -2.20581 0
M  V30 56642 H 5674.88 -3.93884 -0.556817 0
M  V30 56643 H 5671.62 -6.47068 1.04799 0
M  V30 56644 H 5671.14 -5.96896 -0.589461 0
M  V30 56645 H 5672.82 -6.46471 -0.261544 0
M  V30 56646 N 5672.95 0.011629 -1.57596 0
M  V30 56647 C 5674.36 0.367548 -1.5531 0
M  V30 56648 C 5674.56 1.75521 -0.989681 0
M  V30 56649 O 5673.62 2.44811 -0.618375 0
M  V30 56650 C 5674.93 0.253426 -2.9963 0
M  V30 56651 C 5676.48 0.329226 -3.11264 0
M  V30 56652 C 5676.96 0.244359 -4.57348 0
M  V30 56653 N 5678.45 0.302619 -4.6221 0
M  V30 56654 C 5679.18 0.260113 -5.7281 0
M  V30 56655 N 5678.68 0.16888 -6.92594 0
M  V30 56656 N 5680.47 0.311126 -5.61238 0
M  V30 56657 H 5672.62 -0.896272 -1.92564 0
M  V30 56658 H 5674.88 -0.342477 -0.883976 0
M  V30 56659 H 5674.59 -0.700861 -3.44646 0
M  V30 56660 H 5674.46 1.04016 -3.62575 0
M  V30 56661 H 5676.85 1.27395 -2.66185 0
M  V30 56662 H 5676.93 -0.487173 -2.51118 0
M  V30 56663 H 5676.58 -0.696773 -5.03098 0
M  V30 56664 H 5676.51 1.07909 -5.15425 0
M  V30 56665 H 5679 0.374935 -3.76035 0
M  V30 56666 H 5679.31 0.142024 -7.72669 0
M  V30 56667 H 5677.66 0.134675 -6.9487 0
M  V30 56668 H 5680.85 0.380514 -4.66551 0
M  V30 56669 H 5681.02 0.274533 -6.47418 0
M  V30 56670 N 5674.43 1.55016 0.284201 0
M  V30 56671 C 5675.84 1.65918 0.856046 0
M  V30 56672 C 5676.19 0.578824 1.87468 0
M  V30 56673 O 5675.31 -0.281657 2.14559 0
M  V30 56674 C 5675.91 3.00776 1.55946 0
M  V30 56675 C 5674.47 3.13742 2.07949 0
M  V30 56676 C 5673.61 2.61673 0.917757 0
M  V30 56677 H 5676.56 1.58583 0.060803 0
M  V30 56678 H 5676.59 2.93139 2.4259 0
M  V30 56679 H 5676.1 3.79385 0.817846 0
M  V30 56680 H 5674.2 2.39886 2.85106 0
M  V30 56681 H 5674.31 4.20146 2.30249 0
M  V30 56682 H 5672.68 2.18547 1.30802 0
M  V30 56683 H 5673.46 3.42775 0.189825 0
M  V30 56684 N 5675.9 -0.548196 1.47758 0
M  V30 56685 C 5677.15 -1.30452 1.56057 0
M  V30 56686 C 5677.51 -1.91095 0.223697 0
M  V30 56687 O 5676.8 -1.75377 -0.771582 0
M  V30 56688 C 5676.99 -2.42902 2.62171 0
M  V30 56689 C 5676.82 -1.93279 4.06046 0
M  V30 56690 C 5675.59 -1.76711 4.73394 0
M  V30 56691 C 5677.79 -1.47196 4.92786 0
M  V30 56692 N 5675.77 -1.21522 6.01752 0
M  V30 56693 C 5677.14 -1.03833 6.11243 0
M  V30 56694 C 5679.2 -1.35331 4.79155 0
M  V30 56695 C 5677.9 -0.497834 7.17575 0
M  V30 56696 C 5679.93 -0.826817 5.85592 0
M  V30 56697 C 5679.29 -0.403163 7.03245 0
M  V30 56698 H 5675.39 -0.469053 0.62571 0
M  V30 56699 H 5677.97 -0.62034 1.84553 0
M  V30 56700 H 5676.14 -3.08839 2.35527 0
M  V30 56701 H 5677.87 -3.09915 2.6026 0
M  V30 56702 H 5674.63 -1.99694 4.29441 0
M  V30 56703 H 5675.05 -0.959897 6.7016 0
M  V30 56704 H 5679.7 -1.66695 3.88552 0
M  V30 56705 H 5677.41 -0.171839 8.07917 0
M  V30 56706 H 5681 -0.738438 5.77095 0
M  V30 56707 H 5679.88 -0.0020877 7.842 0
M  V30 56708 N 5677.38 -1.36041 -0.795646 0
M  V30 56709 C 5678.62 -1.313 -1.56651 0
M  V30 56710 C 5678.99 0.108257 -1.91695 0
M  V30 56711 O 5680.19 0.280154 -2.67336 0
M  V30 56712 C 5678.46 -2.20421 -2.81335 0
M  V30 56713 S 5680.02 -2.33302 -3.71639 0
M  V30 56714 H 5676.84 -0.466459 -0.536598 0
M  V30 56715 H 5679.44 -1.71548 -0.937637 0
M  V30 56716 H 5678.14 -3.22644 -2.53632 0
M  V30 56717 H 5677.67 -1.8117 -3.492 0
M  V30 56718 H 5679.69 -1.52592 -4.72155 0
M  V30 56719 N 5678.86 1.01908 -1.20218 0
M  V30 56720 C 5680.09 1.78813 -1.03487 0
M  V30 56721 C 5680.5 1.845 0.419087 0
M  V30 56722 O 5679.84 1.29511 1.30279 0
M  V30 56723 C 5679.9 3.24852 -1.53984 0
M  V30 56724 C 5679.57 3.42778 -3.02246 0
M  V30 56725 C 5680.56 3.32199 -3.99925 0
M  V30 56726 C 5678.25 3.68675 -3.41151 0
M  V30 56727 C 5680.24 3.47257 -5.34501 0
M  V30 56728 C 5677.93 3.83377 -4.75883 0
M  V30 56729 C 5678.93 3.72673 -5.72367 0
M  V30 56730 O 5678.62 3.86929 -7.04657 0
M  V30 56731 H 5678.35 0.569255 -0.364588 0
M  V30 56732 H 5680.9 1.29179 -1.59694 0
M  V30 56733 H 5679.13 3.75557 -0.92161 0
M  V30 56734 H 5680.82 3.83384 -1.3331 0
M  V30 56735 H 5681.59 3.12131 -3.71213 0
M  V30 56736 H 5677.47 3.76095 -2.66596 0
M  V30 56737 H 5681.01 3.38818 -6.09793 0
M  V30 56738 H 5676.91 4.02945 -5.04288 0
M  V30 56739 H 5677.68 4.03961 -7.11869 0
M  V30 56740 N 5680.34 1.00767 1.21176 0
M  V30 56741 C 5681.57 0.710814 1.94307 0
M  V30 56742 C 5681.98 -0.727042 1.7424 0
M  V30 56743 O 5681.34 -1.49219 1.05071 0
M  V30 56744 C 5681.39 1.02574 3.46642 0
M  V30 56745 O 5681.11 2.40712 3.66046 0
M  V30 56746 C 5682.61 0.748671 4.36932 0
M  V30 56747 H 5679.83 0.261732 0.617849 0
M  V30 56748 H 5682.38 1.34644 1.5392 0
M  V30 56749 H 5680.53 0.435673 3.84942 0
M  V30 56750 H 5680.94 2.5178 4.60116 0
M  V30 56751 H 5682.42 1.01918 5.4251 0
M  V30 56752 H 5682.9 -0.317269 4.38053 0
M  V30 56753 H 5683.5 1.32048 4.04281 0
M  V30 56754 N 5681.82 -1.36787 0.782749 0
M  V30 56755 C 5682.75 -2.2787 0.122611 0
M  V30 56756 C 5683.73 -1.46887 -0.697347 0
M  V30 56757 O 5684.91 -1.762 -0.669757 0
M  V30 56758 C 5682.04 -3.28317 -0.832195 0
M  V30 56759 C 5681.08 -4.26394 -0.0948653 0
M  V30 56760 S 5681.92 -5.21306 1.22476 0
M  V30 56761 C 5683.07 -6.25301 0.273778 0
M  V30 56762 H 5683.31 -2.83511 0.894914 0
M  V30 56763 H 5680.84 -1.43227 0.57665 0
M  V30 56764 H 5682.8 -3.86693 -1.37765 0
M  V30 56765 H 5681.46 -2.71602 -1.57769 0
M  V30 56766 H 5680.65 -4.97299 -0.819103 0
M  V30 56767 H 5680.25 -3.72065 0.379909 0
M  V30 56768 H 5682.55 -6.75265 -0.549827 0
M  V30 56769 H 5683.49 -7.01681 0.951318 0
M  V30 56770 H 5683.9 -5.64373 -0.119917 0
M  V30 56771 N 5683.29 -0.534202 -1.4827 0
M  V30 56772 C 5684.57 0.0629494 -1.95499 0
M  V30 56773 C 5684.95 1.50872 -1.47651 0
M  V30 56774 O 5684.3 2.17355 -0.704906 0
M  V30 56775 C 5684.51 -0.0586702 -3.48951 0
M  V30 56776 C 5685.86 0.0984485 -4.24486 0
M  V30 56777 O 5686.88 0.0149185 -3.56197 0
M  V30 56778 O 5685.74 0.274164 -5.45812 0
M  V30 56779 H 5682.83 0.0769552 -0.823412 0
M  V30 56780 H 5685.38 -0.599098 -1.58773 0
M  V30 56781 H 5684.15 -1.06562 -3.76511 0
M  V30 56782 H 5683.78 0.642037 -3.92382 0
M  V30 56783 N 5684.77 1.55278 -0.269533 0
M  V30 56784 C 5686.18 1.85286 0.229307 0
M  V30 56785 C 5686.53 1.19153 1.55875 0
M  V30 56786 O 5685.66 0.477874 2.11058 0
M  V30 56787 C 5686.25 3.36151 0.422841 0
M  V30 56788 C 5684.81 3.66304 0.865919 0
M  V30 56789 C 5683.96 2.77265 -0.0440003 0
M  V30 56790 H 5686.91 1.50898 -0.49148 0
M  V30 56791 H 5686.93 3.58955 1.26222 0
M  V30 56792 H 5686.44 3.84256 -0.544903 0
M  V30 56793 H 5684.55 3.23695 1.84533 0
M  V30 56794 H 5684.66 4.73853 0.707107 0
M  V30 56795 H 5683.02 2.50301 0.471345 0
M  V30 56796 H 5683.81 3.28183 -1.00753 0
M  V30 56797 N 5686.25 -0.00327115 1.576 0
M  V30 56798 C 5687.48 -0.703519 1.95103 0
M  V30 56799 C 5687.9 -1.66694 0.871476 0
M  V30 56800 O 5687.26 -1.80495 -0.170675 0
M  V30 56801 C 5687.31 -1.41445 3.31701 0
M  V30 56802 O 5686.41 -2.52874 3.25774 0
M  V30 56803 H 5685.75 -0.187374 0.637014 0
M  V30 56804 H 5688.28 0.0489446 2.04541 0
M  V30 56805 H 5688.29 -1.77861 3.67191 0
M  V30 56806 H 5686.97 -0.708038 4.09829 0
M  V30 56807 H 5685.54 -2.1881 3.01955 0
M  V30 56808 N 5687.73 -1.55165 -0.275976 0
M  V30 56809 C 5688.97 -1.75891 -1.00947 0
M  V30 56810 C 5689.31 -0.556765 -1.86048 0
M  V30 56811 O 5688.58 0.445732 -1.89324 0
M  V30 56812 C 5688.87 -3.06235 -1.89452 0
M  V30 56813 C 5688.72 -4.36799 -1.07364 0
M  V30 56814 C 5690.04 -3.32599 -2.88211 0
M  V30 56815 H 5687.16 -0.639942 -0.365573 0
M  V30 56816 H 5689.8 -1.87894 -0.28209 0
M  V30 56817 H 5687.95 -2.96133 -2.51471 0
M  V30 56818 H 5689.62 -4.58854 -0.474388 0
M  V30 56819 H 5687.86 -4.32159 -0.377013 0
M  V30 56820 H 5688.53 -5.24321 -1.72603 0
M  V30 56821 H 5691.01 -3.42475 -2.36326 0
M  V30 56822 H 5689.89 -4.25072 -3.47282 0
M  V30 56823 H 5690.15 -2.52096 -3.63181 0
M  V30 56824 N 5689.21 0.540352 -1.48047 0
M  V30 56825 C 5690.62 0.867911 -1.33938 0
M  V30 56826 C 5690.82 1.98567 -0.342557 0
M  V30 56827 O 5689.88 2.51357 0.239933 0
M  V30 56828 C 5691.19 1.24522 -2.73705 0
M  V30 56829 C 5692.74 1.3557 -2.82117 0
M  V30 56830 C 5693.21 1.76649 -4.22563 0
M  V30 56831 N 5694.71 1.8377 -4.25186 0
M  V30 56832 C 5695.44 2.16919 -5.30786 0
M  V30 56833 N 5694.94 2.48564 -6.46674 0
M  V30 56834 N 5696.73 2.17837 -5.18173 0
M  V30 56835 H 5688.88 -0.197326 -2.11481 0
M  V30 56836 H 5691.14 -0.025628 -0.947654 0
M  V30 56837 H 5690.85 0.497608 -3.48162 0
M  V30 56838 H 5690.72 2.19769 -3.06564 0
M  V30 56839 H 5693.11 2.0941 -2.07922 0
M  V30 56840 H 5693.19 0.384698 -2.52891 0
M  V30 56841 H 5692.84 1.03373 -4.97269 0
M  V30 56842 H 5692.77 2.74781 -4.49225 0
M  V30 56843 H 5695.26 1.61633 -3.41589 0
M  V30 56844 H 5695.57 2.72934 -7.22999 0
M  V30 56845 H 5693.91 2.46107 -6.49966 0
M  V30 56846 H 5697.11 1.92565 -4.26657 0
M  V30 56847 H 5697.28 2.4334 -6.00574 0
M  V30 56848 N 5690.69 1.36461 0.78842 0
M  V30 56849 C 5691.93 1.31948 1.54794 0
M  V30 56850 C 5692.29 -0.100215 1.92139 0
M  V30 56851 O 5691.58 -1.05499 1.59939 0
M  V30 56852 C 5691.77 2.17682 2.83459 0
M  V30 56853 C 5691.6 3.67845 2.58689 0
M  V30 56854 C 5690.37 4.37018 2.53659 0
M  V30 56855 C 5692.57 4.61089 2.27819 0
M  V30 56856 N 5690.55 5.72819 2.20797 0
M  V30 56857 C 5691.92 5.85145 2.04953 0
M  V30 56858 C 5693.98 4.49644 2.13833 0
M  V30 56859 C 5692.68 6.9904 1.69517 0
M  V30 56860 C 5694.71 5.63407 1.79796 0
M  V30 56861 C 5694.07 6.86502 1.57779 0
M  V30 56862 H 5690.17 0.538107 0.56742 0
M  V30 56863 H 5692.75 1.71523 0.921298 0
M  V30 56864 H 5690.92 1.8035 3.43989 0
M  V30 56865 H 5692.66 2.04551 3.49201 0
M  V30 56866 H 5689.41 3.89831 2.6894 0
M  V30 56867 H 5689.83 6.44542 2.07109 0
M  V30 56868 H 5694.48 3.55062 2.29545 0
M  V30 56869 H 5692.19 7.93572 1.52543 0
M  V30 56870 H 5695.78 5.56514 1.69657 0
M  V30 56871 H 5694.66 7.7304 1.31828 0
M  V30 56872 N 5692.16 -1.01269 1.20757 0
M  V30 56873 C 5693.07 -2.13346 0.975731 0
M  V30 56874 C 5694.09 -1.7386 -0.0696753 0
M  V30 56875 O 5695.27 -2.0105 0.118649 0
M  V30 56876 C 5692.33 -3.42546 0.535051 0
M  V30 56877 C 5691.39 -3.96251 1.65177 0
M  V30 56878 C 5690.62 -5.19285 1.23202 0
M  V30 56879 O 5690.85 -5.70308 0.102359 0
M  V30 56880 O 5689.78 -5.6624 2.04096 0
M  V30 56881 H 5693.61 -2.35777 1.91424 0
M  V30 56882 H 5691.19 -1.11732 0.991782 0
M  V30 56883 H 5693.07 -4.2034 0.298716 0
M  V30 56884 H 5691.75 -3.21523 -0.374824 0
M  V30 56885 H 5690.66 -3.1972 1.94243 0
M  V30 56886 H 5691.99 -4.21671 2.53879 0
M  V30 56887 N 5693.64 -1.01408 -1.2064 0
M  V30 56888 C 5694.87 -0.720063 -1.93646 0
M  V30 56889 C 5695.28 0.722811 -1.74849 0
M  V30 56890 O 5694.62 1.50168 -1.05807 0
M  V30 56891 C 5694.68 -0.972759 -3.46089 0
M  V30 56892 C 5694.35 -2.40425 -3.88645 0
M  V30 56893 C 5695.35 -3.38495 -3.9461 0
M  V30 56894 C 5693.03 -2.74433 -4.20704 0
M  V30 56895 C 5695.02 -4.68634 -4.32043 0
M  V30 56896 C 5692.71 -4.04786 -4.57812 0
M  V30 56897 C 5693.71 -5.01697 -4.63453 0
M  V30 56898 O 5693.4 -6.29718 -4.99711 0
M  V30 56899 H 5693.13 -0.263871 -0.622373 0
M  V30 56900 H 5695.68 -1.35747 -1.54149 0
M  V30 56901 H 5693.91 -0.278193 -3.85698 0
M  V30 56902 H 5695.6 -0.670713 -4.0032 0
M  V30 56903 H 5696.37 -3.13558 -3.70009 0
M  V30 56904 H 5692.25 -1.99689 -4.15506 0
M  V30 56905 H 5695.79 -5.44275 -4.36361 0
M  V30 56906 H 5691.69 -4.29503 -4.81869 0
M  V30 56907 H 5692.46 -6.33969 -5.17712 0
M  V30 56908 N 5695.12 1.3637 -0.789992 0
M  V30 56909 C 5696.36 2.01059 -0.368065 0
M  V30 56910 C 5696.72 1.6134 1.04084 0
M  V30 56911 O 5697.92 2.18623 1.56388 0
M  V30 56912 C 5696.2 3.5349 -0.527231 0
M  V30 56913 S 5697.75 4.38374 -0.193267 0
M  V30 56914 H 5694.57 0.69696 -0.140598 0
M  V30 56915 H 5697.17 1.66252 -1.02861 0
M  V30 56916 H 5695.88 3.79885 -1.55292 0
M  V30 56917 H 5695.41 3.93117 0.149225 0
M  V30 56918 H 5697.42 4.85917 1.00496 0
M  V30 56919 N 5696.6 0.542057 1.47985 0
M  V30 56920 C 5697.55 -0.227317 2.31487 0
M  V30 56921 C 5698.54 -0.923934 1.41985 0
M  V30 56922 O 5699.75 -0.846944 1.5883 0
M  V30 56923 H 5696.12 -0.0921771 0.746329 0
M  V30 56924 H 5698.09 0.496353 2.94243 0
M  V30 56925 C 5696.84 -1.25372 3.2431 0
M  V30 56926 H 5696.16 -0.727105 3.93133 0
M  V30 56927 H 5697.6 -1.76323 3.85598 0
M  V30 56928 C 5696.06 -2.29369 2.46762 0
M  V30 56929 O 5696.59 -3.36027 2.20111 0
M  V30 56930 N 5694.8 -2.02898 2.0804 0
M  V30 56931 H 5694.35 -1.16177 2.29914 0
M  V30 56932 H 5694.3 -2.727 1.56468 0
M  V30 56933 N 5698.08 -1.55133 0.277764 0
M  V30 56934 C 5699.01 -2.25602 -0.602153 0
M  V30 56935 C 5699.99 -1.24712 -1.15676 0
M  V30 56936 O 5701.17 -1.53437 -1.19041 0
M  V30 56937 C 5698.3 -2.97913 -1.78508 0
M  V30 56938 C 5697.26 -4.05754 -1.36189 0
M  V30 56939 C 5696.58 -4.65654 -2.62813 0
M  V30 56940 C 5697.88 -5.19803 -0.510144 0
M  V30 56941 H 5699.58 -2.99397 -0.014457 0
M  V30 56942 H 5697.12 -1.43999 -0.00551326 0
M  V30 56943 H 5699.07 -3.45923 -2.40656 0
M  V30 56944 H 5697.8 -2.21658 -2.39865 0
M  V30 56945 H 5696.46 -3.58559 -0.7636 0
M  V30 56946 H 5696.11 -3.86064 -3.22434 0
M  V30 56947 H 5695.81 -5.38471 -2.35208 0
M  V30 56948 H 5697.33 -5.16414 -3.25804 0
M  V30 56949 H 5698.74 -5.63849 -1.03669 0
M  V30 56950 H 5697.14 -5.99198 -0.328862 0
M  V30 56951 H 5698.21 -4.82613 0.470443 0
M  V30 56952 N 5699.55 -0.00508679 -1.57599 0
M  V30 56953 C 5700.78 0.689541 -1.95072 0
M  V30 56954 C 5701.2 1.67025 -0.880241 0
M  V30 56955 O 5700.55 1.8196 0.140343 0
M  V30 56956 C 5700.6 1.41697 -3.32572 0
M  V30 56957 O 5700.33 0.475592 -4.35511 0
M  V30 56958 C 5701.83 2.20564 -3.84534 0
M  V30 56959 H 5699.05 0.191728 -0.643025 0
M  V30 56960 H 5701.59 -0.0577179 -2.04419 0
M  V30 56961 H 5699.75 2.11582 -3.24518 0
M  V30 56962 H 5700.16 0.989392 -5.15084 0
M  V30 56963 H 5701.63 2.66952 -4.83157 0
M  V30 56964 H 5702.11 3.03456 -3.17508 0
M  V30 56965 H 5702.72 1.55686 -3.9578 0
M  V30 56966 N 5701.03 1.55309 0.267743 0
M  V30 56967 C 5701.96 1.84968 1.3535 0
M  V30 56968 C 5702.98 0.734511 1.45289 0
M  V30 56969 O 5704.17 1.01242 1.47011 0
M  V30 56970 C 5701.27 2.0023 2.73425 0
M  V30 56971 C 5700.44 3.30932 2.86012 0
M  V30 56972 C 5699.5 3.36194 4.04796 0
M  V30 56973 O 5698.52 4.09539 3.95306 0
M  V30 56974 N 5699.73 2.63977 5.17007 0
M  V30 56975 H 5702.49 2.78684 1.1025 0
M  V30 56976 H 5700.05 1.55291 0.457859 0
M  V30 56977 H 5702.04 2.01116 3.5119 0
M  V30 56978 H 5700.61 1.13356 2.91323 0
M  V30 56979 H 5699.83 3.42541 1.95088 0
M  V30 56980 H 5701.12 4.1712 2.91357 0
M  V30 56981 H 5700.52 2.04081 5.27605 0
M  V30 56982 H 5699.08 2.70579 5.92984 0
M  V30 56983 N 5702.51 -0.532493 1.48332 0
M  V30 56984 C 5703.75 -1.29897 1.57817 0
M  V30 56985 C 5704.11 -1.90426 0.24535 0
M  V30 56986 O 5705.31 -2.67937 0.215177 0
M  V30 56987 C 5703.59 -2.3611 2.68304 0
M  V30 56988 S 5705.14 -3.22516 2.97538 0
M  V30 56989 H 5701.96 -0.441889 0.557006 0
M  V30 56990 H 5704.56 -0.606917 1.85841 0
M  V30 56991 H 5703.27 -1.90118 3.63708 0
M  V30 56992 H 5702.8 -3.10025 2.42174 0
M  V30 56993 H 5704.81 -4.36136 2.36643 0
M  V30 56994 N 5703.99 -1.36878 -0.781172 0
M  V30 56995 C 5705.4 -1.28241 -1.35687 0
M  V30 56996 C 5705.75 0.0741597 -1.9606 0
M  V30 56997 O 5704.87 0.975813 -1.9315 0
M  V30 56998 C 5705.47 -2.32223 -2.46694 0
M  V30 56999 C 5704.03 -2.2725 -3.00057 0
M  V30 57000 C 5703.18 -2.16559 -1.73198 0
M  V30 57001 H 5706.13 -1.47636 -0.582165 0
M  V30 57002 H 5706.15 -1.96344 -3.25928 0
M  V30 57003 H 5705.66 -3.30945 -2.02724 0
M  V30 57004 H 5703.76 -1.32022 -3.48426 0
M  V30 57005 H 5703.87 -3.20279 -3.56312 0
M  V30 57006 H 5702.24 -1.62948 -1.95755 0
M  V30 57007 H 5703.02 -3.1718 -1.31345 0
M  V30 57008 N 5705.47 1.00628 -1.21292 0
M  V30 57009 C 5706.71 1.74643 -1.0309 0
M  V30 57010 C 5707.05 1.89272 0.434694 0
M  V30 57011 O 5706.32 1.42611 1.32258 0
M  V30 57012 C 5706.6 3.15974 -1.7272 0
M  V30 57013 C 5706.46 3.09076 -3.2679 0
M  V30 57014 C 5707.78 4.1487 -1.46871 0
M  V30 57015 H 5704.89 0.633924 -0.375911 0
M  V30 57016 H 5707.54 1.17323 -1.4945 0
M  V30 57017 H 5705.69 3.64913 -1.33307 0
M  V30 57018 H 5707.36 2.67861 -3.75564 0
M  V30 57019 H 5705.6 2.4621 -3.5716 0
M  V30 57020 H 5706.27 4.09028 -3.70675 0
M  V30 57021 H 5708.75 3.74631 -1.81083 0
M  V30 57022 H 5707.62 5.11903 -1.98106 0
M  V30 57023 H 5707.89 4.40301 -0.398451 0
M  V30 57024 N 5706.94 1.02047 1.20101 0
M  V30 57025 C 5707.88 0.538681 2.21751 0
M  V30 57026 C 5708.86 -0.415961 1.57189 0
M  V30 57027 O 5710.04 -0.335049 1.85498 0
M  V30 57028 C 5707.17 -0.215587 3.38013 0
M  V30 57029 C 5706.21 0.689198 4.20895 0
M  V30 57030 S 5707.05 2.16058 4.89979 0
M  V30 57031 C 5708.2 1.41658 6.09659 0
M  V30 57032 H 5708.43 1.39997 2.62275 0
M  V30 57033 H 5705.97 0.829686 1.30214 0
M  V30 57034 H 5707.93 -0.644656 4.05407 0
M  V30 57035 H 5706.59 -1.0525 2.95941 0
M  V30 57036 H 5705.78 0.107372 5.03886 0
M  V30 57037 H 5705.38 1.05621 3.58776 0
M  V30 57038 H 5707.67 0.698651 6.73888 0
M  V30 57039 H 5708.62 2.22278 6.72308 0
M  V30 57040 H 5709.02 0.917768 5.56989 0
M  V30 57041 N 5708.42 -1.3595 0.797213 0
M  V30 57042 C 5709.33 -2.33726 0.202353 0
M  V30 57043 C 5710.35 -1.61417 -0.649662 0
M  V30 57044 O 5711.52 -1.93353 -0.563618 0
M  V30 57045 C 5708.59 -3.40615 -0.64673 0
M  V30 57046 C 5707.65 -4.28712 0.224687 0
M  V30 57047 C 5706.88 -5.30496 -0.583967 0
M  V30 57048 O 5707.11 -5.40606 -1.81938 0
M  V30 57049 O 5706.04 -6.01897 0.0202355 0
M  V30 57050 H 5709.87 -2.86379 1.01097 0
M  V30 57051 H 5707.45 -1.38555 0.558816 0
M  V30 57052 H 5709.33 -4.05948 -1.13066 0
M  V30 57053 H 5708.01 -2.90248 -1.43311 0
M  V30 57054 H 5706.92 -3.66391 0.755544 0
M  V30 57055 H 5708.25 -4.82451 0.974772 0
M  V30 57056 N 5709.9 -0.549898 -1.47695 0
M  V30 57057 C 5711.13 -0.0257548 -2.07384 0
M  V30 57058 C 5711.55 1.2552 -1.40094 0
M  V30 57059 O 5710.91 1.75009 -0.473467 0
M  V30 57060 C 5710.96 0.160708 -3.60242 0
M  V30 57061 O 5710.06 1.22496 -3.93788 0
M  V30 57062 H 5709.4 -0.0480437 -0.66226 0
M  V30 57063 H 5711.93 -0.763496 -1.89821 0
M  V30 57064 H 5711.94 0.377194 -4.06253 0
M  V30 57065 H 5710.62 -0.774917 -4.08617 0
M  V30 57066 H 5709.19 0.989543 -3.59531 0
M  V30 57067 N 5711.38 1.54983 -0.285987 0
M  V30 57068 C 5712.61 2.0424 0.330702 0
M  V30 57069 C 5713.02 1.16392 1.48655 0
M  V30 57070 O 5712.38 0.186319 1.81546 0
M  V30 57071 C 5712.43 3.52507 0.801332 0
M  V30 57072 O 5712.15 4.37013 -0.308494 0
M  V30 57073 C 5713.65 4.17697 1.48472 0
M  V30 57074 H 5710.87 0.666906 0.0740116 0
M  V30 57075 H 5713.42 2.00114 -0.421248 0
M  V30 57076 H 5711.57 3.57041 1.50334 0
M  V30 57077 H 5711.98 5.24471 0.0552047 0
M  V30 57078 H 5713.46 5.23011 1.76533 0
M  V30 57079 H 5713.94 3.66524 2.41986 0
M  V30 57080 H 5714.54 4.17196 0.826281 0
M  V30 57081 N 5712.86 0.0134446 1.57594 0
M  V30 57082 C 5713.79 -0.972266 2.12295 0
M  V30 57083 C 5714.77 -1.34967 1.03527 0
M  V30 57084 O 5715.95 -1.43105 1.3128 0
M  V30 57085 C 5713.08 -2.25978 2.63725 0
M  V30 57086 C 5712.04 -2.0236 3.7714 0
M  V30 57087 C 5711.36 -3.37241 4.14937 0
M  V30 57088 C 5712.66 -1.37536 5.03866 0
M  V30 57089 H 5714.36 -0.516766 2.94907 0
M  V30 57090 H 5711.9 -0.247126 1.41864 0
M  V30 57091 H 5713.86 -2.95302 3.00624 0
M  V30 57092 H 5712.58 -2.73666 1.78254 0
M  V30 57093 H 5711.24 -1.35458 3.40656 0
M  V30 57094 H 5710.89 -3.82658 3.26469 0
M  V30 57095 H 5710.59 -3.22249 4.91354 0
M  V30 57096 H 5712.11 -4.07859 4.54405 0
M  V30 57097 H 5713.52 -1.96836 5.3845 0
M  V30 57098 H 5711.92 -1.3299 5.85178 0
M  V30 57099 H 5712.99 -0.346259 4.83662 0
M  V30 57100 N 5714.33 -1.55449 -0.259503 0
M  V30 57101 C 5715.26 -1.92265 -1.32501 0
M  V30 57102 C 5716.25 -0.786065 -1.50848 0
M  V30 57103 O 5717.43 -1.04532 -1.63666 0
M  V30 57104 C 5714.56 -2.20636 -2.68211 0
M  V30 57105 C 5713.51 -3.36427 -2.64577 0
M  V30 57106 C 5712.84 -3.5031 -4.03964 0
M  V30 57107 C 5714.14 -4.7246 -2.22663 0
M  V30 57108 H 5715.83 -2.81513 -1.01936 0
M  V30 57109 H 5713.38 -1.35446 -0.488917 0
M  V30 57110 H 5715.33 -2.4498 -3.42874 0
M  V30 57111 H 5714.06 -1.28201 -3.00386 0
M  V30 57112 H 5712.72 -3.12072 -1.92371 0
M  V30 57113 H 5712.36 -2.55317 -4.33385 0
M  V30 57114 H 5712.06 -4.28169 -4.02424 0
M  V30 57115 H 5713.59 -3.76961 -4.80347 0
M  V30 57116 H 5715 -4.96259 -2.87054 0
M  V30 57117 H 5713.4 -5.53331 -2.32259 0
M  V30 57118 H 5714.47 -4.70371 -1.1781 0
M  V30 57119 N 5715.81 0.524619 -1.48612 0
M  V30 57120 C 5717.04 1.30476 -1.60573 0
M  V30 57121 C 5717.46 1.86888 -0.268018 0
M  V30 57122 O 5716.81 1.66671 0.74343 0
M  V30 57123 C 5716.86 2.45182 -2.65647 0
M  V30 57124 O 5716.58 1.91093 -3.94227 0
M  V30 57125 C 5718.09 3.3692 -2.88096 0
M  V30 57126 H 5715.31 0.396593 -0.541253 0
M  V30 57127 H 5717.85 0.632323 -1.94479 0
M  V30 57128 H 5716 3.083 -2.34585 0
M  V30 57129 H 5716.42 2.66218 -4.51916 0
M  V30 57130 H 5717.89 4.13742 -3.65406 0
M  V30 57131 H 5718.37 3.9248 -1.9712 0
M  V30 57132 H 5718.98 2.7959 -3.20483 0
M  V30 57133 N 5717.29 1.3729 0.773902 0
M  V30 57134 C 5718.52 1.35569 1.56297 0
M  V30 57135 C 5718.93 -0.0594693 1.88706 0
M  V30 57136 O 5718.29 -1.02067 1.5129 0
M  V30 57137 C 5718.34 2.19205 2.87457 0
M  V30 57138 O 5718.06 3.55206 2.56438 0
M  V30 57139 C 5719.56 2.25439 3.81697 0
M  V30 57140 H 5716.78 0.464448 0.484282 0
M  V30 57141 H 5719.33 1.806 0.959361 0
M  V30 57142 H 5717.48 1.77688 3.44247 0
M  V30 57143 H 5717.9 3.99023 3.40413 0
M  V30 57144 H 5719.37 2.88286 4.70739 0
M  V30 57145 H 5719.85 1.2622 4.20672 0
M  V30 57146 H 5720.45 2.67259 3.30836 0
M  V30 57147 N 5718.77 -0.999829 1.21824 0
M  V30 57148 C 5720.18 -1.55287 1.03648 0
M  V30 57149 C 5720.53 -1.92034 -0.402179 0
M  V30 57150 O 5719.66 -1.74032 -1.28616 0
M  V30 57151 C 5720.25 -2.82171 1.87523 0
M  V30 57152 C 5718.81 -3.33943 1.73664 0
M  V30 57153 C 5717.96 -2.07089 1.84417 0
M  V30 57154 H 5720.91 -0.821703 1.35771 0
M  V30 57155 H 5720.93 -3.5426 1.38854 0
M  V30 57156 H 5720.44 -2.55394 2.92225 0
M  V30 57157 H 5718.54 -3.65642 0.716682 0
M  V30 57158 H 5718.65 -4.05013 2.55932 0
M  V30 57159 H 5717.02 -2.20327 1.27781 0
M  V30 57160 H 5717.8 -1.82718 2.90636 0
M  V30 57161 N 5720.25 -1.02682 -1.19558 0
M  V30 57162 C 5721.48 -0.741637 -1.93151 0
M  V30 57163 C 5721.89 0.69923 -1.75374 0
M  V30 57164 O 5721.25 1.47529 -1.07431 0
M  V30 57165 C 5721.3 -1.08076 -3.44966 0
M  V30 57166 O 5721.02 -2.46505 -3.6217 0
M  V30 57167 C 5722.52 -0.818088 -4.35686 0
M  V30 57168 H 5719.74 -0.271528 -0.613607 0
M  V30 57169 H 5722.28 -1.37076 -1.51758 0
M  V30 57170 H 5720.44 -0.496859 -3.84201 0
M  V30 57171 H 5720.85 -2.59069 -4.56052 0
M  V30 57172 H 5722.33 -1.10536 -5.4082 0
M  V30 57173 H 5722.8 0.247539 -4.38502 0
M  V30 57174 H 5723.41 -1.38463 -4.0213 0
M  V30 57175 N 5721.73 1.35525 -0.804411 0
M  V30 57176 C 5722.97 1.99125 -0.384331 0
M  V30 57177 C 5723.3 1.63671 1.04524 0
M  V30 57178 O 5722.58 0.898957 1.72479 0
M  V30 57179 C 5722.86 3.55634 -0.565403 0
M  V30 57180 C 5722.72 4.00892 -2.03975 0
M  V30 57181 C 5724.03 4.40099 0.0102754 0
M  V30 57182 H 5721.15 0.723364 -0.141117 0
M  V30 57183 H 5723.8 1.60709 -1.01354 0
M  V30 57184 H 5721.95 3.88489 -0.0297791 0
M  V30 57185 H 5723.62 3.78456 -2.63759 0
M  V30 57186 H 5721.86 3.51881 -2.53697 0
M  V30 57187 H 5722.53 5.09777 -2.11734 0
M  V30 57188 H 5725.01 4.13691 -0.44713 0
M  V30 57189 H 5723.88 5.48705 -0.146348 0
M  V30 57190 H 5724.14 4.281 1.10377 0
M  V30 57191 N 5723.2 0.557723 1.47402 0
M  V30 57192 C 5724.45 0.0339097 2.02772 0
M  V30 57193 C 5724.78 -1.31273 1.43112 0
M  V30 57194 O 5724.06 -1.85434 0.586886 0
M  V30 57195 C 5724.34 -0.0586161 3.60052 0
M  V30 57196 C 5724.19 1.31515 4.30144 0
M  V30 57197 C 5725.51 -0.77179 4.3328 0
M  V30 57198 H 5722.63 0.013797 0.736871 0
M  V30 57199 H 5725.27 0.720111 1.75825 0
M  V30 57200 H 5723.42 -0.643019 3.83142 0
M  V30 57201 H 5725.1 1.9428 4.18393 0
M  V30 57202 H 5723.34 1.8897 3.90478 0
M  V30 57203 H 5724.01 1.20313 5.38729 0
M  V30 57204 H 5726.49 -0.275583 4.15186 0
M  V30 57205 H 5725.36 -0.805492 5.42958 0
M  V30 57206 H 5725.62 -1.82802 4.02537 0
M  V30 57207 N 5724.68 -1.5483 0.294202 0
M  V30 57208 C 5726.09 -1.85628 -0.1998 0
M  V30 57209 C 5726.44 -1.21618 -1.53959 0
M  V30 57210 O 5725.57 -0.511391 -2.10271 0
M  V30 57211 C 5726.16 -3.36781 -0.369309 0
M  V30 57212 C 5724.72 -3.67635 -0.807533 0
M  V30 57213 C 5723.87 -2.7716 0.0881052 0
M  V30 57214 H 5726.82 -1.50097 0.515424 0
M  V30 57215 H 5726.84 -3.60917 -1.20495 0
M  V30 57216 H 5726.35 -3.8334 0.605965 0
M  V30 57217 H 5724.45 -3.2659 -1.7936 0
M  V30 57218 H 5724.57 -4.74918 -0.631632 0
M  V30 57219 H 5722.93 -2.51019 -0.431465 0
M  V30 57220 H 5723.71 -3.26538 1.05961 0
M  V30 57221 N 5726.16 -0.021802 -1.57585 0
M  V30 57222 C 5727.41 0.659395 -1.91781 0
M  V30 57223 C 5727.74 1.72198 -0.897861 0
M  V30 57224 O 5727.01 1.94334 0.0804407 0
M  V30 57225 C 5727.3 1.28257 -3.36485 0
M  V30 57226 C 5727.15 0.230043 -4.49211 0
M  V30 57227 C 5728.47 2.20266 -3.81013 0
M  V30 57228 H 5725.59 0.238238 -0.697432 0
M  V30 57229 H 5728.23 -0.0775634 -1.89842 0
M  V30 57230 H 5726.38 1.91068 -3.38268 0
M  V30 57231 H 5728.05 -0.400063 -4.59562 0
M  V30 57232 H 5726.29 -0.445309 -4.31508 0
M  V30 57233 H 5726.97 0.70554 -5.47472 0
M  V30 57234 H 5729.44 1.6745 -3.8092 0
M  V30 57235 H 5728.32 2.60825 -4.82972 0
M  V30 57236 H 5728.58 3.09081 -3.16103 0
M  V30 57237 N 5727.64 1.55584 0.251256 0
M  V30 57238 C 5729.05 1.67696 0.82066 0
M  V30 57239 C 5729.4 0.618459 1.86198 0
M  V30 57240 O 5728.52 -0.236083 2.15108 0
M  V30 57241 C 5729.12 3.04016 1.49531 0
M  V30 57242 C 5727.68 3.18082 2.01247 0
M  V30 57243 C 5726.83 2.6356 0.862046 0
M  V30 57244 H 5729.78 1.58677 0.0271514 0
M  V30 57245 H 5729.8 2.98218 2.36318 0
M  V30 57246 H 5729.31 3.81034 0.737189 0
M  V30 57247 H 5727.41 2.45879 2.79954 0
M  V30 57248 H 5727.52 4.24935 2.21285 0
M  V30 57249 H 5725.89 2.21272 1.26137 0
M  V30 57250 H 5726.67 3.431 0.117075 0
M  V30 57251 N 5729.12 -0.516731 1.48888 0
M  V30 57252 C 5730.34 -1.30097 1.61522 0
M  V30 57253 C 5730.77 -1.85995 0.280615 0
M  V30 57254 O 5730.12 -1.65077 -0.749613 0
M  V30 57255 C 5730.17 -2.41828 2.67491 0
M  V30 57256 O 5729.28 -3.45241 2.25571 0
M  V30 57257 H 5728.62 -0.384755 0.541165 0
M  V30 57258 H 5731.15 -0.620355 1.94969 0
M  V30 57259 H 5731.16 -2.87822 2.89175 0
M  V30 57260 H 5729.83 -2.00507 3.64376 0
M  V30 57261 H 5728.41 -3.05274 2.14155 0
M  V30 57262 N 5730.59 -1.37698 -0.766611 0
M  V30 57263 C 5731.82 -1.36395 -1.55576 0
M  V30 57264 C 5732.24 0.0494609 -1.88735 0
M  V30 57265 O 5731.59 1.01263 -1.51829 0
M  V30 57266 C 5731.64 -2.20727 -2.8629 0
M  V30 57267 O 5731.37 -3.56561 -2.5455 0
M  V30 57268 C 5732.87 -2.2746 -3.80496 0
M  V30 57269 H 5730.09 -0.46701 -0.481812 0
M  V30 57270 H 5732.63 -1.81107 -0.94977 0
M  V30 57271 H 5730.79 -1.79511 -3.43299 0
M  V30 57272 H 5731.2 -4.00823 -3.38292 0
M  V30 57273 H 5732.67 -2.90779 -4.69203 0
M  V30 57274 H 5733.15 -1.28449 -4.19997 0
M  V30 57275 H 5733.76 -2.6901 -3.29414 0
M  V30 57276 N 5732.07 0.993354 -1.22353 0
M  V30 57277 C 5732.98 2.11767 -1.00955 0
M  V30 57278 C 5734 1.73949 0.0420068 0
M  V30 57279 O 5735.17 2.00836 -0.150619 0
M  V30 57280 C 5732.24 3.41652 -0.589479 0
M  V30 57281 C 5731.3 3.93573 -1.7146 0
M  V30 57282 C 5730.53 5.17259 -1.31448 0
M  V30 57283 O 5730.76 5.70073 -0.193077 0
M  V30 57284 O 5729.69 5.62922 -2.13079 0
M  V30 57285 H 5733.52 2.32702 -1.9515 0
M  V30 57286 H 5731.1 1.1014 -1.00943 0
M  V30 57287 H 5732.98 4.19811 -0.36555 0
M  V30 57288 H 5731.66 3.22078 0.323625 0
M  V30 57289 H 5730.56 3.16589 -1.99305 0
M  V30 57290 H 5731.9 4.17579 -2.60555 0
M  V30 57291 N 5733.55 1.03315 1.19012 0
M  V30 57292 C 5734.48 0.638358 2.24605 0
M  V30 57293 C 5735.46 -0.354736 1.6636 0
M  V30 57294 O 5736.65 -0.236506 1.92754 0
M  V30 57295 C 5733.78 -0.00725107 3.47299 0
M  V30 57296 C 5732.73 0.908578 4.18245 0
M  V30 57297 C 5732.06 0.127846 5.34547 0
M  V30 57298 C 5733.36 2.22427 4.72571 0
M  V30 57299 H 5735.05 1.52108 2.57883 0
M  V30 57300 H 5732.6 0.732823 1.23958 0
M  V30 57301 H 5734.55 -0.295108 4.20365 0
M  V30 57302 H 5733.27 -0.924802 3.13233 0
M  V30 57303 H 5731.93 1.1807 3.47066 0
M  V30 57304 H 5731.58 -0.791874 4.96728 0
M  V30 57305 H 5731.28 0.737906 5.82948 0
M  V30 57306 H 5732.8 -0.15317 6.10408 0
M  V30 57307 H 5734.22 1.99764 5.37371 0
M  V30 57308 H 5732.61 2.78663 5.31476 0
M  V30 57309 H 5733.68 2.87597 3.90405 0
M  V30 57310 N 5735.03 -1.35096 0.811587 0
M  V30 57311 C 5736.44 -1.81081 0.454607 0
M  V30 57312 C 5736.79 -1.67365 -1.02389 0
M  V30 57313 O 5735.92 -1.20714 -1.79603 0
M  V30 57314 C 5736.51 -3.28767 0.81839 0
M  V30 57315 C 5735.07 -3.72875 0.513939 0
M  V30 57316 C 5734.22 -2.57004 1.04134 0
M  V30 57317 H 5737.17 -1.23004 1.00278 0
M  V30 57318 H 5737.19 -3.80318 0.117816 0
M  V30 57319 H 5736.7 -3.38718 1.89451 0
M  V30 57320 H 5734.8 -3.6847 -0.553238 0
M  V30 57321 H 5734.91 -4.67451 1.05007 0
M  V30 57322 H 5733.28 -2.50449 0.463425 0
M  V30 57323 H 5734.06 -2.69731 2.12368 0
M  V30 57324 N 5736.51 -0.565532 -1.47104 0
M  V30 57325 C 5737.73 -0.0477492 -2.07345 0
M  V30 57326 C 5738.16 1.24027 -1.41418 0
M  V30 57327 O 5737.51 1.74496 -0.492002 0
M  V30 57328 C 5737.56 0.122491 -3.60392 0
M  V30 57329 O 5736.67 1.18312 -3.95065 0
M  V30 57330 H 5736.01 -0.0550652 -0.661713 0
M  V30 57331 H 5738.54 -0.783586 -1.89 0
M  V30 57332 H 5738.55 0.334084 -4.0663 0
M  V30 57333 H 5737.22 -0.818213 -4.07772 0
M  V30 57334 H 5735.8 0.951355 -3.6056 0
M  V30 57335 N 5737.98 1.54671 -0.302409 0
M  V30 57336 C 5738.89 2.27253 0.582498 0
M  V30 57337 C 5739.91 1.30824 1.14722 0
M  V30 57338 O 5741.09 1.63808 1.17171 0
M  V30 57339 C 5738.15 3.00022 1.73746 0
M  V30 57340 C 5737.21 4.11993 1.20667 0
M  V30 57341 C 5736.45 4.81282 2.30659 0
M  V30 57342 O 5736.67 4.4994 3.50586 0
M  V30 57343 O 5735.6 5.68654 1.97271 0
M  V30 57344 H 5739.43 3.03699 -0.00632042 0
M  V30 57345 H 5737.01 1.49241 -0.0688209 0
M  V30 57346 H 5738.9 3.4566 2.41033 0
M  V30 57347 H 5737.57 2.2647 2.31286 0
M  V30 57348 H 5736.48 3.7075 0.499494 0
M  V30 57349 H 5737.81 4.87526 0.676687 0
M  V30 57350 N 5739.46 0.0301588 1.57571 0
M  V30 57351 C 5740.37 -0.967011 2.13743 0
M  V30 57352 C 5741.39 -1.35632 1.08995 0
M  V30 57353 O 5742.56 -1.43753 1.41057 0
M  V30 57354 C 5739.63 -2.23049 2.65425 0
M  V30 57355 C 5738.69 -1.90149 3.84892 0
M  V30 57356 C 5737.92 -3.10473 4.34099 0
M  V30 57357 O 5738.15 -4.23166 3.82475 0
M  V30 57358 O 5737.08 -2.9271 5.25932 0
M  V30 57359 H 5740.91 -0.519381 2.99226 0
M  V30 57360 H 5738.49 -0.190507 1.4818 0
M  V30 57361 H 5740.37 -2.97218 2.98729 0
M  V30 57362 H 5739.05 -2.6699 1.83024 0
M  V30 57363 H 5737.96 -1.13361 3.56511 0
M  V30 57364 H 5739.29 -1.51023 4.68458 0
M  V30 57365 N 5740.94 -1.55715 -0.243001 0
M  V30 57366 C 5741.9 -1.89837 -1.28432 0
M  V30 57367 C 5742.9 -0.775132 -1.40884 0
M  V30 57368 O 5744.09 -1.04309 -1.39518 0
M  V30 57369 C 5741.23 -2.13025 -2.66145 0
M  V30 57370 H 5742.42 -2.82951 -0.993923 0
M  V30 57371 H 5739.97 -1.48667 -0.482469 0
M  V30 57372 H 5740.71 -1.22392 -3.00318 0
M  V30 57373 H 5740.49 -2.94833 -2.58488 0
M  V30 57374 H 5741.98 -2.40593 -3.41328 0
M  V30 57375 N 5742.42 0.508828 -1.4916 0
M  V30 57376 C 5743.83 1.09048 -1.51543 0
M  V30 57377 C 5744.18 1.93936 -0.297167 0
M  V30 57378 O 5743.31 2.08094 0.593776 0
M  V30 57379 C 5743.9 1.98437 -2.74606 0
M  V30 57380 C 5742.46 2.5178 -2.79792 0
M  V30 57381 C 5741.61 1.29218 -2.45353 0
M  V30 57382 H 5744.56 0.293093 -1.5597 0
M  V30 57383 H 5744.58 2.83019 -2.54324 0
M  V30 57384 H 5744.09 1.36627 -3.63256 0
M  V30 57385 H 5742.19 3.17251 -1.95403 0
M  V30 57386 H 5742.3 2.89468 -3.81766 0
M  V30 57387 H 5740.67 1.61487 -1.96962 0
M  V30 57388 H 5741.45 0.691281 -3.36268 0
M  V30 57389 N 5743.9 1.38103 0.759297 0
M  V30 57390 C 5745.12 1.37219 1.5485 0
M  V30 57391 C 5745.54 -0.0394511 1.88759 0
M  V30 57392 O 5744.9 -1.00456 1.52364 0
M  V30 57393 C 5744.95 2.22242 2.85115 0
M  V30 57394 O 5744.67 3.57906 2.52656 0
M  V30 57395 C 5746.17 2.29475 3.79284 0
M  V30 57396 H 5743.39 0.469559 0.479328 0
M  V30 57397 H 5745.93 1.81608 0.940152 0
M  V30 57398 H 5744.09 1.81329 3.42343 0
M  V30 57399 H 5744.5 4.02611 3.36161 0
M  V30 57400 H 5745.98 2.93263 4.67655 0
M  V30 57401 H 5746.45 1.30674 4.1931 0
M  V30 57402 H 5747.06 2.70753 3.27983 0
M  V30 57403 N 5745.37 -0.986851 1.22878 0
M  V30 57404 C 5746.28 -2.11229 1.02077 0
M  V30 57405 C 5747.3 -1.73969 -0.0327812 0
M  V30 57406 O 5748.48 -2.00753 0.161268 0
M  V30 57407 C 5745.54 -3.41334 0.60759 0
M  V30 57408 C 5744.6 -3.92659 1.73545 0
M  V30 57409 C 5743.84 -5.16555 1.34189 0
M  V30 57410 O 5744.06 -5.69963 0.223306 0
M  V30 57411 O 5742.99 -5.61784 2.16061 0
M  V30 57412 H 5746.82 -2.31663 1.96382 0
M  V30 57413 H 5744.4 -1.09603 1.01526 0
M  V30 57414 H 5746.29 -4.19612 0.387809 0
M  V30 57415 H 5744.96 -3.22245 -0.30654 0
M  V30 57416 H 5743.87 -3.15527 2.00981 0
M  V30 57417 H 5745.2 -4.16191 2.62766 0
M  V30 57418 N 5746.85 -1.03945 -1.18462 0
M  V30 57419 C 5747.8 -0.623142 -2.24098 0
M  V30 57420 C 5748.79 0.34946 -1.65756 0
M  V30 57421 O 5750 0.216884 -1.78689 0
M  V30 57422 H 5746.38 -0.183289 -0.729321 0
M  V30 57423 H 5748.35 -1.52448 -2.56519 0
M  V30 57424 C 5747.1 -0.000749039 -3.477 0
M  V30 57425 H 5746.42 -0.740194 -3.92888 0
M  V30 57426 H 5747.86 0.253336 -4.23242 0
M  V30 57427 C 5746.32 1.24896 -3.12894 0
M  V30 57428 O 5746.85 2.33985 -3.26518 0
M  V30 57429 N 5745.05 1.14177 -2.6723 0
M  V30 57430 H 5744.6 0.254055 -2.56344 0
M  V30 57431 H 5744.56 1.97884 -2.44314 0
M  V30 57432 N 5748.33 1.34664 -0.81874 0
M  V30 57433 C 5749.56 2.03172 -0.416657 0
M  V30 57434 C 5749.98 1.61265 0.968264 0
M  V30 57435 O 5749.34 0.795227 1.62929 0
M  V30 57436 C 5749.39 3.56802 -0.522009 0
M  V30 57437 O 5748.49 4.09829 0.459809 0
M  V30 57438 H 5747.83 0.641293 -0.172159 0
M  V30 57439 H 5750.36 1.72002 -1.108 0
M  V30 57440 H 5750.37 4.06071 -0.396243 0
M  V30 57441 H 5749.05 3.86651 -1.53212 0
M  V30 57442 H 5747.62 3.71745 0.293274 0
M  V30 57443 N 5749.81 0.573325 1.46802 0
M  V30 57444 C 5751.04 0.0606711 2.06811 0
M  V30 57445 C 5751.45 -1.24019 1.42354 0
M  V30 57446 O 5750.81 -1.74768 0.525577 0
M  V30 57447 C 5750.86 -0.121701 3.61295 0
M  V30 57448 O 5750.58 1.12766 4.23338 0
M  V30 57449 C 5752.08 -0.669787 4.38211 0
M  V30 57450 H 5749.3 0.0531733 0.66889 0
M  V30 57451 H 5751.85 0.791325 1.88569 0
M  V30 57452 H 5750 -0.802541 3.78996 0
M  V30 57453 H 5750.42 0.935543 5.16089 0
M  V30 57454 H 5751.89 -0.746614 5.46927 0
M  V30 57455 H 5752.37 -1.68469 4.05604 0
M  V30 57456 H 5752.97 -0.0241225 4.25293 0
M  V30 57457 N 5751.29 -1.54509 0.310607 0
M  V30 57458 C 5752.54 -1.99932 -0.29525 0
M  V30 57459 C 5752.86 -1.20047 -1.53667 0
M  V30 57460 O 5752.13 -0.298909 -1.93606 0
M  V30 57461 H 5750.71 -0.738543 -0.112085 0
M  V30 57462 H 5753.37 -1.90229 0.424159 0
M  V30 57463 H 5752.46 -3.07023 -0.560641 0
M  V30 57464 N 5752.77 -0.0385148 -1.57553 0
M  V30 57465 C 5754.01 0.639017 -1.92469 0
M  V30 57466 C 5754.34 1.71236 -0.916074 0
M  V30 57467 O 5753.62 1.94408 0.0598245 0
M  V30 57468 C 5753.9 1.24681 -3.37826 0
M  V30 57469 C 5753.76 0.182386 -4.4943 0
M  V30 57470 C 5755.07 2.16213 -3.83328 0
M  V30 57471 H 5752.19 0.230827 -0.69992 0
M  V30 57472 H 5754.84 -0.0976943 -1.89749 0
M  V30 57473 H 5752.99 1.87469 -3.40276 0
M  V30 57474 H 5754.66 -0.448783 -4.59112 0
M  V30 57475 H 5752.9 -0.491051 -4.31012 0
M  V30 57476 H 5753.57 0.647433 -5.4819 0
M  V30 57477 H 5756.05 1.634 -3.82674 0
M  V30 57478 H 5754.92 2.55688 -4.85711 0
M  V30 57479 H 5755.18 3.05711 -3.19364 0
M  V30 57480 N 5754.24 1.55842 0.23474 0
M  V30 57481 C 5755.18 1.87797 1.31396 0
M  V30 57482 C 5756.19 0.765164 1.43698 0
M  V30 57483 O 5757.38 1.04338 1.44831 0
M  V30 57484 C 5754.48 2.05985 2.69116 0
M  V30 57485 C 5753.65 3.36924 2.78928 0
M  V30 57486 C 5752.71 3.44705 3.97574 0
M  V30 57487 O 5751.74 4.17832 3.8653 0
M  V30 57488 N 5752.94 2.74884 5.11292 0
M  V30 57489 H 5755.7 2.8096 1.04314 0
M  V30 57490 H 5753.26 1.56227 0.424817 0
M  V30 57491 H 5755.26 2.0852 3.46845 0
M  V30 57492 H 5753.83 1.1951 2.88853 0
M  V30 57493 H 5753.05 3.46602 1.87779 0
M  V30 57494 H 5754.33 4.23206 2.82443 0
M  V30 57495 H 5753.73 2.15226 5.23158 0
M  V30 57496 H 5752.29 2.83096 5.87112 0
M  V30 57497 N 5755.72 -0.50091 1.49428 0
M  V30 57498 C 5757 -1.26225 1.49421 0
M  V30 57499 C 5757.38 -2.0993 0.221982 0
M  V30 57500 O 5756.73 -2.14201 -0.795637 0
M  V30 57501 C 5756.94 -2.11889 2.77316 0
M  V30 57502 C 5758.28 -2.71074 3.26809 0
M  V30 57503 O 5759.31 -2.22156 2.78433 0
M  V30 57504 O 5758.17 -3.60126 4.11061 0
M  V30 57505 H 5755.26 -0.571203 0.598044 0
M  V30 57506 H 5757.81 -0.515173 1.61691 0
M  V30 57507 H 5756.58 -1.50014 3.61402 0
M  V30 57508 H 5756.2 -2.93789 2.67906 0
M  V30 57509 N 5757.2 -1.38504 -0.751963 0
M  V30 57510 C 5758.44 -1.36218 -1.52395 0
M  V30 57511 C 5758.8 0.0472156 -1.91942 0
M  V30 57512 O 5760 0.194961 -2.68092 0
M  V30 57513 C 5758.28 -2.29259 -2.7418 0
M  V30 57514 S 5759.83 -2.45008 -3.64028 0
M  V30 57515 H 5756.65 -0.483294 -0.521486 0
M  V30 57516 H 5759.25 -1.74444 -0.882586 0
M  V30 57517 H 5757.96 -3.3055 -2.43239 0
M  V30 57518 H 5757.49 -1.92188 -3.4326 0
M  V30 57519 H 5759.5 -1.67536 -4.67061 0
M  V30 57520 N 5758.68 0.980321 -1.234 0
M  V30 57521 C 5759.91 1.7543 -1.09123 0
M  V30 57522 C 5760.32 1.8574 0.360177 0
M  V30 57523 O 5759.66 1.3359 1.26093 0
M  V30 57524 C 5759.72 3.19789 -1.64241 0
M  V30 57525 C 5759.38 3.32988 -3.12998 0
M  V30 57526 C 5760.38 3.19307 -4.10291 0
M  V30 57527 C 5758.07 3.57635 -3.52708 0
M  V30 57528 C 5760.06 3.30077 -5.45278 0
M  V30 57529 C 5757.75 3.68043 -4.87839 0
M  V30 57530 C 5758.75 3.54275 -5.83934 0
M  V30 57531 O 5758.43 3.64315 -7.1661 0
M  V30 57532 H 5758.17 0.557368 -0.382514 0
M  V30 57533 H 5760.72 1.24033 -1.63722 0
M  V30 57534 H 5758.95 3.72435 -1.04062 0
M  V30 57535 H 5760.64 3.78949 -1.4544 0
M  V30 57536 H 5761.4 3.00164 -3.80955 0
M  V30 57537 H 5757.28 3.67423 -2.78426 0
M  V30 57538 H 5760.83 3.19246 -6.20264 0
M  V30 57539 H 5756.72 3.86697 -5.16852 0
M  V30 57540 H 5757.49 3.81109 -7.2436 0
M  V30 57541 N 5760.16 1.04571 1.17909 0
M  V30 57542 C 5761.57 0.76589 1.40022 0
M  V30 57543 C 5761.77 -0.642417 1.90985 0
M  V30 57544 O 5760.83 -1.40582 2.09745 0
M  V30 57545 C 5762.14 1.81625 2.39652 0
M  V30 57546 C 5763.69 1.83774 2.53369 0
M  V30 57547 C 5764.16 2.87816 3.56267 0
M  V30 57548 N 5765.65 2.86739 3.63779 0
M  V30 57549 C 5766.39 3.63892 4.43137 0
M  V30 57550 N 5765.89 4.50812 5.26061 0
M  V30 57551 N 5767.68 3.52359 4.37949 0
M  V30 57552 H 5759.83 1.95444 0.831578 0
M  V30 57553 H 5762.09 0.845945 0.42788 0
M  V30 57554 H 5761.8 2.82668 2.09265 0
M  V30 57555 H 5761.67 1.65263 3.39069 0
M  V30 57556 H 5764.06 0.833996 2.8307 0
M  V30 57557 H 5764.14 2.04213 1.54048 0
M  V30 57558 H 5763.78 3.88372 3.27306 0
M  V30 57559 H 5763.71 2.64631 4.55278 0
M  V30 57560 H 5766.21 2.23711 3.04568 0
M  V30 57561 H 5766.52 5.0638 5.8378 0
M  V30 57562 H 5764.86 4.54876 5.25464 0
M  V30 57563 H 5768.05 2.83853 3.72216 0
M  V30 57564 H 5768.23 4.12735 4.99553 0
M  V30 57565 N 5761.63 -1.34228 0.82587 0
M  V30 57566 C 5762.88 -1.97803 0.414525 0
M  V30 57567 C 5763.2 -1.6579 -1.02659 0
M  V30 57568 O 5762.47 -0.950129 -1.71317 0
M  V30 57569 H 5761.05 -0.731725 0.150291 0
M  V30 57570 H 5763.71 -1.63815 1.05596 0
M  V30 57571 H 5762.81 -3.07464 0.535937 0
M  V30 57572 N 5763.11 -0.581102 -1.46496 0
M  V30 57573 C 5764.39 0.000721083 -1.956 0
M  V30 57574 C 5764.77 1.46098 -1.52376 0
M  V30 57575 O 5764.12 2.15003 -0.773699 0
M  V30 57576 C 5764.33 -0.169657 -3.48587 0
M  V30 57577 C 5765.67 -0.0366483 -4.24584 0
M  V30 57578 O 5766.7 -0.0984103 -3.56064 0
M  V30 57579 O 5765.56 0.100379 -5.46408 0
M  V30 57580 H 5762.65 0.05072 -0.825443 0
M  V30 57581 H 5765.2 -0.649308 -1.56787 0
M  V30 57582 H 5763.97 -1.18486 -3.7293 0
M  V30 57583 H 5763.59 0.516879 -3.94226 0
M  V30 57584 N 5764.59 1.54342 -0.318797 0
M  V30 57585 C 5765.84 2.00085 0.284643 0
M  V30 57586 C 5766.16 1.2086 1.53029 0
M  V30 57587 O 5765.43 0.309172 1.93445 0
M  V30 57588 H 5764.01 0.739127 0.108167 0
M  V30 57589 H 5766.67 1.90001 -0.434241 0
M  V30 57590 H 5765.77 3.07316 0.544351 0
M  V30 57591 N 5766.07 0.0468696 1.5753 0
M  V30 57592 C 5767 -0.958084 2.08215 0
M  V30 57593 C 5768.01 -1.27754 1.0091 0
M  V30 57594 O 5769.2 -1.23908 1.28488 0
M  V30 57595 C 5766.3 -2.28079 2.50665 0
M  V30 57596 C 5765.48 -2.14389 3.81256 0
M  V30 57597 C 5764.53 -3.29747 4.10065 0
M  V30 57598 O 5763.56 -3.05842 4.80051 0
M  V30 57599 N 5764.76 -4.54091 3.61637 0
M  V30 57600 H 5767.53 -0.525508 2.95057 0
M  V30 57601 H 5765.09 -0.139475 1.61298 0
M  V30 57602 H 5767.08 -3.04112 2.67017 0
M  V30 57603 H 5765.65 -2.62918 1.69094 0
M  V30 57604 H 5764.87 -1.22975 3.74527 0
M  V30 57605 H 5766.16 -2.02465 4.66782 0
M  V30 57606 H 5765.56 -4.76404 3.05051 0
M  V30 57607 H 5764.11 -5.27232 3.83235 0
M  V30 57608 N 5767.55 -1.55964 -0.226472 0
M  V30 57609 C 5768.77 -1.83171 -0.972782 0
M  V30 57610 C 5769.2 -0.626574 -1.77357 0
M  V30 57611 O 5768.55 0.424618 -1.76257 0
M  V30 57612 C 5768.6 -3.08322 -1.87003 0
M  V30 57613 O 5767.71 -2.8667 -2.96469 0
M  V30 57614 H 5767.05 -0.604051 -0.275715 0
M  V30 57615 H 5769.58 -2.03172 -0.241274 0
M  V30 57616 H 5769.59 -3.38296 -2.28079 0
M  V30 57617 H 5768.26 -3.95668 -1.28141 0
M  V30 57618 H 5766.84 -2.67917 -2.59374 0
M  V30 57619 N 5769.02 0.492978 -1.49691 0
M  V30 57620 C 5770.25 1.26856 -1.63067 0
M  V30 57621 C 5770.66 1.86733 -0.304517 0
M  V30 57622 O 5770.01 1.68959 0.721021 0
M  V30 57623 C 5770.07 2.4324 -2.64716 0
M  V30 57624 C 5769.73 2.0417 -4.08856 0
M  V30 57625 C 5770.73 1.5768 -4.95412 0
M  V30 57626 C 5768.41 2.1356 -4.5464 0
M  V30 57627 C 5770.41 1.21094 -6.25791 0
M  V30 57628 C 5768.09 1.76585 -5.85031 0
M  V30 57629 C 5769.09 1.30428 -6.70431 0
M  V30 57630 O 5768.78 0.939563 -7.98391 0
M  V30 57631 H 5768.51 0.390655 -0.551693 0
M  V30 57632 H 5771.07 0.597461 -1.96519 0
M  V30 57633 H 5769.3 3.13452 -2.26462 0
M  V30 57634 H 5770.99 3.05251 -2.67538 0
M  V30 57635 H 5771.75 1.49866 -4.61265 0
M  V30 57636 H 5767.63 2.48438 -3.88329 0
M  V30 57637 H 5771.17 0.849955 -6.92403 0
M  V30 57638 H 5767.07 1.84052 -6.18704 0
M  V30 57639 H 5767.84 1.07033 -8.11472 0
M  V30 57640 N 5770.5 1.38901 0.744607 0
M  V30 57641 C 5771.92 1.20294 1.04888 0
M  V30 57642 C 5772.12 0.0578413 2.01417 0
M  V30 57643 O 5771.17 -0.593552 2.45425 0
M  V30 57644 C 5772.49 2.53308 1.62036 0
M  V30 57645 C 5774.04 2.60069 1.74164 0
M  V30 57646 C 5774.51 3.9328 2.34722 0
M  V30 57647 N 5776 3.94868 2.42143 0
M  V30 57648 C 5776.74 4.94708 2.89916 0
M  V30 57649 N 5776.23 6.04946 3.37657 0
M  V30 57650 N 5778.03 4.82093 2.89038 0
M  V30 57651 H 5770.18 2.12144 0.104219 0
M  V30 57652 H 5772.44 0.941729 0.108862 0
M  V30 57653 H 5772.15 3.37603 0.985749 0
M  V30 57654 H 5772.02 2.72344 2.60976 0
M  V30 57655 H 5774.41 1.76164 2.3675 0
M  V30 57656 H 5774.49 2.44892 0.739029 0
M  V30 57657 H 5774.13 4.77613 1.72767 0
M  V30 57658 H 5774.06 4.05774 3.35642 0
M  V30 57659 H 5776.55 3.1525 2.08388 0
M  V30 57660 H 5776.87 6.77049 3.72592 0
M  V30 57661 H 5775.21 6.08553 3.35691 0
M  V30 57662 H 5778.4 3.95079 2.51058 0
M  V30 57663 H 5778.57 5.60051 3.25956 0
M  V30 57664 N 5771.98 -0.973763 1.23918 0
M  V30 57665 C 5773.23 -1.71255 1.07313 0
M  V30 57666 C 5773.55 -1.91065 -0.389764 0
M  V30 57667 O 5772.82 -1.48405 -1.27878 0
M  V30 57668 H 5771.4 -0.634574 0.394113 0
M  V30 57669 H 5774.06 -1.17178 1.55741 0
M  V30 57670 H 5773.16 -2.69948 1.56635 0
M  V30 57671 N 5773.46 -1.05195 -1.17353 0
M  V30 57672 C 5774.69 -0.78244 -1.91535 0
M  V30 57673 C 5775.1 0.661873 -1.76818 0
M  V30 57674 O 5774.46 1.45217 -1.10536 0
M  V30 57675 C 5774.51 -1.15369 -3.42596 0
M  V30 57676 O 5774.23 -2.54131 -3.5686 0
M  V30 57677 C 5775.73 -0.910319 -4.33853 0
M  V30 57678 H 5772.95 -0.284482 -0.607709 0
M  V30 57679 H 5775.5 -1.40264 -1.48816 0
M  V30 57680 H 5773.65 -0.578241 -3.8306 0
M  V30 57681 H 5774.06 -2.68684 -4.50454 0
M  V30 57682 H 5775.54 -1.21982 -5.38353 0
M  V30 57683 H 5776.02 0.15447 -4.38928 0
M  V30 57684 H 5776.62 -1.46961 -3.99102 0
M  V30 57685 N 5774.94 1.33788 -0.832977 0
M  V30 57686 C 5775.87 2.31852 -0.276927 0
M  V30 57687 C 5776.85 1.58704 0.612128 0
M  V30 57688 O 5778.03 1.8663 0.53691 0
M  V30 57689 C 5775.16 3.42857 0.553729 0
M  V30 57690 C 5774.12 4.27332 -0.239035 0
M  V30 57691 C 5773.44 5.29898 0.715001 0
M  V30 57692 C 5774.74 5.01687 -1.45283 0
M  V30 57693 H 5776.44 2.78607 -1.09628 0
M  V30 57694 H 5773.98 1.33947 -0.528609 0
M  V30 57695 H 5775.94 4.10483 0.952989 0
M  V30 57696 H 5774.66 2.94776 1.40623 0
M  V30 57697 H 5773.32 3.61323 -0.619783 0
M  V30 57698 H 5772.97 4.78075 1.56374 0
M  V30 57699 H 5772.67 5.87297 0.188715 0
M  V30 57700 H 5774.19 6.00391 1.1119 0
M  V30 57701 H 5775.6 5.62113 -1.12705 0
M  V30 57702 H 5774 5.68709 -1.91548 0
M  V30 57703 H 5775.07 4.30801 -2.22573 0
M  V30 57704 N 5776.41 0.588863 1.46185 0
M  V30 57705 C 5777.64 0.08073 2.07243 0
M  V30 57706 C 5778.06 -1.21761 1.43373 0
M  V30 57707 O 5777.42 -1.73692 0.519701 0
M  V30 57708 C 5777.47 -0.0651402 3.60541 0
M  V30 57709 O 5776.57 -1.12012 3.96897 0
M  V30 57710 H 5775.92 0.0655855 0.660753 0
M  V30 57711 H 5778.45 0.813555 1.8773 0
M  V30 57712 H 5778.46 -0.269351 4.0711 0
M  V30 57713 H 5777.13 0.882983 4.06419 0
M  V30 57714 H 5775.71 -0.893872 3.62028 0
M  V30 57715 N 5777.89 -1.54171 0.326977 0
M  V30 57716 C 5779.12 -2.05045 -0.276436 0
M  V30 57717 C 5779.54 -1.20293 -1.45517 0
M  V30 57718 O 5778.89 -0.234388 -1.80989 0
M  V30 57719 C 5778.94 -3.54507 -0.70759 0
M  V30 57720 O 5778.66 -4.36041 0.424251 0
M  V30 57721 C 5780.17 -4.21487 -1.37345 0
M  V30 57722 H 5777.39 -0.668634 -0.0563038 0
M  V30 57723 H 5779.93 -1.98927 0.474157 0
M  V30 57724 H 5778.08 -3.60901 -1.40815 0
M  V30 57725 H 5778.5 -5.24433 0.0838689 0
M  V30 57726 H 5779.97 -5.27507 -1.62605 0
M  V30 57727 H 5780.45 -3.72811 -2.32183 0
M  V30 57728 H 5781.06 -4.1924 -0.715378 0
M  V30 57729 N 5779.37 -0.0552232 -1.57503 0
M  V30 57730 C 5780.6 0.627131 -1.97167 0
M  V30 57731 C 5781.01 1.6414 -0.932933 0
M  V30 57732 O 5780.37 1.82314 0.0823824 0
M  V30 57733 C 5780.42 1.31045 -3.36912 0
M  V30 57734 O 5780.14 0.336797 -4.36803 0
M  V30 57735 C 5781.64 2.08219 -3.91356 0
M  V30 57736 H 5778.86 0.171173 -0.648799 0
M  V30 57737 H 5781.41 -0.122723 -2.04131 0
M  V30 57738 H 5779.56 2.01151 -3.31085 0
M  V30 57739 H 5779.98 0.825021 -5.17971 0
M  V30 57740 H 5781.45 2.51445 -4.91405 0
M  V30 57741 H 5781.93 2.93201 -3.27001 0
M  V30 57742 H 5782.53 1.43015 -4.00533 0
M  V30 57743 N 5780.85 1.56082 0.218198 0
M  V30 57744 C 5782.1 1.78449 0.940157 0
M  V30 57745 C 5782.41 0.624382 1.85367 0
M  V30 57746 O 5783.62 0.731761 2.61453 0
M  V30 57747 C 5782.07 3.16032 1.72197 0
M  V30 57748 C 5781.68 4.39777 0.854429 0
M  V30 57749 C 5783.43 3.47722 2.43494 0
M  V30 57750 C 5781.33 5.68385 1.63378 0
M  V30 57751 H 5780.26 0.665316 0.354783 0
M  V30 57752 H 5782.91 1.82472 0.193957 0
M  V30 57753 H 5781.3 3.06194 2.5112 0
M  V30 57754 H 5782.47 4.60679 0.105497 0
M  V30 57755 H 5780.78 4.15628 0.253416 0
M  V30 57756 H 5783.38 4.41036 3.0231 0
M  V30 57757 H 5783.72 2.70378 3.16546 0
M  V30 57758 H 5784.26 3.58905 1.71558 0
M  V30 57759 H 5781 6.48631 0.946476 0
M  V30 57760 H 5780.52 5.51538 2.35724 0
M  V30 57761 H 5782.2 6.08679 2.19359 0
M  V30 57762 N 5782.33 -0.485033 1.49951 0
M  V30 57763 C 5783.56 -1.26173 1.63976 0
M  V30 57764 C 5783.97 -1.86112 0.317474 0
M  V30 57765 O 5783.33 -1.68584 -0.698978 0
M  V30 57766 C 5783.38 -2.38052 2.72054 0
M  V30 57767 O 5783.1 -1.80574 3.99155 0
M  V30 57768 C 5784.6 -3.29164 2.96928 0
M  V30 57769 H 5781.82 -0.382103 0.551578 0
M  V30 57770 H 5784.36 -0.580538 1.96087 0
M  V30 57771 H 5782.52 -3.01972 2.42676 0
M  V30 57772 H 5782.93 -2.54143 4.58816 0
M  V30 57773 H 5784.41 -4.03909 3.76247 0
M  V30 57774 H 5784.88 -3.87115 2.07457 0
M  V30 57775 H 5785.49 -2.70995 3.27783 0
M  V30 57776 N 5783.81 -1.39293 -0.73723 0
M  V30 57777 C 5785.05 -1.36126 -1.49379 0
M  V30 57778 C 5785.37 0.042872 -1.94953 0
M  V30 57779 O 5784.64 0.993697 -1.68827 0
M  V30 57780 H 5783.22 -0.500936 -0.554141 0
M  V30 57781 H 5785.89 -1.74137 -0.875341 0
M  V30 57782 H 5784.98 -2.02254 -2.37696 0
M  V30 57783 N 5785.28 0.967178 -1.24432 0
M  V30 57784 C 5786.7 1.2359 -1.00983 0
M  V30 57785 C 5786.9 1.9953 0.281042 0
M  V30 57786 O 5785.96 2.31981 0.997058 0
M  V30 57787 C 5787.27 2.02253 -2.22518 0
M  V30 57788 C 5788.82 2.15344 -2.27148 0
M  V30 57789 C 5789.29 2.97402 -3.48305 0
M  V30 57790 N 5790.78 3.04984 -3.48625 0
M  V30 57791 C 5791.52 3.68836 -4.3903 0
M  V30 57792 N 5791.01 4.34402 -5.39691 0
M  V30 57793 N 5792.81 3.65853 -4.26741 0
M  V30 57794 H 5784.96 0.458808 -2.07385 0
M  V30 57795 H 5787.22 0.265379 -0.910098 0
M  V30 57796 H 5786.93 1.53841 -3.16269 0
M  V30 57797 H 5786.8 3.02985 -2.24677 0
M  V30 57798 H 5789.19 2.62959 -1.33928 0
M  V30 57799 H 5789.27 1.13958 -2.29014 0
M  V30 57800 H 5788.91 2.5048 -4.4184 0
M  V30 57801 H 5788.84 3.98986 -3.43682 0
M  V30 57802 H 5791.33 2.58344 -2.75802 0
M  V30 57803 H 5791.65 4.80944 -6.04907 0
M  V30 57804 H 5789.99 4.33069 -5.43577 0
M  V30 57805 H 5793.18 3.13807 -3.47337 0
M  V30 57806 H 5793.36 4.15332 -4.97397 0
M  V30 57807 N 5786.76 1.05816 1.16794 0
M  V30 57808 C 5787.99 0.792587 1.91117 0
M  V30 57809 C 5788.4 -0.652487 1.77167 0
M  V30 57810 O 5787.76 -1.44629 1.11305 0
M  V30 57811 C 5787.81 1.17184 3.4198 0
M  V30 57812 O 5787.53 2.5602 3.55507 0
M  V30 57813 C 5789.03 0.933315 4.33364 0
M  V30 57814 H 5786.25 0.287701 0.606192 0
M  V30 57815 H 5788.8 1.41051 1.4807 0
M  V30 57816 H 5786.95 0.598548 3.82748 0
M  V30 57817 H 5787.37 2.71069 4.49023 0
M  V30 57818 H 5788.84 1.24836 5.37699 0
M  V30 57819 H 5789.32 -0.13119 4.39004 0
M  V30 57820 H 5789.92 1.49076 3.98317 0
M  V30 57821 N 5788.24 -1.33344 0.84006 0
M  V30 57822 C 5789.48 -1.99554 0.442433 0
M  V30 57823 C 5789.84 -1.65091 -0.980246 0
M  V30 57824 O 5791.04 -2.24277 -1.48166 0
M  V30 57825 C 5789.32 -3.51289 0.658063 0
M  V30 57826 S 5790.87 -4.37355 0.355834 0
M  V30 57827 H 5787.69 -0.691262 0.166368 0
M  V30 57828 H 5790.29 -1.6232 1.0896 0
M  V30 57829 H 5789 -3.7386 1.69284 0
M  V30 57830 H 5788.53 -3.934 -0.00321975 0
M  V30 57831 H 5790.54 -4.89312 -0.823919 0
M  V30 57832 N 5789.72 -0.596607 -1.45871 0
M  V30 57833 C 5790.65 0.166624 -2.28594 0
M  V30 57834 C 5791.66 0.842261 -1.39319 0
M  V30 57835 O 5792.85 0.709491 -1.63794 0
M  V30 57836 C 5789.95 1.2563 -3.14754 0
M  V30 57837 C 5789.12 0.669908 -4.3224 0
M  V30 57838 C 5788.18 1.64906 -4.99692 0
M  V30 57839 O 5787.21 1.17966 -5.56842 0
M  V30 57840 N 5788.41 2.98337 -4.97971 0
M  V30 57841 H 5791.18 -0.543149 -2.94737 0
M  V30 57842 H 5788.74 -0.435329 -1.55937 0
M  V30 57843 H 5790.73 1.91091 -3.56744 0
M  V30 57844 H 5789.3 1.86874 -2.50593 0
M  V30 57845 H 5788.52 -0.162514 -3.93865 0
M  V30 57846 H 5789.81 0.258167 -5.08145 0
M  V30 57847 H 5789.21 3.39085 -4.52811 0
M  V30 57848 H 5787.76 3.59251 -5.43859 0
M  V30 57849 N 5791.2 1.53995 -0.335149 0
M  V30 57850 C 5792.42 2.05658 0.268256 0
M  V30 57851 C 5792.85 1.20902 1.44098 0
M  V30 57852 O 5792.2 0.220801 1.7995 0
M  V30 57853 C 5792.25 3.54333 0.669356 0
M  V30 57854 O 5791.36 3.72466 1.77039 0
M  V30 57855 H 5790.7 0.662387 0.0462472 0
M  V30 57856 H 5793.23 1.98721 -0.486924 0
M  V30 57857 H 5793.24 3.96814 0.948832 0
M  V30 57858 H 5791.91 4.15473 -0.188314 0
M  V30 57859 H 5790.49 3.41889 1.48883 0
M  V30 57860 N 5792.67 0.0635752 1.57472 0
M  V30 57861 C 5793.92 -0.60235 1.94276 0
M  V30 57862 C 5794.27 -1.67714 0.942856 0
M  V30 57863 O 5793.57 -1.91566 -0.0361205 0
M  V30 57864 C 5793.76 -1.23105 3.35529 0
M  V30 57865 C 5793.59 -0.21869 4.49168 0
M  V30 57866 C 5792.36 0.193738 5.04928 0
M  V30 57867 C 5794.56 0.540816 5.11449 0
M  V30 57868 N 5792.54 1.19767 6.02104 0
M  V30 57869 C 5793.91 1.39746 6.04046 0
M  V30 57870 C 5795.97 0.59778 4.94298 0
M  V30 57871 C 5794.67 2.30599 6.81334 0
M  V30 57872 C 5796.7 1.49379 5.72224 0
M  V30 57873 C 5796.06 2.33813 6.64463 0
M  V30 57874 H 5792.16 -0.191688 0.758142 0
M  V30 57875 H 5794.74 0.138802 1.94205 0
M  V30 57876 H 5792.91 -1.94217 3.36354 0
M  V30 57877 H 5794.64 -1.85678 3.59591 0
M  V30 57878 H 5791.4 -0.187731 4.73228 0
M  V30 57879 H 5791.82 1.69689 6.55389 0
M  V30 57880 H 5796.46 -0.0407973 4.2278 0
M  V30 57881 H 5794.18 2.95496 7.52135 0
M  V30 57882 H 5797.77 1.54259 5.60977 0
M  V30 57883 H 5796.65 3.0202 7.23708 0
M  V30 57884 N 5794.15 -1.56196 -0.209917 0
M  V30 57885 C 5795.38 -1.84193 -0.9533 0
M  V30 57886 C 5795.8 -0.64535 -1.76683 0
M  V30 57887 O 5795.16 0.4059 -1.76698 0
M  V30 57888 C 5795.21 -3.10288 -1.83722 0
M  V30 57889 O 5794.31 -2.89799 -2.93412 0
M  V30 57890 H 5793.65 -0.606941 -0.269293 0
M  V30 57891 H 5796.18 -2.03417 -0.219711 0
M  V30 57892 H 5796.19 -3.40696 -2.24478 0
M  V30 57893 H 5794.87 -3.97004 -1.23937 0
M  V30 57894 H 5793.45 -2.70653 -2.56518 0
M  V30 57895 N 5795.63 0.477074 -1.50206 0
M  V30 57896 C 5796.86 1.25769 -1.64915 0
M  V30 57897 C 5797.28 1.85186 -0.32983 0
M  V30 57898 O 5796.64 1.67007 0.705582 0
M  V30 57899 C 5796.69 2.34651 -2.73809 0
M  V30 57900 O 5795.79 3.39139 -2.34646 0
M  V30 57901 H 5795.13 0.370271 -0.551176 0
M  V30 57902 H 5797.66 0.568445 -1.96545 0
M  V30 57903 H 5797.67 2.80054 -2.96705 0
M  V30 57904 H 5796.35 1.90775 -3.69564 0
M  V30 57905 H 5794.92 2.99489 -2.22173 0
M  V30 57906 N 5797.11 1.39683 0.729833 0
M  V30 57907 C 5798.04 1.33207 1.85286 0
M  V30 57908 C 5799.02 0.204844 1.61305 0
M  V30 57909 O 5800.2 0.386152 1.84502 0
M  V30 57910 C 5797.33 1.06967 3.21366 0
M  V30 57911 C 5796.38 2.21949 3.64199 0
M  V30 57912 S 5797.21 3.84262 3.72965 0
M  V30 57913 C 5798.37 3.60257 5.11826 0
M  V30 57914 H 5798.6 2.28251 1.90496 0
M  V30 57915 H 5796.13 1.25799 0.895208 0
M  V30 57916 H 5798.09 0.925116 3.9994 0
M  V30 57917 H 5796.75 0.136013 3.13805 0
M  V30 57918 H 5795.94 1.99195 4.62966 0
M  V30 57919 H 5795.55 2.32634 2.92843 0
M  V30 57920 H 5797.84 3.17842 5.98317 0
M  V30 57921 H 5798.78 4.58504 5.39611 0
M  V30 57922 H 5799.19 2.94246 4.81746 0
M  V30 57923 N 5798.59 -0.960565 1.24944 0
M  V30 57924 C 5799.81 -1.73924 1.12063 0
M  V30 57925 C 5800.23 -1.85961 -0.326165 0
M  V30 57926 O 5799.59 -1.35307 -1.22467 0
M  V30 57927 C 5799.64 -3.15608 1.76278 0
M  V30 57928 O 5799.36 -3.04166 3.15301 0
M  V30 57929 C 5800.86 -4.09781 1.691 0
M  V30 57930 H 5798.08 -0.545186 0.391169 0
M  V30 57931 H 5800.62 -1.2055 1.65191 0
M  V30 57932 H 5798.78 -3.65944 1.27135 0
M  V30 57933 H 5799.19 -3.93501 3.46782 0
M  V30 57934 H 5800.67 -5.06827 2.18701 0
M  V30 57935 H 5801.14 -4.34309 0.653606 0
M  V30 57936 H 5801.75 -3.65357 2.17703 0
M  V30 57937 N 5800.06 -1.06434 -1.16231 0
M  V30 57938 C 5801.48 -0.806071 -1.68402 0
M  V30 57939 C 5801.83 0.670132 -1.84401 0
M  V30 57940 O 5800.95 1.5197 -1.54059 0
M  V30 57941 C 5801.55 -1.45664 -3.05888 0
M  V30 57942 C 5800.11 -1.24612 -3.55174 0
M  V30 57943 C 5799.25 -1.53224 -2.31123 0
M  V30 57944 H 5802.2 -1.22763 -1.00573 0
M  V30 57945 H 5802.22 -0.872746 -3.70356 0
M  V30 57946 H 5801.74 -2.53103 -2.94212 0
M  V30 57947 H 5799.84 -0.191538 -3.72107 0
M  V30 57948 H 5799.95 -1.95983 -4.37181 0
M  V30 57949 H 5798.31 -0.952838 -2.36206 0
M  V30 57950 H 5799.1 -2.61824 -2.22043 0
M  V30 57951 N 5801.54 1.32897 -0.84712 0
M  V30 57952 C 5802.49 2.26533 -0.25819 0
M  V30 57953 C 5803.48 1.49629 0.5916 0
M  V30 57954 O 5804.67 1.71387 0.442217 0
M  V30 57955 C 5801.8 3.38721 0.558849 0
M  V30 57956 C 5800.88 4.23017 -0.302909 0
M  V30 57957 N 5801.27 4.86452 -1.38558 0
M  V30 57958 C 5799.57 4.45906 -0.0913559 0
M  V30 57959 C 5800.27 5.49271 -1.91511 0
M  V30 57960 N 5799.25 5.29839 -1.21538 0
M  V30 57961 H 5803.05 2.73099 -1.086 0
M  V30 57962 H 5800.57 1.46898 -0.692438 0
M  V30 57963 H 5802.56 4.048 0.997117 0
M  V30 57964 H 5801.22 2.93702 1.38454 0
M  V30 57965 H 5802.23 4.8677 -1.76849 0
M  V30 57966 H 5798.91 4.11586 0.700226 0
M  V30 57967 H 5800.3 6.09754 -2.82222 0
M  V30 57968 N 5803.02 0.604335 1.45553 0
M  V30 57969 C 5804.27 0.10682 2.03119 0
M  V30 57970 C 5804.62 -1.24749 1.46477 0
M  V30 57971 O 5803.91 -1.80991 0.628723 0
M  V30 57972 C 5804.11 0.00550808 3.574 0
M  V30 57973 C 5803.94 1.34845 4.29007 0
M  V30 57974 C 5802.71 1.92829 4.6706 0
M  V30 57975 C 5804.91 2.2765 4.61172 0
M  V30 57976 N 5802.89 3.20638 5.23512 0
M  V30 57977 C 5804.26 3.40055 5.18423 0
M  V30 57978 C 5806.31 2.27063 4.43111 0
M  V30 57979 C 5805.02 4.52034 5.59516 0
M  V30 57980 C 5807.04 3.38086 4.85234 0
M  V30 57981 C 5806.4 4.49214 5.42574 0
M  V30 57982 H 5802.5 0.08238 0.777649 0
M  V30 57983 H 5805.09 0.801975 1.77416 0
M  V30 57984 H 5803.26 -0.658861 3.82771 0
M  V30 57985 H 5804.99 -0.49837 4.0162 0
M  V30 57986 H 5801.75 1.46072 4.50511 0
M  V30 57987 H 5802.17 3.8591 5.5624 0
M  V30 57988 H 5806.81 1.42409 3.98095 0
M  V30 57989 H 5804.53 5.37415 6.03499 0
M  V30 57990 H 5808.12 3.38776 4.72993 0
M  V30 57991 H 5807 5.33703 5.7457 0
M  V30 57992 N 5804.5 -1.53815 0.343311 0
M  V30 57993 C 5805.45 -2.21765 -0.529557 0
M  V30 57994 C 5806.43 -1.20497 -1.06627 0
M  V30 57995 O 5807.62 -1.46044 -1.00001 0
M  V30 57996 C 5804.75 -2.99378 -1.68011 0
M  V30 57997 C 5803.84 -4.08003 -1.15735 0
M  V30 57998 N 5804.23 -5.04547 -0.355802 0
M  V30 57999 C 5802.53 -4.22309 -1.43427 0
M  V30 58000 C 5803.23 -5.81655 -0.0721436 0
M  V30 58001 N 5802.21 -5.39533 -0.66372 0
M  V30 58002 H 5806.01 -2.93762 0.089912 0
M  V30 58003 H 5803.52 -1.61704 0.150164 0
M  V30 58004 H 5805.52 -3.46558 -2.3174 0
M  V30 58005 H 5804.18 -2.28907 -2.30286 0
M  V30 58006 H 5805.19 -5.179 0.00309434 0
M  V30 58007 H 5801.87 -3.63058 -2.06143 0
M  V30 58008 H 5803.26 -6.6944 0.574427 0
M  V30 58009 N 5805.98 -0.0719254 -1.57436 0
M  V30 58010 C 5807.39 0.284705 -1.5704 0
M  V30 58011 C 5807.59 1.70028 -1.08133 0
M  V30 58012 O 5806.65 2.41189 -0.747274 0
M  V30 58013 C 5807.96 0.0942426 -3.00552 0
M  V30 58014 C 5809.51 0.163769 -3.12571 0
M  V30 58015 C 5809.98 0.00158557 -4.58 0
M  V30 58016 N 5811.48 0.0571861 -4.63165 0
M  V30 58017 C 5812.21 -0.0438865 -5.73383 0
M  V30 58018 N 5811.71 -0.198486 -6.92516 0
M  V30 58019 N 5813.5 0.0131879 -5.62098 0
M  V30 58020 H 5805.65 -0.997086 -1.87542 0
M  V30 58021 H 5807.91 -0.388853 -0.864579 0
M  V30 58022 H 5807.62 -0.882565 -3.40446 0
M  V30 58023 H 5807.49 0.846506 -3.67579 0
M  V30 58024 H 5809.88 1.13106 -2.72564 0
M  V30 58025 H 5809.96 -0.6196 -2.48183 0
M  V30 58026 H 5809.61 -0.962475 -4.98697 0
M  V30 58027 H 5809.54 0.80436 -5.20421 0
M  V30 58028 H 5812.03 0.17508 -3.77494 0
M  V30 58029 H 5812.34 -0.267751 -7.72336 0
M  V30 58030 H 5810.68 -0.23385 -6.94606 0
M  V30 58031 H 5813.88 0.132671 -4.67912 0
M  V30 58032 H 5814.05 -0.0690354 -6.47963 0
M  V30 58033 N 5807.45 1.56305 0.201631 0
M  V30 58034 C 5808.87 1.49743 0.552194 0
M  V30 58035 C 5809.07 0.770749 1.86177 0
M  V30 58036 O 5808.13 0.318577 2.50482 0
M  V30 58037 C 5809.44 2.94386 0.61298 0
M  V30 58038 C 5810.99 3.0502 0.702258 0
M  V30 58039 C 5811.46 4.51061 0.794212 0
M  V30 58040 N 5812.95 4.55186 0.857912 0
M  V30 58041 C 5813.69 5.6549 0.949118 0
M  V30 58042 N 5813.18 6.85501 1.00303 0
M  V30 58043 N 5814.98 5.53388 0.985801 0
M  V30 58044 H 5807.13 2.01968 -0.657465 0
M  V30 58045 H 5809.39 0.918831 -0.233354 0
M  V30 58046 H 5809.1 3.50583 -0.280044 0
M  V30 58047 H 5808.97 3.47382 1.46989 0
M  V30 58048 H 5811.36 2.48876 1.58572 0
M  V30 58049 H 5811.44 2.55161 -0.180726 0
M  V30 58050 H 5811.08 5.07829 -0.0848668 0
M  V30 58051 H 5811.01 4.98647 1.6929 0
M  V30 58052 H 5813.5 3.68768 0.825759 0
M  V30 58053 H 5813.82 7.65315 1.07295 0
M  V30 58054 H 5812.16 6.88172 0.971819 0
M  V30 58055 H 5815.35 4.58555 0.940474 0
M  V30 58056 H 5815.53 6.3938 1.05342 0
M  V30 58057 N 5808.93 -0.469102 1.50457 0
M  V30 58058 C 5810.18 -1.21782 1.60785 0
M  V30 58059 C 5810.5 -1.93053 0.314644 0
M  V30 58060 O 5811.7 -2.69872 0.296868 0
M  V30 58061 C 5810.16 -2.21295 2.83825 0
M  V30 58062 C 5809.77 -1.55819 4.20029 0
M  V30 58063 C 5811.51 -2.96797 3.03499 0
M  V30 58064 C 5809.42 -2.53629 5.34253 0
M  V30 58065 H 5808.35 -0.458249 0.598769 0
M  V30 58066 H 5811 -0.488097 1.76889 0
M  V30 58067 H 5809.38 -2.97568 2.61284 0
M  V30 58068 H 5810.55 -0.853212 4.52832 0
M  V30 58069 H 5808.87 -0.925904 4.05975 0
M  V30 58070 H 5811.47 -3.70004 3.86007 0
M  V30 58071 H 5811.81 -3.56299 2.15306 0
M  V30 58072 H 5812.34 -2.27637 3.26231 0
M  V30 58073 H 5809.08 -1.98863 6.24607 0
M  V30 58074 H 5808.6 -3.22273 5.05866 0
M  V30 58075 H 5810.28 -3.15418 5.64908 0
M  V30 58076 N 5810.41 -1.40068 -0.722415 0
M  V30 58077 C 5811.82 -1.33881 -1.30126 0
M  V30 58078 C 5812.17 -0.00906267 -1.96198 0
M  V30 58079 O 5811.3 0.893013 -1.97115 0
M  V30 58080 C 5811.89 -2.42478 -2.36622 0
M  V30 58081 C 5810.45 -2.39772 -2.90149 0
M  V30 58082 C 5809.6 -2.2371 -1.63857 0
M  V30 58083 H 5812.55 -1.49973 -0.519024 0
M  V30 58084 H 5812.57 -2.09991 -3.17307 0
M  V30 58085 H 5812.08 -3.39246 -1.88505 0
M  V30 58086 H 5810.18 -1.46681 -3.42513 0
M  V30 58087 H 5810.3 -3.35104 -3.42407 0
M  V30 58088 H 5808.66 -1.71104 -1.88668 0
M  V30 58089 H 5809.44 -3.22466 -1.17774 0
M  V30 58090 N 5811.89 0.953925 -1.25451 0
M  V30 58091 C 5812.82 2.06824 -1.08379 0
M  V30 58092 C 5813.8 1.70098 0.00735605 0
M  V30 58093 O 5814.99 1.93521 -0.162308 0
M  V30 58094 C 5812.12 3.40121 -0.702484 0
M  V30 58095 C 5811.07 3.90859 -1.74395 0
M  V30 58096 C 5810.4 5.20659 -1.21731 0
M  V30 58097 C 5811.7 4.17158 -3.14288 0
M  V30 58098 H 5813.39 2.21365 -2.01589 0
M  V30 58099 H 5810.94 1.06371 -0.970629 0
M  V30 58100 H 5812.89 4.17527 -0.569984 0
M  V30 58101 H 5811.61 3.25521 0.265313 0
M  V30 58102 H 5810.27 3.15622 -1.8649 0
M  V30 58103 H 5809.92 5.02428 -0.239717 0
M  V30 58104 H 5809.62 5.55575 -1.91339 0
M  V30 58105 H 5811.14 6.00661 -1.09721 0
M  V30 58106 H 5812.56 4.8522 -3.05342 0
M  V30 58107 H 5810.95 4.6333 -3.81373 0
M  V30 58108 H 5812.02 3.23409 -3.61296 0
M  V30 58109 N 5813.37 1.07049 1.15665 0
M  V30 58110 C 5814.6 0.811634 1.8999 0
M  V30 58111 C 5815.01 -0.638565 1.78098 0
M  V30 58112 O 5814.35 -1.44949 1.12851 0
M  V30 58113 C 5814.41 1.13677 3.41054 0
M  V30 58114 C 5814.07 2.58694 3.76731 0
M  V30 58115 C 5815.07 3.56937 3.78011 0
M  V30 58116 C 5812.76 2.94192 4.07132 0
M  V30 58117 C 5814.75 4.88714 4.09192 0
M  V30 58118 C 5812.44 4.26167 4.37978 0
M  V30 58119 C 5813.44 5.23238 4.38989 0
M  V30 58120 O 5813.12 6.52842 4.69097 0
M  V30 58121 H 5812.86 0.293264 0.609075 0
M  V30 58122 H 5815.41 1.42947 1.47497 0
M  V30 58123 H 5813.64 0.461897 3.83932 0
M  V30 58124 H 5815.33 0.860947 3.96664 0
M  V30 58125 H 5816.09 3.30854 3.54627 0
M  V30 58126 H 5811.97 2.19286 4.05505 0
M  V30 58127 H 5815.52 5.64474 4.09896 0
M  V30 58128 H 5811.41 4.52004 4.60828 0
M  V30 58129 H 5812.18 6.57947 4.86875 0
M  V30 58130 N 5814.85 -1.32446 0.854156 0
M  V30 58131 C 5816.08 -2.01169 0.470575 0
M  V30 58132 C 5816.48 -1.64359 -0.93716 0
M  V30 58133 O 5815.83 -0.860622 -1.62293 0
M  V30 58134 C 5815.89 -3.55581 0.529366 0
M  V30 58135 C 5815.55 -4.15818 1.89591 0
M  V30 58136 C 5816.55 -4.34081 2.86129 0
M  V30 58137 C 5814.23 -4.51903 2.19292 0
M  V30 58138 C 5816.23 -4.87597 4.10521 0
M  V30 58139 C 5813.92 -5.05125 3.43937 0
M  V30 58140 C 5814.91 -5.2292 4.39367 0
M  V30 58141 O 5814.6 -5.75004 5.61805 0
M  V30 58142 H 5814.33 -0.650638 0.183428 0
M  V30 58143 H 5816.89 -1.70011 1.15263 0
M  V30 58144 H 5815.12 -3.86132 -0.209535 0
M  V30 58145 H 5816.81 -4.05579 0.161457 0
M  V30 58146 H 5817.57 -4.06536 2.64487 0
M  V30 58147 H 5813.45 -4.37338 1.45797 0
M  V30 58148 H 5817 -5.01403 4.85017 0
M  V30 58149 H 5812.89 -5.32102 3.65429 0
M  V30 58150 H 5813.66 -5.93398 5.63756 0
M  V30 58151 N 5816.32 -0.612045 -1.4523 0
M  V30 58152 C 5817.73 -0.193529 -1.85694 0
M  V30 58153 C 5818.09 1.25063 -1.51174 0
M  V30 58154 O 5817.21 1.94891 -0.940565 0
M  V30 58155 C 5817.81 -0.344453 -3.37044 0
M  V30 58156 C 5816.36 0.0194055 -3.76395 0
M  V30 58157 C 5815.51 -0.666808 -2.69163 0
M  V30 58158 H 5818.46 -0.818443 -1.35968 0
M  V30 58159 H 5818.48 0.422077 -3.78152 0
M  V30 58160 H 5818 -1.39563 -3.62138 0
M  V30 58161 H 5816.1 1.06958 -3.56918 0
M  V30 58162 H 5816.21 -0.377352 -4.77612 0
M  V30 58163 H 5814.57 -0.104002 -2.54488 0
M  V30 58164 H 5815.36 -1.7202 -2.97092 0
M  V30 58165 N 5817.8 1.53631 -0.351463 0
M  V30 58166 C 5818.75 2.26784 0.516903 0
M  V30 58167 C 5819.74 1.29225 1.09532 0
M  V30 58168 O 5820.95 1.46905 1.04014 0
M  V30 58169 H 5817.32 0.728789 0.185391 0
M  V30 58170 H 5819.3 2.9815 -0.122014 0
M  V30 58171 C 5818.04 3.05949 1.65199 0
M  V30 58172 H 5817.37 3.80853 1.21619 0
M  V30 58173 H 5818.81 3.60336 2.2346 0
M  V30 58174 C 5817.27 2.15926 2.58607 0
M  V30 58175 O 5817.8 1.76062 3.61061 0
M  V30 58176 N 5816 1.80845 2.27472 0
M  V30 58177 H 5815.55 2.13461 1.44195 0
M  V30 58178 H 5815.51 1.20896 2.90227 0
M  V30 58179 N 5819.28 0.0802736 1.57395 0
M  V30 58180 C 5820.24 -0.869363 2.12072 0
M  V30 58181 C 5821.24 -1.22075 1.04663 0
M  V30 58182 O 5822.43 -1.15263 1.30614 0
M  V30 58183 C 5819.56 -2.17007 2.62908 0
M  V30 58184 H 5820.76 -0.394847 2.97289 0
M  V30 58185 H 5818.31 -0.168543 1.55389 0
M  V30 58186 H 5819.05 -2.68976 1.81169 0
M  V30 58187 H 5818.83 -1.92796 3.41426 0
M  V30 58188 H 5820.32 -2.84971 3.05256 0
M  V30 58189 N 5820.76 -1.5641 -0.193339 0
M  V30 58190 C 5822.01 -1.8037 -0.911653 0
M  V30 58191 C 5822.33 -0.653626 -1.83719 0
M  V30 58192 O 5821.6 0.327934 -1.93136 0
M  V30 58193 H 5820.18 -0.665328 -0.339628 0
M  V30 58194 H 5822.84 -1.93887 -0.198427 0
M  V30 58195 H 5821.93 -2.73596 -1.50173 0
M  V30 58196 N 5822.24 0.461116 -1.50703 0
M  V30 58197 C 5823.17 1.5657 -1.73228 0
M  V30 58198 C 5824.15 1.59853 -0.581457 0
M  V30 58199 O 5825.33 1.75961 -0.821664 0
M  V30 58200 C 5822.46 2.94828 -1.83558 0
M  V30 58201 C 5821.42 3.06411 -2.98825 0
M  V30 58202 C 5820.74 4.46415 -2.94309 0
M  V30 58203 C 5822.04 2.82698 -4.3918 0
M  V30 58204 H 5823.74 1.37973 -2.65714 0
M  V30 58205 H 5821.28 0.662317 -1.27865 0
M  V30 58206 H 5823.23 3.7204 -1.979 0
M  V30 58207 H 5821.96 3.14604 -0.877017 0
M  V30 58208 H 5820.62 2.31634 -2.8415 0
M  V30 58209 H 5820.27 4.63124 -1.96279 0
M  V30 58210 H 5819.97 4.55098 -3.71698 0
M  V30 58211 H 5821.49 5.25633 -3.10713 0
M  V30 58212 H 5822.9 3.49654 -4.54329 0
M  V30 58213 H 5821.3 3.02817 -5.18095 0
M  V30 58214 H 5822.37 1.78476 -4.50859 0
M  V30 58215 N 5823.71 1.40449 0.714977 0
M  V30 58216 C 5824.94 1.42076 1.50407 0
M  V30 58217 C 5825.36 0.020621 1.88789 0
M  V30 58218 O 5824.71 -0.95558 1.55483 0
M  V30 58219 C 5824.77 2.312 2.77901 0
M  V30 58220 O 5824.49 3.65763 2.41141 0
M  V30 58221 C 5825.99 2.41425 3.71791 0
M  V30 58222 H 5823.21 0.484571 0.464147 0
M  V30 58223 H 5825.75 1.84507 0.881899 0
M  V30 58224 H 5823.91 1.92129 3.364 0
M  V30 58225 H 5824.32 4.13102 3.23183 0
M  V30 58226 H 5825.79 3.07992 4.58088 0
M  V30 58227 H 5826.27 1.43948 4.1494 0
M  V30 58228 H 5826.88 2.8105 3.19203 0
M  V30 58229 N 5825.19 -0.947259 1.25955 0
M  V30 58230 C 5826.61 -1.21968 1.02937 0
M  V30 58231 C 5826.81 -1.99952 -0.249263 0
M  V30 58232 O 5825.86 -2.33537 -0.960025 0
M  V30 58233 C 5827.18 -1.98688 2.25707 0
M  V30 58234 C 5828.73 -2.11703 2.30545 0
M  V30 58235 C 5829.2 -2.91823 3.52992 0
M  V30 58236 N 5830.69 -2.99399 3.53433 0
M  V30 58237 C 5831.43 -3.61805 4.44843 0
M  V30 58238 N 5830.92 -4.25761 5.46534 0
M  V30 58239 N 5832.72 -3.59018 4.32508 0
M  V30 58240 H 5824.87 -0.425757 2.08089 0
M  V30 58241 H 5827.13 -0.250867 0.914204 0
M  V30 58242 H 5826.84 -1.4879 3.18676 0
M  V30 58243 H 5826.71 -2.99372 2.29469 0
M  V30 58244 H 5829.1 -2.60795 1.38094 0
M  V30 58245 H 5829.18 -1.103 2.30798 0
M  V30 58246 H 5828.82 -2.43419 4.45769 0
M  V30 58247 H 5828.75 -3.93468 3.49986 0
M  V30 58248 H 5831.24 -2.53924 2.79877 0
M  V30 58249 H 5831.56 -4.71259 6.12482 0
M  V30 58250 H 5829.9 -4.24367 5.50398 0
M  V30 58251 H 5833.09 -3.08242 3.52285 0
M  V30 58252 H 5833.26 -4.07366 5.03941 0
M  V30 58253 N 5826.67 -1.07661 -1.15095 0
M  V30 58254 C 5827.62 -0.694121 -2.22002 0
M  V30 58255 C 5828.61 0.296549 -1.66784 0
M  V30 58256 O 5829.82 0.159926 -1.79288 0
M  V30 58257 H 5826.19 -0.206399 -0.723121 0
M  V30 58258 H 5828.16 -1.60532 -2.51539 0
M  V30 58259 C 5826.91 -0.111367 -3.47522 0
M  V30 58260 H 5826.24 -0.864814 -3.90334 0
M  V30 58261 H 5827.68 0.118556 -4.23834 0
M  V30 58262 C 5826.14 1.14878 -3.16709 0
M  V30 58263 O 5826.67 2.23479 -3.33797 0
M  V30 58264 N 5824.87 1.05618 -2.70727 0
M  V30 58265 H 5824.42 0.172373 -2.57023 0
M  V30 58266 H 5824.38 1.90011 -2.50486 0
M  V30 58267 N 5828.15 1.31991 -0.861168 0
M  V30 58268 C 5829.38 2.00917 -0.481237 0
M  V30 58269 C 5829.79 1.64854 0.92843 0
M  V30 58270 O 5829.13 0.869217 1.61834 0
M  V30 58271 C 5829.19 3.55295 -0.548216 0
M  V30 58272 C 5828.86 4.14806 -1.91793 0
M  V30 58273 C 5829.85 4.32557 -2.88427 0
M  V30 58274 C 5827.54 4.50734 -2.21685 0
M  V30 58275 C 5829.53 4.85413 -4.13101 0
M  V30 58276 C 5827.22 5.03294 -3.46611 0
M  V30 58277 C 5828.22 5.20583 -4.42134 0
M  V30 58278 O 5827.9 5.72017 -5.64847 0
M  V30 58279 H 5827.64 0.649656 -0.186876 0
M  V30 58280 H 5830.19 1.69397 -1.16163 0
M  V30 58281 H 5828.42 3.86238 0.189054 0
M  V30 58282 H 5830.11 4.05487 -0.182964 0
M  V30 58283 H 5830.88 4.05128 -2.66639 0
M  V30 58284 H 5826.75 4.36558 -1.48115 0
M  V30 58285 H 5830.3 4.98823 -4.87669 0
M  V30 58286 H 5826.2 5.30156 -3.68245 0
M  V30 58287 H 5826.96 5.904 -5.66895 0
M  V30 58288 N 5829.63 0.619739 1.44903 0
M  V30 58289 C 5830.87 0.122868 2.0403 0
M  V30 58290 C 5831.23 -1.22785 1.47607 0
M  V30 58291 O 5832.43 -1.81616 1.98164 0
M  V30 58292 C 5830.7 0.0970139 3.57268 0
M  V30 58293 S 5832.26 -0.336896 4.37505 0
M  V30 58294 H 5829.08 0.0555065 0.70883 0
M  V30 58295 H 5831.68 0.820572 1.77445 0
M  V30 58296 H 5830.39 1.08338 3.95842 0
M  V30 58297 H 5829.92 -0.6223 3.88447 0
M  V30 58298 H 5831.93 -1.58372 4.70248 0
M  V30 58299 N 5831.1 -1.53442 0.359606 0
M  V30 58300 C 5832.52 -1.59598 0.00830557 0
M  V30 58301 C 5832.72 -1.37498 -1.47298 0
M  V30 58302 O 5831.78 -1.17718 -2.2338 0
M  V30 58303 C 5833.09 -2.97178 0.458884 0
M  V30 58304 C 5834.64 -3.10269 0.412594 0
M  V30 58305 C 5835.11 -4.50252 0.838891 0
M  V30 58306 N 5836.6 -4.56349 0.793713 0
M  V30 58307 C 5837.34 -5.62841 1.09532 0
M  V30 58308 N 5836.83 -6.77114 1.46591 0
M  V30 58309 N 5838.63 -5.52795 1.01851 0
M  V30 58310 H 5830.78 -1.6606 1.3243 0
M  V30 58311 H 5833.04 -0.778542 0.540904 0
M  V30 58312 H 5832.75 -3.1847 1.49231 0
M  V30 58313 H 5832.62 -3.76871 -0.157609 0
M  V30 58314 H 5835.01 -2.88691 -0.61169 0
M  V30 58315 H 5835.09 -2.32598 1.0645 0
M  V30 58316 H 5834.73 -4.72567 1.86126 0
M  V30 58317 H 5834.66 -5.26344 0.164294 0
M  V30 58318 H 5837.15 -3.74297 0.520612 0
M  V30 58319 H 5837.47 -7.54308 1.68047 0
M  V30 58320 H 5835.81 -6.7852 1.50451 0
M  V30 58321 H 5839 -4.62401 0.728221 0
M  V30 58322 H 5839.18 -6.35693 1.2569 0
M  V30 58323 N 5832.58 -0.0886195 -1.57351 0
M  V30 58324 C 5833.53 0.890209 -2.14891 0
M  V30 58325 C 5834.52 1.29667 -1.09008 0
M  V30 58326 O 5835.73 1.27195 -1.27363 0
M  V30 58327 H 5832.11 0.305083 -0.687334 0
M  V30 58328 H 5834.08 0.380139 -2.95969 0
M  V30 58329 C 5832.83 2.14206 -2.73881 0
M  V30 58330 H 5832.15 1.83817 -3.55037 0
M  V30 58331 H 5833.59 2.80769 -3.17718 0
M  V30 58332 C 5832.05 2.9118 -1.69458 0
M  V30 58333 O 5832.58 3.8549 -1.12963 0
M  V30 58334 N 5830.78 2.54598 -1.401 0
M  V30 58335 H 5830.33 1.77977 -1.86231 0
M  V30 58336 H 5830.29 3.06401 -0.704684 0
M  V30 58337 N 5834.06 1.5651 0.185041 0
M  V30 58338 C 5835.47 1.71026 0.748796 0
M  V30 58339 C 5835.82 0.696875 1.83407 0
M  V30 58340 O 5834.95 -0.144636 2.15916 0
M  V30 58341 C 5835.54 3.10085 1.36503 0
M  V30 58342 C 5834.1 3.26332 1.87575 0
M  V30 58343 C 5833.25 2.66979 0.749485 0
M  V30 58344 H 5836.2 1.58649 -0.0401733 0
M  V30 58345 H 5836.22 3.07973 2.23457 0
M  V30 58346 H 5835.73 3.83818 0.574916 0
M  V30 58347 H 5833.83 2.57532 2.69274 0
M  V30 58348 H 5833.95 4.33938 2.03063 0
M  V30 58349 H 5832.31 2.26423 1.16639 0
M  V30 58350 H 5833.09 3.43288 -0.0285508 0
M  V30 58351 N 5835.54 -0.453117 1.50946 0
M  V30 58352 C 5836.82 -1.21408 1.53361 0
M  V30 58353 C 5837.2 -2.09117 0.288657 0
M  V30 58354 O 5836.54 -2.16623 -0.727088 0
M  V30 58355 C 5836.75 -2.02959 2.83916 0
M  V30 58356 C 5838.1 -2.6054 3.35267 0
M  V30 58357 O 5839.13 -2.13186 2.8536 0
M  V30 58358 O 5837.98 -3.46866 4.2231 0
M  V30 58359 H 5835.08 -0.551887 0.615913 0
M  V30 58360 H 5837.62 -0.463472 1.63248 0
M  V30 58361 H 5836.4 -1.38441 3.65992 0
M  V30 58362 H 5836.02 -2.85117 2.77117 0
M  V30 58363 N 5837.02 -1.40826 -0.707518 0
M  V30 58364 C 5837.98 -1.41471 -1.80329 0
M  V30 58365 C 5838.98 -0.307199 -1.57838 0
M  V30 58366 O 5840.17 -0.566502 -1.64731 0
M  V30 58367 C 5837.3 -1.21437 -3.18537 0
M  V30 58368 H 5838.49 -2.39005 -1.81154 0
M  V30 58369 H 5836.05 -1.26793 -0.913963 0
M  V30 58370 H 5836.78 -0.24696 -3.23358 0
M  V30 58371 H 5836.57 -2.01669 -3.36262 0
M  V30 58372 H 5838.06 -1.24695 -3.98548 0
M  V30 58373 N 5838.5 0.940566 -1.26456 0
M  V30 58374 C 5839.41 2.07295 -1.09846 0
M  V30 58375 C 5840.42 1.73971 -0.0318089 0
M  V30 58376 O 5841.6 2.00016 -0.235665 0
M  V30 58377 C 5838.66 3.38844 -0.733855 0
M  V30 58378 C 5837.72 3.85947 -1.87998 0
M  V30 58379 C 5836.96 5.11219 -1.53268 0
M  V30 58380 O 5837.18 5.68741 -0.434691 0
M  V30 58381 O 5836.11 5.53378 -2.36763 0
M  V30 58382 H 5839.94 2.24215 -2.04844 0
M  V30 58383 H 5837.52 1.0576 -1.05524 0
M  V30 58384 H 5839.41 4.17883 -0.543278 0
M  V30 58385 H 5838.08 3.23161 0.18673 0
M  V30 58386 H 5836.99 3.07851 -2.12553 0
M  V30 58387 H 5838.32 4.06152 -2.78032 0
M  V30 58388 N 5839.97 1.0827 1.14523 0
M  V30 58389 C 5841.22 0.80647 1.84876 0
M  V30 58390 C 5841.54 -0.670086 1.83764 0
M  V30 58391 O 5842.74 -1.06142 2.49892 0
M  V30 58392 C 5841.2 1.39269 3.31862 0
M  V30 58393 C 5840.81 2.90093 3.41394 0
M  V30 58394 C 5842.55 1.19489 4.07336 0
M  V30 58395 C 5840.46 3.41859 4.82583 0
M  V30 58396 H 5839.39 0.298017 0.692605 0
M  V30 58397 H 5842.04 1.30394 1.29112 0
M  V30 58398 H 5840.42 0.822938 3.87355 0
M  V30 58399 H 5841.59 3.53193 2.95959 0
M  V30 58400 H 5839.91 3.0877 2.79374 0
M  V30 58401 H 5842.51 1.55632 5.11549 0
M  V30 58402 H 5842.85 0.134601 4.16082 0
M  V30 58403 H 5843.38 1.7315 3.58139 0
M  V30 58404 H 5840.12 4.47456 4.79024 0
M  V30 58405 H 5839.64 2.83518 5.28562 0
M  V30 58406 H 5841.32 3.38365 5.51469 0
M  V30 58407 N 5841.45 -1.31533 0.868156 0
M  V30 58408 C 5842.87 -1.49459 0.559831 0
M  V30 58409 C 5843.07 -1.7996 -0.906462 0
M  V30 58410 O 5842.12 -1.87717 -1.68874 0
M  V30 58411 C 5843.44 -2.62962 1.45848 0
M  V30 58412 C 5844.98 -2.76846 1.46032 0
M  V30 58413 C 5845.46 -3.93443 2.3445 0
M  V30 58414 N 5846.95 -4.00726 2.3232 0
M  V30 58415 C 5847.69 -4.90213 2.97454 0
M  V30 58416 N 5847.18 -5.84613 3.71752 0
M  V30 58417 N 5848.97 -4.83444 2.86772 0
M  V30 58418 H 5841.13 -1.10003 1.81695 0
M  V30 58419 H 5843.39 -0.54339 0.776808 0
M  V30 58420 H 5843.09 -2.47194 2.50176 0
M  V30 58421 H 5842.97 -3.59059 1.15569 0
M  V30 58422 H 5845.36 -2.92029 0.424629 0
M  V30 58423 H 5845.44 -1.8142 1.80334 0
M  V30 58424 H 5845.08 -3.79017 3.38095 0
M  V30 58425 H 5845.01 -4.88172 1.97474 0
M  V30 58426 H 5847.5 -3.33185 1.78314 0
M  V30 58427 H 5847.81 -6.49621 4.18584 0
M  V30 58428 H 5846.16 -5.84598 3.7586 0
M  V30 58429 H 5849.35 -4.0867 2.28268 0
M  V30 58430 H 5849.52 -5.52979 3.37814 0
M  V30 58431 N 5842.93 -0.627415 -1.44573 0
M  V30 58432 C 5844.34 -0.213214 -1.85479 0
M  V30 58433 C 5844.69 1.23453 -1.52492 0
M  V30 58434 O 5843.82 1.93882 -0.961183 0
M  V30 58435 C 5844.41 -0.380181 -3.3666 0
M  V30 58436 C 5842.97 -0.0205173 -3.76394 0
M  V30 58437 C 5842.12 -0.695319 -2.68441 0
M  V30 58438 H 5845.07 -0.832818 -1.35092 0
M  V30 58439 H 5845.09 0.381945 -3.78578 0
M  V30 58440 H 5844.6 -1.43396 -3.60637 0
M  V30 58441 H 5842.7 1.03167 -3.58033 0
M  V30 58442 H 5842.82 -0.427988 -4.77185 0
M  V30 58443 H 5841.18 -0.130988 -2.54363 0
M  V30 58444 H 5841.96 -1.75162 -2.95251 0
M  V30 58445 N 5844.41 1.5325 -0.367738 0
M  V30 58446 C 5845.65 2.02269 0.214174 0
M  V30 58447 C 5846.01 1.25019 1.46246 0
M  V30 58448 O 5845.3 0.33605 1.8863 0
M  V30 58449 C 5845.5 3.53033 0.557025 0
M  V30 58450 C 5845.32 4.44882 -0.656489 0
M  V30 58451 C 5844.09 4.91587 -1.16922 0
M  V30 58452 C 5846.29 4.91252 -1.52235 0
M  V30 58453 N 5844.27 5.67449 -2.34253 0
M  V30 58454 C 5845.65 5.65479 -2.5423 0
M  V30 58455 C 5847.7 4.73323 -1.54498 0
M  V30 58456 C 5846.4 6.23683 -3.58346 0
M  V30 58457 C 5848.43 5.32394 -2.57509 0
M  V30 58458 C 5847.79 6.06509 -3.58227 0
M  V30 58459 H 5843.89 0.780923 0.0410305 0
M  V30 58460 H 5846.47 1.87826 -0.512769 0
M  V30 58461 H 5844.65 3.67632 1.25304 0
M  V30 58462 H 5846.38 3.88772 1.12422 0
M  V30 58463 H 5843.13 4.67885 -0.733518 0
M  V30 58464 H 5843.56 6.10042 -2.93561 0
M  V30 58465 H 5848.2 4.15546 -0.779834 0
M  V30 58466 H 5845.92 6.80555 -4.35741 0
M  V30 58467 H 5849.5 5.20414 -2.60116 0
M  V30 58468 H 5848.38 6.51402 -4.36629 0
M  V30 58469 N 5845.89 0.096963 1.57301 0
M  V30 58470 C 5847.13 -0.569655 1.96302 0
M  V30 58471 C 5847.49 -1.65234 0.977837 0
M  V30 58472 O 5848.69 -2.3763 1.2564 0
M  V30 58473 C 5846.96 -1.10877 3.39766 0
M  V30 58474 S 5848.52 -1.78699 4.00764 0
M  V30 58475 H 5845.34 -0.185831 0.686286 0
M  V30 58476 H 5847.94 0.17681 1.94699 0
M  V30 58477 H 5846.64 -0.309297 4.09233 0
M  V30 58478 H 5846.18 -1.89102 3.4497 0
M  V30 58479 H 5848.19 -3.07135 3.89721 0
M  V30 58480 N 5847.36 -1.56606 -0.176738 0
M  V30 58481 C 5848.59 -1.85546 -0.908634 0
M  V30 58482 C 5849 -0.679617 -1.76573 0
M  V30 58483 O 5848.34 0.360604 -1.80126 0
M  V30 58484 C 5848.41 -3.08829 -1.84023 0
M  V30 58485 C 5848.07 -4.41947 -1.16328 0
M  V30 58486 C 5849.07 -5.17178 -0.531345 0
M  V30 58487 C 5846.75 -4.88683 -1.16166 0
M  V30 58488 C 5848.75 -6.37332 0.0931842 0
M  V30 58489 C 5846.43 -6.08769 -0.5333 0
M  V30 58490 C 5847.43 -6.82937 0.0930213 0
M  V30 58491 O 5847.12 -8.00745 0.711484 0
M  V30 58492 H 5846.85 -0.619871 -0.269696 0
M  V30 58493 H 5849.41 -2.0458 -0.183342 0
M  V30 58494 H 5847.64 -2.85727 -2.6057 0
M  V30 58495 H 5849.32 -3.24262 -2.4415 0
M  V30 58496 H 5850.09 -4.82154 -0.524615 0
M  V30 58497 H 5845.97 -4.30897 -1.63856 0
M  V30 58498 H 5849.51 -6.95163 0.582653 0
M  V30 58499 H 5845.41 -6.43257 -0.537595 0
M  V30 58500 H 5846.18 -8.16222 0.610198 0
M  V30 58501 N 5848.84 0.445106 -1.51184 0
M  V30 58502 C 5850.07 1.21781 -1.67263 0
M  V30 58503 C 5850.48 1.85204 -0.366707 0
M  V30 58504 O 5849.84 1.70378 0.654036 0
M  V30 58505 C 5849.89 2.30755 -2.7827 0
M  V30 58506 O 5849.61 1.69928 -4.03802 0
M  V30 58507 C 5851.11 3.21175 -3.05551 0
M  V30 58508 H 5848.33 0.367344 -0.561515 0
M  V30 58509 H 5850.88 0.528345 -1.97557 0
M  V30 58510 H 5849.03 2.95431 -2.50597 0
M  V30 58511 H 5849.45 2.41889 -4.65393 0
M  V30 58512 H 5850.92 3.93791 -3.86824 0
M  V30 58513 H 5851.4 3.81479 -2.17647 0
M  V30 58514 H 5852 2.62209 -3.34853 0
M  V30 58515 N 5850.32 1.41199 0.70004 0
M  V30 58516 C 5851.25 1.37108 1.82419 0
M  V30 58517 C 5852.23 0.239013 1.60834 0
M  V30 58518 O 5853.41 0.425201 1.83642 0
M  V30 58519 C 5850.54 1.13759 3.19024 0
M  V30 58520 C 5849.59 2.29625 3.59409 0
M  V30 58521 S 5850.42 3.92087 3.6473 0
M  V30 58522 C 5851.58 3.71032 5.04069 0
M  V30 58523 H 5851.81 2.3224 1.85612 0
M  V30 58524 H 5849.34 1.2767 0.868323 0
M  V30 58525 H 5851.3 1.00974 3.97888 0
M  V30 58526 H 5849.96 0.202545 3.13446 0
M  V30 58527 H 5849.15 2.0897 4.58637 0
M  V30 58528 H 5848.76 2.38794 2.87843 0
M  V30 58529 H 5851.05 3.30462 5.9144 0
M  V30 58530 H 5851.99 4.69846 5.29764 0
M  V30 58531 H 5852.4 3.04398 4.75397 0
M  V30 58532 N 5851.8 -0.933846 1.26953 0
M  V30 58533 C 5853.07 -1.6587 1.03665 0
M  V30 58534 C 5853.45 -2.06662 -0.430587 0
M  V30 58535 O 5852.8 -1.79611 -1.41252 0
M  V30 58536 C 5853.01 -2.86539 1.99239 0
M  V30 58537 C 5854.36 -3.58023 2.28264 0
M  V30 58538 O 5855.38 -2.96656 1.97164 0
M  V30 58539 O 5854.24 -4.68573 2.8125 0
M  V30 58540 H 5851.34 -0.726716 0.394731 0
M  V30 58541 H 5853.88 -0.984927 1.38193 0
M  V30 58542 H 5852.66 -2.5334 2.98219 0
M  V30 58543 H 5852.28 -3.61639 1.65236 0
M  V30 58544 N 5853.28 -1.08875 -1.13947 0
M  V30 58545 C 5854.69 -0.841611 -1.66655 0
M  V30 58546 C 5855.04 0.630867 -1.85781 0
M  V30 58547 O 5854.16 1.48668 -1.57248 0
M  V30 58548 C 5854.76 -1.5212 -3.02729 0
M  V30 58549 C 5853.32 -1.32117 -3.52451 0
M  V30 58550 C 5852.46 -1.58092 -2.27821 0
M  V30 58551 H 5855.42 -1.24869 -0.979466 0
M  V30 58552 H 5855.44 -0.951107 -3.68421 0
M  V30 58553 H 5854.95 -2.59287 -2.88777 0
M  V30 58554 H 5853.05 -0.270425 -3.71617 0
M  V30 58555 H 5853.16 -2.05212 -4.32926 0
M  V30 58556 H 5851.53 -1.00273 -2.34131 0
M  V30 58557 H 5852.31 -2.66475 -2.16439 0
M  V30 58558 N 5854.75 1.3107 -0.875119 0
M  V30 58559 C 5855.98 2.01222 -0.502454 0
M  V30 58560 C 5856.4 1.65226 0.898995 0
M  V30 58561 O 5855.76 0.863615 1.59409 0
M  V30 58562 C 5855.81 3.54267 -0.672871 0
M  V30 58563 O 5854.91 4.1141 0.285573 0
M  V30 58564 H 5854.26 0.633415 -0.199203 0
M  V30 58565 H 5856.79 1.67148 -1.17995 0
M  V30 58566 H 5856.8 4.04025 -0.568115 0
M  V30 58567 H 5855.47 3.79805 -1.69473 0
M  V30 58568 H 5854.05 3.72654 0.135341 0
M  V30 58569 N 5856.23 0.635073 1.44238 0
M  V30 58570 C 5857.48 0.141347 2.02307 0
M  V30 58571 C 5857.81 -1.23503 1.49869 0
M  V30 58572 O 5857.09 -1.82063 0.684355 0
M  V30 58573 C 5857.37 0.132322 3.59857 0
M  V30 58574 C 5857.22 1.54132 4.22568 0
M  V30 58575 C 5858.54 -0.541033 4.36762 0
M  V30 58576 H 5855.66 0.0528375 0.735104 0
M  V30 58577 H 5858.3 0.812299 1.71761 0
M  V30 58578 H 5856.45 -0.43902 3.86011 0
M  V30 58579 H 5858.12 2.16185 4.07507 0
M  V30 58580 H 5856.37 2.09403 3.79912 0
M  V30 58581 H 5857.04 1.487 5.31594 0
M  V30 58582 H 5859.51 -0.0551141 4.16063 0
M  V30 58583 H 5858.39 -0.51655 5.46464 0
M  V30 58584 H 5858.65 -1.61207 4.11661 0
M  V30 58585 N 5857.71 -1.53052 0.37586 0
M  V30 58586 C 5859.13 -1.5958 0.0252326 0
M  V30 58587 C 5859.33 -1.39052 -1.45831 0
M  V30 58588 O 5858.38 -1.2008 -2.22119 0
M  V30 58589 C 5859.7 -2.96675 0.490378 0
M  V30 58590 C 5861.24 -3.09814 0.445479 0
M  V30 58591 C 5861.72 -4.49337 0.886599 0
M  V30 58592 N 5863.21 -4.55482 0.84207 0
M  V30 58593 C 5863.94 -5.61648 1.15496 0
M  V30 58594 N 5863.44 -6.75521 1.53765 0
M  V30 58595 N 5865.23 -5.51684 1.07709 0
M  V30 58596 H 5857.38 -1.64646 1.34184 0
M  V30 58597 H 5859.65 -0.772761 0.549131 0
M  V30 58598 H 5859.35 -3.16869 1.52601 0
M  V30 58599 H 5859.23 -3.77017 -0.117628 0
M  V30 58600 H 5861.61 -2.89323 -0.581036 0
M  V30 58601 H 5861.7 -2.31456 1.08911 0
M  V30 58602 H 5861.34 -4.70566 1.91128 0
M  V30 58603 H 5861.27 -5.2614 0.22011 0
M  V30 58604 H 5863.76 -3.73723 0.560282 0
M  V30 58605 H 5864.07 -7.52483 1.76038 0
M  V30 58606 H 5862.42 -6.76886 1.57639 0
M  V30 58607 H 5865.61 -4.61602 0.777224 0
M  V30 58608 H 5865.78 -6.34324 1.32426 0
M  V30 58609 N 5859.19 -0.105304 -1.57248 0
M  V30 58610 C 5860.43 0.550629 -1.95805 0
M  V30 58611 C 5860.79 1.65155 -0.986991 0
M  V30 58612 O 5860.08 1.91594 -0.0146826 0
M  V30 58613 C 5860.28 1.14166 -3.38675 0
M  V30 58614 C 5860.11 0.0995245 -4.4959 0
M  V30 58615 C 5858.88 -0.327543 -5.04237 0
M  V30 58616 C 5861.07 -0.676228 -5.09835 0
M  V30 58617 N 5859.06 -1.35688 -5.98717 0
M  V30 58618 C 5860.43 -1.55712 -6.00128 0
M  V30 58619 C 5862.48 -0.728624 -4.9254 0
M  V30 58620 C 5861.18 -2.48582 -6.74981 0
M  V30 58621 C 5863.21 -1.64498 -5.68062 0
M  V30 58622 C 5862.57 -2.51347 -6.5803 0
M  V30 58623 H 5858.67 0.17152 -0.762958 0
M  V30 58624 H 5861.26 -0.190243 -1.93768 0
M  V30 58625 H 5859.43 1.85231 -3.41386 0
M  V30 58626 H 5861.16 1.76079 -3.64388 0
M  V30 58627 H 5857.91 0.0621967 -4.73559 0
M  V30 58628 H 5858.34 -1.87006 -6.50659 0
M  V30 58629 H 5862.98 -0.0713098 -4.2274 0
M  V30 58630 H 5860.7 -3.15334 -7.44036 0
M  V30 58631 H 5864.28 -1.69078 -5.5669 0
M  V30 58632 H 5863.16 -3.21102 -7.15446 0
M  V30 58633 N 5860.67 1.56697 0.168431 0
M  V30 58634 C 5861.58 1.9987 1.22838 0
M  V30 58635 C 5862.59 0.910543 1.48274 0
M  V30 58636 O 5863.77 1.2184 1.60365 0
M  V30 58637 C 5860.83 2.35236 2.54686 0
M  V30 58638 C 5859.89 3.57894 2.37087 0
M  V30 58639 C 5859.13 3.91564 3.62648 0
M  V30 58640 O 5859.35 3.26165 4.67945 0
M  V30 58641 O 5858.28 4.84902 3.56586 0
M  V30 58642 H 5862.11 2.90308 0.891913 0
M  V30 58643 H 5859.7 1.44604 0.37552 0
M  V30 58644 H 5861.58 2.58939 3.32458 0
M  V30 58645 H 5860.25 1.4796 2.87906 0
M  V30 58646 H 5859.16 3.39405 1.57336 0
M  V30 58647 H 5860.49 4.45721 2.08791 0
M  V30 58648 N 5862.14 -0.437082 1.51418 0
M  V30 58649 C 5863.37 -1.20717 1.67663 0
M  V30 58650 C 5863.78 -1.85474 0.373612 0
M  V30 58651 O 5863.13 -1.71518 -0.657816 0
M  V30 58652 C 5863.19 -2.33247 2.73561 0
M  V30 58653 C 5862.85 -1.88855 4.16152 0
M  V30 58654 C 5863.85 -1.39185 5.00923 0
M  V30 58655 C 5861.53 -1.96539 4.62253 0
M  V30 58656 C 5863.53 -0.97785 6.29855 0
M  V30 58657 C 5861.21 -1.54751 5.91181 0
M  V30 58658 C 5862.21 -1.05455 6.7481 0
M  V30 58659 O 5861.9 -0.642598 8.01328 0
M  V30 58660 H 5861.63 -0.36991 0.565811 0
M  V30 58661 H 5864.19 -0.524113 1.98601 0
M  V30 58662 H 5862.42 -3.04831 2.37939 0
M  V30 58663 H 5864.11 -2.95111 2.78683 0
M  V30 58664 H 5864.87 -1.32643 4.66509 0
M  V30 58665 H 5860.75 -2.33854 3.97282 0
M  V30 58666 H 5864.29 -0.592389 6.9508 0
M  V30 58667 H 5860.19 -1.60963 6.25109 0
M  V30 58668 H 5860.96 -0.768424 8.14885 0
M  V30 58669 N 5863.62 -1.41568 -0.692542 0
M  V30 58670 C 5864.86 -1.42559 -1.4648 0
M  V30 58671 C 5865.23 -0.034236 -1.91969 0
M  V30 58672 O 5866.43 0.0810788 -2.68678 0
M  V30 58673 C 5864.7 -2.40682 -2.6421 0
M  V30 58674 S 5866.26 -2.60227 -3.53309 0
M  V30 58675 H 5863.08 -0.504977 -0.500519 0
M  V30 58676 H 5865.68 -1.7803 -0.807804 0
M  V30 58677 H 5864.38 -3.40569 -2.29 0
M  V30 58678 H 5863.91 -2.06574 -3.34799 0
M  V30 58679 H 5865.93 -1.87195 -4.59535 0
M  V30 58680 N 5865.1 0.927101 -1.27446 0
M  V30 58681 C 5866.05 2.04914 -1.1006 0
M  V30 58682 C 5867.04 1.69384 -0.0235264 0
M  V30 58683 O 5868.25 1.79085 -0.181291 0
M  V30 58684 H 5864.62 0.671177 -0.339154 0
M  V30 58685 H 5866.59 2.16725 -2.05117 0
M  V30 58686 C 5865.34 3.39176 -0.765191 0
M  V30 58687 H 5864.67 3.67001 -1.58589 0
M  V30 58688 H 5866.11 4.18456 -0.683413 0
M  V30 58689 C 5864.57 3.32698 0.530461 0
M  V30 58690 O 5865.1 3.69973 1.56471 0
M  V30 58691 N 5863.3 2.85794 0.526296 0
M  V30 58692 H 5862.85 2.55657 -0.315765 0
M  V30 58693 H 5862.81 2.81843 1.39327 0
M  V30 58694 N 5866.58 1.09478 1.13368 0
M  V30 58695 C 5867.51 0.756519 2.20905 0
M  V30 58696 C 5868.49 -0.266054 1.68006 0
M  V30 58697 O 5869.67 -0.133999 1.93737 0
M  V30 58698 C 5866.8 0.176855 3.46849 0
M  V30 58699 C 5865.76 1.129 4.12841 0
M  V30 58700 C 5865.08 0.411018 5.33118 0
M  V30 58701 C 5866.38 2.47164 4.60117 0
M  V30 58702 H 5868.08 1.65564 2.49457 0
M  V30 58703 H 5865.62 0.7975 1.199 0
M  V30 58704 H 5867.58 -0.071867 4.21339 0
M  V30 58705 H 5866.3 -0.757464 3.17695 0
M  V30 58706 H 5864.96 1.36301 3.4032 0
M  V30 58707 H 5864.61 -0.527456 5.00227 0
M  V30 58708 H 5864.31 1.04588 5.78217 0
M  V30 58709 H 5865.83 0.170609 6.10362 0
M  V30 58710 H 5867.25 2.27968 5.26026 0
M  V30 58711 H 5865.64 3.06443 5.15958 0
M  V30 58712 H 5866.71 3.07888 3.74611 0
M  V30 58713 N 5868.06 -1.30604 0.882058 0
M  V30 58714 C 5869.29 -2.00417 0.513886 0
M  V30 58715 C 5869.7 -1.66138 -0.896858 0
M  V30 58716 O 5869.06 -0.896966 -1.58936 0
M  V30 58717 C 5869.11 -3.5513 0.675628 0
M  V30 58718 O 5868.83 -3.88187 2.03083 0
M  V30 58719 C 5870.33 -4.42214 0.310062 0
M  V30 58720 H 5867.55 -0.640832 0.198936 0
M  V30 58721 H 5870.09 -1.66557 1.18655 0
M  V30 58722 H 5868.25 -3.87367 0.0503651 0
M  V30 58723 H 5868.66 -4.82892 2.04733 0
M  V30 58724 H 5870.14 -5.4996 0.474141 0
M  V30 58725 H 5870.61 -4.32719 -0.7517 0
M  V30 58726 H 5871.22 -4.15417 0.911526 0
M  V30 58727 N 5869.54 -0.642713 -1.43899 0
M  V30 58728 C 5870.95 -0.309341 -1.56573 0
M  V30 58729 C 5871.15 1.18703 -1.62824 0
M  V30 58730 O 5870.21 1.97152 -1.57758 0
M  V30 58731 C 5871.52 -1.01146 -2.83178 0
M  V30 58732 C 5873.07 -0.990704 -2.96907 0
M  V30 58733 C 5873.54 -1.67351 -4.2633 0
M  V30 58734 N 5875.03 -1.64065 -4.33171 0
M  V30 58735 C 5875.77 -2.13781 -5.32058 0
M  V30 58736 N 5875.27 -2.71739 -6.37283 0
M  V30 58737 N 5877.06 -2.04342 -5.23642 0
M  V30 58738 H 5869.21 -1.61389 -1.38085 0
M  V30 58739 H 5871.47 -0.678107 -0.662476 0
M  V30 58740 H 5871.18 -2.0665 -2.84585 0
M  V30 58741 H 5871.05 -0.556435 -3.73073 0
M  V30 58742 H 5873.44 0.055896 -2.95047 0
M  V30 58743 H 5873.52 -1.48433 -2.0833 0
M  V30 58744 H 5873.16 -2.71962 -4.28951 0
M  V30 58745 H 5873.09 -1.15463 -5.13786 0
M  V30 58746 H 5875.59 -1.21761 -3.57747 0
M  V30 58747 H 5875.9 -3.07377 -7.09041 0
M  V30 58748 H 5874.24 -2.75795 -6.37936 0
M  V30 58749 H 5877.43 -1.58776 -4.4035 0
M  V30 58750 H 5877.61 -2.43397 -6.00551 0
M  V30 58751 N 5871.01 1.52851 -0.383971 0
M  V30 58752 C 5872.25 2.03422 0.19976 0
M  V30 58753 C 5872.62 1.26444 1.44485 0
M  V30 58754 O 5873.82 1.67113 2.10539 0
M  V30 58755 C 5872.09 3.54343 0.466453 0
M  V30 58756 S 5873.65 4.26751 1.02123 0
M  V30 58757 H 5870.47 0.708732 0.0567387 0
M  V30 58758 H 5873.07 1.88148 -0.531088 0
M  V30 58759 H 5871.77 4.07959 -0.446915 0
M  V30 58760 H 5871.3 3.73813 1.22587 0
M  V30 58761 H 5873.32 4.39464 2.30404 0
M  V30 58762 N 5872.49 0.113641 1.5719 0
M  V30 58763 C 5873.9 -0.412589 1.82084 0
M  V30 58764 C 5874.25 -1.6696 1.03047 0
M  V30 58765 O 5873.38 -2.14766 0.265429 0
M  V30 58766 C 5873.97 -0.755322 3.30273 0
M  V30 58767 C 5872.53 -1.22621 3.55867 0
M  V30 58768 C 5871.68 -0.232188 2.76326 0
M  V30 58769 H 5874.63 0.338846 1.5504 0
M  V30 58770 H 5874.65 -1.61322 3.44609 0
M  V30 58771 H 5874.16 0.159736 3.87771 0
M  V30 58772 H 5872.26 -2.15835 3.0372 0
M  V30 58773 H 5872.38 -1.17524 4.64462 0
M  V30 58774 H 5870.74 -0.718136 2.44366 0
M  V30 58775 H 5871.52 0.675874 3.36581 0
M  V30 58776 N 5873.97 -1.56785 -0.160118 0
M  V30 58777 C 5875.22 -1.82894 -0.876214 0
M  V30 58778 C 5875.55 -0.693237 -1.81405 0
M  V30 58779 O 5874.82 0.304068 -1.92108 0
M  V30 58780 C 5875.11 -3.19445 -1.66214 0
M  V30 58781 C 5874.96 -4.43559 -0.746675 0
M  V30 58782 C 5876.28 -3.53062 -2.62746 0
M  V30 58783 H 5873.4 -0.665296 -0.317097 0
M  V30 58784 H 5876.04 -1.89469 -0.141937 0
M  V30 58785 H 5874.19 -3.13971 -2.28812 0
M  V30 58786 H 5875.86 -4.61109 -0.132714 0
M  V30 58787 H 5874.1 -4.33765 -0.0554101 0
M  V30 58788 H 5874.78 -5.3568 -1.33234 0
M  V30 58789 H 5877.25 -3.59062 -2.10271 0
M  V30 58790 H 5876.13 -4.49661 -3.14795 0
M  V30 58791 H 5876.39 -2.78341 -3.4348 0
M  V30 58792 N 5875.45 0.429046 -1.51647 0
M  V30 58793 C 5876.68 1.2 -1.68546 0
M  V30 58794 C 5877.09 1.84805 -0.386329 0
M  V30 58795 O 5876.45 1.71062 0.635928 0
M  V30 58796 C 5876.5 2.27791 -2.80702 0
M  V30 58797 O 5876.22 1.65635 -4.05582 0
M  V30 58798 C 5877.72 3.17917 -3.0894 0
M  V30 58799 H 5874.94 0.361368 -0.56538 0
M  V30 58800 H 5877.48 0.507362 -1.98106 0
M  V30 58801 H 5875.64 2.92757 -2.53717 0
M  V30 58802 H 5876.05 2.36939 -4.67932 0
M  V30 58803 H 5877.53 3.89666 -3.90979 0
M  V30 58804 H 5878 3.79149 -2.21681 0
M  V30 58805 H 5878.61 2.58643 -3.37615 0
M  V30 58806 N 5876.93 1.41934 0.685024 0
M  V30 58807 C 5877.84 1.46992 1.8284 0
M  V30 58808 C 5878.85 0.359547 1.70245 0
M  V30 58809 O 5880.03 0.608891 1.91975 0
M  V30 58810 C 5877.09 1.36012 3.18907 0
M  V30 58811 C 5876.15 2.57454 3.43534 0
M  V30 58812 C 5875.39 2.46989 4.73109 0
M  V30 58813 O 5875.61 1.50018 5.50319 0
M  V30 58814 O 5874.54 3.36939 4.98754 0
M  V30 58815 H 5878.37 2.43477 1.81529 0
M  V30 58816 H 5875.95 1.23586 0.839454 0
M  V30 58817 H 5877.84 1.32212 4.00122 0
M  V30 58818 H 5876.51 0.426479 3.20878 0
M  V30 58819 H 5875.42 2.6683 2.62207 0
M  V30 58820 H 5876.75 3.49683 3.46385 0
M  V30 58821 N 5878.4 -0.920329 1.27936 0
M  V30 58822 C 5879.63 -1.708 1.17653 0
M  V30 58823 C 5880.05 -1.86265 -0.262123 0
M  V30 58824 O 5879.41 -1.36802 -1.18974 0
M  V30 58825 C 5879.46 -3.08136 1.87309 0
M  V30 58826 O 5878.56 -3.95275 1.17607 0
M  V30 58827 H 5877.9 -0.523253 0.408782 0
M  V30 58828 H 5880.43 -1.15121 1.6914 0
M  V30 58829 H 5880.44 -3.58407 1.94958 0
M  V30 58830 H 5879.12 -2.96197 2.91959 0
M  V30 58831 H 5877.7 -3.53712 1.18077 0
M  V30 58832 N 5879.88 -1.10078 -1.12786 0
M  V30 58833 C 5881.11 -0.863172 -1.88584 0
M  V30 58834 C 5881.53 0.580532 -1.78917 0
M  V30 58835 O 5880.89 1.40855 -1.14147 0
M  V30 58836 C 5880.94 -1.31154 -3.35903 0
M  V30 58837 O 5880.04 -0.474232 -4.09664 0
M  V30 58838 H 5879.38 -0.312055 -0.586104 0
M  V30 58839 H 5881.91 -1.46664 -1.42657 0
M  V30 58840 H 5881.92 -1.29987 -3.86739 0
M  V30 58841 H 5880.6 -2.36291 -3.42256 0
M  V30 58842 H 5879.17 -0.550794 -3.6881 0
M  V30 58843 N 5881.36 1.30135 -0.888972 0
M  V30 58844 C 5882.61 1.96278 -0.510189 0
M  V30 58845 C 5882.94 1.69987 0.939037 0
M  V30 58846 O 5882.21 1.00683 1.66413 0
M  V30 58847 C 5882.5 3.51318 -0.790428 0
M  V30 58848 C 5882.35 3.87108 -2.29057 0
M  V30 58849 C 5883.67 4.39273 -0.269632 0
M  V30 58850 H 5880.79 0.712925 -0.186835 0
M  V30 58851 H 5883.43 1.53938 -1.11369 0
M  V30 58852 H 5881.58 3.87513 -0.276783 0
M  V30 58853 H 5883.25 3.60916 -2.87293 0
M  V30 58854 H 5881.49 3.35034 -2.75562 0
M  V30 58855 H 5882.17 4.9528 -2.43725 0
M  V30 58856 H 5884.64 4.1001 -0.709317 0
M  V30 58857 H 5883.52 5.46663 -0.495008 0
M  V30 58858 H 5883.78 4.34253 0.829281 0
M  V30 58859 N 5882.84 0.650335 1.43556 0
M  V30 58860 C 5883.77 -0.0295118 2.33481 0
M  V30 58861 C 5884.75 -0.814964 1.49306 0
M  V30 58862 O 5885.93 -0.777018 1.77978 0
M  V30 58863 C 5883.06 -0.998566 3.32635 0
M  V30 58864 C 5882.02 -0.323427 4.26776 0
M  V30 58865 C 5881.34 -1.40373 5.15945 0
M  V30 58866 C 5882.64 0.782378 5.16407 0
M  V30 58867 H 5884.34 0.721451 2.90578 0
M  V30 58868 H 5881.88 0.348388 1.39722 0
M  V30 58869 H 5883.84 -1.48306 3.9444 0
M  V30 58870 H 5882.56 -1.78065 2.73789 0
M  V30 58871 H 5881.22 0.140596 3.6633 0
M  V30 58872 H 5880.87 -2.17718 4.5344 0
M  V30 58873 H 5880.57 -0.957259 5.7975 0
M  V30 58874 H 5882.09 -1.88964 5.80624 0
M  V30 58875 H 5883.51 0.380167 5.72038 0
M  V30 58876 H 5881.9 1.15314 5.88917 0
M  V30 58877 H 5882.97 1.64156 4.56268 0
M  V30 58878 N 5884.32 -1.52645 0.392072 0
M  V30 58879 C 5885.54 -2.06033 -0.18922 0
M  V30 58880 C 5885.96 -1.26356 -1.40284 0
M  V30 58881 O 5885.32 -0.31094 -1.79832 0
M  V30 58882 C 5885.37 -3.57189 -0.556594 0
M  V30 58883 O 5885.09 -4.33849 0.60881 0
M  V30 58884 C 5886.59 -4.26933 -1.19345 0
M  V30 58885 H 5883.81 -0.67042 -0.0278941 0
M  V30 58886 H 5886.35 -1.96737 0.558102 0
M  V30 58887 H 5884.51 -3.66549 -1.25381 0
M  V30 58888 H 5884.92 -5.23605 0.306223 0
M  V30 58889 H 5886.4 -5.33929 -1.40085 0
M  V30 58890 H 5886.87 -3.82323 -2.16162 0
M  V30 58891 H 5887.48 -4.21897 -0.536921 0
M  V30 58892 N 5885.79 -0.121976 -1.57127 0
M  V30 58893 C 5887.02 0.542942 -1.99649 0
M  V30 58894 C 5887.44 1.60035 -1.00171 0
M  V30 58895 O 5886.79 1.82499 0.00498272 0
M  V30 58896 C 5886.85 1.16638 -3.42167 0
M  V30 58897 O 5886.57 0.151231 -4.37839 0
M  V30 58898 C 5888.07 1.91433 -3.99836 0
M  V30 58899 H 5885.29 0.143501 -0.655476 0
M  V30 58900 H 5887.83 -0.209192 -2.03427 0
M  V30 58901 H 5885.99 1.86927 -3.39318 0
M  V30 58902 H 5886.4 0.60459 -5.21004 0
M  V30 58903 H 5887.87 2.30377 -5.01628 0
M  V30 58904 H 5888.35 2.79068 -3.39143 0
M  V30 58905 H 5888.96 1.25899 -4.06238 0
M  V30 58906 N 5887.27 1.56867 0.151801 0
M  V30 58907 C 5888.68 1.72576 0.71235 0
M  V30 58908 C 5889.03 0.735621 1.81887 0
M  V30 58909 O 5888.16 -0.098804 2.16174 0
M  V30 58910 C 5888.75 3.1291 1.29894 0
M  V30 58911 C 5887.31 3.30237 1.80611 0
M  V30 58912 C 5886.46 2.68509 0.692686 0
M  V30 58913 H 5889.41 1.58528 -0.0738161 0
M  V30 58914 H 5889.43 3.12644 2.16874 0
M  V30 58915 H 5888.94 3.84951 0.493373 0
M  V30 58916 H 5887.05 2.63185 2.6375 0
M  V30 58917 H 5887.16 4.38148 1.93813 0
M  V30 58918 H 5885.52 2.28846 1.1181 0
M  V30 58919 H 5886.31 3.4315 -0.101361 0
M  V30 58920 N 5888.75 -0.420997 1.51873 0
M  V30 58921 C 5889.98 -1.19105 1.6918 0
M  V30 58922 C 5890.39 -1.84598 0.396125 0
M  V30 58923 O 5889.75 -1.71397 -0.626847 0
M  V30 58924 C 5889.8 -2.26299 2.81906 0
M  V30 58925 O 5889.52 -1.63482 4.06455 0
M  V30 58926 C 5891.02 -3.16274 3.10622 0
M  V30 58927 H 5888.24 -0.358365 0.567288 0
M  V30 58928 H 5890.79 -0.496849 1.98373 0
M  V30 58929 H 5888.94 -2.91407 2.55266 0
M  V30 58930 H 5889.36 -2.34454 4.69182 0
M  V30 58931 H 5890.83 -3.87587 3.9304 0
M  V30 58932 H 5891.31 -3.77968 2.23689 0
M  V30 58933 H 5891.91 -2.56848 3.38982 0
M  V30 58934 N 5890.23 -1.42295 -0.677488 0
M  V30 58935 C 5891.47 -1.42832 -1.43968 0
M  V30 58936 C 5891.81 -0.0435723 -1.94151 0
M  V30 58937 O 5891.08 0.931734 -1.70731 0
M  V30 58938 C 5891.37 -2.45046 -2.63864 0
M  V30 58939 C 5891.22 -3.92701 -2.1933 0
M  V30 58940 C 5892.54 -2.44283 -3.66079 0
M  V30 58941 H 5889.66 -0.520116 -0.522158 0
M  V30 58942 H 5892.3 -1.73691 -0.770158 0
M  V30 58943 H 5890.45 -2.18863 -3.20985 0
M  V30 58944 H 5892.12 -4.29856 -1.67397 0
M  V30 58945 H 5890.36 -4.06697 -1.5093 0
M  V30 58946 H 5891.03 -4.59795 -3.05439 0
M  V30 58947 H 5893.51 -2.67562 -3.18669 0
M  V30 58948 H 5892.39 -3.17785 -4.47553 0
M  V30 58949 H 5892.65 -1.46784 -4.17022 0
M  V30 58950 N 5891.71 0.913531 -1.28423 0
M  V30 58951 C 5892.67 1.99753 -1.12389 0
M  V30 58952 C 5893.67 1.60675 -0.0634915 0
M  V30 58953 O 5894.86 1.71432 -0.30929 0
M  V30 58954 C 5891.99 3.33304 -0.715624 0
M  V30 58955 H 5893.18 2.15407 -2.08662 0
M  V30 58956 H 5890.74 1.09622 -1.11412 0
M  V30 58957 H 5891.47 3.23351 0.247864 0
M  V30 58958 H 5891.26 3.63029 -1.48163 0
M  V30 58959 H 5892.75 4.1288 -0.626098 0
M  V30 58960 N 5893.18 1.10674 1.122 0
M  V30 58961 C 5894.6 0.868017 1.65295 0
M  V30 58962 C 5894.95 -0.601231 1.86761 0
M  V30 58963 O 5894.07 -1.46147 1.59593 0
M  V30 58964 C 5894.67 1.56917 3.00271 0
M  V30 58965 C 5893.23 1.37708 3.50305 0
M  V30 58966 C 5892.37 1.61696 2.25277 0
M  V30 58967 H 5895.32 1.26411 0.959477 0
M  V30 58968 H 5895.34 1.0096 3.66861 0
M  V30 58969 H 5894.86 2.63848 2.84615 0
M  V30 58970 H 5892.96 0.329511 3.7114 0
M  V30 58971 H 5893.07 2.12073 4.29606 0
M  V30 58972 H 5891.43 1.03985 2.32506 0
M  V30 58973 H 5892.22 2.69885 2.12173 0
M  V30 58974 N 5894.66 -1.29661 0.89586 0
M  V30 58975 C 5895.91 -1.96004 0.52059 0
M  V30 58976 C 5896.24 -1.70483 -0.930009 0
M  V30 58977 O 5895.52 -1.01564 -1.65877 0
M  V30 58978 C 5895.8 -3.50894 0.809048 0
M  V30 58979 C 5895.65 -3.85888 2.31107 0
M  V30 58980 C 5896.97 -4.39124 0.292924 0
M  V30 58981 H 5894.09 -0.711924 0.190613 0
M  V30 58982 H 5896.73 -1.53345 1.12184 0
M  V30 58983 H 5894.88 -3.87361 0.29733 0
M  V30 58984 H 5896.55 -3.59387 2.89203 0
M  V30 58985 H 5894.8 -3.33568 2.77335 0
M  V30 58986 H 5895.47 -4.9398 2.46348 0
M  V30 58987 H 5897.94 -4.09628 0.73105 0
M  V30 58988 H 5896.82 -5.46393 0.523992 0
M  V30 58989 H 5897.08 -4.34686 -0.80624 0
M  V30 58990 N 5896.14 -0.657939 -1.43209 0
M  V30 58991 C 5897.55 -0.252509 -1.84985 0
M  V30 58992 C 5897.9 1.20191 -1.55076 0
M  V30 58993 O 5897.03 1.918 -1.00209 0
M  V30 58994 C 5897.62 -0.451506 -3.35778 0
M  V30 58995 C 5896.18 -0.100352 -3.76266 0
M  V30 58996 C 5895.33 -0.752103 -2.66906 0
M  V30 58997 H 5898.28 -0.861286 -1.33295 0
M  V30 58998 H 5898.3 0.301557 -3.79303 0
M  V30 58999 H 5897.81 -1.51013 -3.57515 0
M  V30 59000 H 5895.91 0.955491 -3.6014 0
M  V30 59001 H 5896.03 -0.52911 -4.76169 0
M  V30 59002 H 5894.39 -0.184912 -2.54028 0
M  V30 59003 H 5895.17 -1.81385 -2.91469 0
M  V30 59004 N 5897.62 1.52435 -0.400162 0
M  V30 59005 C 5898.84 2.06611 0.180788 0
M  V30 59006 C 5899.27 1.26905 1.3884 0
M  V30 59007 O 5898.63 0.296925 1.78852 0
M  V30 59008 C 5898.68 3.56853 0.518469 0
M  V30 59009 O 5897.78 3.7964 1.61082 0
M  V30 59010 H 5897.12 0.663753 0.0181114 0
M  V30 59011 H 5899.65 1.96477 -0.570771 0
M  V30 59012 H 5899.66 4.00481 0.779676 0
M  V30 59013 H 5898.34 4.14301 -0.364361 0
M  V30 59014 H 5896.91 3.47896 1.34248 0
M  V30 59015 N 5899.1 0.130307 1.5706 0
M  V30 59016 C 5900.33 -0.532346 1.99934 0
M  V30 59017 C 5900.74 -1.59501 1.01018 0
M  V30 59018 O 5900.1 -1.82499 0.00469573 0
M  V30 59019 C 5900.15 -1.14821 3.4278 0
M  V30 59020 O 5899.87 -0.128009 4.37913 0
M  V30 59021 C 5901.37 -1.89309 4.00845 0
M  V30 59022 H 5898.59 -0.140023 0.656227 0
M  V30 59023 H 5901.13 0.219977 2.03313 0
M  V30 59024 H 5899.29 -1.85125 3.40305 0
M  V30 59025 H 5899.7 -0.576951 5.21317 0
M  V30 59026 H 5901.18 -2.27713 5.02843 0
M  V30 59027 H 5901.65 -2.77265 3.40618 0
M  V30 59028 H 5902.26 -1.23743 4.069 0
M  V30 59029 N 5900.58 -1.56946 -0.14348 0
M  V30 59030 C 5901.49 -2.01799 -1.19642 0
M  V30 59031 C 5902.5 -0.934017 -1.46806 0
M  V30 59032 O 5903.68 -1.24375 -1.58407 0
M  V30 59033 C 5900.74 -2.39258 -2.50911 0
M  V30 59034 C 5899.8 -3.61621 -2.31363 0
M  V30 59035 C 5899.04 -3.97284 -3.56372 0
M  V30 59036 O 5899.26 -3.33568 -4.62697 0
M  V30 59037 O 5898.19 -4.90514 -3.48827 0
M  V30 59038 H 5902.02 -2.9169 -0.845615 0
M  V30 59039 H 5899.6 -1.45183 -0.352467 0
M  V30 59040 H 5901.49 -2.64196 -3.28296 0
M  V30 59041 H 5900.16 -1.52521 -2.85515 0
M  V30 59042 H 5899.07 -3.41866 -1.51917 0
M  V30 59043 H 5900.4 -4.48986 -2.01673 0
M  V30 59044 N 5902.05 0.412937 -1.52094 0
M  V30 59045 C 5903.02 1.48549 -1.74545 0
M  V30 59046 C 5904.02 1.48561 -0.615335 0
M  V30 59047 O 5905.21 1.50152 -0.883171 0
M  V30 59048 C 5902.34 2.87978 -1.82433 0
M  V30 59049 H 5903.53 1.29936 -2.7029 0
M  V30 59050 H 5901.08 0.643191 -1.42453 0
M  V30 59051 H 5901.82 3.11966 -0.885887 0
M  V30 59052 H 5901.6 2.89372 -2.64587 0
M  V30 59053 H 5903.09 3.65738 -2.01557 0
M  V30 59054 N 5903.53 1.42652 0.669932 0
M  V30 59055 C 5904.94 1.38618 1.25068 0
M  V30 59056 C 5905.29 0.081874 1.96029 0
M  V30 59057 O 5904.42 -0.81924 2.00293 0
M  V30 59058 C 5905.01 2.51093 2.2746 0
M  V30 59059 C 5903.57 2.50376 2.8105 0
M  V30 59060 C 5902.72 2.29637 1.55442 0
M  V30 59061 H 5905.67 1.51796 0.463005 0
M  V30 59062 H 5905.69 2.21623 3.09295 0
M  V30 59063 H 5905.2 3.46008 1.75784 0
M  V30 59064 H 5903.3 1.59292 3.36833 0
M  V30 59065 H 5903.42 3.47581 3.29734 0
M  V30 59066 H 5901.78 1.77989 1.82187 0
M  V30 59067 H 5902.56 3.26615 1.05725 0
M  V30 59068 N 5905.01 -0.906708 1.28905 0
M  V30 59069 C 5906.23 -1.69542 1.19458 0
M  V30 59070 C 5906.66 -1.86532 -0.242353 0
M  V30 59071 O 5906.02 -1.38056 -1.17516 0
M  V30 59072 C 5906.07 -3.06132 1.90567 0
M  V30 59073 O 5905.17 -3.94005 1.21793 0
M  V30 59074 H 5904.51 -0.518888 0.414309 0
M  V30 59075 H 5907.04 -1.13321 1.70351 0
M  V30 59076 H 5907.05 -3.56319 1.98748 0
M  V30 59077 H 5905.73 -2.93084 2.95084 0
M  V30 59078 H 5904.3 -3.5244 1.21822 0
M  V30 59079 N 5906.49 -1.11268 -1.11612 0
M  V30 59080 C 5907.4 -0.782039 -2.21182 0
M  V30 59081 C 5908.41 0.224089 -1.72551 0
M  V30 59082 O 5909.59 0.0607036 -2.01308 0
M  V30 59083 C 5906.65 -0.228153 -3.45948 0
M  V30 59084 C 5905.72 -1.29266 -4.09376 0
M  V30 59085 C 5904.95 -0.765107 -5.28187 0
M  V30 59086 O 5905.17 0.405471 -5.68957 0
M  V30 59087 O 5904.11 -1.52906 -5.82154 0
M  V30 59088 H 5907.93 -1.69687 -2.51873 0
M  V30 59089 H 5905.52 -0.888436 -1.20113 0
M  V30 59090 H 5907.4 0.0764603 -4.21331 0
M  V30 59091 H 5906.07 0.659408 -3.16912 0
M  V30 59092 H 5904.98 -1.65026 -3.35734 0
M  V30 59093 H 5906.31 -2.15354 -4.42587 0
M  V30 59094 N 5907.97 1.29185 -0.902724 0
M  V30 59095 C 5908.9 2.26663 -0.340044 0
M  V30 59096 C 5909.91 1.54428 0.515342 0
M  V30 59097 O 5911.1 1.75385 0.332009 0
M  V30 59098 C 5908.2 3.34674 0.533535 0
M  V30 59099 C 5907.37 4.36392 -0.296814 0
M  V30 59100 C 5906.43 5.23722 0.51008 0
M  V30 59101 O 5905.46 5.69153 -0.0734872 0
M  V30 59102 N 5906.66 5.51379 1.81553 0
M  V30 59103 H 5909.42 2.75583 -1.17787 0
M  V30 59104 H 5906.99 1.42551 -0.767524 0
M  V30 59105 H 5908.98 3.90028 1.07981 0
M  V30 59106 H 5907.55 2.85548 1.27206 0
M  V30 59107 H 5906.77 3.80654 -1.0245 0
M  V30 59108 H 5908.06 5.01387 -0.865368 0
M  V30 59109 H 5907.45 5.16283 2.31232 0
M  V30 59110 H 5906.01 6.09537 2.30886 0
M  V30 59111 N 5909.44 0.665525 1.42858 0
M  V30 59112 C 5910.41 -0.00924293 2.29198 0
M  V30 59113 C 5911.41 -0.738305 1.42848 0
M  V30 59114 O 5912.6 -0.577703 1.64342 0
M  V30 59115 C 5909.73 -1.02381 3.25163 0
M  V30 59116 H 5910.92 0.750583 2.90355 0
M  V30 59117 H 5908.47 0.427386 1.50343 0
M  V30 59118 H 5909.21 -1.81244 2.68926 0
M  V30 59119 H 5908.99 -0.504534 3.8884 0
M  V30 59120 H 5910.48 -1.49465 3.89936 0
M  V30 59121 N 5910.92 -1.52221 0.40824 0
M  V30 59122 C 5912.33 -1.86598 -0.0615557 0
M  V30 59123 C 5912.68 -1.32703 -1.44514 0
M  V30 59124 O 5911.81 -0.665956 -2.05898 0
M  V30 59125 C 5912.4 -3.38593 -0.118476 0
M  V30 59126 C 5910.96 -3.72613 -0.532606 0
M  V30 59127 C 5910.11 -2.75743 0.293453 0
M  V30 59128 H 5913.06 -1.4586 0.625342 0
M  V30 59129 H 5913.08 -3.68861 -0.93391 0
M  V30 59130 H 5912.59 -3.77789 0.888648 0
M  V30 59131 H 5910.69 -3.38994 -1.5464 0
M  V30 59132 H 5910.81 -4.78295 -0.277609 0
M  V30 59133 H 5909.17 -2.53528 -0.244077 0
M  V30 59134 H 5909.95 -3.17779 1.29891 0
M  V30 59135 N 5912.4 -0.138635 -1.56989 0
M  V30 59136 C 5913.81 0.383569 -1.82717 0
M  V30 59137 C 5914.16 1.653 -1.0569 0
M  V30 59138 O 5913.29 2.14317 -0.299563 0
M  V30 59139 C 5913.88 0.702683 -3.31433 0
M  V30 59140 C 5912.44 1.16944 -3.57772 0
M  V30 59141 C 5911.59 0.188198 -2.76661 0
M  V30 59142 H 5914.54 -0.363469 -1.54482 0
M  V30 59143 H 5914.56 1.5582 -3.47132 0
M  V30 59144 H 5914.07 -0.221407 -3.87468 0
M  V30 59145 H 5912.17 2.10976 -3.07116 0
M  V30 59146 H 5912.29 1.1012 -4.66273 0
M  V30 59147 H 5910.65 0.679169 -2.45478 0
M  V30 59148 H 5911.43 -0.729336 -3.35463 0
M  V30 59149 N 5913.88 1.57019 0.135155 0
M  V30 59150 C 5914.79 2.02431 1.18571 0
M  V30 59151 C 5915.8 0.941789 1.46309 0
M  V30 59152 O 5916.98 1.25214 1.57745 0
M  V30 59153 C 5914.05 2.40585 2.49639 0
M  V30 59154 C 5913.11 3.62843 2.29442 0
M  V30 59155 C 5912.34 3.99168 3.5426 0
M  V30 59156 O 5912.56 3.36017 4.60922 0
M  V30 59157 O 5911.5 4.92357 3.4622 0
M  V30 59158 H 5915.32 2.92134 0.830134 0
M  V30 59159 H 5912.91 1.45368 0.344763 0
M  V30 59160 H 5914.79 2.65933 3.26891 0
M  V30 59161 H 5913.46 1.54033 2.84702 0
M  V30 59162 H 5912.37 3.42666 1.50102 0
M  V30 59163 H 5913.7 4.5005 1.99289 0
M  V30 59164 N 5915.36 -0.404866 1.52311 0
M  V30 59165 C 5916.3 -1.49356 1.75958 0
M  V30 59166 C 5917.27 -1.548 0.602174 0
M  V30 59167 O 5918.46 -1.71305 0.840189 0
M  V30 59168 C 5915.6 -2.8676 1.91997 0
M  V30 59169 C 5914.71 -2.90592 3.19656 0
M  V30 59170 C 5913.85 -4.19322 3.26103 0
M  V30 59171 C 5912.89 -4.17145 4.47947 0
M  V30 59172 N 5912.02 -5.37453 4.51762 0
M  V30 59173 H 5916.86 -1.28494 2.68874 0
M  V30 59174 H 5914.4 -0.623637 1.33226 0
M  V30 59175 H 5916.36 -3.66529 1.9928 0
M  V30 59176 H 5914.99 -3.06108 1.02457 0
M  V30 59177 H 5914.04 -2.03289 3.21524 0
M  V30 59178 H 5915.35 -2.84849 4.09466 0
M  V30 59179 H 5914.51 -5.07486 3.32481 0
M  V30 59180 H 5913.24 -4.27766 2.34239 0
M  V30 59181 H 5912.25 -3.2737 4.41711 0
M  V30 59182 H 5913.47 -4.10337 5.4111 0
M  V30 59183 H 5911.42 -5.46557 3.62783 0
M  V30 59184 H 5911.34 -5.33722 5.35422 0
M  V30 59185 H 5912.61 -6.27559 4.62375 0
M  V30 59186 N 5916.83 -1.43006 -0.662357 0
M  V30 59187 C 5918.06 -1.47771 -1.45528 0
M  V30 59188 C 5918.48 -0.0940958 -1.87864 0
M  V30 59189 O 5917.84 0.910197 -1.56796 0
M  V30 59190 C 5917.89 -2.42093 -2.67251 0
M  V30 59191 O 5916.99 -1.90088 -3.65978 0
M  V30 59192 H 5916.34 -0.500182 -0.436708 0
M  V30 59193 H 5918.87 -1.87826 -0.811333 0
M  V30 59194 H 5918.88 -2.59092 -3.15175 0
M  V30 59195 H 5917.55 -3.4261 -2.35778 0
M  V30 59196 H 5916.13 -1.82707 -3.25073 0
M  V30 59197 N 5918.31 0.899859 -1.29384 0
M  V30 59198 C 5919.72 1.46559 -1.1566 0
M  V30 59199 C 5920.07 1.94622 0.248307 0
M  V30 59200 O 5919.2 1.83702 1.14379 0
M  V30 59201 C 5919.79 2.66377 -2.09353 0
M  V30 59202 C 5918.35 3.19086 -1.99652 0
M  V30 59203 C 5917.5 1.91779 -2.0029 0
M  V30 59204 H 5920.45 0.711214 -1.41871 0
M  V30 59205 H 5920.47 3.42105 -1.66566 0
M  V30 59206 H 5919.98 2.31365 -3.11596 0
M  V30 59207 H 5918.09 3.58791 -1.00497 0
M  V30 59208 H 5918.2 3.83395 -2.87307 0
M  V30 59209 H 5916.56 2.09477 -1.44885 0
M  V30 59210 H 5917.35 1.59045 -3.04236 0
M  V30 59211 N 5919.79 1.11858 1.1102 0
M  V30 59212 C 5921.04 0.871427 1.83123 0
M  V30 59213 C 5921.37 -0.601372 1.84654 0
M  V30 59214 O 5920.64 -1.44422 1.30278 0
M  V30 59215 C 5920.93 1.43922 3.30089 0
M  V30 59216 C 5920.78 2.97995 3.36926 0
M  V30 59217 C 5922.1 1.09376 4.26292 0
M  V30 59218 H 5919.22 0.318018 0.664856 0
M  V30 59219 H 5921.86 1.38419 1.30155 0
M  V30 59220 H 5920.01 1.0031 3.75327 0
M  V30 59221 H 5921.68 3.50241 3.00214 0
M  V30 59222 H 5919.93 3.33837 2.77012 0
M  V30 59223 H 5920.6 3.32813 4.40386 0
M  V30 59224 H 5923.07 1.47032 3.89257 0
M  V30 59225 H 5921.95 1.51775 5.27499 0
M  V30 59226 H 5922.21 0.00511912 4.421 0
M  V30 59227 N 5921.27 -1.28704 0.909562 0
M  V30 59228 C 5922.51 -1.95441 0.54135 0
M  V30 59229 C 5922.85 -1.7146 -0.911874 0
M  V30 59230 O 5922.12 -1.03317 -1.6479 0
M  V30 59231 C 5922.41 -3.50016 0.84622 0
M  V30 59232 C 5922.26 -3.83415 2.35187 0
M  V30 59233 C 5923.58 -4.38789 0.339482 0
M  V30 59234 H 5920.7 -0.709862 0.198153 0
M  V30 59235 H 5923.34 -1.52147 1.13804 0
M  V30 59236 H 5921.49 -3.87023 0.338398 0
M  V30 59237 H 5923.16 -3.563 2.92999 0
M  V30 59238 H 5921.4 -3.30608 2.80857 0
M  V30 59239 H 5922.07 -4.9134 2.51574 0
M  V30 59240 H 5924.55 -4.08829 0.774456 0
M  V30 59241 H 5923.43 -5.45807 0.581914 0
M  V30 59242 H 5923.69 -4.35517 -0.760091 0
M  V30 59243 N 5922.75 -0.673092 -1.42503 0
M  V30 59244 C 5923.68 0.0452169 -2.29155 0
M  V30 59245 C 5924.69 0.767227 -1.43588 0
M  V30 59246 O 5925.88 0.621669 -1.67325 0
M  V30 59247 C 5922.98 1.08769 -3.20971 0
M  V30 59248 C 5922.15 0.439846 -4.35183 0
M  V30 59249 C 5921.21 1.38187 -5.07731 0
M  V30 59250 O 5920.24 0.882833 -5.62312 0
M  V30 59251 N 5921.44 2.71522 -5.13085 0
M  V30 59252 H 5924.21 -0.698619 -2.91444 0
M  V30 59253 H 5921.77 -0.517376 -1.53411 0
M  V30 59254 H 5923.76 1.71912 -3.66372 0
M  V30 59255 H 5922.33 1.73328 -2.60146 0
M  V30 59256 H 5921.55 -0.371064 -3.9245 0
M  V30 59257 H 5922.84 -0.0115526 -5.08799 0
M  V30 59258 H 5922.23 3.14606 -4.70148 0
M  V30 59259 H 5920.79 3.29917 -5.62137 0
M  V30 59260 N 5924.22 1.52002 -0.416307 0
M  V30 59261 C 5925.5 1.94403 0.216035 0
M  V30 59262 C 5925.88 1.35367 1.61984 0
M  V30 59263 O 5925.23 0.53232 2.22213 0
M  V30 59264 C 5925.44 3.48336 0.215103 0
M  V30 59265 C 5926.79 4.22407 0.430961 0
M  V30 59266 O 5927.81 3.54983 0.294146 0
M  V30 59267 O 5926.67 5.41982 0.70126 0
M  V30 59268 H 5923.76 0.814843 0.141277 0
M  V30 59269 H 5926.31 1.62982 -0.472769 0
M  V30 59270 H 5925.08 3.83706 -0.767139 0
M  V30 59271 H 5924.71 3.8614 0.947705 0
M  V30 59272 N 5925.7 0.146958 1.56913 0
M  V30 59273 C 5926.94 -0.506915 1.98014 0
M  V30 59274 C 5927.31 -1.6204 1.02991 0
M  V30 59275 O 5928.51 -2.33513 1.33137 0
M  V30 59276 C 5926.78 -1.00011 3.43122 0
M  V30 59277 S 5928.34 -1.65859 4.06247 0
M  V30 59278 H 5925.16 -0.163903 0.69185 0
M  V30 59279 H 5927.76 0.238662 1.94038 0
M  V30 59280 H 5926.46 -0.178947 4.1001 0
M  V30 59281 H 5925.99 -1.78031 3.50811 0
M  V30 59282 H 5928.01 -2.94581 3.99295 0
M  V30 59283 N 5927.18 -1.57089 -0.126826 0
M  V30 59284 C 5928.41 -1.88343 -0.849144 0
M  V30 59285 C 5928.82 -0.735448 -1.74321 0
M  V30 59286 O 5928.16 0.303116 -1.81182 0
M  V30 59287 C 5928.22 -3.14528 -1.74105 0
M  V30 59288 C 5927.89 -4.45424 -1.02209 0
M  V30 59289 C 5928.89 -5.18606 -0.366539 0
M  V30 59290 C 5926.57 -4.92131 -1.0056 0
M  V30 59291 C 5928.56 -6.36713 0.295899 0
M  V30 59292 C 5926.25 -6.10157 -0.339355 0
M  V30 59293 C 5927.25 -6.82295 0.310245 0
M  V30 59294 O 5926.94 -7.98076 0.965874 0
M  V30 59295 H 5926.67 -0.628138 -0.249838 0
M  V30 59296 H 5929.22 -2.0506 -0.118164 0
M  V30 59297 H 5927.45 -2.93873 -2.51348 0
M  V30 59298 H 5929.14 -3.31865 -2.3371 0
M  V30 59299 H 5929.91 -4.83579 -0.370956 0
M  V30 59300 H 5925.79 -4.35892 -1.50064 0
M  V30 59301 H 5929.33 -6.92957 0.803519 0
M  V30 59302 H 5925.23 -6.44642 -0.332675 0
M  V30 59303 H 5926 -8.13868 0.869564 0
M  V30 59304 N 5928.66 0.396782 -1.52523 0
M  V30 59305 C 5929.61 1.48359 -1.73129 0
M  V30 59306 C 5930.59 1.49878 -0.585276 0
M  V30 59307 O 5931.79 1.55646 -0.842818 0
M  V30 59308 C 5928.91 2.86158 -1.89654 0
M  V30 59309 C 5928 2.89239 -3.10163 0
M  V30 59310 N 5928.39 2.62001 -4.32653 0
M  V30 59311 C 5926.69 3.20408 -3.1025 0
M  V30 59312 C 5927.39 2.71967 -5.14207 0
M  V30 59313 N 5926.37 3.05369 -4.49723 0
M  V30 59314 H 5930.17 1.26115 -2.65466 0
M  V30 59315 H 5927.68 0.604643 -1.50724 0
M  V30 59316 H 5929.68 3.64397 -2.02535 0
M  V30 59317 H 5928.34 3.09391 -0.985243 0
M  V30 59318 H 5929.35 2.36166 -4.60918 0
M  V30 59319 H 5926.03 3.49156 -2.28902 0
M  V30 59320 H 5927.42 2.54519 -6.21828 0
M  V30 59321 N 5930.14 1.43355 0.654764 0
M  V30 59322 C 5931.39 1.44604 1.41188 0
M  V30 59323 C 5931.71 0.070864 1.94871 0
M  V30 59324 O 5930.98 -0.893576 1.74333 0
M  V30 59325 H 5929.56 0.532391 0.523993 0
M  V30 59326 H 5932.22 1.78945 0.772325 0
M  V30 59327 H 5931.31 2.15769 2.255 0
M  V30 59328 N 5931.62 -0.892985 1.2986 0
M  V30 59329 C 5932.89 -1.62488 1.0889 0
M  V30 59330 C 5933.27 -2.07927 -0.364622 0
M  V30 59331 O 5932.62 -1.84014 -1.35467 0
M  V30 59332 C 5932.83 -2.80055 2.08255 0
M  V30 59333 C 5934.18 -3.5058 2.39539 0
M  V30 59334 O 5935.2 -2.90233 2.06502 0
M  V30 59335 O 5934.06 -4.59388 2.96015 0
M  V30 59336 H 5931.16 -0.71379 0.417651 0
M  V30 59337 H 5933.7 -0.940463 1.41256 0
M  V30 59338 H 5932.47 -2.43725 3.06127 0
M  V30 59339 H 5932.1 -3.56199 1.76658 0
M  V30 59340 N 5933.09 -1.12445 -1.10425 0
M  V30 59341 C 5934.34 -0.878085 -1.82028 0
M  V30 59342 C 5934.66 0.597721 -1.85613 0
M  V30 59343 O 5933.93 1.43437 -1.33427 0
M  V30 59344 H 5932.51 -0.321863 -0.674102 0
M  V30 59345 H 5935.17 -1.41895 -1.3361 0
M  V30 59346 H 5934.27 -1.25967 -2.8555 0
M  V30 59347 N 5934.57 1.2822 -0.916375 0
M  V30 59348 C 5935.99 1.47278 -0.614916 0
M  V30 59349 C 5936.19 1.832 0.839047 0
M  V30 59350 O 5935.24 1.93856 1.61791 0
M  V30 59351 C 5936.56 2.57368 -1.55507 0
M  V30 59352 C 5938.1 2.71235 -1.56207 0
M  V30 59353 C 5938.58 3.8447 -2.48891 0
M  V30 59354 N 5940.07 3.91828 -2.47033 0
M  V30 59355 C 5940.81 4.78835 -3.15443 0
M  V30 59356 N 5940.3 5.70413 -3.93193 0
M  V30 59357 N 5942.09 4.72467 -3.04518 0
M  V30 59358 H 5934.25 1.03184 -1.85652 0
M  V30 59359 H 5936.51 0.514185 -0.79644 0
M  V30 59360 H 5936.21 2.37738 -2.59178 0
M  V30 59361 H 5936.09 3.54523 -1.28816 0
M  V30 59362 H 5938.48 2.90252 -0.532721 0
M  V30 59363 H 5938.56 1.74602 -1.86943 0
M  V30 59364 H 5938.2 3.66208 -3.51929 0
M  V30 59365 H 5938.13 4.80506 -2.15456 0
M  V30 59366 H 5940.62 3.26338 -1.90557 0
M  V30 59367 H 5940.93 6.33638 -4.42406 0
M  V30 59368 H 5939.28 5.70245 -3.97298 0
M  V30 59369 H 5942.47 3.99916 -2.43279 0
M  V30 59370 H 5942.64 5.4006 -3.58105 0
M  V30 59371 N 5936.05 0.68064 1.42144 0
M  V30 59372 C 5937.27 0.212365 2.0631 0
M  V30 59373 C 5937.7 -1.12397 1.50826 0
M  V30 59374 O 5937.06 -1.70035 0.629111 0
M  V30 59375 C 5937.11 0.164282 3.60226 0
M  V30 59376 O 5936.21 -0.86544 4.03217 0
M  V30 59377 H 5935.55 0.107474 0.655244 0
M  V30 59378 H 5938.08 0.931297 1.82176 0
M  V30 59379 H 5938.09 -0.00989876 4.07999 0
M  V30 59380 H 5936.77 1.13966 3.99981 0
M  V30 59381 H 5935.34 -0.661826 3.6698 0
M  V30 59382 N 5937.53 -1.51779 0.424362 0
M  V30 59383 C 5938.76 -2.06089 -0.145264 0
M  V30 59384 C 5939.17 -1.29302 -1.38122 0
M  V30 59385 O 5938.51 -0.34229 -1.80483 0
M  V30 59386 C 5938.57 -3.55335 -0.545652 0
M  V30 59387 C 5938.23 -4.53283 0.581688 0
M  V30 59388 C 5939.23 -4.99273 1.44991 0
M  V30 59389 C 5936.92 -4.96537 0.758723 0
M  V30 59390 C 5938.91 -5.87176 2.47998 0
M  V30 59391 C 5936.6 -5.84232 1.79208 0
M  V30 59392 C 5937.6 -6.29448 2.65111 0
M  V30 59393 O 5937.28 -7.15405 3.66675 0
M  V30 59394 H 5937.02 -0.675782 -0.0171482 0
M  V30 59395 H 5939.57 -1.96489 0.598418 0
M  V30 59396 H 5937.8 -3.62673 -1.34185 0
M  V30 59397 H 5939.49 -3.92219 -1.04494 0
M  V30 59398 H 5940.25 -4.66561 1.32461 0
M  V30 59399 H 5936.13 -4.60892 0.0997073 0
M  V30 59400 H 5939.68 -6.2239 3.15081 0
M  V30 59401 H 5935.57 -6.16358 1.91763 0
M  V30 59402 H 5936.34 -7.33553 3.631 0
M  V30 59403 N 5939.01 -0.155278 -1.56833 0
M  V30 59404 C 5940.42 0.201061 -1.58328 0
M  V30 59405 C 5940.62 1.64057 -1.16994 0
M  V30 59406 O 5939.68 2.36889 -0.874073 0
M  V30 59407 C 5940.99 -0.0652061 -3.00629 0
M  V30 59408 C 5942.54 -0.0021487 -3.13 0
M  V30 59409 C 5943.01 -0.241192 -4.57364 0
M  V30 59410 N 5944.5 -0.188408 -4.62817 0
M  V30 59411 C 5945.24 -0.347763 -5.72344 0
M  V30 59412 N 5944.74 -0.565295 -6.9049 0
M  V30 59413 N 5946.53 -0.284787 -5.61378 0
M  V30 59414 H 5938.68 -1.0951 -1.81993 0
M  V30 59415 H 5940.94 -0.434135 -0.842752 0
M  V30 59416 H 5940.65 -1.06179 -3.35289 0
M  V30 59417 H 5940.52 0.650471 -3.71549 0
M  V30 59418 H 5942.91 0.984993 -2.78176 0
M  V30 59419 H 5942.99 -0.750285 -2.44549 0
M  V30 59420 H 5942.63 -1.22547 -4.92894 0
M  V30 59421 H 5942.56 0.527365 -5.23953 0
M  V30 59422 H 5945.06 -0.025268 -3.77892 0
M  V30 59423 H 5945.37 -0.676773 -7.69831 0
M  V30 59424 H 5943.71 -0.601717 -6.9239 0
M  V30 59425 H 5946.9 -0.115546 -4.67957 0
M  V30 59426 H 5947.08 -0.41241 -6.46686 0
M  V30 59427 N 5940.48 1.57154 0.118493 0
M  V30 59428 C 5941.73 1.84514 0.824558 0
M  V30 59429 C 5942.05 0.740536 1.80391 0
M  V30 59430 O 5941.32 -0.235413 1.9448 0
M  V30 59431 H 5939.9 0.680775 0.307498 0
M  V30 59432 H 5942.56 1.94613 0.105695 0
M  V30 59433 H 5941.66 2.80449 1.36948 0
M  V30 59434 N 5941.96 -0.388688 1.52732 0
M  V30 59435 C 5943.21 -1.13088 1.67015 0
M  V30 59436 C 5943.52 -1.91113 0.416534 0
M  V30 59437 O 5944.73 -2.67919 0.439504 0
M  V30 59438 C 5943.19 -2.05939 2.95156 0
M  V30 59439 C 5942.79 -1.33335 4.27698 0
M  V30 59440 C 5944.54 -2.80292 3.18805 0
M  V30 59441 C 5942.45 -2.24953 5.46946 0
M  V30 59442 H 5941.38 -0.425865 0.622218 0
M  V30 59443 H 5944.03 -0.393645 1.79228 0
M  V30 59444 H 5942.41 -2.833 2.7669 0
M  V30 59445 H 5943.58 -0.611976 4.56718 0
M  V30 59446 H 5941.9 -0.709403 4.10313 0
M  V30 59447 H 5944.49 -3.49022 4.05077 0
M  V30 59448 H 5944.84 -3.44385 2.3389 0
M  V30 59449 H 5945.37 -2.10024 3.37838 0
M  V30 59450 H 5942.11 -1.65474 6.3427 0
M  V30 59451 H 5941.63 -2.95005 5.22237 0
M  V30 59452 H 5943.31 -2.8503 5.80833 0
M  V30 59453 N 5943.44 -1.437 -0.647152 0
M  V30 59454 C 5944.67 -1.49306 -1.43953 0
M  V30 59455 C 5945.09 -0.114016 -1.87754 0
M  V30 59456 O 5944.45 0.893515 -1.57753 0
M  V30 59457 C 5944.5 -2.44914 -2.64669 0
M  V30 59458 O 5943.6 -1.93959 -3.63942 0
M  V30 59459 H 5942.94 -0.504786 -0.431378 0
M  V30 59460 H 5945.47 -1.88676 -0.791366 0
M  V30 59461 H 5945.48 -2.6242 -3.1241 0
M  V30 59462 H 5944.16 -3.45091 -2.32131 0
M  V30 59463 H 5942.73 -1.86144 -3.23117 0
M  V30 59464 N 5944.92 0.886085 -1.30331 0
M  V30 59465 C 5946.14 1.67621 -1.2214 0
M  V30 59466 C 5946.57 1.86894 0.212646 0
M  V30 59467 O 5945.93 1.39909 1.15305 0
M  V30 59468 C 5945.97 3.03061 -1.95413 0
M  V30 59469 O 5945.08 3.92018 -1.28046 0
M  V30 59470 H 5944.42 0.512231 -0.422511 0
M  V30 59471 H 5946.95 1.10596 -1.72133 0
M  V30 59472 H 5946.96 3.53112 -2.04392 0
M  V30 59473 H 5945.63 2.88352 -2.99709 0
M  V30 59474 H 5944.21 3.50457 -1.27414 0
M  V30 59475 N 5946.4 1.13029 1.09828 0
M  V30 59476 C 5947.62 0.912525 1.85689 0
M  V30 59477 C 5948.04 -0.538495 1.80958 0
M  V30 59478 O 5947.4 -1.37257 1.20277 0
M  V30 59479 C 5947.45 1.38696 3.33835 0
M  V30 59480 O 5947.17 2.78111 3.38505 0
M  V30 59481 C 5948.67 1.20703 4.26551 0
M  V30 59482 H 5945.89 0.32567 0.586668 0
M  V30 59483 H 5948.43 1.50182 1.388 0
M  V30 59484 H 5946.59 0.84075 3.78167 0
M  V30 59485 H 5947 2.99076 4.30875 0
M  V30 59486 H 5948.48 1.58779 5.28671 0
M  V30 59487 H 5948.95 0.148265 4.3895 0
M  V30 59488 H 5949.56 1.74105 3.8803 0
M  V30 59489 N 5947.87 -1.27732 0.923162 0
M  V30 59490 C 5949.1 -1.9868 0.577386 0
M  V30 59491 C 5949.52 -1.68907 -0.843548 0
M  V30 59492 O 5948.87 -0.947076 -1.56002 0
M  V30 59493 C 5948.93 -3.52801 0.788268 0
M  V30 59494 O 5948.65 -3.81529 2.1533 0
M  V30 59495 C 5950.15 -4.41004 0.450592 0
M  V30 59496 H 5947.37 -0.634179 0.219223 0
M  V30 59497 H 5949.91 -1.62698 1.23894 0
M  V30 59498 H 5948.07 -3.87011 0.173578 0
M  V30 59499 H 5948.48 -4.76134 2.19993 0
M  V30 59500 H 5949.95 -5.48173 0.648867 0
M  V30 59501 H 5950.43 -4.34892 -0.613653 0
M  V30 59502 H 5951.04 -4.12307 1.04323 0
M  V30 59503 N 5949.35 -0.688168 -1.41782 0
M  V30 59504 C 5950.6 -0.216334 -2.01643 0
M  V30 59505 C 5950.93 1.17855 -1.5435 0
M  V30 59506 O 5950.21 1.79397 -0.751455 0
M  V30 59507 C 5950.49 -0.26579 -3.59118 0
M  V30 59508 C 5950.34 -1.69709 -4.16556 0
M  V30 59509 C 5951.66 0.378559 -4.38469 0
M  V30 59510 H 5948.78 -0.080084 -0.732636 0
M  V30 59511 H 5951.42 -0.875487 -1.68627 0
M  V30 59512 H 5949.57 0.295452 -3.87375 0
M  V30 59513 H 5951.24 -2.3116 -3.99202 0
M  V30 59514 H 5949.49 -2.23358 -3.71878 0
M  V30 59515 H 5950.16 -1.68328 -5.25709 0
M  V30 59516 H 5952.63 -0.0993432 -4.15981 0
M  V30 59517 H 5951.51 0.313377 -5.48005 0
M  V30 59518 H 5951.77 1.45818 -4.1736 0
M  V30 59519 N 5950.83 1.51552 -0.432405 0
M  V30 59520 C 5952.06 2.06462 0.134528 0
M  V30 59521 C 5952.47 1.30031 1.36884 0
M  V30 59522 O 5951.83 0.35851 1.78944 0
M  V30 59523 C 5951.88 3.5854 0.461696 0
M  V30 59524 O 5951.6 4.32083 -0.723623 0
M  V30 59525 C 5953.1 4.29947 1.07984 0
M  V30 59526 H 5950.32 0.670924 0.0101093 0
M  V30 59527 H 5952.87 1.95188 -0.610067 0
M  V30 59528 H 5951.02 3.69745 1.15619 0
M  V30 59529 H 5951.44 5.22609 -0.44494 0
M  V30 59530 H 5952.91 5.37455 1.25879 0
M  V30 59531 H 5953.39 3.8792 2.05949 0
M  V30 59532 H 5953.99 4.23172 0.424873 0
M  V30 59533 N 5952.31 0.163593 1.56749 0
M  V30 59534 C 5953.56 -0.48238 1.96259 0
M  V30 59535 C 5953.88 -1.64298 1.05029 0
M  V30 59536 O 5953.15 -1.95562 0.115096 0
M  V30 59537 H 5951.73 -0.181197 0.724691 0
M  V30 59538 H 5954.39 0.242971 1.9338 0
M  V30 59539 H 5953.49 -0.847529 3.00372 0
M  V30 59540 N 5953.79 -1.57215 -0.110157 0
M  V30 59541 C 5955.2 -1.52708 -0.46395 0
M  V30 59542 C 5955.4 -0.877984 -1.81366 0
M  V30 59543 O 5954.46 -0.464074 -2.48199 0
M  V30 59544 C 5955.77 -2.97459 -0.440302 0
M  V30 59545 C 5957.32 -3.08596 -0.523228 0
M  V30 59546 C 5957.79 -4.54924 -0.52988 0
M  V30 59547 N 5959.29 -4.59413 -0.591067 0
M  V30 59548 C 5960.02 -5.70062 -0.617806 0
M  V30 59549 N 5959.52 -6.90183 -0.601658 0
M  V30 59550 N 5961.31 -5.58194 -0.661483 0
M  V30 59551 H 5953.46 -1.97791 0.7741 0
M  V30 59552 H 5955.72 -0.903663 0.286527 0
M  V30 59553 H 5955.43 -3.48354 0.483968 0
M  V30 59554 H 5955.3 -3.55361 -1.26486 0
M  V30 59555 H 5957.69 -2.57697 -1.43792 0
M  V30 59556 H 5957.77 -2.53673 0.329184 0
M  V30 59557 H 5957.42 -5.0647 0.380801 0
M  V30 59558 H 5957.35 -5.07668 -1.3993 0
M  V30 59559 H 5959.84 -3.72955 -0.609352 0
M  V30 59560 H 5960.15 -7.70269 -0.624929 0
M  V30 59561 H 5958.49 -6.92667 -0.568942 0
M  V30 59562 H 5961.69 -4.63258 -0.671523 0
M  V30 59563 H 5961.86 -6.44434 -0.678853 0
M  V30 59564 N 5955.26 0.380583 -1.52936 0
M  V30 59565 C 5956.49 1.14577 -1.72278 0
M  V30 59566 C 5956.91 1.83483 -0.444928 0
M  V30 59567 O 5956.26 1.72999 0.581184 0
M  V30 59568 C 5956.32 2.18745 -2.87807 0
M  V30 59569 O 5956.04 1.52648 -4.10646 0
M  V30 59570 C 5957.54 3.07927 -3.18898 0
M  V30 59571 H 5954.76 0.343198 -0.57659 0
M  V30 59572 H 5957.3 0.444079 -1.9962 0
M  V30 59573 H 5955.46 2.84537 -2.62902 0
M  V30 59574 H 5955.87 2.21932 -4.75233 0
M  V30 59575 H 5957.34 3.7703 -4.03178 0
M  V30 59576 H 5957.82 3.71905 -2.33631 0
M  V30 59577 H 5958.43 2.47771 -3.45673 0
M  V30 59578 N 5956.74 1.44041 0.639523 0
M  V30 59579 C 5957.98 1.47897 1.41088 0
M  V30 59580 C 5958.35 0.105461 1.9171 0
M  V30 59581 O 5959.55 0.0186951 2.68793 0
M  V30 59582 C 5957.82 2.50322 2.55095 0
M  V30 59583 S 5959.38 2.73161 3.43408 0
M  V30 59584 H 5956.2 0.523206 0.481432 0
M  V30 59585 H 5958.8 1.80906 0.741173 0
M  V30 59586 H 5957.5 3.48833 2.16202 0
M  V30 59587 H 5957.03 2.18858 3.26902 0
M  V30 59588 H 5959.05 2.04121 4.52271 0
M  V30 59589 N 5958.22 -0.879161 1.308 0
M  V30 59590 C 5959.15 -1.9913 1.13489 0
M  V30 59591 C 5960.17 -1.6262 0.0765064 0
M  V30 59592 O 5961.36 -1.75551 0.323099 0
M  V30 59593 C 5958.46 -3.31383 0.709823 0
M  V30 59594 C 5957.63 -3.96293 1.85122 0
M  V30 59595 C 5956.69 -5.06853 1.41374 0
M  V30 59596 O 5955.71 -5.2817 2.12191 0
M  V30 59597 N 5956.92 -5.79745 0.295993 0
M  V30 59598 H 5959.68 -2.14529 2.09279 0
M  V30 59599 H 5957.24 -1.0526 1.23012 0
M  V30 59600 H 5959.23 -4.02718 0.400045 0
M  V30 59601 H 5957.8 -3.1221 -0.156199 0
M  V30 59602 H 5957.02 -3.18057 2.32881 0
M  V30 59603 H 5958.31 -4.36399 2.61597 0
M  V30 59604 H 5957.71 -5.64936 -0.293967 0
M  V30 59605 H 5956.27 -6.51784 0.0456998 0
M  V30 59606 N 5959.7 -1.1361 -1.09227 0
M  V30 59607 C 5960.92 -0.922732 -1.85743 0
M  V30 59608 C 5961.35 0.523317 -1.80674 0
M  V30 59609 O 5960.71 1.37152 -1.18571 0
M  V30 59610 C 5960.76 -1.41774 -3.31561 0
M  V30 59611 O 5959.86 -0.604323 -4.07948 0
M  V30 59612 H 5959.2 -0.330543 -0.575879 0
M  V30 59613 H 5961.73 -1.51128 -1.37918 0
M  V30 59614 H 5961.74 -1.42225 -3.82408 0
M  V30 59615 H 5960.42 -2.4706 -3.34566 0
M  V30 59616 H 5958.99 -0.66785 -3.66871 0
M  V30 59617 N 5961.18 1.27241 -0.929923 0
M  V30 59618 C 5962.42 1.949 -0.581869 0
M  V30 59619 C 5962.78 1.71722 0.867708 0
M  V30 59620 O 5962.07 1.03703 1.61109 0
M  V30 59621 C 5962.27 3.4723 -0.846508 0
M  V30 59622 C 5962.09 3.8522 -2.32026 0
M  V30 59623 C 5960.86 4.08557 -2.97337 0
M  V30 59624 C 5963.06 3.9464 -3.29794 0
M  V30 59625 N 5961.04 4.33343 -4.34841 0
M  V30 59626 C 5962.42 4.23827 -4.52516 0
M  V30 59627 C 5964.47 3.77223 -3.24972 0
M  V30 59628 C 5963.17 4.3741 -5.71021 0
M  V30 59629 C 5965.2 3.92033 -4.42791 0
M  V30 59630 C 5964.56 4.21609 -5.64292 0
M  V30 59631 H 5960.66 0.736416 -0.263089 0
M  V30 59632 H 5963.24 1.53558 -1.197 0
M  V30 59633 H 5961.42 3.87525 -0.260514 0
M  V30 59634 H 5963.15 4.02067 -0.460858 0
M  V30 59635 H 5959.9 4.03477 -2.47998 0
M  V30 59636 H 5960.33 4.49789 -5.05983 0
M  V30 59637 H 5964.97 3.53396 -2.32102 0
M  V30 59638 H 5962.69 4.60063 -6.64355 0
M  V30 59639 H 5966.27 3.79974 -4.4058 0
M  V30 59640 H 5965.15 4.3282 -6.53939 0
M  V30 59641 N 5962.66 0.695678 1.41415 0
M  V30 59642 C 5963.88 0.234235 2.06073 0
M  V30 59643 C 5964.31 -1.10791 1.5201 0
M  V30 59644 O 5963.66 -1.69358 0.64711 0
M  V30 59645 C 5963.71 0.20248 3.60031 0
M  V30 59646 O 5962.82 -0.822625 4.04112 0
M  V30 59647 H 5962.16 0.114418 0.654068 0
M  V30 59648 H 5964.69 0.950567 1.81178 0
M  V30 59649 H 5964.7 0.0333755 4.07986 0
M  V30 59650 H 5963.37 1.18202 3.98749 0
M  V30 59651 H 5961.95 -0.622866 3.67661 0
M  V30 59652 N 5964.13 -1.51321 0.440437 0
M  V30 59653 C 5965.36 -2.07017 -0.125946 0
M  V30 59654 C 5965.78 -1.30542 -1.35427 0
M  V30 59655 O 5965.14 -0.34424 -1.78002 0
M  V30 59656 C 5965.19 -3.58102 -0.423674 0
M  V30 59657 O 5964.29 -3.83777 -1.5096 0
M  V30 59658 H 5963.63 -0.664 -0.000506835 0
M  V30 59659 H 5966.16 -1.94895 0.622663 0
M  V30 59660 H 5966.17 -4.02407 -0.673221 0
M  V30 59661 H 5964.85 -4.13189 0.474078 0
M  V30 59662 H 5963.43 -3.51333 -1.24977 0
M  V30 59663 N 5965.61 -0.171903 -1.5666 0
M  V30 59664 C 5966.54 0.796852 -2.13835 0
M  V30 59665 C 5967.52 1.22555 -1.0686 0
M  V30 59666 O 5968.71 1.31722 -1.34839 0
M  V30 59667 C 5965.83 2.07317 -2.67839 0
M  V30 59668 C 5964.88 1.78844 -3.87191 0
M  V30 59669 S 5965.71 0.95716 -5.26876 0
M  V30 59670 C 5966.87 2.24412 -5.84286 0
M  V30 59671 H 5967.1 0.310725 -2.95672 0
M  V30 59672 H 5964.63 0.0427741 -1.54341 0
M  V30 59673 H 5966.59 2.80625 -2.996 0
M  V30 59674 H 5965.25 2.53043 -1.86087 0
M  V30 59675 H 5964.45 2.73546 -4.23307 0
M  V30 59676 H 5964.05 1.13631 -3.5632 0
M  V30 59677 H 5966.34 3.19869 -5.97235 0
M  V30 59678 H 5967.28 1.92764 -6.81357 0
M  V30 59679 H 5967.69 2.36199 -5.12709 0
M  V30 59680 N 5967.09 1.57271 0.101818 0
M  V30 59681 C 5968.34 1.84931 0.805198 0
M  V30 59682 C 5968.65 0.760163 1.80225 0
M  V30 59683 O 5969.86 0.923684 2.55304 0
M  V30 59684 C 5968.31 3.27935 1.4828 0
M  V30 59685 C 5967.92 4.44903 0.52586 0
M  V30 59686 C 5969.67 3.64826 2.1703 0
M  V30 59687 C 5967.57 5.78938 1.20766 0
M  V30 59688 H 5966.5 0.6898 0.304454 0
M  V30 59689 H 5969.15 1.83408 0.0580692 0
M  V30 59690 H 5967.54 3.23978 2.27715 0
M  V30 59691 H 5968.71 4.60193 -0.236514 0
M  V30 59692 H 5967.02 4.16363 -0.055585 0
M  V30 59693 H 5969.62 4.62246 2.68762 0
M  V30 59694 H 5969.96 2.93114 2.95618 0
M  V30 59695 H 5970.5 3.70642 1.44463 0
M  V30 59696 H 5967.24 6.53865 0.46273 0
M  V30 59697 H 5966.76 5.67504 1.94163 0
M  V30 59698 H 5968.44 6.23274 1.73604 0
M  V30 59699 N 5968.57 -0.372467 1.53135 0
M  V30 59700 C 5969.98 -0.949615 1.60746 0
M  V30 59701 C 5970.33 -1.90473 0.470568 0
M  V30 59702 O 5969.45 -2.12595 -0.40401 0
M  V30 59703 C 5970.05 -1.72907 2.91356 0
M  V30 59704 C 5968.61 -2.25567 3.01325 0
M  V30 59705 C 5967.76 -1.06603 2.5599 0
M  V30 59706 H 5970.71 -0.151477 1.57975 0
M  V30 59707 H 5970.73 -2.58972 2.78772 0
M  V30 59708 H 5970.24 -1.03367 3.74081 0
M  V30 59709 H 5968.34 -2.9837 2.23173 0
M  V30 59710 H 5968.45 -2.5392 4.06277 0
M  V30 59711 H 5966.82 -1.43098 2.10702 0
M  V30 59712 H 5967.6 -0.38572 3.41126 0
M  V30 59713 N 5970.05 -1.44378 -0.631875 0
M  V30 59714 C 5971 -1.47623 -1.73757 0
M  V30 59715 C 5971.98 -0.34211 -1.57221 0
M  V30 59716 O 5973.17 -0.587365 -1.6697 0
M  V30 59717 C 5970.3 -1.42256 -3.12439 0
M  V30 59718 C 5969.39 -2.60779 -3.34448 0
M  V30 59719 N 5969.78 -3.86029 -3.26826 0
M  V30 59720 C 5968.08 -2.55959 -3.65241 0
M  V30 59721 C 5968.78 -4.64998 -3.49502 0
M  V30 59722 N 5967.75 -3.9606 -3.7234 0
M  V30 59723 H 5971.55 -2.42311 -1.66321 0
M  V30 59724 H 5969.07 -1.3933 -0.834313 0
M  V30 59725 H 5971.07 -1.42664 -3.9173 0
M  V30 59726 H 5969.73 -0.486055 -3.21041 0
M  V30 59727 H 5970.74 -4.18008 -3.05761 0
M  V30 59728 H 5967.41 -1.711 -3.80829 0
M  V30 59729 H 5968.8 -5.74024 -3.49208 0
M  V30 59730 N 5971.52 0.872212 -1.31264 0
M  V30 59731 C 5972.77 1.62743 -1.2201 0
M  V30 59732 C 5973.13 1.91136 0.220171 0
M  V30 59733 O 5972.42 1.53029 1.15295 0
M  V30 59734 C 5972.61 2.96517 -1.9953 0
M  V30 59735 C 5972.44 2.81185 -3.50949 0
M  V30 59736 C 5971.21 2.80491 -4.20301 0
M  V30 59737 C 5973.41 2.56206 -4.4594 0
M  V30 59738 N 5971.39 2.56186 -5.57891 0
M  V30 59739 C 5972.76 2.41143 -5.71183 0
M  V30 59740 C 5974.82 2.41533 -4.35392 0
M  V30 59741 C 5973.52 2.12899 -6.87071 0
M  V30 59742 C 5975.55 2.14676 -5.51061 0
M  V30 59743 C 5974.91 2.004 -6.75292 0
M  V30 59744 H 5971.01 0.599959 -0.501571 0
M  V30 59745 H 5973.59 1.02676 -1.65426 0
M  V30 59746 H 5971.76 3.54594 -1.58486 0
M  V30 59747 H 5973.49 3.61309 -1.82314 0
M  V30 59748 H 5970.25 2.92791 -3.7225 0
M  V30 59749 H 5970.67 2.4701 -6.30329 0
M  V30 59750 H 5975.32 2.513 -3.40012 0
M  V30 59751 H 5973.03 2.0187 -7.8248 0
M  V30 59752 H 5976.62 2.04126 -5.44815 0
M  V30 59753 H 5975.5 1.79911 -7.63283 0
M  V30 59754 N 5973 1.14188 1.08623 0
M  V30 59755 C 5973.95 0.795436 2.13675 0
M  V30 59756 C 5974.94 -0.21437 1.59466 0
M  V30 59757 O 5976.13 -0.0170431 1.76992 0
M  V30 59758 C 5973.26 0.272195 3.42219 0
M  V30 59759 C 5972.34 1.31139 4.03315 0
M  V30 59760 N 5972.73 2.51485 4.3885 0
M  V30 59761 C 5971.03 1.1611 4.30621 0
M  V30 59762 C 5971.73 3.17992 4.87089 0
M  V30 59763 N 5970.71 2.45399 4.85057 0
M  V30 59764 H 5974.51 1.71094 2.38965 0
M  V30 59765 H 5972.03 1.02541 1.25933 0
M  V30 59766 H 5974.02 0.00571562 4.169 0
M  V30 59767 H 5972.68 -0.637532 3.1838 0
M  V30 59768 H 5973.69 2.88729 4.29949 0
M  V30 59769 H 5970.37 0.310213 4.16346 0
M  V30 59770 H 5971.76 4.20587 5.23981 0
M  V30 59771 N 5974.48 -1.26746 0.936658 0
M  V30 59772 C 5975.41 -2.25682 0.40002 0
M  V30 59773 C 5976.43 -1.5574 -0.474216 0
M  V30 59774 O 5977.61 -1.76204 -0.285392 0
M  V30 59775 C 5974.71 -3.35971 -0.444614 0
M  V30 59776 C 5973.89 -4.35451 0.412412 0
M  V30 59777 C 5972.95 -5.2489 -0.371045 0
M  V30 59778 O 5971.97 -5.68758 0.224362 0
M  V30 59779 N 5973.17 -5.55999 -1.6687 0
M  V30 59780 H 5975.94 -2.72364 1.25053 0
M  V30 59781 H 5973.5 -1.40466 0.805049 0
M  V30 59782 H 5975.49 -3.92754 -0.976021 0
M  V30 59783 H 5974.06 -2.8882 -1.1959 0
M  V30 59784 H 5973.28 -3.77804 1.12506 0
M  V30 59785 H 5974.57 -4.98916 0.997997 0
M  V30 59786 H 5973.97 -5.22232 -2.17463 0
M  V30 59787 H 5972.53 -6.15444 -2.14644 0
M  V30 59788 N 5975.96 -0.703167 -1.41044 0
M  V30 59789 C 5977.37 -0.375471 -1.55121 0
M  V30 59790 C 5977.57 1.11691 -1.67712 0
M  V30 59791 O 5976.63 1.90283 -1.65978 0
M  V30 59792 C 5977.94 -1.13065 -2.78634 0
M  V30 59793 C 5979.49 -1.11574 -2.92438 0
M  V30 59794 C 5979.97 -1.85283 -4.18849 0
M  V30 59795 N 5981.46 -1.8229 -4.25822 0
M  V30 59796 C 5982.19 -2.36155 -5.22512 0
M  V30 59797 N 5981.69 -2.98524 -6.25184 0
M  V30 59798 N 5983.48 -2.26367 -5.14504 0
M  V30 59799 H 5975.63 -1.671 -1.31116 0
M  V30 59800 H 5977.9 -0.705595 -0.633119 0
M  V30 59801 H 5977.6 -2.18534 -2.75564 0
M  V30 59802 H 5977.48 -0.714167 -3.70378 0
M  V30 59803 H 5979.86 -0.0692938 -2.95019 0
M  V30 59804 H 5979.94 -1.57135 -2.01847 0
M  V30 59805 H 5979.59 -2.89911 -4.1703 0
M  V30 59806 H 5979.52 -1.37151 -5.08426 0
M  V30 59807 H 5982.01 -1.36825 -3.5226 0
M  V30 59808 H 5982.32 -3.37173 -6.95366 0
M  V30 59809 H 5980.67 -3.02604 -6.25664 0
M  V30 59810 H 5983.86 -1.77309 -4.33219 0
M  V30 59811 H 5984.03 -2.68649 -5.89688 0
M  V30 59812 N 5977.44 1.51085 -0.448455 0
M  V30 59813 C 5978.66 2.06593 0.112622 0
M  V30 59814 C 5979.08 1.31476 1.35497 0
M  V30 59815 O 5978.44 0.377469 1.78554 0
M  V30 59816 C 5978.49 3.59009 0.423642 0
M  V30 59817 O 5978.21 4.31291 -0.76941 0
M  V30 59818 C 5979.71 4.31068 1.03418 0
M  V30 59819 H 5976.93 0.670993 0.00299268 0
M  V30 59820 H 5979.47 1.9453 -0.630735 0
M  V30 59821 H 5977.63 3.7095 1.11691 0
M  V30 59822 H 5978.04 5.22108 -0.500345 0
M  V30 59823 H 5979.52 5.3876 1.20172 0
M  V30 59824 H 5979.99 3.90082 2.01823 0
M  V30 59825 H 5980.6 4.23599 0.379966 0
M  V30 59826 N 5978.91 0.180209 1.56566 0
M  V30 59827 C 5980.33 -0.33499 1.8367 0
M  V30 59828 C 5980.68 -1.6244 1.10036 0
M  V30 59829 O 5979.8 -2.13447 0.35628 0
M  V30 59830 C 5980.4 -0.614563 3.33179 0
M  V30 59831 C 5978.96 -1.07417 3.60747 0
M  V30 59832 C 5978.1 -0.11478 2.77062 0
M  V30 59833 H 5981.05 0.404299 1.53464 0
M  V30 59834 H 5981.07 -1.46561 3.51141 0
M  V30 59835 H 5980.59 0.324059 3.86745 0
M  V30 59836 H 5978.69 -2.02759 3.12601 0
M  V30 59837 H 5978.8 -0.977184 4.69029 0
M  V30 59838 H 5977.16 -0.613846 2.47192 0
M  V30 59839 H 5977.95 0.818021 3.33412 0
M  V30 59840 N 5980.39 -1.57323 -0.0934766 0
M  V30 59841 C 5981.3 -2.05503 -1.13162 0
M  V30 59842 C 5982.32 -0.980249 -1.43761 0
M  V30 59843 O 5983.49 -1.29352 -1.5437 0
M  V30 59844 C 5980.56 -2.4712 -2.43172 0
M  V30 59845 C 5979.62 -3.68799 -2.19741 0
M  V30 59846 C 5978.85 -4.08421 -3.43553 0
M  V30 59847 O 5979.08 -3.4812 -4.51851 0
M  V30 59848 O 5978.01 -5.01363 -3.33045 0
M  V30 59849 H 5981.84 -2.94233 -0.752388 0
M  V30 59850 H 5979.42 -1.46231 -0.3061 0
M  V30 59851 H 5981.3 -2.74507 -3.19725 0
M  V30 59852 H 5979.98 -1.61528 -2.80518 0
M  V30 59853 H 5978.89 -3.46526 -1.40964 0
M  V30 59854 H 5980.22 -4.55175 -1.87287 0
M  V30 59855 N 5981.87 0.364341 -1.53331 0
M  V30 59856 C 5982.82 1.46671 -1.80528 0
M  V30 59857 C 5983.81 1.55394 -0.674476 0
M  V30 59858 O 5985.02 1.58265 -0.85744 0
M  V30 59859 H 5981.39 0.488632 -0.571614 0
M  V30 59860 H 5983.36 1.20937 -2.72794 0
M  V30 59861 C 5982.11 2.83489 -2.01319 0
M  V30 59862 H 5981.44 2.77536 -2.87774 0
M  V30 59863 H 5982.88 3.59797 -2.24326 0
M  V30 59864 C 5981.34 3.27443 -0.792654 0
M  V30 59865 O 5981.87 4.01696 0.0180553 0
M  V30 59866 N 5980.07 2.84002 -0.615743 0
M  V30 59867 H 5979.62 2.23741 -1.27662 0
M  V30 59868 H 5979.58 3.13766 0.199493 0
M  V30 59869 N 5983.35 1.44711 0.624209 0
M  V30 59870 C 5984.58 1.51134 1.40862 0
M  V30 59871 C 5984.99 0.137166 1.88702 0
M  V30 59872 O 5984.33 -0.868489 1.61873 0
M  V30 59873 C 5984.39 2.42024 2.65828 0
M  V30 59874 C 5984.06 3.89069 2.39738 0
M  V30 59875 C 5985.05 4.79418 2.01134 0
M  V30 59876 C 5982.74 4.33836 2.53164 0
M  V30 59877 C 5984.73 6.12535 1.76293 0
M  V30 59878 C 5982.42 5.66999 2.27937 0
M  V30 59879 C 5983.42 6.56167 1.89561 0
M  V30 59880 O 5983.1 7.86864 1.64619 0
M  V30 59881 H 5982.84 0.514747 0.438192 0
M  V30 59882 H 5985.39 1.90423 0.769941 0
M  V30 59883 H 5983.62 1.97675 3.32358 0
M  V30 59884 H 5985.31 2.39318 3.27844 0
M  V30 59885 H 5986.08 4.46101 1.90312 0
M  V30 59886 H 5981.95 3.64685 2.82004 0
M  V30 59887 H 5985.5 6.82094 1.46264 0
M  V30 59888 H 5981.4 5.99875 2.38371 0
M  V30 59889 H 5982.16 7.9873 1.78808 0
M  V30 59890 N 5984.83 -0.865239 1.31725 0
M  V30 59891 C 5986.24 -1.43441 1.19505 0
M  V30 59892 C 5986.59 -1.95212 -0.196619 0
M  V30 59893 O 5985.71 -1.8667 -1.09469 0
M  V30 59894 C 5986.31 -2.60733 2.16342 0
M  V30 59895 C 5984.87 -3.13681 2.08042 0
M  V30 59896 C 5984.01 -1.86401 2.05304 0
M  V30 59897 H 5986.97 -0.673349 1.43707 0
M  V30 59898 H 5986.99 -3.37569 1.75578 0
M  V30 59899 H 5986.5 -2.23022 3.1762 0
M  V30 59900 H 5984.6 -3.56 1.09975 0
M  V30 59901 H 5984.71 -3.75643 2.97371 0
M  V30 59902 H 5983.08 -2.05562 1.50388 0
M  V30 59903 H 5983.86 -1.50922 3.08346 0
M  V30 59904 N 5986.31 -1.14762 -1.08016 0
M  V30 59905 C 5987.25 -0.833901 -2.17138 0
M  V30 59906 C 5988.25 0.18988 -1.68332 0
M  V30 59907 O 5989.45 0.0455815 -1.79942 0
M  V30 59908 H 5985.83 -0.251969 -0.708531 0
M  V30 59909 H 5987.8 -1.76204 -2.40821 0
M  V30 59910 C 5986.55 -0.332152 -3.4611 0
M  V30 59911 H 5985.87 -1.1113 -3.84044 0
M  V30 59912 H 5987.31 -0.151227 -4.2373 0
M  V30 59913 C 5985.77 0.945039 -3.23374 0
M  V30 59914 O 5986.3 2.01798 -3.47333 0
M  V30 59915 N 5984.51 0.881866 -2.76896 0
M  V30 59916 H 5984.05 0.00856712 -2.57599 0
M  V30 59917 H 5984.01 1.73697 -2.62063 0
M  V30 59918 N 5987.78 1.26247 -0.943366 0
M  V30 59919 C 5988.75 2.24552 -0.459237 0
M  V30 59920 C 5989.75 1.5492 0.430871 0
M  V30 59921 O 5990.94 1.72678 0.229742 0
M  V30 59922 C 5988.07 3.39222 0.337854 0
M  V30 59923 H 5989.26 2.68895 -1.32799 0
M  V30 59924 H 5986.81 1.3844 -0.725544 0
M  V30 59925 H 5987.55 3.00284 1.22476 0
M  V30 59926 H 5987.33 3.90946 -0.300565 0
M  V30 59927 H 5988.82 4.12248 0.666424 0
M  V30 59928 N 5989.26 0.710637 1.40669 0
M  V30 59929 C 5990.51 0.247529 2.00578 0
M  V30 59930 C 5990.83 -1.16173 1.56617 0
M  V30 59931 O 5990.1 -1.78667 0.803421 0
M  V30 59932 H 5988.68 0.0885253 0.741736 0
M  V30 59933 H 5991.34 0.915163 1.72078 0
M  V30 59934 H 5990.44 0.27674 3.10871 0
M  V30 59935 N 5990.74 -1.50845 0.456461 0
M  V30 59936 C 5991.67 -2.31078 -0.335441 0
M  V30 59937 C 5992.65 -1.37329 -1.00372 0
M  V30 59938 O 5993.84 -1.66251 -1.00371 0
M  V30 59939 C 5990.97 -3.16667 -1.42616 0
M  V30 59940 C 5989.92 -4.18849 -0.880303 0
M  V30 59941 C 5989.25 -4.93081 -2.06821 0
M  V30 59942 C 5990.55 -5.22207 0.0984124 0
M  V30 59943 H 5992.24 -2.97529 0.334161 0
M  V30 59944 H 5989.79 -1.43084 0.16215 0
M  V30 59945 H 5991.74 -3.71585 -1.98752 0
M  V30 59946 H 5990.46 -2.48073 -2.12432 0
M  V30 59947 H 5989.12 -3.6501 -0.341019 0
M  V30 59948 H 5988.77 -4.20973 -2.75301 0
M  V30 59949 H 5988.47 -5.6219 -1.70927 0
M  V30 59950 H 5989.99 -5.5083 -2.63475 0
M  V30 59951 H 5991.41 -5.72083 -0.37328 0
M  V30 59952 H 5989.8 -5.98953 0.370885 0
M  V30 59953 H 5990.87 -4.73855 1.02904 0
M  V30 59954 N 5992.22 -0.188509 -1.56469 0
M  V30 59955 C 5993.45 0.457775 -2.01772 0
M  V30 59956 C 5993.86 1.55642 -1.06869 0
M  V30 59957 O 5993.22 1.82356 -0.072426 0
M  V30 59958 C 5993.27 1.0202 -3.46806 0
M  V30 59959 O 5992.99 -0.0346076 -4.38086 0
M  V30 59960 C 5994.49 1.74302 -4.07595 0
M  V30 59961 H 5991.71 0.115571 -0.660972 0
M  V30 59962 H 5994.25 -0.295284 -2.02357 0
M  V30 59963 H 5992.41 1.72367 -3.46941 0
M  V30 59964 H 5992.82 0.38307 -5.23099 0
M  V30 59965 H 5994.3 2.08894 -5.10948 0
M  V30 59966 H 5994.77 2.64432 -3.50674 0
M  V30 59967 H 5995.38 1.08555 -4.11213 0
M  V30 59968 N 5993.7 1.5737 0.0851321 0
M  V30 59969 C 5994.61 2.061 1.1207 0
M  V30 59970 C 5995.62 0.987859 1.43239 0
M  V30 59971 O 5996.8 1.30169 1.53682 0
M  V30 59972 C 5993.86 2.48406 2.41858 0
M  V30 59973 C 5992.92 3.69959 2.17782 0
M  V30 59974 C 5992.16 4.10237 3.41382 0
M  V30 59975 O 5992.38 3.50511 4.49998 0
M  V30 59976 O 5991.31 5.03122 3.30381 0
M  V30 59977 H 5995.14 2.94627 0.736774 0
M  V30 59978 H 5992.72 1.46391 0.298341 0
M  V30 59979 H 5994.61 2.76198 3.18265 0
M  V30 59980 H 5993.28 1.63013 2.79658 0
M  V30 59981 H 5992.19 3.47268 1.39124 0
M  V30 59982 H 5993.52 4.56162 1.8487 0
M  V30 59983 N 5995.17 -0.356204 1.53522 0
M  V30 59984 C 5996.12 -1.45712 1.81303 0
M  V30 59985 C 5997.12 -1.55034 0.682707 0
M  V30 59986 O 5998.32 -1.57809 0.865821 0
M  V30 59987 H 5994.7 -0.485594 0.574197 0
M  V30 59988 H 5996.67 -1.19489 2.73432 0
M  V30 59989 C 5995.42 -2.82417 2.0282 0
M  V30 59990 H 5994.74 -2.76006 2.89241 0
M  V30 59991 H 5996.18 -3.58602 2.26231 0
M  V30 59992 C 5994.64 -3.27018 0.810008 0
M  V30 59993 O 5995.17 -4.017 0.00324789 0
M  V30 59994 N 5993.37 -2.83671 0.630796 0
M  V30 59995 H 5992.92 -2.23061 1.28847 0
M  V30 59996 H 5992.88 -3.13868 -0.182851 0
M  V30 59997 N 5996.65 -1.4504 -0.616526 0
M  V30 59998 C 5997.88 -1.51879 -1.40059 0
M  V30 59999 C 5998.29 -0.147172 -1.88627 0
M  V30 60000 O 5997.63 0.859893 -1.62332 0
M  V30 60001 C 5997.69 -2.43431 -2.64541 0
M  V30 60002 C 5997.36 -3.90335 -2.37671 0
M  V30 60003 C 5998.36 -4.80478 -1.98588 0
M  V30 60004 C 5996.04 -4.35172 -2.5086 0
M  V30 60005 C 5998.03 -6.13462 -1.73042 0
M  V30 60006 C 5995.72 -5.682 -2.24927 0
M  V30 60007 C 5996.72 -6.57163 -1.86079 0
M  V30 60008 O 5996.41 -7.87726 -1.60444 0
M  V30 60009 H 5996.14 -0.517063 -0.435456 0
M  V30 60010 H 5998.69 -1.90829 -0.759832 0
M  V30 60011 H 5996.92 -1.99435 -3.31305 0
M  V30 60012 H 5998.61 -2.41053 -3.2657 0
M  V30 60013 H 5999.38 -4.47104 -1.87943 0
M  V30 60014 H 5995.26 -3.66175 -2.80066 0
M  V30 60015 H 5998.8 -6.8286 -1.42645 0
M  V30 60016 H 5994.7 -6.0113 -2.35186 0
M  V30 60017 H 5995.47 -7.99667 -1.7457 0
M  V30 60018 N 5998.13 0.858241 -1.32182 0
M  V30 60019 C 5999.37 1.62606 -1.2385 0
M  V30 60020 C 5999.73 1.90981 0.197561 0
M  V30 60021 O 6000.93 2.65738 0.404557 0
M  V30 60022 C 5999.21 2.91311 -2.07057 0
M  V30 60023 S 6000.76 3.82117 -2.15712 0
M  V30 60024 H 5997.58 0.557773 -0.44092 0
M  V30 60025 H 6000.18 1.01664 -1.66987 0
M  V30 60026 H 5998.89 2.68406 -3.10461 0
M  V30 60027 H 5998.42 3.57271 -1.64684 0
M  V30 60028 H 6000.43 4.78759 -1.304 0
M  V30 60029 N 5999.61 1.15334 1.07405 0
M  V30 60030 C 6001.02 0.895864 1.32085 0
M  V30 60031 C 6001.22 -0.457457 1.96239 0
M  V30 60032 O 6000.28 -1.1995 2.22189 0
M  V30 60033 C 6001.59 2.0364 2.21249 0
M  V30 60034 C 6003.14 2.07087 2.347 0
M  V30 60035 C 6003.62 3.20463 3.27212 0
M  V30 60036 N 6005.11 3.20107 3.34792 0
M  V30 60037 C 6005.84 4.04472 4.06435 0
M  V30 60038 N 6005.34 4.989 4.80698 0
M  V30 60039 N 6007.13 3.92497 4.02371 0
M  V30 60040 H 5999.28 2.02481 0.641507 0
M  V30 60041 H 6001.54 0.882876 0.345301 0
M  V30 60042 H 6001.25 3.01327 1.8137 0
M  V30 60043 H 6001.12 1.96829 3.21774 0
M  V30 60044 H 6003.51 1.1 2.73832 0
M  V30 60045 H 6003.59 2.17966 1.33882 0
M  V30 60046 H 6003.24 4.17801 2.88799 0
M  V30 60047 H 6003.17 3.0682 4.27982 0
M  V30 60048 H 6005.66 2.51722 2.81859 0
M  V30 60049 H 6005.97 5.59717 5.32857 0
M  V30 60050 H 6004.32 5.02889 4.79716 0
M  V30 60051 H 6007.51 3.18038 3.43466 0
M  V30 60052 H 6007.68 4.58471 4.5794 0
M  V30 60053 N 6001.09 -1.25745 0.950048 0
M  V30 60054 C 6002.03 -2.28054 0.457622 0
M  V30 60055 C 6003.03 -1.62757 -0.469719 0
M  V30 60056 O 6004.23 -1.76625 -0.346954 0
M  V30 60057 H 6000.61 -0.74077 0.129473 0
M  V30 60058 H 6002.58 -2.66979 1.33285 0
M  V30 60059 C 6001.33 -3.46775 -0.253478 0
M  V30 60060 H 6000.65 -3.97249 0.450948 0
M  V30 60061 H 6002.09 -4.20257 -0.562117 0
M  V30 60062 C 6000.55 -3.02925 -1.47439 0
M  V30 60063 O 6001.08 -3.08536 -2.57232 0
M  V30 60064 N 5999.29 -2.58167 -1.3341 0
M  V30 60065 H 5998.83 -2.538 -0.440805 0
M  V30 60066 H 5998.79 -2.29191 -2.15218 0
M  V30 60067 N 6002.56 -0.718087 -1.4029 0
M  V30 60068 C 6003.98 -0.33074 -1.83747 0
M  V30 60069 C 6004.33 1.13505 -1.60034 0
M  V30 60070 O 6003.45 1.87377 -1.08254 0
M  V30 60071 C 6004.05 -0.593515 -3.33561 0
M  V30 60072 C 6002.61 -0.259849 -3.75502 0
M  V30 60073 C 6001.75 -0.86463 -2.63476 0
M  V30 60074 H 6004.7 -0.917046 -1.29522 0
M  V30 60075 H 6004.72 0.14041 -3.80241 0
M  V30 60076 H 6004.24 -1.66041 -3.50788 0
M  V30 60077 H 6002.34 0.801883 -3.63869 0
M  V30 60078 H 6002.45 -0.730593 -4.73497 0
M  V30 60079 H 6000.81 -0.292488 -2.53015 0
M  V30 60080 H 6001.6 -1.93584 -2.83514 0
M  V30 60081 N 6004.04 1.50601 -0.464455 0
M  V30 60082 C 6005.32 1.94992 0.154078 0
M  V30 60083 C 6005.7 1.40452 1.57596 0
M  V30 60084 O 6005.05 0.602746 2.20407 0
M  V30 60085 C 6005.26 3.48844 0.104173 0
M  V30 60086 C 6006.61 4.23565 0.296357 0
M  V30 60087 O 6007.63 3.5574 0.181062 0
M  V30 60088 O 6006.49 5.43939 0.528477 0
M  V30 60089 H 6003.58 0.818926 0.115282 0
M  V30 60090 H 6006.13 1.61395 -0.524381 0
M  V30 60091 H 6004.9 3.81072 -0.888824 0
M  V30 60092 H 6004.52 3.8896 0.824378 0
M  V30 60093 N 6005.52 0.196805 1.56366 0
M  V30 60094 C 6006.75 -0.450173 2.02455 0
M  V30 60095 C 6007.17 -1.54284 1.07602 0
M  V30 60096 O 6006.53 -1.81201 0.0598166 0
M  V30 60097 C 6006.58 -0.981965 3.46972 0
M  V30 60098 O 6005.68 -2.09476 3.55237 0
M  V30 60099 H 6005.02 -0.104999 0.655646 0
M  V30 60100 H 6007.55 0.308184 2.02266 0
M  V30 60101 H 6007.56 -1.29813 3.86798 0
M  V30 60102 H 6006.24 -0.182094 4.15501 0
M  V30 60103 H 6004.81 -1.78711 3.27287 0
M  V30 60104 N 6007 -1.57413 -0.0767852 0
M  V30 60105 C 6008.25 -1.86635 -0.775348 0
M  V30 60106 C 6008.57 -0.788103 -1.78365 0
M  V30 60107 O 6007.84 0.183767 -1.95036 0
M  V30 60108 H 6006.42 -0.688688 -0.28934 0
M  V30 60109 H 6009.08 -1.94825 -0.05406 0
M  V30 60110 H 6008.18 -2.83981 -1.29464 0
M  V30 60111 N 6008.48 0.348057 -1.53709 0
M  V30 60112 C 6009.42 1.42723 -1.8138 0
M  V30 60113 C 6010.39 1.52459 -0.659213 0
M  V30 60114 O 6011.58 1.68069 -0.903189 0
M  V30 60115 C 6008.72 2.79436 -2.02508 0
M  V30 60116 C 6007.83 2.78528 -3.30221 0
M  V30 60117 C 6006.97 4.0693 -3.41441 0
M  V30 60118 C 6006.01 4.00232 -4.63121 0
M  V30 60119 N 6005.14 5.20316 -4.71398 0
M  V30 60120 H 6009.98 1.18426 -2.73458 0
M  V30 60121 H 6007.52 0.573762 -1.35449 0
M  V30 60122 H 6009.48 3.5888 -2.12746 0
M  V30 60123 H 6008.11 3.02095 -1.13748 0
M  V30 60124 H 6007.16 1.91216 -3.28848 0
M  V30 60125 H 6008.47 2.69456 -4.19756 0
M  V30 60126 H 6007.63 4.94796 -3.51086 0
M  V30 60127 H 6006.36 4.18777 -2.49954 0
M  V30 60128 H 6005.37 3.10751 -4.53557 0
M  V30 60129 H 6006.59 3.89971 -5.55967 0
M  V30 60130 H 6004.54 5.32716 -3.82819 0
M  V30 60131 H 6004.46 5.13482 -5.54862 0
M  V30 60132 H 6005.73 6.09965 -4.85348 0
M  V30 60133 N 6009.95 1.45365 0.608825 0
M  V30 60134 C 6010.89 1.4995 1.73342 0
M  V30 60135 C 6011.9 0.390408 1.5805 0
M  V30 60136 O 6013.09 0.657396 1.65953 0
M  V30 60137 C 6010.19 1.33897 3.11328 0
M  V30 60138 C 6009.36 2.58458 3.52872 0
M  V30 60139 C 6008.42 2.36979 4.69816 0
M  V30 60140 O 6007.45 3.10586 4.76996 0
M  V30 60141 N 6008.65 1.41462 5.63 0
M  V30 60142 H 6011.41 2.46907 1.69873 0
M  V30 60143 H 6008.97 1.41089 0.79407 0
M  V30 60144 H 6010.97 1.1734 3.87316 0
M  V30 60145 H 6009.54 0.452203 3.09312 0
M  V30 60146 H 6008.76 2.90138 2.66859 0
M  V30 60147 H 6010.04 3.41258 3.77386 0
M  V30 60148 H 6009.44 0.807138 5.59912 0
M  V30 60149 H 6008 1.30877 6.38525 0
M  V30 60150 N 6011.43 -0.851219 1.32635 0
M  V30 60151 C 6012.84 -1.42166 1.2102 0
M  V30 60152 C 6013.19 -1.9541 -0.175903 0
M  V30 60153 O 6012.32 -1.8782 -1.07483 0
M  V30 60154 C 6012.91 -2.58423 2.19095 0
M  V30 60155 C 6011.47 -3.11457 2.11357 0
M  V30 60156 C 6010.62 -1.84213 2.0727 0
M  V30 60157 H 6013.57 -0.658069 1.44413 0
M  V30 60158 H 6013.59 -3.35687 1.79149 0
M  V30 60159 H 6013.1 -2.19641 3.19968 0
M  V30 60160 H 6011.21 -3.54814 1.13744 0
M  V30 60161 H 6011.32 -3.72467 3.01338 0
M  V30 60162 H 6009.68 -2.03955 1.5256 0
M  V30 60163 H 6010.47 -1.47644 3.09929 0
M  V30 60164 N 6012.91 -1.15902 -1.06792 0
M  V30 60165 C 6014.16 -0.948773 -1.79916 0
M  V30 60166 C 6014.51 0.518232 -1.85289 0
M  V30 60167 O 6013.8 1.37941 -1.32977 0
M  V30 60168 C 6014 -1.50379 -3.24224 0
M  V30 60169 C 6013.83 -3.02323 -3.32913 0
M  V30 60170 C 6012.6 -3.7092 -3.43142 0
M  V30 60171 C 6014.8 -4.00062 -3.23194 0
M  V30 60172 N 6012.78 -5.10621 -3.40792 0
M  V30 60173 C 6014.15 -5.26115 -3.28029 0
M  V30 60174 C 6016.2 -3.91955 -3.07044 0
M  V30 60175 C 6014.91 -6.45004 -3.18375 0
M  V30 60176 C 6016.93 -5.10409 -2.98725 0
M  V30 60177 C 6016.29 -6.35339 -3.04178 0
M  V30 60178 H 6012.39 -0.400901 -0.671418 0
M  V30 60179 H 6014.98 -1.47206 -1.2743 0
M  V30 60180 H 6013.15 -1.00706 -3.75117 0
M  V30 60181 H 6014.88 -1.2318 -3.85498 0
M  V30 60182 H 6011.64 -3.21533 -3.47726 0
M  V30 60183 H 6012.06 -5.83601 -3.43131 0
M  V30 60184 H 6016.7 -2.96227 -3.01678 0
M  V30 60185 H 6014.42 -7.40959 -3.22498 0
M  V30 60186 H 6018.01 -5.05901 -2.87324 0
M  V30 60187 H 6016.89 -7.25458 -2.97792 0
M  V30 60188 N 6014.39 1.2524 -0.956703 0
M  V30 60189 C 6015.63 1.9476 -0.620302 0
M  V30 60190 C 6015.99 1.73246 0.827628 0
M  V30 60191 O 6017.19 2.36706 1.27372 0
M  V30 60192 C 6015.46 3.43938 -0.971668 0
M  V30 60193 S 6017.02 4.32375 -0.748154 0
M  V30 60194 H 6013.84 0.673476 -0.227929 0
M  V30 60195 H 6016.44 1.51851 -1.23132 0
M  V30 60196 H 6015.15 3.571 -2.02257 0
M  V30 60197 H 6014.68 3.91831 -0.350985 0
M  V30 60198 H 6016.69 4.94743 0.380029 0
M  V30 60199 N 6015.87 0.725517 1.39907 0
M  V30 60200 C 6017.1 0.278869 2.04709 0
M  V30 60201 C 6017.51 -1.0879 1.54794 0
M  V30 60202 O 6016.85 -1.69682 0.703822 0
M  V30 60203 C 6016.91 0.191858 3.58988 0
M  V30 60204 C 6016.57 1.49554 4.31836 0
M  V30 60205 C 6017.57 2.43941 4.59117 0
M  V30 60206 C 6015.26 1.75721 4.70561 0
M  V30 60207 C 6017.25 3.62735 5.2412 0
M  V30 60208 C 6014.94 2.94795 5.35293 0
M  V30 60209 C 6015.94 3.88124 5.62004 0
M  V30 60210 O 6015.62 5.05107 6.25397 0
M  V30 60211 H 6015.36 0.121286 0.665031 0
M  V30 60212 H 6017.91 0.987251 1.80118 0
M  V30 60213 H 6016.14 -0.572549 3.82438 0
M  V30 60214 H 6017.83 -0.221538 4.05295 0
M  V30 60215 H 6018.59 2.24992 4.29655 0
M  V30 60216 H 6014.47 1.03927 4.49133 0
M  V30 60217 H 6018.02 4.35598 5.44885 0
M  V30 60218 H 6013.91 3.13649 5.64176 0
M  V30 60219 H 6014.68 5.05316 6.43893 0
M  V30 60220 N 6017.35 -1.50352 0.472435 0
M  V30 60221 C 6018.57 -2.06746 -0.0797407 0
M  V30 60222 C 6018.99 -1.33615 -1.33389 0
M  V30 60223 O 6018.35 -0.405828 -1.77931 0
M  V30 60224 C 6018.4 -3.59638 -0.366473 0
M  V30 60225 O 6018.12 -4.30012 0.837928 0
M  V30 60226 C 6019.62 -4.32659 -0.965466 0
M  V30 60227 H 6016.84 -0.670956 0.00768263 0
M  V30 60228 H 6019.38 -1.93502 0.661603 0
M  V30 60229 H 6017.54 -3.7268 -1.05775 0
M  V30 60230 H 6017.95 -5.21246 0.583345 0
M  V30 60231 H 6019.43 -5.40604 -1.11585 0
M  V30 60232 H 6019.9 -3.93244 -1.95592 0
M  V30 60233 H 6020.51 -4.2415 -0.312527 0
M  V30 60234 N 6018.82 -0.205094 -1.5626 0
M  V30 60235 C 6020.05 0.436349 -2.02246 0
M  V30 60236 C 6020.47 1.545 -1.08513 0
M  V30 60237 O 6019.82 1.82269 -0.0917632 0
M  V30 60238 C 6019.87 0.98336 -3.47868 0
M  V30 60239 O 6019.6 -0.0810706 -4.38025 0
M  V30 60240 C 6021.1 1.69969 -4.09421 0
M  V30 60241 H 6018.32 0.108554 -0.662161 0
M  V30 60242 H 6020.86 -0.31673 -2.02032 0
M  V30 60243 H 6019.02 1.68678 -3.4875 0
M  V30 60244 H 6019.43 0.327567 -5.23476 0
M  V30 60245 H 6020.9 2.03463 -5.13134 0
M  V30 60246 H 6021.38 2.60698 -3.53459 0
M  V30 60247 H 6021.99 1.04188 -4.12341 0
M  V30 60248 N 6020.3 1.57451 0.0684361 0
M  V30 60249 C 6021.58 1.78485 0.800146 0
M  V30 60250 C 6021.96 0.793507 1.95619 0
M  V30 60251 O 6021.31 -0.172675 2.27847 0
M  V30 60252 C 6021.52 3.25074 1.26997 0
M  V30 60253 C 6022.86 3.88996 1.70198 0
M  V30 60254 O 6023.89 3.28985 1.36555 0
M  V30 60255 O 6022.75 4.94578 2.32498 0
M  V30 60256 H 6019.84 0.732612 0.383678 0
M  V30 60257 H 6022.39 1.69631 0.0482521 0
M  V30 60258 H 6021.16 3.88785 0.44293 0
M  V30 60259 H 6020.78 3.38665 2.08308 0
M  V30 60260 N 6021.78 -0.339901 1.53891 0
M  V30 60261 C 6023.19 -0.915304 1.62724 0
M  V30 60262 C 6023.54 -1.89432 0.510864 0
M  V30 60263 O 6022.67 -2.13404 -0.358825 0
M  V30 60264 C 6023.26 -1.66688 2.94958 0
M  V30 60265 C 6021.82 -2.19125 3.06041 0
M  V30 60266 C 6020.97 -1.0115 2.58194 0
M  V30 60267 H 6023.92 -0.117934 1.58261 0
M  V30 60268 H 6023.94 -2.53001 2.84202 0
M  V30 60269 H 6023.45 -0.954086 3.7619 0
M  V30 60270 H 6021.55 -2.93569 2.29451 0
M  V30 60271 H 6021.67 -2.45246 4.11572 0
M  V30 60272 H 6020.03 -1.38596 2.13689 0
M  V30 60273 H 6020.81 -0.313275 3.41868 0
M  V30 60274 N 6023.26 -1.45686 -0.601108 0
M  V30 60275 C 6024.5 -1.51586 -1.37117 0
M  V30 60276 C 6024.86 -0.156252 -1.91363 0
M  V30 60277 O 6026.06 -0.0899543 -2.68649 0
M  V30 60278 C 6024.33 -2.56998 -2.48369 0
M  V30 60279 S 6025.89 -2.82169 -3.36044 0
M  V30 60280 H 6022.71 -0.535786 -0.467391 0
M  V30 60281 H 6025.31 -1.82807 -0.692948 0
M  V30 60282 H 6024.02 -3.54443 -2.06877 0
M  V30 60283 H 6023.55 -2.27448 -3.20984 0
M  V30 60284 H 6025.56 -2.1604 -4.467 0
M  V30 60285 N 6024.74 0.844173 -1.33084 0
M  V30 60286 C 6025.98 1.60145 -1.24425 0
M  V30 60287 C 6026.31 1.93259 0.190924 0
M  V30 60288 O 6025.59 1.58246 1.13086 0
M  V30 60289 C 6025.87 2.91494 -2.11431 0
M  V30 60290 C 6025.73 2.65095 -3.6338 0
M  V30 60291 C 6027.04 3.92871 -1.98345 0
M  V30 60292 H 6024.16 0.58108 -0.453337 0
M  V30 60293 H 6026.81 0.974035 -1.63134 0
M  V30 60294 H 6024.96 3.4504 -1.78549 0
M  V30 60295 H 6026.63 2.18023 -4.06527 0
M  V30 60296 H 6024.87 1.98883 -3.85523 0
M  V30 60297 H 6025.54 3.58667 -4.19597 0
M  V30 60298 H 6028.02 3.48615 -2.27172 0
M  V30 60299 H 6026.89 4.82616 -2.61482 0
M  V30 60300 H 6027.15 4.31681 -0.954124 0
M  V30 60301 N 6026.21 1.16466 1.06176 0
M  V30 60302 C 6027.63 0.909823 1.31127 0
M  V30 60303 C 6027.83 -0.436617 1.96713 0
M  V30 60304 O 6026.89 -1.17587 2.23449 0
M  V30 60305 C 6028.2 2.05975 2.19077 0
M  V30 60306 C 6029.75 2.09565 2.3249 0
M  V30 60307 C 6030.22 3.23915 3.23795 0
M  V30 60308 N 6031.71 3.2364 3.31378 0
M  V30 60309 C 6032.45 4.0876 4.02122 0
M  V30 60310 N 6031.94 5.03971 4.75379 0
M  V30 60311 N 6033.74 3.96743 3.98185 0
M  V30 60312 H 6025.89 2.0315 0.619995 0
M  V30 60313 H 6028.15 0.886489 0.335918 0
M  V30 60314 H 6027.86 3.03233 1.78164 0
M  V30 60315 H 6027.73 2.0023 3.19668 0
M  V30 60316 H 6030.12 1.12899 2.7265 0
M  V30 60317 H 6030.2 2.19374 1.31563 0
M  V30 60318 H 6029.84 4.20841 2.84351 0
M  V30 60319 H 6029.77 3.11342 4.24704 0
M  V30 60320 H 6032.26 2.54697 2.79173 0
M  V30 60321 H 6032.58 5.65337 5.2689 0
M  V30 60322 H 6030.92 5.07949 4.74355 0
M  V30 60323 H 6034.11 3.21663 3.40074 0
M  V30 60324 H 6034.29 4.63302 4.53051 0
M  V30 60325 N 6027.69 -1.2473 0.963332 0
M  V30 60326 C 6028.94 -1.93288 0.633338 0
M  V30 60327 C 6029.29 -1.73963 -0.821874 0
M  V30 60328 O 6028.59 -1.07938 -1.58303 0
M  V30 60329 C 6028.78 -3.44864 0.938272 0
M  V30 60330 C 6028.61 -3.78932 2.42158 0
M  V30 60331 C 6027.38 -4.0053 3.08065 0
M  V30 60332 C 6029.58 -3.85757 3.40141 0
M  V30 60333 N 6027.56 -4.21662 4.46178 0
M  V30 60334 C 6028.93 -4.1168 4.63594 0
M  V30 60335 C 6030.98 -3.68475 3.34859 0
M  V30 60336 C 6029.69 -4.22117 5.82417 0
M  V30 60337 C 6031.71 -3.80156 4.53029 0
M  V30 60338 C 6031.08 -4.06499 5.75272 0
M  V30 60339 H 6027.17 -0.729182 0.282521 0
M  V30 60340 H 6029.76 -1.5033 1.2373 0
M  V30 60341 H 6027.93 -3.86698 0.363168 0
M  V30 60342 H 6029.66 -4.00704 0.567297 0
M  V30 60343 H 6026.42 -3.9676 2.58609 0
M  V30 60344 H 6026.84 -4.36216 5.1773 0
M  V30 60345 H 6031.48 -3.47118 2.4139 0
M  V30 60346 H 6029.2 -4.42287 6.76319 0
M  V30 60347 H 6032.79 -3.68159 4.505 0
M  V30 60348 H 6031.67 -4.1533 6.65184 0
M  V30 60349 N 6029.17 -0.732927 -1.3952 0
M  V30 60350 C 6030.08 -0.093104 -2.34415 0
M  V30 60351 C 6031.1 0.724253 -1.58211 0
M  V30 60352 O 6032.27 0.653201 -1.90513 0
M  V30 60353 C 6029.34 0.804917 -3.37227 0
M  V30 60354 C 6028.4 -0.0244558 -4.29293 0
M  V30 60355 C 6027.63 0.830798 -5.27194 0
M  V30 60356 O 6027.85 2.06958 -5.3153 0
M  V30 60357 O 6026.79 0.260561 -6.01336 0
M  V30 60358 H 6030.61 -0.876282 -2.90783 0
M  V30 60359 H 6028.2 -0.493574 -1.41011 0
M  V30 60360 H 6030.08 1.31879 -4.00232 0
M  V30 60361 H 6028.76 1.56694 -2.83246 0
M  V30 60362 H 6027.66 -0.583806 -3.69517 0
M  V30 60363 H 6029 -0.748656 -4.86473 0
M  V30 60364 N 6030.65 1.501 -0.480402 0
M  V30 60365 C 6031.88 2.06486 0.0686756 0
M  V30 60366 C 6032.29 1.34339 1.33228 0
M  V30 60367 O 6031.63 0.409039 1.79088 0
M  V30 60368 C 6031.69 3.57115 0.413396 0
M  V30 60369 C 6031.36 4.50812 -0.74952 0
M  V30 60370 C 6032.35 4.93548 -1.63421 0
M  V30 60371 C 6030.04 4.93379 -0.942487 0
M  V30 60372 C 6032.03 5.77567 -2.6962 0
M  V30 60373 C 6029.72 5.77179 -2.00768 0
M  V30 60374 C 6030.72 6.19175 -2.8829 0
M  V30 60375 O 6030.4 7.01304 -3.92974 0
M  V30 60376 H 6030.14 0.675953 -0.00794487 0
M  V30 60377 H 6032.69 1.94133 -0.670931 0
M  V30 60378 H 6030.92 3.67403 1.20632 0
M  V30 60379 H 6032.61 3.95827 0.898651 0
M  V30 60380 H 6033.38 4.61323 -1.49686 0
M  V30 60381 H 6029.25 4.60205 -0.270696 0
M  V30 60382 H 6032.8 6.10267 -3.37964 0
M  V30 60383 H 6028.7 6.08816 -2.14507 0
M  V30 60384 H 6029.46 7.19572 -3.90075 0
M  V30 60385 N 6032.13 0.213378 1.56149 0
M  V30 60386 C 6033.37 -0.422474 1.99986 0
M  V30 60387 C 6033.73 -1.57526 1.09771 0
M  V30 60388 O 6034.93 -2.27656 1.42921 0
M  V30 60389 C 6033.2 -0.853682 3.47055 0
M  V30 60390 S 6034.76 -1.48479 4.12916 0
M  V30 60391 H 6031.58 -0.134412 0.698179 0
M  V30 60392 H 6034.18 0.320746 1.92851 0
M  V30 60393 H 6032.89 -0.00488638 4.104 0
M  V30 60394 H 6032.42 -1.62992 3.58046 0
M  V30 60395 H 6034.43 -2.7738 4.1143 0
M  V30 60396 N 6033.6 -1.57485 -0.0600851 0
M  V30 60397 C 6034.55 -2.05543 -1.08879 0
M  V30 60398 C 6035.55 -0.963012 -1.39364 0
M  V30 60399 O 6036.75 -1.14807 -1.38634 0
M  V30 60400 H 6033.13 -0.655519 -0.368509 0
M  V30 60401 H 6035.1 -2.91068 -0.657411 0
M  V30 60402 C 6033.85 -2.52472 -2.39067 0
M  V30 60403 H 6033.17 -3.36131 -2.16463 0
M  V30 60404 H 6034.61 -2.8984 -3.09466 0
M  V30 60405 C 6033.07 -1.41258 -3.05856 0
M  V30 60406 O 6033.6 -0.761257 -3.94421 0
M  V30 60407 N 6031.81 -1.15479 -2.6667 0
M  V30 60408 H 6031.35 -1.68627 -1.94738 0
M  V30 60409 H 6031.31 -0.41275 -3.11679 0
M  V30 60410 N 6035.08 0.331735 -1.54069 0
M  V30 60411 C 6036.01 1.41326 -1.85875 0
M  V30 60412 C 6036.99 1.5435 -0.714841 0
M  V30 60413 O 6038.18 1.68364 -0.967836 0
M  V30 60414 C 6035.31 2.78211 -2.07884 0
M  V30 60415 C 6034.26 2.79983 -3.23719 0
M  V30 60416 C 6033.59 4.19866 -3.31084 0
M  V30 60417 C 6034.89 2.4446 -4.61559 0
M  V30 60418 H 6036.58 1.14957 -2.76451 0
M  V30 60419 H 6034.13 0.551568 -1.33018 0
M  V30 60420 H 6036.08 3.53929 -2.28719 0
M  V30 60421 H 6034.81 3.0604 -1.14049 0
M  V30 60422 H 6033.46 2.06719 -3.02759 0
M  V30 60423 H 6033.11 4.44823 -2.34822 0
M  V30 60424 H 6032.81 4.2196 -4.0893 0
M  V30 60425 H 6034.34 4.97408 -3.54143 0
M  V30 60426 H 6035.75 3.09891 -4.82328 0
M  V30 60427 H 6034.15 2.57818 -5.41895 0
M  V30 60428 H 6035.22 1.39623 -4.64363 0
M  V30 60429 N 6036.56 1.46003 0.593373 0
M  V30 60430 C 6037.79 1.54311 1.37824 0
M  V30 60431 C 6038.2 0.180546 1.87935 0
M  V30 60432 O 6037.56 -0.82037 1.63022 0
M  V30 60433 C 6037.61 2.5392 2.57307 0
M  V30 60434 O 6037.33 3.84884 2.09275 0
M  V30 60435 C 6038.83 2.72066 3.49993 0
M  V30 60436 H 6036.05 0.522164 0.421409 0
M  V30 60437 H 6038.6 1.91317 0.722356 0
M  V30 60438 H 6036.75 2.19948 3.18907 0
M  V30 60439 H 6037.17 4.39006 2.87009 0
M  V30 60440 H 6038.64 3.45708 4.30337 0
M  V30 60441 H 6039.12 1.78597 4.01248 0
M  V30 60442 H 6039.72 3.07092 2.94236 0
M  V30 60443 N 6038.04 -0.837103 1.3353 0
M  V30 60444 C 6038.97 -1.95419 1.19767 0
M  V30 60445 C 6039.98 -1.62294 0.128204 0
M  V30 60446 O 6041.17 -1.74435 0.378786 0
M  V30 60447 C 6038.27 -3.28957 0.81489 0
M  V30 60448 C 6037.45 -3.90203 1.97636 0
M  V30 60449 C 6036.5 -5.02099 1.57427 0
M  V30 60450 O 6035.53 -5.21152 2.28887 0
M  V30 60451 N 6036.73 -5.7851 0.480284 0
M  V30 60452 H 6039.5 -2.07762 2.15998 0
M  V30 60453 H 6037.06 -1.01293 1.26299 0
M  V30 60454 H 6039.05 -4.01241 0.527964 0
M  V30 60455 H 6037.62 -3.12548 -0.0567932 0
M  V30 60456 H 6036.84 -3.10487 2.42882 0
M  V30 60457 H 6038.13 -4.27856 2.75349 0
M  V30 60458 H 6037.53 -5.65585 -0.114088 0
M  V30 60459 H 6036.08 -6.51309 0.253037 0
M  V30 60460 N 6039.52 -1.17028 -1.05557 0
M  V30 60461 C 6040.76 -0.967163 -1.8007 0
M  V30 60462 C 6041.12 0.495659 -1.85492 0
M  V30 60463 O 6042.32 0.817726 -2.5606 0
M  V30 60464 C 6040.59 -1.58631 -3.20267 0
M  V30 60465 S 6042.15 -1.52888 -4.11304 0
M  V30 60466 H 6038.97 -0.347644 -0.620213 0
M  V30 60467 H 6041.57 -1.48907 -1.26677 0
M  V30 60468 H 6040.28 -2.64352 -3.13921 0
M  V30 60469 H 6039.81 -1.06405 -3.78737 0
M  V30 60470 H 6041.82 -0.534299 -4.93315 0
M  V30 60471 N 6040.99 1.24218 -0.969933 0
M  V30 60472 C 6042.22 1.9694 -0.650331 0
M  V30 60473 C 6042.64 1.71439 0.773958 0
M  V30 60474 O 6042 0.979482 1.52564 0
M  V30 60475 C 6042.05 3.48299 -0.933804 0
M  V30 60476 O 6041.15 4.12395 -0.0203875 0
M  V30 60477 H 6040.5 0.616893 -0.24564 0
M  V30 60478 H 6043.03 1.57934 -1.30069 0
M  V30 60479 H 6043.04 3.98698 -0.866246 0
M  V30 60480 H 6041.71 3.66187 -1.97179 0
M  V30 60481 H 6040.29 3.72632 -0.141458 0
M  V30 60482 N 6042.47 0.740315 1.3913 0
M  V30 60483 C 6043.38 0.105534 2.34363 0
M  V30 60484 C 6044.4 -0.715853 1.58592 0
M  V30 60485 O 6045.57 -0.643088 1.90857 0
M  V30 60486 C 6042.64 -0.787022 3.37649 0
M  V30 60487 C 6041.7 0.0472219 4.29274 0
M  V30 60488 C 6040.93 -0.802828 5.27627 0
M  V30 60489 O 6041.16 -2.04137 5.3262 0
M  V30 60490 O 6040.09 -0.228667 6.01465 0
M  V30 60491 H 6043.92 0.89169 2.90315 0
M  V30 60492 H 6041.5 0.501046 1.40748 0
M  V30 60493 H 6043.38 -1.29755 4.00926 0
M  V30 60494 H 6042.06 -1.5519 2.84073 0
M  V30 60495 H 6040.97 0.603395 3.69202 0
M  V30 60496 H 6042.3 0.774444 4.86069 0
M  V30 60497 N 6043.95 -1.49843 0.488355 0
M  V30 60498 C 6045.18 -2.06819 -0.057808 0
M  V30 60499 C 6045.59 -1.35022 -1.31964 0
M  V30 60500 O 6044.95 -0.424677 -1.7749 0
M  V30 60501 C 6045 -3.60006 -0.328308 0
M  V30 60502 O 6044.72 -4.29099 0.883489 0
M  V30 60503 C 6046.22 -4.33658 -0.919523 0
M  V30 60504 H 6043.44 -0.670837 0.0147986 0
M  V30 60505 H 6045.99 -1.92789 0.68209 0
M  V30 60506 H 6044.14 -3.73781 -1.01816 0
M  V30 60507 H 6044.56 -5.20598 0.638597 0
M  V30 60508 H 6046.03 -5.41757 -1.05845 0
M  V30 60509 H 6046.51 -3.95296 -1.9141 0
M  V30 60510 H 6047.11 -4.24458 -0.267523 0
M  V30 60511 N 6045.43 -0.221656 -1.56033 0
M  V30 60512 C 6046.34 0.699759 -2.23921 0
M  V30 60513 C 6047.36 1.21363 -1.24688 0
M  V30 60514 O 6048.53 1.25522 -1.575 0
M  V30 60515 C 6045.6 1.89096 -2.90592 0
M  V30 60516 C 6044.66 1.41906 -4.05168 0
M  V30 60517 C 6043.89 2.55348 -4.6865 0
M  V30 60518 O 6044.11 3.73485 -4.31121 0
M  V30 60519 O 6043.05 2.26544 -5.57639 0
M  V30 60520 H 6046.87 0.151445 -3.03322 0
M  V30 60521 H 6044.46 0.00879568 -1.49397 0
M  V30 60522 H 6046.34 2.58663 -3.32673 0
M  V30 60523 H 6045.02 2.42738 -2.1415 0
M  V30 60524 H 6043.92 0.691407 -3.67655 0
M  V30 60525 H 6045.26 0.929019 -4.83353 0
M  V30 60526 N 6046.91 1.57515 0.0517324 0
M  V30 60527 C 6048.13 1.92848 0.763182 0
M  V30 60528 C 6048.56 0.819805 1.69295 0
M  V30 60529 O 6047.92 -0.226098 1.79885 0
M  V30 60530 C 6047.96 3.27195 1.51578 0
M  V30 60531 O 6047.07 3.17844 2.62772 0
M  V30 60532 H 6046.41 0.630951 0.206874 0
M  V30 60533 H 6048.94 2.04595 0.0139762 0
M  V30 60534 H 6048.95 3.61548 1.89068 0
M  V30 60535 H 6047.62 4.07458 0.833728 0
M  V30 60536 H 6046.2 2.95083 2.27992 0
M  V30 60537 N 6048.39 -0.32356 1.54243 0
M  V30 60538 C 6049.63 -1.05941 1.72107 0
M  V30 60539 C 6049.95 -1.88545 0.497578 0
M  V30 60540 O 6049.22 -1.89714 -0.488419 0
M  V30 60541 H 6047.8 -0.394118 0.63457 0
M  V30 60542 H 6050.47 -0.359996 1.91546 0
M  V30 60543 H 6049.56 -1.72543 2.60068 0
M  V30 60544 N 6049.86 -1.46316 -0.585622 0
M  V30 60545 C 6051.11 -1.51699 -1.34593 0
M  V30 60546 C 6051.44 -0.166957 -1.93481 0
M  V30 60547 O 6050.72 0.821269 -1.76311 0
M  V30 60548 C 6051 -2.61331 -2.47746 0
M  V30 60549 C 6050.85 -4.05855 -1.93912 0
M  V30 60550 C 6052.17 -2.6707 -3.49802 0
M  V30 60551 H 6049.29 -0.55227 -0.488023 0
M  V30 60552 H 6051.93 -1.78237 -0.658138 0
M  V30 60553 H 6050.08 -2.38833 -3.06416 0
M  V30 60554 H 6051.76 -4.39631 -1.39721 0
M  V30 60555 H 6050 -4.15472 -1.2476 0
M  V30 60556 H 6050.67 -4.78289 -2.75579 0
M  V30 60557 H 6053.15 -2.87286 -3.01008 0
M  V30 60558 H 6052.02 -3.45604 -4.26437 0
M  V30 60559 H 6052.28 -1.73008 -4.06842 0
M  V30 60560 N 6051.34 0.83001 -1.33972 0
M  V30 60561 C 6052.27 1.95552 -1.27599 0
M  V30 60562 C 6053.25 1.69394 -0.154805 0
M  V30 60563 O 6054.44 1.91092 -0.346021 0
M  V30 60564 C 6051.57 3.31877 -1.02347 0
M  V30 60565 C 6050.52 3.72457 -2.10855 0
M  V30 60566 C 6049.85 5.06686 -1.70802 0
M  V30 60567 C 6051.15 3.85302 -3.52618 0
M  V30 60568 H 6052.84 2.01143 -2.2177 0
M  V30 60569 H 6050.39 0.966353 -1.0676 0
M  V30 60570 H 6052.34 4.10194 -0.965351 0
M  V30 60571 H 6051.06 3.26567 -0.046161 0
M  V30 60572 H 6049.72 2.9641 -2.15724 0
M  V30 60573 H 6049.37 4.97856 -0.717509 0
M  V30 60574 H 6049.07 5.34808 -2.43422 0
M  V30 60575 H 6050.6 5.87468 -1.66473 0
M  V30 60576 H 6052.01 4.53908 -3.50201 0
M  V30 60577 H 6050.41 4.24871 -4.23798 0
M  V30 60578 H 6051.48 2.875 -3.90476 0
M  V30 60579 N 6052.82 1.17586 1.04935 0
M  V30 60580 C 6053.73 0.909664 2.16246 0
M  V30 60581 C 6054.75 -0.123105 1.73564 0
M  V30 60582 O 6055.92 0.0567683 2.0132 0
M  V30 60583 C 6052.99 0.429463 3.4403 0
M  V30 60584 C 6052.05 1.52914 4.01143 0
M  V30 60585 C 6051.28 1.07175 5.22828 0
M  V30 60586 O 6051.5 -0.0730629 5.70353 0
M  V30 60587 O 6050.44 1.86588 5.72249 0
M  V30 60588 H 6054.26 1.84083 2.41552 0
M  V30 60589 H 6051.85 0.956955 1.14729 0
M  V30 60590 H 6053.73 0.169318 4.2106 0
M  V30 60591 H 6052.41 -0.473517 3.20218 0
M  V30 60592 H 6051.31 1.84319 3.25541 0
M  V30 60593 H 6052.65 2.40792 4.29278 0
M  V30 60594 N 6054.3 -1.23702 0.976507 0
M  V30 60595 C 6055.53 -1.96053 0.661134 0
M  V30 60596 C 6055.94 -1.72333 -0.77115 0
M  V30 60597 O 6055.3 -1.01239 -1.51845 0
M  V30 60598 C 6055.35 -3.4914 0.937193 0
M  V30 60599 O 6055.07 -3.72053 2.31318 0
M  V30 60600 C 6056.57 -4.38696 0.637231 0
M  V30 60601 H 6053.79 -0.62431 0.245923 0
M  V30 60602 H 6056.33 -1.57296 1.30683 0
M  V30 60603 H 6054.49 -3.85926 0.337566 0
M  V30 60604 H 6054.9 -4.66375 2.39989 0
M  V30 60605 H 6056.38 -5.44928 0.880782 0
M  V30 60606 H 6056.85 -4.37103 -0.428648 0
M  V30 60607 H 6057.46 -4.07511 1.21716 0
M  V30 60608 N 6055.78 -0.747683 -1.38735 0
M  V30 60609 C 6057.19 -0.369641 -1.83004 0
M  V30 60610 C 6057.54 1.10085 -1.62406 0
M  V30 60611 O 6056.66 1.85038 -1.12204 0
M  V30 60612 C 6057.26 -0.664135 -3.32227 0
M  V30 60613 C 6055.82 -0.33944 -3.74866 0
M  V30 60614 C 6054.96 -0.920323 -2.61582 0
M  V30 60615 H 6057.91 -0.944313 -1.27548 0
M  V30 60616 H 6057.94 0.0597237 -3.80453 0
M  V30 60617 H 6057.45 -1.73444 -3.47187 0
M  V30 60618 H 6055.55 0.724521 -3.65488 0
M  V30 60619 H 6055.66 -0.830865 -4.7184 0
M  V30 60620 H 6054.03 -0.34609 -2.52338 0
M  V30 60621 H 6054.81 -1.99554 -2.79344 0
M  V30 60622 N 6057.25 1.49582 -0.496295 0
M  V30 60623 C 6058.48 2.06847 0.046839 0
M  V30 60624 C 6058.9 1.3572 1.31246 0
M  V30 60625 O 6058.25 0.434084 1.77262 0
M  V30 60626 C 6058.3 3.60175 0.309212 0
M  V30 60627 O 6058.03 4.28625 -0.906233 0
M  V30 60628 C 6059.53 4.3414 0.896512 0
M  V30 60629 H 6056.75 0.670749 -0.018356 0
M  V30 60630 H 6059.29 1.92425 -0.692304 0
M  V30 60631 H 6057.45 3.74316 0.998327 0
M  V30 60632 H 6057.86 5.20252 -0.666197 0
M  V30 60633 H 6059.33 5.42311 1.02971 0
M  V30 60634 H 6059.81 3.96305 1.89311 0
M  V30 60635 H 6060.42 4.24594 0.245009 0
M  V30 60636 N 6058.73 0.229928 1.55914 0
M  V30 60637 C 6059.98 -0.400087 1.98814 0
M  V30 60638 C 6060.31 -1.58817 1.11762 0
M  V30 60639 O 6059.59 -1.93691 0.177162 0
M  V30 60640 C 6059.87 -0.8265 3.50487 0
M  V30 60641 C 6059.72 0.365804 4.4831 0
M  V30 60642 C 6061.04 -1.67966 4.06787 0
M  V30 60643 H 6058.16 -0.143951 0.722805 0
M  V30 60644 H 6060.8 0.327841 1.8715 0
M  V30 60645 H 6058.95 -1.44674 3.60557 0
M  V30 60646 H 6060.62 1.00406 4.5024 0
M  V30 60647 H 6058.87 1.01183 4.21835 0
M  V30 60648 H 6059.54 0.0243757 5.51995 0
M  V30 60649 H 6062.01 -1.15625 3.99713 0
M  V30 60650 H 6060.89 -1.9469 5.13212 0
M  V30 60651 H 6061.15 -2.64582 3.54188 0
M  V30 60652 N 6060.21 -1.5754 -0.0433783 0
M  V30 60653 C 6061.46 -1.8889 -0.738133 0
M  V30 60654 C 6061.79 -0.825889 -1.75763 0
M  V30 60655 O 6061.06 0.160729 -1.93835 0
M  V30 60656 C 6061.35 -3.30894 -1.42061 0
M  V30 60657 C 6061.2 -4.47876 -0.415596 0
M  V30 60658 C 6062.52 -3.71579 -2.35833 0
M  V30 60659 H 6059.64 -0.686985 -0.266873 0
M  V30 60660 H 6062.28 -1.9 -0.00100278 0
M  V30 60661 H 6060.43 -3.30078 -2.04892 0
M  V30 60662 H 6062.1 -4.60823 0.209691 0
M  V30 60663 H 6060.35 -4.32981 0.266499 0
M  V30 60664 H 6061.02 -5.44087 -0.931317 0
M  V30 60665 H 6063.49 -3.7367 -1.83058 0
M  V30 60666 H 6062.37 -4.71773 -2.80573 0
M  V30 60667 H 6062.63 -3.03053 -3.21887 0
M  V30 60668 N 6061.69 0.315375 -1.54412 0
M  V30 60669 C 6063.1 0.889301 -1.64159 0
M  V30 60670 C 6063.45 1.88596 -0.540937 0
M  V30 60671 O 6062.58 2.13948 0.324829 0
M  V30 60672 C 6063.17 1.61975 -2.97573 0
M  V30 60673 C 6061.73 2.14228 -3.09489 0
M  V30 60674 C 6060.88 0.970291 -2.5977 0
M  V30 60675 H 6063.83 0.0927413 -1.58429 0
M  V30 60676 H 6063.85 2.48447 -2.88191 0
M  V30 60677 H 6063.36 0.894117 -3.7766 0
M  V30 60678 H 6061.46 2.89882 -2.34093 0
M  V30 60679 H 6061.57 2.38667 -4.15421 0
M  V30 60680 H 6059.94 1.35179 -2.15867 0
M  V30 60681 H 6060.72 0.258848 -3.42323 0
M  V30 60682 N 6063.17 1.46624 0.577854 0
M  V30 60683 C 6064.41 1.52411 1.33786 0
M  V30 60684 C 6064.75 0.177215 1.9339 0
M  V30 60685 O 6064.02 -0.811908 1.76744 0
M  V30 60686 C 6064.3 2.62641 2.46357 0
M  V30 60687 C 6064.16 4.06878 1.91756 0
M  V30 60688 C 6065.48 2.68921 3.48381 0
M  V30 60689 H 6062.59 0.55485 0.485088 0
M  V30 60690 H 6065.24 1.78584 0.648676 0
M  V30 60691 H 6063.39 2.40455 3.05145 0
M  V30 60692 H 6065.06 4.40366 1.37387 0
M  V30 60693 H 6063.3 4.16128 1.22555 0
M  V30 60694 H 6063.97 4.79744 2.73039 0
M  V30 60695 H 6066.45 2.88879 2.9948 0
M  V30 60696 H 6065.32 3.47861 4.24599 0
M  V30 60697 H 6065.59 1.75163 4.05919 0
M  V30 60698 N 6064.64 -0.822893 1.34411 0
M  V30 60699 C 6066.06 -1.39567 1.24008 0
M  V30 60700 C 6066.41 -1.95739 -0.134414 0
M  V30 60701 O 6065.53 -1.90058 -1.03475 0
M  V30 60702 C 6066.13 -2.53718 2.24528 0
M  V30 60703 C 6064.69 -3.06903 2.17916 0
M  V30 60704 C 6063.83 -1.79776 2.1113 0
M  V30 60705 H 6066.78 -0.627289 1.45776 0
M  V30 60706 H 6066.8 -3.31812 1.86229 0
M  V30 60707 H 6066.32 -2.12805 3.24555 0
M  V30 60708 H 6064.42 -3.52321 1.21245 0
M  V30 60709 H 6064.53 -3.65992 3.09171 0
M  V30 60710 H 6062.89 -2.00673 1.56852 0
M  V30 60711 H 6063.68 -1.41036 3.12991 0
M  V30 60712 N 6066.12 -1.18141 -1.0431 0
M  V30 60713 C 6067.35 -1.00068 -1.81662 0
M  V30 60714 C 6067.77 0.446216 -1.82731 0
M  V30 60715 O 6067.13 1.32 -1.24281 0
M  V30 60716 C 6067.18 -1.55709 -3.25249 0
M  V30 60717 O 6066.28 -0.776804 -4.05018 0
M  V30 60718 H 6065.62 -0.354671 -0.561342 0
M  V30 60719 H 6068.15 -1.56842 -1.31384 0
M  V30 60720 H 6068.16 -1.58317 -3.76032 0
M  V30 60721 H 6066.84 -2.61028 -3.23786 0
M  V30 60722 H 6065.42 -0.822851 -3.63708 0
M  V30 60723 N 6067.6 1.23182 -0.983053 0
M  V30 60724 C 6068.53 2.23303 -0.470236 0
M  V30 60725 C 6069.51 1.55836 0.464101 0
M  V30 60726 O 6070.7 1.8438 0.391933 0
M  V30 60727 C 6067.82 3.3719 0.319426 0
M  V30 60728 C 6066.87 4.22815 -0.559445 0
M  V30 60729 S 6067.7 4.96391 -2.00889 0
M  V30 60730 C 6068.86 6.13726 -1.22844 0
M  V30 60731 H 6069.09 2.66456 -1.31866 0
M  V30 60732 H 6066.62 1.32703 -0.789253 0
M  V30 60733 H 6068.58 4.03232 0.769016 0
M  V30 60734 H 6067.24 2.92565 1.143 0
M  V30 60735 H 6066.44 5.03977 0.0476264 0
M  V30 60736 H 6066.04 3.61854 -0.945389 0
M  V30 60737 H 6068.33 6.75718 -0.491096 0
M  V30 60738 H 6069.27 6.78825 -2.01499 0
M  V30 60739 H 6069.68 5.59548 -0.746057 0
M  V30 60740 N 6069.08 0.75503 1.38337 0
M  V30 60741 C 6069.99 0.130386 2.34237 0
M  V30 60742 C 6071 -0.698992 1.59343 0
M  V30 60743 O 6072.18 -0.622809 1.91528 0
M  V30 60744 C 6069.25 -0.751166 3.38465 0
M  V30 60745 C 6068.31 0.0927495 4.292 0
M  V30 60746 C 6067.54 -0.746821 5.28449 0
M  V30 60747 O 6067.76 -1.98476 5.34756 0
M  V30 60748 O 6066.7 -0.164861 6.01674 0
M  V30 60749 H 6070.52 0.922432 2.89353 0
M  V30 60750 H 6068.11 0.515946 1.40208 0
M  V30 60751 H 6069.99 -1.25495 4.0228 0
M  V30 60752 H 6068.66 -1.52168 2.85703 0
M  V30 60753 H 6067.57 0.642519 3.68541 0
M  V30 60754 H 6068.9 0.825955 4.8522 0
M  V30 60755 N 6070.56 -1.49316 0.50422 0
M  V30 60756 C 6071.52 -2.27703 -0.26149 0
M  V30 60757 C 6072.52 -1.33853 -0.891067 0
M  V30 60758 O 6073.71 -1.56984 -0.755101 0
M  V30 60759 C 6070.84 -3.11917 -1.37553 0
M  V30 60760 H 6072.03 -2.96853 0.426396 0
M  V30 60761 H 6069.59 -1.54134 0.25929 0
M  V30 60762 H 6070.32 -2.4734 -2.09746 0
M  V30 60763 H 6070.11 -3.80923 -0.929507 0
M  V30 60764 H 6071.6 -3.71113 -1.91481 0
M  V30 60765 N 6072.03 -0.238193 -1.5579 0
M  V30 60766 C 6072.98 0.678752 -2.17662 0
M  V30 60767 C 6073.97 1.14554 -1.12988 0
M  V30 60768 O 6075.16 1.09676 -1.38925 0
M  V30 60769 C 6072.29 1.8793 -2.87293 0
M  V30 60770 C 6071.38 1.43142 -3.99213 0
M  V30 60771 N 6071.77 0.697198 -5.00972 0
M  V30 60772 C 6070.06 1.7174 -4.11608 0
M  V30 60773 C 6070.77 0.466492 -5.79826 0
M  V30 60774 N 6069.74 1.02814 -5.33789 0
M  V30 60775 H 6073.54 0.109543 -2.93696 0
M  V30 60776 H 6071.06 -0.0401398 -1.6235 0
M  V30 60777 H 6073.05 2.54712 -3.30042 0
M  V30 60778 H 6071.71 2.45282 -2.1276 0
M  V30 60779 H 6072.73 0.348185 -5.16728 0
M  V30 60780 H 6069.4 2.30293 -3.48241 0
M  V30 60781 H 6070.79 -0.119049 -6.71795 0
M  V30 60782 N 6073.51 1.57561 0.0350229 0
M  V30 60783 C 6074.74 1.93646 0.742685 0
M  V30 60784 C 6075.16 0.837715 1.68416 0
M  V30 60785 O 6074.52 -0.207006 1.80114 0
M  V30 60786 C 6074.57 3.28784 1.48099 0
M  V30 60787 O 6073.67 3.20613 2.59386 0
M  V30 60788 H 6073.01 0.63311 0.20017 0
M  V30 60789 H 6075.54 2.04599 -0.00772464 0
M  V30 60790 H 6075.55 3.63533 1.85223 0
M  V30 60791 H 6074.23 4.08319 0.790465 0
M  V30 60792 H 6072.81 2.97485 2.24849 0
M  V30 60793 N 6074.99 -0.307182 1.54577 0
M  V30 60794 C 6075.9 -1.40134 1.88148 0
M  V30 60795 C 6076.92 -1.55787 0.775007 0
M  V30 60796 O 6078.09 -1.7057 1.07088 0
M  V30 60797 C 6075.16 -2.74605 2.11643 0
M  V30 60798 C 6074.22 -2.6799 3.35381 0
M  V30 60799 C 6073.45 -3.96048 3.57745 0
M  V30 60800 O 6073.68 -4.95109 2.83236 0
M  V30 60801 O 6072.61 -3.98315 4.51252 0
M  V30 60802 H 6076.44 -1.14667 2.81221 0
M  V30 60803 H 6074.02 -0.50269 1.40689 0
M  V30 60804 H 6075.9 -3.54178 2.28333 0
M  V30 60805 H 6074.58 -2.99928 1.21757 0
M  V30 60806 H 6073.48 -1.8691 3.24061 0
M  V30 60807 H 6074.82 -2.4762 4.25377 0
M  V30 60808 N 6076.47 -1.46928 -0.57007 0
M  V30 60809 C 6077.43 -1.58014 -1.66024 0
M  V30 60810 C 6078.43 -0.456242 -1.54192 0
M  V30 60811 O 6079.62 -0.720935 -1.58582 0
M  V30 60812 C 6076.75 -1.51246 -3.05512 0
M  V30 60813 H 6077.95 -2.55183 -1.57549 0
M  V30 60814 H 6075.5 -1.34927 -0.788951 0
M  V30 60815 H 6076.24 -0.554042 -3.19532 0
M  V30 60816 H 6076.02 -2.32801 -3.15509 0
M  V30 60817 H 6077.51 -1.62115 -3.84849 0
M  V30 60818 N 6077.95 0.815754 -1.34845 0
M  V30 60819 C 6078.91 1.90866 -1.26897 0
M  V30 60820 C 6079.91 1.59761 -0.182501 0
M  V30 60821 O 6081.1 1.68666 -0.435602 0
M  V30 60822 C 6078.23 3.27078 -0.960889 0
M  V30 60823 H 6079.43 1.99335 -2.24066 0
M  V30 60824 H 6076.98 1.01056 -1.19237 0
M  V30 60825 H 6077.71 3.24299 0.00732658 0
M  V30 60826 H 6077.5 3.51039 -1.74683 0
M  V30 60827 H 6078.99 4.07098 -0.930637 0
M  V30 60828 N 6079.43 1.18692 1.03682 0
M  V30 60829 C 6080.84 0.988238 1.58401 0
M  V30 60830 C 6081.19 -0.46104 1.90706 0
M  V30 60831 O 6080.31 -1.33906 1.69994 0
M  V30 60832 C 6080.91 1.78758 2.87804 0
M  V30 60833 C 6079.47 1.63313 3.39125 0
M  V30 60834 C 6078.61 1.77961 2.12662 0
M  V30 60835 H 6081.56 1.3318 0.863065 0
M  V30 60836 H 6081.59 1.27895 3.58362 0
M  V30 60837 H 6081.1 2.84233 2.6426 0
M  V30 60838 H 6079.2 0.603906 3.67673 0
M  V30 60839 H 6079.31 2.43356 4.12692 0
M  V30 60840 H 6077.68 1.20945 2.24153 0
M  V30 60841 H 6078.46 2.8488 1.91569 0
M  V30 60842 N 6080.9 -1.22659 0.989572 0
M  V30 60843 C 6082.13 -1.9534 0.681891 0
M  V30 60844 C 6082.55 -1.73141 -0.752828 0
M  V30 60845 O 6081.9 -1.02844 -1.50763 0
M  V30 60846 C 6081.95 -3.48127 0.974172 0
M  V30 60847 O 6081.68 -3.69579 2.35251 0
M  V30 60848 C 6083.18 -4.37996 0.683725 0
M  V30 60849 H 6080.4 -0.621666 0.252531 0
M  V30 60850 H 6082.94 -1.55901 1.32344 0
M  V30 60851 H 6081.1 -3.85547 0.37848 0
M  V30 60852 H 6081.51 -4.63803 2.44922 0
M  V30 60853 H 6082.98 -5.43963 0.938529 0
M  V30 60854 H 6083.46 -4.37533 -0.382263 0
M  V30 60855 H 6084.07 -4.06197 1.26031 0
M  V30 60856 N 6082.38 -0.762356 -1.37934 0
M  V30 60857 C 6083.29 -0.142806 -2.34165 0
M  V30 60858 C 6084.31 0.690531 -1.59711 0
M  V30 60859 O 6085.48 0.612643 -1.91856 0
M  V30 60860 C 6082.55 0.733205 -3.38858 0
M  V30 60861 C 6081.61 -0.11551 -4.29145 0
M  V30 60862 C 6080.84 0.718786 -5.28838 0
M  V30 60863 O 6081.07 1.95637 -5.35801 0
M  V30 60864 O 6080 0.13295 -6.01753 0
M  V30 60865 H 6083.83 -0.937764 -2.88859 0
M  V30 60866 H 6081.41 -0.523374 -1.39933 0
M  V30 60867 H 6083.29 1.2336 -4.02939 0
M  V30 60868 H 6081.97 1.50651 -2.86506 0
M  V30 60869 H 6080.87 -0.662055 -3.68195 0
M  V30 60870 H 6082.21 -0.851676 -4.84776 0
M  V30 60871 N 6083.86 1.49047 -0.512132 0
M  V30 60872 C 6084.79 2.27265 0.297198 0
M  V30 60873 C 6085.8 1.3427 0.920627 0
M  V30 60874 O 6086.99 1.59464 0.802084 0
M  V30 60875 C 6084.09 3.07047 1.43441 0
M  V30 60876 C 6083.27 4.27696 0.916226 0
M  V30 60877 C 6082.33 4.89434 1.93239 0
M  V30 60878 O 6081.35 5.49176 1.49647 0
M  V30 60879 N 6082.55 4.80077 3.26352 0
M  V30 60880 H 6085.32 2.97363 -0.373549 0
M  V30 60881 H 6082.88 1.58174 -0.345356 0
M  V30 60882 H 6084.87 3.45221 2.11198 0
M  V30 60883 H 6083.44 2.39485 2.00912 0
M  V30 60884 H 6082.66 3.94149 0.0632029 0
M  V30 60885 H 6083.95 5.05834 0.548608 0
M  V30 60886 H 6083.35 4.32659 3.64449 0
M  V30 60887 H 6081.9 5.22403 3.89792 0
M  V30 60888 N 6085.34 0.246452 1.55661 0
M  V30 60889 C 6086.57 -0.382573 2.03332 0
M  V30 60890 C 6086.98 -1.51569 1.12572 0
M  V30 60891 O 6086.34 -1.81962 0.140056 0
M  V30 60892 C 6086.39 -0.890784 3.50353 0
M  V30 60893 O 6086.11 0.197177 4.37656 0
M  V30 60894 C 6087.61 -1.59054 4.13783 0
M  V30 60895 H 6084.83 -0.09096 0.664806 0
M  V30 60896 H 6087.37 0.370184 2.01122 0
M  V30 60897 H 6085.53 -1.59372 3.531 0
M  V30 60898 H 6085.94 -0.188662 5.24161 0
M  V30 60899 H 6087.42 -1.89786 5.18348 0
M  V30 60900 H 6087.89 -2.51235 3.60246 0
M  V30 60901 H 6088.5 -0.932188 4.14958 0
M  V30 60902 N 6086.82 -1.57577 -0.0266666 0
M  V30 60903 C 6088.23 -1.77691 -0.572959 0
M  V30 60904 C 6088.58 -0.877832 -1.75467 0
M  V30 60905 O 6087.7 -0.0732917 -2.16276 0
M  V30 60906 C 6088.3 -3.22243 -1.04618 0
M  V30 60907 C 6086.86 -3.43545 -1.53798 0
M  V30 60908 C 6086 -2.73164 -0.477124 0
M  V30 60909 H 6088.95 -1.5744 0.199557 0
M  V30 60910 H 6088.98 -3.28889 -1.91344 0
M  V30 60911 H 6088.49 -3.87654 -0.185911 0
M  V30 60912 H 6086.59 -2.83312 -2.42002 0
M  V30 60913 H 6086.7 -4.52164 -1.58382 0
M  V30 60914 H 6085.07 -2.37008 -0.932709 0
M  V30 60915 H 6085.85 -3.4126 0.373725 0
M  V30 60916 N 6088.29 0.29898 -1.54738 0
M  V30 60917 C 6089.54 1.03547 -1.74373 0
M  V30 60918 C 6089.87 1.86854 -0.529085 0
M  V30 60919 O 6089.15 1.88641 0.473788 0
M  V30 60920 C 6089.43 1.93977 -3.03389 0
M  V30 60921 C 6089.28 1.13836 -4.35157 0
M  V30 60922 C 6090.6 2.93117 -3.28284 0
M  V30 60923 H 6087.72 0.375033 -0.634444 0
M  V30 60924 H 6090.36 0.309952 -1.87455 0
M  V30 60925 H 6088.51 2.55839 -2.92367 0
M  V30 60926 H 6090.19 0.542453 -4.58099 0
M  V30 60927 H 6088.43 0.441126 -4.31551 0
M  V30 60928 H 6089.1 1.80367 -5.21701 0
M  V30 60929 H 6091.58 2.41384 -3.38929 0
M  V30 60930 H 6090.45 3.53554 -4.1987 0
M  V30 60931 H 6090.71 3.66883 -2.46676 0
M  V30 60932 N 6089.77 1.47229 0.56227 0
M  V30 60933 C 6091.02 1.53821 1.32162 0
M  V30 60934 C 6091.35 0.197717 1.93191 0
M  V30 60935 O 6090.63 -0.793116 1.77595 0
M  V30 60936 C 6090.91 2.6524 2.43557 0
M  V30 60937 C 6090.76 4.08889 1.8743 0
M  V30 60938 C 6092.08 2.72601 3.45509 0
M  V30 60939 H 6089.2 0.559964 0.479176 0
M  V30 60940 H 6091.84 1.79262 0.629699 0
M  V30 60941 H 6089.99 2.43678 3.02578 0
M  V30 60942 H 6091.66 4.41799 1.32709 0
M  V30 60943 H 6089.91 4.17405 1.18135 0
M  V30 60944 H 6090.58 4.82613 2.67935 0
M  V30 60945 H 6093.05 2.92039 2.96399 0
M  V30 60946 H 6091.93 3.52345 4.20885 0
M  V30 60947 H 6092.19 1.79458 4.04039 0
M  V30 60948 N 6091.25 -0.808591 1.35276 0
M  V30 60949 C 6092.67 -1.10385 1.1527 0
M  V30 60950 C 6092.87 -2.01468 -0.0361793 0
M  V30 60951 O 6091.92 -2.42389 -0.707392 0
M  V30 60952 C 6093.24 -1.73676 2.45473 0
M  V30 60953 C 6094.78 -1.86106 2.51662 0
M  V30 60954 C 6095.26 -2.52813 3.81903 0
M  V30 60955 N 6096.75 -2.60299 3.83143 0
M  V30 60956 C 6097.48 -3.12678 4.80646 0
M  V30 60957 N 6096.98 -3.65509 5.88536 0
M  V30 60958 N 6098.77 -3.11212 4.68085 0
M  V30 60959 H 6090.92 -0.203067 2.11427 0
M  V30 60960 H 6093.19 -0.152673 0.935625 0
M  V30 60961 H 6092.89 -1.14216 3.32637 0
M  V30 60962 H 6092.77 -2.73397 2.59873 0
M  V30 60963 H 6095.15 -2.4471 1.64928 0
M  V30 60964 H 6095.24 -0.852463 2.41178 0
M  V30 60965 H 6094.88 -1.94859 4.69033 0
M  V30 60966 H 6094.81 -3.54205 3.89675 0
M  V30 60967 H 6097.3 -2.22867 3.05186 0
M  V30 60968 H 6097.61 -4.03769 6.58931 0
M  V30 60969 H 6095.96 -3.63713 5.92231 0
M  V30 60970 H 6099.15 -2.69214 3.82938 0
M  V30 60971 H 6099.32 -3.51726 5.44236 0
M  V30 60972 N 6092.73 -1.1924 -1.03051 0
M  V30 60973 C 6093.66 -0.886422 -2.11365 0
M  V30 60974 C 6094.67 0.120199 -1.62356 0
M  V30 60975 O 6095.86 -0.108996 -1.78167 0
M  V30 60976 C 6092.96 -0.304937 -3.37525 0
M  V30 60977 C 6092.14 -1.35971 -4.15729 0
M  V30 60978 C 6091.19 -0.792068 -5.20204 0
M  V30 60979 O 6090.22 -1.46935 -5.49908 0
M  V30 60980 N 6091.42 0.405437 -5.79082 0
M  V30 60981 H 6094.19 -1.81875 -2.38205 0
M  V30 60982 H 6091.75 -1.09418 -1.19329 0
M  V30 60983 H 6093.74 0.0886206 -4.04603 0
M  V30 60984 H 6092.31 0.531635 -3.08046 0
M  V30 60985 H 6091.53 -1.92818 -3.43824 0
M  V30 60986 H 6092.82 -2.0705 -4.64766 0
M  V30 60987 H 6092.22 0.973227 -5.57265 0
M  V30 60988 H 6090.77 0.740793 -6.47577 0
M  V30 60989 N 6094.21 1.22132 -0.996063 0
M  V30 60990 C 6095.45 1.92688 -0.68195 0
M  V30 60991 C 6095.81 1.75792 0.772092 0
M  V30 60992 O 6097.01 2.40639 1.19777 0
M  V30 60993 C 6095.28 3.40673 -1.0806 0
M  V30 60994 S 6096.84 4.29776 -0.885332 0
M  V30 60995 H 6093.66 0.665883 -0.24924 0
M  V30 60996 H 6096.26 1.47857 -1.27901 0
M  V30 60997 H 6094.97 3.50485 -2.13515 0
M  V30 60998 H 6094.5 3.90516 -0.475465 0
M  V30 60999 H 6096.51 4.95701 0.222438 0
M  V30 61000 N 6095.68 0.76966 1.37528 0
M  V30 61001 C 6096.91 0.343855 2.03718 0
M  V30 61002 C 6097.32 -1.03811 1.58177 0
M  V30 61003 O 6096.67 -1.67357 0.757449 0
M  V30 61004 C 6096.73 0.30597 3.58196 0
M  V30 61005 C 6096.39 1.63217 4.2686 0
M  V30 61006 C 6097.39 2.58424 4.51124 0
M  V30 61007 C 6095.07 1.90603 4.64732 0
M  V30 61008 C 6097.07 3.79226 5.12315 0
M  V30 61009 C 6094.75 3.11676 5.25644 0
M  V30 61010 C 6095.75 4.05807 5.49372 0
M  V30 61011 O 6095.44 5.24748 6.09011 0
M  V30 61012 H 6095.17 0.142382 0.660835 0
M  V30 61013 H 6097.73 1.04405 1.76886 0
M  V30 61014 H 6095.96 -0.450589 3.84066 0
M  V30 61015 H 6097.65 -0.0924842 4.05795 0
M  V30 61016 H 6098.41 2.38547 4.2228 0
M  V30 61017 H 6094.29 1.18164 4.45599 0
M  V30 61018 H 6097.83 4.52713 5.30751 0
M  V30 61019 H 6093.73 3.31439 5.53912 0
M  V30 61020 H 6094.5 5.25545 6.2749 0
M  V30 61021 N 6097.16 -1.48773 0.520029 0
M  V30 61022 C 6098.11 -2.26422 -0.267806 0
M  V30 61023 C 6099.1 -1.3209 -0.918748 0
M  V30 61024 O 6100.29 -1.56692 -0.8232 0
M  V30 61025 C 6097.42 -3.169 -1.32019 0
M  V30 61026 C 6096.5 -4.18701 -0.674541 0
M  V30 61027 N 6096.89 -5.05259 0.233947 0
M  V30 61028 C 6095.19 -4.36134 -0.932918 0
M  V30 61029 C 6095.89 -5.78541 0.605436 0
M  V30 61030 N 6094.87 -5.43591 -0.0311515 0
M  V30 61031 H 6098.67 -2.90719 0.431262 0
M  V30 61032 H 6096.19 -1.58857 0.337378 0
M  V30 61033 H 6098.18 -3.71178 -1.89823 0
M  V30 61034 H 6096.84 -2.54158 -2.02074 0
M  V30 61035 H 6097.85 -5.14343 0.605947 0
M  V30 61036 H 6094.53 -3.84587 -1.62479 0
M  V30 61037 H 6095.92 -6.58202 1.3498 0
M  V30 61038 N 6098.64 -0.254703 -1.55528 0
M  V30 61039 C 6099.89 0.367135 -1.98737 0
M  V30 61040 C 6100.21 1.57895 -1.14429 0
M  V30 61041 O 6099.48 1.94558 -0.228918 0
M  V30 61042 H 6098.06 0.138637 -0.734022 0
M  V30 61043 H 6100.72 -0.355304 -1.91634 0
M  V30 61044 H 6099.82 0.670962 -3.04802 0
M  V30 61045 N 6100.12 1.57589 0.0183095 0
M  V30 61046 C 6101.07 2.08358 1.03391 0
M  V30 61047 C 6102.06 0.999623 1.36762 0
M  V30 61048 O 6103.27 1.18443 1.35541 0
M  V30 61049 H 6099.64 0.665059 0.351 0
M  V30 61050 H 6101.61 2.92709 0.580008 0
M  V30 61051 C 6100.36 2.58722 2.32289 0
M  V30 61052 H 6099.68 3.41752 2.07475 0
M  V30 61053 H 6101.12 2.97943 3.01672 0
M  V30 61054 C 6099.58 1.49318 3.02003 0
M  V30 61055 O 6100.11 0.865564 3.92264 0
M  V30 61056 N 6098.32 1.22509 2.63515 0
M  V30 61057 H 6097.87 1.7373 1.90199 0
M  V30 61058 H 6097.82 0.495242 3.10475 0
M  V30 61059 N 6101.6 -0.29077 1.54894 0
M  V30 61060 C 6102.84 -1.02266 1.74316 0
M  V30 61061 C 6103.17 -1.87447 0.537459 0
M  V30 61062 O 6102.44 -1.90707 -0.448068 0
M  V30 61063 H 6101.02 -0.38057 0.642788 0
M  V30 61064 H 6103.68 -0.319285 1.92267 0
M  V30 61065 H 6102.77 -1.66988 2.63669 0
M  V30 61066 N 6103.07 -1.47525 -0.554454 0
M  V30 61067 C 6104.01 -1.5628 -1.67658 0
M  V30 61068 C 6105.02 -0.448798 -1.56492 0
M  V30 61069 O 6106.21 -0.718536 -1.63399 0
M  V30 61070 C 6103.31 -1.45359 -3.06144 0
M  V30 61071 C 6102.48 -2.71376 -3.43036 0
M  V30 61072 C 6101.54 -2.54253 -4.60697 0
M  V30 61073 O 6100.57 -3.28075 -4.6514 0
M  V30 61074 N 6101.77 -1.6226 -5.57362 0
M  V30 61075 H 6104.53 -2.53042 -1.60592 0
M  V30 61076 H 6102.09 -1.43939 -0.741158 0
M  V30 61077 H 6104.09 -1.31634 -3.82694 0
M  V30 61078 H 6102.66 -0.566691 -3.07421 0
M  V30 61079 H 6101.88 -2.99842 -2.55907 0
M  V30 61080 H 6103.16 -3.5503 -3.64461 0
M  V30 61081 H 6102.56 -1.01439 -5.56531 0
M  V30 61082 H 6101.12 -1.54486 -6.33228 0
M  V30 61083 N 6104.55 0.801406 -1.35703 0
M  V30 61084 C 6105.78 1.59514 -1.32552 0
M  V30 61085 C 6106.2 1.87868 0.0933583 0
M  V30 61086 O 6105.56 1.46958 1.06174 0
M  V30 61087 C 6105.61 2.9002 -2.14291 0
M  V30 61088 O 6104.71 3.83081 -1.52718 0
M  V30 61089 H 6104.05 0.484324 -0.454232 0
M  V30 61090 H 6106.58 0.994252 -1.78818 0
M  V30 61091 H 6106.59 3.39398 -2.26435 0
M  V30 61092 H 6105.27 2.68708 -3.17441 0
M  V30 61093 H 6103.85 3.41645 -1.49444 0
M  V30 61094 N 6106.03 1.19785 1.02417 0
M  V30 61095 C 6107.26 1.02728 1.7925 0
M  V30 61096 C 6107.67 -0.426904 1.84321 0
M  V30 61097 O 6107.01 -1.30827 1.28957 0
M  V30 61098 C 6107.07 1.52606 3.25502 0
M  V30 61099 C 6106.74 3.0079 3.44056 0
M  V30 61100 C 6107.74 3.98513 3.33891 0
M  V30 61101 C 6105.42 3.39585 3.70118 0
M  V30 61102 C 6107.41 5.33024 3.4952 0
M  V30 61103 C 6105.1 4.74254 3.85391 0
M  V30 61104 C 6106.1 5.70782 3.75096 0
M  V30 61105 O 6105.79 7.0301 3.89912 0
M  V30 61106 H 6105.52 0.362172 0.570796 0
M  V30 61107 H 6108.07 1.59145 1.29854 0
M  V30 61108 H 6106.3 0.905682 3.75945 0
M  V30 61109 H 6107.99 1.31684 3.83945 0
M  V30 61110 H 6108.76 3.69886 3.13702 0
M  V30 61111 H 6104.64 2.64999 3.77222 0
M  V30 61112 H 6108.18 6.08352 3.414 0
M  V30 61113 H 6104.08 5.02575 4.05079 0
M  V30 61114 H 6104.85 7.1015 4.06975 0
M  V30 61115 N 6107.51 -1.21603 1.00253 0
M  V30 61116 C 6108.93 -1.42693 0.714912 0
M  V30 61117 C 6109.13 -1.88545 -0.710851 0
M  V30 61118 O 6108.18 -2.0454 -1.48052 0
M  V30 61119 C 6109.49 -2.46044 1.72867 0
M  V30 61120 C 6111.04 -2.5983 1.74521 0
M  V30 61121 C 6111.52 -3.66411 2.74785 0
M  V30 61122 N 6113.01 -3.7388 2.73438 0
M  V30 61123 C 6113.74 -4.55967 3.4768 0
M  V30 61124 N 6113.24 -5.41972 4.31554 0
M  V30 61125 N 6115.03 -4.50367 3.36341 0
M  V30 61126 H 6107.18 -0.901497 1.92319 0
M  V30 61127 H 6109.45 -0.458099 0.82997 0
M  V30 61128 H 6109.15 -2.19319 2.7494 0
M  V30 61129 H 6109.03 -3.44807 1.52932 0
M  V30 61130 H 6111.41 -2.85892 0.731404 0
M  V30 61131 H 6111.49 -1.6131 1.98527 0
M  V30 61132 H 6111.14 -3.41094 3.7632 0
M  V30 61133 H 6111.07 -4.64522 2.48045 0
M  V30 61134 H 6113.56 -3.12435 2.12585 0
M  V30 61135 H 6113.87 -6.01656 4.85005 0
M  V30 61136 H 6112.22 -5.41521 4.35637 0
M  V30 61137 H 6115.41 -3.82207 2.7025 0
M  V30 61138 H 6115.58 -5.14108 3.94458 0
M  V30 61139 N 6108.99 -0.776943 -1.37118 0
M  V30 61140 C 6110.24 -0.342946 -1.99169 0
M  V30 61141 C 6110.56 1.08569 -1.61981 0
M  V30 61142 O 6109.83 1.7463 -0.88775 0
M  V30 61143 H 6108.41 -0.123814 -0.736668 0
M  V30 61144 H 6111.07 -0.996221 -1.67515 0
M  V30 61145 H 6110.16 -0.424745 -3.09196 0
M  V30 61146 N 6110.47 1.48495 -0.527912 0
M  V30 61147 C 6111.69 2.069 0.0029532 0
M  V30 61148 C 6112.11 1.38473 1.28338 0
M  V30 61149 O 6111.47 0.471586 1.76302 0
M  V30 61150 C 6111.52 3.6075 0.232744 0
M  V30 61151 O 6111.24 4.26606 -0.996946 0
M  V30 61152 C 6112.74 4.35944 0.804222 0
M  V30 61153 H 6109.96 0.670209 -0.0325794 0
M  V30 61154 H 6112.5 1.90913 -0.732965 0
M  V30 61155 H 6110.66 3.76349 0.918705 0
M  V30 61156 H 6111.07 5.18722 -0.7764 0
M  V30 61157 H 6112.55 5.44373 0.914444 0
M  V30 61158 H 6113.02 4.00232 1.80862 0
M  V30 61159 H 6113.63 4.25018 0.154891 0
M  V30 61160 N 6111.94 0.262948 1.55391 0
M  V30 61161 C 6113.19 -0.357296 1.99323 0
M  V30 61162 C 6113.52 -1.56768 1.15126 0
M  V30 61163 O 6112.77 -1.94613 0.205935 0
M  V30 61164 C 6113.07 -0.795191 3.48441 0
M  V30 61165 C 6112.74 0.309205 4.49839 0
M  V30 61166 C 6111.4 0.612485 4.77286 0
M  V30 61167 C 6113.75 1.05399 5.10432 0
M  V30 61168 C 6111.08 1.66435 5.62598 0
M  V30 61169 C 6113.43 2.09549 5.96885 0
M  V30 61170 C 6112.1 2.40525 6.22659 0
M  V30 61171 H 6111.37 -0.130744 0.729374 0
M  V30 61172 H 6114.01 0.374123 1.8781 0
M  V30 61173 H 6112.32 -1.60608 3.57368 0
M  V30 61174 H 6114.02 -1.28564 3.79832 0
M  V30 61175 H 6110.61 0.0626975 4.28554 0
M  V30 61176 H 6114.79 0.832945 4.8926 0
M  V30 61177 H 6110.05 1.90949 5.80817 0
M  V30 61178 H 6114.22 2.67742 6.42874 0
M  V30 61179 H 6111.85 3.22167 6.88558 0
M  V30 61180 N 6113.42 -1.57597 -0.00995191 0
M  V30 61181 C 6114.65 -1.94804 -0.711783 0
M  V30 61182 C 6115.07 -0.864402 -1.67062 0
M  V30 61183 O 6114.43 0.178325 -1.80421 0
M  V30 61184 C 6114.48 -3.31099 -1.4285 0
M  V30 61185 O 6113.58 -3.24699 -2.54253 0
M  V30 61186 H 6112.92 -0.636214 -0.190073 0
M  V30 61187 H 6115.45 -2.0456 0.0402735 0
M  V30 61188 H 6115.46 -3.66434 -1.79416 0
M  V30 61189 H 6114.14 -4.09525 -0.725405 0
M  V30 61190 H 6112.71 -3.01024 -2.20088 0
M  V30 61191 N 6114.9 0.282551 -1.55046 0
M  V30 61192 C 6116.13 1.03389 -1.79216 0
M  V30 61193 C 6116.54 1.80282 -0.560715 0
M  V30 61194 O 6115.9 1.76344 0.469987 0
M  V30 61195 C 6115.95 1.99999 -3.01135 0
M  V30 61196 O 6115.67 1.26223 -4.19523 0
M  V30 61197 C 6117.17 2.87023 -3.37835 0
M  V30 61198 H 6114.39 0.305834 -0.597249 0
M  V30 61199 H 6116.94 0.316229 -2.0204 0
M  V30 61200 H 6115.09 2.67241 -2.80465 0
M  V30 61201 H 6115.51 1.9126 -4.88385 0
M  V30 61202 H 6116.98 3.50627 -4.26339 0
M  V30 61203 H 6117.46 3.56294 -2.5681 0
M  V30 61204 H 6118.06 2.25286 -3.60731 0
M  V30 61205 N 6116.38 1.47817 0.546623 0
M  V30 61206 C 6117.61 1.58618 1.32845 0
M  V30 61207 C 6118.02 0.240245 1.87265 0
M  V30 61208 O 6117.38 -0.76809 1.65549 0
M  V30 61209 C 6117.43 2.61978 2.49098 0
M  V30 61210 O 6117.15 3.91347 1.96925 0
M  V30 61211 C 6118.65 2.83063 3.4116 0
M  V30 61212 H 6115.87 0.535306 0.404584 0
M  V30 61213 H 6118.41 1.93518 0.661124 0
M  V30 61214 H 6116.57 2.29982 3.11748 0
M  V30 61215 H 6116.98 4.47914 2.72897 0
M  V30 61216 H 6118.46 3.59223 4.19121 0
M  V30 61217 H 6118.93 1.91272 3.95363 0
M  V30 61218 H 6119.54 3.16297 2.84317 0
M  V30 61219 N 6117.86 -0.794198 1.36126 0
M  V30 61220 C 6119.1 -1.55417 1.30283 0
M  V30 61221 C 6119.43 -1.93835 -0.119066 0
M  V30 61222 O 6118.71 -1.62334 -1.07135 0
M  V30 61223 C 6118.99 -2.83446 2.22104 0
M  V30 61224 C 6118.85 -2.51426 3.72968 0
M  V30 61225 C 6120.16 -3.85239 2.12789 0
M  V30 61226 H 6117.28 -0.563855 0.474591 0
M  V30 61227 H 6119.93 -0.912818 1.66636 0
M  V30 61228 H 6118.08 -3.38176 1.91232 0
M  V30 61229 H 6119.75 -2.02784 4.14338 0
M  V30 61230 H 6117.99 -1.84437 3.92639 0
M  V30 61231 H 6118.66 -3.42847 4.3262 0
M  V30 61232 H 6121.14 -3.39943 2.39954 0
M  V30 61233 H 6120.01 -4.72579 2.79214 0
M  V30 61234 H 6120.27 -4.27843 1.11368 0
M  V30 61235 N 6119.33 -1.20327 -1.0178 0
M  V30 61236 C 6120.56 -1.03828 -1.78962 0
M  V30 61237 C 6120.98 0.412557 -1.84237 0
M  V30 61238 O 6120.33 1.28646 -1.29447 0
M  V30 61239 C 6120.39 -1.61363 -3.23487 0
M  V30 61240 O 6120.11 -3.00769 -3.18543 0
M  V30 61241 C 6121.61 -1.498 -4.17223 0
M  V30 61242 H 6118.83 -0.365311 -0.56284 0
M  V30 61243 H 6121.37 -1.59387 -1.28125 0
M  V30 61244 H 6119.53 -1.09926 -3.71477 0
M  V30 61245 H 6119.94 -3.28048 -4.09249 0
M  V30 61246 H 6121.41 -1.94821 -5.16477 0
M  V30 61247 H 6121.89 -0.450296 -4.36886 0
M  V30 61248 H 6122.5 -2.00422 -3.75115 0
M  V30 61249 N 6120.81 1.21069 -1.00896 0
M  V30 61250 C 6122.06 1.89864 -0.692547 0
M  V30 61251 C 6122.38 1.78742 0.779499 0
M  V30 61252 O 6121.65 1.18487 1.56005 0
M  V30 61253 H 6120.23 0.70279 -0.253169 0
M  V30 61254 H 6122.89 1.4707 -1.27892 0
M  V30 61255 H 6121.99 2.9667 -0.969202 0
M  V30 61256 N 6122.29 0.784204 1.36704 0
M  V30 61257 C 6123.71 0.465272 1.52668 0
M  V30 61258 C 6123.91 -1.01722 1.73939 0
M  V30 61259 O 6122.96 -1.80282 1.76789 0
M  V30 61260 C 6124.28 1.29118 2.71568 0
M  V30 61261 C 6125.82 1.28434 2.85436 0
M  V30 61262 C 6126.3 2.09388 4.07334 0
M  V30 61263 N 6127.79 2.06806 4.1447 0
M  V30 61264 C 6128.52 2.66217 5.07854 0
M  V30 61265 N 6128.02 3.34466 6.06716 0
M  V30 61266 N 6129.81 2.55979 5.00431 0
M  V30 61267 H 6121.96 1.7446 1.2115 0
M  V30 61268 H 6124.23 0.741307 0.590904 0
M  V30 61269 H 6123.93 2.34229 2.62355 0
M  V30 61270 H 6123.81 0.928893 3.65584 0
M  V30 61271 H 6126.19 0.24118 2.94113 0
M  V30 61272 H 6126.28 1.68636 1.92342 0
M  V30 61273 H 6125.92 3.13732 3.99418 0
M  V30 61274 H 6125.85 1.6656 4.99565 0
M  V30 61275 H 6128.34 1.5713 3.43684 0
M  V30 61276 H 6128.65 3.77142 6.74525 0
M  V30 61277 H 6127 3.38567 6.06958 0
M  V30 61278 H 6130.19 2.02266 4.22145 0
M  V30 61279 H 6130.36 3.02573 5.73022 0
M  V30 61280 N 6123.77 -1.48213 0.535779 0
M  V30 61281 C 6125 -2.06898 0.00801924 0
M  V30 61282 C 6125.41 -1.39152 -1.27601 0
M  V30 61283 O 6124.77 -0.480929 -1.76049 0
M  V30 61284 C 6124.82 -3.60868 -0.213609 0
M  V30 61285 O 6124.54 -4.26071 1.01956 0
M  V30 61286 C 6126.04 -4.36364 -0.781092 0
M  V30 61287 H 6123.26 -0.670026 0.0361332 0
M  V30 61288 H 6125.81 -1.90522 0.743079 0
M  V30 61289 H 6123.96 -3.76831 -0.898733 0
M  V30 61290 H 6124.37 -5.18303 0.803898 0
M  V30 61291 H 6125.85 -5.4485 -0.885562 0
M  V30 61292 H 6126.33 -4.01185 -1.78737 0
M  V30 61293 H 6126.93 -4.25094 -0.132349 0
M  V30 61294 N 6125.25 -0.271185 -1.55249 0
M  V30 61295 C 6126.49 0.34796 -2.01416 0
M  V30 61296 C 6126.85 1.53343 -1.15542 0
M  V30 61297 O 6128.05 2.22194 -1.51272 0
M  V30 61298 C 6126.32 0.724287 -3.49984 0
M  V30 61299 S 6127.88 1.33052 -4.18142 0
M  V30 61300 H 6124.7 0.108407 -0.702687 0
M  V30 61301 H 6127.3 -0.3921 -1.91528 0
M  V30 61302 H 6126.01 -0.147434 -4.10135 0
M  V30 61303 H 6125.54 1.49591 -3.63849 0
M  V30 61304 H 6127.55 2.61919 -4.21441 0
M  V30 61305 N 6126.72 1.576 0.00159402 0
M  V30 61306 C 6127.66 2.0517 1.02166 0
M  V30 61307 C 6128.67 0.969339 1.30796 0
M  V30 61308 O 6129.86 1.24617 1.27801 0
M  V30 61309 C 6126.96 2.43533 2.3568 0
M  V30 61310 C 6126.13 3.74483 2.26012 0
M  V30 61311 C 6125.19 3.99731 3.42201 0
M  V30 61312 O 6124.22 4.70419 3.2046 0
M  V30 61313 N 6125.42 3.47502 4.64997 0
M  V30 61314 H 6128.18 2.93301 0.615992 0
M  V30 61315 H 6125.74 1.60793 0.18901 0
M  V30 61316 H 6127.74 2.57539 3.12179 0
M  V30 61317 H 6126.31 1.60929 2.67994 0
M  V30 61318 H 6125.53 3.70569 1.34434 0
M  V30 61319 H 6126.81 4.60335 2.16723 0
M  V30 61320 H 6126.21 2.90257 4.85559 0
M  V30 61321 H 6124.77 3.66841 5.38768 0
M  V30 61322 N 6128.2 -0.274325 1.55194 0
M  V30 61323 C 6129.43 -1.02865 1.80093 0
M  V30 61324 C 6129.85 -1.792 0.571739 0
M  V30 61325 O 6129.21 -1.74868 -0.478618 0
M  V30 61326 C 6129.26 -1.96396 3.02425 0
M  V30 61327 O 6128.36 -3.05144 2.77418 0
M  V30 61328 H 6127.7 -0.29416 0.595287 0
M  V30 61329 H 6130.23 -0.303636 2.02334 0
M  V30 61330 H 6130.24 -2.38374 3.31122 0
M  V30 61331 H 6128.92 -1.40247 3.9154 0
M  V30 61332 H 6127.5 -2.6749 2.59814 0
M  V30 61333 N 6129.68 -1.48105 -0.538776 0
M  V30 61334 C 6130.93 -1.56885 -1.29456 0
M  V30 61335 C 6131.28 -0.23586 -1.90949 0
M  V30 61336 O 6130.57 0.7604 -1.75865 0
M  V30 61337 C 6130.77 -2.63712 -2.41228 0
M  V30 61338 C 6130.6 -4.07268 -1.9069 0
M  V30 61339 C 6129.37 -4.74509 -1.73693 0
M  V30 61340 C 6131.57 -4.93713 -1.44056 0
M  V30 61341 N 6129.55 -6.02514 -1.17688 0
M  V30 61342 C 6130.92 -6.11892 -0.999393 0
M  V30 61343 C 6132.97 -4.80007 -1.32277 0
M  V30 61344 C 6131.68 -7.17878 -0.452133 0
M  V30 61345 C 6133.7 -5.86106 -0.789513 0
M  V30 61346 C 6133.06 -7.03488 -0.358376 0
M  V30 61347 H 6129.16 -0.628684 -0.465059 0
M  V30 61348 H 6131.75 -1.84944 -0.608576 0
M  V30 61349 H 6129.92 -2.37489 -3.07333 0
M  V30 61350 H 6131.65 -2.62228 -3.08251 0
M  V30 61351 H 6128.41 -4.30703 -1.96956 0
M  V30 61352 H 6128.83 -6.70758 -0.917205 0
M  V30 61353 H 6133.47 -3.89606 -1.64217 0
M  V30 61354 H 6131.19 -8.0801 -0.120393 0
M  V30 61355 H 6134.78 -5.77553 -0.701677 0
M  V30 61356 H 6133.66 -7.84185 0.0478454 0
M  V30 61357 N 6131.16 0.786968 -1.36545 0
M  V30 61358 C 6132.38 1.58099 -1.34237 0
M  V30 61359 C 6132.81 1.87957 0.0734271 0
M  V30 61360 O 6132.17 1.48076 1.04609 0
M  V30 61361 C 6132.21 2.87731 -2.17355 0
M  V30 61362 O 6131.32 3.8144 -1.56772 0
M  V30 61363 H 6130.66 0.479479 -0.459343 0
M  V30 61364 H 6133.19 0.97523 -1.79862 0
M  V30 61365 H 6133.2 3.36978 -2.30022 0
M  V30 61366 H 6131.87 2.65326 -3.20273 0
M  V30 61367 H 6130.45 3.4004 -1.53059 0
M  V30 61368 N 6132.64 1.20865 1.01141 0
M  V30 61369 C 6133.86 1.04849 1.78945 0
M  V30 61370 C 6134.29 -0.397612 1.8385 0
M  V30 61371 O 6133.64 -1.28658 1.27737 0
M  V30 61372 C 6133.69 1.64278 3.21006 0
M  V30 61373 O 6132.8 0.883914 4.02816 0
M  V30 61374 H 6132.14 0.369429 0.551741 0
M  V30 61375 H 6134.67 1.6027 1.2718 0
M  V30 61376 H 6134.68 1.68231 3.71702 0
M  V30 61377 H 6133.35 2.6952 3.16751 0
M  V30 61378 H 6131.93 0.918993 3.61399 0
M  V30 61379 N 6134.12 -1.20532 1.01537 0
M  V30 61380 C 6135.05 -2.21977 0.529276 0
M  V30 61381 C 6136.03 -1.57012 -0.422621 0
M  V30 61382 O 6137.21 -1.85355 -0.34291 0
M  V30 61383 C 6134.34 -3.37919 -0.229914 0
M  V30 61384 C 6133.38 -4.21183 0.67135 0
M  V30 61385 S 6134.22 -4.9089 2.13979 0
M  V30 61386 C 6135.37 -6.10254 1.39073 0
M  V30 61387 H 6135.61 -2.62866 1.38884 0
M  V30 61388 H 6133.14 -1.30564 0.824159 0
M  V30 61389 H 6135.1 -4.0513 -0.661836 0
M  V30 61390 H 6133.76 -2.95493 -1.06503 0
M  V30 61391 H 6132.95 -5.03927 0.0860111 0
M  V30 61392 H 6132.55 -3.5922 1.041 0
M  V30 61393 H 6134.84 -6.74178 0.670078 0
M  V30 61394 H 6135.79 -6.73244 2.19426 0
M  V30 61395 H 6136.2 -5.57374 0.894149 0
M  V30 61396 N 6135.59 -0.791442 -1.36286 0
M  V30 61397 C 6136.82 -0.376767 -2.03441 0
M  V30 61398 C 6137.24 1.00748 -1.59673 0
M  V30 61399 O 6136.59 1.64654 -0.787099 0
M  V30 61400 C 6136.64 -0.433201 -3.58895 0
M  V30 61401 O 6136.37 -1.76286 -4.01067 0
M  V30 61402 C 6137.87 -0.00941059 -4.43299 0
M  V30 61403 H 6135.09 -0.155012 -0.652849 0
M  V30 61404 H 6137.63 -1.07085 -1.74221 0
M  V30 61405 H 6135.79 0.212487 -3.86817 0
M  V30 61406 H 6136.2 -1.71509 -4.95666 0
M  V30 61407 H 6137.67 -0.100033 -5.51909 0
M  V30 61408 H 6138.15 1.04347 -4.26624 0
M  V30 61409 H 6138.76 -0.627665 -4.20643 0
M  V30 61410 N 6137.07 1.47927 -0.543632 0
M  V30 61411 C 6138.48 1.86395 -0.106695 0
M  V30 61412 C 6138.83 1.45175 1.31979 0
M  V30 61413 O 6137.96 0.848628 1.99066 0
M  V30 61414 C 6138.55 3.38284 -0.186852 0
M  V30 61415 C 6137.11 3.75895 0.194966 0
M  V30 61416 C 6136.26 2.71981 -0.540522 0
M  V30 61417 H 6139.21 1.39638 -0.754125 0
M  V30 61418 H 6139.23 3.75771 0.598018 0
M  V30 61419 H 6138.74 3.68254 -1.22518 0
M  V30 61420 H 6136.84 3.5154 1.23492 0
M  V30 61421 H 6136.96 4.78852 -0.154144 0
M  V30 61422 H 6135.32 2.54696 0.0148256 0
M  V30 61423 H 6136.1 3.04794 -1.57974 0
M  V30 61424 N 6138.55 0.279414 1.55103 0
M  V30 61425 C 6139.5 -0.620804 2.19386 0
M  V30 61426 C 6140.48 -1.11518 1.15985 0
M  V30 61427 O 6141.68 -1.05954 1.41784 0
M  V30 61428 C 6138.8 -1.80247 2.92174 0
M  V30 61429 C 6137.89 -1.32507 4.02868 0
M  V30 61430 N 6138.28 -0.564129 5.02644 0
M  V30 61431 C 6136.58 -1.60767 4.16017 0
M  V30 61432 C 6137.28 -0.312597 5.80859 0
M  V30 61433 N 6136.26 -0.88625 5.36327 0
M  V30 61434 H 6140.06 -0.0316362 2.93883 0
M  V30 61435 H 6137.57 0.0831701 1.62187 0
M  V30 61436 H 6139.57 -2.45872 3.36679 0
M  V30 61437 H 6138.23 -2.39555 2.19189 0
M  V30 61438 H 6139.24 -0.211061 5.1747 0
M  V30 61439 H 6135.92 -2.20979 3.54224 0
M  V30 61440 H 6137.31 0.297121 6.71243 0
M  V30 61441 N 6140.03 -1.57599 0.00676391 0
M  V30 61442 C 6141.44 -1.55729 -0.349397 0
M  V30 61443 C 6141.64 -1.0101 -1.74354 0
M  V30 61444 O 6140.7 -0.646903 -2.44073 0
M  V30 61445 C 6142.01 -2.99906 -0.218441 0
M  V30 61446 C 6143.56 -3.11627 -0.292877 0
M  V30 61447 C 6144.04 -4.57602 -0.190968 0
M  V30 61448 N 6145.53 -4.62532 -0.248657 0
M  V30 61449 C 6146.26 -5.73074 -0.193246 0
M  V30 61450 N 6145.76 -6.92744 -0.0880398 0
M  V30 61451 N 6147.55 -5.61563 -0.245605 0
M  V30 61452 H 6139.7 -1.91504 0.918684 0
M  V30 61453 H 6141.96 -0.879919 0.35277 0
M  V30 61454 H 6141.67 -3.43805 0.741035 0
M  V30 61455 H 6141.54 -3.63764 -0.997777 0
M  V30 61456 H 6143.93 -2.67654 -1.2428 0
M  V30 61457 H 6144.01 -2.50532 0.516446 0
M  V30 61458 H 6143.66 -5.0225 0.75544 0
M  V30 61459 H 6143.59 -5.16649 -1.01887 0
M  V30 61460 H 6146.08 -3.76447 -0.331024 0
M  V30 61461 H 6146.39 -7.72783 -0.0518403 0
M  V30 61462 H 6144.74 -6.94979 -0.0535712 0
M  V30 61463 H 6147.93 -4.66963 -0.32604 0
M  V30 61464 H 6148.1 -6.47694 -0.198958 0
M  V30 61465 N 6141.51 0.266091 -1.55337 0
M  V30 61466 C 6142.46 1.33153 -1.85079 0
M  V30 61467 C 6143.44 1.44378 -0.710193 0
M  V30 61468 O 6144.63 1.47943 -0.971696 0
M  V30 61469 C 6141.76 2.69055 -2.13223 0
M  V30 61470 C 6140.85 2.61912 -3.33561 0
M  V30 61471 N 6141.24 2.24391 -4.53302 0
M  V30 61472 C 6139.54 2.92961 -3.36288 0
M  V30 61473 C 6140.24 2.27409 -5.35406 0
M  V30 61474 N 6139.21 2.66156 -4.73985 0
M  V30 61475 H 6143.01 1.03162 -2.75199 0
M  V30 61476 H 6140.53 0.474728 -1.55306 0
M  V30 61477 H 6142.53 3.45921 -2.32689 0
M  V30 61478 H 6141.19 2.99928 -1.24391 0
M  V30 61479 H 6142.2 1.96254 -4.79275 0
M  V30 61480 H 6138.87 3.28501 -2.5767 0
M  V30 61481 H 6140.26 2.00903 -6.41161 0
M  V30 61482 N 6142.98 1.48388 0.530914 0
M  V30 61483 C 6143.92 1.58928 1.6515 0
M  V30 61484 C 6144.93 0.473637 1.55758 0
M  V30 61485 O 6146.12 0.74444 1.62235 0
M  V30 61486 C 6143.22 1.50211 3.03792 0
M  V30 61487 C 6142.39 2.76799 3.38675 0
M  V30 61488 C 6141.45 2.6155 4.56594 0
M  V30 61489 O 6140.48 3.35434 4.59862 0
M  V30 61490 N 6141.68 1.71106 5.5471 0
M  V30 61491 H 6144.44 2.55565 1.56546 0
M  V30 61492 H 6142 1.451 0.718165 0
M  V30 61493 H 6144 1.37706 3.80551 0
M  V30 61494 H 6142.57 0.615527 3.0648 0
M  V30 61495 H 6141.79 3.03876 2.51104 0
M  V30 61496 H 6143.07 3.60783 3.58766 0
M  V30 61497 H 6142.47 1.1028 5.54847 0
M  V30 61498 H 6141.03 1.6454 6.3069 0
M  V30 61499 N 6144.46 -0.779715 1.36961 0
M  V30 61500 C 6145.88 -1.07915 1.17586 0
M  V30 61501 C 6146.08 -2.01499 0.00656312 0
M  V30 61502 O 6145.13 -2.43835 -0.655819 0
M  V30 61503 C 6146.45 -1.6843 2.49102 0
M  V30 61504 C 6147.99 -1.80726 2.55553 0
M  V30 61505 C 6148.47 -2.44655 3.87179 0
M  V30 61506 N 6149.96 -2.52114 3.88578 0
M  V30 61507 C 6150.7 -3.02412 4.8717 0
M  V30 61508 N 6150.19 -3.52943 5.96157 0
M  V30 61509 N 6151.98 -3.01213 4.74581 0
M  V30 61510 H 6144.14 -0.158175 2.1181 0
M  V30 61511 H 6146.4 -0.132793 0.938653 0
M  V30 61512 H 6146.1 -1.07135 3.34985 0
M  V30 61513 H 6145.98 -2.67823 2.65614 0
M  V30 61514 H 6148.37 -2.41156 1.70081 0
M  V30 61515 H 6148.45 -0.801113 2.42932 0
M  V30 61516 H 6148.09 -1.84866 4.73061 0
M  V30 61517 H 6148.02 -3.4586 3.971 0
M  V30 61518 H 6150.51 -2.16344 3.09845 0
M  V30 61519 H 6150.82 -3.89702 6.67347 0
M  V30 61520 H 6149.17 -3.51069 5.99813 0
M  V30 61521 H 6152.36 -2.61031 3.88562 0
M  V30 61522 H 6152.53 -3.40103 5.51574 0
M  V30 61523 N 6145.94 -1.21399 -1.00498 0
M  V30 61524 C 6147.17 -1.0572 -1.77851 0
M  V30 61525 C 6147.58 0.392993 -1.84665 0
M  V30 61526 O 6146.94 1.27265 -1.30804 0
M  V30 61527 C 6146.99 -1.64785 -3.21758 0
M  V30 61528 O 6146.71 -3.04131 -3.15335 0
M  V30 61529 C 6148.21 -1.54217 -4.1561 0
M  V30 61530 H 6145.43 -0.37126 -0.558934 0
M  V30 61531 H 6147.98 -1.60737 -1.26427 0
M  V30 61532 H 6146.13 -1.1386 -3.7029 0
M  V30 61533 H 6146.55 -3.3237 -4.05747 0
M  V30 61534 H 6148.02 -2.00288 -5.14382 0
M  V30 61535 H 6148.5 -0.496608 -4.36383 0
M  V30 61536 H 6149.1 -2.0439 -3.72968 0
M  V30 61537 N 6147.42 1.19992 -1.02175 0
M  V30 61538 C 6148.83 1.71199 -0.744837 0
M  V30 61539 C 6149.18 1.81865 0.736175 0
M  V30 61540 O 6148.3 1.4848 1.57425 0
M  V30 61541 C 6148.9 3.1094 -1.34542 0
M  V30 61542 C 6147.46 3.59436 -1.11726 0
M  V30 61543 C 6146.61 2.36496 -1.44792 0
M  V30 61544 H 6149.56 1.04934 -1.19057 0
M  V30 61545 H 6149.58 3.73261 -0.738662 0
M  V30 61546 H 6149.09 3.03145 -2.42332 0
M  V30 61547 H 6147.19 3.72556 -0.0572656 0
M  V30 61548 H 6147.3 4.43963 -1.80095 0
M  V30 61549 H 6145.67 2.39487 -0.867065 0
M  V30 61550 H 6146.45 2.31338 -2.53649 0
M  V30 61551 N 6148.9 0.798659 1.35865 0
M  V30 61552 C 6149.81 0.20484 2.33704 0
M  V30 61553 C 6150.82 -0.647944 1.61486 0
M  V30 61554 O 6152 -0.56156 1.93413 0
M  V30 61555 C 6149.06 -0.643105 3.40683 0
M  V30 61556 C 6148.12 0.229249 4.28687 0
M  V30 61557 C 6147.36 -0.578321 5.30557 0
M  V30 61558 O 6147.58 -1.81363 5.40799 0
M  V30 61559 O 6146.51 0.0266407 6.01894 0
M  V30 61560 H 6150.34 1.01402 2.86271 0
M  V30 61561 H 6147.93 0.560291 1.38496 0
M  V30 61562 H 6149.81 -1.12634 4.06068 0
M  V30 61563 H 6148.48 -1.43002 2.904 0
M  V30 61564 H 6147.39 0.759443 3.6631 0
M  V30 61565 H 6148.72 0.979906 4.82347 0
M  V30 61566 N 6150.37 -1.47637 0.551469 0
M  V30 61567 C 6151.32 -2.31627 -0.212573 0
M  V30 61568 C 6152.32 -1.42571 -0.914875 0
M  V30 61569 O 6153.52 -1.59366 -0.836813 0
M  V30 61570 H 6149.9 -0.746901 -0.0874231 0
M  V30 61571 H 6151.87 -2.93921 0.515079 0
M  V30 61572 C 6150.62 -3.25102 -1.23305 0
M  V30 61573 H 6149.94 -3.93588 -0.702058 0
M  V30 61574 H 6151.38 -3.86713 -1.73865 0
M  V30 61575 C 6149.84 -2.48217 -2.27793 0
M  V30 61576 O 6150.37 -2.22247 -3.34618 0
M  V30 61577 N 6148.58 -2.09328 -2.01569 0
M  V30 61578 H 6148.12 -2.30649 -1.14711 0
M  V30 61579 H 6148.08 -1.58201 -2.71698 0
M  V30 61580 N 6151.85 -0.287636 -1.54953 0
M  V30 61581 C 6153.08 0.328052 -2.03979 0
M  V30 61582 C 6153.49 1.49079 -1.165 0
M  V30 61583 O 6152.83 1.82813 -0.180351 0
M  V30 61584 C 6152.9 0.859643 -3.49071 0
M  V30 61585 C 6152.56 -0.176079 -4.56661 0
M  V30 61586 C 6153.56 -0.999938 -5.10193 0
M  V30 61587 C 6151.24 -0.313928 -5.01318 0
M  V30 61588 C 6153.24 -1.94771 -6.06913 0
M  V30 61589 C 6150.92 -1.26516 -5.9786 0
M  V30 61590 C 6151.92 -2.08055 -6.5054 0
M  V30 61591 O 6151.61 -3.01568 -7.45192 0
M  V30 61592 H 6151.34 0.0772069 -0.671577 0
M  V30 61593 H 6153.89 -0.421221 -2.01035 0
M  V30 61594 H 6152.12 1.65921 -3.49295 0
M  V30 61595 H 6153.81 1.38977 -3.81366 0
M  V30 61596 H 6154.58 -0.904241 -4.76496 0
M  V30 61597 H 6150.46 0.31076 -4.59951 0
M  V30 61598 H 6154 -2.58455 -6.47956 0
M  V30 61599 H 6149.9 -1.36163 -6.30975 0
M  V30 61600 H 6150.67 -2.96393 -7.6295 0
M  V30 61601 N 6153.33 1.57593 -0.0151216 0
M  V30 61602 C 6154.74 1.79148 0.525646 0
M  V30 61603 C 6155.09 0.924046 1.73078 0
M  V30 61604 O 6154.22 0.130608 2.16006 0
M  V30 61605 C 6154.81 3.24903 0.960378 0
M  V30 61606 C 6153.37 3.47502 1.44635 0
M  V30 61607 C 6152.52 2.74333 0.404532 0
M  V30 61608 H 6155.47 1.56856 -0.24123 0
M  V30 61609 H 6155.49 3.33846 1.82557 0
M  V30 61610 H 6155 3.88011 0.0830661 0
M  V30 61611 H 6153.1 2.89629 2.34406 0
M  V30 61612 H 6153.22 4.56204 1.46338 0
M  V30 61613 H 6151.58 2.39397 0.869543 0
M  V30 61614 H 6152.36 3.40149 -0.464073 0
M  V30 61615 N 6154.81 -0.257849 1.55476 0
M  V30 61616 C 6155.76 -1.33887 1.90203 0
M  V30 61617 C 6156.75 -1.50378 0.779921 0
M  V30 61618 O 6157.96 -1.51983 0.964429 0
M  V30 61619 H 6154.33 -0.448094 0.603917 0
M  V30 61620 H 6156.3 -1.01858 2.80477 0
M  V30 61621 C 6155.05 -2.68947 2.2037 0
M  V30 61622 H 6154.37 -2.57053 3.06209 0
M  V30 61623 H 6155.81 -3.43489 2.48579 0
M  V30 61624 C 6154.27 -3.21204 1.01634 0
M  V30 61625 O 6154.8 -4.00866 0.258707 0
M  V30 61626 N 6153.01 -2.79085 0.809923 0
M  V30 61627 H 6152.56 -2.14415 1.42772 0
M  V30 61628 H 6152.51 -3.14395 0.0171277 0
M  V30 61629 N 6156.29 -1.48668 -0.523038 0
M  V30 61630 C 6157.56 -1.4753 -1.2843 0
M  V30 61631 C 6157.94 -0.190793 -2.10236 0
M  V30 61632 O 6157.29 0.827348 -2.12996 0
M  V30 61633 C 6157.5 -2.7414 -2.15983 0
M  V30 61634 C 6158.85 -3.22749 -2.75896 0
M  V30 61635 O 6159.87 -2.75105 -2.26265 0
M  V30 61636 O 6158.73 -4.0567 -3.66189 0
M  V30 61637 H 6155.83 -0.589498 -0.580018 0
M  V30 61638 H 6158.37 -1.60909 -0.53912 0
M  V30 61639 H 6157.14 -3.59135 -1.55363 0
M  V30 61640 H 6156.77 -2.63515 -2.97734 0
M  V30 61641 N 6157.76 0.772441 -1.37372 0
M  V30 61642 C 6159.01 1.52795 -1.3228 0
M  V30 61643 C 6159.33 1.94781 0.0924725 0
M  V30 61644 O 6158.6 1.66243 1.03634 0
M  V30 61645 H 6157.18 0.56671 -0.486671 0
M  V30 61646 H 6159.85 0.919375 -1.71853 0
M  V30 61647 H 6158.94 2.42767 -1.9614 0
M  V30 61648 N 6159.24 1.21931 0.998532 0
M  V30 61649 C 6160.17 1.00853 2.10597 0
M  V30 61650 C 6161.15 -0.0686733 1.69961 0
M  V30 61651 O 6162.34 0.0924368 1.9398 0
M  V30 61652 C 6159.47 0.579411 3.42433 0
M  V30 61653 C 6158.42 1.6019 3.96892 0
M  V30 61654 C 6157.75 1.02881 5.24709 0
M  V30 61655 C 6159.05 2.99045 4.28217 0
M  V30 61656 H 6160.74 1.93477 2.28488 0
M  V30 61657 H 6158.29 0.931651 1.09801 0
M  V30 61658 H 6160.24 0.419091 4.19311 0
M  V30 61659 H 6158.97 -0.382494 3.24352 0
M  V30 61660 H 6157.62 1.7499 3.2214 0
M  V30 61661 H 6157.27 0.0584309 5.02966 0
M  V30 61662 H 6156.97 1.71185 5.62111 0
M  V30 61663 H 6158.5 0.879955 6.04226 0
M  V30 61664 H 6159.91 2.87651 4.95913 0
M  V30 61665 H 6158.31 3.64421 4.76778 0
M  V30 61666 H 6159.38 3.49402 3.36224 0
M  V30 61667 N 6160.72 -1.19449 1.02809 0
M  V30 61668 C 6161.95 -1.93072 0.743692 0
M  V30 61669 C 6162.36 -1.75449 -0.697363 0
M  V30 61670 O 6161.72 -1.07588 -1.47415 0
M  V30 61671 C 6161.77 -3.44851 1.08443 0
M  V30 61672 O 6161.49 -3.61907 2.4689 0
M  V30 61673 C 6162.99 -4.35599 0.822724 0
M  V30 61674 H 6160.21 -0.613318 0.272181 0
M  V30 61675 H 6162.76 -1.51612 1.37237 0
M  V30 61676 H 6160.91 -3.84147 0.500947 0
M  V30 61677 H 6161.33 -4.55776 2.59554 0
M  V30 61678 H 6162.8 -5.40702 1.11111 0
M  V30 61679 H 6163.28 -4.38528 -0.242872 0
M  V30 61680 H 6163.88 -4.01982 1.38891 0
M  V30 61681 N 6162.2 -0.805853 -1.35439 0
M  V30 61682 C 6163.13 -0.16127 -2.27629 0
M  V30 61683 C 6164.11 0.672315 -1.4805 0
M  V30 61684 O 6165.29 0.639754 -1.77312 0
M  V30 61685 C 6162.42 0.776349 -3.29682 0
M  V30 61686 C 6161.47 0.0224791 -4.26494 0
M  V30 61687 S 6162.3 -1.31306 -5.19152 0
M  V30 61688 C 6163.46 -0.379872 -6.24746 0
M  V30 61689 H 6163.69 -0.942905 -2.81951 0
M  V30 61690 H 6161.22 -0.600877 -1.42228 0
M  V30 61691 H 6163.18 1.31182 -3.88975 0
M  V30 61692 H 6161.84 1.53136 -2.74241 0
M  V30 61693 H 6161.03 0.734578 -4.98618 0
M  V30 61694 H 6160.64 -0.443005 -3.71367 0
M  V30 61695 H 6162.93 0.435134 -6.76101 0
M  V30 61696 H 6163.87 -1.07028 -6.99965 0
M  V30 61697 H 6164.28 0.0241075 -5.64495 0
M  V30 61698 N 6163.68 1.47342 -0.559291 0
M  V30 61699 C 6164.63 2.31736 0.200286 0
M  V30 61700 C 6165.62 1.43054 0.907301 0
M  V30 61701 O 6166.83 1.59807 0.82835 0
M  V30 61702 H 6163.2 0.747354 0.0834608 0
M  V30 61703 H 6165.17 2.93644 -0.530659 0
M  V30 61704 C 6163.92 3.25751 1.21579 0
M  V30 61705 H 6163.24 3.93954 0.681175 0
M  V30 61706 H 6164.68 3.8763 1.71811 0
M  V30 61707 C 6163.14 2.49422 2.26474 0
M  V30 61708 O 6163.67 2.24018 3.33435 0
M  V30 61709 N 6161.88 2.10394 2.00456 0
M  V30 61710 H 6161.43 2.31254 1.13486 0
M  V30 61711 H 6161.38 1.5964 2.70855 0
M  V30 61712 N 6165.16 0.295849 1.54798 0
M  V30 61713 C 6166.39 -0.31723 2.0415 0
M  V30 61714 C 6166.79 -1.48459 1.17289 0
M  V30 61715 O 6166.14 -1.82714 0.190043 0
M  V30 61716 C 6166.2 -0.841118 3.49522 0
M  V30 61717 C 6165.86 0.200294 4.56561 0
M  V30 61718 C 6166.86 1.02698 5.09656 0
M  V30 61719 C 6164.54 0.340509 5.01145 0
M  V30 61720 C 6166.54 1.97987 6.05871 0
M  V30 61721 C 6164.23 1.29685 5.97181 0
M  V30 61722 C 6165.22 2.11502 6.49427 0
M  V30 61723 O 6164.91 3.05516 7.43583 0
M  V30 61724 H 6164.64 -0.0736443 0.671977 0
M  V30 61725 H 6167.2 0.431876 2.00808 0
M  V30 61726 H 6165.43 -1.64066 3.5017 0
M  V30 61727 H 6167.12 -1.36952 3.82098 0
M  V30 61728 H 6167.88 0.929498 4.7601 0
M  V30 61729 H 6163.76 -0.286364 4.6011 0
M  V30 61730 H 6167.31 2.61888 6.46576 0
M  V30 61731 H 6163.2 1.39508 6.30244 0
M  V30 61732 H 6163.97 3.00435 7.61368 0
M  V30 61733 N 6166.63 -1.57583 0.023479 0
M  V30 61734 C 6167.87 -1.9343 -0.660607 0
M  V30 61735 C 6168.24 -0.899694 -1.69616 0
M  V30 61736 O 6169.44 -1.14418 -2.43232 0
M  V30 61737 C 6167.71 -3.34224 -1.26606 0
M  V30 61738 S 6169.27 -3.91992 -1.972 0
M  V30 61739 H 6166.09 -0.67687 -0.217642 0
M  V30 61740 H 6168.69 -1.95312 0.0857937 0
M  V30 61741 H 6167.39 -4.07345 -0.499861 0
M  V30 61742 H 6166.92 -3.35773 -2.04988 0
M  V30 61743 H 6168.94 -3.74969 -3.24981 0
M  V30 61744 N 6168.11 0.2496 -1.55611 0
M  V30 61745 C 6169.53 0.59798 -1.47974 0
M  V30 61746 C 6169.73 1.88459 -0.713134 0
M  V30 61747 O 6168.78 2.51343 -0.241402 0
M  V30 61748 C 6170.1 0.703215 -2.92362 0
M  V30 61749 C 6171.64 0.795721 -3.02716 0
M  V30 61750 C 6172.12 0.932541 -4.48406 0
M  V30 61751 N 6173.61 0.997479 -4.52332 0
M  V30 61752 C 6174.35 1.12256 -5.62304 0
M  V30 61753 N 6173.84 1.21335 -6.82092 0
M  V30 61754 N 6175.63 1.1555 -5.50095 0
M  V30 61755 H 6167.79 -0.595047 -2.03894 0
M  V30 61756 H 6170.05 -0.204989 -0.925572 0
M  V30 61757 H 6169.75 -0.172105 -3.51279 0
M  V30 61758 H 6169.63 1.57602 -3.42697 0
M  V30 61759 H 6172.02 1.6615 -2.43882 0
M  V30 61760 H 6172.1 -0.102177 -2.55596 0
M  V30 61761 H 6171.74 0.0713338 -5.0785 0
M  V30 61762 H 6171.67 1.84544 -4.93205 0
M  V30 61763 H 6174.16 0.938766 -3.66054 0
M  V30 61764 H 6174.47 1.30779 -7.61654 0
M  V30 61765 H 6172.82 1.18298 -6.84858 0
M  V30 61766 H 6176.01 1.08104 -4.55446 0
M  V30 61767 H 6176.18 1.24954 -6.35838 0
M  V30 61768 N 6169.59 1.48943 0.515146 0
M  V30 61769 C 6170.54 1.65033 1.63911 0
M  V30 61770 C 6171.53 0.516459 1.61335 0
M  V30 61771 O 6172.74 0.695656 1.66014 0
M  V30 61772 H 6169.11 0.52014 0.5431 0
M  V30 61773 H 6171.08 2.59403 1.47489 0
M  V30 61774 C 6169.83 1.72103 3.02119 0
M  V30 61775 H 6169.16 2.58721 3.04801 0
M  V30 61776 H 6170.6 1.874 3.80338 0
M  V30 61777 C 6169.05 0.462805 3.33706 0
M  V30 61778 O 6169.58 -0.417785 3.99522 0
M  V30 61779 N 6167.79 0.330011 2.8872 0
M  V30 61780 H 6167.34 1.04758 2.35337 0
M  V30 61781 H 6167.3 -0.510803 3.10223 0
M  V30 61782 N 6171.07 -0.765145 1.3778 0
M  V30 61783 C 6172.48 -1.34182 1.29816 0
M  V30 61784 C 6172.83 -1.96133 -0.0512736 0
M  V30 61785 O 6171.95 -1.94275 -0.953205 0
M  V30 61786 C 6172.55 -2.43967 2.35087 0
M  V30 61787 C 6171.11 -2.97385 2.30737 0
M  V30 61788 C 6170.26 -1.70659 2.18565 0
M  V30 61789 H 6173.21 -0.564896 1.48306 0
M  V30 61790 H 6173.23 -3.23615 2.00134 0
M  V30 61791 H 6172.74 -1.98848 3.33289 0
M  V30 61792 H 6170.84 -3.46862 1.36079 0
M  V30 61793 H 6170.95 -3.52549 3.24416 0
M  V30 61794 H 6169.32 -1.9384 1.65222 0
M  V30 61795 H 6170.1 -1.27634 3.18692 0
M  V30 61796 N 6172.55 -1.22459 -0.992051 0
M  V30 61797 C 6173.82 -0.958151 -1.70525 0
M  V30 61798 C 6174.2 0.526523 -2.04428 0
M  V30 61799 O 6173.55 1.49477 -1.72826 0
M  V30 61800 C 6173.76 -1.85656 -2.95521 0
M  V30 61801 C 6175.11 -2.11314 -3.68282 0
M  V30 61802 O 6176.13 -1.83111 -3.0553 0
M  V30 61803 O 6174.99 -2.59085 -4.81183 0
M  V30 61804 H 6172.09 -0.360401 -0.744338 0
M  V30 61805 H 6174.63 -1.33448 -1.04832 0
M  V30 61806 H 6173.4 -2.86076 -2.66976 0
M  V30 61807 H 6173.03 -1.48187 -3.68953 0
M  V30 61808 N 6174.02 1.18902 -1.03441 0
M  V30 61809 C 6174.99 2.20527 -0.624539 0
M  V30 61810 C 6175.99 1.57689 0.314768 0
M  V30 61811 O 6177.18 1.73907 0.101021 0
M  V30 61812 C 6174.31 3.40793 0.0852968 0
M  V30 61813 H 6175.5 2.58303 -1.52379 0
M  V30 61814 H 6173.05 1.32676 -0.826236 0
M  V30 61815 H 6173.79 3.08541 0.998639 0
M  V30 61816 H 6173.57 3.8764 -0.589732 0
M  V30 61817 H 6175.06 4.16056 0.358792 0
M  V30 61818 N 6175.5 0.813024 1.3501 0
M  V30 61819 C 6176.78 0.319411 1.92974 0
M  V30 61820 C 6177.16 -1.1919 1.74232 0
M  V30 61821 O 6176.51 -1.99441 1.11514 0
M  V30 61822 C 6176.72 0.737873 3.41111 0
M  V30 61823 C 6178.06 0.731036 4.1826 0
M  V30 61824 O 6179.09 0.679824 3.49652 0
M  V30 61825 O 6177.95 0.795235 5.40683 0
M  V30 61826 H 6175.04 0.0850573 0.822614 0
M  V30 61827 H 6177.59 0.897153 1.44046 0
M  V30 61828 H 6176.36 1.77923 3.4851 0
M  V30 61829 H 6175.98 0.135288 3.9737 0
M  V30 61830 N 6176.98 -1.47043 0.567097 0
M  V30 61831 C 6178.21 -2.06835 0.0519037 0
M  V30 61832 C 6178.62 -1.41827 -1.24621 0
M  V30 61833 O 6177.98 -0.518163 -1.74989 0
M  V30 61834 C 6178.03 -3.6124 -0.137016 0
M  V30 61835 O 6177.75 -4.23813 1.1097 0
M  V30 61836 C 6179.25 -4.37923 -0.688357 0
M  V30 61837 H 6176.47 -0.669109 0.0503374 0
M  V30 61838 H 6179.02 -1.88903 0.783324 0
M  V30 61839 H 6177.17 -3.78652 -0.8186 0
M  V30 61840 H 6177.59 -5.16481 0.913657 0
M  V30 61841 H 6179.06 -5.46606 -0.769792 0
M  V30 61842 H 6179.54 -4.04886 -1.70187 0
M  V30 61843 H 6180.14 -4.25279 -0.0421509 0
M  V30 61844 N 6178.46 -0.304054 -1.54639 0
M  V30 61845 C 6179.71 0.303722 -1.99805 0
M  V30 61846 C 6180.03 1.54175 -1.19395 0
M  V30 61847 O 6179.3 1.93731 -0.290699 0
M  V30 61848 H 6177.88 0.115215 -0.738061 0
M  V30 61849 H 6180.54 -0.416091 -1.90407 0
M  V30 61850 H 6179.64 0.573651 -3.06783 0
M  V30 61851 N 6179.94 1.57568 -0.0318356 0
M  V30 61852 C 6181.35 1.79695 0.506616 0
M  V30 61853 C 6181.7 0.942351 1.72088 0
M  V30 61854 O 6180.82 0.153511 2.15855 0
M  V30 61855 C 6181.42 3.25904 0.925863 0
M  V30 61856 C 6179.98 3.49017 1.40941 0
M  V30 61857 C 6179.12 2.74747 0.375413 0
M  V30 61858 H 6182.08 1.56591 -0.257853 0
M  V30 61859 H 6182.1 3.35764 1.79005 0
M  V30 61860 H 6181.61 3.88077 0.0419076 0
M  V30 61861 H 6179.71 2.92099 2.3132 0
M  V30 61862 H 6179.82 4.5773 1.41491 0
M  V30 61863 H 6178.19 2.40306 0.844103 0
M  V30 61864 H 6178.97 3.39638 -0.500124 0
M  V30 61865 N 6181.41 -0.241344 1.55741 0
M  V30 61866 C 6182.66 -0.965753 1.79011 0
M  V30 61867 C 6183.02 -1.8275 0.601671 0
M  V30 61868 O 6182.31 -1.87272 -0.404927 0
M  V30 61869 C 6182.5 -1.85509 3.05485 0
M  V30 61870 C 6182.33 -1.08092 4.36516 0
M  V30 61871 C 6181.1 -0.783787 4.99184 0
M  V30 61872 C 6183.3 -0.455802 5.12276 0
M  V30 61873 N 6181.28 0.0138616 6.13898 0
M  V30 61874 C 6182.65 0.206161 6.19657 0
M  V30 61875 C 6184.71 -0.366829 4.96547 0
M  V30 61876 C 6183.41 0.94856 7.13018 0
M  V30 61877 C 6185.44 0.362053 5.90291 0
M  V30 61878 C 6184.8 1.01263 6.97083 0
M  V30 61879 H 6180.9 -0.334317 0.706934 0
M  V30 61880 H 6183.48 -0.238379 1.93235 0
M  V30 61881 H 6181.65 -2.55445 2.92579 0
M  V30 61882 H 6183.38 -2.51548 3.17026 0
M  V30 61883 H 6180.14 -1.09695 4.60721 0
M  V30 61884 H 6180.56 0.400942 6.75812 0
M  V30 61885 H 6185.21 -0.855474 4.14055 0
M  V30 61886 H 6182.92 1.44879 7.95007 0
M  V30 61887 H 6186.51 0.431636 5.80197 0
M  V30 61888 H 6185.39 1.56763 7.68372 0
M  V30 61889 N 6182.89 -1.49214 -0.50724 0
M  V30 61890 C 6184.13 -1.59999 -1.27199 0
M  V30 61891 C 6184.5 -0.277636 -1.89982 0
M  V30 61892 O 6185.7 -0.260623 -2.67534 0
M  V30 61893 C 6183.97 -2.72273 -2.31522 0
M  V30 61894 S 6185.53 -3.02969 -3.17419 0
M  V30 61895 H 6182.35 -0.564426 -0.432371 0
M  V30 61896 H 6184.95 -1.86844 -0.575287 0
M  V30 61897 H 6183.65 -3.66882 -1.83917 0
M  V30 61898 H 6183.18 -2.47401 -3.0587 0
M  V30 61899 H 6185.2 -2.44012 -4.32056 0
M  V30 61900 N 6184.37 0.757827 -1.38184 0
M  V30 61901 C 6185.62 1.51683 -1.34159 0
M  V30 61902 C 6185.95 1.94375 0.0696804 0
M  V30 61903 O 6185.2 1.65408 1.04588 0
M  V30 61904 C 6185.5 2.7854 -2.23942 0
M  V30 61905 C 6185.17 2.54831 -3.71984 0
M  V30 61906 C 6183.83 2.48074 -4.12326 0
M  V30 61907 C 6186.18 2.34011 -4.65713 0
M  V30 61908 C 6183.51 2.18507 -5.44492 0
M  V30 61909 C 6185.86 2.05964 -5.98132 0
M  V30 61910 C 6184.52 1.97661 -6.37563 0
M  V30 61911 H 6183.79 0.555047 -0.490921 0
M  V30 61912 H 6186.44 0.871764 -1.70507 0
M  V30 61913 H 6184.75 3.47675 -1.80636 0
M  V30 61914 H 6186.44 3.3648 -2.18134 0
M  V30 61915 H 6183.03 2.6096 -3.39997 0
M  V30 61916 H 6187.22 2.38213 -4.35394 0
M  V30 61917 H 6182.47 2.10583 -5.7399 0
M  V30 61918 H 6186.65 1.88857 -6.70303 0
M  V30 61919 H 6184.27 1.74514 -7.39898 0
M  V30 61920 N 6185.85 1.22983 0.985543 0
M  V30 61921 C 6187.08 1.08536 1.76146 0
M  V30 61922 C 6187.49 -0.363565 1.85266 0
M  V30 61923 O 6186.85 -1.25168 1.32812 0
M  V30 61924 C 6186.9 1.69883 3.19095 0
M  V30 61925 O 6186.62 3.09109 3.10456 0
M  V30 61926 C 6188.12 1.6081 4.13104 0
M  V30 61927 H 6185.34 0.380105 0.552956 0
M  V30 61928 H 6187.89 1.62728 1.23854 0
M  V30 61929 H 6186.04 1.19737 3.68432 0
M  V30 61930 H 6186.45 3.38783 4.00408 0
M  V30 61931 H 6187.93 2.08446 5.11131 0
M  V30 61932 H 6188.41 0.56597 4.35538 0
M  V30 61933 H 6189.01 2.10297 3.69669 0
M  V30 61934 N 6187.33 -1.18352 1.04071 0
M  V30 61935 C 6188.26 -2.20805 0.576241 0
M  V30 61936 C 6189.24 -1.57873 -0.389221 0
M  V30 61937 O 6190.42 -1.8604 -0.303516 0
M  V30 61938 C 6187.55 -3.3833 -0.158184 0
M  V30 61939 C 6186.59 -4.19664 0.760538 0
M  V30 61940 S 6187.43 -4.86241 2.24343 0
M  V30 61941 C 6188.58 -6.07166 1.51986 0
M  V30 61942 H 6188.82 -2.59861 1.44429 0
M  V30 61943 H 6186.35 -1.28787 0.851668 0
M  V30 61944 H 6188.31 -4.06442 -0.575753 0
M  V30 61945 H 6186.97 -2.97685 -1.00212 0
M  V30 61946 H 6186.16 -5.03631 0.192882 0
M  V30 61947 H 6185.76 -3.56931 1.11696 0
M  V30 61948 H 6188.06 -6.72605 0.812931 0
M  V30 61949 H 6189 -6.68439 2.33657 0
M  V30 61950 H 6189.41 -5.55351 1.01217 0
M  V30 61951 N 6188.8 -0.820173 -1.34577 0
M  V30 61952 C 6190.08 -0.32964 -1.92802 0
M  V30 61953 C 6190.46 1.18265 -1.74862 0
M  V30 61954 O 6189.81 1.98847 -1.12571 0
M  V30 61955 C 6190.02 -0.755953 -3.40714 0
M  V30 61956 C 6191.37 -0.753207 -4.17866 0
M  V30 61957 O 6192.39 -0.698357 -3.49287 0
M  V30 61958 O 6191.25 -0.823898 -5.40254 0
M  V30 61959 H 6188.34 -0.0894187 -0.822152 0
M  V30 61960 H 6190.89 -0.904779 -1.43568 0
M  V30 61961 H 6189.66 -1.79769 -3.47561 0
M  V30 61962 H 6189.29 -0.156359 -3.97292 0
M  V30 61963 N 6190.28 1.46741 -0.574887 0
M  V30 61964 C 6191.69 1.86127 -0.146208 0
M  V30 61965 C 6192.04 1.47942 1.2887 0
M  V30 61966 O 6191.17 0.890662 1.97221 0
M  V30 61967 C 6191.76 3.37812 -0.258565 0
M  V30 61968 C 6190.32 3.76224 0.11519 0
M  V30 61969 C 6189.47 2.70773 -0.598092 0
M  V30 61970 H 6192.42 1.38006 -0.783575 0
M  V30 61971 H 6192.44 3.76955 0.518177 0
M  V30 61972 H 6191.95 3.65572 -1.30301 0
M  V30 61973 H 6190.06 3.54081 1.16007 0
M  V30 61974 H 6190.17 4.78417 -0.255681 0
M  V30 61975 H 6188.53 2.5467 -0.0392025 0
M  V30 61976 H 6189.32 3.01374 -1.64404 0
M  V30 61977 N 6191.76 0.312251 1.54476 0
M  V30 61978 C 6192.99 -0.298757 2.05237 0
M  V30 61979 C 6193.41 -1.45877 1.1875 0
M  V30 61980 O 6192.77 -1.80258 0.194063 0
M  V30 61981 C 6192.82 -0.721884 3.533 0
M  V30 61982 O 6191.92 -1.82549 3.69797 0
M  V30 61983 H 6191.26 -0.0560753 0.661628 0
M  V30 61984 H 6193.79 0.45737 1.99422 0
M  V30 61985 H 6193.8 -1.00763 3.95362 0
M  V30 61986 H 6192.48 0.126616 4.15707 0
M  V30 61987 H 6191.05 -1.53942 3.39642 0
M  V30 61988 N 6193.24 -1.57549 0.0401914 0
M  V30 61989 C 6194.49 -1.91429 -0.635429 0
M  V30 61990 C 6194.8 -0.919338 -1.72649 0
M  V30 61991 O 6196.01 -1.14979 -2.45951 0
M  V30 61992 C 6194.46 -3.39953 -1.18152 0
M  V30 61993 C 6194.07 -4.47831 -0.123163 0
M  V30 61994 C 6195.82 -3.82885 -1.83302 0
M  V30 61995 C 6193.72 -5.8746 -0.68152 0
M  V30 61996 H 6192.65 -0.714409 -0.241113 0
M  V30 61997 H 6195.3 -1.83186 0.107295 0
M  V30 61998 H 6193.69 -3.43164 -1.97621 0
M  V30 61999 H 6194.86 -4.56194 0.649881 0
M  V30 62000 H 6193.17 -4.14171 0.430225 0
M  V30 62001 H 6195.77 -4.84566 -2.26053 0
M  V30 62002 H 6196.11 -3.18539 -2.68027 0
M  V30 62003 H 6196.65 -3.82143 -1.10506 0
M  V30 62004 H 6193.39 -6.55375 0.127847 0
M  V30 62005 H 6192.91 -5.8268 -1.4228 0
M  V30 62006 H 6194.59 -6.36373 -1.16784 0
M  V30 62007 N 6194.72 0.233081 -1.55867 0
M  V30 62008 C 6196.13 0.582252 -1.486 0
M  V30 62009 C 6196.33 1.87692 -0.733082 0
M  V30 62010 O 6195.39 2.51073 -0.268047 0
M  V30 62011 C 6196.7 0.672167 -2.93091 0
M  V30 62012 C 6198.25 0.763569 -3.03543 0
M  V30 62013 C 6198.73 0.884929 -4.4937 0
M  V30 62014 N 6200.22 0.949447 -4.53365 0
M  V30 62015 C 6200.95 1.06286 -5.63463 0
M  V30 62016 N 6200.45 1.14094 -6.83341 0
M  V30 62017 N 6202.24 1.09709 -5.5129 0
M  V30 62018 H 6194.39 -0.61664 -2.03252 0
M  V30 62019 H 6196.65 -0.214794 -0.923346 0
M  V30 62020 H 6196.36 -0.209353 -3.51076 0
M  V30 62021 H 6196.23 1.53958 -3.4435 0
M  V30 62022 H 6198.62 1.63554 -2.4563 0
M  V30 62023 H 6198.7 -0.129281 -2.55473 0
M  V30 62024 H 6198.35 0.0174655 -5.07897 0
M  V30 62025 H 6198.28 1.79302 -4.95135 0
M  V30 62026 H 6200.77 0.899889 -3.67029 0
M  V30 62027 H 6201.08 1.22693 -7.62998 0
M  V30 62028 H 6199.43 1.11027 -6.86074 0
M  V30 62029 H 6202.62 1.03267 -4.56567 0
M  V30 62030 H 6202.79 1.18203 -6.37128 0
M  V30 62031 N 6196.2 1.49481 0.49932 0
M  V30 62032 C 6197.44 1.60262 1.25251 0
M  V30 62033 C 6197.8 0.286404 1.90256 0
M  V30 62034 O 6197.09 -0.713505 1.77819 0
M  V30 62035 C 6197.28 2.70015 2.34151 0
M  V30 62036 C 6197.11 4.12181 1.79825 0
M  V30 62037 C 6195.88 4.78947 1.61051 0
M  V30 62038 C 6198.08 4.97359 1.30915 0
M  V30 62039 N 6196.06 6.05422 1.01672 0
M  V30 62040 C 6197.43 6.14327 0.836809 0
M  V30 62041 C 6199.49 4.83346 1.19504 0
M  V30 62042 C 6198.19 7.18824 0.261641 0
M  V30 62043 C 6200.22 5.87994 0.63384 0
M  V30 62044 C 6199.58 7.04191 0.171733 0
M  V30 62045 H 6195.68 0.640793 0.448227 0
M  V30 62046 H 6198.26 1.86493 0.559328 0
M  V30 62047 H 6196.43 2.45554 3.00928 0
M  V30 62048 H 6198.17 2.70308 3.0119 0
M  V30 62049 H 6194.92 4.35774 1.85467 0
M  V30 62050 H 6195.34 6.72954 0.739043 0
M  V30 62051 H 6199.99 3.93823 1.5383 0
M  V30 62052 H 6197.7 8.08045 -0.0938794 0
M  V30 62053 H 6201.29 5.79211 0.548302 0
M  V30 62054 H 6200.17 7.83783 -0.255742 0
M  V30 62055 N 6197.67 -0.750488 1.38584 0
M  V30 62056 C 6198.58 -1.89498 1.38302 0
M  V30 62057 C 6199.6 -1.71737 0.279739 0
M  V30 62058 O 6200.78 -1.94607 0.518675 0
M  V30 62059 C 6197.84 -3.24905 1.20987 0
M  V30 62060 C 6196.9 -3.5517 2.41149 0
M  V30 62061 C 6196.13 -4.84116 2.2465 0
M  V30 62062 O 6196.36 -5.56718 1.24183 0
M  V30 62063 O 6195.29 -5.13929 3.13306 0
M  V30 62064 H 6199.12 -1.92689 2.34743 0
M  V30 62065 H 6196.7 -0.896191 1.19536 0
M  V30 62066 H 6198.58 -4.05854 1.13404 0
M  V30 62067 H 6197.26 -3.22518 0.27633 0
M  V30 62068 H 6196.17 -2.74369 2.54308 0
M  V30 62069 H 6197.5 -3.6232 3.33144 0
M  V30 62070 N 6199.15 -1.23504 -0.979007 0
M  V30 62071 C 6200.38 -1.0931 -1.75314 0
M  V30 62072 C 6200.79 0.358201 -1.85778 0
M  V30 62073 O 6200.13 1.25951 -1.33724 0
M  V30 62074 C 6200.19 -1.64581 -3.19614 0
M  V30 62075 C 6199.86 -3.13352 -3.32655 0
M  V30 62076 C 6200.86 -4.10631 -3.1887 0
M  V30 62077 C 6198.54 -3.53088 -3.57259 0
M  V30 62078 C 6200.53 -5.45629 -3.29496 0
M  V30 62079 C 6198.22 -4.88231 -3.67524 0
M  V30 62080 C 6199.22 -5.8431 -3.53653 0
M  V30 62081 O 6198.91 -7.16997 -3.63552 0
M  V30 62082 H 6198.64 -0.383107 -0.556961 0
M  V30 62083 H 6201.19 -1.63854 -1.23858 0
M  V30 62084 H 6199.42 -1.04459 -3.72324 0
M  V30 62085 H 6201.11 -1.45843 -3.78794 0
M  V30 62086 H 6201.88 -3.81274 -2.99758 0
M  V30 62087 H 6197.76 -2.78817 -3.67127 0
M  V30 62088 H 6201.3 -6.20603 -3.18586 0
M  V30 62089 H 6197.2 -5.17263 -3.86147 0
M  V30 62090 H 6197.97 -7.24766 -3.80338 0
M  V30 62091 N 6200.63 1.17798 -1.04697 0
M  V30 62092 C 6201.87 1.89623 -0.763062 0
M  V30 62093 C 6202.23 1.78908 0.696838 0
M  V30 62094 O 6203.43 2.45502 1.09463 0
M  V30 62095 C 6201.71 3.35783 -1.22412 0
M  V30 62096 S 6203.26 4.25634 -1.06682 0
M  V30 62097 H 6200.08 0.654713 -0.277258 0
M  V30 62098 H 6202.68 1.42299 -1.34057 0
M  V30 62099 H 6201.39 3.41113 -2.28188 0
M  V30 62100 H 6200.92 3.88148 -0.640669 0
M  V30 62101 H 6202.93 4.96199 0.0119938 0
M  V30 62102 N 6202.11 0.827298 1.3414 0
M  V30 62103 C 6203.06 0.240633 2.31352 0
M  V30 62104 C 6204.05 -0.621034 1.57606 0
M  V30 62105 O 6205.26 -0.511886 1.72568 0
M  V30 62106 H 6201.63 0.0590757 0.749676 0
M  V30 62107 H 6203.6 1.07527 2.78353 0
M  V30 62108 C 6202.35 -0.579201 3.42842 0
M  V30 62109 H 6201.67 0.0745152 3.99731 0
M  V30 62110 H 6203.11 -0.955726 4.13088 0
M  V30 62111 C 6201.57 -1.75335 2.87679 0
M  V30 62112 O 6202.1 -2.85168 2.82917 0
M  V30 62113 N 6200.31 -1.5715 2.44443 0
M  V30 62114 H 6199.86 -0.678061 2.48516 0
M  V30 62115 H 6199.81 -2.35862 2.07886 0
M  V30 62116 N 6203.59 -1.46434 0.582661 0
M  V30 62117 C 6204.52 -2.3309 -0.138395 0
M  V30 62118 C 6205.5 -1.45342 -0.883726 0
M  V30 62119 O 6206.68 -1.74159 -0.859196 0
M  V30 62120 C 6203.81 -3.27615 -1.15265 0
M  V30 62121 C 6202.77 -4.24803 -0.522159 0
M  V30 62122 C 6202.09 -5.08836 -1.64288 0
M  V30 62123 C 6203.39 -5.19494 0.540632 0
M  V30 62124 H 6205.09 -2.93627 0.585116 0
M  V30 62125 H 6202.63 -1.41195 0.282831 0
M  V30 62126 H 6204.58 -3.87093 -1.66545 0
M  V30 62127 H 6203.31 -2.65184 -1.90643 0
M  V30 62128 H 6201.97 -3.66587 -0.0304439 0
M  V30 62129 H 6201.62 -4.4279 -2.38633 0
M  V30 62130 H 6201.32 -5.74654 -1.22666 0
M  V30 62131 H 6202.84 -5.71178 -2.15844 0
M  V30 62132 H 6204.25 -5.73189 0.112907 0
M  V30 62133 H 6202.65 -5.93655 0.877166 0
M  V30 62134 H 6203.72 -4.63429 1.42693 0
M  V30 62135 N 6205.06 -0.320439 -1.54308 0
M  V30 62136 C 6206.29 0.285125 -2.04926 0
M  V30 62137 C 6206.71 1.46025 -1.19675 0
M  V30 62138 O 6206.06 1.81086 -0.226713 0
M  V30 62139 C 6206.11 0.722611 -3.54204 0
M  V30 62140 O 6205.84 -0.405763 -4.36217 0
M  V30 62141 C 6207.34 1.39131 -4.20901 0
M  V30 62142 H 6204.56 0.0591377 -0.668389 0
M  V30 62143 H 6207.1 -0.46572 -1.99126 0
M  V30 62144 H 6205.26 1.42344 -3.60301 0
M  V30 62145 H 6205.67 -0.061637 -5.24464 0
M  V30 62146 H 6207.14 1.64839 -5.26813 0
M  V30 62147 H 6207.62 2.33761 -3.71823 0
M  V30 62148 H 6208.23 0.733144 -4.18933 0
M  V30 62149 N 6206.54 1.57525 -0.048546 0
M  V30 62150 C 6207.96 1.566 0.307986 0
M  V30 62151 C 6208.16 1.05597 1.71614 0
M  V30 62152 O 6207.21 0.711387 2.42272 0
M  V30 62153 C 6208.53 3.00379 0.138849 0
M  V30 62154 C 6210.07 3.12294 0.210152 0
M  V30 62155 C 6210.55 4.57947 0.0695759 0
M  V30 62156 N 6212.04 4.63029 0.125937 0
M  V30 62157 C 6212.78 5.73385 0.0412376 0
M  V30 62158 N 6212.27 6.92734 -0.09566 0
M  V30 62159 N 6214.06 5.62017 0.0966305 0
M  V30 62160 H 6206.22 1.89001 -0.969135 0
M  V30 62161 H 6208.48 0.870257 -0.375975 0
M  V30 62162 H 6208.18 3.41719 -0.831928 0
M  V30 62163 H 6208.06 3.66282 0.90098 0
M  V30 62164 H 6210.45 2.70855 1.1714 0
M  V30 62165 H 6210.53 2.49075 -0.582689 0
M  V30 62166 H 6210.17 5.00071 -0.888337 0
M  V30 62167 H 6210.1 5.19169 0.881528 0
M  V30 62168 H 6212.59 3.77193 0.2311 0
M  V30 62169 H 6212.9 7.72648 -0.153068 0
M  V30 62170 H 6211.25 6.94877 -0.130709 0
M  V30 62171 H 6214.44 4.67663 0.202118 0
M  V30 62172 H 6214.61 6.47994 0.027163 0
M  V30 62173 N 6208.02 -0.224812 1.55988 0
M  V30 62174 C 6209.26 -0.956789 1.80624 0
M  V30 62175 C 6209.62 -1.81661 0.621547 0
M  V30 62176 O 6210.83 -2.58208 0.747133 0
M  V30 62177 C 6209.1 -1.77627 3.10135 0
M  V30 62178 S 6210.66 -2.56433 3.56072 0
M  V30 62179 H 6207.47 -0.321454 0.634183 0
M  V30 62180 H 6210.08 -0.222651 1.94228 0
M  V30 62181 H 6208.78 -1.1347 3.94402 0
M  V30 62182 H 6208.31 -2.55277 2.99328 0
M  V30 62183 H 6210.33 -3.79942 3.19152 0
M  V30 62184 N 6209.5 -1.49744 -0.491385 0
M  V30 62185 C 6210.72 -1.63707 -1.27337 0
M  V30 62186 C 6211.15 -0.312144 -1.85492 0
M  V30 62187 O 6210.51 0.721486 -1.66326 0
M  V30 62188 C 6210.55 -2.71557 -2.37253 0
M  V30 62189 O 6209.66 -2.31399 -3.41363 0
M  V30 62190 H 6209 -0.547618 -0.375514 0
M  V30 62191 H 6211.53 -1.95993 -0.587174 0
M  V30 62192 H 6211.54 -2.94019 -2.82873 0
M  V30 62193 H 6210.21 -3.67727 -1.94293 0
M  V30 62194 H 6208.79 -2.19305 -3.01595 0
M  V30 62195 N 6210.98 0.743128 -1.3898 0
M  V30 62196 C 6212.25 1.49379 -1.26274 0
M  V30 62197 C 6212.63 2.10691 0.131275 0
M  V30 62198 O 6211.98 1.97929 1.14176 0
M  V30 62199 C 6212.19 2.55175 -2.38089 0
M  V30 62200 C 6213.54 3.21786 -2.77018 0
M  V30 62201 O 6214.56 2.65485 -2.37479 0
M  V30 62202 O 6213.42 4.23644 -3.45236 0
M  V30 62203 H 6210.52 0.662951 -0.494394 0
M  V30 62204 H 6213.06 0.777647 -1.50834 0
M  V30 62205 H 6211.83 2.08192 -3.31318 0
M  V30 62206 H 6211.46 3.34359 -2.15151 0
M  V30 62207 N 6212.45 1.24021 0.972444 0
M  V30 62208 C 6213.68 1.10398 1.74985 0
M  V30 62209 C 6214.1 -0.343895 1.85642 0
M  V30 62210 O 6213.45 -1.23753 1.34132 0
M  V30 62211 C 6213.51 1.73258 3.17276 0
M  V30 62212 O 6213.23 3.12384 3.07161 0
M  V30 62213 C 6214.73 1.65182 4.11375 0
M  V30 62214 H 6211.95 0.385949 0.548894 0
M  V30 62215 H 6214.49 1.64033 1.22121 0
M  V30 62216 H 6212.65 1.23638 3.67141 0
M  V30 62217 H 6213.06 3.43011 3.96792 0
M  V30 62218 H 6214.53 2.13855 5.08891 0
M  V30 62219 H 6215.01 0.612133 4.34913 0
M  V30 62220 H 6215.62 2.14206 3.67418 0
M  V30 62221 N 6213.93 -1.17241 1.0532 0
M  V30 62222 C 6214.84 -2.24945 0.66609 0
M  V30 62223 C 6215.86 -1.71154 -0.313418 0
M  V30 62224 O 6217.03 -2.00721 -0.165192 0
M  V30 62225 C 6214.1 -3.46667 0.0481417 0
M  V30 62226 C 6213.16 -4.15538 1.07826 0
M  V30 62227 C 6212.39 -5.31449 0.489707 0
M  V30 62228 O 6212.62 -5.66083 -0.700469 0
M  V30 62229 O 6211.55 -5.89311 1.2246 0
M  V30 62230 H 6215.38 -2.60348 1.56374 0
M  V30 62231 H 6212.96 -1.24566 0.824844 0
M  V30 62232 H 6214.84 -4.20365 -0.295218 0
M  V30 62233 H 6213.52 -3.13059 -0.823138 0
M  V30 62234 H 6212.43 -3.43853 1.47363 0
M  V30 62235 H 6213.76 -4.53176 1.92073 0
M  V30 62236 N 6215.41 -0.8344 -1.33699 0
M  V30 62237 C 6216.66 -0.427112 -1.97535 0
M  V30 62238 C 6216.98 1.01601 -1.6644 0
M  V30 62239 O 6216.25 1.70708 -0.961018 0
M  V30 62240 H 6214.83 -0.154947 -0.730753 0
M  V30 62241 H 6217.49 -1.06637 -1.63139 0
M  V30 62242 H 6216.59 -0.555504 -3.07117 0
M  V30 62243 N 6216.89 1.46123 -0.590418 0
M  V30 62244 C 6218.12 2.06726 -0.0848027 0
M  V30 62245 C 6218.53 1.43792 1.22349 0
M  V30 62246 O 6217.89 0.545937 1.74143 0
M  V30 62247 C 6217.94 3.61413 0.079528 0
M  V30 62248 O 6217.66 4.21994 -1.17699 0
M  V30 62249 C 6219.16 4.38963 0.6186 0
M  V30 62250 H 6216.38 0.668224 -0.0609759 0
M  V30 62251 H 6218.93 1.87633 -0.813278 0
M  V30 62252 H 6217.08 3.79907 0.758256 0
M  V30 62253 H 6217.49 5.14962 -0.995709 0
M  V30 62254 H 6218.97 5.47762 0.682734 0
M  V30 62255 H 6219.45 4.07543 1.63724 0
M  V30 62256 H 6220.05 4.25292 -0.0255127 0
M  V30 62257 N 6218.37 0.328618 1.54136 0
M  V30 62258 C 6219.61 -0.272838 2.00956 0
M  V30 62259 C 6219.95 -1.51388 1.21636 0
M  V30 62260 O 6219.22 -1.92173 0.299984 0
M  V30 62261 C 6219.5 -0.601931 3.55034 0
M  V30 62262 C 6219.36 0.650172 4.45076 0
M  V30 62263 C 6220.68 -1.41755 4.16645 0
M  V30 62264 H 6217.79 -0.097692 0.730497 0
M  V30 62265 H 6220.44 0.446198 1.84686 0
M  V30 62266 H 6218.59 -1.21451 3.69028 0
M  V30 62267 H 6220.26 1.28837 4.42943 0
M  V30 62268 H 6218.5 1.27805 4.14546 0
M  V30 62269 H 6219.17 0.375374 5.50722 0
M  V30 62270 H 6221.65 -0.899706 4.06257 0
M  V30 62271 H 6220.52 -1.61658 5.24555 0
M  V30 62272 H 6220.79 -2.41521 3.70297 0
M  V30 62273 N 6219.84 -1.57497 0.0568993 0
M  V30 62274 C 6221.09 -1.93202 -0.616512 0
M  V30 62275 C 6221.42 -0.935996 -1.70155 0
M  V30 62276 O 6220.7 0.0371321 -1.94465 0
M  V30 62277 C 6220.98 -3.39259 -1.2073 0
M  V30 62278 C 6220.83 -4.49612 -0.129923 0
M  V30 62279 C 6222.15 -3.85825 -2.11724 0
M  V30 62280 H 6219.27 -0.702566 -0.222643 0
M  V30 62281 H 6221.91 -1.89622 0.119832 0
M  V30 62282 H 6220.06 -3.4244 -1.83485 0
M  V30 62283 H 6221.74 -4.58557 0.502333 0
M  V30 62284 H 6219.98 -4.30409 0.541319 0
M  V30 62285 H 6220.65 -5.48908 -0.583413 0
M  V30 62286 H 6223.13 -3.84555 -1.58923 0
M  V30 62287 H 6222 -4.88662 -2.50002 0
M  V30 62288 H 6222.26 -3.2291 -3.01963 0
M  V30 62289 N 6221.32 0.216536 -1.56105 0
M  V30 62290 C 6222.29 1.25191 -1.91989 0
M  V30 62291 C 6223.29 1.39548 -0.798933 0
M  V30 62292 O 6224.48 1.37727 -1.06662 0
M  V30 62293 C 6221.61 2.62491 -2.17512 0
M  V30 62294 H 6222.8 0.945754 -2.84597 0
M  V30 62295 H 6220.35 0.457166 -1.49465 0
M  V30 62296 H 6221.09 2.98197 -1.27471 0
M  V30 62297 H 6220.87 2.53446 -2.99178 0
M  V30 62298 H 6222.36 3.37195 -2.46352 0
M  V30 62299 N 6222.8 1.50002 0.483437 0
M  V30 62300 C 6224.21 1.53372 1.0646 0
M  V30 62301 C 6224.56 0.330041 1.93404 0
M  V30 62302 O 6223.69 -0.558371 2.09072 0
M  V30 62303 C 6224.28 2.77934 1.93747 0
M  V30 62304 C 6222.84 2.84026 2.46995 0
M  V30 62305 C 6221.99 2.47511 1.25035 0
M  V30 62306 H 6224.94 1.56445 0.266578 0
M  V30 62307 H 6224.96 2.59091 2.78662 0
M  V30 62308 H 6224.47 3.65522 1.30441 0
M  V30 62309 H 6222.57 2.0076 3.13889 0
M  V30 62310 H 6222.69 3.86624 2.82946 0
M  V30 62311 H 6221.05 1.99675 1.5812 0
M  V30 62312 H 6221.83 3.37393 0.634106 0
M  V30 62313 N 6224.28 -0.735747 1.39372 0
M  V30 62314 C 6225.69 -1.31398 1.32633 0
M  V30 62315 C 6226.04 -1.96198 -0.00965938 0
M  V30 62316 O 6225.17 -1.96254 -0.911781 0
M  V30 62317 C 6225.76 -2.38925 2.40209 0
M  V30 62318 C 6224.32 -2.92423 2.36993 0
M  V30 62319 C 6223.47 -1.65985 2.22136 0
M  V30 62320 H 6226.42 -0.533311 1.49471 0
M  V30 62321 H 6226.44 -3.19297 2.06954 0
M  V30 62322 H 6225.95 -1.91733 3.37431 0
M  V30 62323 H 6224.05 -3.43898 1.43406 0
M  V30 62324 H 6224.17 -3.45589 3.31821 0
M  V30 62325 H 6222.53 -1.90292 1.69296 0
M  V30 62326 H 6223.31 -1.20846 3.21327 0
M  V30 62327 N 6225.76 -1.24535 -0.965853 0
M  V30 62328 C 6226.99 -1.11324 -1.74397 0
M  V30 62329 C 6227.4 0.334045 -1.85821 0
M  V30 62330 O 6226.76 1.2304 -1.34787 0
M  V30 62331 C 6226.81 -1.74938 -3.16352 0
M  V30 62332 O 6226.53 -3.14009 -3.055 0
M  V30 62333 C 6228.03 -1.67361 -4.10494 0
M  V30 62334 H 6225.25 -0.388854 -0.546839 0
M  V30 62335 H 6227.79 -1.64678 -1.21249 0
M  V30 62336 H 6225.95 -1.25583 -3.6648 0
M  V30 62337 H 6226.36 -3.4511 -3.94967 0
M  V30 62338 H 6227.84 -2.16551 -5.0775 0
M  V30 62339 H 6228.31 -0.635189 -4.34583 0
M  V30 62340 H 6228.92 -2.16152 -3.66276 0
M  V30 62341 N 6227.24 1.16681 -1.0594 0
M  V30 62342 C 6228.48 1.87402 -0.775127 0
M  V30 62343 C 6228.81 1.81281 0.696479 0
M  V30 62344 O 6228.09 1.226 1.50995 0
M  V30 62345 C 6228.37 3.37119 -1.26581 0
M  V30 62346 C 6228.23 3.51951 -2.80091 0
M  V30 62347 C 6229.54 4.31398 -0.870847 0
M  V30 62348 H 6226.66 0.680478 -0.283052 0
M  V30 62349 H 6229.31 1.37169 -1.31471 0
M  V30 62350 H 6227.46 3.80031 -0.806786 0
M  V30 62351 H 6229.13 3.18002 -3.34174 0
M  V30 62352 H 6227.37 2.93979 -3.18997 0
M  V30 62353 H 6228.04 4.57079 -3.09487 0
M  V30 62354 H 6230.52 3.96369 -1.26614 0
M  V30 62355 H 6229.39 5.34671 -1.24169 0
M  V30 62356 H 6229.65 4.41529 0.224537 0
M  V30 62357 N 6228.71 0.841479 1.33255 0
M  V30 62358 C 6229.96 0.434746 1.96959 0
M  V30 62359 C 6230.28 -1.01194 1.67389 0
M  V30 62360 O 6231.48 -1.52348 2.24727 0
M  V30 62361 C 6229.94 0.726456 3.52492 0
M  V30 62362 C 6229.55 2.18799 3.90936 0
M  V30 62363 C 6231.29 0.386801 4.22734 0
M  V30 62364 C 6229.2 2.42362 5.39458 0
M  V30 62365 H 6228.13 0.158834 0.73708 0
M  V30 62366 H 6230.78 1.03043 1.51837 0
M  V30 62367 H 6229.16 0.0603707 3.95954 0
M  V30 62368 H 6230.33 2.89477 3.58524 0
M  V30 62369 H 6228.65 2.49088 3.33683 0
M  V30 62370 H 6231.25 0.540436 5.31962 0
M  V30 62371 H 6231.59 -0.67045 4.10866 0
M  V30 62372 H 6232.12 1.00823 3.84811 0
M  V30 62373 H 6228.86 3.46662 5.56333 0
M  V30 62374 H 6228.38 1.76248 5.73321 0
M  V30 62375 H 6230.06 2.25647 6.06377 0
M  V30 62376 N 6230.19 -1.45807 0.598159 0
M  V30 62377 C 6231.12 -2.28611 -0.164191 0
M  V30 62378 C 6232.14 -1.39409 -0.840778 0
M  V30 62379 O 6233.33 -1.63869 -0.707747 0
M  V30 62380 C 6230.43 -3.14888 -1.25295 0
M  V30 62381 C 6229.6 -4.32311 -0.665308 0
M  V30 62382 C 6228.66 -4.99867 -1.64375 0
M  V30 62383 O 6227.68 -5.56967 -1.17374 0
M  V30 62384 N 6228.89 -4.98288 -2.97807 0
M  V30 62385 H 6231.65 -2.94679 0.546285 0
M  V30 62386 H 6229.21 -1.55891 0.436988 0
M  V30 62387 H 6231.2 -3.56947 -1.90711 0
M  V30 62388 H 6229.77 -2.50792 -1.86608 0
M  V30 62389 H 6228.99 -3.93847 0.166705 0
M  V30 62390 H 6230.28 -5.08172 -0.252759 0
M  V30 62391 H 6229.68 -4.53171 -3.38603 0
M  V30 62392 H 6228.24 -5.44241 -3.58672 0
M  V30 62393 N 6231.67 -0.336787 -1.53959 0
M  V30 62394 C 6232.92 0.262177 -2.01098 0
M  V30 62395 C 6233.25 1.50741 -1.22437 0
M  V30 62396 O 6232.52 1.92011 -0.310171 0
M  V30 62397 C 6232.81 0.583094 -3.55348 0
M  V30 62398 C 6232.66 -0.673767 -4.44725 0
M  V30 62399 C 6233.98 1.39544 -4.17391 0
M  V30 62400 H 6231.1 0.0938166 -0.731004 0
M  V30 62401 H 6233.74 -0.455986 -1.84447 0
M  V30 62402 H 6231.89 1.19492 -3.69667 0
M  V30 62403 H 6233.56 -1.31184 -4.42254 0
M  V30 62404 H 6231.8 -1.30002 -4.13862 0
M  V30 62405 H 6232.48 -0.404575 -5.50515 0
M  V30 62406 H 6234.95 0.878149 -4.06728 0
M  V30 62407 H 6233.83 1.58874 -5.25405 0
M  V30 62408 H 6234.09 2.39554 -3.71573 0
M  V30 62409 N 6233.15 1.57465 -0.0652509 0
M  V30 62410 C 6234.56 1.80729 0.468386 0
M  V30 62411 C 6234.91 0.978641 1.7005 0
M  V30 62412 O 6234.03 0.199262 2.15481 0
M  V30 62413 C 6234.63 3.27794 0.856526 0
M  V30 62414 C 6233.19 3.51928 1.33506 0
M  V30 62415 C 6232.34 2.75482 0.31705 0
M  V30 62416 H 6235.29 1.56009 -0.29101 0
M  V30 62417 H 6235.31 3.39485 1.71843 0
M  V30 62418 H 6234.82 3.88079 -0.0404187 0
M  V30 62419 H 6232.92 2.9694 2.25073 0
M  V30 62420 H 6233.03 4.60629 1.3175 0
M  V30 62421 H 6231.4 2.42042 0.792941 0
M  V30 62422 H 6232.18 3.385 -0.572054 0
M  V30 62423 N 6234.63 -0.208255 1.56218 0
M  V30 62424 C 6235.85 -0.951339 1.84294 0
M  V30 62425 C 6236.28 -1.76614 0.64723 0
M  V30 62426 O 6235.63 -1.76741 -0.404019 0
M  V30 62427 C 6235.68 -1.83392 3.10483 0
M  V30 62428 O 6234.79 -2.93103 2.90111 0
M  V30 62429 H 6234.13 -0.268647 0.607227 0
M  V30 62430 H 6236.66 -0.217546 2.0344 0
M  V30 62431 H 6236.67 -2.24115 3.40934 0
M  V30 62432 H 6235.34 -1.23514 3.97136 0
M  V30 62433 H 6233.92 -2.5623 2.70925 0
M  V30 62434 N 6236.1 -1.50256 -0.475475 0
M  V30 62435 C 6237.03 -1.71726 -1.58216 0
M  V30 62436 C 6238.01 -0.566177 -1.60401 0
M  V30 62437 O 6239.2 -0.804836 -1.76737 0
M  V30 62438 C 6236.33 -1.80736 -2.96567 0
M  V30 62439 C 6235.28 -2.95888 -3.09248 0
M  V30 62440 C 6234.61 -2.90036 -4.49203 0
M  V30 62441 C 6235.91 -4.36462 -2.86876 0
M  V30 62442 H 6237.6 -2.64385 -1.40502 0
M  V30 62443 H 6235.15 -1.27227 -0.674488 0
M  V30 62444 H 6237.1 -1.94341 -3.73911 0
M  V30 62445 H 6235.83 -0.846957 -3.15427 0
M  V30 62446 H 6234.49 -2.81927 -2.34335 0
M  V30 62447 H 6234.13 -1.9185 -4.64976 0
M  V30 62448 H 6233.83 -3.67338 -4.58625 0
M  V30 62449 H 6235.36 -3.05683 -5.28574 0
M  V30 62450 H 6236.77 -4.50972 -3.53973 0
M  V30 62451 H 6235.17 -5.15182 -3.07746 0
M  V30 62452 H 6236.24 -4.49136 -1.8277 0
M  V30 62453 N 6237.58 0.728346 -1.3976 0
M  V30 62454 C 6238.83 1.48509 -1.37075 0
M  V30 62455 C 6239.15 1.94976 0.0304577 0
M  V30 62456 O 6238.42 1.69456 0.982927 0
M  V30 62457 H 6237 0.55094 -0.504454 0
M  V30 62458 H 6239.66 0.864235 -1.74691 0
M  V30 62459 H 6238.76 2.36404 -2.03764 0
M  V30 62460 N 6239.06 1.25046 0.959235 0
M  V30 62461 C 6240.47 1.08697 1.51795 0
M  V30 62462 C 6240.82 -0.338825 1.93252 0
M  V30 62463 O 6239.95 -1.22824 1.78166 0
M  V30 62464 C 6240.54 1.96699 2.75853 0
M  V30 62465 C 6239.1 1.8455 3.28052 0
M  V30 62466 C 6238.25 1.91126 2.00914 0
M  V30 62467 H 6241.2 1.38399 0.77662 0
M  V30 62468 H 6241.22 1.50426 3.49503 0
M  V30 62469 H 6240.73 3.00464 2.45649 0
M  V30 62470 H 6238.83 0.83651 3.63089 0
M  V30 62471 H 6238.95 2.69109 3.9638 0
M  V30 62472 H 6237.31 1.34956 2.16007 0
M  V30 62473 H 6238.09 2.96486 1.73064 0
M  V30 62474 N 6240.54 -1.16117 1.06558 0
M  V30 62475 C 6241.95 -1.68317 0.807863 0
M  V30 62476 C 6242.3 -1.84472 -0.668169 0
M  V30 62477 O 6241.43 -1.54221 -1.51806 0
M  V30 62478 C 6242.02 -3.05733 1.4599 0
M  V30 62479 C 6240.58 -3.55042 1.2499 0
M  V30 62480 C 6239.73 -2.3096 1.5347 0
M  V30 62481 H 6242.68 -1.00443 1.2287 0
M  V30 62482 H 6242.7 -3.70263 0.876687 0
M  V30 62483 H 6242.21 -2.93942 2.53416 0
M  V30 62484 H 6240.31 -3.72087 0.195498 0
M  V30 62485 H 6240.42 -4.36973 1.96448 0
M  V30 62486 H 6238.79 -2.36104 0.955351 0
M  V30 62487 H 6239.57 -2.21764 2.6206 0
M  V30 62488 N 6242.02 -0.848534 -1.32807 0
M  V30 62489 C 6243.24 -0.461811 -2.02193 0
M  V30 62490 C 6243.67 0.932102 -1.63381 0
M  V30 62491 O 6243.02 1.61117 -0.831323 0
M  V30 62492 C 6243.07 -0.601359 -3.5555 0
M  V30 62493 O 6242.18 0.368404 -4.10751 0
M  V30 62494 H 6241.52 -0.186401 -0.637299 0
M  V30 62495 H 6244.05 -1.14604 -1.69491 0
M  V30 62496 H 6244.06 -0.486599 -4.05088 0
M  V30 62497 H 6242.73 -1.61786 -3.83142 0
M  V30 62498 H 6241.31 0.210394 -3.72306 0
M  V30 62499 N 6243.49 1.45488 -0.605884 0
M  V30 62500 C 6244.4 2.34314 0.115833 0
M  V30 62501 C 6245.42 1.51139 0.862146 0
M  V30 62502 O 6246.6 1.83946 0.820116 0
M  V30 62503 C 6243.66 3.28728 1.10177 0
M  V30 62504 C 6242.72 4.27808 0.357599 0
M  V30 62505 C 6241.96 5.17711 1.29657 0
M  V30 62506 O 6242.18 5.11008 2.5343 0
M  V30 62507 O 6241.11 5.96633 0.794558 0
M  V30 62508 H 6244.94 2.97427 -0.614086 0
M  V30 62509 H 6242.52 1.44844 -0.366154 0
M  V30 62510 H 6244.41 3.86911 1.66967 0
M  V30 62511 H 6243.08 2.68181 1.81274 0
M  V30 62512 H 6241.99 3.73245 -0.252719 0
M  V30 62513 H 6243.32 4.91205 -0.312854 0
M  V30 62514 N 6244.97 0.344947 1.53779 0
M  V30 62515 C 6245.9 -0.545568 2.22612 0
M  V30 62516 C 6246.92 -1.06284 1.23319 0
M  V30 62517 O 6248.11 -0.972749 1.49666 0
M  V30 62518 C 6245.21 -1.76369 2.89391 0
M  V30 62519 C 6244.38 -1.38147 4.15011 0
M  V30 62520 C 6243.44 -2.45942 4.65187 0
M  V30 62521 O 6242.46 -2.09191 5.29365 0
M  V30 62522 N 6243.67 -3.77216 4.41235 0
M  V30 62523 H 6246.43 0.0439394 2.99668 0
M  V30 62524 H 6243.99 0.169138 1.61014 0
M  V30 62525 H 6245.98 -2.47917 3.19874 0
M  V30 62526 H 6244.55 -2.26054 2.15913 0
M  V30 62527 H 6243.77 -0.496702 3.91058 0
M  V30 62528 H 6245.06 -1.1021 4.9672 0
M  V30 62529 H 6244.46 -4.09861 3.89911 0
M  V30 62530 H 6243.02 -4.4493 4.7632 0
M  V30 62531 N 6246.45 -1.57428 0.0736007 0
M  V30 62532 C 6247.73 -1.84964 -0.6362 0
M  V30 62533 C 6248.11 -0.966407 -1.8768 0
M  V30 62534 O 6247.46 -0.033164 -2.28476 0
M  V30 62535 C 6247.67 -3.35187 -0.972133 0
M  V30 62536 C 6249.01 -4.0274 -1.34484 0
M  V30 62537 O 6250.04 -3.39944 -1.06381 0
M  V30 62538 O 6248.9 -5.13502 -1.87025 0
M  V30 62539 H 6245.99 -0.76418 -0.316161 0
M  V30 62540 H 6248.54 -1.69377 0.104669 0
M  V30 62541 H 6247.31 -3.91194 -0.0910943 0
M  V30 62542 H 6246.93 -3.56044 -1.7697 0
M  V30 62543 N 6247.93 0.199967 -1.56326 0
M  V30 62544 C 6249.17 0.927933 -1.82123 0
M  V30 62545 C 6249.53 1.80649 -0.650369 0
M  V30 62546 O 6250.73 2.56987 -0.788117 0
M  V30 62547 C 6249 1.72671 -3.12921 0
M  V30 62548 S 6250.56 2.50736 -3.60107 0
M  V30 62549 H 6247.38 0.311324 -0.639217 0
M  V30 62550 H 6249.98 0.191723 -1.94558 0
M  V30 62551 H 6248.69 1.07181 -3.96157 0
M  V30 62552 H 6248.22 2.50482 -3.03352 0
M  V30 62553 H 6250.23 3.74817 -3.25156 0
M  V30 62554 N 6249.41 1.50506 0.4675 0
M  V30 62555 C 6250.34 1.64276 1.58394 0
M  V30 62556 C 6251.32 0.490799 1.55016 0
M  V30 62557 O 6252.5 0.71077 1.74586 0
M  V30 62558 C 6249.63 1.62865 2.96973 0
M  V30 62559 C 6248.67 2.83665 3.18491 0
M  V30 62560 S 6249.51 4.44918 2.98007 0
M  V30 62561 C 6250.66 4.46205 4.38921 0
M  V30 62562 H 6250.9 2.58713 1.46474 0
M  V30 62563 H 6248.43 1.39814 0.655092 0
M  V30 62564 H 6250.39 1.62735 3.76865 0
M  V30 62565 H 6249.05 0.696572 3.06279 0
M  V30 62566 H 6248.24 2.78992 4.19738 0
M  V30 62567 H 6247.84 2.8138 2.46376 0
M  V30 62568 H 6250.14 4.19988 5.31616 0
M  V30 62569 H 6251.08 5.47842 4.48637 0
M  V30 62570 H 6251.49 3.7587 4.21167 0
M  V30 62571 N 6250.88 -0.720924 1.40144 0
M  V30 62572 C 6252.13 -1.48073 1.38133 0
M  V30 62573 C 6252.46 -1.94492 -0.0181208 0
M  V30 62574 O 6251.71 -1.68123 -1.00166 0
M  V30 62575 C 6252.01 -2.72505 2.31249 0
M  V30 62576 C 6251.68 -2.44879 3.78609 0
M  V30 62577 C 6250.34 -2.37055 4.18758 0
M  V30 62578 C 6252.69 -2.21581 4.71753 0
M  V30 62579 C 6250.02 -2.03993 5.50094 0
M  V30 62580 C 6252.37 -1.90034 6.03382 0
M  V30 62581 C 6251.04 -1.80688 6.42579 0
M  V30 62582 H 6250.31 -0.541836 0.505465 0
M  V30 62583 H 6252.95 -0.82625 1.72758 0
M  V30 62584 H 6251.26 -3.42764 1.8979 0
M  V30 62585 H 6252.96 -3.30578 2.26978 0
M  V30 62586 H 6249.55 -2.51854 3.46796 0
M  V30 62587 H 6253.73 -2.26586 4.41557 0
M  V30 62588 H 6248.99 -1.95291 5.79372 0
M  V30 62589 H 6253.16 -1.71019 6.75075 0
M  V30 62590 H 6250.79 -1.54836 7.44265 0
M  V30 62591 N 6252.36 -1.25553 -0.95259 0
M  V30 62592 C 6253.61 -1.10204 -1.69409 0
M  V30 62593 C 6253.93 0.357278 -1.91699 0
M  V30 62594 O 6253.2 1.2534 -1.50554 0
M  V30 62595 H 6251.78 -0.404827 -0.627793 0
M  V30 62596 H 6254.44 -1.57707 -1.14518 0
M  V30 62597 H 6253.54 -1.61195 -2.6725 0
M  V30 62598 N 6253.84 1.15551 -1.07172 0
M  V30 62599 C 6254.79 2.22294 -0.684704 0
M  V30 62600 C 6255.78 1.66657 0.303616 0
M  V30 62601 O 6256.99 1.79219 0.167525 0
M  V30 62602 H 6253.36 0.723989 -0.203332 0
M  V30 62603 H 6255.34 2.52217 -1.59465 0
M  V30 62604 C 6254.08 3.47566 -0.096634 0
M  V30 62605 H 6253.41 3.90698 -0.848259 0
M  V30 62606 H 6254.85 4.2378 0.136522 0
M  V30 62607 C 6253.31 3.16219 1.1622 0
M  V30 62608 O 6253.84 3.32846 2.24892 0
M  V30 62609 N 6252.04 2.70277 1.06764 0
M  V30 62610 H 6251.59 2.56947 0.183267 0
M  V30 62611 H 6251.55 2.49678 1.91072 0
M  V30 62612 N 6255.32 0.855565 1.32355 0
M  V30 62613 C 6256.57 0.458484 1.96831 0
M  V30 62614 C 6256.89 -0.989401 1.68035 0
M  V30 62615 O 6256.16 -1.69158 0.988055 0
M  V30 62616 H 6254.74 0.166553 0.728196 0
M  V30 62617 H 6257.4 1.09219 1.61422 0
M  V30 62618 H 6256.5 0.604293 3.06194 0
M  V30 62619 N 6256.8 -1.45165 0.613591 0
M  V30 62620 C 6257.74 -2.30576 -0.10173 0
M  V30 62621 C 6258.71 -1.42458 -0.85411 0
M  V30 62622 O 6259.9 -1.71381 -0.838651 0
M  V30 62623 C 6257.04 -3.27462 -1.08914 0
M  V30 62624 C 6256.15 -4.30683 -0.337012 0
M  V30 62625 C 6255.29 -5.14674 -1.31468 0
M  V30 62626 C 6254.33 -6.09618 -0.550704 0
M  V30 62627 N 6253.46 -6.86368 -1.47795 0
M  V30 62628 H 6258.3 -2.91208 0.632597 0
M  V30 62629 H 6255.84 -1.43493 0.323755 0
M  V30 62630 H 6257.8 -3.82107 -1.67482 0
M  V30 62631 H 6256.43 -2.6857 -1.79081 0
M  V30 62632 H 6255.48 -3.78652 0.364277 0
M  V30 62633 H 6256.79 -4.98128 0.258804 0
M  V30 62634 H 6255.95 -5.73749 -1.97223 0
M  V30 62635 H 6254.69 -4.47262 -1.94443 0
M  V30 62636 H 6253.69 -5.49668 0.120444 0
M  V30 62637 H 6254.92 -6.7906 0.0740788 0
M  V30 62638 H 6252.86 -6.2164 -2.09523 0
M  V30 62639 H 6252.78 -7.50187 -0.935725 0
M  V30 62640 H 6254.05 -7.49979 -2.12489 0
M  V30 62641 N 6258.28 -0.353098 -1.53594 0
M  V30 62642 C 6259.52 0.240002 -2.0067 0
M  V30 62643 C 6259.84 1.50298 -1.24239 0
M  V30 62644 O 6259.11 1.92708 -0.352186 0
M  V30 62645 H 6257.69 0.0916755 -0.741353 0
M  V30 62646 H 6260.36 -0.476457 -1.88987 0
M  V30 62647 H 6259.45 0.47576 -3.08452 0
M  V30 62648 N 6259.75 1.57387 -0.0819485 0
M  V30 62649 C 6260.98 1.97915 0.592715 0
M  V30 62650 C 6261.39 0.959435 1.63069 0
M  V30 62651 O 6260.73 -0.0609449 1.83599 0
M  V30 62652 C 6260.8 3.34783 1.30999 0
M  V30 62653 C 6260.46 4.55026 0.424301 0
M  V30 62654 C 6261.46 5.189 -0.322242 0
M  V30 62655 C 6259.14 5.01105 0.346206 0
M  V30 62656 C 6261.14 6.27213 -1.135 0
M  V30 62657 C 6258.82 6.09288 -0.470212 0
M  V30 62658 C 6259.82 6.72206 -1.20947 0
M  V30 62659 O 6259.51 7.78304 -2.0124 0
M  V30 62660 H 6259.24 0.655652 0.16461 0
M  V30 62661 H 6261.8 2.04822 -0.153949 0
M  V30 62662 H 6260.03 3.2452 2.10294 0
M  V30 62663 H 6261.71 3.59848 1.87788 0
M  V30 62664 H 6262.48 4.84239 -0.271561 0
M  V30 62665 H 6258.36 4.51904 0.911251 0
M  V30 62666 H 6261.9 6.76253 -1.71251 0
M  V30 62667 H 6257.8 6.43382 -0.52242 0
M  V30 62668 H 6258.57 7.9523 -1.93781 0
M  V30 62669 N 6261.23 -0.191674 1.5643 0
M  V30 62670 C 6262.65 -0.542648 1.50092 0
M  V30 62671 C 6262.85 -1.85682 0.782587 0
M  V30 62672 O 6261.9 -2.50274 0.33452 0
M  V30 62673 C 6263.22 -0.594223 2.9477 0
M  V30 62674 C 6264.76 -0.682822 3.05461 0
M  V30 62675 C 6265.24 -0.765475 4.51558 0
M  V30 62676 N 6266.73 -0.828911 4.55723 0
M  V30 62677 C 6267.47 -0.913091 5.66083 0
M  V30 62678 N 6266.96 -0.959362 6.86125 0
M  V30 62679 N 6268.75 -0.950544 5.54005 0
M  V30 62680 H 6260.91 0.670312 2.01545 0
M  V30 62681 H 6263.17 0.2392 0.917326 0
M  V30 62682 H 6262.87 0.302361 3.50398 0
M  V30 62683 H 6262.75 -1.44774 3.48311 0
M  V30 62684 H 6265.14 -1.56984 2.4988 0
M  V30 62685 H 6265.22 0.196969 2.55041 0
M  V30 62686 H 6264.86 0.117201 5.07765 0
M  V30 62687 H 6264.79 -1.66112 4.99714 0
M  V30 62688 H 6267.28 -0.802261 3.69286 0
M  V30 62689 H 6267.59 -1.0242 7.65983 0
M  V30 62690 H 6265.94 -0.927981 6.88777 0
M  V30 62691 H 6269.13 -0.911257 4.59145 0
M  V30 62692 H 6269.3 -1.01269 6.40038 0
M  V30 62693 N 6262.71 -1.50752 -0.459512 0
M  V30 62694 C 6263.96 -1.61999 -1.20834 0
M  V30 62695 C 6264.28 -0.327849 -1.92224 0
M  V30 62696 O 6263.55 0.655277 -1.84616 0
M  V30 62697 H 6262.13 -0.596988 -0.449015 0
M  V30 62698 H 6264.79 -1.87584 -0.528994 0
M  V30 62699 H 6263.89 -2.43685 -1.94998 0
M  V30 62700 N 6264.19 0.713481 -1.40525 0
M  V30 62701 C 6265.13 1.82756 -1.40957 0
M  V30 62702 C 6266.1 1.63952 -0.266245 0
M  V30 62703 O 6267.29 1.85056 -0.464623 0
M  V30 62704 C 6264.43 3.20484 -1.28 0
M  V30 62705 C 6263.54 3.50844 -2.52056 0
M  V30 62706 C 6262.68 4.78089 -2.31525 0
M  V30 62707 C 6261.72 5.0136 -3.51147 0
M  V30 62708 N 6260.85 6.1982 -3.29798 0
M  V30 62709 H 6265.69 1.81721 -2.36181 0
M  V30 62710 H 6263.23 0.887662 -1.17299 0
M  V30 62711 H 6265.19 4.00019 -1.18494 0
M  V30 62712 H 6263.82 3.20742 -0.363945 0
M  V30 62713 H 6262.87 2.65848 -2.72082 0
M  V30 62714 H 6264.18 3.63949 -3.4109 0
M  V30 62715 H 6263.34 5.65646 -2.19384 0
M  V30 62716 H 6262.08 4.67198 -1.3992 0
M  V30 62717 H 6261.08 4.12258 -3.63763 0
M  V30 62718 H 6262.31 5.14123 -4.43683 0
M  V30 62719 H 6260.25 6.10176 -2.40877 0
M  V30 62720 H 6260.17 6.33611 -4.12399 0
M  V30 62721 H 6261.44 7.10159 -3.21394 0
M  V30 62722 N 6265.67 1.26056 0.945918 0
M  V30 62723 C 6266.61 1.07201 2.04393 0
M  V30 62724 C 6267.58 -0.0215212 1.66086 0
M  V30 62725 O 6268.77 0.137339 1.90305 0
M  V30 62726 C 6265.91 0.706033 3.378 0
M  V30 62727 C 6265.02 1.87533 3.89173 0
M  V30 62728 C 6264.16 1.4529 5.10945 0
M  V30 62729 C 6263.19 2.59079 5.54567 0
M  V30 62730 N 6262.33 2.17551 6.67545 0
M  V30 62731 H 6267.17 2.01167 2.19854 0
M  V30 62732 H 6264.71 1.00166 1.07727 0
M  V30 62733 H 6266.67 0.474756 4.1449 0
M  V30 62734 H 6265.3 -0.196648 3.222 0
M  V30 62735 H 6264.35 2.21967 3.08925 0
M  V30 62736 H 6265.66 2.72955 4.17489 0
M  V30 62737 H 6264.81 1.18179 5.95079 0
M  V30 62738 H 6263.55 0.569516 4.84363 0
M  V30 62739 H 6262.56 2.86925 4.68993 0
M  V30 62740 H 6263.78 3.48009 5.83152 0
M  V30 62741 H 6261.73 1.3164 6.42656 0
M  V30 62742 H 6261.65 2.96518 6.95423 0
M  V30 62743 H 6262.91 1.93639 7.55066 0
M  V30 62744 N 6267.14 -1.14981 1.07783 0
M  V30 62745 C 6268.11 -2.18057 0.705956 0
M  V30 62746 C 6269.11 -1.58749 -0.256026 0
M  V30 62747 O 6270.3 -1.74162 -0.0364065 0
M  V30 62748 C 6267.43 -3.40875 0.0412452 0
M  V30 62749 H 6268.62 -2.5247 1.61861 0
M  V30 62750 H 6266.18 -1.29518 0.874909 0
M  V30 62751 H 6266.91 -3.12035 -0.883438 0
M  V30 62752 H 6266.7 -3.85184 0.733195 0
M  V30 62753 H 6268.19 -4.17101 -0.204128 0
M  V30 62754 N 6268.62 -0.862572 -1.31899 0
M  V30 62755 C 6269.85 -0.484077 -2.01157 0
M  V30 62756 C 6270.27 0.921422 -1.64788 0
M  V30 62757 O 6269.62 1.6025 -0.873272 0
M  V30 62758 C 6269.67 -0.622834 -3.56094 0
M  V30 62759 O 6269.39 -1.97298 -3.91159 0
M  V30 62760 C 6270.9 -0.244381 -4.42626 0
M  V30 62761 H 6268.12 -0.189401 -0.643715 0
M  V30 62762 H 6270.66 -1.1617 -1.683 0
M  V30 62763 H 6268.81 0.00714547 -3.87399 0
M  V30 62764 H 6269.23 -1.97542 -4.85878 0
M  V30 62765 H 6270.7 -0.392447 -5.50603 0
M  V30 62766 H 6271.18 0.815854 -4.31556 0
M  V30 62767 H 6271.79 -0.849757 -4.16724 0
M  V30 62768 N 6270.1 1.44837 -0.62128 0
M  V30 62769 C 6271.33 2.065 -0.128633 0
M  V30 62770 C 6271.74 1.46355 1.19271 0
M  V30 62771 O 6271.1 0.582753 1.72946 0
M  V30 62772 C 6271.15 3.615 0.00284914 0
M  V30 62773 O 6270.87 4.19402 -1.26623 0
M  V30 62774 C 6272.37 4.40176 0.52535 0
M  V30 62775 H 6269.59 0.66678 -0.0751362 0
M  V30 62776 H 6272.14 1.85865 -0.852895 0
M  V30 62777 H 6270.29 3.8143 0.677501 0
M  V30 62778 H 6270.71 5.12734 -1.10472 0
M  V30 62779 H 6272.18 5.49087 0.566392 0
M  V30 62780 H 6272.66 4.10924 1.55043 0
M  V30 62781 H 6273.26 4.25143 -0.115718 0
M  V30 62782 N 6271.58 0.361238 1.53404 0
M  V30 62783 C 6272.82 -0.230151 2.0149 0
M  V30 62784 C 6273.16 -1.48774 1.24819 0
M  V30 62785 O 6272.43 -1.91493 0.340679 0
M  V30 62786 C 6272.72 -0.526487 3.5623 0
M  V30 62787 C 6272.57 0.744433 4.43597 0
M  V30 62788 C 6273.89 -1.32886 4.19559 0
M  V30 62789 H 6271.01 -0.0821751 0.732404 0
M  V30 62790 H 6273.65 0.485272 1.83698 0
M  V30 62791 H 6271.8 -1.13596 3.71521 0
M  V30 62792 H 6273.47 1.38203 4.40111 0
M  V30 62793 H 6271.71 1.36569 4.11742 0
M  V30 62794 H 6272.38 0.492106 5.49802 0
M  V30 62795 H 6274.86 -0.813331 4.08074 0
M  V30 62796 H 6273.74 -1.50495 5.27866 0
M  V30 62797 H 6274 -2.33612 3.75337 0
M  V30 62798 N 6273.06 -1.57341 0.090294 0
M  V30 62799 C 6274.28 -1.98515 -0.583056 0
M  V30 62800 C 6274.7 -0.969265 -1.62021 0
M  V30 62801 O 6274.06 0.0417508 -1.82452 0
M  V30 62802 C 6274.11 -3.39747 -1.23508 0
M  V30 62803 O 6273.83 -4.37445 -0.239414 0
M  V30 62804 C 6275.33 -3.95897 -1.99449 0
M  V30 62805 H 6272.55 -0.652451 -0.156678 0
M  V30 62806 H 6275.09 -2.03807 0.168164 0
M  V30 62807 H 6273.25 -3.35483 -1.93726 0
M  V30 62808 H 6273.66 -5.1968 -0.709437 0
M  V30 62809 H 6275.14 -4.96885 -2.40437 0
M  V30 62810 H 6275.61 -3.33451 -2.85844 0
M  V30 62811 H 6276.22 -4.03619 -1.34058 0
M  V30 62812 N 6274.53 0.183375 -1.5653 0
M  V30 62813 C 6275.78 0.90015 -1.80947 0
M  V30 62814 C 6276.1 1.83299 -0.665311 0
M  V30 62815 O 6275.37 1.93341 0.315629 0
M  V30 62816 H 6273.95 0.335385 -0.667477 0
M  V30 62817 H 6276.62 0.186078 -1.9401 0
M  V30 62818 H 6275.71 1.48427 -2.74546 0
M  V30 62819 N 6276.01 1.50994 0.451511 0
M  V30 62820 C 6277.24 1.66746 1.22489 0
M  V30 62821 C 6277.66 0.358852 1.85358 0
M  V30 62822 O 6277.01 -0.661252 1.70099 0
M  V30 62823 C 6277.06 2.77289 2.31933 0
M  V30 62824 O 6276.78 4.03078 1.71638 0
M  V30 62825 C 6278.29 3.04186 3.22468 0
M  V30 62826 H 6275.51 0.559953 0.369721 0
M  V30 62827 H 6278.05 1.97331 0.536715 0
M  V30 62828 H 6276.2 2.49343 2.96491 0
M  V30 62829 H 6276.62 4.64363 2.43859 0
M  V30 62830 H 6278.09 3.85151 3.95427 0
M  V30 62831 H 6278.57 2.16028 3.82398 0
M  V30 62832 H 6279.18 3.33739 2.63626 0
M  V30 62833 N 6277.49 -0.706019 1.40901 0
M  V30 62834 C 6278.9 -1.28555 1.3539 0
M  V30 62835 C 6279.25 -1.96174 0.0319592 0
M  V30 62836 O 6278.38 -1.98144 -0.869948 0
M  V30 62837 C 6278.97 -2.33776 2.45223 0
M  V30 62838 C 6277.53 -2.87331 2.43142 0
M  V30 62839 C 6276.68 -1.61235 2.25607 0
M  V30 62840 H 6279.63 -0.501486 1.50568 0
M  V30 62841 H 6279.65 -3.14835 2.1368 0
M  V30 62842 H 6279.16 -1.84533 3.41422 0
M  V30 62843 H 6277.26 -3.40778 1.50668 0
M  V30 62844 H 6277.38 -3.38473 3.39077 0
M  V30 62845 H 6275.74 -1.86658 1.73294 0
M  V30 62846 H 6276.52 -1.14003 3.23818 0
M  V30 62847 N 6278.97 -1.26556 -0.93922 0
M  V30 62848 C 6280.21 -1.13439 -1.70032 0
M  V30 62849 C 6280.57 0.316603 -1.89372 0
M  V30 62850 O 6281.77 0.569942 -2.62688 0
M  V30 62851 C 6280.04 -1.88435 -3.03689 0
M  V30 62852 S 6281.6 -1.91395 -3.94859 0
M  V30 62853 H 6278.42 -0.405177 -0.584254 0
M  V30 62854 H 6281.02 -1.60303 -1.11907 0
M  V30 62855 H 6279.73 -2.93069 -2.87295 0
M  V30 62856 H 6279.26 -1.4202 -3.66871 0
M  V30 62857 H 6281.27 -1.00206 -4.85976 0
M  V30 62858 N 6280.45 1.14407 -1.08391 0
M  V30 62859 C 6281.38 2.19138 -0.671642 0
M  V30 62860 C 6282.39 1.60353 0.281199 0
M  V30 62861 O 6283.58 1.78367 0.0688795 0
M  V30 62862 C 6280.68 3.38884 0.0325255 0
M  V30 62863 C 6279.85 4.27198 -0.939174 0
M  V30 62864 C 6278.91 5.25505 -0.270361 0
M  V30 62865 O 6277.94 5.61802 -0.914719 0
M  V30 62866 N 6279.14 5.72171 0.979801 0
M  V30 62867 H 6281.91 2.55125 -1.57263 0
M  V30 62868 H 6279.47 1.29627 -0.969976 0
M  V30 62869 H 6281.46 4.01712 0.490893 0
M  V30 62870 H 6280.03 3.01225 0.835603 0
M  V30 62871 H 6279.25 3.61308 -1.57639 0
M  V30 62872 H 6280.54 4.83067 -1.59763 0
M  V30 62873 H 6279.93 5.44811 1.52306 0
M  V30 62874 H 6278.49 6.36988 1.38167 0
M  V30 62875 N 6281.93 0.869555 1.3144 0
M  V30 62876 C 6282.84 0.328434 2.3229 0
M  V30 62877 C 6283.85 -0.561433 1.64693 0
M  V30 62878 O 6285.03 -0.458247 1.96117 0
M  V30 62879 C 6282.09 -0.461612 3.43613 0
M  V30 62880 C 6281.15 0.456165 4.2687 0
M  V30 62881 C 6280.39 -0.296271 5.32877 0
M  V30 62882 O 6280.61 -1.52441 5.49652 0
M  V30 62883 O 6279.54 0.345654 6.00907 0
M  V30 62884 H 6283.37 1.16434 2.80494 0
M  V30 62885 H 6280.95 0.632917 1.35331 0
M  V30 62886 H 6282.84 -0.909505 4.11468 0
M  V30 62887 H 6281.51 -1.27407 2.97572 0
M  V30 62888 H 6280.42 0.952548 3.6177 0
M  V30 62889 H 6281.75 1.23421 4.76475 0
M  V30 62890 N 6283.4 -1.44506 0.628953 0
M  V30 62891 C 6284.65 -2.02909 0.14128 0
M  V30 62892 C 6285 -1.48573 -1.22245 0
M  V30 62893 O 6284.3 -0.659352 -1.79897 0
M  V30 62894 C 6284.49 -3.57339 0.0661693 0
M  V30 62895 C 6284.32 -4.26656 1.42107 0
M  V30 62896 C 6283.09 -4.6372 2.00729 0
M  V30 62897 C 6285.29 -4.57242 2.35445 0
M  V30 62898 N 6283.27 -5.17994 3.29477 0
M  V30 62899 C 6284.64 -5.12576 3.48806 0
M  V30 62900 C 6286.7 -4.39193 2.34551 0
M  V30 62901 C 6285.4 -5.51762 4.61466 0
M  V30 62902 C 6287.43 -4.79425 3.46274 0
M  V30 62903 C 6286.79 -5.34871 4.58358 0
M  V30 62904 H 6282.89 -0.776138 0.0955673 0
M  V30 62905 H 6285.47 -1.76029 0.831972 0
M  V30 62906 H 6283.64 -3.83834 -0.593797 0
M  V30 62907 H 6285.37 -4.02408 -0.43013 0
M  V30 62908 H 6282.13 -4.47967 1.53698 0
M  V30 62909 H 6282.55 -5.4961 3.95295 0
M  V30 62910 H 6287.19 -3.9562 1.49145 0
M  V30 62911 H 6284.91 -5.9429 5.47581 0
M  V30 62912 H 6288.5 -4.67175 3.46755 0
M  V30 62913 H 6287.38 -5.65428 5.43379 0
M  V30 62914 N 6284.88 -0.369369 -1.5321 0
M  V30 62915 C 6285.84 0.463049 -2.24474 0
M  V30 62916 C 6286.84 1.00663 -1.25394 0
M  V30 62917 O 6288.03 0.89178 -1.49643 0
M  V30 62918 C 6285.17 1.64759 -2.98441 0
M  V30 62919 H 6286.36 -0.160584 -2.9947 0
M  V30 62920 H 6283.91 -0.121123 -1.5583 0
M  V30 62921 H 6284.65 2.30921 -2.27697 0
M  V30 62922 H 6284.43 1.26474 -3.71142 0
M  V30 62923 H 6285.92 2.23741 -3.52604 0
M  V30 62924 N 6286.36 1.57291 -0.0986369 0
M  V30 62925 C 6287.32 2.13073 0.844554 0
M  V30 62926 C 6288.32 1.0608 1.20845 0
M  V30 62927 O 6289.51 1.31951 1.13731 0
M  V30 62928 C 6286.64 2.65423 2.13924 0
M  V30 62929 H 6287.84 2.9773 0.360125 0
M  V30 62930 H 6285.39 1.55575 0.150397 0
M  V30 62931 H 6286.13 1.84296 2.66844 0
M  V30 62932 H 6285.91 3.43653 1.88799 0
M  V30 62933 H 6287.4 3.08561 2.81389 0
M  V30 62934 N 6287.84 -0.175072 1.56625 0
M  V30 62935 C 6288.77 -1.2413 1.92677 0
M  V30 62936 C 6289.78 -1.40672 0.819467 0
M  V30 62937 O 6290.97 -1.40742 1.09791 0
M  V30 62938 C 6288.07 -2.61056 2.16109 0
M  V30 62939 C 6287.24 -2.65862 3.47327 0
M  V30 62940 C 6286.3 -3.84124 3.59632 0
M  V30 62941 O 6285.33 -3.70296 4.32284 0
M  V30 62942 N 6286.53 -5.00425 2.94203 0
M  V30 62943 H 6289.3 -0.935117 2.84738 0
M  V30 62944 H 6286.86 -0.364863 1.57735 0
M  V30 62945 H 6288.85 -3.38632 2.21609 0
M  V30 62946 H 6287.42 -2.8408 1.3045 0
M  V30 62947 H 6286.64 -1.74409 3.53518 0
M  V30 62948 H 6287.93 -2.6608 4.3368 0
M  V30 62949 H 6287.33 -5.1456 2.35042 0
M  V30 62950 H 6285.88 -5.75876 3.05304 0
M  V30 62951 N 6289.32 -1.51231 -0.443497 0
M  V30 62952 C 6290.23 -1.74934 -1.56318 0
M  V30 62953 C 6291.24 -0.633324 -1.62065 0
M  V30 62954 O 6292.42 -0.914871 -1.79421 0
M  V30 62955 C 6289.48 -1.86371 -2.92347 0
M  V30 62956 C 6288.54 -3.10206 -2.96767 0
M  V30 62957 C 6287.78 -3.21088 -4.26307 0
M  V30 62958 O 6288 -2.38061 -5.18346 0
M  V30 62959 O 6286.93 -4.14023 -4.36885 0
M  V30 62960 H 6290.76 -2.69903 -1.39234 0
M  V30 62961 H 6288.34 -1.35658 -0.625872 0
M  V30 62962 H 6290.23 -1.95914 -3.73089 0
M  V30 62963 H 6288.9 -0.945883 -3.09572 0
M  V30 62964 H 6287.81 -3.06145 -2.15002 0
M  V30 62965 H 6289.14 -4.01658 -2.84485 0
M  V30 62966 N 6290.79 0.698537 -1.41274 0
M  V30 62967 C 6292.2 1.27835 -1.3607 0
M  V30 62968 C 6292.56 1.96154 -0.0423623 0
M  V30 62969 O 6291.68 1.98602 0.859428 0
M  V30 62970 C 6292.28 2.32473 -2.46459 0
M  V30 62971 C 6290.83 2.86037 -2.44662 0
M  V30 62972 C 6289.98 1.60037 -2.26459 0
M  V30 62973 H 6292.93 0.493494 -1.50832 0
M  V30 62974 H 6292.95 3.13698 -2.15346 0
M  V30 62975 H 6292.47 1.82719 -3.42396 0
M  V30 62976 H 6290.57 3.39974 -1.52473 0
M  V30 62977 H 6290.68 3.3667 -3.40867 0
M  V30 62978 H 6289.04 1.85736 -1.74282 0
M  V30 62979 H 6289.83 1.12284 -3.24418 0
M  V30 62980 N 6292.27 1.27052 0.932495 0
M  V30 62981 C 6293.22 1.06023 2.01849 0
M  V30 62982 C 6294.21 -0.010218 1.60897 0
M  V30 62983 O 6295.4 0.207759 1.75776 0
M  V30 62984 C 6292.53 0.704389 3.35996 0
M  V30 62985 C 6291.61 1.81274 3.83407 0
M  V30 62986 N 6292 3.05156 4.03378 0
M  V30 62987 C 6290.3 1.69832 4.12399 0
M  V30 62988 C 6291 3.77249 4.42785 0
M  V30 62989 N 6289.98 3.04985 4.49984 0
M  V30 62990 H 6293.78 2.00043 2.15314 0
M  V30 62991 H 6291.29 1.17697 1.11898 0
M  V30 62992 H 6293.29 0.534861 4.13455 0
M  V30 62993 H 6291.95 -0.22824 3.23897 0
M  V30 62994 H 6292.96 3.40969 3.89821 0
M  V30 62995 H 6289.64 0.836192 4.0904 0
M  V30 62996 H 6291.03 4.83697 4.66355 0
M  V30 62997 N 6293.75 -1.13831 1.08997 0
M  V30 62998 C 6295.17 -1.36996 0.818789 0
M  V30 62999 C 6295.37 -1.93298 -0.569035 0
M  V30 63000 O 6294.42 -2.14959 -1.32472 0
M  V30 63001 C 6295.73 -2.32543 1.90642 0
M  V30 63002 C 6297.28 -2.46169 1.93313 0
M  V30 63003 C 6297.76 -3.45019 3.01207 0
M  V30 63004 N 6299.25 -3.52567 3.00418 0
M  V30 63005 C 6299.98 -4.28921 3.80545 0
M  V30 63006 N 6299.48 -5.08467 4.70567 0
M  V30 63007 N 6301.27 -4.24178 3.68822 0
M  V30 63008 H 6293.42 -0.756356 1.98477 0
M  V30 63009 H 6295.69 -0.395272 0.861664 0
M  V30 63010 H 6295.39 -1.98321 2.90451 0
M  V30 63011 H 6295.27 -3.32513 1.78088 0
M  V30 63012 H 6297.65 -2.79679 0.941457 0
M  V30 63013 H 6297.73 -1.46139 2.09945 0
M  V30 63014 H 6297.38 -3.1224 4.00585 0
M  V30 63015 H 6297.31 -4.44843 2.81819 0
M  V30 63016 H 6299.8 -2.95805 2.35176 0
M  V30 63017 H 6300.11 -5.64022 5.28298 0
M  V30 63018 H 6298.46 -5.07715 4.74606 0
M  V30 63019 H 6301.65 -3.61108 2.97857 0
M  V30 63020 H 6301.82 -4.83432 4.31506 0
M  V30 63021 N 6295.23 -0.876513 -1.30977 0
M  V30 63022 C 6296.18 -0.308588 -2.25902 0
M  V30 63023 C 6297.16 0.558123 -1.5091 0
M  V30 63024 O 6298.35 0.40393 -1.72329 0
M  V30 63025 C 6295.48 0.483259 -3.39882 0
M  V30 63026 C 6294.57 -0.397063 -4.22237 0
M  V30 63027 N 6294.96 -1.49359 -4.83245 0
M  V30 63028 C 6293.26 -0.190661 -4.45592 0
M  V30 63029 C 6293.96 -2.03699 -5.44868 0
M  V30 63030 N 6292.93 -1.3331 -5.27 0
M  V30 63031 H 6296.74 -1.14656 -2.70613 0
M  V30 63032 H 6294.25 -0.724988 -1.45319 0
M  V30 63033 H 6296.25 0.906699 -4.06921 0
M  V30 63034 H 6294.91 1.31877 -2.96713 0
M  V30 63035 H 6295.92 -1.87649 -4.82709 0
M  V30 63036 H 6292.6 0.60837 -4.13044 0
M  V30 63037 H 6293.99 -2.95735 -6.03316 0
M  V30 63038 N 6296.71 1.4417 -0.636607 0
M  V30 63039 C 6297.93 2.06865 -0.148823 0
M  V30 63040 C 6298.36 1.47299 1.16982 0
M  V30 63041 O 6297.71 0.576526 1.71889 0
M  V30 63042 C 6297.76 3.6056 -0.0534332 0
M  V30 63043 O 6296.87 4.00365 0.989022 0
M  V30 63044 H 6296.21 0.658239 -0.0872742 0
M  V30 63045 H 6298.74 1.84953 -0.874837 0
M  V30 63046 H 6298.75 4.07775 0.135356 0
M  V30 63047 H 6297.42 4.03296 -1.01613 0
M  V30 63048 H 6296 3.64771 0.774362 0
M  V30 63049 N 6298.18 0.377489 1.53012 0
M  V30 63050 C 6299.41 -0.208872 2.05843 0
M  V30 63051 C 6299.83 -1.41483 1.25012 0
M  V30 63052 O 6299.18 -1.8012 0.293766 0
M  V30 63053 C 6299.24 -0.590653 3.56642 0
M  V30 63054 O 6298.96 0.567383 4.3441 0
M  V30 63055 C 6300.46 -1.23414 4.25775 0
M  V30 63056 H 6297.68 -0.0342901 0.670123 0
M  V30 63057 H 6300.22 0.539303 1.97261 0
M  V30 63058 H 6298.38 -1.28873 3.65336 0
M  V30 63059 H 6298.79 0.256246 5.23874 0
M  V30 63060 H 6300.26 -1.45173 5.32568 0
M  V30 63061 H 6300.74 -2.198 3.80243 0
M  V30 63062 H 6301.35 -0.577155 4.21366 0
M  V30 63063 N 6299.66 -1.57237 0.106977 0
M  V30 63064 C 6300.91 -1.94777 -0.553914 0
M  V30 63065 C 6301.24 -0.989511 -1.67448 0
M  V30 63066 O 6300.49 -0.0112084 -1.95697 0
M  V30 63067 C 6300.79 -3.38796 -1.13806 0
M  V30 63068 C 6300.46 -4.50682 -0.140067 0
M  V30 63069 C 6299.12 -4.81012 0.134387 0
M  V30 63070 C 6301.47 -5.18388 0.540714 0
M  V30 63071 C 6298.8 -5.7637 1.09611 0
M  V30 63072 C 6301.15 -6.14778 1.49099 0
M  V30 63073 C 6299.82 -6.43507 1.77355 0
M  V30 63074 H 6299.09 -0.712739 -0.202691 0
M  V30 63075 H 6301.73 -1.90601 0.185332 0
M  V30 63076 H 6300.04 -3.39608 -1.95381 0
M  V30 63077 H 6301.73 -3.6515 -1.65731 0
M  V30 63078 H 6298.32 -4.2705 -0.364166 0
M  V30 63079 H 6302.51 -4.95121 0.341834 0
M  V30 63080 H 6297.76 -5.96938 1.32191 0
M  V30 63081 H 6301.94 -6.66331 2.02425 0
M  V30 63082 H 6299.57 -7.17205 2.52034 0
M  V30 63083 N 6301.14 0.166763 -1.56715 0
M  V30 63084 C 6302.39 0.880979 -1.81443 0
M  V30 63085 C 6302.7 1.83214 -0.68499 0
M  V30 63086 O 6303.91 2.58905 -0.817325 0
M  V30 63087 C 6302.36 1.61713 -3.21523 0
M  V30 63088 C 6301.97 0.709378 -4.42348 0
M  V30 63089 C 6303.72 2.3193 -3.5554 0
M  V30 63090 C 6301.62 1.44602 -5.73449 0
M  V30 63091 H 6300.55 0.332717 -0.676621 0
M  V30 63092 H 6303.2 0.133859 -1.83011 0
M  V30 63093 H 6301.59 2.40917 -3.14285 0
M  V30 63094 H 6302.76 -0.0460211 -4.60777 0
M  V30 63095 H 6301.08 0.116629 -4.16237 0
M  V30 63096 H 6303.67 2.87646 -4.50737 0
M  V30 63097 H 6304.02 3.07485 -2.8064 0
M  V30 63098 H 6304.55 1.59665 -3.64351 0
M  V30 63099 H 6301.29 0.732708 -6.51392 0
M  V30 63100 H 6300.81 2.17463 -5.5899 0
M  V30 63101 H 6302.49 1.99228 -6.15562 0
M  V30 63102 N 6302.62 1.51464 0.43547 0
M  V30 63103 C 6304.03 1.56682 1.01527 0
M  V30 63104 C 6304.38 0.391404 1.92256 0
M  V30 63105 O 6303.51 -0.491573 2.10743 0
M  V30 63106 C 6304.1 2.83957 1.84807 0
M  V30 63107 C 6302.66 2.9174 2.37834 0
M  V30 63108 C 6301.81 2.51363 1.17098 0
M  V30 63109 H 6304.76 1.57214 0.216671 0
M  V30 63110 H 6304.78 2.67825 2.70278 0
M  V30 63111 H 6304.29 3.69487 1.18747 0
M  V30 63112 H 6302.39 2.10644 3.07343 0
M  V30 63113 H 6302.5 3.9543 2.70503 0
M  V30 63114 H 6300.87 2.04604 1.51688 0
M  V30 63115 H 6301.65 3.39239 0.526447 0
M  V30 63116 N 6304.1 -0.691035 1.41642 0
M  V30 63117 C 6305.34 -1.44823 1.40964 0
M  V30 63118 C 6305.67 -1.94988 0.0212475 0
M  V30 63119 O 6304.94 -1.72003 -0.937653 0
M  V30 63120 H 6303.52 -0.537372 0.518884 0
M  V30 63121 H 6306.18 -0.817615 1.76921 0
M  V30 63122 H 6305.27 -2.30918 2.0996 0
M  V30 63123 N 6305.57 -1.27545 -0.925744 0
M  V30 63124 C 6306.8 -1.16816 -1.70767 0
M  V30 63125 C 6307.22 0.274758 -1.8679 0
M  V30 63126 O 6306.57 1.18689 -1.38633 0
M  V30 63127 C 6306.63 -1.84914 -3.10627 0
M  V30 63128 O 6306.35 -3.23569 -2.95355 0
M  V30 63129 C 6307.85 -1.80336 -4.04961 0
M  V30 63130 H 6305.07 -0.406055 -0.534191 0
M  V30 63131 H 6307.61 -1.68452 -1.15949 0
M  V30 63132 H 6305.77 -1.37179 -3.62299 0
M  V30 63133 H 6306.18 -3.57501 -3.83788 0
M  V30 63134 H 6307.65 -2.32595 -5.00603 0
M  V30 63135 H 6308.13 -0.773127 -4.32342 0
M  V30 63136 H 6308.74 -2.27695 -3.59214 0
M  V30 63137 N 6307.05 1.13251 -1.09599 0
M  V30 63138 C 6308 2.20791 -0.731702 0
M  V30 63139 C 6308.99 1.67263 0.268197 0
M  V30 63140 O 6310.2 1.79534 0.129472 0
M  V30 63141 H 6306.58 0.719513 -0.218643 0
M  V30 63142 H 6308.55 2.48778 -1.64779 0
M  V30 63143 C 6307.3 3.47283 -0.170336 0
M  V30 63144 H 6306.62 3.8881 -0.930941 0
M  V30 63145 H 6308.06 4.23974 0.0466009 0
M  V30 63146 C 6306.52 3.18613 1.09486 0
M  V30 63147 O 6307.05 3.37542 2.17781 0
M  V30 63148 N 6305.25 2.72481 1.01007 0
M  V30 63149 H 6304.8 2.57278 0.128723 0
M  V30 63150 H 6304.76 2.53675 1.85733 0
M  V30 63151 N 6308.53 0.883447 1.3051 0
M  V30 63152 C 6309.48 0.347334 2.28171 0
M  V30 63153 C 6310.45 -0.561643 1.56316 0
M  V30 63154 O 6311.63 -0.490389 1.8439 0
M  V30 63155 C 6308.77 -0.433453 3.42367 0
M  V30 63156 C 6307.89 0.504568 4.29043 0
M  V30 63157 C 6307.02 -0.291666 5.30399 0
M  V30 63158 C 6306.06 0.641922 6.08725 0
M  V30 63159 N 6305.2 -0.118893 7.01999 0
M  V30 63160 H 6310.04 1.1853 2.73413 0
M  V30 63161 H 6307.57 0.595871 1.34491 0
M  V30 63162 H 6309.53 -0.902043 4.07332 0
M  V30 63163 H 6308.16 -1.236 2.98199 0
M  V30 63164 H 6307.21 1.09164 3.644 0
M  V30 63165 H 6308.53 1.21986 4.83654 0
M  V30 63166 H 6307.68 -0.822178 6.01103 0
M  V30 63167 H 6306.42 -1.04018 4.76478 0
M  V30 63168 H 6305.42 1.18408 5.36898 0
M  V30 63169 H 6306.65 1.38951 6.64733 0
M  V30 63170 H 6304.59 -0.849975 6.5047 0
M  V30 63171 H 6304.51 0.536802 7.54092 0
M  V30 63172 H 6305.78 -0.630197 7.76948 0
M  V30 63173 N 6310.01 -1.43831 0.644244 0
M  V30 63174 C 6311.25 -2.02747 0.162793 0
M  V30 63175 C 6311.61 -1.49861 -1.20662 0
M  V30 63176 O 6310.9 -0.678395 -1.79188 0
M  V30 63177 C 6311.1 -3.57248 0.104066 0
M  V30 63178 C 6310.93 -4.25125 1.46624 0
M  V30 63179 C 6309.7 -4.61565 2.05636 0
M  V30 63180 C 6311.89 -4.54719 2.40281 0
M  V30 63181 N 6309.88 -5.14471 3.34952 0
M  V30 63182 C 6311.25 -5.08848 3.54223 0
M  V30 63183 C 6313.3 -4.3668 2.39196 0
M  V30 63184 C 6312 -5.46837 4.67292 0
M  V30 63185 C 6314.03 -4.75726 3.51339 0
M  V30 63186 C 6313.39 -5.2998 4.64005 0
M  V30 63187 H 6309.49 -0.775081 0.103794 0
M  V30 63188 H 6312.08 -1.75137 0.850596 0
M  V30 63189 H 6310.25 -3.84442 -0.553053 0
M  V30 63190 H 6311.98 -4.02841 -0.387425 0
M  V30 63191 H 6308.73 -4.46311 1.5844 0
M  V30 63192 H 6309.16 -5.45386 4.01102 0
M  V30 63193 H 6313.8 -3.94016 1.53333 0
M  V30 63194 H 6311.52 -5.88449 5.53853 0
M  V30 63195 H 6315.1 -4.63471 3.51691 0
M  V30 63196 H 6313.98 -5.59633 5.49345 0
M  V30 63197 N 6311.49 -0.385598 -1.5281 0
M  V30 63198 C 6312.45 0.439215 -2.24952 0
M  V30 63199 C 6313.45 0.993271 -1.26455 0
M  V30 63200 O 6314.64 0.875858 -1.5058 0
M  V30 63201 C 6311.77 1.61585 -3.00172 0
M  V30 63202 H 6312.97 -0.192338 -2.99283 0
M  V30 63203 H 6310.52 -0.137644 -1.55693 0
M  V30 63204 H 6311.25 2.28493 -2.30133 0
M  V30 63205 H 6311.04 1.22531 -3.72463 0
M  V30 63206 H 6312.53 2.19988 -3.54958 0
M  V30 63207 N 6312.97 1.57178 -0.115314 0
M  V30 63208 C 6314.21 1.94683 0.542503 0
M  V30 63209 C 6314.53 0.999269 1.6745 0
M  V30 63210 O 6313.8 0.0549048 1.95823 0
M  V30 63211 H 6312.38 0.718776 0.203396 0
M  V30 63212 H 6315.05 1.94035 -0.183391 0
M  V30 63213 H 6314.14 2.97624 0.939494 0
M  V30 63214 N 6314.44 -0.15845 1.56801 0
M  V30 63215 C 6315.37 -1.19792 2.0043 0
M  V30 63216 C 6316.35 -1.45449 0.881956 0
M  V30 63217 O 6317.54 -1.56565 1.14896 0
M  V30 63218 C 6314.67 -2.53384 2.37516 0
M  V30 63219 C 6313.62 -2.4227 3.5283 0
M  V30 63220 C 6312.95 -3.80469 3.75696 0
M  V30 63221 C 6314.25 -1.91649 4.85868 0
M  V30 63222 H 6315.94 -0.835202 2.87515 0
M  V30 63223 H 6313.49 -0.400317 1.38324 0
M  V30 63224 H 6315.44 -3.26317 2.66637 0
M  V30 63225 H 6314.17 -2.91469 1.47355 0
M  V30 63226 H 6312.83 -1.7179 3.23858 0
M  V30 63227 H 6312.47 -4.15969 2.82805 0
M  V30 63228 H 6312.17 -3.73898 4.53293 0
M  V30 63229 H 6313.7 -4.54968 4.0723 0
M  V30 63230 H 6315.11 -2.54366 5.13781 0
M  V30 63231 H 6313.51 -1.95996 5.67191 0
M  V30 63232 H 6314.58 -0.871498 4.77004 0
M  V30 63233 N 6315.92 -1.51693 -0.427432 0
M  V30 63234 C 6316.83 -1.76582 -1.54454 0
M  V30 63235 C 6317.85 -0.650478 -1.61384 0
M  V30 63236 O 6319.02 -0.93385 -1.78441 0
M  V30 63237 C 6316.09 -1.89461 -2.90354 0
M  V30 63238 C 6315.15 -3.13337 -2.9346 0
M  V30 63239 C 6314.38 -3.25592 -4.22878 0
M  V30 63240 O 6314.61 -2.43546 -5.15792 0
M  V30 63241 O 6313.54 -4.18633 -4.32469 0
M  V30 63242 H 6317.37 -2.71365 -1.36363 0
M  V30 63243 H 6314.95 -1.36315 -0.611448 0
M  V30 63244 H 6316.83 -1.99861 -3.7099 0
M  V30 63245 H 6315.51 -0.978664 -3.08551 0
M  V30 63246 H 6314.41 -3.08408 -2.11743 0
M  V30 63247 H 6315.75 -4.04653 -2.80209 0
M  V30 63248 N 6317.4 0.683514 -1.42007 0
M  V30 63249 C 6318.35 1.79725 -1.44802 0
M  V30 63250 C 6319.32 1.63351 -0.300962 0
M  V30 63251 O 6320.5 1.84029 -0.503772 0
M  V30 63252 C 6317.64 3.17697 -1.34769 0
M  V30 63253 C 6316.75 3.45419 -2.59441 0
M  V30 63254 C 6315.89 4.73071 -2.41614 0
M  V30 63255 C 6314.93 4.93799 -3.61703 0
M  V30 63256 N 6314.07 6.12685 -3.42872 0
M  V30 63257 H 6318.91 1.7667 -2.39983 0
M  V30 63258 H 6316.44 0.862582 -1.19155 0
M  V30 63259 H 6318.4 3.97415 -1.26952 0
M  V30 63260 H 6317.03 3.19898 -0.431897 0
M  V30 63261 H 6316.08 2.60017 -2.7766 0
M  V30 63262 H 6317.39 3.56632 -3.48733 0
M  V30 63263 H 6316.55 5.60865 -2.31333 0
M  V30 63264 H 6315.29 4.64125 -1.49798 0
M  V30 63265 H 6314.29 4.0445 -3.72425 0
M  V30 63266 H 6315.52 5.04596 -4.54488 0
M  V30 63267 H 6313.46 6.04929 -2.53765 0
M  V30 63268 H 6313.38 6.24721 -4.25746 0
M  V30 63269 H 6314.65 7.03182 -3.36386 0
M  V30 63270 N 6318.88 1.28034 0.918967 0
M  V30 63271 C 6319.83 1.11362 2.04209 0
M  V30 63272 C 6320.82 0.0343112 1.69365 0
M  V30 63273 O 6322.03 0.192691 1.78966 0
M  V30 63274 H 6318.4 0.343421 0.669004 0
M  V30 63275 H 6320.37 2.06493 2.15414 0
M  V30 63276 C 6319.12 0.786772 3.38682 0
M  V30 63277 H 6318.44 1.60923 3.65983 0
M  V30 63278 H 6319.88 0.710044 4.18012 0
M  V30 63279 C 6318.34 -0.509266 3.33029 0
M  V30 63280 O 6318.87 -1.54112 3.70962 0
M  V30 63281 N 6317.08 -0.508087 2.86124 0
M  V30 63282 H 6316.63 0.332037 2.55451 0
M  V30 63283 H 6316.58 -1.37529 2.82724 0
M  V30 63284 N 6320.36 -1.12669 1.10198 0
M  V30 63285 C 6321.59 -1.87679 0.863719 0
M  V30 63286 C 6321.99 -1.79791 -0.589208 0
M  V30 63287 O 6321.34 -1.16806 -1.41782 0
M  V30 63288 C 6321.4 -3.37789 1.23039 0
M  V30 63289 C 6321.06 -3.69454 2.68985 0
M  V30 63290 C 6322.06 -3.68024 3.67225 0
M  V30 63291 C 6319.74 -3.98864 3.05308 0
M  V30 63292 C 6321.74 -3.95559 4.99812 0
M  V30 63293 C 6319.43 -4.26059 4.38083 0
M  V30 63294 C 6320.42 -4.24393 5.35145 0
M  V30 63295 O 6320.11 -4.50915 6.6553 0
M  V30 63296 H 6319.84 -0.600756 0.309949 0
M  V30 63297 H 6322.4 -1.43499 1.4696 0
M  V30 63298 H 6320.63 -3.82512 0.567598 0
M  V30 63299 H 6322.32 -3.94139 0.970008 0
M  V30 63300 H 6323.08 -3.45368 3.40508 0
M  V30 63301 H 6318.96 -3.99304 2.30386 0
M  V30 63302 H 6322.51 -3.94173 5.75563 0
M  V30 63303 H 6318.4 -4.48188 4.6454 0
M  V30 63304 H 6319.17 -4.68546 6.71124 0
M  V30 63305 N 6321.83 -0.890356 -1.3004 0
M  V30 63306 C 6323.07 -0.518296 -1.9772 0
M  V30 63307 C 6323.44 0.916503 -1.68713 0
M  V30 63308 O 6324.64 1.39496 -2.2977 0
M  V30 63309 C 6322.91 -0.791697 -3.48521 0
M  V30 63310 S 6324.47 -0.522546 -4.35678 0
M  V30 63311 H 6321.29 -0.192638 -0.684406 0
M  V30 63312 H 6323.89 -1.15078 -1.58042 0
M  V30 63313 H 6322.59 -1.83434 -3.67124 0
M  V30 63314 H 6322.12 -0.146974 -3.93125 0
M  V30 63315 H 6324.14 0.63651 -4.92101 0
M  V30 63316 N 6323.31 1.43487 -0.651863 0
M  V30 63317 C 6324.73 1.56373 -0.319305 0
M  V30 63318 C 6324.93 1.63577 1.17664 0
M  V30 63319 O 6323.98 1.5901 1.96143 0
M  V30 63320 C 6325.3 2.82529 -1.02947 0
M  V30 63321 C 6326.84 2.96271 -1.00959 0
M  V30 63322 C 6327.32 4.25256 -1.70062 0
M  V30 63323 N 6328.81 4.32117 -1.6682 0
M  V30 63324 C 6329.55 5.30686 -2.17164 0
M  V30 63325 N 6329.04 6.3554 -2.75791 0
M  V30 63326 N 6330.83 5.2233 -2.07672 0
M  V30 63327 H 6322.99 1.37054 -1.62265 0
M  V30 63328 H 6325.25 0.658145 -0.682312 0
M  V30 63329 H 6324.95 2.83264 -2.08458 0
M  V30 63330 H 6324.83 3.72711 -0.580178 0
M  V30 63331 H 6327.22 2.95077 0.0371081 0
M  V30 63332 H 6327.3 2.07381 -1.49756 0
M  V30 63333 H 6326.94 4.27211 -2.74688 0
M  V30 63334 H 6326.87 5.1304 -1.18732 0
M  V30 63335 H 6329.36 3.56964 -1.24037 0
M  V30 63336 H 6329.67 7.07069 -3.11886 0
M  V30 63337 H 6328.02 6.36167 -2.79851 0
M  V30 63338 H 6331.21 4.3933 -1.61576 0
M  V30 63339 H 6331.38 5.98989 -2.47216 0
M  V30 63340 N 6324.79 0.393696 1.52603 0
M  V30 63341 C 6325.74 -0.454166 2.28123 0
M  V30 63342 C 6326.73 -1.05926 1.32197 0
M  V30 63343 O 6327.94 -0.999233 1.49717 0
M  V30 63344 H 6324.31 -0.165223 0.733625 0
M  V30 63345 H 6326.28 0.204188 2.97701 0
M  V30 63346 C 6325.03 -1.56699 3.10388 0
M  V30 63347 H 6324.36 -1.1107 3.84062 0
M  V30 63348 H 6325.8 -2.13438 3.66361 0
M  V30 63349 C 6324.25 -2.52554 2.22976 0
M  V30 63350 O 6324.78 -3.56069 1.85952 0
M  V30 63351 N 6322.99 -2.22398 1.87049 0
M  V30 63352 H 6322.54 -1.38253 2.17356 0
M  V30 63353 H 6322.5 -2.86782 1.28853 0
M  V30 63354 N 6326.27 -1.57114 0.123648 0
M  V30 63355 C 6327.68 -1.82343 -0.400987 0
M  V30 63356 C 6328.03 -1.04108 -1.66301 0
M  V30 63357 O 6327.16 -0.279099 -2.14593 0
M  V30 63358 C 6327.75 -3.30747 -0.734277 0
M  V30 63359 C 6326.31 -3.5664 -1.20353 0
M  V30 63360 C 6325.46 -2.76468 -0.214589 0
M  V30 63361 H 6328.41 -1.54821 0.348711 0
M  V30 63362 H 6328.43 -3.45629 -1.59125 0
M  V30 63363 H 6327.94 -3.87662 0.184424 0
M  V30 63364 H 6326.04 -3.05088 -2.13897 0
M  V30 63365 H 6326.15 -4.65201 -1.14564 0
M  V30 63366 H 6324.52 -2.44819 -0.702562 0
M  V30 63367 H 6325.3 -3.36144 0.697292 0
M  V30 63368 N 6327.75 0.150132 -1.56883 0
M  V30 63369 C 6329.02 0.89178 -1.74088 0
M  V30 63370 C 6329.4 1.99476 -0.690822 0
M  V30 63371 O 6328.75 2.26642 0.290798 0
M  V30 63372 C 6328.96 1.43711 -3.18038 0
M  V30 63373 C 6330.31 1.90175 -3.7963 0
M  V30 63374 O 6331.33 1.5346 -3.21448 0
M  V30 63375 O 6330.19 2.57875 -4.81833 0
M  V30 63376 H 6327.29 0.421216 -0.711692 0
M  V30 63377 H 6329.83 0.136302 -1.69152 0
M  V30 63378 H 6328.6 0.644287 -3.85959 0
M  V30 63379 H 6328.23 2.25618 -3.27387 0
M  V30 63380 N 6329.22 1.51918 0.419381 0
M  V30 63381 C 6330.47 1.65146 1.16496 0
M  V30 63382 C 6330.79 0.378699 1.91287 0
M  V30 63383 O 6330.06 -0.606099 1.86288 0
M  V30 63384 H 6328.64 0.608683 0.433029 0
M  V30 63385 H 6331.31 1.8892 0.479073 0
M  V30 63386 H 6330.4 2.48769 1.88468 0
M  V30 63387 N 6330.7 -0.675973 1.42367 0
M  V30 63388 C 6331.98 -1.43185 1.33257 0
M  V30 63389 C 6332.36 -2.11078 -0.0306023 0
M  V30 63390 O 6331.71 -2.03151 -1.04603 0
M  V30 63391 C 6331.92 -2.43525 2.49993 0
M  V30 63392 C 6333.27 -3.08203 2.92055 0
M  V30 63393 O 6334.29 -2.53852 2.49875 0
M  V30 63394 O 6333.15 -4.0669 3.65056 0
M  V30 63395 H 6330.24 -0.638608 0.525461 0
M  V30 63396 H 6332.79 -0.704796 1.54372 0
M  V30 63397 H 6331.56 -1.92147 3.40874 0
M  V30 63398 H 6331.18 -3.23713 2.30859 0
M  V30 63399 N 6332.18 -1.2852 -0.912164 0
M  V30 63400 C 6333.43 -1.15144 -1.65605 0
M  V30 63401 C 6333.74 0.298954 -1.93302 0
M  V30 63402 O 6334.95 0.553856 -2.65791 0
M  V30 63403 C 6333.4 -2.01297 -2.98341 0
M  V30 63404 C 6333.01 -3.51086 -2.78285 0
M  V30 63405 C 6334.76 -1.96612 -3.76223 0
M  V30 63406 C 6332.66 -4.29386 -4.06672 0
M  V30 63407 H 6331.59 -0.427332 -0.621211 0
M  V30 63408 H 6334.24 -1.53063 -1.01212 0
M  V30 63409 H 6332.63 -1.56235 -3.63877 0
M  V30 63410 H 6333.8 -4.04116 -2.21419 0
M  V30 63411 H 6332.12 -3.57313 -2.13814 0
M  V30 63412 H 6334.71 -2.52379 -4.7139 0
M  V30 63413 H 6335.06 -0.943229 -4.05474 0
M  V30 63414 H 6335.59 -2.39652 -3.17509 0
M  V30 63415 H 6332.33 -5.32262 -3.82594 0
M  V30 63416 H 6331.85 -3.81128 -4.63143 0
M  V30 63417 H 6333.53 -4.39389 -4.74917 0
M  V30 63418 N 6333.66 1.12083 -1.10794 0
M  V30 63419 C 6334.61 2.20003 -0.755078 0
M  V30 63420 C 6335.6 1.67538 0.250442 0
M  V30 63421 O 6336.81 1.79661 0.110423 0
M  V30 63422 H 6333.18 0.717154 -0.226262 0
M  V30 63423 H 6335.15 2.47017 -1.67408 0
M  V30 63424 C 6333.9 3.47082 -0.20716 0
M  V30 63425 H 6333.22 3.87801 -0.972127 0
M  V30 63426 H 6334.66 4.24 0.0016301 0
M  V30 63427 C 6333.12 3.19757 1.061 0
M  V30 63428 O 6333.65 3.39833 2.14188 0
M  V30 63429 N 6331.86 2.73537 0.981116 0
M  V30 63430 H 6331.41 2.574 0.101428 0
M  V30 63431 H 6331.36 2.5563 1.83032 0
M  V30 63432 N 6335.14 0.89724 1.29566 0
M  V30 63433 C 6336.38 0.520872 1.95272 0
M  V30 63434 C 6336.71 -0.935441 1.71098 0
M  V30 63435 O 6335.98 -1.65929 1.04137 0
M  V30 63436 H 6334.56 0.189636 0.722528 0
M  V30 63437 H 6337.22 1.143 1.57866 0
M  V30 63438 H 6336.31 0.7014 3.04116 0
M  V30 63439 N 6336.61 -1.43139 0.659463 0
M  V30 63440 C 6338.03 -1.84958 0.254477 0
M  V30 63441 C 6338.38 -1.55204 -1.20025 0
M  V30 63442 O 6337.5 -1.00413 -1.91693 0
M  V30 63443 C 6338.1 -3.3573 0.455079 0
M  V30 63444 C 6336.66 -3.76255 0.104356 0
M  V30 63445 C 6335.8 -2.66826 0.754943 0
M  V30 63446 H 6338.75 -1.33203 0.862704 0
M  V30 63447 H 6338.77 -3.79335 -0.29752 0
M  V30 63448 H 6338.29 -3.57354 1.51394 0
M  V30 63449 H 6336.39 -3.60242 -0.951658 0
M  V30 63450 H 6336.5 -4.76113 0.534177 0
M  V30 63451 H 6334.86 -2.54008 0.187616 0
M  V30 63452 H 6335.65 -2.91276 1.81695 0
M  V30 63453 N 6338.09 -0.401784 -1.52392 0
M  V30 63454 C 6339.34 0.169065 -2.02696 0
M  V30 63455 C 6339.69 1.43425 -1.28246 0
M  V30 63456 O 6338.99 1.87835 -0.377985 0
M  V30 63457 C 6339.18 0.478247 -3.54186 0
M  V30 63458 C 6339.01 -0.755425 -4.4331 0
M  V30 63459 C 6337.78 -1.27843 -4.8886 0
M  V30 63460 C 6339.98 -1.6314 -4.87739 0
M  V30 63461 N 6337.96 -2.46835 -5.6209 0
M  V30 63462 C 6339.33 -2.66763 -5.59676 0
M  V30 63463 C 6341.39 -1.65003 -4.69764 0
M  V30 63464 C 6340.09 -3.7215 -6.15546 0
M  V30 63465 C 6342.11 -2.69304 -5.26526 0
M  V30 63466 C 6341.48 -3.71648 -5.98378 0
M  V30 63467 H 6337.58 0.0236249 -0.781643 0
M  V30 63468 H 6340.16 -0.554481 -1.86638 0
M  V30 63469 H 6338.33 1.17084 -3.70332 0
M  V30 63470 H 6340.06 1.03734 -3.9118 0
M  V30 63471 H 6336.82 -0.837559 -4.66135 0
M  V30 63472 H 6337.24 -3.07077 -6.03351 0
M  V30 63473 H 6341.88 -0.872205 -4.13706 0
M  V30 63474 H 6339.6 -4.50793 -6.7068 0
M  V30 63475 H 6343.19 -2.71644 -5.14491 0
M  V30 63476 H 6342.07 -4.51031 -6.41515 0
M  V30 63477 N 6339.57 1.57046 -0.131978 0
M  V30 63478 C 6340.81 1.97522 0.525787 0
M  V30 63479 C 6341.17 1.0144 1.63015 0
M  V30 63480 O 6342.38 1.30902 2.34772 0
M  V30 63481 C 6340.65 3.42152 1.03281 0
M  V30 63482 S 6342.21 4.04645 1.69728 0
M  V30 63483 H 6339.02 0.690255 0.170497 0
M  V30 63484 H 6341.63 1.94257 -0.220136 0
M  V30 63485 H 6340.33 4.0982 0.218062 0
M  V30 63486 H 6339.86 3.49096 1.8137 0
M  V30 63487 H 6341.88 3.96466 2.98378 0
M  V30 63488 N 6341.05 -0.14181 1.56961 0
M  V30 63489 C 6342.28 -0.867078 1.87524 0
M  V30 63490 C 6342.69 -1.75015 0.71878 0
M  V30 63491 O 6342.03 -1.80884 -0.320391 0
M  V30 63492 C 6342.09 -1.77098 3.12852 0
M  V30 63493 C 6341.76 -1.06455 4.44428 0
M  V30 63494 C 6342.75 -0.416009 5.18233 0
M  V30 63495 C 6340.44 -1.05251 4.91149 0
M  V30 63496 C 6342.43 0.235129 6.36966 0
M  V30 63497 C 6340.12 -0.397562 6.09805 0
M  V30 63498 C 6341.12 0.245125 6.8256 0
M  V30 63499 O 6340.81 0.889676 7.98962 0
M  V30 63500 H 6340.54 -0.255821 0.625725 0
M  V30 63501 H 6343.09 -0.137726 2.04938 0
M  V30 63502 H 6341.32 -2.54141 2.91461 0
M  V30 63503 H 6343.01 -2.36866 3.2962 0
M  V30 63504 H 6343.78 -0.417083 4.83203 0
M  V30 63505 H 6339.66 -1.54217 4.3444 0
M  V30 63506 H 6343.2 0.737359 6.93692 0
M  V30 63507 H 6339.1 -0.394173 6.44295 0
M  V30 63508 H 6339.86 0.791863 8.14661 0
M  V30 63509 N 6342.53 -1.52138 -0.411319 0
M  V30 63510 C 6343.76 -1.69935 -1.18025 0
M  V30 63511 C 6344.17 -0.407871 -1.84342 0
M  V30 63512 O 6343.53 0.615921 -1.71793 0
M  V30 63513 C 6343.58 -2.83341 -2.245 0
M  V30 63514 O 6343.3 -4.07487 -1.60891 0
M  V30 63515 C 6344.8 -3.12629 -3.14289 0
M  V30 63516 H 6342.02 -0.569558 -0.354745 0
M  V30 63517 H 6344.56 -1.98685 -0.484208 0
M  V30 63518 H 6342.72 -2.57116 -2.89776 0
M  V30 63519 H 6343.13 -4.70665 -2.31462 0
M  V30 63520 H 6344.61 -3.95499 -3.85077 0
M  V30 63521 H 6345.08 -2.26091 -3.76536 0
M  V30 63522 H 6345.69 -3.40611 -2.54685 0
M  V30 63523 N 6344.01 0.668413 -1.42723 0
M  V30 63524 C 6344.94 1.7932 -1.41137 0
M  V30 63525 C 6345.92 1.60261 -0.27478 0
M  V30 63526 O 6347.1 1.82649 -0.466002 0
M  V30 63527 C 6344.23 3.16411 -1.20837 0
M  V30 63528 C 6343.27 3.54205 -2.37574 0
M  V30 63529 S 6344.11 3.55906 -4.00114 0
M  V30 63530 C 6345.26 4.95679 -3.82169 0
M  V30 63531 H 6345.5 1.80393 -2.36317 0
M  V30 63532 H 6343.03 0.839668 -1.29572 0
M  V30 63533 H 6344.99 3.9554 -1.09812 0
M  V30 63534 H 6343.65 3.12917 -0.272316 0
M  V30 63535 H 6342.84 4.53868 -2.19135 0
M  V30 63536 H 6342.44 2.82452 -2.45146 0
M  V30 63537 H 6344.73 5.83932 -3.43554 0
M  V30 63538 H 6345.68 5.19167 -4.81531 0
M  V30 63539 H 6346.09 4.68498 -3.14912 0
M  V30 63540 N 6345.48 1.29002 0.905335 0
M  V30 63541 C 6346.43 1.13522 2.03016 0
M  V30 63542 C 6347.43 0.0522727 1.69319 0
M  V30 63543 O 6348.63 0.211662 1.78751 0
M  V30 63544 H 6345.01 0.350497 0.665324 0
M  V30 63545 H 6346.98 2.08766 2.13212 0
M  V30 63546 C 6345.73 0.82265 3.37828 0
M  V30 63547 H 6345.05 1.64796 3.64256 0
M  V30 63548 H 6346.49 0.75434 4.17236 0
M  V30 63549 C 6344.95 -0.473915 3.3355 0
M  V30 63550 O 6345.48 -1.50168 3.72575 0
M  V30 63551 N 6343.68 -0.477711 2.86647 0
M  V30 63552 H 6343.23 0.359112 2.55085 0
M  V30 63553 H 6343.19 -1.34523 2.84167 0
M  V30 63554 N 6346.96 -1.11493 1.11387 0
M  V30 63555 C 6348.37 -1.64739 0.878525 0
M  V30 63556 C 6348.72 -1.8714 -0.589327 0
M  V30 63557 O 6347.85 -1.6052 -1.45128 0
M  V30 63558 C 6348.44 -2.99266 1.58826 0
M  V30 63559 C 6347 -3.49421 1.39936 0
M  V30 63560 C 6346.15 -2.24243 1.63127 0
M  V30 63561 H 6349.1 -0.951408 1.27019 0
M  V30 63562 H 6349.12 -3.66211 1.03294 0
M  V30 63563 H 6348.63 -2.8293 2.65655 0
M  V30 63564 H 6346.73 -3.70923 0.353137 0
M  V30 63565 H 6346.85 -4.28247 2.14805 0
M  V30 63566 H 6345.21 -2.3184 1.05463 0
M  V30 63567 H 6345.99 -2.1045 2.7123 0
M  V30 63568 N 6348.44 -0.904098 -1.29088 0
M  V30 63569 C 6349.86 -0.600834 -1.47859 0
M  V30 63570 C 6350.06 0.85649 -1.82391 0
M  V30 63571 O 6349.11 1.63633 -1.92303 0
M  V30 63572 C 6350.42 -1.53044 -2.5884 0
M  V30 63573 C 6351.97 -1.53612 -2.72713 0
M  V30 63574 C 6352.45 -2.45211 -3.86828 0
M  V30 63575 N 6353.94 -2.43283 -3.94167 0
M  V30 63576 C 6354.67 -3.1086 -4.81823 0
M  V30 63577 N 6354.17 -3.87732 -5.74139 0
M  V30 63578 N 6355.96 -2.99995 -4.75352 0
M  V30 63579 H 6348.11 -1.84659 -1.04951 0
M  V30 63580 H 6350.38 -0.791498 -0.521762 0
M  V30 63581 H 6350.08 -2.56898 -2.40201 0
M  V30 63582 H 6349.96 -1.25427 -3.55736 0
M  V30 63583 H 6352.34 -0.505001 -2.90747 0
M  V30 63584 H 6352.42 -1.85268 -1.76378 0
M  V30 63585 H 6352.07 -3.48419 -3.6955 0
M  V30 63586 H 6352 -2.10861 -4.8254 0
M  V30 63587 H 6354.49 -1.87435 -3.28141 0
M  V30 63588 H 6354.8 -4.3634 -6.3783 0
M  V30 63589 H 6353.15 -3.91838 -5.7401 0
M  V30 63590 H 6356.34 -2.39451 -4.0222 0
M  V30 63591 H 6356.51 -3.52935 -5.43453 0
M  V30 63592 N 6349.92 1.42788 -0.667045 0
M  V30 63593 C 6350.86 2.30794 0.0160832 0
M  V30 63594 C 6351.83 1.45529 0.800649 0
M  V30 63595 O 6353.02 1.74375 0.774466 0
M  V30 63596 C 6350.16 3.31279 0.966858 0
M  V30 63597 C 6349.27 4.31638 0.176935 0
M  V30 63598 C 6348.41 5.19199 1.12276 0
M  V30 63599 C 6347.45 6.11242 0.324069 0
M  V30 63600 N 6346.58 6.9138 1.2222 0
M  V30 63601 H 6351.42 2.8866 -0.740242 0
M  V30 63602 H 6348.96 1.42193 -0.376788 0
M  V30 63603 H 6350.92 3.8806 1.53185 0
M  V30 63604 H 6349.55 2.75031 1.6899 0
M  V30 63605 H 6348.6 3.77039 -0.50456 0
M  V30 63606 H 6349.91 4.96824 -0.443502 0
M  V30 63607 H 6349.07 5.80673 1.75793 0
M  V30 63608 H 6347.81 4.54171 1.77709 0
M  V30 63609 H 6346.81 5.48842 -0.324367 0
M  V30 63610 H 6348.04 6.78317 -0.326056 0
M  V30 63611 H 6345.98 6.28988 1.86307 0
M  V30 63612 H 6345.9 7.53143 0.656654 0
M  V30 63613 H 6347.17 7.57349 1.84508 0
M  V30 63614 N 6351.4 0.40986 1.52177 0
M  V30 63615 C 6352.33 -0.406341 2.29937 0
M  V30 63616 C 6353.31 -1.04548 1.34178 0
M  V30 63617 O 6354.49 -1.05435 1.63086 0
M  V30 63618 C 6351.62 -1.52286 3.12132 0
M  V30 63619 C 6350.58 -1.00869 4.15944 0
M  V30 63620 C 6349.9 -2.21886 4.86488 0
M  V30 63621 C 6351.2 -0.062216 5.22263 0
M  V30 63622 H 6352.9 0.242511 2.98416 0
M  V30 63623 H 6350.44 0.118074 1.43515 0
M  V30 63624 H 6352.39 -2.10084 3.65298 0
M  V30 63625 H 6351.12 -2.1996 2.41423 0
M  V30 63626 H 6349.78 -0.453101 3.63789 0
M  V30 63627 H 6349.43 -2.88116 4.12308 0
M  V30 63628 H 6349.13 -1.88134 5.56668 0
M  V30 63629 H 6350.65 -2.80289 5.42467 0
M  V30 63630 H 6352.06 -0.549022 5.70665 0
M  V30 63631 H 6350.46 0.186528 5.9981 0
M  V30 63632 H 6351.53 0.882841 4.76795 0
M  V30 63633 N 6352.87 -1.56974 0.140305 0
M  V30 63634 C 6354.12 -1.95908 -0.512474 0
M  V30 63635 C 6354.45 -1.02481 -1.65312 0
M  V30 63636 O 6353.7 -0.0527161 -1.95629 0
M  V30 63637 C 6354 -3.41134 -1.06594 0
M  V30 63638 C 6353.67 -4.50878 -0.0444395 0
M  V30 63639 C 6352.33 -4.80619 0.236386 0
M  V30 63640 C 6354.68 -5.17124 0.65055 0
M  V30 63641 C 6352.01 -5.73915 1.21812 0
M  V30 63642 C 6354.36 -6.11477 1.62106 0
M  V30 63643 C 6353.03 -6.396 1.90965 0
M  V30 63644 H 6352.3 -0.716878 -0.187527 0
M  V30 63645 H 6354.94 -1.90165 0.22572 0
M  V30 63646 H 6353.25 -3.43676 -1.88133 0
M  V30 63647 H 6354.95 -3.68583 -1.57948 0
M  V30 63648 H 6351.54 -4.27726 -0.2735 0
M  V30 63649 H 6355.72 -4.94285 0.44678 0
M  V30 63650 H 6350.98 -5.94 1.44823 0
M  V30 63651 H 6355.15 -6.61887 2.16514 0
M  V30 63652 H 6352.78 -7.11698 2.6719 0
M  V30 63653 N 6354.35 0.133484 -1.57034 0
M  V30 63654 C 6355.63 0.873266 -1.75024 0
M  V30 63655 C 6356.01 1.98733 -0.71194 0
M  V30 63656 O 6355.36 2.26938 0.266743 0
M  V30 63657 C 6355.57 1.4033 -3.19544 0
M  V30 63658 C 6356.91 1.86138 -3.81625 0
M  V30 63659 O 6357.94 1.50042 -3.23057 0
M  V30 63660 O 6356.8 2.5275 -4.84541 0
M  V30 63661 H 6353.89 0.413644 -0.71612 0
M  V30 63662 H 6356.44 0.118354 -1.69287 0
M  V30 63663 H 6355.21 0.603314 -3.86621 0
M  V30 63664 H 6354.83 2.22133 -3.29761 0
M  V30 63665 N 6355.83 1.52354 0.403245 0
M  V30 63666 C 6357.06 1.70311 1.16952 0
M  V30 63667 C 6357.47 0.414835 1.84596 0
M  V30 63668 O 6356.81 -0.619446 1.72941 0
M  V30 63669 C 6356.87 2.78689 2.27096 0
M  V30 63670 C 6356.54 4.20256 1.79539 0
M  V30 63671 C 6357.53 5.03899 1.27992 0
M  V30 63672 C 6355.22 4.66516 1.86194 0
M  V30 63673 C 6357.21 6.31877 0.837304 0
M  V30 63674 C 6354.9 5.94482 1.41543 0
M  V30 63675 C 6355.9 6.76991 0.903976 0
M  V30 63676 O 6355.59 8.0256 0.46394 0
M  V30 63677 H 6355.32 0.573911 0.357215 0
M  V30 63678 H 6357.87 1.99719 0.479744 0
M  V30 63679 H 6356.1 2.44671 2.99455 0
M  V30 63680 H 6357.79 2.85188 2.8883 0
M  V30 63681 H 6358.56 4.69348 1.22219 0
M  V30 63682 H 6354.44 4.02393 2.24946 0
M  V30 63683 H 6357.98 6.96227 0.43741 0
M  V30 63684 H 6353.88 6.28539 1.46998 0
M  V30 63685 H 6354.65 8.16394 0.586715 0
M  V30 63686 N 6357.31 -0.660835 1.43076 0
M  V30 63687 C 6358.55 -1.43268 1.45786 0
M  V30 63688 C 6358.91 -1.91846 0.0769895 0
M  V30 63689 O 6360.11 -2.68792 -0.0212096 0
M  V30 63690 C 6358.38 -2.58783 2.46508 0
M  V30 63691 S 6359.94 -3.47425 2.68033 0
M  V30 63692 H 6356.76 -0.489146 0.516001 0
M  V30 63693 H 6359.36 -0.767947 1.79786 0
M  V30 63694 H 6358.07 -2.21357 3.45585 0
M  V30 63695 H 6357.6 -3.30115 2.13981 0
M  V30 63696 H 6359.61 -4.55251 1.97385 0
M  V30 63697 N 6358.79 -1.2948 -0.898481 0
M  V30 63698 C 6360.06 -1.082 -1.62948 0
M  V30 63699 C 6360.44 0.373433 -2.07771 0
M  V30 63700 O 6359.79 1.36245 -1.83438 0
M  V30 63701 C 6360 -2.07066 -2.80936 0
M  V30 63702 C 6361.35 -2.3805 -3.51592 0
M  V30 63703 O 6362.37 -2.0527 -2.91106 0
M  V30 63704 O 6361.23 -2.94064 -4.60639 0
M  V30 63705 H 6358.33 -0.414622 -0.715554 0
M  V30 63706 H 6360.87 -1.40856 -0.946443 0
M  V30 63707 H 6359.64 -3.05092 -2.4502 0
M  V30 63708 H 6359.27 -1.75146 -3.56945 0
M  V30 63709 N 6360.26 1.10901 -1.11976 0
M  V30 63710 C 6361.51 1.82124 -0.866817 0
M  V30 63711 C 6361.83 1.85868 0.609307 0
M  V30 63712 O 6363.03 2.53247 0.978692 0
M  V30 63713 C 6361.49 3.27103 -1.50104 0
M  V30 63714 C 6361.1 3.31672 -3.01161 0
M  V30 63715 C 6362.84 4.03187 -1.32817 0
M  V30 63716 C 6360.75 4.71082 -3.57541 0
M  V30 63717 H 6359.68 0.682432 -0.320628 0
M  V30 63718 H 6362.33 1.24755 -1.34568 0
M  V30 63719 H 6360.71 3.8444 -0.949847 0
M  V30 63720 H 6361.88 2.84186 -3.62732 0
M  V30 63721 H 6360.2 2.69071 -3.17789 0
M  V30 63722 H 6362.8 5.06156 -1.72366 0
M  V30 63723 H 6363.14 4.15415 -0.271327 0
M  V30 63724 H 6363.67 3.52253 -1.84832 0
M  V30 63725 H 6360.41 4.64053 -4.62963 0
M  V30 63726 H 6359.93 5.18955 -3.00743 0
M  V30 63727 H 6361.61 5.40046 -3.56313 0
M  V30 63728 N 6361.74 0.910931 1.28607 0
M  V30 63729 C 6363.15 0.589561 1.77147 0
M  V30 63730 C 6363.5 -0.895067 1.74594 0
M  V30 63731 O 6362.63 -1.70011 1.33885 0
M  V30 63732 C 6363.22 1.06343 3.21678 0
M  V30 63733 C 6361.78 0.793029 3.67951 0
M  V30 63734 C 6360.93 1.23176 2.48441 0
M  V30 63735 H 6363.88 1.09249 1.1511 0
M  V30 63736 H 6363.9 0.403628 3.78353 0
M  V30 63737 H 6363.41 2.14399 3.23504 0
M  V30 63738 H 6361.52 -0.274438 3.71588 0
M  V30 63739 H 6361.63 1.39879 4.58225 0
M  V30 63740 H 6359.99 0.650546 2.46252 0
M  V30 63741 H 6360.78 2.3206 2.52988 0
M  V30 63742 N 6363.22 -1.42432 0.674608 0
M  V30 63743 C 6364.15 -2.33498 0.0101216 0
M  V30 63744 C 6365.13 -1.50668 -0.789505 0
M  V30 63745 O 6366.32 -1.79271 -0.746697 0
M  V30 63746 C 6363.45 -3.34282 -0.941964 0
M  V30 63747 C 6362.4 -4.27264 -0.250943 0
M  V30 63748 C 6361.73 -5.18254 -1.31595 0
M  V30 63749 C 6363.03 -5.15005 0.869916 0
M  V30 63750 H 6364.72 -2.89311 0.770668 0
M  V30 63751 H 6362.27 -1.39111 0.372053 0
M  V30 63752 H 6364.22 -3.96901 -1.4159 0
M  V30 63753 H 6362.94 -2.76772 -1.73393 0
M  V30 63754 H 6361.6 -3.66039 0.202754 0
M  V30 63755 H 6361.25 -4.5707 -2.0999 0
M  V30 63756 H 6360.95 -5.81291 -0.858719 0
M  V30 63757 H 6362.47 -5.83748 -1.79082 0
M  V30 63758 H 6363.89 -5.7131 0.477205 0
M  V30 63759 H 6362.29 -5.86874 1.25293 0
M  V30 63760 H 6363.36 -4.53416 1.71877 0
M  V30 63761 N 6364.7 -0.417924 -1.51958 0
M  V30 63762 C 6365.94 0.154397 -2.03816 0
M  V30 63763 C 6366.3 1.41632 -1.29632 0
M  V30 63764 O 6367.5 2.06765 -1.71761 0
M  V30 63765 C 6365.77 0.387406 -3.55294 0
M  V30 63766 S 6367.33 0.925915 -4.2892 0
M  V30 63767 H 6364.15 0.0409373 -0.70982 0
M  V30 63768 H 6366.75 -0.572867 -1.86918 0
M  V30 63769 H 6365.46 -0.537679 -4.06863 0
M  V30 63770 H 6364.99 1.1423 -3.76451 0
M  V30 63771 H 6367 2.20558 -4.44487 0
M  V30 63772 N 6366.18 1.56898 -0.148628 0
M  V30 63773 C 6367.14 2.15652 0.776339 0
M  V30 63774 C 6368.14 1.09871 1.17409 0
M  V30 63775 O 6369.33 1.35502 1.09475 0
M  V30 63776 C 6366.46 2.72095 2.05371 0
M  V30 63777 H 6367.65 2.98725 0.265222 0
M  V30 63778 H 6365.21 1.55974 0.100826 0
M  V30 63779 H 6365.94 1.92692 2.60845 0
M  V30 63780 H 6365.73 3.49486 1.7777 0
M  V30 63781 H 6367.22 3.17357 2.7143 0
M  V30 63782 N 6367.65 -0.125154 1.57102 0
M  V30 63783 C 6368.88 -0.852311 1.89078 0
M  V30 63784 C 6369.3 -1.72935 0.739939 0
M  V30 63785 O 6368.66 -1.78634 -0.309765 0
M  V30 63786 C 6368.71 -1.66676 3.19768 0
M  V30 63787 O 6367.81 -2.77313 3.0524 0
M  V30 63788 H 6367.16 -0.236081 0.620614 0
M  V30 63789 H 6369.69 -0.109401 2.04307 0
M  V30 63790 H 6369.7 -2.05728 3.52335 0
M  V30 63791 H 6368.37 -1.02289 4.03125 0
M  V30 63792 H 6366.95 -2.41509 2.84127 0
M  V30 63793 N 6369.13 -1.52566 -0.395159 0
M  V30 63794 C 6370.36 -1.71474 -1.16668 0
M  V30 63795 C 6370.78 -0.429478 -1.83131 0
M  V30 63796 O 6370.14 0.614249 -1.70577 0
M  V30 63797 C 6370.19 -2.86096 -2.19503 0
M  V30 63798 O 6369.29 -2.5264 -3.25955 0
M  V30 63799 H 6368.63 -0.570391 -0.339927 0
M  V30 63800 H 6371.16 -1.99331 -0.461341 0
M  V30 63801 H 6371.17 -3.11413 -2.63601 0
M  V30 63802 H 6369.85 -3.79339 -1.70514 0
M  V30 63803 H 6368.43 -2.38042 -2.87038 0
M  V30 63804 N 6370.61 0.653238 -1.43424 0
M  V30 63805 C 6371.84 1.44584 -1.48695 0
M  V30 63806 C 6372.26 1.87801 -0.106056 0
M  V30 63807 O 6371.62 1.57373 0.900194 0
M  V30 63808 C 6371.67 2.65704 -2.4379 0
M  V30 63809 O 6370.77 3.64761 -1.92415 0
M  V30 63810 H 6370.11 0.433514 -0.502953 0
M  V30 63811 H 6372.64 0.799357 -1.88339 0
M  V30 63812 H 6372.65 3.13519 -2.61093 0
M  V30 63813 H 6371.33 2.33592 -3.44104 0
M  V30 63814 H 6369.9 3.23903 -1.84773 0
M  V30 63815 N 6372.09 1.29955 0.891602 0
M  V30 63816 C 6373.34 1.18395 1.64283 0
M  V30 63817 C 6373.66 -0.262801 1.92716 0
M  V30 63818 O 6372.92 -1.20532 1.54177 0
M  V30 63819 C 6373.22 1.95106 2.99447 0
M  V30 63820 C 6372.88 3.44772 2.90591 0
M  V30 63821 C 6371.55 3.85587 2.87882 0
M  V30 63822 C 6373.9 4.40108 2.79203 0
M  V30 63823 C 6371.23 5.2004 2.71616 0
M  V30 63824 C 6373.58 5.74661 2.64475 0
M  V30 63825 C 6372.24 6.14723 2.60138 0
M  V30 63826 H 6371.51 0.433238 0.601154 0
M  V30 63827 H 6374.16 1.60983 1.03714 0
M  V30 63828 H 6372.46 1.45133 3.63928 0
M  V30 63829 H 6374.16 1.8356 3.5652 0
M  V30 63830 H 6370.75 3.12335 2.93505 0
M  V30 63831 H 6374.94 4.09522 2.80366 0
M  V30 63832 H 6370.19 5.5018 2.66668 0
M  V30 63833 H 6374.37 6.48177 2.54636 0
M  V30 63834 H 6371.99 7.18854 2.47292 0
M  V30 63835 N 6373.57 -1.10306 1.12563 0
M  V30 63836 C 6374.84 -1.78797 0.793157 0
M  V30 63837 C 6375.22 -1.98556 -0.716862 0
M  V30 63838 O 6374.57 -1.57968 -1.65101 0
M  V30 63839 C 6374.78 -3.11705 1.56975 0
M  V30 63840 C 6376.13 -3.8656 1.75661 0
M  V30 63841 O 6377.15 -3.21429 1.53498 0
M  V30 63842 O 6376.01 -5.03461 2.12578 0
M  V30 63843 H 6373.11 -0.774994 0.28864 0
M  V30 63844 H 6375.65 -1.16943 1.22973 0
M  V30 63845 H 6374.43 -2.92751 2.59639 0
M  V30 63846 H 6374.05 -3.81278 1.12751 0
M  V30 63847 N 6375.05 -0.917739 -1.28122 0
M  V30 63848 C 6376.29 -0.560119 -1.96576 0
M  V30 63849 C 6376.65 0.880511 -1.70619 0
M  V30 63850 O 6377.85 1.34591 -2.32677 0
M  V30 63851 C 6376.12 -0.865446 -3.46763 0
M  V30 63852 S 6377.68 -0.614842 -4.34471 0
M  V30 63853 H 6374.5 -0.207112 -0.680166 0
M  V30 63854 H 6377.1 -1.18404 -1.55566 0
M  V30 63855 H 6375.8 -1.9118 -3.63151 0
M  V30 63856 H 6375.34 -0.230329 -3.92725 0
M  V30 63857 H 6377.35 0.531985 -4.9334 0
M  V30 63858 N 6376.52 1.42072 -0.682152 0
M  V30 63859 C 6377.77 2.01036 -0.207067 0
M  V30 63860 C 6378.09 1.54244 1.19305 0
M  V30 63861 O 6377.36 0.767261 1.8025 0
M  V30 63862 H 6375.94 0.743369 -0.0735632 0
M  V30 63863 H 6378.6 1.73887 -0.880308 0
M  V30 63864 H 6377.7 3.11365 -0.214051 0
M  V30 63865 N 6378 0.425977 1.51734 0
M  V30 63866 C 6378.95 -0.391168 2.27461 0
M  V30 63867 C 6379.92 -1.02664 1.30573 0
M  V30 63868 O 6381.1 -1.04771 1.5946 0
M  V30 63869 C 6378.24 -1.49269 3.11148 0
M  V30 63870 C 6377.36 -0.876473 4.23015 0
M  V30 63871 C 6376.49 -1.95209 4.94031 0
M  V30 63872 C 6375.53 -1.31371 5.97836 0
M  V30 63873 N 6374.67 -2.33019 6.62304 0
M  V30 63874 H 6379.51 0.260994 2.96855 0
M  V30 63875 H 6377.04 0.140552 1.46427 0
M  V30 63876 H 6379 -2.14249 3.57985 0
M  V30 63877 H 6377.63 -2.11464 2.43891 0
M  V30 63878 H 6376.68 -0.115265 3.80225 0
M  V30 63879 H 6378 -0.370296 4.97424 0
M  V30 63880 H 6377.15 -2.67878 5.44359 0
M  V30 63881 H 6375.89 -2.49197 4.19228 0
M  V30 63882 H 6374.89 -0.572433 5.46812 0
M  V30 63883 H 6376.12 -0.781307 6.74591 0
M  V30 63884 H 6374.07 -2.86108 5.9032 0
M  V30 63885 H 6373.98 -1.87261 7.32441 0
M  V30 63886 H 6375.25 -3.05206 7.17265 0
M  V30 63887 N 6379.48 -1.56817 0.156946 0
M  V30 63888 C 6380.89 -1.83153 -0.362219 0
M  V30 63889 C 6381.24 -1.07612 -1.64055 0
M  V30 63890 O 6380.37 -0.324554 -2.13952 0
M  V30 63891 C 6380.96 -3.3223 -0.663956 0
M  V30 63892 C 6379.52 -3.59113 -1.12761 0
M  V30 63893 C 6378.67 -2.76861 -0.155897 0
M  V30 63894 H 6381.62 -1.54047 0.381473 0
M  V30 63895 H 6381.64 -3.48927 -1.51758 0
M  V30 63896 H 6381.15 -3.87183 0.266611 0
M  V30 63897 H 6379.25 -3.09557 -2.07377 0
M  V30 63898 H 6379.37 -4.67526 -1.0467 0
M  V30 63899 H 6377.73 -2.46254 -0.650474 0
M  V30 63900 H 6378.51 -3.34589 0.768436 0
M  V30 63901 N 6380.96 0.116821 -1.57166 0
M  V30 63902 C 6381.89 1.16894 -1.97151 0
M  V30 63903 C 6382.9 1.37534 -0.871111 0
M  V30 63904 O 6384.09 1.3657 -1.14939 0
M  V30 63905 C 6381.19 2.52855 -2.25649 0
M  V30 63906 C 6380.36 2.52788 -3.56955 0
M  V30 63907 C 6379.42 3.70512 -3.73641 0
M  V30 63908 O 6378.45 3.53997 -4.45729 0
M  V30 63909 N 6379.65 4.89161 -3.12574 0
M  V30 63910 H 6382.42 0.828794 -2.88012 0
M  V30 63911 H 6379.98 0.306069 -1.58981 0
M  V30 63912 H 6381.97 3.30173 -2.34025 0
M  V30 63913 H 6380.54 2.79043 -1.40904 0
M  V30 63914 H 6379.76 1.61168 -3.59748 0
M  V30 63915 H 6381.05 2.49801 -4.43257 0
M  V30 63916 H 6380.45 5.05482 -2.53978 0
M  V30 63917 H 6379 5.64148 -3.26467 0
M  V30 63918 N 6382.44 1.52773 0.387063 0
M  V30 63919 C 6383.68 1.6816 1.13358 0
M  V30 63920 C 6384.01 0.421261 1.89576 0
M  V30 63921 O 6383.29 -0.58099 1.8562 0
M  V30 63922 C 6383.57 2.91788 2.11025 0
M  V30 63923 C 6383.43 4.27927 1.38558 0
M  V30 63924 C 6384.74 3.10968 3.11427 0
M  V30 63925 H 6381.86 0.611937 0.410734 0
M  V30 63926 H 6384.51 1.85373 0.416744 0
M  V30 63927 H 6382.66 2.77243 2.72155 0
M  V30 63928 H 6384.33 4.54243 0.803782 0
M  V30 63929 H 6382.57 4.28319 0.687425 0
M  V30 63930 H 6383.24 5.10521 2.09934 0
M  V30 63931 H 6385.72 3.24556 2.60389 0
M  V30 63932 H 6384.59 3.98944 3.77008 0
M  V30 63933 H 6384.85 2.25271 3.80401 0
M  V30 63934 N 6383.91 -0.645623 1.43769 0
M  V30 63935 C 6384.82 -1.78717 1.51978 0
M  V30 63936 C 6385.84 -1.69188 0.406358 0
M  V30 63937 O 6387.02 -1.90223 0.661601 0
M  V30 63938 C 6384.08 -3.15035 1.44755 0
M  V30 63939 C 6383.14 -3.36304 2.6683 0
M  V30 63940 C 6382.37 -4.66118 2.59942 0
M  V30 63941 O 6382.6 -5.45972 1.65137 0
M  V30 63942 O 6381.53 -4.89273 3.50565 0
M  V30 63943 H 6385.36 -1.74746 2.4839 0
M  V30 63944 H 6382.94 -0.805053 1.25854 0
M  V30 63945 H 6384.82 -3.96324 1.43196 0
M  V30 63946 H 6383.5 -3.1958 0.514805 0
M  V30 63947 H 6382.41 -2.54749 2.73959 0
M  V30 63948 H 6383.74 -3.3661 3.59102 0
M  V30 63949 N 6385.39 -1.30426 -0.884698 0
M  V30 63950 C 6386.8 -1.17363 -1.452 0
M  V30 63951 C 6387.15 0.225577 -1.94899 0
M  V30 63952 O 6386.28 1.12228 -1.85024 0
M  V30 63953 C 6386.87 -2.12448 -2.63916 0
M  V30 63954 C 6385.43 -2.03362 -3.16735 0
M  V30 63955 C 6384.58 -2.02514 -1.89429 0
M  V30 63956 H 6387.53 -1.42692 -0.694609 0
M  V30 63957 H 6387.55 -1.70547 -3.40138 0
M  V30 63958 H 6387.06 -3.14275 -2.27713 0
M  V30 63959 H 6385.17 -1.04678 -3.57594 0
M  V30 63960 H 6385.28 -2.91762 -3.80016 0
M  V30 63961 H 6383.64 -1.4732 -2.07771 0
M  V30 63962 H 6384.43 -3.06072 -1.55483 0
M  V30 63963 N 6386.87 1.09707 -1.13146 0
M  V30 63964 C 6387.82 2.16262 -0.806195 0
M  V30 63965 C 6388.79 1.64494 0.230418 0
M  V30 63966 O 6389.97 1.9052 0.103308 0
M  V30 63967 C 6387.11 3.44001 -0.275196 0
M  V30 63968 C 6386.23 4.09684 -1.37052 0
M  V30 63969 C 6385.36 5.25169 -0.798167 0
M  V30 63970 C 6384.4 5.82768 -1.87209 0
M  V30 63971 N 6383.54 6.8962 -1.3179 0
M  V30 63972 H 6388.38 2.43428 -1.71892 0
M  V30 63973 H 6385.91 1.19479 -0.858086 0
M  V30 63974 H 6387.87 4.17169 0.0507778 0
M  V30 63975 H 6386.5 3.17162 0.600668 0
M  V30 63976 H 6385.55 3.34409 -1.81314 0
M  V30 63977 H 6386.87 4.48528 -2.1823 0
M  V30 63978 H 6386.02 6.05221 -0.423306 0
M  V30 63979 H 6384.76 4.87679 0.0447282 0
M  V30 63980 H 6383.76 5.0138 -2.25606 0
M  V30 63981 H 6384.99 6.22321 -2.71834 0
M  V30 63982 H 6382.93 6.54115 -0.496959 0
M  V30 63983 H 6382.85 7.27217 -2.0662 0
M  V30 63984 H 6384.12 7.73435 -0.970514 0
M  V30 63985 N 6388.35 0.924521 1.27634 0
M  V30 63986 C 6389.3 0.419749 2.26951 0
M  V30 63987 C 6390.27 -0.511627 1.58024 0
M  V30 63988 O 6391.45 -0.431479 1.85857 0
M  V30 63989 C 6388.59 -0.324312 3.43573 0
M  V30 63990 C 6387.7 0.640809 4.27221 0
M  V30 63991 C 6386.84 -0.122776 5.31058 0
M  V30 63992 C 6385.88 0.835259 6.06374 0
M  V30 63993 N 6385.01 0.104503 7.02022 0
M  V30 63994 H 6389.85 1.27169 2.69504 0
M  V30 63995 H 6387.39 0.638357 1.32527 0
M  V30 63996 H 6389.35 -0.771997 4.09995 0
M  V30 63997 H 6387.98 -1.14051 3.01981 0
M  V30 63998 H 6387.03 1.20702 3.60742 0
M  V30 63999 H 6388.34 1.37312 4.79528 0
M  V30 64000 H 6387.5 -0.630525 6.03415 0
M  V30 64001 H 6386.24 -0.88807 4.79546 0
M  V30 64002 H 6385.24 1.35429 5.32859 0
M  V30 64003 H 6386.47 1.60028 6.59976 0
M  V30 64004 H 6384.41 -0.642603 6.52845 0
M  V30 64005 H 6384.33 0.776439 7.52002 0
M  V30 64006 H 6385.6 -0.382698 7.7856 0
M  V30 64007 N 6389.83 -1.41708 0.689677 0
M  V30 64008 C 6391.07 -2.03188 0.222236 0
M  V30 64009 C 6391.43 -1.5342 -1.15439 0
M  V30 64010 O 6392.63 -2.06787 -1.71735 0
M  V30 64011 C 6390.9 -3.5637 0.271153 0
M  V30 64012 S 6392.46 -4.38627 -0.123106 0
M  V30 64013 H 6389.28 -0.705279 0.090013 0
M  V30 64014 H 6391.88 -1.73232 0.906143 0
M  V30 64015 H 6390.59 -3.90087 1.27516 0
M  V30 64016 H 6390.12 -3.9102 -0.432097 0
M  V30 64017 H 6392.13 -4.77412 -1.35247 0
M  V30 64018 N 6391.3 -0.434018 -1.51506 0
M  V30 64019 C 6392.72 0.0298752 -1.86676 0
M  V30 64020 C 6393.07 1.42241 -1.35137 0
M  V30 64021 O 6392.19 2.04738 -0.700807 0
M  V30 64022 C 6392.79 0.0609889 -3.38745 0
M  V30 64023 C 6391.35 0.469285 -3.73463 0
M  V30 64024 C 6390.49 -0.340213 -2.75205 0
M  V30 64025 H 6393.44 -0.650009 -1.44778 0
M  V30 64026 H 6393.46 0.871168 -3.70393 0
M  V30 64027 H 6392.98 -0.952643 -3.76226 0
M  V30 64028 H 6391.08 1.48864 -3.4157 0
M  V30 64029 H 6391.19 0.196387 -4.78697 0
M  V30 64030 H 6389.55 0.20101 -2.53906 0
M  V30 64031 H 6390.34 -1.35266 -3.15528 0
M  V30 64032 N 6392.78 1.56731 -0.165261 0
M  V30 64033 C 6394.03 1.9631 0.480291 0
M  V30 64034 C 6394.35 1.05204 1.64186 0
M  V30 64035 O 6393.62 0.117177 1.95549 0
M  V30 64036 H 6392.2 0.724883 0.180426 0
M  V30 64037 H 6394.86 1.93354 -0.245029 0
M  V30 64038 H 6393.96 3.00462 0.844332 0
M  V30 64039 N 6394.26 -0.108484 1.57226 0
M  V30 64040 C 6395.49 -0.832209 1.89971 0
M  V30 64041 C 6395.91 -1.7214 0.758239 0
M  V30 64042 O 6395.27 -1.78953 -0.290801 0
M  V30 64043 C 6395.32 -1.63275 3.21518 0
M  V30 64044 O 6394.42 -2.7406 3.08164 0
M  V30 64045 H 6393.76 -0.229486 0.623083 0
M  V30 64046 H 6396.29 -0.0877255 2.04412 0
M  V30 64047 H 6396.3 -2.01979 3.54497 0
M  V30 64048 H 6394.98 -0.980078 4.04187 0
M  V30 64049 H 6393.55 -2.38482 2.86672 0
M  V30 64050 N 6395.74 -1.52976 -0.378955 0
M  V30 64051 C 6396.99 -1.67732 -1.12022 0
M  V30 64052 C 6397.3 -0.428695 -1.90844 0
M  V30 64053 O 6398.51 -0.456555 -2.67634 0
M  V30 64054 C 6396.96 -2.96461 -2.04056 0
M  V30 64055 C 6396.57 -4.28539 -1.30609 0
M  V30 64056 C 6398.31 -3.20583 -2.78256 0
M  V30 64057 C 6396.22 -5.48367 -2.21466 0
M  V30 64058 H 6395.15 -0.624917 -0.421895 0
M  V30 64059 H 6397.8 -1.79475 -0.382225 0
M  V30 64060 H 6396.18 -2.78488 -2.81532 0
M  V30 64061 H 6397.36 -4.57099 -0.582883 0
M  V30 64062 H 6395.67 -4.10756 -0.683262 0
M  V30 64063 H 6398.27 -4.07291 -3.46436 0
M  V30 64064 H 6398.61 -2.36078 -3.42889 0
M  V30 64065 H 6399.15 -3.39169 -2.07868 0
M  V30 64066 H 6395.89 -6.35311 -1.61432 0
M  V30 64067 H 6395.41 -5.24105 -2.91674 0
M  V30 64068 H 6397.08 -5.82636 -2.81326 0
M  V30 64069 N 6397.22 0.637989 -1.44109 0
M  V30 64070 C 6398.46 1.39974 -1.46748 0
M  V30 64071 C 6398.8 1.93957 -0.0970968 0
M  V30 64072 O 6398.07 1.73235 0.884297 0
M  V30 64073 C 6398.35 2.57006 -2.5223 0
M  V30 64074 C 6398.21 2.08417 -3.98601 0
M  V30 64075 C 6399.53 3.59203 -2.54286 0
M  V30 64076 H 6396.64 0.507616 -0.534317 0
M  V30 64077 H 6399.29 0.721966 -1.75749 0
M  V30 64078 H 6397.44 3.14827 -2.27631 0
M  V30 64079 H 6399.11 1.55479 -4.34309 0
M  V30 64080 H 6397.35 1.39657 -4.10705 0
M  V30 64081 H 6398.02 2.92643 -4.68043 0
M  V30 64082 H 6400.5 3.11169 -2.76248 0
M  V30 64083 H 6399.37 4.3862 -3.30006 0
M  V30 64084 H 6399.64 4.12815 -1.58228 0
M  V30 64085 N 6398.69 1.30893 0.877769 0
M  V30 64086 C 6399.94 1.19893 1.62696 0
M  V30 64087 C 6400.26 -0.244904 1.93456 0
M  V30 64088 O 6399.53 -1.16349 1.57606 0
M  V30 64089 H 6398.11 0.44074 0.603123 0
M  V30 64090 H 6400.78 1.64116 1.05128 0
M  V30 64091 H 6399.87 1.76502 2.57398 0
M  V30 64092 N 6400.17 -1.09106 1.13726 0
M  V30 64093 C 6401.42 -1.80991 0.899268 0
M  V30 64094 C 6401.74 -1.86298 -0.576019 0
M  V30 64095 O 6401.01 -1.35091 -1.4187 0
M  V30 64096 H 6399.59 -0.6703 0.329708 0
M  V30 64097 H 6402.25 -1.31945 1.43445 0
M  V30 64098 H 6401.35 -2.8406 1.29291 0
M  V30 64099 N 6401.65 -0.931276 -1.27142 0
M  V30 64100 C 6402.89 -0.580937 -1.95971 0
M  V30 64101 C 6403.26 0.862365 -1.71544 0
M  V30 64102 O 6404.46 1.32115 -2.34092 0
M  V30 64103 C 6402.73 -0.902176 -3.45826 0
M  V30 64104 S 6404.29 -0.660889 -4.33795 0
M  V30 64105 H 6401.1 -0.214314 -0.677931 0
M  V30 64106 H 6403.71 -1.20048 -1.54301 0
M  V30 64107 H 6402.41 -1.95021 -3.61102 0
M  V30 64108 H 6401.94 -0.271969 -3.92459 0
M  V30 64109 H 6403.96 0.47963 -4.93876 0
M  V30 64110 N 6403.13 1.4134 -0.697182 0
M  V30 64111 C 6404.38 2.01501 -0.229169 0
M  V30 64112 C 6404.71 1.55097 1.1687 0
M  V30 64113 O 6403.98 0.762863 1.78915 0
M  V30 64114 C 6404.27 3.58941 -0.288651 0
M  V30 64115 C 6404.12 4.15467 -1.72358 0
M  V30 64116 C 6405.44 4.38701 0.350632 0
M  V30 64117 H 6402.56 0.732111 -0.0847473 0
M  V30 64118 H 6405.2 1.68067 -0.886207 0
M  V30 64119 H 6403.35 3.87555 0.27078 0
M  V30 64120 H 6405.02 3.97722 -2.33698 0
M  V30 64121 H 6403.26 3.70449 -2.25722 0
M  V30 64122 H 6403.94 5.24626 -1.71672 0
M  V30 64123 H 6406.41 4.1591 -0.125828 0
M  V30 64124 H 6405.29 5.48193 0.278477 0
M  V30 64125 H 6405.55 4.1828 1.43157 0
M  V30 64126 N 6404.61 0.442047 1.51274 0
M  V30 64127 C 6405.57 -0.355422 2.26427 0
M  V30 64128 C 6406.57 -0.945654 1.30054 0
M  V30 64129 O 6407.76 -0.819368 1.53727 0
M  V30 64130 C 6404.89 -1.50333 3.05962 0
M  V30 64131 H 6406.09 0.303282 2.98363 0
M  V30 64132 H 6403.64 0.195333 1.55075 0
M  V30 64133 H 6404.37 -2.19795 2.38455 0
M  V30 64134 H 6404.16 -1.08622 3.76754 0
M  V30 64135 H 6405.65 -2.06663 3.62878 0
M  V30 64136 N 6406.09 -1.56641 0.17357 0
M  V30 64137 C 6407.04 -2.1467 -0.768176 0
M  V30 64138 C 6408.02 -1.08154 -1.19128 0
M  V30 64139 O 6409.21 -1.34271 -1.15327 0
M  V30 64140 C 6406.34 -2.79276 -1.99649 0
M  V30 64141 C 6405.43 -3.92953 -1.59527 0
M  V30 64142 N 6405.82 -4.9766 -0.903754 0
M  V30 64143 C 6404.12 -4.04155 -1.88613 0
M  V30 64144 C 6404.82 -5.77402 -0.705852 0
M  V30 64145 N 6403.79 -5.29081 -1.24798 0
M  V30 64146 H 6407.59 -2.92992 -0.230893 0
M  V30 64147 H 6405.11 -1.62378 -0.0270267 0
M  V30 64148 H 6407.11 -3.19227 -2.68141 0
M  V30 64149 H 6405.77 -2.02436 -2.5387 0
M  V30 64150 H 6406.78 -5.14847 -0.561555 0
M  V30 64151 H 6403.45 -3.3842 -2.44496 0
M  V30 64152 H 6404.84 -6.71712 -0.158841 0
M  V30 64153 N 6407.56 0.100145 -1.57281 0
M  V30 64154 C 6408.97 0.655225 -1.74825 0
M  V30 64155 C 6409.33 1.79371 -0.795024 0
M  V30 64156 O 6408.45 2.16382 0.0276771 0
M  V30 64157 C 6409.05 1.19536 -3.17012 0
M  V30 64158 C 6407.6 1.69656 -3.35997 0
M  V30 64159 C 6406.75 0.604032 -2.70641 0
M  V30 64160 H 6409.7 -0.125897 -1.582 0
M  V30 64161 H 6409.72 2.06478 -3.19605 0
M  V30 64162 H 6409.24 0.366543 -3.86365 0
M  V30 64163 H 6407.34 2.54955 -2.71715 0
M  V30 64164 H 6407.45 1.79303 -4.44283 0
M  V30 64165 H 6405.81 1.04225 -2.32399 0
M  V30 64166 H 6406.6 -0.214127 -3.42632 0
M  V30 64167 N 6409.04 1.53175 0.370837 0
M  V30 64168 C 6409.99 1.75622 1.45399 0
M  V30 64169 C 6410.98 0.610631 1.48863 0
M  V30 64170 O 6412.17 0.869115 1.54193 0
M  V30 64171 C 6409.3 1.94483 2.82898 0
M  V30 64172 C 6408.38 3.15028 2.83933 0
M  V30 64173 N 6408.77 4.37038 2.5462 0
M  V30 64174 C 6407.07 3.15643 3.15096 0
M  V30 64175 C 6407.77 5.18749 2.632 0
M  V30 64176 N 6406.75 4.54841 2.97692 0
M  V30 64177 H 6410.55 2.67569 1.21591 0
M  V30 64178 H 6408.06 1.51729 0.578973 0
M  V30 64179 H 6410.06 2.08691 3.60907 0
M  V30 64180 H 6408.72 1.03761 3.07675 0
M  V30 64181 H 6409.73 4.64861 2.28309 0
M  V30 64182 H 6406.41 2.34795 3.45221 0
M  V30 64183 H 6407.8 6.26058 2.43928 0
M  V30 64184 N 6410.52 -0.630338 1.44445 0
M  V30 64185 C 6411.74 -1.422 1.50976 0
M  V30 64186 C 6412.17 -1.87608 0.13592 0
M  V30 64187 O 6411.53 -1.58785 -0.875044 0
M  V30 64188 C 6411.58 -2.61792 2.47986 0
M  V30 64189 O 6410.68 -3.61653 1.98194 0
M  V30 64190 H 6410.02 -0.425458 0.509786 0
M  V30 64191 H 6412.55 -0.769292 1.89587 0
M  V30 64192 H 6412.56 -3.09326 2.66048 0
M  V30 64193 H 6411.24 -2.28088 3.47777 0
M  V30 64194 H 6409.81 -3.20923 1.89902 0
M  V30 64195 N 6412 -1.31357 -0.870815 0
M  V30 64196 C 6413.24 -1.22183 -1.62613 0
M  V30 64197 C 6413.6 0.218137 -1.91159 0
M  V30 64198 O 6412.89 1.15132 -1.53151 0
M  V30 64199 C 6413.09 -1.99846 -2.96305 0
M  V30 64200 C 6412.91 -3.51248 -2.80812 0
M  V30 64201 C 6411.68 -4.20599 -2.80044 0
M  V30 64202 C 6413.88 -4.46213 -2.55732 0
M  V30 64203 N 6411.86 -5.58163 -2.55592 0
M  V30 64204 C 6413.24 -5.71439 -2.40535 0
M  V30 64205 C 6415.29 -4.35649 -2.4107 0
M  V30 64206 C 6413.99 -6.87297 -2.12167 0
M  V30 64207 C 6416.02 -5.51289 -2.1409 0
M  V30 64208 C 6415.38 -6.75505 -1.99681 0
M  V30 64209 H 6411.48 -0.502209 -0.599425 0
M  V30 64210 H 6414.06 -1.65535 -1.02499 0
M  V30 64211 H 6412.24 -1.58863 -3.54425 0
M  V30 64212 H 6413.97 -1.82698 -3.61114 0
M  V30 64213 H 6410.72 -3.72562 -2.92395 0
M  V30 64214 H 6411.15 -6.30592 -2.46339 0
M  V30 64215 H 6415.79 -3.4028 -2.50938 0
M  V30 64216 H 6413.51 -7.82694 -2.01037 0
M  V30 64217 H 6417.09 -5.45032 -2.03546 0
M  V30 64218 H 6415.97 -7.63474 -1.79099 0
M  V30 64219 N 6413.48 1.08501 -1.14303 0
M  V30 64220 C 6414.89 1.62352 -0.921894 0
M  V30 64221 C 6415.24 1.88637 0.539503 0
M  V30 64222 O 6414.36 1.64312 1.40821 0
M  V30 64223 C 6414.96 2.94949 -1.66704 0
M  V30 64224 C 6413.52 3.45588 -1.49151 0
M  V30 64225 C 6412.66 2.19839 -1.69016 0
M  V30 64226 H 6415.61 0.917397 -1.29497 0
M  V30 64227 H 6415.64 3.63344 -1.12967 0
M  V30 64228 H 6415.15 2.75787 -2.73063 0
M  V30 64229 H 6413.25 3.69856 -0.451356 0
M  V30 64230 H 6413.36 4.22402 -2.26083 0
M  V30 64231 H 6411.73 2.28962 -1.11573 0
M  V30 64232 H 6412.51 2.03185 -2.76714 0
M  V30 64233 N 6414.95 0.938006 1.26646 0
M  V30 64234 C 6416.2 0.594267 1.94525 0
M  V30 64235 C 6416.56 -0.856756 1.72271 0
M  V30 64236 O 6415.85 -1.60446 1.04727 0
M  V30 64237 C 6416.04 0.8686 3.46684 0
M  V30 64238 C 6415.87 2.34474 3.83734 0
M  V30 64239 C 6414.64 2.99932 4.06655 0
M  V30 64240 C 6416.84 3.323 3.92532 0
M  V30 64241 N 6414.82 4.37592 4.30565 0
M  V30 64242 C 6416.19 4.55206 4.20937 0
M  V30 64243 C 6418.25 3.27368 3.75146 0
M  V30 64244 C 6416.95 5.73794 4.33766 0
M  V30 64245 C 6418.98 4.45278 3.89206 0
M  V30 64246 C 6418.34 5.66965 4.18007 0
M  V30 64247 H 6414.44 0.267772 0.734726 0
M  V30 64248 H 6417.02 1.20676 1.52792 0
M  V30 64249 H 6415.19 0.285184 3.87352 0
M  V30 64250 H 6416.92 0.48645 4.01766 0
M  V30 64251 H 6413.68 2.50562 4.0189 0
M  V30 64252 H 6414.1 5.08836 4.46559 0
M  V30 64253 H 6418.75 2.34347 3.51911 0
M  V30 64254 H 6416.46 6.67271 4.55824 0
M  V30 64255 H 6420.05 4.42991 3.77161 0
M  V30 64256 H 6418.93 6.56682 4.28648 0
M  V30 64257 N 6416.43 -1.40969 0.704668 0
M  V30 64258 C 6417.36 -2.29199 0.00583956 0
M  V30 64259 C 6418.38 -1.45261 -0.735051 0
M  V30 64260 O 6419.57 -1.68668 -0.584243 0
M  V30 64261 C 6416.67 -3.23314 -1.01592 0
M  V30 64262 C 6415.84 -4.36055 -0.342798 0
M  V30 64263 C 6414.9 -5.10683 -1.26843 0
M  V30 64264 O 6413.92 -5.64139 -0.757357 0
M  V30 64265 N 6415.13 -5.19006 -2.60025 0
M  V30 64266 H 6417.89 -2.89815 0.763366 0
M  V30 64267 H 6415.45 -1.5222 0.55142 0
M  V30 64268 H 6417.44 -3.7011 -1.63709 0
M  V30 64269 H 6416.01 -2.63943 -1.6749 0
M  V30 64270 H 6415.23 -3.91526 0.458392 0
M  V30 64271 H 6416.52 -5.08647 0.124887 0
M  V30 64272 H 6415.92 -4.7704 -3.04055 0
M  V30 64273 H 6414.48 -5.69347 -3.17313 0
M  V30 64274 N 6417.91 -0.450063 -1.51037 0
M  V30 64275 C 6419.16 0.112285 -2.02489 0
M  V30 64276 C 6419.49 1.41244 -1.33281 0
M  V30 64277 O 6418.76 1.89181 -0.451745 0
M  V30 64278 C 6419.05 0.317899 -3.58694 0
M  V30 64279 C 6418.9 -1.0018 -4.38502 0
M  V30 64280 C 6420.22 1.08198 -4.26592 0
M  V30 64281 H 6417.34 0.0393341 -0.73595 0
M  V30 64282 H 6419.98 -0.591548 -1.80557 0
M  V30 64283 H 6418.13 0.91742 -3.77512 0
M  V30 64284 H 6419.8 -1.63628 -4.31305 0
M  V30 64285 H 6418.05 -1.60343 -4.03079 0
M  V30 64286 H 6418.72 -0.811819 -5.45998 0
M  V30 64287 H 6421.19 0.574029 -4.12121 0
M  V30 64288 H 6420.07 1.19463 -5.35742 0
M  V30 64289 H 6420.33 2.11331 -3.88319 0
M  V30 64290 N 6419.39 1.56547 -0.181875 0
M  V30 64291 C 6420.61 2.02017 0.469472 0
M  V30 64292 C 6421.04 1.06125 1.55303 0
M  V30 64293 O 6420.4 0.0425233 1.8125 0
M  V30 64294 C 6420.44 3.4602 1.01503 0
M  V30 64295 O 6419.55 3.53222 2.12857 0
M  V30 64296 H 6418.89 0.654614 0.11125 0
M  V30 64297 H 6421.42 2.02551 -0.288869 0
M  V30 64298 H 6421.43 3.85542 1.33498 0
M  V30 64299 H 6420.1 4.15309 0.221734 0
M  V30 64300 H 6418.68 3.25567 1.81826 0
M  V30 64301 N 6420.87 -0.0918024 1.57332 0
M  V30 64302 C 6421.8 -1.11183 2.0533 0
M  V30 64303 C 6422.78 -1.41578 0.942852 0
M  V30 64304 O 6423.96 -1.51551 1.21433 0
M  V30 64305 C 6421.09 -2.43082 2.4805 0
M  V30 64306 C 6420.05 -2.27088 3.62788 0
M  V30 64307 C 6419.37 -3.64192 3.91495 0
M  V30 64308 C 6420.67 -1.70869 4.9356 0
M  V30 64309 H 6422.37 -0.712505 2.90798 0
M  V30 64310 H 6419.91 -0.341289 1.39897 0
M  V30 64311 H 6421.87 -3.14714 2.80237 0
M  V30 64312 H 6420.59 -2.84957 1.59585 0
M  V30 64313 H 6419.25 -1.579 3.30852 0
M  V30 64314 H 6418.9 -4.036 3.00193 0
M  V30 64315 H 6418.6 -3.54335 4.68743 0
M  V30 64316 H 6420.12 -4.37287 4.2616 0
M  V30 64317 H 6421.53 -2.32346 5.24107 0
M  V30 64318 H 6419.93 -1.71763 5.74994 0
M  V30 64319 H 6421 -0.6684 4.80271 0
M  V30 64320 N 6422.34 -1.53369 -0.362709 0
M  V30 64321 C 6423.76 -1.43206 -0.704573 0
M  V30 64322 C 6423.96 -0.573431 -1.93168 0
M  V30 64323 O 6423.02 -0.056983 -2.52436 0
M  V30 64324 C 6424.33 -2.86438 -0.915097 0
M  V30 64325 C 6425.88 -2.96088 -1.01493 0
M  V30 64326 C 6426.35 -4.40387 -1.2579 0
M  V30 64327 N 6427.84 -4.43828 -1.32554 0
M  V30 64328 C 6428.58 -5.52592 -1.53069 0
M  V30 64329 N 6428.07 -6.71395 -1.70882 0
M  V30 64330 N 6429.87 -5.40174 -1.55462 0
M  V30 64331 H 6422.02 -2.07699 0.444375 0
M  V30 64332 H 6424.28 -0.938083 0.136766 0
M  V30 64333 H 6423.99 -3.51597 -0.0851976 0
M  V30 64334 H 6423.86 -3.30257 -1.82237 0
M  V30 64335 H 6426.25 -2.31081 -1.83537 0
M  V30 64336 H 6426.33 -2.55659 -0.0849787 0
M  V30 64337 H 6425.97 -5.05969 -0.442464 0
M  V30 64338 H 6425.9 -4.78392 -2.20111 0
M  V30 64339 H 6428.39 -3.5821 -1.2039 0
M  V30 64340 H 6428.71 -7.50053 -1.86118 0
M  V30 64341 H 6427.05 -6.74376 -1.68055 0
M  V30 64342 H 6430.24 -4.46323 -1.41115 0
M  V30 64343 H 6430.42 -6.25 -1.71109 0
M  V30 64344 N 6423.82 0.622669 -1.44778 0
M  V30 64345 C 6425.05 1.40905 -1.51503 0
M  V30 64346 C 6425.47 1.8826 -0.142645 0
M  V30 64347 O 6424.82 1.61336 0.853048 0
M  V30 64348 C 6424.87 2.6237 -2.48685 0
M  V30 64349 O 6424.59 2.16987 -3.80589 0
M  V30 64350 C 6426.1 3.55403 -2.64959 0
M  V30 64351 H 6423.32 0.431844 -0.513567 0
M  V30 64352 H 6425.86 0.760755 -1.89823 0
M  V30 64353 H 6424.01 3.23274 -2.13478 0
M  V30 64354 H 6424.43 2.95796 -4.33134 0
M  V30 64355 H 6425.9 4.37215 -3.36967 0
M  V30 64356 H 6426.38 4.04765 -1.70476 0
M  V30 64357 H 6426.99 3.00363 -3.01101 0
M  V30 64358 N 6425.3 1.31817 0.863836 0
M  V30 64359 C 6426.72 1.10607 1.15057 0
M  V30 64360 C 6426.92 -0.119456 2.01146 0
M  V30 64361 O 6425.97 -0.807015 2.39256 0
M  V30 64362 C 6427.29 2.38082 1.83678 0
M  V30 64363 C 6428.83 2.43751 1.96353 0
M  V30 64364 C 6429.31 3.71122 2.68388 0
M  V30 64365 N 6430.8 3.72052 2.7592 0
M  V30 64366 C 6431.53 4.67305 3.32285 0
M  V30 64367 N 6431.03 5.72919 3.89533 0
M  V30 64368 N 6432.82 4.54816 3.30301 0
M  V30 64369 H 6424.97 2.10407 0.290319 0
M  V30 64370 H 6427.24 0.928512 0.191231 0
M  V30 64371 H 6426.94 3.2763 1.27873 0
M  V30 64372 H 6426.82 2.48346 2.83909 0
M  V30 64373 H 6429.2 1.54668 2.5132 0
M  V30 64374 H 6429.29 2.37447 0.951461 0
M  V30 64375 H 6428.93 4.60575 2.14087 0
M  V30 64376 H 6428.86 3.74695 3.70015 0
M  V30 64377 H 6431.35 2.95709 2.35296 0
M  V30 64378 H 6431.66 6.41671 4.30671 0
M  V30 64379 H 6430.01 5.76685 3.87891 0
M  V30 64380 H 6433.2 3.71478 2.84819 0
M  V30 64381 H 6433.37 5.29226 3.7393 0
M  V30 64382 N 6426.78 -1.07893 1.14877 0
M  V30 64383 C 6428.03 -1.80383 0.920232 0
M  V30 64384 C 6428.35 -1.86475 -0.552936 0
M  V30 64385 O 6427.61 -1.34045 -1.42585 0
M  V30 64386 C 6427.91 -3.25644 1.47278 0
M  V30 64387 C 6427.57 -3.39661 2.96549 0
M  V30 64388 C 6426.24 -3.43194 3.373 0
M  V30 64389 C 6428.59 -3.4291 3.92508 0
M  V30 64390 C 6425.92 -3.47572 4.72663 0
M  V30 64391 C 6428.27 -3.48824 5.27735 0
M  V30 64392 C 6426.93 -3.50632 5.67991 0
M  V30 64393 H 6426.2 -0.660068 0.336737 0
M  V30 64394 H 6428.85 -1.26999 1.4333 0
M  V30 64395 H 6427.15 -3.81772 0.880769 0
M  V30 64396 H 6428.85 -3.80297 1.27183 0
M  V30 64397 H 6425.44 -3.37606 2.64046 0
M  V30 64398 H 6429.62 -3.39406 3.62101 0
M  V30 64399 H 6424.88 -3.47267 5.03205 0
M  V30 64400 H 6429.05 -3.50284 6.01892 0
M  V30 64401 H 6426.68 -3.53778 6.72863 0
M  V30 64402 N 6428.26 -0.944709 -1.26147 0
M  V30 64403 C 6429.5 -0.592987 -1.93205 0
M  V30 64404 C 6429.83 0.871295 -1.74452 0
M  V30 64405 O 6429.1 1.61949 -1.10224 0
M  V30 64406 H 6427.68 -0.216321 -0.714992 0
M  V30 64407 H 6430.34 -1.2008 -1.53515 0
M  V30 64408 H 6429.43 -0.813788 -3.01304 0
M  V30 64409 N 6429.74 1.40593 -0.712134 0
M  V30 64410 C 6430.68 2.30729 -0.0573504 0
M  V30 64411 C 6431.65 1.48003 0.753945 0
M  V30 64412 O 6432.84 1.76751 0.718598 0
M  V30 64413 C 6429.98 3.34187 0.860974 0
M  V30 64414 C 6429.09 4.31982 0.0395228 0
M  V30 64415 C 6428.23 5.22508 0.957009 0
M  V30 64416 C 6427.26 6.11963 0.129443 0
M  V30 64417 N 6426.4 6.94919 1.00162 0
M  V30 64418 H 6431.24 2.86159 -0.831702 0
M  V30 64419 H 6428.78 1.40922 -0.421835 0
M  V30 64420 H 6430.74 3.92737 1.40761 0
M  V30 64421 H 6429.37 2.80268 1.60154 0
M  V30 64422 H 6428.42 3.75243 -0.624257 0
M  V30 64423 H 6429.73 4.95162 -0.601339 0
M  V30 64424 H 6428.88 5.85972 1.5723 0
M  V30 64425 H 6427.62 4.59594 1.6317 0
M  V30 64426 H 6426.63 5.47533 -0.498812 0
M  V30 64427 H 6427.85 6.76936 -0.541693 0
M  V30 64428 H 6425.8 6.34597 1.66202 0
M  V30 64429 H 6425.72 7.54851 0.416715 0
M  V30 64430 H 6426.98 7.62835 1.6032 0
M  V30 64431 N 6431.21 0.458066 1.50796 0
M  V30 64432 C 6432.16 -0.361203 2.25121 0
M  V30 64433 C 6433.15 -0.972582 1.28178 0
M  V30 64434 O 6434.34 -0.887289 1.53154 0
M  V30 64435 C 6431.47 -1.4501 3.1117 0
M  V30 64436 C 6430.55 -0.847097 4.15554 0
M  V30 64437 N 6430.95 0.0248215 5.05794 0
M  V30 64438 C 6429.24 -1.11246 4.31903 0
M  V30 64439 C 6429.94 0.365691 5.80549 0
M  V30 64440 N 6428.92 -0.255901 5.42997 0
M  V30 64441 H 6432.72 0.31068 2.92253 0
M  V30 64442 H 6430.24 0.271402 1.60116 0
M  V30 64443 H 6432.23 -2.05008 3.63011 0
M  V30 64444 H 6430.89 -2.12411 2.45584 0
M  V30 64445 H 6431.9 0.392747 5.16409 0
M  V30 64446 H 6428.58 -1.78242 3.77539 0
M  V30 64447 H 6429.97 1.07648 6.63221 0
M  V30 64448 N 6432.69 -1.56448 0.190174 0
M  V30 64449 C 6433.94 -1.97439 -0.449888 0
M  V30 64450 C 6434.27 -1.07688 -1.61968 0
M  V30 64451 O 6433.52 -0.114927 -1.95362 0
M  V30 64452 C 6433.82 -3.44353 -0.956867 0
M  V30 64453 C 6433.49 -4.50791 0.0990265 0
M  V30 64454 C 6432.15 -4.79624 0.389172 0
M  V30 64455 C 6434.5 -5.14793 0.81474 0
M  V30 64456 C 6431.83 -5.69749 1.40009 0
M  V30 64457 C 6434.18 -6.0601 1.81477 0
M  V30 64458 C 6432.84 -6.33201 2.11217 0
M  V30 64459 H 6432.11 -0.722481 -0.164626 0
M  V30 64460 H 6434.76 -1.89351 0.286105 0
M  V30 64461 H 6433.07 -3.49487 -1.77104 0
M  V30 64462 H 6434.76 -3.73421 -1.46142 0
M  V30 64463 H 6431.35 -4.2838 -0.137284 0
M  V30 64464 H 6435.54 -4.92613 0.603806 0
M  V30 64465 H 6430.79 -5.89092 1.63647 0
M  V30 64466 H 6434.97 -6.54664 2.37461 0
M  V30 64467 H 6432.59 -7.02837 2.89697 0
M  V30 64468 N 6434.17 0.0834573 -1.57379 0
M  V30 64469 C 6435.41 0.790282 -1.88504 0
M  V30 64470 C 6435.77 1.75327 -0.782578 0
M  V30 64471 O 6436.97 2.50433 -0.976573 0
M  V30 64472 C 6435.25 1.48983 -3.24867 0
M  V30 64473 S 6436.8 2.23333 -3.77714 0
M  V30 64474 H 6433.62 0.263051 -0.660549 0
M  V30 64475 H 6436.22 0.0468763 -1.95444 0
M  V30 64476 H 6434.93 0.774996 -4.03016 0
M  V30 64477 H 6434.46 2.2729 -3.21096 0
M  V30 64478 H 6436.47 3.49665 -3.52064 0
M  V30 64479 N 6435.65 1.5356 0.35457 0
M  V30 64480 C 6436.9 1.69938 1.09387 0
M  V30 64481 C 6437.22 0.45949 1.89509 0
M  V30 64482 O 6436.49 -0.526542 1.88691 0
M  V30 64483 H 6435.07 0.626501 0.406823 0
M  V30 64484 H 6437.73 1.90782 0.398515 0
M  V30 64485 H 6436.82 2.56539 1.77748 0
M  V30 64486 N 6437.13 -0.614982 1.45106 0
M  V30 64487 C 6438.37 -1.37147 1.48442 0
M  V30 64488 C 6438.69 -1.94602 0.124577 0
M  V30 64489 O 6437.96 -1.76731 -0.84516 0
M  V30 64490 H 6436.54 -0.509112 0.546639 0
M  V30 64491 H 6439.21 -0.722684 1.81006 0
M  V30 64492 H 6438.3 -2.19464 2.21905 0
M  V30 64493 N 6438.6 -1.32273 -0.856834 0
M  V30 64494 C 6439.83 -1.25704 -1.64335 0
M  V30 64495 C 6440.25 0.175359 -1.87984 0
M  V30 64496 O 6439.6 1.11174 -1.4473 0
M  V30 64497 C 6439.65 -2.0112 -3.00388 0
M  V30 64498 O 6439.38 -3.3877 -2.77788 0
M  V30 64499 C 6440.88 -2.01549 -3.94833 0
M  V30 64500 H 6438.1 -0.4338 -0.511916 0
M  V30 64501 H 6440.64 -1.74361 -1.06857 0
M  V30 64502 H 6438.8 -1.56191 -3.54518 0
M  V30 64503 H 6439.21 -3.77343 -3.64298 0
M  V30 64504 H 6440.68 -2.58804 -4.8757 0
M  V30 64505 H 6441.16 -1.00121 -4.27636 0
M  V30 64506 H 6441.77 -2.46416 -3.4664 0
M  V30 64507 N 6440.08 1.07283 -1.15448 0
M  V30 64508 C 6441.01 2.16491 -0.874856 0
M  V30 64509 C 6441.99 1.69199 0.174823 0
M  V30 64510 O 6443.18 1.94178 0.029048 0
M  V30 64511 C 6440.31 3.45386 -0.364139 0
M  V30 64512 C 6439.26 4.06132 -1.35058 0
M  V30 64513 C 6438.59 5.30116 -0.698676 0
M  V30 64514 C 6439.89 4.46079 -2.71681 0
M  V30 64515 H 6441.58 2.4014 -1.7881 0
M  V30 64516 H 6439.13 1.15412 -0.861164 0
M  V30 64517 H 6441.08 4.21111 -0.156058 0
M  V30 64518 H 6439.8 3.21326 0.584577 0
M  V30 64519 H 6438.46 3.32452 -1.54503 0
M  V30 64520 H 6438.11 5.02347 0.256209 0
M  V30 64521 H 6437.81 5.71716 -1.35699 0
M  V30 64522 H 6439.34 6.08546 -0.500385 0
M  V30 64523 H 6440.75 5.1293 -2.56077 0
M  V30 64524 H 6439.15 4.98634 -3.33893 0
M  V30 64525 H 6440.22 3.57415 -3.27693 0
M  V30 64526 N 6441.56 0.951386 1.25644 0
M  V30 64527 C 6442.81 0.600106 1.92566 0
M  V30 64528 C 6443.12 -0.866438 1.75363 0
M  V30 64529 O 6444.33 -1.32754 2.3683 0
M  V30 64530 C 6442.78 1.02258 3.45067 0
M  V30 64531 C 6442.39 2.51144 3.70986 0
M  V30 64532 C 6444.14 0.743678 4.17935 0
M  V30 64533 C 6442.04 2.87209 5.16977 0
M  V30 64534 H 6440.97 0.220731 0.720967 0
M  V30 64535 H 6443.62 1.1554 1.42558 0
M  V30 64536 H 6442.01 0.395727 3.94018 0
M  V30 64537 H 6443.18 3.18821 3.32701 0
M  V30 64538 H 6441.49 2.76472 3.11372 0
M  V30 64539 H 6444.09 0.989332 5.25468 0
M  V30 64540 H 6444.43 -0.319828 4.1507 0
M  V30 64541 H 6444.97 1.33073 3.74882 0
M  V30 64542 H 6441.71 3.92564 5.24951 0
M  V30 64543 H 6441.23 2.24203 5.56321 0
M  V30 64544 H 6442.91 2.76225 5.85071 0
M  V30 64545 N 6443.04 -1.40213 0.71958 0
M  V30 64546 C 6444.26 -2.05646 0.269179 0
M  V30 64547 C 6444.69 -1.53869 -1.08195 0
M  V30 64548 O 6444.05 -0.675762 -1.68235 0
M  V30 64549 C 6444.09 -3.59636 0.263559 0
M  V30 64550 O 6443.2 -4.0545 -0.753916 0
M  V30 64551 H 6442.54 -0.652031 0.125503 0
M  V30 64552 H 6445.07 -1.79538 0.981182 0
M  V30 64553 H 6445.08 -4.07871 0.102619 0
M  V30 64554 H 6443.75 -3.96686 1.24953 0
M  V30 64555 H 6442.33 -3.68665 -0.560373 0
M  V30 64556 N 6444.52 -0.466057 -1.50551 0
M  V30 64557 C 6445.93 -0.00972827 -1.86697 0
M  V30 64558 C 6446.28 1.39342 -1.38124 0
M  V30 64559 O 6445.4 2.03205 -0.744077 0
M  V30 64560 C 6446 -0.0108777 -3.38798 0
M  V30 64561 C 6444.56 0.389962 -3.74374 0
M  V30 64562 C 6443.7 -0.398512 -2.74422 0
M  V30 64563 H 6446.66 -0.680572 -1.43366 0
M  V30 64564 H 6446.68 0.792406 -3.72157 0
M  V30 64565 H 6446.19 -1.03223 -3.74121 0
M  V30 64566 H 6444.29 1.41586 -3.44651 0
M  V30 64567 H 6444.4 0.0948045 -4.79006 0
M  V30 64568 H 6442.77 0.147108 -2.54275 0
M  V30 64569 H 6443.55 -1.41928 -3.12588 0
M  V30 64570 N 6445.99 1.56345 -0.198468 0
M  V30 64571 C 6446.9 2.22857 0.732923 0
M  V30 64572 C 6447.92 1.22872 1.23201 0
M  V30 64573 O 6449.1 1.55619 1.27846 0
M  V30 64574 C 6446.16 2.87752 1.93389 0
M  V30 64575 C 6445.22 4.03017 1.47905 0
M  V30 64576 C 6444.46 4.64808 2.62277 0
M  V30 64577 O 6444.68 4.25529 3.79844 0
M  V30 64578 O 6443.61 5.54215 2.34797 0
M  V30 64579 H 6447.44 3.03064 0.196457 0
M  V30 64580 H 6445.02 1.49368 0.0309729 0
M  V30 64581 H 6446.91 3.28797 2.63573 0
M  V30 64582 H 6445.58 2.10523 2.4589 0
M  V30 64583 H 6444.49 3.66588 0.745909 0
M  V30 64584 H 6445.82 4.81921 1.00067 0
M  V30 64585 N 6447.47 -0.07511 1.57421 0
M  V30 64586 C 6448.72 -0.770813 1.88229 0
M  V30 64587 C 6449.07 -1.75354 0.791762 0
M  V30 64588 O 6448.37 -1.90507 -0.204393 0
M  V30 64589 C 6448.56 -1.52126 3.23407 0
M  V30 64590 C 6448.39 -0.612723 4.45506 0
M  V30 64591 C 6447.16 -0.250913 5.04677 0
M  V30 64592 C 6449.36 0.0890894 5.14223 0
M  V30 64593 N 6447.34 0.663697 6.10302 0
M  V30 64594 C 6448.71 0.861013 6.13992 0
M  V30 64595 C 6450.77 0.16091 4.9764 0
M  V30 64596 C 6449.47 1.69808 6.98969 0
M  V30 64597 C 6451.49 0.984939 5.83141 0
M  V30 64598 C 6450.86 1.74492 6.82446 0
M  V30 64599 H 6446.96 -0.257597 0.738355 0
M  V30 64600 H 6449.54 -0.032468 1.94673 0
M  V30 64601 H 6447.71 -2.23035 3.17978 0
M  V30 64602 H 6449.44 -2.16572 3.41875 0
M  V30 64603 H 6446.2 -0.603035 4.69745 0
M  V30 64604 H 6446.62 1.11415 6.67769 0
M  V30 64605 H 6451.26 -0.412321 4.20785 0
M  V30 64606 H 6448.98 2.28229 7.75201 0
M  V30 64607 H 6452.57 1.04344 5.72367 0
M  V30 64608 H 6451.45 2.37227 7.47458 0
M  V30 64609 N 6448.95 -1.53746 -0.346422 0
M  V30 64610 C 6450.2 -1.71106 -1.0886 0
M  V30 64611 C 6450.53 -0.471376 -1.88392 0
M  V30 64612 O 6449.8 0.531572 -1.87095 0
M  V30 64613 C 6450.09 -2.97281 -2.03215 0
M  V30 64614 C 6449.94 -4.3145 -1.27164 0
M  V30 64615 C 6451.26 -3.19115 -3.03073 0
M  V30 64616 H 6448.38 -0.622612 -0.394365 0
M  V30 64617 H 6451.02 -1.86413 -0.367449 0
M  V30 64618 H 6449.17 -2.84362 -2.64709 0
M  V30 64619 H 6450.84 -4.56215 -0.683065 0
M  V30 64620 H 6449.09 -4.29991 -0.573622 0
M  V30 64621 H 6449.76 -5.15908 -1.96324 0
M  V30 64622 H 6452.23 -3.31346 -2.51692 0
M  V30 64623 H 6451.11 -4.08799 -3.66298 0
M  V30 64624 H 6451.37 -2.35278 -3.74295 0
M  V30 64625 N 6450.43 0.607278 -1.4543 0
M  V30 64626 C 6451.36 1.72868 -1.56968 0
M  V30 64627 C 6452.34 1.64802 -0.421217 0
M  V30 64628 O 6453.52 1.83197 -0.644395 0
M  V30 64629 C 6450.65 3.11471 -1.53633 0
M  V30 64630 C 6449.61 3.34348 -2.67199 0
M  V30 64631 C 6448.93 4.73227 -2.48918 0
M  V30 64632 C 6450.23 3.24572 -4.09207 0
M  V30 64633 H 6451.93 1.63468 -2.50836 0
M  V30 64634 H 6449.47 0.785011 -1.20721 0
M  V30 64635 H 6451.43 3.89719 -1.60302 0
M  V30 64636 H 6450.15 3.21712 -0.562951 0
M  V30 64637 H 6448.81 2.5849 -2.59959 0
M  V30 64638 H 6448.46 4.80201 -1.49719 0
M  V30 64639 H 6448.16 4.89489 -3.25076 0
M  V30 64640 H 6449.68 5.53675 -2.57442 0
M  V30 64641 H 6451.1 3.92694 -4.17689 0
M  V30 64642 H 6449.49 3.52364 -4.85757 0
M  V30 64643 H 6450.56 2.22007 -4.31093 0
M  V30 64644 N 6451.91 1.32725 0.849807 0
M  V30 64645 C 6453.13 1.26574 1.63666 0
M  V30 64646 C 6453.55 -0.165387 1.88074 0
M  V30 64647 O 6452.91 -1.10405 1.45317 0
M  V30 64648 C 6452.96 2.0271 2.99317 0
M  V30 64649 O 6452.68 3.40239 2.75988 0
M  V30 64650 C 6454.18 2.0364 3.93758 0
M  V30 64651 H 6451.4 0.436509 0.509609 0
M  V30 64652 H 6453.94 1.74926 1.0593 0
M  V30 64653 H 6452.1 1.58068 3.53685 0
M  V30 64654 H 6452.51 3.79269 3.62292 0
M  V30 64655 H 6453.99 2.61386 4.86191 0
M  V30 64656 H 6454.46 1.02388 4.27099 0
M  V30 64657 H 6455.07 2.48251 3.45328 0
M  V30 64658 N 6453.38 -1.06669 1.16015 0
M  V30 64659 C 6454.35 -2.1222 0.86576 0
M  V30 64660 C 6455.35 -1.6021 -0.137565 0
M  V30 64661 O 6456.54 -1.73952 0.0928828 0
M  V30 64662 C 6453.67 -3.3963 0.293984 0
M  V30 64663 H 6454.86 -2.39768 1.80142 0
M  V30 64664 H 6452.42 -1.22672 0.968572 0
M  V30 64665 H 6453.15 -3.17729 -0.649544 0
M  V30 64666 H 6452.94 -3.78684 1.0169 0
M  V30 64667 H 6454.43 -4.17466 0.105829 0
M  V30 64668 N 6454.86 -0.958036 -1.25138 0
M  V30 64669 C 6455.83 -0.485412 -2.24001 0
M  V30 64670 C 6456.83 0.412762 -1.55412 0
M  V30 64671 O 6458.02 0.209574 -1.72935 0
M  V30 64672 C 6455.15 0.298242 -3.39593 0
M  V30 64673 H 6456.34 -1.35928 -2.67327 0
M  V30 64674 H 6453.89 -0.741651 -1.37584 0
M  V30 64675 H 6454.63 1.18963 -3.01692 0
M  V30 64676 H 6454.41 -0.34617 -3.90569 0
M  V30 64677 H 6455.9 0.618267 -4.12998 0
M  V30 64678 N 6456.34 1.3983 -0.727006 0
M  V30 64679 C 6457.29 2.27926 -0.0580371 0
M  V30 64680 C 6458.27 1.43849 0.720854 0
M  V30 64681 O 6459.47 1.66836 0.591177 0
M  V30 64682 C 6456.6 3.32496 0.854467 0
M  V30 64683 C 6455.68 4.24042 0.0701531 0
M  V30 64684 N 6456.07 4.96749 -0.952554 0
M  V30 64685 C 6454.37 4.44983 0.30101 0
M  V30 64686 C 6455.07 5.6398 -1.42481 0
M  V30 64687 N 6454.05 5.38473 -0.744869 0
M  V30 64688 H 6457.85 2.81589 -0.841702 0
M  V30 64689 H 6455.36 1.52417 -0.560614 0
M  V30 64690 H 6457.36 3.94467 1.34913 0
M  V30 64691 H 6456.02 2.80392 1.63738 0
M  V30 64692 H 6457.03 5.00432 -1.33371 0
M  V30 64693 H 6453.71 4.03837 1.05935 0
M  V30 64694 H 6455.1 6.32205 -2.27524 0
M  V30 64695 N 6457.82 0.474035 1.50302 0
M  V30 64696 C 6459.06 -0.0786461 2.04249 0
M  V30 64697 C 6459.42 -1.36723 1.34799 0
M  V30 64698 O 6460.62 -2.00247 1.79317 0
M  V30 64699 C 6458.89 -0.255274 3.56487 0
M  V30 64700 S 6460.45 -0.766087 4.32061 0
M  V30 64701 H 6457.27 -0.0145646 0.710851 0
M  V30 64702 H 6459.87 0.641846 1.84663 0
M  V30 64703 H 6458.58 0.688313 4.04587 0
M  V30 64704 H 6458.11 -1.00179 3.80431 0
M  V30 64705 H 6460.12 -2.03909 4.52367 0
M  V30 64706 N 6459.3 -1.56238 0.206757 0
M  V30 64707 C 6460.23 -2.22623 -0.704368 0
M  V30 64708 C 6461.21 -1.19309 -1.21241 0
M  V30 64709 O 6462.39 -1.47851 -1.25912 0
M  V30 64710 C 6459.52 -2.89466 -1.91903 0
M  V30 64711 C 6458.48 -3.99124 -1.54544 0
M  V30 64712 C 6457.8 -4.53189 -2.83767 0
M  V30 64713 C 6459.1 -5.16937 -0.746568 0
M  V30 64714 H 6460.8 -2.99019 -0.150923 0
M  V30 64715 H 6458.34 -1.43824 -0.0711498 0
M  V30 64716 H 6460.3 -3.34593 -2.56175 0
M  V30 64717 H 6459.02 -2.10493 -2.4972 0
M  V30 64718 H 6457.68 -3.54706 -0.926256 0
M  V30 64719 H 6457.33 -3.70964 -3.39698 0
M  V30 64720 H 6457.03 -5.27189 -2.5951 0
M  V30 64721 H 6458.55 -5.01026 -3.49007 0
M  V30 64722 H 6459.97 -5.58537 -1.29264 0
M  V30 64723 H 6458.36 -5.97076 -0.601666 0
M  V30 64724 H 6459.43 -4.84255 0.249953 0
M  V30 64725 N 6460.78 0.0667605 -1.57459 0
M  V30 64726 C 6461.72 1.07881 -2.04035 0
M  V30 64727 C 6462.69 1.38165 -0.921938 0
M  V30 64728 O 6463.88 1.49147 -1.18995 0
M  V30 64729 C 6461.02 2.38589 -2.49337 0
M  V30 64730 C 6460.13 2.14792 -3.74818 0
M  V30 64731 C 6459.27 3.391 -4.08882 0
M  V30 64732 C 6458.3 3.1069 -5.27388 0
M  V30 64733 N 6457.44 4.27342 -5.57067 0
M  V30 64734 H 6462.28 0.674653 -2.90263 0
M  V30 64735 H 6459.82 0.321552 -1.43543 0
M  V30 64736 H 6461.78 3.14909 -2.73657 0
M  V30 64737 H 6460.41 2.76798 -1.6608 0
M  V30 64738 H 6459.46 1.29142 -3.57808 0
M  V30 64739 H 6460.77 1.8981 -4.61274 0
M  V30 64740 H 6459.92 4.23812 -4.34129 0
M  V30 64741 H 6458.66 3.67162 -3.21003 0
M  V30 64742 H 6457.67 2.24374 -5.01933 0
M  V30 64743 H 6458.89 2.83944 -6.16889 0
M  V30 64744 H 6456.84 4.55426 -4.72147 0
M  V30 64745 H 6456.76 4.05651 -6.37952 0
M  V30 64746 H 6458.02 5.13036 -5.86868 0
M  V30 64747 N 6462.25 1.53927 0.338263 0
M  V30 64748 C 6463.2 1.82285 1.41565 0
M  V30 64749 C 6464.17 0.668907 1.52036 0
M  V30 64750 O 6465.36 0.913872 1.6749 0
M  V30 64751 C 6462.5 2.04283 2.78141 0
M  V30 64752 C 6461.61 3.31988 2.7642 0
M  V30 64753 C 6460.74 3.44025 4.04747 0
M  V30 64754 C 6459.78 4.6566 3.97275 0
M  V30 64755 N 6458.92 4.74702 5.17303 0
M  V30 64756 H 6463.76 2.74207 1.16682 0
M  V30 64757 H 6461.3 1.35811 0.565126 0
M  V30 64758 H 6463.25 2.15027 3.57518 0
M  V30 64759 H 6461.88 1.15669 3.01364 0
M  V30 64760 H 6460.94 3.30058 1.89118 0
M  V30 64761 H 6462.25 4.21463 2.66778 0
M  V30 64762 H 6461.4 3.5423 4.92551 0
M  V30 64763 H 6460.14 2.52615 4.17177 0
M  V30 64764 H 6459.15 4.55526 3.07857 0
M  V30 64765 H 6460.37 5.58439 3.86423 0
M  V30 64766 H 6458.32 3.86203 5.30267 0
M  V30 64767 H 6458.23 5.58121 5.09939 0
M  V30 64768 H 6459.5 4.89222 6.06863 0
M  V30 64769 N 6463.73 -0.599557 1.4575 0
M  V30 64770 C 6464.96 -1.38966 1.53958 0
M  V30 64771 C 6465.38 -1.87278 0.175684 0
M  V30 64772 O 6464.74 -1.60605 -0.841166 0
M  V30 64773 C 6464.79 -2.56473 2.53483 0
M  V30 64774 O 6463.89 -3.57368 2.0582 0
M  V30 64775 H 6463.23 -0.414548 0.518696 0
M  V30 64776 H 6465.76 -0.728905 1.91176 0
M  V30 64777 H 6465.77 -3.03613 2.72549 0
M  V30 64778 H 6464.45 -2.2066 3.52537 0
M  V30 64779 H 6463.02 -3.16823 1.96667 0
M  V30 64780 N 6465.21 -1.33174 -0.842756 0
M  V30 64781 C 6466.43 -1.27585 -1.63514 0
M  V30 64782 C 6466.86 0.151085 -1.87492 0
M  V30 64783 O 6466.22 1.10643 -1.43624 0
M  V30 64784 C 6466.27 -2.05271 -2.96473 0
M  V30 64785 O 6465.37 -1.40865 -3.87596 0
M  V30 64786 H 6464.71 -0.439124 -0.498063 0
M  V30 64787 H 6467.24 -1.75676 -1.04877 0
M  V30 64788 H 6467.25 -2.15891 -3.46201 0
M  V30 64789 H 6465.93 -3.09028 -2.78343 0
M  V30 64790 H 6464.5 -1.38867 -3.46078 0
M  V30 64791 N 6466.69 1.06052 -1.16579 0
M  V30 64792 C 6468.1 1.3103 -0.911217 0
M  V30 64793 C 6468.3 1.96759 0.434524 0
M  V30 64794 O 6467.36 2.23574 1.17349 0
M  V30 64795 C 6468.67 2.18858 -2.06208 0
M  V30 64796 C 6470.22 2.32267 -2.09812 0
M  V30 64797 C 6470.7 3.2345 -3.24259 0
M  V30 64798 N 6472.19 3.31034 -3.23992 0
M  V30 64799 C 6472.92 4.01687 -4.09188 0
M  V30 64800 N 6472.42 4.74843 -5.04476 0
M  V30 64801 N 6474.21 3.97763 -3.97167 0
M  V30 64802 H 6466.36 0.617832 -2.03216 0
M  V30 64803 H 6468.62 0.334974 -0.886846 0
M  V30 64804 H 6468.33 1.77841 -3.03423 0
M  V30 64805 H 6468.2 3.19455 -2.00571 0
M  V30 64806 H 6470.59 2.7253 -1.13189 0
M  V30 64807 H 6470.67 1.31329 -2.19514 0
M  V30 64808 H 6470.32 2.83903 -4.21143 0
M  V30 64809 H 6470.25 4.24373 -3.11794 0
M  V30 64810 H 6472.74 2.78902 -2.54994 0
M  V30 64811 H 6473.05 5.26289 -5.65898 0
M  V30 64812 H 6471.4 4.73814 -5.08454 0
M  V30 64813 H 6474.59 3.39731 -3.22025 0
M  V30 64814 H 6474.76 4.52558 -4.63784 0
M  V30 64815 N 6468.17 0.964658 1.24628 0
M  V30 64816 C 6469.58 0.664164 1.74487 0
M  V30 64817 C 6469.93 -0.82021 1.78233 0
M  V30 64818 O 6469.05 -1.6418 1.40975 0
M  V30 64819 C 6469.65 1.19891 3.16878 0
M  V30 64820 C 6468.21 0.948376 3.64257 0
M  V30 64821 C 6467.35 1.33602 2.42993 0
M  V30 64822 H 6470.3 1.14033 1.10373 0
M  V30 64823 H 6470.33 0.563738 3.76301 0
M  V30 64824 H 6469.84 2.27927 3.14119 0
M  V30 64825 H 6467.94 -0.116588 3.72418 0
M  V30 64826 H 6468.05 1.59188 4.5188 0
M  V30 64827 H 6466.42 0.754404 2.43271 0
M  V30 64828 H 6467.2 2.42581 2.42918 0
M  V30 64829 N 6469.64 -1.39442 0.734411 0
M  V30 64830 C 6470.87 -2.05349 0.290975 0
M  V30 64831 C 6471.29 -1.55007 -1.06557 0
M  V30 64832 O 6470.65 -0.693567 -1.67509 0
M  V30 64833 C 6470.7 -3.59336 0.301689 0
M  V30 64834 O 6469.8 -4.06227 -0.71087 0
M  V30 64835 H 6469.14 -0.650664 0.132412 0
M  V30 64836 H 6471.67 -1.78487 1.00017 0
M  V30 64837 H 6471.68 -4.07739 0.145873 0
M  V30 64838 H 6470.36 -3.95338 1.29154 0
M  V30 64839 H 6468.94 -3.69239 -0.521239 0
M  V30 64840 N 6471.12 -0.481999 -1.50048 0
M  V30 64841 C 6472.35 0.0688085 -2.07286 0
M  V30 64842 C 6472.77 1.31775 -1.34227 0
M  V30 64843 O 6472.13 1.76985 -0.393197 0
M  V30 64844 C 6472.18 0.324759 -3.59135 0
M  V30 64845 O 6471.28 1.40319 -3.87794 0
M  V30 64846 H 6470.62 -0.0178045 -0.663761 0
M  V30 64847 H 6473.15 -0.676172 -1.93104 0
M  V30 64848 H 6473.16 0.561993 -4.04111 0
M  V30 64849 H 6471.84 -0.587843 -4.11725 0
M  V30 64850 H 6470.41 1.15241 -3.54646 0
M  V30 64851 N 6472.6 1.56126 -0.21504 0
M  V30 64852 C 6473.83 2.02226 0.422848 0
M  V30 64853 C 6474.24 1.09418 1.54351 0
M  V30 64854 O 6473.58 0.0948753 1.83455 0
M  V30 64855 C 6473.64 3.44681 1.02154 0
M  V30 64856 C 6473.31 4.56985 0.0371376 0
M  V30 64857 C 6474.3 5.14302 -0.760853 0
M  V30 64858 C 6471.99 5.02237 -0.0797294 0
M  V30 64859 C 6473.98 6.15338 -1.66248 0
M  V30 64860 C 6471.67 6.03111 -0.984895 0
M  V30 64861 C 6472.67 6.59537 -1.77482 0
M  V30 64862 O 6472.36 7.58449 -2.66478 0
M  V30 64863 H 6472.09 0.667244 0.108451 0
M  V30 64864 H 6474.64 2.02781 -0.326983 0
M  V30 64865 H 6472.87 3.41175 1.82034 0
M  V30 64866 H 6474.56 3.74468 1.56616 0
M  V30 64867 H 6475.33 4.80195 -0.680979 0
M  V30 64868 H 6471.21 4.58001 0.524982 0
M  V30 64869 H 6474.75 6.59307 -2.27948 0
M  V30 64870 H 6470.65 6.3664 -1.06581 0
M  V30 64871 H 6471.41 7.75946 -2.6048 0
M  V30 64872 N 6474.08 -0.0584092 1.57492 0
M  V30 64873 C 6475.03 -1.06798 2.04604 0
M  V30 64874 C 6476 -1.37674 0.929252 0
M  V30 64875 O 6477.18 -1.48514 1.19785 0
M  V30 64876 C 6474.32 -2.37264 2.50599 0
M  V30 64877 C 6473.43 -2.12801 3.75952 0
M  V30 64878 C 6472.57 -3.36927 4.10675 0
M  V30 64879 C 6471.61 -3.07888 5.29029 0
M  V30 64880 N 6470.74 -4.24381 5.59325 0
M  V30 64881 H 6475.58 -0.65925 2.90616 0
M  V30 64882 H 6473.12 -0.313935 1.43711 0
M  V30 64883 H 6475.08 -3.13453 2.75323 0
M  V30 64884 H 6473.71 -2.75913 1.67546 0
M  V30 64885 H 6472.76 -1.27242 3.58488 0
M  V30 64886 H 6474.07 -1.87361 4.62274 0
M  V30 64887 H 6473.23 -4.21504 4.36371 0
M  V30 64888 H 6471.97 -3.65455 3.22946 0
M  V30 64889 H 6470.97 -2.21709 5.03115 0
M  V30 64890 H 6472.2 -2.80669 6.18386 0
M  V30 64891 H 6470.14 -4.52916 4.74556 0
M  V30 64892 H 6470.06 -4.02262 6.40095 0
M  V30 64893 H 6471.33 -5.09917 5.8958 0
M  V30 64894 N 6475.56 -1.54104 -0.330095 0
M  V30 64895 C 6476.8 -1.72251 -1.07039 0
M  V30 64896 C 6477.14 -0.491331 -1.87882 0
M  V30 64897 O 6476.41 0.511699 -1.87648 0
M  V30 64898 C 6476.69 -2.99419 -2.0005 0
M  V30 64899 C 6476.55 -4.32775 -1.22581 0
M  V30 64900 C 6477.87 -3.22312 -2.99672 0
M  V30 64901 H 6474.98 -0.626759 -0.387739 0
M  V30 64902 H 6477.63 -1.86792 -0.347656 0
M  V30 64903 H 6475.78 -2.87153 -2.61678 0
M  V30 64904 H 6477.45 -4.56914 -0.634639 0
M  V30 64905 H 6475.69 -4.30575 -0.527984 0
M  V30 64906 H 6476.36 -5.17961 -1.90841 0
M  V30 64907 H 6478.84 -3.33997 -2.48164 0
M  V30 64908 H 6477.71 -4.12661 -3.61942 0
M  V30 64909 H 6477.98 -2.39234 -3.71779 0
M  V30 64910 N 6477.03 0.591819 -1.46066 0
M  V30 64911 C 6478.28 1.34651 -1.50173 0
M  V30 64912 C 6478.6 1.94992 -0.154049 0
M  V30 64913 O 6479.8 2.71402 -0.0728587 0
M  V30 64914 C 6478.26 2.43991 -2.64569 0
M  V30 64915 C 6477.87 1.89993 -4.05718 0
M  V30 64916 C 6479.61 3.2086 -2.77937 0
M  V30 64917 C 6477.52 2.96907 -5.11469 0
M  V30 64918 H 6476.45 0.506158 -0.558856 0
M  V30 64919 H 6479.1 0.63259 -1.72251 0
M  V30 64920 H 6477.48 3.1814 -2.35802 0
M  V30 64921 H 6478.65 1.22447 -4.44234 0
M  V30 64922 H 6476.97 1.25819 -3.96936 0
M  V30 64923 H 6479.57 4.00634 -3.54114 0
M  V30 64924 H 6479.91 3.72871 -1.85128 0
M  V30 64925 H 6480.44 2.53815 -3.06305 0
M  V30 64926 H 6477.18 2.49794 -6.06039 0
M  V30 64927 H 6476.7 3.62971 -4.77506 0
M  V30 64928 H 6478.38 3.61017 -5.36913 0
M  V30 64929 N 6478.51 1.33619 0.835682 0
M  V30 64930 C 6479.44 1.26769 1.96092 0
M  V30 64931 C 6480.42 0.147623 1.69458 0
M  V30 64932 O 6481.61 0.337918 1.91237 0
M  V30 64933 C 6478.74 1.00939 3.32308 0
M  V30 64934 C 6477.69 2.09274 3.73347 0
M  V30 64935 C 6477.02 1.68653 5.07405 0
M  V30 64936 C 6478.32 3.50981 3.86794 0
M  V30 64937 H 6480.01 2.20915 2.02081 0
M  V30 64938 H 6477.56 1.06349 0.970869 0
M  V30 64939 H 6479.51 0.947953 4.10599 0
M  V30 64940 H 6478.24 0.0323171 3.26584 0
M  V30 64941 H 6476.89 2.14465 2.97322 0
M  V30 64942 H 6476.54 0.696398 4.98156 0
M  V30 64943 H 6476.24 2.41152 5.35835 0
M  V30 64944 H 6477.77 1.63981 5.88169 0
M  V30 64945 H 6479.18 3.48273 4.55388 0
M  V30 64946 H 6477.58 4.21993 4.26663 0
M  V30 64947 H 6478.65 3.89254 2.89153 0
M  V30 64948 N 6479.99 -1.05432 1.1714 0
M  V30 64949 C 6481.24 -1.78038 0.956394 0
M  V30 64950 C 6481.56 -1.88036 -0.516458 0
M  V30 64951 O 6480.83 -1.39537 -1.375 0
M  V30 64952 H 6479.41 -0.659471 0.350866 0
M  V30 64953 H 6482.07 -1.27315 1.4757 0
M  V30 64954 H 6481.17 -2.79803 1.38263 0
M  V30 64955 N 6481.47 -0.971254 -1.24115 0
M  V30 64956 C 6482.43 -0.509143 -2.23473 0
M  V30 64957 C 6483.43 0.396255 -1.55841 0
M  V30 64958 O 6484.62 0.19122 -1.73147 0
M  V30 64959 C 6481.75 0.262207 -3.3989 0
M  V30 64960 H 6482.95 -1.38756 -2.6587 0
M  V30 64961 H 6480.5 -0.756202 -1.36789 0
M  V30 64962 H 6481.23 1.15756 -3.02937 0
M  V30 64963 H 6481.02 -0.387576 -3.9018 0
M  V30 64964 H 6482.51 0.574428 -4.1363 0
M  V30 64965 N 6482.95 1.39051 -0.741796 0
M  V30 64966 C 6483.9 2.27852 -0.0822084 0
M  V30 64967 C 6484.88 1.44605 0.705556 0
M  V30 64968 O 6486.07 1.67453 0.573449 0
M  V30 64969 C 6483.2 3.33384 0.819153 0
M  V30 64970 C 6482.29 4.24093 0.0251738 0
M  V30 64971 N 6482.68 4.95711 -1.00519 0
M  V30 64972 C 6480.98 4.45277 0.253797 0
M  V30 64973 C 6481.68 5.62437 -1.48455 0
M  V30 64974 N 6480.65 5.37652 -0.801939 0
M  V30 64975 H 6484.46 2.80681 -0.871521 0
M  V30 64976 H 6481.97 1.51814 -0.576748 0
M  V30 64977 H 6483.97 3.95876 1.30722 0
M  V30 64978 H 6482.63 2.82113 1.60755 0
M  V30 64979 H 6483.64 4.9899 -1.38671 0
M  V30 64980 H 6480.31 4.04937 1.01646 0
M  V30 64981 H 6481.7 6.29756 -2.34216 0
M  V30 64982 N 6484.42 0.489949 1.49791 0
M  V30 64983 C 6485.36 -0.330903 2.26799 0
M  V30 64984 C 6486.37 -0.940458 1.32888 0
M  V30 64985 O 6487.56 -0.825668 1.58256 0
M  V30 64986 C 6484.66 -1.47983 3.04884 0
M  V30 64987 C 6483.83 -0.979617 4.26289 0
M  V30 64988 C 6482.89 -2.00483 4.86511 0
M  V30 64989 O 6481.92 -1.57783 5.46894 0
M  V30 64990 N 6483.12 -3.33443 4.7518 0
M  V30 64991 H 6485.88 0.329364 2.97885 0
M  V30 64992 H 6483.44 0.321837 1.58669 0
M  V30 64993 H 6485.44 -2.163 3.42048 0
M  V30 64994 H 6484.01 -2.04445 2.36476 0
M  V30 64995 H 6483.23 -0.121708 3.94012 0
M  V30 64996 H 6484.51 -0.623639 5.04964 0
M  V30 64997 H 6483.91 -3.70831 4.27201 0
M  V30 64998 H 6482.47 -3.97504 5.16559 0
M  V30 64999 N 6485.9 -1.5601 0.223316 0
M  V30 65000 C 6486.81 -2.23995 -0.697375 0
M  V30 65001 C 6487.83 -1.24817 -1.2123 0
M  V30 65002 O 6489 -1.57633 -1.25354 0
M  V30 65003 C 6486.07 -2.90793 -1.88787 0
M  V30 65004 C 6485.13 -4.05319 -1.41474 0
M  V30 65005 C 6484.36 -4.68922 -2.54849 0
M  V30 65006 O 6484.59 -4.31518 -3.73026 0
M  V30 65007 O 6483.52 -5.5788 -2.2595 0
M  V30 65008 H 6487.35 -3.03338 -0.148217 0
M  V30 65009 H 6484.93 -1.49398 -0.00720584 0
M  V30 65010 H 6486.81 -3.32948 -2.58309 0
M  V30 65011 H 6485.49 -2.14408 -2.4251 0
M  V30 65012 H 6484.4 -3.67729 -0.687494 0
M  V30 65013 H 6485.73 -4.83452 -0.923875 0
M  V30 65014 N 6487.38 0.0500562 -1.5752 0
M  V30 65015 C 6488.63 0.746134 -1.88575 0
M  V30 65016 C 6488.96 1.76112 -0.818431 0
M  V30 65017 O 6488.23 1.93765 0.168945 0
M  V30 65018 C 6488.52 1.43462 -3.30289 0
M  V30 65019 C 6488.37 0.434578 -4.47696 0
M  V30 65020 C 6489.69 2.37406 -3.70576 0
M  V30 65021 H 6486.81 0.269783 -0.685847 0
M  V30 65022 H 6489.45 0.00905703 -1.89998 0
M  V30 65023 H 6487.6 2.06289 -3.29207 0
M  V30 65024 H 6489.27 -0.190155 -4.60908 0
M  V30 65025 H 6487.52 -0.248142 -4.3309 0
M  V30 65026 H 6488.19 0.954373 -5.43687 0
M  V30 65027 H 6490.66 1.8464 -3.7289 0
M  V30 65028 H 6489.54 2.8257 -4.7058 0
M  V30 65029 H 6489.8 3.23169 -3.01685 0
M  V30 65030 N 6488.86 1.54277 0.321918 0
M  V30 65031 C 6489.81 1.84504 1.41637 0
M  V30 65032 C 6490.8 0.717072 1.53475 0
M  V30 65033 O 6492.01 0.900759 1.55841 0
M  V30 65034 H 6488.38 0.584872 0.472683 0
M  V30 65035 H 6490.35 2.76026 1.13368 0
M  V30 65036 C 6489.1 2.09061 2.77829 0
M  V30 65037 H 6488.43 2.95318 2.69495 0
M  V30 65038 H 6489.87 2.34163 3.53474 0
M  V30 65039 C 6488.32 0.882651 3.25132 0
M  V30 65040 O 6488.85 0.0927273 4.01593 0
M  V30 65041 N 6487.06 0.693828 2.82196 0
M  V30 65042 H 6486.61 1.33784 2.20136 0
M  V30 65043 H 6486.57 -0.11289 3.14197 0
M  V30 65044 N 6490.34 -0.584065 1.46378 0
M  V30 65045 C 6491.27 -1.70348 1.59699 0
M  V30 65046 C 6492.25 -1.64111 0.447382 0
M  V30 65047 O 6493.43 -1.82149 0.673458 0
M  V30 65048 C 6490.56 -3.08988 1.58569 0
M  V30 65049 C 6489.52 -3.30055 2.72485 0
M  V30 65050 C 6488.84 -4.69207 2.56416 0
M  V30 65051 C 6490.14 -3.18021 4.14319 0
M  V30 65052 H 6491.84 -1.59457 2.53405 0
M  V30 65053 H 6489.38 -0.765706 1.21955 0
M  V30 65054 H 6491.34 -3.8712 1.66482 0
M  V30 65055 H 6490.06 -3.20775 0.614061 0
M  V30 65056 H 6488.72 -2.54321 2.64038 0
M  V30 65057 H 6488.37 -4.77759 1.5734 0
M  V30 65058 H 6488.07 -4.84255 3.32822 0
M  V30 65059 H 6489.59 -5.49509 2.66218 0
M  V30 65060 H 6491.01 -3.85999 4.23884 0
M  V30 65061 H 6489.4 -3.44591 4.91301 0
M  V30 65062 H 6490.47 -2.1512 4.3457 0
M  V30 65063 N 6491.82 -1.34061 -0.828584 0
M  V30 65064 C 6492.73 -1.27229 -1.97104 0
M  V30 65065 C 6493.74 -0.180977 -1.73056 0
M  V30 65066 O 6494.92 -0.406431 -1.97256 0
M  V30 65067 C 6491.98 -1.02191 -3.31297 0
M  V30 65068 C 6491.04 -2.20423 -3.68391 0
M  V30 65069 C 6490.28 -1.96571 -4.96181 0
M  V30 65070 O 6490.5 -0.921129 -5.62913 0
M  V30 65071 O 6489.43 -2.83375 -5.3102 0
M  V30 65072 H 6493.26 -2.23329 -2.0581 0
M  V30 65073 H 6490.84 -1.1421 -0.963144 0
M  V30 65074 H 6492.73 -0.899863 -4.1168 0
M  V30 65075 H 6491.4 -0.0912662 -3.23571 0
M  V30 65076 H 6490.31 -2.38186 -2.88476 0
M  V30 65077 H 6491.64 -3.11858 -3.80796 0
M  V30 65078 N 6493.29 1.0481 -1.17698 0
M  V30 65079 C 6494.52 1.82085 -0.992972 0
M  V30 65080 C 6494.94 1.8254 0.453958 0
M  V30 65081 O 6494.3 1.2372 1.32525 0
M  V30 65082 C 6494.35 3.25906 -1.54329 0
M  V30 65083 O 6493.45 4.05344 -0.759628 0
M  V30 65084 H 6492.79 0.56284 -0.352288 0
M  V30 65085 H 6495.32 1.32048 -1.56283 0
M  V30 65086 H 6495.33 3.76699 -1.56721 0
M  V30 65087 H 6494.01 3.2489 -2.59653 0
M  V30 65088 H 6492.59 3.64054 -0.807426 0
M  V30 65089 N 6494.77 0.977823 1.23598 0
M  V30 65090 C 6495.72 0.487125 2.22735 0
M  V30 65091 C 6496.71 -0.436437 1.54868 0
M  V30 65092 O 6497.9 -0.265711 1.74994 0
M  V30 65093 C 6495.03 -0.211644 3.42647 0
M  V30 65094 C 6494.11 0.731338 4.17747 0
M  V30 65095 N 6494.5 1.87288 4.69848 0
M  V30 65096 C 6492.8 0.544148 4.42668 0
M  V30 65097 C 6493.5 2.46353 5.26958 0
M  V30 65098 N 6492.48 1.74766 5.1474 0
M  V30 65099 H 6496.28 1.35798 2.60646 0
M  V30 65100 H 6493.79 0.838174 1.39099 0
M  V30 65101 H 6495.79 -0.580471 4.12839 0
M  V30 65102 H 6494.45 -1.07882 3.06254 0
M  V30 65103 H 6495.46 2.25414 4.66271 0
M  V30 65104 H 6492.14 -0.27822 4.16572 0
M  V30 65105 H 6493.53 3.42742 5.77908 0
M  V30 65106 N 6496.25 -1.38656 0.749159 0
M  V30 65107 C 6497.5 -2.00512 0.303797 0
M  V30 65108 C 6497.83 -1.59328 -1.11033 0
M  V30 65109 O 6497.1 -0.82874 -1.75961 0
M  V30 65110 C 6497.39 -3.57623 0.42167 0
M  V30 65111 C 6497.24 -4.08784 1.87659 0
M  V30 65112 C 6498.56 -4.397 -0.187569 0
M  V30 65113 H 6495.68 -0.728462 0.111861 0
M  V30 65114 H 6498.32 -1.64662 0.947973 0
M  V30 65115 H 6496.47 -3.88293 -0.126755 0
M  V30 65116 H 6498.14 -3.88775 2.48298 0
M  V30 65117 H 6496.38 -3.61816 2.39315 0
M  V30 65118 H 6497.06 -5.17893 1.91025 0
M  V30 65119 H 6499.53 -4.15156 0.280104 0
M  V30 65120 H 6498.41 -5.48849 -0.074827 0
M  V30 65121 H 6498.67 -4.23305 -1.27534 0
M  V30 65122 N 6497.73 -0.497886 -1.49529 0
M  V30 65123 C 6498.66 0.318871 -2.26971 0
M  V30 65124 C 6499.67 0.933397 -1.33385 0
M  V30 65125 O 6500.86 0.817264 -1.58692 0
M  V30 65126 C 6497.96 1.46364 -3.05664 0
M  V30 65127 C 6497.13 0.956996 -4.26802 0
M  V30 65128 C 6496.19 1.979 -4.87567 0
M  V30 65129 O 6495.22 1.5488 -5.47723 0
M  V30 65130 N 6496.42 3.30919 -4.76941 0
M  V30 65131 H 6499.19 -0.345157 -2.97706 0
M  V30 65132 H 6496.75 -0.330247 -1.58496 0
M  V30 65133 H 6498.74 2.14483 -3.4319 0
M  V30 65134 H 6497.31 2.03188 -2.37557 0
M  V30 65135 H 6496.53 0.100811 -3.94071 0
M  V30 65136 H 6497.82 0.596851 -5.05287 0
M  V30 65137 H 6497.22 3.68561 -4.29162 0
M  V30 65138 H 6495.77 3.94759 -5.1866 0
M  V30 65139 N 6499.21 1.55889 -0.231587 0
M  V30 65140 C 6500.12 2.24362 0.685487 0
M  V30 65141 C 6501.13 1.25458 1.20567 0
M  V30 65142 O 6502.31 1.58296 1.24516 0
M  V30 65143 C 6499.37 2.9179 1.87242 0
M  V30 65144 C 6498.43 4.06064 1.39323 0
M  V30 65145 C 6497.67 4.70267 2.52359 0
M  V30 65146 O 6497.89 4.3349 3.70732 0
M  V30 65147 O 6496.82 5.5907 2.22989 0
M  V30 65148 H 6500.65 3.03412 0.132128 0
M  V30 65149 H 6498.23 1.494 -0.000717218 0
M  V30 65150 H 6500.12 3.34314 2.56539 0
M  V30 65151 H 6498.79 2.15691 2.41369 0
M  V30 65152 H 6497.7 3.68088 0.667983 0
M  V30 65153 H 6499.03 4.83935 0.898223 0
M  V30 65154 N 6500.68 -0.0417018 1.57545 0
M  V30 65155 C 6501.93 -0.734009 1.8787 0
M  V30 65156 C 6502.25 -1.77191 0.828414 0
M  V30 65157 O 6503.45 -2.51592 1.02048 0
M  V30 65158 C 6501.91 -1.35652 3.33357 0
M  V30 65159 C 6501.52 -0.355622 4.46586 0
M  V30 65160 C 6503.26 -2.02944 3.72846 0
M  V30 65161 C 6501.17 -0.985757 5.83127 0
M  V30 65162 H 6500.1 -0.277897 0.70092 0
M  V30 65163 H 6502.75 0.0119942 1.83496 0
M  V30 65164 H 6501.13 -2.1518 3.32436 0
M  V30 65165 H 6502.3 0.412033 4.58954 0
M  V30 65166 H 6500.62 0.214503 4.15847 0
M  V30 65167 H 6503.22 -2.50919 4.72169 0
M  V30 65168 H 6503.56 -2.84212 3.04186 0
M  V30 65169 H 6504.09 -1.30207 3.75887 0
M  V30 65170 H 6500.83 -0.212762 6.55155 0
M  V30 65171 H 6500.35 -1.72355 5.74503 0
M  V30 65172 H 6502.03 -1.49683 6.29447 0
M  V30 65173 N 6502.16 -1.54446 -0.313732 0
M  V30 65174 C 6503.07 -1.87552 -1.4093 0
M  V30 65175 C 6504.09 -0.768396 -1.56114 0
M  V30 65176 O 6505.26 -1.06364 -1.71022 0
M  V30 65177 C 6502.33 -2.10477 -2.755 0
M  V30 65178 C 6501.39 -3.34241 -2.69409 0
M  V30 65179 C 6500.62 -3.56063 -3.97561 0
M  V30 65180 O 6500.85 -2.81135 -4.96306 0
M  V30 65181 O 6499.78 -4.4956 -4.00225 0
M  V30 65182 H 6503.61 -2.80732 -1.15858 0
M  V30 65183 H 6501.19 -1.40475 -0.508649 0
M  V30 65184 H 6503.07 -2.26829 -3.55143 0
M  V30 65185 H 6501.75 -1.20484 -3.00442 0
M  V30 65186 H 6500.65 -3.23265 -1.88283 0
M  V30 65187 H 6501.99 -4.24323 -2.49421 0
M  V30 65188 N 6503.64 0.576294 -1.46685 0
M  V30 65189 C 6504.89 1.33624 -1.52553 0
M  V30 65190 C 6505.22 1.93371 -0.179273 0
M  V30 65191 O 6504.49 1.7683 0.810026 0
M  V30 65192 C 6504.78 2.46077 -2.62903 0
M  V30 65193 C 6504.63 1.91323 -4.07082 0
M  V30 65194 C 6505.95 3.48095 -2.69292 0
M  V30 65195 H 6503.07 0.484497 -0.555366 0
M  V30 65196 H 6505.71 0.646776 -1.78653 0
M  V30 65197 H 6503.86 3.04889 -2.40779 0
M  V30 65198 H 6505.53 1.36919 -4.40512 0
M  V30 65199 H 6503.78 1.22112 -4.16258 0
M  V30 65200 H 6504.45 2.72528 -4.80034 0
M  V30 65201 H 6506.92 2.99173 -2.89197 0
M  V30 65202 H 6505.8 4.24228 -3.48313 0
M  V30 65203 H 6506.06 4.05733 -1.75595 0
M  V30 65204 N 6505.12 1.34498 0.821463 0
M  V30 65205 C 6506.34 1.3017 1.61464 0
M  V30 65206 C 6506.77 -0.121237 1.87709 0
M  V30 65207 O 6506.13 -1.08344 1.45366 0
M  V30 65208 C 6506.17 2.09962 2.9317 0
M  V30 65209 O 6505.28 1.47014 3.85306 0
M  V30 65210 H 6504.62 0.446992 0.491013 0
M  V30 65211 H 6507.15 1.77322 1.02069 0
M  V30 65212 H 6507.16 2.21371 3.42723 0
M  V30 65213 H 6505.83 3.13417 2.73391 0
M  V30 65214 H 6504.41 1.44356 3.43825 0
M  V30 65215 N 6506.6 -1.04184 1.18252 0
M  V30 65216 C 6508.01 -1.29564 0.931948 0
M  V30 65217 C 6508.21 -1.97425 -0.403166 0
M  V30 65218 O 6507.27 -2.25413 -1.13778 0
M  V30 65219 C 6508.58 -2.15549 2.09664 0
M  V30 65220 C 6510.13 -2.289 2.13481 0
M  V30 65221 C 6510.6 -3.1825 3.29364 0
M  V30 65222 N 6512.1 -3.25837 3.29218 0
M  V30 65223 C 6512.83 -3.95127 4.15527 0
M  V30 65224 N 6512.33 -4.66757 5.11967 0
M  V30 65225 N 6514.12 -3.91394 4.03444 0
M  V30 65226 H 6506.27 -0.585424 2.04173 0
M  V30 65227 H 6508.53 -0.320823 0.892063 0
M  V30 65228 H 6508.24 -1.72991 3.06214 0
M  V30 65229 H 6508.11 -3.16223 2.05627 0
M  V30 65230 H 6510.5 -2.70694 1.1751 0
M  V30 65231 H 6510.58 -1.2782 2.21575 0
M  V30 65232 H 6510.23 -2.77167 4.25606 0
M  V30 65233 H 6510.16 -4.19359 3.18506 0
M  V30 65234 H 6512.65 -2.7481 2.59399 0
M  V30 65235 H 6512.96 -5.17219 5.74199 0
M  V30 65236 H 6511.3 -4.65665 5.15927 0
M  V30 65237 H 6514.5 -3.34565 3.27389 0
M  V30 65238 H 6514.67 -4.45122 4.70925 0
M  V30 65239 N 6508.07 -0.984364 -1.23077 0
M  V30 65240 C 6509 -0.547354 -2.26994 0
M  V30 65241 C 6509.99 0.42147 -1.64796 0
M  V30 65242 O 6511.17 0.313969 -1.91645 0
M  V30 65243 C 6508.3 0.147161 -3.46988 0
M  V30 65244 C 6507.25 -0.739342 -4.21566 0
M  V30 65245 C 6506.58 0.0876101 -5.34628 0
M  V30 65246 C 6507.88 -2.03208 -4.81149 0
M  V30 65247 H 6509.57 -1.41596 -2.63801 0
M  V30 65248 H 6507.12 -0.682289 -1.2681 0
M  V30 65249 H 6509.07 0.464221 -4.18835 0
M  V30 65250 H 6507.8 1.05024 -3.09253 0
M  V30 65251 H 6506.46 -1.03992 -3.51541 0
M  V30 65252 H 6506.1 0.991347 -4.93134 0
M  V30 65253 H 6505.8 -0.502456 -5.85448 0
M  V30 65254 H 6507.33 0.39896 -6.09295 0
M  V30 65255 H 6508.74 -1.77953 -5.44982 0
M  V30 65256 H 6507.14 -2.57025 -5.42271 0
M  V30 65257 H 6508.21 -2.71636 -4.01674 0
M  V30 65258 N 6509.55 1.38256 -0.756502 0
M  V30 65259 C 6510.8 2.00051 -0.313961 0
M  V30 65260 C 6511.13 1.60051 1.10517 0
M  V30 65261 O 6510.38 0.830848 1.77187 0
M  V30 65262 C 6510.68 3.55292 -0.387625 0
M  V30 65263 C 6510.35 4.15012 -1.76282 0
M  V30 65264 C 6509.01 4.31037 -2.13917 0
M  V30 65265 C 6511.36 4.47927 -2.66478 0
M  V30 65266 C 6508.69 4.77274 -3.41214 0
M  V30 65267 C 6511.04 4.95582 -3.93168 0
M  V30 65268 C 6509.71 5.09813 -4.30868 0
M  V30 65269 H 6508.98 0.73204 -0.114887 0
M  V30 65270 H 6511.62 1.65259 -0.967552 0
M  V30 65271 H 6509.93 3.90238 0.349527 0
M  V30 65272 H 6511.62 4.00991 -0.0267492 0
M  V30 65273 H 6508.21 4.02956 -1.46028 0
M  V30 65274 H 6512.4 4.35146 -2.38666 0
M  V30 65275 H 6507.65 4.86477 -3.70337 0
M  V30 65276 H 6511.83 5.2002 -4.63198 0
M  V30 65277 H 6509.46 5.45401 -5.29568 0
M  V30 65278 N 6511.03 0.505809 1.49263 0
M  V30 65279 C 6511.96 -0.259287 2.32056 0
M  V30 65280 C 6512.94 -0.958031 1.40555 0
M  V30 65281 O 6514.13 -0.948503 1.69461 0
M  V30 65282 C 6511.26 -1.32127 3.21185 0
M  V30 65283 C 6510.21 -0.742119 4.21517 0
M  V30 65284 C 6509.54 -1.90498 4.99615 0
M  V30 65285 C 6510.84 0.27005 5.21601 0
M  V30 65286 H 6512.53 0.431802 2.9627 0
M  V30 65287 H 6510.08 0.209105 1.42474 0
M  V30 65288 H 6512.03 -1.86427 3.77919 0
M  V30 65289 H 6510.75 -2.04161 2.54923 0
M  V30 65290 H 6509.41 -0.220827 3.65934 0
M  V30 65291 H 6509.06 -2.61312 4.29797 0
M  V30 65292 H 6508.76 -1.52351 5.67506 0
M  V30 65293 H 6510.28 -2.45222 5.59194 0
M  V30 65294 H 6511.7 -0.184989 5.73001 0
M  V30 65295 H 6510.1 0.567607 5.9741 0
M  V30 65296 H 6511.17 1.18428 4.70216 0
M  V30 65297 N 6512.51 -1.55764 0.239851 0
M  V30 65298 C 6513.42 -2.24722 -0.673579 0
M  V30 65299 C 6514.43 -1.26095 -1.199 0
M  V30 65300 O 6515.61 -1.58954 -1.23675 0
M  V30 65301 C 6512.68 -2.92779 -1.85692 0
M  V30 65302 C 6511.74 -4.06797 -1.37167 0
M  V30 65303 C 6510.97 -4.71598 -2.49861 0
M  V30 65304 O 6511.19 -4.3545 -3.68428 0
M  V30 65305 O 6510.13 -5.60245 -2.20021 0
M  V30 65306 H 6513.95 -3.03478 -0.116036 0
M  V30 65307 H 6511.54 -1.49398 0.00864025 0
M  V30 65308 H 6513.42 -3.35669 -2.54763 0
M  V30 65309 H 6512.09 -2.16968 -2.40222 0
M  V30 65310 H 6511 -3.68437 -0.648453 0
M  V30 65311 H 6512.33 -4.84404 -0.872546 0
M  V30 65312 N 6513.99 0.0333462 -1.57565 0
M  V30 65313 C 6515.4 0.580487 -1.77446 0
M  V30 65314 C 6515.75 1.75837 -0.870386 0
M  V30 65315 O 6514.87 2.16305 -0.0641229 0
M  V30 65316 C 6515.47 1.05983 -3.21796 0
M  V30 65317 C 6514.03 1.55253 -3.4289 0
M  V30 65318 C 6513.17 0.4887 -2.7296 0
M  V30 65319 H 6516.13 -0.192881 -1.57524 0
M  V30 65320 H 6516.15 1.92736 -3.28075 0
M  V30 65321 H 6515.66 0.202342 -3.87572 0
M  V30 65322 H 6513.76 2.43201 -2.82284 0
M  V30 65323 H 6513.87 1.60298 -4.51488 0
M  V30 65324 H 6512.24 0.942748 -2.3661 0
M  V30 65325 H 6513.02 -0.359256 -3.41415 0
M  V30 65326 N 6515.46 1.5461 0.305537 0
M  V30 65327 C 6516.69 1.77661 1.06038 0
M  V30 65328 C 6517.11 0.533891 1.81094 0
M  V30 65329 O 6516.46 -0.496114 1.75627 0
M  V30 65330 C 6516.52 2.98133 2.04448 0
M  V30 65331 O 6516.24 4.17603 1.32437 0
M  V30 65332 C 6517.74 3.33537 2.92006 0
M  V30 65333 H 6514.96 0.592643 0.314667 0
M  V30 65334 H 6517.5 2.01548 0.346188 0
M  V30 65335 H 6515.66 2.76467 2.71375 0
M  V30 65336 H 6516.07 4.85492 1.98489 0
M  V30 65337 H 6517.54 4.21087 3.56917 0
M  V30 65338 H 6518.02 2.51493 3.60067 0
M  V30 65339 H 6518.63 3.57346 2.30616 0
M  V30 65340 N 6516.94 -0.568506 1.46989 0
M  V30 65341 C 6517.87 -1.69141 1.54673 0
M  V30 65342 C 6518.89 -1.56913 0.433844 0
M  V30 65343 O 6520.08 -1.64077 0.702911 0
M  V30 65344 C 6517.18 -3.07517 1.42431 0
M  V30 65345 C 6516.35 -3.4561 2.6809 0
M  V30 65346 C 6515.41 -4.63102 2.49845 0
M  V30 65347 O 6514.43 -4.6825 3.23622 0
M  V30 65348 N 6515.64 -5.58885 1.56934 0
M  V30 65349 H 6518.4 -1.62999 2.51498 0
M  V30 65350 H 6515.96 -0.75486 1.43225 0
M  V30 65351 H 6517.95 -3.83932 1.27977 0
M  V30 65352 H 6516.52 -3.07947 0.53733 0
M  V30 65353 H 6515.74 -2.58756 2.97387 0
M  V30 65354 H 6517.03 -3.67832 3.51536 0
M  V30 65355 H 6516.43 -5.57473 0.961238 0
M  V30 65356 H 6514.99 -6.34673 1.48436 0
M  V30 65357 N 6518.42 -1.34932 -0.814318 0
M  V30 65358 C 6519.38 -1.271 -1.90731 0
M  V30 65359 C 6520.38 -0.184201 -1.59741 0
M  V30 65360 O 6521.57 -0.437397 -1.68619 0
M  V30 65361 C 6518.71 -0.964369 -3.26975 0
M  V30 65362 H 6519.9 -2.24278 -1.99097 0
M  V30 65363 H 6517.45 -1.19344 -1.00929 0
M  V30 65364 H 6518.19 0.00387549 -3.243 0
M  V30 65365 H 6517.97 -1.75057 -3.50853 0
M  V30 65366 H 6519.46 -0.934969 -4.06999 0
M  V30 65367 N 6519.9 1.03555 -1.18803 0
M  V30 65368 C 6521.18 1.73869 -0.896052 0
M  V30 65369 C 6521.56 2.02397 0.599879 0
M  V30 65370 O 6520.9 1.67325 1.5561 0
M  V30 65371 C 6521.11 3.02022 -1.74881 0
M  V30 65372 C 6522.46 3.7566 -1.979 0
M  V30 65373 O 6523.49 3.11933 -1.71977 0
M  V30 65374 O 6522.35 4.9021 -2.4157 0
M  V30 65375 H 6519.44 0.756847 -0.333333 0
M  V30 65376 H 6521.99 1.09575 -1.29582 0
M  V30 65377 H 6520.76 2.77116 -2.76265 0
M  V30 65378 H 6520.38 3.74056 -1.34789 0
M  V30 65379 N 6521.38 0.990877 1.22554 0
M  V30 65380 C 6522.63 0.661065 1.90559 0
M  V30 65381 C 6522.94 -0.810208 1.78031 0
M  V30 65382 O 6524.15 -1.25152 2.40934 0
M  V30 65383 C 6522.6 1.13184 3.41639 0
M  V30 65384 C 6522.21 2.6282 3.62808 0
M  V30 65385 C 6523.95 0.876265 4.15357 0
M  V30 65386 C 6521.86 3.03511 5.07578 0
M  V30 65387 H 6520.79 0.243556 0.71358 0
M  V30 65388 H 6523.44 1.20017 1.3881 0
M  V30 65389 H 6521.82 0.52088 3.92559 0
M  V30 65390 H 6523 3.29244 3.22389 0
M  V30 65391 H 6521.31 2.86238 3.02418 0
M  V30 65392 H 6523.91 1.15601 5.22054 0
M  V30 65393 H 6524.25 -0.187614 4.15877 0
M  V30 65394 H 6524.79 1.44932 3.70459 0
M  V30 65395 H 6521.52 4.09066 5.12196 0
M  V30 65396 H 6521.04 2.41788 5.48907 0
M  V30 65397 H 6522.72 2.94699 5.75987 0
M  V30 65398 N 6522.86 -1.37853 0.763824 0
M  V30 65399 C 6523.82 -2.28701 0.151103 0
M  V30 65400 C 6524.82 -1.47663 -0.636575 0
M  V30 65401 O 6526.01 -1.6798 -0.461331 0
M  V30 65402 C 6523.14 -3.31528 -0.793848 0
M  V30 65403 H 6524.33 -2.84394 0.951847 0
M  V30 65404 H 6521.89 -1.46985 0.531504 0
M  V30 65405 H 6522.62 -2.80945 -1.61989 0
M  V30 65406 H 6522.41 -3.91417 -0.231307 0
M  V30 65407 H 6523.9 -3.99436 -1.21823 0
M  V30 65408 N 6524.33 -0.513718 -1.48992 0
M  V30 65409 C 6525.26 0.246976 -2.3219 0
M  V30 65410 C 6526.24 0.950563 -1.41061 0
M  V30 65411 O 6527.43 0.939503 -1.69962 0
M  V30 65412 C 6524.56 1.30422 -3.21881 0
M  V30 65413 C 6523.51 0.719754 -4.21905 0
M  V30 65414 C 6522.84 1.87845 -5.00618 0
M  V30 65415 C 6524.14 -0.297708 -5.21451 0
M  V30 65416 H 6525.83 -0.447507 -2.96037 0
M  V30 65417 H 6523.38 -0.216658 -1.42361 0
M  V30 65418 H 6525.33 1.84421 -3.78902 0
M  V30 65419 H 6524.06 2.02806 -2.56002 0
M  V30 65420 H 6522.72 0.201418 -3.66046 0
M  V30 65421 H 6522.36 2.59029 -4.31176 0
M  V30 65422 H 6522.06 1.49339 -5.68306 0
M  V30 65423 H 6523.59 2.42253 -5.60487 0
M  V30 65424 H 6525 0.154599 -5.73092 0
M  V30 65425 H 6523.4 -0.599281 -5.971 0
M  V30 65426 H 6524.47 -1.2092 -4.69581 0
M  V30 65427 N 6525.81 1.55635 -0.248108 0
M  V30 65428 C 6526.74 2.24412 0.645096 0
M  V30 65429 C 6527.72 1.22482 1.18035 0
M  V30 65430 O 6528.91 1.51137 1.21947 0
M  V30 65431 C 6526.04 2.94452 1.84161 0
M  V30 65432 C 6524.99 4.03081 1.43907 0
M  V30 65433 C 6524.32 4.60553 2.71652 0
M  V30 65434 C 6525.62 5.18734 0.609249 0
M  V30 65435 H 6527.31 2.99314 0.0715899 0
M  V30 65436 H 6524.86 1.43962 0.0329924 0
M  V30 65437 H 6526.81 3.41267 2.47213 0
M  V30 65438 H 6525.53 2.1704 2.44052 0
M  V30 65439 H 6524.19 3.57037 0.831887 0
M  V30 65440 H 6523.84 3.7984 3.29743 0
M  V30 65441 H 6523.54 5.33884 2.45441 0
M  V30 65442 H 6525.07 5.10103 3.356 0
M  V30 65443 H 6526.48 5.61768 1.1441 0
M  V30 65444 H 6524.88 5.98462 0.443151 0
M  V30 65445 H 6525.95 4.83422 -0.378257 0
M  V30 65446 N 6527.29 -0.0249897 1.5758 0
M  V30 65447 C 6528.24 -1.02434 2.06824 0
M  V30 65448 C 6529.21 -1.35672 0.958246 0
M  V30 65449 O 6530.39 -1.45939 1.22908 0
M  V30 65450 C 6527.53 -2.31895 2.55576 0
M  V30 65451 C 6526.64 -2.04779 3.80381 0
M  V30 65452 C 6525.78 -3.2814 4.17729 0
M  V30 65453 C 6524.82 -2.96598 5.3544 0
M  V30 65454 N 6523.96 -4.12422 5.68201 0
M  V30 65455 H 6528.8 -0.597457 2.91949 0
M  V30 65456 H 6526.33 -0.283381 1.44345 0
M  V30 65457 H 6528.29 -3.07543 2.8191 0
M  V30 65458 H 6526.92 -2.72298 1.73361 0
M  V30 65459 H 6525.97 -1.1961 3.61106 0
M  V30 65460 H 6527.28 -1.77514 4.66144 0
M  V30 65461 H 6526.44 -4.12153 4.45213 0
M  V30 65462 H 6525.18 -3.58522 3.30625 0
M  V30 65463 H 6524.18 -2.10987 5.07705 0
M  V30 65464 H 6525.41 -2.67489 6.24201 0
M  V30 65465 H 6523.35 -4.42748 4.84056 0
M  V30 65466 H 6523.27 -3.88594 6.48483 0
M  V30 65467 H 6524.54 -4.97296 6.00264 0
M  V30 65468 N 6528.77 -1.5477 -0.297333 0
M  V30 65469 C 6529.7 -1.88977 -1.3715 0
M  V30 65470 C 6530.68 -0.749046 -1.5272 0
M  V30 65471 O 6531.86 -1.0051 -1.66167 0
M  V30 65472 C 6528.99 -2.1403 -2.73511 0
M  V30 65473 C 6527.95 -3.29875 -2.72702 0
M  V30 65474 C 6527.27 -3.40355 -4.12387 0
M  V30 65475 C 6528.57 -4.6689 -2.34118 0
M  V30 65476 H 6530.27 -2.78943 -1.0877 0
M  V30 65477 H 6527.81 -1.34213 -0.521801 0
M  V30 65478 H 6529.77 -2.36546 -3.48746 0
M  V30 65479 H 6528.49 -1.20838 -3.03423 0
M  V30 65480 H 6527.15 -3.07288 -1.99924 0
M  V30 65481 H 6526.8 -2.44673 -4.39482 0
M  V30 65482 H 6526.5 -4.18228 -4.12746 0
M  V30 65483 H 6528.02 -3.65135 -4.89396 0
M  V30 65484 H 6529.44 -4.89111 -2.9907 0
M  V30 65485 H 6527.83 -5.47503 -2.45683 0
M  V30 65486 H 6528.9 -4.67358 -1.29245 0
M  V30 65487 N 6530.25 0.560703 -1.47288 0
M  V30 65488 C 6531.47 1.34835 -1.57589 0
M  V30 65489 C 6531.9 1.86746 -0.225276 0
M  V30 65490 O 6531.25 1.62779 0.798289 0
M  V30 65491 C 6531.3 2.49662 -2.60194 0
M  V30 65492 O 6530.41 3.51785 -2.15223 0
M  V30 65493 H 6529.75 0.40065 -0.529505 0
M  V30 65494 H 6532.28 0.677962 -1.93041 0
M  V30 65495 H 6532.29 2.9628 -2.80503 0
M  V30 65496 H 6530.96 2.11235 -3.58263 0
M  V30 65497 H 6529.54 3.11497 -2.04998 0
M  V30 65498 N 6531.72 1.35362 0.807151 0
M  V30 65499 C 6533.14 1.15388 1.10262 0
M  V30 65500 C 6533.34 -0.0340353 2.01471 0
M  V30 65501 O 6532.4 -0.704812 2.42464 0
M  V30 65502 C 6533.71 2.45658 1.73415 0
M  V30 65503 C 6535.26 2.5186 1.85838 0
M  V30 65504 C 6535.73 3.82172 2.52406 0
M  V30 65505 N 6537.22 3.8342 2.59892 0
M  V30 65506 C 6537.96 4.80978 3.12166 0
M  V30 65507 N 6537.45 5.88925 3.64883 0
M  V30 65508 N 6539.25 4.68416 3.10714 0
M  V30 65509 H 6531.4 2.11449 0.200817 0
M  V30 65510 H 6533.66 0.935787 0.151678 0
M  V30 65511 H 6533.37 3.32759 1.13862 0
M  V30 65512 H 6533.24 2.60164 2.7312 0
M  V30 65513 H 6535.63 1.65188 2.44534 0
M  V30 65514 H 6535.71 2.41268 0.849895 0
M  V30 65515 H 6535.35 4.69241 1.9436 0
M  V30 65516 H 6535.28 3.90051 3.5379 0
M  V30 65517 H 6537.77 3.05423 2.22543 0
M  V30 65518 H 6538.09 6.5936 4.03068 0
M  V30 65519 H 6536.43 5.92618 3.63083 0
M  V30 65520 H 6539.62 3.83224 2.68807 0
M  V30 65521 H 6539.8 5.4461 3.51147 0
M  V30 65522 N 6533.2 -1.02924 1.1935 0
M  V30 65523 C 6534.61 -1.57768 0.998304 0
M  V30 65524 C 6534.96 -1.90996 -0.448888 0
M  V30 65525 O 6534.09 -1.70843 -1.32821 0
M  V30 65526 C 6534.68 -2.8666 1.80587 0
M  V30 65527 C 6533.24 -3.38078 1.65469 0
M  V30 65528 C 6532.39 -2.11524 1.79312 0
M  V30 65529 H 6535.34 -0.854567 1.33727 0
M  V30 65530 H 6535.36 -3.5754 1.30174 0
M  V30 65531 H 6534.87 -2.62444 2.8591 0
M  V30 65532 H 6532.98 -3.67281 0.627305 0
M  V30 65533 H 6533.09 -4.11134 2.45979 0
M  V30 65534 H 6531.45 -2.23378 1.2237 0
M  V30 65535 H 6532.24 -1.89751 2.86094 0
M  V30 65536 N 6534.68 -0.997362 -1.22026 0
M  V30 65537 C 6535.64 -0.55643 -2.22343 0
M  V30 65538 C 6536.64 0.36311 -1.56647 0
M  V30 65539 O 6537.83 0.15445 -1.73514 0
M  V30 65540 C 6534.97 0.190052 -3.4037 0
M  V30 65541 H 6536.16 -1.44364 -2.62867 0
M  V30 65542 H 6533.71 -0.785047 -1.35154 0
M  V30 65543 H 6534.45 1.09304 -3.05324 0
M  V30 65544 H 6534.23 -0.470251 -3.8927 0
M  V30 65545 H 6535.72 0.486562 -4.14756 0
M  V30 65546 N 6536.16 1.37446 -0.771123 0
M  V30 65547 C 6537.4 2.00003 -0.335658 0
M  V30 65548 C 6537.74 1.61074 1.08484 0
M  V30 65549 O 6537.01 0.856629 1.7462 0
M  V30 65550 C 6537.3 3.56907 -0.478512 0
M  V30 65551 C 6537.15 4.05747 -1.94138 0
M  V30 65552 C 6538.47 4.39943 0.117593 0
M  V30 65553 H 6535.59 0.72659 -0.123436 0
M  V30 65554 H 6538.23 1.63133 -0.974049 0
M  V30 65555 H 6536.38 3.88446 0.064965 0
M  V30 65556 H 6538.05 3.84775 -2.54452 0
M  V30 65557 H 6536.29 3.57963 -2.45041 0
M  V30 65558 H 6536.96 5.14789 -1.9924 0
M  V30 65559 H 6539.44 4.14658 -0.346116 0
M  V30 65560 H 6538.32 5.48899 -0.0124996 0
M  V30 65561 H 6538.58 4.25281 1.20784 0
M  V30 65562 N 6537.64 0.521612 1.48718 0
M  V30 65563 C 6538.89 -0.01748 2.01692 0
M  V30 65564 C 6539.2 -1.36117 1.40469 0
M  V30 65565 O 6540.4 -1.98814 1.84892 0
M  V30 65566 C 6538.86 -0.0815696 3.59808 0
M  V30 65567 C 6538.47 1.25672 4.30012 0
M  V30 65568 C 6540.21 -0.569933 4.20657 0
M  V30 65569 C 6538.12 1.15367 5.80038 0
M  V30 65570 H 6537.05 -0.0103042 0.75393 0
M  V30 65571 H 6539.7 0.664135 1.7106 0
M  V30 65572 H 6538.08 -0.828082 3.87245 0
M  V30 65573 H 6539.26 2.01814 4.14256 0
M  V30 65574 H 6537.57 1.68015 3.80998 0
M  V30 65575 H 6540.17 -0.664866 5.3055 0
M  V30 65576 H 6540.51 -1.57374 3.85408 0
M  V30 65577 H 6541.04 0.120648 3.97617 0
M  V30 65578 H 6537.78 2.13237 6.19847 0
M  V30 65579 H 6537.3 0.433478 5.98232 0
M  V30 65580 H 6538.98 0.840873 6.41513 0
M  V30 65581 N 6539.11 -1.55501 0.256358 0
M  V30 65582 C 6540.34 -2.03572 -0.369619 0
M  V30 65583 C 6540.76 -1.13534 -1.50849 0
M  V30 65584 O 6540.11 -0.15164 -1.81869 0
M  V30 65585 C 6540.17 -3.50913 -0.868457 0
M  V30 65586 O 6539.89 -4.37522 0.22504 0
M  V30 65587 C 6541.39 -4.14788 -1.56416 0
M  V30 65588 H 6538.61 -0.665372 -0.0867251 0
M  V30 65589 H 6541.15 -2.00882 0.382982 0
M  V30 65590 H 6539.31 -3.54107 -1.57121 0
M  V30 65591 H 6539.72 -5.2427 -0.155282 0
M  V30 65592 H 6541.19 -5.19546 -1.86482 0
M  V30 65593 H 6541.67 -3.61839 -2.48936 0
M  V30 65594 H 6542.28 -4.15543 -0.905747 0
M  V30 65595 N 6540.59 0.0166325 -1.57591 0
M  V30 65596 C 6541.87 0.741031 -1.8102 0
M  V30 65597 C 6542.25 1.92904 -0.857393 0
M  V30 65598 O 6541.6 2.28291 0.0976711 0
M  V30 65599 C 6541.81 1.1624 -3.29073 0
M  V30 65600 C 6543.16 1.57317 -3.94381 0
M  V30 65601 O 6544.18 1.25665 -3.33297 0
M  V30 65602 O 6543.04 2.16111 -5.01954 0
M  V30 65603 H 6540.13 0.359384 -0.74483 0
M  V30 65604 H 6542.68 -0.00754517 -1.69698 0
M  V30 65605 H 6541.45 0.314866 -3.90031 0
M  V30 65606 H 6541.07 1.9706 -3.4533 0
M  V30 65607 N 6542.07 1.54925 0.289121 0
M  V30 65608 C 6543.02 1.86697 1.35694 0
M  V30 65609 C 6543.99 0.716937 1.49831 0
M  V30 65610 O 6545.17 0.966695 1.64498 0
M  V30 65611 C 6542.31 2.13028 2.71501 0
M  V30 65612 C 6541.43 3.40614 2.65718 0
M  V30 65613 C 6540.56 3.56727 3.93597 0
M  V30 65614 C 6539.6 4.78063 3.82259 0
M  V30 65615 N 6538.74 4.90919 5.01939 0
M  V30 65616 H 6543.58 2.7778 1.079 0
M  V30 65617 H 6541.11 1.37541 0.521632 0
M  V30 65618 H 6543.07 2.26292 3.50496 0
M  V30 65619 H 6541.7 1.25198 2.97532 0
M  V30 65620 H 6540.75 3.35908 1.78522 0
M  V30 65621 H 6542.07 4.29737 2.53234 0
M  V30 65622 H 6541.22 3.69721 4.81032 0
M  V30 65623 H 6539.96 2.6576 4.08929 0
M  V30 65624 H 6538.96 4.6509 2.93209 0
M  V30 65625 H 6540.19 5.7045 3.68462 0
M  V30 65626 H 6538.13 4.02877 5.17712 0
M  V30 65627 H 6538.05 5.74061 4.91924 0
M  V30 65628 H 6539.32 5.08281 5.90991 0
M  V30 65629 N 6543.55 -0.552884 1.47584 0
M  V30 65630 C 6544.79 -1.3118 1.5466 0
M  V30 65631 C 6545.13 -1.93061 0.210014 0
M  V30 65632 O 6544.4 -1.78096 -0.781792 0
M  V30 65633 C 6544.69 -2.41863 2.66785 0
M  V30 65634 C 6544.54 -1.84823 4.10074 0
M  V30 65635 C 6545.86 -3.43766 2.74796 0
M  V30 65636 H 6542.98 -0.4756 0.563004 0
M  V30 65637 H 6545.62 -0.618272 1.79659 0
M  V30 65638 H 6543.77 -3.0102 2.45599 0
M  V30 65639 H 6545.44 -1.29893 4.42635 0
M  V30 65640 H 6543.68 -1.15474 4.18148 0
M  V30 65641 H 6544.35 -2.64857 4.84309 0
M  V30 65642 H 6546.83 -2.94534 2.9392 0
M  V30 65643 H 6545.71 -4.18633 3.55018 0
M  V30 65644 H 6545.97 -4.02888 1.82027 0
M  V30 65645 N 6545.03 -1.35788 -0.799961 0
M  V30 65646 C 6545.96 -1.23607 -1.91824 0
M  V30 65647 C 6546.94 -0.122503 -1.62138 0
M  V30 65648 O 6548.12 -0.291773 -1.86228 0
M  V30 65649 C 6545.25 -0.904763 -3.26392 0
M  V30 65650 C 6544.29 -2.03131 -3.7502 0
M  V30 65651 S 6545.13 -3.64787 -3.92034 0
M  V30 65652 C 6546.28 -3.33747 -5.29494 0
M  V30 65653 H 6546.52 -2.18262 -2.01863 0
M  V30 65654 H 6544.05 -1.21081 -0.958058 0
M  V30 65655 H 6546.01 -0.720419 -4.04129 0
M  V30 65656 H 6544.67 0.0238352 -3.14091 0
M  V30 65657 H 6543.86 -1.7538 -4.72502 0
M  V30 65658 H 6543.46 -2.17432 -3.04301 0
M  V30 65659 H 6545.76 -2.86986 -6.13714 0
M  V30 65660 H 6546.7 -4.30453 -5.62242 0
M  V30 65661 H 6547.11 -2.69352 -4.96094 0
M  V30 65662 N 6546.5 1.0229 -1.19894 0
M  V30 65663 C 6547.92 1.57237 -1.00666 0
M  V30 65664 C 6548.27 1.91231 0.438752 0
M  V30 65665 O 6547.39 1.71545 1.31913 0
M  V30 65666 C 6547.99 2.85698 -1.82104 0
M  V30 65667 C 6546.55 3.37196 -1.6726 0
M  V30 65668 C 6545.69 2.1057 -1.80431 0
M  V30 65669 H 6548.64 0.847463 -1.34178 0
M  V30 65670 H 6548.66 3.56845 -1.32068 0
M  V30 65671 H 6548.18 2.60925 -2.87298 0
M  V30 65672 H 6546.28 3.66944 -0.646774 0
M  V30 65673 H 6546.39 4.09824 -2.48156 0
M  V30 65674 H 6544.75 2.22726 -1.23553 0
M  V30 65675 H 6545.54 1.88231 -2.87096 0
M  V30 65676 N 6547.98 1.00382 1.21496 0
M  V30 65677 C 6548.95 0.568214 2.22045 0
M  V30 65678 C 6549.95 -0.354797 1.56837 0
M  V30 65679 O 6551.14 -0.145246 1.73593 0
M  V30 65680 C 6548.27 -0.171999 3.40466 0
M  V30 65681 H 6549.46 1.45756 2.62098 0
M  V30 65682 H 6547.01 0.792203 1.34736 0
M  V30 65683 H 6547.75 -1.07684 3.059 0
M  V30 65684 H 6547.53 0.490889 3.89015 0
M  V30 65685 H 6549.02 -0.46456 4.15008 0
M  V30 65686 N 6549.46 -1.37035 0.778402 0
M  V30 65687 C 6550.7 -2.01364 0.351006 0
M  V30 65688 C 6551.07 -1.60451 -1.05448 0
M  V30 65689 O 6552.27 -2.1729 -1.58236 0
M  V30 65690 C 6550.54 -3.53924 0.497242 0
M  V30 65691 S 6552.1 -4.38522 0.156094 0
M  V30 65692 H 6548.91 -0.698127 0.134684 0
M  V30 65693 H 6551.52 -1.67119 1.01448 0
M  V30 65694 H 6550.22 -3.81188 1.52066 0
M  V30 65695 H 6549.75 -3.92976 -0.182549 0
M  V30 65696 H 6551.77 -4.85047 -1.04612 0
M  V30 65697 N 6550.94 -0.529492 -1.48439 0
M  V30 65698 C 6551.87 0.222336 -2.32439 0
M  V30 65699 C 6552.85 0.935549 -1.42062 0
M  V30 65700 O 6554.04 0.921423 -1.70949 0
M  V30 65701 C 6551.17 1.27001 -3.23246 0
M  V30 65702 C 6550.12 0.674965 -4.22644 0
M  V30 65703 C 6549.45 1.82525 -5.02582 0
M  V30 65704 C 6550.75 -0.352998 -5.21106 0
M  V30 65705 H 6552.44 -0.478881 -2.95545 0
M  V30 65706 H 6549.99 -0.231745 -1.42123 0
M  V30 65707 H 6551.94 1.80391 -3.80837 0
M  V30 65708 H 6550.66 2.0008 -2.58139 0
M  V30 65709 H 6549.32 0.162582 -3.66239 0
M  V30 65710 H 6548.97 2.54441 -4.339 0
M  V30 65711 H 6548.67 1.43303 -5.69858 0
M  V30 65712 H 6550.19 2.36295 -5.63025 0
M  V30 65713 H 6551.61 0.093806 -5.73223 0
M  V30 65714 H 6550 -0.662578 -5.96431 0
M  V30 65715 H 6551.07 -1.25894 -4.68272 0
M  V30 65716 N 6552.42 1.55363 -0.264601 0
M  V30 65717 C 6553.83 1.85213 0.235188 0
M  V30 65718 C 6554.18 1.18658 1.56252 0
M  V30 65719 O 6553.3 0.471171 2.11208 0
M  V30 65720 C 6553.9 3.36015 0.433512 0
M  V30 65721 C 6552.46 3.66027 0.877544 0
M  V30 65722 C 6551.61 2.77278 -0.0351971 0
M  V30 65723 H 6554.56 1.51053 -0.486686 0
M  V30 65724 H 6554.58 3.58552 1.27361 0
M  V30 65725 H 6554.09 3.84427 -0.5327 0
M  V30 65726 H 6552.19 3.23107 1.8556 0
M  V30 65727 H 6552.3 4.73626 0.722148 0
M  V30 65728 H 6550.67 2.5015 0.47929 0
M  V30 65729 H 6551.45 3.28501 -0.997102 0
M  V30 65730 N 6553.9 -0.00827481 1.57598 0
M  V30 65731 C 6555.12 -0.70971 1.94879 0
M  V30 65732 C 6555.55 -1.6697 0.866179 0
M  V30 65733 O 6554.9 -1.8044 -0.176405 0
M  V30 65734 C 6554.95 -1.42498 3.3125 0
M  V30 65735 O 6554.06 -2.53907 3.24969 0
M  V30 65736 H 6553.4 -0.189395 0.636416 0
M  V30 65737 H 6555.93 0.0424504 2.04556 0
M  V30 65738 H 6555.94 -1.79026 3.66625 0
M  V30 65739 H 6554.61 -0.721046 4.09602 0
M  V30 65740 H 6553.19 -2.19768 3.01258 0
M  V30 65741 N 6555.37 -1.55076 -0.280901 0
M  V30 65742 C 6556.78 -1.661 -0.852513 0
M  V30 65743 C 6557.14 -0.582813 -1.87344 0
M  V30 65744 O 6556.26 0.27709 -2.14619 0
M  V30 65745 C 6556.86 -3.01107 -1.55306 0
M  V30 65746 C 6555.41 -3.14184 -2.07281 0
M  V30 65747 C 6554.56 -2.61867 -0.912185 0
M  V30 65748 H 6557.51 -1.58596 -0.0574277 0
M  V30 65749 H 6557.53 -2.93654 -2.41966 0
M  V30 65750 H 6557.05 -3.79558 -0.80977 0
M  V30 65751 H 6555.15 -2.40492 -2.84595 0
M  V30 65752 H 6555.26 -4.20635 -2.29354 0
M  V30 65753 H 6553.62 -2.18825 -1.30337 0
M  V30 65754 H 6554.41 -3.42814 -0.18253 0
M  V30 65755 N 6556.85 0.54505 -1.47875 0
M  V30 65756 C 6558.13 1.30605 -1.45608 0
M  V30 65757 C 6558.51 2.10496 -0.159563 0
M  V30 65758 O 6557.86 2.11744 0.858876 0
M  V30 65759 C 6558.07 2.20028 -2.70903 0
M  V30 65760 C 6559.41 2.80657 -3.18617 0
M  V30 65761 O 6560.44 2.30324 -2.71715 0
M  V30 65762 O 6559.3 3.72171 -4.00189 0
M  V30 65763 H 6556.39 0.588705 -0.580823 0
M  V30 65764 H 6558.94 0.562947 -1.60091 0
M  V30 65765 H 6557.71 1.60677 -3.56789 0
M  V30 65766 H 6557.33 3.01613 -2.59066 0
M  V30 65767 N 6558.33 1.3621 0.792749 0
M  V30 65768 C 6559.56 1.33208 1.57921 0
M  V30 65769 C 6559.97 -0.0894303 1.88989 0
M  V30 65770 O 6559.31 -1.0558 1.50328 0
M  V30 65771 C 6559.37 2.08506 2.92858 0
M  V30 65772 C 6559.04 3.57615 2.84536 0
M  V30 65773 C 6560.03 4.51931 2.5701 0
M  V30 65774 C 6557.72 4.00455 3.03217 0
M  V30 65775 C 6559.71 5.87064 2.48263 0
M  V30 65776 C 6557.4 5.3568 2.94093 0
M  V30 65777 C 6558.4 6.28797 2.66653 0
M  V30 65778 O 6558.09 7.61538 2.57516 0
M  V30 65779 H 6557.82 0.458664 0.496592 0
M  V30 65780 H 6560.37 1.79852 0.992089 0
M  V30 65781 H 6558.6 1.5652 3.53608 0
M  V30 65782 H 6560.29 1.98404 3.54105 0
M  V30 65783 H 6561.06 4.20148 2.42283 0
M  V30 65784 H 6556.94 3.28353 3.23582 0
M  V30 65785 H 6560.48 6.59714 2.26766 0
M  V30 65786 H 6556.38 5.67072 3.08382 0
M  V30 65787 H 6557.14 7.71622 2.73022 0
M  V30 65788 N 6559.81 -1.01652 1.20435 0
M  V30 65789 C 6560.74 -2.0985 0.896573 0
M  V30 65790 C 6561.72 -1.61894 -0.151371 0
M  V30 65791 O 6562.9 -1.88484 -0.0249358 0
M  V30 65792 C 6560.03 -3.36947 0.344104 0
M  V30 65793 C 6559.08 -4.03794 1.37305 0
M  V30 65794 S 6559.91 -4.47699 2.93812 0
M  V30 65795 C 6561.06 -5.77999 2.40141 0
M  V30 65796 H 6561.3 -2.35633 1.81285 0
M  V30 65797 H 6558.83 -1.14769 1.03283 0
M  V30 65798 H 6560.79 -4.10488 0.0319 0
M  V30 65799 H 6559.45 -3.09235 -0.550674 0
M  V30 65800 H 6558.64 -4.95235 0.935863 0
M  V30 65801 H 6558.24 -3.36479 1.63273 0
M  V30 65802 H 6560.54 -6.53176 1.79908 0
M  V30 65803 H 6561.48 -6.26514 3.29979 0
M  V30 65804 H 6561.89 -5.34265 1.82266 0
M  V30 65805 N 6561.29 -1.01025 -1.20962 0
M  V30 65806 C 6562.53 -0.696973 -1.90447 0
M  V30 65807 C 6562.86 0.770843 -1.78246 0
M  V30 65808 O 6562.14 1.55935 -1.16252 0
M  V30 65809 C 6562.42 -1.12533 -3.42065 0
M  V30 65810 C 6562.28 -2.65298 -3.63231 0
M  V30 65811 C 6563.59 -0.691718 -4.3463 0
M  V30 65812 H 6560.71 -0.254672 -0.6916 0
M  V30 65813 H 6563.36 -1.25686 -1.42488 0
M  V30 65814 H 6561.51 -0.648953 -3.83042 0
M  V30 65815 H 6563.18 -3.20739 -3.31549 0
M  V30 65816 H 6561.42 -3.06568 -3.06918 0
M  V30 65817 H 6562.09 -2.90322 -4.69486 0
M  V30 65818 H 6564.57 -1.10115 -4.01265 0
M  V30 65819 H 6563.44 -1.01954 -5.39348 0
M  V30 65820 H 6563.7 0.406918 -4.40223 0
M  V30 65821 N 6562.76 1.36621 -0.785658 0
M  V30 65822 C 6563.99 2.03598 -0.36814 0
M  V30 65823 C 6564.41 1.59244 1.01424 0
M  V30 65824 O 6563.76 0.780113 1.64986 0
M  V30 65825 C 6563.82 3.59075 -0.417983 0
M  V30 65826 O 6563.54 4.01811 -1.74584 0
M  V30 65827 C 6565.04 4.43299 0.00938132 0
M  V30 65828 H 6562.26 0.6535 -0.152244 0
M  V30 65829 H 6564.8 1.74674 -1.06346 0
M  V30 65830 H 6562.96 3.86723 0.228883 0
M  V30 65831 H 6563.37 4.96389 -1.69407 0
M  V30 65832 H 6564.84 5.51947 -0.0766358 0
M  V30 65833 H 6565.32 4.26178 1.06154 0
M  V30 65834 H 6565.93 4.20905 -0.609828 0
M  V30 65835 N 6564.24 0.537356 1.48156 0
M  V30 65836 C 6565.21 -0.210703 2.28229 0
M  V30 65837 C 6566.21 -0.86103 1.35805 0
M  V30 65838 O 6567.4 -0.719945 1.58627 0
M  V30 65839 C 6564.53 -1.3057 3.14903 0
M  V30 65840 H 6565.72 0.492415 2.9583 0
M  V30 65841 H 6563.27 0.293559 1.53518 0
M  V30 65842 H 6564.01 -2.04185 2.51951 0
M  V30 65843 H 6563.79 -0.844424 3.82899 0
M  V30 65844 H 6565.28 -1.83167 3.75286 0
M  V30 65845 N 6565.72 -1.5522 0.272837 0
M  V30 65846 C 6567.14 -1.59392 -0.0813664 0
M  V30 65847 C 6567.34 -1.29006 -1.5479 0
M  V30 65848 O 6566.39 -1.04983 -2.29641 0
M  V30 65849 C 6567.71 -2.99287 0.291211 0
M  V30 65850 C 6569.25 -3.12097 0.23764 0
M  V30 65851 C 6569.73 -4.54253 0.584624 0
M  V30 65852 N 6571.22 -4.60087 0.536091 0
M  V30 65853 C 6571.95 -5.68106 0.777402 0
M  V30 65854 N 6571.45 -6.84279 1.08321 0
M  V30 65855 N 6573.24 -5.57644 0.706353 0
M  V30 65856 H 6565.39 -1.73238 1.22892 0
M  V30 65857 H 6567.66 -0.807699 0.496313 0
M  V30 65858 H 6567.36 -3.2635 1.31105 0
M  V30 65859 H 6567.24 -3.7539 -0.369078 0
M  V30 65860 H 6569.62 -2.84799 -0.772904 0
M  V30 65861 H 6569.71 -2.38211 0.932154 0
M  V30 65862 H 6569.35 -4.82277 1.59284 0
M  V30 65863 H 6569.28 -5.26435 -0.131655 0
M  V30 65864 H 6571.77 -3.7663 0.309517 0
M  V30 65865 H 6572.08 -7.62557 1.25407 0
M  V30 65866 H 6570.43 -6.85901 1.12096 0
M  V30 65867 H 6573.62 -4.65762 0.467303 0
M  V30 65868 H 6573.79 -6.4175 0.897799 0
M  V30 65869 N 6567.2 -8.31064e-05 -1.576 0
M  V30 65870 C 6568.43 0.695731 -1.94852 0
M  V30 65871 C 6568.84 1.67303 -0.874934 0
M  V30 65872 O 6568.2 1.81914 0.146119 0
M  V30 65873 C 6568.25 1.42752 -3.3212 0
M  V30 65874 O 6567.97 0.489417 -4.35358 0
M  V30 65875 C 6569.47 2.21784 -3.83832 0
M  V30 65876 H 6566.69 0.193768 -0.642413 0
M  V30 65877 H 6569.24 -0.0512275 -2.04436 0
M  V30 65878 H 6567.39 2.12611 -3.23844 0
M  V30 65879 H 6567.8 1.00574 -5.14767 0
M  V30 65880 H 6569.28 2.68484 -4.82307 0
M  V30 65881 H 6569.76 3.04462 -3.16543 0
M  V30 65882 H 6570.36 1.56941 -3.95284 0
M  V30 65883 N 6568.68 1.55223 0.272673 0
M  V30 65884 C 6569.59 1.91223 1.35908 0
M  V30 65885 C 6570.6 0.809517 1.54022 0
M  V30 65886 O 6571.78 1.10861 1.68142 0
M  V30 65887 C 6568.84 2.17707 2.69823 0
M  V30 65888 C 6567.9 3.41267 2.60452 0
M  V30 65889 C 6567.14 3.66478 3.87981 0
M  V30 65890 O 6567.36 2.94195 4.88677 0
M  V30 65891 O 6566.29 4.60013 3.88165 0
M  V30 65892 H 6570.12 2.83705 1.08375 0
M  V30 65893 H 6567.71 1.41774 0.471226 0
M  V30 65894 H 6569.59 2.36165 3.49004 0
M  V30 65895 H 6568.26 1.28408 2.97142 0
M  V30 65896 H 6567.17 3.28144 1.79646 0
M  V30 65897 H 6568.5 4.30787 2.38083 0
M  V30 65898 N 6570.15 -0.5372 1.48162 0
M  V30 65899 C 6571.39 -1.30397 1.57404 0
M  V30 65900 C 6571.76 -1.90503 0.239303 0
M  V30 65901 O 6572.96 -2.68004 0.206669 0
M  V30 65902 C 6571.23 -2.3696 2.67553 0
M  V30 65903 S 6572.79 -3.23459 2.96513 0
M  V30 65904 H 6569.61 -0.443655 0.5556 0
M  V30 65905 H 6572.21 -0.612815 1.85647 0
M  V30 65906 H 6570.91 -1.91272 3.63102 0
M  V30 65907 H 6570.44 -3.10792 2.41188 0
M  V30 65908 H 6572.46 -4.36885 2.35257 0
M  V30 65909 N 6571.63 -1.36629 -0.785514 0
M  V30 65910 C 6572.86 -1.34044 -1.57213 0
M  V30 65911 C 6573.27 0.0794065 -1.89033 0
M  V30 65912 O 6572.61 1.04781 -1.50886 0
M  V30 65913 C 6572.68 -2.10056 -2.91748 0
M  V30 65914 C 6572.34 -3.59119 -2.82635 0
M  V30 65915 C 6573.34 -4.53288 -2.5461 0
M  V30 65916 C 6571.02 -4.02058 -3.01089 0
M  V30 65917 C 6573.02 -5.88372 -2.45146 0
M  V30 65918 C 6570.7 -5.37232 -2.91248 0
M  V30 65919 C 6571.7 -6.30202 -2.63315 0
M  V30 65920 O 6571.39 -7.62893 -2.53474 0
M  V30 65921 H 6571.12 -0.461291 -0.494152 0
M  V30 65922 H 6573.67 -1.80376 -0.982537 0
M  V30 65923 H 6571.9 -1.58393 -3.52773 0
M  V30 65924 H 6573.59 -2.00279 -3.53048 0
M  V30 65925 H 6574.36 -4.21427 -2.40051 0
M  V30 65926 H 6570.24 -3.30064 -3.21837 0
M  V30 65927 H 6573.78 -6.60908 -2.23264 0
M  V30 65928 H 6569.68 -5.687 -3.0537 0
M  V30 65929 H 6570.45 -7.73059 -2.68926 0
M  V30 65930 N 6573.11 1.01012 -1.20972 0
M  V30 65931 C 6574.36 1.74122 -1.01805 0
M  V30 65932 C 6574.67 1.90363 0.449591 0
M  V30 65933 O 6575.88 2.6063 0.760543 0
M  V30 65934 C 6574.33 3.13205 -1.77287 0
M  V30 65935 C 6573.94 3.04955 -3.28187 0
M  V30 65936 C 6575.69 3.9048 -1.66509 0
M  V30 65937 C 6573.59 4.39086 -3.96179 0
M  V30 65938 H 6572.52 0.652804 -0.377311 0
M  V30 65939 H 6575.17 1.12901 -1.44657 0
M  V30 65940 H 6573.56 3.75007 -1.27224 0
M  V30 65941 H 6574.73 2.52422 -3.85512 0
M  V30 65942 H 6573.05 2.4117 -3.39449 0
M  V30 65943 H 6575.64 4.89727 -2.14643 0
M  V30 65944 H 6575.99 4.11621 -0.622417 0
M  V30 65945 H 6576.52 3.35321 -2.1402 0
M  V30 65946 H 6573.26 4.23147 -5.00626 0
M  V30 65947 H 6572.78 4.91599 -3.43642 0
M  V30 65948 H 6574.46 5.07905 -4.00801 0
M  V30 65949 N 6574.59 1.01665 1.20424 0
M  V30 65950 C 6575.82 0.725234 1.93773 0
M  V30 65951 C 6576.23 -0.714073 1.74775 0
M  V30 65952 O 6575.59 -1.48434 1.06177 0
M  V30 65953 C 6575.64 1.05148 3.4587 0
M  V30 65954 O 6575.36 2.43425 3.64247 0
M  V30 65955 C 6576.86 0.781121 4.36364 0
M  V30 65956 H 6574.08 0.266316 0.615887 0
M  V30 65957 H 6576.63 1.35784 1.52915 0
M  V30 65958 H 6574.78 0.464268 3.84608 0
M  V30 65959 H 6575.19 2.55193 4.58232 0
M  V30 65960 H 6576.67 1.05947 5.41737 0
M  V30 65961 H 6577.15 -0.284706 4.38276 0
M  V30 65962 H 6577.75 1.35048 4.03289 0
M  V30 65963 N 6576.07 -1.36202 0.792892 0
M  V30 65964 C 6577.31 -1.98755 0.366166 0
M  V30 65965 C 6577.64 -1.63237 -1.06671 0
M  V30 65966 O 6576.91 -0.90807 -1.73583 0
M  V30 65967 H 6575.49 -0.735172 0.132402 0
M  V30 65968 H 6578.15 -1.66341 1.0157 0
M  V30 65969 H 6577.24 -3.0868 0.460801 0
M  V30 65970 N 6577.55 -0.545206 -1.47869 0
M  V30 65971 C 6578.79 -0.0249023 -2.03385 0
M  V30 65972 C 6579.15 1.30549 -1.41332 0
M  V30 65973 O 6578.44 1.83377 -0.555297 0
M  V30 65974 C 6578.63 0.138482 -3.57132 0
M  V30 65975 C 6578.46 -1.17452 -4.34091 0
M  V30 65976 C 6577.23 -1.73856 -4.74449 0
M  V30 65977 C 6579.43 -2.08886 -4.69969 0
M  V30 65978 N 6577.41 -2.99287 -5.36004 0
M  V30 65979 C 6578.78 -3.18894 -5.31702 0
M  V30 65980 C 6580.84 -2.09027 -4.51898 0
M  V30 65981 C 6579.54 -4.29126 -5.77272 0
M  V30 65982 C 6581.57 -3.18263 -4.9846 0
M  V30 65983 C 6580.93 -4.2699 -5.60231 0
M  V30 65984 H 6577.03 -0.0509841 -0.780336 0
M  V30 65985 H 6579.61 -0.729848 -1.80503 0
M  V30 65986 H 6577.78 0.812532 -3.79806 0
M  V30 65987 H 6579.52 0.659765 -3.99286 0
M  V30 65988 H 6576.27 -1.27804 -4.5603 0
M  V30 65989 H 6576.69 -3.63187 -5.71335 0
M  V30 65990 H 6581.34 -1.26255 -4.03509 0
M  V30 65991 H 6579.05 -5.12666 -6.2466 0
M  V30 65992 H 6582.64 -3.19445 -4.86257 0
M  V30 65993 H 6581.52 -5.10123 -5.95604 0
M  V30 65994 N 6579.02 1.55073 -0.281065 0
M  V30 65995 C 6580.27 1.99332 0.33335 0
M  V30 65996 C 6580.59 1.17093 1.5593 0
M  V30 65997 O 6579.86 0.261907 1.94141 0
M  V30 65998 H 6578.44 0.73627 0.126159 0
M  V30 65999 H 6581.1 1.91003 -0.387779 0
M  V30 66000 H 6580.2 3.05897 0.61913 0
M  V30 66001 N 6580.5 0.00844102 1.57598 0
M  V30 66002 C 6581.41 -0.996375 2.1239 0
M  V30 66003 C 6582.43 -1.37122 1.07115 0
M  V30 66004 O 6583.6 -1.45683 1.39063 0
M  V30 66005 C 6580.67 -2.26685 2.62326 0
M  V30 66006 C 6579.73 -1.95435 3.82235 0
M  V30 66007 C 6578.96 -3.16426 4.29779 0
M  V30 66008 O 6579.19 -4.28396 3.76607 0
M  V30 66009 O 6578.12 -2.9993 5.21848 0
M  V30 66010 H 6581.95 -0.560568 2.98482 0
M  V30 66011 H 6579.53 -0.210909 1.47904 0
M  V30 66012 H 6581.41 -3.01307 2.94605 0
M  V30 66013 H 6580.09 -2.69487 1.79327 0
M  V30 66014 H 6578.99 -1.18263 3.54915 0
M  V30 66015 H 6580.33 -1.57464 4.66332 0
M  V30 66016 N 6581.98 -1.55366 -0.264437 0
M  V30 66017 C 6583.21 -1.8041 -1.0129 0
M  V30 66018 C 6583.62 -0.581717 -1.79615 0
M  V30 66019 O 6582.98 0.449375 -1.76881 0
M  V30 66020 C 6583.03 -3.03449 -1.96471 0
M  V30 66021 O 6582.75 -4.20967 -1.21319 0
M  V30 66022 C 6584.25 -3.41162 -2.83061 0
M  V30 66023 H 6581.47 -0.600778 -0.298843 0
M  V30 66024 H 6584.02 -2.02395 -0.292629 0
M  V30 66025 H 6582.17 -2.83565 -2.6395 0
M  V30 66026 H 6582.59 -4.90584 -1.85547 0
M  V30 66027 H 6584.06 -4.30402 -3.45627 0
M  V30 66028 H 6584.54 -2.60951 -3.53272 0
M  V30 66029 H 6585.14 -3.63335 -2.2106 0
M  V30 66030 N 6583.46 0.529335 -1.48445 0
M  V30 66031 C 6584.39 1.64981 -1.59104 0
M  V30 66032 C 6585.4 1.55707 -0.475295 0
M  V30 66033 O 6586.59 1.62156 -0.746166 0
M  V30 66034 C 6583.69 3.03632 -1.50534 0
M  V30 66035 C 6582.86 3.38381 -2.77159 0
M  V30 66036 C 6581.92 4.56315 -2.62036 0
M  V30 66037 O 6580.95 4.59505 -3.35923 0
M  V30 66038 N 6582.15 5.54527 -1.71696 0
M  V30 66039 H 6584.92 1.56274 -2.55731 0
M  V30 66040 H 6582.48 0.716621 -1.45176 0
M  V30 66041 H 6584.47 3.80404 -1.38111 0
M  V30 66042 H 6583.04 3.06414 -0.618788 0
M  V30 66043 H 6582.26 2.5078 -3.04143 0
M  V30 66044 H 6583.55 3.58382 -3.61164 0
M  V30 66045 H 6582.95 5.54729 -1.1087 0
M  V30 66046 H 6581.5 6.30514 -1.65211 0
M  V30 66047 N 6584.94 1.37043 0.778257 0
M  V30 66048 C 6586.18 1.31632 1.53354 0
M  V30 66049 C 6586.5 -0.100729 1.9474 0
M  V30 66050 O 6585.77 -1.04338 1.65802 0
M  V30 66051 H 6584.35 0.484264 0.568768 0
M  V30 66052 H 6587.02 1.71462 0.926651 0
M  V30 66053 H 6586.11 1.95109 2.43596 0
M  V30 66054 N 6586.41 -1.00369 1.21506 0
M  V30 66055 C 6587.64 -1.77738 1.05909 0
M  V30 66056 C 6588.06 -1.84706 -0.391028 0
M  V30 66057 O 6587.41 -1.3094 -1.27126 0
M  V30 66058 C 6587.46 -3.21582 1.65128 0
M  V30 66059 O 6587.19 -3.15011 3.04466 0
M  V30 66060 C 6588.69 -4.15446 1.54659 0
M  V30 66061 H 6585.91 -0.558538 0.371855 0
M  V30 66062 H 6588.45 -1.26256 1.60872 0
M  V30 66063 H 6586.61 -3.70169 1.14254 0
M  V30 66064 H 6587.02 -4.05393 3.32802 0
M  V30 66065 H 6588.49 -5.14169 2.00835 0
M  V30 66066 H 6588.97 -4.3633 0.501252 0
M  V30 66067 H 6589.58 -3.7275 2.04787 0
M  V30 66068 N 6587.89 -1.02302 -1.19883 0
M  V30 66069 C 6589.14 -0.716072 -1.89417 0
M  V30 66070 C 6589.47 0.754849 -1.79255 0
M  V30 66071 O 6588.72 1.56474 -1.17534 0
M  V30 66072 C 6589.02 -1.10536 -3.39877 0
M  V30 66073 C 6588.69 -2.57357 -3.70241 0
M  V30 66074 C 6587.35 -2.97472 -3.78238 0
M  V30 66075 C 6589.7 -3.52375 -3.84033 0
M  V30 66076 C 6587.03 -4.3153 -3.97491 0
M  V30 66077 C 6589.38 -4.86129 -4.04798 0
M  V30 66078 C 6588.04 -5.25941 -4.11026 0
M  V30 66079 H 6587.31 -0.262029 -0.693125 0
M  V30 66080 H 6589.96 -1.28479 -1.42005 0
M  V30 66081 H 6588.27 -0.455158 -3.89147 0
M  V30 66082 H 6589.96 -0.845467 -3.91986 0
M  V30 66083 H 6586.55 -2.25277 -3.64621 0
M  V30 66084 H 6590.74 -3.22538 -3.77204 0
M  V30 66085 H 6585.99 -4.6192 -4.0055 0
M  V30 66086 H 6590.17 -5.59674 -4.14412 0
M  V30 66087 H 6587.79 -6.2983 -4.25697 0
M  V30 66088 N 6589.37 1.3578 -0.800104 0
M  V30 66089 C 6590.62 1.98558 -0.376702 0
M  V30 66090 C 6590.94 1.638 1.05804 0
M  V30 66091 O 6590.21 0.917263 1.73099 0
M  V30 66092 H 6588.79 0.73446 -0.136299 0
M  V30 66093 H 6591.45 1.658 -1.02451 0
M  V30 66094 H 6590.55 3.08431 -0.477164 0
M  V30 66095 N 6590.85 0.55304 1.47578 0
M  V30 66096 C 6592.08 0.0321647 2.06875 0
M  V30 66097 C 6592.49 -1.25969 1.40632 0
M  V30 66098 O 6591.85 -1.75476 0.501442 0
M  V30 66099 C 6591.9 -0.17148 3.61093 0
M  V30 66100 O 6591.62 1.06921 4.24852 0
M  V30 66101 C 6593.12 -0.730113 4.37246 0
M  V30 66102 H 6590.34 0.0439503 0.669559 0
M  V30 66103 H 6592.88 0.765263 1.89642 0
M  V30 66104 H 6591.04 -0.854694 3.77854 0
M  V30 66105 H 6591.45 0.864331 5.17329 0
M  V30 66106 H 6592.93 -0.821915 5.45847 0
M  V30 66107 H 6593.4 -1.74043 4.03244 0
M  V30 66108 H 6594.01 -0.08273 4.2522 0
M  V30 66109 N 6592.33 -1.54922 0.289285 0
M  V30 66110 C 6593.57 -1.99506 -0.322774 0
M  V30 66111 C 6593.9 -1.17918 -1.55307 0
M  V30 66112 O 6593.17 -0.2722 -1.94 0
M  V30 66113 H 6591.75 -0.736928 -0.122252 0
M  V30 66114 H 6594.41 -1.90795 0.397903 0
M  V30 66115 H 6593.5 -3.06221 -0.602899 0
M  V30 66116 N 6593.8 -0.0167987 -1.57591 0
M  V30 66117 C 6594.73 0.967746 -2.12502 0
M  V30 66118 C 6595.72 1.34746 -1.03814 0
M  V30 66119 O 6596.9 1.42826 -1.31584 0
M  V30 66120 C 6594.03 2.25417 -2.64206 0
M  V30 66121 C 6592.98 2.01557 -3.7757 0
M  V30 66122 C 6592.31 3.36357 -4.15654 0
M  V30 66123 C 6593.61 1.36463 -5.04158 0
M  V30 66124 H 6595.3 0.510488 -2.95016 0
M  V30 66125 H 6592.85 0.244106 -1.41916 0
M  V30 66126 H 6594.8 2.94662 -3.01251 0
M  V30 66127 H 6593.53 2.73286 -1.78836 0
M  V30 66128 H 6592.19 1.34733 -3.40944 0
M  V30 66129 H 6591.83 3.81962 -3.27283 0
M  V30 66130 H 6591.53 3.21203 -4.92039 0
M  V30 66131 H 6593.06 4.06891 -4.55272 0
M  V30 66132 H 6594.47 1.95689 -5.38868 0
M  V30 66133 H 6592.87 1.31745 -5.8546 0
M  V30 66134 H 6593.94 0.335964 -4.83735 0
M  V30 66135 N 6595.28 1.55504 0.256194 0
M  V30 66136 C 6596.21 1.92546 1.32091 0
M  V30 66137 C 6597.19 0.789274 1.5068 0
M  V30 66138 O 6598.38 1.0488 1.63444 0
M  V30 66139 C 6595.51 2.21206 2.67741 0
M  V30 66140 C 6594.46 3.36989 2.6386 0
M  V30 66141 C 6593.79 3.51169 4.03218 0
M  V30 66142 C 6595.09 4.72933 2.21657 0
M  V30 66143 H 6596.78 2.81729 1.01336 0
M  V30 66144 H 6594.33 1.3555 0.486033 0
M  V30 66145 H 6596.28 2.45709 3.42352 0
M  V30 66146 H 6595.01 1.2884 3.00113 0
M  V30 66147 H 6593.66 3.12481 1.91706 0
M  V30 66148 H 6593.31 2.56239 4.3284 0
M  V30 66149 H 6593.01 4.29024 4.01512 0
M  V30 66150 H 6594.54 3.77982 4.79543 0
M  V30 66151 H 6595.95 4.96869 2.85997 0
M  V30 66152 H 6594.35 5.53825 2.31081 0
M  V30 66153 H 6595.42 4.70621 1.16808 0
M  V30 66154 N 6596.76 -0.521455 1.48723 0
M  V30 66155 C 6597.71 -1.62518 1.63879 0
M  V30 66156 C 6598.68 -1.58994 0.480643 0
M  V30 66157 O 6599.86 -1.7729 0.705179 0
M  V30 66158 C 6597 -3.0075 1.69243 0
M  V30 66159 C 6596.12 -3.14445 2.96223 0
M  V30 66160 C 6595.25 -4.43287 2.92694 0
M  V30 66161 C 6594.29 -4.50541 4.14342 0
M  V30 66162 N 6593.43 -5.70784 4.0884 0
M  V30 66163 H 6598.27 -1.48904 2.58131 0
M  V30 66164 H 6595.8 -0.724811 1.28004 0
M  V30 66165 H 6597.76 -3.80844 1.70334 0
M  V30 66166 H 6596.39 -3.13116 0.784751 0
M  V30 66167 H 6595.44 -2.27548 3.04838 0
M  V30 66168 H 6596.76 -3.15665 3.86208 0
M  V30 66169 H 6595.91 -5.31681 2.92234 0
M  V30 66170 H 6594.65 -4.44601 2.00452 0
M  V30 66171 H 6593.65 -3.60553 4.15068 0
M  V30 66172 H 6594.88 -4.50959 5.07753 0
M  V30 66173 H 6592.82 -5.72978 3.19424 0
M  V30 66174 H 6592.74 -5.73534 4.92539 0
M  V30 66175 H 6594.01 -6.6144 4.12452 0
M  V30 66176 N 6598.24 -1.37454 -0.770978 0
M  V30 66177 C 6599.15 -1.35474 -1.9153 0
M  V30 66178 C 6600.16 -0.254214 -1.72133 0
M  V30 66179 O 6601.34 -0.489729 -1.95355 0
M  V30 66180 C 6598.41 -1.16151 -3.26665 0
M  V30 66181 C 6597.47 -2.3585 -3.58711 0
M  V30 66182 C 6596.7 -2.17439 -4.87397 0
M  V30 66183 O 6596.92 -1.15905 -5.585 0
M  V30 66184 O 6595.86 -3.05642 -5.18523 0
M  V30 66185 H 6599.68 -2.31857 -1.96153 0
M  V30 66186 H 6597.27 -1.18192 -0.913837 0
M  V30 66187 H 6599.15 -1.07366 -4.07493 0
M  V30 66188 H 6597.82 -0.228422 -3.22893 0
M  V30 66189 H 6596.73 -2.50207 -2.78114 0
M  V30 66190 H 6598.06 -3.27728 -3.67226 0
M  V30 66191 N 6599.72 0.997234 -1.22037 0
M  V30 66192 C 6600.68 2.06811 -0.988018 0
M  V30 66193 C 6601.68 1.6074 0.0439236 0
M  V30 66194 O 6602.87 1.73115 -0.194144 0
M  V30 66195 C 6600 3.37338 -0.491498 0
M  V30 66196 H 6601.19 2.28857 -1.93815 0
M  V30 66197 H 6598.75 1.16816 -1.03845 0
M  V30 66198 H 6599.48 3.20975 0.463194 0
M  V30 66199 H 6599.27 3.72111 -1.23595 0
M  V30 66200 H 6600.76 4.16139 -0.349044 0
M  V30 66201 N 6601.19 1.02936 1.19339 0
M  V30 66202 C 6602.13 0.568687 2.22033 0
M  V30 66203 C 6603.14 -0.355695 1.58867 0
M  V30 66204 O 6604.33 -0.15201 1.77852 0
M  V30 66205 C 6601.43 -0.190574 3.38364 0
M  V30 66206 C 6600.6 0.738871 4.31114 0
M  V30 66207 C 6599.66 0.0249272 5.26194 0
M  V30 66208 O 6598.69 0.651652 5.65457 0
M  V30 66209 N 6599.89 -1.24564 5.66978 0
M  V30 66210 H 6602.65 1.4519 2.62183 0
M  V30 66211 H 6600.21 0.908452 1.3401 0
M  V30 66212 H 6602.21 -0.677751 3.98984 0
M  V30 66213 H 6600.78 -0.975209 2.96999 0
M  V30 66214 H 6600 1.40613 3.68269 0
M  V30 66215 H 6601.28 1.37055 4.89993 0
M  V30 66216 H 6600.68 -1.77554 5.37114 0
M  V30 66217 H 6599.24 -1.67731 6.29849 0
M  V30 66218 N 6602.67 -1.35353 0.807294 0
M  V30 66219 C 6603.6 -2.32338 0.232631 0
M  V30 66220 C 6604.58 -1.57507 -0.642303 0
M  V30 66221 O 6605.77 -1.85572 -0.572428 0
M  V30 66222 C 6602.9 -3.41738 -0.619058 0
M  V30 66223 C 6601.85 -4.2771 0.157441 0
M  V30 66224 C 6601.18 -5.28437 -0.815994 0
M  V30 66225 C 6602.48 -5.04368 1.35683 0
M  V30 66226 H 6604.17 -2.80649 1.04291 0
M  V30 66227 H 6601.72 -1.34931 0.502951 0
M  V30 66228 H 6603.67 -4.08589 -1.03115 0
M  V30 66229 H 6602.4 -2.92038 -1.46223 0
M  V30 66230 H 6601.05 -3.6244 0.550717 0
M  V30 66231 H 6600.7 -4.75004 -1.65469 0
M  V30 66232 H 6600.4 -5.8683 -0.300758 0
M  V30 66233 H 6601.93 -5.9816 -1.22628 0
M  V30 66234 H 6603.34 -5.64161 1.01957 0
M  V30 66235 H 6601.74 -5.7226 1.8066 0
M  V30 66236 H 6602.81 -4.3497 2.14311 0
M  V30 66237 N 6604.15 -0.560859 -1.47283 0
M  V30 66238 C 6605.08 0.172982 -2.32858 0
M  V30 66239 C 6606.06 0.905205 -1.44014 0
M  V30 66240 O 6607.25 0.884955 -1.72865 0
M  V30 66241 C 6604.38 1.20116 -3.25867 0
M  V30 66242 C 6603.33 0.585164 -4.23981 0
M  V30 66243 C 6602.66 1.71823 -5.06341 0
M  V30 66244 C 6603.96 -0.463453 -5.2024 0
M  V30 66245 H 6605.65 -0.541463 -2.94463 0
M  V30 66246 H 6603.2 -0.261839 -1.41599 0
M  V30 66247 H 6605.15 1.72273 -3.84578 0
M  V30 66248 H 6603.87 1.94559 -2.62325 0
M  V30 66249 H 6602.53 0.0848607 -3.66502 0
M  V30 66250 H 6602.18 2.4518 -4.39199 0
M  V30 66251 H 6601.88 1.31183 -5.72769 0
M  V30 66252 H 6603.4 2.24299 -5.6791 0
M  V30 66253 H 6604.82 -0.0278043 -5.73293 0
M  V30 66254 H 6603.22 -0.788941 -5.94891 0
M  V30 66255 H 6604.29 -1.35798 -4.65496 0
M  V30 66256 N 6605.63 1.54767 -0.297496 0
M  V30 66257 C 6606.87 2.00366 0.313271 0
M  V30 66258 C 6607.21 1.18561 1.53808 0
M  V30 66259 O 6606.48 0.261205 1.92738 0
M  V30 66260 C 6606.77 3.53749 0.673339 0
M  V30 66261 C 6606.62 4.46296 -0.560368 0
M  V30 66262 C 6607.94 4.13705 1.50121 0
M  V30 66263 H 6605.06 0.72838 0.11239 0
M  V30 66264 H 6607.7 1.85548 -0.408898 0
M  V30 66265 H 6605.85 3.66506 1.28861 0
M  V30 66266 H 6607.52 4.45449 -1.19886 0
M  V30 66267 H 6605.76 4.17037 -1.19427 0
M  V30 66268 H 6606.43 5.51367 -0.264341 0
M  V30 66269 H 6608.91 4.04362 0.981374 0
M  V30 66270 H 6607.79 5.21192 1.72193 0
M  V30 66271 H 6608.05 3.65356 2.48932 0
M  V30 66272 N 6607.11 0.0251559 1.5758 0
M  V30 66273 C 6608.36 -0.653666 1.90814 0
M  V30 66274 C 6608.67 -1.73518 0.902822 0
M  V30 66275 O 6609.88 -2.47037 1.12627 0
M  V30 66276 C 6608.33 -1.21391 3.3881 0
M  V30 66277 C 6607.94 -0.16589 4.47693 0
M  V30 66278 C 6609.68 -1.86947 3.81118 0
M  V30 66279 C 6607.59 -0.737546 5.86783 0
M  V30 66280 H 6606.52 -0.247919 0.712076 0
M  V30 66281 H 6609.17 0.0898104 1.8328 0
M  V30 66282 H 6607.55 -2.00887 3.41263 0
M  V30 66283 H 6608.73 0.60632 4.56794 0
M  V30 66284 H 6607.04 0.390685 4.14563 0
M  V30 66285 H 6609.64 -2.30666 4.82387 0
M  V30 66286 H 6609.98 -2.71054 3.15967 0
M  V30 66287 H 6610.52 -1.14147 3.81071 0
M  V30 66288 H 6607.25 0.0653033 6.55467 0
M  V30 66289 H 6606.77 -1.47833 5.81296 0
M  V30 66290 H 6608.45 -1.22851 6.3523 0
M  V30 66291 N 6608.59 -1.55637 -0.247944 0
M  V30 66292 C 6609.5 -1.93361 -1.32848 0
M  V30 66293 C 6610.51 -0.833918 -1.52715 0
M  V30 66294 O 6611.69 -1.13522 -1.66357 0
M  V30 66295 C 6608.75 -2.21972 -2.66325 0
M  V30 66296 C 6607.81 -3.45367 -2.5499 0
M  V30 66297 C 6607.05 -3.72605 -3.82101 0
M  V30 66298 O 6607.27 -3.01932 -4.83935 0
M  V30 66299 O 6606.2 -4.6613 -3.80797 0
M  V30 66300 H 6610.03 -2.85393 -1.03847 0
M  V30 66301 H 6607.61 -1.42506 -0.448611 0
M  V30 66302 H 6609.5 -2.41688 -3.45203 0
M  V30 66303 H 6608.17 -1.33119 -2.95061 0
M  V30 66304 H 6607.08 -3.3096 -1.74402 0
M  V30 66305 H 6608.41 -4.3452 -2.31199 0
M  V30 66306 N 6610.06 0.513561 -1.48998 0
M  V30 66307 C 6611.01 1.63736 -1.65207 0
M  V30 66308 C 6612.01 1.6128 -0.518175 0
M  V30 66309 O 6613.21 1.6594 -0.697423 0
M  V30 66310 H 6609.59 0.542546 -0.520718 0
M  V30 66311 H 6611.56 1.47213 -2.59559 0
M  V30 66312 C 6610.31 3.01935 -1.72425 0
M  V30 66313 H 6609.63 3.04526 -2.59045 0
M  V30 66314 H 6611.07 3.80138 -1.87805 0
M  V30 66315 C 6609.53 3.33657 -0.466356 0
M  V30 66316 O 6610.06 3.99566 0.413533 0
M  V30 66317 N 6608.26 2.88685 -0.333083 0
M  V30 66318 H 6607.81 2.35225 -1.05009 0
M  V30 66319 H 6607.77 3.10277 0.507502 0
M  V30 66320 N 6611.54 1.37861 0.763678 0
M  V30 66321 C 6612.45 1.36488 1.90809 0
M  V30 66322 C 6613.47 0.263339 1.71996 0
M  V30 66323 O 6614.64 0.500082 1.95093 0
M  V30 66324 C 6611.71 1.17882 3.26044 0
M  V30 66325 C 6610.77 2.37749 3.57455 0
M  V30 66326 C 6610 2.20021 4.86237 0
M  V30 66327 O 6610.23 1.18865 5.57877 0
M  V30 66328 O 6609.16 3.08388 5.16895 0
M  V30 66329 H 6612.99 2.32894 1.94921 0
M  V30 66330 H 6610.57 1.18675 0.907556 0
M  V30 66331 H 6612.45 1.09526 4.06918 0
M  V30 66332 H 6611.13 0.245542 3.22767 0
M  V30 66333 H 6610.03 2.51678 2.76783 0
M  V30 66334 H 6611.37 3.29671 3.65483 0
M  V30 66335 N 6613.02 -0.990748 1.22564 0
M  V30 66336 C 6614.27 -1.73316 1.05306 0
M  V30 66337 C 6614.6 -1.89811 -0.410555 0
M  V30 66338 O 6613.87 -1.44284 -1.30431 0
M  V30 66339 C 6614.16 -3.13749 1.7673 0
M  V30 66340 C 6614.01 -3.0489 3.307 0
M  V30 66341 C 6615.33 -4.12966 1.52142 0
M  V30 66342 H 6612.45 -0.629086 0.383953 0
M  V30 66343 H 6615.09 -1.1541 1.50932 0
M  V30 66344 H 6613.24 -3.63186 1.37943 0
M  V30 66345 H 6614.91 -2.63057 3.78944 0
M  V30 66346 H 6613.15 -2.41642 3.60266 0
M  V30 66347 H 6613.83 -4.04274 3.75854 0
M  V30 66348 H 6616.3 -3.72295 1.85839 0
M  V30 66349 H 6615.18 -5.09339 2.04609 0
M  V30 66350 H 6615.44 -4.39758 0.454489 0
M  V30 66351 N 6614.5 -1.03568 -1.18792 0
M  V30 66352 C 6615.74 -0.744933 -1.90342 0
M  V30 66353 C 6616.1 0.713878 -1.78235 0
M  V30 66354 O 6617.3 1.11801 -2.44446 0
M  V30 66355 C 6615.57 -1.19202 -3.36936 0
M  V30 66356 S 6617.13 -1.02615 -4.26633 0
M  V30 66357 H 6613.95 -0.270998 -0.657329 0
M  V30 66358 H 6616.55 -1.32693 -1.43572 0
M  V30 66359 H 6615.26 -2.24923 -3.43275 0
M  V30 66360 H 6614.79 -0.603602 -3.88742 0
M  V30 66361 H 6616.8 0.0593416 -4.96165 0
M  V30 66362 N 6615.98 1.34923 -0.814461 0
M  V30 66363 C 6616.92 2.31571 -0.218546 0
M  V30 66364 C 6617.92 1.57006 0.636045 0
M  V30 66365 O 6619.12 1.72072 0.528329 0
M  V30 66366 H 6615.5 0.750206 -0.0519195 0
M  V30 66367 H 6617.47 2.79366 -1.04866 0
M  V30 66368 C 6616.22 3.42274 0.611889 0
M  V30 66369 H 6615.54 3.99783 -0.0363686 0
M  V30 66370 H 6616.98 4.12157 0.9951 0
M  V30 66371 C 6615.44 2.85993 1.78072 0
M  V30 66372 O 6615.97 2.80183 2.87855 0
M  V30 66373 N 6614.18 2.42932 1.59475 0
M  V30 66374 H 6613.72 2.47857 0.701744 0
M  V30 66375 H 6613.68 2.05625 2.37835 0
M  V30 66376 N 6617.45 0.568661 1.46983 0
M  V30 66377 C 6618.4 -0.193219 2.2718 0
M  V30 66378 C 6619.39 -0.874823 1.35039 0
M  V30 66379 O 6620.58 -0.771238 1.59314 0
M  V30 66380 C 6617.71 -1.21529 3.21069 0
M  V30 66381 C 6616.79 -0.536516 4.20693 0
M  V30 66382 N 6617.19 0.399939 5.04216 0
M  V30 66383 C 6615.48 -0.789022 4.38965 0
M  V30 66384 C 6616.18 0.795321 5.76237 0
M  V30 66385 N 6615.16 0.147586 5.434 0
M  V30 66386 H 6618.96 0.526611 2.89144 0
M  V30 66387 H 6616.48 0.389425 1.57662 0
M  V30 66388 H 6618.47 -1.77516 3.77218 0
M  V30 66389 H 6617.13 -1.93609 2.60664 0
M  V30 66390 H 6618.14 0.774724 5.12073 0
M  V30 66391 H 6614.82 -1.49746 3.89721 0
M  V30 66392 H 6616.21 1.56547 6.53408 0
M  V30 66393 N 6618.93 -1.54607 0.3057 0
M  V30 66394 C 6620.16 -2.04348 -0.304225 0
M  V30 66395 C 6620.57 -1.18231 -1.47709 0
M  V30 66396 O 6619.91 -0.201673 -1.8259 0
M  V30 66397 C 6619.97 -3.5005 -0.818846 0
M  V30 66398 C 6619.64 -4.56424 0.229361 0
M  V30 66399 C 6620.64 -5.08992 1.05941 0
M  V30 66400 C 6618.32 -5.00918 0.372412 0
M  V30 66401 C 6620.31 -6.04598 2.01841 0
M  V30 66402 C 6618 -5.96343 1.33485 0
M  V30 66403 C 6619 -6.48067 2.15633 0
M  V30 66404 O 6618.69 -7.41622 3.10245 0
M  V30 66405 H 6618.42 -0.672432 -0.0693641 0
M  V30 66406 H 6620.97 -2.00529 0.444654 0
M  V30 66407 H 6619.2 -3.51208 -1.61833 0
M  V30 66408 H 6620.89 -3.82962 -1.34517 0
M  V30 66409 H 6621.66 -4.75408 0.959788 0
M  V30 66410 H 6617.54 -4.60283 -0.257061 0
M  V30 66411 H 6621.08 -6.44895 2.66 0
M  V30 66412 H 6616.98 -6.29343 1.43518 0
M  V30 66413 H 6617.75 -7.59439 3.05277 0
M  V30 66414 N 6620.41 -0.0335124 -1.57564 0
M  V30 66415 C 6621.36 0.94687 -2.10483 0
M  V30 66416 C 6622.33 1.32022 -1.00794 0
M  V30 66417 O 6623.51 1.41277 -1.2824 0
M  V30 66418 C 6620.65 2.22249 -2.64006 0
M  V30 66419 C 6619.76 1.9052 -3.87719 0
M  V30 66420 C 6618.9 3.1241 -4.2962 0
M  V30 66421 C 6617.94 2.76521 -5.46079 0
M  V30 66422 N 6617.08 3.91049 -5.83117 0
M  V30 66423 H 6621.92 0.488691 -2.93966 0
M  V30 66424 H 6619.45 0.229613 -1.45297 0
M  V30 66425 H 6621.41 2.96868 -2.9313 0
M  V30 66426 H 6620.04 2.65676 -1.83347 0
M  V30 66427 H 6619.09 1.06125 -3.65297 0
M  V30 66428 H 6620.4 1.60091 -4.72411 0
M  V30 66429 H 6619.56 3.95345 -4.60203 0
M  V30 66430 H 6618.3 3.46005 -3.43704 0
M  V30 66431 H 6617.3 1.91999 -5.15186 0
M  V30 66432 H 6618.53 2.44138 -6.33698 0
M  V30 66433 H 6616.47 4.24477 -5.00155 0
M  V30 66434 H 6616.39 3.64258 -6.62459 0
M  V30 66435 H 6617.66 4.74675 -6.18307 0
M  V30 66436 N 6621.89 1.55767 0.239687 0
M  V30 66437 C 6623.12 1.81735 0.982648 0
M  V30 66438 C 6623.53 0.607929 1.79167 0
M  V30 66439 O 6622.87 -0.432879 1.78527 0
M  V30 66440 C 6622.93 3.01165 1.96316 0
M  V30 66441 C 6622.6 4.36901 1.34039 0
M  V30 66442 C 6623.59 5.14617 0.739268 0
M  V30 66443 C 6621.28 4.83606 1.35759 0
M  V30 66444 C 6623.27 6.3719 0.163653 0
M  V30 66445 C 6620.96 6.06126 0.778121 0
M  V30 66446 C 6621.96 6.82757 0.182188 0
M  V30 66447 O 6621.64 8.02962 -0.38831 0
M  V30 66448 H 6621.38 0.608503 0.294449 0
M  V30 66449 H 6623.93 2.03675 0.265612 0
M  V30 66450 H 6622.16 2.74998 2.7187 0
M  V30 66451 H 6623.85 3.14163 2.57015 0
M  V30 66452 H 6624.62 4.79649 0.718434 0
M  V30 66453 H 6620.49 4.23946 1.81082 0
M  V30 66454 H 6624.04 6.96945 -0.302121 0
M  V30 66455 H 6619.94 6.40569 0.796307 0
M  V30 66456 H 6620.7 8.18018 -0.280871 0
M  V30 66457 N 6623.37 -0.505652 1.49268 0
M  V30 66458 C 6624.62 -1.25667 1.57768 0
M  V30 66459 C 6624.93 -1.93763 0.267473 0
M  V30 66460 O 6626.13 -2.70516 0.23097 0
M  V30 66461 C 6624.59 -2.28151 2.78344 0
M  V30 66462 C 6624.2 -1.66015 4.16105 0
M  V30 66463 C 6625.94 -3.0411 2.96171 0
M  V30 66464 C 6623.85 -2.66582 5.27909 0
M  V30 66465 H 6622.78 -0.472714 0.587416 0
M  V30 66466 H 6625.43 -0.531087 1.75647 0
M  V30 66467 H 6623.81 -3.03851 2.5395 0
M  V30 66468 H 6624.99 -0.963384 4.50617 0
M  V30 66469 H 6623.3 -1.02463 4.03597 0
M  V30 66470 H 6625.9 -3.79307 3.76869 0
M  V30 66471 H 6626.24 -3.61444 2.06553 0
M  V30 66472 H 6626.77 -2.35524 3.20582 0
M  V30 66473 H 6623.51 -2.14035 6.19572 0
M  V30 66474 H 6623.03 -3.34513 4.97856 0
M  V30 66475 H 6624.71 -3.291 5.57048 0
M  V30 66476 N 6624.84 -1.38264 -0.756356 0
M  V30 66477 C 6626.08 -1.35733 -1.52826 0
M  V30 66478 C 6626.45 0.0533094 -1.91926 0
M  V30 66479 O 6627.65 0.203472 -2.68029 0
M  V30 66480 C 6625.92 -2.28388 -2.74907 0
M  V30 66481 S 6627.48 -2.43851 -3.64804 0
M  V30 66482 H 6624.3 -0.481636 -0.523018 0
M  V30 66483 H 6626.9 -1.74163 -0.88812 0
M  V30 66484 H 6625.6 -3.29776 -2.44287 0
M  V30 66485 H 6625.13 -1.91098 -3.43868 0
M  V30 66486 H 6627.15 -1.66052 -4.67591 0
M  V30 66487 N 6626.32 0.984234 -1.23088 0
M  V30 66488 C 6627.29 2.05752 -1.0099 0
M  V30 66489 C 6628.29 1.60778 0.0268725 0
M  V30 66490 O 6629.48 1.72899 -0.212494 0
M  V30 66491 C 6626.61 3.36798 -0.52725 0
M  V30 66492 H 6627.8 2.26789 -1.96232 0
M  V30 66493 H 6625.35 1.15708 -1.05078 0
M  V30 66494 H 6626.09 3.21448 0.429125 0
M  V30 66495 H 6625.87 3.70779 -1.27535 0
M  V30 66496 H 6627.36 4.15745 -0.393161 0
M  V30 66497 N 6627.8 1.04196 1.18241 0
M  V30 66498 C 6628.71 0.644595 2.25571 0
M  V30 66499 C 6629.73 -0.329736 1.70847 0
M  V30 66500 O 6630.9 -0.184337 2.00555 0
M  V30 66501 C 6627.97 0.0150598 3.46697 0
M  V30 66502 C 6627.03 1.03856 4.16548 0
M  V30 66503 C 6626.26 0.438972 5.31892 0
M  V30 66504 O 6626.48 -0.754454 5.65388 0
M  V30 66505 O 6625.42 1.16831 5.90452 0
M  V30 66506 H 6629.24 1.53882 2.61828 0
M  V30 66507 H 6626.83 0.81292 1.25347 0
M  V30 66508 H 6628.71 -0.335317 4.20064 0
M  V30 66509 H 6627.39 -0.852973 3.1226 0
M  V30 66510 H 6626.29 1.44075 3.45244 0
M  V30 66511 H 6627.63 1.8774 4.54988 0
M  V30 66512 N 6629.28 -1.34489 0.821604 0
M  V30 66513 C 6630.23 -2.26985 0.214913 0
M  V30 66514 C 6631.21 -1.48473 -0.620047 0
M  V30 66515 O 6632.4 -1.70512 -0.474843 0
M  V30 66516 C 6629.53 -3.37593 -0.623388 0
M  V30 66517 C 6628.62 -4.23518 0.222127 0
M  V30 66518 N 6629.01 -4.89007 1.29249 0
M  V30 66519 C 6627.31 -4.46 0.00624441 0
M  V30 66520 C 6628.01 -5.52825 1.80994 0
M  V30 66521 N 6626.99 -5.32062 1.11404 0
M  V30 66522 H 6630.79 -2.75122 1.03368 0
M  V30 66523 H 6628.3 -1.48193 0.664278 0
M  V30 66524 H 6630.3 -4.02824 -1.07419 0
M  V30 66525 H 6628.96 -2.91006 -1.44034 0
M  V30 66526 H 6629.97 -4.90056 1.67528 0
M  V30 66527 H 6626.65 -4.10175 -0.778644 0
M  V30 66528 H 6628.04 -6.15029 2.70534 0
M  V30 66529 N 6630.76 -0.576448 -1.46679 0
M  V30 66530 C 6631.69 0.148274 -2.33029 0
M  V30 66531 C 6632.67 0.889879 -1.44966 0
M  V30 66532 O 6633.85 0.866571 -1.73794 0
M  V30 66533 C 6630.98 1.16653 -3.27123 0
M  V30 66534 C 6629.94 0.540162 -4.24578 0
M  V30 66535 C 6629.26 1.66443 -5.08135 0
M  V30 66536 C 6630.56 -0.518605 -5.19719 0
M  V30 66537 H 6632.26 -0.572664 -2.93872 0
M  V30 66538 H 6629.8 -0.276843 -1.41314 0
M  V30 66539 H 6631.76 1.68184 -3.86383 0
M  V30 66540 H 6630.48 1.91766 -2.64374 0
M  V30 66541 H 6629.14 0.0459836 -3.66571 0
M  V30 66542 H 6628.79 2.40508 -4.41775 0
M  V30 66543 H 6628.49 1.25101 -5.74128 0
M  V30 66544 H 6630.01 2.18263 -5.70257 0
M  V30 66545 H 6631.42 -0.0886081 -5.73232 0
M  V30 66546 H 6629.82 -0.851992 -5.94021 0
M  V30 66547 H 6630.89 -1.40728 -4.6403 0
M  V30 66548 N 6632.23 1.54442 -0.313895 0
M  V30 66549 C 6633.2 2.22659 0.543673 0
M  V30 66550 C 6634.2 1.21684 1.05118 0
M  V30 66551 O 6635.39 1.4633 0.945148 0
M  V30 66552 C 6632.52 2.92307 1.75411 0
M  V30 66553 H 6633.71 2.99854 -0.052518 0
M  V30 66554 H 6631.27 1.56165 -0.0648658 0
M  V30 66555 H 6632 2.19224 2.3898 0
M  V30 66556 H 6631.79 3.66342 1.39772 0
M  V30 66557 H 6633.28 3.44309 2.36307 0
M  V30 66558 N 6633.71 0.0418679 1.57544 0
M  V30 66559 C 6635.13 -0.314622 1.56468 0
M  V30 66560 C 6635.33 -1.72061 1.04869 0
M  V30 66561 O 6634.38 -2.42571 0.701111 0
M  V30 66562 C 6635.7 -0.151582 3.00318 0
M  V30 66563 C 6637.25 -0.223389 3.12202 0
M  V30 66564 C 6637.72 -0.088988 4.57914 0
M  V30 66565 N 6639.21 -0.145564 4.62971 0
M  V30 66566 C 6639.95 -0.0655435 5.73363 0
M  V30 66567 N 6639.44 0.0662935 6.92768 0
M  V30 66568 N 6641.24 -0.120454 5.61971 0
M  V30 66569 H 6633.39 0.961114 1.89411 0
M  V30 66570 H 6635.65 0.372283 0.871843 0
M  V30 66571 H 6635.36 0.817435 3.42069 0
M  V30 66572 H 6635.23 -0.916499 3.65896 0
M  V30 66573 H 6637.62 -1.18287 2.70356 0
M  V30 66574 H 6637.7 0.572125 2.4932 0
M  V30 66575 H 6637.34 0.867131 5.00443 0
M  V30 66576 H 6637.27 -0.903528 5.18791 0
M  V30 66577 H 6639.76 -0.247087 3.77091 0
M  V30 66578 H 6640.08 0.120313 7.72706 0
M  V30 66579 H 6638.42 0.101251 6.94926 0
M  V30 66580 H 6641.61 -0.221941 4.67574 0
M  V30 66581 H 6641.78 -0.0546318 6.47977 0
M  V30 66582 N 6635.19 -1.55892 -0.231423 0
M  V30 66583 C 6636.44 -1.78093 -0.955367 0
M  V30 66584 C 6636.76 -0.60863 -1.85258 0
M  V30 66585 O 6636.03 0.374933 -1.92279 0
M  V30 66586 H 6634.61 -0.656848 -0.355752 0
M  V30 66587 H 6637.27 -1.93346 -0.245649 0
M  V30 66588 H 6636.37 -2.69852 -1.568 0
M  V30 66589 N 6636.67 0.497729 -1.49534 0
M  V30 66590 C 6637.9 1.27559 -1.629 0
M  V30 66591 C 6638.31 1.86374 -0.301684 0
M  V30 66592 O 6637.67 1.67985 0.713246 0
M  V30 66593 C 6637.72 2.4035 -2.70026 0
M  V30 66594 O 6637.44 1.83951 -3.9761 0
M  V30 66595 C 6638.94 3.31669 -2.94127 0
M  V30 66596 H 6636.16 0.386765 -0.548319 0
M  V30 66597 H 6638.71 0.597142 -1.95587 0
M  V30 66598 H 6636.86 3.04018 -2.40108 0
M  V30 66599 H 6637.28 2.58023 -4.56645 0
M  V30 66600 H 6638.75 4.07084 -3.72809 0
M  V30 66601 H 6639.23 3.8886 -2.04167 0
M  V30 66602 H 6639.83 2.73764 -3.25474 0
M  V30 66603 N 6638.15 1.38663 0.749013 0
M  V30 66604 C 6639.42 1.2564 1.49913 0
M  V30 66605 C 6639.8 -0.140206 2.10634 0
M  V30 66606 O 6639.15 -1.15014 1.97444 0
M  V30 66607 C 6639.36 2.37006 2.56182 0
M  V30 66608 C 6640.71 2.75651 3.22958 0
M  V30 66609 O 6641.73 2.36351 2.66489 0
M  V30 66610 O 6640.59 3.43437 4.25103 0
M  V30 66611 H 6637.69 0.491579 0.665041 0
M  V30 66612 H 6640.23 1.50503 0.784034 0
M  V30 66613 H 6639.01 3.30433 2.09595 0
M  V30 66614 H 6638.63 2.13732 3.35268 0
M  V30 66615 N 6639.63 -0.977692 1.23608 0
M  V30 66616 C 6640.85 -1.75986 1.09744 0
M  V30 66617 C 6641.28 -1.84876 -0.34676 0
M  V30 66618 O 6640.63 -1.31237 -1.25087 0
M  V30 66619 C 6640.68 -3.16354 1.73068 0
M  V30 66620 O 6639.79 -4.00225 0.994663 0
M  V30 66621 H 6639.13 -0.541343 0.384504 0
M  V30 66622 H 6641.66 -1.22712 1.63716 0
M  V30 66623 H 6641.67 -3.66921 1.78417 0
M  V30 66624 H 6640.34 -3.09198 2.78153 0
M  V30 66625 H 6638.92 -3.58727 1.01831 0
M  V30 66626 N 6641.1 -1.04822 -1.17686 0
M  V30 66627 C 6642.34 -0.765079 -1.89541 0
M  V30 66628 C 6642.71 0.694933 -1.78982 0
M  V30 66629 O 6643.91 1.09202 -2.45618 0
M  V30 66630 C 6642.18 -1.22769 -3.35652 0
M  V30 66631 S 6643.74 -1.07135 -4.2552 0
M  V30 66632 H 6640.56 -0.277955 -0.654417 0
M  V30 66633 H 6643.16 -1.34208 -1.42156 0
M  V30 66634 H 6641.86 -2.28551 -3.4087 0
M  V30 66635 H 6641.39 -0.644799 -3.8808 0
M  V30 66636 H 6643.41 0.00671342 -4.962 0
M  V30 66637 N 6642.58 1.34052 -0.828725 0
M  V30 66638 C 6643.51 2.28216 -0.212172 0
M  V30 66639 C 6644.53 1.51289 0.601282 0
M  V30 66640 O 6645.72 1.73243 0.430013 0
M  V30 66641 C 6642.82 3.31148 0.720705 0
M  V30 66642 C 6641.99 4.3737 -0.0511893 0
M  V30 66643 C 6641.05 5.20029 0.803491 0
M  V30 66644 O 6640.07 5.68667 0.246367 0
M  V30 66645 N 6641.28 5.40309 2.12241 0
M  V30 66646 H 6644.04 2.81765 -1.0212 0
M  V30 66647 H 6641.6 1.46637 -0.68623 0
M  V30 66648 H 6643.59 3.83346 1.29721 0
M  V30 66649 H 6642.16 2.7795 1.43046 0
M  V30 66650 H 6641.38 3.85809 -0.809035 0
M  V30 66651 H 6642.67 5.05457 -0.582332 0
M  V30 66652 H 6642.07 5.02477 2.59871 0
M  V30 66653 H 6640.63 5.95603 2.64764 0
M  V30 66654 N 6644.06 0.584219 1.46372 0
M  V30 66655 C 6645.31 0.0702352 2.01978 0
M  V30 66656 C 6645.63 -1.29492 1.45797 0
M  V30 66657 O 6644.9 -1.85039 0.643237 0
M  V30 66658 H 6643.48 0.0229739 0.746647 0
M  V30 66659 H 6646.14 0.76034 1.79457 0
M  V30 66660 H 6645.24 0.00237098 3.121 0
M  V30 66661 N 6645.54 -1.54274 0.322081 0
M  V30 66662 C 6646.81 -1.92708 -0.33513 0
M  V30 66663 C 6647.19 -1.25154 -1.69999 0
M  V30 66664 O 6646.54 -0.394714 -2.25065 0
M  V30 66665 C 6646.75 -3.46355 -0.428826 0
M  V30 66666 C 6648.1 -4.18959 -0.689808 0
M  V30 66667 O 6649.12 -3.52504 -0.511806 0
M  V30 66668 O 6647.98 -5.36646 -1.0331 0
M  V30 66669 H 6645.08 -0.804618 -0.1911 0
M  V30 66670 H 6647.62 -1.6558 0.371687 0
M  V30 66671 H 6646.4 -3.87697 0.529816 0
M  V30 66672 H 6646.02 -3.79584 -1.18328 0
M  V30 66673 N 6647.02 -0.0502223 -1.5752 0
M  V30 66674 C 6648.24 0.636893 -1.97379 0
M  V30 66675 C 6648.67 1.6364 -0.927552 0
M  V30 66676 O 6648.02 1.8097 0.109314 0
M  V30 66677 C 6648.07 1.30105 -3.36311 0
M  V30 66678 O 6647.18 2.41671 -3.34169 0
M  V30 66679 H 6646.52 0.165645 -0.643007 0
M  V30 66680 H 6649.05 -0.118341 -2.04257 0
M  V30 66681 H 6649.06 1.65296 -3.73017 0
M  V30 66682 H 6647.73 0.568528 -4.11996 0
M  V30 66683 H 6646.31 2.08435 -3.09207 0
M  V30 66684 N 6648.49 1.56012 0.223152 0
M  V30 66685 C 6649.74 1.78597 0.945908 0
M  V30 66686 C 6650.06 0.618446 1.84933 0
M  V30 66687 O 6649.33 -0.364731 1.92475 0
M  V30 66688 H 6647.91 0.658726 0.352263 0
M  V30 66689 H 6650.57 1.93473 0.235392 0
M  V30 66690 H 6649.67 2.7068 1.55366 0
M  V30 66691 N 6649.97 -0.489791 1.49796 0
M  V30 66692 C 6651.22 -1.24073 1.59532 0
M  V30 66693 C 6651.54 -1.92846 0.289054 0
M  V30 66694 O 6650.81 -1.83258 -0.692339 0
M  V30 66695 H 6649.39 -0.460952 0.58782 0
M  V30 66696 H 6652.05 -0.56668 1.8648 0
M  V30 66697 H 6651.15 -1.99868 2.39707 0
M  V30 66698 N 6651.45 -1.39059 -0.741649 0
M  V30 66699 C 6652.86 -1.32075 -1.31959 0
M  V30 66700 C 6653.21 0.0179763 -1.96192 0
M  V30 66701 O 6652.34 0.920093 -1.95865 0
M  V30 66702 C 6652.93 -2.39194 -2.39941 0
M  V30 66703 C 6651.49 -2.35751 -2.93425 0
M  V30 66704 C 6650.64 -2.2143 -1.66925 0
M  V30 66705 H 6653.59 -1.49243 -0.539642 0
M  V30 66706 H 6653.61 -2.05598 -3.20171 0
M  V30 66707 H 6653.12 -3.36616 -1.93162 0
M  V30 66708 H 6651.22 -1.41947 -3.44502 0
M  V30 66709 H 6651.34 -3.30353 -3.46992 0
M  V30 66710 H 6649.7 -1.68488 -1.91008 0
M  V30 66711 H 6650.48 -3.20812 -1.22207 0
M  V30 66712 N 6652.93 0.971123 -1.24125 0
M  V30 66713 C 6653.86 2.08298 -1.05519 0
M  V30 66714 C 6654.84 1.70072 0.0307967 0
M  V30 66715 O 6656.02 1.93726 -0.135624 0
M  V30 66716 C 6653.15 3.41057 -0.655545 0
M  V30 66717 C 6652.11 3.93225 -1.68992 0
M  V30 66718 C 6651.43 5.22287 -1.14544 0
M  V30 66719 C 6652.73 4.21449 -3.08509 0
M  V30 66720 H 6654.43 2.24122 -1.98519 0
M  V30 66721 H 6651.97 1.07699 -0.955878 0
M  V30 66722 H 6653.93 4.18273 -0.51239 0
M  V30 66723 H 6652.65 3.25124 0.310148 0
M  V30 66724 H 6651.31 3.18162 -1.82123 0
M  V30 66725 H 6650.96 5.02711 -0.170454 0
M  V30 66726 H 6650.66 5.58159 -1.83664 0
M  V30 66727 H 6652.18 6.02116 -1.01433 0
M  V30 66728 H 6653.6 4.89382 -2.98627 0
M  V30 66729 H 6651.99 4.68542 -3.74951 0
M  V30 66730 H 6653.06 3.28357 -3.56805 0
M  V30 66731 N 6654.41 1.05445 1.17129 0
M  V30 66732 C 6655.65 0.767176 1.87729 0
M  V30 66733 C 6655.99 -0.704157 1.80984 0
M  V30 66734 O 6655.26 -1.51513 1.21959 0
M  V30 66735 C 6655.54 1.25151 3.37653 0
M  V30 66736 C 6655.4 2.78596 3.53135 0
M  V30 66737 C 6656.72 0.852552 4.31763 0
M  V30 66738 H 6653.83 0.280165 0.681672 0
M  V30 66739 H 6656.48 1.30888 1.37725 0
M  V30 66740 H 6654.63 0.790669 3.80369 0
M  V30 66741 H 6656.3 3.32823 3.19416 0
M  V30 66742 H 6654.54 3.17748 2.95328 0
M  V30 66743 H 6655.21 3.07547 4.58387 0
M  V30 66744 H 6657.69 1.24932 3.96902 0
M  V30 66745 H 6656.56 1.21901 5.35193 0
M  V30 66746 H 6656.83 -0.243252 4.4143 0
M  V30 66747 N 6655.88 -1.3361 0.835823 0
M  V30 66748 C 6657.12 -1.99694 0.436095 0
M  V30 66749 C 6657.49 -1.64779 -0.985483 0
M  V30 66750 O 6658.69 -2.23805 -1.48878 0
M  V30 66751 C 6656.96 -3.51497 0.646906 0
M  V30 66752 S 6658.52 -4.37466 0.341946 0
M  V30 66753 H 6655.34 -0.691786 0.164173 0
M  V30 66754 H 6657.94 -1.62665 1.08445 0
M  V30 66755 H 6656.64 -3.74395 1.68096 0
M  V30 66756 H 6656.17 -3.93397 -0.0157099 0
M  V30 66757 H 6658.19 -4.89048 -0.83945 0
M  V30 66758 N 6657.36 -0.591973 -1.4606 0
M  V30 66759 C 6658.61 -0.0811058 -2.02338 0
M  V30 66760 C 6658.94 1.28241 -1.46234 0
M  V30 66761 O 6658.19 1.85589 -0.620916 0
M  V30 66762 C 6658.49 0.0247928 -3.57391 0
M  V30 66763 C 6658.16 -1.27234 -4.32576 0
M  V30 66764 C 6656.82 -1.62769 -4.52835 0
M  V30 66765 C 6659.17 -2.1303 -4.75676 0
M  V30 66766 C 6656.5 -2.83882 -5.13447 0
M  V30 66767 C 6658.85 -3.33378 -5.37626 0
M  V30 66768 C 6657.52 -3.69184 -5.56111 0
M  V30 66769 H 6656.79 -0.0296787 -0.740405 0
M  V30 66770 H 6659.43 -0.770466 -1.75317 0
M  V30 66771 H 6657.74 0.797335 -3.83601 0
M  V30 66772 H 6659.43 0.435974 -3.98623 0
M  V30 66773 H 6656.02 -0.985719 -4.17111 0
M  V30 66774 H 6660.21 -1.86879 -4.59772 0
M  V30 66775 H 6655.46 -3.1175 -5.25949 0
M  V30 66776 H 6659.64 -4.00122 -5.69979 0
M  V30 66777 H 6657.27 -4.63121 -6.02846 0
M  V30 66778 N 6658.84 1.54101 -0.330258 0
M  V30 66779 C 6659.75 2.28267 0.541413 0
M  V30 66780 C 6660.77 1.32871 1.12344 0
M  V30 66781 O 6661.94 1.65894 1.14197 0
M  V30 66782 C 6659.01 3.03107 1.68306 0
M  V30 66783 C 6658.07 4.14102 1.13217 0
M  V30 66784 C 6657.3 4.85364 2.21941 0
M  V30 66785 O 6657.52 4.5619 3.42413 0
M  V30 66786 O 6656.46 5.7212 1.86982 0
M  V30 66787 H 6660.28 3.03639 -0.0610981 0
M  V30 66788 H 6657.87 1.49093 -0.0957286 0
M  V30 66789 H 6659.75 3.49952 2.34759 0
M  V30 66790 H 6658.43 2.30605 2.27163 0
M  V30 66791 H 6657.33 3.71591 0.43254 0
M  V30 66792 H 6658.67 4.88667 0.588641 0
M  V30 66793 N 6660.32 0.0585753 1.57491 0
M  V30 66794 C 6661.27 -0.913264 2.11963 0
M  V30 66795 C 6662.24 -1.30402 1.02882 0
M  V30 66796 O 6663.42 -1.39219 1.30471 0
M  V30 66797 C 6660.56 -2.18021 2.67509 0
M  V30 66798 C 6659.67 -1.84328 3.90701 0
M  V30 66799 C 6658.81 -3.05536 4.34536 0
M  V30 66800 C 6657.85 -2.67798 5.5041 0
M  V30 66801 N 6656.98 -3.81723 5.89264 0
M  V30 66802 H 6661.82 -0.441861 2.94706 0
M  V30 66803 H 6659.36 -0.206469 1.45644 0
M  V30 66804 H 6661.32 -2.92167 2.97816 0
M  V30 66805 H 6659.95 -2.62725 1.87551 0
M  V30 66806 H 6659 -1.003 3.66939 0
M  V30 66807 H 6660.31 -1.52555 4.74898 0
M  V30 66808 H 6659.47 -3.87974 4.66435 0
M  V30 66809 H 6658.21 -3.40493 3.49165 0
M  V30 66810 H 6657.21 -1.83778 5.18175 0
M  V30 66811 H 6658.44 -2.34025 6.37502 0
M  V30 66812 H 6656.38 -4.16467 5.06845 0
M  V30 66813 H 6656.3 -3.53673 6.6817 0
M  V30 66814 H 6657.57 -4.64778 6.2578 0
M  V30 66815 N 6661.8 -1.56128 -0.214875 0
M  V30 66816 C 6663.07 -1.70252 -0.963003 0
M  V30 66817 C 6663.45 -0.607747 -2.02162 0
M  V30 66818 O 6662.8 0.384266 -2.25246 0
M  V30 66819 C 6663.01 -3.11823 -1.56739 0
M  V30 66820 C 6664.36 -3.71441 -2.0571 0
M  V30 66821 O 6665.38 -3.14827 -1.6662 0
M  V30 66822 O 6664.24 -4.70758 -2.77578 0
M  V30 66823 H 6661.34 -0.693666 -0.450284 0
M  V30 66824 H 6663.88 -1.68443 -0.20613 0
M  V30 66825 H 6662.65 -3.82965 -0.803331 0
M  V30 66826 H 6662.28 -3.17777 -2.38963 0
M  V30 66827 N 6663.27 0.481841 -1.50054 0
M  V30 66828 C 6664.22 1.58116 -1.68131 0
M  V30 66829 C 6665.19 1.57664 -0.522628 0
M  V30 66830 O 6666.38 1.75358 -0.751936 0
M  V30 66831 C 6663.52 2.96158 -1.77157 0
M  V30 66832 C 6662.63 3.06481 -3.04456 0
M  V30 66833 C 6661.76 4.35371 -3.04344 0
M  V30 66834 C 6660.8 4.39397 -4.26142 0
M  V30 66835 N 6659.94 5.59743 -4.2383 0
M  V30 66836 H 6664.78 1.42008 -2.61988 0
M  V30 66837 H 6662.32 0.690618 -1.2988 0
M  V30 66838 H 6664.28 3.76194 -1.80372 0
M  V30 66839 H 6662.91 3.10925 -0.867492 0
M  V30 66840 H 6661.96 2.19385 -3.10764 0
M  V30 66841 H 6663.27 3.05315 -3.94442 0
M  V30 66842 H 6662.42 5.23746 -3.06228 0
M  V30 66843 H 6661.16 4.3913 -2.1217 0
M  V30 66844 H 6660.17 3.49422 -4.24482 0
M  V30 66845 H 6661.39 4.37338 -5.1953 0
M  V30 66846 H 6659.34 5.64308 -3.34503 0
M  V30 66847 H 6659.26 5.60274 -5.07572 0
M  V30 66848 H 6660.52 6.50272 -4.29844 0
M  V30 66849 N 6664.75 1.3945 0.734264 0
M  V30 66850 C 6665.98 1.39786 1.52129 0
M  V30 66851 C 6666.39 -0.00919335 1.89198 0
M  V30 66852 O 6665.73 -0.991086 1.54671 0
M  V30 66853 C 6665.8 2.20739 2.83751 0
M  V30 66854 C 6665.46 3.69361 2.69112 0
M  V30 66855 C 6666.46 4.62425 2.37611 0
M  V30 66856 C 6664.14 4.12955 2.8596 0
M  V30 66857 C 6666.14 5.97065 2.2314 0
M  V30 66858 C 6663.82 5.47671 2.71108 0
M  V30 66859 C 6664.82 6.3954 2.39744 0
M  V30 66860 O 6664.51 7.71775 2.24985 0
M  V30 66861 H 6664.24 0.479313 0.476691 0
M  V30 66862 H 6666.79 1.83898 0.914915 0
M  V30 66863 H 6665.02 1.71377 3.46651 0
M  V30 66864 H 6666.71 2.13245 3.45372 0
M  V30 66865 H 6667.48 4.30046 2.24245 0
M  V30 66866 H 6663.36 3.41781 3.09365 0
M  V30 66867 H 6666.9 6.68739 1.98581 0
M  V30 66868 H 6662.8 5.79641 2.84053 0
M  V30 66869 H 6663.57 7.82508 2.40049 0
M  V30 66870 N 6666.23 -0.964527 1.24638 0
M  V30 66871 C 6667.48 -1.70224 1.08197 0
M  V30 66872 C 6667.79 -1.919 -0.378629 0
M  V30 66873 O 6669 -2.63273 -0.663288 0
M  V30 66874 C 6667.46 -3.0641 1.88789 0
M  V30 66875 C 6667.06 -2.92564 3.39279 0
M  V30 66876 C 6668.81 -3.84031 1.80887 0
M  V30 66877 C 6666.71 -4.24079 4.12202 0
M  V30 66878 H 6665.64 -0.63835 0.401279 0
M  V30 66879 H 6668.3 -1.07454 1.48747 0
M  V30 66880 H 6666.68 -3.70026 1.41055 0
M  V30 66881 H 6667.85 -2.3794 3.94615 0
M  V30 66882 H 6666.17 -2.28406 3.48166 0
M  V30 66883 H 6668.76 -4.81423 2.32671 0
M  V30 66884 H 6669.11 -4.09027 0.774759 0
M  V30 66885 H 6669.64 -3.27147 2.26318 0
M  V30 66886 H 6666.38 -4.04275 5.15986 0
M  V30 66887 H 6665.9 -4.78507 3.61651 0
M  V30 66888 H 6667.58 -4.9268 4.19375 0
M  V30 66889 N 6667.71 -1.06064 -1.16568 0
M  V30 66890 C 6668.64 -0.690605 -2.23054 0
M  V30 66891 C 6669.62 0.315813 -1.67143 0
M  V30 66892 O 6670.81 0.191454 -1.93254 0
M  V30 66893 C 6667.94 -0.0738081 -3.47222 0
M  V30 66894 C 6666.89 -1.00595 -4.1601 0
M  V30 66895 C 6666.22 -0.252571 -5.34103 0
M  V30 66896 C 6667.52 -2.33396 -4.67251 0
M  V30 66897 H 6669.21 -1.58086 -2.54262 0
M  V30 66898 H 6666.76 -0.761554 -1.22214 0
M  V30 66899 H 6668.71 0.196918 -4.2094 0
M  V30 66900 H 6667.43 0.851444 -3.15306 0
M  V30 66901 H 6666.09 -1.26138 -3.44216 0
M  V30 66902 H 6665.74 0.675725 -4.98441 0
M  V30 66903 H 6665.44 -0.873761 -5.81067 0
M  V30 66904 H 6666.96 0.0106637 -6.10599 0
M  V30 66905 H 6668.38 -2.12251 -5.32562 0
M  V30 66906 H 6666.77 -2.90991 -5.24828 0
M  V30 66907 H 6667.84 -2.96631 -3.83586 0
M  V30 66908 N 6669.19 1.33165 -0.842897 0
M  V30 66909 C 6670.12 2.27978 -0.236365 0
M  V30 66910 C 6671.13 1.51918 0.585202 0
M  V30 66911 O 6672.32 1.73689 0.411614 0
M  V30 66912 C 6669.42 3.31894 0.685542 0
M  V30 66913 C 6668.59 4.37291 -0.0975754 0
M  V30 66914 C 6667.65 5.20852 0.74829 0
M  V30 66915 O 6666.68 5.68896 0.186039 0
M  V30 66916 N 6667.88 5.4253 2.06499 0
M  V30 66917 H 6670.65 2.80666 -1.05102 0
M  V30 66918 H 6668.21 1.45901 -0.701744 0
M  V30 66919 H 6670.2 3.84701 1.25648 0
M  V30 66920 H 6668.77 2.79452 1.4009 0
M  V30 66921 H 6667.99 3.84929 -0.849909 0
M  V30 66922 H 6669.28 5.0481 -0.635909 0
M  V30 66923 H 6668.68 5.05205 2.54527 0
M  V30 66924 H 6667.23 5.98378 2.58432 0
M  V30 66925 N 6670.67 0.599711 1.45744 0
M  V30 66926 C 6671.91 0.0916537 2.01892 0
M  V30 66927 C 6672.23 -1.27939 1.47162 0
M  V30 66928 O 6671.5 -1.84346 0.662827 0
M  V30 66929 H 6670.08 0.0308918 0.746361 0
M  V30 66930 H 6672.75 0.779331 1.78641 0
M  V30 66931 H 6671.84 0.0354732 3.1208 0
M  V30 66932 N 6672.14 -1.53923 0.338426 0
M  V30 66933 C 6673.39 -2.01126 -0.260037 0
M  V30 66934 C 6673.72 -1.22597 -1.50611 0
M  V30 66935 O 6673 -0.312214 -1.91978 0
M  V30 66936 C 6673.28 -3.5541 -0.579312 0
M  V30 66937 C 6673.13 -4.44653 0.678499 0
M  V30 66938 C 6674.45 -4.1754 -1.391 0
M  V30 66939 H 6671.57 -0.731104 -0.0930387 0
M  V30 66940 H 6674.21 -1.84399 0.457949 0
M  V30 66941 H 6672.36 -3.69794 -1.19099 0
M  V30 66942 H 6674.04 -4.42114 1.31654 0
M  V30 66943 H 6672.28 -4.13724 1.30442 0
M  V30 66944 H 6672.95 -5.50472 0.410433 0
M  V30 66945 H 6675.43 -4.06821 -0.87382 0
M  V30 66946 H 6674.3 -5.25574 -1.58314 0
M  V30 66947 H 6674.56 -3.71828 -2.39158 0
M  V30 66948 N 6673.62 -0.0669266 -1.57458 0
M  V30 66949 C 6674.85 0.612461 -1.97627 0
M  V30 66950 C 6675.26 1.63442 -0.945106 0
M  V30 66951 O 6674.62 1.8237 0.0688314 0
M  V30 66952 C 6674.67 1.28538 -3.37876 0
M  V30 66953 O 6674.39 0.304327 -4.37042 0
M  V30 66954 C 6675.89 2.05305 -3.92893 0
M  V30 66955 H 6673.11 0.166347 -0.650054 0
M  V30 66956 H 6675.66 -0.13789 -2.04035 0
M  V30 66957 H 6673.81 1.98685 -3.32571 0
M  V30 66958 H 6674.23 0.786506 -5.1857 0
M  V30 66959 H 6675.7 2.47786 -4.9326 0
M  V30 66960 H 6676.18 2.90763 -3.29171 0
M  V30 66961 H 6676.78 1.40035 -4.01585 0
M  V30 66962 N 6675.1 1.5624 0.206592 0
M  V30 66963 C 6676.32 1.84395 0.949377 0
M  V30 66964 C 6676.75 0.649109 1.76545 0
M  V30 66965 O 6676.11 -0.402138 1.76784 0
M  V30 66966 C 6676.16 3.10678 1.83062 0
M  V30 66967 O 6675.26 2.90423 2.92794 0
M  V30 66968 H 6674.6 0.607513 0.268001 0
M  V30 66969 H 6677.13 2.03463 0.215381 0
M  V30 66970 H 6677.14 3.41173 2.23752 0
M  V30 66971 H 6675.82 3.97267 1.23092 0
M  V30 66972 H 6674.39 2.71198 2.55942 0
M  V30 66973 N 6676.58 -0.473876 1.50307 0
M  V30 66974 C 6677.82 -1.22513 1.62364 0
M  V30 66975 C 6678.18 -1.89743 0.318655 0
M  V30 66976 O 6677.47 -1.79005 -0.683221 0
M  V30 66977 C 6677.67 -2.29534 2.7395 0
M  V30 66978 C 6677.49 -1.72803 4.15174 0
M  V30 66979 C 6676.26 -1.52899 4.81612 0
M  V30 66980 C 6678.46 -1.22455 4.99509 0
M  V30 66981 N 6676.44 -0.91381 6.07061 0
M  V30 66982 C 6677.82 -0.732418 6.15659 0
M  V30 66983 C 6679.87 -1.11283 4.85305 0
M  V30 66984 C 6678.57 -0.139596 7.19165 0
M  V30 66985 C 6680.6 -0.533948 5.88985 0
M  V30 66986 C 6679.96 -0.0521848 7.04381 0
M  V30 66987 H 6676.06 -0.437287 0.648309 0
M  V30 66988 H 6678.64 -0.527593 1.87415 0
M  V30 66989 H 6676.82 -2.96717 2.50626 0
M  V30 66990 H 6678.55 -2.96559 2.75381 0
M  V30 66991 H 6675.3 -1.78044 4.38859 0
M  V30 66992 H 6675.73 -0.624715 6.74111 0
M  V30 66993 H 6680.37 -1.47123 3.96377 0
M  V30 66994 H 6678.09 0.231017 8.0777 0
M  V30 66995 H 6681.67 -0.449913 5.80058 0
M  V30 66996 H 6680.55 0.388737 7.83236 0
M  V30 66997 N 6678.06 -1.39838 -0.726858 0
M  V30 66998 C 6679.3 -1.37233 -1.48363 0
M  V30 66999 C 6679.62 0.0283828 -1.94979 0
M  V30 67000 O 6678.89 0.981123 -1.69561 0
M  V30 67001 H 6677.47 -0.50504 -0.550403 0
M  V30 67002 H 6680.14 -1.74783 -0.862376 0
M  V30 67003 H 6679.23 -2.04015 -2.36187 0
M  V30 67004 N 6679.53 0.957904 -1.25148 0
M  V30 67005 C 6680.46 2.07167 -1.07722 0
M  V30 67006 C 6681.44 1.70095 0.0127565 0
M  V30 67007 O 6682.63 1.93571 -0.156163 0
M  V30 67008 C 6679.76 3.40343 -0.691682 0
M  V30 67009 C 6678.71 3.9141 -1.73153 0
M  V30 67010 C 6678.04 5.21043 -1.20077 0
M  V30 67011 C 6679.34 4.18153 -3.12962 0
M  V30 67012 H 6681.03 2.22004 -2.00885 0
M  V30 67013 H 6678.58 1.06679 -0.967247 0
M  V30 67014 H 6680.53 4.17706 -0.556725 0
M  V30 67015 H 6679.26 3.25435 0.275647 0
M  V30 67016 H 6677.92 3.16212 -1.85487 0
M  V30 67017 H 6677.56 5.02502 -0.223764 0
M  V30 67018 H 6677.26 5.56179 -1.89574 0
M  V30 67019 H 6678.79 6.01006 -1.07814 0
M  V30 67020 H 6680.2 4.86187 -3.038 0
M  V30 67021 H 6678.6 4.64539 -3.799 0
M  V30 67022 H 6679.67 3.24554 -3.60267 0
M  V30 67023 N 6681.01 1.06681 1.16004 0
M  V30 67024 C 6682.26 0.784327 1.8626 0
M  V30 67025 C 6682.58 -0.691391 1.82332 0
M  V30 67026 O 6681.85 -1.5004 1.25955 0
M  V30 67027 H 6680.43 0.287146 0.689606 0
M  V30 67028 H 6683.09 1.34913 1.40657 0
M  V30 67029 H 6682.19 1.11275 2.91589 0
M  V30 67030 N 6682.49 -1.32716 0.849947 0
M  V30 67031 C 6683.73 -1.9922 0.457251 0
M  V30 67032 C 6684.09 -1.65815 -0.96795 0
M  V30 67033 O 6685.3 -2.25372 -1.46495 0
M  V30 67034 C 6683.57 -3.50791 0.684151 0
M  V30 67035 S 6685.13 -4.37078 0.388326 0
M  V30 67036 H 6681.94 -0.690006 0.171501 0
M  V30 67037 H 6684.55 -1.61506 1.10164 0
M  V30 67038 H 6683.25 -3.72591 1.72058 0
M  V30 67039 H 6682.78 -3.93391 0.026016 0
M  V30 67040 H 6684.8 -4.89911 -0.787533 0
M  V30 67041 N 6683.97 -0.607431 -1.45424 0
M  V30 67042 C 6684.93 0.101572 -2.28975 0
M  V30 67043 C 6685.93 0.795255 -1.39758 0
M  V30 67044 O 6687.12 0.643442 -1.61881 0
M  V30 67045 C 6684.25 1.15397 -3.20774 0
M  V30 67046 H 6685.45 -0.632999 -2.93144 0
M  V30 67047 H 6683 -0.366471 -1.51943 0
M  V30 67048 H 6683.73 1.91931 -2.61406 0
M  V30 67049 H 6683.52 0.660777 -3.86492 0
M  V30 67050 H 6685.01 1.65053 -3.83598 0
M  V30 67051 N 6685.45 1.53742 -0.346584 0
M  V30 67052 C 6686.86 1.59599 0.00522559 0
M  V30 67053 C 6687.06 1.36244 1.48458 0
M  V30 67054 O 6686.12 1.1582 2.2437 0
M  V30 67055 C 6687.43 2.97556 -0.433673 0
M  V30 67056 C 6688.98 3.10607 -0.386275 0
M  V30 67057 C 6689.45 4.50947 -0.800689 0
M  V30 67058 N 6690.95 4.57006 -0.754994 0
M  V30 67059 C 6691.68 5.6375 -1.04757 0
M  V30 67060 N 6691.18 6.78332 -1.40845 0
M  V30 67061 N 6692.97 5.53639 -0.971608 0
M  V30 67062 H 6685.12 1.67177 -1.31018 0
M  V30 67063 H 6687.38 0.7831 -0.534284 0
M  V30 67064 H 6687.09 3.19723 -1.46526 0
M  V30 67065 H 6686.96 3.76723 0.189554 0
M  V30 67066 H 6689.35 2.88162 0.636143 0
M  V30 67067 H 6689.43 2.33492 -1.04475 0
M  V30 67068 H 6689.08 4.74128 -1.82113 0
M  V30 67069 H 6689.01 5.26464 -0.119664 0
M  V30 67070 H 6691.5 3.74725 -0.48886 0
M  V30 67071 H 6691.81 7.55705 -1.61646 0
M  V30 67072 H 6690.15 6.79771 -1.44693 0
M  V30 67073 H 6693.35 4.63002 -0.688992 0
M  V30 67074 H 6693.52 6.36736 -1.20296 0
M  V30 67075 N 6686.92 0.075276 1.5742 0
M  V30 67076 C 6688.34 -0.456869 1.81024 0
M  V30 67077 C 6688.69 -1.69424 0.989449 0
M  V30 67078 O 6687.81 -2.15349 0.212978 0
M  V30 67079 C 6688.41 -0.835637 3.28333 0
M  V30 67080 C 6686.97 -1.31263 3.52771 0
M  V30 67081 C 6686.11 -0.299503 2.75678 0
M  V30 67082 H 6689.06 0.300938 1.55821 0
M  V30 67083 H 6689.08 -1.69678 3.40572 0
M  V30 67084 H 6688.6 0.0651284 3.88045 0
M  V30 67085 H 6686.7 -2.23177 2.98367 0
M  V30 67086 H 6686.81 -1.28815 4.61458 0
M  V30 67087 H 6685.17 -0.777513 2.42542 0
M  V30 67088 H 6685.96 0.593596 3.38129 0
M  V30 67089 N 6688.4 -1.56347 -0.198304 0
M  V30 67090 C 6689.35 -1.95176 -1.26528 0
M  V30 67091 C 6690.34 -0.836763 -1.47291 0
M  V30 67092 O 6691.55 -1.02175 -1.4819 0
M  V30 67093 H 6687.93 -0.620584 -0.424711 0
M  V30 67094 H 6689.9 -2.84162 -0.910754 0
M  V30 67095 C 6688.65 -2.30477 -2.60337 0
M  V30 67096 H 6687.97 -3.15799 -2.45175 0
M  V30 67097 H 6689.41 -2.61511 -3.33748 0
M  V30 67098 C 6687.87 -1.13823 -3.1709 0
M  V30 67099 O 6688.4 -0.411561 -3.99586 0
M  V30 67100 N 6686.6 -0.915881 -2.7579 0
M  V30 67101 H 6686.15 -1.50854 -2.08808 0
M  V30 67102 H 6686.11 -0.137144 -3.14101 0
M  V30 67103 N 6689.88 0.465898 -1.50556 0
M  V30 67104 C 6690.83 1.56324 -1.69798 0
M  V30 67105 C 6691.8 1.571 -0.539321 0
M  V30 67106 O 6692.98 1.74551 -0.770493 0
M  V30 67107 C 6690.12 2.94262 -1.80288 0
M  V30 67108 C 6689.24 3.03234 -3.0769 0
M  V30 67109 C 6688.37 4.32119 -3.08945 0
M  V30 67110 C 6687.41 4.34853 -4.30778 0
M  V30 67111 N 6686.55 5.55217 -4.29743 0
M  V30 67112 H 6691.39 1.39221 -2.63479 0
M  V30 67113 H 6688.92 0.676804 -1.30605 0
M  V30 67114 H 6690.88 3.7426 -1.84352 0
M  V30 67115 H 6689.51 3.09988 -0.900421 0
M  V30 67116 H 6688.56 2.16077 -3.13073 0
M  V30 67117 H 6689.88 3.01114 -3.97658 0
M  V30 67118 H 6689.03 5.20468 -3.11766 0
M  V30 67119 H 6687.77 4.36855 -2.16815 0
M  V30 67120 H 6686.77 3.449 -4.28164 0
M  V30 67121 H 6688 4.31804 -5.2414 0
M  V30 67122 H 6685.94 5.60728 -3.4047 0
M  V30 67123 H 6685.86 5.54859 -5.13486 0
M  V30 67124 H 6687.13 6.45677 -4.36717 0
M  V30 67125 N 6691.36 1.40221 0.719432 0
M  V30 67126 C 6692.77 1.34157 1.29841 0
M  V30 67127 C 6693.12 0.0132384 1.96196 0
M  V30 67128 O 6692.25 -0.888816 1.97304 0
M  V30 67129 C 6692.84 2.42981 2.36106 0
M  V30 67130 C 6691.4 2.40389 2.89638 0
M  V30 67131 C 6690.55 2.24058 1.63381 0
M  V30 67132 H 6693.5 1.50083 0.515831 0
M  V30 67133 H 6693.52 2.10666 3.1686 0
M  V30 67134 H 6693.03 3.39646 1.87782 0
M  V30 67135 H 6691.13 1.4741 3.422 0
M  V30 67136 H 6691.24 3.35832 3.41693 0
M  V30 67137 H 6689.61 1.71505 1.88303 0
M  V30 67138 H 6690.39 3.22716 1.17087 0
M  V30 67139 N 6692.84 -0.951253 1.25654 0
M  V30 67140 C 6694.08 -1.69292 1.10384 0
M  V30 67141 C 6694.41 -1.91737 -0.355238 0
M  V30 67142 O 6693.68 -1.50688 -1.2518 0
M  V30 67143 H 6692.26 -0.627362 0.405494 0
M  V30 67144 H 6694.92 -1.1435 1.57829 0
M  V30 67145 H 6694.01 -2.67079 1.61479 0
M  V30 67146 N 6694.31 -1.07295 -1.15437 0
M  V30 67147 C 6695.56 -0.796945 -1.86485 0
M  V30 67148 C 6695.89 0.675275 -1.82082 0
M  V30 67149 O 6695.17 1.49554 -1.24354 0
M  V30 67150 C 6695.45 -1.30506 -3.35619 0
M  V30 67151 C 6695.3 -2.84179 -3.48658 0
M  V30 67152 C 6696.62 -0.921134 -4.30352 0
M  V30 67153 H 6693.74 -0.290974 -0.677128 0
M  V30 67154 H 6696.38 -1.33063 -1.35626 0
M  V30 67155 H 6694.53 -0.851083 -3.79063 0
M  V30 67156 H 6696.21 -3.37862 -3.14081 0
M  V30 67157 H 6694.45 -3.22406 -2.90236 0
M  V30 67158 H 6695.12 -3.14801 -4.53436 0
M  V30 67159 H 6697.6 -1.31231 -3.94864 0
M  V30 67160 H 6696.47 -1.304 -5.33186 0
M  V30 67161 H 6696.73 0.172993 -4.41761 0
M  V30 67162 N 6695.79 1.32264 -0.856973 0
M  V30 67163 C 6697.02 2.01069 -0.474856 0
M  V30 67164 C 6697.43 1.64558 0.93366 0
M  V30 67165 O 6696.77 0.864074 1.62109 0
M  V30 67166 C 6696.84 3.55468 -0.536933 0
M  V30 67167 C 6696.5 4.15413 -1.90475 0
M  V30 67168 C 6697.5 4.33471 -2.87052 0
M  V30 67169 C 6695.18 4.51435 -2.20253 0
M  V30 67170 C 6697.18 4.86723 -4.11558 0
M  V30 67171 C 6694.86 5.04391 -3.45011 0
M  V30 67172 C 6695.86 5.21984 -4.40479 0
M  V30 67173 O 6695.55 5.73807 -5.63028 0
M  V30 67174 H 6695.28 0.650246 -0.184812 0
M  V30 67175 H 6697.84 1.69765 -1.15624 0
M  V30 67176 H 6696.07 3.86176 0.201316 0
M  V30 67177 H 6697.75 4.05543 -0.170089 0
M  V30 67178 H 6698.52 4.05972 -2.65352 0
M  V30 67179 H 6694.4 4.37026 -1.46728 0
M  V30 67180 H 6697.94 5.00369 -4.86083 0
M  V30 67181 H 6693.84 5.31323 -3.6656 0
M  V30 67182 H 6694.61 5.92197 -5.65018 0
M  V30 67183 N 6697.27 0.615135 1.45099 0
M  V30 67184 C 6698.23 -0.0894277 2.29025 0
M  V30 67185 C 6699.23 -0.787832 1.40178 0
M  V30 67186 O 6700.42 -0.634848 1.6222 0
M  V30 67187 C 6697.56 -1.13695 3.21382 0
M  V30 67188 H 6698.75 0.648536 2.92804 0
M  V30 67189 H 6696.3 0.374524 1.51747 0
M  V30 67190 H 6697.04 -1.90542 2.6242 0
M  V30 67191 H 6696.82 -0.640271 3.86837 0
M  V30 67192 H 6698.31 -1.63016 3.84468 0
M  V30 67193 N 6698.75 -1.53556 0.354732 0
M  V30 67194 C 6700.17 -1.596 0.00323842 0
M  V30 67195 C 6700.37 -1.37029 -1.47734 0
M  V30 67196 O 6699.42 -1.17008 -2.23753 0
M  V30 67197 C 6700.73 -2.97322 0.449447 0
M  V30 67198 C 6702.28 -3.10398 0.402741 0
M  V30 67199 C 6702.76 -4.50516 0.824592 0
M  V30 67200 N 6704.25 -4.56599 0.77922 0
M  V30 67201 C 6704.98 -5.63186 1.07745 0
M  V30 67202 N 6704.48 -6.77576 1.44441 0
M  V30 67203 N 6706.27 -5.53116 1.00096 0
M  V30 67204 H 6698.42 -1.6648 1.31902 0
M  V30 67205 H 6700.69 -0.780255 0.538429 0
M  V30 67206 H 6700.39 -3.18942 1.48219 0
M  V30 67207 H 6700.27 -3.76819 -0.169573 0
M  V30 67208 H 6702.65 -2.88495 -0.620852 0
M  V30 67209 H 6702.73 -2.32935 1.05711 0
M  V30 67210 H 6702.38 -4.73155 1.84625 0
M  V30 67211 H 6702.31 -5.26393 0.147582 0
M  V30 67212 H 6704.8 -3.7446 0.508726 0
M  V30 67213 H 6705.11 -7.54837 1.65652 0
M  V30 67214 H 6703.46 -6.78994 1.48296 0
M  V30 67215 H 6706.65 -4.6263 0.713537 0
M  V30 67216 H 6706.82 -6.36089 1.23671 0
M  V30 67217 N 6700.23 -0.0836233 -1.57378 0
M  V30 67218 C 6701.47 0.583631 -1.9422 0
M  V30 67219 C 6701.81 1.68542 -0.964742 0
M  V30 67220 O 6701.08 1.945 0.00412002 0
M  V30 67221 C 6701.36 1.14954 -3.41259 0
M  V30 67222 C 6701.22 0.0535905 -4.49768 0
M  V30 67223 C 6702.54 2.05145 -3.89363 0
M  V30 67224 H 6699.66 0.210686 -0.706244 0
M  V30 67225 H 6702.3 -0.152 -1.89391 0
M  V30 67226 H 6700.45 1.77646 -3.45505 0
M  V30 67227 H 6702.12 -0.580092 -4.57638 0
M  V30 67228 H 6700.36 -0.614295 -4.29429 0
M  V30 67229 H 6701.03 0.490162 -5.49819 0
M  V30 67230 H 6703.51 1.52373 -3.87197 0
M  V30 67231 H 6702.39 2.41672 -4.92835 0
M  V30 67232 H 6702.65 2.96439 -3.27989 0
M  V30 67233 N 6701.71 1.5645 0.190009 0
M  V30 67234 C 6702.93 1.85392 0.929766 0
M  V30 67235 C 6703.36 0.667797 1.75847 0
M  V30 67236 O 6702.71 -0.383365 1.772 0
M  V30 67237 C 6702.76 3.12602 1.79756 0
M  V30 67238 O 6701.87 2.93512 2.89698 0
M  V30 67239 H 6701.21 0.610321 0.261542 0
M  V30 67240 H 6703.74 2.0368 0.193789 0
M  V30 67241 H 6703.75 3.43527 2.20121 0
M  V30 67242 H 6702.42 3.9855 1.18871 0
M  V30 67243 H 6701 2.73897 2.53051 0
M  V30 67244 N 6703.18 -0.457907 1.50801 0
M  V30 67245 C 6704.6 -0.792746 1.3852 0
M  V30 67246 C 6704.8 -1.96376 0.451512 0
M  V30 67247 O 6703.86 -2.52298 -0.100987 0
M  V30 67248 C 6705.17 -1.09243 2.80154 0
M  V30 67249 C 6706.72 -1.1981 2.89162 0
M  V30 67250 C 6707.19 -1.53083 4.31659 0
M  V30 67251 N 6708.68 -1.60049 4.34671 0
M  V30 67252 C 6709.42 -1.87325 5.41938 0
M  V30 67253 N 6708.91 -2.12533 6.59395 0
M  V30 67254 N 6710.71 -1.88937 5.29395 0
M  V30 67255 H 6702.86 0.313622 2.10072 0
M  V30 67256 H 6705.12 0.077836 0.944799 0
M  V30 67257 H 6704.83 -0.304899 3.50376 0
M  V30 67258 H 6704.7 -2.02533 3.18214 0
M  V30 67259 H 6707.09 -1.97628 2.19151 0
M  V30 67260 H 6707.17 -0.244687 2.54627 0
M  V30 67261 H 6706.81 -0.758002 5.02212 0
M  V30 67262 H 6706.74 -2.49596 4.63691 0
M  V30 67263 H 6709.23 -1.42555 3.49981 0
M  V30 67264 H 6709.55 -2.32658 7.36947 0
M  V30 67265 H 6707.89 -2.09898 6.62546 0
M  V30 67266 H 6711.08 -1.68749 4.36625 0
M  V30 67267 H 6711.26 -2.09858 6.13077 0
M  V30 67268 N 6704.66 -1.40601 -0.711986 0
M  V30 67269 C 6705.91 -1.39073 -1.4719 0
M  V30 67270 C 6706.24 0.00573634 -1.94499 0
M  V30 67271 O 6705.49 0.990931 -1.68757 0
M  V30 67272 C 6705.79 -2.32979 -2.71027 0
M  V30 67273 C 6705.46 -3.80161 -2.42464 0
M  V30 67274 C 6704.12 -4.20259 -2.34384 0
M  V30 67275 C 6706.47 -4.73155 -2.18573 0
M  V30 67276 C 6703.8 -5.51382 -2.00487 0
M  V30 67277 C 6706.15 -6.0458 -1.86188 0
M  V30 67278 C 6704.81 -6.43717 -1.76592 0
M  V30 67279 H 6704.08 -0.508905 -0.538607 0
M  V30 67280 H 6706.73 -1.73281 -0.815233 0
M  V30 67281 H 6705.04 -1.91969 -3.41548 0
M  V30 67282 H 6706.73 -2.29079 -3.29126 0
M  V30 67283 H 6703.32 -3.48393 -2.4964 0
M  V30 67284 H 6707.51 -4.42991 -2.23769 0
M  V30 67285 H 6702.76 -5.80603 -1.91598 0
M  V30 67286 H 6706.94 -6.7615 -1.66717 0
M  V30 67287 H 6704.56 -7.45235 -1.50094 0
M  V30 67288 N 6706.14 0.944576 -1.26157 0
M  V30 67289 C 6707.39 1.69288 -1.11666 0
M  V30 67290 C 6707.72 1.91204 0.339825 0
M  V30 67291 O 6706.99 1.49025 1.24987 0
M  V30 67292 C 6707.28 3.06974 -1.88253 0
M  V30 67293 C 6707.13 2.92406 -3.41788 0
M  V30 67294 C 6708.45 4.07035 -1.67364 0
M  V30 67295 H 6705.57 0.614402 -0.407037 0
M  V30 67296 H 6708.21 1.09729 -1.55111 0
M  V30 67297 H 6706.36 3.57816 -1.51327 0
M  V30 67298 H 6708.03 2.48812 -3.88446 0
M  V30 67299 H 6706.27 2.28105 -3.68986 0
M  V30 67300 H 6706.95 3.90046 -3.906 0
M  V30 67301 H 6709.42 3.65141 -1.99528 0
M  V30 67302 H 6708.3 5.01394 -2.23372 0
M  V30 67303 H 6708.56 4.37768 -0.617389 0
M  V30 67304 N 6707.62 1.07905 1.14866 0
M  V30 67305 C 6708.85 0.82693 1.89656 0
M  V30 67306 C 6709.26 -0.620425 1.78315 0
M  V30 67307 O 6708.62 -1.42598 1.13895 0
M  V30 67308 C 6708.67 1.23334 3.3981 0
M  V30 67309 O 6708.39 2.62391 3.50831 0
M  V30 67310 C 6709.89 1.01133 4.3161 0
M  V30 67311 H 6707.11 0.298588 0.600904 0
M  V30 67312 H 6709.65 1.43699 1.45502 0
M  V30 67313 H 6707.81 0.667487 3.81606 0
M  V30 67314 H 6708.22 2.79124 4.44061 0
M  V30 67315 H 6709.7 1.34514 5.3536 0
M  V30 67316 H 6710.17 -0.0519853 4.39169 0
M  V30 67317 H 6710.78 1.56236 3.95563 0
M  V30 67318 N 6709.1 -1.31808 0.863975 0
M  V30 67319 C 6710.34 -1.97608 0.481945 0
M  V30 67320 C 6710.7 -1.67085 -0.95396 0
M  V30 67321 O 6709.99 -0.953711 -1.66177 0
M  V30 67322 C 6710.18 -3.51088 0.668732 0
M  V30 67323 C 6710.01 -3.96527 2.12124 0
M  V30 67324 C 6708.78 -4.23157 2.76164 0
M  V30 67325 C 6710.98 -4.10909 3.09287 0
M  V30 67326 N 6708.96 -4.54907 4.12229 0
M  V30 67327 C 6710.33 -4.46303 4.30365 0
M  V30 67328 C 6712.39 -3.9327 3.05357 0
M  V30 67329 C 6711.09 -4.65899 5.48024 0
M  V30 67330 C 6713.12 -4.14056 4.2227 0
M  V30 67331 C 6712.48 -4.49775 5.42109 0
M  V30 67332 H 6708.58 -0.748849 0.225277 0
M  V30 67333 H 6711.16 -1.59449 1.11732 0
M  V30 67334 H 6709.33 -3.88349 0.0629946 0
M  V30 67335 H 6711.07 -4.03892 0.25568 0
M  V30 67336 H 6707.82 -4.15573 2.27147 0
M  V30 67337 H 6708.24 -4.74952 4.82441 0
M  V30 67338 H 6712.89 -3.64748 2.1382 0
M  V30 67339 H 6710.6 -4.93271 6.40085 0
M  V30 67340 H 6714.19 -4.019 4.20675 0
M  V30 67341 H 6713.07 -4.65534 6.31069 0
M  V30 67342 N 6710.57 -0.622821 -1.44771 0
M  V30 67343 C 6711.82 -0.121503 -2.01334 0
M  V30 67344 C 6712.14 1.26117 -1.49512 0
M  V30 67345 O 6713.34 1.85605 -1.98149 0
M  V30 67346 C 6711.8 -0.166488 -3.59515 0
M  V30 67347 C 6711.41 -1.54996 -4.20333 0
M  V30 67348 C 6713.15 0.278797 -4.23583 0
M  V30 67349 C 6711.06 -1.55051 -5.70713 0
M  V30 67350 H 6709.99 -0.0416569 -0.752848 0
M  V30 67351 H 6712.64 -0.780397 -1.66078 0
M  V30 67352 H 6711.02 0.55935 -3.9203 0
M  V30 67353 H 6712.19 -2.29872 -3.99369 0
M  V30 67354 H 6710.51 -1.93862 -3.68519 0
M  V30 67355 H 6713.11 0.297802 -5.3387 0
M  V30 67356 H 6713.45 1.3045 -3.95333 0
M  V30 67357 H 6713.98 -0.394272 -3.95841 0
M  V30 67358 H 6710.72 -2.5543 -6.03685 0
M  V30 67359 H 6710.24 -0.844558 -5.93824 0
M  V30 67360 H 6711.92 -1.2808 -6.34196 0
M  V30 67361 N 6712.05 1.53366 -0.362871 0
M  V30 67362 C 6712.96 2.29364 0.492873 0
M  V30 67363 C 6713.98 1.35225 1.095 0
M  V30 67364 O 6715.15 1.68279 1.10653 0
M  V30 67365 C 6712.22 3.06609 1.61839 0
M  V30 67366 C 6711.28 4.1641 1.04407 0
M  V30 67367 C 6710.51 4.89962 2.11596 0
M  V30 67368 O 6710.74 4.63351 3.3266 0
M  V30 67369 O 6709.67 5.75957 1.74805 0
M  V30 67370 H 6713.5 3.03441 -0.125491 0
M  V30 67371 H 6711.08 1.48856 -0.127332 0
M  V30 67372 H 6712.96 3.54853 2.27283 0
M  V30 67373 H 6711.64 2.35371 2.22221 0
M  V30 67374 H 6710.55 3.72425 0.353623 0
M  V30 67375 H 6711.88 4.89806 0.484855 0
M  V30 67376 N 6713.53 0.0919683 1.57331 0
M  V30 67377 C 6714.78 -0.571344 1.93856 0
M  V30 67378 C 6715.1 -1.68915 0.974301 0
M  V30 67379 O 6714.37 -1.95883 0.0258287 0
M  V30 67380 H 6712.95 -0.214044 0.715677 0
M  V30 67381 H 6715.61 0.154566 1.94286 0
M  V30 67382 H 6714.71 -0.983573 2.96196 0
M  V30 67383 N 6715.01 -1.56549 -0.18171 0
M  V30 67384 C 6715.94 -1.90686 -1.25356 0
M  V30 67385 C 6716.92 -0.768451 -1.43295 0
M  V30 67386 O 6718.1 -1.02076 -1.5847 0
M  V30 67387 C 6715.23 -2.14874 -2.61815 0
M  V30 67388 C 6714.28 -3.3757 -2.6067 0
M  V30 67389 S 6715.11 -4.92273 -2.10778 0
M  V30 67390 C 6716.27 -5.19544 -3.49035 0
M  V30 67391 H 6716.5 -2.81301 -0.962128 0
M  V30 67392 H 6714.03 -1.49502 -0.385813 0
M  V30 67393 H 6715.99 -2.29491 -3.40359 0
M  V30 67394 H 6714.65 -1.24985 -2.88163 0
M  V30 67395 H 6713.84 -3.51662 -3.6104 0
M  V30 67396 H 6713.45 -3.22016 -1.90215 0
M  V30 67397 H 6715.74 -5.10884 -4.44976 0
M  V30 67398 H 6716.68 -6.21228 -3.39826 0
M  V30 67399 H 6717.09 -4.4714 -3.44566 0
M  V30 67400 N 6716.49 0.449904 -1.51042 0
M  V30 67401 C 6717.42 1.56466 -1.66114 0
M  V30 67402 C 6718.4 1.54433 -0.508857 0
M  V30 67403 O 6719.58 1.73745 -0.731097 0
M  V30 67404 C 6716.71 2.95052 -1.6632 0
M  V30 67405 C 6715.75 3.15159 -2.87363 0
M  V30 67406 S 6716.59 2.92794 -4.48366 0
M  V30 67407 C 6717.74 4.33684 -4.51297 0
M  V30 67408 H 6717.98 1.43445 -2.60405 0
M  V30 67409 H 6715.51 0.638731 -1.40569 0
M  V30 67410 H 6717.47 3.7494 -1.67122 0
M  V30 67411 H 6716.13 3.05445 -0.732269 0
M  V30 67412 H 6715.32 4.16453 -2.83871 0
M  V30 67413 H 6714.92 2.43076 -2.84236 0
M  V30 67414 H 6717.22 5.26679 -4.26164 0
M  V30 67415 H 6718.16 4.42213 -5.5304 0
M  V30 67416 H 6718.57 4.16752 -3.8076 0
M  V30 67417 N 6717.96 1.40976 0.704519 0
M  V30 67418 C 6719.38 1.23249 1.01399 0
M  V30 67419 C 6719.58 0.115505 2.01169 0
M  V30 67420 O 6718.64 -0.523017 2.47024 0
M  V30 67421 C 6719.95 2.57845 1.54715 0
M  V30 67422 C 6721.5 2.64951 1.66644 0
M  V30 67423 C 6721.97 3.99842 2.23362 0
M  V30 67424 N 6723.46 4.01641 2.30734 0
M  V30 67425 C 6724.2 5.02809 2.75628 0
M  V30 67426 N 6723.69 6.14369 3.20192 0
M  V30 67427 N 6725.49 4.90173 2.75112 0
M  V30 67428 H 6717.64 2.12356 0.0434165 0
M  V30 67429 H 6719.9 0.94446 0.0818453 0
M  V30 67430 H 6719.61 3.40288 0.888652 0
M  V30 67431 H 6719.48 2.79707 2.53069 0
M  V30 67432 H 6721.87 1.82872 2.31607 0
M  V30 67433 H 6721.95 2.46908 0.668587 0
M  V30 67434 H 6721.59 4.82365 1.59017 0
M  V30 67435 H 6721.52 4.1522 3.23882 0
M  V30 67436 H 6724.01 3.21089 1.99274 0
M  V30 67437 H 6724.33 6.87442 3.53048 0
M  V30 67438 H 6722.67 6.17918 3.18124 0
M  V30 67439 H 6725.86 4.02108 2.39639 0
M  V30 67440 H 6726.04 5.69157 3.09782 0
M  V30 67441 N 6719.44 -0.937872 1.26656 0
M  V30 67442 C 6720.39 -2.05839 1.08319 0
M  V30 67443 C 6721.38 -1.69398 0.00916503 0
M  V30 67444 O 6722.59 -1.79232 0.166102 0
M  V30 67445 H 6718.97 -0.674028 0.333452 0
M  V30 67446 H 6720.94 -2.18456 2.03272 0
M  V30 67447 C 6719.69 -3.39812 0.736408 0
M  V30 67448 H 6719.01 -3.68332 1.55472 0
M  V30 67449 H 6720.45 -4.1902 0.647911 0
M  V30 67450 C 6718.91 -3.32236 -0.558648 0
M  V30 67451 O 6719.44 -3.68633 -1.59602 0
M  V30 67452 N 6717.64 -2.85338 -0.550507 0
M  V30 67453 H 6717.19 -2.55916 0.294078 0
M  V30 67454 H 6717.15 -2.80651 -1.41711 0
M  V30 67455 N 6720.92 -1.08513 -1.14292 0
M  V30 67456 C 6721.87 -0.7106 -2.2148 0
M  V30 67457 C 6722.86 0.284146 -1.67 0
M  V30 67458 O 6724.07 0.146597 -1.79402 0
M  V30 67459 H 6720.44 -0.211767 -0.721567 0
M  V30 67460 H 6722.41 -1.62397 -2.50339 0
M  V30 67461 C 6721.16 -0.13719 -3.47429 0
M  V30 67462 H 6720.49 -0.893798 -3.89681 0
M  V30 67463 H 6721.93 0.0870553 -4.23911 0
M  V30 67464 C 6720.39 1.12521 -3.17554 0
M  V30 67465 O 6720.92 2.20992 -3.35448 0
M  V30 67466 N 6719.12 1.03603 -2.71505 0
M  V30 67467 H 6718.67 0.153267 -2.57144 0
M  V30 67468 H 6718.63 1.88145 -2.51891 0
M  V30 67469 O 6722.44 1.2646 -1.00449 0
M  V30 67470 H 6723.13 1.82138 -0.65921 0
M  V30 END ATOM
M  V30 BEGIN BOND
M  V30 END BOND
M  V30 END CTAB
M  END
$$$$
