drugbank_target|P08514 Integrin alpha-IIb (DB00054; DB00775; DB04863; DB06472)
 OpenBabel12092119323D

  0  0  0     0  0            999 V3000
M  V30 BEGIN CTAB
M  V30 COUNTS 15857 16058 0 0 0
M  V30 BEGIN ATOM
M  V30 1 H -0.908 1.98254 -0.117106 0
M  V30 2 N 0 1.576 0 0
M  V30 3 C 0.933 2.03868 1.02534 0
M  V30 4 C 1.911 0.928543 1.3348 0
M  V30 5 O 3.095 1.19667 1.45644 0
M  V30 6 C 0.222 2.43627 2.35294 0
M  V30 7 C -0.732 3.65373 2.2001 0
M  V30 8 S 0.101 5.13292 1.52614 0
M  V30 9 C 1.257 5.56322 2.86805 0
M  V30 10 H 1.49 2.90518 0.631377 0
M  V30 11 H -0.977 1.52953 0.210867 0
M  V30 12 H 0.981 2.67203 3.11629 0
M  V30 13 H -0.358 1.57376 2.7183 0
M  V30 14 H -1.165 3.90944 3.18086 0
M  V30 15 H -1.563 3.418 1.51819 0
M  V30 16 H 0.729 5.58782 3.83104 0
M  V30 17 H 1.672 6.56266 2.65933 0
M  V30 18 H 2.08 4.83886 2.90714 0
M  V30 19 N 1.4781 -0.272755 1.55222 0
M  V30 20 C 2.4411 -1.32041 1.87344 0
M  V30 21 C 3.4411 -1.42342 0.74803 0
M  V30 22 O 4.6311 -1.41488 1.0162 0
M  V30 23 C 1.7631 -2.70173 2.07893 0
M  V30 24 H 2.9561 -1.04789 2.80997 0
M  V30 25 H 0.5091 -0.51083 1.47717 0
M  V30 26 H 1.2441 -3.02605 1.16622 0
M  V30 27 H 1.0291 -2.64082 2.89833 0
M  V30 28 H 2.5191 -3.45869 2.34017 0
M  V30 29 N 2.9562 -1.48159 -0.537278 0
M  V30 30 C 4.3722 -1.34118 -0.865129 0
M  V30 31 C 4.5722 -0.346678 -1.98495 0
M  V30 32 O 3.6282 0.234715 -2.51407 0
M  V30 33 C 4.9412 -2.73963 -1.23954 0
M  V30 34 C 6.4892 -2.82397 -1.34984 0
M  V30 35 C 6.9642 -4.22928 -1.75772 0
M  V30 36 N 8.4552 -4.25566 -1.82887 0
M  V30 37 C 9.1902 -5.31235 -2.15817 0
M  V30 38 N 8.6862 -6.47189 -2.47222 0
M  V30 39 N 10.4792 -5.18624 -2.16761 0
M  V30 40 H 2.6302 -2.1144 0.201715 0
M  V30 41 H 4.8932 -0.947598 0.0275949 0
M  V30 42 H 4.5992 -3.48264 -0.490381 0
M  V30 43 H 4.4732 -3.0702 -2.19132 0
M  V30 44 H 6.8602 -2.08356 -2.08978 0
M  V30 45 H 6.9412 -2.5297 -0.379448 0
M  V30 46 H 6.5852 -4.97482 -1.02341 0
M  V30 47 H 6.5152 -4.49794 -2.73848 0
M  V30 48 H 9.0062 -3.41924 -1.60924 0
M  V30 49 H 9.3192 -7.23564 -2.71433 0
M  V30 50 H 7.6642 -6.50476 -2.44757 0
M  V30 51 H 10.8552 -4.27056 -1.91679 0
M  V30 52 H 11.0282 -6.01078 -2.42093 0
M  V30 53 N 4.4343 0.785586 -1.36625 0
M  V30 54 C 5.3973 1.87999 -1.31107 0
M  V30 55 C 6.3973 1.59316 -0.217959 0
M  V30 56 O 7.5873 1.67656 -0.472977 0
M  V30 57 C 4.7193 3.24861 -1.03334 0
M  V30 58 H 5.9123 1.94307 -2.2844 0
M  V30 59 H 3.4653 0.983813 -1.21453 0
M  V30 60 H 4.2003 3.24235 -0.0647432 0
M  V30 61 H 3.9853 3.4707 -1.82441 0
M  V30 62 H 5.4753 4.04929 -1.02088 0
M  V30 63 N 5.9124 1.20967 1.01018 0
M  V30 64 C 6.8424 0.988272 2.11555 0
M  V30 65 C 7.8234 -0.0849778 1.69888 0
M  V30 66 O 9.0084 0.0738202 1.9406 0
M  V30 67 C 6.1384 0.546528 3.42973 0
M  V30 68 C 5.0924 1.56375 3.9841 0
M  V30 69 C 4.4184 0.97842 5.25672 0
M  V30 70 C 5.7184 2.94922 4.31066 0
M  V30 71 H 7.4124 1.91276 2.30334 0
M  V30 72 H 4.9584 0.921073 1.1069 0
M  V30 73 H 6.9114 0.378839 4.19694 0
M  V30 74 H 5.6354 -0.413598 3.23971 0
M  V30 75 H 4.2944 1.71891 3.23804 0
M  V30 76 H 3.9424 0.0101688 5.02999 0
M  V30 77 H 3.6424 1.65784 5.63728 0
M  V30 78 H 5.1664 0.821939 6.05043 0
M  V30 79 H 6.5804 2.8288 4.9865 0
M  V30 80 H 4.9774 3.5983 4.80253 0
M  V30 81 H 6.0474 3.4616 3.39561 0
M  V30 82 N 7.3905 -1.2043 1.01659 0
M  V30 83 C 8.6305 -1.91507 0.714456 0
M  V30 84 C 8.9945 -1.77073 -0.742237 0
M  V30 85 O 10.1955 -2.42631 -1.15688 0
M  V30 86 C 8.4665 -3.38795 1.13809 0
M  V30 87 S 10.0255 -4.28216 0.957925 0
M  V30 88 H 6.8435 -0.661571 0.260471 0
M  V30 89 H 9.4455 -1.45671 1.30384 0
M  V30 90 H 8.1495 -3.46822 2.19415 0
M  V30 91 H 7.6805 -3.89656 0.541474 0
M  V30 92 H 9.6955 -4.96007 -0.138531 0
M  V30 93 N 8.8686 -0.792821 -1.36206 0
M  V30 94 C 10.2796 -0.429513 -1.81692 0
M  V30 95 C 10.6306 1.04695 -1.65932 0
M  V30 96 O 9.7556 1.81256 -1.18218 0
M  V30 97 C 10.3506 -0.772831 -3.29868 0
M  V30 98 C 8.9096 -0.462307 -3.7355 0
M  V30 99 C 8.0566 -1.00569 -2.5842 0
M  V30 100 H 11.0076 -0.985672 -1.24379 0
M  V30 101 H 11.0286 -0.0651928 -3.80444 0
M  V30 102 H 10.5406 -1.84747 -3.41307 0
M  V30 103 H 8.6416 0.604158 -3.67669 0
M  V30 104 H 8.7546 -0.985299 -4.68859 0
M  V30 105 H 7.1186 -0.428734 -2.51066 0
M  V30 106 H 7.9016 -2.08616 -2.72643 0
M  V30 107 N 10.3467 1.47872 -0.545128 0
M  V30 108 C 11.2767 2.32661 0.197793 0
M  V30 109 C 12.2577 1.43041 0.920504 0
M  V30 110 O 13.4427 1.71912 0.90333 0
M  V30 111 C 10.5727 3.24569 1.23582 0
M  V30 112 C 9.5267 4.23333 0.630323 0
M  V30 113 C 8.8527 5.0448 1.77211 0
M  V30 114 C 10.1527 5.20704 -0.407974 0
M  V30 115 H 11.8467 2.95024 -0.510045 0
M  V30 116 H 9.3927 1.4187 -0.246731 0
M  V30 117 H 11.3457 3.8272 1.76362 0
M  V30 118 H 10.0697 2.60236 1.97344 0
M  V30 119 H 8.7287 3.6639 0.123922 0
M  V30 120 H 8.3767 4.36561 2.49847 0
M  V30 121 H 8.0767 5.71339 1.37281 0
M  V30 122 H 9.6007 5.65487 2.3034 0
M  V30 123 H 11.0147 5.7329 0.033305 0
M  V30 124 H 9.4117 5.95699 -0.725486 0
M  V30 125 H 10.4817 4.66917 -1.30828 0
M  V30 126 N 11.8248 0.280983 1.55075 0
M  V30 127 C 12.7568 -0.637268 2.20163 0
M  V30 128 C 13.7698 -1.11298 1.18813 0
M  V30 129 O 14.9588 -1.03388 1.4551 0
M  V30 130 C 12.0588 -1.88199 2.81841 0
M  V30 131 C 11.2318 -1.55211 4.08936 0
M  V30 132 C 10.2908 -2.64991 4.54606 0
M  V30 133 O 9.3168 -2.30929 5.2025 0
M  V30 134 N 10.5188 -3.95161 4.25238 0
M  V30 135 H 13.2838 -0.0801694 2.99593 0
M  V30 136 H 10.8448 0.102329 1.61576 0
M  V30 137 H 12.8368 -2.60948 3.09335 0
M  V30 138 H 11.4068 -2.34799 2.06369 0
M  V30 139 H 10.6268 -0.658185 3.88666 0
M  V30 140 H 11.9148 -1.30681 4.91732 0
M  V30 141 H 11.3128 -4.25653 3.72607 0
M  V30 142 H 9.8698 -4.6427 4.5749 0
M  V30 143 N 13.3029 -1.57598 0.00835791 0
M  V30 144 C 14.2659 -2.07884 -0.965242 0
M  V30 145 C 15.2659 -0.989825 -1.26725 0
M  V30 146 O 16.4559 -1.25218 -1.21104 0
M  V30 147 C 13.5879 -2.52731 -2.28779 0
M  V30 148 H 14.7809 -2.95178 -0.530112 0
M  V30 149 H 12.3339 -1.54458 -0.239283 0
M  V30 150 H 13.0689 -1.68705 -2.76964 0
M  V30 151 H 12.8539 -3.32272 -2.08177 0
M  V30 152 H 14.3439 -2.91933 -2.98605 0
M  V30 153 N 14.781 0.264519 -1.55364 0
M  V30 154 C 15.711 1.33121 -1.91836 0
M  V30 155 C 16.692 1.51101 -0.781192 0
M  V30 156 O 17.877 1.64003 -1.04003 0
M  V30 157 C 15.007 2.68921 -2.19769 0
M  V30 158 C 13.961 2.65661 -3.35571 0
M  V30 159 C 13.287 4.05093 -3.49004 0
M  V30 160 C 14.587 2.24187 -4.71739 0
M  V30 161 H 16.281 1.02844 -2.81182 0
M  V30 162 H 13.827 0.493286 -1.35287 0
M  V30 163 H 15.78 3.43663 -2.43872 0
M  V30 164 H 14.504 3.00799 -1.27231 0
M  V30 165 H 13.163 1.93377 -3.1145 0
M  V30 166 H 12.811 4.34206 -2.53917 0
M  V30 167 H 12.511 4.03804 -4.26868 0
M  V30 168 H 14.035 4.81561 -3.75408 0
M  V30 169 H 15.449 2.88654 -4.9533 0
M  V30 170 H 13.846 2.34044 -5.52579 0
M  V30 171 H 14.916 1.19327 -4.69988 0
M  V30 172 N 16.2591 1.48442 0.529413 0
M  V30 173 C 17.5051 1.57699 1.28463 0
M  V30 174 C 17.8601 0.247913 1.90796 0
M  V30 175 O 17.1531 -0.749279 1.76342 0
M  V30 176 C 17.3471 2.6523 2.39558 0
M  V30 177 C 17.1761 4.08464 1.88114 0
M  V30 178 C 15.9461 4.75596 1.70693 0
M  V30 179 C 18.1441 4.94613 1.40935 0
M  V30 180 N 16.1261 6.03245 1.13881 0
M  V30 181 C 17.4971 6.12511 0.960734 0
M  V30 182 C 19.5521 4.80833 1.29243 0
M  V30 183 C 18.2551 7.18149 0.406792 0
M  V30 184 C 20.2811 5.86593 0.752487 0
M  V30 185 C 19.6431 7.037 0.313946 0
M  V30 186 H 15.7421 0.631608 0.46108 0
M  V30 187 H 18.3261 1.85325 0.596886 0
M  V30 188 H 16.4971 2.39425 3.05827 0
M  V30 189 H 18.2291 2.64169 3.06589 0
M  V30 190 H 14.9841 4.31938 1.94232 0
M  V30 191 H 15.4081 6.71324 0.874831 0
M  V30 192 H 20.0501 3.90635 1.61754 0
M  V30 193 H 17.7681 8.0807 0.0693671 0
M  V30 194 H 21.3541 5.77985 0.665192 0
M  V30 195 H 20.2341 7.8414 -0.0973632 0
M  V30 196 N 17.7372 -0.778329 1.37039 0
M  V30 197 C 18.6672 -1.90546 1.34962 0
M  V30 198 C 19.6482 -1.68681 0.219274 0
M  V30 199 O 20.8332 -1.89634 0.418624 0
M  V30 200 C 17.9632 -3.27734 1.14925 0
M  V30 201 C 16.9172 -3.64147 2.24902 0
M  V30 202 C 16.2432 -4.99806 1.89996 0
M  V30 203 C 17.5432 -3.71579 3.67051 0
M  V30 204 H 19.2372 -1.92541 2.29277 0
M  V30 205 H 16.7832 -0.924948 1.10366 0
M  V30 206 H 18.7362 -4.06215 1.12104 0
M  V30 207 H 17.4602 -3.26154 0.170631 0
M  V30 208 H 16.1192 -2.8797 2.26868 0
M  V30 209 H 15.7672 -4.94759 0.906796 0
M  V30 210 H 15.4672 -5.25139 2.63634 0
M  V30 211 H 16.9912 -5.80694 1.88749 0
M  V30 212 H 18.4052 -4.40227 3.67251 0
M  V30 213 H 16.8022 -4.08405 4.39688 0
M  V30 214 H 17.8722 -2.72404 4.01154 0
M  V30 215 N 19.2153 -1.21501 -1.00376 0
M  V30 216 C 20.1453 -0.999478 -2.11028 0
M  V30 217 C 21.1263 0.0759671 -1.6993 0
M  V30 218 O 22.3113 -0.0841106 -1.94018 0
M  V30 219 C 19.4413 -0.564709 -3.42678 0
M  V30 220 C 18.3953 -1.58486 -3.97576 0
M  V30 221 C 17.7213 -1.00628 -5.25146 0
M  V30 222 C 19.0213 -2.97204 -4.29496 0
M  V30 223 H 20.7153 -1.92495 -2.29317 0
M  V30 224 H 18.2613 -0.92693 -1.102 0
M  V30 225 H 20.2143 -0.401091 -4.19487 0
M  V30 226 H 18.9383 0.396411 -3.24185 0
M  V30 227 H 17.5973 -1.73606 -3.22888 0
M  V30 228 H 17.2453 -0.0368439 -5.02987 0
M  V30 229 H 16.9453 -1.68771 -5.62841 0
M  V30 230 H 18.4693 -0.854015 -6.04598 0
M  V30 231 H 19.8833 -2.8552 -4.97143 0
M  V30 232 H 18.2803 -3.62372 -4.78338 0
M  V30 233 H 19.3503 -3.47956 -3.3772 0
M  V30 234 N 20.6934 1.19889 -1.02296 0
M  V30 235 C 21.6034 2.26571 -0.608508 0
M  V30 236 C 22.6194 1.70299 0.356964 0
M  V30 237 O 23.7954 2.00235 0.216326 0
M  V30 238 C 20.8604 3.46677 0.0402814 0
M  V30 239 C 19.9214 4.18153 -0.97194 0
M  V30 240 C 19.1544 5.32525 -0.354016 0
M  V30 241 O 19.3774 5.64112 0.844604 0
M  V30 242 O 18.3114 5.92242 -1.07391 0
M  V30 243 H 22.1374 2.64251 -1.49684 0
M  V30 244 H 19.7224 1.26629 -0.792809 0
M  V30 245 H 21.6044 4.19475 0.402324 0
M  V30 246 H 20.2794 3.10858 0.902707 0
M  V30 247 H 19.1864 3.47499 -1.38546 0
M  V30 248 H 20.5194 4.57927 -1.80454 0
M  V30 249 N 22.1715 0.800033 1.35784 0
M  V30 250 C 23.4175 0.38701 1.99684 0
M  V30 251 C 23.7725 -1.03268 1.62338 0
M  V30 252 O 23.0655 -1.70543 0.87325 0
M  V30 253 C 23.2595 0.500276 3.53881 0
M  V30 254 C 23.0885 1.92942 4.06206 0
M  V30 255 C 21.8585 2.55637 4.35865 0
M  V30 256 C 24.0565 2.89307 4.25213 0
M  V30 257 N 22.0385 3.9003 4.74078 0
M  V30 258 C 23.4095 4.08556 4.66349 0
M  V30 259 C 25.4645 2.86225 4.07406 0
M  V30 260 C 24.1675 5.25146 4.91543 0
M  V30 261 C 26.1935 4.02011 4.33752 0
M  V30 262 C 25.5555 5.20007 4.75155 0
M  V30 263 H 21.6545 0.189252 0.758754 0
M  V30 264 H 24.2385 1.03988 1.64604 0
M  V30 265 H 22.4095 -0.122568 3.88207 0
M  V30 266 H 24.1415 0.0624733 4.04652 0
M  V30 267 H 20.8965 2.07039 4.25948 0
M  V30 268 H 21.3205 4.59205 4.97454 0
M  V30 269 H 25.9625 1.96154 3.74544 0
M  V30 270 H 23.6805 6.15794 5.23281 0
M  V30 271 H 27.2665 4.00999 4.21534 0
M  V30 272 H 26.1465 6.08113 4.95145 0
M  V30 273 N 23.6496 -1.47581 0.552962 0
M  V30 274 C 24.8956 -2.02782 0.0273648 0
M  V30 275 C 25.2286 -1.42687 -1.31734 0
M  V30 276 O 24.5036 -0.580897 -1.85623 0
M  V30 277 C 24.7866 -3.60031 -0.0702371 0
M  V30 278 C 24.6396 -4.30566 1.30126 0
M  V30 279 C 25.9586 -4.33028 -0.785771 0
M  V30 280 H 23.0776 -0.736912 0.0114185 0
M  V30 281 H 25.7196 -1.76056 0.714432 0
M  V30 282 H 23.8696 -3.82932 -0.655382 0
M  V30 283 H 25.5416 -4.19018 1.92929 0
M  V30 284 H 23.7846 -3.91086 1.87709 0
M  V30 285 H 24.4556 -5.39114 1.18573 0
M  V30 286 H 26.9316 -4.15095 -0.288982 0
M  V30 287 H 25.8076 -5.42695 -0.823013 0
M  V30 288 H 26.0686 -4.01945 -1.841 0
M  V30 289 N 25.1277 -0.289203 -1.54924 0
M  V30 290 C 26.0577 0.58549 -2.2604 0
M  V30 291 C 27.0387 1.14753 -1.25562 0
M  V30 292 O 28.2237 1.17906 -1.54311 0
M  V30 293 C 25.3537 1.76305 -2.99222 0
M  V30 294 C 24.3077 1.33191 -4.06748 0
M  V30 295 C 23.6337 2.5937 -4.6758 0
M  V30 296 C 24.9337 0.471775 -5.20165 0
M  V30 297 H 26.6277 -0.00763532 -2.99399 0
M  V30 298 H 24.1737 -0.00511229 -1.43999 0
M  V30 299 H 26.1267 2.38097 -3.47689 0
M  V30 300 H 24.8507 2.38223 -2.23422 0
M  V30 301 H 23.5097 0.737121 -3.59113 0
M  V30 302 H 23.1577 3.19576 -3.88433 0
M  V30 303 H 22.8577 2.31228 -5.40192 0
M  V30 304 H 24.3817 3.21985 -5.18804 0
M  V30 305 H 25.7957 0.995056 -5.64599 0
M  V30 306 H 24.1927 0.284639 -5.99425 0
M  V30 307 H 25.2627 -0.506041 -4.82252 0
M  V30 308 N 26.6058 1.57591 -0.0167156 0
M  V30 309 C 27.5358 2.12496 0.967858 0
M  V30 310 C 28.5168 1.03807 1.34752 0
M  V30 311 O 29.7018 1.31577 1.42833 0
M  V30 312 C 26.8318 2.64194 2.25431 0
M  V30 313 C 25.7858 3.77559 2.01576 0
M  V30 314 C 25.1118 4.15636 3.36379 0
M  V30 315 C 26.4118 5.04151 1.36489 0
M  V30 316 H 28.1058 2.95013 0.510643 0
M  V30 317 H 25.6518 1.41915 0.244181 0
M  V30 318 H 27.6048 3.01236 2.94678 0
M  V30 319 H 26.3288 1.78821 2.73296 0
M  V30 320 H 24.9878 3.40937 1.34751 0
M  V30 321 H 24.6358 3.27263 3.81979 0
M  V30 322 H 24.3358 4.92022 3.21229 0
M  V30 323 H 25.8598 4.5525 4.06915 0
M  V30 324 H 27.2738 5.38857 1.95718 0
M  V30 325 H 25.6708 5.85453 1.31776 0
M  V30 326 H 26.7408 4.83733 0.336219 0
M  V30 327 N 28.0839 -0.256276 1.55502 0
M  V30 328 C 29.0139 -1.32102 1.92539 0
M  V30 329 C 29.9949 -1.50684 0.789194 0
M  V30 330 O 31.1799 -1.63449 1.04872 0
M  V30 331 C 28.3099 -2.67752 2.21192 0
M  V30 332 C 27.2639 -2.63878 3.36975 0
M  V30 333 C 26.5899 -4.03236 3.51147 0
M  V30 334 C 27.8899 -2.21682 4.72921 0
M  V30 335 H 29.5839 -1.01351 2.81724 0
M  V30 336 H 27.1299 -0.486105 1.35547 0
M  V30 337 H 29.0829 -3.42365 2.45691 0
M  V30 338 H 27.8069 -3.0012 1.28824 0
M  V30 339 H 26.4659 -1.91722 3.12471 0
M  V30 340 H 26.1139 -4.32854 2.56216 0
M  V30 341 H 25.8139 -4.01535 4.29003 0
M  V30 342 H 27.3379 -4.79563 3.77957 0
M  V30 343 H 28.7519 -2.86023 4.96854 0
M  V30 344 H 27.1489 -2.3111 5.53812 0
M  V30 345 H 28.2189 -1.16833 4.70615 0
M  V30 346 N 29.562 -1.4872 -0.521534 0
M  V30 347 C 30.492 -1.66771 -1.63431 0
M  V30 348 C 31.473 -0.516499 -1.62069 0
M  V30 349 O 32.658 -0.750013 -1.79132 0
M  V30 350 C 29.788 -1.71515 -3.01993 0
M  V30 351 C 28.742 -2.86222 -3.18216 0
M  V30 352 C 28.068 -2.76061 -4.57924 0
M  V30 353 C 29.368 -4.27419 -3.00184 0
M  V30 354 H 31.062 -2.59932 -1.48579 0
M  V30 355 H 28.608 -1.25089 -0.713358 0
M  V30 356 H 30.561 -1.82731 -3.7972 0
M  V30 357 H 29.285 -0.749393 -3.17886 0
M  V30 358 H 27.944 -2.74575 -2.42908 0
M  V30 359 H 27.592 -1.77437 -4.70665 0
M  V30 360 H 27.292 -3.53037 -4.69722 0
M  V30 361 H 28.816 -2.89256 -5.37739 0
M  V30 362 H 30.23 -4.39855 -3.67697 0
M  V30 363 H 28.627 -5.05458 -3.2347 0
M  V30 364 H 29.697 -4.43293 -1.96518 0
M  V30 365 N 31.0401 0.771051 -1.3745 0
M  V30 366 C 32.2881 1.52661 -1.32435 0
M  V30 367 C 32.6091 1.9479 0.0905024 0
M  V30 368 O 31.8791 1.66348 1.03466 0
M  V30 369 H 30.4591 0.566218 -0.487244 0
M  V30 370 H 33.1211 0.917636 -1.71946 0
M  V30 371 H 32.2171 2.42568 -1.96385 0
M  V30 372 N 32.5182 1.22032 0.997298 0
M  V30 373 C 33.9292 1.0397 1.55071 0
M  V30 374 C 34.2802 -0.398192 1.92117 0
M  V30 375 O 33.4052 -1.28254 1.74298 0
M  V30 376 C 34.0002 1.88109 2.81781 0
M  V30 377 C 32.5592 1.74357 3.33581 0
M  V30 378 C 31.7062 1.84846 2.06706 0
M  V30 379 H 34.6572 1.35941 0.818883 0
M  V30 380 H 34.6782 1.39589 3.53971 0
M  V30 381 H 34.1902 2.92754 2.54787 0
M  V30 382 H 32.2912 0.72427 3.65493 0
M  V30 383 H 32.4042 2.56772 4.04481 0
M  V30 384 H 30.7682 1.28238 2.20062 0
M  V30 385 H 31.5512 2.91014 1.82114 0
M  V30 386 N 33.9963 -1.19345 1.0293 0
M  V30 387 C 35.2363 -1.90738 0.734727 0
M  V30 388 C 35.6003 -1.7785 -0.723414 0
M  V30 389 O 36.8013 -2.43844 -1.13108 0
M  V30 390 C 35.0723 -3.37569 1.17396 0
M  V30 391 S 36.6313 -4.27176 1.00329 0
M  V30 392 H 33.4493 -0.658771 0.267474 0
M  V30 393 H 36.0513 -1.4428 1.31922 0
M  V30 394 H 34.7553 -3.44475 2.23081 0
M  V30 395 H 34.2863 -3.8906 0.582772 0
M  V30 396 H 36.3013 -4.96126 -0.0859152 0
M  V30 397 N 35.4744 -0.807222 -1.35358 0
M  V30 398 C 36.4374 -0.223665 -2.28106 0
M  V30 399 C 37.4374 0.589354 -1.4961 0
M  V30 400 O 38.6274 0.407745 -1.69361 0
M  V30 401 C 35.7594 0.688149 -3.33882 0
M  V30 402 H 36.9524 -1.04169 -2.81227 0
M  V30 403 H 34.5054 -0.577921 -1.45223 0
M  V30 404 H 35.2404 1.52984 -2.85948 0
M  V30 405 H 35.0254 0.10687 -3.91954 0
M  V30 406 H 36.5154 1.09075 -4.03104 0
M  V30 407 N 36.9525 1.47285 -0.560781 0
M  V30 408 C 37.9155 2.28535 0.174488 0
M  V30 409 C 38.9155 1.37153 0.839388 0
M  V30 410 O 40.1055 1.59748 0.694702 0
M  V30 411 C 37.2375 3.16934 1.25561 0
M  V30 412 H 38.4305 2.95012 -0.539262 0
M  V30 413 H 35.9835 1.53034 -0.317865 0
M  V30 414 H 36.7185 2.55157 2.00164 0
M  V30 415 H 36.5035 3.8419 0.783604 0
M  V30 416 H 37.9935 3.78143 1.77193 0
M  V30 417 N 38.4306 0.297415 1.54768 0
M  V30 418 C 39.8416 -0.195947 1.85669 0
M  V30 419 C 40.1926 -1.53707 1.21937 0
M  V30 420 O 39.3176 -2.10164 0.515754 0
M  V30 421 C 39.9126 -0.362318 3.36857 0
M  V30 422 C 38.4716 -0.799901 3.67802 0
M  V30 423 C 37.6186 0.0938578 2.77141 0
M  V30 424 H 40.5696 0.518538 1.4999 0
M  V30 425 H 40.5906 -1.19745 3.61167 0
M  V30 426 H 40.1026 0.613921 3.83214 0
M  V30 427 H 38.2036 -1.78682 3.26961 0
M  V30 428 H 38.3166 -0.621773 4.75048 0
M  V30 429 H 36.6806 -0.426254 2.51108 0
M  V30 430 H 37.4636 1.06639 3.26318 0
M  V30 431 N 39.9087 -1.5758 0.0250728 0
M  V30 432 C 41.3197 -1.79476 -0.514323 0
M  V30 433 C 41.6707 -0.934956 -1.72491 0
M  V30 434 O 40.7957 -0.144245 -2.15919 0
M  V30 435 C 41.3907 -3.25503 -0.939842 0
M  V30 436 C 39.9497 -3.48408 -1.42438 0
M  V30 437 C 39.0967 -2.74583 -0.387201 0
M  V30 438 H 42.0477 -1.567 0.25113 0
M  V30 439 H 42.0687 -3.34992 -1.80445 0
M  V30 440 H 41.5807 -3.88056 -0.0585628 0
M  V30 441 H 39.6817 -2.91103 -2.32572 0
M  V30 442 H 39.7947 -4.57119 -1.43455 0
M  V30 443 H 38.1587 -2.39942 -0.854409 0
M  V30 444 H 38.9417 -3.39849 0.485543 0
M  V30 445 N 41.3868 0.248026 -1.55636 0
M  V30 446 C 42.3498 1.29044 -1.89421 0
M  V30 447 C 43.3498 1.41134 -0.770581 0
M  V30 448 O 44.5398 1.39854 -1.03858 0
M  V30 449 C 41.6718 2.66831 -2.12165 0
M  V30 450 H 42.8648 1.00305 -2.82629 0
M  V30 451 H 40.4178 0.487265 -1.48511 0
M  V30 452 H 41.1528 3.00711 -1.21422 0
M  V30 453 H 40.9378 2.59438 -2.93997 0
M  V30 454 H 42.4278 3.42103 -2.3949 0
M  V30 455 N 42.8649 1.48995 0.513639 0
M  V30 456 C 44.1109 1.59053 1.26783 0
M  V30 457 C 44.4659 0.268136 1.90522 0
M  V30 458 O 43.7589 -0.730534 1.77126 0
M  V30 459 C 43.9529 2.67756 2.36731 0
M  V30 460 C 43.7819 4.10437 1.83771 0
M  V30 461 C 42.5519 4.7738 1.65639 0
M  V30 462 C 44.7499 4.9608 1.35681 0
M  V30 463 N 42.7319 6.04419 1.07476 0
M  V30 464 C 44.1029 6.13496 0.895715 0
M  V30 465 C 46.1579 4.82177 1.24136 0
M  V30 466 C 44.8609 7.1854 0.3306 0
M  V30 467 C 46.8869 5.87358 0.690229 0
M  V30 468 C 46.2489 7.03993 0.239292 0
M  V30 469 H 42.3479 0.636463 0.454355 0
M  V30 470 H 44.9319 1.85948 0.577196 0
M  V30 471 H 43.1029 2.42655 3.03271 0
M  V30 472 H 44.8349 2.67406 3.0377 0
M  V30 473 H 41.5899 4.33974 1.8964 0
M  V30 474 H 42.0139 6.72214 0.803579 0
M  V30 475 H 46.6559 3.92329 1.57601 0
M  V30 476 H 44.3739 8.08098 -0.0163435 0
M  V30 477 H 47.9599 5.78658 0.603852 0
M  V30 478 H 46.8399 7.83992 -0.180526 0
M  V30 479 N 44.343 -0.763751 1.37857 0
M  V30 480 C 45.306 -1.85889 1.34081 0
M  V30 481 C 46.306 -1.58949 0.243277 0
M  V30 482 O 47.496 -1.66882 0.499589 0
M  V30 483 C 44.628 -3.23176 1.08489 0
M  V30 484 H 45.821 -1.90648 2.31502 0
M  V30 485 H 43.374 -0.964367 1.23003 0
M  V30 486 H 44.109 -3.24091 0.116318 0
M  V30 487 H 43.894 -3.44124 1.8794 0
M  V30 488 H 45.384 -4.03254 1.08517 0
M  V30 489 N 45.8211 -1.22559 -0.990812 0
M  V30 490 C 46.7511 -1.0218 -2.09956 0
M  V30 491 C 47.7321 0.0579394 -1.70001 0
M  V30 492 O 48.9171 -0.104684 -1.93918 0
M  V30 493 C 46.0471 -0.601023 -3.4206 0
M  V30 494 C 45.0011 -1.62694 -3.95872 0
M  V30 495 C 44.3271 -1.06193 -5.24049 0
M  V30 496 C 45.6271 -3.01743 -4.2632 0
M  V30 497 H 47.3211 -1.94916 -2.27262 0
M  V30 498 H 44.8671 -0.938566 -1.09211 0
M  V30 499 H 46.8201 -0.445561 -4.19038 0
M  V30 500 H 45.5441 0.362005 -3.24588 0
M  V30 501 H 44.2031 -1.77021 -3.21028 0
M  V30 502 H 43.8511 -0.0901903 -5.02919 0
M  V30 503 H 43.5511 -1.74732 -5.61019 0
M  V30 504 H 45.0751 -0.918092 -6.03658 0
M  V30 505 H 46.4891 -2.90777 -4.94087 0
M  V30 506 H 44.8861 -3.67425 -4.74467 0
M  V30 507 H 45.9561 -3.51518 -3.34011 0
M  V30 508 N 47.2992 1.18797 -1.03562 0
M  V30 509 C 48.2472 2.24297 -0.615905 0
M  V30 510 C 49.2412 1.65643 0.354808 0
M  V30 511 O 50.4472 1.78618 0.22265 0
M  V30 512 H 46.8222 0.729909 -0.180934 0
M  V30 513 H 48.7932 2.5701 -1.5162 0
M  V30 514 C 47.5422 3.47698 0.0104735 0
M  V30 515 H 46.8652 3.93125 -0.727509 0
M  V30 516 H 48.3052 4.23159 0.266995 0
M  V30 517 C 46.7642 3.12489 1.25905 0
M  V30 518 O 47.2942 3.25761 2.35038 0
M  V30 519 N 45.5002 2.6686 1.15039 0
M  V30 520 H 45.0472 2.56261 0.262328 0
M  V30 521 H 45.0052 2.43674 1.98672 0
M  V30 522 N 48.7773 0.814389 1.34928 0
M  V30 523 C 49.7073 0.244827 2.32213 0
M  V30 524 C 50.6883 -0.634024 1.57842 0
M  V30 525 O 51.8733 -0.562676 1.8587 0
M  V30 526 C 49.0033 -0.601106 3.42058 0
M  V30 527 C 47.9573 0.179896 4.27622 0
M  V30 528 C 47.2833 -0.788237 5.28858 0
M  V30 529 C 48.5833 1.38329 5.03649 0
M  V30 530 H 50.2773 1.05763 2.80097 0
M  V30 531 H 47.8233 0.510029 1.34665 0
M  V30 532 H 49.7763 -1.00968 4.09125 0
M  V30 533 H 48.5003 -1.44688 2.92802 0
M  V30 534 H 47.1593 0.569739 3.62146 0
M  V30 535 H 46.8073 -1.62973 4.75866 0
M  V30 536 H 46.5073 -0.269942 5.8698 0
M  V30 537 H 48.0313 -1.19485 5.98795 0
M  V30 538 H 49.4453 1.04918 5.63618 0
M  V30 539 H 47.8423 1.83662 5.71304 0
M  V30 540 H 48.9123 2.16592 4.33839 0
M  V30 541 N 50.2554 -1.46986 0.568584 0
M  V30 542 C 51.5324 -1.95592 -0.0174074 0
M  V30 543 C 51.9124 -1.51124 -1.47393 0
M  V30 544 O 51.2604 -0.755329 -2.15655 0
M  V30 545 C 51.4704 -3.48719 0.139913 0
M  V30 546 C 52.8184 -4.246 0.000426376 0
M  V30 547 O 53.8424 -3.56135 0.0680316 0
M  V30 548 O 52.7014 -5.46302 -0.146988 0
M  V30 549 H 49.7954 -0.82498 -0.0577599 0
M  V30 550 H 52.3414 -1.57335 0.635909 0
M  V30 551 H 51.1134 -3.73927 1.15301 0
M  V30 552 H 50.7364 -3.93771 -0.550491 0
M  V30 553 N 51.7335 -0.305618 -1.54608 0
M  V30 554 C 53.1445 0.186098 -1.8577 0
M  V30 555 C 53.4955 1.53058 -1.22751 0
M  V30 556 O 52.6205 2.09888 -0.526893 0
M  V30 557 C 53.2155 0.344449 -3.37044 0
M  V30 558 C 51.7745 0.780384 -3.68221 0
M  V30 559 C 50.9215 -0.108554 -2.77087 0
M  V30 560 H 53.8725 -0.526485 -1.49712 0
M  V30 561 H 53.8935 1.17828 -3.61796 0
M  V30 562 H 53.4055 -0.634235 -3.82883 0
M  V30 563 H 51.5065 1.76945 -3.27904 0
M  V30 564 H 51.6195 0.596572 -4.75371 0
M  V30 565 H 49.9835 0.412931 -2.5133 0
M  V30 566 H 50.7665 -1.08368 -3.25747 0
M  V30 567 N 53.2116 1.57565 -0.0334293 0
M  V30 568 C 54.4576 1.92262 0.645226 0
M  V30 569 C 54.7906 0.910543 1.71531 0
M  V30 570 O 54.0656 -0.066099 1.94388 0
M  V30 571 C 54.3486 3.37422 1.2577 0
M  V30 572 C 54.2016 4.49369 0.196891 0
M  V30 573 C 55.5206 3.82628 2.17449 0
M  V30 574 H 52.6396 0.699171 0.233085 0
M  V30 575 H 55.2816 1.89779 -0.0915694 0
M  V30 576 H 53.4316 3.39669 1.88566 0
M  V30 577 H 55.1036 4.59254 -0.433962 0
M  V30 578 H 53.3466 4.31168 -0.477137 0
M  V30 579 H 54.0176 5.47978 0.665124 0
M  V30 580 H 56.4936 3.82145 1.64634 0
M  V30 581 H 55.3696 4.84883 2.57254 0
M  V30 582 H 55.6306 3.18376 3.0674 0
M  V30 583 N 54.6897 -0.239769 1.55765 0
M  V30 584 C 55.6217 -1.32001 1.87372 0
M  V30 585 C 56.6347 -1.43944 0.760522 0
M  V30 586 O 57.8237 -1.45167 1.0387 0
M  V30 587 C 54.9237 -2.69779 2.05115 0
M  V30 588 C 54.0967 -2.80014 3.36022 0
M  V30 589 C 53.1557 -3.98684 3.4342 0
M  V30 590 O 52.1817 -3.87877 4.16582 0
M  V30 591 N 53.3837 -5.12176 2.73232 0
M  V30 592 H 56.1487 -1.0522 2.80622 0
M  V30 593 H 53.7097 -0.429857 1.56089 0
M  V30 594 H 55.7017 -3.47517 2.07399 0
M  V30 595 H 54.2717 -2.89237 1.18577 0
M  V30 596 H 53.4917 -1.88896 3.45994 0
M  V30 597 H 54.7797 -2.83808 4.22292 0
M  V30 598 H 54.1777 -5.2385 2.13536 0
M  V30 599 H 52.7347 -5.88022 2.81199 0
M  V30 600 N 56.1678 -1.49265 -0.50573 0
M  V30 601 C 57.0978 -1.68495 -1.61653 0
M  V30 602 C 58.0788 -0.53366 -1.61512 0
M  V30 603 O 59.2638 -0.76897 -1.78327 0
M  V30 604 C 56.3938 -1.74709 -3.00157 0
M  V30 605 C 55.3478 -2.89581 -3.15162 0
M  V30 606 C 54.6738 -2.80903 -4.5497 0
M  V30 607 C 55.9738 -4.30578 -2.95634 0
M  V30 608 H 57.6678 -2.61493 -1.45814 0
M  V30 609 H 55.2138 -1.25838 -0.70005 0
M  V30 610 H 57.1668 -1.86748 -3.77761 0
M  V30 611 H 55.8908 -0.783067 -3.17074 0
M  V30 612 H 54.5498 -2.77136 -2.39982 0
M  V30 613 H 54.1978 -1.82419 -4.68756 0
M  V30 614 H 53.8978 -3.57999 -4.65951 0
M  V30 615 H 55.4218 -2.94944 -5.34641 0
M  V30 616 H 56.8358 -4.4373 -3.63011 0
M  V30 617 H 55.2328 -5.0886 -3.18091 0
M  V30 618 H 56.3028 -4.45352 -1.91806 0
M  V30 619 N 57.6459 0.756429 -1.3826 0
M  V30 620 C 58.8739 1.54565 -1.3754 0
M  V30 621 C 59.2889 1.88767 0.0355331 0
M  V30 622 O 58.6459 1.52572 1.0014 0
M  V30 623 C 58.6969 2.84654 -2.22833 0
M  V30 624 O 58.4179 2.51912 -3.5843 0
M  V30 625 C 59.9189 3.78807 -2.30261 0
M  V30 626 H 57.1389 0.478353 -0.470553 0
M  V30 627 H 59.6829 0.936381 -1.81803 0
M  V30 628 H 57.8379 3.41965 -1.8204 0
M  V30 629 H 58.2519 3.35325 -4.03308 0
M  V30 630 H 59.7259 4.67045 -2.94233 0
M  V30 631 H 60.2029 4.19038 -1.31545 0
M  V30 632 H 60.8089 3.2742 -2.71433 0
M  V30 633 N 59.124 1.23083 0.984299 0
M  V30 634 C 60.371 1.06057 1.72505 0
M  V30 635 C 60.699 -0.403105 1.90277 0
M  V30 636 O 59.954 -1.3149 1.44944 0
M  V30 637 C 60.253 1.72673 3.1292 0
M  V30 638 C 59.919 3.22586 3.15038 0
M  V30 639 C 58.581 3.63489 3.15324 0
M  V30 640 C 60.933 4.185 3.10657 0
M  V30 641 C 58.261 4.98772 3.08939 0
M  V30 642 C 60.613 5.53769 3.05814 0
M  V30 643 C 59.277 5.94041 3.04419 0
M  V30 644 H 58.547 0.388091 0.631242 0
M  V30 645 H 61.194 1.52963 1.15215 0
M  V30 646 H 59.499 1.18116 3.73572 0
M  V30 647 H 61.196 1.56982 3.68996 0
M  V30 648 H 57.786 2.90022 3.15571 0
M  V30 649 H 61.97 3.87911 3.09579 0
M  V30 650 H 57.226 5.29193 3.0621 0
M  V30 651 H 61.4 6.27808 3.0138 0
M  V30 652 H 59.027 6.98833 2.99227 0
M  V30 653 N 60.6021 -1.18246 1.0419 0
M  V30 654 C 61.8321 -1.91916 0.764961 0
M  V30 655 C 62.2401 -1.76485 -0.681898 0
M  V30 656 O 61.5831 -1.09275 -1.47664 0
M  V30 657 C 61.6451 -3.4373 1.05309 0
M  V30 658 C 61.3091 -3.8294 2.4941 0
M  V30 659 C 62.3061 -3.86621 3.47592 0
M  V30 660 C 59.9911 -4.142 2.84155 0
M  V30 661 C 61.9851 -4.21013 4.78568 0
M  V30 662 C 59.6721 -4.48262 4.15337 0
M  V30 663 C 60.6701 -4.51645 5.12353 0
M  V30 664 O 60.3581 -4.84911 6.41183 0
M  V30 665 H 60.0901 -0.61606 0.278292 0
M  V30 666 H 62.6441 -1.50947 1.39299 0
M  V30 667 H 60.8741 -3.84946 0.367933 0
M  V30 668 H 62.5631 -3.9865 0.763752 0
M  V30 669 H 63.3291 -3.62607 3.22089 0
M  V30 670 H 59.2081 -4.10743 2.09311 0
M  V30 671 H 62.7521 -4.23568 5.54289 0
M  V30 672 H 58.6491 -4.71737 4.40607 0
M  V30 673 H 59.4171 -5.02809 6.45852 0
M  V30 674 N 62.0802 -0.821533 -1.34494 0
M  V30 675 C 63.0432 -0.247847 -2.27856 0
M  V30 676 C 64.0432 0.573453 -1.50227 0
M  V30 677 O 65.2332 0.389759 -1.69784 0
M  V30 678 C 62.3652 0.652698 -3.34593 0
M  V30 679 H 63.5582 -1.07146 -2.80107 0
M  V30 680 H 61.1112 -0.593291 -1.44602 0
M  V30 681 H 61.8462 1.49943 -2.87555 0
M  V30 682 H 61.6312 0.065292 -3.92046 0
M  V30 683 H 63.1212 1.04793 -4.04238 0
M  V30 684 N 63.5583 1.46682 -0.576371 0
M  V30 685 C 64.8063 2.02013 -0.0594163 0
M  V30 686 C 65.1273 1.45101 1.30271 0
M  V30 687 O 64.3973 0.633317 1.8538 0
M  V30 688 H 62.9773 0.746759 -0.0189745 0
M  V30 689 H 65.6393 1.79862 -0.750717 0
M  V30 690 H 64.7353 3.12097 0.014345 0
M  V30 691 N 65.0364 0.313813 1.54444 0
M  V30 692 C 66.4474 -0.176243 1.85866 0
M  V30 693 C 66.7984 -1.52405 1.23561 0
M  V30 694 O 65.9234 -2.09605 0.538016 0
M  V30 695 C 66.5184 -0.32657 3.37222 0
M  V30 696 C 65.0774 -0.760846 3.6863 0
M  V30 697 C 64.2244 0.123247 2.77026 0
M  V30 698 H 67.1754 0.534418 1.49431 0
M  V30 699 H 67.1964 -1.15908 3.62416 0
M  V30 700 H 66.7084 0.654531 3.82541 0
M  V30 701 H 64.8094 -1.75204 3.28838 0
M  V30 702 H 64.9224 -0.571353 4.75681 0
M  V30 703 H 63.2864 -0.399597 2.51546 0
M  V30 704 H 64.0694 1.10094 3.25168 0
M  V30 705 N 66.5145 -1.57545 0.0417849 0
M  V30 706 C 67.4625 -2.12148 -0.953723 0
M  V30 707 C 68.4565 -1.05104 -1.32852 0
M  V30 708 O 69.6625 -1.23524 -1.30927 0
M  V30 709 H 66.0375 -0.677957 -0.325389 0
M  V30 710 H 68.0085 -2.94707 -0.467991 0
M  V30 711 C 66.7575 -2.6739 -2.22257 0
M  V30 712 H 66.0805 -3.49413 -1.94295 0
M  V30 713 H 67.5205 -3.09227 -2.90094 0
M  V30 714 C 65.9795 -1.60723 -2.96091 0
M  V30 715 O 66.5095 -1.01449 -3.88679 0
M  V30 716 N 64.7155 -1.32466 -2.58652 0
M  V30 717 H 64.2625 -1.80856 -1.83437 0
M  V30 718 H 64.2205 -0.61325 -3.08361 0
M  V30 719 N 67.9926 0.231505 -1.5589 0
M  V30 720 C 69.2406 0.955461 -1.78088 0
M  V30 721 C 69.5616 1.85262 -0.608533 0
M  V30 722 O 68.8316 1.92277 0.375035 0
M  V30 723 H 67.4116 0.355787 -0.656829 0
M  V30 724 H 70.0736 0.245751 -1.93344 0
M  V30 725 H 69.1696 1.56814 -2.69844 0
M  V30 726 N 69.4707 1.49531 0.497807 0
M  V30 727 C 70.6957 1.63159 1.28039 0
M  V30 728 C 71.1207 0.30418 1.85624 0
M  V30 729 O 70.4787 -0.728618 1.66015 0
M  V30 730 C 70.5267 2.70537 2.38416 0
M  V30 731 O 69.6307 2.29931 3.42353 0
M  V30 732 H 68.9717 0.546001 0.377861 0
M  V30 733 H 71.5017 1.9574 0.59558 0
M  V30 734 H 71.5117 2.92802 2.84132 0
M  V30 735 H 70.1867 3.6689 1.95869 0
M  V30 736 H 68.7637 2.18009 3.02533 0
M  V30 737 N 70.9488 -0.749086 1.3866 0
M  V30 738 C 71.8808 -1.87273 1.32142 0
M  V30 739 C 72.8938 -1.61127 0.232787 0
M  V30 740 O 74.0828 -1.71623 0.49069 0
M  V30 741 C 71.1828 -3.23005 1.02571 0
M  V30 742 C 70.3558 -3.7662 2.22433 0
M  V30 743 C 69.4148 -4.90879 1.89537 0
M  V30 744 O 68.4408 -5.05276 2.62078 0
M  V30 745 N 69.6428 -5.74198 0.853031 0
M  V30 746 H 72.4078 -1.93373 2.28969 0
M  V30 747 H 69.9688 -0.929216 1.32579 0
M  V30 748 H 71.9608 -3.96992 0.786085 0
M  V30 749 H 70.5308 -3.12262 0.145249 0
M  V30 750 H 69.7508 -2.94147 2.62434 0
M  V30 751 H 71.0388 -4.09173 3.02415 0
M  V30 752 H 70.4368 -5.6514 0.25155 0
M  V30 753 H 68.9938 -6.48313 0.67329 0
M  V30 754 N 72.4269 -1.23603 -0.977757 0
M  V30 755 C 73.6739 -1.06971 -1.71941 0
M  V30 756 C 74.0019 0.393009 -1.90488 0
M  V30 757 O 73.2569 1.30719 -1.4564 0
M  V30 758 C 73.5559 -1.7433 -3.11999 0
M  V30 759 C 73.2219 -3.24252 -3.13323 0
M  V30 760 C 71.8839 -3.65156 -3.13392 0
M  V30 761 C 74.2359 -4.20141 -3.08433 0
M  V30 762 C 71.5639 -5.00403 -3.0629 0
M  V30 763 C 73.9159 -5.55384 -3.02873 0
M  V30 764 C 72.5799 -5.95647 -3.01265 0
M  V30 765 H 71.8499 -0.391433 -0.629175 0
M  V30 766 H 74.4969 -1.53572 -1.14403 0
M  V30 767 H 72.8019 -1.20096 -3.7294 0
M  V30 768 H 74.4989 -1.58936 -3.68158 0
M  V30 769 H 71.0889 -2.91692 -3.14029 0
M  V30 770 H 75.2729 -3.89547 -3.07517 0
M  V30 771 H 70.5289 -5.3081 -3.03399 0
M  V30 772 H 74.7029 -6.29398 -2.98046 0
M  V30 773 H 72.3299 -7.0041 -2.95516 0
M  V30 774 N 73.905 1.17692 -1.04816 0
M  V30 775 C 75.153 1.87488 -0.754497 0
M  V30 776 C 75.474 1.81205 0.720407 0
M  V30 777 O 74.744 1.23544 1.52032 0
M  V30 778 H 73.324 0.694101 -0.276102 0
M  V30 779 H 75.986 1.42793 -1.32651 0
M  V30 780 H 75.082 2.93328 -1.06606 0
M  V30 781 N 75.3831 0.828654 1.34056 0
M  V30 782 C 76.6301 0.419458 1.98108 0
M  V30 783 C 76.9581 -1.01886 1.65679 0
M  V30 784 O 76.2131 -1.72539 0.923512 0
M  V30 785 C 76.5121 0.575226 3.52741 0
M  V30 786 C 76.1781 1.98012 4.05095 0
M  V30 787 C 74.8401 2.36442 4.19104 0
M  V30 788 C 77.1921 2.89824 4.33188 0
M  V30 789 C 74.5201 3.66009 4.58535 0
M  V30 790 C 76.8721 4.1886 4.74066 0
M  V30 791 C 75.5361 4.5726 4.86281 0
M  V30 792 H 74.8061 0.153491 0.724929 0
M  V30 793 H 77.4531 1.05371 1.59904 0
M  V30 794 H 75.7581 -0.142385 3.91541 0
M  V30 795 H 77.4551 0.239057 4.00287 0
M  V30 796 H 74.0451 1.67162 3.94658 0
M  V30 797 H 78.2291 2.61375 4.21897 0
M  V30 798 H 73.4851 3.95579 4.66184 0
M  V30 799 H 77.6591 4.90086 4.94761 0
M  V30 800 H 75.2861 5.57707 5.16592 0
M  V30 801 N 76.8612 -1.46375 0.584142 0
M  V30 802 C 78.0862 -2.07268 0.0740405 0
M  V30 803 C 78.5112 -1.42979 -1.22223 0
M  V30 804 O 77.8692 -0.514092 -1.73859 0
M  V30 805 C 77.9172 -3.60518 -0.0767769 0
M  V30 806 O 77.0212 -3.96533 -1.13292 0
M  V30 807 H 76.3622 -0.660961 0.0634524 0
M  V30 808 H 78.8922 -1.87991 0.807492 0
M  V30 809 H 78.9022 -4.07021 -0.282489 0
M  V30 810 H 77.5772 -4.06702 0.86986 0
M  V30 811 H 76.1542 -3.61738 -0.905553 0
M  V30 812 N 78.3393 -0.321999 -1.54275 0
M  V30 813 C 79.2693 0.537411 -2.27231 0
M  V30 814 C 80.2503 1.12064 -1.27968 0
M  V30 815 O 81.4353 1.14606 -1.56777 0
M  V30 816 C 78.5653 1.69919 -3.02894 0
M  V30 817 C 77.5193 1.24534 -4.09482 0
M  V30 818 C 76.8453 2.49394 -4.72977 0
M  V30 819 C 78.1453 0.361335 -5.21049 0
M  V30 820 H 79.8393 -0.0711406 -2.99315 0
M  V30 821 H 77.3853 -0.0356555 -1.43956 0
M  V30 822 H 79.3383 2.30668 -3.52662 0
M  V30 823 H 78.0623 2.33431 -2.28424 0
M  V30 824 H 76.7213 0.660782 -3.60596 0
M  V30 825 H 76.3693 3.11265 -3.95124 0
M  V30 826 H 76.0693 2.19718 -5.44975 0
M  V30 827 H 77.5933 3.10908 -5.25517 0
M  V30 828 H 79.0073 0.875072 -5.66582 0
M  V30 829 H 77.4043 0.157428 -5.99893 0
M  V30 830 H 78.4743 -0.60822 -4.8107 0
M  V30 831 N 79.8174 1.5752 -0.0501392 0
M  V30 832 C 81.0944 1.83996 0.663685 0
M  V30 833 C 81.4744 0.938339 1.89099 0
M  V30 834 O 80.8224 -0.00087759 2.285 0
M  V30 835 C 81.0324 3.33702 1.02196 0
M  V30 836 C 82.3804 4.00691 1.40469 0
M  V30 837 O 83.4044 3.38321 1.11433 0
M  V30 838 O 82.2634 5.10658 1.94654 0
M  V30 839 H 79.3574 0.759385 0.32751 0
M  V30 840 H 81.9034 1.69514 -0.0794238 0
M  V30 841 H 80.6754 3.91015 0.149364 0
M  V30 842 H 80.2984 3.53368 1.82255 0
M  V30 843 N 81.2955 -0.223234 1.56011 0
M  V30 844 C 82.5425 -0.947875 1.78946 0
M  V30 845 C 82.8705 -1.844 0.618608 0
M  V30 846 O 82.1255 -1.91629 -0.397093 0
M  V30 847 C 82.4245 -1.81948 3.0762 0
M  V30 848 C 82.0905 -1.07672 4.37856 0
M  V30 849 C 80.7525 -0.871544 4.73242 0
M  V30 850 C 83.1045 -0.552081 5.18268 0
M  V30 851 C 80.4325 -0.129791 5.86556 0
M  V30 852 C 82.7845 0.17632 6.32354 0
M  V30 853 C 81.4485 0.39277 6.66343 0
M  V30 854 H 80.7185 -0.346852 0.654809 0
M  V30 855 H 83.3655 -0.216171 1.90276 0
M  V30 856 H 81.6705 -2.61899 2.91404 0
M  V30 857 H 83.3675 -2.38227 3.22566 0
M  V30 858 H 79.9575 -1.24662 4.1007 0
M  V30 859 H 84.1415 -0.698076 4.91366 0
M  V30 860 H 79.3975 0.048153 6.11381 0
M  V30 861 H 83.5715 0.590367 6.93893 0
M  V30 862 H 81.1985 0.969466 7.53993 0
M  V30 863 N 82.7736 -1.49793 -0.48987 0
M  V30 864 C 83.7236 -1.63673 -1.5873 0
M  V30 865 C 84.7076 -0.491956 -1.53195 0
M  V30 866 O 85.8996 -0.745461 -1.60536 0
M  V30 867 C 83.0286 -1.71689 -2.97284 0
M  V30 868 C 82.1146 -2.91781 -3.07774 0
M  V30 869 N 82.5056 -4.15714 -2.88124 0
M  V30 870 C 80.8036 -2.89949 -3.38889 0
M  V30 871 C 81.5046 -4.965 -3.03088 0
M  V30 872 N 80.4806 -4.30083 -3.3246 0
M  V30 873 H 84.2826 -2.57204 -1.42208 0
M  V30 874 H 81.7966 -1.46719 -0.69623 0
M  V30 875 H 83.7936 -1.79732 -3.76168 0
M  V30 876 H 82.4536 -0.793024 -3.14867 0
M  V30 877 H 83.4646 -4.45515 -2.64077 0
M  V30 878 H 80.1416 -2.06987 -3.62578 0
M  V30 879 H 81.5316 -6.04991 -2.92294 0
M  V30 880 N 84.2517 0.741722 -1.39055 0
M  V30 881 C 85.1987 1.85566 -1.37237 0
M  V30 882 C 86.1687 1.64457 -0.233072 0
M  V30 883 O 87.3537 1.85957 -0.427147 0
M  V30 884 C 84.4937 3.23004 -1.215 0
M  V30 885 C 83.6067 3.55864 -2.44918 0
M  V30 886 C 82.7417 4.82669 -2.21821 0
M  V30 887 C 81.7807 5.08351 -3.40948 0
M  V30 888 N 80.9177 6.26356 -3.17211 0
M  V30 889 H 85.7577 1.86455 -2.32462 0
M  V30 890 H 83.2947 0.911176 -1.15482 0
M  V30 891 H 85.2527 4.02331 -1.10389 0
M  V30 892 H 83.8827 3.21411 -0.29908 0
M  V30 893 H 82.9347 2.7129 -2.66657 0
M  V30 894 H 84.2467 3.70765 -3.33668 0
M  V30 895 H 83.4007 5.69962 -2.07914 0
M  V30 896 H 82.1397 4.69929 -1.30454 0
M  V30 897 H 81.1447 4.19522 -3.55361 0
M  V30 898 H 82.3697 5.22981 -4.33207 0
M  V30 899 H 80.3157 6.14917 -2.28502 0
M  V30 900 H 80.2327 6.41813 -3.99515 0
M  V30 901 H 81.5007 7.16506 -3.06984 0
M  V30 902 N 85.7298 1.2412 0.971189 0
M  V30 903 C 87.0068 0.986867 1.6888 0
M  V30 904 C 87.3868 -0.491857 2.0529 0
M  V30 905 O 86.7348 -1.46531 1.75331 0
M  V30 906 C 86.9448 1.9063 2.92338 0
M  V30 907 C 88.2928 2.17515 3.64654 0
M  V30 908 O 89.3168 1.88254 3.02388 0
M  V30 909 O 88.1758 2.6719 4.7673 0
M  V30 910 H 85.2698 0.372944 0.738134 0
M  V30 911 H 87.8158 1.35203 1.02559 0
M  V30 912 H 86.5878 2.90552 2.62097 0
M  V30 913 H 86.2108 1.54408 3.66393 0
M  V30 914 N 87.2079 -1.17134 1.05439 0
M  V30 915 C 88.4329 -1.91913 0.786396 0
M  V30 916 C 88.8579 -1.7643 -0.652234 0
M  V30 917 O 88.2159 -1.08372 -1.45345 0
M  V30 918 C 88.2639 -3.40921 1.17497 0
M  V30 919 O 87.3679 -4.11244 0.308589 0
M  V30 920 H 86.7089 -0.598215 0.288158 0
M  V30 921 H 89.2389 -1.48457 1.4079 0
M  V30 922 H 89.2489 -3.91668 1.14281 0
M  V30 923 H 87.9239 -3.5151 2.22292 0
M  V30 924 H 86.5009 -3.70731 0.40157 0
M  V30 925 N 88.686 -0.835752 -1.33615 0
M  V30 926 C 89.636 -0.238856 -2.26745 0
M  V30 927 C 90.62 0.604343 -1.49119 0
M  V30 928 O 91.812 0.456822 -1.71003 0
M  V30 929 C 88.941 0.587725 -3.38232 0
M  V30 930 C 88.027 -0.266811 -4.2326 0
M  V30 931 N 88.418 -1.34403 -4.87616 0
M  V30 932 C 86.716 -0.0533131 -4.45968 0
M  V30 933 C 87.417 -1.86819 -5.50884 0
M  V30 934 N 86.393 -1.17013 -5.30857 0
M  V30 935 H 90.195 -1.06266 -2.74016 0
M  V30 936 H 87.709 -0.679881 -1.47483 0
M  V30 937 H 89.706 1.03161 -4.03935 0
M  V30 938 H 88.366 1.40954 -2.9251 0
M  V30 939 H 89.377 -1.7269 -4.88261 0
M  V30 940 H 86.054 0.735312 -4.10974 0
M  V30 941 H 87.444 -2.7701 -6.1214 0
M  V30 942 N 90.1641 1.46063 -0.591896 0
M  V30 943 C 91.4121 2.01938 -0.0808391 0
M  V30 944 C 91.7331 1.46475 1.28725 0
M  V30 945 O 91.0031 0.652944 1.84698 0
M  V30 946 H 89.5831 0.746516 -0.0268938 0
M  V30 947 H 92.2451 1.79055 -0.769752 0
M  V30 948 H 91.3411 3.12094 -0.0187578 0
M  V30 949 N 91.6422 0.330177 1.54103 0
M  V30 950 C 93.0582 -0.0222371 1.59585 0
M  V30 951 C 93.2582 -1.49902 1.34654 0
M  V30 952 O 92.3142 -2.25592 1.13421 0
M  V30 953 C 93.6272 0.401932 2.98002 0
M  V30 954 C 95.1752 0.353145 3.11001 0
M  V30 955 C 95.6502 0.752576 4.51775 0
M  V30 956 N 97.1412 0.706239 4.57784 0
M  V30 957 C 97.8762 0.987417 5.64834 0
M  V30 958 N 97.3722 1.33607 6.79795 0
M  V30 959 N 99.1652 0.91254 5.54643 0
M  V30 960 H 91.3162 1.29228 1.68564 0
M  V30 961 H 93.5792 0.525906 0.78875 0
M  V30 962 H 93.2852 1.4311 3.21267 0
M  V30 963 H 93.1592 -0.229699 3.765 0
M  V30 964 H 95.5462 -0.666822 2.87467 0
M  V30 965 H 95.6272 1.0198 2.34593 0
M  V30 966 H 95.2712 1.77049 4.76042 0
M  V30 967 H 95.2012 0.0635409 5.26562 0
M  V30 968 H 97.6922 0.44889 3.75224 0
M  V30 969 H 98.0052 1.53582 7.57385 0
M  V30 970 H 96.3502 1.37439 6.81275 0
M  V30 971 H 99.5412 0.639601 4.6371 0
M  V30 972 H 99.7142 1.13503 6.37982 0
M  V30 973 N 93.1203 -1.57491 0.0584922 0
M  V30 974 C 94.3663 -1.93264 -0.614558 0
M  V30 975 C 94.6993 -0.937717 -1.7006 0
M  V30 976 O 93.9743 0.0351652 -1.94468 0
M  V30 977 C 94.2573 -3.3938 -1.20386 0
M  V30 978 C 94.1103 -4.49625 -0.125375 0
M  V30 979 C 95.4293 -3.86039 -2.11334 0
M  V30 980 H 92.5483 -0.702791 -0.221933 0
M  V30 981 H 95.1903 -1.8961 0.12175 0
M  V30 982 H 93.3403 -3.42626 -1.83139 0
M  V30 983 H 95.0123 -4.58506 0.506971 0
M  V30 984 H 93.2553 -4.30354 0.545672 0
M  V30 985 H 93.9263 -5.48967 -0.577861 0
M  V30 986 H 96.4023 -3.84716 -1.58534 0
M  V30 987 H 95.2783 -4.88914 -2.49507 0
M  V30 988 H 95.5393 -3.23215 -3.01636 0
M  V30 989 N 94.5984 0.214957 -1.56127 0
M  V30 990 C 95.5614 1.24997 -1.92116 0
M  V30 991 C 96.5614 1.39467 -0.800344 0
M  V30 992 O 97.7514 1.37619 -1.06802 0
M  V30 993 C 94.8834 2.62271 -2.17777 0
M  V30 994 H 96.0764 0.942875 -2.84693 0
M  V30 995 H 93.6294 0.455654 -1.49511 0
M  V30 996 H 94.3644 2.98068 -1.27773 0
M  V30 997 H 94.1494 2.53143 -2.99434 0
M  V30 998 H 95.6394 3.36946 -2.46693 0
M  V30 999 N 96.0765 1.50051 0.48192 0
M  V30 1000 C 97.3255 1.59741 1.23149 0
M  V30 1001 C 97.6385 0.298163 1.93314 0
M  V30 1002 O 98.8445 0.273835 2.70116 0
M  V30 1003 C 97.3005 2.81926 2.23708 0
M  V30 1004 C 96.9085 4.18685 1.59396 0
M  V30 1005 C 98.6525 3.00956 2.99375 0
M  V30 1006 C 96.5595 5.3207 2.58178 0
M  V30 1007 H 95.4895 0.594838 0.46334 0
M  V30 1008 H 98.1405 1.76467 0.503169 0
M  V30 1009 H 96.5225 2.58736 2.99786 0
M  V30 1010 H 97.6965 4.52088 0.891811 0
M  V30 1011 H 96.0115 4.05171 0.960503 0
M  V30 1012 H 98.6085 3.82836 3.73283 0
M  V30 1013 H 98.9515 2.12258 3.58123 0
M  V30 1014 H 99.4845 3.24277 2.30411 0
M  V30 1015 H 96.2235 6.22888 2.04184 0
M  V30 1016 H 95.7435 5.03098 3.26577 0
M  V30 1017 H 97.4225 5.62196 3.20225 0
M  V30 1018 N 97.5546 -0.734337 1.39446 0
M  V30 1019 C 98.8006 -1.49613 1.36908 0
M  V30 1020 C 99.1336 -1.94169 -0.0347829 0
M  V30 1021 O 98.4086 -1.66833 -0.999847 0
M  V30 1022 C 98.6916 -2.73534 2.34203 0
M  V30 1023 C 98.5446 -2.34993 3.83534 0
M  V30 1024 C 99.8636 -3.75635 2.29317 0
M  V30 1025 H 96.9826 -0.542714 0.498629 0
M  V30 1026 H 99.6246 -0.839597 1.70443 0
M  V30 1027 H 97.7746 -3.29553 2.05736 0
M  V30 1028 H 99.4466 -1.84601 4.22753 0
M  V30 1029 H 97.6896 -1.67213 4.00278 0
M  V30 1030 H 98.3606 -3.23738 4.47099 0
M  V30 1031 H 100.837 -3.29203 2.54489 0
M  V30 1032 H 99.7126 -4.60008 2.99472 0
M  V30 1033 H 99.9736 -4.22603 1.29842 0
M  V30 1034 N 99.0327 -1.24633 -0.964593 0
M  V30 1035 C 100.279 -1.08949 -1.71049 0
M  V30 1036 C 100.612 0.370302 -1.90637 0
M  V30 1037 O 99.8867 1.27349 -1.47011 0
M  V30 1038 C 100.17 -1.83329 -3.0994 0
M  V30 1039 C 100.023 -3.37077 -2.97824 0
M  V30 1040 C 101.342 -1.60846 -4.09654 0
M  V30 1041 H 98.4607 -0.397178 -0.620821 0
M  V30 1042 H 101.103 -1.5334 -1.12191 0
M  V30 1043 H 99.2527 -1.45597 -3.60186 0
M  V30 1044 H 100.925 -3.84425 -2.5498 0
M  V30 1045 H 99.1677 -3.65298 -2.33965 0
M  V30 1046 H 99.8387 -3.84324 -3.96231 0
M  V30 1047 H 102.315 -1.93674 -3.68279 0
M  V30 1048 H 101.191 -2.1534 -5.04896 0
M  V30 1049 H 101.452 -0.547434 -4.38698 0
M  V30 1050 N 100.511 1.16574 -1.06058 0
M  V30 1051 C 101.759 1.86677 -0.77434 0
M  V30 1052 C 102.08 1.81959 0.701147 0
M  V30 1053 O 101.35 1.2515 1.50713 0
M  V30 1054 H 99.9298 0.691134 -0.283449 0
M  V30 1055 H 102.592 1.41378 -1.34158 0
M  V30 1056 H 101.688 2.92181 -1.09711 0
M  V30 1057 N 101.989 0.842826 1.3317 0
M  V30 1058 C 102.952 0.284065 2.27433 0
M  V30 1059 C 103.952 -0.54948 1.5112 0
M  V30 1060 O 105.142 -0.362699 1.70382 0
M  V30 1061 C 102.274 -0.599384 3.35589 0
M  V30 1062 H 103.467 1.11589 2.78366 0
M  V30 1063 H 101.02 0.616221 1.4364 0
M  V30 1064 H 101.755 -1.45349 2.89904 0
M  V30 1065 H 101.54 -0.00291266 3.921 0
M  V30 1066 H 103.03 -0.983488 4.05854 0
M  V30 1067 N 103.467 -1.45747 0.599634 0
M  V30 1068 C 104.878 -1.85853 0.177681 0
M  V30 1069 C 105.229 -1.50102 -1.26348 0
M  V30 1070 O 104.354 -0.923905 -1.95686 0
M  V30 1071 C 104.949 -3.37326 0.315688 0
M  V30 1072 C 103.508 -3.76365 -0.0515144 0
M  V30 1073 C 102.655 -2.69722 0.643822 0
M  V30 1074 H 105.606 -1.36661 0.806814 0
M  V30 1075 H 105.627 -3.77778 -0.454321 0
M  V30 1076 H 105.139 -3.63315 1.36468 0
M  V30 1077 H 103.24 -3.55993 -1.09999 0
M  V30 1078 H 103.353 -4.77916 0.336594 0
M  V30 1079 H 101.717 -2.54567 0.0822881 0
M  V30 1080 H 102.5 -2.98549 1.6948 0
M  V30 1081 N 104.945 -0.338344 -1.53925 0
M  V30 1082 C 106.361 0.0137736 -1.59594 0
M  V30 1083 C 106.561 1.49186 -1.35447 0
M  V30 1084 O 105.617 2.24987 -1.14616 0
M  V30 1085 C 106.93 -0.41773 -2.97784 0
M  V30 1086 C 108.478 -0.369633 -3.1081 0
M  V30 1087 C 108.953 -0.776524 -4.51369 0
M  V30 1088 N 110.444 -0.730506 -4.57403 0
M  V30 1089 C 111.179 -1.01736 -5.64303 0
M  V30 1090 N 110.675 -1.3721 -6.79077 0
M  V30 1091 N 112.468 -0.941942 -5.54151 0
M  V30 1092 H 104.619 -1.3012 -1.67876 0
M  V30 1093 H 106.882 -0.530082 -0.78595 0
M  V30 1094 H 106.588 -1.44811 -3.20504 0
M  V30 1095 H 106.462 0.209729 -3.76616 0
M  V30 1096 H 108.849 0.651568 -2.87817 0
M  V30 1097 H 108.93 -1.03223 -2.34049 0
M  V30 1098 H 108.574 -1.79571 -4.75096 0
M  V30 1099 H 108.504 -0.0914649 -5.26521 0
M  V30 1100 H 110.995 -0.468783 -3.74981 0
M  V30 1101 H 111.308 -1.57597 -7.5656 0
M  V30 1102 H 109.653 -1.4105 -6.80536 0
M  V30 1103 H 112.844 -0.664184 -4.63364 0
M  V30 1104 H 113.017 -1.16884 -6.37371 0
M  V30 1105 N 106.423 1.57458 -0.0668435 0
M  V30 1106 C 107.651 1.97624 0.612565 0
M  V30 1107 C 108.066 0.94502 1.63447 0
M  V30 1108 O 107.423 -0.0689276 1.8237 0
M  V30 1109 C 107.474 3.37869 1.28555 0
M  V30 1110 O 107.195 4.3704 0.304557 0
M  V30 1111 C 108.696 3.92882 2.05325 0
M  V30 1112 H 105.916 0.650045 0.166381 0
M  V30 1113 H 108.46 2.04035 -0.137782 0
M  V30 1114 H 106.615 3.3256 1.98702 0
M  V30 1115 H 107.029 5.18565 0.786779 0
M  V30 1116 H 108.503 4.93247 2.47812 0
M  V30 1117 H 108.98 3.29156 2.9078 0
M  V30 1118 H 109.586 4.01577 1.40056 0
M  V30 1119 N 107.901 -0.206675 1.56239 0
M  V30 1120 C 108.831 -1.25909 1.96645 0
M  V30 1121 C 109.812 -1.48097 0.836734 0
M  V30 1122 O 110.997 -1.6003 1.10019 0
M  V30 1123 C 108.127 -2.6058 2.29599 0
M  V30 1124 C 107.081 -2.53024 3.452 0
M  V30 1125 C 106.407 -3.91861 3.63798 0
M  V30 1126 C 107.707 -2.06524 4.79734 0
M  V30 1127 H 109.401 -0.923369 2.84806 0
M  V30 1128 H 106.947 -0.442735 1.37025 0
M  V30 1129 H 108.9 -3.34375 2.56459 0
M  V30 1130 H 107.624 -2.95869 1.38307 0
M  V30 1131 H 106.283 -1.81684 3.18412 0
M  V30 1132 H 105.931 -4.24483 2.69857 0
M  V30 1133 H 105.631 -3.87683 4.4156 0
M  V30 1134 H 107.155 -4.67296 3.93022 0
M  V30 1135 H 108.569 -2.70072 5.05702 0
M  V30 1136 H 106.966 -2.13374 5.60885 0
M  V30 1137 H 108.036 -1.01802 4.74093 0
M  V30 1138 N 109.379 -1.50304 -0.473955 0
M  V30 1139 C 110.627 -1.60832 -1.22382 0
M  V30 1140 C 110.948 -0.30939 -1.9253 0
M  V30 1141 O 110.218 0.67296 -1.83978 0
M  V30 1142 H 108.798 -0.592652 -0.454723 0
M  V30 1143 H 111.46 -1.87068 -0.546968 0
M  V30 1144 H 110.556 -2.41803 -1.97327 0
M  V30 1145 N 110.857 0.726932 -1.39834 0
M  V30 1146 C 112.268 1.30558 -1.3346 0
M  V30 1147 C 112.619 1.962 -0.00273003 0
M  V30 1148 O 111.744 1.96826 0.899371 0
M  V30 1149 C 112.339 2.37404 -2.41713 0
M  V30 1150 C 110.898 2.90921 -2.38835 0
M  V30 1151 C 110.045 1.64578 -2.2318 0
M  V30 1152 H 112.996 0.523862 -1.49804 0
M  V30 1153 H 113.017 3.17984 -2.08966 0
M  V30 1154 H 112.529 1.89599 -3.38635 0
M  V30 1155 H 110.63 3.42985 -1.45575 0
M  V30 1156 H 110.743 3.43487 -3.33997 0
M  V30 1157 H 109.107 1.89219 -1.70494 0
M  V30 1158 H 109.89 1.18814 -3.22084 0
M  V30 1159 N 112.336 1.25143 0.95797 0
M  V30 1160 C 113.561 1.12521 1.74223 0
M  V30 1161 C 113.986 -0.317402 1.85403 0
M  V30 1162 O 113.344 -1.2299 1.33204 0
M  V30 1163 C 113.392 1.78062 3.1357 0
M  V30 1164 O 112.496 1.058 3.98598 0
M  V30 1165 H 111.837 0.39304 0.535178 0
M  V30 1166 H 114.367 1.65641 1.201 0
M  V30 1167 H 114.377 1.84213 3.64046 0
M  V30 1168 H 113.052 2.83021 3.04749 0
M  V30 1169 H 111.629 1.07506 3.57067 0
M  V30 1170 N 113.814 -1.1601 1.06675 0
M  V30 1171 C 114.746 -2.20115 0.638921 0
M  V30 1172 C 115.759 -1.59916 -0.305057 0
M  V30 1173 O 116.948 -1.78245 -0.0954446 0
M  V30 1174 C 114.048 -3.38798 -0.0830083 0
M  V30 1175 C 113.221 -4.2855 0.875426 0
M  V30 1176 C 112.28 -5.25849 0.192042 0
M  V30 1177 O 111.306 -5.63102 0.830921 0
M  V30 1178 N 112.508 -5.70648 -1.06493 0
M  V30 1179 H 115.273 -2.57439 1.53444 0
M  V30 1180 H 112.834 -1.31057 0.950557 0
M  V30 1181 H 114.826 -4.00936 -0.550685 0
M  V30 1182 H 113.396 -2.99947 -0.880386 0
M  V30 1183 H 112.616 -3.63617 1.52238 0
M  V30 1184 H 113.904 -4.85393 1.52548 0
M  V30 1185 H 113.302 -5.42482 -1.60405 0
M  V30 1186 H 111.859 -6.34859 -1.47641 0
M  V30 1187 N 115.292 -0.849877 -1.32721 0
M  V30 1188 C 116.202 -0.293791 -2.32753 0
M  V30 1189 C 117.218 0.585906 -1.63839 0
M  V30 1190 O 118.394 0.487413 -1.95413 0
M  V30 1191 C 115.459 0.512752 -3.42887 0
M  V30 1192 C 114.52 -0.39252 -4.27502 0
M  V30 1193 C 113.753 0.375625 -5.32377 0
M  V30 1194 O 113.976 1.60613 -5.4732 0
M  V30 1195 O 112.91 -0.256094 -6.01355 0
M  V30 1196 H 116.736 -1.12242 -2.82197 0
M  V30 1197 H 114.321 -0.612685 -1.36259 0
M  V30 1198 H 116.203 0.970704 -4.10067 0
M  V30 1199 H 114.878 1.31826 -2.95641 0
M  V30 1200 H 113.785 -0.898547 -3.63149 0
M  V30 1201 H 115.118 -1.16309 -4.7826 0
M  V30 1202 N 116.77 1.45427 -0.607355 0
M  V30 1203 C 117.68 2.34325 0.113463 0
M  V30 1204 C 118.696 1.51226 0.860617 0
M  V30 1205 O 119.872 1.84029 0.818255 0
M  V30 1206 C 116.937 3.28839 1.09844 0
M  V30 1207 C 115.998 4.27844 0.353271 0
M  V30 1208 C 115.231 5.17842 1.29133 0
M  V30 1209 O 115.454 5.11264 2.52913 0
M  V30 1210 O 114.388 5.96713 0.788523 0
M  V30 1211 H 118.214 2.97364 -0.617094 0
M  V30 1212 H 115.799 1.44807 -0.367619 0
M  V30 1213 H 117.681 3.8708 1.66575 0
M  V30 1214 H 116.356 2.68365 1.81003 0
M  V30 1215 H 115.263 3.7322 -0.256494 0
M  V30 1216 H 116.596 4.91173 -0.317822 0
M  V30 1217 N 118.248 0.346503 1.53744 0
M  V30 1218 C 119.476 -0.25041 2.05379 0
M  V30 1219 C 119.891 -1.43979 1.22129 0
M  V30 1220 O 119.248 -1.80677 0.257321 0
M  V30 1221 C 119.299 -0.662575 3.55376 0
M  V30 1222 O 119.02 0.479515 4.35468 0
M  V30 1223 C 120.521 -1.31989 4.23195 0
M  V30 1224 H 117.741 -0.0478198 0.669294 0
M  V30 1225 H 120.285 0.499346 1.9831 0
M  V30 1226 H 118.44 -1.36227 3.62658 0
M  V30 1227 H 118.854 0.15037 5.24284 0
M  V30 1228 H 120.328 -1.55902 5.29527 0
M  V30 1229 H 120.805 -2.27436 3.75725 0
M  V30 1230 H 121.411 -0.662154 4.20114 0
M  V30 1231 N 119.726 -1.57421 0.075193 0
M  V30 1232 C 120.974 -1.93236 -0.591974 0
M  V30 1233 C 121.295 -0.956241 -1.69944 0
M  V30 1234 O 120.565 -0.00494792 -1.95899 0
M  V30 1235 H 119.145 -0.713355 -0.22166 0
M  V30 1236 H 121.807 -1.9444 0.133848 0
M  V30 1237 H 120.903 -2.95131 -1.01509 0
M  V30 1238 N 121.204 0.198386 -1.56346 0
M  V30 1239 C 122.452 0.91747 -1.80075 0
M  V30 1240 C 122.773 1.83929 -0.647692 0
M  V30 1241 O 122.043 1.93029 0.334166 0
M  V30 1242 H 120.623 0.341774 -0.664228 0
M  V30 1243 H 123.285 0.204684 -1.93822 0
M  V30 1244 H 122.381 1.51055 -2.7311 0
M  V30 1245 N 122.682 1.50554 0.465978 0
M  V30 1246 C 123.928 1.62038 1.21949 0
M  V30 1247 C 124.261 0.322116 1.9151 0
M  V30 1248 O 123.536 -0.676723 1.82348 0
M  V30 1249 C 123.819 2.80421 2.25912 0
M  V30 1250 C 123.672 4.20144 1.60622 0
M  V30 1251 C 124.991 2.94354 3.27176 0
M  V30 1252 H 122.11 0.589752 0.441998 0
M  V30 1253 H 124.752 1.82956 0.51257 0
M  V30 1254 H 122.902 2.62717 2.86203 0
M  V30 1255 H 124.574 4.49449 1.03889 0
M  V30 1256 H 122.817 4.24165 0.909211 0
M  V30 1257 H 123.488 4.98914 2.36196 0
M  V30 1258 H 125.964 3.10578 2.76913 0
M  V30 1259 H 124.84 3.788 3.97242 0
M  V30 1260 H 125.101 2.05186 3.916 0
M  V30 1261 N 124.16 -0.719506 1.40217 0
M  V30 1262 C 125.407 -1.47933 1.38283 0
M  V30 1263 C 125.735 -1.94493 -0.0161536 0
M  V30 1264 O 124.99 -1.68224 -0.999956 0
M  V30 1265 C 125.289 -2.72271 2.31524 0
M  V30 1266 C 124.955 -2.44496 3.78857 0
M  V30 1267 C 123.617 -2.36631 4.18998 0
M  V30 1268 C 125.969 -2.21104 4.71977 0
M  V30 1269 C 123.297 -2.03437 5.503 0
M  V30 1270 C 125.649 -1.89423 6.03574 0
M  V30 1271 C 124.313 -1.80038 6.42762 0
M  V30 1272 H 123.583 -0.541325 0.506012 0
M  V30 1273 H 126.23 -0.824502 1.72842 0
M  V30 1274 H 124.535 -3.42572 1.90137 0
M  V30 1275 H 126.232 -3.30348 2.27313 0
M  V30 1276 H 122.822 -2.51503 3.47051 0
M  V30 1277 H 127.006 -2.26139 4.41786 0
M  V30 1278 H 122.262 -1.94705 5.79569 0
M  V30 1279 H 126.436 -1.70336 6.75247 0
M  V30 1280 H 124.063 -1.54083 7.44421 0
M  V30 1281 N 125.638 -1.25649 -0.95132 0
M  V30 1282 C 126.568 -1.08808 -2.06599 0
M  V30 1283 C 127.549 0.00382547 -1.701 0
M  V30 1284 O 128.734 -0.166325 -1.93486 0
M  V30 1285 C 125.864 -0.709542 -3.39975 0
M  V30 1286 C 124.818 -1.75206 -3.90496 0
M  V30 1287 C 124.144 -1.22811 -5.20405 0
M  V30 1288 C 125.444 -3.15153 -4.16504 0
M  V30 1289 H 127.138 -2.02048 -2.20946 0
M  V30 1290 H 124.684 -0.972835 -1.06169 0
M  V30 1291 H 126.637 -0.578649 -4.17408 0
M  V30 1292 H 125.361 0.258556 -3.25575 0
M  V30 1293 H 124.02 -1.87145 -3.15234 0
M  V30 1294 H 123.668 -0.250145 -5.02378 0
M  V30 1295 H 123.368 -1.92492 -5.55176 0
M  V30 1296 H 124.892 -1.10968 -6.00432 0
M  V30 1297 H 126.306 -3.06349 -4.84586 0
M  V30 1298 H 124.703 -3.82333 -4.62538 0
M  V30 1299 H 125.773 -3.61966 -3.22658 0
M  V30 1300 N 127.117 1.15442 -1.07289 0
M  V30 1301 C 128.357 1.8788 -0.805012 0
M  V30 1302 C 128.721 1.80413 0.656907 0
M  V30 1303 O 129.922 2.47874 1.0398 0
M  V30 1304 C 128.193 3.3298 -1.29843 0
M  V30 1305 S 129.752 4.23158 -1.16114 0
M  V30 1306 H 126.57 0.64839 -0.291739 0
M  V30 1307 H 129.172 1.39285 -1.37186 0
M  V30 1308 H 127.876 3.35958 -2.35712 0
M  V30 1309 H 127.407 3.86629 -0.726767 0
M  V30 1310 H 129.422 4.96103 -0.0982778 0
M  V30 1311 N 128.595 0.856903 1.32268 0
M  V30 1312 C 130.006 0.515711 1.79436 0
M  V30 1313 C 130.357 -0.966586 1.70738 0
M  V30 1314 O 129.482 -1.75409 1.26731 0
M  V30 1315 C 130.077 0.929335 3.25805 0
M  V30 1316 C 128.636 0.640006 3.70919 0
M  V30 1317 C 127.783 1.12784 2.53328 0
M  V30 1318 H 130.734 1.04389 1.19535 0
M  V30 1319 H 130.755 0.246633 3.797 0
M  V30 1320 H 130.267 2.00821 3.32103 0
M  V30 1321 H 128.368 -0.428051 3.70133 0
M  V30 1322 H 128.481 1.20788 4.63624 0
M  V30 1323 H 126.845 0.548033 2.48734 0
M  V30 1324 H 127.628 2.21387 2.62379 0
M  V30 1325 N 130.073 -1.45103 0.615059 0
M  V30 1326 C 131.319 -2.03035 0.121804 0
M  V30 1327 C 131.674 -1.47393 -1.23665 0
M  V30 1328 O 130.967 -0.642061 -1.80522 0
M  V30 1329 C 131.161 -3.57386 0.0318797 0
M  V30 1330 C 130.99 -4.28 1.38007 0
M  V30 1331 C 129.76 -4.65624 1.9627 0
M  V30 1332 C 131.958 -4.5948 2.31047 0
M  V30 1333 N 129.94 -5.21132 3.24492 0
M  V30 1334 C 131.311 -5.159 3.43872 0
M  V30 1335 C 133.366 -4.41423 2.30326 0
M  V30 1336 C 132.069 -5.56165 4.5615 0
M  V30 1337 C 134.095 -4.82726 3.41658 0
M  V30 1338 C 133.457 -5.39245 4.53205 0
M  V30 1339 H 129.556 -0.77702 0.0881159 0
M  V30 1340 H 132.14 -1.76819 0.815044 0
M  V30 1341 H 130.311 -3.83247 -0.630599 0
M  V30 1342 H 132.043 -4.01976 -0.468721 0
M  V30 1343 H 128.798 -4.49421 1.49392 0
M  V30 1344 H 129.222 -5.53377 3.90004 0
M  V30 1345 H 133.864 -3.97033 1.45343 0
M  V30 1346 H 131.582 -5.99517 5.41854 0
M  V30 1347 H 135.168 -4.7048 3.42257 0
M  V30 1348 H 134.048 -5.70616 5.37929 0
M  V30 1349 N 131.551 -0.354651 -1.53558 0
M  V30 1350 C 132.967 -0.00315426 -1.596 0
M  V30 1351 C 133.167 1.47741 -1.37021 0
M  V30 1352 O 132.223 2.23759 -1.16996 0
M  V30 1353 C 133.536 -0.44929 -2.97325 0
M  V30 1354 C 135.084 -0.402578 -3.104 0
M  V30 1355 C 135.559 -0.824355 -4.5052 0
M  V30 1356 N 137.05 -0.778979 -4.56603 0
M  V30 1357 C 137.785 -1.07715 -5.63192 0
M  V30 1358 N 137.281 -1.44405 -6.77583 0
M  V30 1359 N 139.074 -1.00066 -5.53121 0
M  V30 1360 H 131.225 -1.31893 -1.66487 0
M  V30 1361 H 133.488 -0.538388 -0.780284 0
M  V30 1362 H 133.194 -1.48202 -3.1895 0
M  V30 1363 H 133.068 0.169772 -3.76818 0
M  V30 1364 H 135.455 0.621004 -2.88492 0
M  V30 1365 H 135.536 -1.05699 -2.32941 0
M  V30 1366 H 135.18 -1.846 -4.73165 0
M  V30 1367 H 135.11 -0.147304 -5.26394 0
M  V30 1368 H 137.601 -0.508528 -3.74463 0
M  V30 1369 H 137.914 -1.65612 -7.54846 0
M  V30 1370 H 136.259 -1.4826 -6.79002 0
M  V30 1371 H 139.45 -0.713293 -4.62633 0
M  V30 1372 H 139.623 -1.23638 -6.36096 0
M  V30 1373 N 133.029 1.57378 -0.0835403 0
M  V30 1374 C 133.992 2.12252 0.864959 0
M  V30 1375 C 134.992 1.04916 1.21858 0
M  V30 1376 O 136.182 1.30853 1.14991 0
M  V30 1377 C 133.314 2.63358 2.16461 0
M  V30 1378 H 134.507 2.97371 0.388676 0
M  V30 1379 H 132.06 1.55423 0.165317 0
M  V30 1380 H 132.795 1.81727 2.686 0
M  V30 1381 H 132.58 3.41826 1.92087 0
M  V30 1382 H 134.07 3.05847 2.84337 0
M  V30 1383 N 134.507 -0.190092 1.56449 0
M  V30 1384 C 135.417 -1.25591 1.98152 0
M  V30 1385 C 136.433 -1.49519 0.889944 0
M  V30 1386 O 137.609 -1.62036 1.19609 0
M  V30 1387 C 134.674 -2.57916 2.3169 0
M  V30 1388 C 133.735 -2.42015 3.5458 0
M  V30 1389 C 132.968 -3.6803 3.8651 0
M  V30 1390 O 133.191 -4.72413 3.1966 0
M  V30 1391 O 132.125 -3.6326 4.79923 0
M  V30 1392 H 135.951 -0.931988 2.89046 0
M  V30 1393 H 133.536 -0.395488 1.4407 0
M  V30 1394 H 135.418 -3.36008 2.54316 0
M  V30 1395 H 134.093 -2.89925 1.43963 0
M  V30 1396 H 133 -1.62017 3.37196 0
M  V30 1397 H 134.333 -2.14937 4.4279 0
M  V30 1398 N 135.985 -1.50799 -0.457987 0
M  V30 1399 C 137.233 -1.62121 -1.2067 0
M  V30 1400 C 137.554 -0.329793 -1.92191 0
M  V30 1401 O 136.824 0.653409 -1.84682 0
M  V30 1402 H 135.404 -0.597441 -0.448411 0
M  V30 1403 H 138.066 -1.87637 -0.527096 0
M  V30 1404 H 137.162 -2.43882 -1.94751 0
M  V30 1405 N 137.463 0.71206 -1.40597 0
M  V30 1406 C 138.711 1.46907 -1.38791 0
M  V30 1407 C 139.032 1.94998 0.00780391 0
M  V30 1408 O 138.302 1.70587 0.963174 0
M  V30 1409 H 136.882 0.545043 -0.51082 0
M  V30 1410 H 139.544 0.843882 -1.75683 0
M  V30 1411 H 138.64 2.34021 -2.06496 0
M  V30 1412 N 138.941 1.26152 0.944643 0
M  V30 1413 C 139.873 1.03199 2.04652 0
M  V30 1414 C 140.886 -0.00642356 1.62799 0
M  V30 1415 O 142.075 0.233263 1.76969 0
M  V30 1416 C 139.175 0.540111 3.34568 0
M  V30 1417 C 138.348 1.64697 4.05208 0
M  V30 1418 C 137.407 1.15374 5.13396 0
M  V30 1419 O 136.433 1.85013 5.38293 0
M  V30 1420 N 137.635 0.00031529 5.805 0
M  V30 1421 H 140.4 1.9808 2.2491 0
M  V30 1422 H 137.961 1.17491 1.11389 0
M  V30 1423 H 139.953 0.194401 4.04233 0
M  V30 1424 H 138.523 -0.315021 3.11009 0
M  V30 1425 H 137.743 2.16379 3.29506 0
M  V30 1426 H 139.031 2.3903 4.49157 0
M  V30 1427 H 138.429 -0.581336 5.62705 0
M  V30 1428 H 136.986 -0.286346 6.51171 0
M  V30 1429 N 140.419 -1.14872 1.07899 0
M  V30 1430 C 141.659 -1.8745 0.814965 0
M  V30 1431 C 142.023 -1.80758 -0.64733 0
M  V30 1432 O 143.224 -2.48422 -1.02664 0
M  V30 1433 C 141.495 -3.32286 1.31607 0
M  V30 1434 S 143.054 -4.22537 1.18357 0
M  V30 1435 H 139.872 -0.646833 0.295174 0
M  V30 1436 H 142.474 -1.38555 1.37923 0
M  V30 1437 H 141.178 -3.34703 2.37491 0
M  V30 1438 H 140.709 -3.86238 0.747261 0
M  V30 1439 H 142.724 -4.96044 0.124586 0
M  V30 1440 N 141.898 -0.863906 -1.31812 0
M  V30 1441 C 143.309 -0.52522 -1.7916 0
M  V30 1442 C 143.66 0.957518 -1.71248 0
M  V30 1443 O 142.785 1.74734 -1.27659 0
M  V30 1444 C 143.38 -0.9466 -3.25307 0
M  V30 1445 C 141.939 -0.659668 -3.70574 0
M  V30 1446 C 141.086 -1.14126 -2.52726 0
M  V30 1447 H 144.037 -1.05022 -1.1898 0
M  V30 1448 H 144.058 -0.266766 -3.79564 0
M  V30 1449 H 143.57 -2.02579 -3.31034 0
M  V30 1450 H 141.671 0.408416 -3.70355 0
M  V30 1451 H 141.784 -1.23245 -4.62977 0
M  V30 1452 H 140.148 -0.561216 -2.4844 0
M  V30 1453 H 140.931 -2.22775 -2.61201 0
M  V30 1454 N 143.376 1.44774 -0.622745 0
M  V30 1455 C 144.601 2.06999 -0.128968 0
M  V30 1456 C 145.026 1.4617 1.1839 0
M  V30 1457 O 144.384 0.560007 1.72434 0
M  V30 1458 C 144.432 3.60595 -0.0188351 0
M  V30 1459 O 143.536 3.99398 1.02739 0
M  V30 1460 H 142.877 0.659047 -0.0809544 0
M  V30 1461 H 145.407 1.85784 -0.85705 0
M  V30 1462 H 145.417 4.07627 0.174476 0
M  V30 1463 H 144.092 4.04252 -0.977384 0
M  V30 1464 H 142.669 3.64011 0.809326 0
M  V30 1465 N 144.854 0.36279 1.53368 0
M  V30 1466 C 145.784 -0.476976 2.28576 0
M  V30 1467 C 146.765 -1.08631 1.30894 0
M  V30 1468 O 147.95 -1.10409 1.59761 0
M  V30 1469 C 145.08 -1.61828 3.07293 0
M  V30 1470 C 144.034 -1.13633 4.1264 0
M  V30 1471 C 143.36 -2.36766 4.79423 0
M  V30 1472 C 144.66 -0.223061 5.21823 0
M  V30 1473 H 146.354 0.150474 2.99022 0
M  V30 1474 H 143.9 0.0738103 1.43811 0
M  V30 1475 H 145.853 -2.21237 3.58653 0
M  V30 1476 H 144.577 -2.27292 2.34533 0
M  V30 1477 H 143.236 -0.564945 3.62221 0
M  V30 1478 H 142.884 -3.0068 4.03238 0
M  V30 1479 H 142.584 -2.05192 5.50609 0
M  V30 1480 H 144.108 -2.96865 5.33576 0
M  V30 1481 H 145.522 -0.724545 5.68703 0
M  V30 1482 H 143.919 0.001678 6.001 0
M  V30 1483 H 144.989 0.735553 4.79289 0
M  V30 1484 N 146.332 -1.57332 0.0918853 0
M  V30 1485 C 147.262 -2.16872 -0.865371 0
M  V30 1486 C 148.243 -1.10118 -1.29646 0
M  V30 1487 O 149.428 -1.38242 -1.36392 0
M  V30 1488 C 146.558 -2.74649 -2.12569 0
M  V30 1489 C 145.512 -3.86747 -1.83333 0
M  V30 1490 C 144.838 -4.31212 -3.16166 0
M  V30 1491 C 146.138 -5.10089 -1.1228 0
M  V30 1492 H 147.832 -2.97114 -0.369307 0
M  V30 1493 H 145.378 -1.42918 -0.176194 0
M  V30 1494 H 147.331 -3.14952 -2.7997 0
M  V30 1495 H 146.055 -1.91657 -2.64452 0
M  V30 1496 H 144.714 -3.46978 -1.18331 0
M  V30 1497 H 144.362 -3.45115 -3.6593 0
M  V30 1498 H 144.062 -5.06788 -2.97388 0
M  V30 1499 H 145.586 -4.74146 -3.84731 0
M  V30 1500 H 147 -5.47582 -1.69785 0
M  V30 1501 H 145.397 -5.91073 -1.03693 0
M  V30 1502 H 146.467 -4.84786 -0.105041 0
M  V30 1503 N 147.81 0.181792 -1.56548 0
M  V30 1504 C 149.057 0.900097 -1.81396 0
M  V30 1505 C 149.385 1.82695 -0.667281 0
M  V30 1506 O 148.64 1.92614 0.346146 0
M  V30 1507 C 148.939 1.73728 -3.12335 0
M  V30 1508 C 148.605 0.960255 -4.40556 0
M  V30 1509 C 147.267 0.745766 -4.75386 0
M  V30 1510 C 149.619 0.414477 -5.19549 0
M  V30 1511 C 146.947 -0.0257694 -5.86694 0
M  V30 1512 C 149.299 -0.343916 -6.31664 0
M  V30 1513 C 147.963 -0.569301 -6.65068 0
M  V30 1514 H 147.233 0.329369 -0.663775 0
M  V30 1515 H 149.88 0.165647 -1.90782 0
M  V30 1516 H 148.185 2.54081 -2.98245 0
M  V30 1517 H 149.882 2.29591 -3.28769 0
M  V30 1518 H 146.472 1.13746 -4.13231 0
M  V30 1519 H 150.656 0.567554 -4.93044 0
M  V30 1520 H 145.912 -0.210233 -6.11038 0
M  V30 1521 H 150.086 -0.774133 -6.92084 0
M  V30 1522 H 147.713 -1.16903 -7.51158 0
M  V30 1523 N 149.288 1.51039 0.449983 0
M  V30 1524 C 150.565 1.53612 1.21089 0
M  V30 1525 C 150.945 0.292997 2.09057 0
M  V30 1526 O 150.293 -0.72259 2.16774 0
M  V30 1527 C 150.503 2.84337 2.0237 0
M  V30 1528 C 151.851 3.35807 2.59843 0
M  V30 1529 O 152.875 2.85802 2.12593 0
M  V30 1530 O 151.734 4.23029 3.45989 0
M  V30 1531 H 148.828 0.617057 0.550608 0
M  V30 1532 H 151.374 1.63344 0.460082 0
M  V30 1533 H 150.146 3.66278 1.37681 0
M  V30 1534 H 149.769 2.77708 2.84542 0
M  V30 1535 N 150.766 -0.704594 1.40972 0
M  V30 1536 C 151.696 -1.83124 1.44872 0
M  V30 1537 C 152.677 -1.67281 0.30838 0
M  V30 1538 O 153.862 -1.87149 0.518556 0
M  V30 1539 C 150.992 -3.21181 1.32136 0
M  V30 1540 C 149.946 -3.51714 2.43888 0
M  V30 1541 C 149.272 -4.89032 2.16222 0
M  V30 1542 C 150.572 -3.516 3.86232 0
M  V30 1543 H 152.266 -1.80117 2.39161 0
M  V30 1544 H 149.812 -0.865145 1.15114 0
M  V30 1545 H 151.765 -3.99702 1.33479 0
M  V30 1546 H 150.489 -3.24791 0.343279 0
M  V30 1547 H 149.148 -2.75539 2.41813 0
M  V30 1548 H 148.796 -4.89256 1.16778 0
M  V30 1549 H 148.496 -5.10426 2.911 0
M  V30 1550 H 150.02 -5.69873 2.19265 0
M  V30 1551 H 151.434 -4.2014 3.9007 0
M  V30 1552 H 149.831 -3.84523 4.60719 0
M  V30 1553 H 150.901 -2.50757 4.15029 0
M  V30 1554 N 152.244 -1.26651 -0.937939 0
M  V30 1555 C 153.66 -1.03834 -1.21205 0
M  V30 1556 C 153.86 0.234502 -2.00131 0
M  V30 1557 O 152.916 0.942767 -2.3424 0
M  V30 1558 C 154.229 -2.27167 -1.97017 0
M  V30 1559 C 155.777 -2.32101 -2.09996 0
M  V30 1560 C 156.252 -3.55136 -2.8921 0
M  V30 1561 N 157.743 -3.55632 -2.96783 0
M  V30 1562 C 158.478 -4.475 -3.58512 0
M  V30 1563 N 157.974 -5.4966 -4.21717 0
M  V30 1564 N 159.767 -4.35145 -3.55816 0
M  V30 1565 H 151.918 -2.08398 -0.410391 0
M  V30 1566 H 154.181 -0.916031 -0.244114 0
M  V30 1567 H 153.887 -3.19765 -1.46434 0
M  V30 1568 H 153.761 -2.31672 -2.97671 0
M  V30 1569 H 156.148 -1.40015 -2.59769 0
M  V30 1570 H 156.229 -2.31605 -1.08594 0
M  V30 1571 H 155.873 -4.47553 -2.40123 0
M  V30 1572 H 155.803 -3.5288 -3.90875 0
M  V30 1573 H 158.294 -2.81743 -2.51852 0
M  V30 1574 H 158.607 -6.15943 -4.66727 0
M  V30 1575 H 156.952 -5.53514 -4.20294 0
M  V30 1576 H 160.143 -3.5455 -3.05634 0
M  V30 1577 H 160.316 -5.06934 -4.03636 0
M  V30 1578 N 153.722 1.14298 -1.08507 0
M  V30 1579 C 154.999 1.81544 -0.728088 0
M  V30 1580 C 155.379 1.95838 0.78808 0
M  V30 1581 O 154.727 1.51904 1.70697 0
M  V30 1582 C 154.937 3.17169 -1.45619 0
M  V30 1583 C 156.285 3.9265 -1.61591 0
M  V30 1584 O 157.309 3.26762 -1.41793 0
M  V30 1585 O 156.168 5.10807 -1.94263 0
M  V30 1586 H 153.262 0.78491 -0.260471 0
M  V30 1587 H 155.808 1.21307 -1.18671 0
M  V30 1588 H 154.58 3.01934 -2.489 0
M  V30 1589 H 154.203 3.851 -0.989124 0
M  V30 1590 N 155.201 0.870884 1.31352 0
M  V30 1591 C 156.111 0.330783 2.32256 0
M  V30 1592 C 157.127 -0.559767 1.6475 0
M  V30 1593 O 158.303 -0.456263 1.96164 0
M  V30 1594 C 155.368 -0.458137 3.4366 0
M  V30 1595 C 154.429 0.460482 4.26823 0
M  V30 1596 C 153.662 -0.290881 5.32907 0
M  V30 1597 O 153.885 -1.51885 5.49806 0
M  V30 1598 O 152.819 0.351732 6.00871 0
M  V30 1599 H 156.645 1.16718 2.80376 0
M  V30 1600 H 154.23 0.634285 1.35267 0
M  V30 1601 H 156.112 -0.905343 4.1156 0
M  V30 1602 H 154.787 -1.27106 2.97701 0
M  V30 1603 H 153.694 0.956207 3.61673 0
M  V30 1604 H 155.027 1.23903 4.7635 0
M  V30 1605 N 156.679 -1.44442 0.630414 0
M  V30 1606 C 157.907 -2.06414 0.141671 0
M  V30 1607 C 158.322 -1.47105 -1.18345 0
M  V30 1608 O 157.679 -0.593662 -1.72574 0
M  V30 1609 C 157.73 -3.61494 0.0199784 0
M  V30 1610 O 157.451 -4.18594 1.29269 0
M  V30 1611 C 158.952 -4.40499 -0.497544 0
M  V30 1612 H 156.172 -0.666292 0.0793452 0
M  V30 1613 H 158.716 -1.85323 0.864614 0
M  V30 1614 H 156.871 -3.8185 -0.653402 0
M  V30 1615 H 157.285 -5.12026 1.13707 0
M  V30 1616 H 158.759 -5.49433 -0.531708 0
M  V30 1617 H 159.236 -4.11895 -1.52445 0
M  V30 1618 H 159.842 -4.25061 0.142562 0
M  V30 1619 N 158.157 -0.370918 -1.53173 0
M  V30 1620 C 159.573 -0.0200818 -1.59587 0
M  V30 1621 C 159.773 1.46279 -1.38581 0
M  V30 1622 O 158.829 2.22506 -1.19363 0
M  V30 1623 C 160.142 -0.4808 -2.96831 0
M  V30 1624 C 161.69 -0.435477 -3.09956 0
M  V30 1625 C 162.165 -0.872092 -4.4962 0
M  V30 1626 N 163.656 -0.827364 -4.55751 0
M  V30 1627 C 164.391 -1.13683 -5.62018 0
M  V30 1628 N 163.887 -1.51584 -6.76014 0
M  V30 1629 N 165.68 -1.05927 -5.52029 0
M  V30 1630 H 157.831 -1.33652 -1.65079 0
M  V30 1631 H 160.094 -0.546634 -0.774529 0
M  V30 1632 H 159.8 -1.51577 -3.1736 0
M  V30 1633 H 159.674 0.129796 -3.76977 0
M  V30 1634 H 162.061 0.590371 -2.89134 0
M  V30 1635 H 162.142 -1.08164 -2.31806 0
M  V30 1636 H 161.786 -1.89608 -4.71181 0
M  V30 1637 H 161.716 -0.203127 -5.26208 0
M  V30 1638 H 164.207 -0.548216 -3.73902 0
M  V30 1639 H 164.52 -1.73609 -7.53047 0
M  V30 1640 H 162.865 -1.55454 -6.77391 0
M  V30 1641 H 166.056 -0.762321 -4.61851 0
M  V30 1642 H 166.229 -1.30378 -6.34749 0
M  V30 1643 N 159.635 1.57281 -0.100228 0
M  V30 1644 C 160.583 2.15542 0.874328 0
M  V30 1645 C 161.577 1.09962 1.28859 0
M  V30 1646 O 162.783 1.28298 1.26252 0
M  V30 1647 H 159.158 0.689567 0.300003 0
M  V30 1648 H 161.129 2.96241 0.35829 0
M  V30 1649 C 159.878 2.75454 2.1218 0
M  V30 1650 H 159.201 3.56384 1.81193 0
M  V30 1651 H 160.641 3.19781 2.78417 0
M  V30 1652 C 159.1 1.71602 2.89921 0
M  V30 1653 O 159.63 1.15804 3.84646 0
M  V30 1654 N 157.836 1.41975 2.53558 0
M  V30 1655 H 157.383 1.87539 1.76598 0
M  V30 1656 H 157.341 0.727274 3.05873 0
M  V30 1657 N 161.113 -0.173488 1.56642 0
M  V30 1658 C 162.359 -0.891784 1.8214 0
M  V30 1659 C 162.692 -1.8199 0.677736 0
M  V30 1660 O 161.967 -1.91842 -0.320446 0
M  V30 1661 C 162.25 -1.68933 3.18015 0
M  V30 1662 C 162.103 -0.784487 4.42906 0
M  V30 1663 C 163.422 -2.65748 3.50808 0
M  V30 1664 H 160.541 -0.322761 0.662567 0
M  V30 1665 H 163.183 -0.158095 1.89341 0
M  V30 1666 H 161.333 -2.31482 3.12007 0
M  V30 1667 H 163.005 -0.172046 4.60979 0
M  V30 1668 H 161.248 -0.0924117 4.33702 0
M  V30 1669 H 161.919 -1.37799 5.34524 0
M  V30 1670 H 164.395 -2.13327 3.57255 0
M  V30 1671 H 163.271 -3.18619 4.4696 0
M  V30 1672 H 163.532 -3.45842 2.75401 0
M  V30 1673 N 162.591 -1.51276 -0.441967 0
M  V30 1674 C 163.839 -1.63392 -1.18943 0
M  V30 1675 C 164.16 -0.350159 -1.9183 0
M  V30 1676 O 163.43 0.633784 -1.85364 0
M  V30 1677 H 162.01 -0.602164 -0.442049 0
M  V30 1678 H 164.672 -1.88186 -0.507165 0
M  V30 1679 H 163.768 -2.45934 -1.92154 0
M  V30 1680 N 164.069 0.697108 -1.41344 0
M  V30 1681 C 165.294 1.49096 -1.44171 0
M  V30 1682 C 165.719 1.88038 -0.0481568 0
M  V30 1683 O 165.077 1.54525 0.948243 0
M  V30 1684 C 165.125 2.73088 -2.3549 0
M  V30 1685 O 164.229 3.70514 -1.81088 0
M  V30 1686 H 163.57 0.448801 -0.489361 0
M  V30 1687 H 166.1 0.856992 -1.85787 0
M  V30 1688 H 166.11 3.21413 -2.51312 0
M  V30 1689 H 164.785 2.44081 -3.36745 0
M  V30 1690 H 163.362 3.29441 -1.74708 0
M  V30 1691 N 165.547 1.27147 0.931209 0
M  V30 1692 C 166.479 1.05364 2.03546 0
M  V30 1693 C 167.492 0.0108438 1.62796 0
M  V30 1694 O 168.681 0.25202 1.76712 0
M  V30 1695 C 165.781 0.575566 3.33977 0
M  V30 1696 C 164.954 1.68985 4.03439 0
M  V30 1697 C 164.013 1.20813 5.12143 0
M  V30 1698 O 163.039 1.90712 5.363 0
M  V30 1699 N 164.241 0.0618851 5.80467 0
M  V30 1700 H 167.006 2.00454 2.22796 0
M  V30 1701 H 164.567 1.18666 1.10136 0
M  V30 1702 H 166.559 0.237264 4.04004 0
M  V30 1703 H 165.129 -0.282016 3.11325 0
M  V30 1704 H 164.349 2.19861 3.27192 0
M  V30 1705 H 165.637 2.4378 4.46597 0
M  V30 1706 H 165.035 -0.521621 5.6329 0
M  V30 1707 H 163.592 -0.217264 6.51438 0
M  V30 1708 N 167.025 -1.13721 1.09112 0
M  V30 1709 C 168.253 -1.88773 0.846899 0
M  V30 1710 C 168.668 -1.7896 -0.601572 0
M  V30 1711 O 168.025 -1.15394 -1.41388 0
M  V30 1712 C 168.076 -3.3849 1.26913 0
M  V30 1713 O 167.797 -3.48043 2.66079 0
M  V30 1714 C 169.298 -4.30518 1.05682 0
M  V30 1715 H 166.518 -0.59772 0.304914 0
M  V30 1716 H 169.062 -1.43977 1.45227 0
M  V30 1717 H 167.217 -3.80881 0.707723 0
M  V30 1718 H 167.631 -4.4109 2.83795 0
M  V30 1719 H 169.105 -5.3391 1.40156 0
M  V30 1720 H 169.582 -4.392 -0.00563416 0
M  V30 1721 H 170.188 -3.93893 1.60402 0
M  V30 1722 N 168.503 -0.877838 -1.30888 0
M  V30 1723 C 169.433 -0.35534 -2.3078 0
M  V30 1724 C 170.414 0.557994 -1.60687 0
M  V30 1725 O 171.599 0.473355 -1.88343 0
M  V30 1726 C 168.729 0.437221 -3.44537 0
M  V30 1727 C 167.683 -0.383715 -4.26276 0
M  V30 1728 C 167.009 0.535014 -5.32017 0
M  V30 1729 C 168.309 -1.62201 -4.96476 0
M  V30 1730 H 170.003 -1.19007 -2.74732 0
M  V30 1731 H 167.549 -0.573698 -1.32078 0
M  V30 1732 H 169.502 0.813334 -4.13477 0
M  V30 1733 H 168.226 1.30553 -2.99372 0
M  V30 1734 H 166.885 -0.741874 -3.59015 0
M  V30 1735 H 166.533 1.40083 -4.831 0
M  V30 1736 H 166.233 -0.0104211 -5.87599 0
M  V30 1737 H 167.757 0.907799 -6.03814 0
M  V30 1738 H 169.171 -1.31689 -5.5797 0
M  V30 1739 H 167.568 -2.10711 -5.61891 0
M  V30 1740 H 168.638 -2.37044 -4.23011 0
M  V30 1741 N 169.982 1.44106 -0.638065 0
M  V30 1742 C 170.914 2.28976 0.101205 0
M  V30 1743 C 171.927 1.4167 0.802088 0
M  V30 1744 O 173.116 1.65755 0.662375 0
M  V30 1745 C 170.216 3.18217 1.16581 0
M  V30 1746 C 169.389 4.33978 0.546066 0
M  V30 1747 C 168.448 5.04202 1.50554 0
M  V30 1748 O 167.474 5.59986 1.01999 0
M  V30 1749 N 168.676 5.06296 2.8398 0
M  V30 1750 H 171.441 2.93064 -0.627186 0
M  V30 1751 H 169.002 1.54629 -0.479731 0
M  V30 1752 H 170.994 3.62061 1.80815 0
M  V30 1753 H 169.564 2.55833 1.79634 0
M  V30 1754 H 168.784 3.93239 -0.275046 0
M  V30 1755 H 170.072 5.08675 0.112793 0
M  V30 1756 H 169.47 4.62319 3.26002 0
M  V30 1757 H 168.027 5.53907 3.43556 0
M  V30 1758 N 171.46 0.379036 1.52974 0
M  V30 1759 C 172.688 -0.20679 2.05864 0
M  V30 1760 C 173.103 -1.41356 1.25155 0
M  V30 1761 O 172.46 -1.8009 0.295588 0
M  V30 1762 C 172.511 -0.587045 3.56702 0
M  V30 1763 O 172.232 0.571776 4.34353 0
M  V30 1764 C 173.733 -1.22983 4.25899 0
M  V30 1765 H 170.953 -0.0336123 0.670158 0
M  V30 1766 H 173.497 0.541298 1.97206 0
M  V30 1767 H 171.652 -1.28504 3.65466 0
M  V30 1768 H 172.066 0.261544 5.23847 0
M  V30 1769 H 173.54 -1.44635 5.32715 0
M  V30 1770 H 174.017 -2.19416 3.80465 0
M  V30 1771 H 174.623 -0.572892 4.21424 0
M  V30 1772 N 172.938 -1.57226 0.108567 0
M  V30 1773 C 174.185 -1.94833 -0.551943 0
M  V30 1774 C 174.513 -0.991204 -1.67348 0
M  V30 1775 O 173.768 -0.0131878 -1.95696 0
M  V30 1776 C 174.067 -3.38911 -1.13463 0
M  V30 1777 C 173.733 -4.50696 -0.135509 0
M  V30 1778 C 172.395 -4.80998 0.139252 0
M  V30 1779 C 174.747 -5.18333 0.545957 0
M  V30 1780 C 172.075 -5.76259 1.10194 0
M  V30 1781 C 174.427 -6.14627 1.49721 0
M  V30 1782 C 173.091 -6.43327 1.78006 0
M  V30 1783 H 172.361 -0.712944 -0.20197 0
M  V30 1784 H 175.008 -1.90582 0.18726 0
M  V30 1785 H 173.313 -3.39805 -1.95037 0
M  V30 1786 H 175.01 -3.65317 -1.65362 0
M  V30 1787 H 171.6 -4.27087 -0.359846 0
M  V30 1788 H 175.784 -4.95087 0.346842 0
M  V30 1789 H 171.04 -5.96804 1.32795 0
M  V30 1790 H 175.214 -6.66126 2.03099 0
M  V30 1791 H 172.841 -7.1695 2.52759 0
M  V30 1792 N 174.416 0.165178 -1.56732 0
M  V30 1793 C 175.363 1.2044 -1.96883 0
M  V30 1794 C 176.333 1.43664 -0.833657 0
M  V30 1795 O 177.518 1.56302 -1.09427 0
M  V30 1796 C 174.658 2.53727 -2.33916 0
M  V30 1797 C 173.771 2.3783 -3.6064 0
M  V30 1798 C 172.906 3.64026 -3.86857 0
M  V30 1799 C 171.945 3.43088 -5.06909 0
M  V30 1800 N 171.082 4.61369 -5.29229 0
M  V30 1801 H 175.922 0.854996 -2.85471 0
M  V30 1802 H 173.459 0.41076 -1.41249 0
M  V30 1803 H 175.417 3.31419 -2.53411 0
M  V30 1804 H 174.047 2.8665 -1.48431 0
M  V30 1805 H 173.099 1.51282 -3.49024 0
M  V30 1806 H 174.411 2.18308 -4.4849 0
M  V30 1807 H 173.565 4.50152 -4.06753 0
M  V30 1808 H 172.304 3.86533 -2.97394 0
M  V30 1809 H 171.309 2.55349 -4.86906 0
M  V30 1810 H 172.534 3.21997 -5.97909 0
M  V30 1811 H 170.48 4.84084 -4.42718 0
M  V30 1812 H 170.397 4.44783 -6.11313 0
M  V30 1813 H 171.665 5.48761 -5.53608 0
M  V30 1814 N 175.894 1.51508 0.433938 0
M  V30 1815 C 176.857 1.72473 1.50949 0
M  V30 1816 C 177.857 0.594725 1.49398 0
M  V30 1817 O 179.047 0.862315 1.5136 0
M  V30 1818 C 176.179 1.78431 2.90474 0
M  V30 1819 H 177.372 2.68467 1.33662 0
M  V30 1820 H 174.925 1.41549 0.662836 0
M  V30 1821 H 175.66 0.842645 3.13161 0
M  V30 1822 H 175.445 2.60558 2.93005 0
M  V30 1823 H 176.935 1.96479 3.68491 0
M  V30 1824 N 177.372 -0.689602 1.41712 0
M  V30 1825 C 178.788 -1.00093 1.24312 0
M  V30 1826 C 178.988 -2.01036 0.136729 0
M  V30 1827 O 178.044 -2.47562 -0.496918 0
M  V30 1828 C 179.357 -1.51985 2.59463 0
M  V30 1829 C 180.905 -1.63838 2.66695 0
M  V30 1830 C 181.38 -2.1913 4.02177 0
M  V30 1831 N 182.871 -2.26483 4.04054 0
M  V30 1832 C 183.606 -2.70306 5.0569 0
M  V30 1833 N 183.102 -3.13691 6.17713 0
M  V30 1834 N 184.895 -2.69923 4.9305 0
M  V30 1835 H 177.046 -0.0210029 2.1239 0
M  V30 1836 H 179.309 -0.0718733 0.945272 0
M  V30 1837 H 179.015 -0.85269 3.41207 0
M  V30 1838 H 178.889 -2.50103 2.82362 0
M  V30 1839 H 181.276 -2.29664 1.85306 0
M  V30 1840 H 181.357 -0.642492 2.476 0
M  V30 1841 H 181.001 -1.53918 4.84016 0
M  V30 1842 H 180.931 -3.19482 4.18615 0
M  V30 1843 H 183.422 -1.95874 3.23174 0
M  V30 1844 H 183.735 -3.45773 6.9113 0
M  V30 1845 H 182.08 -3.11585 6.21241 0
M  V30 1846 H 185.271 -2.35382 4.04614 0
M  V30 1847 H 185.444 -3.03758 5.72394 0
M  V30 1848 N 178.85 -1.27639 -0.924453 0
M  V30 1849 C 179.782 -1.06442 -2.02985 0
M  V30 1850 C 180.795 -0.0194771 -1.62788 0
M  V30 1851 O 181.984 -0.261388 -1.76576 0
M  V30 1852 C 179.084 -0.59327 -3.33667 0
M  V30 1853 C 178.257 -1.71123 -4.02537 0
M  V30 1854 C 177.316 -1.23527 -5.11495 0
M  V30 1855 O 176.342 -1.93553 -5.35281 0
M  V30 1856 N 177.544 -0.0926678 -5.80426 0
M  V30 1857 H 180.309 -2.01633 -2.2173 0
M  V30 1858 H 177.87 -1.19248 -1.09505 0
M  V30 1859 H 179.862 -0.258686 -4.03872 0
M  V30 1860 H 178.432 0.265502 -3.1147 0
M  V30 1861 H 177.652 -2.21593 -3.26022 0
M  V30 1862 H 178.94 -2.46145 -4.45298 0
M  V30 1863 H 178.338 0.491741 -5.63559 0
M  V30 1864 H 176.895 0.182714 -6.51544 0
M  V30 1865 N 180.328 1.1314 -1.09713 0
M  V30 1866 C 181.576 1.84119 -0.833338 0
M  V30 1867 C 181.897 1.84097 0.642904 0
M  V30 1868 O 181.167 1.29881 1.46655 0
M  V30 1869 H 179.747 0.681766 -0.305293 0
M  V30 1870 H 182.409 1.37038 -1.38588 0
M  V30 1871 H 181.505 2.88543 -1.18951 0
M  V30 1872 N 181.806 0.884767 1.30421 0
M  V30 1873 C 182.736 0.367574 2.30589 0
M  V30 1874 C 183.717 -0.549464 1.60981 0
M  V30 1875 O 184.902 -0.46336 1.88591 0
M  V30 1876 C 182.032 -0.418944 3.44764 0
M  V30 1877 C 180.986 0.406316 4.26067 0
M  V30 1878 C 180.312 -0.506793 5.32293 0
M  V30 1879 C 181.612 1.64832 4.95608 0
M  V30 1880 H 183.306 1.20462 2.74097 0
M  V30 1881 H 180.852 0.580695 1.31772 0
M  V30 1882 H 182.805 -0.791395 4.13902 0
M  V30 1883 H 181.529 -1.28964 3.0006 0
M  V30 1884 H 180.188 0.760903 3.58617 0
M  V30 1885 H 179.836 -1.37519 4.83836 0
M  V30 1886 H 179.536 0.0415828 5.87585 0
M  V30 1887 H 181.06 -0.875764 6.04287 0
M  V30 1888 H 182.474 1.34646 5.57264 0
M  V30 1889 H 180.871 2.13688 5.60765 0
M  V30 1890 H 181.941 2.39284 4.21748 0
M  V30 1891 N 183.284 -1.43765 0.645699 0
M  V30 1892 C 184.532 -2.01499 0.155731 0
M  V30 1893 C 184.853 -1.51151 -1.232 0
M  V30 1894 O 184.123 -0.721044 -1.82148 0
M  V30 1895 H 182.703 -0.745003 0.0545817 0
M  V30 1896 H 185.365 -1.76075 0.835677 0
M  V30 1897 H 184.461 -3.1181 0.134577 0
M  V30 1898 N 184.763 -0.387143 -1.52771 0
M  V30 1899 C 185.726 0.436939 -2.24997 0
M  V30 1900 C 186.726 0.991991 -1.26555 0
M  V30 1901 O 187.916 0.874335 -1.50669 0
M  V30 1902 C 185.048 1.61281 -3.00335 0
M  V30 1903 H 186.241 -0.195365 -2.99263 0
M  V30 1904 H 183.794 -0.139218 -1.55679 0
M  V30 1905 H 184.529 2.2826 -2.30364 0
M  V30 1906 H 184.314 1.22154 -3.72587 0
M  V30 1907 H 185.804 2.19629 -3.5518 0
M  V30 1908 N 186.241 1.57166 -0.116904 0
M  V30 1909 C 187.466 1.999 0.55271 0
M  V30 1910 C 187.891 0.996039 1.59564 0
M  V30 1911 O 187.249 -0.032556 1.81271 0
M  V30 1912 C 187.297 3.4152 1.15742 0
M  V30 1913 O 186.401 3.44106 2.27299 0
M  V30 1914 H 185.742 0.649447 0.138258 0
M  V30 1915 H 188.272 2.03573 -0.204759 0
M  V30 1916 H 188.282 3.79684 1.49346 0
M  V30 1917 H 186.957 4.14034 0.393493 0
M  V30 1918 H 185.534 3.17759 1.9515 0
M  V30 1919 N 187.719 -0.156864 1.56817 0
M  V30 1920 C 188.965 -0.872416 1.83076 0
M  V30 1921 C 189.298 -1.81261 0.697001 0
M  V30 1922 O 188.573 -1.92171 -0.30008 0
M  V30 1923 C 188.856 -1.65551 3.19789 0
M  V30 1924 C 188.709 -0.737467 4.43713 0
M  V30 1925 C 190.028 -2.62012 3.53606 0
M  V30 1926 H 187.147 -0.315715 0.665953 0
M  V30 1927 H 189.789 -0.138004 1.89498 0
M  V30 1928 H 187.939 -2.28159 3.14445 0
M  V30 1929 H 189.611 -0.123143 4.61136 0
M  V30 1930 H 187.854 -0.0464067 4.33775 0
M  V30 1931 H 188.525 -1.32122 5.35955 0
M  V30 1932 H 191.001 -2.09525 3.59497 0
M  V30 1933 H 189.877 -3.13861 4.50314 0
M  V30 1934 H 190.138 -3.42902 2.79053 0
M  V30 1935 N 189.197 -1.51736 -0.425897 0
M  V30 1936 C 190.443 -1.65214 -1.1761 0
M  V30 1937 C 190.776 -0.372778 -1.90589 0
M  V30 1938 O 190.051 0.628139 -1.84078 0
M  V30 1939 C 190.334 -2.86312 -2.18398 0
M  V30 1940 C 190.187 -4.24254 -1.49426 0
M  V30 1941 C 191.506 -3.02925 -3.19256 0
M  V30 1942 H 188.625 -0.601263 -0.426206 0
M  V30 1943 H 191.267 -1.8425 -0.463882 0
M  V30 1944 H 189.417 -2.70213 -2.79137 0
M  V30 1945 H 191.089 -4.52046 -0.919362 0
M  V30 1946 H 189.332 -4.26426 -0.796432 0
M  V30 1947 H 190.003 -5.05001 -2.22885 0
M  V30 1948 H 192.479 -3.1781 -2.68581 0
M  V30 1949 H 191.355 -3.89199 -3.8706 0
M  V30 1950 H 191.616 -2.15497 -3.86023 0
M  V30 1951 N 190.675 0.682077 -1.42076 0
M  V30 1952 C 191.9 1.47558 -1.45744 0
M  V30 1953 C 192.325 1.87977 -0.0680981 0
M  V30 1954 O 191.683 1.55522 0.9318 0
M  V30 1955 C 191.731 2.70575 -2.38373 0
M  V30 1956 O 190.835 3.68573 -1.85007 0
M  V30 1957 H 190.176 0.443585 -0.494093 0
M  V30 1958 H 192.706 0.837238 -1.86686 0
M  V30 1959 H 192.716 3.18729 -2.54707 0
M  V30 1960 H 191.391 2.40495 -3.39315 0
M  V30 1961 H 189.968 3.2757 -1.78192 0
M  V30 1962 N 192.153 1.28127 0.917671 0
M  V30 1963 C 193.399 1.16232 1.66918 0
M  V30 1964 C 193.754 -0.28701 1.90247 0
M  V30 1965 O 193.047 -1.20586 1.48895 0
M  V30 1966 C 193.241 1.89018 3.03327 0
M  V30 1967 C 193.07 3.4088 2.9331 0
M  V30 1968 C 191.84 4.10214 2.95047 0
M  V30 1969 C 194.038 4.36689 2.71675 0
M  V30 1970 N 192.02 5.48571 2.75577 0
M  V30 1971 C 193.391 5.62382 2.6101 0
M  V30 1972 C 195.446 4.26661 2.56641 0
M  V30 1973 C 194.149 6.79189 2.36843 0
M  V30 1974 C 196.175 5.432 2.33853 0
M  V30 1975 C 195.537 6.67855 2.23939 0
M  V30 1976 H 191.636 0.48024 0.617166 0
M  V30 1977 H 194.22 1.61727 1.08409 0
M  V30 1978 H 192.391 1.45963 3.59929 0
M  V30 1979 H 194.123 1.69541 3.67475 0
M  V30 1980 H 190.878 3.61762 3.05655 0
M  V30 1981 H 191.302 6.21287 2.68945 0
M  V30 1982 H 195.944 3.30998 2.63059 0
M  V30 1983 H 193.662 7.74926 2.29164 0
M  V30 1984 H 197.248 5.37328 2.23091 0
M  V30 1985 H 196.128 7.56511 2.06546 0
M  V30 1986 N 193.631 -1.12557 1.10312 0
M  V30 1987 C 194.856 -1.88405 0.867085 0
M  V30 1988 C 195.281 -1.79038 -0.576817 0
M  V30 1989 O 194.639 -1.14439 -1.40618 0
M  V30 1990 C 194.687 -3.3563 1.31851 0
M  V30 1991 O 193.791 -4.09565 0.482734 0
M  V30 1992 H 193.132 -0.585455 0.313271 0
M  V30 1993 H 195.662 -1.42352 1.4696 0
M  V30 1994 H 195.672 -3.86469 1.3079 0
M  V30 1995 H 194.347 -3.41765 2.37001 0
M  V30 1996 H 192.924 -3.68695 0.558448 0
M  V30 1997 N 195.109 -0.891671 -1.2995 0
M  V30 1998 C 196.386 -0.433307 -1.9074 0
M  V30 1999 C 196.766 1.08646 -1.80995 0
M  V30 2000 O 196.114 1.92476 -1.23147 0
M  V30 2001 C 196.324 -0.938895 -3.36134 0
M  V30 2002 C 197.672 -0.977829 -4.13187 0
M  V30 2003 O 198.696 -0.886015 -3.45005 0
M  V30 2004 O 197.555 -1.11453 -5.35015 0
M  V30 2005 H 194.649 -0.133699 -0.816121 0
M  V30 2006 H 197.195 -0.981011 -1.38471 0
M  V30 2007 H 195.967 -1.98281 -3.37343 0
M  V30 2008 H 195.59 -0.37074 -3.95868 0
M  V30 2009 N 196.587 1.43421 -0.653314 0
M  V30 2010 C 197.833 2.02111 -0.166992 0
M  V30 2011 C 198.166 1.51423 1.21592 0
M  V30 2012 O 197.441 0.707389 1.8118 0
M  V30 2013 C 197.724 3.5966 -0.177948 0
M  V30 2014 C 197.577 4.20579 -1.59478 0
M  V30 2015 C 198.896 4.37413 0.4856 0
M  V30 2016 H 196.015 0.734374 -0.0621557 0
M  V30 2017 H 198.657 1.70717 -0.834016 0
M  V30 2018 H 196.807 3.86537 0.390032 0
M  V30 2019 H 198.479 4.04732 -2.21336 0
M  V30 2020 H 196.722 3.77226 -2.14204 0
M  V30 2021 H 197.393 5.29665 -1.5543 0
M  V30 2022 H 199.869 4.161 0.00234528 0
M  V30 2023 H 198.745 5.47075 0.447207 0
M  V30 2024 H 199.006 4.13672 1.55974 0
M  V30 2025 N 198.065 0.39524 1.52563 0
M  V30 2026 C 199.314 -0.186321 2.00838 0
M  V30 2027 C 199.627 -1.47402 1.28577 0
M  V30 2028 O 200.833 -2.13599 1.67593 0
M  V30 2029 C 199.289 -0.382595 3.57861 0
M  V30 2030 C 198.897 0.892202 4.39026 0
M  V30 2031 C 200.641 -0.9202 4.14406 0
M  V30 2032 C 198.548 0.66388 5.87662 0
M  V30 2033 H 197.478 -0.0734041 0.750418 0
M  V30 2034 H 200.129 0.518552 1.76021 0
M  V30 2035 H 198.511 -1.14946 3.7895 0
M  V30 2036 H 199.685 1.66414 4.29701 0
M  V30 2037 H 198 1.35519 3.9373 0
M  V30 2038 H 200.597 -1.10683 5.23119 0
M  V30 2039 H 200.94 -1.89096 3.70875 0
M  V30 2040 H 201.473 -0.212751 3.97231 0
M  V30 2041 H 198.212 1.6058 6.35527 0
M  V30 2042 H 197.732 -0.0690193 5.9976 0
M  V30 2043 H 199.411 0.300699 6.46301 0
M  V30 2044 N 199.544 -1.57102 0.125237 0
M  V30 2045 C 200.79 -1.95697 -0.532035 0
M  V30 2046 C 201.123 -1.009 -1.6593 0
M  V30 2047 O 200.398 -0.047347 -1.94442 0
M  V30 2048 C 200.681 -3.44181 -1.05884 0
M  V30 2049 C 200.534 -4.49752 0.0654392 0
M  V30 2050 C 201.853 -3.94655 -1.9477 0
M  V30 2051 H 198.972 -0.711571 -0.191925 0
M  V30 2052 H 201.614 -1.88923 0.20206 0
M  V30 2053 H 199.764 -3.50085 -1.68442 0
M  V30 2054 H 201.436 -4.55943 0.700982 0
M  V30 2055 H 199.679 -4.27653 0.727709 0
M  V30 2056 H 200.35 -5.50924 -0.344505 0
M  V30 2057 H 202.826 -3.91094 -1.42074 0
M  V30 2058 H 201.702 -4.99057 -2.28546 0
M  V30 2059 H 201.963 -3.35718 -2.87656 0
M  V30 2060 N 201.022 0.148545 -1.56898 0
M  V30 2061 C 201.985 1.16736 -1.97244 0
M  V30 2062 C 202.985 1.35947 -0.858777 0
M  V30 2063 O 204.175 1.32966 -1.12542 0
M  V30 2064 C 201.307 2.52798 -2.28705 0
M  V30 2065 H 202.5 0.821279 -2.88435 0
M  V30 2066 H 200.053 0.391831 -1.51309 0
M  V30 2067 H 200.788 2.92381 -1.403 0
M  V30 2068 H 200.573 2.40216 -3.09901 0
M  V30 2069 H 202.063 3.26179 -2.60762 0
M  V30 2070 N 202.5 1.5196 0.417844 0
M  V30 2071 C 203.74 1.67262 1.17486 0
M  V30 2072 C 204.104 0.38983 1.88001 0
M  V30 2073 O 205.305 0.418845 2.65517 0
M  V30 2074 C 203.576 2.85526 2.14965 0
M  V30 2075 S 205.135 3.21263 2.98891 0
M  V30 2076 H 201.953 0.589077 0.398132 0
M  V30 2077 H 204.555 1.89927 0.463452 0
M  V30 2078 H 203.259 3.77145 1.61833 0
M  V30 2079 H 202.79 2.65107 2.90657 0
M  V30 2080 H 204.805 2.69208 4.16823 0
M  V30 2081 N 203.978 -0.674533 1.42435 0
M  V30 2082 C 204.941 -1.76986 1.45632 0
M  V30 2083 C 205.941 -1.5708 0.343871 0
M  V30 2084 O 207.131 -1.63367 0.604709 0
M  V30 2085 C 204.263 -3.15623 1.28822 0
M  V30 2086 H 205.456 -1.75539 2.43158 0
M  V30 2087 H 203.009 -0.884189 1.28887 0
M  V30 2088 H 203.744 -3.22696 0.322193 0
M  V30 2089 H 203.529 -3.31475 2.09444 0
M  V30 2090 H 205.019 -3.95537 1.33942 0
M  V30 2091 N 205.456 -1.28612 -0.910864 0
M  V30 2092 C 206.867 -1.14406 -1.47541 0
M  V30 2093 C 207.218 0.264901 -1.94403 0
M  V30 2094 O 206.343 1.15942 -1.82719 0
M  V30 2095 C 206.938 -2.07073 -2.68153 0
M  V30 2096 C 205.497 -1.96923 -3.20778 0
M  V30 2097 C 204.644 -1.98646 -1.93481 0
M  V30 2098 H 207.595 -1.41259 -0.723291 0
M  V30 2099 H 207.616 -1.63642 -3.43514 0
M  V30 2100 H 207.128 -3.09611 -2.34015 0
M  V30 2101 H 205.229 -0.97433 -3.59635 0
M  V30 2102 H 205.342 -2.84026 -3.85832 0
M  V30 2103 H 203.706 -1.43093 -2.10705 0
M  V30 2104 H 204.489 -3.02868 -1.61634 0
M  V30 2105 N 206.934 1.1197 -1.10907 0
M  V30 2106 C 208.18 1.84059 -0.865674 0
M  V30 2107 C 208.535 1.82731 0.602254 0
M  V30 2108 O 207.828 1.26543 1.43866 0
M  V30 2109 C 208.022 3.30749 -1.35425 0
M  V30 2110 C 207.851 3.46363 -2.86815 0
M  V30 2111 C 206.621 3.59712 -3.54874 0
M  V30 2112 C 208.819 3.41116 -3.84895 0
M  V30 2113 N 206.801 3.63741 -4.94536 0
M  V30 2114 C 208.172 3.51698 -5.10596 0
M  V30 2115 C 210.227 3.24612 -3.77533 0
M  V30 2116 C 208.93 3.4748 -6.29802 0
M  V30 2117 C 210.956 3.21708 -4.96244 0
M  V30 2118 C 210.318 3.32856 -6.20795 0
M  V30 2119 H 206.417 0.689015 -0.369841 0
M  V30 2120 H 209.001 1.34016 -1.41237 0
M  V30 2121 H 207.172 3.79322 -0.834814 0
M  V30 2122 H 208.904 3.90718 -1.05458 0
M  V30 2123 H 205.659 3.62038 -3.05329 0
M  V30 2124 H 206.083 3.69408 -5.67333 0
M  V30 2125 H 210.725 3.14883 -2.8215 0
M  V30 2126 H 208.443 3.55978 -7.25469 0
M  V30 2127 H 212.029 3.10113 -4.92261 0
M  V30 2128 H 210.909 3.3059 -7.11112 0
M  V30 2129 N 208.412 0.89855 1.29475 0
M  V30 2130 C 209.344 0.332726 2.26772 0
M  V30 2131 C 210.357 -0.520323 1.54261 0
M  V30 2132 O 211.546 -0.337668 1.75277 0
M  V30 2133 C 208.646 -0.544334 3.345 0
M  V30 2134 C 207.819 0.282728 4.36485 0
M  V30 2135 C 206.878 -0.526982 5.23555 0
M  V30 2136 O 205.904 0.0551165 5.69173 0
M  V30 2137 N 207.106 -1.83331 5.5079 0
M  V30 2138 H 209.871 1.16897 2.75962 0
M  V30 2139 H 207.432 0.762919 1.42798 0
M  V30 2140 H 209.424 -1.09239 3.89678 0
M  V30 2141 H 207.994 -1.28127 2.85136 0
M  V30 2142 H 207.214 1.01221 3.80983 0
M  V30 2143 H 208.502 0.84918 5.01664 0
M  V30 2144 H 207.9 -2.32898 5.15534 0
M  V30 2145 H 206.457 -2.32852 6.08788 0
M  V30 2146 N 209.89 -1.43072 0.660911 0
M  V30 2147 C 210.84 -2.27948 -0.04847 0
M  V30 2148 C 211.824 -1.40325 -0.787246 0
M  V30 2149 O 213.016 -1.63893 -0.668446 0
M  V30 2150 C 210.145 -3.28143 -1.00881 0
M  V30 2151 C 209.231 -4.23252 -0.268108 0
M  V30 2152 N 209.622 -5.00656 0.719528 0
M  V30 2153 C 207.92 -4.43092 -0.508493 0
M  V30 2154 C 208.621 -5.70019 1.15988 0
M  V30 2155 N 207.597 -5.41364 0.492584 0
M  V30 2156 H 211.399 -2.85213 0.709279 0
M  V30 2157 H 208.913 -1.54869 0.488822 0
M  V30 2158 H 210.91 -3.87736 -1.53188 0
M  V30 2159 H 209.57 -2.7244 -1.76654 0
M  V30 2160 H 210.581 -5.06115 1.09855 0
M  V30 2161 H 207.258 -3.98449 -1.24679 0
M  V30 2162 H 208.648 -6.4214 1.97751 0
M  V30 2163 N 211.368 -0.403325 -1.52352 0
M  V30 2164 C 212.614 0.167015 -2.02713 0
M  V30 2165 C 212.969 1.43296 -1.28391 0
M  V30 2166 O 212.262 1.87796 -0.379885 0
M  V30 2167 C 212.456 0.474665 -3.54234 0
M  V30 2168 C 212.285 -0.759909 -4.43233 0
M  V30 2169 C 211.055 -1.28338 -4.88731 0
M  V30 2170 C 213.253 -1.63634 -4.87574 0
M  V30 2171 N 211.235 -2.47404 -5.6184 0
M  V30 2172 C 212.606 -2.67329 -5.59406 0
M  V30 2173 C 214.661 -1.65478 -4.69597 0
M  V30 2174 C 213.364 -3.72773 -6.15169 0
M  V30 2175 C 215.39 -2.69837 -5.26253 0
M  V30 2176 C 214.752 -3.72253 -5.98002 0
M  V30 2177 H 210.851 0.0228343 -0.781667 0
M  V30 2178 H 213.435 -0.556368 -1.86581 0
M  V30 2179 H 211.606 1.16709 -3.7045 0
M  V30 2180 H 213.338 1.03338 -3.91284 0
M  V30 2181 H 210.093 -0.842273 -4.6605 0
M  V30 2182 H 210.517 -3.07688 -6.0304 0
M  V30 2183 H 215.159 -0.876389 -4.13617 0
M  V30 2184 H 212.877 -4.51471 -6.70223 0
M  V30 2185 H 216.463 -2.72164 -5.14216 0
M  V30 2186 H 215.343 -4.51679 -6.41058 0
M  V30 2187 N 212.846 1.57033 -0.133567 0
M  V30 2188 C 213.794 2.17348 0.828412 0
M  V30 2189 C 214.788 1.12671 1.26498 0
M  V30 2190 O 215.994 1.30947 1.23502 0
M  V30 2191 H 212.369 0.695775 0.285309 0
M  V30 2192 H 214.34 2.96935 0.295372 0
M  V30 2193 C 213.089 2.79893 2.06289 0
M  V30 2194 H 212.412 3.60147 1.73592 0
M  V30 2195 H 213.852 3.25615 2.71572 0
M  V30 2196 C 212.311 1.77713 2.86216 0
M  V30 2197 O 212.841 1.23937 3.82103 0
M  V30 2198 N 211.047 1.47321 2.50489 0
M  V30 2199 H 210.594 1.91243 1.7258 0
M  V30 2200 H 210.552 0.79199 3.04261 0
M  V30 2201 N 214.325 -0.140222 1.56975 0
M  V30 2202 C 215.571 -0.852949 1.83991 0
M  V30 2203 C 215.904 -1.80512 0.716187 0
M  V30 2204 O 215.179 -1.92479 -0.279681 0
M  V30 2205 C 215.462 -1.6215 3.21527 0
M  V30 2206 C 215.315 -0.690363 4.4447 0
M  V30 2207 C 216.634 -2.58247 3.56366 0
M  V30 2208 H 213.753 -0.308634 0.669264 0
M  V30 2209 H 216.395 -0.117898 1.89634 0
M  V30 2210 H 214.545 -2.24812 3.16847 0
M  V30 2211 H 216.217 -0.0742264 4.6124 0
M  V30 2212 H 214.46 -0.000396433 4.338 0
M  V30 2213 H 215.131 -1.2643 5.37326 0
M  V30 2214 H 217.607 -2.05701 3.61699 0
M  V30 2215 H 216.483 -3.09067 4.53617 0
M  V30 2216 H 216.744 -3.39923 2.82674 0
M  V30 2217 N 215.803 -1.52179 -0.40978 0
M  V30 2218 C 216.733 -1.78435 -1.5061 0
M  V30 2219 C 217.714 -0.635295 -1.57791 0
M  V30 2220 O 218.899 -0.880823 -1.73076 0
M  V30 2221 C 216.029 -1.93444 -2.88439 0
M  V30 2222 C 214.983 -3.09038 -2.96108 0
M  V30 2223 C 214.309 -3.09268 -4.36185 0
M  V30 2224 C 215.609 -4.48508 -2.67652 0
M  V30 2225 H 217.303 -2.70237 -1.28889 0
M  V30 2226 H 214.849 -1.30036 -0.618605 0
M  V30 2227 H 216.802 -2.10394 -3.65119 0
M  V30 2228 H 215.526 -0.983129 -3.11452 0
M  V30 2229 H 214.185 -2.91837 -2.21872 0
M  V30 2230 H 213.833 -2.11861 -4.56206 0
M  V30 2231 H 213.533 -3.86907 -4.42241 0
M  V30 2232 H 215.057 -3.28348 -5.14801 0
M  V30 2233 H 216.471 -4.65918 -3.34056 0
M  V30 2234 H 214.868 -5.28059 -2.85085 0
M  V30 2235 H 215.938 -4.56649 -1.63095 0
M  V30 2236 N 217.281 0.66697 -1.42791 0
M  V30 2237 C 218.191 1.80962 -1.49299 0
M  V30 2238 C 219.207 1.69775 -0.381108 0
M  V30 2239 O 220.383 1.91188 -0.633188 0
M  V30 2240 C 217.448 3.17156 -1.40045 0
M  V30 2241 C 216.509 3.40242 -2.6179 0
M  V30 2242 C 215.742 4.69939 -2.52969 0
M  V30 2243 O 215.965 5.48372 -1.56985 0
M  V30 2244 O 214.899 4.94441 -3.43237 0
M  V30 2245 H 218.725 1.78427 -2.45759 0
M  V30 2246 H 216.31 0.823713 -1.24641 0
M  V30 2247 H 218.192 3.98413 -1.37276 0
M  V30 2248 H 216.867 3.20312 -0.467138 0
M  V30 2249 H 215.774 2.58802 -2.70134 0
M  V30 2250 H 217.107 3.41923 -3.54047 0
M  V30 2251 N 218.759 1.29093 0.90403 0
M  V30 2252 C 219.706 1.13853 2.00764 0
M  V30 2253 C 220.676 0.0330084 1.66067 0
M  V30 2254 O 221.861 0.199733 1.89752 0
M  V30 2255 C 219.001 0.816537 3.35301 0
M  V30 2256 C 218.114 2.00206 3.82807 0
M  V30 2257 C 217.249 1.61983 5.059 0
M  V30 2258 C 216.288 2.77143 5.45764 0
M  V30 2259 N 215.425 2.39346 6.60044 0
M  V30 2260 H 220.265 2.08276 2.13132 0
M  V30 2261 H 217.802 1.03648 1.04381 0
M  V30 2262 H 219.76 0.610557 4.12708 0
M  V30 2263 H 218.39 -0.090779 3.22672 0
M  V30 2264 H 217.442 2.31988 3.01473 0
M  V30 2265 H 218.754 2.86512 4.08304 0
M  V30 2266 H 217.908 1.37649 5.90879 0
M  V30 2267 H 216.647 0.728202 4.82233 0
M  V30 2268 H 215.652 3.02165 4.59322 0
M  V30 2269 H 216.877 3.66964 5.71414 0
M  V30 2270 H 214.823 1.52665 6.37989 0
M  V30 2271 H 214.74 3.19185 6.85315 0
M  V30 2272 H 216.008 2.1832 7.48303 0
M  V30 2273 N 220.237 -1.11381 1.11499 0
M  V30 2274 C 221.465 -1.86934 0.88675 0
M  V30 2275 C 221.88 -1.80195 -0.563476 0
M  V30 2276 O 221.237 -1.18367 -1.38908 0
M  V30 2277 C 221.288 -3.35722 1.34064 0
M  V30 2278 O 221.009 -3.4232 2.73401 0
M  V30 2279 C 222.51 -4.2818 1.14791 0
M  V30 2280 H 219.73 -0.591117 0.317523 0
M  V30 2281 H 222.274 -1.40865 1.48248 0
M  V30 2282 H 220.429 -3.79294 0.788355 0
M  V30 2283 H 220.843 -4.34971 2.93087 0
M  V30 2284 H 222.317 -5.30817 1.5145 0
M  V30 2285 H 222.794 -4.39113 0.0875279 0
M  V30 2286 H 223.4 -3.90402 1.68721 0
M  V30 2287 N 221.715 -0.905404 -1.28997 0
M  V30 2288 C 222.625 -0.392246 -2.31298 0
M  V30 2289 C 223.641 0.515889 -1.66176 0
M  V30 2290 O 224.817 0.404093 -1.97304 0
M  V30 2291 C 221.882 0.36686 -3.44754 0
M  V30 2292 C 220.943 -0.573485 -4.25452 0
M  V30 2293 C 220.176 0.149488 -5.33491 0
M  V30 2294 O 220.399 1.37255 -5.5364 0
M  V30 2295 O 219.333 -0.510919 -5.99728 0
M  V30 2296 H 223.159 -1.2411 -2.77183 0
M  V30 2297 H 220.744 -0.669926 -1.33538 0
M  V30 2298 H 222.626 0.795907 -4.13816 0
M  V30 2299 H 221.301 1.19169 -3.00966 0
M  V30 2300 H 220.208 -1.05176 -3.59011 0
M  V30 2301 H 221.541 -1.36489 -4.72897 0
M  V30 2302 N 223.193 1.4272 -0.668489 0
M  V30 2303 C 224.103 2.34596 0.0139753 0
M  V30 2304 C 225.119 1.5474 0.795703 0
M  V30 2305 O 226.295 1.87334 0.739466 0
M  V30 2306 C 223.36 3.33202 0.957982 0
M  V30 2307 C 222.421 4.28957 0.17149 0
M  V30 2308 C 221.654 5.22853 1.07053 0
M  V30 2309 O 221.877 5.21531 2.31001 0
M  V30 2310 O 220.811 5.9952 0.534727 0
M  V30 2311 H 224.637 2.9448 -0.742661 0
M  V30 2312 H 222.222 1.43117 -0.428705 0
M  V30 2313 H 224.104 3.93796 1.50008 0
M  V30 2314 H 222.779 2.758 1.69458 0
M  V30 2315 H 221.686 3.71796 -0.414558 0
M  V30 2316 H 223.019 4.89383 -0.52586 0
M  V30 2317 N 224.671 0.411399 1.52136 0
M  V30 2318 C 225.634 -0.401089 2.25663 0
M  V30 2319 C 226.634 -0.971732 1.28117 0
M  V30 2320 O 227.824 -0.850254 1.52041 0
M  V30 2321 C 224.956 -1.56483 3.02863 0
M  V30 2322 H 226.149 0.24295 2.98914 0
M  V30 2323 H 223.702 0.163968 1.55438 0
M  V30 2324 H 224.437 -2.24567 2.33967 0
M  V30 2325 H 224.222 -1.16211 3.74483 0
M  V30 2326 H 225.712 -2.13951 3.58629 0
M  V30 2327 N 226.149 -1.5696 0.141893 0
M  V30 2328 C 227.059 -2.20066 -0.812905 0
M  V30 2329 C 228.075 -1.18344 -1.27557 0
M  V30 2330 O 229.251 -1.50902 -1.33381 0
M  V30 2331 C 226.316 -2.80583 -2.03652 0
M  V30 2332 C 225.377 -3.97414 -1.62359 0
M  V30 2333 C 224.61 -4.55036 -2.78887 0
M  V30 2334 O 224.833 -4.11538 -3.94959 0
M  V30 2335 O 223.767 -5.45376 -2.54653 0
M  V30 2336 H 227.593 -3.02157 -0.305746 0
M  V30 2337 H 225.178 -1.49159 -0.0848799 0
M  V30 2338 H 227.06 -3.19067 -2.75272 0
M  V30 2339 H 225.735 -2.01508 -2.5333 0
M  V30 2340 H 224.642 -3.63656 -0.877775 0
M  V30 2341 H 225.975 -4.77994 -1.17401 0
M  V30 2342 N 227.627 0.131896 -1.57047 0
M  V30 2343 C 228.574 1.16236 -1.99393 0
M  V30 2344 C 229.544 1.41863 -0.863943 0
M  V30 2345 O 230.729 1.53946 -1.12718 0
M  V30 2346 C 227.869 2.48708 -2.39245 0
M  V30 2347 C 226.982 2.30127 -3.65603 0
M  V30 2348 C 226.117 3.55738 -3.94492 0
M  V30 2349 C 225.156 3.32259 -5.14073 0
M  V30 2350 N 224.293 4.50039 -5.38896 0
M  V30 2351 H 229.133 0.794251 -2.87221 0
M  V30 2352 H 226.67 0.380707 -1.42088 0
M  V30 2353 H 228.628 3.25969 -2.60384 0
M  V30 2354 H 227.258 2.83437 -1.54478 0
M  V30 2355 H 226.31 1.43845 -3.52154 0
M  V30 2356 H 227.622 2.08746 -4.5302 0
M  V30 2357 H 226.776 4.41423 -4.1621 0
M  V30 2358 H 225.515 3.80138 -3.05526 0
M  V30 2359 H 224.52 2.44963 -4.92212 0
M  V30 2360 H 225.745 3.09242 -6.04604 0
M  V30 2361 H 223.691 4.74584 -4.52886 0
M  V30 2362 H 223.608 4.31716 -6.2061 0
M  V30 2363 H 224.876 5.36895 -5.65123 0
M  V30 2364 N 229.106 1.52395 0.401703 0
M  V30 2365 C 230.334 1.70676 1.16949 0
M  V30 2366 C 230.749 0.419503 1.8408 0
M  V30 2367 O 230.106 -0.605061 1.72178 0
M  V30 2368 C 230.157 2.84753 2.22706 0
M  V30 2369 O 229.878 4.08495 1.58314 0
M  V30 2370 C 231.379 3.14608 3.12309 0
M  V30 2371 H 228.599 0.571787 0.351142 0
M  V30 2372 H 231.143 1.98987 0.471652 0
M  V30 2373 H 229.298 2.58941 2.88147 0
M  V30 2374 H 229.712 4.72117 2.28485 0
M  V30 2375 H 231.186 3.97923 3.82572 0
M  V30 2376 H 231.663 2.28464 3.75101 0
M  V30 2377 H 232.269 3.42212 2.52529 0
M  V30 2378 N 230.584 -0.659388 1.43143 0
M  V30 2379 C 231.995 -1.24041 1.39537 0
M  V30 2380 C 232.346 -1.95963 0.0963364 0
M  V30 2381 O 231.471 -2.00892 -0.804438 0
M  V30 2382 C 232.066 -2.25601 2.52764 0
M  V30 2383 C 230.625 -2.79195 2.52443 0
M  V30 2384 C 229.772 -1.53743 2.30778 0
M  V30 2385 H 232.723 -0.451792 1.52133 0
M  V30 2386 H 232.744 -3.07651 2.23899 0
M  V30 2387 H 232.256 -1.73226 3.47296 0
M  V30 2388 H 230.357 -3.35649 1.61773 0
M  V30 2389 H 230.47 -3.2716 3.50004 0
M  V30 2390 H 228.834 -1.80869 1.79328 0
M  V30 2391 H 229.617 -1.03312 3.27386 0
M  V30 2392 N 232.062 -1.29571 -0.897171 0
M  V30 2393 C 233.308 -1.17863 -1.65034 0
M  V30 2394 C 233.641 0.268729 -1.92332 0
M  V30 2395 O 232.916 1.19378 -1.53555 0
M  V30 2396 C 233.199 -1.995 -2.99786 0
M  V30 2397 C 233.052 -3.5239 -2.79538 0
M  V30 2398 C 234.371 -1.82335 -4.00552 0
M  V30 2399 H 231.49 -0.429528 -0.598895 0
M  V30 2400 H 234.132 -1.59072 -1.03905 0
M  V30 2401 H 232.282 -1.64485 -3.51962 0
M  V30 2402 H 233.954 -3.97401 -2.34244 0
M  V30 2403 H 232.197 -3.77187 -2.14273 0
M  V30 2404 H 232.868 -4.04787 -3.75302 0
M  V30 2405 H 235.344 -2.12924 -3.57495 0
M  V30 2406 H 234.22 -2.41801 -4.92771 0
M  V30 2407 H 234.481 -0.779209 -4.35179 0
M  V30 2408 N 233.54 1.10788 -1.12088 0
M  V30 2409 C 234.788 1.8231 -0.872205 0
M  V30 2410 C 235.109 1.85419 0.603709 0
M  V30 2411 O 234.379 1.32963 1.43867 0
M  V30 2412 H 232.959 0.675137 -0.319686 0
M  V30 2413 H 235.621 1.34068 -1.41463 0
M  V30 2414 H 234.717 2.85955 -1.25045 0
M  V30 2415 N 235.018 0.912232 1.28515 0
M  V30 2416 C 236.243 0.559774 1.99703 0
M  V30 2417 C 236.668 -0.851393 1.67729 0
M  V30 2418 O 236.026 -1.56875 0.908834 0
M  V30 2419 C 236.074 0.773874 3.52198 0
M  V30 2420 O 235.178 -0.167842 4.12058 0
M  V30 2421 H 234.519 0.21723 0.627461 0
M  V30 2422 H 237.049 1.22725 1.63706 0
M  V30 2423 H 237.059 0.683386 4.02236 0
M  V30 2424 H 235.734 1.80261 3.74805 0
M  V30 2425 H 234.311 -0.0287509 3.72889 0
M  V30 2426 N 236.496 -1.42363 0.676048 0
M  V30 2427 C 237.736 -2.03392 0.20273 0
M  V30 2428 C 238.1 -1.52306 -1.16906 0
M  V30 2429 O 239.301 -2.05129 -1.73711 0
M  V30 2430 C 237.572 -3.56614 0.236947 0
M  V30 2431 S 239.131 -4.38489 -0.165186 0
M  V30 2432 H 235.949 -0.70611 0.0832418 0
M  V30 2433 H 238.551 -1.74093 0.88948 0
M  V30 2434 H 237.255 -3.91293 1.23767 0
M  V30 2435 H 236.786 -3.90587 -0.469596 0
M  V30 2436 H 238.801 -4.76093 -1.39822 0
M  V30 2437 N 237.974 -0.419461 -1.51915 0
M  V30 2438 C 239.221 0.152939 -2.01922 0
M  V30 2439 C 239.549 1.4426 -1.30458 0
M  V30 2440 O 238.804 1.91514 -0.402593 0
M  V30 2441 C 239.103 0.437067 -3.54717 0
M  V30 2442 C 238.769 -0.764632 -4.44369 0
M  V30 2443 C 237.431 -1.09423 -4.68594 0
M  V30 2444 C 239.783 -1.56713 -4.97082 0
M  V30 2445 C 237.111 -2.22732 -5.42777 0
M  V30 2446 C 239.463 -2.69107 -5.72507 0
M  V30 2447 C 238.127 -3.02541 -5.95 0
M  V30 2448 H 237.397 0.0559644 -0.738884 0
M  V30 2449 H 240.044 -0.562998 -1.83037 0
M  V30 2450 H 238.349 1.23469 -3.71837 0
M  V30 2451 H 240.046 0.893083 -3.90928 0
M  V30 2452 H 236.636 -0.497775 -4.257 0
M  V30 2453 H 240.82 -1.32571 -4.78266 0
M  V30 2454 H 236.076 -2.48971 -5.58411 0
M  V30 2455 H 240.25 -3.31671 -6.12346 0
M  V30 2456 H 237.877 -3.90457 -6.52264 0
M  V30 2457 N 239.452 1.56882 -0.150215 0
M  V30 2458 C 240.382 2.19935 0.784284 0
M  V30 2459 C 241.363 1.14854 1.25469 0
M  V30 2460 O 242.548 1.43209 1.31168 0
M  V30 2461 C 239.678 2.82349 2.02229 0
M  V30 2462 C 238.632 3.93285 1.68853 0
M  V30 2463 C 237.958 4.42649 2.99944 0
M  V30 2464 C 239.258 5.13904 0.932714 0
M  V30 2465 H 240.952 2.9828 0.258781 0
M  V30 2466 H 238.498 1.43473 0.123029 0
M  V30 2467 H 240.451 3.25126 2.68088 0
M  V30 2468 H 239.175 2.0134 2.57157 0
M  V30 2469 H 237.834 3.5113 1.05371 0
M  V30 2470 H 237.482 3.58458 3.52869 0
M  V30 2471 H 237.182 5.17476 2.78374 0
M  V30 2472 H 238.706 4.88099 3.66868 0
M  V30 2473 H 240.12 5.53506 1.49345 0
M  V30 2474 H 238.517 5.94515 0.81684 0
M  V30 2475 H 239.587 4.84842 -0.0749568 0
M  V30 2476 N 240.93 -0.123565 1.57115 0
M  V30 2477 C 241.893 -1.13583 1.99076 0
M  V30 2478 C 242.893 -1.34564 0.880296 0
M  V30 2479 O 244.083 -1.31158 1.14644 0
M  V30 2480 C 241.215 -2.49128 2.32698 0
M  V30 2481 H 242.408 -0.775287 2.89706 0
M  V30 2482 H 239.961 -0.36771 1.51913 0
M  V30 2483 H 240.696 -2.90111 1.44934 0
M  V30 2484 H 240.481 -2.35255 3.13684 0
M  V30 2485 H 241.971 -3.2199 2.65918 0
M  V30 2486 N 242.408 -1.52605 -0.393616 0
M  V30 2487 C 243.34 -1.73303 -1.49995 0
M  V30 2488 C 244.353 -0.613473 -1.50799 0
M  V30 2489 O 245.542 -0.889049 -1.54784 0
M  V30 2490 C 242.642 -1.77245 -2.88855 0
M  V30 2491 C 241.815 -3.06483 -3.12069 0
M  V30 2492 C 240.874 -3.02033 -4.30886 0
M  V30 2493 O 239.9 -3.75907 -4.27414 0
M  V30 2494 N 241.102 -2.20897 -5.36828 0
M  V30 2495 H 243.867 -2.68756 -1.32629 0
M  V30 2496 H 241.428 -1.51036 -0.583083 0
M  V30 2497 H 243.42 -1.7178 -3.66434 0
M  V30 2498 H 241.99 -0.891993 -2.99603 0
M  V30 2499 H 241.21 -3.25474 -2.22396 0
M  V30 2500 H 242.498 -3.91947 -3.2443 0
M  V30 2501 H 241.896 -1.60336 -5.42502 0
M  V30 2502 H 240.453 -2.21275 -6.13091 0
M  V30 2503 N 243.887 0.651787 -1.4349 0
M  V30 2504 C 245.298 1.233 -1.40193 0
M  V30 2505 C 245.649 1.9591 -0.106727 0
M  V30 2506 O 244.774 2.01316 0.793773 0
M  V30 2507 C 245.369 2.24257 -2.53957 0
M  V30 2508 C 243.928 2.77852 -2.5392 0
M  V30 2509 C 243.075 1.52517 -2.3159 0
M  V30 2510 H 246.026 0.443717 -1.52371 0
M  V30 2511 H 246.047 3.0646 -2.25528 0
M  V30 2512 H 245.559 1.71382 -3.4821 0
M  V30 2513 H 243.66 3.34786 -1.63551 0
M  V30 2514 H 243.773 3.25299 -3.51735 0
M  V30 2515 H 242.137 1.79915 -1.80285 0
M  V30 2516 H 242.92 1.01574 -3.27929 0
M  V30 2517 N 245.365 1.30045 0.890287 0
M  V30 2518 C 246.275 1.17885 2.02831 0
M  V30 2519 C 247.291 0.0999609 1.73713 0
M  V30 2520 O 248.467 0.313867 1.98939 0
M  V30 2521 C 245.532 0.866079 3.35708 0
M  V30 2522 C 244.593 2.02979 3.78283 0
M  V30 2523 C 243.826 1.73184 5.0482 0
M  V30 2524 O 244.049 0.657237 5.66601 0
M  V30 2525 O 242.983 2.58267 5.43674 0
M  V30 2526 H 246.809 2.13474 2.16015 0
M  V30 2527 H 244.394 1.09587 1.01543 0
M  V30 2528 H 246.276 0.706623 4.15433 0
M  V30 2529 H 244.951 -0.0599443 3.23644 0
M  V30 2530 H 243.858 2.24454 2.99285 0
M  V30 2531 H 245.191 2.93734 3.94944 0
M  V30 2532 N 246.843 -1.10192 1.12674 0
M  V30 2533 C 248.068 -1.86523 0.906853 0
M  V30 2534 C 248.493 -1.80221 -0.538711 0
M  V30 2535 O 247.851 -1.17396 -1.38158 0
M  V30 2536 C 247.899 -3.32758 1.3894 0
M  V30 2537 O 247.003 -4.08449 0.5695 0
M  V30 2538 H 246.344 -0.578678 0.325619 0
M  V30 2539 H 248.874 -1.39203 1.49946 0
M  V30 2540 H 248.884 -3.83608 1.38958 0
M  V30 2541 H 247.559 -3.36661 2.44197 0
M  V30 2542 H 246.136 -3.67427 0.636528 0
M  V30 2543 N 248.321 -0.919034 -1.28029 0
M  V30 2544 C 249.569 -0.553838 -1.94363 0
M  V30 2545 C 249.89 0.906357 -1.72656 0
M  V30 2546 O 249.16 1.64143 -1.0693 0
M  V30 2547 H 247.74 -0.201834 -0.719216 0
M  V30 2548 H 250.402 -1.16954 -1.55909 0
M  V30 2549 H 249.498 -0.752758 -3.02886 0
M  V30 2550 N 249.799 1.42003 -0.683588 0
M  V30 2551 C 251.215 1.55625 -0.353976 0
M  V30 2552 C 251.415 1.66151 1.14 0
M  V30 2553 O 250.471 1.63329 1.92561 0
M  V30 2554 C 251.784 2.80171 -1.092 0
M  V30 2555 C 253.332 2.93954 -1.07518 0
M  V30 2556 C 253.807 4.21372 -1.79471 0
M  V30 2557 N 255.298 4.28303 -1.76381 0
M  V30 2558 C 256.033 5.25729 -2.28904 0
M  V30 2559 N 255.529 6.29254 -2.89846 0
M  V30 2560 N 257.322 5.17586 -2.19228 0
M  V30 2561 H 249.473 1.33415 -1.6527 0
M  V30 2562 H 251.736 0.64282 -0.696769 0
M  V30 2563 H 251.442 2.78561 -2.14701 0
M  V30 2564 H 251.316 3.7133 -0.662862 0
M  V30 2565 H 253.703 2.95086 -0.028475 0
M  V30 2566 H 253.784 2.04002 -1.54328 0
M  V30 2567 H 253.428 4.21001 -2.84114 0
M  V30 2568 H 253.358 5.10275 -1.30104 0
M  V30 2569 H 255.849 3.54119 -1.31939 0
M  V30 2570 H 256.162 6.99964 -3.27522 0
M  V30 2571 H 254.507 6.29791 -2.93919 0
M  V30 2572 H 257.698 4.35631 -1.71299 0
M  V30 2573 H 257.871 5.93348 -2.60466 0
M  V30 2574 N 251.277 0.427512 1.51691 0
M  V30 2575 C 252.693 0.0792977 1.59403 0
M  V30 2576 C 252.893 -1.41035 1.43914 0
M  V30 2577 O 251.949 -2.17922 1.27539 0
M  V30 2578 C 253.262 0.590636 2.94842 0
M  V30 2579 C 254.81 0.550215 3.08126 0
M  V30 2580 C 255.285 1.03836 4.46074 0
M  V30 2581 N 256.776 0.995943 4.52366 0
M  V30 2582 C 257.511 1.34463 5.57411 0
M  V30 2583 N 257.007 1.76569 6.69922 0
M  V30 2584 N 258.8 1.26343 5.47717 0
M  V30 2585 H 250.951 1.39687 1.60004 0
M  V30 2586 H 253.214 0.575003 0.753708 0
M  V30 2587 H 252.92 1.63251 3.11516 0
M  V30 2588 H 252.794 0.0102061 3.77199 0
M  V30 2589 H 255.181 -0.482654 2.91126 0
M  V30 2590 H 255.262 1.16693 2.27632 0
M  V30 2591 H 254.906 2.06965 4.63819 0
M  V30 2592 H 254.836 0.398286 5.25092 0
M  V30 2593 H 257.327 0.68661 3.7161 0
M  V30 2594 H 257.64 2.01438 7.46085 0
M  V30 2595 H 255.985 1.80488 6.71155 0
M  V30 2596 H 259.176 0.933209 4.58703 0
M  V30 2597 H 259.349 1.53846 6.29472 0
M  V30 2598 N 252.755 -1.56801 0.158532 0
M  V30 2599 C 253.718 -2.16138 -0.762705 0
M  V30 2600 C 254.718 -1.1061 -1.16713 0
M  V30 2601 O 255.908 -1.36191 -1.08617 0
M  V30 2602 C 253.04 -2.73386 -2.03649 0
M  V30 2603 H 254.233 -2.98886 -0.246354 0
M  V30 2604 H 251.786 -1.56035 -0.0909744 0
M  V30 2605 H 252.521 -1.94335 -2.59623 0
M  V30 2606 H 252.306 -3.50601 -1.75559 0
M  V30 2607 H 253.796 -3.19065 -2.6942 0
M  V30 2608 N 254.233 0.115231 -1.57178 0
M  V30 2609 C 255.143 1.15994 -2.03918 0
M  V30 2610 C 256.159 1.45103 -0.960268 0
M  V30 2611 O 257.335 1.56144 -1.27204 0
M  V30 2612 C 254.4 2.46568 -2.43732 0
M  V30 2613 C 253.461 2.24822 -3.65723 0
M  V30 2614 C 252.694 3.4917 -4.03629 0
M  V30 2615 O 252.917 4.56623 -3.41835 0
M  V30 2616 O 251.851 3.39949 -4.96708 0
M  V30 2617 H 255.677 0.793019 -2.93164 0
M  V30 2618 H 253.262 0.3263 -1.45793 0
M  V30 2619 H 255.144 3.23492 -2.70057 0
M  V30 2620 H 253.819 2.82726 -1.57631 0
M  V30 2621 H 252.726 1.45744 -3.44542 0
M  V30 2622 H 254.059 1.93566 -4.52541 0
M  V30 2623 N 255.711 1.52812 0.385517 0
M  V30 2624 C 256.941 1.71658 1.14966 0
M  V30 2625 C 257.349 0.436253 1.84102 0
M  V30 2626 O 256.692 -0.599313 1.73649 0
M  V30 2627 C 256.754 2.81309 2.23843 0
M  V30 2628 C 256.418 4.22313 1.74644 0
M  V30 2629 C 257.415 5.05352 1.22129 0
M  V30 2630 C 255.1 4.68648 1.80761 0
M  V30 2631 C 257.094 6.32807 0.763838 0
M  V30 2632 C 254.781 5.96086 1.34627 0
M  V30 2633 C 255.779 6.77996 0.825264 0
M  V30 2634 O 255.467 8.03045 0.370669 0
M  V30 2635 H 255.199 0.578022 0.350523 0
M  V30 2636 H 257.753 2.00263 0.456509 0
M  V30 2637 H 255.983 2.48133 2.96592 0
M  V30 2638 H 257.672 2.88524 2.85497 0
M  V30 2639 H 258.438 4.70736 1.16758 0
M  V30 2640 H 254.317 4.04979 2.20256 0
M  V30 2641 H 257.861 6.96689 0.356494 0
M  V30 2642 H 253.758 6.30205 1.39686 0
M  V30 2643 H 254.526 8.17021 0.491829 0
M  V30 2644 N 257.189 -0.644168 1.43834 0
M  V30 2645 C 258.414 -1.43642 1.49605 0
M  V30 2646 C 258.839 -1.8773 0.117913 0
M  V30 2647 O 258.197 -1.57938 -0.890239 0
M  V30 2648 C 258.245 -2.6416 2.45463 0
M  V30 2649 O 257.349 -3.63538 1.94714 0
M  V30 2650 H 256.69 -0.430329 0.50568 0
M  V30 2651 H 259.22 -0.787448 1.8884 0
M  V30 2652 H 259.23 -3.11864 2.63068 0
M  V30 2653 H 257.905 -2.31414 3.45572 0
M  V30 2654 H 256.482 -3.2273 1.86814 0
M  V30 2655 N 258.668 -1.30515 -0.883378 0
M  V30 2656 C 260.079 -1.17509 -1.45081 0
M  V30 2657 C 260.43 0.223605 -1.94922 0
M  V30 2658 O 259.555 1.12041 -1.85137 0
M  V30 2659 C 260.15 -2.12715 -2.63701 0
M  V30 2660 C 258.709 -2.03682 -3.16529 0
M  V30 2661 C 257.856 -2.02706 -1.89224 0
M  V30 2662 H 260.807 -1.42762 -0.693165 0
M  V30 2663 H 260.828 -1.70891 -3.39965 0
M  V30 2664 H 260.34 -3.14505 -2.27395 0
M  V30 2665 H 258.441 -1.05039 -3.57488 0
M  V30 2666 H 258.554 -2.92146 -3.7972 0
M  V30 2667 H 256.918 -1.4753 -2.07622 0
M  V30 2668 H 257.701 -3.06229 -1.55174 0
M  V30 2669 N 260.146 1.09593 -1.13257 0
M  V30 2670 C 261.386 1.83349 -0.903472 0
M  V30 2671 C 261.75 1.83641 0.560351 0
M  V30 2672 O 262.951 2.53037 0.906947 0
M  V30 2673 C 261.222 3.25629 -1.47311 0
M  V30 2674 S 262.781 4.16408 -1.38382 0
M  V30 2675 H 259.599 0.632014 -0.325699 0
M  V30 2676 H 262.201 1.31817 -1.44376 0
M  V30 2677 H 260.905 3.22991 -2.53189 0
M  V30 2678 H 260.436 3.82233 -0.930689 0
M  V30 2679 H 262.451 4.94884 -0.361113 0
M  V30 2680 N 261.624 0.925811 1.2754 0
M  V30 2681 C 263.04 0.625767 1.46821 0
M  V30 2682 C 263.24 -0.825506 1.83814 0
M  V30 2683 O 262.296 -1.60356 1.95044 0
M  V30 2684 C 263.609 1.57402 2.56213 0
M  V30 2685 C 265.157 1.58204 2.70075 0
M  V30 2686 C 265.632 2.51721 3.82623 0
M  V30 2687 N 267.123 2.49917 3.89994 0
M  V30 2688 C 267.858 3.18968 4.76494 0
M  V30 2689 N 267.354 3.97391 5.67496 0
M  V30 2690 N 269.147 3.07996 4.70208 0
M  V30 2691 H 261.298 1.86409 1.01811 0
M  V30 2692 H 263.561 0.800213 0.508295 0
M  V30 2693 H 263.267 2.60925 2.35819 0
M  V30 2694 H 263.141 1.31428 3.53563 0
M  V30 2695 H 265.528 0.554124 2.89851 0
M  V30 2696 H 265.609 1.88226 1.73218 0
M  V30 2697 H 265.253 3.54622 3.63601 0
M  V30 2698 H 265.183 2.18996 4.78903 0
M  V30 2699 H 267.674 1.9296 3.24923 0
M  V30 2700 H 267.987 4.4707 6.30356 0
M  V30 2701 H 266.332 4.01495 5.67298 0
M  V30 2702 H 269.523 2.46223 3.9811 0
M  V30 2703 H 269.696 3.6208 5.37403 0
M  V30 2704 N 263.102 -1.41638 0.69111 0
M  V30 2705 C 264.35 -2.00902 0.219758 0
M  V30 2706 C 264.671 -1.54994 -1.18329 0
M  V30 2707 O 263.941 -0.778628 -1.79762 0
M  V30 2708 H 262.521 -0.74289 0.0782558 0
M  V30 2709 H 265.183 -1.73327 0.891271 0
M  V30 2710 H 264.279 -3.11224 0.233708 0
M  V30 2711 N 264.58 -0.43555 -1.51462 0
M  V30 2712 C 265.528 0.391205 -2.29287 0
M  V30 2713 C 266.522 1.02247 -1.35062 0
M  V30 2714 O 267.728 0.957646 -1.52411 0
M  V30 2715 H 264.103 0.144968 -0.737895 0
M  V30 2716 H 266.074 -0.286051 -2.97026 0
M  V30 2717 C 264.823 1.48096 -3.14583 0
M  V30 2718 H 264.146 1.00457 -3.86973 0
M  V30 2719 H 265.586 2.03273 -3.72097 0
M  V30 2720 C 264.045 2.46321 -2.29843 0
M  V30 2721 O 264.575 3.50815 -1.95682 0
M  V30 2722 N 262.781 2.17166 -1.931 0
M  V30 2723 H 262.328 1.32218 -2.21079 0
M  V30 2724 H 262.286 2.83127 -1.36698 0
M  V30 2725 N 266.058 1.56714 -0.166846 0
M  V30 2726 C 267.286 2.0112 0.485644 0
M  V30 2727 C 267.701 1.04705 1.57106 0
M  V30 2728 O 267.058 0.0471923 1.82439 0
M  V30 2729 C 267.109 3.45361 1.06808 0
M  V30 2730 O 266.83 4.38092 0.0259995 0
M  V30 2731 C 268.331 4.05145 1.79924 0
M  V30 2732 H 265.551 0.65931 0.124704 0
M  V30 2733 H 268.095 2.02746 -0.267262 0
M  V30 2734 H 266.25 3.44524 1.7715 0
M  V30 2735 H 266.664 5.22519 0.455398 0
M  V30 2736 H 268.138 5.08009 2.15942 0
M  V30 2737 H 268.615 3.46982 2.69258 0
M  V30 2738 H 269.221 4.09672 1.14234 0
M  V30 2739 N 267.536 -0.106894 1.57237 0
M  V30 2740 C 268.466 -1.13148 2.04254 0
M  V30 2741 C 269.447 -1.42476 0.929224 0
M  V30 2742 O 270.632 -1.52709 1.19973 0
M  V30 2743 C 267.762 -2.4545 2.45706 0
M  V30 2744 C 266.716 -2.30558 3.60592 0
M  V30 2745 C 266.042 -3.67931 3.87983 0
M  V30 2746 C 267.342 -1.75597 4.91897 0
M  V30 2747 H 269.036 -0.740374 2.90101 0
M  V30 2748 H 266.582 -0.354696 1.39563 0
M  V30 2749 H 268.535 -3.17389 2.77205 0
M  V30 2750 H 267.259 -2.86475 1.56843 0
M  V30 2751 H 265.918 -1.61067 3.29322 0
M  V30 2752 H 265.566 -4.06462 2.96306 0
M  V30 2753 H 265.266 -3.58817 4.65322 0
M  V30 2754 H 266.79 -4.41356 4.21945 0
M  V30 2755 H 268.204 -2.37364 5.21854 0
M  V30 2756 H 266.601 -1.77272 5.73319 0
M  V30 2757 H 267.671 -0.714451 4.79608 0
M  V30 2758 N 269.014 -1.53014 -0.377408 0
M  V30 2759 C 270.239 -1.72818 -1.14668 0
M  V30 2760 C 270.664 -0.450725 -1.8262 0
M  V30 2761 O 270.022 0.59439 -1.7128 0
M  V30 2762 C 270.07 -2.88627 -2.16164 0
M  V30 2763 O 269.174 -2.56409 -3.22998 0
M  V30 2764 H 268.515 -0.574301 -0.333278 0
M  V30 2765 H 271.045 -1.99853 -0.438152 0
M  V30 2766 H 271.055 -3.14455 -2.59966 0
M  V30 2767 H 269.73 -3.81294 -1.66095 0
M  V30 2768 H 268.307 -2.4136 -2.84253 0
M  V30 2769 N 270.492 0.636531 -1.44174 0
M  V30 2770 C 271.908 0.954104 -1.27941 0
M  V30 2771 C 272.108 2.0039 -0.211248 0
M  V30 2772 O 271.164 2.49236 0.404695 0
M  V30 2773 C 272.477 1.4225 -2.64925 0
M  V30 2774 C 274.025 1.53827 -2.72592 0
M  V30 2775 C 274.5 2.04053 -4.10032 0
M  V30 2776 N 275.991 2.11331 -4.12182 0
M  V30 2777 C 276.726 2.51352 -5.15374 0
M  V30 2778 N 276.222 2.90549 -6.2893 0
M  V30 2779 N 278.015 2.51438 -5.02728 0
M  V30 2780 H 270.166 -0.0578386 -2.12321 0
M  V30 2781 H 272.429 0.0367406 -0.947288 0
M  V30 2782 H 272.135 0.725466 -3.44136 0
M  V30 2783 H 272.009 2.39451 -2.9145 0
M  V30 2784 H 274.396 2.22628 -1.93702 0
M  V30 2785 H 274.477 0.550154 -2.49814 0
M  V30 2786 H 274.121 1.35848 -4.89395 0
M  V30 2787 H 274.051 3.03726 -4.30184 0
M  V30 2788 H 276.542 1.83745 -3.30222 0
M  V30 2789 H 276.855 3.19884 -7.03487 0
M  V30 2790 H 275.2 2.88313 -6.32377 0
M  V30 2791 H 278.391 2.20203 -4.13072 0
M  V30 2792 H 278.564 2.82304 -5.83274 0
M  V30 2793 N 271.97 1.30982 0.876444 0
M  V30 2794 C 273.219 1.19658 1.62373 0
M  V30 2795 C 273.532 -0.245636 1.94052 0
M  V30 2796 O 274.738 -0.48049 2.67214 0
M  V30 2797 C 273.194 2.09433 2.92687 0
M  V30 2798 C 272.802 3.58613 2.68516 0
M  V30 2799 C 274.546 2.06893 3.70669 0
M  V30 2800 C 272.453 4.40416 3.94699 0
M  V30 2801 H 271.383 0.444268 0.609214 0
M  V30 2802 H 274.034 1.55791 0.969605 0
M  V30 2803 H 272.416 1.66191 3.59439 0
M  V30 2804 H 273.59 4.10058 2.10212 0
M  V30 2805 H 271.905 3.63063 2.03898 0
M  V30 2806 H 274.502 2.65258 4.64265 0
M  V30 2807 H 274.845 1.05448 4.02724 0
M  V30 2808 H 275.378 2.48301 3.10792 0
M  V30 2809 H 272.117 5.42591 3.67798 0
M  V30 2810 H 271.637 3.93731 4.52477 0
M  V30 2811 H 273.316 4.52294 4.62644 0
M  V30 2812 N 273.449 -1.08991 1.13837 0
M  V30 2813 C 274.679 -1.84743 0.924859 0
M  V30 2814 C 275.087 -1.81629 -0.529874 0
M  V30 2815 O 274.43 -1.21397 -1.37872 0
M  V30 2816 C 274.492 -3.33568 1.34061 0
M  V30 2817 C 274.156 -3.60425 2.80968 0
M  V30 2818 C 275.153 -3.55771 3.79108 0
M  V30 2819 C 272.838 -3.88627 3.18236 0
M  V30 2820 C 274.832 -3.78939 5.12527 0
M  V30 2821 C 272.519 -4.11449 4.51833 0
M  V30 2822 C 273.517 -4.06598 5.48787 0
M  V30 2823 O 273.205 -4.28826 6.79973 0
M  V30 2824 H 272.937 -0.590258 0.329502 0
M  V30 2825 H 275.491 -1.38598 1.51591 0
M  V30 2826 H 273.721 -3.80442 0.692853 0
M  V30 2827 H 275.41 -3.90743 1.09886 0
M  V30 2828 H 276.176 -3.34005 3.51661 0
M  V30 2829 H 272.055 -3.91526 2.43369 0
M  V30 2830 H 275.599 -3.75068 5.88192 0
M  V30 2831 H 271.496 -4.32698 4.79002 0
M  V30 2832 H 272.264 -4.46264 6.86142 0
M  V30 2833 N 274.927 -0.932562 -1.27047 0
M  V30 2834 C 276.173 -0.576412 -1.94436 0
M  V30 2835 C 276.506 0.880891 -1.73072 0
M  V30 2836 O 275.781 1.62905 -1.06264 0
M  V30 2837 C 276.064 -0.909031 -3.48437 0
M  V30 2838 C 275.917 -2.42044 -3.79123 0
M  V30 2839 C 277.236 -0.418341 -4.38107 0
M  V30 2840 H 274.355 -0.210888 -0.706184 0
M  V30 2841 H 276.997 -1.16522 -1.50075 0
M  V30 2842 H 275.147 -0.407947 -3.86352 0
M  V30 2843 H 276.819 -2.99359 -3.50973 0
M  V30 2844 H 275.062 -2.86758 -3.25503 0
M  V30 2845 H 275.733 -2.6037 -4.86736 0
M  V30 2846 H 278.209 -0.847856 -4.0737 0
M  V30 2847 H 277.085 -0.679981 -5.44672 0
M  V30 2848 H 277.346 0.681642 -4.36814 0
M  V30 2849 N 276.405 1.4127 -0.698611 0
M  V30 2850 C 277.315 2.34573 -0.0357891 0
M  V30 2851 C 278.331 1.56393 0.762701 0
M  V30 2852 O 279.507 1.8886 0.699564 0
M  V30 2853 C 276.572 3.35159 0.887089 0
M  V30 2854 C 275.633 4.29225 0.0804634 0
M  V30 2855 C 274.866 5.25006 0.959387 0
M  V30 2856 O 275.089 5.26314 2.19886 0
M  V30 2857 O 274.023 6.00519 0.407439 0
M  V30 2858 H 277.849 2.92838 -0.804957 0
M  V30 2859 H 275.434 1.42175 -0.458966 0
M  V30 2860 H 277.316 3.9689 1.41621 0
M  V30 2861 H 275.991 2.79333 1.6357 0
M  V30 2862 H 274.898 3.70833 -0.493328 0
M  V30 2863 H 276.231 4.88157 -0.629547 0
M  V30 2864 N 277.883 0.443576 1.51229 0
M  V30 2865 C 278.831 -0.37904 2.29491 0
M  V30 2866 C 279.825 -1.0153 1.35603 0
M  V30 2867 O 281.031 -0.94955 1.52917 0
M  V30 2868 H 277.406 -0.141053 0.738653 0
M  V30 2869 H 279.377 0.301799 2.9687 0
M  V30 2870 C 278.126 -1.46426 3.15364 0
M  V30 2871 H 277.449 -0.984037 3.87501 0
M  V30 2872 H 278.889 -2.01297 3.7317 0
M  V30 2873 C 277.348 -2.45099 2.31146 0
M  V30 2874 O 277.878 -3.49773 1.9754 0
M  V30 2875 N 276.084 -2.16139 1.94249 0
M  V30 2876 H 275.631 -1.31044 2.21777 0
M  V30 2877 H 275.589 -2.82398 1.38198 0
M  V30 2878 N 279.361 -1.56624 0.175154 0
M  V30 2879 C 280.638 -1.88688 -0.515373 0
M  V30 2880 C 281.018 -1.08564 -1.81044 0
M  V30 2881 O 280.366 -0.180703 -2.27784 0
M  V30 2882 C 280.576 -3.40768 -0.753552 0
M  V30 2883 C 281.924 -4.10587 -1.08184 0
M  V30 2884 O 282.948 -3.46106 -0.841961 0
M  V30 2885 O 281.807 -5.24512 -1.53459 0
M  V30 2886 H 278.901 -0.78301 -0.26613 0
M  V30 2887 H 281.447 -1.68347 0.213877 0
M  V30 2888 H 280.219 -3.90965 0.161829 0
M  V30 2889 H 279.842 -3.66733 -1.53598 0
M  V30 2890 N 280.839 0.0985539 -1.57292 0
M  V30 2891 C 282.086 0.802678 -1.85912 0
M  V30 2892 C 282.414 1.78901 -0.763186 0
M  V30 2893 O 281.669 1.94178 0.243559 0
M  V30 2894 C 281.968 1.56927 -3.21105 0
M  V30 2895 C 281.634 0.725376 -4.45027 0
M  V30 2896 C 280.296 0.492726 -4.78671 0
M  V30 2897 C 282.648 0.138493 -5.21016 0
M  V30 2898 C 279.976 -0.336727 -5.85733 0
M  V30 2899 C 282.328 -0.678264 -6.28953 0
M  V30 2900 C 280.992 -0.921039 -6.61115 0
M  V30 2901 H 280.262 0.293721 -0.680301 0
M  V30 2902 H 282.909 0.0642841 -1.91392 0
M  V30 2903 H 281.214 2.37914 -3.11294 0
M  V30 2904 H 282.911 2.11841 -3.40477 0
M  V30 2905 H 279.501 0.916815 -4.18679 0
M  V30 2906 H 283.685 0.305404 -4.95359 0
M  V30 2907 H 278.941 -0.533836 -6.09065 0
M  V30 2908 H 283.115 -1.1399 -6.87007 0
M  V30 2909 H 280.742 -1.56556 -7.43905 0
M  V30 2910 N 282.317 1.53212 0.369288 0
M  V30 2911 C 283.542 1.73423 1.1375 0
M  V30 2912 C 283.967 0.460404 1.82378 0
M  V30 2913 O 283.325 -0.585298 1.71592 0
M  V30 2914 C 283.373 2.89769 2.1463 0
M  V30 2915 O 282.477 2.58119 3.21634 0
M  V30 2916 H 281.818 0.576061 0.330227 0
M  V30 2917 H 284.348 2.00083 0.427547 0
M  V30 2918 H 284.358 3.15829 2.58294 0
M  V30 2919 H 283.033 3.8217 1.64071 0
M  V30 2920 H 281.61 2.42864 2.82969 0
M  V30 2921 N 283.795 -0.628877 1.44509 0
M  V30 2922 C 285.041 -1.38863 1.48623 0
M  V30 2923 C 285.396 -1.92038 0.117933 0
M  V30 2924 O 284.689 -1.70853 -0.86716 0
M  V30 2925 C 284.883 -2.56995 2.48371 0
M  V30 2926 C 284.712 -2.15385 3.94765 0
M  V30 2927 C 283.482 -2.02558 4.62924 0
M  V30 2928 C 285.68 -1.74158 4.83915 0
M  V30 2929 N 283.662 -1.54534 5.94132 0
M  V30 2930 C 285.033 -1.37396 6.04584 0
M  V30 2931 C 287.088 -1.61559 4.7096 0
M  V30 2932 C 285.791 -0.892948 7.13736 0
M  V30 2933 C 287.817 -1.14862 5.80139 0
M  V30 2934 C 287.179 -0.790516 6.9995 0
M  V30 2935 H 283.278 -0.502858 0.59888 0
M  V30 2936 H 285.862 -0.72121 1.8085 0
M  V30 2937 H 284.033 -3.21362 2.1813 0
M  V30 2938 H 285.765 -3.23801 2.42766 0
M  V30 2939 H 282.52 -2.23082 4.1777 0
M  V30 2940 H 282.944 -1.32815 6.63844 0
M  V30 2941 H 287.586 -1.87876 3.78764 0
M  V30 2942 H 285.304 -0.617291 8.05739 0
M  V30 2943 H 288.89 -1.05569 5.72142 0
M  V30 2944 H 287.77 -0.434713 7.82994 0
M  V30 2945 N 285.273 -1.31445 -0.869486 0
M  V30 2946 C 286.55 -1.11795 -1.60503 0
M  V30 2947 C 286.93 0.327168 -2.08549 0
M  V30 2948 O 286.278 1.32135 -1.8642 0
M  V30 2949 C 286.488 -2.13258 -2.76265 0
M  V30 2950 C 287.836 -2.45805 -3.46215 0
M  V30 2951 O 288.86 -2.11688 -2.86473 0
M  V30 2952 O 287.719 -3.04228 -4.5399 0
M  V30 2953 H 284.813 -0.430421 -0.706163 0
M  V30 2954 H 287.359 -1.42925 -0.914907 0
M  V30 2955 H 286.131 -3.10461 -2.3818 0
M  V30 2956 H 285.754 -1.83035 -3.52964 0
M  V30 2957 N 286.751 1.08385 -1.14413 0
M  V30 2958 C 287.698 2.15311 -0.831265 0
M  V30 2959 C 288.668 1.64751 0.211292 0
M  V30 2960 O 289.853 1.90627 0.0811674 0
M  V30 2961 C 286.993 3.43658 -0.315143 0
M  V30 2962 C 286.106 4.08064 -1.41802 0
M  V30 2963 C 285.241 5.24207 -0.859126 0
M  V30 2964 C 284.28 5.80554 -1.93967 0
M  V30 2965 N 283.417 6.88042 -1.39793 0
M  V30 2966 H 288.257 2.41415 -1.74708 0
M  V30 2967 H 285.794 1.18474 -0.871909 0
M  V30 2968 H 287.752 4.172 0.00230884 0
M  V30 2969 H 286.382 3.17839 0.56378 0
M  V30 2970 H 285.434 3.3228 -1.85187 0
M  V30 2971 H 286.746 4.45962 -2.23427 0
M  V30 2972 H 285.9 6.04689 -0.49359 0
M  V30 2973 H 284.639 4.87699 -0.011932 0
M  V30 2974 H 283.644 4.98725 -2.31415 0
M  V30 2975 H 284.869 6.19121 -2.79046 0
M  V30 2976 H 282.815 6.53493 -0.572919 0
M  V30 2977 H 282.732 7.24767 -2.15054 0
M  V30 2978 H 284 7.72255 -1.0603 0
M  V30 2979 N 288.23 0.939286 1.26551 0
M  V30 2980 C 289.646 0.641304 1.46149 0
M  V30 2981 C 289.846 -0.805964 1.84679 0
M  V30 2982 O 288.902 -1.58278 1.96734 0
M  V30 2983 C 290.215 1.6011 2.54529 0
M  V30 2984 C 291.763 1.6106 2.68382 0
M  V30 2985 C 292.238 2.55765 3.79932 0
M  V30 2986 N 293.729 2.5404 3.87322 0
M  V30 2987 C 294.464 3.24004 4.73085 0
M  V30 2988 N 293.96 4.03388 5.63249 0
M  V30 2989 N 295.753 3.12965 4.66914 0
M  V30 2990 H 287.904 1.87478 0.998285 0
M  V30 2991 H 290.167 0.805559 0.499779 0
M  V30 2992 H 289.873 2.63412 2.33039 0
M  V30 2993 H 289.747 1.35171 3.52149 0
M  V30 2994 H 292.134 0.584835 2.89247 0
M  V30 2995 H 292.215 1.90053 1.71212 0
M  V30 2996 H 291.859 3.58458 3.5982 0
M  V30 2997 H 291.789 2.24063 4.76554 0
M  V30 2998 H 294.28 1.96396 3.22858 0
M  V30 2999 H 294.593 4.5373 6.25579 0
M  V30 3000 H 292.938 4.07489 5.63008 0
M  V30 3001 H 296.129 2.50432 3.95476 0
M  V30 3002 H 296.302 3.67759 5.33533 0
M  V30 3003 N 289.708 -1.40897 0.706093 0
M  V30 3004 C 290.938 -2.05075 0.250523 0
M  V30 3005 C 291.346 -1.53275 -1.10921 0
M  V30 3006 O 290.689 -0.680281 -1.7064 0
M  V30 3007 C 290.751 -3.59219 0.142178 0
M  V30 3008 C 290.415 -4.33864 1.43566 0
M  V30 3009 C 291.412 -4.62448 2.37566 0
M  V30 3010 C 289.097 -4.72946 1.69195 0
M  V30 3011 C 291.091 -5.29088 3.5545 0
M  V30 3012 C 288.778 -5.3932 2.87362 0
M  V30 3013 C 289.776 -5.6732 3.80312 0
M  V30 3014 O 289.464 -6.32325 4.96408 0
M  V30 3015 H 289.196 -0.666645 0.112074 0
M  V30 3016 H 291.75 -1.81467 0.962239 0
M  V30 3017 H 289.98 -3.81609 -0.6254 0
M  V30 3018 H 291.669 -4.0495 -0.277584 0
M  V30 3019 H 292.435 -4.32727 2.19027 0
M  V30 3020 H 288.314 -4.50527 0.977042 0
M  V30 3021 H 291.858 -5.50859 4.28018 0
M  V30 3022 H 287.755 -5.68461 3.05814 0
M  V30 3023 H 288.523 -6.50821 4.9636 0
M  V30 3024 N 291.186 -0.45159 -1.50991 0
M  V30 3025 C 292.426 0.109066 -2.04109 0
M  V30 3026 C 292.79 1.38716 -1.32747 0
M  V30 3027 O 293.991 2.02896 -1.76314 0
M  V30 3028 C 292.262 0.308354 -3.56067 0
M  V30 3029 S 293.821 0.830369 -4.30872 0
M  V30 3030 H 290.639 0.0251531 -0.710555 0
M  V30 3031 H 293.241 -0.614264 -1.85599 0
M  V30 3032 H 291.945 -0.627962 -4.05567 0
M  V30 3033 H 291.476 1.05836 -3.78896 0
M  V30 3034 H 293.491 2.10626 -4.49279 0
M  V30 3035 N 292.664 1.56529 -0.183458 0
M  V30 3036 C 293.574 2.22144 0.754272 0
M  V30 3037 C 294.59 1.21684 1.24374 0
M  V30 3038 O 295.766 1.54385 1.29333 0
M  V30 3039 C 292.831 2.85884 1.96141 0
M  V30 3040 C 291.892 4.01579 1.51765 0
M  V30 3041 C 291.125 4.6227 2.66725 0
M  V30 3042 O 291.348 4.21865 3.83909 0
M  V30 3043 O 290.282 5.51936 2.40104 0
M  V30 3044 H 294.108 3.02861 0.225527 0
M  V30 3045 H 291.693 1.49331 0.0453032 0
M  V30 3046 H 293.575 3.26253 2.66715 0
M  V30 3047 H 292.25 2.08154 2.47899 0
M  V30 3048 H 291.157 3.65856 0.781049 0
M  V30 3049 H 292.49 4.80938 1.04686 0
M  V30 3050 N 294.142 -0.090211 1.57342 0
M  V30 3051 C 295.105 -1.09335 2.01441 0
M  V30 3052 C 296.105 -1.32666 0.908641 0
M  V30 3053 O 297.295 -1.28697 1.174 0
M  V30 3054 C 294.427 -2.44136 2.3793 0
M  V30 3055 H 295.62 -0.713662 2.91285 0
M  V30 3056 H 293.173 -0.335404 1.52659 0
M  V30 3057 H 293.908 -2.86972 1.51055 0
M  V30 3058 H 293.693 -2.28548 3.18603 0
M  V30 3059 H 295.183 -3.16277 2.72688 0
M  V30 3060 N 295.62 -1.53406 -0.361157 0
M  V30 3061 C 296.868 -1.69467 -1.10115 0
M  V30 3062 C 297.189 -0.451352 -1.89705 0
M  V30 3063 O 296.459 0.534636 -1.88463 0
M  V30 3064 H 295.039 -0.624749 -0.409508 0
M  V30 3065 H 297.701 -1.90609 -0.406699 0
M  V30 3066 H 296.797 -2.55774 -1.78847 0
M  V30 3067 N 297.098 0.621204 -1.44841 0
M  V30 3068 C 298.345 1.38055 -1.48145 0
M  V30 3069 C 298.673 1.94143 -0.117867 0
M  V30 3070 O 297.928 1.74713 0.881694 0
M  V30 3071 C 298.227 2.55675 -2.4973 0
M  V30 3072 C 297.893 2.17817 -3.94799 0
M  V30 3073 C 296.555 2.07205 -4.34303 0
M  V30 3074 C 298.907 1.88065 -4.86087 0
M  V30 3075 C 296.235 1.65045 -5.63007 0
M  V30 3076 C 298.587 1.47394 -6.15189 0
M  V30 3077 C 297.251 1.35331 -6.53637 0
M  V30 3078 H 296.521 0.505181 -0.542101 0
M  V30 3079 H 299.168 0.703477 -1.78111 0
M  V30 3080 H 297.473 3.2866 -2.13284 0
M  V30 3081 H 299.17 3.13904 -2.4953 0
M  V30 3082 H 295.76 2.26998 -3.63552 0
M  V30 3083 H 299.944 1.95168 -4.56315 0
M  V30 3084 H 295.2 1.54317 -5.91605 0
M  V30 3085 H 299.374 1.23415 -6.85377 0
M  V30 3086 H 297.001 1.02435 -7.53267 0
M  V30 3087 N 298.576 1.31904 0.862503 0
M  V30 3088 C 299.801 1.25135 1.65397 0
M  V30 3089 C 300.226 -0.179 1.87246 0
M  V30 3090 O 299.584 -1.1277 1.4196 0
M  V30 3091 C 299.632 2.00832 2.99498 0
M  V30 3092 O 298.736 1.35075 3.89652 0
M  V30 3093 H 298.077 0.431655 0.504549 0
M  V30 3094 H 300.607 1.74094 1.07483 0
M  V30 3095 H 300.617 2.10709 3.49379 0
M  V30 3096 H 299.292 3.04847 2.82916 0
M  V30 3097 H 297.869 1.33696 3.48109 0
M  V30 3098 N 300.054 -1.07777 1.14986 0
M  V30 3099 C 301.279 -1.84558 0.946213 0
M  V30 3100 C 301.704 -1.81323 -0.500362 0
M  V30 3101 O 301.062 -1.20301 -1.35637 0
M  V30 3102 C 301.11 -3.29736 1.45968 0
M  V30 3103 O 300.214 -4.07149 0.65601 0
M  V30 3104 H 299.555 -0.571641 0.33782 0
M  V30 3105 H 302.085 -1.35991 1.52865 0
M  V30 3106 H 302.095 -3.80574 1.47063 0
M  V30 3107 H 300.77 -3.31406 2.51283 0
M  V30 3108 H 299.347 -3.65994 0.714322 0
M  V30 3109 N 301.532 -0.945985 -1.26051 0
M  V30 3110 C 302.778 -0.597002 -1.93814 0
M  V30 3111 C 303.111 0.862484 -1.73997 0
M  V30 3112 O 302.386 1.61769 -1.07986 0
M  V30 3113 C 302.669 -0.945937 -3.47454 0
M  V30 3114 C 302.522 -2.46052 -3.76535 0
M  V30 3115 C 303.841 -0.464785 -4.37639 0
M  V30 3116 H 300.96 -0.218366 -0.703907 0
M  V30 3117 H 303.602 -1.18107 -1.48831 0
M  V30 3118 H 301.752 -0.448902 -3.85898 0
M  V30 3119 H 303.424 -3.03065 -3.47778 0
M  V30 3120 H 301.667 -2.90194 -3.22444 0
M  V30 3121 H 302.338 -2.65517 -4.83947 0
M  V30 3122 H 304.814 -0.891016 -4.06448 0
M  V30 3123 H 303.69 -0.737712 -5.4392 0
M  V30 3124 H 303.951 0.635274 -4.37512 0
M  V30 3125 N 303.011 1.40521 -0.713556 0
M  V30 3126 C 304.257 2.01221 -0.252564 0
M  V30 3127 C 304.59 1.56444 1.1506 0
M  V30 3128 O 303.865 0.783597 1.78017 0
M  V30 3129 C 304.148 3.58582 -0.330332 0
M  V30 3130 C 304.001 4.13437 -1.77173 0
M  V30 3131 C 305.32 4.39079 0.299641 0
M  V30 3132 H 302.439 0.731077 -0.0932471 0
M  V30 3133 H 305.081 1.67026 -0.905673 0
M  V30 3134 H 303.231 3.87844 0.225737 0
M  V30 3135 H 304.903 3.9498 -2.38303 0
M  V30 3136 H 303.146 3.67801 -2.3001 0
M  V30 3137 H 303.817 5.22597 -1.77755 0
M  V30 3138 H 306.293 4.15735 -0.174139 0
M  V30 3139 H 305.169 5.4848 0.214771 0
M  V30 3140 H 305.43 4.19915 1.38288 0
M  V30 3141 N 304.489 0.459591 1.5075 0
M  V30 3142 C 305.717 -0.0973749 2.06671 0
M  V30 3143 C 306.132 -1.34524 1.32472 0
M  V30 3144 O 305.489 -1.7827 0.390634 0
M  V30 3145 C 305.54 -0.39714 3.59312 0
M  V30 3146 O 305.261 0.801214 4.30711 0
M  V30 3147 C 306.762 -1.00234 4.31819 0
M  V30 3148 H 303.982 0.00195854 0.670997 0
M  V30 3149 H 306.526 0.645072 1.94059 0
M  V30 3150 H 304.681 -1.08951 3.71764 0
M  V30 3151 H 305.095 0.538857 5.21725 0
M  V30 3152 H 306.569 -1.16193 5.39632 0
M  V30 3153 H 307.046 -1.98939 3.91561 0
M  V30 3154 H 307.652 -0.348699 4.23868 0
M  V30 3155 N 305.967 -1.56429 0.191757 0
M  V30 3156 C 306.899 -2.16154 -0.762245 0
M  V30 3157 C 307.912 -1.12247 -1.17917 0
M  V30 3158 O 309.101 -1.39353 -1.11548 0
M  V30 3159 C 306.201 -2.70606 -2.04024 0
M  V30 3160 C 305.374 -3.99381 -1.78364 0
M  V30 3161 C 304.433 -4.38692 -2.90578 0
M  V30 3162 O 303.459 -5.06179 -2.6033 0
M  V30 3163 N 304.661 -4.01922 -4.18854 0
M  V30 3164 H 307.426 -2.98643 -0.251526 0
M  V30 3165 H 304.987 -1.61897 0.00967373 0
M  V30 3166 H 306.979 -2.93891 -2.78227 0
M  V30 3167 H 305.549 -1.9259 -2.46227 0
M  V30 3168 H 304.769 -3.84262 -0.879581 0
M  V30 3169 H 306.057 -4.83445 -1.58614 0
M  V30 3170 H 305.455 -3.47631 -4.46283 0
M  V30 3171 H 304.012 -4.30165 -4.89695 0
M  V30 3172 N 307.445 0.0818655 -1.57387 0
M  V30 3173 C 308.408 1.08265 -2.02018 0
M  V30 3174 C 309.408 1.32183 -0.915664 0
M  V30 3175 O 310.598 1.28073 -1.18081 0
M  V30 3176 C 307.73 2.42871 -2.39221 0
M  V30 3177 H 308.923 0.698204 -2.91659 0
M  V30 3178 H 306.476 0.327303 -1.52835 0
M  V30 3179 H 307.211 2.86167 -1.52575 0
M  V30 3180 H 306.996 2.26855 -3.19811 0
M  V30 3181 H 308.486 3.14826 -2.74362 0
M  V30 3182 N 308.923 1.53595 0.353017 0
M  V30 3183 C 310.171 1.70049 1.09215 0
M  V30 3184 C 310.492 0.461406 1.89463 0
M  V30 3185 O 309.762 -0.524633 1.88744 0
M  V30 3186 H 308.342 0.626912 0.40619 0
M  V30 3187 H 311.004 1.90822 0.396585 0
M  V30 3188 H 310.1 2.56718 1.77488 0
M  V30 3189 N 310.401 -0.613514 1.45168 0
M  V30 3190 C 311.311 -1.75296 1.55912 0
M  V30 3191 C 312.327 -1.68244 0.443856 0
M  V30 3192 O 313.503 -1.88706 0.70371 0
M  V30 3193 C 310.568 -3.1174 1.5172 0
M  V30 3194 C 309.629 -3.30291 2.74238 0
M  V30 3195 C 308.862 -4.60226 2.70236 0
M  V30 3196 O 309.085 -5.42168 1.77229 0
M  V30 3197 O 308.019 -4.81361 3.61352 0
M  V30 3198 H 311.845 -1.69183 2.52212 0
M  V30 3199 H 309.43 -0.776886 1.27612 0
M  V30 3200 H 311.312 -3.93044 1.51968 0
M  V30 3201 H 309.987 -3.18357 0.585697 0
M  V30 3202 H 308.894 -2.48598 2.79553 0
M  V30 3203 H 310.227 -3.28547 3.66494 0
M  V30 3204 N 311.879 -1.3236 -0.855495 0
M  V30 3205 C 312.809 -1.23833 -1.97958 0
M  V30 3206 C 313.79 -0.122361 -1.69659 0
M  V30 3207 O 314.975 -0.30939 -1.9172 0
M  V30 3208 C 312.105 -0.959772 -3.33775 0
M  V30 3209 C 311.059 -2.03689 -3.76424 0
M  V30 3210 C 310.385 -1.61075 -5.09862 0
M  V30 3211 C 311.685 -3.4518 -3.9198 0
M  V30 3212 H 313.379 -2.1788 -2.0535 0
M  V30 3213 H 310.925 -1.04891 -0.986605 0
M  V30 3214 H 312.878 -0.886678 -4.11966 0
M  V30 3215 H 311.602 0.0163404 -3.26596 0
M  V30 3216 H 310.261 -2.10012 -3.00484 0
M  V30 3217 H 309.909 -0.622107 -4.99138 0
M  V30 3218 H 309.609 -2.33143 -5.39368 0
M  V30 3219 H 311.133 -1.55201 -5.90546 0
M  V30 3220 H 312.547 -3.4145 -4.60526 0
M  V30 3221 H 310.944 -4.1559 -4.32903 0
M  V30 3222 H 312.014 -3.84903 -2.94919 0
M  V30 3223 N 313.357 1.07166 -1.15556 0
M  V30 3224 C 314.603 1.80065 -0.932984 0
M  V30 3225 C 314.936 1.86586 0.53845 0
M  V30 3226 O 314.211 1.35098 1.39924 0
M  V30 3227 C 314.494 3.25022 -1.55025 0
M  V30 3228 C 314.347 3.26634 -3.09242 0
M  V30 3229 C 315.666 4.22341 -1.2376 0
M  V30 3230 H 312.785 0.653697 -0.340366 0
M  V30 3231 H 315.427 1.25389 -1.4275 0
M  V30 3232 H 313.577 3.71712 -1.12972 0
M  V30 3233 H 315.249 2.88173 -3.60214 0
M  V30 3234 H 313.492 2.65539 -3.43033 0
M  V30 3235 H 314.163 4.28854 -3.47546 0
M  V30 3236 H 316.639 3.8405 -1.60139 0
M  V30 3237 H 315.515 5.22053 -1.69564 0
M  V30 3238 H 315.776 4.41828 -0.154938 0
M  V30 3239 N 314.835 0.952656 1.25548 0
M  V30 3240 C 315.765 0.489287 2.28316 0
M  V30 3241 C 316.746 -0.463359 1.63667 0
M  V30 3242 O 317.931 -0.36274 1.90782 0
M  V30 3243 C 315.061 -0.235603 3.465 0
M  V30 3244 C 314.015 0.631593 4.23314 0
M  V30 3245 C 313.341 -0.223923 5.34231 0
M  V30 3246 C 314.641 1.90871 4.86174 0
M  V30 3247 H 316.335 1.34822 2.67326 0
M  V30 3248 H 313.881 0.649728 1.28509 0
M  V30 3249 H 315.834 -0.570882 4.17515 0
M  V30 3250 H 314.558 -1.12877 3.06474 0
M  V30 3251 H 313.217 0.949929 3.54079 0
M  V30 3252 H 312.865 -1.11678 4.90446 0
M  V30 3253 H 312.565 0.35299 5.86539 0
M  V30 3254 H 314.089 -0.554214 6.0808 0
M  V30 3255 H 315.503 1.63997 5.49343 0
M  V30 3256 H 313.9 2.43112 5.4865 0
M  V30 3257 H 314.97 2.61304 4.08471 0
M  V30 3258 N 316.313 -1.40141 0.720998 0
M  V30 3259 C 317.561 -2.0039 0.262323 0
M  V30 3260 C 317.882 -1.57469 -1.15015 0
M  V30 3261 O 317.152 -0.816582 -1.78069 0
M  V30 3262 H 315.732 -0.741063 0.093996 0
M  V30 3263 H 318.394 -1.71398 0.927835 0
M  V30 3264 H 317.49 -3.10658 0.299671 0
M  V30 3265 N 317.792 -0.46758 -1.50504 0
M  V30 3266 C 318.755 0.317059 -2.26996 0
M  V30 3267 C 319.755 0.923513 -1.31635 0
M  V30 3268 O 320.945 0.793239 -1.55091 0
M  V30 3269 C 318.077 1.45134 -3.08462 0
M  V30 3270 H 319.27 -0.353723 -2.97807 0
M  V30 3271 H 316.823 -0.221545 -1.54722 0
M  V30 3272 H 317.558 2.15728 -2.4214 0
M  V30 3273 H 317.343 1.02232 -3.78538 0
M  V30 3274 H 318.833 2.00493 -3.66323 0
M  V30 3275 N 319.27 1.56325 -0.20005 0
M  V30 3276 C 320.681 1.8408 0.31167 0
M  V30 3277 C 321.032 1.12087 1.61031 0
M  V30 3278 O 320.157 0.38332 2.12978 0
M  V30 3279 C 320.752 3.33932 0.57226 0
M  V30 3280 C 319.311 3.6208 1.02834 0
M  V30 3281 C 318.458 2.77186 0.079634 0
M  V30 3282 H 321.409 1.52939 -0.423729 0
M  V30 3283 H 321.43 3.52971 1.42096 0
M  V30 3284 H 320.942 3.86303 -0.37308 0
M  V30 3285 H 319.043 3.15147 1.98778 0
M  V30 3286 H 319.156 4.7023 0.917624 0
M  V30 3287 H 317.52 2.47951 0.582448 0
M  V30 3288 H 318.303 3.32347 -0.860238 0
M  V30 3289 N 320.748 -0.0735177 1.57428 0
M  V30 3290 C 321.996 -0.771472 1.86796 0
M  V30 3291 C 322.317 -1.78201 0.791804 0
M  V30 3292 O 321.587 -1.95074 -0.179718 0
M  V30 3293 H 320.167 -0.28791 0.689287 0
M  V30 3294 H 322.829 -0.0500161 1.94836 0
M  V30 3295 H 321.925 -1.28874 2.8425 0
M  V30 3296 N 322.226 -1.5378 -0.344866 0
M  V30 3297 C 323.474 -1.70625 -1.08311 0
M  V30 3298 C 323.795 -0.471447 -1.89215 0
M  V30 3299 O 323.065 0.514616 -1.8902 0
M  V30 3300 H 321.645 -0.629058 -0.402859 0
M  V30 3301 H 324.307 -1.9103 -0.386459 0
M  V30 3302 H 323.403 -2.57656 -1.76124 0
M  V30 3303 N 323.704 0.605807 -1.45491 0
M  V30 3304 C 324.934 1.38934 -1.52908 0
M  V30 3305 C 325.342 1.88513 -0.161086 0
M  V30 3306 O 324.685 1.62962 0.847891 0
M  V30 3307 C 324.747 2.62737 -2.45376 0
M  V30 3308 C 324.411 2.34785 -3.92078 0
M  V30 3309 C 325.408 1.95038 -4.8193 0
M  V30 3310 C 323.093 2.47642 -4.37011 0
M  V30 3311 C 325.087 1.68511 -6.14722 0
M  V30 3312 C 322.774 2.20728 -5.69844 0
M  V30 3313 C 323.772 1.81225 -6.58519 0
M  V30 3314 O 323.46 1.54627 -7.88889 0
M  V30 3315 H 323.192 0.431629 -0.520262 0
M  V30 3316 H 325.746 0.74573 -1.91384 0
M  V30 3317 H 323.976 3.29824 -2.01874 0
M  V30 3318 H 325.665 3.24783 -2.43456 0
M  V30 3319 H 326.431 1.84639 -4.48479 0
M  V30 3320 H 322.31 2.77356 -3.68232 0
M  V30 3321 H 325.854 1.37602 -6.83894 0
M  V30 3322 H 321.751 2.30744 -6.02849 0
M  V30 3323 H 322.519 1.68665 -8.00933 0
M  V30 3324 N 325.182 1.32811 0.848464 0
M  V30 3325 C 326.412 1.26556 1.63301 0
M  V30 3326 C 326.82 -0.1676 1.88456 0
M  V30 3327 O 326.163 -1.11713 1.45828 0
M  V30 3328 C 326.225 1.96202 3.01239 0
M  V30 3329 C 325.889 3.45528 2.99098 0
M  V30 3330 C 326.886 4.40903 2.75501 0
M  V30 3331 C 324.571 3.87558 3.19537 0
M  V30 3332 C 326.565 5.76282 2.72356 0
M  V30 3333 C 324.252 5.23044 3.16019 0
M  V30 3334 C 325.25 6.17217 2.92458 0
M  V30 3335 O 324.938 7.50223 2.88825 0
M  V30 3336 H 324.67 0.43771 0.515156 0
M  V30 3337 H 327.224 1.7559 1.0657 0
M  V30 3338 H 325.454 1.41746 3.59785 0
M  V30 3339 H 327.143 1.83573 3.62016 0
M  V30 3340 H 327.909 4.09756 2.5947 0
M  V30 3341 H 323.788 3.14674 3.369 0
M  V30 3342 H 327.332 6.4976 2.53886 0
M  V30 3343 H 323.229 5.53818 3.31596 0
M  V30 3344 H 323.997 7.59657 3.04735 0
M  V30 3345 N 326.66 -1.06551 1.16123 0
M  V30 3346 C 327.907 -1.79302 0.941126 0
M  V30 3347 C 328.235 -1.87105 -0.531235 0
M  V30 3348 O 327.49 -1.35692 -1.41018 0
M  V30 3349 C 327.789 -3.23911 1.51052 0
M  V30 3350 C 327.455 -3.36193 3.00475 0
M  V30 3351 C 326.117 -3.39252 3.41265 0
M  V30 3352 C 328.469 -3.38326 3.96465 0
M  V30 3353 C 325.797 -3.42057 4.76669 0
M  V30 3354 C 328.149 -3.4267 5.31752 0
M  V30 3355 C 326.813 -3.4401 5.72026 0
M  V30 3356 H 326.083 -0.656111 0.344382 0
M  V30 3357 H 328.73 -1.25325 1.44796 0
M  V30 3358 H 327.035 -3.80723 0.925063 0
M  V30 3359 H 328.732 -3.78793 1.31593 0
M  V30 3360 H 325.322 -3.34516 2.6795 0
M  V30 3361 H 329.506 -3.35176 3.6602 0
M  V30 3362 H 324.762 -3.41398 5.07206 0
M  V30 3363 H 328.936 -3.43268 6.05921 0
M  V30 3364 H 326.563 -3.45937 6.76928 0
M  V30 3365 N 328.138 -0.959301 -1.25041 0
M  V30 3366 C 329.068 -0.501388 -2.28053 0
M  V30 3367 C 330.049 0.454673 -1.63911 0
M  V30 3368 O 331.234 0.352618 -1.90972 0
M  V30 3369 C 328.364 0.217224 -3.4662 0
M  V30 3370 C 327.318 -0.654034 -4.22973 0
M  V30 3371 C 326.644 0.195589 -5.34342 0
M  V30 3372 C 327.944 -1.93447 -4.85155 0
M  V30 3373 H 329.638 -1.36238 -2.66608 0
M  V30 3374 H 327.184 -0.656534 -1.28163 0
M  V30 3375 H 329.137 0.548732 -4.17812 0
M  V30 3376 H 327.861 1.1125 -3.07068 0
M  V30 3377 H 326.52 -0.968693 -3.5357 0
M  V30 3378 H 326.168 1.09076 -4.91031 0
M  V30 3379 H 325.868 -0.384091 -5.86343 0
M  V30 3380 H 327.392 0.521958 -6.08365 0
M  V30 3381 H 328.806 -1.66908 -5.48466 0
M  V30 3382 H 327.203 -2.46018 -5.47353 0
M  V30 3383 H 328.273 -2.63466 -4.07079 0
M  V30 3384 N 329.616 1.39756 -0.72842 0
M  V30 3385 C 330.864 2.00248 -0.272946 0
M  V30 3386 C 331.185 1.58077 1.14178 0
M  V30 3387 O 330.455 0.826014 1.77634 0
M  V30 3388 H 329.035 0.740554 -0.0979247 0
M  V30 3389 H 331.697 1.70903 -0.936912 0
M  V30 3390 H 330.793 3.10495 -0.316142 0
M  V30 3391 N 331.094 0.475555 1.50254 0
M  V30 3392 C 332.024 -0.30611 2.31485 0
M  V30 3393 C 333.005 -0.986228 1.38591 0
M  V30 3394 O 334.19 -0.982541 1.67511 0
M  V30 3395 C 331.32 -1.38588 3.1845 0
M  V30 3396 C 330.274 -0.827115 4.19932 0
M  V30 3397 C 329.6 -2.00551 4.95665 0
M  V30 3398 C 330.9 0.16463 5.2204 0
M  V30 3399 H 332.594 0.371866 2.97082 0
M  V30 3400 H 330.14 0.180282 1.42867 0
M  V30 3401 H 332.093 -1.94023 3.74076 0
M  V30 3402 H 330.817 -2.09269 2.50747 0
M  V30 3403 H 329.476 -0.294702 3.65414 0
M  V30 3404 H 329.124 -2.6994 4.2443 0
M  V30 3405 H 328.824 -1.63784 5.64313 0
M  V30 3406 H 330.348 -2.56468 5.54127 0
M  V30 3407 H 331.762 -0.300699 5.72511 0
M  V30 3408 H 330.159 0.446813 5.98434 0
M  V30 3409 H 331.229 1.08905 4.72512 0
M  V30 3410 N 332.573 -1.56217 0.208337 0
M  V30 3411 C 333.503 -2.22694 -0.702116 0
M  V30 3412 C 334.484 -1.19432 -1.2112 0
M  V30 3413 O 335.669 -1.47978 -1.25762 0
M  V30 3414 C 332.799 -2.8966 -1.9161 0
M  V30 3415 C 331.753 -3.9928 -1.5414 0
M  V30 3416 C 331.079 -4.53476 -2.83308 0
M  V30 3417 C 332.379 -5.17012 -0.741339 0
M  V30 3418 H 334.073 -2.99034 -0.147898 0
M  V30 3419 H 331.619 -1.43831 -0.0696951 0
M  V30 3420 H 333.572 -3.34852 -2.55836 0
M  V30 3421 H 332.296 -2.10746 -2.49507 0
M  V30 3422 H 330.955 -3.54799 -0.922668 0
M  V30 3423 H 330.603 -3.71308 -3.39322 0
M  V30 3424 H 330.303 -5.27451 -2.58976 0
M  V30 3425 H 331.827 -5.01378 -3.485 0
M  V30 3426 H 333.241 -5.58667 -1.28699 0
M  V30 3427 H 331.638 -5.97137 -0.595627 0
M  V30 3428 H 332.708 -4.8423 0.254851 0
M  V30 3429 N 334.051 0.0651679 -1.57465 0
M  V30 3430 C 335.014 1.06117 -2.03155 0
M  V30 3431 C 336.014 1.31204 -0.929632 0
M  V30 3432 O 337.204 1.26813 -1.19432 0
M  V30 3433 C 334.336 2.4032 -2.41783 0
M  V30 3434 H 335.529 0.667231 -2.92383 0
M  V30 3435 H 333.082 0.311075 -1.53173 0
M  V30 3436 H 333.817 2.84532 -1.55601 0
M  V30 3437 H 333.602 2.23451 -3.22199 0
M  V30 3438 H 335.092 3.11898 -2.77685 0
M  V30 3439 N 335.529 1.53961 0.336706 0
M  V30 3440 C 336.461 1.78751 1.4346 0
M  V30 3441 C 337.474 0.669019 1.48418 0
M  V30 3442 O 338.663 0.945884 1.51378 0
M  V30 3443 C 335.763 1.87844 2.82078 0
M  V30 3444 C 334.936 3.17854 3.00479 0
M  V30 3445 C 333.995 3.17816 4.19379 0
M  V30 3446 O 333.021 3.91511 4.13168 0
M  V30 3447 N 334.223 2.40669 5.2826 0
M  V30 3448 H 336.988 2.73493 1.22563 0
M  V30 3449 H 334.549 1.53096 0.526625 0
M  V30 3450 H 336.541 1.85261 3.59806 0
M  V30 3451 H 335.111 1.00257 2.96086 0
M  V30 3452 H 334.331 3.33504 2.10163 0
M  V30 3453 H 335.619 4.03718 3.0966 0
M  V30 3454 H 335.017 1.8036 5.36178 0
M  V30 3455 H 333.574 2.43877 6.04456 0
M  V30 3456 N 337.007 -0.598083 1.45811 0
M  V30 3457 C 337.97 -1.69018 1.54808 0
M  V30 3458 C 338.97 -1.55037 0.426652 0
M  V30 3459 O 340.16 -1.59932 0.690456 0
M  V30 3460 C 337.292 -3.0835 1.45371 0
M  V30 3461 H 338.485 -1.62403 2.52121 0
M  V30 3462 H 336.038 -0.814626 1.33392 0
M  V30 3463 H 336.773 -3.20534 0.492793 0
M  V30 3464 H 336.558 -3.19907 2.26721 0
M  V30 3465 H 338.048 -3.8788 1.54721 0
M  V30 3466 N 338.485 -1.33259 -0.841409 0
M  V30 3467 C 339.896 -1.22066 -1.41269 0
M  V30 3468 C 340.247 0.161479 -1.95534 0
M  V30 3469 O 339.372 1.06094 -1.88608 0
M  V30 3470 C 339.967 -2.20996 -2.568 0
M  V30 3471 C 338.526 -2.13649 -3.09888 0
M  V30 3472 C 337.673 -2.08623 -1.82679 0
M  V30 3473 H 340.624 -1.44895 -0.647395 0
M  V30 3474 H 340.645 -1.81621 -3.34356 0
M  V30 3475 H 340.157 -3.2158 -2.17274 0
M  V30 3476 H 338.258 -1.16359 -3.53965 0
M  V30 3477 H 338.371 -3.04079 -3.70234 0
M  V30 3478 H 336.735 -1.54061 -2.02824 0
M  V30 3479 H 337.518 -3.1101 -1.45353 0
M  V30 3480 N 339.963 1.05934 -1.16686 0
M  V30 3481 C 341.209 1.79065 -0.95203 0
M  V30 3482 C 341.542 1.87147 0.518629 0
M  V30 3483 O 340.817 1.36574 1.38484 0
M  V30 3484 C 341.1 3.23359 -1.58464 0
M  V30 3485 C 340.953 3.23336 -3.12689 0
M  V30 3486 C 342.272 4.21004 -1.28232 0
M  V30 3487 H 339.391 0.65005 -0.34728 0
M  V30 3488 H 342.033 1.23868 -1.44072 0
M  V30 3489 H 340.183 3.70493 -1.16908 0
M  V30 3490 H 341.855 2.84336 -3.6325 0
M  V30 3491 H 340.098 2.61886 -3.4583 0
M  V30 3492 H 340.769 4.25144 -3.52075 0
M  V30 3493 H 343.245 3.8233 -1.64203 0
M  V30 3494 H 342.121 5.20225 -1.75092 0
M  V30 3495 H 342.382 4.41639 -0.201791 0
M  V30 3496 N 341.441 0.965919 1.2453 0
M  V30 3497 C 342.404 0.499547 2.2369 0
M  V30 3498 C 343.404 -0.40294 1.5567 0
M  V30 3499 O 344.594 -0.19865 1.73064 0
M  V30 3500 C 341.726 -0.276792 3.39774 0
M  V30 3501 H 342.919 1.37613 2.66463 0
M  V30 3502 H 340.472 0.750324 1.37112 0
M  V30 3503 H 341.207 -1.17055 3.02438 0
M  V30 3504 H 340.992 0.370826 3.90343 0
M  V30 3505 H 342.482 -0.592175 4.1338 0
M  V30 3506 N 342.919 -1.39368 0.735821 0
M  V30 3507 C 344.196 -1.94465 0.210395 0
M  V30 3508 C 344.576 -1.67254 -1.28799 0
M  V30 3509 O 343.924 -1.00123 -2.05396 0
M  V30 3510 C 344.134 -3.4472 0.544897 0
M  V30 3511 C 345.482 -4.21708 0.494689 0
M  V30 3512 O 346.506 -3.52922 0.482136 0
M  V30 3513 O 345.365 -5.44299 0.489947 0
M  V30 3514 H 342.459 -0.826096 0.0386666 0
M  V30 3515 H 345.005 -1.48863 0.814735 0
M  V30 3516 H 343.777 -3.57963 1.58045 0
M  V30 3517 H 343.4 -3.97502 -0.08837 0
M  V30 3518 N 344.397 -0.483516 -1.5 0
M  V30 3519 C 345.646 0.0689102 -2.01582 0
M  V30 3520 C 345.959 1.39655 -1.36952 0
M  V30 3521 O 347.165 2.03465 -1.79762 0
M  V30 3522 C 345.621 0.173302 -3.59483 0
M  V30 3523 C 345.229 -1.14665 -4.33077 0
M  V30 3524 C 346.973 0.677024 -4.19066 0
M  V30 3525 C 344.88 -1.00537 -5.82792 0
M  V30 3526 H 343.81 0.0295277 -0.753422 0
M  V30 3527 H 346.461 -0.620295 -1.72698 0
M  V30 3528 H 344.843 0.926569 -3.85007 0
M  V30 3529 H 346.017 -1.91184 -4.19268 0
M  V30 3530 H 344.332 -1.58244 -3.85159 0
M  V30 3531 H 346.929 0.799952 -5.28682 0
M  V30 3532 H 347.272 1.67151 -3.81269 0
M  V30 3533 H 347.805 -0.0192083 -3.97795 0
M  V30 3534 H 344.544 -1.9736 -6.25083 0
M  V30 3535 H 344.064 -0.280776 -5.99142 0
M  V30 3536 H 345.743 -0.677 -6.43448 0
M  V30 3537 N 345.875 1.56104 -0.216619 0
M  V30 3538 C 347.122 1.98172 0.416416 0
M  V30 3539 C 347.45 1.10413 1.60122 0
M  V30 3540 O 346.705 0.147967 1.9514 0
M  V30 3541 C 347.004 3.45923 0.898464 0
M  V30 3542 C 346.67 4.50559 -0.175288 0
M  V30 3543 C 345.332 4.78897 -0.470271 0
M  V30 3544 C 347.684 5.1334 -0.901728 0
M  V30 3545 C 345.012 5.67299 -1.4963 0
M  V30 3546 C 347.364 6.02853 -1.91705 0
M  V30 3547 C 346.028 6.29537 -2.21901 0
M  V30 3548 H 345.298 0.725164 0.152377 0
M  V30 3549 H 347.945 1.88839 -0.318103 0
M  V30 3550 H 346.25 3.52434 1.71165 0
M  V30 3551 H 347.947 3.75841 1.39803 0
M  V30 3552 H 344.537 4.28551 0.0647806 0
M  V30 3553 H 348.721 4.91521 -0.687072 0
M  V30 3554 H 343.977 5.86239 -1.73592 0
M  V30 3555 H 348.151 6.50552 -2.48505 0
M  V30 3556 H 345.778 6.97835 -3.01548 0
M  V30 3557 N 347.353 -0.0568162 1.57498 0
M  V30 3558 C 348.578 -0.769402 1.92601 0
M  V30 3559 C 349.003 -1.69559 0.814336 0
M  V30 3560 O 348.361 -1.79811 -0.231903 0
M  V30 3561 C 348.409 -1.52634 3.26704 0
M  V30 3562 O 347.513 -2.63797 3.16994 0
M  V30 3563 H 346.854 -0.208909 0.63028 0
M  V30 3564 H 349.384 -0.0205798 2.0459 0
M  V30 3565 H 349.394 -1.90234 3.60936 0
M  V30 3566 H 348.069 -0.846875 4.07186 0
M  V30 3567 H 346.646 -2.28943 2.94346 0
M  V30 3568 N 348.832 -1.54138 -0.328536 0
M  V30 3569 C 350.057 -1.76378 -1.09112 0
M  V30 3570 C 350.482 -0.508596 -1.81094 0
M  V30 3571 O 349.84 0.539598 -1.73084 0
M  V30 3572 C 349.888 -2.95358 -2.06872 0
M  V30 3573 O 348.992 -2.66556 -3.14677 0
M  V30 3574 H 348.333 -0.584614 -0.314838 0
M  V30 3575 H 350.863 -2.01146 -0.374348 0
M  V30 3576 H 350.873 -3.22566 -2.4983 0
M  V30 3577 H 349.548 -3.86385 -1.5388 0
M  V30 3578 H 348.125 -2.50282 -2.7643 0
M  V30 3579 N 350.31 0.590341 -1.46126 0
M  V30 3580 C 351.54 1.37304 -1.54373 0
M  V30 3581 C 351.948 1.88332 -0.181071 0
M  V30 3582 O 351.291 1.63852 0.830559 0
M  V30 3583 C 351.353 2.6012 -2.48149 0
M  V30 3584 C 351.017 2.30613 -3.94546 0
M  V30 3585 C 352.014 1.89915 -4.83971 0
M  V30 3586 C 349.699 2.42993 -4.39613 0
M  V30 3587 C 351.693 1.61981 -6.16475 0
M  V30 3588 C 349.38 2.14672 -5.72153 0
M  V30 3589 C 350.378 1.7423 -6.60404 0
M  V30 3590 O 350.066 1.46251 -7.90485 0
M  V30 3591 H 349.798 0.426086 -0.524811 0
M  V30 3592 H 352.352 0.72539 -1.92165 0
M  V30 3593 H 350.582 3.27664 -2.05361 0
M  V30 3594 H 352.271 3.22182 -2.46887 0
M  V30 3595 H 353.037 1.79872 -4.50412 0
M  V30 3596 H 348.916 2.73435 -3.71153 0
M  V30 3597 H 352.46 1.30341 -6.85315 0
M  V30 3598 H 348.357 2.24337 -6.05263 0
M  V30 3599 H 349.125 1.6016 -8.02677 0
M  V30 3600 N 351.788 1.33704 0.83433 0
M  V30 3601 C 353.204 1.13137 1.12571 0
M  V30 3602 C 353.404 -0.0747261 2.01361 0
M  V30 3603 O 352.46 -0.753647 2.4099 0
M  V30 3604 C 353.773 2.42105 1.78342 0
M  V30 3605 C 355.321 2.48054 1.90888 0
M  V30 3606 C 355.796 3.76995 2.60075 0
M  V30 3607 N 357.287 3.78092 2.67584 0
M  V30 3608 C 358.022 4.74574 3.21818 0
M  V30 3609 N 357.518 5.81434 3.76705 0
M  V30 3610 N 359.311 4.62044 3.20112 0
M  V30 3611 H 351.462 2.11 0.243489 0
M  V30 3612 H 353.725 0.932532 0.17055 0
M  V30 3613 H 353.431 3.30391 1.20561 0
M  V30 3614 H 353.305 2.54594 2.7832 0
M  V30 3615 H 355.692 1.60215 2.47821 0
M  V30 3616 H 355.773 2.39502 0.898459 0
M  V30 3617 H 355.417 4.65219 2.03799 0
M  V30 3618 H 355.347 3.82825 3.61597 0
M  V30 3619 H 357.838 3.00865 2.28667 0
M  V30 3620 H 358.151 6.51084 4.16305 0
M  V30 3621 H 356.496 5.85163 3.7498 0
M  V30 3622 H 359.687 3.77716 2.76493 0
M  V30 3623 H 359.86 5.37406 3.62076 0
M  V30 3624 N 353.266 -1.05314 1.17247 0
M  V30 3625 C 354.677 -1.59753 0.96623 0
M  V30 3626 C 355.028 -1.9005 -0.487378 0
M  V30 3627 O 354.153 -1.68126 -1.36245 0
M  V30 3628 C 354.748 -2.90249 1.74759 0
M  V30 3629 C 353.307 -3.41352 1.58606 0
M  V30 3630 C 352.454 -2.15103 1.75002 0
M  V30 3631 H 355.405 -0.881406 1.31973 0
M  V30 3632 H 355.426 -3.60097 1.22925 0
M  V30 3633 H 354.938 -2.68166 2.8055 0
M  V30 3634 H 353.039 -3.68474 0.552985 0
M  V30 3635 H 353.152 -4.16019 2.37624 0
M  V30 3636 H 351.516 -2.25804 1.17833 0
M  V30 3637 H 352.299 -1.95491 2.82202 0
M  V30 3638 N 354.744 -0.972509 -1.24016 0
M  V30 3639 C 355.992 -0.635776 -1.91839 0
M  V30 3640 C 356.313 0.832312 -1.76345 0
M  V30 3641 O 355.583 1.5946 -1.13795 0
M  V30 3642 H 354.163 -0.232157 -0.710009 0
M  V30 3643 H 356.825 -1.23462 -1.50809 0
M  V30 3644 H 355.921 -0.880545 -2.99421 0
M  V30 3645 N 356.222 1.38976 -0.743202 0
M  V30 3646 C 357.471 1.99581 -0.291592 0
M  V30 3647 C 357.784 1.59656 1.13001 0
M  V30 3648 O 358.99 2.13157 1.68156 0
M  V30 3649 C 357.446 3.56813 -0.470391 0
M  V30 3650 C 357.054 4.05695 -1.90041 0
M  V30 3651 C 358.798 4.24423 -0.0809709 0
M  V30 3652 C 356.705 5.5553 -2.02832 0
M  V30 3653 H 355.635 0.746615 -0.105272 0
M  V30 3654 H 358.286 1.58872 -0.918258 0
M  V30 3655 H 356.668 3.95359 0.225299 0
M  V30 3656 H 357.842 3.78464 -2.62872 0
M  V30 3657 H 356.157 3.50775 -2.24379 0
M  V30 3658 H 358.754 5.34474 -0.155445 0
M  V30 3659 H 359.097 4.04962 0.96497 0
M  V30 3660 H 359.63 3.9108 -0.728124 0
M  V30 3661 H 356.369 5.79881 -3.05643 0
M  V30 3662 H 355.889 5.84537 -1.34448 0
M  V30 3663 H 357.568 6.21069 -1.81335 0
M  V30 3664 N 357.7 0.491464 1.49741 0
M  V30 3665 C 358.63 -0.28154 2.31796 0
M  V30 3666 C 359.611 -0.971473 1.3963 0
M  V30 3667 O 360.796 -0.964719 1.68543 0
M  V30 3668 C 357.926 -1.35203 3.19902 0
M  V30 3669 C 356.88 -0.782529 4.20786 0
M  V30 3670 C 356.206 -1.95283 4.97764 0
M  V30 3671 C 357.506 0.21999 5.21837 0
M  V30 3672 H 359.2 0.403355 2.96671 0
M  V30 3673 H 356.746 0.195425 1.42668 0
M  V30 3674 H 358.699 -1.90045 3.76113 0
M  V30 3675 H 357.423 -2.06598 2.52953 0
M  V30 3676 H 356.082 -0.255928 3.65706 0
M  V30 3677 H 355.73 -2.65423 4.2727 0
M  V30 3678 H 355.43 -1.57789 5.66018 0
M  V30 3679 H 356.954 -2.50577 5.56816 0
M  V30 3680 H 358.368 -0.23996 5.72798 0
M  V30 3681 H 356.765 0.51026 5.97927 0
M  V30 3682 H 357.835 1.13911 4.7133 0
M  V30 3683 N 359.178 -1.55987 0.224894 0
M  V30 3684 C 360.108 -2.23426 -0.678457 0
M  V30 3685 C 361.089 -1.20709 -1.19847 0
M  V30 3686 O 362.274 -1.49304 -1.24186 0
M  V30 3687 C 359.404 -2.91676 -1.88527 0
M  V30 3688 C 358.358 -4.00893 -1.49896 0
M  V30 3689 C 357.684 -4.56455 -2.78483 0
M  V30 3690 C 358.984 -5.17769 -0.686461 0
M  V30 3691 H 360.678 -2.99175 -0.116173 0
M  V30 3692 H 358.224 -1.43897 -0.054436 0
M  V30 3693 H 360.177 -3.37547 -2.5227 0
M  V30 3694 H 358.901 -2.1338 -2.47258 0
M  V30 3695 H 357.56 -3.55758 -0.884985 0
M  V30 3696 H 357.208 -3.74886 -3.35365 0
M  V30 3697 H 356.908 -5.30169 -2.53368 0
M  V30 3698 H 358.432 -5.05047 -3.43162 0
M  V30 3699 H 359.846 -5.60001 -1.22767 0
M  V30 3700 H 358.243 -5.97735 -0.532259 0
M  V30 3701 H 359.313 -4.83932 0.306196 0
M  V30 3702 N 360.656 0.0484629 -1.57525 0
M  V30 3703 C 361.902 0.738854 -1.89506 0
M  V30 3704 C 362.257 1.73989 -0.821319 0
M  V30 3705 O 361.55 1.90825 0.172129 0
M  V30 3706 C 361.744 1.46632 -3.25935 0
M  V30 3707 C 361.573 0.537254 -4.46479 0
M  V30 3708 C 360.343 0.165484 -5.05029 0
M  V30 3709 C 362.541 -0.176085 -5.13998 0
M  V30 3710 N 360.523 -0.766868 -6.09091 0
M  V30 3711 C 361.894 -0.96478 -6.12448 0
M  V30 3712 C 363.949 -0.24509 -4.97296 0
M  V30 3713 C 362.652 -1.8161 -6.95996 0
M  V30 3714 C 364.678 -1.08347 -5.81391 0
M  V30 3715 C 364.04 -1.86014 -6.79395 0
M  V30 3716 H 360.139 0.245067 -0.742608 0
M  V30 3717 H 362.723 -0.000476161 -1.947 0
M  V30 3718 H 360.894 2.17623 -3.21706 0
M  V30 3719 H 362.626 2.10757 -3.45491 0
M  V30 3720 H 359.381 0.523466 -4.70698 0
M  V30 3721 H 359.805 -1.22698 -6.65788 0
M  V30 3722 H 364.447 0.341063 -4.21422 0
M  V30 3723 H 362.165 -2.41313 -7.71229 0
M  V30 3724 H 365.751 -1.14014 -5.70519 0
M  V30 3725 H 364.631 -2.4984 -7.43337 0
M  V30 3726 N 362.134 1.5431 0.320358 0
M  V30 3727 C 363.084 1.803 1.39556 0
M  V30 3728 C 364.068 0.659166 1.46778 0
M  V30 3729 O 365.26 0.91926 1.51257 0
M  V30 3730 C 362.389 2.03665 2.76361 0
M  V30 3731 C 361.475 3.24178 2.73439 0
M  V30 3732 N 361.866 4.4516 2.40137 0
M  V30 3733 C 360.164 3.25816 3.04565 0
M  V30 3734 C 360.865 5.27109 2.4603 0
M  V30 3735 N 359.841 4.64368 2.82601 0
M  V30 3736 H 363.643 2.71416 1.12742 0
M  V30 3737 H 361.157 1.53548 0.528856 0
M  V30 3738 H 363.154 2.20425 3.53862 0
M  V30 3739 H 361.814 1.13805 3.04103 0
M  V30 3740 H 362.825 4.72104 2.12927 0
M  V30 3741 H 359.502 2.46001 3.37328 0
M  V30 3742 H 360.892 6.33728 2.23246 0
M  V30 3743 N 363.613 -0.582584 1.46437 0
M  V30 3744 C 364.859 -1.34278 1.51978 0
M  V30 3745 C 365.192 -1.93446 0.170973 0
M  V30 3746 O 364.467 -1.76481 -0.817608 0
M  V30 3747 C 364.75 -2.47203 2.61845 0
M  V30 3748 C 364.603 -1.93069 4.06257 0
M  V30 3749 C 365.922 -3.49247 2.67795 0
M  V30 3750 H 363.041 -0.486876 0.553282 0
M  V30 3751 H 365.683 -0.654437 1.78374 0
M  V30 3752 H 363.833 -3.0592 2.39469 0
M  V30 3753 H 365.505 -1.38808 4.3992 0
M  V30 3754 H 363.748 -1.23898 4.1573 0
M  V30 3755 H 364.419 -2.74586 4.7886 0
M  V30 3756 H 366.895 -3.00411 2.8791 0
M  V30 3757 H 365.771 -4.25719 3.46489 0
M  V30 3758 H 366.032 -4.06482 1.73852 0
M  V30 3759 N 365.091 -1.34144 -0.827227 0
M  V30 3760 C 366.316 -1.29476 -1.62021 0
M  V30 3761 C 366.741 0.129292 -1.87655 0
M  V30 3762 O 366.099 1.08967 -1.449 0
M  V30 3763 C 366.147 -2.08702 -2.94068 0
M  V30 3764 O 365.251 -1.45359 -3.85933 0
M  V30 3765 H 364.592 -0.444881 -0.492927 0
M  V30 3766 H 367.122 -1.76882 -1.02829 0
M  V30 3767 H 367.132 -2.19898 -3.43669 0
M  V30 3768 H 365.807 -3.12241 -2.74734 0
M  V30 3769 H 364.384 -1.42879 -3.44442 0
M  V30 3770 N 366.569 1.04691 -1.17803 0
M  V30 3771 C 367.794 1.81984 -0.994813 0
M  V30 3772 C 368.219 1.82586 0.452112 0
M  V30 3773 O 367.577 1.23854 1.324 0
M  V30 3774 C 367.625 3.2575 -1.54659 0
M  V30 3775 O 366.729 4.05267 -0.763728 0
M  V30 3776 H 366.07 0.562483 -0.352857 0
M  V30 3777 H 368.6 1.3189 -1.56417 0
M  V30 3778 H 368.61 3.76541 -1.57102 0
M  V30 3779 H 367.285 3.24627 -2.59981 0
M  V30 3780 H 365.862 3.63972 -0.811108 0
M  V30 3781 N 368.047 0.979072 1.23499 0
M  V30 3782 C 368.979 0.476271 2.24197 0
M  V30 3783 C 369.992 -0.421166 1.57258 0
M  V30 3784 O 371.181 -0.225515 1.7707 0
M  V30 3785 C 368.281 -0.330503 3.37285 0
M  V30 3786 C 367.454 0.559744 4.33804 0
M  V30 3787 C 366.513 -0.192954 5.25846 0
M  V30 3788 O 365.539 0.416978 5.67671 0
M  V30 3789 N 366.741 -1.47932 5.61334 0
M  V30 3790 H 369.506 1.34211 2.67969 0
M  V30 3791 H 367.067 0.852189 1.37657 0
M  V30 3792 H 369.059 -0.842361 3.95836 0
M  V30 3793 H 367.629 -1.09734 2.92707 0
M  V30 3794 H 366.849 1.25245 3.73775 0
M  V30 3795 H 368.137 1.1665 4.95248 0
M  V30 3796 H 367.535 -1.9964 5.29302 0
M  V30 3797 H 366.092 -1.93664 6.22364 0
M  V30 3798 N 369.525 -1.3858 0.750561 0
M  V30 3799 C 370.75 -2.04997 0.314812 0
M  V30 3800 C 371.175 -1.56235 -1.04749 0
M  V30 3801 O 370.533 -0.712981 -1.66692 0
M  V30 3802 C 370.581 -3.58961 0.343415 0
M  V30 3803 O 369.685 -4.07025 -0.663628 0
M  V30 3804 H 369.026 -0.649081 0.139962 0
M  V30 3805 H 371.556 -1.77313 1.02084 0
M  V30 3806 H 371.566 -4.07542 0.193233 0
M  V30 3807 H 370.241 -3.93811 1.33738 0
M  V30 3808 H 368.818 -3.6982 -0.478307 0
M  V30 3809 N 371.003 -0.499398 -1.49478 0
M  V30 3810 C 371.933 0.269244 -2.31943 0
M  V30 3811 C 372.914 0.964054 -1.40143 0
M  V30 3812 O 374.099 0.955767 -1.69052 0
M  V30 3813 C 371.229 1.33504 -3.20615 0
M  V30 3814 C 370.183 0.760202 -4.21195 0
M  V30 3815 C 369.509 1.9264 -4.98792 0
M  V30 3816 C 370.809 -0.247661 -5.21712 0
M  V30 3817 H 372.503 -0.419082 -2.96452 0
M  V30 3818 H 370.049 -0.202988 -1.42562 0
M  V30 3819 H 372.002 1.88048 -3.77115 0
M  V30 3820 H 370.726 2.05253 -2.54045 0
M  V30 3821 H 369.385 0.23653 -3.65836 0
M  V30 3822 H 369.033 2.63154 -4.28671 0
M  V30 3823 H 368.733 1.54785 -5.66847 0
M  V30 3824 H 370.257 2.4762 -5.58137 0
M  V30 3825 H 371.671 0.209579 -5.72917 0
M  V30 3826 H 370.068 -0.541962 -5.97648 0
M  V30 3827 H 371.138 -1.16409 -4.7072 0
M  V30 3828 N 372.481 1.55866 -0.233164 0
M  V30 3829 C 373.706 2.03449 0.402906 0
M  V30 3830 C 374.131 1.11166 1.51736 0
M  V30 3831 O 373.489 0.101996 1.81013 0
M  V30 3832 C 373.537 3.49165 0.9009 0
M  V30 3833 O 372.641 3.60019 2.01147 0
M  V30 3834 H 371.982 0.657913 0.0897025 0
M  V30 3835 H 374.512 2.01493 -0.355201 0
M  V30 3836 H 374.522 3.89716 1.2077 0
M  V30 3837 H 373.197 4.15813 0.0852889 0
M  V30 3838 H 371.774 3.3136 1.71042 0
M  V30 3839 N 373.959 -0.0401083 1.57549 0
M  V30 3840 C 375.206 -0.733125 1.88763 0
M  V30 3841 C 375.534 -1.75946 0.829058 0
M  V30 3842 O 374.789 -1.94949 -0.171323 0
M  V30 3843 C 375.088 -1.44902 3.26708 0
M  V30 3844 C 374.754 -0.559707 4.47413 0
M  V30 3845 C 373.416 -0.314731 4.8017 0
M  V30 3846 C 375.768 0.0549743 5.21171 0
M  V30 3847 C 373.096 0.553886 5.8408 0
M  V30 3848 C 375.448 0.911229 6.26003 0
M  V30 3849 C 374.112 1.16577 6.57241 0
M  V30 3850 H 373.382 -0.268269 0.690733 0
M  V30 3851 H 376.029 0.00679408 1.91499 0
M  V30 3852 H 374.334 -2.26197 3.1991 0
M  V30 3853 H 376.031 -1.99058 3.48105 0
M  V30 3854 H 372.621 -0.760793 4.21794 0
M  V30 3855 H 376.805 -0.121344 4.96152 0
M  V30 3856 H 372.061 0.759518 6.06664 0
M  V30 3857 H 376.235 1.3941 6.82303 0
M  V30 3858 H 373.862 1.84058 7.37582 0
M  V30 3859 N 375.437 -1.54477 -0.31217 0
M  V30 3860 C 376.714 -1.63891 -1.06767 0
M  V30 3861 C 377.094 -0.480028 -2.0557 0
M  V30 3862 O 376.442 0.524487 -2.22399 0
M  V30 3863 C 376.652 -3.01402 -1.75948 0
M  V30 3864 C 378 -3.57838 -2.28554 0
M  V30 3865 O 379.024 -3.03782 -1.85998 0
M  V30 3866 O 377.883 -4.52462 -3.06497 0
M  V30 3867 H 374.977 -0.664125 -0.492816 0
M  V30 3868 H 377.523 -1.66823 -0.311149 0
M  V30 3869 H 376.295 -3.77187 -1.04144 0
M  V30 3870 H 375.918 -3.02199 -2.58383 0
M  V30 3871 N 376.915 0.57481 -1.46744 0
M  V30 3872 C 378.14 1.36341 -1.56288 0
M  V30 3873 C 378.565 1.86954 -0.207347 0
M  V30 3874 O 377.923 1.62006 0.813871 0
M  V30 3875 C 377.971 2.52147 -2.57787 0
M  V30 3876 O 377.075 3.53834 -2.11838 0
M  V30 3877 H 376.416 0.405713 -0.525636 0
M  V30 3878 H 378.946 0.696453 -1.92382 0
M  V30 3879 H 378.956 2.98958 -2.77648 0
M  V30 3880 H 377.631 2.14663 -3.5622 0
M  V30 3881 H 376.208 3.1345 -2.01999 0
M  V30 3882 N 378.394 1.34581 0.820102 0
M  V30 3883 C 379.619 1.30333 1.61332 0
M  V30 3884 C 380.044 -0.119339 1.87721 0
M  V30 3885 O 379.402 -1.08197 1.45475 0
M  V30 3886 C 379.45 2.10258 2.92957 0
M  V30 3887 O 378.554 1.47404 3.85157 0
M  V30 3888 H 377.895 0.447488 0.490561 0
M  V30 3889 H 380.425 1.77425 1.01889 0
M  V30 3890 H 380.435 2.21718 3.42498 0
M  V30 3891 H 379.11 3.13693 2.73074 0
M  V30 3892 H 377.687 1.44703 3.43679 0
M  V30 3893 N 379.872 -1.04064 1.18357 0
M  V30 3894 C 380.82 -2.14187 0.907007 0
M  V30 3895 C 381.814 -1.68879 -0.132725 0
M  V30 3896 O 383.02 -1.79993 0.0154248 0
M  V30 3897 H 379.395 -0.699585 0.275835 0
M  V30 3898 H 381.366 -2.34711 1.84264 0
M  V30 3899 C 380.115 -3.44785 0.449254 0
M  V30 3900 H 379.438 -3.80058 1.24081 0
M  V30 3901 H 380.878 -4.22974 0.294737 0
M  V30 3902 C 379.337 -3.26391 -0.834909 0
M  V30 3903 O 379.867 -3.53973 -1.89911 0
M  V30 3904 N 378.073 -2.79726 -0.787523 0
M  V30 3905 H 377.62 -2.5748 0.0787347 0
M  V30 3906 H 377.578 -2.67798 -1.64716 0
M  V30 3907 N 381.35 -0.985608 -1.22978 0
M  V30 3908 C 382.761 -0.693593 -1.73338 0
M  V30 3909 C 383.112 0.789935 -1.79595 0
M  V30 3910 O 382.237 1.61771 -1.43733 0
M  V30 3911 C 382.832 -1.25235 -3.14804 0
M  V30 3912 C 381.391 -1.00987 -3.626 0
M  V30 3913 C 380.538 -1.37695 -2.40698 0
M  V30 3914 H 383.489 -1.15884 -1.08428 0
M  V30 3915 H 383.51 -0.627329 -3.75293 0
M  V30 3916 H 383.022 -2.33209 -3.10218 0
M  V30 3917 H 381.123 0.0535565 -3.72562 0
M  V30 3918 H 381.236 -1.66812 -4.49122 0
M  V30 3919 H 379.6 -0.795459 -2.4196 0
M  V30 3920 H 380.383 -2.46657 -2.38779 0
M  V30 3921 N 382.828 1.3818 -0.7579 0
M  V30 3922 C 383.738 2.3421 -0.135247 0
M  V30 3923 C 384.754 1.59487 0.695683 0
M  V30 3924 O 385.93 1.91657 0.618832 0
M  V30 3925 C 382.995 3.3862 0.744139 0
M  V30 3926 C 382.056 4.2918 -0.101658 0
M  V30 3927 C 381.289 5.28603 0.735851 0
M  V30 3928 O 381.512 5.35166 1.97366 0
M  V30 3929 O 380.446 6.01707 0.152372 0
M  V30 3930 H 384.272 2.8916 -0.928436 0
M  V30 3931 H 381.857 1.40101 -0.518855 0
M  V30 3932 H 383.739 4.02539 1.2466 0
M  V30 3933 H 382.414 2.86019 1.51575 0
M  V30 3934 H 381.321 3.68407 -0.650167 0
M  V30 3935 H 382.654 4.85048 -0.836024 0
M  V30 3936 N 384.306 0.507319 1.49211 0
M  V30 3937 C 385.536 -0.0315292 2.06576 0
M  V30 3938 C 385.944 -1.30791 1.36713 0
M  V30 3939 O 385.287 -1.78324 0.441181 0
M  V30 3940 C 385.349 -0.349104 3.57801 0
M  V30 3941 C 385.013 0.830475 4.49391 0
M  V30 3942 C 386.01 1.72271 4.90529 0
M  V30 3943 C 383.695 1.03107 4.91604 0
M  V30 3944 C 385.689 2.79964 5.72625 0
M  V30 3945 C 383.376 2.11116 5.73475 0
M  V30 3946 C 384.374 2.99379 6.1389 0
M  V30 3947 O 384.062 4.05523 6.94123 0
M  V30 3948 H 383.794 0.0201002 0.675701 0
M  V30 3949 H 386.348 0.705737 1.92895 0
M  V30 3950 H 384.578 -1.14005 3.69513 0
M  V30 3951 H 386.267 -0.827319 3.97379 0
M  V30 3952 H 387.033 1.57958 4.58557 0
M  V30 3953 H 382.912 0.353417 4.59643 0
M  V30 3954 H 386.456 3.48884 6.04091 0
M  V30 3955 H 382.353 2.25421 6.0486 0
M  V30 3956 H 383.121 4.02953 7.1244 0
M  V30 3957 N 385.784 -1.5574 0.241426 0
M  V30 3958 C 387.031 -1.9881 -0.384836 0
M  V30 3959 C 387.359 -1.12947 -1.58346 0
M  V30 3960 O 386.614 -0.178993 -1.9488 0
M  V30 3961 C 386.913 -3.47308 -0.843317 0
M  V30 3962 C 386.579 -4.50223 0.246946 0
M  V30 3963 C 385.241 -4.78088 0.546399 0
M  V30 3964 C 387.593 -5.11841 0.983282 0
M  V30 3965 C 384.921 -5.64846 1.58636 0
M  V30 3966 C 387.273 -5.99727 2.01272 0
M  V30 3967 C 385.937 -6.25927 2.31888 0
M  V30 3968 H 385.207 -0.727496 -0.140821 0
M  V30 3969 H 387.854 -1.8831 0.348106 0
M  V30 3970 H 386.159 -3.55112 -1.65537 0
M  V30 3971 H 387.856 -3.78017 -1.33806 0
M  V30 3972 H 384.446 -4.286 0.00340639 0
M  V30 3973 H 388.63 -4.90366 0.765182 0
M  V30 3974 H 383.886 -5.83403 1.82896 0
M  V30 3975 H 388.06 -6.46517 2.58823 0
M  V30 3976 H 385.687 -6.92949 3.12611 0
M  V30 3977 N 387.262 0.0317525 -1.57568 0
M  V30 3978 C 388.539 0.758366 -1.803 0
M  V30 3979 C 388.919 1.93718 -0.838845 0
M  V30 3980 O 388.267 2.28187 0.119571 0
M  V30 3981 C 388.477 1.19392 -3.27943 0
M  V30 3982 C 389.825 1.61094 -3.92854 0
M  V30 3983 O 390.849 1.28857 -3.32076 0
M  V30 3984 O 389.708 2.20918 -4.99858 0
M  V30 3985 H 386.802 0.366514 -0.741348 0
M  V30 3986 H 389.348 0.00873765 -1.69698 0
M  V30 3987 H 388.12 0.352275 -3.89711 0
M  V30 3988 H 387.743 2.00365 -3.43424 0
M  V30 3989 N 388.74 1.54641 0.303973 0
M  V30 3990 C 389.988 1.73437 1.0375 0
M  V30 3991 C 390.309 0.521449 1.87899 0
M  V30 3992 O 389.579 -0.46432 1.90318 0
M  V30 3993 H 388.159 0.639518 0.386039 0
M  V30 3994 H 390.821 1.91988 0.335675 0
M  V30 3995 H 389.917 2.62235 1.69231 0
M  V30 3996 N 390.218 -0.567019 1.47046 0
M  V30 3997 C 391.448 -1.34831 1.56538 0
M  V30 3998 C 391.856 -1.8802 0.21101 0
M  V30 3999 O 391.199 -1.65152 -0.804387 0
M  V30 4000 C 391.261 -2.56139 2.52256 0
M  V30 4001 C 390.925 -2.24307 3.98165 0
M  V30 4002 C 391.922 -1.82192 4.86931 0
M  V30 4003 C 389.607 -2.35968 4.43423 0
M  V30 4004 C 391.601 -1.52153 6.18973 0
M  V30 4005 C 389.288 -2.05542 5.75496 0
M  V30 4006 C 390.286 -1.63701 6.63092 0
M  V30 4007 O 389.974 -1.33657 7.92711 0
M  V30 4008 H 389.706 -0.417683 0.531523 0
M  V30 4009 H 392.26 -0.694726 1.93294 0
M  V30 4010 H 390.49 -3.24356 2.10548 0
M  V30 4011 H 392.179 -3.18214 2.51982 0
M  V30 4012 H 392.945 -1.72684 4.53217 0
M  V30 4013 H 388.824 -2.67495 3.75456 0
M  V30 4014 H 392.368 -1.19421 6.87302 0
M  V30 4015 H 388.265 -2.14679 6.08755 0
M  V30 4016 H 389.033 -1.4737 8.05124 0
M  V30 4017 N 391.696 -1.35014 -0.812953 0
M  V30 4018 C 392.942 -1.29129 -1.57154 0
M  V30 4019 C 393.297 0.134922 -1.91926 0
M  V30 4020 O 392.59 1.08373 -1.58006 0
M  V30 4021 C 392.784 -2.12524 -2.87347 0
M  V30 4022 C 392.613 -3.6311 -2.65294 0
M  V30 4023 C 391.383 -4.32363 -2.61516 0
M  V30 4024 C 393.581 -4.56897 -2.36114 0
M  V30 4025 N 391.563 -5.68735 -2.31113 0
M  V30 4026 C 392.934 -5.81345 -2.15494 0
M  V30 4027 C 394.989 -4.45706 -2.21925 0
M  V30 4028 C 393.692 -6.95862 -1.82122 0
M  V30 4029 C 395.718 -5.60066 -1.89948 0
M  V30 4030 C 395.08 -6.83539 -1.7016 0
M  V30 4031 H 391.179 -0.527764 -0.577052 0
M  V30 4032 H 393.763 -1.6983 -0.952146 0
M  V30 4033 H 391.934 -1.74104 -3.47192 0
M  V30 4034 H 393.666 -1.98207 -3.5284 0
M  V30 4035 H 390.421 -3.84907 -2.75941 0
M  V30 4036 H 390.845 -6.40694 -2.18724 0
M  V30 4037 H 395.487 -3.50855 -2.35925 0
M  V30 4038 H 393.205 -7.90685 -1.6686 0
M  V30 4039 H 396.791 -5.53357 -1.79687 0
M  V30 4040 H 395.671 -7.70531 -1.45777 0
M  V30 4041 N 393.175 1.03435 -1.18907 0
M  V30 4042 C 394.423 1.76394 -0.986382 0
M  V30 4043 C 394.744 1.88883 0.484567 0
M  V30 4044 O 394.014 1.41843 1.3512 0
M  V30 4045 H 392.594 0.65344 -0.361975 0
M  V30 4046 H 395.256 1.248 -1.49703 0
M  V30 4047 H 394.352 2.77424 -1.42978 0
M  V30 4048 N 394.653 0.992116 1.22453 0
M  V30 4049 C 395.883 0.684949 1.94915 0
M  V30 4050 C 396.291 -0.754292 1.73514 0
M  V30 4051 O 395.634 -1.52056 1.03076 0
M  V30 4052 C 395.696 0.910054 3.47791 0
M  V30 4053 C 395.36 2.33363 3.92926 0
M  V30 4054 C 396.357 3.31308 4.00663 0
M  V30 4055 C 394.042 2.66785 4.25595 0
M  V30 4056 C 396.036 4.6075 4.40441 0
M  V30 4057 C 393.723 3.96446 4.65053 0
M  V30 4058 C 394.721 4.9324 4.72444 0
M  V30 4059 O 394.409 6.20584 5.1101 0
M  V30 4060 H 394.141 0.25258 0.62704 0
M  V30 4061 H 396.695 1.32939 1.56577 0
M  V30 4062 H 394.925 0.208443 3.86138 0
M  V30 4063 H 396.614 0.598257 4.01467 0
M  V30 4064 H 397.38 3.0682 3.75615 0
M  V30 4065 H 393.259 1.92148 4.19047 0
M  V30 4066 H 396.803 5.363 4.46126 0
M  V30 4067 H 392.7 4.20724 4.89552 0
M  V30 4068 H 393.468 6.24509 5.29085 0
M  V30 4069 N 396.131 -1.37776 0.765217 0
M  V30 4070 C 397.356 -2.04651 0.336537 0
M  V30 4071 C 397.781 -1.57337 -1.03086 0
M  V30 4072 O 397.139 -0.730621 -1.65927 0
M  V30 4073 C 397.187 -3.58577 0.381468 0
M  V30 4074 O 396.291 -4.07706 -0.62042 0
M  V30 4075 H 395.632 -0.64756 0.146838 0
M  V30 4076 H 398.162 -1.76221 1.03959 0
M  V30 4077 H 398.172 -4.07314 0.236448 0
M  V30 4078 H 396.847 -3.9237 1.37907 0
M  V30 4079 H 395.424 -3.70306 -0.439056 0
M  V30 4080 N 397.609 -0.515225 -1.4894 0
M  V30 4081 C 398.855 0.0242508 -2.02785 0
M  V30 4082 C 399.188 1.35323 -1.39289 0
M  V30 4083 O 398.463 1.87041 -0.533469 0
M  V30 4084 C 398.746 0.16184 -3.59736 0
M  V30 4085 C 398.599 -1.19127 -4.33738 0
M  V30 4086 C 399.918 0.895719 -4.30888 0
M  V30 4087 H 397.037 0.00733914 -0.736963 0
M  V30 4088 H 399.679 -0.669395 -1.77818 0
M  V30 4089 H 397.829 0.752624 -3.8114 0
M  V30 4090 H 399.501 -1.82202 -4.23792 0
M  V30 4091 H 397.744 -1.77695 -3.95736 0
M  V30 4092 H 398.415 -1.04815 -5.41957 0
M  V30 4093 H 400.891 0.394528 -4.14225 0
M  V30 4094 H 399.767 0.960859 -5.40425 0
M  V30 4095 H 400.028 1.9427 -3.97129 0
M  V30 4096 N 399.087 1.5561 -0.249682 0
M  V30 4097 C 400.05 2.20217 0.635394 0
M  V30 4098 C 401.05 1.17227 1.10066 0
M  V30 4099 O 402.24 1.42292 1.00492 0
M  V30 4100 C 399.372 2.84794 1.87363 0
M  V30 4101 H 400.565 2.99814 0.0716752 0
M  V30 4102 H 398.118 1.563 -0.000153234 0
M  V30 4103 H 398.853 2.09142 2.47851 0
M  V30 4104 H 398.638 3.60241 1.5482 0
M  V30 4105 H 400.128 3.3423 2.5036 0
M  V30 4106 N 400.565 -0.0233959 1.57583 0
M  V30 4107 C 401.811 -0.714119 1.89811 0
M  V30 4108 C 402.144 -1.74702 0.848113 0
M  V30 4109 O 401.419 -1.94023 -0.136135 0
M  V30 4110 C 401.702 -1.37853 3.32669 0
M  V30 4111 C 401.555 -0.358764 4.48367 0
M  V30 4112 C 402.874 -2.31101 3.7454 0
M  V30 4113 H 399.993 -0.25814 0.690314 0
M  V30 4114 H 402.635 0.0230927 1.89986 0
M  V30 4115 H 400.785 -2.00689 3.3265 0
M  V30 4116 H 402.457 0.268115 4.6052 0
M  V30 4117 H 400.7 0.321387 4.32608 0
M  V30 4118 H 401.371 -0.862242 5.45224 0
M  V30 4119 H 403.847 -1.78304 3.75961 0
M  V30 4120 H 402.723 -2.74567 4.75294 0
M  V30 4121 H 402.984 -3.18018 3.0711 0
M  V30 4122 N 402.043 -1.548 -0.295768 0
M  V30 4123 C 403.291 -1.73985 -1.02828 0
M  V30 4124 C 403.612 -0.531406 -1.87619 0
M  V30 4125 O 402.882 0.454221 -1.90561 0
M  V30 4126 H 401.462 -0.641556 -0.382642 0
M  V30 4127 H 404.124 -1.92163 -0.325489 0
M  V30 4128 H 403.22 -2.63129 -1.67838 0
M  V30 4129 N 403.521 0.559213 -1.47345 0
M  V30 4130 C 404.431 1.69388 -1.62311 0
M  V30 4131 C 405.447 1.6648 -0.505993 0
M  V30 4132 O 406.623 1.85964 -0.773262 0
M  V30 4133 C 403.688 3.05894 -1.63185 0
M  V30 4134 C 402.749 3.19885 -2.86307 0
M  V30 4135 C 401.982 4.49879 -2.87131 0
M  V30 4136 O 402.205 5.35217 -1.97229 0
M  V30 4137 O 401.139 4.67618 -3.78968 0
M  V30 4138 H 404.965 1.59706 -2.58317 0
M  V30 4139 H 402.55 0.728989 -1.30407 0
M  V30 4140 H 404.432 3.87133 -1.66451 0
M  V30 4141 H 403.107 3.15964 -0.70345 0
M  V30 4142 H 402.014 2.38052 -2.88587 0
M  V30 4143 H 403.347 3.14718 -3.78435 0
M  V30 4144 N 404.999 1.35443 0.805782 0
M  V30 4145 C 406.246 1.28761 1.56291 0
M  V30 4146 C 406.574 -0.137747 1.94012 0
M  V30 4147 O 405.829 -1.1032 1.61642 0
M  V30 4148 C 406.128 2.14045 2.86216 0
M  V30 4149 C 405.794 3.62826 2.67709 0
M  V30 4150 C 404.456 4.0338 2.6237 0
M  V30 4151 C 406.808 4.57227 2.50186 0
M  V30 4152 C 404.136 5.36501 2.37451 0
M  V30 4153 C 406.488 5.90547 2.26797 0
M  V30 4154 C 405.152 6.30245 2.1988 0
M  V30 4155 H 404.422 0.471171 0.571908 0
M  V30 4156 H 407.069 1.67347 0.930974 0
M  V30 4157 H 405.374 1.68342 3.53791 0
M  V30 4158 H 407.071 2.0621 3.43917 0
M  V30 4159 H 403.661 3.30644 2.72713 0
M  V30 4160 H 407.845 4.2678 2.53323 0
M  V30 4161 H 403.101 5.66259 2.30567 0
M  V30 4162 H 407.275 6.63274 2.12228 0
M  V30 4163 H 404.902 7.33328 2.00333 0
M  V30 4164 N 406.477 -1.02803 1.19454 0
M  V30 4165 C 407.754 -1.73299 0.907013 0
M  V30 4166 C 408.134 -2.02772 -0.587086 0
M  V30 4167 O 407.482 -1.68304 -1.54551 0
M  V30 4168 C 407.692 -3.00912 1.76785 0
M  V30 4169 C 409.04 -3.74403 2.00268 0
M  V30 4170 O 410.064 -3.10841 1.73943 0
M  V30 4171 O 408.923 -4.88675 2.4466 0
M  V30 4172 H 406.017 -0.754727 0.338106 0
M  V30 4173 H 408.563 -1.08754 1.30271 0
M  V30 4174 H 407.335 -2.75366 2.7801 0
M  V30 4175 H 406.958 -3.73197 1.37149 0
M  V30 4176 N 407.956 -0.998596 -1.21925 0
M  V30 4177 C 409.204 -0.676325 -1.90448 0
M  V30 4178 C 409.525 0.794719 -1.78071 0
M  V30 4179 O 408.795 1.5701 -1.17152 0
M  V30 4180 H 407.375 -0.247165 -0.704925 0
M  V30 4181 H 410.037 -1.26633 -1.48156 0
M  V30 4182 H 409.133 -0.943858 -2.97486 0
M  V30 4183 N 409.434 1.37368 -0.772513 0
M  V30 4184 C 410.711 1.93839 -0.26188 0
M  V30 4185 C 411.091 1.7061 1.24319 0
M  V30 4186 O 410.439 1.05534 2.02669 0
M  V30 4187 C 410.649 3.43154 -0.636102 0
M  V30 4188 C 411.997 4.20249 -0.606324 0
M  V30 4189 O 413.021 3.5152 -0.575538 0
M  V30 4190 O 411.88 5.42809 -0.634086 0
M  V30 4191 H 408.974 0.82478 -0.0605555 0
M  V30 4192 H 411.52 1.4665 -0.853917 0
M  V30 4193 H 410.292 3.53647 -1.6748 0
M  V30 4194 H 409.915 3.97596 -0.0170516 0
M  V30 4195 N 410.912 0.523116 1.48665 0
M  V30 4196 C 411.842 -0.23231 2.32342 0
M  V30 4197 C 412.823 -0.941637 1.41659 0
M  V30 4198 O 414.008 -0.928751 1.70552 0
M  V30 4199 C 411.138 -1.28387 3.22698 0
M  V30 4200 C 410.092 -0.693098 4.22351 0
M  V30 4201 C 409.418 -1.8468 5.01794 0
M  V30 4202 C 410.718 0.33063 5.21252 0
M  V30 4203 H 412.412 0.466192 2.95748 0
M  V30 4204 H 409.958 0.225643 1.42221 0
M  V30 4205 H 411.911 -1.82024 3.80059 0
M  V30 4206 H 410.635 -2.01186 2.57278 0
M  V30 4207 H 409.294 -0.178299 3.66166 0
M  V30 4208 H 408.942 -2.56301 4.32804 0
M  V30 4209 H 408.642 -1.45747 5.69238 0
M  V30 4210 H 410.166 -2.38709 5.62006 0
M  V30 4211 H 411.58 -0.118407 5.73178 0
M  V30 4212 H 409.977 0.636974 5.9671 0
M  V30 4213 H 411.047 1.23883 4.68808 0
M  V30 4214 N 412.39 -1.55475 0.257931 0
M  V30 4215 C 413.338 -2.23244 -0.653076 0
M  V30 4216 C 414.332 -1.22366 -1.17144 0
M  V30 4217 O 415.538 -1.40347 -1.12706 0
M  V30 4218 H 411.913 -0.716247 -0.229117 0
M  V30 4219 H 413.884 -2.98343 -0.0584788 0
M  V30 4220 C 412.633 -2.95401 -1.83395 0
M  V30 4221 H 411.956 -3.72802 -1.44424 0
M  V30 4222 H 413.396 -3.46165 -2.44838 0
M  V30 4223 C 411.855 -1.99895 -2.71189 0
M  V30 4224 O 412.385 -1.53909 -3.71046 0
M  V30 4225 N 410.591 -1.6676 -2.3799 0
M  V30 4226 H 410.138 -2.04352 -1.56837 0
M  V30 4227 H 410.096 -1.03127 -2.97005 0
M  V30 4228 N 413.868 0.0150385 -1.57593 0
M  V30 4229 C 415.096 0.714395 -1.94175 0
M  V30 4230 C 415.511 1.68135 -0.858841 0
M  V30 4231 O 414.868 1.81766 0.163567 0
M  V30 4232 C 414.919 1.45933 -3.30735 0
M  V30 4233 O 414.64 0.531167 -4.34868 0
M  V30 4234 C 416.141 2.25456 -3.81686 0
M  V30 4235 H 413.361 0.199923 -0.640525 0
M  V30 4236 H 415.905 -0.0316096 -2.04476 0
M  V30 4237 H 414.06 2.15709 -3.21789 0
M  V30 4238 H 414.474 1.05509 -5.13778 0
M  V30 4239 H 415.948 2.731 -4.79709 0
M  V30 4240 H 416.425 3.07485 -3.13607 0
M  V30 4241 H 417.031 1.60727 -3.9376 0
M  V30 4242 N 415.346 1.54954 0.287554 0
M  V30 4243 C 416.574 1.78881 1.03967 0
M  V30 4244 C 416.989 0.554894 1.80462 0
M  V30 4245 O 416.346 -0.475676 1.76192 0
M  V30 4246 C 416.397 3.00488 2.0097 0
M  V30 4247 O 416.118 4.19113 1.27577 0
M  V30 4248 C 417.619 3.36907 2.88112 0
M  V30 4249 H 414.839 0.596259 0.307761 0
M  V30 4250 H 417.383 2.01937 0.322749 0
M  V30 4251 H 415.538 2.79601 2.68145 0
M  V30 4252 H 415.952 4.87765 1.92835 0
M  V30 4253 H 417.426 4.25205 3.52001 0
M  V30 4254 H 417.903 2.55659 3.57121 0
M  V30 4255 H 418.509 3.60001 2.26449 0
M  V30 4256 N 416.824 -0.551391 1.4764 0
M  V30 4257 C 417.734 -1.68525 1.63207 0
M  V30 4258 C 418.75 -1.6621 0.514815 0
M  V30 4259 O 419.926 -1.85551 0.783113 0
M  V30 4260 C 416.991 -3.05025 1.64805 0
M  V30 4261 C 416.052 -3.18362 2.88 0
M  V30 4262 C 415.285 -4.4835 2.89513 0
M  V30 4263 O 415.508 -5.34163 2.00065 0
M  V30 4264 O 414.442 -4.65602 3.81443 0
M  V30 4265 H 418.268 -1.58333 2.59161 0
M  V30 4266 H 415.853 -0.722063 1.30792 0
M  V30 4267 H 417.735 -3.86245 1.68502 0
M  V30 4268 H 416.41 -3.15587 0.720197 0
M  V30 4269 H 415.317 -2.36518 2.89845 0
M  V30 4270 H 416.65 -3.12707 3.80099 0
M  V30 4271 N 418.302 -1.35869 -0.798587 0
M  V30 4272 C 419.532 -1.32529 -1.58491 0
M  V30 4273 C 419.94 0.0975405 -1.88948 0
M  V30 4274 O 419.283 1.06224 -1.49874 0
M  V30 4275 C 419.345 -2.07247 -2.9375 0
M  V30 4276 C 419.009 -3.56391 -2.86068 0
M  V30 4277 C 420.006 -4.50824 -2.58947 0
M  V30 4278 C 417.691 -3.9915 -3.04933 0
M  V30 4279 C 419.685 -5.85993 -2.5078 0
M  V30 4280 C 417.372 -5.34413 -2.96389 0
M  V30 4281 C 418.37 -6.27646 -2.69349 0
M  V30 4282 O 418.058 -7.60426 -2.60782 0
M  V30 4283 H 417.79 -0.456529 -0.498556 0
M  V30 4284 H 420.344 -1.79425 -0.999799 0
M  V30 4285 H 418.574 -1.55001 -3.54276 0
M  V30 4286 H 420.263 -1.96883 -3.54954 0
M  V30 4287 H 421.029 -4.19104 -2.44084 0
M  V30 4288 H 416.908 -3.26961 -3.24989 0
M  V30 4289 H 420.452 -6.58735 -2.29595 0
M  V30 4290 H 416.349 -5.65743 -3.10813 0
M  V30 4291 H 417.117 -7.70444 -2.76331 0
M  V30 4292 N 419.78 1.02168 -1.19998 0
M  V30 4293 C 421.026 1.75945 -1.00852 0
M  V30 4294 C 421.359 1.88702 0.458828 0
M  V30 4295 O 420.634 1.40911 1.34069 0
M  V30 4296 C 420.917 3.18154 -1.68671 0
M  V30 4297 C 420.77 3.13224 -3.22817 0
M  V30 4298 C 422.089 4.16711 -1.41561 0
M  V30 4299 H 419.208 0.638673 -0.367785 0
M  V30 4300 H 421.85 1.19222 -1.4794 0
M  V30 4301 H 420 3.66586 -1.28636 0
M  V30 4302 H 421.672 2.72635 -3.72112 0
M  V30 4303 H 419.915 2.50751 -3.53986 0
M  V30 4304 H 420.586 4.13728 -3.65422 0
M  V30 4305 H 423.062 3.76913 -1.76284 0
M  V30 4306 H 421.938 5.14391 -1.91553 0
M  V30 4307 H 422.199 4.40774 -0.342193 0
M  V30 4308 N 421.258 1.00505 1.21394 0
M  V30 4309 C 422.504 0.688793 1.90745 0
M  V30 4310 C 422.837 -0.778486 1.77914 0
M  V30 4311 O 422.112 -1.56433 1.15581 0
M  V30 4312 C 422.395 1.11063 3.42545 0
M  V30 4313 C 422.248 2.63737 3.64367 0
M  V30 4314 C 423.567 0.673059 4.34923 0
M  V30 4315 H 420.686 0.251702 0.692687 0
M  V30 4316 H 423.328 1.25074 1.43026 0
M  V30 4317 H 421.478 0.632508 3.83317 0
M  V30 4318 H 423.15 3.19313 3.32922 0
M  V30 4319 H 421.393 3.05248 3.08231 0
M  V30 4320 H 422.064 2.88305 4.70727 0
M  V30 4321 H 424.54 1.08392 4.01734 0
M  V30 4322 H 423.416 0.996383 5.39781 0
M  V30 4323 H 423.677 -0.425808 4.40045 0
M  V30 4324 N 422.737 -1.36956 0.779787 0
M  V30 4325 C 423.985 -1.99097 0.347079 0
M  V30 4326 C 424.306 -1.62206 -1.08232 0
M  V30 4327 O 423.576 -0.891373 -1.74446 0
M  V30 4328 H 422.156 -0.736409 0.125342 0
M  V30 4329 H 424.818 -1.67308 0.999696 0
M  V30 4330 H 423.914 -3.09107 0.431162 0
M  V30 4331 N 424.215 -0.530993 -1.48385 0
M  V30 4332 C 425.178 0.220497 -2.28137 0
M  V30 4333 C 426.178 0.866851 -1.35434 0
M  V30 4334 O 427.368 0.726746 -1.58316 0
M  V30 4335 C 424.5 1.31921 -3.1434 0
M  V30 4336 H 425.693 -0.479714 -2.96038 0
M  V30 4337 H 423.246 -0.286968 -1.53643 0
M  V30 4338 H 423.981 2.05264 -2.51072 0
M  V30 4339 H 423.766 0.86085 -3.82533 0
M  V30 4340 H 425.256 1.84776 -3.74497 0
M  V30 4341 N 425.693 1.55336 -0.266172 0
M  V30 4342 C 427.104 1.85236 0.233315 0
M  V30 4343 C 427.455 1.18816 1.56132 0
M  V30 4344 O 426.58 0.473307 2.11161 0
M  V30 4345 C 427.175 3.36059 0.430113 0
M  V30 4346 C 425.734 3.66116 0.873842 0
M  V30 4347 C 424.881 2.77274 -0.0380016 0
M  V30 4348 H 427.832 1.51004 -0.488214 0
M  V30 4349 H 427.853 3.58681 1.26998 0
M  V30 4350 H 427.365 3.84373 -0.536588 0
M  V30 4351 H 425.466 3.23295 1.85233 0
M  V30 4352 H 425.579 4.73699 0.717358 0
M  V30 4353 H 423.943 2.50198 0.476759 0
M  V30 4354 H 424.726 3.284 -1.00042 0
M  V30 4355 N 427.171 -0.0066808 1.57599 0
M  V30 4356 C 428.399 -0.704087 1.94551 0
M  V30 4357 C 428.814 -1.67677 0.867746 0
M  V30 4358 O 428.171 -1.8185 -0.153925 0
M  V30 4359 C 428.222 -1.44177 3.31505 0
M  V30 4360 O 427.943 -0.508097 4.35144 0
M  V30 4361 C 429.444 -2.23429 3.82876 0
M  V30 4362 H 426.664 -0.196523 0.641576 0
M  V30 4363 H 429.208 0.042453 2.04456 0
M  V30 4364 H 427.363 -2.13999 3.22929 0
M  V30 4365 H 427.777 -1.02782 5.14331 0
M  V30 4366 H 429.251 -2.70552 4.8115 0
M  V30 4367 H 429.728 -3.05818 3.15233 0
M  V30 4368 H 430.334 -1.58636 3.94607 0
M  V30 4369 N 428.649 -1.55105 -0.279332 0
M  V30 4370 C 429.895 -1.76597 -1.00921 0
M  V30 4371 C 430.25 -0.556831 -1.84166 0
M  V30 4372 O 429.543 0.450573 -1.86227 0
M  V30 4373 C 429.737 -3.0086 -1.92919 0
M  V30 4374 C 429.566 -4.33744 -1.18728 0
M  V30 4375 C 428.336 -4.9712 -0.905545 0
M  V30 4376 C 430.534 -5.11009 -0.580857 0
M  V30 4377 N 428.516 -6.13749 -0.136169 0
M  V30 4378 C 429.887 -6.19976 0.0546661 0
M  V30 4379 C 431.942 -4.95502 -0.488067 0
M  V30 4380 C 430.645 -7.15123 0.774028 0
M  V30 4381 C 432.671 -5.90999 0.217688 0
M  V30 4382 C 432.033 -6.9935 0.841975 0
M  V30 4383 H 428.132 -0.698553 -0.351493 0
M  V30 4384 H 430.716 -1.92595 -0.285531 0
M  V30 4385 H 428.887 -2.86249 -2.62519 0
M  V30 4386 H 430.619 -3.10784 -2.59221 0
M  V30 4387 H 427.374 -4.57903 -1.20921 0
M  V30 4388 H 427.798 -6.7659 0.235665 0
M  V30 4389 H 432.44 -4.11841 -0.956406 0
M  V30 4390 H 430.158 -7.9831 1.25407 0
M  V30 4391 H 433.744 -5.81078 0.289717 0
M  V30 4392 H 432.624 -7.71973 1.37939 0
M  V30 4393 N 430.127 0.543554 -1.4793 0
M  V30 4394 C 431.352 1.32995 -1.59145 0
M  V30 4395 C 431.777 1.86472 -0.246956 0
M  V30 4396 O 431.135 1.63696 0.779324 0
M  V30 4397 C 431.183 2.46623 -2.63077 0
M  V30 4398 O 430.287 3.49261 -2.19295 0
M  V30 4399 H 429.628 0.394472 -0.534124 0
M  V30 4400 H 432.158 0.655489 -1.93816 0
M  V30 4401 H 432.168 2.93001 -2.83926 0
M  V30 4402 H 430.843 2.07059 -3.60693 0
M  V30 4403 H 429.42 3.09094 -2.08603 0
M  V30 4404 N 431.605 1.3629 0.791371 0
M  V30 4405 C 432.851 1.31613 1.5508 0
M  V30 4406 C 433.206 -0.104372 1.92117 0
M  V30 4407 O 432.499 -1.05845 1.5971 0
M  V30 4408 C 432.693 2.17068 2.8393 0
M  V30 4409 C 432.522 3.67285 2.59484 0
M  V30 4410 C 431.292 4.36469 2.54604 0
M  V30 4411 C 433.49 4.60595 2.28816 0
M  V30 4412 N 431.472 5.7234 2.22036 0
M  V30 4413 C 432.843 5.847 2.06218 0
M  V30 4414 C 434.898 4.4918 2.14806 0
M  V30 4415 C 433.601 6.98671 1.71028 0
M  V30 4416 C 435.627 5.63017 1.81014 0
M  V30 4417 C 434.989 6.86159 1.59263 0
M  V30 4418 H 431.088 0.536878 0.568582 0
M  V30 4419 H 433.672 1.71323 0.925007 0
M  V30 4420 H 431.843 1.79605 3.44378 0
M  V30 4421 H 433.575 2.03795 3.49642 0
M  V30 4422 H 430.33 3.89249 2.69782 0
M  V30 4423 H 430.754 6.44093 2.08503 0
M  V30 4424 H 435.396 3.54564 2.30313 0
M  V30 4425 H 433.114 7.9324 1.54259 0
M  V30 4426 H 436.7 5.56146 1.70861 0
M  V30 4427 H 435.58 7.72753 1.335 0
M  V30 4428 N 433.083 -1.0153 1.20538 0
M  V30 4429 C 434.311 -1.78746 1.04199 0
M  V30 4430 C 434.726 -1.84323 -0.408733 0
M  V30 4431 O 434.083 -1.29714 -1.28377 0
M  V30 4432 C 434.134 -3.23152 1.62035 0
M  V30 4433 O 433.855 -3.17918 3.0143 0
M  V30 4434 C 435.356 -4.16911 1.50666 0
M  V30 4435 H 432.576 -0.56208 0.366479 0
M  V30 4436 H 435.12 -1.27794 1.59653 0
M  V30 4437 H 433.275 -3.71248 1.10697 0
M  V30 4438 H 433.689 -4.08567 3.28897 0
M  V30 4439 H 435.163 -5.16072 1.95892 0
M  V30 4440 H 435.64 -4.36791 0.459363 0
M  V30 4441 H 436.246 -3.74698 2.01201 0
M  V30 4442 N 434.561 -1.01147 -1.20859 0
M  V30 4443 C 435.491 -0.597663 -2.25722 0
M  V30 4444 C 436.472 0.384744 -1.65692 0
M  V30 4445 O 437.657 0.271303 -1.92296 0
M  V30 4446 C 434.787 0.0700149 -3.47229 0
M  V30 4447 C 433.741 -0.832843 -4.19819 0
M  V30 4448 C 433.067 -0.0312202 -5.34691 0
M  V30 4449 C 434.367 -2.1385 -4.76514 0
M  V30 4450 H 436.061 -1.47423 -2.60589 0
M  V30 4451 H 433.607 -0.710301 -1.25263 0
M  V30 4452 H 435.56 0.37103 -4.19763 0
M  V30 4453 H 434.284 0.981259 -3.11511 0
M  V30 4454 H 432.943 -1.11778 -3.49144 0
M  V30 4455 H 432.591 0.881515 -4.95215 0
M  V30 4456 H 432.291 -0.632434 -5.84187 0
M  V30 4457 H 433.815 0.26346 -6.10031 0
M  V30 4458 H 435.229 -1.9002 -5.40893 0
M  V30 4459 H 433.626 -2.69012 -5.36426 0
M  V30 4460 H 434.696 -2.80495 -3.95538 0
M  V30 4461 N 436.039 1.36541 -0.78704 0
M  V30 4462 C 437.287 1.98911 -0.357633 0
M  V30 4463 C 437.608 1.62778 1.07371 0
M  V30 4464 O 436.878 0.900612 1.73971 0
M  V30 4465 H 435.458 0.735734 -0.129246 0
M  V30 4466 H 438.12 1.66776 -1.00855 0
M  V30 4467 H 437.216 3.08874 -0.447549 0
M  V30 4468 N 437.518 0.538854 1.48102 0
M  V30 4469 C 438.481 -0.208395 2.28251 0
M  V30 4470 C 439.481 -0.859656 1.35892 0
M  V30 4471 O 440.671 -0.71834 1.58699 0
M  V30 4472 C 437.803 -1.30252 3.15035 0
M  V30 4473 H 438.996 0.495407 2.9578 0
M  V30 4474 H 436.549 0.295112 1.53489 0
M  V30 4475 H 437.284 -2.0393 2.52157 0
M  V30 4476 H 437.069 -0.840551 3.82985 0
M  V30 4477 H 438.559 -1.82787 3.75471 0
M  V30 4478 N 438.996 -1.55193 0.274407 0
M  V30 4479 C 440.242 -1.99877 -0.343086 0
M  V30 4480 C 440.575 -1.16256 -1.55558 0
M  V30 4481 O 439.85 -0.232462 -1.93106 0
M  V30 4482 C 440.133 -3.52706 -0.725965 0
M  V30 4483 C 439.986 -4.47081 0.493818 0
M  V30 4484 C 441.305 -4.11422 -1.56268 0
M  V30 4485 H 438.424 -0.726625 -0.123229 0
M  V30 4486 H 441.066 -1.86136 0.38121 0
M  V30 4487 H 439.216 -3.64546 -1.34307 0
M  V30 4488 H 440.888 -4.47186 1.13237 0
M  V30 4489 H 439.131 -4.1877 1.13201 0
M  V30 4490 H 439.802 -5.51699 0.18217 0
M  V30 4491 H 442.278 -4.02855 -1.04151 0
M  V30 4492 H 441.154 -5.18568 -1.79939 0
M  V30 4493 H 441.415 -3.61607 -2.54348 0
M  V30 4494 N 440.474 -0.00167713 -1.576 0
M  V30 4495 C 441.384 1.00548 -2.1196 0
M  V30 4496 C 442.4 1.3758 -1.06526 0
M  V30 4497 O 443.576 1.46278 -1.38436 0
M  V30 4498 C 440.641 2.27809 -2.6135 0
M  V30 4499 C 439.702 1.97074 -3.81393 0
M  V30 4500 C 438.935 3.18267 -4.28417 0
M  V30 4501 O 439.158 4.30009 -3.74765 0
M  V30 4502 O 438.092 3.02167 -5.20556 0
M  V30 4503 H 441.918 0.573373 -2.98238 0
M  V30 4504 H 439.503 0.217255 -1.47812 0
M  V30 4505 H 441.385 3.02568 -2.93309 0
M  V30 4506 H 440.06 2.70254 -1.78169 0
M  V30 4507 H 438.967 1.19785 -3.54404 0
M  V30 4508 H 440.3 1.59464 -4.65652 0
M  V30 4509 N 441.952 1.55251 0.271103 0
M  V30 4510 C 443.201 1.75151 1.00025 0
M  V30 4511 C 443.514 0.561041 1.87381 0
M  V30 4512 O 444.72 0.642506 2.63788 0
M  V30 4513 C 443.176 3.09999 1.82835 0
M  V30 4514 C 442.784 4.3662 1.00336 0
M  V30 4515 C 444.528 3.39249 2.55168 0
M  V30 4516 C 442.435 5.62506 1.82595 0
M  V30 4517 H 441.365 0.652877 0.377183 0
M  V30 4518 H 444.016 1.81708 0.255843 0
M  V30 4519 H 442.398 2.97485 2.61378 0
M  V30 4520 H 443.572 4.60055 0.261959 0
M  V30 4521 H 441.887 4.14527 0.394486 0
M  V30 4522 H 444.484 4.3051 3.1712 0
M  V30 4523 H 444.827 2.59467 3.2555 0
M  V30 4524 H 445.36 3.52869 1.83653 0
M  V30 4525 H 442.099 6.45041 1.16631 0
M  V30 4526 H 441.619 5.43211 2.54327 0
M  V30 4527 H 443.298 6.00875 2.39913 0
M  V30 4528 N 443.43 -0.535701 1.48216 0
M  V30 4529 C 444.36 -1.65014 1.65204 0
M  V30 4530 C 445.341 -1.62554 0.501011 0
M  V30 4531 O 446.526 -1.7984 0.732886 0
M  V30 4532 C 443.656 -3.03616 1.68626 0
M  V30 4533 C 442.61 -3.20932 2.83172 0
M  V30 4534 C 441.936 -4.60537 2.71679 0
M  V30 4535 C 443.236 -3.04249 4.24535 0
M  V30 4536 H 444.93 -1.51053 2.58502 0
M  V30 4537 H 442.476 -0.725262 1.24402 0
M  V30 4538 H 444.429 -3.81446 1.79099 0
M  V30 4539 H 443.153 -3.18587 0.719026 0
M  V30 4540 H 441.812 -2.45517 2.72244 0
M  V30 4541 H 441.46 -4.72336 1.72937 0
M  V30 4542 H 441.16 -4.73069 3.48538 0
M  V30 4543 H 442.684 -5.40475 2.84112 0
M  V30 4544 H 444.098 -3.71877 4.36326 0
M  V30 4545 H 442.495 -3.28278 5.02348 0
M  V30 4546 H 443.565 -2.00739 4.41397 0
M  V30 4547 N 444.908 -1.36708 -0.784132 0
M  V30 4548 C 446.185 -1.21776 -1.53069 0
M  V30 4549 C 446.565 0.193876 -2.10208 0
M  V30 4550 O 445.913 1.20012 -1.94446 0
M  V30 4551 C 446.123 -2.30395 -2.62143 0
M  V30 4552 C 447.471 -2.67325 -3.29882 0
M  V30 4553 O 448.495 -2.29478 -2.7243 0
M  V30 4554 O 447.354 -3.32485 -4.33724 0
M  V30 4555 H 444.448 -0.474459 -0.677361 0
M  V30 4556 H 446.994 -1.48454 -0.82216 0
M  V30 4557 H 445.766 -3.2498 -2.17953 0
M  V30 4558 H 445.389 -2.05112 -3.40609 0
M  V30 4559 N 446.386 1.0089 -1.21074 0
M  V30 4560 C 447.611 1.78727 -1.05221 0
M  V30 4561 C 448.036 1.83932 0.393795 0
M  V30 4562 O 447.394 1.28004 1.28393 0
M  V30 4563 C 447.442 3.20665 -1.64944 0
M  V30 4564 O 446.546 4.02632 -0.892273 0
M  V30 4565 H 445.887 0.550973 -0.370574 0
M  V30 4566 H 448.417 1.26847 -1.60534 0
M  V30 4567 H 448.427 3.71352 -1.69002 0
M  V30 4568 H 447.102 3.16191 -2.70177 0
M  V30 4569 H 445.679 3.61207 -0.926492 0
M  V30 4570 N 447.864 1.01787 1.20321 0
M  V30 4571 C 449.094 0.72614 1.93419 0
M  V30 4572 C 449.502 -0.717317 1.75075 0
M  V30 4573 O 448.845 -1.49836 1.06278 0
M  V30 4574 C 448.907 0.983621 3.45782 0
M  V30 4575 C 448.571 2.41645 3.87888 0
M  V30 4576 C 449.568 3.39732 3.93545 0
M  V30 4577 C 447.253 2.75752 4.19841 0
M  V30 4578 C 449.247 4.69988 4.30569 0
M  V30 4579 C 446.934 4.06221 4.56539 0
M  V30 4580 C 447.932 5.0315 4.61876 0
M  V30 4581 O 447.62 6.31284 4.97731 0
M  V30 4582 H 447.352 0.265824 0.621541 0
M  V30 4583 H 449.906 1.3623 1.53722 0
M  V30 4584 H 448.136 0.290301 3.85609 0
M  V30 4585 H 449.825 0.683279 4.00108 0
M  V30 4586 H 450.591 3.14718 3.69022 0
M  V30 4587 H 446.47 2.00993 4.14877 0
M  V30 4588 H 450.014 5.45642 4.3465 0
M  V30 4589 H 445.911 4.31013 4.80518 0
M  V30 4590 H 446.679 6.35591 5.15719 0
M  V30 4591 N 449.342 -1.36122 0.79427 0
M  V30 4592 C 450.572 -2.03067 0.380437 0
M  V30 4593 C 450.98 -1.60018 -1.00949 0
M  V30 4594 O 450.323 -0.787425 -1.65968 0
M  V30 4595 C 450.385 -3.57587 0.37034 0
M  V30 4596 C 450.049 -4.23855 1.70867 0
M  V30 4597 C 451.046 -4.46404 2.66496 0
M  V30 4598 C 448.731 -4.61229 1.9893 0
M  V30 4599 C 450.725 -5.05412 3.88378 0
M  V30 4600 C 448.412 -5.19953 3.21079 0
M  V30 4601 C 449.41 -5.41985 4.15621 0
M  V30 4602 O 449.098 -5.99475 5.35616 0
M  V30 4603 H 448.83 -0.658168 0.154243 0
M  V30 4604 H 451.384 -1.7498 1.0757 0
M  V30 4605 H 449.614 -3.84814 -0.381444 0
M  V30 4606 H 451.303 -4.05895 -0.0194894 0
M  V30 4607 H 452.069 -4.17921 2.46103 0
M  V30 4608 H 447.948 -4.43402 1.26158 0
M  V30 4609 H 451.492 -5.22524 4.62185 0
M  V30 4610 H 447.389 -5.47862 3.41347 0
M  V30 4611 H 448.157 -6.17937 5.36745 0
M  V30 4612 N 450.82 -0.546701 -1.47814 0
M  V30 4613 C 451.752 0.244196 -2.27895 0
M  V30 4614 C 452.765 0.88911 -1.36377 0
M  V30 4615 O 453.954 0.764733 -1.61289 0
M  V30 4616 C 451.054 1.36252 -3.10304 0
M  V30 4617 C 450.227 0.816382 -4.29714 0
M  V30 4618 C 449.286 1.81789 -4.93801 0
M  V30 4619 O 448.312 1.36818 -5.52512 0
M  V30 4620 N 449.514 3.15085 -4.87547 0
M  V30 4621 H 452.279 -0.442694 -2.96412 0
M  V30 4622 H 449.84 -0.382095 -1.57327 0
M  V30 4623 H 451.832 2.03102 -3.50045 0
M  V30 4624 H 450.402 1.95281 -2.44099 0
M  V30 4625 H 449.622 -0.0285981 -3.9419 0
M  V30 4626 H 450.91 0.430668 -5.06974 0
M  V30 4627 H 450.308 3.54275 -4.41028 0
M  V30 4628 H 448.865 3.77522 -5.31339 0
M  V30 4629 N 452.299 1.55045 -0.282633 0
M  V30 4630 C 453.715 1.59441 0.0712997 0
M  V30 4631 C 453.915 1.2998 1.53972 0
M  V30 4632 O 452.971 1.06431 2.28973 0
M  V30 4633 C 454.284 2.99097 -0.310104 0
M  V30 4634 C 455.832 3.1194 -0.257343 0
M  V30 4635 C 456.307 4.53875 -0.613297 0
M  V30 4636 N 457.798 4.5974 -0.565134 0
M  V30 4637 C 458.533 5.67603 -0.81326 0
M  V30 4638 N 458.029 6.83582 -1.1264 0
M  V30 4639 N 459.822 5.57187 -0.741553 0
M  V30 4640 H 451.973 1.72458 -1.23984 0
M  V30 4641 H 454.236 0.804549 -0.501403 0
M  V30 4642 H 453.942 3.25516 -1.33163 0
M  V30 4643 H 453.816 3.75616 0.345366 0
M  V30 4644 H 456.203 2.85281 0.754905 0
M  V30 4645 H 456.284 2.37618 -0.947178 0
M  V30 4646 H 455.928 4.81261 -1.62327 0
M  V30 4647 H 455.858 5.26508 0.09841 0
M  V30 4648 H 458.349 3.76427 -0.333294 0
M  V30 4649 H 458.662 7.6175 -1.30219 0
M  V30 4650 H 457.007 6.85179 -1.16425 0
M  V30 4651 H 460.198 4.65457 -0.496705 0
M  V30 4652 H 460.371 6.41171 -0.938306 0
M  V30 4653 N 453.777 0.010035 1.57597 0
M  V30 4654 C 454.707 -0.976857 2.12084 0
M  V30 4655 C 455.688 -1.35191 1.03235 0
M  V30 4656 O 456.873 -1.43389 1.3097 0
M  V30 4657 C 454.003 -2.26548 2.63236 0
M  V30 4658 C 452.957 -2.03175 3.76701 0
M  V30 4659 C 452.283 -3.38138 4.14206 0
M  V30 4660 C 453.583 -1.38625 5.03568 0
M  V30 4661 H 455.277 -0.523145 2.94794 0
M  V30 4662 H 452.823 -0.250195 1.4181 0
M  V30 4663 H 454.776 -2.95952 2.99984 0
M  V30 4664 H 453.5 -2.74051 1.77661 0
M  V30 4665 H 452.159 -1.36195 3.40362 0
M  V30 4666 H 451.807 -3.83363 3.25641 0
M  V30 4667 H 451.507 -3.23312 4.90656 0
M  V30 4668 H 453.031 -4.08841 4.53521 0
M  V30 4669 H 454.445 -1.98 5.38023 0
M  V30 4670 H 452.842 -1.34256 5.84889 0
M  V30 4671 H 453.912 -0.356722 4.83586 0
M  V30 4672 N 455.255 -1.55392 -0.262866 0
M  V30 4673 C 456.205 -1.85355 -1.32768 0
M  V30 4674 C 457.189 -0.713188 -1.44231 0
M  V30 4675 O 458.381 -0.974765 -1.47741 0
M  V30 4676 C 455.51 -2.13781 -2.68612 0
M  V30 4677 C 454.596 -3.34104 -2.61219 0
M  V30 4678 N 454.987 -4.53766 -2.2345 0
M  V30 4679 C 453.285 -3.36895 -2.92263 0
M  V30 4680 C 453.986 -5.35877 -2.26298 0
M  V30 4681 N 452.962 -4.74536 -2.65172 0
M  V30 4682 H 456.764 -2.75413 -1.02591 0
M  V30 4683 H 454.278 -1.55405 -0.471503 0
M  V30 4684 H 456.275 -2.33407 -3.45437 0
M  V30 4685 H 454.935 -1.25013 -2.99669 0
M  V30 4686 H 455.946 -4.79682 -1.95258 0
M  V30 4687 H 452.623 -2.58351 -3.27965 0
M  V30 4688 H 454.013 -6.41577 -1.99572 0
M  V30 4689 N 456.733 0.527833 -1.48498 0
M  V30 4690 C 458.149 0.856571 -1.34666 0
M  V30 4691 C 458.349 1.98271 -0.35931 0
M  V30 4692 O 457.405 2.51551 0.218703 0
M  V30 4693 C 458.718 1.22207 -2.74747 0
M  V30 4694 C 460.266 1.33183 -2.83251 0
M  V30 4695 C 460.741 1.73075 -4.24039 0
M  V30 4696 N 462.232 1.80174 -4.26722 0
M  V30 4697 C 462.967 2.1243 -5.32598 0
M  V30 4698 N 462.463 2.43096 -6.4875 0
M  V30 4699 N 464.256 2.13454 -5.19994 0
M  V30 4700 H 456.407 -0.215174 -2.11307 0
M  V30 4701 H 458.67 -0.0336281 -0.947403 0
M  V30 4702 H 458.376 0.468195 -3.4857 0
M  V30 4703 H 458.25 2.17173 -3.08409 0
M  V30 4704 H 460.637 2.07647 -2.09683 0
M  V30 4705 H 460.718 0.363333 -2.53206 0
M  V30 4706 H 460.362 0.991712 -4.98124 0
M  V30 4707 H 460.292 2.70979 -4.51529 0
M  V30 4708 H 462.783 1.58744 -3.42942 0
M  V30 4709 H 463.096 2.6682 -7.25277 0
M  V30 4710 H 461.441 2.40611 -6.52021 0
M  V30 4711 H 464.632 1.88956 -4.28268 0
M  V30 4712 H 464.805 2.38261 -6.02608 0
M  V30 4713 N 458.211 1.37122 0.776871 0
M  V30 4714 C 459.141 1.35164 1.90402 0
M  V30 4715 C 460.122 0.221069 1.68657 0
M  V30 4716 O 461.307 0.420642 1.8959 0
M  V30 4717 C 458.437 1.15274 3.27611 0
M  V30 4718 C 457.391 2.25289 3.63908 0
M  V30 4719 C 456.717 1.90527 4.99603 0
M  V30 4720 C 458.017 3.67446 3.71188 0
M  V30 4721 H 459.711 2.29482 1.92297 0
M  V30 4722 H 457.257 1.10465 0.923773 0
M  V30 4723 H 459.21 1.12536 4.06096 0
M  V30 4724 H 457.934 0.174102 3.26136 0
M  V30 4725 H 456.593 2.27174 2.87728 0
M  V30 4726 H 456.241 0.91206 4.94662 0
M  V30 4727 H 455.941 2.64193 5.24858 0
M  V30 4728 H 457.465 1.89367 5.80493 0
M  V30 4729 H 458.879 3.67719 4.39836 0
M  V30 4730 H 457.276 4.40123 4.07936 0
M  V30 4731 H 458.346 4.01443 2.71977 0
M  V30 4732 N 459.689 -1.00246 1.21608 0
M  V30 4733 C 461.105 -1.26435 0.973975 0
M  V30 4734 C 461.305 -1.98642 -0.338143 0
M  V30 4735 O 460.361 -2.29026 -1.06317 0
M  V30 4736 C 461.674 -2.08551 2.16626 0
M  V30 4737 C 463.222 -2.21769 2.20879 0
M  V30 4738 C 463.697 -3.07267 3.39633 0
M  V30 4739 N 465.188 -3.14855 3.39736 0
M  V30 4740 C 465.923 -3.81274 4.28273 0
M  V30 4741 N 465.419 -4.497 5.27012 0
M  V30 4742 N 467.212 -3.7794 4.16074 0
M  V30 4743 H 459.363 -0.518089 2.05984 0
M  V30 4744 H 461.626 -0.291368 0.902113 0
M  V30 4745 H 461.332 -1.62847 3.11727 0
M  V30 4746 H 461.206 -3.09303 2.15897 0
M  V30 4747 H 463.593 -2.66691 1.26332 0
M  V30 4748 H 463.674 -1.20478 2.25652 0
M  V30 4749 H 463.318 -2.63047 4.34475 0
M  V30 4750 H 463.248 -4.08678 3.321 0
M  V30 4751 H 465.739 -2.66147 2.6828 0
M  V30 4752 H 466.052 -4.98092 5.90867 0
M  V30 4753 H 464.397 -4.48479 5.30935 0
M  V30 4754 H 467.588 -3.23638 3.38195 0
M  V30 4755 H 467.761 -4.29424 4.85282 0
M  V30 4756 N 461.167 -1.02423 -1.1978 0
M  V30 4757 C 462.415 -0.716569 -1.8897 0
M  V30 4758 C 462.736 0.756769 -1.79716 0
M  V30 4759 O 462.006 1.5449 -1.20456 0
M  V30 4760 H 460.586 -0.262062 -0.699523 0
M  V30 4761 H 463.248 -1.29747 -1.45436 0
M  V30 4762 H 462.344 -1.00675 -2.95417 0
M  V30 4763 N 462.645 1.35699 -0.801477 0
M  V30 4764 C 463.555 2.33661 -0.209691 0
M  V30 4765 C 464.571 1.6162 0.644591 0
M  V30 4766 O 465.747 1.93529 0.557545 0
M  V30 4767 C 462.812 3.40816 0.636033 0
M  V30 4768 C 461.873 4.28639 -0.238147 0
M  V30 4769 C 461.106 5.30676 0.567307 0
M  V30 4770 O 461.329 5.41174 1.8024 0
M  V30 4771 O 460.263 6.01887 -0.0391336 0
M  V30 4772 H 464.089 2.8606 -1.01996 0
M  V30 4773 H 461.674 1.38379 -0.563164 0
M  V30 4774 H 463.556 4.06301 1.11791 0
M  V30 4775 H 462.231 2.90696 1.42399 0
M  V30 4776 H 461.138 3.66152 -0.767044 0
M  V30 4777 H 462.471 4.82143 -0.989915 0
M  V30 4778 N 464.123 0.554532 1.47522 0
M  V30 4779 C 465.055 -0.232106 2.28022 0
M  V30 4780 C 466.068 -0.881865 1.36847 0
M  V30 4781 O 467.257 -0.756168 1.61692 0
M  V30 4782 C 464.357 -1.34604 3.11022 0
M  V30 4783 C 463.53 -0.793582 4.30141 0
M  V30 4784 C 462.589 -1.79168 4.94758 0
M  V30 4785 O 461.615 -1.33886 5.5323 0
M  V30 4786 N 462.817 -3.12495 4.89211 0
M  V30 4787 H 465.582 0.458407 2.96173 0
M  V30 4788 H 463.143 0.390433 1.57122 0
M  V30 4789 H 465.135 -2.01243 3.51118 0
M  V30 4790 H 463.705 -1.93983 2.45131 0
M  V30 4791 H 462.925 0.0495025 3.94169 0
M  V30 4792 H 464.213 -0.403776 5.07195 0
M  V30 4793 H 463.611 -3.51931 4.42901 0
M  V30 4794 H 462.168 -3.74698 5.33333 0
M  V30 4795 N 465.601 -1.54893 0.290851 0
M  V30 4796 C 466.534 -2.19289 -0.631489 0
M  V30 4797 C 467.512 -1.15893 -1.14051 0
M  V30 4798 O 468.696 -1.4449 -1.21058 0
M  V30 4799 C 465.823 -2.82866 -1.86291 0
M  V30 4800 C 464.869 -3.997 -1.48801 0
M  V30 4801 S 465.702 -5.32641 -0.552644 0
M  V30 4802 C 466.858 -5.99696 -1.79209 0
M  V30 4803 H 467.091 -2.9718 -0.0843791 0
M  V30 4804 H 464.624 -1.54218 0.075031 0
M  V30 4805 H 466.582 -3.20124 -2.56964 0
M  V30 4806 H 465.243 -2.04839 -2.38117 0
M  V30 4807 H 464.436 -4.42932 -2.40473 0
M  V30 4808 H 464.038 -3.63947 -0.861321 0
M  V30 4809 H 466.33 -6.19886 -2.734 0
M  V30 4810 H 467.273 -6.94071 -1.40251 0
M  V30 4811 H 467.681 -5.29226 -1.96419 0
M  V30 4812 N 467.08 -0.0183926 -1.57589 0
M  V30 4813 C 468.043 0.951986 -2.08494 0
M  V30 4814 C 469.043 1.26092 -0.997874 0
M  V30 4815 O 470.233 1.20304 -1.25987 0
M  V30 4816 C 467.365 2.27165 -2.54182 0
M  V30 4817 H 468.558 0.511307 -2.95509 0
M  V30 4818 H 466.111 0.229444 -1.54607 0
M  V30 4819 H 466.846 2.75884 -1.70465 0
M  V30 4820 H 466.631 2.06057 -3.33591 0
M  V30 4821 H 468.121 2.9674 -2.93828 0
M  V30 4822 N 468.558 1.5553 0.254621 0
M  V30 4823 C 469.783 1.81383 1.00573 0
M  V30 4824 C 470.208 0.594419 1.78461 0
M  V30 4825 O 469.566 -0.456403 1.75461 0
M  V30 4826 C 469.614 3.04892 1.92545 0
M  V30 4827 O 468.718 2.81266 3.01601 0
M  V30 4828 H 468.059 0.598969 0.286587 0
M  V30 4829 H 470.589 2.02703 0.277952 0
M  V30 4830 H 470.599 3.34119 2.34155 0
M  V30 4831 H 469.274 3.93287 1.3527 0
M  V30 4832 H 467.851 2.63185 2.64174 0
M  V30 4833 N 470.036 -0.519951 1.48776 0
M  V30 4834 C 471.266 -1.29783 1.60748 0
M  V30 4835 C 471.674 -1.87253 0.27072 0
M  V30 4836 O 471.017 -1.67628 -0.751438 0
M  V30 4837 C 471.079 -2.47984 2.60277 0
M  V30 4838 C 470.743 -2.11526 4.051 0
M  V30 4839 C 471.74 -1.66608 4.92481 0
M  V30 4840 C 469.425 -2.21742 4.50706 0
M  V30 4841 C 471.419 -1.32384 6.23501 0
M  V30 4842 C 469.106 -1.87129 5.81744 0
M  V30 4843 C 470.104 -1.42523 6.67964 0
M  V30 4844 O 469.792 -1.0837 7.96562 0
M  V30 4845 H 469.524 -0.400562 0.544542 0
M  V30 4846 H 472.078 -0.632879 1.95407 0
M  V30 4847 H 470.308 -3.17493 2.2076 0
M  V30 4848 H 471.997 -3.10036 2.61978 0
M  V30 4849 H 472.763 -1.58178 4.58481 0
M  V30 4850 H 468.642 -2.55415 3.83776 0
M  V30 4851 H 472.186 -0.974949 6.90754 0
M  V30 4852 H 468.083 -1.95204 6.15277 0
M  V30 4853 H 468.851 -1.21681 8.09405 0
M  V30 4854 N 471.514 -1.37532 -0.769588 0
M  V30 4855 C 472.761 -1.3286 -1.52822 0
M  V30 4856 C 473.089 0.0862597 -1.94309 0
M  V30 4857 O 472.344 1.05995 -1.6451 0
M  V30 4858 C 472.643 -2.21558 -2.8044 0
M  V30 4859 C 472.309 -3.69796 -2.57996 0
M  V30 4860 C 470.971 -4.10194 -2.51583 0
M  V30 4861 C 473.323 -4.63699 -2.37976 0
M  V30 4862 C 470.651 -5.42608 -2.23144 0
M  V30 4863 C 473.003 -5.96353 -2.1106 0
M  V30 4864 C 471.667 -6.35853 -2.03093 0
M  V30 4865 H 470.937 -0.486168 -0.559215 0
M  V30 4866 H 473.584 -1.69757 -0.886277 0
M  V30 4867 H 471.889 -1.77663 -3.49204 0
M  V30 4868 H 473.586 -2.15256 -3.38328 0
M  V30 4869 H 470.176 -3.37759 -2.63851 0
M  V30 4870 H 474.36 -4.33346 -2.41919 0
M  V30 4871 H 469.616 -5.72173 -2.15472 0
M  V30 4872 H 473.79 -6.68667 -1.94568 0
M  V30 4873 H 471.417 -7.38382 -1.8082 0
M  V30 4874 N 472.992 0.995999 -1.22138 0
M  V30 4875 C 474.24 1.73167 -1.042 0
M  V30 4876 C 474.561 1.90329 0.42423 0
M  V30 4877 O 473.831 1.4607 1.30539 0
M  V30 4878 H 472.411 0.641593 -0.38258 0
M  V30 4879 H 475.073 1.19974 -1.53598 0
M  V30 4880 H 474.169 2.72734 -1.51731 0
M  V30 4881 N 474.47 1.03057 1.19235 0
M  V30 4882 C 475.42 0.583386 2.2041 0
M  V30 4883 C 476.404 -0.368776 1.56617 0
M  V30 4884 O 477.596 -0.189471 1.75983 0
M  V30 4885 C 474.725 -0.0626534 3.43243 0
M  V30 4886 C 473.811 0.91205 4.14177 0
M  V30 4887 N 474.202 2.07514 4.61272 0
M  V30 4888 C 472.5 0.735859 4.39888 0
M  V30 4889 C 473.201 2.69003 5.15764 0
M  V30 4890 N 472.177 1.96954 5.06666 0
M  V30 4891 H 475.979 1.46988 2.54503 0
M  V30 4892 H 473.493 0.897785 1.35328 0
M  V30 4893 H 475.49 -0.400653 4.1497 0
M  V30 4894 H 474.15 -0.944813 3.1065 0
M  V30 4895 H 475.161 2.45448 4.56043 0
M  V30 4896 H 471.838 -0.0970656 4.17387 0
M  V30 4897 H 473.228 3.67514 5.6248 0
M  V30 4898 N 475.948 -1.35272 0.808662 0
M  V30 4899 C 477.173 -2.03477 0.401475 0
M  V30 4900 C 477.598 -1.60537 -0.980279 0
M  V30 4901 O 476.956 -0.78304 -1.63518 0
M  V30 4902 C 477.004 -3.57181 0.495354 0
M  V30 4903 O 476.108 -4.09474 -0.490397 0
M  V30 4904 H 475.449 -0.642561 0.167366 0
M  V30 4905 H 477.979 -1.72824 1.09512 0
M  V30 4906 H 477.989 -4.06356 0.365912 0
M  V30 4907 H 476.664 -3.87784 1.5032 0
M  V30 4908 H 475.241 -3.71516 -0.321023 0
M  V30 4909 N 477.426 -0.562348 -1.47226 0
M  V30 4910 C 478.672 -0.0402761 -2.0276 0
M  V30 4911 C 479.005 1.30823 -1.43523 0
M  V30 4912 O 478.28 1.85249 -0.592705 0
M  V30 4913 C 478.563 0.047311 -3.60069 0
M  V30 4914 C 478.416 -1.32865 -4.29729 0
M  V30 4915 C 479.735 0.758182 -4.3352 0
M  V30 4916 H 476.854 -0.0161105 -0.736824 0
M  V30 4917 H 479.496 -0.725628 -1.75598 0
M  V30 4918 H 477.646 0.630986 -3.83342 0
M  V30 4919 H 479.318 -1.95593 -4.17781 0
M  V30 4920 H 477.561 -1.90195 -3.89882 0
M  V30 4921 H 478.232 -1.22004 -5.38349 0
M  V30 4922 H 480.708 0.262546 -4.15271 0
M  V30 4923 H 479.584 0.78844 -5.43208 0
M  V30 4924 H 479.845 1.81537 -4.03109 0
M  V30 4925 N 478.904 1.54736 -0.299062 0
M  V30 4926 C 479.867 2.22127 0.565012 0
M  V30 4927 C 480.867 1.20669 1.06281 0
M  V30 4928 O 482.057 1.45417 0.959145 0
M  V30 4929 C 479.189 2.90611 1.78208 0
M  V30 4930 H 480.382 2.99891 -0.0237448 0
M  V30 4931 H 477.935 1.5622 -0.0498788 0
M  V30 4932 H 478.67 2.16921 2.41072 0
M  V30 4933 H 478.455 3.64984 1.43281 0
M  V30 4934 H 479.945 3.42026 2.396 0
M  V30 4935 N 480.382 0.0267497 1.57577 0
M  V30 4936 C 481.628 -0.653371 1.91987 0
M  V30 4937 C 481.961 -1.71915 0.903263 0
M  V30 4938 O 481.236 -1.94358 -0.0743387 0
M  V30 4939 C 481.519 -1.272 3.36886 0
M  V30 4940 C 481.372 -0.215938 4.49281 0
M  V30 4941 C 482.691 -2.19069 3.81703 0
M  V30 4942 H 479.81 -0.236047 0.698177 0
M  V30 4943 H 482.452 0.0835236 1.89816 0
M  V30 4944 H 480.602 -1.90005 3.38866 0
M  V30 4945 H 482.274 0.41449 4.59434 0
M  V30 4946 H 480.517 0.458855 4.31366 0
M  V30 4947 H 481.188 -0.688347 5.47691 0
M  V30 4948 H 483.664 -1.66253 3.81444 0
M  V30 4949 H 482.54 -2.59307 4.83788 0
M  V30 4950 H 482.801 -3.08087 3.17072 0
M  V30 4951 N 481.861 -1.55662 -0.24637 0
M  V30 4952 C 483.089 -1.81575 -0.991876 0
M  V30 4953 C 483.504 -0.602545 -1.78927 0
M  V30 4954 O 482.861 0.428795 -1.77391 0
M  V30 4955 C 482.912 -3.05711 -1.92933 0
M  V30 4956 O 482.633 -4.22348 -1.1642 0
M  V30 4957 C 484.134 -3.44428 -2.79078 0
M  V30 4958 H 481.354 -0.604209 -0.291844 0
M  V30 4959 H 483.898 -2.02722 -0.269095 0
M  V30 4960 H 482.053 -2.86612 -2.60638 0
M  V30 4961 H 482.467 -4.92706 -1.79835 0
M  V30 4962 H 483.941 -4.34388 -3.40603 0
M  V30 4963 H 484.418 -2.65037 -3.50217 0
M  V30 4964 H 485.024 -3.65879 -2.16824 0
M  V30 4965 N 483.339 0.512053 -1.4905 0
M  V30 4966 C 484.616 1.27337 -1.48474 0
M  V30 4967 C 484.996 2.1009 -0.206301 0
M  V30 4968 O 484.344 2.136 0.811609 0
M  V30 4969 C 484.554 2.13954 -2.75726 0
M  V30 4970 C 485.902 2.73507 -3.24776 0
M  V30 4971 O 486.926 2.24229 -2.76767 0
M  V30 4972 O 485.785 3.63186 -4.08361 0
M  V30 4973 H 482.879 0.575652 -0.593762 0
M  V30 4974 H 485.425 0.527232 -1.61302 0
M  V30 4975 H 484.197 1.52709 -3.60272 0
M  V30 4976 H 483.82 2.95782 -2.65705 0
M  V30 4977 N 484.817 1.37938 0.762283 0
M  V30 4978 C 486.063 1.33866 1.52341 0
M  V30 4979 C 486.396 -0.0738961 1.94059 0
M  V30 4980 O 485.671 -1.03326 1.64785 0
M  V30 4981 C 485.954 2.28644 2.78197 0
M  V30 4982 C 485.807 3.78722 2.42672 0
M  V30 4983 C 487.126 2.21702 3.80179 0
M  V30 4984 H 484.245 0.487593 0.55265 0
M  V30 4985 H 486.887 1.68717 0.873767 0
M  V30 4986 H 485.037 1.99055 3.33631 0
M  V30 4987 H 486.709 4.18948 1.93081 0
M  V30 4988 H 484.952 3.96827 1.75244 0
M  V30 4989 H 485.623 4.40486 3.3268 0
M  V30 4990 H 488.099 2.47805 3.34263 0
M  V30 4991 H 486.975 2.90143 4.65949 0
M  V30 4992 H 487.236 1.21301 4.25133 0
M  V30 4993 N 486.295 -0.989507 1.22664 0
M  V30 4994 C 487.243 -2.10148 0.997035 0
M  V30 4995 C 488.237 -1.6929 -0.0609783 0
M  V30 4996 O 489.443 -1.79766 0.0917523 0
M  V30 4997 H 485.818 -0.687256 0.305259 0
M  V30 4998 H 487.789 -2.26685 1.94053 0
M  V30 4999 C 486.538 -3.4257 0.595085 0
M  V30 5000 H 485.861 -3.74453 1.40089 0
M  V30 5001 H 487.301 -4.21344 0.473869 0
M  V30 5002 C 485.76 -3.29638 -0.695725 0
M  V30 5003 O 486.29 -3.61709 -1.74727 0
M  V30 5004 N 484.496 -2.82814 -0.668173 0
M  V30 5005 H 484.043 -2.56914 0.18787 0
M  V30 5006 H 484.001 -2.74544 -1.5321 0
M  V30 5007 N 487.773 -1.03688 -1.18687 0
M  V30 5008 C 489.021 -0.736572 -1.88199 0
M  V30 5009 C 489.342 0.737665 -1.80509 0
M  V30 5010 O 488.612 1.53204 -1.22088 0
M  V30 5011 H 487.192 -0.269466 -0.696704 0
M  V30 5012 H 489.854 -1.31282 -1.44052 0
M  V30 5013 H 488.95 -1.03802 -2.94332 0
M  V30 5014 N 489.251 1.34841 -0.815825 0
M  V30 5015 C 490.528 1.92908 -0.323416 0
M  V30 5016 C 490.908 1.74479 1.18828 0
M  V30 5017 O 490.256 1.11928 1.99209 0
M  V30 5018 C 490.466 3.40957 -0.744952 0
M  V30 5019 C 491.814 4.18107 -0.739716 0
M  V30 5020 O 492.838 3.49511 -0.68708 0
M  V30 5021 O 491.697 5.40517 -0.806456 0
M  V30 5022 H 488.791 0.822436 -0.0867646 0
M  V30 5023 H 491.337 1.4386 -0.90014 0
M  V30 5024 H 490.109 3.4814 -1.78646 0
M  V30 5025 H 489.732 3.97341 -0.143535 0
M  V30 5026 N 490.729 0.570148 1.46925 0
M  V30 5027 C 491.977 0.0508523 2.02036 0
M  V30 5028 C 492.298 -1.30885 1.44548 0
M  V30 5029 O 491.568 -1.85647 0.625453 0
M  V30 5030 H 490.148 0.0158088 0.746833 0
M  V30 5031 H 492.81 0.743086 1.80178 0
M  V30 5032 H 491.906 -0.027575 3.12088 0
M  V30 5033 N 492.207 -1.54576 0.307264 0
M  V30 5034 C 493.623 -1.59534 -0.0459251 0
M  V30 5035 C 493.823 -1.32414 -1.51884 0
M  V30 5036 O 492.879 -1.1006 -2.27251 0
M  V30 5037 C 494.192 -2.98566 0.357649 0
M  V30 5038 C 495.74 -3.11491 0.306937 0
M  V30 5039 C 496.215 -4.52842 0.685427 0
M  V30 5040 N 497.706 -4.58782 0.638203 0
M  V30 5041 C 498.441 -5.66238 0.903458 0
M  V30 5042 N 497.937 -6.81703 1.23501 0
M  V30 5043 N 499.73 -5.55937 0.830102 0
M  V30 5044 H 491.881 -1.70464 1.26712 0
M  V30 5045 H 494.144 -0.79647 0.514139 0
M  V30 5046 H 493.85 -3.23356 1.38325 0
M  V30 5047 H 493.724 -3.76117 -0.285565 0
M  V30 5048 H 496.111 -2.86446 -0.709424 0
M  V30 5049 H 496.192 -2.36081 0.984861 0
M  V30 5050 H 495.836 -4.78618 1.69963 0
M  V30 5051 H 495.766 -5.26598 -0.0146346 0
M  V30 5052 H 498.257 -3.75849 0.393138 0
M  V30 5053 H 498.57 -7.59582 1.42322 0
M  V30 5054 H 496.915 -6.8324 1.27311 0
M  V30 5055 H 500.106 -4.64608 0.570693 0
M  V30 5056 H 500.279 -6.39597 1.04019 0
M  V30 5057 N 493.685 -0.035106 -1.57561 0
M  V30 5058 C 494.635 0.954034 -2.0708 0
M  V30 5059 C 495.619 1.2818 -0.972558 0
M  V30 5060 O 496.811 1.26691 -1.23606 0
M  V30 5061 C 493.94 2.23442 -2.60631 0
M  V30 5062 C 493.026 1.93475 -3.77396 0
M  V30 5063 N 493.417 1.33802 -4.87781 0
M  V30 5064 C 491.715 2.23434 -3.85996 0
M  V30 5065 C 492.416 1.21103 -5.68954 0
M  V30 5066 N 491.392 1.70855 -5.16052 0
M  V30 5067 H 495.194 0.487731 -2.89825 0
M  V30 5068 H 492.708 0.169759 -1.6151 0
M  V30 5069 H 494.705 2.95183 -2.94402 0
M  V30 5070 H 493.365 2.70693 -1.79319 0
M  V30 5071 H 494.376 1.01227 -5.07911 0
M  V30 5072 H 491.053 2.73317 -3.15601 0
M  V30 5073 H 492.443 0.749105 -6.67711 0
M  V30 5074 N 495.163 1.55791 0.238111 0
M  V30 5075 C 496.44 1.68798 0.98826 0
M  V30 5076 C 496.82 0.577562 2.03045 0
M  V30 5077 O 496.168 -0.41778 2.24648 0
M  V30 5078 C 496.378 3.09454 1.61367 0
M  V30 5079 C 497.726 3.68335 2.11221 0
M  V30 5080 O 498.75 3.1231 1.71292 0
M  V30 5081 O 497.609 4.6657 2.84561 0
M  V30 5082 H 494.703 0.686881 0.460568 0
M  V30 5083 H 497.249 1.68118 0.231202 0
M  V30 5084 H 496.021 3.81726 0.860295 0
M  V30 5085 H 495.644 3.14182 2.4367 0
M  V30 5086 N 496.642 -0.504142 1.49319 0
M  V30 5087 C 497.572 -1.61473 1.68667 0
M  V30 5088 C 498.553 -1.61455 0.535378 0
M  V30 5089 O 499.738 -1.78245 0.770868 0
M  V30 5090 C 496.868 -2.99971 1.75028 0
M  V30 5091 C 495.822 -3.14854 2.89916 0
M  V30 5092 C 495.148 -4.54671 2.81387 0
M  V30 5093 C 496.448 -2.95176 4.30893 0
M  V30 5094 H 498.142 -1.45535 2.61648 0
M  V30 5095 H 495.688 -0.698711 1.25913 0
M  V30 5096 H 497.641 -3.77562 1.8715 0
M  V30 5097 H 496.365 -3.1699 0.786441 0
M  V30 5098 H 495.024 -2.39687 2.77391 0
M  V30 5099 H 494.672 -4.68562 1.82917 0
M  V30 5100 H 494.372 -4.6557 3.58494 0
M  V30 5101 H 495.896 -5.34327 2.95512 0
M  V30 5102 H 497.31 -3.62538 4.44116 0
M  V30 5103 H 495.707 -3.17549 5.09198 0
M  V30 5104 H 496.777 -1.91332 4.45556 0
M  V30 5105 N 498.12 -1.38341 -0.754957 0
M  V30 5106 C 499.05 -1.38176 -1.88227 0
M  V30 5107 C 500.031 -0.247873 -1.68284 0
M  V30 5108 O 501.216 -0.45075 -1.88896 0
M  V30 5109 C 498.346 -1.20471 -3.25736 0
M  V30 5110 C 497.3 -2.3105 -3.60278 0
M  V30 5111 C 496.626 -1.98452 -4.96509 0
M  V30 5112 C 497.926 -3.73305 -3.65295 0
M  V30 5113 H 499.62 -2.32512 -1.88622 0
M  V30 5114 H 497.166 -1.1192 -0.906082 0
M  V30 5115 H 499.119 -1.18982 -4.04254 0
M  V30 5116 H 497.843 -0.225965 -3.25817 0
M  V30 5117 H 496.502 -2.31723 -2.84078 0
M  V30 5118 H 496.15 -0.990641 -4.93148 0
M  V30 5119 H 495.85 -2.7251 -5.20588 0
M  V30 5120 H 497.374 -1.98578 -5.77407 0
M  V30 5121 H 498.788 -3.7467 -4.3393 0
M  V30 5122 H 497.185 -4.46557 -4.00883 0
M  V30 5123 H 498.255 -4.05719 -2.65556 0
M  V30 5124 N 499.598 0.982988 -1.23187 0
M  V30 5125 C 500.844 1.72648 -1.06398 0
M  V30 5126 C 501.177 1.90066 0.398561 0
M  V30 5127 O 500.452 1.45105 1.29518 0
M  V30 5128 C 500.735 3.12627 -1.78707 0
M  V30 5129 C 500.588 3.02795 -3.32618 0
M  V30 5130 C 501.907 4.11997 -1.54747 0
M  V30 5131 H 499.026 0.626649 -0.387918 0
M  V30 5132 H 501.668 1.14455 -1.51658 0
M  V30 5133 H 499.818 3.62308 -1.40234 0
M  V30 5134 H 501.49 2.60659 -3.80598 0
M  V30 5135 H 499.733 2.39362 -3.61785 0
M  V30 5136 H 500.404 4.01893 -3.78399 0
M  V30 5137 H 502.88 3.71114 -1.88186 0
M  V30 5138 H 501.756 5.08037 -2.07821 0
M  V30 5139 H 502.017 4.39462 -0.482249 0
M  V30 5140 N 501.076 1.04316 1.18135 0
M  V30 5141 C 502.324 0.746542 1.87806 0
M  V30 5142 C 502.645 -0.728082 1.80898 0
M  V30 5143 O 501.915 -1.52554 1.22899 0
M  V30 5144 H 500.495 0.273157 0.695265 0
M  V30 5145 H 503.157 1.32044 1.43354 0
M  V30 5146 H 502.253 1.05362 2.93778 0
M  V30 5147 N 502.554 -1.34406 0.822964 0
M  V30 5148 C 503.517 -2.2783 0.250271 0
M  V30 5149 C 504.517 -1.50288 -0.571854 0
M  V30 5150 O 505.707 -1.69825 -0.387952 0
M  V30 5151 C 502.839 -3.34663 -0.649137 0
M  V30 5152 H 504.032 -2.79992 1.07444 0
M  V30 5153 H 501.585 -1.44539 0.594829 0
M  V30 5154 H 502.32 -2.87714 -1.49637 0
M  V30 5155 H 502.105 -3.92052 -0.0611199 0
M  V30 5156 H 503.595 -4.04349 -1.04363 0
M  V30 5157 N 504.032 -0.577932 -1.46621 0
M  V30 5158 C 505.443 -0.150071 -1.86096 0
M  V30 5159 C 505.794 1.28563 -1.48209 0
M  V30 5160 O 504.919 1.97036 -0.894754 0
M  V30 5161 C 505.514 -0.265576 -3.37758 0
M  V30 5162 C 504.073 0.10738 -3.76247 0
M  V30 5163 C 503.22 -0.603711 -2.70649 0
M  V30 5164 H 506.171 -0.786438 -1.37844 0
M  V30 5165 H 506.192 0.510352 -3.77062 0
M  V30 5166 H 505.704 -1.3106 -3.65301 0
M  V30 5167 H 503.805 1.15272 -3.54321 0
M  V30 5168 H 503.918 -0.26561 -4.78363 0
M  V30 5169 H 502.282 -0.0444884 -2.54661 0
M  V30 5170 H 503.065 -1.65029 -3.01032 0
M  V30 5171 N 505.51 1.54411 -0.315457 0
M  V30 5172 C 506.44 2.27002 0.547039 0
M  V30 5173 C 507.421 1.27492 1.12605 0
M  V30 5174 O 508.606 1.5629 1.15269 0
M  V30 5175 C 505.736 3.02171 1.71201 0
M  V30 5176 C 504.69 4.0895 1.26268 0
M  V30 5177 C 504.016 4.71915 2.51396 0
M  V30 5178 C 505.316 5.20891 0.383419 0
M  V30 5179 H 507.01 2.99343 -0.0584517 0
M  V30 5180 H 504.556 1.4397 -0.0295527 0
M  V30 5181 H 506.509 3.51681 2.32161 0
M  V30 5182 H 505.233 2.27433 2.34397 0
M  V30 5183 H 503.892 3.60312 0.676062 0
M  V30 5184 H 503.54 3.93801 3.12937 0
M  V30 5185 H 503.24 5.44039 2.22026 0
M  V30 5186 H 504.764 5.24195 3.13133 0
M  V30 5187 H 506.178 5.66206 0.899082 0
M  V30 5188 H 504.575 5.99821 0.182857 0
M  V30 5189 H 505.645 4.81324 -0.587821 0
M  V30 5190 N 506.988 0.0434614 1.5754 0
M  V30 5191 C 508.218 -0.640905 1.96408 0
M  V30 5192 C 508.626 -1.65365 0.919297 0
M  V30 5193 O 507.969 -1.83395 -0.105795 0
M  V30 5194 C 508.031 -1.39141 3.31482 0
M  V30 5195 C 507.695 -0.535375 4.53853 0
M  V30 5196 C 508.692 0.195335 5.19533 0
M  V30 5197 C 506.377 -0.468564 5.0011 0
M  V30 5198 C 508.371 0.981377 6.298 0
M  V30 5199 C 506.058 0.321171 6.10255 0
M  V30 5200 C 507.056 1.04484 6.74961 0
M  V30 5201 O 506.744 1.8216 7.8299 0
M  V30 5202 H 506.476 -0.180584 0.651433 0
M  V30 5203 H 509.03 0.103848 2.05137 0
M  V30 5204 H 507.26 -2.18162 3.19284 0
M  V30 5205 H 508.949 -1.96526 3.55151 0
M  V30 5206 H 509.715 0.15314 4.84758 0
M  V30 5207 H 505.594 -1.02142 4.49542 0
M  V30 5208 H 509.138 1.54674 6.80237 0
M  V30 5209 H 505.035 0.365032 6.44467 0
M  V30 5210 H 505.803 1.74289 7.99728 0
M  V30 5211 N 508.466 -1.55915 -0.229846 0
M  V30 5212 C 509.399 -1.86734 -1.3117 0
M  V30 5213 C 510.377 -0.723947 -1.45595 0
M  V30 5214 O 511.561 -0.971462 -1.61539 0
M  V30 5215 C 508.688 -2.06707 -2.68309 0
M  V30 5216 C 507.734 -3.2938 -2.70944 0
M  V30 5217 S 508.567 -4.85547 -2.25842 0
M  V30 5218 C 509.723 -5.08546 -3.64873 0
M  V30 5219 H 509.956 -2.78204 -1.04832 0
M  V30 5220 H 507.489 -1.48243 -0.431681 0
M  V30 5221 H 509.447 -2.18898 -3.47267 0
M  V30 5222 H 508.108 -1.16049 -2.91876 0
M  V30 5223 H 507.301 -3.40374 -3.71701 0
M  V30 5224 H 506.903 -3.16004 -2.00044 0
M  V30 5225 H 509.195 -4.96935 -4.60502 0
M  V30 5226 H 510.138 -6.10465 -3.58801 0
M  V30 5227 H 510.546 -4.36314 -3.58176 0
M  V30 5228 N 509.944 0.496216 -1.49584 0
M  V30 5229 C 510.854 1.62352 -1.69349 0
M  V30 5230 C 511.87 1.64184 -0.576147 0
M  V30 5231 O 513.046 1.82517 -0.85144 0
M  V30 5232 C 510.111 2.98698 -1.76013 0
M  V30 5233 C 509.172 3.07454 -2.99617 0
M  V30 5234 C 508.405 4.37296 -3.05953 0
M  V30 5235 O 508.628 5.2637 -2.19752 0
M  V30 5236 O 507.562 4.51124 -3.9846 0
M  V30 5237 H 511.388 1.48606 -2.64859 0
M  V30 5238 H 508.973 0.673022 -1.33382 0
M  V30 5239 H 510.855 3.79725 -1.82721 0
M  V30 5240 H 509.53 3.12696 -0.836828 0
M  V30 5241 H 508.437 2.25597 -2.98424 0
M  V30 5242 H 509.77 2.98385 -3.91443 0
M  V30 5243 N 511.423 1.38739 0.74761 0
M  V30 5244 C 512.648 1.38702 1.54197 0
M  V30 5245 C 513.073 -0.019664 1.8809 0
M  V30 5246 O 512.431 -1.00333 1.51006 0
M  V30 5247 C 512.479 2.25492 2.814 0
M  V30 5248 O 511.583 1.67613 3.76802 0
M  V30 5249 H 510.924 0.472863 0.466151 0
M  V30 5250 H 513.454 1.82577 0.923413 0
M  V30 5251 H 513.464 2.39561 3.30264 0
M  V30 5252 H 512.139 3.27727 2.56062 0
M  V30 5253 H 510.716 1.62718 3.35526 0
M  V30 5254 N 512.901 -0.976442 1.23707 0
M  V30 5255 C 514.317 -1.24341 1.00058 0
M  V30 5256 C 514.517 -1.99315 -0.295932 0
M  V30 5257 O 513.573 -2.3123 -1.01435 0
M  V30 5258 C 514.886 -2.03909 2.21001 0
M  V30 5259 C 516.434 -2.17034 2.25534 0
M  V30 5260 C 516.909 -2.99994 3.46075 0
M  V30 5261 N 518.4 -3.07578 3.46338 0
M  V30 5262 C 519.135 -3.72104 4.36264 0
M  V30 5263 N 518.631 -4.3842 5.36432 0
M  V30 5264 N 520.424 -3.69029 4.23998 0
M  V30 5265 H 512.575 -0.47428 2.07037 0
M  V30 5266 H 514.838 -0.272167 0.908091 0
M  V30 5267 H 514.544 -1.56198 3.15111 0
M  V30 5268 H 514.418 -3.04654 2.22409 0
M  V30 5269 H 516.805 -2.63951 1.31961 0
M  V30 5270 H 516.886 -1.15664 2.28156 0
M  V30 5271 H 516.53 -2.53772 4.39957 0
M  V30 5272 H 516.46 -4.01541 3.40694 0
M  V30 5273 H 518.951 -2.60397 2.73865 0
M  V30 5274 H 519.264 -4.85447 6.013 0
M  V30 5275 H 517.609 -4.37116 5.40328 0
M  V30 5276 H 520.8 -3.16392 3.44984 0
M  V30 5277 H 520.973 -4.19034 4.94282 0
M  V30 5278 N 514.379 -1.04941 -1.1758 0
M  V30 5279 C 515.342 -0.652456 -2.19717 0
M  V30 5280 C 516.342 0.294745 -1.58076 0
M  V30 5281 O 517.532 0.0789579 -1.74021 0
M  V30 5282 C 514.664 0.0420712 -3.40874 0
M  V30 5283 H 515.857 -1.55642 -2.5635 0
M  V30 5284 H 513.41 -0.842995 -1.31618 0
M  V30 5285 H 514.145 0.95943 -3.09783 0
M  V30 5286 H 513.93 -0.638844 -3.86861 0
M  V30 5287 H 515.42 0.306 -4.16477 0
M  V30 5288 N 515.857 1.33968 -0.830081 0
M  V30 5289 C 517.134 1.92554 -0.343858 0
M  V30 5290 C 517.514 1.7573 1.16971 0
M  V30 5291 O 516.862 1.14035 1.98011 0
M  V30 5292 C 517.072 3.40147 -0.781073 0
M  V30 5293 C 518.42 4.17299 -0.78402 0
M  V30 5294 O 519.444 3.48762 -0.724112 0
M  V30 5295 O 518.303 5.39631 -0.863739 0
M  V30 5296 H 515.397 0.821469 -0.0954827 0
M  V30 5297 H 517.943 1.42897 -0.915348 0
M  V30 5298 H 516.715 3.46225 -1.82329 0
M  V30 5299 H 516.338 3.97166 -0.18567 0
M  V30 5300 N 517.335 0.585699 1.46312 0
M  V30 5301 C 518.751 0.247607 1.57668 0
M  V30 5302 C 518.951 -1.25007 1.58037 0
M  V30 5303 O 518.007 -2.03196 1.49893 0
M  V30 5304 C 519.32 0.899456 2.86933 0
M  V30 5305 C 520.868 0.873326 3.00569 0
M  V30 5306 C 521.343 1.50477 4.32574 0
M  V30 5307 N 522.834 1.46925 4.3928 0
M  V30 5308 C 523.569 1.92719 5.40044 0
M  V30 5309 N 523.065 2.46499 6.47464 0
M  V30 5310 N 524.858 1.83617 5.31264 0
M  V30 5311 H 517.009 1.55841 1.44317 0
M  V30 5312 H 519.272 0.651564 0.688599 0
M  V30 5313 H 518.978 1.95313 2.92482 0
M  V30 5314 H 518.852 0.409476 3.74971 0
M  V30 5315 H 521.239 -0.171736 2.946 0
M  V30 5316 H 521.32 1.40136 2.13999 0
M  V30 5317 H 520.964 2.54905 4.39302 0
M  V30 5318 H 520.894 0.951944 5.17924 0
M  V30 5319 H 523.385 1.07616 3.62253 0
M  V30 5320 H 523.698 2.79291 7.20567 0
M  V30 5321 H 522.043 2.50526 6.48276 0
M  V30 5322 H 525.234 1.41358 4.46246 0
M  V30 5323 H 525.407 2.19622 6.09648 0
M  V30 5324 N 518.813 -1.54241 0.323641 0
M  V30 5325 C 519.76 -2.24339 -0.542277 0
M  V30 5326 C 520.73 -1.23421 -1.11159 0
M  V30 5327 O 521.915 -1.52104 -1.15192 0
M  V30 5328 C 519.055 -3.00479 -1.69725 0
M  V30 5329 C 518.168 -4.16214 -1.15716 0
M  V30 5330 C 517.303 -4.79884 -2.27783 0
M  V30 5331 C 516.342 -5.87722 -1.71023 0
M  V30 5332 N 515.479 -6.45254 -2.76752 0
M  V30 5333 H 520.319 -2.97935 0.0620613 0
M  V30 5334 H 517.856 -1.47039 0.0423993 0
M  V30 5335 H 519.814 -3.42869 -2.3769 0
M  V30 5336 H 518.444 -2.29217 -2.27288 0
M  V30 5337 H 517.496 -3.78605 -0.369063 0
M  V30 5338 H 518.808 -4.93838 -0.701832 0
M  V30 5339 H 517.962 -5.25243 -3.03651 0
M  V30 5340 H 516.701 -4.01641 -2.76652 0
M  V30 5341 H 515.706 -5.41765 -0.936518 0
M  V30 5342 H 516.931 -6.67863 -1.2303 0
M  V30 5343 H 514.877 -5.69884 -3.24912 0
M  V30 5344 H 514.794 -7.18292 -2.35782 0
M  V30 5345 H 516.062 -6.95269 -3.5245 0
M  V30 5346 N 520.291 -0.0518155 -1.57515 0
M  V30 5347 C 521.221 0.920283 -2.146 0
M  V30 5348 C 522.202 1.32406 -1.06783 0
M  V30 5349 O 523.387 1.39866 -1.34726 0
M  V30 5350 C 520.517 2.1949 -2.6915 0
M  V30 5351 C 519.471 1.93116 -3.81956 0
M  V30 5352 C 518.797 3.27037 -4.23026 0
M  V30 5353 C 520.097 1.25225 -5.07066 0
M  V30 5354 H 521.791 0.444801 -2.96077 0
M  V30 5355 H 519.337 0.212508 -1.42423 0
M  V30 5356 H 521.29 2.87894 -3.07725 0
M  V30 5357 H 520.014 2.69244 -1.84865 0
M  V30 5358 H 518.673 1.27123 -3.43854 0
M  V30 5359 H 518.321 3.74595 -3.3569 0
M  V30 5360 H 518.021 3.10189 -4.99056 0
M  V30 5361 H 519.545 3.96673 -4.64202 0
M  V30 5362 H 520.959 1.83666 -5.43083 0
M  V30 5363 H 519.356 1.18702 -5.88243 0
M  V30 5364 H 520.426 0.228382 -4.84362 0
M  V30 5365 N 521.769 1.56035 0.221574 0
M  V30 5366 C 522.732 1.91584 1.2581 0
M  V30 5367 C 523.732 0.794425 1.39805 0
M  V30 5368 O 524.922 1.06217 1.38071 0
M  V30 5369 C 522.054 2.16663 2.63192 0
M  V30 5370 H 523.247 2.8429 0.954935 0
M  V30 5371 H 520.8 1.49316 0.461988 0
M  V30 5372 H 521.535 1.26508 2.98607 0
M  V30 5373 H 521.32 2.98358 2.5441 0
M  V30 5374 H 522.81 2.45262 3.37988 0
M  V30 5375 N 523.247 -0.488276 1.49845 0
M  V30 5376 C 524.157 -1.61451 1.70207 0
M  V30 5377 C 525.173 -1.63877 0.584846 0
M  V30 5378 O 526.349 -1.82063 0.861107 0
M  V30 5379 C 523.414 -2.9776 1.77594 0
M  V30 5380 C 522.475 -3.05861 3.01243 0
M  V30 5381 C 521.708 -4.35668 3.08268 0
M  V30 5382 O 521.931 -5.25197 2.22541 0
M  V30 5383 O 520.865 -4.49005 4.00847 0
M  V30 5384 H 524.691 -1.47199 2.65643 0
M  V30 5385 H 522.276 -0.665939 1.33737 0
M  V30 5386 H 524.158 -3.7875 1.84732 0
M  V30 5387 H 522.833 -3.12248 0.8534 0
M  V30 5388 H 521.74 -2.24012 2.99616 0
M  V30 5389 H 523.073 -2.96304 3.9302 0
M  V30 5390 N 524.725 -1.39134 -0.740242 0
M  V30 5391 C 525.971 -1.36273 -1.50192 0
M  V30 5392 C 526.304 0.0430136 -1.94152 0
M  V30 5393 O 525.579 1.00691 -1.66408 0
M  V30 5394 C 525.862 -2.33041 -2.74525 0
M  V30 5395 C 525.715 -3.82535 -2.36617 0
M  V30 5396 C 527.034 -2.27723 -3.76604 0
M  V30 5397 H 524.153 -0.496323 -0.544823 0
M  V30 5398 H 526.795 -1.70085 -0.846815 0
M  V30 5399 H 524.945 -2.04337 -3.30422 0
M  V30 5400 H 526.617 -4.21967 -1.86391 0
M  V30 5401 H 524.86 -3.99565 -1.68909 0
M  V30 5402 H 525.531 -4.45723 -3.2563 0
M  V30 5403 H 528.007 -2.53091 -3.30279 0
M  V30 5404 H 526.883 -2.97519 -4.61274 0
M  V30 5405 H 527.144 -1.28049 -4.2315 0
M  V30 5406 N 526.204 0.969867 -1.24223 0
M  V30 5407 C 527.452 1.70918 -1.0785 0
M  V30 5408 C 527.773 1.91186 0.383763 0
M  V30 5409 O 527.043 1.48806 1.27411 0
M  V30 5410 H 525.623 0.633334 -0.396103 0
M  V30 5411 H 528.285 1.16689 -1.56108 0
M  V30 5412 H 527.381 2.69455 -1.57482 0
M  V30 5413 N 527.682 1.05563 1.17022 0
M  V30 5414 C 529.098 0.777684 1.39371 0
M  V30 5415 C 529.298 -0.626269 1.91521 0
M  V30 5416 O 528.354 -1.38806 2.10924 0
M  V30 5417 C 529.667 1.83642 2.3811 0
M  V30 5418 C 531.215 1.85907 2.51809 0
M  V30 5419 C 531.69 2.90813 3.53824 0
M  V30 5420 N 533.181 2.898 3.61345 0
M  V30 5421 C 533.916 3.6762 4.40049 0
M  V30 5422 N 533.412 4.55237 5.22237 0
M  V30 5423 N 535.205 3.56044 4.34959 0
M  V30 5424 H 527.356 1.9614 0.815047 0
M  V30 5425 H 529.619 0.849527 0.420722 0
M  V30 5426 H 529.325 2.84425 2.06871 0
M  V30 5427 H 529.199 1.6812 3.37662 0
M  V30 5428 H 531.586 0.857865 2.82356 0
M  V30 5429 H 531.667 2.05506 1.52318 0
M  V30 5430 H 531.311 3.91122 3.24015 0
M  V30 5431 H 531.241 2.68465 4.53028 0
M  V30 5432 H 533.732 2.26274 3.02669 0
M  V30 5433 H 534.045 5.11291 5.79484 0
M  V30 5434 H 532.39 4.59296 5.21605 0
M  V30 5435 H 535.581 2.86986 3.69806 0
M  V30 5436 H 535.754 4.16938 4.96051 0
M  V30 5437 N 529.16 -1.33526 0.837174 0
M  V30 5438 C 530.406 -1.9813 0.432704 0
M  V30 5439 C 530.739 -1.66168 -1.00508 0
M  V30 5440 O 530.014 -0.94069 -1.70239 0
M  V30 5441 C 530.297 -3.54151 0.651834 0
M  V30 5442 C 530.15 -3.95806 2.13676 0
M  V30 5443 C 531.469 -4.39993 0.0968937 0
M  V30 5444 H 528.588 -0.719713 0.15869 0
M  V30 5445 H 531.23 -1.58193 1.05237 0
M  V30 5446 H 529.38 -3.88301 0.124369 0
M  V30 5447 H 531.052 -3.71921 2.72896 0
M  V30 5448 H 529.295 -3.45599 2.62191 0
M  V30 5449 H 529.966 -5.0447 2.24084 0
M  V30 5450 H 532.442 -4.12479 0.547733 0
M  V30 5451 H 531.318 -5.48186 0.279917 0
M  V30 5452 H 531.579 -4.3066 -0.9992 0
M  V30 5453 N 530.638 -0.59345 -1.46 0
M  V30 5454 C 531.868 -0.0889642 -2.06408 0
M  V30 5455 C 532.276 1.22597 -1.44106 0
M  V30 5456 O 531.619 1.75448 -0.544398 0
M  V30 5457 C 531.681 0.139902 -3.59228 0
M  V30 5458 C 531.345 -1.09107 -4.43784 0
M  V30 5459 C 532.342 -2.00577 -4.79651 0
M  V30 5460 C 530.027 -1.31593 -4.84756 0
M  V30 5461 C 532.021 -3.12873 -5.55328 0
M  V30 5462 C 529.708 -2.44192 -5.60191 0
M  V30 5463 C 530.706 -3.34661 -5.95392 0
M  V30 5464 O 530.394 -4.45302 -6.69299 0
M  V30 5465 H 530.126 -0.0594613 -0.67338 0
M  V30 5466 H 532.68 -0.817 -1.88452 0
M  V30 5467 H 530.91 0.922672 -3.75531 0
M  V30 5468 H 532.599 0.594228 -4.01527 0
M  V30 5469 H 533.365 -1.84425 -4.48567 0
M  V30 5470 H 529.244 -0.620801 -4.56801 0
M  V30 5471 H 532.788 -3.83511 -5.82722 0
M  V30 5472 H 528.685 -2.60303 -5.90688 0
M  V30 5473 H 529.453 -4.43805 -6.87735 0
M  V30 5474 N 532.116 1.54067 -0.331816 0
M  V30 5475 C 533.046 2.27569 0.522932 0
M  V30 5476 C 534.027 1.28679 1.11247 0
M  V30 5477 O 535.212 1.57504 1.13605 0
M  V30 5478 C 532.342 3.0397 1.67987 0
M  V30 5479 C 531.296 4.10267 1.21924 0
M  V30 5480 C 530.622 4.74555 2.46377 0
M  V30 5481 C 531.922 5.21268 0.32815 0
M  V30 5482 H 533.616 2.99264 -0.0901977 0
M  V30 5483 H 531.162 1.4393 -0.044821 0
M  V30 5484 H 533.115 3.54123 2.28418 0
M  V30 5485 H 531.839 2.29906 2.31971 0
M  V30 5486 H 530.498 3.61009 0.637809 0
M  V30 5487 H 530.146 3.97098 3.08743 0
M  V30 5488 H 529.846 5.46363 2.16243 0
M  V30 5489 H 531.37 5.27487 3.07555 0
M  V30 5490 H 532.784 5.67128 0.838978 0
M  V30 5491 H 531.181 5.99982 0.119228 0
M  V30 5492 H 532.251 4.80673 -0.638839 0
M  V30 5493 N 533.594 0.0601682 1.57485 0
M  V30 5494 C 534.841 -0.611594 1.93043 0
M  V30 5495 C 535.169 -1.70317 0.939274 0
M  V30 5496 O 534.424 -1.95644 -0.046996 0
M  V30 5497 C 534.723 -1.23831 3.35262 0
M  V30 5498 C 534.389 -0.274037 4.50066 0
M  V30 5499 C 533.051 -0.00872394 4.81199 0
M  V30 5500 C 535.403 0.386308 5.19766 0
M  V30 5501 C 532.731 0.924218 5.79375 0
M  V30 5502 C 535.083 1.3075 6.1894 0
M  V30 5503 C 533.747 1.58139 6.48497 0
M  V30 5504 H 533.017 -0.223798 0.706396 0
M  V30 5505 H 535.664 0.128566 1.91068 0
M  V30 5506 H 533.969 -2.05394 3.33647 0
M  V30 5507 H 535.666 -1.76517 3.60059 0
M  V30 5508 H 532.256 -0.491008 4.25778 0
M  V30 5509 H 536.44 0.194436 4.95919 0
M  V30 5510 H 531.696 1.1438 6.00606 0
M  V30 5511 H 535.87 1.82519 6.72056 0
M  V30 5512 H 533.497 2.30593 7.24383 0
M  V30 5513 N 535.072 -1.5615 -0.213296 0
M  V30 5514 C 536.002 -1.96109 -1.26742 0
M  V30 5515 C 536.983 -0.830448 -1.48451 0
M  V30 5516 O 538.168 -1.09339 -1.60495 0
M  V30 5517 C 535.298 -2.28492 -2.61551 0
M  V30 5518 C 534.252 -3.44124 -2.54485 0
M  V30 5519 C 533.578 -3.62134 -3.93399 0
M  V30 5520 C 534.878 -4.78855 -2.08556 0
M  V30 5521 H 536.572 -2.84412 -0.935434 0
M  V30 5522 H 534.118 -1.36836 -0.44854 0
M  V30 5523 H 536.071 -2.55039 -3.3546 0
M  V30 5524 H 534.795 -1.37052 -2.96453 0
M  V30 5525 H 533.454 -3.17639 -1.83033 0
M  V30 5526 H 533.102 -2.68055 -4.25623 0
M  V30 5527 H 532.802 -4.39913 -3.89551 0
M  V30 5528 H 534.326 -3.91038 -4.68958 0
M  V30 5529 H 535.74 -5.04552 -2.72213 0
M  V30 5530 H 534.137 -5.59975 -2.1575 0
M  V30 5531 H 535.207 -4.73657 -1.03811 0
M  V30 5532 N 536.55 0.480323 -1.50102 0
M  V30 5533 C 537.482 1.59669 -1.64433 0
M  V30 5534 C 538.495 1.54063 -0.52615 0
M  V30 5535 O 539.684 1.59619 -0.798992 0
M  V30 5536 C 536.784 2.98527 -1.6042 0
M  V30 5537 C 535.957 3.291 -2.88117 0
M  V30 5538 C 535.016 4.47468 -2.76873 0
M  V30 5539 O 534.042 4.4823 -3.50825 0
M  V30 5540 N 535.244 5.48593 -1.89806 0
M  V30 5541 H 538.009 1.47795 -2.60723 0
M  V30 5542 H 535.57 0.66858 -1.4745 0
M  V30 5543 H 537.562 3.75666 -1.50523 0
M  V30 5544 H 536.132 3.04218 -0.719036 0
M  V30 5545 H 535.352 2.40662 -3.12211 0
M  V30 5546 H 536.64 3.46334 -3.72734 0
M  V30 5547 H 536.038 5.50791 -1.2902 0
M  V30 5548 H 534.595 6.24752 -1.85819 0
M  V30 5549 N 538.028 1.39524 0.732853 0
M  V30 5550 C 539.439 1.32905 1.31122 0
M  V30 5551 C 539.79 -0.00558708 1.96199 0
M  V30 5552 O 538.915 -0.907706 1.96443 0
M  V30 5553 C 539.51 2.40704 2.38426 0
M  V30 5554 C 538.069 2.37599 2.91931 0
M  V30 5555 C 537.216 2.2248 1.65523 0
M  V30 5556 H 540.167 1.49581 0.530207 0
M  V30 5557 H 540.188 2.07616 3.18867 0
M  V30 5558 H 539.7 3.37829 1.91033 0
M  V30 5559 H 537.801 1.44119 3.43599 0
M  V30 5560 H 537.914 3.32538 3.44899 0
M  V30 5561 H 536.278 1.69691 1.8994 0
M  V30 5562 H 537.061 3.21577 1.20178 0
M  V30 5563 N 539.506 -0.963266 1.24736 0
M  V30 5564 C 540.922 -1.23273 1.01371 0
M  V30 5565 C 541.122 -1.99618 -0.274776 0
M  V30 5566 O 540.178 -2.32293 -0.989769 0
M  V30 5567 C 541.491 -2.01554 2.23152 0
M  V30 5568 C 543.039 -2.14629 2.27823 0
M  V30 5569 C 543.514 -2.96307 3.49237 0
M  V30 5570 N 545.005 -3.03887 3.49581 0
M  V30 5571 C 545.74 -3.67456 4.40186 0
M  V30 5572 N 545.236 -4.32706 5.41052 0
M  V30 5573 N 547.029 -3.64511 4.27888 0
M  V30 5574 H 539.18 -0.452294 2.07528 0
M  V30 5575 H 541.443 -0.262521 0.910926 0
M  V30 5576 H 541.149 -1.52847 3.1675 0
M  V30 5577 H 541.023 -3.02278 2.25628 0
M  V30 5578 H 543.41 -2.62537 1.34753 0
M  V30 5579 H 543.491 -1.13238 2.2937 0
M  V30 5580 H 543.135 -2.49091 4.42624 0
M  V30 5581 H 543.065 -3.97905 3.44933 0
M  V30 5582 H 545.556 -2.57477 2.76611 0
M  V30 5583 H 545.869 -4.79042 6.06415 0
M  V30 5584 H 544.214 -4.31361 5.44934 0
M  V30 5585 H 547.405 -3.12715 3.4832 0
M  V30 5586 H 547.578 -4.13768 4.98698 0
M  V30 5587 N 540.985 -1.06182 -1.16461 0
M  V30 5588 C 542.233 -0.776326 -1.86595 0
M  V30 5589 C 542.554 0.69921 -1.82033 0
M  V30 5590 O 541.824 1.50579 -1.2531 0
M  V30 5591 H 540.404 -0.284184 -0.690832 0
M  V30 5592 H 543.066 -1.34308 -1.41235 0
M  V30 5593 H 542.162 -1.10022 -2.92064 0
M  V30 5594 N 542.463 1.3308 -0.844243 0
M  V30 5595 C 543.874 1.7992 -0.498566 0
M  V30 5596 C 544.225 1.69808 0.982834 0
M  V30 5597 O 543.35 1.25051 1.7661 0
M  V30 5598 C 543.945 3.26677 -0.898204 0
M  V30 5599 C 542.504 3.71513 -0.604583 0
M  V30 5600 C 541.651 2.54393 -1.10362 0
M  V30 5601 H 544.602 1.20526 -1.03244 0
M  V30 5602 H 544.623 3.79918 -0.21039 0
M  V30 5603 H 544.135 3.34004 -1.97643 0
M  V30 5604 H 542.236 3.69708 0.46335 0
M  V30 5605 H 542.349 4.64755 -1.16358 0
M  V30 5606 H 540.713 2.49246 -0.524273 0
M  V30 5607 H 541.496 2.6448 -2.18873 0
M  V30 5608 N 543.941 0.601185 1.45683 0
M  V30 5609 C 544.891 -0.142686 2.27553 0
M  V30 5610 C 545.875 -0.844598 1.3695 0
M  V30 5611 O 547.067 -0.735644 1.60988 0
M  V30 5612 C 544.196 -1.14364 3.23691 0
M  V30 5613 C 543.282 -0.442894 4.21781 0
M  V30 5614 N 543.673 0.51189 5.03203 0
M  V30 5615 C 541.971 -0.691277 4.4061 0
M  V30 5616 C 542.672 0.92318 5.74328 0
M  V30 5617 N 541.648 0.268308 5.42937 0
M  V30 5618 H 545.45 0.590736 2.87902 0
M  V30 5619 H 542.964 0.424365 1.56757 0
M  V30 5620 H 544.961 -1.6909 3.8107 0
M  V30 5621 H 543.621 -1.87768 2.64902 0
M  V30 5622 H 544.632 0.888329 5.10225 0
M  V30 5623 H 541.309 -1.41049 3.92952 0
M  V30 5624 H 542.699 1.71029 6.49768 0
M  V30 5625 N 545.419 -1.53889 0.339982 0
M  V30 5626 C 546.382 -2.23547 -0.50592 0
M  V30 5627 C 547.382 -1.23445 -1.03044 0
M  V30 5628 O 548.572 -1.47909 -0.920253 0
M  V30 5629 C 545.704 -2.95234 -1.7044 0
M  V30 5630 H 546.897 -2.99722 0.103247 0
M  V30 5631 H 544.45 -1.56033 0.0912804 0
M  V30 5632 H 545.185 -2.23236 -2.35236 0
M  V30 5633 H 544.97 -3.68654 -1.33553 0
M  V30 5634 H 546.46 -3.48258 -2.30447 0
M  V30 5635 N 546.897 -0.0685191 -1.57451 0
M  V30 5636 C 547.827 0.89747 -2.15564 0
M  V30 5637 C 548.808 1.31266 -1.08181 0
M  V30 5638 O 549.993 1.38429 -1.36202 0
M  V30 5639 C 547.123 2.16623 -2.71463 0
M  V30 5640 C 546.077 1.89054 -3.83982 0
M  V30 5641 C 545.403 3.22532 -4.26471 0
M  V30 5642 C 546.703 1.1984 -5.08366 0
M  V30 5643 H 548.397 0.413373 -2.96533 0
M  V30 5644 H 545.943 0.197391 -1.42641 0
M  V30 5645 H 547.896 2.84614 -3.10761 0
M  V30 5646 H 546.62 2.67269 -1.8771 0
M  V30 5647 H 545.279 1.23469 -3.45183 0
M  V30 5648 H 544.927 3.71013 -3.39644 0
M  V30 5649 H 544.627 3.04879 -5.02317 0
M  V30 5650 H 546.151 3.91727 -4.68383 0
M  V30 5651 H 547.565 1.77896 -5.45001 0
M  V30 5652 H 545.962 1.12456 -5.89469 0
M  V30 5653 H 547.032 0.176996 -4.84577 0
M  V30 5654 N 548.375 1.56261 0.205012 0
M  V30 5655 C 549.623 1.79684 0.925096 0
M  V30 5656 C 549.944 0.63989 1.84202 0
M  V30 5657 O 549.214 -0.342345 1.92885 0
M  V30 5658 H 547.794 0.662774 0.344587 0
M  V30 5659 H 550.456 1.93734 0.212899 0
M  V30 5660 H 549.552 2.72467 1.52211 0
M  V30 5661 N 549.853 -0.472356 1.50355 0
M  V30 5662 C 550.816 -1.5529 1.68576 0
M  V30 5663 C 551.816 -1.50863 0.556511 0
M  V30 5664 O 553.006 -1.53505 0.823516 0
M  V30 5665 C 550.138 -2.94921 1.70981 0
M  V30 5666 H 551.331 -1.40451 2.64978 0
M  V30 5667 H 548.884 -0.698645 1.39816 0
M  V30 5668 H 549.619 -3.15204 0.762675 0
M  V30 5669 H 549.404 -2.99541 2.53017 0
M  V30 5670 H 550.894 -3.73372 1.87037 0
M  V30 5671 N 551.331 -1.39911 -0.725443 0
M  V30 5672 C 552.742 -1.33599 -1.30415 0
M  V30 5673 C 553.093 -0.00481792 -1.96199 0
M  V30 5674 O 552.218 0.897275 -1.96921 0
M  V30 5675 C 552.813 -2.41965 -2.37146 0
M  V30 5676 C 551.372 -2.39144 -2.90667 0
M  V30 5677 C 550.519 -2.23355 -1.64341 0
M  V30 5678 H 553.47 -1.4986 -0.522267 0
M  V30 5679 H 553.491 -2.09304 -3.17761 0
M  V30 5680 H 553.003 -3.38837 -1.89238 0
M  V30 5681 H 551.104 -1.4594 -3.4283 0
M  V30 5682 H 551.217 -3.34362 -3.43131 0
M  V30 5683 H 549.581 -1.70696 -1.89037 0
M  V30 5684 H 550.364 -3.2221 -1.18471 0
M  V30 5685 N 552.809 0.956637 -1.25245 0
M  V30 5686 C 554.034 1.74104 -1.12706 0
M  V30 5687 C 554.459 1.85436 0.315429 0
M  V30 5688 O 553.817 1.33334 1.22848 0
M  V30 5689 C 553.865 3.1338 -1.78396 0
M  V30 5690 O 552.969 3.98485 -1.06224 0
M  V30 5691 H 552.31 0.53476 -0.393609 0
M  V30 5692 H 554.84 1.19924 -1.65769 0
M  V30 5693 H 554.85 3.6385 -1.846 0
M  V30 5694 H 553.525 3.04448 -2.83345 0
M  V30 5695 H 552.102 3.56952 -1.07886 0
M  V30 5696 N 554.287 1.06798 1.15896 0
M  V30 5697 C 555.217 0.704677 2.22613 0
M  V30 5698 C 556.198 -0.305252 1.67339 0
M  V30 5699 O 557.383 -0.179247 1.93371 0
M  V30 5700 C 554.513 0.0957325 3.47168 0
M  V30 5701 C 553.467 1.0322 4.15367 0
M  V30 5702 C 552.793 0.286293 5.33933 0
M  V30 5703 C 554.093 2.36341 4.65768 0
M  V30 5704 H 555.787 1.59688 2.53259 0
M  V30 5705 H 553.333 0.769257 1.21731 0
M  V30 5706 H 555.286 -0.170333 4.21056 0
M  V30 5707 H 554.01 -0.831516 3.15838 0
M  V30 5708 H 552.669 1.28309 3.43413 0
M  V30 5709 H 552.317 -0.644237 4.98857 0
M  V30 5710 H 552.017 0.910436 5.80504 0
M  V30 5711 H 553.541 0.0278938 6.10594 0
M  V30 5712 H 554.955 2.1561 5.31211 0
M  V30 5713 H 553.352 2.94299 5.2298 0
M  V30 5714 H 554.422 2.99047 3.81705 0
M  V30 5715 N 555.766 -1.3263 0.851289 0
M  V30 5716 C 556.696 -2.31449 0.308771 0
M  V30 5717 C 557.677 -1.59531 -0.590255 0
M  V30 5718 O 558.862 -1.87351 -0.511205 0
M  V30 5719 C 555.992 -3.43586 -0.506548 0
M  V30 5720 C 554.946 -4.26963 0.297753 0
M  V30 5721 C 554.272 -5.30831 -0.642094 0
M  V30 5722 C 555.572 -4.99643 1.52166 0
M  V30 5723 H 557.266 -2.77074 1.13447 0
M  V30 5724 H 554.812 -1.33207 0.546971 0
M  V30 5725 H 556.765 -4.11754 -0.896474 0
M  V30 5726 H 555.489 -2.96681 -1.36558 0
M  V30 5727 H 554.148 -3.60437 0.669391 0
M  V30 5728 H 553.796 -4.8018 -1.49788 0
M  V30 5729 H 553.496 -5.87501 -0.107968 0
M  V30 5730 H 555.02 -6.01862 -1.02927 0
M  V30 5731 H 556.434 -5.6051 1.20421 0
M  V30 5732 H 554.831 -5.66022 1.99347 0
M  V30 5733 H 555.901 -4.27701 2.28474 0
M  V30 5734 N 557.244 -0.608902 -1.45362 0
M  V30 5735 C 558.174 0.0964526 -2.33301 0
M  V30 5736 C 559.155 0.857444 -1.46908 0
M  V30 5737 O 560.34 0.827735 -1.75676 0
M  V30 5738 C 557.47 1.09354 -3.29635 0
M  V30 5739 C 556.424 0.445676 -4.25673 0
M  V30 5740 C 555.75 1.5511 -5.11708 0
M  V30 5741 C 557.05 -0.633972 -5.18438 0
M  V30 5742 H 558.744 -0.637829 -2.92527 0
M  V30 5743 H 556.29 -0.308178 -1.40664 0
M  V30 5744 H 558.243 1.59556 -3.90025 0
M  V30 5745 H 556.967 1.85843 -2.6857 0
M  V30 5746 H 555.626 -0.0354897 -3.66583 0
M  V30 5747 H 555.274 2.30631 -4.4701 0
M  V30 5748 H 554.974 1.12311 -5.76767 0
M  V30 5749 H 556.498 2.05537 -5.74967 0
M  V30 5750 H 557.912 -0.215974 -5.72893 0
M  V30 5751 H 556.309 -0.983789 -5.91981 0
M  V30 5752 H 557.379 -1.51005 -4.60788 0
M  V30 5753 N 558.722 1.53707 -0.348139 0
M  V30 5754 C 559.95 2.05406 0.248224 0
M  V30 5755 C 560.365 1.22282 1.43849 0
M  V30 5756 O 559.722 0.259244 1.80649 0
M  V30 5757 C 559.773 3.55446 0.658793 0
M  V30 5758 O 559.494 4.35417 -0.484149 0
M  V30 5759 C 560.995 4.23335 1.31539 0
M  V30 5760 H 558.215 0.669344 0.0471075 0
M  V30 5761 H 560.759 1.98257 -0.501456 0
M  V30 5762 H 558.914 3.62803 1.35841 0
M  V30 5763 H 559.328 5.24268 -0.155949 0
M  V30 5764 H 560.802 5.29692 1.55338 0
M  V30 5765 H 561.279 3.75967 2.27036 0
M  V30 5766 H 561.885 4.20184 0.657683 0
M  V30 5767 N 560.2 0.0768682 1.57412 0
M  V30 5768 C 561.448 -0.589918 1.93299 0
M  V30 5769 C 561.769 -1.69842 0.958049 0
M  V30 5770 O 561.039 -1.95899 0.00703261 0
M  V30 5771 H 559.619 -0.220901 0.713591 0
M  V30 5772 H 562.281 0.135917 1.94425 0
M  V30 5773 H 561.377 -1.01195 2.95239 0
M  V30 5774 N 561.678 -1.56367 -0.196722 0
M  V30 5775 C 562.906 -1.84639 -0.933608 0
M  V30 5776 C 563.321 -0.659164 -1.76919 0
M  V30 5777 O 562.678 0.372142 -1.78665 0
M  V30 5778 C 562.729 -3.11694 -1.83109 0
M  V30 5779 O 562.45 -4.25838 -1.02924 0
M  V30 5780 C 563.951 -3.53132 -2.67979 0
M  V30 5781 H 561.171 -0.613188 -0.272473 0
M  V30 5782 H 563.715 -2.03475 -0.204465 0
M  V30 5783 H 561.87 -2.94759 -2.51387 0
M  V30 5784 H 562.284 -4.98178 -1.64069 0
M  V30 5785 H 563.758 -4.45005 -3.26611 0
M  V30 5786 H 564.235 -2.76045 -3.41608 0
M  V30 5787 H 564.841 -3.72592 -2.05074 0
M  V30 5788 N 563.156 0.464375 -1.50603 0
M  V30 5789 C 564.088 1.57916 -1.66118 0
M  V30 5790 C 565.101 1.53497 -0.54246 0
M  V30 5791 O 566.29 1.58763 -0.815877 0
M  V30 5792 C 563.39 2.96809 -1.63577 0
M  V30 5793 C 562.563 3.26026 -2.91592 0
M  V30 5794 C 561.622 4.44506 -2.81604 0
M  V30 5795 O 560.648 4.44484 -3.55559 0
M  V30 5796 N 561.85 5.46549 -1.95614 0
M  V30 5797 H 564.615 1.45022 -2.62276 0
M  V30 5798 H 562.176 0.652903 -1.48151 0
M  V30 5799 H 564.168 3.74048 -1.54499 0
M  V30 5800 H 562.738 3.03438 -0.751262 0
M  V30 5801 H 561.958 2.37337 -3.14746 0
M  V30 5802 H 563.246 3.42361 -3.76386 0
M  V30 5803 H 562.644 5.49391 -1.34854 0
M  V30 5804 H 561.201 6.22746 -1.92435 0
M  V30 5805 N 564.634 1.40294 0.718013 0
M  V30 5806 C 565.564 1.43118 1.84498 0
M  V30 5807 C 566.545 0.292403 1.67568 0
M  V30 5808 O 567.73 0.500675 1.87635 0
M  V30 5809 C 564.86 1.29065 3.22427 0
M  V30 5810 C 563.814 2.40521 3.54025 0
M  V30 5811 C 563.14 2.11546 4.91073 0
M  V30 5812 C 564.44 3.82859 3.55269 0
M  V30 5813 H 566.134 2.37432 1.82391 0
M  V30 5814 H 563.68 1.14283 0.87609 0
M  V30 5815 H 565.633 1.29658 4.00957 0
M  V30 5816 H 564.357 0.312271 3.25104 0
M  V30 5817 H 563.016 2.39173 2.77834 0
M  V30 5818 H 562.664 1.12104 4.90348 0
M  V30 5819 H 562.364 2.86216 5.1318 0
M  V30 5820 H 563.888 2.13817 5.71939 0
M  V30 5821 H 565.302 3.86044 4.23843 0
M  V30 5822 H 563.699 4.57029 3.88902 0
M  V30 5823 H 564.769 4.12617 2.54706 0
M  V30 5824 N 566.112 -0.949982 1.2575 0
M  V30 5825 C 567.342 -1.72721 1.13363 0
M  V30 5826 C 567.75 -1.86562 -0.314842 0
M  V30 5827 O 567.093 -1.36621 -1.22803 0
M  V30 5828 C 567.155 -3.15695 1.7198 0
M  V30 5829 C 566.819 -3.25268 3.21014 0
M  V30 5830 C 567.816 -3.09222 4.17945 0
M  V30 5831 C 565.501 -3.4894 3.61312 0
M  V30 5832 C 567.495 -3.16701 5.53154 0
M  V30 5833 C 565.182 -3.56055 4.96657 0
M  V30 5834 C 566.18 -3.3995 5.92387 0
M  V30 5835 O 565.868 -3.46757 7.25269 0
M  V30 5836 H 565.6 -0.547888 0.395973 0
M  V30 5837 H 568.154 -1.20009 1.66694 0
M  V30 5838 H 566.384 -3.69791 1.13101 0
M  V30 5839 H 568.073 -3.75295 1.54624 0
M  V30 5840 H 568.839 -2.90798 3.88151 0
M  V30 5841 H 564.718 -3.60534 2.87291 0
M  V30 5842 H 568.262 -3.04048 6.27854 0
M  V30 5843 H 564.159 -3.73997 5.26115 0
M  V30 5844 H 564.927 -3.63358 7.33426 0
M  V30 5845 N 567.59 -1.07411 -1.15328 0
M  V30 5846 C 568.838 -0.796073 -1.85761 0
M  V30 5847 C 569.159 0.679864 -1.82764 0
M  V30 5848 O 568.429 1.49242 -1.269 0
M  V30 5849 H 567.009 -0.291495 -0.687779 0
M  V30 5850 H 569.671 -1.35799 -1.39802 0
M  V30 5851 H 568.767 -1.13114 -2.90881 0
M  V30 5852 N 569.068 1.32177 -0.85831 0
M  V30 5853 C 570.484 1.49873 -0.548656 0
M  V30 5854 C 570.684 1.79278 0.919874 0
M  V30 5855 O 569.74 1.86451 1.70271 0
M  V30 5856 C 571.053 2.64043 -1.4388 0
M  V30 5857 C 572.601 2.77928 -1.43961 0
M  V30 5858 C 573.076 3.95182 -2.31506 0
M  V30 5859 N 574.567 4.0245 -2.29321 0
M  V30 5860 C 575.302 4.9242 -2.93786 0
M  V30 5861 N 574.798 5.87373 -3.67376 0
M  V30 5862 N 576.591 4.85572 -2.83155 0
M  V30 5863 H 568.742 1.11357 -1.80868 0
M  V30 5864 H 571.005 0.549175 -0.772729 0
M  V30 5865 H 570.711 2.49055 -2.48324 0
M  V30 5866 H 570.585 3.59912 -1.12885 0
M  V30 5867 H 572.972 2.92338 -0.402813 0
M  V30 5868 H 573.053 1.82762 -1.78974 0
M  V30 5869 H 572.697 3.81531 -3.35256 0
M  V30 5870 H 572.627 4.89633 -1.93823 0
M  V30 5871 H 575.118 3.34507 -1.75822 0
M  V30 5872 H 575.431 6.52728 -4.13722 0
M  V30 5873 H 573.776 5.87388 -3.71484 0
M  V30 5874 H 576.967 4.10363 -2.25211 0
M  V30 5875 H 577.14 5.55486 -3.33676 0
M  V30 5876 N 570.547 0.616602 1.45037 0
M  V30 5877 C 571.794 0.115331 2.02171 0
M  V30 5878 C 572.122 -1.25748 1.48383 0
M  V30 5879 O 571.377 -1.84511 0.652229 0
M  V30 5880 C 571.676 0.0356829 3.57382 0
M  V30 5881 C 571.342 1.34535 4.30362 0
M  V30 5882 C 570.004 1.70408 4.50016 0
M  V30 5883 C 572.356 2.21049 4.72003 0
M  V30 5884 C 569.684 2.92529 5.0857 0
M  V30 5885 C 572.036 3.42427 5.31908 0
M  V30 5886 C 570.7 3.78541 5.49784 0
M  V30 5887 H 569.97 0.0422024 0.739797 0
M  V30 5888 H 572.617 0.80002 1.73988 0
M  V30 5889 H 570.922 -0.732314 3.84895 0
M  V30 5890 H 572.619 -0.368463 3.99304 0
M  V30 5891 H 569.209 1.05615 4.15383 0
M  V30 5892 H 573.393 1.94632 4.56544 0
M  V30 5893 H 568.649 3.20605 5.20598 0
M  V30 5894 H 572.823 4.09709 5.63127 0
M  V30 5895 H 570.45 4.73255 5.94923 0
M  V30 5896 N 572.025 -1.5352 0.356285 0
M  V30 5897 C 573.273 -2.00719 -0.235837 0
M  V30 5898 C 573.594 -1.24551 -1.5004 0
M  V30 5899 O 572.864 -0.356185 -1.92635 0
M  V30 5900 H 571.444 -0.741542 -0.0901366 0
M  V30 5901 H 574.106 -1.88887 0.480378 0
M  V30 5902 H 573.202 -3.08551 -0.469357 0
M  V30 5903 N 573.503 -0.0852151 -1.57369 0
M  V30 5904 C 574.728 0.592872 -1.98746 0
M  V30 5905 C 575.153 1.61538 -0.963689 0
M  V30 5906 O 574.511 1.81168 0.069071 0
M  V30 5907 C 574.559 1.22599 -3.39119 0
M  V30 5908 O 573.663 2.34185 -3.39457 0
M  V30 5909 H 573.004 0.151314 -0.646529 0
M  V30 5910 H 575.534 -0.163703 -2.03944 0
M  V30 5911 H 575.544 1.56965 -3.76598 0
M  V30 5912 H 574.219 0.476831 -4.13158 0
M  V30 5913 H 572.796 2.01512 -3.13763 0
M  V30 5914 N 574.981 1.5647 0.188427 0
M  V30 5915 C 575.944 1.9421 1.21718 0
M  V30 5916 C 576.944 0.823901 1.38089 0
M  V30 5917 O 578.134 1.09122 1.35787 0
M  V30 5918 C 575.266 2.22197 2.58537 0
M  V30 5919 H 576.459 2.86252 0.894418 0
M  V30 5920 H 574.012 1.50263 0.430211 0
M  V30 5921 H 574.747 1.32814 2.95856 0
M  V30 5922 H 574.532 3.03688 2.48025 0
M  V30 5923 H 576.022 2.52376 3.3271 0
M  V30 5924 N 576.459 -0.456382 1.50847 0
M  V30 5925 C 577.708 -1.2042 1.61808 0
M  V30 5926 C 578.021 -1.9278 0.330932 0
M  V30 5927 O 579.227 -2.69612 0.319643 0
M  V30 5928 C 577.683 -2.18891 2.85683 0
M  V30 5929 C 577.291 -1.52267 4.2133 0
M  V30 5930 C 579.035 -2.94224 3.05994 0
M  V30 5931 C 576.942 -2.4911 5.36375 0
M  V30 5932 H 575.872 -0.453177 0.602616 0
M  V30 5933 H 578.523 -0.473144 1.77295 0
M  V30 5934 H 576.905 -2.95351 2.63787 0
M  V30 5935 H 578.079 -0.814949 4.53536 0
M  V30 5936 H 576.394 -0.891594 4.06743 0
M  V30 5937 H 578.991 -3.66732 3.89117 0
M  V30 5938 H 579.334 -3.54469 2.18306 0
M  V30 5939 H 579.867 -2.24874 3.28141 0
M  V30 5940 H 576.606 -1.93582 6.26264 0
M  V30 5941 H 576.126 -3.17991 5.08569 0
M  V30 5942 H 577.805 -3.10637 5.67551 0
M  V30 5943 N 577.937 -1.40673 -0.710563 0
M  V30 5944 C 578.9 -1.4108 -1.80635 0
M  V30 5945 C 579.9 -0.303783 -1.57904 0
M  V30 5946 O 581.09 -0.562937 -1.64853 0
M  V30 5947 C 578.222 -1.20748 -3.18799 0
M  V30 5948 H 579.415 -2.38612 -1.81671 0
M  V30 5949 H 576.968 -1.26595 -0.916704 0
M  V30 5950 H 577.703 -0.239964 -3.23411 0
M  V30 5951 H 577.488 -2.00941 -3.36698 0
M  V30 5952 H 578.978 -1.23833 -3.98817 0
M  V30 5953 N 579.415 0.9433 -1.26252 0
M  V30 5954 C 580.826 1.50404 -1.10614 0
M  V30 5955 C 581.177 1.93666 0.31429 0
M  V30 5956 O 580.302 1.79709 1.20555 0
M  V30 5957 C 580.897 2.73336 -2.00182 0
M  V30 5958 C 579.456 3.25686 -1.88695 0
M  V30 5959 C 578.603 1.98474 -1.93658 0
M  V30 5960 H 581.554 0.759006 -1.39373 0
M  V30 5961 H 581.575 3.47567 -1.54847 0
M  V30 5962 H 581.087 2.41818 -3.03555 0
M  V30 5963 H 579.188 3.61998 -0.882489 0
M  V30 5964 H 579.301 3.92935 -2.74115 0
M  V30 5965 H 577.665 2.14278 -1.37684 0
M  V30 5966 H 578.448 1.6929 -2.98657 0
M  V30 5967 N 580.893 1.08022 1.14757 0
M  V30 5968 C 581.823 0.728248 2.21853 0
M  V30 5969 C 582.804 -0.287486 1.67653 0
M  V30 5970 O 583.989 -0.158727 1.9355 0
M  V30 5971 C 581.119 0.132549 3.47047 0
M  V30 5972 C 580.073 1.07619 4.14249 0
M  V30 5973 C 579.399 0.342907 5.33599 0
M  V30 5974 C 580.699 2.41268 4.63235 0
M  V30 5975 H 582.393 1.62365 2.51551 0
M  V30 5976 H 579.939 0.782125 1.20908 0
M  V30 5977 H 581.892 -0.125665 4.21213 0
M  V30 5978 H 580.616 -0.797971 3.16702 0
M  V30 5979 H 579.275 1.31944 3.42033 0
M  V30 5980 H 578.923 -0.59129 4.99513 0
M  V30 5981 H 578.623 0.971955 5.79506 0
M  V30 5982 H 580.147 0.0926538 6.1053 0
M  V30 5983 H 581.561 2.21232 5.28894 0
M  V30 5984 H 579.958 2.9983 5.19829 0
M  V30 5985 H 581.028 3.03079 3.78512 0
M  V30 5986 N 582.371 -1.3172 0.865308 0
M  V30 5987 C 583.619 -1.96487 0.472995 0
M  V30 5988 C 583.94 -1.68761 -0.976975 0
M  V30 5989 O 583.21 -1.00051 -1.68424 0
M  V30 5990 H 581.79 -0.726947 0.171922 0
M  V30 5991 H 584.452 -1.60612 1.10407 0
M  V30 5992 H 583.548 -3.0574 0.62687 0
M  V30 5993 N 583.85 -0.624285 -1.44708 0
M  V30 5994 C 585.127 -0.0572781 -1.95516 0
M  V30 5995 C 585.507 1.41516 -1.56641 0
M  V30 5996 O 584.855 2.12614 -0.837111 0
M  V30 5997 C 585.065 -0.272944 -3.47931 0
M  V30 5998 C 586.413 -0.162529 -4.24289 0
M  V30 5999 O 587.437 -0.203946 -3.55616 0
M  V30 6000 O 586.296 -0.0616847 -5.46465 0
M  V30 6001 H 583.389 0.0262219 -0.826584 0
M  V30 6002 H 585.936 -0.695512 -1.54793 0
M  V30 6003 H 584.707 -1.29492 -3.69253 0
M  V30 6004 H 584.331 0.399756 -3.95585 0
M  V30 6005 N 585.328 1.53329 -0.364422 0
M  V30 6006 C 586.258 2.28627 0.474543 0
M  V30 6007 C 587.239 1.31009 1.08492 0
M  V30 6008 O 588.424 1.59878 1.10239 0
M  V30 6009 C 585.554 3.07465 1.61501 0
M  V30 6010 C 584.508 4.1276 1.13194 0
M  V30 6011 C 583.834 4.79674 2.36255 0
M  V30 6012 C 585.134 5.21847 0.217507 0
M  V30 6013 H 586.828 2.99005 -0.153656 0
M  V30 6014 H 584.374 1.43803 -0.0753406 0
M  V30 6015 H 586.327 3.58889 2.20855 0
M  V30 6016 H 585.051 2.34775 2.27042 0
M  V30 6017 H 583.71 3.62281 0.56109 0
M  V30 6018 H 583.358 4.03557 3.00251 0
M  V30 6019 H 583.058 5.50827 2.04606 0
M  V30 6020 H 584.582 5.33892 2.96297 0
M  V30 6021 H 585.996 5.6878 0.718493 0
M  V30 6022 H 584.393 6.00099 -0.00806408 0
M  V30 6023 H 585.463 4.7921 -0.740653 0
M  V30 6024 N 586.806 0.0935595 1.57322 0
M  V30 6025 C 588.083 -0.612692 1.85756 0
M  V30 6026 C 588.463 -1.86439 0.99013 0
M  V30 6027 O 587.811 -2.28416 0.0621362 0
M  V30 6028 C 588.021 -0.929547 3.36393 0
M  V30 6029 C 589.369 -1.29366 4.04413 0
M  V30 6030 O 590.393 -1.02061 3.41265 0
M  V30 6031 O 589.252 -1.80498 5.15832 0
M  V30 6032 H 586.346 -0.306444 0.768128 0
M  V30 6033 H 588.892 0.126141 1.69231 0
M  V30 6034 H 587.664 -0.0414766 3.91278 0
M  V30 6035 H 587.287 -1.72441 3.5826 0
M  V30 6036 N 588.284 -1.56567 -0.180126 0
M  V30 6037 C 589.7 -1.50488 -0.531559 0
M  V30 6038 C 589.9 -0.796267 -1.851 0
M  V30 6039 O 588.956 -0.352978 -2.50021 0
M  V30 6040 C 590.269 -2.95201 -0.572456 0
M  V30 6041 C 591.817 -3.05957 -0.660264 0
M  V30 6042 C 592.292 -4.5211 -0.732135 0
M  V30 6043 N 593.783 -4.56322 -0.795262 0
M  V30 6044 C 594.518 -5.66742 -0.871296 0
M  V30 6045 N 594.014 -6.86815 -0.908708 0
M  V30 6046 N 595.807 -5.54691 -0.909639 0
M  V30 6047 H 587.958 -2.01045 0.685165 0
M  V30 6048 H 590.221 -0.915536 0.245962 0
M  V30 6049 H 589.927 -3.50165 0.328208 0
M  V30 6050 H 589.801 -3.49369 -1.422 0
M  V30 6051 H 592.188 -2.51032 -1.55136 0
M  V30 6052 H 592.269 -2.54888 0.215783 0
M  V30 6053 H 591.913 -5.07664 0.154664 0
M  V30 6054 H 591.843 -5.00926 -1.6242 0
M  V30 6055 H 594.334 -3.69868 -0.77499 0
M  V30 6056 H 594.647 -7.66718 -0.967654 0
M  V30 6057 H 592.992 -6.89443 -0.877132 0
M  V30 6058 H 596.183 -4.59804 -0.877353 0
M  V30 6059 H 596.356 -6.40768 -0.965434 0
M  V30 6060 N 589.762 0.448376 -1.51087 0
M  V30 6061 C 591.039 1.20926 -1.53741 0
M  V30 6062 C 591.419 2.09025 -0.295222 0
M  V30 6063 O 590.767 2.16851 0.720283 0
M  V30 6064 C 590.977 2.02067 -2.84552 0
M  V30 6065 C 592.325 2.59486 -3.36084 0
M  V30 6066 O 593.349 2.12289 -2.86028 0
M  V30 6067 O 592.208 3.45539 -4.23397 0
M  V30 6068 H 589.302 0.549951 -0.617643 0
M  V30 6069 H 591.848 0.458344 -1.63393 0
M  V30 6070 H 590.62 1.37291 -3.66425 0
M  V30 6071 H 590.243 2.84246 -2.78011 0
M  V30 6072 N 591.24 1.41047 0.703093 0
M  V30 6073 C 592.488 1.39723 1.4602 0
M  V30 6074 C 592.809 0.00461257 1.94999 0
M  V30 6075 O 592.079 -0.952292 1.71196 0
M  V30 6076 H 590.659 0.514281 0.541779 0
M  V30 6077 H 593.321 1.76217 0.832678 0
M  V30 6078 H 592.417 2.07982 2.32701 0
M  V30 6079 N 592.718 -0.936591 1.26751 0
M  V30 6080 C 593.948 -1.71509 1.15188 0
M  V30 6081 C 594.356 -1.86885 -0.295037 0
M  V30 6082 O 593.699 -1.37915 -1.21347 0
M  V30 6083 C 593.761 -3.13853 1.75318 0
M  V30 6084 C 593.425 -3.21845 3.24445 0
M  V30 6085 C 594.422 -3.04771 4.21201 0
M  V30 6086 C 592.107 -3.45088 3.64992 0
M  V30 6087 C 594.101 -3.10816 5.56482 0
M  V30 6088 C 591.788 -3.50767 5.00405 0
M  V30 6089 C 592.786 -3.33648 5.9596 0
M  V30 6090 O 592.474 -3.39045 7.28906 0
M  V30 6091 H 592.206 -0.543658 0.401761 0
M  V30 6092 H 594.76 -1.18234 1.67958 0
M  V30 6093 H 592.99 -3.6857 1.17016 0
M  V30 6094 H 594.679 -3.73634 1.58596 0
M  V30 6095 H 595.445 -2.86665 3.91214 0
M  V30 6096 H 591.324 -3.57467 2.91098 0
M  V30 6097 H 594.868 -2.97372 6.31043 0
M  V30 6098 H 590.765 -3.68396 5.30052 0
M  V30 6099 H 591.533 -3.55558 7.37238 0
M  V30 6100 N 594.196 -1.08629 -1.14182 0
M  V30 6101 C 595.144 -0.71284 -2.21408 0
M  V30 6102 C 596.138 0.282457 -1.67029 0
M  V30 6103 O 597.344 0.144783 -1.79417 0
M  V30 6104 H 593.719 -0.212497 -0.721352 0
M  V30 6105 H 595.69 -1.6265 -2.50175 0
M  V30 6106 C 594.439 -0.140704 -3.47415 0
M  V30 6107 H 593.762 -0.897739 -3.8959 0
M  V30 6108 H 595.202 0.0827677 -4.23919 0
M  V30 6109 C 593.661 1.122 -3.17668 0
M  V30 6110 O 594.191 2.20652 -3.35672 0
M  V30 6111 N 592.397 1.03328 -2.71609 0
M  V30 6112 H 591.944 0.150666 -2.57159 0
M  V30 6113 H 591.902 1.8789 -2.52081 0
M  V30 6114 N 595.674 1.31259 -0.872281 0
M  V30 6115 C 596.951 1.91362 -0.404943 0
M  V30 6116 C 597.331 1.79362 1.11321 0
M  V30 6117 O 596.679 1.20277 1.94283 0
M  V30 6118 C 596.889 3.3749 -0.888893 0
M  V30 6119 C 598.237 4.14593 -0.916384 0
M  V30 6120 O 599.261 3.46282 -0.834701 0
M  V30 6121 O 598.12 5.3661 -1.03498 0
M  V30 6122 H 595.214 0.818016 -0.121569 0
M  V30 6123 H 597.76 1.39912 -0.960346 0
M  V30 6124 H 596.532 3.40249 -1.93251 0
M  V30 6125 H 596.155 3.96375 -0.311932 0
M  V30 6126 N 597.152 0.631951 1.44375 0
M  V30 6127 C 598.401 0.134214 2.01253 0
M  V30 6128 C 598.714 -1.25171 1.50305 0
M  V30 6129 O 599.92 -1.8435 1.99317 0
M  V30 6130 C 598.376 0.189187 3.59402 0
M  V30 6131 C 597.984 1.57647 4.19346 0
M  V30 6132 C 599.728 -0.252044 4.23751 0
M  V30 6133 C 597.635 1.58651 5.69722 0
M  V30 6134 H 596.565 0.0464101 0.75257 0
M  V30 6135 H 599.216 0.790868 1.65582 0
M  V30 6136 H 597.598 -0.534584 3.92375 0
M  V30 6137 H 598.772 2.32389 3.97909 0
M  V30 6138 H 597.087 1.96186 3.67288 0
M  V30 6139 H 599.684 -0.264084 5.34047 0
M  V30 6140 H 600.027 -1.27951 3.96149 0
M  V30 6141 H 600.56 0.41926 3.95584 0
M  V30 6142 H 597.299 2.59237 6.0206 0
M  V30 6143 H 596.819 0.882039 5.93279 0
M  V30 6144 H 598.498 1.32082 6.33375 0
M  V30 6145 N 598.631 -1.53133 0.372548 0
M  V30 6146 C 599.594 -2.24569 -0.458389 0
M  V30 6147 C 600.594 -1.25603 -1.00402 0
M  V30 6148 O 601.784 -1.49827 -0.888672 0
M  V30 6149 C 598.916 -2.98783 -1.6414 0
M  V30 6150 H 600.109 -2.99436 0.166799 0
M  V30 6151 H 597.662 -1.55805 0.124357 0
M  V30 6152 H 598.397 -2.28176 -2.30448 0
M  V30 6153 H 598.182 -3.71404 -1.25704 0
M  V30 6154 H 599.672 -3.53068 -2.23008 0
M  V30 6155 N 600.109 -0.101901 -1.5727 0
M  V30 6156 C 601.355 0.561027 -1.94885 0
M  V30 6157 C 601.688 1.6741 -0.984258 0
M  V30 6158 O 600.963 1.94491 -0.0184767 0
M  V30 6159 C 601.246 1.10982 -3.42571 0
M  V30 6160 C 601.099 0.00133418 -4.498 0
M  V30 6161 C 602.418 2.00608 -3.9172 0
M  V30 6162 H 599.537 0.202467 -0.708644 0
M  V30 6163 H 602.179 -0.173992 -1.89202 0
M  V30 6164 H 600.329 1.73621 -3.47546 0
M  V30 6165 H 602.001 -0.63322 -4.56933 0
M  V30 6166 H 600.244 -0.664143 -4.28686 0
M  V30 6167 H 600.915 0.426253 -5.50352 0
M  V30 6168 H 603.391 1.47864 -3.88941 0
M  V30 6169 H 602.267 2.3593 -4.95609 0
M  V30 6170 H 602.528 2.92608 -3.3141 0
M  V30 6171 N 601.587 1.56661 0.17182 0
M  V30 6172 C 602.55 1.9549 1.19651 0
M  V30 6173 C 603.55 0.838501 1.37207 0
M  V30 6174 O 604.74 1.10556 1.34622 0
M  V30 6175 C 601.872 2.24927 2.56166 0
M  V30 6176 H 603.065 2.87184 0.864007 0
M  V30 6177 H 600.618 1.50711 0.41425 0
M  V30 6178 H 601.353 1.35944 2.94431 0
M  V30 6179 H 601.138 3.06301 2.4479 0
M  V30 6180 H 602.628 2.55891 3.30014 0
M  V30 6181 N 603.065 -0.440357 1.51323 0
M  V30 6182 C 604.028 -1.51679 1.71832 0
M  V30 6183 C 605.028 -1.49648 0.588386 0
M  V30 6184 O 606.218 -1.51724 0.855891 0
M  V30 6185 C 603.35 -2.91228 1.77199 0
M  V30 6186 H 604.543 -1.34799 2.67898 0
M  V30 6187 H 602.096 -0.66883 1.41267 0
M  V30 6188 H 602.831 -3.13516 0.829363 0
M  V30 6189 H 602.616 -2.94107 2.59314 0
M  V30 6190 H 604.106 -3.69321 1.94915 0
M  V30 6191 N 604.543 -1.41418 -0.695603 0
M  V30 6192 C 605.954 -1.36335 -1.27552 0
M  V30 6193 C 606.305 -0.0464336 -1.96145 0
M  V30 6194 O 605.43 0.855304 -1.9878 0
M  V30 6195 C 606.025 -2.46941 -2.3196 0
M  V30 6196 C 604.584 -2.45256 -2.85529 0
M  V30 6197 C 603.731 -2.2679 -1.59566 0
M  V30 6198 H 606.682 -1.50934 -0.490362 0
M  V30 6199 H 606.703 -2.15997 -3.1325 0
M  V30 6200 H 606.215 -3.42775 -1.82008 0
M  V30 6201 H 604.316 -1.53179 -3.39657 0
M  V30 6202 H 604.429 -3.41565 -3.35961 0
M  V30 6203 H 602.793 -1.74667 -1.85374 0
M  V30 6204 H 603.576 -3.24651 -1.1161 0
M  V30 6205 N 606.021 0.929856 -1.27246 0
M  V30 6206 C 607.251 1.70895 -1.16096 0
M  V30 6207 C 607.659 1.87039 0.285122 0
M  V30 6208 O 607.002 1.38557 1.20614 0
M  V30 6209 C 607.064 3.12919 -1.7698 0
M  V30 6210 C 606.728 3.2012 -3.26148 0
M  V30 6211 C 607.725 3.02533 -4.22812 0
M  V30 6212 C 605.41 3.43148 -3.66817 0
M  V30 6213 C 607.404 3.07861 -5.58122 0
M  V30 6214 C 605.091 3.48109 -5.02258 0
M  V30 6215 C 606.089 3.30483 -5.97721 0
M  V30 6216 O 605.777 3.35175 -7.30694 0
M  V30 6217 H 605.509 0.54152 -0.404639 0
M  V30 6218 H 608.063 1.17342 -1.68582 0
M  V30 6219 H 606.293 3.67945 -1.18969 0
M  V30 6220 H 607.982 3.72787 -1.60576 0
M  V30 6221 H 608.748 2.84586 -3.92728 0
M  V30 6222 H 604.627 3.55918 -2.9299 0
M  V30 6223 H 608.171 2.94021 -6.32612 0
M  V30 6224 H 604.068 3.65579 -5.31998 0
M  V30 6225 H 604.836 3.51644 -7.39114 0
M  V30 6226 N 607.499 1.09233 1.13605 0
M  V30 6227 C 608.747 0.825525 1.84471 0
M  V30 6228 C 609.068 -0.650702 1.83823 0
M  V30 6229 O 608.338 -1.47204 1.29259 0
M  V30 6230 H 606.918 0.3024 0.683054 0
M  V30 6231 H 609.58 1.38006 1.37624 0
M  V30 6232 H 608.676 1.17727 2.89045 0
M  V30 6233 N 608.977 -1.30795 0.87923 0
M  V30 6234 C 610.225 -1.95974 0.493809 0
M  V30 6235 C 610.546 -1.69787 -0.959021 0
M  V30 6236 O 609.816 -1.01832 -1.67353 0
M  V30 6237 H 608.396 -0.725083 0.179622 0
M  V30 6238 H 611.058 -1.59432 1.12105 0
M  V30 6239 H 610.154 -3.05058 0.659263 0
M  V30 6240 N 610.455 -0.639598 -1.44038 0
M  V30 6241 C 611.866 -0.228866 -1.85292 0
M  V30 6242 C 612.217 1.22161 -1.53529 0
M  V30 6243 O 611.342 1.93064 -0.977518 0
M  V30 6244 C 611.937 -0.408592 -3.36327 0
M  V30 6245 C 610.496 -0.0522953 -3.76364 0
M  V30 6246 C 609.643 -0.717959 -2.67844 0
M  V30 6247 H 612.594 -0.844194 -1.34384 0
M  V30 6248 H 612.615 0.349968 -3.78887 0
M  V30 6249 H 612.127 -1.46435 -3.59414 0
M  V30 6250 H 610.228 1.0014 -3.58891 0
M  V30 6251 H 610.341 -0.468261 -4.76806 0
M  V30 6252 H 608.705 -0.152459 -2.54243 0
M  V30 6253 H 609.488 -1.77648 -2.93762 0
M  V30 6254 N 611.933 1.52934 -0.380664 0
M  V30 6255 C 613.158 2.06363 0.207157 0
M  V30 6256 C 613.583 1.25122 1.4045 0
M  V30 6257 O 612.941 0.274062 1.79217 0
M  V30 6258 C 612.989 3.56162 0.563996 0
M  V30 6259 O 612.093 3.77552 1.65917 0
M  V30 6260 H 611.434 0.663468 0.0265859 0
M  V30 6261 H 613.964 1.9719 -0.545635 0
M  V30 6262 H 613.974 3.99453 0.830752 0
M  V30 6263 H 612.649 4.14732 -0.311427 0
M  V30 6264 H 611.226 3.46154 1.3868 0
M  V30 6265 N 613.412 0.11024 1.57214 0
M  V30 6266 C 614.66 -0.548783 1.94506 0
M  V30 6267 C 614.981 -1.67772 0.99386 0
M  V30 6268 O 614.251 -1.9584 0.0485841 0
M  V30 6269 H 612.831 -0.205715 0.718116 0
M  V30 6270 H 615.493 0.177127 1.94093 0
M  V30 6271 H 614.589 -0.949096 2.97319 0
M  V30 6272 N 614.89 -1.56749 -0.16351 0
M  V30 6273 C 616.306 -1.51043 -0.515567 0
M  V30 6274 C 616.506 -0.815855 -1.84245 0
M  V30 6275 O 615.562 -0.379477 -2.49632 0
M  V30 6276 C 616.875 -2.95791 -0.541114 0
M  V30 6277 C 618.423 -3.0664 -0.627776 0
M  V30 6278 C 618.898 -4.52861 -0.684141 0
M  V30 6279 N 620.389 -4.5714 -0.746818 0
M  V30 6280 C 621.124 -5.67634 -0.811137 0
M  V30 6281 N 620.62 -6.8774 -0.835811 0
M  V30 6282 N 622.413 -5.55624 -0.850756 0
M  V30 6283 H 614.564 -2.00307 0.70645 0
M  V30 6284 H 616.827 -0.912876 0.255659 0
M  V30 6285 H 616.533 -3.49797 0.365329 0
M  V30 6286 H 616.407 -3.50858 -1.38487 0
M  V30 6287 H 618.794 -2.52663 -1.52464 0
M  V30 6288 H 618.875 -2.54645 0.242805 0
M  V30 6289 H 618.519 -5.07472 0.2085 0
M  V30 6290 H 618.449 -5.02621 -1.57098 0
M  V30 6291 H 620.94 -3.70669 -0.735717 0
M  V30 6292 H 621.253 -7.67701 -0.886279 0
M  V30 6293 H 619.598 -6.90334 -0.803958 0
M  V30 6294 H 622.789 -4.60709 -0.828535 0
M  V30 6295 H 622.962 -6.41756 -0.897418 0
M  V30 6296 N 616.368 0.432326 -1.51554 0
M  V30 6297 C 617.616 1.17901 -1.64146 0
M  V30 6298 C 617.937 1.91604 -0.362367 0
M  V30 6299 O 617.207 1.85764 0.621968 0
M  V30 6300 H 615.787 0.438206 -0.604966 0
M  V30 6301 H 618.449 0.495172 -1.88505 0
M  V30 6302 H 617.545 1.90584 -2.47152 0
M  V30 6303 N 617.846 1.41785 0.688094 0
M  V30 6304 C 618.778 1.40159 1.81351 0
M  V30 6305 C 619.791 0.30262 1.59963 0
M  V30 6306 O 620.98 0.564841 1.69327 0
M  V30 6307 C 618.08 1.16517 3.1824 0
M  V30 6308 C 617.253 2.38597 3.66593 0
M  V30 6309 C 616.312 2.10699 4.82174 0
M  V30 6310 O 615.338 2.83798 4.93404 0
M  V30 6311 N 616.54 1.10187 5.69947 0
M  V30 6312 H 619.305 2.3716 1.83236 0
M  V30 6313 H 616.866 1.36494 0.870697 0
M  V30 6314 H 618.858 0.957941 3.93199 0
M  V30 6315 H 617.428 0.280873 3.11336 0
M  V30 6316 H 616.648 2.74974 2.82459 0
M  V30 6317 H 617.936 3.19919 3.95638 0
M  V30 6318 H 617.334 0.497016 5.63512 0
M  V30 6319 H 615.891 0.954518 6.44773 0
M  V30 6320 N 619.324 -0.923095 1.27737 0
M  V30 6321 C 620.57 -1.67375 1.14514 0
M  V30 6322 C 620.903 -1.91751 -0.307424 0
M  V30 6323 O 620.178 -1.51119 -1.22447 0
M  V30 6324 C 620.461 -3.03745 1.9342 0
M  V30 6325 C 620.314 -2.86581 3.46686 0
M  V30 6326 C 621.633 -4.04144 1.74228 0
M  V30 6327 H 618.752 -0.607427 0.417374 0
M  V30 6328 H 621.394 -1.07089 1.56946 0
M  V30 6329 H 619.544 -3.55204 1.5736 0
M  V30 6330 H 621.216 -2.42203 3.92601 0
M  V30 6331 H 619.459 -2.21829 3.72793 0
M  V30 6332 H 620.13 -3.83381 3.97143 0
M  V30 6333 H 622.606 -3.61712 2.05678 0
M  V30 6334 H 621.482 -4.97543 2.31824 0
M  V30 6335 H 621.743 -4.36661 0.691373 0
M  V30 6336 N 620.802 -1.09834 -1.13024 0
M  V30 6337 C 621.732 -0.763451 -2.20666 0
M  V30 6338 C 622.713 0.260778 -1.68089 0
M  V30 6339 O 623.898 0.127915 -1.93778 0
M  V30 6340 C 621.028 -0.187744 -3.46792 0
M  V30 6341 C 619.982 -1.14196 -4.12484 0
M  V30 6342 C 619.308 -0.427755 -5.32986 0
M  V30 6343 C 620.608 -2.48607 -4.59338 0
M  V30 6344 H 622.302 -1.66347 -2.48936 0
M  V30 6345 H 619.848 -0.801261 -1.19649 0
M  V30 6346 H 621.801 0.0586375 -4.21359 0
M  V30 6347 H 620.525 0.747485 -3.17931 0
M  V30 6348 H 619.184 -1.37369 -3.3989 0
M  V30 6349 H 618.832 0.511747 -5.0039 0
M  V30 6350 H 618.532 -1.06403 -5.77886 0
M  V30 6351 H 620.056 -0.189772 -6.10305 0
M  V30 6352 H 621.47 -2.29618 -5.25308 0
M  V30 6353 H 619.867 -3.08062 -5.14993 0
M  V30 6354 H 620.937 -3.09062 -3.73642 0
M  V30 6355 N 622.28 1.30327 -0.886154 0
M  V30 6356 C 623.526 1.96388 -0.505941 0
M  V30 6357 C 623.859 1.69784 0.942712 0
M  V30 6358 O 623.134 1.00322 1.6663 0
M  V30 6359 C 623.417 3.51488 -0.782826 0
M  V30 6360 C 623.27 3.87603 -2.28219 0
M  V30 6361 C 624.589 4.39331 -0.260128 0
M  V30 6362 H 621.708 0.713327 -0.185292 0
M  V30 6363 H 624.35 1.54178 -1.11036 0
M  V30 6364 H 622.5 3.87572 -0.268399 0
M  V30 6365 H 624.172 3.61537 -2.86512 0
M  V30 6366 H 622.415 3.3563 -2.74837 0
M  V30 6367 H 623.086 4.95806 -2.42653 0
M  V30 6368 H 625.562 4.10162 -0.700444 0
M  V30 6369 H 624.438 5.46769 -0.483179 0
M  V30 6370 H 624.699 4.34072 0.838674 0
M  V30 6371 N 623.758 0.647228 1.43697 0
M  V30 6372 C 625.005 0.158188 2.01881 0
M  V30 6373 C 625.333 -1.22573 1.51017 0
M  V30 6374 O 624.588 -1.83086 0.69122 0
M  V30 6375 C 624.887 0.111481 3.57226 0
M  V30 6376 C 624.553 1.43633 4.27411 0
M  V30 6377 C 623.215 1.79915 4.463 0
M  V30 6378 C 625.567 2.31011 4.67208 0
M  V30 6379 C 622.895 3.03251 5.02251 0
M  V30 6380 C 625.247 3.53633 5.24525 0
M  V30 6381 C 623.911 3.90118 5.41631 0
M  V30 6382 H 623.181 0.0578851 0.738736 0
M  V30 6383 H 625.828 0.836746 1.72252 0
M  V30 6384 H 624.133 -0.650507 3.86362 0
M  V30 6385 H 625.83 -0.283682 3.99995 0
M  V30 6386 H 622.42 1.14403 4.1305 0
M  V30 6387 H 626.604 2.04272 4.52313 0
M  V30 6388 H 621.86 3.31575 5.13681 0
M  V30 6389 H 626.034 4.21561 5.5431 0
M  V30 6390 H 623.661 4.85768 5.84751 0
M  V30 6391 N 625.236 -1.5273 0.388769 0
M  V30 6392 C 626.166 -2.29353 -0.438111 0
M  V30 6393 C 627.147 -1.32719 -1.06394 0
M  V30 6394 O 628.332 -1.61612 -1.07681 0
M  V30 6395 C 625.462 -3.09995 -1.56589 0
M  V30 6396 C 624.416 -4.14509 -1.06613 0
M  V30 6397 C 623.742 -4.83372 -2.28594 0
M  V30 6398 C 625.042 -5.22127 -0.134459 0
M  V30 6399 H 626.736 -2.98723 0.201206 0
M  V30 6400 H 624.282 -1.43665 0.0982089 0
M  V30 6401 H 626.235 -3.62357 -2.15118 0
M  V30 6402 H 624.959 -2.38357 -2.23279 0
M  V30 6403 H 623.618 -3.63128 -0.503383 0
M  V30 6404 H 623.266 -4.08283 -2.93792 0
M  V30 6405 H 622.966 -5.54012 -1.95817 0
M  V30 6406 H 624.49 -5.38538 -2.87766 0
M  V30 6407 H 625.904 -5.69851 -0.627914 0
M  V30 6408 H 624.301 -6.00011 0.103534 0
M  V30 6409 H 625.371 -4.77971 0.816798 0
M  V30 6410 N 626.714 -0.118576 -1.57153 0
M  V30 6411 C 627.962 0.538461 -1.94795 0
M  V30 6412 C 628.283 1.67243 -1.00274 0
M  V30 6413 O 627.553 1.95811 -0.0589692 0
M  V30 6414 H 626.133 0.201904 -0.719197 0
M  V30 6415 H 628.795 -0.187418 -1.93997 0
M  V30 6416 H 627.891 0.933315 -2.97818 0
M  V30 6417 N 628.193 1.56834 0.155195 0
M  V30 6418 C 629.125 1.94235 1.21677 0
M  V30 6419 C 630.138 0.83724 1.39621 0
M  V30 6420 O 631.327 1.11567 1.39338 0
M  V30 6421 C 628.427 2.19402 2.58294 0
M  V30 6422 C 627.6 3.50671 2.61436 0
M  V30 6423 C 626.659 3.64475 3.79532 0
M  V30 6424 O 625.685 4.36945 3.64784 0
M  V30 6425 N 626.887 3.00526 4.96653 0
M  V30 6426 H 629.652 2.85901 0.898932 0
M  V30 6427 H 627.213 1.58185 0.34483 0
M  V30 6428 H 629.205 2.25886 3.35794 0
M  V30 6429 H 627.775 1.34042 2.82403 0
M  V30 6430 H 626.995 3.55702 1.69912 0
M  V30 6431 H 628.283 4.3702 2.60559 0
M  V30 6432 H 627.681 2.41549 5.11538 0
M  V30 6433 H 626.238 3.12583 5.71958 0
M  V30 6434 N 629.671 -0.424282 1.51781 0
M  V30 6435 C 630.896 -1.19928 1.6921 0
M  V30 6436 C 631.321 -1.8392 0.394355 0
M  V30 6437 O 630.679 -1.69371 -0.646778 0
M  V30 6438 C 630.727 -2.24937 2.81843 0
M  V30 6439 O 629.831 -3.3073 2.46356 0
M  V30 6440 H 629.172 -0.35078 0.563781 0
M  V30 6441 H 631.702 -0.499401 1.98412 0
M  V30 6442 H 631.712 -2.69512 3.06312 0
M  V30 6443 H 630.387 -1.77742 3.76006 0
M  V30 6444 H 628.964 -2.9154 2.32505 0
M  V30 6445 N 631.149 -1.42148 -0.680565 0
M  V30 6446 C 632.059 -1.47565 -1.82378 0
M  V30 6447 C 633.075 -0.36489 -1.70131 0
M  V30 6448 O 634.251 -0.614916 -1.91783 0
M  V30 6449 C 631.316 -1.37013 -3.18478 0
M  V30 6450 C 630.377 -2.58532 -3.42724 0
M  V30 6451 C 629.61 -2.48473 -4.72331 0
M  V30 6452 O 629.833 -1.51745 -5.49845 0
M  V30 6453 O 628.767 -3.38503 -4.97694 0
M  V30 6454 H 632.593 -2.44045 -1.80764 0
M  V30 6455 H 630.178 -1.23849 -0.835569 0
M  V30 6456 H 632.06 -1.33468 -3.99705 0
M  V30 6457 H 630.735 -0.436552 -3.20743 0
M  V30 6458 H 629.642 -2.67652 -2.61368 0
M  V30 6459 H 630.975 -3.50769 -3.45286 0
M  V30 6460 N 632.627 0.916307 -1.28225 0
M  V30 6461 C 633.875 1.6619 -1.15002 0
M  V30 6462 C 634.196 1.92642 0.302329 0
M  V30 6463 O 633.466 1.54076 1.20985 0
M  V30 6464 H 632.046 0.615964 -0.422608 0
M  V30 6465 H 634.708 1.09963 -1.60917 0
M  V30 6466 H 633.804 2.62533 -1.68769 0
M  V30 6467 N 634.105 1.10431 1.1244 0
M  V30 6468 C 635.035 0.775143 2.20258 0
M  V30 6469 C 636.016 -0.25186 1.68225 0
M  V30 6470 O 637.201 -0.117637 1.93843 0
M  V30 6471 C 634.331 0.206133 3.46688 0
M  V30 6472 C 633.285 1.16382 4.11873 0
M  V30 6473 C 632.611 0.456014 5.32752 0
M  V30 6474 C 633.911 2.5104 4.58013 0
M  V30 6475 H 635.605 1.67665 2.4805 0
M  V30 6476 H 633.151 0.807595 1.19222 0
M  V30 6477 H 635.104 -0.036291 4.21384 0
M  V30 6478 H 633.828 -0.730614 3.18323 0
M  V30 6479 H 632.487 1.39169 3.39157 0
M  V30 6480 H 632.135 -0.485203 5.00654 0
M  V30 6481 H 631.835 1.09466 5.77314 0
M  V30 6482 H 633.359 0.222135 6.10196 0
M  V30 6483 H 634.773 2.32401 5.24083 0
M  V30 6484 H 633.17 3.10789 5.13352 0
M  V30 6485 H 634.24 3.11039 3.71998 0
M  V30 6486 N 635.583 -1.29855 0.893053 0
M  V30 6487 C 636.999 -1.48366 0.588199 0
M  V30 6488 C 637.199 -1.81654 -0.872018 0
M  V30 6489 O 636.255 -1.909 -1.65268 0
M  V30 6490 C 637.568 -2.60136 1.5083 0
M  V30 6491 C 639.116 -2.74014 1.51279 0
M  V30 6492 C 639.591 -3.88905 2.41902 0
M  V30 6493 N 641.082 -3.96228 2.39911 0
M  V30 6494 C 641.817 -4.84458 3.06738 0
M  V30 6495 N 641.313 -5.77426 3.8282 0
M  V30 6496 N 643.106 -4.77894 2.95929 0
M  V30 6497 H 635.257 -1.06522 1.83757 0
M  V30 6498 H 637.52 -0.528495 0.787018 0
M  V30 6499 H 637.226 -2.42383 2.54839 0
M  V30 6500 H 637.1 -3.56793 1.22388 0
M  V30 6501 H 639.487 -2.91167 0.480179 0
M  V30 6502 H 639.568 -1.77952 1.83757 0
M  V30 6503 H 639.212 -3.72508 3.45253 0
M  V30 6504 H 639.142 -4.84322 2.06737 0
M  V30 6505 H 641.633 -3.29728 1.84629 0
M  V30 6506 H 641.946 -6.41529 4.30883 0
M  V30 6507 H 640.291 -5.77332 3.86927 0
M  V30 6508 H 643.482 -4.04248 2.36012 0
M  V30 6509 H 643.655 -5.46444 3.48286 0
M  V30 6510 N 637.061 -0.65484 -1.43351 0
M  V30 6511 C 638.286 -0.175046 -2.0666 0
M  V30 6512 C 638.711 1.15104 -1.4877 0
M  V30 6513 O 638.069 1.71144 -0.598279 0
M  V30 6514 C 638.117 -0.0991544 -3.60464 0
M  V30 6515 O 637.221 0.938169 -4.01587 0
M  V30 6516 H 636.562 -0.0956148 -0.65708 0
M  V30 6517 H 639.092 -0.898222 -1.83829 0
M  V30 6518 H 639.102 0.083632 -4.07914 0
M  V30 6519 H 637.777 -1.06719 -4.01975 0
M  V30 6520 H 636.354 0.72804 -3.65724 0
M  V30 6521 N 638.539 1.52521 -0.396863 0
M  V30 6522 C 639.955 1.5953 -0.0471659 0
M  V30 6523 C 640.155 1.41044 1.43906 0
M  V30 6524 O 639.211 1.23122 2.20448 0
M  V30 6525 C 640.524 2.95972 -0.531113 0
M  V30 6526 C 642.072 3.09172 -0.488024 0
M  V30 6527 C 642.547 4.48075 -0.948281 0
M  V30 6528 N 644.038 4.54281 -0.9046 0
M  V30 6529 C 644.773 5.60007 -1.23205 0
M  V30 6530 N 644.269 6.73343 -1.63036 0
M  V30 6531 N 646.062 5.50151 -1.15282 0
M  V30 6532 H 638.213 1.62786 -1.36435 0
M  V30 6533 H 640.476 0.76514 -0.559701 0
M  V30 6534 H 640.182 3.14741 -1.56942 0
M  V30 6535 H 640.056 3.77143 0.0657922 0
M  V30 6536 H 642.443 2.90095 0.541211 0
M  V30 6537 H 642.524 2.29937 -1.12083 0
M  V30 6538 H 642.168 4.67894 -1.97578 0
M  V30 6539 H 642.098 5.25788 -0.292412 0
M  V30 6540 H 644.589 3.72918 -0.6116 0
M  V30 6541 H 644.902 7.49992 -1.86365 0
M  V30 6542 H 643.247 6.74655 -1.66929 0
M  V30 6543 H 646.438 4.6049 -0.840602 0
M  V30 6544 H 646.611 6.32444 -1.41133 0
M  V30 6545 N 640.017 0.126909 1.57088 0
M  V30 6546 C 641.428 -0.397201 1.82426 0
M  V30 6547 C 641.779 -1.66084 1.04453 0
M  V30 6548 O 640.904 -2.14534 0.283552 0
M  V30 6549 C 641.499 -0.727411 3.30899 0
M  V30 6550 C 640.058 -1.19612 3.56889 0
M  V30 6551 C 639.205 -0.20885 2.76512 0
M  V30 6552 H 642.156 0.351924 1.54749 0
M  V30 6553 H 642.177 -1.58407 3.45959 0
M  V30 6554 H 641.689 0.19247 3.87622 0
M  V30 6555 H 639.79 -2.13263 3.05532 0
M  V30 6556 H 639.903 -1.13598 4.65438 0
M  V30 6557 H 638.267 -0.697479 2.44964 0
M  V30 6558 H 639.05 0.704267 3.35998 0
M  V30 6559 N 641.495 -1.56914 -0.146875 0
M  V30 6560 C 642.72 -1.87881 -0.878386 0
M  V30 6561 C 643.145 -0.715945 -1.73942 0
M  V30 6562 O 642.503 0.334447 -1.78189 0
M  V30 6563 C 642.551 -3.17431 -1.71084 0
M  V30 6564 O 641.655 -3.01374 -2.81509 0
M  V30 6565 H 640.996 -0.617289 -0.244644 0
M  V30 6566 H 643.526 -2.04136 -0.137654 0
M  V30 6567 H 643.536 -3.49455 -2.10582 0
M  V30 6568 H 642.211 -4.01671 -1.07856 0
M  V30 6569 H 640.788 -2.80758 -2.45416 0
M  V30 6570 N 642.974 0.416227 -1.52004 0
M  V30 6571 C 643.906 1.52552 -1.71058 0
M  V30 6572 C 644.919 1.51693 -0.59102 0
M  V30 6573 O 646.108 1.56087 -0.865973 0
M  V30 6574 C 643.208 2.91455 -1.72937 0
M  V30 6575 C 642.381 3.16584 -3.01816 0
M  V30 6576 C 641.44 4.35322 -2.95603 0
M  V30 6577 O 640.466 4.32947 -3.6952 0
M  V30 6578 N 641.668 5.40049 -2.12903 0
M  V30 6579 H 644.433 1.36604 -2.66757 0
M  V30 6580 H 641.994 0.60544 -1.50153 0
M  V30 6581 H 643.986 3.68944 -1.66321 0
M  V30 6582 H 642.556 3.00895 -0.847418 0
M  V30 6583 H 641.776 2.27203 -3.22137 0
M  V30 6584 H 643.064 3.30213 -3.87088 0
M  V30 6585 H 642.462 5.44823 -1.52265 0
M  V30 6586 H 641.019 6.16308 -2.1215 0
M  V30 6587 N 644.452 1.42507 0.673017 0
M  V30 6588 C 645.698 1.43284 1.43519 0
M  V30 6589 C 646.031 0.049668 1.94136 0
M  V30 6590 O 645.306 -0.926369 1.71022 0
M  V30 6591 C 645.589 2.45874 2.63093 0
M  V30 6592 C 645.442 3.93388 2.18096 0
M  V30 6593 C 646.761 2.45431 3.6531 0
M  V30 6594 H 643.88 0.521752 0.520522 0
M  V30 6595 H 646.522 1.73932 0.764701 0
M  V30 6596 H 644.672 2.19869 3.20296 0
M  V30 6597 H 646.344 4.30379 1.66046 0
M  V30 6598 H 644.587 4.07169 1.49652 0
M  V30 6599 H 645.258 4.60752 3.03993 0
M  V30 6600 H 647.734 2.68561 3.17827 0
M  V30 6601 H 646.61 3.19189 4.46553 0
M  V30 6602 H 646.871 1.48092 4.16559 0
M  V30 6603 N 645.93 -0.909495 1.28709 0
M  V30 6604 C 646.86 -2.0291 1.15542 0
M  V30 6605 C 647.841 -1.7002 0.0521017 0
M  V30 6606 O 649.026 -1.92835 0.229849 0
M  V30 6607 C 646.156 -3.37458 0.820935 0
M  V30 6608 C 645.11 -3.84524 1.87949 0
M  V30 6609 C 644.436 -5.16086 1.39854 0
M  V30 6610 C 645.736 -4.05918 3.28676 0
M  V30 6611 H 647.43 -2.14183 2.09203 0
M  V30 6612 H 644.976 -1.02913 1.00722 0
M  V30 6613 H 646.929 -4.1528 0.715571 0
M  V30 6614 H 645.653 -3.26249 -0.151374 0
M  V30 6615 H 644.312 -3.08911 1.97408 0
M  V30 6616 H 643.96 -5.01284 0.41518 0
M  V30 6617 H 643.66 -5.48547 2.1064 0
M  V30 6618 H 645.184 -5.96459 1.30649 0
M  V30 6619 H 646.598 -4.74252 3.22115 0
M  V30 6620 H 644.995 -4.49717 3.97334 0
M  V30 6621 H 646.065 -3.10583 3.72379 0
M  V30 6622 N 647.408 -1.11026 -1.11852 0
M  V30 6623 C 648.685 -0.768347 -1.79877 0
M  V30 6624 C 649.065 0.744261 -1.97545 0
M  V30 6625 O 648.413 1.67271 -1.55669 0
M  V30 6626 C 648.623 -1.52648 -3.13846 0
M  V30 6627 C 649.971 -1.70297 -3.88953 0
M  V30 6628 O 650.995 -1.49037 -3.23522 0
M  V30 6629 O 649.854 -2.05593 -5.06353 0
M  V30 6630 H 646.948 -0.277891 -0.778913 0
M  V30 6631 H 649.494 -1.21343 -1.18633 0
M  V30 6632 H 648.266 -2.55564 -2.96315 0
M  V30 6633 H 647.889 -1.07466 -3.82801 0
M  V30 6634 N 648.886 1.2938 -0.899927 0
M  V30 6635 C 650.111 2.00228 -0.540692 0
M  V30 6636 C 650.536 1.66909 0.867359 0
M  V30 6637 O 649.894 0.893824 1.57735 0
M  V30 6638 C 649.942 3.52921 -0.740232 0
M  V30 6639 O 649.046 4.11879 0.207154 0
M  V30 6640 H 648.387 0.629505 -0.211233 0
M  V30 6641 H 650.917 1.6487 -1.21158 0
M  V30 6642 H 650.927 4.0287 -0.644973 0
M  V30 6643 H 649.602 3.76508 -1.76677 0
M  V30 6644 H 648.179 3.72845 0.0643315 0
M  V30 6645 N 650.364 0.662433 1.43002 0
M  V30 6646 C 651.775 0.258315 1.84904 0
M  V30 6647 C 652.126 -1.19703 1.55453 0
M  V30 6648 O 651.251 -1.91484 1.00811 0
M  V30 6649 C 651.846 0.462047 3.35635 0
M  V30 6650 C 650.405 0.112165 3.76233 0
M  V30 6651 C 649.552 0.760479 2.66668 0
M  V30 6652 H 652.503 0.865467 1.33024 0
M  V30 6653 H 652.524 -0.289646 3.79396 0
M  V30 6654 H 652.036 1.52135 3.57039 0
M  V30 6655 H 650.137 -0.944179 3.60439 0
M  V30 6656 H 650.25 0.544058 4.76001 0
M  V30 6657 H 648.614 0.192887 2.53969 0
M  V30 6658 H 649.397 1.82299 2.90898 0
M  V30 6659 N 651.842 -1.52309 0.404946 0
M  V30 6660 C 653.089 -2.01767 -0.1722 0
M  V30 6661 C 653.417 -1.29075 -1.45498 0
M  V30 6662 O 652.672 -0.3843 -1.9189 0
M  V30 6663 C 652.971 -3.54284 -0.470895 0
M  V30 6664 C 652.637 -4.45079 0.722194 0
M  V30 6665 C 651.299 -4.69617 1.04946 0
M  V30 6666 C 653.651 -4.98555 1.51962 0
M  V30 6667 C 650.979 -5.44878 2.17543 0
M  V30 6668 C 653.331 -5.75049 2.63632 0
M  V30 6669 C 651.995 -5.9786 2.9685 0
M  V30 6670 H 651.265 -0.738316 -0.0630125 0
M  V30 6671 H 653.912 -1.83566 0.545506 0
M  V30 6672 H 652.217 -3.70642 -1.27012 0
M  V30 6673 H 653.914 -3.90058 -0.930346 0
M  V30 6674 H 650.504 -4.26155 0.457131 0
M  V30 6675 H 654.688 -4.79509 1.28002 0
M  V30 6676 H 649.944 -5.60762 2.43631 0
M  V30 6677 H 654.118 -6.15483 3.25813 0
M  V30 6678 H 651.745 -6.5596 3.84215 0
M  V30 6679 N 653.32 -0.135238 -1.57019 0
M  V30 6680 C 654.731 0.387521 -1.82634 0
M  V30 6681 C 655.082 1.65528 -1.05332 0
M  V30 6682 O 654.207 2.14381 -0.294926 0
M  V30 6683 C 654.802 0.709852 -3.3128 0
M  V30 6684 C 653.361 1.17718 -3.57518 0
M  V30 6685 C 652.508 0.194183 -2.76619 0
M  V30 6686 H 655.459 -0.360126 -1.5456 0
M  V30 6687 H 655.48 1.5657 -3.46794 0
M  V30 6688 H 654.992 -0.213024 -3.87515 0
M  V30 6689 H 653.093 2.1164 -3.06658 0
M  V30 6690 H 653.206 1.11128 -4.66034 0
M  V30 6691 H 651.57 0.684478 -2.4533 0
M  V30 6692 H 652.353 -0.722076 -3.3562 0
M  V30 6693 N 654.798 1.5699 0.138552 0
M  V30 6694 C 656.026 1.87976 0.864437 0
M  V30 6695 C 656.441 0.724372 1.74351 0
M  V30 6696 O 655.798 -0.305575 1.79924 0
M  V30 6697 C 655.849 3.18276 1.71414 0
M  V30 6698 O 655.57 4.29365 0.870487 0
M  V30 6699 C 657.071 3.62834 2.54688 0
M  V30 6700 H 654.291 0.622878 0.249528 0
M  V30 6701 H 656.835 2.04094 0.128805 0
M  V30 6702 H 654.99 3.03886 2.40274 0
M  V30 6703 H 655.404 5.03924 1.45466 0
M  V30 6704 H 656.878 4.5682 3.0987 0
M  V30 6705 H 657.355 2.88533 3.31127 0
M  V30 6706 H 657.961 3.79946 1.91105 0
M  V30 6707 N 656.276 -0.40816 1.52223 0
M  V30 6708 C 657.524 -1.15274 1.66001 0
M  V30 6709 C 657.845 -1.91003 0.392803 0
M  V30 6710 O 657.115 -1.8673 -0.592336 0
M  V30 6711 H 655.695 -0.428526 0.611861 0
M  V30 6712 H 658.357 -0.46512 1.89269 0
M  V30 6713 H 657.453 -1.86628 2.50153 0
M  V30 6714 N 657.755 -1.42862 -0.66545 0
M  V30 6715 C 658.98 -1.47456 -1.45848 0
M  V30 6716 C 659.405 -0.0900312 -1.87884 0
M  V30 6717 O 658.763 0.913587 -1.56599 0
M  V30 6718 C 658.811 -2.41514 -2.67774 0
M  V30 6719 O 657.915 -1.89296 -3.66389 0
M  V30 6720 H 657.256 -0.499236 -0.437789 0
M  V30 6721 H 659.786 -1.8765 -0.815394 0
M  V30 6722 H 659.796 -2.58409 -3.15735 0
M  V30 6723 H 658.471 -3.42099 -2.36519 0
M  V30 6724 H 657.048 -1.82003 -3.25468 0
M  V30 6725 N 659.233 0.902656 -1.29189 0
M  V30 6726 C 660.196 1.98797 -1.14071 0
M  V30 6727 C 661.196 1.60615 -0.0770549 0
M  V30 6728 O 662.386 1.71165 -0.323753 0
M  V30 6729 C 659.518 3.32688 -0.743739 0
M  V30 6730 H 660.711 2.13637 -2.10473 0
M  V30 6731 H 658.264 1.08678 -1.12334 0
M  V30 6732 H 658.999 3.23549 0.220554 0
M  V30 6733 H 658.784 3.61765 -1.51223 0
M  V30 6734 H 660.274 4.12337 -0.660935 0
M  V30 6735 N 660.711 1.11618 1.11262 0
M  V30 6736 C 661.958 0.86618 1.8304 0
M  V30 6737 C 662.286 -0.608149 1.84748 0
M  V30 6738 O 661.541 -1.46508 1.29745 0
M  V30 6739 C 661.84 1.37529 3.2988 0
M  V30 6740 C 661.506 2.86317 3.4833 0
M  V30 6741 C 660.168 3.26945 3.53073 0
M  V30 6742 C 662.52 3.82136 3.54431 0
M  V30 6743 C 659.848 4.62117 3.61475 0
M  V30 6744 C 662.2 5.17128 3.64365 0
M  V30 6745 C 660.864 5.57312 3.67369 0
M  V30 6746 H 660.134 0.316958 0.66979 0
M  V30 6747 H 662.781 1.3949 1.31205 0
M  V30 6748 H 661.086 0.766842 3.84222 0
M  V30 6749 H 662.783 1.15817 3.83911 0
M  V30 6750 H 659.373 2.53889 3.45309 0
M  V30 6751 H 663.557 3.51847 3.50025 0
M  V30 6752 H 658.813 4.92655 3.62079 0
M  V30 6753 H 662.987 5.91208 3.68029 0
M  V30 6754 H 660.614 6.62045 3.73632 0
M  V30 6755 N 662.189 -1.289 0.906776 0
M  V30 6756 C 663.437 -1.94883 0.535266 0
M  V30 6757 C 663.758 -1.71784 -0.922791 0
M  V30 6758 O 663.028 -1.05359 -1.65156 0
M  V30 6759 H 661.608 -0.721109 0.194962 0
M  V30 6760 H 664.27 -1.57018 1.15461 0
M  V30 6761 H 663.366 -3.03591 0.723821 0
M  V30 6762 N 663.667 -0.670007 -1.42649 0
M  V30 6763 C 664.914 -0.190286 -2.01604 0
M  V30 6764 C 665.242 1.20155 -1.52948 0
M  V30 6765 O 664.497 1.81964 -0.72026 0
M  V30 6766 C 664.796 -0.168298 -3.57004 0
M  V30 6767 C 664.462 -1.50415 -4.25072 0
M  V30 6768 C 663.124 -1.86992 -4.43382 0
M  V30 6769 C 665.476 -2.38414 -4.63474 0
M  V30 6770 C 662.804 -3.11203 -4.97363 0
M  V30 6771 C 665.156 -3.61933 -5.18833 0
M  V30 6772 C 663.82 -3.98685 -5.35356 0
M  V30 6773 H 663.09 -0.0696305 -0.737721 0
M  V30 6774 H 665.737 -0.864044 -1.70899 0
M  V30 6775 H 664.042 0.588958 -3.87348 0
M  V30 6776 H 665.739 0.22001 -4.00396 0
M  V30 6777 H 662.329 -1.20959 -4.11177 0
M  V30 6778 H 666.513 -2.11442 -4.49006 0
M  V30 6779 H 661.769 -3.39705 -5.08341 0
M  V30 6780 H 665.943 -4.30326 -5.47533 0
M  V30 6781 H 663.57 -4.95009 -5.76949 0
M  V30 6782 N 665.145 1.52092 -0.413018 0
M  V30 6783 C 666.37 2.06756 0.163338 0
M  V30 6784 C 666.795 1.28073 1.37764 0
M  V30 6785 O 666.153 0.312015 1.78595 0
M  V30 6786 C 666.201 3.57278 0.488322 0
M  V30 6787 O 665.305 3.80986 1.57871 0
M  V30 6788 H 664.646 0.663882 0.0125068 0
M  V30 6789 H 667.176 1.95988 -0.587339 0
M  V30 6790 H 667.186 4.01125 0.745836 0
M  V30 6791 H 665.861 4.13978 -0.399327 0
M  V30 6792 H 664.438 3.49017 1.31306 0
M  V30 6793 N 666.623 0.143563 1.56945 0
M  V30 6794 C 667.553 -0.7936 2.196 0
M  V30 6795 C 668.534 -1.25955 1.14321 0
M  V30 6796 O 669.719 -1.31773 1.42651 0
M  V30 6797 C 666.849 -2.03424 2.81489 0
M  V30 6798 C 665.803 -1.70519 3.92565 0
M  V30 6799 C 665.129 -3.01817 4.41373 0
M  V30 6800 C 666.429 -0.95449 5.13504 0
M  V30 6801 H 668.123 -0.271423 2.98167 0
M  V30 6802 H 665.669 -0.12911 1.4342 0
M  V30 6803 H 667.622 -2.69463 3.23987 0
M  V30 6804 H 666.346 -2.58008 2.00248 0
M  V30 6805 H 665.005 -1.06859 3.5068 0
M  V30 6806 H 664.653 -3.54386 3.56959 0
M  V30 6807 H 664.353 -2.80565 5.16292 0
M  V30 6808 H 665.877 -3.68934 4.86539 0
M  V30 6809 H 667.291 -1.5169 5.52868 0
M  V30 6810 H 665.688 -0.842035 5.94163 0
M  V30 6811 H 666.758 0.0544033 4.84869 0
M  V30 6812 N 668.101 -1.57061 -0.130224 0
M  V30 6813 C 669.517 -1.52103 -0.483413 0
M  V30 6814 C 669.717 -0.854752 -1.82473 0
M  V30 6815 O 668.773 -0.432342 -2.48771 0
M  V30 6816 C 670.086 -2.96872 -0.47825 0
M  V30 6817 C 671.634 -3.07902 -0.562592 0
M  V30 6818 C 672.109 -4.54211 -0.587929 0
M  V30 6819 N 673.6 -4.58621 -0.649684 0
M  V30 6820 C 674.335 -5.69227 -0.690551 0
M  V30 6821 N 673.831 -6.89358 -0.689743 0
M  V30 6822 N 675.624 -5.57304 -0.732708 0
M  V30 6823 H 667.775 -1.98764 0.748779 0
M  V30 6824 H 670.038 -0.907248 0.274965 0
M  V30 6825 H 669.744 -3.48944 0.439444 0
M  V30 6826 H 669.618 -3.53716 -1.31013 0
M  V30 6827 H 672.005 -2.5584 -1.47071 0
M  V30 6828 H 672.086 -2.54073 0.296764 0
M  V30 6829 H 671.73 -5.06915 0.316096 0
M  V30 6830 H 671.66 -5.0584 -1.46401 0
M  V30 6831 H 674.151 -3.72146 -0.656927 0
M  V30 6832 H 674.464 -7.69408 -0.723239 0
M  V30 6833 H 672.809 -6.91884 -0.657347 0
M  V30 6834 H 676 -4.62363 -0.730625 0
M  V30 6835 H 676.173 -6.43515 -0.76109 0
M  V30 6836 N 669.579 0.400081 -1.52437 0
M  V30 6837 C 670.827 1.14392 -1.6661 0
M  V30 6838 C 671.148 1.90792 -0.402927 0
M  V30 6839 O 670.418 1.87042 0.582425 0
M  V30 6840 H 668.998 0.425275 -0.614125 0
M  V30 6841 H 671.66 0.455076 -1.89513 0
M  V30 6842 H 670.756 1.85298 -2.51139 0
M  V30 6843 N 671.057 1.43213 0.657864 0
M  V30 6844 C 672.02 1.47687 1.75275 0
M  V30 6845 C 673.02 0.362179 1.56668 0
M  V30 6846 O 674.21 0.623734 1.62651 0
M  V30 6847 C 671.342 1.32497 3.14098 0
M  V30 6848 H 672.535 2.4519 1.7269 0
M  V30 6849 H 670.088 1.2991 0.869087 0
M  V30 6850 H 670.823 0.359831 3.22298 0
M  V30 6851 H 670.608 2.13299 3.29008 0
M  V30 6852 H 672.098 1.38549 3.93946 0
M  V30 6853 N 672.536 -0.895792 1.29666 0
M  V30 6854 C 673.782 -1.64908 1.18039 0
M  V30 6855 C 674.115 -1.9236 -0.266682 0
M  V30 6856 O 673.39 -1.53682 -1.19214 0
M  V30 6857 C 673.673 -2.99574 1.99819 0
M  V30 6858 C 673.526 -2.79163 3.52687 0
M  V30 6859 C 674.845 -4.00358 1.82761 0
M  V30 6860 H 671.964 -0.598437 0.430165 0
M  V30 6861 H 674.606 -1.03736 1.59182 0
M  V30 6862 H 672.756 -3.51786 1.64859 0
M  V30 6863 H 674.428 -2.33821 3.9765 0
M  V30 6864 H 672.671 -2.13871 3.77414 0
M  V30 6865 H 673.342 -3.74871 4.05186 0
M  V30 6866 H 675.818 -3.57268 2.13304 0
M  V30 6867 H 674.694 -4.92514 2.42325 0
M  V30 6868 H 674.955 -4.35096 0.783839 0
M  V30 6869 N 674.014 -1.12206 -1.10668 0
M  V30 6870 C 675.291 -0.787382 -1.79052 0
M  V30 6871 C 675.671 0.723267 -1.98323 0
M  V30 6872 O 675.019 1.6561 -1.57434 0
M  V30 6873 C 675.229 -1.55968 -3.1221 0
M  V30 6874 C 676.577 -1.74413 -3.87125 0
M  V30 6875 O 677.601 -1.5246 -3.21923 0
M  V30 6876 O 676.46 -2.10952 -5.04144 0
M  V30 6877 H 673.554 -0.286137 -0.775922 0
M  V30 6878 H 676.1 -1.22595 -1.1734 0
M  V30 6879 H 674.872 -2.58692 -2.93588 0
M  V30 6880 H 674.495 -1.1152 -3.8164 0
M  V30 6881 N 675.492 1.28418 -0.913599 0
M  V30 6882 C 676.741 1.94265 -0.542572 0
M  V30 6883 C 677.054 1.72709 0.918207 0
M  V30 6884 O 678.26 2.32778 1.39738 0
M  V30 6885 C 676.716 3.47956 -0.919507 0
M  V30 6886 C 676.324 3.78291 -2.4 0
M  V30 6887 C 678.068 4.19962 -0.619057 0
M  V30 6888 C 675.975 5.2529 -2.71707 0
M  V30 6889 H 674.905 0.727213 -0.199192 0
M  V30 6890 H 677.556 1.45931 -1.11249 0
M  V30 6891 H 675.938 3.9502 -0.278372 0
M  V30 6892 H 677.112 3.42035 -3.08786 0
M  V30 6893 H 675.427 3.19456 -2.67089 0
M  V30 6894 H 678.024 5.28178 -0.832623 0
M  V30 6895 H 678.367 4.13935 0.443126 0
M  V30 6896 H 678.9 3.78674 -1.21865 0
M  V30 6897 H 675.639 5.36394 -3.76778 0
M  V30 6898 H 675.159 5.62743 -2.07559 0
M  V30 6899 H 676.838 5.93027 -2.58703 0
M  V30 6900 N 676.97 0.677563 1.42291 0
M  V30 6901 C 678.247 0.129803 1.95169 0
M  V30 6902 C 678.627 -1.35605 1.61786 0
M  V30 6903 O 677.975 -2.09361 0.915444 0
M  V30 6904 C 678.185 0.401889 3.46678 0
M  V30 6905 C 679.533 0.319889 4.23393 0
M  V30 6906 O 680.557 0.33579 3.54614 0
M  V30 6907 O 679.416 0.264459 5.4586 0
M  V30 6908 H 676.51 0.00447433 0.826988 0
M  V30 6909 H 679.056 0.752483 1.52105 0
M  V30 6910 H 677.828 1.43108 3.64192 0
M  V30 6911 H 677.451 -0.252662 3.96796 0
M  V30 6912 N 678.448 -1.51871 0.421078 0
M  V30 6913 C 679.725 -1.9447 -0.20993 0
M  V30 6914 C 680.105 -1.35875 -1.61558 0
M  V30 6915 O 679.453 -0.539294 -2.22045 0
M  V30 6916 C 679.663 -3.48402 -0.204165 0
M  V30 6917 C 681.011 -4.2254 -0.417696 0
M  V30 6918 O 682.035 -3.55074 -0.282999 0
M  V30 6919 O 680.894 -5.422 -0.684239 0
M  V30 6920 H 677.988 -0.815283 -0.138718 0
M  V30 6921 H 680.534 -1.62832 0.477884 0
M  V30 6922 H 679.306 -3.83464 0.779183 0
M  V30 6923 H 678.929 -3.86436 -0.935576 0
M  V30 6924 N 679.926 -0.151884 -1.56866 0
M  V30 6925 C 680.874 0.80299 -2.183 0
M  V30 6926 C 681.868 1.25174 -1.14139 0
M  V30 6927 O 683.074 1.21966 -1.3238 0
M  V30 6928 H 679.449 0.277169 -0.699057 0
M  V30 6929 H 681.42 0.260699 -2.97259 0
M  V30 6930 C 680.169 2.03009 -2.82281 0
M  V30 6931 H 679.492 1.69377 -3.62148 0
M  V30 6932 H 680.932 2.67753 -3.28762 0
M  V30 6933 C 679.391 2.84123 -1.81041 0
M  V30 6934 O 679.921 3.8063 -1.28388 0
M  V30 6935 N 678.127 2.48753 -1.50234 0
M  V30 6936 H 677.674 1.70337 -1.93244 0
M  V30 6937 H 677.632 3.03316 -0.827445 0
M  V30 6938 N 681.404 1.57128 0.121893 0
M  V30 6939 C 682.652 1.84335 0.828548 0
M  V30 6940 C 682.973 0.736632 1.80551 0
M  V30 6941 O 682.243 -0.23962 1.94429 0
M  V30 6942 H 680.823 0.680108 0.30897 0
M  V30 6943 H 683.485 1.9459 0.109906 0
M  V30 6944 H 682.581 2.80152 1.37554 0
M  V30 6945 N 682.882 -0.391992 1.52647 0
M  V30 6946 C 684.112 -1.15692 1.71169 0
M  V30 6947 C 684.52 -1.84285 0.428444 0
M  V30 6948 O 683.863 -1.73393 -0.606669 0
M  V30 6949 C 683.925 -2.25033 2.80357 0
M  V30 6950 C 683.589 -1.76433 4.21569 0
M  V30 6951 C 684.586 -1.2427 5.0483 0
M  V30 6952 C 682.271 -1.82746 4.67877 0
M  V30 6953 C 684.265 -0.790657 6.32477 0
M  V30 6954 C 681.952 -1.37153 5.9551 0
M  V30 6955 C 682.95 -0.853997 6.7764 0
M  V30 6956 O 682.638 -0.404708 8.02881 0
M  V30 6957 H 682.37 -0.35297 0.576531 0
M  V30 6958 H 684.924 -0.464994 2.00067 0
M  V30 6959 H 683.154 -2.97641 2.46874 0
M  V30 6960 H 684.843 -2.86718 2.87311 0
M  V30 6961 H 685.609 -1.18752 4.70237 0
M  V30 6962 H 681.488 -2.21971 4.04042 0
M  V30 6963 H 685.032 -0.386024 6.96531 0
M  V30 6964 H 680.929 -1.42356 6.29607 0
M  V30 6965 H 681.697 -0.526459 8.16805 0
M  V30 6966 N 684.36 -1.4356 -0.65026 0
M  V30 6967 C 685.771 -1.40324 -1.2315 0
M  V30 6968 C 686.122 -0.108812 -1.95898 0
M  V30 6969 O 685.247 0.79163 -2.01401 0
M  V30 6970 C 685.842 -2.54195 -2.23987 0
M  V30 6971 C 684.401 -2.54215 -2.77582 0
M  V30 6972 C 683.548 -2.31752 -1.5227 0
M  V30 6973 H 686.499 -1.52418 -0.442095 0
M  V30 6974 H 686.52 -2.25854 -3.0622 0
M  V30 6975 H 686.032 -3.48392 -1.71011 0
M  V30 6976 H 684.133 -1.63907 -3.34612 0
M  V30 6977 H 684.246 -3.52081 -3.24925 0
M  V30 6978 H 682.61 -1.80476 -1.79723 0
M  V30 6979 H 683.393 -3.28037 -1.01225 0
M  V30 6980 N 685.838 0.888903 -1.30139 0
M  V30 6981 C 687.115 1.62145 -1.094 0
M  V30 6982 C 687.495 2.08041 0.358091 0
M  V30 6983 O 686.843 1.84438 1.34888 0
M  V30 6984 C 687.053 2.794 -2.09133 0
M  V30 6985 C 688.401 3.49826 -2.40638 0
M  V30 6986 O 689.425 2.89583 -2.07412 0
M  V30 6987 O 688.284 4.58457 -2.97455 0
M  V30 6988 H 685.378 0.712475 -0.41989 0
M  V30 6989 H 687.924 0.936023 -1.41551 0
M  V30 6990 H 686.696 2.42762 -3.06891 0
M  V30 6991 H 686.319 3.55643 -1.77776 0
M  V30 6992 N 687.317 1.12792 1.10072 0
M  V30 6993 C 688.247 0.821688 2.18565 0
M  V30 6994 C 689.228 -0.21612 1.68721 0
M  V30 6995 O 690.413 -0.0764932 1.94049 0
M  V30 6996 C 687.543 0.279624 3.46172 0
M  V30 6997 C 686.497 1.25092 4.09312 0
M  V30 6998 C 685.823 0.568916 5.31665 0
M  V30 6999 C 687.123 2.60699 4.52585 0
M  V30 7000 H 688.817 1.72888 2.44438 0
M  V30 7001 H 686.363 0.832702 1.17482 0
M  V30 7002 H 688.316 0.053099 4.21367 0
M  V30 7003 H 687.04 -0.662929 3.19801 0
M  V30 7004 H 685.699 1.46332 3.36129 0
M  V30 7005 H 685.347 -0.378898 5.01571 0
M  V30 7006 H 685.047 1.21687 5.74862 0
M  V30 7007 H 686.571 0.351517 6.09587 0
M  V30 7008 H 687.985 2.43465 5.19035 0
M  V30 7009 H 686.382 3.21608 5.06644 0
M  V30 7010 H 687.452 3.1886 3.65317 0
M  V30 7011 N 688.795 -1.27931 0.920396 0
M  V30 7012 C 690.044 -1.93975 0.552867 0
M  V30 7013 C 690.357 -1.73193 -0.909035 0
M  V30 7014 O 691.563 -2.33515 -1.38502 0
M  V30 7015 C 690.019 -3.47463 0.937947 0
M  V30 7016 C 689.627 -3.77013 2.42003 0
M  V30 7017 C 691.371 -4.19628 0.64132 0
M  V30 7018 C 689.278 -5.23841 2.74489 0
M  V30 7019 H 688.208 -0.726146 0.203046 0
M  V30 7020 H 690.859 -1.45339 1.12022 0
M  V30 7021 H 689.241 -3.94867 0.299317 0
M  V30 7022 H 690.415 -3.40393 3.10595 0
M  V30 7023 H 688.73 -3.18035 2.6878 0
M  V30 7024 H 691.327 -5.27729 0.860622 0
M  V30 7025 H 691.67 -4.14164 -0.421168 0
M  V30 7026 H 692.203 -3.78022 1.23872 0
M  V30 7027 H 688.942 -5.34388 3.79618 0
M  V30 7028 H 688.462 -5.61634 2.1054 0
M  V30 7029 H 690.141 -5.91647 2.61845 0
M  V30 7030 N 690.273 -0.685099 -1.4193 0
M  V30 7031 C 691.519 -0.211971 -2.01689 0
M  V30 7032 C 691.852 1.18189 -1.54094 0
M  V30 7033 O 691.127 1.79559 -0.747572 0
M  V30 7034 C 691.41 -0.258019 -3.59174 0
M  V30 7035 C 691.263 -1.68807 -4.16922 0
M  V30 7036 C 692.582 0.388044 -4.38386 0
M  V30 7037 H 689.701 -0.0784987 -0.732808 0
M  V30 7038 H 692.343 -0.871837 -1.68816 0
M  V30 7039 H 690.493 0.303832 -3.8731 0
M  V30 7040 H 692.165 -2.30296 -3.99702 0
M  V30 7041 H 690.408 -2.22553 -3.72361 0
M  V30 7042 H 691.079 -1.6719 -5.26072 0
M  V30 7043 H 693.555 -0.0903432 -4.16002 0
M  V30 7044 H 692.431 0.325232 -5.47936 0
M  V30 7045 H 692.692 1.4672 -4.17044 0
M  V30 7046 N 691.751 1.51645 -0.429126 0
M  V30 7047 C 692.999 2.01616 0.139802 0
M  V30 7048 C 693.32 1.31568 1.43927 0
M  V30 7049 O 692.59 0.447688 1.90716 0
M  V30 7050 H 691.17 0.744998 0.054654 0
M  V30 7051 H 693.832 1.8638 -0.569952 0
M  V30 7052 H 692.928 3.10439 0.321609 0
M  V30 7053 N 693.229 0.160201 1.56784 0
M  V30 7054 C 694.192 -0.760405 2.16219 0
M  V30 7055 C 695.192 -1.16595 1.10735 0
M  V30 7056 O 696.382 -1.08472 1.36306 0
M  V30 7057 C 693.514 -2.03358 2.73603 0
M  V30 7058 H 694.707 -0.243173 2.98912 0
M  V30 7059 H 692.26 -0.0893139 1.56045 0
M  V30 7060 H 692.995 -2.59416 1.94612 0
M  V30 7061 H 692.78 -1.75186 3.50788 0
M  V30 7062 H 694.27 -2.69081 3.19351 0
M  V30 7063 N 694.707 -1.5719 -0.113559 0
M  V30 7064 C 695.937 -1.89053 -0.833212 0
M  V30 7065 C 696.345 -0.750139 -1.73694 0
M  V30 7066 O 695.688 0.287808 -1.81431 0
M  V30 7067 C 695.75 -3.15986 -1.71443 0
M  V30 7068 C 695.414 -4.46271 -0.984449 0
M  V30 7069 C 696.411 -5.18897 -0.322741 0
M  V30 7070 C 694.096 -4.92963 -0.964011 0
M  V30 7071 C 696.09 -6.3644 0.349646 0
M  V30 7072 C 693.777 -6.10422 -0.287828 0
M  V30 7073 C 694.775 -6.82009 0.36784 0
M  V30 7074 O 694.463 -7.97233 1.03322 0
M  V30 7075 H 694.195 -0.630225 -0.244526 0
M  V30 7076 H 696.749 -2.05152 -0.100847 0
M  V30 7077 H 694.979 -2.95984 -2.48858 0
M  V30 7078 H 696.668 -3.33826 -2.309 0
M  V30 7079 H 697.434 -4.83875 -0.330114 0
M  V30 7080 H 693.313 -4.37143 -1.46379 0
M  V30 7081 H 696.857 -6.92254 0.861996 0
M  V30 7082 H 692.754 -6.449 -0.278237 0
M  V30 7083 H 693.522 -8.13105 0.938247 0
M  V30 7084 N 696.185 0.383891 -1.52853 0
M  V30 7085 C 697.433 1.12619 -1.67814 0
M  V30 7086 C 697.754 1.90354 -0.423141 0
M  V30 7087 O 697.024 1.87649 0.562554 0
M  V30 7088 H 695.604 0.418738 -0.618601 0
M  V30 7089 H 698.266 0.43495 -1.89985 0
M  V30 7090 H 697.362 1.82624 -2.5309 0
M  V30 7091 N 697.663 1.43903 0.642637 0
M  V30 7092 C 698.626 1.49538 1.73698 0
M  V30 7093 C 699.626 0.378776 1.56275 0
M  V30 7094 O 700.816 0.64095 1.6198 0
M  V30 7095 C 697.948 1.35821 3.12675 0
M  V30 7096 H 699.141 2.47008 1.70079 0
M  V30 7097 H 696.694 1.30824 0.85526 0
M  V30 7098 H 697.429 0.393994 3.21898 0
M  V30 7099 H 697.214 2.16776 3.26727 0
M  V30 7100 H 698.704 1.4272 3.92455 0
M  V30 7101 N 699.141 -0.881989 1.30609 0
M  V30 7102 C 700.089 -2.00942 1.17155 0
M  V30 7103 C 701.083 -1.69198 0.0827154 0
M  V30 7104 O 702.289 -1.78342 0.243775 0
M  V30 7105 H 698.664 -0.658913 0.362406 0
M  V30 7106 H 700.635 -2.09423 2.12567 0
M  V30 7107 C 699.384 -3.36294 0.883273 0
M  V30 7108 H 698.707 -3.61233 1.7132 0
M  V30 7109 H 700.147 -4.15812 0.829255 0
M  V30 7110 C 698.606 -3.34348 -0.413851 0
M  V30 7111 O 699.136 -3.75216 -1.43444 0
M  V30 7112 N 697.342 -2.87459 -0.426082 0
M  V30 7113 H 696.889 -2.54397 0.40493 0
M  V30 7114 H 696.847 -2.8654 -1.29391 0
M  V30 7115 N 700.619 -1.13374 -1.09472 0
M  V30 7116 C 701.551 -0.768466 -2.15933 0
M  V30 7117 C 702.564 0.209585 -1.61445 0
M  V30 7118 O 703.753 -0.010539 -1.78497 0
M  V30 7119 C 700.853 -0.118266 -3.38694 0
M  V30 7120 C 700.026 -1.12829 -4.22597 0
M  V30 7121 C 699.085 -0.503875 -5.23782 0
M  V30 7122 O 698.111 -1.16374 -5.57177 0
M  V30 7123 N 699.313 0.724288 -5.75964 0
M  V30 7124 H 702.078 -1.68457 -2.47876 0
M  V30 7125 H 699.639 -1.02668 -1.25183 0
M  V30 7126 H 701.631 0.311698 -4.03498 0
M  V30 7127 H 700.201 0.700769 -3.04644 0
M  V30 7128 H 699.421 -1.73556 -3.53938 0
M  V30 7129 H 700.709 -1.81095 -4.75481 0
M  V30 7130 H 700.107 1.27918 -5.51048 0
M  V30 7131 H 698.664 1.09692 -6.42504 0
M  V30 7132 N 702.098 1.27442 -0.927168 0
M  V30 7133 C 703.344 1.94679 -0.568164 0
M  V30 7134 C 703.677 1.72697 0.888219 0
M  V30 7135 O 702.952 1.05573 1.63354 0
M  V30 7136 C 703.235 3.4882 -0.894253 0
M  V30 7137 C 703.088 3.80146 -2.40435 0
M  V30 7138 C 704.407 4.38281 -0.399766 0
M  V30 7139 H 701.526 0.707071 -0.207892 0
M  V30 7140 H 704.168 1.50568 -1.15885 0
M  V30 7141 H 702.318 3.86522 -0.391566 0
M  V30 7142 H 703.99 3.52238 -2.97869 0
M  V30 7143 H 702.233 3.26716 -2.85375 0
M  V30 7144 H 702.904 4.87835 -2.58304 0
M  V30 7145 H 705.38 4.07726 -0.83058 0
M  V30 7146 H 704.256 5.44955 -0.656885 0
M  V30 7147 H 704.517 4.36521 0.700153 0
M  V30 7148 N 703.576 0.692616 1.41565 0
M  V30 7149 C 704.539 0.0344174 2.29174 0
M  V30 7150 C 705.539 -0.710961 1.44229 0
M  V30 7151 O 706.729 -0.546293 1.65412 0
M  V30 7152 C 703.861 -0.961682 3.27054 0
M  V30 7153 H 705.054 0.805755 2.88873 0
M  V30 7154 H 702.607 0.455947 1.49502 0
M  V30 7155 H 703.342 -1.76089 2.72329 0
M  V30 7156 H 703.127 -0.430375 3.89731 0
M  V30 7157 H 704.617 -1.4201 3.92712 0
M  V30 7158 N 705.054 -1.51416 0.437162 0
M  V30 7159 C 706.3 -2.02386 -0.129555 0
M  V30 7160 C 706.633 -1.32071 -1.42376 0
M  V30 7161 O 705.908 -0.43559 -1.8956 0
M  V30 7162 C 706.191 -3.5841 -0.348487 0
M  V30 7163 C 706.044 -4.39341 0.964352 0
M  V30 7164 C 707.363 -4.25654 -1.11834 0
M  V30 7165 H 704.482 -0.735587 -0.0456109 0
M  V30 7166 H 707.124 -1.81055 0.576124 0
M  V30 7167 H 705.274 -3.76716 -0.949592 0
M  V30 7168 H 706.946 -4.32685 1.59942 0
M  V30 7169 H 705.189 -4.04432 1.56898 0
M  V30 7170 H 705.86 -5.4667 0.765212 0
M  V30 7171 H 708.336 -4.11617 -0.609165 0
M  V30 7172 H 707.212 -5.34704 -1.24029 0
M  V30 7173 H 707.473 -3.86502 -2.14636 0
M  V30 7174 N 706.532 -0.168513 -1.56696 0
M  V30 7175 C 707.762 0.482802 -2.0088 0
M  V30 7176 C 708.17 1.57537 -1.0478 0
M  V30 7177 O 707.513 1.83656 -0.0402746 0
M  V30 7178 C 707.575 1.1236 -3.4149 0
M  V30 7179 C 707.239 0.173027 -4.56672 0
M  V30 7180 C 708.236 -0.607565 -5.16338 0
M  V30 7181 C 705.921 0.0696691 -5.02252 0
M  V30 7182 C 707.915 -1.47874 -6.2001 0
M  V30 7183 C 705.602 -0.805096 -6.05773 0
M  V30 7184 C 706.6 -1.57789 -6.64524 0
M  V30 7185 O 706.288 -2.43804 -7.66038 0
M  V30 7186 H 706.02 0.128246 -0.663723 0
M  V30 7187 H 708.574 -0.266532 -2.03663 0
M  V30 7188 H 706.804 1.921 -3.35611 0
M  V30 7189 H 708.493 1.67683 -3.69645 0
M  V30 7190 H 709.259 -0.53787 -4.82008 0
M  V30 7191 H 705.138 0.660957 -4.56237 0
M  V30 7192 H 708.682 -2.0824 -6.65794 0
M  V30 7193 H 704.579 -0.876005 -6.39528 0
M  V30 7194 H 705.347 -2.37289 -7.83349 0
M  V30 7195 N 708.01 1.57248 0.105221 0
M  V30 7196 C 709.426 1.52853 0.459153 0
M  V30 7197 C 709.626 0.883674 1.8109 0
M  V30 7198 O 708.682 0.471864 2.48052 0
M  V30 7199 C 709.995 2.97596 0.43096 0
M  V30 7200 C 711.543 3.08758 0.513536 0
M  V30 7201 C 712.018 4.55089 0.515593 0
M  V30 7202 N 713.509 4.59597 0.576639 0
M  V30 7203 C 714.244 5.70253 0.599904 0
M  V30 7204 N 713.74 6.90368 0.579985 0
M  V30 7205 N 715.533 5.58399 0.643953 0
M  V30 7206 H 707.684 1.97547 -0.780306 0
M  V30 7207 H 709.947 0.902758 -0.289363 0
M  V30 7208 H 709.653 3.48201 -0.494903 0
M  V30 7209 H 709.527 3.55756 1.2537 0
M  V30 7210 H 711.914 2.58148 1.42982 0
M  V30 7211 H 711.995 2.53568 -0.337148 0
M  V30 7212 H 711.639 5.06348 -0.396701 0
M  V30 7213 H 711.569 5.08105 1.38335 0
M  V30 7214 H 714.06 3.73144 0.597639 0
M  V30 7215 H 714.373 7.70462 0.600741 0
M  V30 7216 H 712.718 6.92843 0.547191 0
M  V30 7217 H 715.909 4.63467 0.656975 0
M  V30 7218 H 716.082 6.44644 0.658616 0
M  V30 7219 N 709.488 -0.375779 1.53054 0
M  V30 7220 C 710.451 -1.44254 1.7811 0
M  V30 7221 C 711.451 -1.47018 0.651328 0
M  V30 7222 O 712.641 -1.47957 0.919472 0
M  V30 7223 C 709.773 -2.8345 1.89391 0
M  V30 7224 H 710.966 -1.23316 2.73374 0
M  V30 7225 H 708.519 -0.608312 1.43977 0
M  V30 7226 H 709.254 -3.09716 0.961589 0
M  V30 7227 H 709.039 -2.82844 2.71555 0
M  V30 7228 H 710.529 -3.60722 2.10404 0
M  V30 7229 N 710.966 -1.44241 -0.634997 0
M  V30 7230 C 711.898 -1.46793 -1.76024 0
M  V30 7231 C 712.911 -0.361781 -1.58729 0
M  V30 7232 O 714.1 -0.627297 -1.67114 0
M  V30 7233 C 711.2 -1.28248 -3.13697 0
M  V30 7234 C 710.373 -2.52038 -3.57485 0
M  V30 7235 C 709.432 -2.2845 -4.74022 0
M  V30 7236 O 708.458 -3.01915 -4.82531 0
M  V30 7237 N 709.66 -1.31264 -5.65464 0
M  V30 7238 H 712.425 -2.43797 -1.74307 0
M  V30 7239 H 709.986 -1.39631 -0.819438 0
M  V30 7240 H 711.978 -1.10321 -3.89373 0
M  V30 7241 H 710.548 -0.39623 -3.10079 0
M  V30 7242 H 709.768 -2.85268 -2.72059 0
M  V30 7243 H 711.056 -3.34382 -3.83492 0
M  V30 7244 H 710.454 -0.705817 -5.6128 0
M  V30 7245 H 709.011 -1.19316 -6.40786 0
M  V30 7246 N 712.444 0.87505 -1.31075 0
M  V30 7247 C 713.855 1.4433 -1.18431 0
M  V30 7248 C 714.206 1.9506 0.211189 0
M  V30 7249 O 713.331 1.85847 1.10859 0
M  V30 7250 C 713.926 2.62341 -2.14389 0
M  V30 7251 C 712.485 3.15225 -2.05694 0
M  V30 7252 C 711.632 1.87929 -2.03907 0
M  V30 7253 H 714.583 0.684061 -1.432 0
M  V30 7254 H 714.604 3.3887 -1.73053 0
M  V30 7255 H 714.116 2.25388 -3.15946 0
M  V30 7256 H 712.217 3.56812 -1.07314 0
M  V30 7257 H 712.33 3.77853 -2.94558 0
M  V30 7258 H 710.694 2.06679 -1.48849 0
M  V30 7259 H 711.477 1.53221 -3.07211 0
M  V30 7260 N 713.922 1.13953 1.08869 0
M  V30 7261 C 715.168 0.906151 1.8143 0
M  V30 7262 C 715.501 -0.566089 1.85766 0
M  V30 7263 O 714.776 -1.41915 1.33006 0
M  V30 7264 C 715.059 1.50183 3.27287 0
M  V30 7265 C 714.912 3.04359 3.31189 0
M  V30 7266 C 716.231 1.17477 4.24131 0
M  V30 7267 H 713.35 0.330624 0.658678 0
M  V30 7268 H 715.992 1.40873 1.27495 0
M  V30 7269 H 714.142 1.07442 3.73348 0
M  V30 7270 H 715.814 3.55896 2.93488 0
M  V30 7271 H 714.057 3.39053 2.70602 0
M  V30 7272 H 714.728 3.41141 4.33966 0
M  V30 7273 H 717.204 1.5442 3.86385 0
M  V30 7274 H 716.08 1.61795 5.24513 0
M  V30 7275 H 716.341 0.0893312 4.4201 0
M  V30 7276 N 715.4 -1.26948 0.933913 0
M  V30 7277 C 716.646 -1.94374 0.57848 0
M  V30 7278 C 716.979 -1.73166 -0.879048 0
M  V30 7279 O 716.254 -1.06438 -1.62792 0
M  V30 7280 C 716.537 -3.4834 0.912739 0
M  V30 7281 C 716.39 -3.78866 2.42448 0
M  V30 7282 C 717.709 -4.38062 0.423003 0
M  V30 7283 H 714.828 -0.705959 0.211639 0
M  V30 7284 H 717.47 -1.49951 1.16682 0
M  V30 7285 H 715.62 -3.86309 0.412058 0
M  V30 7286 H 717.292 -3.50654 2.99733 0
M  V30 7287 H 715.535 -3.25198 2.87104 0
M  V30 7288 H 716.206 -4.86458 2.60887 0
M  V30 7289 H 718.682 -4.0728 0.852191 0
M  V30 7290 H 717.558 -5.44599 0.685776 0
M  V30 7291 H 717.819 -4.36886 -0.676994 0
M  V30 7292 N 716.879 -0.700114 -1.41195 0
M  V30 7293 C 717.826 -0.0376652 -2.30769 0
M  V30 7294 C 718.796 0.766544 -1.47354 0
M  V30 7295 O 719.981 0.73365 -1.76131 0
M  V30 7296 C 717.121 0.889452 -3.33441 0
M  V30 7297 C 716.234 0.076373 -4.31932 0
M  V30 7298 C 715.369 1.00155 -5.21673 0
M  V30 7299 C 714.408 0.181644 -6.1183 0
M  V30 7300 N 713.545 1.06087 -6.94039 0
M  V30 7301 H 718.385 -0.80726 -2.86858 0
M  V30 7302 H 715.922 -0.409798 -1.41277 0
M  V30 7303 H 717.88 1.44107 -3.91522 0
M  V30 7304 H 716.51 1.6254 -2.78892 0
M  V30 7305 H 715.562 -0.592223 -3.75762 0
M  V30 7306 H 716.874 -0.559076 -4.95657 0
M  V30 7307 H 716.028 1.62223 -5.8461 0
M  V30 7308 H 714.767 1.67085 -4.58186 0
M  V30 7309 H 713.772 -0.452085 -5.47938 0
M  V30 7310 H 714.997 -0.483925 -6.77374 0
M  V30 7311 H 712.943 1.7161 -6.33156 0
M  V30 7312 H 712.86 0.481094 -7.54468 0
M  V30 7313 H 714.128 1.66822 -7.6144 0
M  V30 7314 N 718.357 1.51182 -0.445186 0
M  V30 7315 C 719.32 2.26501 0.350722 0
M  V30 7316 C 720.32 1.3025 0.942952 0
M  V30 7317 O 721.51 1.53897 0.816175 0
M  V30 7318 C 718.642 3.06274 1.49697 0
M  V30 7319 H 719.835 2.98299 -0.309474 0
M  V30 7320 H 717.388 1.55034 -0.198551 0
M  V30 7321 H 718.123 2.38911 2.19299 0
M  V30 7322 H 717.908 3.76979 1.0784 0
M  V30 7323 H 719.398 3.63306 2.05909 0
M  V30 7324 N 719.835 0.176821 1.56605 0
M  V30 7325 C 721.06 -0.47599 2.01864 0
M  V30 7326 C 721.485 -1.55645 1.05623 0
M  V30 7327 O 720.843 -1.81263 0.0366729 0
M  V30 7328 C 720.891 -1.02619 3.4569 0
M  V30 7329 O 719.995 -2.13996 3.52533 0
M  V30 7330 H 719.336 -0.113363 0.654251 0
M  V30 7331 H 721.866 0.28233 2.02643 0
M  V30 7332 H 721.876 -1.34742 3.85109 0
M  V30 7333 H 720.551 -0.235138 4.15235 0
M  V30 7334 H 719.128 -1.82876 3.24978 0
M  V30 7335 N 721.313 -1.57302 -0.09688 0
M  V30 7336 C 722.559 -1.86273 -0.801885 0
M  V30 7337 C 722.892 -0.765694 -1.78468 0
M  V30 7338 O 722.167 0.226495 -1.93177 0
M  V30 7339 C 722.45 -3.25876 -1.53221 0
M  V30 7340 C 722.303 -4.46205 -0.567529 0
M  V30 7341 C 723.622 -3.63352 -2.48321 0
M  V30 7342 H 720.741 -0.67752 -0.29006 0
M  V30 7343 H 723.383 -1.89887 -0.0655577 0
M  V30 7344 H 721.533 -3.22926 -2.15988 0
M  V30 7345 H 723.205 -4.6127 0.0529982 0
M  V30 7346 H 721.448 -4.33636 0.119233 0
M  V30 7347 H 722.119 -5.40608 -1.11564 0
M  V30 7348 H 724.595 -3.67234 -1.95648 0
M  V30 7349 H 723.471 -4.61968 -2.9644 0
M  V30 7350 H 723.732 -2.91941 -3.31998 0
M  V30 7351 N 722.791 0.367657 -1.53252 0
M  V30 7352 C 723.723 1.47032 -1.75824 0
M  V30 7353 C 724.736 1.49736 -0.63898 0
M  V30 7354 O 725.925 1.53253 -0.915193 0
M  V30 7355 C 723.025 2.85805 -1.82122 0
M  V30 7356 C 722.198 3.06822 -3.11736 0
M  V30 7357 C 721.257 4.25698 -3.09302 0
M  V30 7358 O 720.283 4.20972 -3.83107 0
M  V30 7359 N 721.485 5.33002 -2.29977 0
M  V30 7360 H 724.25 1.28048 -2.70968 0
M  V30 7361 H 721.811 0.557363 -1.52004 0
M  V30 7362 H 723.803 3.63465 -1.77975 0
M  V30 7363 H 722.373 2.98046 -0.942716 0
M  V30 7364 H 721.593 2.1684 -3.29202 0
M  V30 7365 H 722.881 3.17731 -3.97397 0
M  V30 7366 H 722.279 5.39703 -1.69521 0
M  V30 7367 H 720.836 6.09247 -2.3165 0
M  V30 7368 N 724.269 1.44576 0.627338 0
M  V30 7369 C 725.199 1.54562 1.75022 0
M  V30 7370 C 726.18 0.398378 1.65369 0
M  V30 7371 O 727.365 0.61899 1.84071 0
M  V30 7372 C 724.495 1.49309 3.13567 0
M  V30 7373 C 723.449 2.62549 3.38012 0
M  V30 7374 C 722.775 2.42348 4.76625 0
M  V30 7375 C 724.075 4.04678 3.30202 0
M  V30 7376 H 725.769 2.4855 1.66922 0
M  V30 7377 H 723.315 1.19624 0.801636 0
M  V30 7378 H 725.268 1.54895 3.919 0
M  V30 7379 H 723.992 0.518392 3.2246 0
M  V30 7380 H 722.651 2.56358 2.62061 0
M  V30 7381 H 722.299 1.43062 4.82226 0
M  V30 7382 H 721.999 3.18273 4.93939 0
M  V30 7383 H 723.523 2.49758 5.57183 0
M  V30 7384 H 724.937 4.12217 3.98435 0
M  V30 7385 H 723.334 4.80836 3.5905 0
M  V30 7386 H 724.404 4.2798 2.27949 0
M  V30 7387 N 725.747 -0.868086 1.31537 0
M  V30 7388 C 726.677 -1.99131 1.21939 0
M  V30 7389 C 727.658 -1.69768 0.106166 0
M  V30 7390 O 728.843 -1.92006 0.291081 0
M  V30 7391 C 725.973 -3.34676 0.927879 0
M  V30 7392 C 724.927 -3.7835 2.00088 0
M  V30 7393 C 724.253 -5.11375 1.56203 0
M  V30 7394 C 725.553 -3.95256 3.41424 0
M  V30 7395 H 727.247 -2.07419 2.15911 0
M  V30 7396 H 724.793 -0.996569 1.03945 0
M  V30 7397 H 726.746 -4.12793 0.847327 0
M  V30 7398 H 725.47 -3.26565 -0.0475042 0
M  V30 7399 H 724.129 -3.02474 2.07135 0
M  V30 7400 H 723.777 -4.99709 0.57445 0
M  V30 7401 H 723.477 -5.41568 2.27985 0
M  V30 7402 H 725.001 -5.92001 1.49558 0
M  V30 7403 H 726.415 -4.63764 3.3704 0
M  V30 7404 H 724.812 -4.36849 4.1144 0
M  V30 7405 H 725.882 -2.98579 3.82072 0
M  V30 7406 N 727.225 -1.14528 -1.08264 0
M  V30 7407 C 728.471 -0.91576 -1.80947 0
M  V30 7408 C 728.804 0.55623 -1.86064 0
M  V30 7409 O 728.079 1.41207 -1.33756 0
M  V30 7410 C 728.362 -1.51917 -3.26486 0
M  V30 7411 C 728.215 -3.06111 -3.2957 0
M  V30 7412 C 729.534 -1.19724 -4.23502 0
M  V30 7413 H 726.653 -0.334113 -0.656915 0
M  V30 7414 H 729.295 -1.41547 -1.26746 0
M  V30 7415 H 727.445 -1.0942 -3.72773 0
M  V30 7416 H 729.117 -3.57448 -2.91597 0
M  V30 7417 H 727.36 -3.40483 -2.688 0
M  V30 7418 H 728.031 -3.43438 -4.32151 0
M  V30 7419 H 730.507 -1.56467 -3.85561 0
M  V30 7420 H 729.383 -1.64575 -5.23647 0
M  V30 7421 H 729.644 -0.112771 -4.41956 0
M  V30 7422 N 728.703 1.26451 -0.940633 0
M  V30 7423 C 729.635 2.25556 -0.407104 0
M  V30 7424 C 730.648 1.55888 0.469324 0
M  V30 7425 O 731.837 1.76292 0.279858 0
M  V30 7426 C 728.937 3.36109 0.434064 0
M  V30 7427 C 728.11 4.3532 -0.426082 0
M  V30 7428 C 727.169 5.25004 0.354563 0
M  V30 7429 O 726.195 5.68684 -0.242219 0
M  V30 7430 N 727.397 5.5652 1.65123 0
M  V30 7431 H 730.162 2.7197 -1.25907 0
M  V30 7432 H 727.723 1.40212 -0.809456 0
M  V30 7433 H 729.715 3.93059 0.963684 0
M  V30 7434 H 728.285 2.89194 1.18683 0
M  V30 7435 H 727.505 3.77449 -1.13692 0
M  V30 7436 H 728.793 4.986 -1.01366 0
M  V30 7437 H 728.191 5.22912 2.15822 0
M  V30 7438 H 726.748 6.16115 2.12711 0
M  V30 7439 N 730.181 0.707592 1.40822 0
M  V30 7440 C 731.458 0.171172 1.9485 0
M  V30 7441 C 731.838 -1.32143 1.64625 0
M  V30 7442 O 731.186 -2.07372 0.959647 0
M  V30 7443 C 731.396 0.475334 3.45748 0
M  V30 7444 C 732.744 0.409625 4.22619 0
M  V30 7445 O 733.768 0.410934 3.53822 0
M  V30 7446 O 732.627 0.380185 5.45176 0
M  V30 7447 H 729.721 0.022015 0.826707 0
M  V30 7448 H 732.267 0.784577 1.50474 0
M  V30 7449 H 731.039 1.50801 3.61075 0
M  V30 7450 H 730.662 -0.168439 3.97243 0
M  V30 7451 N 731.66 -1.50943 0.453197 0
M  V30 7452 C 732.885 -2.07116 -0.108463 0
M  V30 7453 C 733.31 -1.31681 -1.3432 0
M  V30 7454 O 732.668 -0.359256 -1.77705 0
M  V30 7455 C 732.716 -3.58447 -0.393424 0
M  V30 7456 O 731.82 -3.85038 -1.47714 0
M  V30 7457 H 731.161 -0.66398 0.0050993 0
M  V30 7458 H 733.691 -1.94362 0.639095 0
M  V30 7459 H 733.701 -4.02961 -0.639222 0
M  V30 7460 H 732.376 -4.12774 0.508946 0
M  V30 7461 H 730.953 -3.52376 -1.22006 0
M  V30 7462 N 733.138 -0.185124 -1.56509 0
M  V30 7463 C 734.068 0.735098 -2.21627 0
M  V30 7464 C 735.049 1.2288 -1.1762 0
M  V30 7465 O 736.234 1.27945 -1.46095 0
M  V30 7466 C 733.364 1.95889 -2.86783 0
M  V30 7467 C 732.318 1.6005 -3.96948 0
M  V30 7468 C 731.644 2.90009 -4.4922 0
M  V30 7469 C 732.944 0.818008 -5.15855 0
M  V30 7470 H 734.638 0.192274 -2.98782 0
M  V30 7471 H 732.184 0.0910393 -1.43712 0
M  V30 7472 H 734.137 2.60779 -3.31017 0
M  V30 7473 H 732.861 2.52608 -2.07018 0
M  V30 7474 H 731.52 0.975237 -3.5339 0
M  V30 7475 H 731.168 3.44797 -3.6623 0
M  V30 7476 H 730.868 2.66778 -5.23549 0
M  V30 7477 H 732.392 3.55904 -4.9615 0
M  V30 7478 H 733.806 1.36979 -5.56695 0
M  V30 7479 H 732.203 0.684207 -5.96187 0
M  V30 7480 H 733.273 -0.182939 -4.84555 0
M  V30 7481 N 734.616 1.57351 0.0885366 0
M  V30 7482 C 735.564 2.03542 1.12576 0
M  V30 7483 C 736.558 0.937668 1.41082 0
M  V30 7484 O 737.764 1.12283 1.40686 0
M  V30 7485 H 734.139 0.648752 0.380296 0
M  V30 7486 H 736.11 2.89833 0.709906 0
M  V30 7487 C 734.859 2.4811 2.43591 0
M  V30 7488 H 734.182 3.32164 2.22502 0
M  V30 7489 H 735.622 2.842 3.14653 0
M  V30 7490 C 734.081 1.35708 3.08359 0
M  V30 7491 O 734.611 0.689852 3.95732 0
M  V30 7492 N 732.817 1.10641 2.68713 0
M  V30 7493 H 732.364 1.6508 1.97753 0
M  V30 7494 H 732.322 0.356355 3.12374 0
M  V30 7495 N 736.094 -0.359525 1.53444 0
M  V30 7496 C 737.505 -0.936009 1.61542 0
M  V30 7497 C 737.856 -1.90069 0.486633 0
M  V30 7498 O 736.981 -2.12929 -0.386047 0
M  V30 7499 C 737.576 -1.70441 2.92806 0
M  V30 7500 C 736.135 -2.23015 3.03218 0
M  V30 7501 C 735.282 -1.04438 2.56881 0
M  V30 7502 H 738.233 -0.138134 1.58098 0
M  V30 7503 H 738.254 -2.56609 2.80948 0
M  V30 7504 H 737.766 -1.00205 3.74941 0
M  V30 7505 H 735.867 -2.96475 2.25684 0
M  V30 7506 H 735.98 -2.50481 4.08407 0
M  V30 7507 H 734.344 -1.41314 2.11902 0
M  V30 7508 H 735.127 -0.356905 3.4144 0
M  V30 7509 N 737.572 -1.44907 -0.619662 0
M  V30 7510 C 738.535 -1.52282 -1.71297 0
M  V30 7511 C 739.535 -0.40359 -1.55653 0
M  V30 7512 O 740.725 -0.666638 -1.6094 0
M  V30 7513 C 737.857 -1.40778 -3.10474 0
M  V30 7514 H 739.05 -2.49683 -1.66128 0
M  V30 7515 H 736.603 -1.32168 -0.834339 0
M  V30 7516 H 737.338 -0.445156 -3.2123 0
M  V30 7517 H 737.123 -2.21947 -3.23237 0
M  V30 7518 H 738.613 -1.48946 -3.90135 0
M  V30 7519 N 739.05 0.861098 -1.31996 0
M  V30 7520 C 740.296 1.61721 -1.22369 0
M  V30 7521 C 740.629 1.93 0.215587 0
M  V30 7522 O 739.904 1.56789 1.15098 0
M  V30 7523 C 740.187 2.9417 -2.07691 0
M  V30 7524 C 740.04 2.69714 -3.59965 0
M  V30 7525 C 741.359 3.95372 -1.93312 0
M  V30 7526 H 738.478 0.586822 -0.44588 0
M  V30 7527 H 741.12 0.994788 -1.61876 0
M  V30 7528 H 739.27 3.47292 -1.74128 0
M  V30 7529 H 740.942 2.23196 -4.03709 0
M  V30 7530 H 739.185 2.03789 -3.82952 0
M  V30 7531 H 739.856 3.63996 -4.14983 0
M  V30 7532 H 742.332 3.51487 -2.22701 0
M  V30 7533 H 741.208 4.85916 -2.55298 0
M  V30 7534 H 741.469 4.32865 -0.898922 0
M  V30 7535 N 740.528 1.15101 1.07655 0
M  V30 7536 C 741.475 0.844958 2.14777 0
M  V30 7537 C 742.445 -0.200798 1.64882 0
M  V30 7538 O 743.63 -0.0690278 1.90675 0
M  V30 7539 C 740.77 0.337018 3.4345 0
M  V30 7540 C 739.883 1.44398 4.07153 0
M  V30 7541 C 739.018 0.892487 5.23649 0
M  V30 7542 C 738.057 1.9766 5.79307 0
M  V30 7543 N 737.194 1.44171 6.87138 0
M  V30 7544 H 742.034 1.76242 2.40297 0
M  V30 7545 H 739.571 0.879435 1.17917 0
M  V30 7546 H 741.529 0.024256 4.17193 0
M  V30 7547 H 740.159 -0.543531 3.18191 0
M  V30 7548 H 739.211 1.87299 3.31094 0
M  V30 7549 H 740.523 2.26262 4.4453 0
M  V30 7550 H 739.677 0.532083 6.04362 0
M  V30 7551 H 738.416 0.0429854 4.87681 0
M  V30 7552 H 737.421 2.34586 4.97242 0
M  V30 7553 H 738.646 2.82982 6.17331 0
M  V30 7554 H 736.592 0.614518 6.53115 0
M  V30 7555 H 736.509 2.19665 7.23383 0
M  V30 7556 H 737.777 1.10945 7.71564 0
M  V30 7557 N 742.006 -1.2595 0.947325 0
M  V30 7558 C 743.231 -1.98083 0.614633 0
M  V30 7559 C 743.656 -1.70013 -0.804815 0
M  V30 7560 O 743.014 -0.95175 -1.54309 0
M  V30 7561 C 743.062 -3.4993 0.870706 0
M  V30 7562 O 742.166 -4.12364 -0.0541451 0
M  V30 7563 H 741.507 -0.621232 0.234451 0
M  V30 7564 H 744.037 -1.60259 1.27193 0
M  V30 7565 H 744.047 -4.00198 0.794051 0
M  V30 7566 H 742.722 -3.69691 1.90529 0
M  V30 7567 H 741.299 -3.72826 0.0740917 0
M  V30 7568 N 743.484 -0.715051 -1.40445 0
M  V30 7569 C 744.724 -0.258742 -2.02756 0
M  V30 7570 C 745.088 1.12661 -1.55472 0
M  V30 7571 O 746.289 1.67988 -2.09842 0
M  V30 7572 C 744.56 -0.335201 -3.55825 0
M  V30 7573 S 746.119 0.044201 -4.38778 0
M  V30 7574 H 742.937 -0.102683 -0.703546 0
M  V30 7575 H 745.539 -0.937151 -1.71574 0
M  V30 7576 H 744.243 -1.34511 -3.87731 0
M  V30 7577 H 743.774 0.361705 -3.91734 0
M  V30 7578 H 745.789 1.26639 -4.79768 0
M  V30 7579 N 744.962 1.50701 -0.461195 0
M  V30 7580 C 746.208 2.02566 0.0973411 0
M  V30 7581 C 746.541 1.3432 1.40257 0
M  V30 7582 O 745.816 0.465692 1.88843 0
M  V30 7583 C 746.099 3.58919 0.291423 0
M  V30 7584 C 745.952 4.37751 -1.03413 0
M  V30 7585 C 747.271 4.27379 1.05048 0
M  V30 7586 H 744.39 0.73622 0.0339026 0
M  V30 7587 H 747.032 1.80115 -0.604855 0
M  V30 7588 H 745.182 3.78179 0.889539 0
M  V30 7589 H 746.854 4.30085 -1.66806 0
M  V30 7590 H 745.097 4.01885 -1.63313 0
M  V30 7591 H 745.768 5.45384 -0.852085 0
M  V30 7592 H 748.244 4.12534 0.543603 0
M  V30 7593 H 747.12 5.36609 1.15506 0
M  V30 7594 H 747.381 3.89868 2.0846 0
M  V30 7595 N 746.441 0.193421 1.56409 0
M  V30 7596 C 747.371 -0.723334 2.22014 0
M  V30 7597 C 748.352 -1.22254 1.1827 0
M  V30 7598 O 749.537 -1.27168 1.46771 0
M  V30 7599 C 746.667 -1.94366 2.87818 0
M  V30 7600 C 745.621 -1.57943 3.97791 0
M  V30 7601 C 744.947 -2.87623 4.50752 0
M  V30 7602 C 746.247 -0.790639 5.16281 0
M  V30 7603 H 747.941 -0.176426 2.9888 0
M  V30 7604 H 745.487 -0.0834166 1.43758 0
M  V30 7605 H 747.44 -2.5902 3.32396 0
M  V30 7606 H 746.164 -2.51507 2.08355 0
M  V30 7607 H 744.823 -0.956482 3.53903 0
M  V30 7608 H 744.471 -3.4285 3.68053 0
M  V30 7609 H 744.171 -2.63998 5.24956 0
M  V30 7610 H 745.695 -3.53268 4.9803 0
M  V30 7611 H 747.109 -1.34024 5.57414 0
M  V30 7612 H 745.506 -0.65258 5.96541 0
M  V30 7613 H 746.576 0.208633 4.84451 0
M  V30 7614 N 747.919 -1.57396 -0.0801906 0
M  V30 7615 C 749.33 -1.75642 -0.633002 0
M  V30 7616 C 749.681 -0.817708 -1.78348 0
M  V30 7617 O 748.806 0.000233743 -2.164 0
M  V30 7618 C 749.401 -3.18502 -1.15507 0
M  V30 7619 C 747.96 -3.38121 -1.65381 0
M  V30 7620 C 747.107 -2.71386 -0.569661 0
M  V30 7621 H 750.058 -1.58027 0.145949 0
M  V30 7622 H 750.079 -3.22198 -2.02408 0
M  V30 7623 H 749.591 -3.86799 -0.317515 0
M  V30 7624 H 747.692 -2.74926 -2.51488 0
M  V30 7625 H 747.805 -4.46521 -1.73654 0
M  V30 7626 H 746.169 -2.33702 -1.0127 0
M  V30 7627 H 746.952 -3.42332 0.257561 0
M  V30 7628 N 749.397 0.351382 -1.53633 0
M  V30 7629 C 750.329 1.45159 -1.77374 0
M  V30 7630 C 751.342 1.4905 -0.654826 0
M  V30 7631 O 752.531 1.52274 -0.931396 0
M  V30 7632 C 749.631 2.83858 -1.85143 0
M  V30 7633 C 748.804 3.03498 -3.14972 0
M  V30 7634 C 747.863 4.22393 -3.138 0
M  V30 7635 O 746.889 4.16885 -3.87551 0
M  V30 7636 N 748.091 5.30533 -2.35617 0
M  V30 7637 H 750.856 1.25167 -2.72311 0
M  V30 7638 H 748.417 0.54121 -1.52586 0
M  V30 7639 H 750.409 3.61557 -1.8182 0
M  V30 7640 H 748.979 2.9703 -0.974275 0
M  V30 7641 H 748.199 2.13336 -3.31484 0
M  V30 7642 H 749.487 3.13498 -4.00745 0
M  V30 7643 H 748.885 5.37875 -1.75235 0
M  V30 7644 H 747.442 6.06756 -2.38098 0
M  V30 7645 N 750.875 1.45233 0.611969 0
M  V30 7646 C 752.103 1.52539 1.39784 0
M  V30 7647 C 752.518 0.156533 1.8815 0
M  V30 7648 O 751.875 -0.84112 1.61961 0
M  V30 7649 C 751.926 2.50614 2.60528 0
M  V30 7650 O 751.647 3.8218 2.14173 0
M  V30 7651 C 753.148 2.67574 3.53439 0
M  V30 7652 H 750.368 0.51674 0.428043 0
M  V30 7653 H 752.912 1.90379 0.746727 0
M  V30 7654 H 751.067 2.15858 3.2169 0
M  V30 7655 H 751.481 4.35305 2.92592 0
M  V30 7656 H 752.955 3.40184 4.34717 0
M  V30 7657 H 753.432 1.73458 4.03496 0
M  V30 7658 H 754.038 3.0331 2.98133 0
M  V30 7659 N 752.353 -0.854086 1.3245 0
M  V30 7660 C 753.3 -1.96271 1.21434 0
M  V30 7661 C 754.27 -1.6582 0.0963851 0
M  V30 7662 O 755.455 -1.88851 0.27203 0
M  V30 7663 C 752.595 -3.31939 0.943952 0
M  V30 7664 C 751.708 -3.74885 2.14675 0
M  V30 7665 C 750.843 -4.99347 1.81179 0
M  V30 7666 C 749.882 -5.34785 2.97777 0
M  V30 7667 N 749.019 -6.50425 2.6437 0
M  V30 7668 H 753.859 -2.05025 2.16261 0
M  V30 7669 H 751.396 -1.00348 1.07558 0
M  V30 7670 H 753.354 -4.10076 0.767675 0
M  V30 7671 H 751.984 -3.22784 0.0324763 0
M  V30 7672 H 751.036 -2.92396 2.43328 0
M  V30 7673 H 752.348 -3.97068 3.01891 0
M  V30 7674 H 751.502 -5.85193 1.60107 0
M  V30 7675 H 750.241 -4.79101 0.911777 0
M  V30 7676 H 749.246 -4.47451 3.1948 0
M  V30 7677 H 750.471 -5.56988 3.88511 0
M  V30 7678 H 748.417 -6.31695 1.7691 0
M  V30 7679 H 748.334 -6.7263 3.45116 0
M  V30 7680 H 749.602 -7.39422 2.46729 0
M  V30 7681 N 753.831 -1.1567 -1.07043 0
M  V30 7682 C 755.059 -0.957471 -1.83412 0
M  V30 7683 C 755.474 0.494271 -1.82215 0
M  V30 7684 O 754.831 1.34288 -1.23584 0
M  V30 7685 C 754.882 -1.46784 -3.30359 0
M  V30 7686 O 754.603 -2.86271 -3.31633 0
M  V30 7687 C 756.104 -1.31054 -4.23485 0
M  V30 7688 H 753.324 -0.33986 -0.578564 0
M  V30 7689 H 755.868 -1.53518 -1.35102 0
M  V30 7690 H 754.023 -0.932586 -3.76007 0
M  V30 7691 H 754.437 -3.0948 -4.23465 0
M  V30 7692 H 755.911 -1.71605 -5.24648 0
M  V30 7693 H 756.388 -0.255107 -4.38458 0
M  V30 7694 H 756.994 -1.83503 -3.83676 0
M  V30 7695 N 755.309 1.25446 -0.953992 0
M  V30 7696 C 756.72 1.75047 -0.649255 0
M  V30 7697 C 757.071 1.77527 0.835385 0
M  V30 7698 O 756.196 1.39569 1.65377 0
M  V30 7699 C 756.791 3.17889 -1.17183 0
M  V30 7700 C 755.35 3.65052 -0.917267 0
M  V30 7701 C 754.497 2.44124 -1.31525 0
M  V30 7702 H 757.448 1.11342 -1.13087 0
M  V30 7703 H 757.469 3.76768 -0.531616 0
M  V30 7704 H 756.981 3.16052 -2.25239 0
M  V30 7705 H 755.082 3.72305 0.148354 0
M  V30 7706 H 755.195 4.53222 -1.55328 0
M  V30 7707 H 753.559 2.43906 -0.733624 0
M  V30 7708 H 754.342 2.44979 -2.405 0
M  V30 7709 N 756.787 0.722489 1.40064 0
M  V30 7710 C 758.033 0.265371 2.01056 0
M  V30 7711 C 758.366 -1.14062 1.57174 0
M  V30 7712 O 757.641 -1.77514 0.794916 0
M  V30 7713 C 757.924 0.353157 3.58364 0
M  V30 7714 C 757.777 1.79802 4.123 0
M  V30 7715 C 759.096 -0.271677 4.39261 0
M  V30 7716 H 756.215 0.0979002 0.730469 0
M  V30 7717 H 758.857 0.916289 1.66446 0
M  V30 7718 H 757.007 -0.201037 3.87979 0
M  V30 7719 H 758.679 2.40813 3.93455 0
M  V30 7720 H 756.922 2.32348 3.66329 0
M  V30 7721 H 757.593 1.81079 5.21454 0
M  V30 7722 H 760.069 0.200607 4.15616 0
M  V30 7723 H 758.945 -0.179843 5.48605 0
M  V30 7724 H 759.206 -1.35611 4.20787 0
M  V30 7725 N 758.265 -1.50454 0.469181 0
M  V30 7726 C 759.49 -2.0722 -0.0864892 0
M  V30 7727 C 759.915 -1.33098 -1.32916 0
M  V30 7728 O 759.273 -0.378084 -1.77314 0
M  V30 7729 C 759.321 -3.58845 -0.355384 0
M  V30 7730 O 758.425 -3.86583 -1.43622 0
M  V30 7731 H 757.766 -0.663889 0.0121414 0
M  V30 7732 H 760.296 -1.93674 0.659674 0
M  V30 7733 H 760.306 -4.03617 -0.596447 0
M  V30 7734 H 758.981 -4.12211 0.552698 0
M  V30 7735 H 757.558 -3.5365 -1.18262 0
M  V30 7736 N 759.743 -0.201713 -1.56304 0
M  V30 7737 C 760.983 0.437395 -1.99665 0
M  V30 7738 C 761.347 1.58341 -1.08592 0
M  V30 7739 O 762.548 2.28716 -1.41217 0
M  V30 7740 C 760.819 0.879572 -3.46408 0
M  V30 7741 S 762.378 1.51558 -4.11795 0
M  V30 7742 H 759.196 0.139621 -0.697156 0
M  V30 7743 H 761.798 -0.306337 -1.93085 0
M  V30 7744 H 760.502 0.0355295 -4.10385 0
M  V30 7745 H 760.033 1.65661 -3.56819 0
M  V30 7746 H 762.048 2.80445 -4.09347 0
M  V30 7747 N 761.222 1.57436 0.0718424 0
M  V30 7748 C 762.469 1.87248 0.771007 0
M  V30 7749 C 762.797 0.793441 1.7758 0
M  V30 7750 O 762.052 -0.210565 1.94564 0
M  V30 7751 C 762.351 3.23723 1.51455 0
M  V30 7752 C 762.017 4.46194 0.649736 0
M  V30 7753 C 760.679 4.79438 0.411409 0
M  V30 7754 C 763.031 5.21176 0.05004 0
M  V30 7755 C 760.359 5.85077 -0.436096 0
M  V30 7756 C 762.711 6.27712 -0.784919 0
M  V30 7757 C 761.375 6.59457 -1.03312 0
M  V30 7758 H 760.645 0.685188 0.282132 0
M  V30 7759 H 763.292 1.91474 0.0317896 0
M  V30 7760 H 761.597 3.15287 2.32597 0
M  V30 7761 H 763.294 3.44023 2.06031 0
M  V30 7762 H 759.884 4.20175 0.84562 0
M  V30 7763 H 764.068 4.95806 0.221282 0
M  V30 7764 H 759.324 6.08071 -0.637136 0
M  V30 7765 H 763.498 6.84974 -1.25635 0
M  V30 7766 H 761.125 7.4114 -1.6916 0
M  V30 7767 N 762.7 -0.34323 1.53817 0
M  V30 7768 C 763.648 -1.44176 1.82527 0
M  V30 7769 C 764.642 -1.54452 0.695772 0
M  V30 7770 O 765.848 -1.57072 0.879114 0
M  V30 7771 H 762.223 -0.480729 0.578277 0
M  V30 7772 H 764.194 -1.17176 2.74431 0
M  V30 7773 C 762.943 -2.80695 2.05197 0
M  V30 7774 H 762.266 -2.73554 2.91561 0
M  V30 7775 H 763.706 -3.56679 2.29251 0
M  V30 7776 C 762.165 -3.26322 0.837589 0
M  V30 7777 O 762.695 -4.01683 0.0371631 0
M  V30 7778 N 760.901 -2.83128 0.654724 0
M  V30 7779 H 760.448 -2.21965 1.30725 0
M  V30 7780 H 760.406 -3.14011 -0.156345 0
M  V30 7781 N 764.178 -1.45556 -0.604258 0
M  V30 7782 C 765.427 -1.49019 -1.35928 0
M  V30 7783 C 765.74 -0.137409 -1.95117 0
M  V30 7784 O 766.946 -0.0497032 -2.71455 0
M  V30 7785 C 765.402 -2.62477 -2.46239 0
M  V30 7786 C 765.01 -4.04082 -1.93447 0
M  V30 7787 C 766.754 -2.7519 -3.23219 0
M  V30 7788 C 764.661 -5.08917 -3.0126 0
M  V30 7789 H 763.591 -0.554518 -0.510907 0
M  V30 7790 H 766.242 -1.71705 -0.647262 0
M  V30 7791 H 764.624 -2.3308 -3.2014 0
M  V30 7792 H 765.798 -4.43173 -1.26232 0
M  V30 7793 H 764.113 -3.95849 -1.29201 0
M  V30 7794 H 766.71 -3.50683 -4.0364 0
M  V30 7795 H 767.053 -1.81941 -3.74437 0
M  V30 7796 H 767.586 -3.04129 -2.56418 0
M  V30 7797 H 764.325 -6.03886 -2.54955 0
M  V30 7798 H 763.845 -4.74393 -3.67031 0
M  V30 7799 H 765.524 -5.33814 -3.65584 0
M  V30 7800 N 765.656 0.84705 -1.32902 0
M  V30 7801 C 766.588 1.96308 -1.18304 0
M  V30 7802 C 767.601 1.62386 -0.116082 0
M  V30 7803 O 768.79 1.74713 -0.365751 0
M  V30 7804 C 765.89 3.29556 -0.790305 0
M  V30 7805 C 765.063 3.91668 -1.94717 0
M  V30 7806 C 764.122 5.0326 -1.53674 0
M  V30 7807 O 763.148 5.22847 -2.24989 0
M  V30 7808 N 764.35 5.78852 -0.437075 0
M  V30 7809 H 767.115 2.09369 -2.14441 0
M  V30 7810 H 764.676 1.02233 -1.25539 0
M  V30 7811 H 766.668 4.01624 -0.49799 0
M  V30 7812 H 765.238 3.12497 0.0801286 0
M  V30 7813 H 764.458 3.12292 -2.40557 0
M  V30 7814 H 765.746 4.299 -2.72146 0
M  V30 7815 H 765.144 5.65484 0.156316 0
M  V30 7816 H 763.701 6.51479 -0.204399 0
M  V30 7817 N 767.134 1.16236 1.06428 0
M  V30 7818 C 768.067 0.81119 2.13295 0
M  V30 7819 C 769.045 -0.216555 1.61151 0
M  V30 7820 O 770.229 -0.100949 1.88229 0
M  V30 7821 C 767.356 0.207901 3.38061 0
M  V30 7822 C 766.402 1.20904 4.09004 0
M  V30 7823 S 767.235 2.75513 4.59187 0
M  V30 7824 C 768.391 2.1663 5.87216 0
M  V30 7825 H 768.624 1.71632 2.42755 0
M  V30 7826 H 766.157 0.985693 1.18842 0
M  V30 7827 H 768.115 -0.133715 4.10282 0
M  V30 7828 H 766.776 -0.67497 3.06762 0
M  V30 7829 H 765.969 0.735326 4.98607 0
M  V30 7830 H 765.571 1.49567 3.42791 0
M  V30 7831 H 767.863 1.53413 6.59902 0
M  V30 7832 H 768.806 3.04437 6.39315 0
M  V30 7833 H 769.214 1.60565 5.41183 0
M  V30 7834 N 768.612 -1.24939 0.960631 0
M  V30 7835 C 769.852 -1.94565 0.626414 0
M  V30 7836 C 770.216 -1.73505 -0.822184 0
M  V30 7837 O 771.417 -2.37105 -1.26628 0
M  V30 7838 C 769.688 -3.43631 0.982462 0
M  V30 7839 S 771.247 -4.32138 0.761726 0
M  V30 7840 H 768.065 -0.672757 0.230043 0
M  V30 7841 H 770.667 -1.51464 1.23608 0
M  V30 7842 H 769.371 -3.56463 2.03377 0
M  V30 7843 H 768.902 -3.91719 0.363286 0
M  V30 7844 H 770.917 -4.94859 -0.364493 0
M  V30 7845 N 770.09 -0.729906 -1.39679 0
M  V30 7846 C 771.336 -0.27603 -2.00913 0
M  V30 7847 C 771.669 1.13227 -1.57776 0
M  V30 7848 O 770.944 1.7709 -0.804319 0
M  V30 7849 C 771.227 -0.372157 -3.58172 0
M  V30 7850 C 771.08 -1.81986 -4.11341 0
M  V30 7851 C 772.399 0.248378 -4.39399 0
M  V30 7852 H 769.518 -0.101773 -0.729939 0
M  V30 7853 H 772.16 -0.925104 -1.65957 0
M  V30 7854 H 770.31 0.180459 -3.88081 0
M  V30 7855 H 771.982 -2.42896 -3.92172 0
M  V30 7856 H 770.225 -2.34287 -3.65092 0
M  V30 7857 H 770.896 -1.83842 -5.20486 0
M  V30 7858 H 773.372 -0.222645 -4.15504 0
M  V30 7859 H 772.248 0.150746 -5.48693 0
M  V30 7860 H 772.509 1.33378 -4.21501 0
M  V30 7861 N 771.568 1.50203 -0.477153 0
M  V30 7862 C 772.816 2.01959 0.0755889 0
M  V30 7863 C 773.137 1.3608 1.39668 0
M  V30 7864 O 772.407 0.508136 1.89195 0
M  V30 7865 H 770.987 0.74636 0.0309248 0
M  V30 7866 H 773.649 1.84473 -0.628959 0
M  V30 7867 H 772.745 3.11305 0.222683 0
M  V30 7868 N 773.046 0.209999 1.56195 0
M  V30 7869 C 774.009 -0.691232 2.18528 0
M  V30 7870 C 775.009 -1.13013 1.14388 0
M  V30 7871 O 776.199 -1.04081 1.39688 0
M  V30 7872 C 773.331 -1.94551 2.79934 0
M  V30 7873 H 774.524 -0.147953 2.99535 0
M  V30 7874 H 772.077 -0.0396243 1.5625 0
M  V30 7875 H 772.812 -2.53094 2.02766 0
M  V30 7876 H 772.597 -1.63938 3.56184 0
M  V30 7877 H 774.087 -2.58785 3.2775 0
M  V30 7878 N 774.524 -1.57472 -0.0634922 0
M  V30 7879 C 775.752 -1.91887 -0.773767 0
M  V30 7880 C 776.167 -0.806733 -1.70696 0
M  V30 7881 O 775.524 0.219383 -1.81177 0
M  V30 7882 C 775.575 -3.26092 -1.56034 0
M  V30 7883 O 775.296 -4.33029 -0.66464 0
M  V30 7884 C 776.797 -3.74573 -2.37087 0
M  V30 7885 H 774.017 -0.634074 -0.219525 0
M  V30 7886 H 776.561 -2.04476 -0.0312828 0
M  V30 7887 H 774.716 -3.15004 -2.25502 0
M  V30 7888 H 775.13 -5.10291 -1.21258 0
M  V30 7889 H 776.604 -4.71084 -2.87722 0
M  V30 7890 H 777.081 -3.04003 -3.16984 0
M  V30 7891 H 777.687 -3.88631 -1.72759 0
M  V30 7892 N 776.003 0.335068 -1.53997 0
M  V30 7893 C 777.251 1.07223 -1.71312 0
M  V30 7894 C 777.572 1.88911 -0.483486 0
M  V30 7895 O 776.842 1.89344 0.50257 0
M  V30 7896 H 775.422 0.398846 -0.63161 0
M  V30 7897 H 778.084 0.374288 -1.91272 0
M  V30 7898 H 777.18 1.7448 -2.58772 0
M  V30 7899 N 777.481 1.45874 0.596531 0
M  V30 7900 C 778.431 1.5181 1.70111 0
M  V30 7901 C 779.415 0.380293 1.56341 0
M  V30 7902 O 780.607 0.627849 1.6549 0
M  V30 7903 C 777.736 1.49822 3.08883 0
M  V30 7904 C 776.822 2.68845 3.27998 0
M  V30 7905 N 777.213 3.93873 3.17329 0
M  V30 7906 C 775.511 2.64777 3.589 0
M  V30 7907 C 776.212 4.73371 3.38076 0
M  V30 7908 N 775.188 4.0501 3.62585 0
M  V30 7909 H 778.99 2.46289 1.60372 0
M  V30 7910 H 776.504 1.41321 0.800138 0
M  V30 7911 H 778.501 1.5216 3.8814 0
M  V30 7912 H 777.161 0.564086 3.19763 0
M  V30 7913 H 778.172 4.25329 2.95492 0
M  V30 7914 H 774.849 1.80323 3.7655 0
M  V30 7915 H 776.239 5.82357 3.35127 0
M  V30 7916 N 778.959 -0.83999 1.33349 0
M  V30 7917 C 779.907 -1.97113 1.23488 0
M  V30 7918 C 780.901 -1.68849 0.136503 0
M  V30 7919 O 782.107 -1.77476 0.300389 0
M  V30 7920 H 778.482 -0.647049 0.383185 0
M  V30 7921 H 780.453 -2.02554 2.19122 0
M  V30 7922 C 779.202 -3.33314 0.989815 0
M  V30 7923 H 778.525 -3.556 1.82726 0
M  V30 7924 H 779.965 -4.12963 0.961123 0
M  V30 7925 C 778.424 -3.35496 -0.307272 0
M  V30 7926 O 778.954 -3.79589 -1.31434 0
M  V30 7927 N 777.16 -2.88669 -0.334414 0
M  V30 7928 H 776.707 -2.5298 0.485659 0
M  V30 7929 H 776.665 -2.90512 -1.20209 0
M  V30 7930 N 780.437 -1.16799 -1.0581 0
M  V30 7931 C 781.686 -0.94698 -1.78088 0
M  V30 7932 C 781.999 0.526016 -1.88394 0
M  V30 7933 O 783.205 0.865061 -2.5735 0
M  V30 7934 C 781.661 -1.64508 -3.20102 0
M  V30 7935 C 781.269 -3.15618 -3.17946 0
M  V30 7936 C 783.013 -1.50622 -3.96879 0
M  V30 7937 C 780.92 -3.78144 -4.5471 0
M  V30 7938 H 779.85 -0.35067 -0.667493 0
M  V30 7939 H 782.501 -1.39985 -1.18645 0
M  V30 7940 H 780.883 -1.11993 -3.79834 0
M  V30 7941 H 782.057 -3.75016 -2.67768 0
M  V30 7942 H 780.372 -3.29444 -2.54667 0
M  V30 7943 H 782.969 -1.94713 -4.97987 0
M  V30 7944 H 783.312 -0.455864 -4.13797 0
M  V30 7945 H 783.845 -2.00319 -3.43682 0
M  V30 7946 H 780.584 -4.83149 -4.42998 0
M  V30 7947 H 780.104 -3.23532 -5.05062 0
M  V30 7948 H 781.783 -3.79986 -5.2366 0
M  V30 7949 N 781.915 1.24427 -0.967243 0
M  V30 7950 C 783.326 1.74349 -0.667785 0
M  V30 7951 C 783.677 1.78403 0.816509 0
M  V30 7952 O 782.802 1.41315 1.63887 0
M  V30 7953 C 783.397 3.16628 -1.20548 0
M  V30 7954 C 781.956 3.64059 -0.955934 0
M  V30 7955 C 781.103 2.42715 -1.34106 0
M  V30 7956 H 784.054 1.10136 -1.14262 0
M  V30 7957 H 784.075 3.76183 -0.571547 0
M  V30 7958 H 783.587 3.13646 -2.28578 0
M  V30 7959 H 781.688 3.72441 0.108858 0
M  V30 7960 H 781.801 4.51549 -1.60126 0
M  V30 7961 H 780.165 2.43114 -0.759452 0
M  V30 7962 H 780.948 2.42414 -2.43085 0
M  V30 7963 N 783.393 0.737304 1.3929 0
M  V30 7964 C 784.325 0.0592106 2.29124 0
M  V30 7965 C 785.338 -0.701026 1.46934 0
M  V30 7966 O 786.527 -0.544808 1.69983 0
M  V30 7967 C 783.627 -0.940358 3.25592 0
M  V30 7968 C 782.8 -0.241163 4.36735 0
M  V30 7969 C 781.859 -1.14916 5.13498 0
M  V30 7970 O 780.885 -0.625783 5.6575 0
M  V30 7971 N 782.087 -2.47869 5.2492 0
M  V30 7972 H 784.852 0.830647 2.87959 0
M  V30 7973 H 782.413 0.586718 1.50895 0
M  V30 7974 H 784.405 -1.55046 3.73822 0
M  V30 7975 H 782.975 -1.61299 2.67771 0
M  V30 7976 H 782.195 0.549441 3.90352 0
M  V30 7977 H 783.483 0.243299 5.08218 0
M  V30 7978 H 782.881 -2.92864 4.83991 0
M  V30 7979 H 781.438 -3.03969 5.76581 0
M  V30 7980 N 784.871 -1.49948 0.485112 0
M  V30 7981 C 785.818 -2.28819 -0.301729 0
M  V30 7982 C 786.788 -1.34496 -0.974683 0
M  V30 7983 O 787.973 -1.63444 -0.984418 0
M  V30 7984 C 785.113 -3.16758 -1.36961 0
M  V30 7985 C 784.226 -4.26125 -0.710027 0
M  V30 7986 C 783.361 -5.01302 -1.75699 0
M  V30 7987 C 782.4 -6.02525 -1.07841 0
M  V30 7988 N 781.537 -6.70927 -2.06886 0
M  V30 7989 H 786.377 -2.95604 0.377127 0
M  V30 7990 H 783.914 -1.45764 0.197826 0
M  V30 7991 H 785.872 -3.66106 -2.00056 0
M  V30 7992 H 784.502 -2.51991 -2.01744 0
M  V30 7993 H 783.554 -3.80385 0.0338278 0
M  V30 7994 H 784.866 -4.98493 -0.175079 0
M  V30 7995 H 784.02 -5.54438 -2.46339 0
M  V30 7996 H 782.759 -4.28672 -2.32577 0
M  V30 7997 H 781.764 -5.48635 -0.357706 0
M  V30 7998 H 782.989 -6.77134 -0.516345 0
M  V30 7999 H 780.935 -6.01079 -2.62755 0
M  V30 8000 H 780.852 -7.39216 -1.58414 0
M  V30 8001 H 782.12 -7.28675 -2.76863 0
M  V30 8002 N 786.349 -0.21828 -1.56081 0
M  V30 8003 C 787.279 0.687922 -2.23136 0
M  V30 8004 C 788.26 1.20357 -1.202 0
M  V30 8005 O 789.445 1.24817 -1.48776 0
M  V30 8006 C 786.575 1.89762 -2.90874 0
M  V30 8007 C 785.529 1.51595 -4.00254 0
M  V30 8008 C 784.855 2.80415 -4.55271 0
M  V30 8009 C 786.155 0.708404 -5.17474 0
M  V30 8010 H 787.849 0.128854 -2.99123 0
M  V30 8011 H 785.395 0.0605354 -1.43873 0
M  V30 8012 H 787.348 2.53699 -3.36474 0
M  V30 8013 H 786.072 2.4816 -2.1233 0
M  V30 8014 H 784.731 0.900058 -3.55379 0
M  V30 8015 H 784.379 3.36951 -3.73461 0
M  V30 8016 H 784.079 2.55613 -5.2909 0
M  V30 8017 H 785.603 3.453 -5.03587 0
M  V30 8018 H 787.017 1.2514 -5.59476 0
M  V30 8019 H 785.414 0.557593 -5.97504 0
M  V30 8020 H 786.484 -0.285679 -4.84058 0
M  V30 8021 N 787.827 1.57504 0.0551401 0
M  V30 8022 C 789.052 1.92682 0.767352 0
M  V30 8023 C 789.477 0.81614 1.69472 0
M  V30 8024 O 788.835 -0.229989 1.79835 0
M  V30 8025 C 788.883 3.26866 1.52286 0
M  V30 8026 O 787.987 3.17274 2.63459 0
M  V30 8027 H 787.328 0.630502 0.208238 0
M  V30 8028 H 789.858 2.04592 0.0184026 0
M  V30 8029 H 789.868 3.61138 1.8985 0
M  V30 8030 H 788.543 4.07276 0.842541 0
M  V30 8031 H 787.12 2.94589 2.2863 0
M  V30 8032 N 789.305 -0.326896 1.54172 0
M  V30 8033 C 790.235 -1.40741 1.86317 0
M  V30 8034 C 791.216 -1.54125 0.719684 0
M  V30 8035 O 792.401 -1.6806 0.973117 0
M  V30 8036 C 789.531 -2.77557 2.08757 0
M  V30 8037 C 788.485 -2.78965 3.24596 0
M  V30 8038 C 787.811 -4.18824 3.32401 0
M  V30 8039 C 789.111 -2.4301 4.62324 0
M  V30 8040 H 790.805 -1.14088 2.76811 0
M  V30 8041 H 788.351 -0.547389 1.3319 0
M  V30 8042 H 790.304 -3.53209 2.29829 0
M  V30 8043 H 789.028 -3.0568 1.15009 0
M  V30 8044 H 787.687 -2.05767 3.03406 0
M  V30 8045 H 787.335 -4.44083 2.36218 0
M  V30 8046 H 787.035 -4.20673 4.10253 0
M  V30 8047 H 788.559 -4.96294 3.55703 0
M  V30 8048 H 789.973 -3.08375 4.83299 0
M  V30 8049 H 788.37 -2.56116 5.42701 0
M  V30 8050 H 789.44 -1.38165 4.64799 0
M  V30 8051 N 790.784 -1.46188 -0.588786 0
M  V30 8052 C 791.732 -1.56653 -1.71938 0
M  V30 8053 C 792.726 -0.435354 -1.6371 0
M  V30 8054 O 793.932 -0.611996 -1.69277 0
M  V30 8055 H 790.307 -0.492408 -0.568365 0
M  V30 8056 H 792.278 -2.51724 -1.60242 0
M  V30 8057 C 791.027 -1.56822 -3.10326 0
M  V30 8058 H 790.35 -2.43198 -3.17325 0
M  V30 8059 H 791.79 -1.68199 -3.89211 0
M  V30 8060 C 790.249 -0.295802 -3.35599 0
M  V30 8061 O 790.779 0.616515 -3.96941 0
M  V30 8062 N 788.985 -0.185609 -2.90007 0
M  V30 8063 H 788.532 -0.928914 -2.40269 0
M  V30 8064 H 788.49 0.664883 -3.07289 0
M  V30 8065 N 792.262 0.832906 -1.33792 0
M  V30 8066 C 793.225 1.92471 -1.24449 0
M  V30 8067 C 794.225 1.59981 -0.162085 0
M  V30 8068 O 795.415 1.69208 -0.414029 0
M  V30 8069 C 792.547 3.28278 -0.919044 0
M  V30 8070 H 793.74 2.0218 -2.21502 0
M  V30 8071 H 791.293 1.0257 -1.17936 0
M  V30 8072 H 792.028 3.24263 0.048738 0
M  V30 8073 H 791.813 3.53241 -1.70187 0
M  V30 8074 H 793.303 4.08253 -0.878576 0
M  V30 8075 N 793.74 1.17359 1.05189 0
M  V30 8076 C 794.65 0.904984 2.16442 0
M  V30 8077 C 795.666 -0.12686 1.73537 0
M  V30 8078 O 796.842 0.0524127 2.01332 0
M  V30 8079 C 793.907 0.422019 3.44122 0
M  V30 8080 C 792.968 1.52045 4.01473 0
M  V30 8081 C 792.201 1.06044 5.23059 0
M  V30 8082 O 792.424 -0.0854023 5.70336 0
M  V30 8083 O 791.358 1.85349 5.72651 0
M  V30 8084 H 795.184 1.8356 2.41949 0
M  V30 8085 H 792.769 0.95447 1.14936 0
M  V30 8086 H 794.651 0.160208 4.21095 0
M  V30 8087 H 793.326 -0.480444 3.20115 0
M  V30 8088 H 792.233 1.83615 3.25939 0
M  V30 8089 H 793.566 2.39863 4.29798 0
M  V30 8090 N 795.218 -1.23913 0.973828 0
M  V30 8091 C 796.148 -2.27453 0.527969 0
M  V30 8092 C 797.129 -1.6443 -0.435513 0
M  V30 8093 O 798.314 -1.9137 -0.330306 0
M  V30 8094 C 795.444 -3.4685 -0.176757 0
M  V30 8095 C 794.398 -4.22181 0.703352 0
M  V30 8096 C 793.724 -5.34534 -0.133215 0
M  V30 8097 C 795.024 -4.82865 1.99096 0
M  V30 8098 H 796.718 -2.65 1.3934 0
M  V30 8099 H 794.264 -1.27388 0.671446 0
M  V30 8100 H 796.217 -4.18424 -0.499934 0
M  V30 8101 H 794.941 -3.08346 -1.07659 0
M  V30 8102 H 793.6 -3.52416 1.00989 0
M  V30 8103 H 793.248 -4.92271 -1.03338 0
M  V30 8104 H 792.948 -5.85855 0.452494 0
M  V30 8105 H 794.472 -6.08933 -0.450924 0
M  V30 8106 H 795.886 -5.46481 1.73297 0
M  V30 8107 H 794.283 -5.44444 2.52389 0
M  V30 8108 H 795.353 -4.03977 2.68199 0
M  V30 8109 N 796.696 -0.74468 -1.38897 0
M  V30 8110 C 797.628 -0.0713608 -2.29089 0
M  V30 8111 C 798.641 0.693224 -1.47303 0
M  V30 8112 O 799.83 0.535785 -1.70269 0
M  V30 8113 C 796.93 0.923078 -3.26087 0
M  V30 8114 C 796.103 0.217998 -4.36856 0
M  V30 8115 C 795.162 1.12192 -5.14101 0
M  V30 8116 O 794.188 0.595771 -5.66073 0
M  V30 8117 N 795.39 2.45082 -5.26227 0
M  V30 8118 H 798.155 -0.845906 -2.87514 0
M  V30 8119 H 795.716 -0.594712 -1.50581 0
M  V30 8120 H 797.708 1.53061 -3.74639 0
M  V30 8121 H 796.278 1.59876 -2.68623 0
M  V30 8122 H 795.498 -0.570134 -3.90055 0
M  V30 8123 H 796.786 -0.270248 -5.08082 0
M  V30 8124 H 796.184 2.90294 -4.85537 0
M  V30 8125 H 794.741 3.00907 -5.78185 0
M  V30 8126 N 798.174 1.49689 -0.493057 0
M  V30 8127 C 799.104 2.31826 0.279073 0
M  V30 8128 C 800.085 1.39733 0.969987 0
M  V30 8129 O 801.27 1.68646 0.962925 0
M  V30 8130 C 798.4 3.20046 1.34862 0
M  V30 8131 C 797.354 4.20869 0.77805 0
M  V30 8132 C 796.68 4.97971 1.94753 0
M  V30 8133 C 797.98 5.21813 -0.225543 0
M  V30 8134 H 799.674 2.96627 -0.406512 0
M  V30 8135 H 797.22 1.42647 -0.196943 0
M  V30 8136 H 799.173 3.76315 1.89645 0
M  V30 8137 H 797.897 2.53172 2.06328 0
M  V30 8138 H 796.556 3.65733 0.252036 0
M  V30 8139 H 796.204 4.27552 2.64969 0
M  V30 8140 H 795.904 5.66186 1.57187 0
M  V30 8141 H 797.428 5.57082 2.49984 0
M  V30 8142 H 798.842 5.72823 0.233864 0
M  V30 8143 H 797.239 5.97872 -0.516622 0
M  V30 8144 H 798.309 4.71209 -1.14412 0
M  V30 8145 N 799.652 0.226554 1.55963 0
M  V30 8146 C 800.929 -0.453058 1.90281 0
M  V30 8147 C 801.309 -1.77377 1.14458 0
M  V30 8148 O 800.657 -2.27067 0.255496 0
M  V30 8149 C 800.867 -0.641108 3.43061 0
M  V30 8150 C 802.215 -0.946265 4.13921 0
M  V30 8151 O 803.239 -0.727713 3.48687 0
M  V30 8152 O 802.098 -1.36131 5.29274 0
M  V30 8153 H 799.192 -0.240242 0.791336 0
M  V30 8154 H 801.738 0.26911 1.67553 0
M  V30 8155 H 800.51 0.290283 3.90222 0
M  V30 8156 H 800.133 -1.41458 3.71585 0
M  V30 8157 N 801.13 -1.57531 -0.0467866 0
M  V30 8158 C 802.546 -1.54451 -0.402107 0
M  V30 8159 C 802.746 -0.950275 -1.77685 0
M  V30 8160 O 801.802 -0.563602 -2.4613 0
M  V30 8161 C 803.115 -2.9899 -0.320212 0
M  V30 8162 C 804.663 -3.10452 -0.398588 0
M  V30 8163 C 805.138 -4.56689 -0.346335 0
M  V30 8164 N 806.629 -4.6142 -0.405666 0
M  V30 8165 C 807.364 -5.72087 -0.387845 0
M  V30 8166 N 806.86 -6.92045 -0.32336 0
M  V30 8167 N 808.653 -5.60404 -0.436263 0
M  V30 8168 H 800.804 -1.94515 0.853087 0
M  V30 8169 H 803.067 -0.891397 0.322669 0
M  V30 8170 H 802.773 -3.46124 0.623794 0
M  V30 8171 H 802.647 -3.60164 -1.1208 0
M  V30 8172 H 805.034 -2.63276 -1.33302 0
M  V30 8173 H 805.115 -2.52142 0.431026 0
M  V30 8174 H 804.759 -5.04527 0.584356 0
M  V30 8175 H 804.689 -5.12889 -1.19382 0
M  V30 8176 H 807.18 -3.75105 -0.458737 0
M  V30 8177 H 807.493 -7.7216 -0.314375 0
M  V30 8178 H 805.838 -6.94396 -0.28967 0
M  V30 8179 H 809.029 -4.65586 -0.48451 0
M  V30 8180 H 809.202 -6.46645 -0.418907 0
M  V30 8181 N 802.608 0.318715 -1.54344 0
M  V30 8182 C 803.54 1.41364 -1.80413 0
M  V30 8183 C 804.553 1.47627 -0.686294 0
M  V30 8184 O 805.742 1.50264 -0.963486 0
M  V30 8185 C 802.842 2.79867 -1.91123 0
M  V30 8186 C 802.015 2.96749 -3.21339 0
M  V30 8187 C 801.074 4.15642 -3.22689 0
M  V30 8188 O 800.1 4.08571 -3.96306 0
M  V30 8189 N 801.302 5.25416 -2.46817 0
M  V30 8190 H 804.067 1.19363 -2.74905 0
M  V30 8191 H 801.628 0.508722 -1.537 0
M  V30 8192 H 803.62 3.57619 -1.89448 0
M  V30 8193 H 802.19 2.94896 -1.03706 0
M  V30 8194 H 801.41 2.06257 -3.35934 0
M  V30 8195 H 802.698 3.04927 -4.07304 0
M  V30 8196 H 802.096 5.34037 -1.86605 0
M  V30 8197 H 800.653 6.01569 -2.50915 0
M  V30 8198 N 804.086 1.46499 0.581025 0
M  V30 8199 C 805.033 1.5719 1.68997 0
M  V30 8200 C 806.003 0.416114 1.60803 0
M  V30 8201 O 807.188 0.633086 1.79991 0
M  V30 8202 C 804.328 1.56973 3.07333 0
M  V30 8203 C 803.441 2.83298 3.26139 0
M  V30 8204 C 802.576 2.74574 4.54734 0
M  V30 8205 C 801.615 3.9583 4.66889 0
M  V30 8206 N 800.752 3.85482 5.86811 0
M  V30 8207 H 805.592 2.51914 1.59196 0
M  V30 8208 H 803.129 1.24975 0.775857 0
M  V30 8209 H 805.087 1.54832 3.87405 0
M  V30 8210 H 803.717 0.657803 3.16027 0
M  V30 8211 H 802.769 2.95411 2.3966 0
M  V30 8212 H 804.081 3.7316 3.30988 0
M  V30 8213 H 803.235 2.70548 5.43036 0
M  V30 8214 H 801.974 1.82354 4.52325 0
M  V30 8215 H 800.979 4.00186 3.77003 0
M  V30 8216 H 802.204 4.89148 4.71075 0
M  V30 8217 H 800.15 2.96051 5.85397 0
M  V30 8218 H 800.067 4.69002 5.92936 0
M  V30 8219 H 801.335 3.85434 6.7754 0
M  V30 8220 N 805.565 -0.825799 1.34232 0
M  V30 8221 C 806.976 -1.39835 1.23706 0
M  V30 8222 C 807.327 -1.95709 -0.138649 0
M  V30 8223 O 806.452 -1.89833 -1.03886 0
M  V30 8224 C 807.047 -2.54203 2.23978 0
M  V30 8225 C 805.606 -3.07374 2.17251 0
M  V30 8226 C 804.753 -1.80232 2.10741 0
M  V30 8227 H 807.704 -0.630442 1.4564 0
M  V30 8228 H 807.725 -3.32214 1.8551 0
M  V30 8229 H 807.237 -2.13506 3.24094 0
M  V30 8230 H 805.338 -3.52583 1.20483 0
M  V30 8231 H 805.451 -3.6666 3.08379 0
M  V30 8232 H 803.815 -2.01012 1.56417 0
M  V30 8233 H 804.598 -1.41713 3.12686 0
M  V30 8234 N 807.043 -1.17915 -1.04565 0
M  V30 8235 C 808.459 -0.927761 -1.29864 0
M  V30 8236 C 808.659 0.409536 -1.97294 0
M  V30 8237 O 807.715 1.14505 -2.25044 0
M  V30 8238 C 809.028 -2.08967 -2.16225 0
M  V30 8239 C 810.576 -2.12741 -2.29587 0
M  V30 8240 C 811.051 -3.28335 -3.19312 0
M  V30 8241 N 812.542 -3.28164 -3.26898 0
M  V30 8242 C 813.277 -4.14249 -3.96466 0
M  V30 8243 N 812.773 -5.10457 -4.68407 0
M  V30 8244 N 814.566 -4.02179 -3.92694 0
M  V30 8245 H 806.717 -2.03983 -0.592011 0
M  V30 8246 H 808.98 -0.891023 -0.323701 0
M  V30 8247 H 808.686 -3.05654 -1.73979 0
M  V30 8248 H 808.56 -2.04606 -3.16885 0
M  V30 8249 H 810.947 -1.16636 -2.71072 0
M  V30 8250 H 811.028 -2.21162 -1.28535 0
M  V30 8251 H 810.672 -4.2471 -2.78539 0
M  V30 8252 H 810.602 -3.17151 -4.20384 0
M  V30 8253 H 813.093 -2.58511 -2.75646 0
M  V30 8254 H 813.406 -5.72526 -5.1907 0
M  V30 8255 H 811.751 -5.14422 -4.67328 0
M  V30 8256 H 814.942 -3.26308 -3.3562 0
M  V30 8257 H 815.115 -4.69486 -4.4664 0
M  V30 8258 N 808.521 1.23394 -0.980386 0
M  V30 8259 C 809.453 2.24146 -0.478657 0
M  V30 8260 C 810.466 1.57303 0.419492 0
M  V30 8261 O 811.655 1.77094 0.223631 0
M  V30 8262 C 808.755 3.3732 0.326913 0
M  V30 8263 C 807.928 4.33744 -0.56436 0
M  V30 8264 C 806.987 5.25866 0.187358 0
M  V30 8265 O 806.013 5.67626 -0.423019 0
M  V30 8266 N 807.215 5.61492 1.47335 0
M  V30 8267 H 809.98 2.67826 -1.34496 0
M  V30 8268 H 807.541 1.37566 -0.853653 0
M  V30 8269 H 809.533 3.95926 0.838148 0
M  V30 8270 H 808.103 2.92823 1.09422 0
M  V30 8271 H 807.323 3.73641 -1.25642 0
M  V30 8272 H 808.611 4.95123 -1.17177 0
M  V30 8273 H 808.009 5.29514 1.99077 0
M  V30 8274 H 806.566 6.2257 1.93002 0
M  V30 8275 N 809.999 0.752036 1.385 0
M  V30 8276 C 811.247 0.306895 1.99756 0
M  V30 8277 C 811.568 -1.11478 1.59992 0
M  V30 8278 O 810.838 -1.76206 0.856045 0
M  V30 8279 H 809.418 0.11048 0.738785 0
M  V30 8280 H 812.08 0.965785 1.69289 0
M  V30 8281 H 811.176 0.368797 3.09913 0
M  V30 8282 N 811.477 -1.49425 0.500989 0
M  V30 8283 C 812.893 -1.58826 0.156951 0
M  V30 8284 C 813.093 -1.50622 -1.33848 0
M  V30 8285 O 812.149 -1.38016 -2.11442 0
M  V30 8286 C 813.462 -2.91611 0.73374 0
M  V30 8287 C 815.01 -3.05076 0.699846 0
M  V30 8288 C 815.485 -4.40479 1.2547 0
M  V30 8289 N 816.976 -4.4697 1.2154 0
M  V30 8290 C 817.711 -5.50189 1.6149 0
M  V30 8291 N 817.207 -6.60512 2.09034 0
M  V30 8292 N 819 -5.40903 1.52907 0
M  V30 8293 H 811.151 -1.53001 1.47324 0
M  V30 8294 H 813.414 -0.724765 0.61108 0
M  V30 8295 H 813.12 -3.03182 1.78251 0
M  V30 8296 H 812.994 -3.767 0.19417 0
M  V30 8297 H 815.381 -2.93134 -0.340085 0
M  V30 8298 H 815.462 -2.2167 1.27656 0
M  V30 8299 H 815.106 -4.53172 2.29341 0
M  V30 8300 H 815.036 -5.22524 0.653921 0
M  V30 8301 H 817.527 -3.67819 0.867043 0
M  V30 8302 H 817.84 -7.35372 2.37588 0
M  V30 8303 H 816.185 -6.61553 2.13008 0
M  V30 8304 H 819.376 -4.53606 1.15583 0
M  V30 8305 H 819.549 -6.21219 1.84365 0
M  V30 8306 N 812.955 -0.234822 -1.55841 0
M  V30 8307 C 814.371 0.120295 -1.59146 0
M  V30 8308 C 814.571 1.57896 -1.25184 0
M  V30 8309 O 813.627 2.32138 -0.993393 0
M  V30 8310 C 814.94 -0.217984 -2.99909 0
M  V30 8311 C 816.488 -0.161298 -3.12584 0
M  V30 8312 C 816.963 -0.473438 -4.55546 0
M  V30 8313 N 818.454 -0.423494 -4.6126 0
M  V30 8314 C 819.189 -0.638334 -5.69836 0
M  V30 8315 N 818.685 -0.915659 -6.86722 0
M  V30 8316 N 820.478 -0.569864 -5.59204 0
M  V30 8317 H 812.629 -1.18622 -1.76189 0
M  V30 8318 H 814.892 -0.476426 -0.819587 0
M  V30 8319 H 814.598 -1.2309 -3.29457 0
M  V30 8320 H 814.472 0.460707 -3.74376 0
M  V30 8321 H 816.859 0.842274 -2.82825 0
M  V30 8322 H 816.94 -0.873661 -2.40418 0
M  V30 8323 H 816.584 -1.47451 -4.86025 0
M  V30 8324 H 816.514 0.260268 -5.25956 0
M  V30 8325 H 819.005 -0.217383 -3.77274 0
M  V30 8326 H 819.318 -1.06734 -7.65394 0
M  V30 8327 H 817.663 -0.953 -6.88435 0
M  V30 8328 H 820.854 -0.35334 -4.66765 0
M  V30 8329 H 821.027 -0.740698 -6.43753 0
M  V30 8330 N 814.433 1.57553 0.0384317 0
M  V30 8331 C 815.679 1.89121 0.732199 0
M  V30 8332 C 816.012 0.831404 1.75503 0
M  V30 8333 O 815.287 -0.154642 1.93884 0
M  V30 8334 C 815.57 3.31338 1.41021 0
M  V30 8335 C 815.423 4.48004 0.401532 0
M  V30 8336 C 816.742 3.72318 2.34665 0
M  V30 8337 H 813.861 0.687819 0.264715 0
M  V30 8338 H 816.503 1.89999 -0.00496279 0
M  V30 8339 H 814.653 3.3072 2.03854 0
M  V30 8340 H 816.325 4.60755 -0.224159 0
M  V30 8341 H 814.568 4.32895 -0.280092 0
M  V30 8342 H 815.239 5.44377 0.91423 0
M  V30 8343 H 817.715 3.74243 1.81883 0
M  V30 8344 H 816.591 4.72652 2.7909 0
M  V30 8345 H 816.852 3.04062 3.20934 0
M  V30 8346 N 815.911 -0.310526 1.54511 0
M  V30 8347 C 816.841 -1.38757 1.878 0
M  V30 8348 C 817.822 -1.53353 0.735991 0
M  V30 8349 O 819.007 -1.67018 0.990887 0
M  V30 8350 C 816.137 -2.75327 2.11689 0
M  V30 8351 C 815.091 -2.75506 3.27537 0
M  V30 8352 C 814.417 -4.15275 3.36824 0
M  V30 8353 C 815.717 -2.38093 4.64875 0
M  V30 8354 H 817.411 -1.11146 2.78005 0
M  V30 8355 H 814.957 -0.533232 1.33763 0
M  V30 8356 H 816.91 -3.50752 2.33562 0
M  V30 8357 H 815.634 -3.04443 1.18245 0
M  V30 8358 H 814.293 -2.02538 3.05572 0
M  V30 8359 H 813.941 -4.41553 2.40915 0
M  V30 8360 H 813.641 -4.16299 4.14692 0
M  V30 8361 H 815.165 -4.92493 3.60947 0
M  V30 8362 H 816.579 -3.03232 4.86542 0
M  V30 8363 H 814.976 -2.50345 5.45387 0
M  V30 8364 H 816.046 -1.33227 4.66239 0
M  V30 8365 N 817.389 -1.46805 -0.573248 0
M  V30 8366 C 818.319 -1.60951 -1.69165 0
M  V30 8367 C 819.3 -0.45948 -1.63777 0
M  V30 8368 O 820.485 -0.68688 -1.81647 0
M  V30 8369 C 817.615 -1.60844 -3.07809 0
M  V30 8370 C 816.569 -2.74913 -3.28035 0
M  V30 8371 C 815.895 -2.59871 -4.67302 0
M  V30 8372 C 817.195 -4.16654 -3.14955 0
M  V30 8373 H 818.889 -2.54574 -1.57582 0
M  V30 8374 H 816.435 -1.22516 -0.756686 0
M  V30 8375 H 818.388 -1.69334 -3.85881 0
M  V30 8376 H 817.112 -0.637714 -3.20314 0
M  V30 8377 H 815.771 -2.65908 -2.52366 0
M  V30 8378 H 815.419 -1.60861 -4.76585 0
M  V30 8379 H 815.119 -3.36386 -4.81786 0
M  V30 8380 H 816.643 -2.70265 -5.4753 0
M  V30 8381 H 818.057 -4.26721 -3.82861 0
M  V30 8382 H 816.454 -4.93831 -3.40956 0
M  V30 8383 H 817.524 -4.36146 -2.11908 0
M  V30 8384 N 818.867 0.818669 -1.34668 0
M  V30 8385 C 819.797 1.94468 -1.29245 0
M  V30 8386 C 820.778 1.69257 -0.169101 0
M  V30 8387 O 821.963 1.90794 -0.362143 0
M  V30 8388 C 819.093 3.31001 -1.05145 0
M  V30 8389 C 818.047 3.70663 -2.13992 0
M  V30 8390 C 817.373 5.05226 -1.75074 0
M  V30 8391 C 818.673 3.82312 -3.55858 0
M  V30 8392 H 820.367 1.99263 -2.2346 0
M  V30 8393 H 817.913 0.957304 -1.07572 0
M  V30 8394 H 819.866 4.09364 -0.999949 0
M  V30 8395 H 818.59 3.26517 -0.0737312 0
M  V30 8396 H 817.249 2.94578 -2.18219 0
M  V30 8397 H 816.897 4.97233 -0.759518 0
M  V30 8398 H 816.597 5.32734 -2.47928 0
M  V30 8399 H 818.121 5.86042 -1.71427 0
M  V30 8400 H 819.535 4.50935 -3.5402 0
M  V30 8401 H 817.932 4.21278 -4.2737 0
M  V30 8402 H 819.002 2.84193 -3.9289 0
M  V30 8403 N 820.346 1.18468 1.03938 0
M  V30 8404 C 821.594 0.978895 1.76811 0
M  V30 8405 C 821.915 -0.49257 1.88676 0
M  V30 8406 O 821.185 -1.3572 1.41269 0
M  V30 8407 H 819.765 0.359201 0.654968 0
M  V30 8408 H 822.427 1.49173 1.25433 0
M  V30 8409 H 821.523 1.418 2.78027 0
M  V30 8410 N 821.824 -1.22873 0.986916 0
M  V30 8411 C 823.049 -1.96028 0.677341 0
M  V30 8412 C 823.474 -1.72487 -0.750319 0
M  V30 8413 O 822.832 -1.00036 -1.51203 0
M  V30 8414 C 822.88 -3.46983 0.981593 0
M  V30 8415 O 821.984 -4.12328 0.0770729 0
M  V30 8416 H 821.325 -0.613458 0.254096 0
M  V30 8417 H 823.855 -1.56132 1.32227 0
M  V30 8418 H 823.865 -3.9747 0.920969 0
M  V30 8419 H 822.54 -3.63442 2.02194 0
M  V30 8420 H 821.117 -3.72402 0.192666 0
M  V30 8421 N 823.302 -0.75937 -1.38099 0
M  V30 8422 C 824.234 -0.0956547 -2.29 0
M  V30 8423 C 825.247 0.677561 -1.4803 0
M  V30 8424 O 826.436 0.517696 -1.70828 0
M  V30 8425 C 823.536 0.88844 -3.27047 0
M  V30 8426 C 822.709 0.171652 -4.37063 0
M  V30 8427 C 821.768 1.06733 -5.15262 0
M  V30 8428 O 820.794 0.535698 -5.66674 0
M  V30 8429 N 821.996 2.39486 -5.28797 0
M  V30 8430 H 824.761 -0.876354 -2.86601 0
M  V30 8431 H 822.322 -0.61065 -1.49942 0
M  V30 8432 H 824.314 1.49079 -3.76241 0
M  V30 8433 H 822.884 1.57018 -2.70304 0
M  V30 8434 H 822.104 -0.611473 -3.89429 0
M  V30 8435 H 823.392 -0.324121 -5.07767 0
M  V30 8436 H 822.79 2.85127 -4.88589 0
M  V30 8437 H 821.347 2.94758 -5.81344 0
M  V30 8438 N 824.78 1.49157 -0.508906 0
M  V30 8439 C 825.712 2.272 0.302115 0
M  V30 8440 C 826.725 1.3407 0.923529 0
M  V30 8441 O 827.914 1.5929 0.805532 0
M  V30 8442 C 825.014 3.06736 1.44105 0
M  V30 8443 C 824.187 4.27497 0.925477 0
M  V30 8444 C 823.246 4.89014 1.94297 0
M  V30 8445 O 822.272 5.48851 1.50834 0
M  V30 8446 N 823.474 4.7937 3.2739 0
M  V30 8447 H 826.239 2.97443 -0.367115 0
M  V30 8448 H 823.8 1.58248 -0.341933 0
M  V30 8449 H 825.792 3.44763 2.11944 0
M  V30 8450 H 824.362 2.3905 2.0143 0
M  V30 8451 H 823.582 3.94135 0.0717301 0
M  V30 8452 H 824.87 5.05714 0.55955 0
M  V30 8453 H 824.268 4.31869 3.65384 0
M  V30 8454 H 822.825 5.21559 3.90922 0
M  V30 8455 N 826.258 0.243083 1.55714 0
M  V30 8456 C 827.221 -0.644723 2.19945 0
M  V30 8457 C 828.221 -1.10562 1.16759 0
M  V30 8458 O 829.411 -1.01095 1.41865 0
M  V30 8459 C 826.543 -1.88569 2.83997 0
M  V30 8460 H 827.736 -0.0843839 2.99781 0
M  V30 8461 H 825.289 -0.00647246 1.56299 0
M  V30 8462 H 826.024 -2.48736 2.08089 0
M  V30 8463 H 825.809 -1.56345 3.59581 0
M  V30 8464 H 827.299 -2.51774 3.33166 0
M  V30 8465 N 827.736 -1.57571 -0.0300757 0
M  V30 8466 C 828.984 -1.88852 -0.719666 0
M  V30 8467 C 829.305 -0.840645 -1.75949 0
M  V30 8468 O 828.575 0.125854 -1.95495 0
M  V30 8469 H 827.155 -0.696965 -0.268792 0
M  V30 8470 H 829.817 -1.949 0.00373285 0
M  V30 8471 H 828.913 -2.87695 -1.20987 0
M  V30 8472 N 829.214 0.302327 -1.54673 0
M  V30 8473 C 830.442 1.05669 -1.77881 0
M  V30 8474 C 830.857 1.80983 -0.537648 0
M  V30 8475 O 830.214 1.7573 0.492467 0
M  V30 8476 C 830.265 2.03828 -2.98557 0
M  V30 8477 O 829.986 1.3157 -4.17877 0
M  V30 8478 C 831.487 2.91314 -3.34143 0
M  V30 8479 H 828.707 0.313436 -0.593295 0
M  V30 8480 H 831.251 0.342003 -2.0162 0
M  V30 8481 H 829.406 2.70801 -2.7703 0
M  V30 8482 H 829.82 1.97481 -4.85903 0
M  V30 8483 H 831.294 3.56042 -4.21827 0
M  V30 8484 H 831.771 3.59544 -2.52239 0
M  V30 8485 H 832.377 2.29874 -3.57824 0
M  V30 8486 N 830.692 1.47107 0.565454 0
M  V30 8487 C 831.92 1.56909 1.3486 0
M  V30 8488 C 832.335 0.216312 1.87557 0
M  V30 8489 O 831.692 -0.789168 1.64555 0
M  V30 8490 C 831.743 2.58776 2.52423 0
M  V30 8491 O 831.464 3.888 2.01906 0
M  V30 8492 C 832.965 2.78683 3.44747 0
M  V30 8493 H 830.185 0.530096 0.411387 0
M  V30 8494 H 832.729 1.92658 0.685782 0
M  V30 8495 H 830.884 2.25983 3.1466 0
M  V30 8496 H 831.298 4.44393 2.78595 0
M  V30 8497 H 832.772 3.53842 4.23674 0
M  V30 8498 H 833.249 1.86208 3.97773 0
M  V30 8499 H 833.855 3.12641 2.88333 0
M  V30 8500 N 832.17 -0.811516 1.35101 0
M  V30 8501 C 833.1 -1.9378 1.30275 0
M  V30 8502 C 834.081 -1.69165 0.178075 0
M  V30 8503 O 835.266 -1.90599 0.372256 0
M  V30 8504 C 832.396 -3.30439 1.06899 0
M  V30 8505 C 831.35 -3.69523 2.15955 0
M  V30 8506 C 830.676 -5.0429 1.77751 0
M  V30 8507 C 831.976 -3.80419 3.57881 0
M  V30 8508 H 833.67 -1.98075 2.24514 0
M  V30 8509 H 831.216 -0.951586 1.08078 0
M  V30 8510 H 833.169 -4.08828 1.02164 0
M  V30 8511 H 831.893 -3.26473 0.0910462 0
M  V30 8512 H 830.552 -2.93416 2.19778 0
M  V30 8513 H 830.2 -4.96823 0.785876 0
M  V30 8514 H 829.9 -5.31411 2.5075 0
M  V30 8515 H 831.424 -5.85125 1.74533 0
M  V30 8516 H 832.838 -4.49051 3.56407 0
M  V30 8517 H 831.235 -4.19005 4.29598 0
M  V30 8518 H 832.305 -2.82105 3.94391 0
M  V30 8519 N 833.648 -1.19017 -1.03309 0
M  V30 8520 C 834.596 -0.920627 -2.13605 0
M  V30 8521 C 835.59 0.121969 -1.6896 0
M  V30 8522 O 836.796 -0.0268854 -1.7998 0
M  V30 8523 H 833.171 -0.280284 -0.697814 0
M  V30 8524 H 835.142 -1.85755 -2.33533 0
M  V30 8525 C 833.891 -0.471198 -3.44492 0
M  V30 8526 H 833.214 -1.26499 -3.7926 0
M  V30 8527 H 834.654 -0.321663 -4.22778 0
M  V30 8528 C 833.113 0.81411 -3.26916 0
M  V30 8529 O 833.643 1.87654 -3.55175 0
M  V30 8530 N 831.849 0.769695 -2.80221 0
M  V30 8531 H 831.396 -0.0951278 -2.57424 0
M  V30 8532 H 831.354 1.63008 -2.68842 0
M  V30 8533 N 835.127 1.22348 -0.993418 0
M  V30 8534 C 836.057 2.26584 -0.564088 0
M  V30 8535 C 837.038 1.65102 0.409298 0
M  V30 8536 O 838.223 1.91872 0.299819 0
M  V30 8537 C 835.353 3.47087 0.121554 0
M  V30 8538 C 834.307 4.21009 -0.770429 0
M  V30 8539 C 833.633 5.34678 0.0481586 0
M  V30 8540 C 834.933 4.79636 -2.06752 0
M  V30 8541 H 836.627 2.62749 -1.43538 0
M  V30 8542 H 834.173 1.26303 -0.691628 0
M  V30 8543 H 836.126 4.19166 0.433303 0
M  V30 8544 H 834.85 3.1002 1.0274 0
M  V30 8545 H 833.509 3.50764 -1.06583 0
M  V30 8546 H 833.157 4.93852 0.954933 0
M  V30 8547 H 832.857 5.85061 -0.545641 0
M  V30 8548 H 834.381 6.09573 0.353991 0
M  V30 8549 H 835.795 5.43654 -1.81969 0
M  V30 8550 H 834.192 5.4036 -2.61019 0
M  V30 8551 H 835.262 3.99659 -2.74592 0
M  V30 8552 N 836.605 0.766683 1.37694 0
M  V30 8553 C 837.882 0.25366 1.93948 0
M  V30 8554 C 838.262 -1.25041 1.70082 0
M  V30 8555 O 837.61 -2.03115 1.04674 0
M  V30 8556 C 837.82 0.621549 3.43421 0
M  V30 8557 C 839.168 0.588504 4.20502 0
M  V30 8558 O 840.192 0.560632 3.5176 0
M  V30 8559 O 839.051 0.61107 5.43073 0
M  V30 8560 H 836.145 0.0570586 0.825029 0
M  V30 8561 H 838.691 0.847693 1.47011 0
M  V30 8562 H 837.463 1.65979 3.54354 0
M  V30 8563 H 837.086 0.000197027 3.976 0
M  V30 8564 N 838.083 -1.48885 0.516809 0
M  V30 8565 C 839.013 -2.32241 -0.242157 0
M  V30 8566 C 839.994 -1.41258 -0.947633 0
M  V30 8567 O 841.179 -1.70156 -0.935973 0
M  V30 8568 C 838.309 -3.22151 -1.29754 0
M  V30 8569 C 837.263 -4.22053 -0.710995 0
M  V30 8570 C 836.589 -5.01007 -1.86806 0
M  V30 8571 C 837.889 -5.21388 0.30853 0
M  V30 8572 H 839.583 -2.95943 0.453651 0
M  V30 8573 H 837.129 -1.42316 0.219612 0
M  V30 8574 H 839.082 -3.79284 -1.83634 0
M  V30 8575 H 837.806 -2.56423 -2.02274 0
M  V30 8576 H 836.465 -3.66087 -0.193819 0
M  V30 8577 H 836.113 -4.31713 -2.58133 0
M  V30 8578 H 835.813 -5.68615 -1.48159 0
M  V30 8579 H 837.337 -5.60989 -2.4109 0
M  V30 8580 H 838.751 -5.73122 -0.142703 0
M  V30 8581 H 837.148 -5.96975 0.611673 0
M  V30 8582 H 838.218 -4.69329 1.21894 0
M  V30 8583 N 839.561 -0.251338 -1.55583 0
M  V30 8584 C 840.809 0.371434 -1.98657 0
M  V30 8585 C 841.13 1.58143 -1.14087 0
M  V30 8586 O 840.4 1.94607 -0.224708 0
M  V30 8587 H 838.98 0.140225 -0.733721 0
M  V30 8588 H 841.642 -0.351157 -1.9171 0
M  V30 8589 H 840.738 0.677554 -3.04657 0
M  V30 8590 N 841.039 1.57585 0.0217189 0
M  V30 8591 C 842.287 1.89231 0.709641 0
M  V30 8592 C 842.608 0.849964 1.75501 0
M  V30 8593 O 841.878 -0.115485 1.95559 0
M  V30 8594 H 840.458 0.69838 0.265092 0
M  V30 8595 H 843.12 1.94895 -0.0140688 0
M  V30 8596 H 842.216 2.88333 1.19459 0
M  V30 8597 N 842.517 -0.29412 1.54831 0
M  V30 8598 C 843.464 -1.36296 1.86258 0
M  V30 8599 C 844.434 -1.50061 0.712097 0
M  V30 8600 O 845.619 -1.64809 0.961381 0
M  V30 8601 C 842.759 -2.72187 2.12151 0
M  V30 8602 C 841.872 -2.66816 3.39755 0
M  V30 8603 C 841.007 -3.94747 3.55455 0
M  V30 8604 C 840.046 -3.838 4.76827 0
M  V30 8605 N 839.183 -5.03521 4.89296 0
M  V30 8606 H 844.023 -1.08796 2.7743 0
M  V30 8607 H 841.56 -0.526069 1.37371 0
M  V30 8608 H 843.518 -3.51225 2.25159 0
M  V30 8609 H 842.148 -2.97934 1.24237 0
M  V30 8610 H 841.2 -1.79605 3.3533 0
M  V30 8611 H 842.512 -2.5462 4.28917 0
M  V30 8612 H 841.666 -4.82223 3.68166 0
M  V30 8613 H 840.405 -4.09785 2.64438 0
M  V30 8614 H 839.41 -2.94708 4.64141 0
M  V30 8615 H 840.635 -3.70301 5.69258 0
M  V30 8616 H 838.581 -5.1901 4.01204 0
M  V30 8617 H 838.498 -4.93775 5.72471 0
M  V30 8618 H 839.766 -5.92629 5.06371 0
M  V30 8619 N 843.995 -1.47404 -0.557645 0
M  V30 8620 C 844.945 -1.56267 -1.66026 0
M  V30 8621 C 845.929 -0.42161 -1.55278 0
M  V30 8622 O 847.121 -0.671505 -1.63768 0
M  V30 8623 C 844.25 -1.57958 -3.04802 0
M  V30 8624 C 843.336 -2.77447 -3.20755 0
M  V30 8625 N 843.727 -4.02148 -3.06775 0
M  V30 8626 C 842.025 -2.74199 -3.51754 0
M  V30 8627 C 842.726 -4.82168 -3.25406 0
M  V30 8628 N 841.702 -4.14481 -3.5172 0
M  V30 8629 H 845.504 -2.50454 -1.53785 0
M  V30 8630 H 843.018 -1.43392 -0.762388 0
M  V30 8631 H 845.015 -1.62397 -3.8397 0
M  V30 8632 H 843.675 -0.648667 -3.18155 0
M  V30 8633 H 844.686 -4.33014 -2.84111 0
M  V30 8634 H 841.363 -1.90243 -3.71637 0
M  V30 8635 H 842.753 -5.91037 -3.19569 0
M  V30 8636 N 845.473 0.80434 -1.35529 0
M  V30 8637 C 846.698 1.598 -1.32207 0
M  V30 8638 C 847.123 1.87848 0.0974226 0
M  V30 8639 O 846.481 1.46728 1.06492 0
M  V30 8640 C 846.529 2.90483 -2.13663 0
M  V30 8641 O 845.633 3.83411 -1.51888 0
M  V30 8642 H 844.974 0.485305 -0.453183 0
M  V30 8643 H 847.504 0.998119 -1.78602 0
M  V30 8644 H 847.514 3.39888 -2.257 0
M  V30 8645 H 846.189 2.69395 -3.16859 0
M  V30 8646 H 844.766 3.41967 -1.48704 0
M  V30 8647 N 846.951 1.19563 1.02676 0
M  V30 8648 C 848.362 1.00158 1.57561 0
M  V30 8649 C 848.713 -0.444922 1.91089 0
M  V30 8650 O 847.838 -1.32466 1.71119 0
M  V30 8651 C 848.433 1.81181 2.86284 0
M  V30 8652 C 846.992 1.66171 3.37734 0
M  V30 8653 C 846.139 1.7975 2.11152 0
M  V30 8654 H 849.09 1.33904 0.85179 0
M  V30 8655 H 849.111 1.30916 3.57269 0
M  V30 8656 H 848.623 2.86454 2.6185 0
M  V30 8657 H 846.724 0.634927 3.6715 0
M  V30 8658 H 846.837 2.46832 4.10622 0
M  V30 8659 H 845.201 1.22833 2.23123 0
M  V30 8660 H 845.984 2.86487 1.89157 0
M  V30 8661 N 848.429 -1.21819 0.999893 0
M  V30 8662 C 849.678 -1.90066 0.675108 0
M  V30 8663 C 849.991 -1.78624 -0.79705 0
M  V30 8664 O 851.197 -2.41851 -1.23371 0
M  V30 8665 C 849.653 -3.40795 1.15702 0
M  V30 8666 C 849.261 -3.60859 2.6549 0
M  V30 8667 C 851.005 -4.147 0.906889 0
M  V30 8668 C 848.912 -5.05324 3.07248 0
M  V30 8669 H 847.842 -0.711763 0.248815 0
M  V30 8670 H 850.493 -1.3792 1.21038 0
M  V30 8671 H 848.875 -3.92164 0.549832 0
M  V30 8672 H 850.049 -3.19951 3.31614 0
M  V30 8673 H 848.364 -3.00298 2.88461 0
M  V30 8674 H 850.961 -5.21187 1.1945 0
M  V30 8675 H 851.304 -4.16004 -0.156923 0
M  V30 8676 H 851.837 -3.69379 1.47662 0
M  V30 8677 H 848.576 -5.09164 4.12834 0
M  V30 8678 H 848.096 -5.47108 2.45832 0
M  V30 8679 H 849.775 -5.73797 2.98941 0
M  V30 8680 N 849.908 -0.773975 -1.37286 0
M  V30 8681 C 851.148 -0.344505 -2.01476 0
M  V30 8682 C 851.512 1.05966 -1.6011 0
M  V30 8683 O 852.713 1.58937 -2.16778 0
M  V30 8684 C 850.984 -0.485816 -3.54083 0
M  V30 8685 S 852.543 -0.141939 -4.3857 0
M  V30 8686 H 849.361 -0.13243 -0.698558 0
M  V30 8687 H 851.963 -1.00908 -1.67445 0
M  V30 8688 H 850.667 -1.50835 -3.81677 0
M  V30 8689 H 850.198 0.195232 -3.92915 0
M  V30 8690 H 852.213 1.06177 -4.84707 0
M  V30 8691 N 851.386 1.48609 -0.524698 0
M  V30 8692 C 852.336 2.26505 0.260696 0
M  V30 8693 C 853.32 1.32378 0.914597 0
M  V30 8694 O 854.512 1.5695 0.818277 0
M  V30 8695 C 851.641 3.17313 1.31024 0
M  V30 8696 C 850.727 4.18911 0.661391 0
M  V30 8697 N 851.118 5.05183 -0.24981 0
M  V30 8698 C 849.416 4.36425 0.91922 0
M  V30 8699 C 850.117 5.78348 -0.623598 0
M  V30 8700 N 849.093 5.43598 0.0140839 0
M  V30 8701 H 852.895 2.90582 -0.440388 0
M  V30 8702 H 850.409 1.5875 -0.342364 0
M  V30 8703 H 852.406 3.71772 1.88656 0
M  V30 8704 H 851.066 2.54791 2.01275 0
M  V30 8705 H 852.077 5.1415 -0.622093 0
M  V30 8706 H 848.754 3.85095 1.6127 0
M  V30 8707 H 850.144 6.57775 -1.37046 0
M  V30 8708 N 852.864 0.259585 1.55447 0
M  V30 8709 C 854.092 -0.365392 2.03648 0
M  V30 8710 C 854.507 -1.50613 1.13847 0
M  V30 8711 O 853.864 -1.81837 0.155414 0
M  V30 8712 C 853.915 -0.861172 3.51093 0
M  V30 8713 O 853.636 0.234121 4.37474 0
M  V30 8714 C 855.137 -1.55555 4.15111 0
M  V30 8715 H 852.357 -0.0853439 0.66555 0
M  V30 8716 H 854.901 0.387151 2.00802 0
M  V30 8717 H 853.056 -1.56385 3.54433 0
M  V30 8718 H 853.47 -0.1444 5.24301 0
M  V30 8719 H 854.944 -1.85403 5.19932 0
M  V30 8720 H 855.421 -2.48185 3.62355 0
M  V30 8721 H 856.027 -0.89712 4.15731 0
M  V30 8722 N 854.342 -1.57594 -0.0133615 0
M  V30 8723 C 855.57 -1.94251 -0.712328 0
M  V30 8724 C 855.985 -0.86063 -1.68043 0
M  V30 8725 O 855.342 0.161632 -1.81783 0
M  V30 8726 C 855.393 -3.30891 -1.45581 0
M  V30 8727 O 855.114 -4.34924 -0.526539 0
M  V30 8728 C 856.615 -3.81926 -2.2505 0
M  V30 8729 H 853.835 -0.640737 -0.199241 0
M  V30 8730 H 856.379 -2.04472 0.0337855 0
M  V30 8731 H 854.534 -3.22019 -2.15366 0
M  V30 8732 H 854.948 -5.1389 -1.04962 0
M  V30 8733 H 856.422 -4.79999 -2.72589 0
M  V30 8734 H 856.899 -3.13934 -3.07152 0
M  V30 8735 H 857.505 -3.93931 -1.60308 0
M  V30 8736 N 855.82 0.285905 -1.54985 0
M  V30 8737 C 856.753 1.37817 -1.81884 0
M  V30 8738 C 857.731 1.4811 -0.670988 0
M  V30 8739 O 858.915 1.64936 -0.912595 0
M  V30 8740 C 856.042 2.75587 -1.969 0
M  V30 8741 C 855.088 2.82643 -3.19398 0
M  V30 8742 S 855.921 2.43199 -4.7709 0
M  V30 8743 C 857.077 3.82969 -4.95061 0
M  V30 8744 H 857.31 1.14794 -2.74244 0
M  V30 8745 H 854.843 0.484843 -1.4659 0
M  V30 8746 H 856.801 3.54932 -2.06236 0
M  V30 8747 H 855.462 2.9587 -1.05451 0
M  V30 8748 H 854.655 3.8373 -3.26753 0
M  V30 8749 H 854.257 2.11306 -3.08586 0
M  V30 8750 H 856.549 4.78117 -4.80011 0
M  V30 8751 H 857.492 3.80575 -5.97133 0
M  V30 8752 H 857.9 3.73673 -4.23118 0
M  V30 8753 N 857.298 1.47698 0.54982 0
M  V30 8754 C 858.261 1.60282 1.63837 0
M  V30 8755 C 859.261 0.477394 1.5355 0
M  V30 8756 O 860.451 0.742665 1.57576 0
M  V30 8757 C 857.583 1.55431 3.03404 0
M  V30 8758 H 858.776 2.57325 1.54026 0
M  V30 8759 H 856.329 1.35999 0.770329 0
M  V30 8760 H 857.064 0.597912 3.1874 0
M  V30 8761 H 856.849 2.37116 3.12279 0
M  V30 8762 H 858.339 1.6739 3.82584 0
M  V30 8763 N 858.776 -0.797141 1.35954 0
M  V30 8764 C 860.023 -1.55468 1.29754 0
M  V30 8765 C 860.351 -1.94095 -0.125391 0
M  V30 8766 O 859.606 -1.62341 -1.09288 0
M  V30 8767 C 859.905 -2.84847 2.15863 0
M  V30 8768 C 859.571 -2.65394 3.64523 0
M  V30 8769 C 858.233 -2.59796 4.05042 0
M  V30 8770 C 860.585 -2.4727 4.58811 0
M  V30 8771 C 857.913 -2.3403 5.38002 0
M  V30 8772 C 860.265 -2.23032 5.91979 0
M  V30 8773 C 858.929 -2.15862 6.31633 0
M  V30 8774 H 858.199 -0.568897 0.474803 0
M  V30 8775 H 860.846 -0.920299 1.67937 0
M  V30 8776 H 859.151 -3.52712 1.70591 0
M  V30 8777 H 860.848 -3.42597 2.08395 0
M  V30 8778 H 857.438 -2.70602 3.32374 0
M  V30 8779 H 861.622 -2.506 4.28384 0
M  V30 8780 H 856.878 -2.26956 5.67715 0
M  V30 8781 H 861.052 -2.08001 6.64612 0
M  V30 8782 H 858.679 -1.9566 7.34589 0
M  V30 8783 N 860.254 -1.20106 -1.0204 0
M  V30 8784 C 861.184 -0.970301 -2.12385 0
M  V30 8785 C 862.165 0.099378 -1.69809 0
M  V30 8786 O 863.35 -0.057365 -1.94115 0
M  V30 8787 C 860.48 -0.517431 -3.43424 0
M  V30 8788 C 859.434 -1.52992 -3.99722 0
M  V30 8789 C 858.76 -0.933817 -5.26483 0
M  V30 8790 C 860.06 -2.91257 -4.33551 0
M  V30 8791 H 861.754 -1.89316 -2.31948 0
M  V30 8792 H 859.3 -0.911655 -1.11467 0
M  V30 8793 H 861.253 -0.343243 -4.2 0
M  V30 8794 H 859.977 0.441049 -3.23608 0
M  V30 8795 H 858.636 -1.6914 -3.2525 0
M  V30 8796 H 858.284 0.0324763 -5.0299 0
M  V30 8797 H 857.984 -1.60999 -5.65113 0
M  V30 8798 H 859.508 -0.770614 -6.05718 0
M  V30 8799 H 860.922 -2.78642 -5.0103 0
M  V30 8800 H 859.319 -3.55745 -4.83286 0
M  V30 8801 H 860.389 -3.43269 -3.42483 0
M  V30 8802 N 861.732 1.21287 -1.00634 0
M  V30 8803 C 863.148 1.42467 -0.719389 0
M  V30 8804 C 863.348 1.88767 0.704927 0
M  V30 8805 O 862.404 2.05004 1.47409 0
M  V30 8806 C 863.717 2.455 -1.73639 0
M  V30 8807 C 865.265 2.59281 -1.75335 0
M  V30 8808 C 865.74 3.65547 -2.75934 0
M  V30 8809 N 867.231 3.73019 -2.74611 0
M  V30 8810 C 867.966 4.54873 -3.4911 0
M  V30 8811 N 867.462 5.40614 -4.33253 0
M  V30 8812 N 869.255 4.49309 -3.37754 0
M  V30 8813 H 861.406 0.895454 -1.92602 0
M  V30 8814 H 863.669 0.455491 -0.831404 0
M  V30 8815 H 863.375 2.18455 -2.75627 0
M  V30 8816 H 863.249 3.44325 -1.54014 0
M  V30 8817 H 865.636 2.85661 -0.740377 0
M  V30 8818 H 865.717 1.60685 -1.99032 0
M  V30 8819 H 865.361 3.39911 -3.77389 0
M  V30 8820 H 865.291 4.63741 -2.49503 0
M  V30 8821 H 867.782 3.11766 -2.13565 0
M  V30 8822 H 868.095 6.0013 -4.86892 0
M  V30 8823 H 866.44 5.40151 -4.37335 0
M  V30 8824 H 869.631 3.81357 -2.71449 0
M  V30 8825 H 869.804 5.12867 -3.9607 0
M  V30 8826 N 863.21 0.781244 1.36873 0
M  V30 8827 C 864.487 0.274217 1.93668 0
M  V30 8828 C 864.867 -1.2323 1.71399 0
M  V30 8829 O 864.215 -2.01993 1.06822 0
M  V30 8830 C 864.425 0.657939 3.42742 0
M  V30 8831 C 865.773 0.63307 4.19854 0
M  V30 8832 O 866.797 0.597909 3.51146 0
M  V30 8833 O 865.656 0.668636 5.42394 0
M  V30 8834 H 862.75 0.0658059 0.824378 0
M  V30 8835 H 865.296 0.863238 1.46104 0
M  V30 8836 H 864.068 1.69728 3.52573 0
M  V30 8837 H 863.691 0.0423678 3.97577 0
M  V30 8838 N 864.689 -1.48329 0.532571 0
M  V30 8839 C 865.599 -2.33445 -0.232546 0
M  V30 8840 C 866.615 -1.46651 -0.93645 0
M  V30 8841 O 867.791 -1.79627 -0.910834 0
M  V30 8842 C 864.856 -3.22824 -1.26434 0
M  V30 8843 C 863.917 -4.25492 -0.570511 0
M  V30 8844 C 863.15 -5.10601 -1.55315 0
M  V30 8845 O 863.373 -4.97733 -2.78599 0
M  V30 8846 O 862.307 -5.91927 -1.09112 0
M  V30 8847 H 866.133 -3.00119 0.464988 0
M  V30 8848 H 863.718 -1.46489 0.293462 0
M  V30 8849 H 865.6 -3.78103 -1.86055 0
M  V30 8850 H 864.275 -2.58807 -1.94424 0
M  V30 8851 H 863.182 -3.74041 0.0662587 0
M  V30 8852 H 864.515 -4.92154 0.0674904 0
M  V30 8853 N 866.167 -0.267825 -1.55308 0
M  V30 8854 C 867.13 0.60965 -2.20943 0
M  V30 8855 C 868.13 1.0869 -1.18504 0
M  V30 8856 O 869.32 0.988248 -1.43455 0
M  V30 8857 C 866.452 1.84027 -2.86961 0
M  V30 8858 H 867.645 0.0366806 -2.99878 0
M  V30 8859 H 865.198 -0.0183941 -1.56289 0
M  V30 8860 H 865.933 2.45394 -2.1202 0
M  V30 8861 H 865.718 1.50605 -3.62023 0
M  V30 8862 H 867.208 2.46442 -3.37129 0
M  V30 8863 N 867.645 1.57599 0.00500368 0
M  V30 8864 C 868.922 1.81561 0.727654 0
M  V30 8865 C 869.302 0.871604 1.92266 0
M  V30 8866 O 868.65 -0.0808232 2.28357 0
M  V30 8867 C 868.86 3.29922 1.13809 0
M  V30 8868 C 870.208 3.95531 1.54403 0
M  V30 8869 O 871.232 3.34215 1.23202 0
M  V30 8870 O 870.091 5.03535 2.12402 0
M  V30 8871 H 867.185 0.747462 0.353878 0
M  V30 8872 H 869.731 1.69688 -0.0200667 0
M  V30 8873 H 868.503 3.90253 0.286078 0
M  V30 8874 H 868.126 3.46775 1.94507 0
M  V30 8875 N 869.123 -0.277682 1.55134 0
M  V30 8876 C 870.37 -1.0099 1.7552 0
M  V30 8877 C 870.698 -1.86452 0.553712 0
M  V30 8878 O 869.953 -1.90122 -0.463896 0
M  V30 8879 C 870.252 -1.92599 3.01065 0
M  V30 8880 C 869.918 -1.22926 4.3382 0
M  V30 8881 C 868.58 -1.03659 4.69902 0
M  V30 8882 C 870.932 -0.733071 5.16019 0
M  V30 8883 C 868.26 -0.334933 5.85743 0
M  V30 8884 C 870.612 -0.0450319 6.32584 0
M  V30 8885 C 869.276 0.159393 6.6731 0
M  V30 8886 H 868.546 -0.36955 0.642273 0
M  V30 8887 H 871.193 -0.282611 1.89403 0
M  V30 8888 H 869.498 -2.71934 2.82062 0
M  V30 8889 H 871.195 -2.49367 3.14034 0
M  V30 8890 H 867.785 -1.38933 4.05457 0
M  V30 8891 H 871.969 -0.869565 4.88623 0
M  V30 8892 H 867.225 -0.165783 6.11175 0
M  V30 8893 H 871.399 0.34723 6.95534 0
M  V30 8894 H 869.026 0.70507 7.56923 0
M  V30 8895 N 870.601 -1.47988 -0.541979 0
M  V30 8896 C 872.017 -1.33843 -0.869383 0
M  V30 8897 C 872.217 -0.340374 -1.98604 0
M  V30 8898 O 871.273 0.242696 -2.51331 0
M  V30 8899 C 872.586 -2.73568 -1.24823 0
M  V30 8900 C 874.134 -2.81967 -1.3588 0
M  V30 8901 C 874.609 -4.22368 -1.77114 0
M  V30 8902 N 876.1 -4.24983 -1.84237 0
M  V30 8903 C 876.835 -5.30547 -2.17503 0
M  V30 8904 N 876.331 -6.46401 -2.49275 0
M  V30 8905 N 878.124 -5.17933 -2.18406 0
M  V30 8906 H 870.275 -2.11503 0.195001 0
M  V30 8907 H 872.538 -0.947681 0.0245862 0
M  V30 8908 H 872.244 -3.48107 -0.501435 0
M  V30 8909 H 872.118 -3.06322 -2.20106 0
M  V30 8910 H 874.505 -2.07692 -2.09638 0
M  V30 8911 H 874.586 -2.52848 -0.387478 0
M  V30 8912 H 874.23 -4.97155 -1.0392 0
M  V30 8913 H 874.16 -4.48922 -2.75275 0
M  V30 8914 H 876.651 -3.41411 -1.62009 0
M  V30 8915 H 876.964 -7.22698 -2.73729 0
M  V30 8916 H 875.309 -6.49696 -2.46821 0
M  V30 8917 H 878.5 -4.26445 -1.93034 0
M  V30 8918 H 878.673 -6.00307 -2.44 0
M  V30 8919 N 872.079 0.78992 -1.36375 0
M  V30 8920 C 873.356 1.53584 -1.21126 0
M  V30 8921 C 873.736 2.10124 0.202785 0
M  V30 8922 O 873.084 1.93936 1.20835 0
M  V30 8923 C 873.294 2.63117 -2.29282 0
M  V30 8924 C 874.642 3.31013 -2.65924 0
M  V30 8925 O 875.666 2.734 -2.28321 0
M  V30 8926 O 874.525 4.35129 -3.30643 0
M  V30 8927 H 871.619 0.679366 -0.471583 0
M  V30 8928 H 874.165 0.828446 -1.48104 0
M  V30 8929 H 872.937 2.19329 -3.24053 0
M  V30 8930 H 872.56 3.41476 -2.03666 0
M  V30 8931 N 873.557 1.20646 1.01402 0
M  V30 8932 C 874.504 0.957618 2.09996 0
M  V30 8933 C 875.474 -0.113115 1.65714 0
M  V30 8934 O 876.659 0.032142 1.90773 0
M  V30 8935 C 873.799 0.5186 3.41181 0
M  V30 8936 C 872.912 1.65777 3.98926 0
M  V30 8937 C 872.047 1.16881 5.18182 0
M  V30 8938 C 871.086 2.2809 5.68015 0
M  V30 8939 N 870.223 1.80392 6.7853 0
M  V30 8940 H 875.063 1.88732 2.30617 0
M  V30 8941 H 872.6 0.940703 1.13089 0
M  V30 8942 H 874.558 0.245367 4.16478 0
M  V30 8943 H 873.188 -0.3741 3.20625 0
M  V30 8944 H 872.24 2.04586 3.207 0
M  V30 8945 H 873.552 2.49507 4.31912 0
M  V30 8946 H 872.706 0.851694 6.00692 0
M  V30 8947 H 871.445 0.301434 4.86768 0
M  V30 8948 H 870.45 2.60614 4.84108 0
M  V30 8949 H 871.675 3.15308 6.01463 0
M  V30 8950 H 869.621 0.959856 6.4894 0
M  V30 8951 H 869.538 2.57701 7.10722 0
M  V30 8952 H 870.806 1.51688 7.64598 0
M  V30 8953 N 875.035 -1.20752 1.01276 0
M  V30 8954 C 875.965 -2.25658 0.600064 0
M  V30 8955 C 876.946 -1.65733 -0.38298 0
M  V30 8956 O 878.131 -1.92324 -0.269256 0
M  V30 8957 C 875.261 -3.47237 -0.0663197 0
M  V30 8958 C 874.215 -4.1973 0.83731 0
M  V30 8959 C 873.541 -5.34687 0.0369102 0
M  V30 8960 C 874.841 -4.76286 2.14357 0
M  V30 8961 H 876.535 -2.60432 1.477 0
M  V30 8962 H 874.081 -1.25187 0.711634 0
M  V30 8963 H 876.034 -4.19803 -0.366563 0
M  V30 8964 H 874.758 -3.11615 -0.977944 0
M  V30 8965 H 873.417 -3.49024 1.1215 0
M  V30 8966 H 873.065 -4.95309 -0.876244 0
M  V30 8967 H 872.765 -5.84119 0.63865 0
M  V30 8968 H 874.289 -6.10059 -0.256968 0
M  V30 8969 H 875.703 -5.40691 1.90595 0
M  V30 8970 H 874.1 -5.36139 2.69583 0
M  V30 8971 H 875.17 -3.9524 2.80916 0
M  V30 8972 N 876.513 -0.788492 -1.36457 0
M  V30 8973 C 877.738 -0.371224 -2.04051 0
M  V30 8974 C 878.163 1.004 -1.59064 0
M  V30 8975 O 877.521 1.64663 -0.758679 0
M  V30 8976 C 877.569 -0.442275 -3.57877 0
M  V30 8977 O 876.673 0.55113 -4.08701 0
M  V30 8978 H 876.014 -0.157808 -0.644975 0
M  V30 8979 H 878.544 -1.06935 -1.74431 0
M  V30 8980 H 878.554 -0.305548 -4.06854 0
M  V30 8981 H 877.229 -1.44547 -3.89973 0
M  V30 8982 H 875.806 0.37614 -3.70998 0
M  V30 8983 N 877.991 1.48044 -0.54043 0
M  V30 8984 C 879.402 1.86418 -0.102662 0
M  V30 8985 C 879.753 1.4489 1.32293 0
M  V30 8986 O 878.878 0.844319 1.99249 0
M  V30 8987 C 879.473 3.38324 -0.179533 0
M  V30 8988 C 878.032 3.75852 0.203098 0
M  V30 8989 C 877.179 2.72097 -0.534637 0
M  V30 8990 H 880.13 1.398 -0.751103 0
M  V30 8991 H 880.151 3.75641 0.606147 0
M  V30 8992 H 879.663 3.68518 -1.21721 0
M  V30 8993 H 877.764 3.51272 1.24252 0
M  V30 8994 H 877.877 4.78884 -0.143784 0
M  V30 8995 H 876.241 2.54692 0.0203358 0
M  V30 8996 H 877.024 3.05135 -1.57314 0
M  V30 8997 N 879.47 0.276058 1.55163 0
M  V30 8998 C 880.719 -0.341098 1.98795 0
M  V30 8999 C 881.032 -1.56905 1.16791 0
M  V30 9000 O 882.238 -2.25922 1.50571 0
M  V30 9001 C 880.694 -0.658231 3.5383 0
M  V30 9002 C 880.302 0.549972 4.44611 0
M  V30 9003 C 882.046 -1.23796 4.06048 0
M  V30 9004 C 879.953 0.207373 5.91036 0
M  V30 9005 H 878.883 -0.131224 0.742493 0
M  V30 9006 H 881.534 0.380858 1.79504 0
M  V30 9007 H 879.916 -1.43911 3.68925 0
M  V30 9008 H 881.09 1.32681 4.41285 0
M  V30 9009 H 879.405 1.04661 4.03032 0
M  V30 9010 H 882.002 -1.50811 5.12991 0
M  V30 9011 H 882.345 -2.17214 3.55139 0
M  V30 9012 H 882.878 -0.519345 3.94395 0
M  V30 9013 H 879.617 1.10946 6.46043 0
M  V30 9014 H 879.137 -0.532687 5.9743 0
M  V30 9015 H 880.816 -0.200072 6.46691 0
M  V30 9016 N 880.948 -1.576 0.00335426 0
M  V30 9017 C 882.194 -1.90996 -0.681799 0
M  V30 9018 C 882.527 -0.877643 -1.73237 0
M  V30 9019 O 881.802 0.103183 -1.94226 0
M  V30 9020 C 882.085 -3.34961 -1.32187 0
M  V30 9021 C 881.938 -4.48911 -0.28261 0
M  V30 9022 C 883.257 -3.78408 -2.24711 0
M  V30 9023 H 880.376 -0.694596 -0.246386 0
M  V30 9024 H 883.018 -1.89919 0.055336 0
M  V30 9025 H 881.168 -3.36008 -1.95014 0
M  V30 9026 H 882.84 -4.59999 0.346241 0
M  V30 9027 H 881.083 -4.32 0.394768 0
M  V30 9028 H 881.754 -5.46609 -0.769576 0
M  V30 9029 H 884.23 -3.78934 -1.71897 0
M  V30 9030 H 883.106 -4.79885 -2.66461 0
M  V30 9031 H 883.367 -3.12464 -3.1276 0
M  V30 9032 N 882.426 0.269451 -1.5528 0
M  V30 9033 C 883.356 1.33729 -1.91413 0
M  V30 9034 C 884.337 1.51348 -0.776391 0
M  V30 9035 O 885.522 1.64332 -1.03482 0
M  V30 9036 C 882.652 2.69618 -2.18914 0
M  V30 9037 C 881.606 2.66725 -3.34726 0
M  V30 9038 C 880.932 4.06199 -3.47716 0
M  V30 9039 C 882.232 2.25684 -4.71025 0
M  V30 9040 H 883.926 1.03736 -2.80854 0
M  V30 9041 H 881.472 0.497579 -1.3513 0
M  V30 9042 H 883.425 3.44436 -2.42779 0
M  V30 9043 H 882.149 3.01201 -1.26275 0
M  V30 9044 H 880.808 1.94365 -3.10834 0
M  V30 9045 H 880.456 4.3501 -2.52537 0
M  V30 9046 H 880.156 4.05157 -4.25583 0
M  V30 9047 H 881.68 4.8275 -3.73877 0
M  V30 9048 H 883.094 2.90225 -4.94411 0
M  V30 9049 H 881.491 2.35797 -5.51833 0
M  V30 9050 H 882.561 1.20819 -4.69607 0
M  V30 9051 N 883.904 1.48273 0.534124 0
M  V30 9052 C 885.129 1.59988 1.31979 0
M  V30 9053 C 885.554 0.258824 1.86311 0
M  V30 9054 O 884.912 -0.768885 1.64188 0
M  V30 9055 C 884.96 2.64642 2.44943 0
M  V30 9056 O 884.064 2.21515 3.47858 0
M  V30 9057 H 883.405 0.536625 0.391063 0
M  V30 9058 H 885.935 1.94229 0.643135 0
M  V30 9059 H 885.945 2.85786 2.91187 0
M  V30 9060 H 884.62 3.62004 2.04758 0
M  V30 9061 H 883.197 2.10567 3.0776 0
M  V30 9062 N 885.382 -0.782676 1.36792 0
M  V30 9063 C 886.312 -1.90973 1.34356 0
M  V30 9064 C 887.293 -1.6875 0.213917 0
M  V30 9065 O 888.478 -1.89766 0.412601 0
M  V30 9066 C 885.608 -3.28097 1.13884 0
M  V30 9067 C 884.562 -3.6486 2.23744 0
M  V30 9068 C 883.888 -5.00406 1.88408 0
M  V30 9069 C 885.188 -3.72742 3.6587 0
M  V30 9070 H 886.882 -1.93268 2.28665 0
M  V30 9071 H 884.428 -0.928447 1.10072 0
M  V30 9072 H 886.381 -4.06569 1.10813 0
M  V30 9073 H 885.105 -3.26206 0.160275 0
M  V30 9074 H 883.764 -2.88689 2.25952 0
M  V30 9075 H 883.412 -4.95044 0.891083 0
M  V30 9076 H 883.112 -5.25973 2.61966 0
M  V30 9077 H 884.636 -5.81291 1.86905 0
M  V30 9078 H 886.05 -4.4139 3.65852 0
M  V30 9079 H 884.447 -4.09798 4.38389 0
M  V30 9080 H 885.517 -2.73676 4.00287 0
M  V30 9081 N 886.86 -1.21182 -1.00761 0
M  V30 9082 C 887.808 -0.965728 -2.11604 0
M  V30 9083 C 888.802 0.0861028 -1.69181 0
M  V30 9084 O 890.008 -0.0650558 -1.79882 0
M  V30 9085 H 886.383 -0.295023 -0.691712 0
M  V30 9086 H 888.354 -1.90667 -2.2954 0
M  V30 9087 C 887.103 -0.544164 -3.43415 0
M  V30 9088 H 886.426 -1.34515 -3.76491 0
M  V30 9089 H 887.866 -0.411268 -4.22001 0
M  V30 9090 C 886.325 0.744583 -3.28569 0
M  V30 9091 O 886.855 1.80078 -3.59075 0
M  V30 9092 N 885.061 0.710083 -2.81791 0
M  V30 9093 H 884.608 -0.14971 -2.57165 0
M  V30 9094 H 884.566 1.57268 -2.72239 0
M  V30 9095 N 888.338 1.20213 -1.01915 0
M  V30 9096 C 889.584 1.89928 -0.711007 0
M  V30 9097 C 889.917 1.7881 0.75767 0
M  V30 9098 O 889.192 1.17399 1.55073 0
M  V30 9099 C 889.475 3.41225 -1.15053 0
M  V30 9100 C 889.328 3.61264 -2.67971 0
M  V30 9101 C 890.647 4.34108 -0.72377 0
M  V30 9102 H 887.766 0.689702 -0.259768 0
M  V30 9103 H 890.408 1.41557 -1.26734 0
M  V30 9104 H 888.558 3.82552 -0.677199 0
M  V30 9105 H 890.23 3.29173 -3.23176 0
M  V30 9106 H 888.473 3.04647 -3.08824 0
M  V30 9107 H 889.144 4.67331 -2.93779 0
M  V30 9108 H 891.62 4.00442 -1.13073 0
M  V30 9109 H 890.496 5.38581 -1.05931 0
M  V30 9110 H 890.757 4.40512 0.374424 0
M  V30 9111 N 889.816 0.795718 1.36037 0
M  V30 9112 C 891.041 0.38204 2.03851 0
M  V30 9113 C 891.466 -0.995553 1.59594 0
M  V30 9114 O 890.824 -1.64258 0.767401 0
M  V30 9115 C 890.872 0.461248 3.57638 0
M  V30 9116 O 889.976 -0.529448 4.08987 0
M  V30 9117 H 889.317 0.161227 0.644129 0
M  V30 9118 H 891.847 1.07858 1.73861 0
M  V30 9119 H 891.857 0.32712 4.06687 0
M  V30 9120 H 890.532 1.46613 3.89201 0
M  V30 9121 H 889.109 -0.35646 3.71192 0
M  V30 9122 N 891.294 -1.47756 0.548274 0
M  V30 9123 C 892.224 -2.32702 -0.19284 0
M  V30 9124 C 893.205 -1.43237 -0.917457 0
M  V30 9125 O 894.39 -1.72103 -0.89967 0
M  V30 9126 C 891.52 -3.24831 -1.22891 0
M  V30 9127 C 890.474 -4.23466 -0.621312 0
M  V30 9128 C 889.8 -5.04856 -1.76137 0
M  V30 9129 C 891.1 -5.20616 0.419055 0
M  V30 9130 H 892.794 -2.94914 0.516323 0
M  V30 9131 H 890.34 -1.41818 0.24975 0
M  V30 9132 H 892.293 -3.83094 -1.75547 0
M  V30 9133 H 891.017 -2.60656 -1.9679 0
M  V30 9134 H 889.676 -3.66416 -0.116123 0
M  V30 9135 H 889.324 -4.37091 -2.48918 0
M  V30 9136 H 889.024 -5.71629 -1.36065 0
M  V30 9137 H 890.548 -5.65976 -2.29136 0
M  V30 9138 H 891.962 -5.73296 -0.0211034 0
M  V30 9139 H 890.359 -5.95543 0.738163 0
M  V30 9140 H 891.429 -4.66638 1.31822 0
M  V30 9141 N 892.772 -0.284283 -1.55015 0
M  V30 9142 C 894.183 0.211681 -1.85496 0
M  V30 9143 C 894.534 1.54735 -1.2063 0
M  V30 9144 O 893.659 2.10594 -0.497918 0
M  V30 9145 C 894.254 0.390864 -3.36538 0
M  V30 9146 C 892.813 0.831055 -3.67111 0
M  V30 9147 C 891.96 -0.0703581 -2.77211 0
M  V30 9148 H 894.911 -0.505803 -1.50424 0
M  V30 9149 H 894.932 1.22803 -3.60138 0
M  V30 9150 H 894.444 -0.581409 -3.8372 0
M  V30 9151 H 892.545 1.81447 -3.25434 0
M  V30 9152 H 892.658 0.662026 -4.74504 0
M  V30 9153 H 891.022 0.447528 -2.50737 0
M  V30 9154 H 891.805 -1.03868 -3.2721 0
M  V30 9155 N 894.251 1.57596 -0.0117121 0
M  V30 9156 C 895.662 1.79033 0.529521 0
M  V30 9157 C 896.013 0.920299 1.73277 0
M  V30 9158 O 895.138 0.125934 2.16033 0
M  V30 9159 C 895.733 3.24695 0.967405 0
M  V30 9160 C 894.292 3.47188 1.45387 0
M  V30 9161 C 893.439 2.74245 0.410466 0
M  V30 9162 H 896.39 1.56908 -0.237836 0
M  V30 9163 H 896.411 3.33451 1.83278 0
M  V30 9164 H 895.923 3.87992 0.0914605 0
M  V30 9165 H 894.024 2.89121 2.35032 0
M  V30 9166 H 894.137 4.55886 1.47325 0
M  V30 9167 H 892.501 2.39209 0.874721 0
M  V30 9168 H 893.284 3.40248 -0.456713 0
M  V30 9169 N 895.729 -0.261212 1.5542 0
M  V30 9170 C 896.957 -1.00916 1.8062 0
M  V30 9171 C 897.372 -1.79494 0.585444 0
M  V30 9172 O 896.729 -1.76974 -0.445702 0
M  V30 9173 C 896.78 -1.95841 3.03856 0
M  V30 9174 O 896.501 -1.20445 4.21218 0
M  V30 9175 C 898.002 -2.82352 3.41749 0
M  V30 9176 H 895.222 -0.297596 0.601397 0
M  V30 9177 H 897.766 -0.288427 2.02456 0
M  V30 9178 H 895.921 -2.63361 2.84112 0
M  V30 9179 H 896.335 -1.84528 4.90968 0
M  V30 9180 H 897.809 -3.44733 4.31118 0
M  V30 9181 H 898.286 -3.5273 2.61683 0
M  V30 9182 H 898.892 -2.20306 3.63793 0
M  V30 9183 N 897.207 -1.48554 -0.526253 0
M  V30 9184 C 898.117 -1.66044 -1.65731 0
M  V30 9185 C 899.133 -0.542951 -1.65312 0
M  V30 9186 O 900.309 -0.814495 -1.84195 0
M  V30 9187 C 897.374 -1.69959 -3.02184 0
M  V30 9188 C 896.435 -2.93362 -3.13428 0
M  V30 9189 C 895.668 -2.97081 -4.43372 0
M  V30 9190 O 895.891 -2.09103 -5.3069 0
M  V30 9191 O 894.825 -3.8929 -4.59061 0
M  V30 9192 H 898.651 -2.61811 -1.53912 0
M  V30 9193 H 896.236 -1.31999 -0.699759 0
M  V30 9194 H 898.118 -1.75033 -3.83329 0
M  V30 9195 H 896.793 -0.773658 -3.14319 0
M  V30 9196 H 895.7 -2.93818 -2.31564 0
M  V30 9197 H 897.033 -3.85352 -3.06211 0
M  V30 9198 N 898.685 0.775411 -1.37205 0
M  V30 9199 C 899.648 1.8702 -1.325 0
M  V30 9200 C 900.648 1.5915 -0.229793 0
M  V30 9201 O 901.838 1.673 -0.485423 0
M  V30 9202 C 898.97 3.24085 -1.05745 0
M  V30 9203 H 900.163 1.92604 -2.29878 0
M  V30 9204 H 897.716 0.97476 -1.22181 0
M  V30 9205 H 898.451 3.24178 -0.0888371 0
M  V30 9206 H 898.236 3.45705 -1.85016 0
M  V30 9207 H 899.726 4.0416 -1.05094 0
M  V30 9208 N 900.163 1.21714 1.00117 0
M  V30 9209 C 901.411 1.03465 1.73607 0
M  V30 9210 C 901.732 -0.432295 1.90148 0
M  V30 9211 O 901.002 -1.31157 1.45515 0
M  V30 9212 H 899.582 0.379857 0.643209 0
M  V30 9213 H 902.244 1.53088 1.20624 0
M  V30 9214 H 901.34 1.50574 2.73375 0
M  V30 9215 N 901.641 -1.19671 1.02551 0
M  V30 9216 C 902.574 -2.21522 0.547998 0
M  V30 9217 C 903.552 -1.57363 -0.409349 0
M  V30 9218 O 904.736 -1.85638 -0.327248 0
M  V30 9219 C 901.863 -3.38101 -0.201375 0
M  V30 9220 C 900.909 -4.20601 0.706886 0
M  V30 9221 S 901.742 -4.89066 2.18116 0
M  V30 9222 C 902.898 -6.09058 1.4422 0
M  V30 9223 H 903.131 -2.61684 1.41099 0
M  V30 9224 H 900.664 -1.29864 0.835153 0
M  V30 9225 H 902.622 -4.05674 -0.627607 0
M  V30 9226 H 901.283 -2.96381 -1.04005 0
M  V30 9227 H 900.476 -5.03836 0.128554 0
M  V30 9228 H 900.078 -3.58329 1.07129 0
M  V30 9229 H 902.37 -6.73588 0.726975 0
M  V30 9230 H 903.313 -6.71368 2.25102 0
M  V30 9231 H 903.721 -5.56599 0.941176 0
M  V30 9232 N 903.119 -0.802921 -1.35613 0
M  V30 9233 C 904.082 -0.216422 -2.28176 0
M  V30 9234 C 905.082 0.594101 -1.49422 0
M  V30 9235 O 906.272 0.41312 -1.6923 0
M  V30 9236 C 903.404 0.698746 -3.33662 0
M  V30 9237 H 904.597 -1.03276 -2.81557 0
M  V30 9238 H 902.15 -0.573307 -1.45406 0
M  V30 9239 H 902.885 1.53891 -2.85461 0
M  V30 9240 H 902.67 0.119314 -3.91918 0
M  V30 9241 H 904.16 1.10354 -4.02755 0
M  V30 9242 N 904.597 1.47463 -0.556102 0
M  V30 9243 C 906.008 1.86298 -0.122429 0
M  V30 9244 C 906.359 1.46285 1.30749 0
M  V30 9245 O 905.484 0.865405 1.98342 0
M  V30 9246 C 906.079 3.38115 -0.215407 0
M  V30 9247 C 904.638 3.76046 0.163223 0
M  V30 9248 C 903.785 2.71515 -0.563466 0
M  V30 9249 H 906.736 1.38996 -0.765888 0
M  V30 9250 H 906.757 3.76263 0.566271 0
M  V30 9251 H 906.269 3.67207 -1.25622 0
M  V30 9252 H 904.37 3.5257 1.20519 0
M  V30 9253 H 904.483 4.78705 -0.194568 0
M  V30 9254 H 902.847 2.54699 -0.00667879 0
M  V30 9255 H 903.63 3.03449 -1.60542 0
M  V30 9256 N 906.075 0.2925 1.54862 0
M  V30 9257 C 907.038 -0.574423 2.21885 0
M  V30 9258 C 908.038 -1.06791 1.20218 0
M  V30 9259 O 909.228 -0.9653 1.45009 0
M  V30 9260 C 906.36 -1.79438 2.89853 0
M  V30 9261 H 907.553 0.0110319 2.99898 0
M  V30 9262 H 905.106 0.043256 1.5624 0
M  V30 9263 H 905.841 -2.4199 2.15897 0
M  V30 9264 H 905.626 -1.44827 3.64373 0
M  V30 9265 H 907.116 -2.41048 3.41007 0
M  V30 9266 N 907.553 -1.57587 0.0200696 0
M  V30 9267 C 908.799 -1.91708 -0.661503 0
M  V30 9268 C 909.132 -0.895968 -1.72296 0
M  V30 9269 O 908.407 0.082577 -1.94325 0
M  V30 9270 C 908.69 -3.36344 -1.28627 0
M  V30 9271 C 908.543 -4.49186 -0.234982 0
M  V30 9272 C 909.862 -3.80771 -2.20685 0
M  V30 9273 H 906.981 -0.69717 -0.239005 0
M  V30 9274 H 909.623 -1.8985 0.0754764 0
M  V30 9275 H 907.773 -3.38058 -1.91439 0
M  V30 9276 H 909.445 -4.59606 0.395011 0
M  V30 9277 H 907.688 -4.31557 0.440565 0
M  V30 9278 H 908.359 -5.47395 -0.711558 0
M  V30 9279 H 910.835 -3.80735 -1.67868 0
M  V30 9280 H 909.711 -4.82685 -2.61356 0
M  V30 9281 H 909.972 -3.15764 -3.09428 0
M  V30 9282 N 909.032 0.252966 -1.55557 0
M  V30 9283 C 910.278 0.983306 -1.77367 0
M  V30 9284 C 910.611 1.85203 -0.584258 0
M  V30 9285 O 909.886 1.89963 0.417644 0
M  V30 9286 C 910.169 1.84896 -3.09007 0
M  V30 9287 C 910.022 1.00883 -4.38341 0
M  V30 9288 C 911.341 2.83254 -3.36831 0
M  V30 9289 H 908.46 0.356056 -0.645286 0
M  V30 9290 H 911.102 0.254232 -1.88291 0
M  V30 9291 H 909.252 2.47058 -2.99825 0
M  V30 9292 H 910.924 0.40638 -4.59507 0
M  V30 9293 H 909.167 0.31297 -4.3267 0
M  V30 9294 H 909.838 1.64818 -5.2682 0
M  V30 9295 H 912.314 2.31228 -3.45937 0
M  V30 9296 H 911.19 3.40949 -4.30169 0
M  V30 9297 H 911.451 3.59407 -2.57447 0
M  V30 9298 N 910.51 1.48831 0.518367 0
M  V30 9299 C 911.44 1.67119 1.63075 0
M  V30 9300 C 912.421 0.519948 1.61958 0
M  V30 9301 O 913.606 0.753824 1.78972 0
M  V30 9302 C 910.736 1.72158 3.01627 0
M  V30 9303 C 909.69 2.86898 3.17606 0
M  V30 9304 C 909.016 2.77035 4.57335 0
M  V30 9305 C 910.316 4.28057 2.99274 0
M  V30 9306 H 912.01 2.60248 1.48025 0
M  V30 9307 H 909.556 1.2524 0.710694 0
M  V30 9308 H 911.509 1.83539 3.7933 0
M  V30 9309 H 910.233 0.756157 3.17726 0
M  V30 9310 H 908.892 2.75091 2.42323 0
M  V30 9311 H 908.54 1.78438 4.70286 0
M  V30 9312 H 908.24 3.54036 4.6897 0
M  V30 9313 H 909.764 2.904 5.37122 0
M  V30 9314 H 911.178 4.40636 3.6676 0
M  V30 9315 H 909.575 5.06145 3.22393 0
M  V30 9316 H 910.645 4.4371 1.95574 0
M  V30 9317 N 911.988 -0.768124 1.37614 0
M  V30 9318 C 912.938 -1.8718 1.30184 0
M  V30 9319 C 913.922 -1.59787 0.188943 0
M  V30 9320 O 915.114 -1.71855 0.423656 0
M  V30 9321 C 912.243 -3.24698 1.11471 0
M  V30 9322 C 911.329 -3.58031 2.27321 0
M  V30 9323 N 911.72 -3.6252 3.52722 0
M  V30 9324 C 910.018 -3.88216 2.19554 0
M  V30 9325 C 910.719 -3.92704 4.29137 0
M  V30 9326 N 909.695 -4.08789 3.58319 0
M  V30 9327 H 913.497 -1.88907 2.25147 0
M  V30 9328 H 911.011 -0.964753 1.30638 0
M  V30 9329 H 913.008 -4.0366 1.04233 0
M  V30 9330 H 911.668 -3.24232 0.174281 0
M  V30 9331 H 912.679 -3.44636 3.86583 0
M  V30 9332 H 909.356 -3.95551 1.33588 0
M  V30 9333 H 910.746 -4.02922 5.37683 0
M  V30 9334 N 913.466 -1.22244 -0.994698 0
M  V30 9335 C 914.714 -1.04384 -1.73056 0
M  V30 9336 C 915.035 0.422204 -1.90374 0
M  V30 9337 O 914.305 1.30383 -1.46209 0
M  V30 9338 H 912.885 -0.383263 -0.641185 0
M  V30 9339 H 915.547 -1.53725 -1.1981 0
M  V30 9340 H 914.643 -1.52021 -2.72573 0
M  V30 9341 N 914.944 1.19125 -1.03184 0
M  V30 9342 C 916.221 1.84674 -0.644574 0
M  V30 9343 C 916.601 1.92042 0.876534 0
M  V30 9344 O 915.949 1.43965 1.77444 0
M  V30 9345 C 916.159 3.23477 -1.3101 0
M  V30 9346 C 917.507 3.99608 -1.43524 0
M  V30 9347 O 918.531 3.32886 -1.2675 0
M  V30 9348 O 917.39 5.19132 -1.70776 0
M  V30 9349 H 914.484 0.795968 -0.22442 0
M  V30 9350 H 917.03 1.2659 -1.13018 0
M  V30 9351 H 915.802 3.12967 -2.34878 0
M  V30 9352 H 915.425 3.89209 -0.812547 0
M  V30 9353 N 916.422 0.810101 1.35185 0
M  V30 9354 C 917.65 0.404696 2.02903 0
M  V30 9355 C 918.065 -0.985434 1.61042 0
M  V30 9356 O 917.422 -1.63557 0.809658 0
M  V30 9357 C 917.473 0.482493 3.58266 0
M  V30 9358 O 917.194 1.81782 3.98606 0
M  V30 9359 C 918.695 0.070345 4.43244 0
M  V30 9360 H 915.915 0.163972 0.650657 0
M  V30 9361 H 918.459 1.0947 1.72733 0
M  V30 9362 H 916.614 -0.159296 3.87072 0
M  V30 9363 H 917.028 1.78306 4.93262 0
M  V30 9364 H 918.502 0.175888 5.5172 0
M  V30 9365 H 918.979 -0.984724 4.28018 0
M  V30 9366 H 919.585 0.685427 4.1974 0
M  V30 9367 N 917.9 -1.47166 0.563914 0
M  V30 9368 C 918.85 -2.27116 -0.20055 0
M  V30 9369 C 919.834 -1.34756 -0.879177 0
M  V30 9370 O 921.026 -1.59064 -0.776377 0
M  V30 9371 C 918.155 -3.20676 -1.22565 0
M  V30 9372 C 917.241 -4.20517 -0.550092 0
M  V30 9373 N 917.632 -5.04343 0.383662 0
M  V30 9374 C 915.93 -4.38708 -0.803186 0
M  V30 9375 C 916.631 -5.76491 0.776718 0
M  V30 9376 N 915.607 -5.43444 0.130047 0
M  V30 9377 H 919.409 -2.89312 0.517275 0
M  V30 9378 H 916.923 -1.57787 0.384334 0
M  V30 9379 H 918.92 -3.76643 -1.78733 0
M  V30 9380 H 917.58 -2.60038 -1.94449 0
M  V30 9381 H 918.591 -5.1232 0.758192 0
M  V30 9382 H 915.268 -3.89235 -1.51003 0
M  V30 9383 H 916.658 -6.5391 1.54437 0
M  V30 9384 N 919.378 -0.300708 -1.54705 0
M  V30 9385 C 920.624 0.309111 -2.0043 0
M  V30 9386 C 920.957 1.53562 -1.1888 0
M  V30 9387 O 920.232 1.92683 -0.265205 0
M  V30 9388 C 920.515 0.665995 -3.53888 0
M  V30 9389 C 920.368 -0.56963 -4.46178 0
M  V30 9390 C 921.687 1.49262 -4.14016 0
M  V30 9391 H 918.806 0.110878 -0.728612 0
M  V30 9392 H 921.448 -0.412748 -1.85463 0
M  V30 9393 H 919.598 1.281 -3.66773 0
M  V30 9394 H 921.27 -1.20811 -4.45199 0
M  V30 9395 H 919.513 -1.20292 -4.16788 0
M  V30 9396 H 920.184 -0.275785 -5.51311 0
M  V30 9397 H 922.66 0.972979 -4.04564 0
M  V30 9398 H 921.536 1.71111 -5.21548 0
M  V30 9399 H 921.797 2.48174 -3.65872 0
M  V30 9400 N 920.856 1.57574 -0.0284266 0
M  V30 9401 C 921.788 2.07079 0.982391 0
M  V30 9402 C 922.801 0.994078 1.28926 0
M  V30 9403 O 923.99 1.27028 1.25404 0
M  V30 9404 C 921.09 2.47978 2.30998 0
M  V30 9405 C 920.263 3.7872 2.18838 0
M  V30 9406 C 919.322 4.06177 3.34524 0
M  V30 9407 O 918.348 4.76438 3.11441 0
M  V30 9408 N 919.55 3.56297 4.58293 0
M  V30 9409 H 922.315 2.94421 0.560011 0
M  V30 9410 H 919.876 1.61124 0.158347 0
M  V30 9411 H 921.868 2.63439 3.07216 0
M  V30 9412 H 920.438 1.66005 2.64879 0
M  V30 9413 H 919.658 3.73062 1.27351 0
M  V30 9414 H 920.946 4.6438 2.07915 0
M  V30 9415 H 920.344 2.99453 4.79942 0
M  V30 9416 H 918.901 3.77038 5.31682 0
M  V30 9417 N 922.334 -0.244713 1.55689 0
M  V30 9418 C 923.244 -1.32447 1.93636 0
M  V30 9419 C 924.26 -1.52541 0.837086 0
M  V30 9420 O 925.436 -1.66121 1.13867 0
M  V30 9421 C 922.501 -2.65864 2.22525 0
M  V30 9422 C 921.562 -2.54273 3.45896 0
M  V30 9423 C 920.795 -3.81327 3.73397 0
M  V30 9424 O 921.018 -4.83307 3.02936 0
M  V30 9425 O 919.952 -3.79829 4.66919 0
M  V30 9426 H 923.778 -1.03255 2.85608 0
M  V30 9427 H 921.363 -0.445652 1.42598 0
M  V30 9428 H 923.245 -3.447 2.42404 0
M  V30 9429 H 921.92 -2.94784 1.33731 0
M  V30 9430 H 920.827 -1.73715 3.31321 0
M  V30 9431 H 922.16 -2.30297 4.34999 0
M  V30 9432 N 923.813 -1.49104 -0.510467 0
M  V30 9433 C 924.745 -1.61183 -1.6295 0
M  V30 9434 C 925.758 -0.495003 -1.55092 0
M  V30 9435 O 926.947 -0.766671 -1.61197 0
M  V30 9436 C 924.047 -1.54373 -3.01699 0
M  V30 9437 C 923.22 -2.81428 -3.34838 0
M  V30 9438 C 922.279 -2.67802 -4.52956 0
M  V30 9439 O 921.305 -3.41723 -4.55208 0
M  V30 9440 N 922.507 -1.78715 -5.52305 0
M  V30 9441 H 925.272 -2.57693 -1.53018 0
M  V30 9442 H 922.833 -1.46073 -0.698152 0
M  V30 9443 H 924.825 -1.42924 -3.78622 0
M  V30 9444 H 923.395 -0.657597 -3.05605 0
M  V30 9445 H 922.615 -3.07299 -2.46903 0
M  V30 9446 H 923.903 -3.6568 -3.53773 0
M  V30 9447 H 923.301 -1.17897 -5.53278 0
M  V30 9448 H 921.858 -1.73194 -6.28369 0
M  V30 9449 N 925.291 0.760815 -1.38019 0
M  V30 9450 C 926.519 1.55001 -1.37048 0
M  V30 9451 C 926.934 1.88754 0.0415261 0
M  V30 9452 O 926.291 1.52254 1.00624 0
M  V30 9453 C 926.342 2.8536 -2.21928 0
M  V30 9454 O 926.063 2.53049 -3.57628 0
M  V30 9455 C 927.564 3.79536 -2.29057 0
M  V30 9456 H 924.784 0.479844 -0.469032 0
M  V30 9457 H 927.328 0.942148 -1.81504 0
M  V30 9458 H 925.483 3.42542 -1.80953 0
M  V30 9459 H 925.897 3.36604 -4.02241 0
M  V30 9460 H 927.371 4.67977 -2.92749 0
M  V30 9461 H 927.848 4.19453 -1.30213 0
M  V30 9462 H 928.454 3.28281 -2.70392 0
M  V30 9463 N 926.769 1.22769 0.988202 0
M  V30 9464 C 928.185 0.988665 1.2529 0
M  V30 9465 C 928.385 -0.314938 1.99024 0
M  V30 9466 O 927.441 -1.03637 2.30251 0
M  V30 9467 C 928.754 2.19046 2.06009 0
M  V30 9468 C 930.302 2.23452 2.19176 0
M  V30 9469 C 930.777 3.43196 3.03283 0
M  V30 9470 N 932.268 3.43387 3.10869 0
M  V30 9471 C 933.003 4.32693 3.7625 0
M  V30 9472 N 932.499 5.32224 4.43519 0
M  V30 9473 N 934.292 4.20457 3.73058 0
M  V30 9474 H 926.443 2.06575 0.494014 0
M  V30 9475 H 928.706 0.905452 0.28082 0
M  V30 9476 H 928.412 3.13607 1.59197 0
M  V30 9477 H 928.286 2.19492 3.06763 0
M  V30 9478 H 930.673 1.29436 2.65199 0
M  V30 9479 H 930.754 2.27042 1.17836 0
M  V30 9480 H 930.398 4.37515 2.57959 0
M  V30 9481 H 930.328 3.36847 4.04774 0
M  V30 9482 H 932.819 2.71368 2.62998 0
M  V30 9483 H 933.132 5.9664 4.91163 0
M  V30 9484 H 931.477 5.36133 4.42252 0
M  V30 9485 H 934.668 3.41949 3.19669 0
M  V30 9486 H 934.841 4.90261 4.23731 0
M  V30 9487 N 928.247 -1.18576 1.03814 0
M  V30 9488 C 929.496 -1.87822 0.735235 0
M  V30 9489 C 929.809 -1.81069 -0.739819 0
M  V30 9490 O 931.015 -2.45654 -1.15614 0
M  V30 9491 C 929.471 -3.36941 1.26486 0
M  V30 9492 C 929.079 -3.5223 2.76836 0
M  V30 9493 C 930.823 -4.11604 1.03836 0
M  V30 9494 C 928.73 -4.95294 3.23169 0
M  V30 9495 H 927.66 -0.703487 0.271333 0
M  V30 9496 H 930.311 -1.34 1.25365 0
M  V30 9497 H 928.693 -3.90217 0.674318 0
M  V30 9498 H 929.867 -3.09239 3.41625 0
M  V30 9499 H 928.182 -2.90969 2.97869 0
M  V30 9500 H 930.779 -5.17123 1.3597 0
M  V30 9501 H 931.122 -4.16293 -0.0244945 0
M  V30 9502 H 931.655 -3.64494 1.59338 0
M  V30 9503 H 928.394 -4.95772 4.28824 0
M  V30 9504 H 927.914 -5.3901 2.63113 0
M  V30 9505 H 929.593 -5.63996 3.17045 0
M  V30 9506 N 929.725 -0.817259 -1.34754 0
M  V30 9507 C 930.971 -0.403244 -1.98751 0
M  V30 9508 C 931.304 1.02963 -1.64658 0
M  V30 9509 O 930.579 1.71617 -0.915314 0
M  V30 9510 C 930.862 -0.599188 -3.5508 0
M  V30 9511 C 930.715 -2.07777 -3.98934 0
M  V30 9512 C 932.034 -0.0315656 -4.40089 0
M  V30 9513 H 929.153 -0.147988 -0.721989 0
M  V30 9514 H 931.795 -1.02877 -1.59738 0
M  V30 9515 H 929.945 -0.0667116 -3.88443 0
M  V30 9516 H 931.617 -2.67345 -3.75931 0
M  V30 9517 H 929.86 -2.57031 -3.49453 0
M  V30 9518 H 930.531 -2.16571 -5.07741 0
M  V30 9519 H 933.007 -0.48644 -4.13247 0
M  V30 9520 H 931.883 -0.198507 -5.48541 0
M  V30 9521 H 932.144 1.06302 -4.2913 0
M  V30 9522 N 931.203 1.46865 -0.571711 0
M  V30 9523 C 932.133 2.3298 0.155795 0
M  V30 9524 C 933.114 1.44678 0.894553 0
M  V30 9525 O 934.299 1.73513 0.872176 0
M  V30 9526 C 931.429 3.26745 1.17708 0
M  V30 9527 C 930.383 4.24401 0.553863 0
M  V30 9528 C 929.709 5.07595 1.68083 0
M  V30 9529 C 931.009 5.19884 -0.501827 0
M  V30 9530 H 932.703 2.94056 -0.563176 0
M  V30 9531 H 930.249 1.41402 -0.27228 0
M  V30 9532 H 932.202 3.85838 1.6943 0
M  V30 9533 H 930.926 2.63753 1.92618 0
M  V30 9534 H 929.585 3.66554 0.057815 0
M  V30 9535 H 929.233 4.40996 2.41933 0
M  V30 9536 H 928.933 5.73722 1.26953 0
M  V30 9537 H 930.457 5.6955 2.20103 0
M  V30 9538 H 931.871 5.73257 -0.0701057 0
M  V30 9539 H 930.268 5.94293 -0.832815 0
M  V30 9540 H 931.338 4.64482 -1.39229 0
M  V30 9541 N 932.681 0.308908 1.54543 0
M  V30 9542 C 933.958 -0.351558 1.92415 0
M  V30 9543 C 934.338 -1.71061 1.23699 0
M  V30 9544 O 933.686 -2.25394 0.3755 0
M  V30 9545 C 933.896 -0.458357 3.45977 0
M  V30 9546 C 935.244 -0.725524 4.18355 0
M  V30 9547 O 936.268 -0.541859 3.52054 0
M  V30 9548 O 935.127 -1.07884 5.35745 0
M  V30 9549 H 932.221 -0.197957 0.802958 0
M  V30 9550 H 934.767 0.357548 1.65891 0
M  V30 9551 H 933.539 0.496723 3.88134 0
M  V30 9552 H 933.162 -1.21562 3.78561 0
M  V30 9553 N 934.159 -1.57557 0.0367827 0
M  V30 9554 C 935.399 -1.93981 -0.644252 0
M  V30 9555 C 935.763 -0.913982 -1.6885 0
M  V30 9556 O 936.964 -1.16468 -2.42257 0
M  V30 9557 C 935.235 -3.35281 -1.23779 0
M  V30 9558 S 936.794 -3.93643 -1.93883 0
M  V30 9559 H 933.612 -0.678683 -0.21192 0
M  V30 9560 H 936.214 -1.95232 0.102281 0
M  V30 9561 H 934.918 -4.07752 -0.465451 0
M  V30 9562 H 934.449 -3.37492 -2.02146 0
M  V30 9563 H 936.464 -3.777 -3.21803 0
M  V30 9564 N 935.637 0.236453 -1.55816 0
M  V30 9565 C 936.885 0.96111 -1.77784 0
M  V30 9566 C 937.206 1.85454 -0.602648 0
M  V30 9567 O 936.476 1.92157 0.381137 0
M  V30 9568 H 935.056 0.35787 -0.655697 0
M  V30 9569 H 937.718 0.251888 -1.93265 0
M  V30 9570 H 936.814 1.5767 -2.69345 0
M  V30 9571 N 937.115 1.49373 0.502552 0
M  V30 9572 C 938.025 1.68659 1.63068 0
M  V30 9573 C 939.041 0.569182 1.64427 0
M  V30 9574 O 940.217 0.843695 1.82876 0
M  V30 9575 C 937.282 1.74745 2.99441 0
M  V30 9576 C 936.343 2.98311 3.08721 0
M  V30 9577 C 935.576 3.04097 4.38589 0
M  V30 9578 O 935.799 2.17519 5.27297 0
M  V30 9579 O 934.733 3.96544 4.52809 0
M  V30 9580 H 938.559 2.64226 1.49727 0
M  V30 9581 H 936.144 1.33096 0.67867 0
M  V30 9582 H 938.026 1.8111 3.80496 0
M  V30 9583 H 936.701 0.823565 3.13048 0
M  V30 9584 H 935.608 2.97465 2.2686 0
M  V30 9585 H 936.941 3.90174 3.00041 0
M  V30 9586 N 938.594 -0.753485 1.38421 0
M  V30 9587 C 939.871 -1.50318 1.25155 0
M  V30 9588 C 940.251 -2.10588 -0.147003 0
M  V30 9589 O 939.599 -1.97071 -1.15651 0
M  V30 9590 C 939.809 -2.56946 2.36177 0
M  V30 9591 C 941.157 -3.23846 2.74607 0
M  V30 9592 O 942.181 -2.67251 2.3549 0
M  V30 9593 O 941.04 -4.2621 3.42064 0
M  V30 9594 H 938.134 -0.666624 0.48943 0
M  V30 9595 H 940.68 -0.788887 1.50249 0
M  V30 9596 H 939.452 -2.1066 3.29754 0
M  V30 9597 H 939.075 -3.35956 2.12648 0
M  V30 9598 N 940.072 -1.23292 -0.981677 0
M  V30 9599 C 941.349 -0.972514 -1.6971 0
M  V30 9600 C 941.729 0.509244 -2.04866 0
M  V30 9601 O 941.077 1.48013 -1.74082 0
M  V30 9602 C 941.287 -1.88144 -2.93943 0
M  V30 9603 C 942.635 -2.14416 -3.66485 0
M  V30 9604 O 943.659 -1.85684 -3.03974 0
M  V30 9605 O 942.518 -2.63139 -4.78978 0
M  V30 9606 H 939.612 -0.366673 -0.741269 0
M  V30 9607 H 942.158 -1.34328 -1.03701 0
M  V30 9608 H 940.93 -2.8832 -2.64551 0
M  V30 9609 H 940.553 -1.51296 -3.67689 0
M  V30 9610 N 941.55 1.18024 -1.04442 0
M  V30 9611 C 942.796 1.88377 -0.751133 0
M  V30 9612 C 943.129 1.80377 0.719571 0
M  V30 9613 O 942.404 1.20662 1.52548 0
M  V30 9614 C 942.687 3.38708 -1.22265 0
M  V30 9615 C 942.54 3.55499 -2.75574 0
M  V30 9616 C 943.859 4.32475 -0.815688 0
M  V30 9617 H 940.978 0.684037 -0.27434 0
M  V30 9618 H 943.62 1.38837 -1.29709 0
M  V30 9619 H 941.77 3.8103 -0.758192 0
M  V30 9620 H 943.442 3.22244 -3.30086 0
M  V30 9621 H 941.685 2.98028 -3.15217 0
M  V30 9622 H 942.356 4.60994 -3.03625 0
M  V30 9623 H 944.832 3.97953 -1.21542 0
M  V30 9624 H 943.708 5.36213 -1.17331 0
M  V30 9625 H 943.969 4.41207 0.280901 0
M  V30 9626 N 943.028 0.824394 1.34319 0
M  V30 9627 C 944.268 0.419044 2.00058 0
M  V30 9628 C 944.632 -0.999504 1.63933 0
M  V30 9629 O 945.833 -1.50781 2.22527 0
M  V30 9630 C 944.104 0.616897 3.52036 0
M  V30 9631 S 945.663 0.304614 4.37741 0
M  V30 9632 H 942.481 0.158265 0.693162 0
M  V30 9633 H 945.083 1.07053 1.63585 0
M  V30 9634 H 943.787 1.64896 3.75816 0
M  V30 9635 H 943.318 -0.0492693 3.93369 0
M  V30 9636 H 945.333 -0.88114 4.88314 0
M  V30 9637 N 944.506 -1.46559 0.579492 0
M  V30 9638 C 945.752 -2.02699 0.0639363 0
M  V30 9639 C 946.085 -1.4504 -1.29139 0
M  V30 9640 O 945.36 -0.614284 -1.84545 0
M  V30 9641 C 945.643 -3.601 -0.00528618 0
M  V30 9642 C 945.496 -4.28149 1.37871 0
M  V30 9643 C 946.815 -4.34375 -0.707537 0
M  V30 9644 H 943.934 -0.736586 0.0247085 0
M  V30 9645 H 946.576 -1.74739 0.746071 0
M  V30 9646 H 944.726 -3.84052 -0.586206 0
M  V30 9647 H 946.398 -4.1547 2.00455 0
M  V30 9648 H 944.641 -3.87636 1.94732 0
M  V30 9649 H 945.312 -5.36888 1.28278 0
M  V30 9650 H 947.788 -4.15549 -0.214064 0
M  V30 9651 H 946.664 -5.44091 -0.724992 0
M  V30 9652 H 946.925 -4.052 -1.7682 0
M  V30 9653 N 945.984 -0.3171 -1.54377 0
M  V30 9654 C 947.395 0.172287 -1.85903 0
M  V30 9655 C 947.746 1.52141 -1.23885 0
M  V30 9656 O 946.871 2.0949 -0.542476 0
M  V30 9657 C 947.466 0.319392 -3.37291 0
M  V30 9658 C 946.025 0.752998 -3.68791 0
M  V30 9659 C 945.172 -0.129143 -2.76999 0
M  V30 9660 H 948.123 -0.537597 -1.49317 0
M  V30 9661 H 948.144 1.15137 -3.62662 0
M  V30 9662 H 947.656 -0.662671 -3.82401 0
M  V30 9663 H 945.757 1.74504 -3.2921 0
M  V30 9664 H 945.87 0.561228 -4.75801 0
M  V30 9665 H 944.234 0.394242 -2.5163 0
M  V30 9666 H 945.017 -1.10785 -3.24933 0
M  V30 9667 N 947.462 1.57535 -0.0451378 0
M  V30 9668 C 948.394 2.08109 0.960372 0
M  V30 9669 C 949.407 1.0077 1.27864 0
M  V30 9670 O 950.596 1.28351 1.24049 0
M  V30 9671 C 947.696 2.50414 2.28355 0
M  V30 9672 C 946.869 3.8102 2.14808 0
M  V30 9673 C 945.928 4.09702 3.30198 0
M  V30 9674 O 944.954 4.79715 3.0637 0
M  V30 9675 N 946.156 3.61138 4.54489 0
M  V30 9676 H 948.921 2.94999 0.528752 0
M  V30 9677 H 946.482 1.61283 0.141248 0
M  V30 9678 H 948.474 2.66683 3.04405 0
M  V30 9679 H 947.044 1.68805 2.63104 0
M  V30 9680 H 946.264 3.74392 1.23387 0
M  V30 9681 H 947.552 4.66559 2.02978 0
M  V30 9682 H 946.95 3.04527 4.76739 0
M  V30 9683 H 945.507 3.82656 5.27653 0
M  V30 9684 N 948.94 -0.228186 1.55939 0
M  V30 9685 C 949.87 -1.28607 1.94891 0
M  V30 9686 C 950.851 -1.49236 0.816245 0
M  V30 9687 O 952.036 -1.61531 1.07803 0
M  V30 9688 C 949.166 -2.63719 2.25986 0
M  V30 9689 C 948.12 -2.57757 3.4168 0
M  V30 9690 C 947.446 -3.96837 3.58364 0
M  V30 9691 C 948.746 -2.13116 4.76843 0
M  V30 9692 H 950.44 -0.962531 2.83506 0
M  V30 9693 H 947.986 -0.461577 1.36402 0
M  V30 9694 H 949.939 -3.37878 2.51826 0
M  V30 9695 H 948.663 -2.97747 1.34217 0
M  V30 9696 H 947.322 -1.86055 3.15878 0
M  V30 9697 H 946.97 -4.28162 2.63982 0
M  V30 9698 H 946.67 -3.93731 4.36176 0
M  V30 9699 H 948.194 -4.72668 3.86545 0
M  V30 9700 H 949.608 -2.77015 5.01932 0
M  V30 9701 H 948.005 -2.21083 5.57891 0
M  V30 9702 H 949.075 -1.08326 4.72645 0
M  V30 9703 N 950.418 -1.49637 -0.494624 0
M  V30 9704 C 951.35 -1.62902 -1.61231 0
M  V30 9705 C 952.363 -0.511425 -1.54558 0
M  V30 9706 O 953.552 -0.783724 -1.60375 0
M  V30 9707 C 950.652 -1.57564 -3.00045 0
M  V30 9708 C 949.825 -2.84964 -3.31835 0
M  V30 9709 C 948.884 -2.72591 -4.5009 0
M  V30 9710 O 947.91 -3.46532 -4.51558 0
M  V30 9711 N 949.112 -1.84563 -5.50379 0
M  V30 9712 H 951.877 -2.59301 -1.50276 0
M  V30 9713 H 949.438 -1.46806 -0.68262 0
M  V30 9714 H 951.43 -1.46932 -3.77085 0
M  V30 9715 H 950 -0.689974 -3.0489 0
M  V30 9716 H 949.22 -3.099 -2.4363 0
M  V30 9717 H 950.508 -3.69412 -3.49875 0
M  V30 9718 H 949.906 -1.23758 -5.51997 0
M  V30 9719 H 948.463 -1.79849 -6.26496 0
M  V30 9720 N 951.896 0.746133 -1.38819 0
M  V30 9721 C 952.826 1.87344 -1.39372 0
M  V30 9722 C 953.807 1.68123 -0.258583 0
M  V30 9723 O 954.992 1.88606 -0.462769 0
M  V30 9724 C 952.122 3.24962 -1.22543 0
M  V30 9725 C 951.076 3.58799 -2.33339 0
M  V30 9726 C 950.402 4.95235 -2.01609 0
M  V30 9727 C 951.702 3.62911 -3.75624 0
M  V30 9728 H 953.396 1.87138 -2.33709 0
M  V30 9729 H 950.942 0.898937 -1.12495 0
M  V30 9730 H 952.895 4.03488 -1.21554 0
M  V30 9731 H 951.619 3.25667 -0.246707 0
M  V30 9732 H 950.278 2.82596 -2.33527 0
M  V30 9733 H 949.926 4.92508 -1.02202 0
M  V30 9734 H 949.626 5.18843 -2.75819 0
M  V30 9735 H 951.15 5.76131 -2.02251 0
M  V30 9736 H 952.564 4.31535 -3.77426 0
M  V30 9737 H 950.961 3.98031 -4.491 0
M  V30 9738 H 952.031 2.62967 -4.07402 0
M  V30 9739 N 953.375 1.23811 0.975125 0
M  V30 9740 C 954.603 1.10019 1.75224 0
M  V30 9741 C 955.018 -0.34791 1.85567 0
M  V30 9742 O 954.375 -1.24043 1.33864 0
M  V30 9743 C 954.426 1.72572 3.1765 0
M  V30 9744 O 954.147 3.11719 3.07836 0
M  V30 9745 C 955.648 1.64292 4.11732 0
M  V30 9746 H 952.868 0.38476 0.549728 0
M  V30 9747 H 955.412 1.63768 1.22476 0
M  V30 9748 H 953.567 1.22843 3.67408 0
M  V30 9749 H 953.981 3.42152 3.97533 0
M  V30 9750 H 955.455 2.12754 5.09352 0
M  V30 9751 H 955.932 0.602722 4.35045 0
M  V30 9752 H 956.538 2.13411 3.6788 0
M  V30 9753 N 954.853 -1.17469 1.05066 0
M  V30 9754 C 955.816 -2.19648 0.654793 0
M  V30 9755 C 956.816 -1.58107 -0.293063 0
M  V30 9756 O 958.006 -1.74029 -0.077106 0
M  V30 9757 C 955.138 -3.40878 -0.0384437 0
M  V30 9758 H 956.331 -2.56184 1.55915 0
M  V30 9759 H 953.884 -1.31528 0.844396 0
M  V30 9760 H 954.619 -3.09885 -0.956133 0
M  V30 9761 H 954.404 -3.86792 0.642961 0
M  V30 9762 H 955.894 -4.1651 -0.301568 0
M  V30 9763 N 956.331 -0.831506 -1.3388 0
M  V30 9764 C 957.556 -0.435954 -2.02766 0
M  V30 9765 C 957.981 0.952889 -1.62178 0
M  V30 9766 O 957.339 1.62166 -0.810681 0
M  V30 9767 C 957.387 -0.555907 -3.56289 0
M  V30 9768 O 956.491 0.420826 -4.10247 0
M  V30 9769 H 955.832 -0.178248 -0.639628 0
M  V30 9770 H 958.362 -1.1243 -1.70941 0
M  V30 9771 H 958.372 -0.434831 -4.05676 0
M  V30 9772 H 957.047 -1.56881 -3.85177 0
M  V30 9773 H 955.624 0.257919 -3.72007 0
M  V30 9774 N 957.809 1.4625 -0.587256 0
M  V30 9775 C 959.055 2.02662 -0.0746851 0
M  V30 9776 C 959.388 1.45723 1.28368 0
M  V30 9777 O 958.663 0.624062 1.84216 0
M  V30 9778 C 958.946 3.60097 -0.0138109 0
M  V30 9779 C 958.799 4.27412 -1.4014 0
M  V30 9780 C 960.118 4.34744 0.684491 0
M  V30 9781 H 957.237 0.736444 -0.0286144 0
M  V30 9782 H 959.879 1.74341 -0.755328 0
M  V30 9783 H 958.029 3.84357 0.56583 0
M  V30 9784 H 959.701 4.14401 -2.02656 0
M  V30 9785 H 957.944 3.86598 -1.96785 0
M  V30 9786 H 958.615 5.362 -1.31124 0
M  V30 9787 H 961.091 4.15657 0.192023 0
M  V30 9788 H 959.967 5.44468 0.696127 0
M  V30 9789 H 960.228 4.06132 1.74669 0
M  V30 9790 N 959.287 0.325282 1.54207 0
M  V30 9791 C 960.515 -0.27869 2.05014 0
M  V30 9792 C 960.93 -1.45649 1.20133 0
M  V30 9793 O 960.287 -1.81014 0.232398 0
M  V30 9794 C 960.338 -0.711486 3.54429 0
M  V30 9795 O 960.059 0.419458 4.36087 0
M  V30 9796 C 961.56 -1.37809 4.21336 0
M  V30 9797 H 958.78 -0.0570388 0.668571 0
M  V30 9798 H 961.324 0.47197 1.98979 0
M  V30 9799 H 959.479 -1.41212 3.60746 0
M  V30 9800 H 959.893 0.0781037 5.24442 0
M  V30 9801 H 961.367 -1.63184 5.27328 0
M  V30 9802 H 961.844 -2.32593 3.72555 0
M  V30 9803 H 962.45 -0.719987 4.19161 0
M  V30 9804 N 960.765 -1.57509 0.0534917 0
M  V30 9805 C 962.013 -1.92402 -0.618548 0
M  V30 9806 C 962.334 -0.93273 -1.71246 0
M  V30 9807 O 961.604 0.0220495 -1.95888 0
M  V30 9808 H 960.184 -0.710233 -0.23147 0
M  V30 9809 H 962.846 -1.94606 0.10704 0
M  V30 9810 H 961.942 -2.93704 -1.05566 0
M  V30 9811 N 962.243 0.219913 -1.56058 0
M  V30 9812 C 963.468 0.965073 -1.83579 0
M  V30 9813 C 963.893 1.77092 -0.634024 0
M  V30 9814 O 963.251 1.76434 0.417205 0
M  V30 9815 C 963.299 1.85705 -3.09105 0
M  V30 9816 O 962.403 2.95261 -2.87914 0
M  V30 9817 H 961.744 0.273173 -0.605204 0
M  V30 9818 H 964.274 0.23273 -2.03272 0
M  V30 9819 H 964.284 2.26655 -3.39252 0
M  V30 9820 H 962.959 1.26476 -3.96203 0
M  V30 9821 H 961.536 2.58246 -2.69005 0
M  V30 9822 N 963.721 1.49897 0.486681 0
M  V30 9823 C 965.132 1.53142 1.06792 0
M  V30 9824 C 965.483 0.325856 1.93475 0
M  V30 9825 O 964.608 -0.562893 2.08951 0
M  V30 9826 C 965.203 2.77514 1.94348 0
M  V30 9827 C 963.762 2.83491 2.47609 0
M  V30 9828 C 962.909 2.47239 1.2557 0
M  V30 9829 H 965.86 1.56387 0.269962 0
M  V30 9830 H 965.881 2.58487 2.79221 0
M  V30 9831 H 965.393 3.65239 1.31232 0
M  V30 9832 H 963.494 2.0008 3.14323 0
M  V30 9833 H 963.607 3.86011 2.83782 0
M  V30 9834 H 961.971 1.99332 1.58552 0
M  V30 9835 H 962.754 3.37255 0.641404 0
M  V30 9836 N 965.199 -0.738761 1.39212 0
M  V30 9837 C 966.129 -1.86602 1.40364 0
M  V30 9838 C 967.11 -1.67984 0.267495 0
M  V30 9839 O 968.295 -1.88358 0.472765 0
M  V30 9840 C 965.425 -3.24308 1.24265 0
M  V30 9841 C 964.379 -3.57557 2.35239 0
M  V30 9842 C 963.705 -4.94159 2.04233 0
M  V30 9843 C 965.005 -3.60914 3.77543 0
M  V30 9844 H 966.699 -1.85896 2.34698 0
M  V30 9845 H 964.245 -0.892959 1.1297 0
M  V30 9846 H 966.198 -4.02838 1.23692 0
M  V30 9847 H 964.922 -3.25531 0.263974 0
M  V30 9848 H 963.581 -2.81354 2.35022 0
M  V30 9849 H 963.229 -4.91959 1.04813 0
M  V30 9850 H 962.929 -5.17373 2.78567 0
M  V30 9851 H 964.453 -5.7505 2.05303 0
M  V30 9852 H 965.867 -4.29528 3.79709 0
M  V30 9853 H 964.264 -3.95644 4.51205 0
M  V30 9854 H 965.334 -2.60803 4.08791 0
M  V30 9855 N 966.677 -1.24326 -0.968545 0
M  V30 9856 C 967.607 -1.05951 -2.08079 0
M  V30 9857 C 968.588 0.0272666 -1.70078 0
M  V30 9858 O 969.773 -0.139644 -1.93697 0
M  V30 9859 C 966.903 -0.662623 -3.4092 0
M  V30 9860 C 965.857 -1.69807 -3.92873 0
M  V30 9861 C 965.183 -1.15628 -5.22048 0
M  V30 9862 C 966.483 -3.09383 -4.20808 0
M  V30 9863 H 968.177 -1.98984 -2.23709 0
M  V30 9864 H 965.723 -0.958112 -1.075 0
M  V30 9865 H 967.676 -0.521071 -4.18166 0
M  V30 9866 H 966.4 0.303399 -3.25188 0
M  V30 9867 H 965.059 -1.82783 -3.17783 0
M  V30 9868 H 964.707 -0.180888 -5.02675 0
M  V30 9869 H 964.407 -1.84822 -5.57776 0
M  V30 9870 H 965.931 -1.02683 -6.01904 0
M  V30 9871 H 967.345 -2.99642 -4.88761 0
M  V30 9872 H 965.742 -3.75923 -4.67763 0
M  V30 9873 H 966.812 -3.57486 -3.27616 0
M  V30 9874 N 968.156 1.1691 -1.05688 0
M  V30 9875 C 969.402 1.8757 -0.771071 0
M  V30 9876 C 969.735 1.8113 0.700399 0
M  V30 9877 O 969.01 1.22273 1.5126 0
M  V30 9878 C 969.293 3.37392 -1.25851 0
M  V30 9879 C 969.146 3.52556 -2.79329 0
M  V30 9880 C 970.465 4.31585 -0.861512 0
M  V30 9881 H 967.584 0.681089 -0.281579 0
M  V30 9882 H 970.226 1.37453 -1.31174 0
M  V30 9883 H 968.376 3.80204 -0.798563 0
M  V30 9884 H 970.048 3.18725 -3.33485 0
M  V30 9885 H 968.291 2.94668 -3.1836 0
M  V30 9886 H 968.962 4.57748 -3.08498 0
M  V30 9887 H 971.438 3.96642 -1.25756 0
M  V30 9888 H 970.314 5.34939 -1.23012 0
M  V30 9889 H 970.575 4.4148 0.234089 0
M  V30 9890 N 969.634 0.838594 1.33437 0
M  V30 9891 C 970.882 0.433312 1.974 0
M  V30 9892 C 971.203 -1.01078 1.66758 0
M  V30 9893 O 970.473 -1.70406 0.966373 0
M  V30 9894 H 969.053 0.15724 0.730263 0
M  V30 9895 H 971.715 1.07149 1.62804 0
M  V30 9896 H 970.811 0.565144 3.06941 0
M  V30 9897 N 971.112 -1.45937 0.595003 0
M  V30 9898 C 972.075 -2.2888 -0.121102 0
M  V30 9899 C 973.075 -1.39075 -0.807149 0
M  V30 9900 O 974.265 -1.61326 -0.657228 0
M  V30 9901 C 971.397 -3.19778 -1.1813 0
M  V30 9902 H 972.59 -2.93673 0.607968 0
M  V30 9903 H 970.143 -1.5225 0.353495 0
M  V30 9904 H 970.878 -2.59759 -1.94154 0
M  V30 9905 H 970.663 -3.85914 -0.693724 0
M  V30 9906 H 972.153 -3.82176 -1.68319 0
M  V30 9907 N 972.59 -0.333456 -1.54032 0
M  V30 9908 C 973.867 0.320902 -1.9295 0
M  V30 9909 C 974.247 1.69071 -1.26405 0
M  V30 9910 O 973.595 2.24768 -0.411311 0
M  V30 9911 C 973.805 0.403257 -3.46662 0
M  V30 9912 C 975.153 0.658875 -4.19457 0
M  V30 9913 O 976.177 0.485781 -3.52872 0
M  V30 9914 O 975.036 0.993475 -5.37394 0
M  V30 9915 H 972.13 0.185158 -0.806006 0
M  V30 9916 H 974.676 -0.383895 -1.65301 0
M  V30 9917 H 973.448 -0.558409 -3.87295 0
M  V30 9918 H 973.071 1.15524 -3.80447 0
M  V30 9919 N 974.068 1.57479 -0.061844 0
M  V30 9920 C 975.016 2.13346 0.926629 0
M  V30 9921 C 976.01 1.06787 1.31502 0
M  V30 9922 O 977.216 1.25181 1.29343 0
M  V30 9923 H 973.591 0.682046 0.316729 0
M  V30 9924 H 975.562 2.95279 0.430424 0
M  V30 9925 C 974.311 2.70198 2.18834 0
M  V30 9926 H 973.634 3.51859 1.89829 0
M  V30 9927 H 975.074 3.12897 2.86132 0
M  V30 9928 C 973.533 1.64481 2.9402 0
M  V30 9929 O 974.063 1.0639 3.87355 0
M  V30 9930 N 972.269 1.35749 2.56944 0
M  V30 9931 H 971.816 1.83177 1.81119 0
M  V30 9932 H 971.774 0.652469 3.07555 0
M  V30 9933 N 975.546 -0.211634 1.56173 0
M  V30 9934 C 976.792 -0.935935 1.79911 0
M  V30 9935 C 977.125 -1.83589 0.633155 0
M  V30 9936 O 976.4 -1.91004 -0.367132 0
M  V30 9937 C 976.683 -1.76638 3.13801 0
M  V30 9938 C 976.536 -0.892259 4.40861 0
M  V30 9939 C 977.855 -2.74224 3.44223 0
M  V30 9940 H 974.974 -0.338822 0.654499 0
M  V30 9941 H 977.616 -0.20422 1.88899 0
M  V30 9942 H 975.766 -2.39021 3.0627 0
M  V30 9943 H 977.438 -0.284407 4.60422 0
M  V30 9944 H 975.681 -0.198145 4.33347 0
M  V30 9945 H 976.352 -1.50793 5.31004 0
M  V30 9946 H 978.828 -2.21975 3.51946 0
M  V30 9947 H 977.704 -3.29424 4.39057 0
M  V30 9948 H 977.965 -3.52455 2.66885 0
M  V30 9949 N 977.024 -1.50153 -0.478725 0
M  V30 9950 C 977.954 -1.71384 -1.58587 0
M  V30 9951 C 978.935 -0.562705 -1.60523 0
M  V30 9952 O 980.12 -0.80101 -1.76911 0
M  V30 9953 C 977.25 -1.80094 -2.96957 0
M  V30 9954 C 976.204 -2.95218 -3.09888 0
M  V30 9955 C 975.53 -2.89063 -4.49829 0
M  V30 9956 C 976.83 -4.35841 -2.8782 0
M  V30 9957 H 978.524 -2.64081 -1.41073 0
M  V30 9958 H 976.07 -1.27081 -0.677239 0
M  V30 9959 H 978.023 -1.93531 -3.74331 0
M  V30 9960 H 976.747 -0.840131 -3.1561 0
M  V30 9961 H 975.406 -2.81419 -2.34944 0
M  V30 9962 H 975.054 -1.90844 -4.6539 0
M  V30 9963 H 974.754 -3.66345 -4.59418 0
M  V30 9964 H 976.278 -3.04539 -5.29234 0
M  V30 9965 H 977.692 -4.50205 -3.54948 0
M  V30 9966 H 976.089 -5.14515 -3.0886 0
M  V30 9967 H 977.159 -4.48739 -1.83742 0
M  V30 9968 N 978.502 0.731368 -1.39602 0
M  V30 9969 C 979.412 1.87579 -1.40894 0
M  V30 9970 C 980.428 1.71336 -0.303319 0
M  V30 9971 O 981.604 1.93875 -0.545377 0
M  V30 9972 C 978.669 3.23211 -1.25442 0
M  V30 9973 C 977.73 3.51822 -2.46008 0
M  V30 9974 C 976.963 4.80982 -2.31284 0
M  V30 9975 O 977.186 5.54958 -1.31824 0
M  V30 9976 O 976.12 5.09574 -3.20341 0
M  V30 9977 H 979.946 1.89444 -2.3737 0
M  V30 9978 H 977.531 0.879675 -1.20756 0
M  V30 9979 H 979.413 4.04257 -1.18972 0
M  V30 9980 H 978.088 3.22108 -0.320637 0
M  V30 9981 H 976.995 2.70847 -2.58055 0
M  V30 9982 H 978.328 3.57707 -3.38093 0
M  V30 9983 N 979.98 1.24838 0.961938 0
M  V30 9984 C 980.91 1.07053 2.07514 0
M  V30 9985 C 981.891 -0.0182465 1.7009 0
M  V30 9986 O 983.076 0.149915 1.9362 0
M  V30 9987 C 980.206 0.680693 3.40564 0
M  V30 9988 C 979.16 1.71889 3.91967 0
M  V30 9989 C 978.486 1.18395 5.21428 0
M  V30 9990 C 979.786 3.1161 4.19161 0
M  V30 9991 H 981.48 2.00167 2.22651 0
M  V30 9992 H 979.026 0.963799 1.0699 0
M  V30 9993 H 980.979 0.54324 4.17884 0
M  V30 9994 H 979.703 -0.28615 3.25344 0
M  V30 9995 H 978.362 1.84465 3.16809 0
M  V30 9996 H 978.01 0.207543 5.02572 0
M  V30 9997 H 977.71 1.87778 5.56788 0
M  V30 9998 H 979.234 1.05873 6.01351 0
M  V30 9999 H 980.648 3.0223 4.87165 0
M  V30 10000 H 979.045 3.78398 4.65763 0
M  V30 10001 H 980.115 3.59218 3.25715 0
M  V30 10002 N 981.458 -1.16348 1.06306 0
M  V30 10003 C 982.39 -2.20316 0.631929 0
M  V30 10004 C 983.403 -1.59819 -0.310133 0
M  V30 10005 O 984.592 -1.78213 -0.101103 0
M  V30 10006 C 981.692 -3.3877 -0.0937645 0
M  V30 10007 C 980.865 -4.28826 0.861816 0
M  V30 10008 C 979.924 -5.25908 0.175346 0
M  V30 10009 O 978.95 -5.63363 0.813039 0
M  V30 10010 N 980.152 -5.70307 -1.08305 0
M  V30 10011 H 982.917 -2.57925 1.52626 0
M  V30 10012 H 980.478 -1.31358 0.946392 0
M  V30 10013 H 982.47 -4.00759 -0.563412 0
M  V30 10014 H 981.04 -2.99666 -0.889904 0
M  V30 10015 H 980.26 -3.64098 1.51083 0
M  V30 10016 H 981.548 -4.85875 1.51007 0
M  V30 10017 H 980.946 -5.4197 -1.62127 0
M  V30 10018 H 979.503 -6.34387 -1.49656 0
M  V30 10019 N 982.937 -0.845659 -1.3299 0
M  V30 10020 C 983.87 -0.228695 -2.27051 0
M  V30 10021 C 984.848 0.62812 -1.49978 0
M  V30 10022 O 986.032 0.586897 -1.79131 0
M  V30 10023 C 983.159 0.678251 -3.31839 0
M  V30 10024 C 982.205 -0.103994 -4.26373 0
M  V30 10025 S 983.038 -1.46642 -5.1503 0
M  V30 10026 C 984.194 -0.564953 -6.23345 0
M  V30 10027 H 984.427 -1.02609 -2.79032 0
M  V30 10028 H 981.96 -0.642786 -1.40384 0
M  V30 10029 H 983.918 1.1959 -3.92694 0
M  V30 10030 H 982.579 1.44937 -2.78661 0
M  V30 10031 H 981.772 0.586406 -5.00577 0
M  V30 10032 H 981.374 -0.552927 -3.6989 0
M  V30 10033 H 983.666 0.234466 -6.77094 0
M  V30 10034 H 984.609 -1.27736 -6.96483 0
M  V30 10035 H 985.017 -0.143286 -5.64318 0
M  V30 10036 N 984.415 1.45619 -0.602734 0
M  V30 10037 C 985.692 1.9558 -0.0282472 0
M  V30 10038 C 986.072 1.54523 1.43826 0
M  V30 10039 O 985.42 0.805456 2.13833 0
M  V30 10040 C 985.63 3.48298 -0.221263 0
M  V30 10041 C 986.978 4.24483 -0.0995249 0
M  V30 10042 O 988.002 3.55879 -0.151132 0
M  V30 10043 O 986.861 5.46497 0.0194454 0
M  V30 10044 H 983.955 0.826104 0.0384897 0
M  V30 10045 H 986.501 1.55808 -0.672456 0
M  V30 10046 H 985.273 3.71134 -1.23997 0
M  V30 10047 H 984.896 3.94948 0.458437 0
M  V30 10048 N 985.893 0.34162 1.53853 0
M  V30 10049 C 986.856 -0.503541 2.236 0
M  V30 10050 C 987.856 -1.02912 1.23554 0
M  V30 10051 O 989.046 -0.918678 1.48007 0
M  V30 10052 C 986.178 -1.70126 2.95415 0
M  V30 10053 H 987.371 0.106437 2.99711 0
M  V30 10054 H 984.924 0.0929408 1.56023 0
M  V30 10055 H 985.659 -2.34999 2.23486 0
M  V30 10056 H 985.444 -1.33161 3.68796 0
M  V30 10057 H 986.934 -2.30077 3.48503 0
M  V30 10058 N 987.371 -1.57444 0.0701946 0
M  V30 10059 C 988.334 -2.11511 -0.882923 0
M  V30 10060 C 989.334 -1.03879 -1.22743 0
M  V30 10061 O 990.524 -1.29874 -1.16097 0
M  V30 10062 C 987.656 -2.61514 -2.18686 0
M  V30 10063 H 988.849 -2.9703 -0.413873 0
M  V30 10064 H 986.402 -1.55278 -0.178488 0
M  V30 10065 H 987.137 -1.79443 -2.70131 0
M  V30 10066 H 986.922 -3.40185 -1.94978 0
M  V30 10067 H 988.412 -3.03425 -2.86919 0
M  V30 10068 N 988.849 0.203349 -1.56283 0
M  V30 10069 C 989.797 1.27157 -1.94766 0
M  V30 10070 C 990.791 1.4756 -0.832005 0
M  V30 10071 O 991.997 1.48519 -1.01696 0
M  V30 10072 H 988.372 0.426712 -0.61921 0
M  V30 10073 H 990.343 0.919921 -2.83866 0
M  V30 10074 C 989.092 2.6108 -2.29636 0
M  V30 10075 H 988.415 2.46193 -3.15006 0
M  V30 10076 H 989.855 3.34591 -2.60433 0
M  V30 10077 C 988.314 3.17456 -1.12799 0
M  V30 10078 O 988.844 3.99717 -0.398661 0
M  V30 10079 N 987.05 2.76084 -0.906975 0
M  V30 10080 H 986.597 2.09294 -1.50179 0
M  V30 10081 H 986.555 3.14143 -0.127005 0
M  V30 10082 N 990.327 1.50405 0.470755 0
M  V30 10083 C 991.237 1.7208 1.59454 0
M  V30 10084 C 992.253 0.603932 1.63183 0
M  V30 10085 O 993.429 0.882296 1.81046 0
M  V30 10086 C 990.494 1.81057 2.95667 0
M  V30 10087 C 989.555 3.04792 3.02324 0
M  V30 10088 C 988.788 3.13332 4.3204 0
M  V30 10089 O 989.011 2.28655 5.22564 0
M  V30 10090 O 987.945 4.0606 4.44296 0
M  V30 10091 H 991.771 2.67343 1.44089 0
M  V30 10092 H 989.356 1.34505 0.650286 0
M  V30 10093 H 991.238 1.8914 3.76569 0
M  V30 10094 H 989.913 0.889782 3.11231 0
M  V30 10095 H 988.82 3.0221 2.205 0
M  V30 10096 H 990.153 3.96451 2.91698 0
M  V30 10097 N 991.805 -0.723954 1.39988 0
M  V30 10098 C 993.053 -1.48078 1.3754 0
M  V30 10099 C 993.374 -1.94985 -0.0243358 0
M  V30 10100 O 992.644 -1.69764 -0.977602 0
M  V30 10101 H 991.224 -0.549354 0.506181 0
M  V30 10102 H 993.886 -0.858746 1.74962 0
M  V30 10103 H 992.982 -2.35763 2.04505 0
M  V30 10104 N 993.283 -1.25346 -0.955304 0
M  V30 10105 C 994.193 -1.07412 -2.08566 0
M  V30 10106 C 995.209 -0.0114424 -1.73996 0
M  V30 10107 O 996.385 -0.212236 -2.00279 0
M  V30 10108 C 993.45 -0.694141 -3.3968 0
M  V30 10109 C 992.511 -1.83468 -3.88121 0
M  V30 10110 C 991.744 -1.47274 -5.12978 0
M  V30 10111 O 991.967 -0.368086 -5.69211 0
M  V30 10112 O 990.901 -2.30269 -5.56111 0
M  V30 10113 H 994.727 -2.02206 -2.26598 0
M  V30 10114 H 992.312 -1.04279 -1.06988 0
M  V30 10115 H 994.194 -0.494325 -4.18491 0
M  V30 10116 H 992.869 0.224545 -3.2292 0
M  V30 10117 H 991.776 -2.08935 -3.10318 0
M  V30 10118 H 993.109 -2.73258 -4.09379 0
M  V30 10119 N 994.761 1.15782 -1.06922 0
M  V30 10120 C 996.009 1.86097 -0.788192 0
M  V30 10121 C 996.33 1.82475 0.687606 0
M  V30 10122 O 995.6 1.26266 1.49778 0
M  V30 10123 H 994.18 0.689008 -0.288577 0
M  V30 10124 H 996.842 1.40377 -1.35205 0
M  V30 10125 H 995.938 2.91358 -1.1188 0
M  V30 10126 N 996.239 0.8527 1.3254 0
M  V30 10127 C 997.202 0.300959 2.27215 0
M  V30 10128 C 998.202 -0.538235 1.51525 0
M  V30 10129 O 999.392 -0.350027 1.70647 0
M  V30 10130 C 996.524 -0.574428 3.36025 0
M  V30 10131 H 997.717 1.13655 2.77529 0
M  V30 10132 H 995.27 0.626878 1.43178 0
M  V30 10133 H 996.005 -1.43191 2.90976 0
M  V30 10134 H 995.79 0.0262265 3.92091 0
M  V30 10135 H 997.28 -0.9533 4.06573 0
M  V30 10136 N 997.718 -1.45297 0.610449 0
M  V30 10137 C 998.948 -2.0629 0.113047 0
M  V30 10138 C 999.356 -1.45527 -1.20907 0
M  V30 10139 O 998.699 -0.564837 -1.74801 0
M  V30 10140 C 998.761 -3.59366 -0.0979692 0
M  V30 10141 C 998.425 -4.42481 1.14279 0
M  V30 10142 C 999.422 -4.77277 2.06161 0
M  V30 10143 C 997.107 -4.83187 1.37241 0
M  V30 10144 C 999.101 -5.51639 3.19333 0
M  V30 10145 C 996.788 -5.57303 2.50713 0
M  V30 10146 C 997.786 -5.91445 3.41587 0
M  V30 10147 O 997.474 -6.64056 4.53083 0
M  V30 10148 H 997.206 -0.67264 0.0673159 0
M  V30 10149 H 999.76 -1.87486 0.838937 0
M  V30 10150 H 997.99 -3.76582 -0.878783 0
M  V30 10151 H 999.679 -4.02193 -0.547327 0
M  V30 10152 H 1000.44 -4.46384 1.89647 0
M  V30 10153 H 996.324 -4.56045 0.67407 0
M  V30 10154 H 999.868 -5.78207 3.90286 0
M  V30 10155 H 995.765 -5.8761 2.67179 0
M  V30 10156 H 996.533 -6.82509 4.51801 0
M  V30 10157 N 999.196 -0.349774 -1.5367 0
M  V30 10158 C 1000.11 0.512421 -2.28935 0
M  V30 10159 C 1001.12 1.1065 -1.34286 0
M  V30 10160 O 1002.3 1.12084 -1.67329 0
M  V30 10161 C 999.363 1.64449 -3.05217 0
M  V30 10162 C 998.424 1.07956 -4.15505 0
M  V30 10163 C 997.657 2.15768 -4.88139 0
M  V30 10164 O 997.88 3.366 -4.60496 0
M  V30 10165 O 996.814 1.79712 -5.74445 0
M  V30 10166 H 1000.64 -0.0996001 -3.03537 0
M  V30 10167 H 998.225 -0.114629 -1.4896 0
M  V30 10168 H 1000.11 2.30302 -3.52901 0
M  V30 10169 H 998.782 2.24221 -2.33467 0
M  V30 10170 H 997.689 0.385381 -3.7211 0
M  V30 10171 H 999.022 0.526621 -4.89375 0
M  V30 10172 N 1000.67 1.57404 -0.0785433 0
M  V30 10173 C 1001.64 2.11977 0.871693 0
M  V30 10174 C 1002.64 1.04529 1.2219 0
M  V30 10175 O 1003.83 1.30488 1.15406 0
M  V30 10176 C 1000.96 2.6267 2.17296 0
M  V30 10177 H 1002.15 2.97246 0.398115 0
M  V30 10178 H 999.705 1.5537 0.170251 0
M  V30 10179 H 1000.44 1.80873 2.69175 0
M  V30 10180 H 1000.22 3.41214 1.93171 0
M  V30 10181 H 1001.71 3.04943 2.85306 0
M  V30 10182 N 1002.15 -0.195058 1.56388 0
M  V30 10183 C 1003.06 -1.26219 1.97752 0
M  V30 10184 C 1004.08 -1.49801 0.885192 0
M  V30 10185 O 1005.25 -1.62415 1.19094 0
M  V30 10186 C 1002.32 -2.5865 2.3087 0
M  V30 10187 C 1001.38 -2.4314 3.5381 0
M  V30 10188 C 1000.61 -3.69255 3.85339 0
M  V30 10189 O 1000.84 -4.73425 3.18159 0
M  V30 10190 O 999.77 -3.64782 4.78767 0
M  V30 10191 H 1003.6 -0.941161 2.88749 0
M  V30 10192 H 1001.18 -0.40006 1.43944 0
M  V30 10193 H 1003.06 -3.36814 2.53247 0
M  V30 10194 H 1001.74 -2.9038 1.43042 0
M  V30 10195 H 1000.64 -1.63086 3.3668 0
M  V30 10196 H 1001.98 -2.16341 4.42105 0
M  V30 10197 N 1003.63 -1.50653 -0.462772 0
M  V30 10198 C 1004.56 -1.73056 -1.5676 0
M  V30 10199 C 1005.54 -0.579699 -1.59917 0
M  V30 10200 O 1006.73 -0.819729 -1.76051 0
M  V30 10201 C 1003.86 -1.83234 -2.9503 0
M  V30 10202 C 1002.81 -2.98488 -3.06739 0
M  V30 10203 C 1002.14 -2.93818 -4.46738 0
M  V30 10204 C 1003.44 -4.38869 -2.83181 0
M  V30 10205 H 1005.13 -2.65562 -1.38265 0
M  V30 10206 H 1002.68 -1.27792 -0.663722 0
M  V30 10207 H 1004.63 -1.97491 -3.72257 0
M  V30 10208 H 1003.35 -0.873558 -3.14701 0
M  V30 10209 H 1002.01 -2.83895 -2.31946 0
M  V30 10210 H 1001.66 -1.95769 -4.63339 0
M  V30 10211 H 1001.36 -3.71197 -4.55507 0
M  V30 10212 H 1002.88 -3.10135 -5.25974 0
M  V30 10213 H 1004.3 -4.53945 -3.50153 0
M  V30 10214 H 1002.69 -5.17762 -3.03386 0
M  V30 10215 H 1003.76 -4.50663 -1.78972 0
M  V30 10216 N 1005.11 0.71652 -1.4037 0
M  V30 10217 C 1006.07 1.81231 -1.40313 0
M  V30 10218 C 1007.07 1.58032 -0.297087 0
M  V30 10219 O 1008.26 1.65091 -0.555944 0
M  V30 10220 C 1005.39 3.19308 -1.19395 0
M  V30 10221 H 1006.59 1.8268 -2.3784 0
M  V30 10222 H 1004.14 0.922062 -1.26205 0
M  V30 10223 H 1004.87 3.2351 -0.226252 0
M  V30 10224 H 1004.66 3.37546 -1.99512 0
M  V30 10225 H 1006.15 3.99339 -1.22141 0
M  V30 10226 N 1006.59 1.25851 0.948643 0
M  V30 10227 C 1007.83 1.11119 1.69648 0
M  V30 10228 C 1008.17 -0.345995 1.91093 0
M  V30 10229 O 1007.44 -1.25467 1.48621 0
M  V30 10230 C 1007.72 1.87261 3.0758 0
M  V30 10231 C 1007.58 3.40842 2.93507 0
M  V30 10232 C 1008.9 1.6605 4.07573 0
M  V30 10233 H 1006.01 0.405052 0.615713 0
M  V30 10234 H 1008.66 1.54756 1.10229 0
M  V30 10235 H 1006.81 1.50172 3.58303 0
M  V30 10236 H 1008.48 3.87641 2.50064 0
M  V30 10237 H 1006.72 3.68248 2.29294 0
M  V30 10238 H 1007.39 3.89339 3.91305 0
M  V30 10239 H 1009.87 1.98348 3.65783 0
M  V30 10240 H 1008.74 2.21753 5.02113 0
M  V30 10241 H 1009.01 0.603256 4.37965 0
M  V30 10242 N 1008.06 -1.15214 1.07534 0
M  V30 10243 C 1009.01 -2.18022 0.667108 0
M  V30 10244 C 1010 -1.57911 -0.308714 0
M  V30 10245 O 1011.19 -1.76578 -0.122147 0
M  V30 10246 C 1008.32 -3.43232 0.0684348 0
M  V30 10247 C 1007.41 -4.10393 1.06951 0
M  V30 10248 N 1007.8 -4.53013 2.24973 0
M  V30 10249 C 1006.09 -4.36758 0.903262 0
M  V30 10250 C 1006.8 -5.05118 2.88498 0
M  V30 10251 N 1005.77 -4.98777 2.16153 0
M  V30 10252 H 1009.57 -2.48706 1.56597 0
M  V30 10253 H 1007.09 -1.31801 0.948796 0
M  V30 10254 H 1009.08 -4.16197 -0.241934 0
M  V30 10255 H 1007.74 -3.14031 -0.825525 0
M  V30 10256 H 1008.76 -4.4634 2.6268 0
M  V30 10257 H 1005.43 -4.17453 0.0623543 0
M  V30 10258 H 1006.82 -5.48039 3.8872 0
M  V30 10259 N 1009.54 -0.859717 -1.32086 0
M  V30 10260 C 1010.47 -0.323502 -2.31248 0
M  V30 10261 C 1011.45 0.580085 -1.59903 0
M  V30 10262 O 1012.64 0.499265 -1.87673 0
M  V30 10263 C 1009.77 0.484661 -3.43902 0
M  V30 10264 C 1008.72 -0.324933 -4.26765 0
M  V30 10265 C 1008.05 0.608281 -5.31229 0
M  V30 10266 C 1009.35 -1.55344 -4.98664 0
M  V30 10267 H 1011.04 -1.15209 -2.76346 0
M  V30 10268 H 1008.59 -0.555442 -1.32856 0
M  V30 10269 H 1010.54 0.870238 -4.12316 0
M  V30 10270 H 1009.27 1.34666 -2.97544 0
M  V30 10271 H 1007.92 -0.692328 -3.60003 0
M  V30 10272 H 1007.57 1.46727 -4.81124 0
M  V30 10273 H 1007.27 0.0705571 -5.87558 0
M  V30 10274 H 1008.8 0.990925 -6.02506 0
M  V30 10275 H 1010.21 -1.23987 -5.59732 0
M  V30 10276 H 1008.61 -2.02947 -5.64741 0
M  V30 10277 H 1009.68 -2.31192 -4.26237 0
M  V30 10278 N 1011.02 1.44971 -0.618145 0
M  V30 10279 C 1012.43 1.85611 -0.201334 0
M  V30 10280 C 1012.78 1.51698 1.24427 0
M  V30 10281 O 1011.91 0.94875 1.94493 0
M  V30 10282 C 1012.5 3.36897 -0.358619 0
M  V30 10283 C 1011.06 3.764 0.00358196 0
M  V30 10284 C 1010.21 2.68881 -0.678118 0
M  V30 10285 H 1013.16 1.35622 -0.824152 0
M  V30 10286 H 1013.18 3.78326 0.406176 0
M  V30 10287 H 1012.69 3.61548 -1.41084 0
M  V30 10288 H 1010.79 3.57365 1.05457 0
M  V30 10289 H 1010.91 4.77449 -0.397427 0
M  V30 10290 H 1009.27 2.54442 -0.114699 0
M  V30 10291 H 1010.05 2.96367 -1.73268 0
M  V30 10292 N 1012.5 0.357919 1.53482 0
M  V30 10293 C 1013.43 -0.526753 2.23065 0
M  V30 10294 C 1014.44 -1.05239 1.24212 0
M  V30 10295 O 1015.63 -0.960078 1.50482 0
M  V30 10296 C 1012.73 -1.73919 2.9087 0
M  V30 10297 C 1011.91 -1.34638 4.16163 0
M  V30 10298 C 1010.96 -2.42005 4.67247 0
M  V30 10299 O 1009.99 -2.04714 5.31113 0
M  V30 10300 N 1011.19 -3.73478 4.44404 0
M  V30 10301 H 1013.96 0.0692386 2.9962 0
M  V30 10302 H 1011.52 0.182726 1.60866 0
M  V30 10303 H 1013.51 -2.45207 3.21956 0
M  V30 10304 H 1012.08 -2.24223 2.17814 0
M  V30 10305 H 1011.3 -0.463667 3.91464 0
M  V30 10306 H 1012.59 -1.06012 4.97633 0
M  V30 10307 H 1011.99 -4.06555 3.93357 0
M  V30 10308 H 1010.54 -4.40893 4.80059 0
M  V30 10309 N 1013.98 -1.5736 0.0868897 0
M  V30 10310 C 1015.22 -1.9367 -0.577598 0
M  V30 10311 C 1015.55 -0.968844 -1.69229 0
M  V30 10312 O 1014.82 -0.0195061 -1.9589 0
M  V30 10313 H 1013.4 -0.714983 -0.216353 0
M  V30 10314 H 1016.06 -1.94335 0.148294 0
M  V30 10315 H 1015.15 -2.95877 -0.993128 0
M  V30 10316 N 1015.45 0.186762 -1.56489 0
M  V30 10317 C 1016.42 1.21511 -1.94339 0
M  V30 10318 C 1017.42 1.38001 -0.82537 0
M  V30 10319 O 1018.61 1.3567 -1.09266 0
M  V30 10320 C 1015.74 2.583 -2.22472 0
M  V30 10321 H 1016.93 0.891371 -2.86347 0
M  V30 10322 H 1014.49 0.428612 -1.50308 0
M  V30 10323 H 1015.22 2.95715 -1.33129 0
M  V30 10324 H 1015.01 2.47701 -3.03951 0
M  V30 10325 H 1016.5 3.32441 -2.5273 0
M  V30 10326 N 1016.93 1.50896 0.454776 0
M  V30 10327 C 1017.88 1.67333 1.54867 0
M  V30 10328 C 1018.87 0.527576 1.52005 0
M  V30 10329 O 1020.06 0.782726 1.58753 0
M  V30 10330 C 1017.19 1.7858 2.93196 0
M  V30 10331 C 1016.27 2.98884 3.0088 0
M  V30 10332 N 1016.66 4.22326 2.78343 0
M  V30 10333 C 1014.96 2.97779 3.32029 0
M  V30 10334 C 1015.66 5.03439 2.91418 0
M  V30 10335 N 1014.64 4.37725 3.22332 0
M  V30 10336 H 1018.44 2.60453 1.36167 0
M  V30 10337 H 1015.96 1.48304 0.661797 0
M  V30 10338 H 1017.95 1.88463 3.7187 0
M  V30 10339 H 1016.61 0.866296 3.1293 0
M  V30 10340 H 1017.62 4.51557 2.53607 0
M  V30 10341 H 1014.3 2.15393 3.57648 0
M  V30 10342 H 1015.69 6.11648 2.78095 0
M  V30 10343 N 1018.41 -0.709066 1.40748 0
M  V30 10344 C 1019.64 -1.49591 1.425 0
M  V30 10345 C 1020.05 -1.89184 0.0248343 0
M  V30 10346 O 1019.39 -1.56429 -0.963109 0
M  V30 10347 C 1019.45 -2.79735 2.25807 0
M  V30 10348 C 1019.12 -2.62426 3.74141 0
M  V30 10349 C 1020.11 -2.29256 4.66624 0
M  V30 10350 C 1017.8 -2.78487 4.18032 0
M  V30 10351 C 1019.79 -2.12366 6.00982 0
M  V30 10352 C 1017.48 -2.61215 5.52458 0
M  V30 10353 C 1018.48 -2.28203 6.43749 0
M  V30 10354 O 1018.17 -2.11069 7.75697 0
M  V30 10355 H 1017.9 -0.467994 0.487809 0
M  V30 10356 H 1020.45 -0.881694 1.85514 0
M  V30 10357 H 1018.68 -3.43513 1.77584 0
M  V30 10358 H 1020.37 -3.41481 2.19421 0
M  V30 10359 H 1021.14 -2.16474 4.34009 0
M  V30 10360 H 1017.02 -3.03168 3.4729 0
M  V30 10361 H 1020.56 -1.86522 6.72202 0
M  V30 10362 H 1016.46 -2.73582 5.84656 0
M  V30 10363 H 1017.23 -2.25938 7.86698 0
M  V30 10364 N 1019.89 -1.26353 -0.941956 0
M  V30 10365 C 1020.82 -1.02163 -2.04054 0
M  V30 10366 C 1021.8 0.0533514 -1.62512 0
M  V30 10367 O 1022.98 -0.0889063 -1.8829 0
M  V30 10368 C 1020.11 -0.546908 -3.34255 0
M  V30 10369 C 1019.16 -1.61433 -3.94768 0
M  V30 10370 S 1019.99 -3.20306 -4.29144 0
M  V30 10371 C 1021.15 -2.746 -5.62446 0
M  V30 10372 H 1021.38 -1.9518 -2.24259 0
M  V30 10373 H 1018.91 -1.10024 -1.08324 0
M  V30 10374 H 1020.87 -0.279673 -4.09546 0
M  V30 10375 H 1019.53 0.36297 -3.11996 0
M  V30 10376 H 1018.72 -1.23315 -4.88681 0
M  V30 10377 H 1018.33 -1.8329 -3.26007 0
M  V30 10378 H 1020.62 -2.19015 -6.41123 0
M  V30 10379 H 1021.56 -3.67202 -6.05449 0
M  V30 10380 H 1021.97 -2.1419 -5.22286 0
M  V30 10381 N 1021.37 1.14642 -1.08144 0
M  V30 10382 C 1022.78 1.37604 -0.808537 0
M  V30 10383 C 1022.98 1.92868 0.583452 0
M  V30 10384 O 1022.04 2.13964 1.34073 0
M  V30 10385 C 1023.35 2.3396 -1.889 0
M  V30 10386 C 1024.9 2.47605 -1.9147 0
M  V30 10387 C 1025.38 3.47258 -2.98623 0
M  V30 10388 N 1026.87 3.548 -2.97777 0
M  V30 10389 C 1027.6 4.31751 -3.77331 0
M  V30 10390 N 1027.1 5.11966 -4.66757 0
M  V30 10391 N 1028.89 4.2692 -3.65645 0
M  V30 10392 H 1021.04 0.771154 -1.97906 0
M  V30 10393 H 1023.3 0.401694 -0.858688 0
M  V30 10394 H 1023.01 2.00484 -2.88962 0
M  V30 10395 H 1022.88 3.33833 -1.756 0
M  V30 10396 H 1025.27 2.80375 -0.920548 0
M  V30 10397 H 1025.35 1.47702 -2.08848 0
M  V30 10398 H 1025 3.15223 -3.98243 0
M  V30 10399 H 1024.93 4.46935 -2.7849 0
M  V30 10400 H 1027.42 2.97553 -2.3296 0
M  V30 10401 H 1027.73 5.67951 -5.24072 0
M  V30 10402 H 1026.08 5.11245 -4.70801 0
M  V30 10403 H 1029.27 3.63322 -2.95152 0
M  V30 10404 H 1029.44 4.8664 -4.27885 0
M  V30 10405 N 1022.85 0.866709 1.31628 0
M  V30 10406 C 1023.81 0.325041 2.26883 0
M  V30 10407 C 1024.81 -0.522133 1.52087 0
M  V30 10408 O 1026 -0.331908 1.71009 0
M  V30 10409 C 1023.13 -0.538756 3.36616 0
M  V30 10410 H 1024.32 1.16592 2.76308 0
M  V30 10411 H 1021.88 0.642029 1.42505 0
M  V30 10412 H 1022.61 -1.40096 2.92478 0
M  V30 10413 H 1022.4 0.0678115 3.92041 0
M  V30 10414 H 1023.89 -0.910123 4.07562 0
M  V30 10415 N 1024.32 -1.44642 0.625825 0
M  V30 10416 C 1025.25 -2.33397 -0.0692188 0
M  V30 10417 C 1026.23 -1.47898 -0.840241 0
M  V30 10418 O 1027.42 -1.7663 -0.807176 0
M  V30 10419 C 1024.55 -3.30888 -1.055 0
M  V30 10420 C 1023.5 -4.26164 -0.395968 0
M  V30 10421 C 1022.83 -5.13483 -1.49128 0
M  V30 10422 C 1024.13 -5.17663 0.694433 0
M  V30 10423 H 1025.82 -2.91763 0.671925 0
M  V30 10424 H 1023.37 -1.40294 0.324573 0
M  V30 10425 H 1025.32 -3.91861 -1.54993 0
M  V30 10426 H 1024.05 -2.7072 -1.82696 0
M  V30 10427 H 1022.71 -3.66516 0.0782691 0
M  V30 10428 H 1022.35 -4.49672 -2.25399 0
M  V30 10429 H 1022.05 -5.78038 -1.05573 0
M  V30 10430 H 1023.58 -5.77327 -1.98813 0
M  V30 10431 H 1024.99 -5.72602 0.282818 0
M  V30 10432 H 1023.39 -5.90793 1.05281 0
M  V30 10433 H 1024.46 -4.58994 1.56372 0
M  V30 10434 N 1025.8 -0.366053 -1.5329 0
M  V30 10435 C 1027.03 0.226839 -2.06156 0
M  V30 10436 C 1027.45 1.41637 -1.23776 0
M  V30 10437 O 1026.81 1.7947 -0.256948 0
M  V30 10438 C 1026.86 0.597956 -3.55608 0
M  V30 10439 O 1025.96 1.69512 -3.75951 0
M  V30 10440 H 1025.3 0.0329156 -0.663184 0
M  V30 10441 H 1027.83 -0.526793 -1.97702 0
M  V30 10442 H 1027.84 0.868831 -3.98642 0
M  V30 10443 H 1026.52 -0.271838 -4.15011 0
M  V30 10444 H 1025.09 1.41976 -3.44815 0
M  V30 10445 N 1027.28 1.57312 -0.0952337 0
M  V30 10446 C 1028.23 2.15263 0.881167 0
M  V30 10447 C 1029.22 1.09552 1.29208 0
M  V30 10448 O 1030.43 1.27897 1.26659 0
M  V30 10449 H 1026.8 0.688611 0.302191 0
M  V30 10450 H 1028.77 2.96126 0.367694 0
M  V30 10451 C 1027.52 2.74779 2.13053 0
M  V30 10452 H 1026.85 3.55807 1.82323 0
M  V30 10453 H 1028.29 3.18895 2.79431 0
M  V30 10454 C 1026.74 1.7068 2.90465 0
M  V30 10455 O 1027.27 1.14582 3.85011 0
M  V30 10456 N 1025.48 1.41169 2.54007 0
M  V30 10457 H 1025.03 1.86977 1.77193 0
M  V30 10458 H 1024.99 0.717559 3.06102 0
M  V30 10459 N 1028.76 -0.17846 1.56586 0
M  V30 10460 C 1030 -0.897562 1.81856 0
M  V30 10461 C 1030.34 -1.82204 0.671955 0
M  V30 10462 O 1029.61 -1.91739 -0.326535 0
M  V30 10463 C 1029.89 -1.69942 3.17477 0
M  V30 10464 C 1029.75 -0.798545 4.42655 0
M  V30 10465 C 1031.07 -2.66861 3.49962 0
M  V30 10466 H 1028.19 -0.324863 0.661539 0
M  V30 10467 H 1030.83 -0.164106 1.8929 0
M  V30 10468 H 1028.98 -2.32471 3.11271 0
M  V30 10469 H 1030.65 -0.18668 4.60922 0
M  V30 10470 H 1028.89 -0.106181 4.3367 0
M  V30 10471 H 1029.56 -1.39496 5.34083 0
M  V30 10472 H 1032.04 -2.1446 3.56576 0
M  V30 10473 H 1030.92 -3.20037 4.45946 0
M  V30 10474 H 1031.18 -3.46715 2.74301 0
M  V30 10475 N 1030.24 -1.51135 -0.446768 0
M  V30 10476 C 1031.15 -1.74595 -1.56696 0
M  V30 10477 C 1032.16 -0.629816 -1.62201 0
M  V30 10478 O 1033.34 -0.910987 -1.79619 0
M  V30 10479 C 1030.4 -1.85738 -2.9275 0
M  V30 10480 C 1029.46 -3.09564 -2.97437 0
M  V30 10481 C 1028.7 -3.20165 -4.27001 0
M  V30 10482 O 1028.92 -2.36939 -5.1886 0
M  V30 10483 O 1027.85 -4.13077 -4.3778 0
M  V30 10484 H 1031.68 -2.69601 -1.39817 0
M  V30 10485 H 1029.26 -1.35523 -0.628805 0
M  V30 10486 H 1031.15 -1.95107 -3.73512 0
M  V30 10487 H 1029.82 -0.939184 -3.09776 0
M  V30 10488 H 1028.73 -3.05679 -2.15664 0
M  V30 10489 H 1030.06 -4.01041 -2.85353 0
M  V30 10490 N 1031.71 0.701592 -1.41122 0
M  V30 10491 C 1032.96 1.45871 -1.39879 0
M  V30 10492 C 1033.28 1.94999 -0.00668769 0
M  V30 10493 O 1032.55 1.71298 0.95047 0
M  V30 10494 H 1031.13 0.541231 -0.514857 0
M  V30 10495 H 1033.79 0.830803 -1.76306 0
M  V30 10496 H 1032.89 2.32479 -2.0823 0
M  V30 10497 N 1033.19 1.2685 0.935242 0
M  V30 10498 C 1034.44 1.12745 1.68211 0
M  V30 10499 C 1034.77 -0.328128 1.91712 0
M  V30 10500 O 1034.02 -1.25701 1.49993 0
M  V30 10501 C 1034.32 1.8482 3.05903 0
M  V30 10502 C 1033.99 3.347 3.02137 0
M  V30 10503 C 1032.65 3.75583 3.00817 0
M  V30 10504 C 1035 4.30368 2.93995 0
M  V30 10505 C 1032.33 5.10511 2.89129 0
M  V30 10506 C 1034.68 5.65343 2.83848 0
M  V30 10507 C 1033.34 6.0553 2.80874 0
M  V30 10508 H 1032.61 0.412563 0.615527 0
M  V30 10509 H 1035.26 1.57366 1.09124 0
M  V30 10510 H 1033.57 1.32685 3.68649 0
M  V30 10511 H 1035.26 1.71341 3.62551 0
M  V30 10512 H 1031.85 3.02182 3.03947 0
M  V30 10513 H 1036.04 3.9976 2.94118 0
M  V30 10514 H 1031.29 5.40802 2.85208 0
M  V30 10515 H 1035.47 6.39151 2.76512 0
M  V30 10516 H 1033.09 7.10037 2.71573 0
M  V30 10517 N 1034.67 -1.14067 1.0875 0
M  V30 10518 C 1035.58 -2.22871 0.732498 0
M  V30 10519 C 1036.6 -1.72008 -0.26253 0
M  V30 10520 O 1037.77 -2.01123 -0.105601 0
M  V30 10521 C 1034.84 -3.46371 0.150913 0
M  V30 10522 C 1033.9 -4.12158 1.201 0
M  V30 10523 C 1033.13 -5.29763 0.647075 0
M  V30 10524 O 1033.35 -5.67911 -0.532307 0
M  V30 10525 O 1032.29 -5.8542 1.3988 0
M  V30 10526 H 1036.11 -2.55596 1.64025 0
M  V30 10527 H 1033.7 -1.22065 0.861417 0
M  V30 10528 H 1035.58 -4.21055 -0.170442 0
M  V30 10529 H 1034.26 -3.15362 -0.729948 0
M  V30 10530 H 1033.16 -3.39332 1.57494 0
M  V30 10531 H 1034.5 -4.47282 2.05426 0
M  V30 10532 N 1036.15 -0.873678 -1.31166 0
M  V30 10533 C 1037.56 -0.566109 -1.49223 0
M  V30 10534 C 1037.76 0.898889 -1.80339 0
M  V30 10535 O 1036.82 1.68084 -1.88425 0
M  V30 10536 C 1038.13 -1.46952 -2.62346 0
M  V30 10537 C 1039.68 -1.47195 -2.76229 0
M  V30 10538 C 1040.16 -2.36102 -3.92454 0
M  V30 10539 N 1041.65 -2.34003 -3.99746 0
M  V30 10540 C 1042.38 -2.99513 -4.88958 0
M  V30 10541 N 1041.88 -3.74206 -5.83045 0
M  V30 10542 N 1043.67 -2.88802 -4.82234 0
M  V30 10543 H 1035.82 -1.82156 -1.09239 0
M  V30 10544 H 1038.09 -0.779086 -0.54012 0
M  V30 10545 H 1037.79 -2.51213 -2.4614 0
M  V30 10546 H 1037.67 -1.17077 -3.5857 0
M  V30 10547 H 1040.05 -0.436902 -2.91848 0
M  V30 10548 H 1040.13 -1.81095 -1.80661 0
M  V30 10549 H 1039.78 -3.39685 -3.77593 0
M  V30 10550 H 1039.71 -1.99524 -4.87337 0
M  V30 10551 H 1042.2 -1.79713 -3.32433 0
M  V30 10552 H 1042.51 -4.21312 -6.47855 0
M  V30 10553 H 1040.86 -3.78314 -5.83012 0
M  V30 10554 H 1044.05 -2.29984 -4.07707 0
M  V30 10555 H 1044.22 -3.40136 -5.51554 0
M  V30 10556 N 1037.63 1.44308 -0.633487 0
M  V30 10557 C 1038.56 2.33431 0.0568402 0
M  V30 10558 C 1039.54 1.48342 0.832386 0
M  V30 10559 O 1040.72 1.77056 0.797798 0
M  V30 10560 C 1037.85 3.31443 1.03743 0
M  V30 10561 C 1036.81 4.26368 0.373362 0
M  V30 10562 C 1036.13 5.14267 1.46403 0
M  V30 10563 C 1037.43 5.17287 -0.721876 0
M  V30 10564 H 1039.13 2.91402 -0.687388 0
M  V30 10565 H 1036.67 1.4012 -0.332009 0
M  V30 10566 H 1038.63 3.92677 1.52913 0
M  V30 10567 H 1037.35 2.71686 1.81258 0
M  V30 10568 H 1036.01 3.6647 -0.0977053 0
M  V30 10569 H 1035.66 4.50861 2.23011 0
M  V30 10570 H 1035.36 5.7859 1.02506 0
M  V30 10571 H 1036.88 5.78373 1.95748 0
M  V30 10572 H 1038.29 5.72444 -0.313181 0
M  V30 10573 H 1036.69 5.90226 -1.08413 0
M  V30 10574 H 1037.76 4.58159 -1.58804 0
M  V30 10575 N 1039.1 0.374177 1.53094 0
M  V30 10576 C 1040.35 -0.213981 2.00562 0
M  V30 10577 C 1040.67 -1.4916 1.26533 0
M  V30 10578 O 1041.87 -2.15889 1.64634 0
M  V30 10579 C 1040.33 -0.431876 3.57299 0
M  V30 10580 C 1039.94 0.831615 4.40214 0
M  V30 10581 C 1041.68 -0.977222 4.13099 0
M  V30 10582 C 1039.59 0.582831 5.88521 0
M  V30 10583 H 1038.52 -0.0837386 0.749336 0
M  V30 10584 H 1041.17 0.494245 1.76719 0
M  V30 10585 H 1039.55 -1.20158 3.7733 0
M  V30 10586 H 1040.72 1.60477 4.31953 0
M  V30 10587 H 1039.04 1.30081 3.9556 0
M  V30 10588 H 1041.64 -1.17881 5.21544 0
M  V30 10589 H 1041.98 -1.94189 3.68234 0
M  V30 10590 H 1042.51 -0.267473 3.969 0
M  V30 10591 H 1039.25 1.51807 6.37679 0
M  V30 10592 H 1038.77 -0.151666 5.99608 0
M  V30 10593 H 1040.45 0.211604 6.46654 0
M  V30 10594 N 1040.58 -1.57259 0.103575 0
M  V30 10595 C 1041.82 -1.96539 -0.561398 0
M  V30 10596 C 1042.19 -0.984775 -1.64822 0
M  V30 10597 O 1043.39 -1.26638 -2.371 0
M  V30 10598 C 1041.66 -3.40229 -1.09447 0
M  V30 10599 S 1043.22 -4.01512 -1.77013 0
M  V30 10600 H 1040.04 -0.687061 -0.182944 0
M  V30 10601 H 1042.64 -1.94623 0.184993 0
M  V30 10602 H 1041.34 -4.09359 -0.292091 0
M  V30 10603 H 1040.87 -3.45762 -1.8765 0
M  V30 10604 H 1042.89 -3.91009 -3.05494 0
M  V30 10605 N 1042.06 0.170153 -1.56679 0
M  V30 10606 C 1043.01 1.22997 -1.9742 0
M  V30 10607 C 1044 1.45762 -0.863117 0
M  V30 10608 O 1045.21 1.46328 -1.04824 0
M  V30 10609 H 1041.58 0.413482 -0.628122 0
M  V30 10610 H 1043.55 0.859502 -2.85754 0
M  V30 10611 C 1042.3 2.5615 -2.35122 0
M  V30 10612 H 1041.63 2.39456 -3.20158 0
M  V30 10613 H 1043.07 3.28991 -2.67471 0
M  V30 10614 C 1041.53 3.14992 -1.19507 0
M  V30 10615 O 1042.06 3.98781 -0.483357 0
M  V30 10616 N 1040.26 2.74098 -0.965332 0
M  V30 10617 H 1039.81 2.06062 -1.54585 0
M  V30 10618 H 1039.77 3.13803 -0.193611 0
M  V30 10619 N 1043.54 1.5137 0.438746 0
M  V30 10620 C 1044.47 1.68774 1.55074 0
M  V30 10621 C 1045.48 0.568436 1.52554 0
M  V30 10622 O 1046.67 0.842707 1.57355 0
M  V30 10623 C 1043.77 1.68592 2.9399 0
M  V30 10624 C 1042.95 2.97084 3.2103 0
M  V30 10625 C 1042 2.89108 4.39663 0
M  V30 10626 O 1041.03 3.63052 4.38385 0
M  V30 10627 N 1042.23 2.04863 5.4315 0
M  V30 10628 H 1045 2.647 1.40549 0
M  V30 10629 H 1042.56 1.49238 0.627663 0
M  V30 10630 H 1044.55 1.60826 3.71372 0
M  V30 10631 H 1043.12 0.802657 3.02119 0
M  V30 10632 H 1042.34 3.18729 2.3196 0
M  V30 10633 H 1043.63 3.82143 3.35923 0
M  V30 10634 H 1043.03 1.4416 5.47023 0
M  V30 10635 H 1041.58 2.02977 6.1939 0
M  V30 10636 N 1045.02 -0.694098 1.41492 0
M  V30 10637 C 1045.96 -1.80801 1.43456 0
M  V30 10638 C 1046.93 -1.63571 0.288757 0
M  V30 10639 O 1048.12 -1.844 0.490017 0
M  V30 10640 C 1045.26 -3.18694 1.32394 0
M  V30 10641 C 1044.37 -3.47346 2.56855 0
M  V30 10642 C 1043.51 -4.74862 2.38075 0
M  V30 10643 C 1042.55 -4.96486 3.58005 0
M  V30 10644 N 1041.68 -6.15229 3.38287 0
M  V30 10645 H 1046.52 -1.78457 2.38657 0
M  V30 10646 H 1044.06 -0.871455 1.18508 0
M  V30 10647 H 1046.02 -3.98352 1.23982 0
M  V30 10648 H 1044.65 -3.20211 0.407999 0
M  V30 10649 H 1043.7 -2.62083 2.75711 0
M  V30 10650 H 1045.01 -3.59226 3.4606 0
M  V30 10651 H 1044.17 -5.62577 2.27139 0
M  V30 10652 H 1042.9 -4.6523 1.46329 0
M  V30 10653 H 1041.91 -4.07219 3.69395 0
M  V30 10654 H 1043.13 -5.07976 4.50708 0
M  V30 10655 H 1041.08 -6.06807 2.49242 0
M  V30 10656 H 1041 -6.27883 4.21069 0
M  V30 10657 H 1042.27 -7.05674 3.31126 0
M  V30 10658 N 1046.49 -1.27344 -0.928501 0
M  V30 10659 C 1047.44 -1.10001 -2.029 0
M  V30 10660 C 1048.41 -0.00131084 -1.661 0
M  V30 10661 O 1049.6 -0.163485 -1.90098 0
M  V30 10662 C 1046.74 -0.7524 -3.36798 0
M  V30 10663 C 1045.85 -1.92865 -3.86558 0
M  V30 10664 C 1044.98 -1.52299 -5.08899 0
M  V30 10665 C 1044.02 -2.66677 -5.50953 0
M  V30 10666 N 1043.16 -2.26706 -6.64491 0
M  V30 10667 H 1048 -2.0417 -2.17068 0
M  V30 10668 H 1045.54 -1.01637 -1.0634 0
M  V30 10669 H 1047.5 -0.531687 -4.13798 0
M  V30 10670 H 1046.13 0.15234 -3.2244 0
M  V30 10671 H 1045.18 -2.26192 -3.05845 0
M  V30 10672 H 1046.49 -2.78668 -4.13698 0
M  V30 10673 H 1045.64 -1.26348 -5.93398 0
M  V30 10674 H 1044.38 -0.636042 -4.83535 0
M  V30 10675 H 1043.39 -2.93344 -4.65004 0
M  V30 10676 H 1044.61 -3.55992 -5.78313 0
M  V30 10677 H 1042.56 -1.40462 -6.40786 0
M  V30 10678 H 1042.48 -3.06049 -6.91281 0
M  V30 10679 H 1043.74 -2.04 -7.52333 0
M  V30 10680 N 1047.97 1.13488 -1.09353 0
M  V30 10681 C 1048.88 2.2248 -0.744307 0
M  V30 10682 C 1049.9 1.72145 0.253404 0
M  V30 10683 O 1051.07 2.01176 0.0949339 0
M  V30 10684 C 1048.14 3.46286 -0.16928 0
M  V30 10685 C 1047.2 4.11516 -1.22284 0
M  V30 10686 C 1046.43 5.29412 -0.675161 0
M  V30 10687 O 1046.66 5.68185 0.502182 0
M  V30 10688 O 1045.59 5.8467 -1.42983 0
M  V30 10689 H 1049.42 2.54723 -1.65378 0
M  V30 10690 H 1047 1.21607 -0.867879 0
M  V30 10691 H 1048.88 4.2114 0.14811 0
M  V30 10692 H 1047.56 3.15745 0.713214 0
M  V30 10693 H 1046.47 3.38492 -1.59292 0
M  V30 10694 H 1047.8 4.46186 -2.07796 0
M  V30 10695 N 1049.45 0.880621 1.30701 0
M  V30 10696 C 1050.4 0.333562 2.30196 0
M  V30 10697 C 1051.39 -0.557092 1.59978 0
M  V30 10698 O 1052.6 -0.442009 1.74489 0
M  V30 10699 H 1048.97 0.0892036 0.746691 0
M  V30 10700 H 1050.95 1.18644 2.73799 0
M  V30 10701 C 1049.69 -0.440731 3.44895 0
M  V30 10702 H 1049.02 0.235353 3.99107 0
M  V30 10703 H 1050.46 -0.788676 4.166 0
M  V30 10704 C 1048.92 -1.63613 2.94504 0
M  V30 10705 O 1049.45 -2.73549 2.94166 0
M  V30 10706 N 1047.65 -1.47183 2.5057 0
M  V30 10707 H 1047.2 -0.577479 2.51044 0
M  V30 10708 H 1047.16 -2.27303 2.17211 0
M  V30 10709 N 1050.93 -1.4397 0.641131 0
M  V30 10710 C 1051.84 -2.34526 -0.058742 0
M  V30 10711 C 1052.86 -1.53194 -0.825088 0
M  V30 10712 O 1054.03 -1.85888 -0.775081 0
M  V30 10713 C 1051.1 -3.31313 -1.02139 0
M  V30 10714 C 1050.16 -4.28552 -0.253319 0
M  V30 10715 C 1049.39 -5.20715 -1.17012 0
M  V30 10716 O 1049.61 -5.17028 -2.40911 0
M  V30 10717 O 1048.55 -5.9839 -0.649039 0
M  V30 10718 H 1052.37 -2.95843 0.686329 0
M  V30 10719 H 1049.96 -1.43909 0.401316 0
M  V30 10720 H 1051.84 -3.90862 -1.57496 0
M  V30 10721 H 1050.52 -2.72516 -1.7469 0
M  V30 10722 H 1049.42 -3.72519 0.343531 0
M  V30 10723 H 1050.76 -4.90297 0.432372 0
M  V30 10724 N 1052.41 -0.382291 -1.52893 0
M  V30 10725 C 1053.64 0.202408 -2.05908 0
M  V30 10726 C 1054.05 1.4109 -1.25456 0
M  V30 10727 O 1053.41 1.80027 -0.29942 0
M  V30 10728 C 1053.46 0.579452 -3.56826 0
M  V30 10729 O 1053.18 -0.58102 -4.3423 0
M  V30 10730 C 1054.68 1.22076 -4.2616 0
M  V30 10731 H 1051.9 0.0321859 -0.670228 0
M  V30 10732 H 1054.44 -0.545494 -1.9709 0
M  V30 10733 H 1052.6 1.27726 -3.65739 0
M  V30 10734 H 1053.01 -0.272693 -5.23791 0
M  V30 10735 H 1054.49 1.435 -5.33021 0
M  V30 10736 H 1054.96 2.18605 -3.80931 0
M  V30 10737 H 1055.57 0.563922 -4.21545 0
M  V30 10738 N 1053.89 1.57202 -0.111913 0
M  V30 10739 C 1055.3 1.57713 0.244702 0
M  V30 10740 C 1055.5 1.12419 1.67225 0
M  V30 10741 O 1054.56 0.808329 2.39212 0
M  V30 10742 C 1055.87 3.00695 0.0178289 0
M  V30 10743 C 1057.42 3.12887 0.0842781 0
M  V30 10744 C 1057.89 4.57856 -0.114812 0
M  V30 10745 N 1059.38 4.6316 -0.0605423 0
M  V30 10746 C 1060.12 5.73086 -0.189594 0
M  V30 10747 N 1059.62 6.91787 -0.37442 0
M  V30 10748 N 1061.41 5.6195 -0.12967 0
M  V30 10749 H 1053.56 1.84947 -1.04443 0
M  V30 10750 H 1055.82 0.854418 -0.4107 0
M  V30 10751 H 1055.53 3.38093 -0.968802 0
M  V30 10752 H 1055.4 3.69611 0.752815 0
M  V30 10753 H 1057.79 2.7535 1.06143 0
M  V30 10754 H 1057.87 2.46528 -0.682474 0
M  V30 10755 H 1057.51 4.9609 -1.0889 0
M  V30 10756 H 1057.44 5.22297 0.671839 0
M  V30 10757 H 1059.94 3.77817 0.0790856 0
M  V30 10758 H 1060.25 7.71406 -0.463948 0
M  V30 10759 H 1058.59 6.93788 -0.410303 0
M  V30 10760 H 1061.78 4.68098 0.0137115 0
M  V30 10761 H 1061.96 6.47578 -0.233688 0
M  V30 10762 N 1055.36 -0.161842 1.56767 0
M  V30 10763 C 1056.61 -0.878224 1.82798 0
M  V30 10764 C 1056.94 -1.81481 0.691242 0
M  V30 10765 O 1056.22 -1.92075 -0.30618 0
M  V30 10766 C 1056.5 -1.66565 3.19262 0
M  V30 10767 C 1056.35 -0.751551 4.43477 0
M  V30 10768 C 1057.67 -2.63134 3.52773 0
M  V30 10769 H 1054.79 -0.317828 0.664947 0
M  V30 10770 H 1057.43 -0.14402 1.89453 0
M  V30 10771 H 1055.58 -2.29157 3.13719 0
M  V30 10772 H 1057.26 -0.137783 4.61094 0
M  V30 10773 H 1055.5 -0.0601785 4.33758 0
M  V30 10774 H 1056.17 -1.33823 5.35533 0
M  V30 10775 H 1058.65 -2.10666 3.5883 0
M  V30 10776 H 1057.52 -3.15289 4.49315 0
M  V30 10777 H 1057.78 -3.43786 2.77963 0
M  V30 10778 N 1056.84 -1.516 -0.430713 0
M  V30 10779 C 1058.09 -1.6484 -1.18134 0
M  V30 10780 C 1058.42 -0.366725 -1.90706 0
M  V30 10781 O 1057.7 0.63398 -1.83878 0
M  V30 10782 C 1057.98 -2.85617 -2.19306 0
M  V30 10783 C 1057.83 -4.23778 -1.50773 0
M  V30 10784 C 1059.15 -3.01909 -3.20217 0
M  V30 10785 H 1056.27 -0.599907 -0.428113 0
M  V30 10786 H 1058.91 -1.84102 -0.46973 0
M  V30 10787 H 1057.06 -2.69325 -2.79993 0
M  V30 10788 H 1058.73 -4.51752 -0.93371 0
M  V30 10789 H 1056.98 -4.26171 -0.809966 0
M  V30 10790 H 1057.65 -5.04291 -2.24487 0
M  V30 10791 H 1060.12 -3.16956 -2.69589 0
M  V30 10792 H 1059 -3.87968 -3.88293 0
M  V30 10793 H 1059.26 -2.1427 -3.86705 0
M  V30 10794 N 1058.32 0.686584 -1.41858 0
M  V30 10795 C 1059.25 1.81264 -1.47193 0
M  V30 10796 C 1060.23 1.66875 -0.329657 0
M  V30 10797 O 1061.42 1.86473 -0.542347 0
M  V30 10798 C 1058.55 3.19472 -1.36216 0
M  V30 10799 C 1057.5 3.4858 -2.48347 0
M  V30 10800 C 1056.83 4.86239 -2.22432 0
M  V30 10801 C 1058.13 3.46653 -3.90678 0
M  V30 10802 H 1059.82 1.77057 -2.41436 0
M  V30 10803 H 1057.37 0.850415 -1.16206 0
M  V30 10804 H 1059.32 3.97969 -1.38558 0
M  V30 10805 H 1058.04 3.24327 -0.384611 0
M  V30 10806 H 1056.7 2.72437 -2.45303 0
M  V30 10807 H 1056.35 4.8773 -1.22999 0
M  V30 10808 H 1056.05 5.06677 -2.97577 0
M  V30 10809 H 1057.57 5.67034 -2.26505 0
M  V30 10810 H 1058.99 4.15139 -3.95389 0
M  V30 10811 H 1057.38 3.78625 -4.65578 0
M  V30 10812 H 1058.45 2.45451 -4.18189 0
M  V30 10813 N 1059.8 1.27835 0.921735 0
M  V30 10814 C 1061.04 1.15766 1.68457 0
M  V30 10815 C 1061.4 -0.290542 1.89789 0
M  V30 10816 O 1062.6 -0.53378 2.63447 0
M  V30 10817 C 1060.87 1.92591 3.0107 0
M  V30 10818 S 1062.43 1.96804 3.92191 0
M  V30 10819 H 1059.25 0.413169 0.578629 0
M  V30 10820 H 1061.85 1.61826 1.09693 0
M  V30 10821 H 1060.56 2.96991 2.8324 0
M  V30 10822 H 1060.09 1.47049 3.64884 0
M  V30 10823 H 1062.1 1.06877 4.84553 0
M  V30 10824 N 1061.28 -1.12907 1.09954 0
M  V30 10825 C 1062.19 -2.22082 0.756095 0
M  V30 10826 C 1063.2 -1.72277 -0.244272 0
M  V30 10827 O 1064.38 -2.01224 -0.0842637 0
M  V30 10828 C 1061.44 -3.46192 0.187642 0
M  V30 10829 C 1060.5 -4.10861 1.24465 0
M  V30 10830 C 1059.74 -5.29047 0.703227 0
M  V30 10831 O 1059.96 -5.68443 -0.472043 0
M  V30 10832 O 1058.89 -5.83904 1.46082 0
M  V30 10833 H 1062.72 -2.53842 1.66727 0
M  V30 10834 H 1060.3 -1.21145 0.874316 0
M  V30 10835 H 1062.19 -4.21212 -0.125774 0
M  V30 10836 H 1060.86 -3.16119 -0.696459 0
M  V30 10837 H 1059.77 -3.37643 1.61085 0
M  V30 10838 H 1061.1 -4.45078 2.10159 0
M  V30 10839 N 1062.75 -0.88754 -1.30232 0
M  V30 10840 C 1063.68 -0.372481 -2.3051 0
M  V30 10841 C 1064.66 0.546037 -1.61098 0
M  V30 10842 O 1065.85 0.459345 -1.88689 0
M  V30 10843 C 1062.98 0.411605 -3.44852 0
M  V30 10844 C 1061.93 -0.415383 -4.2598 0
M  V30 10845 C 1061.26 0.495463 -5.324 0
M  V30 10846 C 1062.56 -1.65886 -4.95257 0
M  V30 10847 H 1064.25 -1.21045 -2.7384 0
M  V30 10848 H 1061.8 -0.583498 -1.31648 0
M  V30 10849 H 1063.75 0.782584 -4.1407 0
M  V30 10850 H 1062.48 1.28325 -3.00334 0
M  V30 10851 H 1061.14 -0.768534 -3.58454 0
M  V30 10852 H 1060.78 1.36489 -4.84128 0
M  V30 10853 H 1060.48 -0.0540885 -5.87575 0
M  V30 10854 H 1062.01 0.862901 -6.04472 0
M  V30 10855 H 1063.42 -1.35832 -5.56976 0
M  V30 10856 H 1061.82 -2.14881 -5.60309 0
M  V30 10857 H 1062.89 -2.40181 -4.21237 0
M  V30 10858 N 1064.23 1.43628 -0.648757 0
M  V30 10859 C 1065.48 2.01465 -0.16002 0
M  V30 10860 C 1065.8 1.51413 1.22878 0
M  V30 10861 O 1065.07 0.724919 1.81994 0
M  V30 10862 H 1063.65 0.744885 -0.0561672 0
M  V30 10863 H 1066.31 1.75897 -0.839422 0
M  V30 10864 H 1065.41 3.1178 -0.141213 0
M  V30 10865 N 1065.71 0.390394 1.52688 0
M  V30 10866 C 1066.66 -0.4591 2.28024 0
M  V30 10867 C 1067.65 -1.06212 1.31967 0
M  V30 10868 O 1068.86 -1.00247 1.49501 0
M  V30 10869 H 1065.23 -0.16681 0.733266 0
M  V30 10870 H 1067.2 0.197747 2.97744 0
M  V30 10871 C 1065.95 -1.5737 3.10048 0
M  V30 10872 H 1065.28 -1.11901 3.83821 0
M  V30 10873 H 1066.72 -2.1423 3.65898 0
M  V30 10874 C 1065.18 -2.53036 2.22429 0
M  V30 10875 O 1065.71 -3.5647 1.85181 0
M  V30 10876 N 1063.91 -2.22802 1.86567 0
M  V30 10877 H 1063.46 -1.38723 2.17057 0
M  V30 10878 H 1063.42 -2.87061 1.28233 0
M  V30 10879 N 1067.19 -1.57141 0.120249 0
M  V30 10880 C 1068.6 -1.82256 -0.404931 0
M  V30 10881 C 1068.95 -1.03748 -1.66526 0
M  V30 10882 O 1068.08 -0.274456 -2.14653 0
M  V30 10883 C 1068.67 -3.30588 -0.741431 0
M  V30 10884 C 1067.23 -3.56379 -1.21124 0
M  V30 10885 C 1066.38 -2.76421 -0.220569 0
M  V30 10886 H 1069.33 -1.54897 0.345361 0
M  V30 10887 H 1069.35 -3.45284 -1.59872 0
M  V30 10888 H 1068.86 -3.87701 0.176036 0
M  V30 10889 H 1066.96 -3.04625 -2.14556 0
M  V30 10890 H 1067.07 -4.64952 -1.1557 0
M  V30 10891 H 1065.44 -2.44666 -0.707857 0
M  V30 10892 H 1066.22 -3.36294 0.690018 0
M  V30 10893 N 1068.67 0.153526 -1.5685 0
M  V30 10894 C 1069.6 1.21906 -1.9291 0
M  V30 10895 C 1070.58 1.4189 -0.794098 0
M  V30 10896 O 1071.76 1.56609 -1.0491 0
M  V30 10897 C 1068.89 2.57908 -2.19548 0
M  V30 10898 C 1067.93 2.54557 -3.42203 0
M  V30 10899 S 1068.77 2.01891 -4.95984 0
M  V30 10900 C 1069.92 3.39635 -5.25737 0
M  V30 10901 H 1070.16 0.911382 -2.82986 0
M  V30 10902 H 1067.69 0.358863 -1.50172 0
M  V30 10903 H 1069.65 3.36177 -2.35575 0
M  V30 10904 H 1068.31 2.85868 -1.30147 0
M  V30 10905 H 1067.5 3.54657 -3.58098 0
M  V30 10906 H 1067.1 1.84393 -3.25385 0
M  V30 10907 H 1069.4 4.35716 -5.18804 0
M  V30 10908 H 1070.34 3.28599 -6.27239 0
M  V30 10909 H 1070.75 3.36469 -4.53265 0
M  V30 10910 N 1070.14 1.51827 0.422667 0
M  V30 10911 C 1071.09 1.74198 1.51406 0
M  V30 10912 C 1072.06 0.584013 1.55494 0
M  V30 10913 O 1073.25 0.820079 1.72277 0
M  V30 10914 C 1070.39 1.88627 2.88988 0
M  V30 10915 C 1069.5 3.16233 2.94314 0
M  V30 10916 C 1068.63 3.21172 4.2311 0
M  V30 10917 C 1067.67 4.43033 4.2236 0
M  V30 10918 N 1066.81 4.4544 5.42704 0
M  V30 10919 H 1071.65 2.67352 1.31632 0
M  V30 10920 H 1069.19 1.32487 0.63919 0
M  V30 10921 H 1071.15 1.94976 3.68837 0
M  V30 10922 H 1069.78 0.988673 3.07287 0
M  V30 10923 H 1068.83 3.19123 2.07039 0
M  V30 10924 H 1070.14 4.06104 2.89623 0
M  V30 10925 H 1069.29 3.26517 5.11343 0
M  V30 10926 H 1068.03 2.29216 4.30478 0
M  V30 10927 H 1067.04 4.37849 3.32518 0
M  V30 10928 H 1068.26 5.3627 4.16643 0
M  V30 10929 H 1066.21 3.56361 5.50766 0
M  V30 10930 H 1066.13 5.29138 5.39953 0
M  V30 10931 H 1067.39 4.54997 6.32928 0
M  V30 10932 N 1071.62 -0.679052 1.4222 0
M  V30 10933 C 1072.57 -1.79269 1.45366 0
M  V30 10934 C 1073.54 -1.63255 0.306089 0
M  V30 10935 O 1074.72 -1.8387 0.509548 0
M  V30 10936 C 1071.86 -3.17272 1.35766 0
M  V30 10937 C 1070.98 -3.44603 2.60525 0
M  V30 10938 C 1070.11 -4.7231 2.43098 0
M  V30 10939 C 1069.15 -4.92661 3.63251 0
M  V30 10940 N 1068.29 -6.11606 3.44794 0
M  V30 10941 H 1073.13 -1.75916 2.40536 0
M  V30 10942 H 1070.67 -0.858836 1.19425 0
M  V30 10943 H 1072.62 -3.97015 1.282 0
M  V30 10944 H 1071.25 -3.1976 0.441939 0
M  V30 10945 H 1070.31 -2.59144 2.78475 0
M  V30 10946 H 1071.62 -3.55536 3.49851 0
M  V30 10947 H 1070.77 -5.60136 2.33093 0
M  V30 10948 H 1069.51 -4.63652 1.51255 0
M  V30 10949 H 1068.52 -4.03278 3.73693 0
M  V30 10950 H 1069.74 -5.03167 4.5607 0
M  V30 10951 H 1067.69 -6.04129 2.55663 0
M  V30 10952 H 1067.6 -6.23381 4.27705 0
M  V30 10953 H 1068.87 -7.02122 3.38592 0
M  V30 10954 N 1073.1 -1.28322 -0.914942 0
M  V30 10955 C 1074.05 -1.12003 -2.03858 0
M  V30 10956 C 1075.04 -0.0396287 -1.69354 0
M  V30 10957 O 1076.25 -0.198309 -1.78904 0
M  V30 10958 H 1072.62 -0.34552 -0.667922 0
M  V30 10959 H 1074.59 -2.07168 -2.14765 0
M  V30 10960 C 1073.34 -0.797402 -3.38433 0
M  V30 10961 H 1072.67 -1.62071 -3.65476 0
M  V30 10962 H 1074.11 -0.723165 -4.17787 0
M  V30 10963 C 1072.57 0.498807 -3.33187 0
M  V30 10964 O 1073.1 1.52946 -3.71444 0
M  V30 10965 N 1071.3 0.499101 -2.86282 0
M  V30 10966 H 1070.85 -0.340056 -2.55346 0
M  V30 10967 H 1070.81 1.36641 -2.83155 0
M  V30 10968 N 1074.58 1.12322 -1.10551 0
M  V30 10969 C 1075.54 2.16273 -0.758844 0
M  V30 10970 C 1076.54 1.59325 0.217294 0
M  V30 10971 O 1077.73 1.74199 -0.00601346 0
M  V30 10972 C 1074.86 3.40674 -0.124238 0
M  V30 10973 H 1076.06 2.48454 -1.6796 0
M  V30 10974 H 1073.61 1.2735 -0.906188 0
M  V30 10975 H 1074.34 3.14094 0.807194 0
M  V30 10976 H 1074.13 3.83284 -0.826772 0
M  V30 10977 H 1075.62 4.17474 0.102502 0
M  V30 10978 N 1076.06 0.894434 1.2976 0
M  V30 10979 C 1076.99 0.325525 2.26877 0
M  V30 10980 C 1078 -0.525218 1.54095 0
M  V30 10981 O 1079.19 -0.343231 1.75169 0
M  V30 10982 C 1076.29 -0.554952 3.34325 0
M  V30 10983 C 1075.46 0.268868 4.36573 0
M  V30 10984 C 1074.52 -0.543601 5.23385 0
M  V30 10985 O 1073.55 0.0370454 5.69188 0
M  V30 10986 N 1074.75 -1.85079 5.50205 0
M  V30 10987 H 1077.52 1.16021 2.76332 0
M  V30 10988 H 1075.08 0.758382 1.43039 0
M  V30 10989 H 1077.07 -1.10476 3.89329 0
M  V30 10990 H 1075.64 -1.29031 2.84727 0
M  V30 10991 H 1074.86 1.0001 3.81302 0
M  V30 10992 H 1076.15 0.833248 5.01931 0
M  V30 10993 H 1075.54 -2.34533 5.14792 0
M  V30 10994 H 1074.1 -2.34784 6.08046 0
M  V30 10995 N 1077.53 -1.43282 0.656365 0
M  V30 10996 C 1078.78 -2.00996 0.168354 0
M  V30 10997 C 1079.1 -1.52408 -1.22601 0
M  V30 10998 O 1080.3 -2.02417 -1.80941 0
M  V30 10999 C 1078.76 -3.5903 0.250161 0
M  V30 11000 C 1078.37 -4.1661 1.64742 0
M  V30 11001 C 1080.11 -4.24118 -0.180084 0
M  V30 11002 C 1078.02 -5.66948 1.68299 0
M  V30 11003 H 1076.95 -0.751674 0.0591769 0
M  V30 11004 H 1079.6 -1.64216 0.818859 0
M  V30 11005 H 1077.98 -3.93226 -0.467908 0
M  V30 11006 H 1079.15 -3.93908 2.3911 0
M  V30 11007 H 1077.47 -3.63905 2.02391 0
M  V30 11008 H 1080.07 -5.34419 -0.173401 0
M  V30 11009 H 1080.41 -3.98264 -1.21208 0
M  V30 11010 H 1080.94 -3.94816 0.486343 0
M  V30 11011 H 1077.68 -5.97573 2.69419 0
M  V30 11012 H 1077.2 -5.91697 0.98261 0
M  V30 11013 H 1078.88 -6.31041 1.42813 0
M  V30 11014 N 1079.01 -0.398486 -1.52479 0
M  V30 11015 C 1080.26 0.180394 -2.01293 0
M  V30 11016 C 1080.58 1.46548 -1.28641 0
M  V30 11017 O 1079.85 1.91579 -0.409173 0
M  V30 11018 H 1078.43 0.0696528 -0.743746 0
M  V30 11019 H 1081.09 -0.532285 -1.87491 0
M  V30 11020 H 1080.19 0.38409 -3.09728 0
M  V30 11021 N 1080.49 1.57075 -0.12858 0
M  V30 11022 C 1081.74 1.94695 0.526952 0
M  V30 11023 C 1082.05 1.01482 1.67215 0
M  V30 11024 O 1083.26 1.28606 2.39108 0
M  V30 11025 C 1081.72 3.4605 0.988801 0
M  V30 11026 C 1081.32 4.47816 -0.128457 0
M  V30 11027 C 1083.07 3.92572 1.61517 0
M  V30 11028 C 1080.97 5.9036 0.350628 0
M  V30 11029 H 1079.9 0.726819 0.200623 0
M  V30 11030 H 1082.56 1.82295 -0.209972 0
M  V30 11031 H 1080.94 3.53718 1.78043 0
M  V30 11032 H 1082.11 4.51826 -0.904976 0
M  V30 11033 H 1080.43 4.11103 -0.662075 0
M  V30 11034 H 1083.02 4.96493 1.98491 0
M  V30 11035 H 1083.37 3.33085 2.49721 0
M  V30 11036 H 1083.9 3.87744 0.888768 0
M  V30 11037 H 1080.64 6.53624 -0.495592 0
M  V30 11038 H 1080.16 5.89749 1.09342 0
M  V30 11039 H 1081.84 6.41926 0.808717 0
M  V30 11040 N 1081.97 -0.145205 1.5693 0
M  V30 11041 C 1082.93 -1.16316 1.97492 0
M  V30 11042 C 1083.93 -1.35764 0.861668 0
M  V30 11043 O 1085.12 -1.32726 1.12825 0
M  V30 11044 C 1082.25 -2.52311 2.29242 0
M  V30 11045 H 1083.45 -0.815138 2.8861 0
M  V30 11046 H 1081 -0.38861 1.51392 0
M  V30 11047 H 1081.74 -2.92081 1.40922 0
M  V30 11048 H 1081.52 -2.39555 3.10412 0
M  V30 11049 H 1083.01 -3.25624 2.61456 0
M  V30 11050 N 1083.45 -1.52049 -0.414609 0
M  V30 11051 C 1084.38 -1.69712 -1.52555 0
M  V30 11052 C 1085.36 -0.544681 -1.53206 0
M  V30 11053 O 1086.54 -0.771358 -1.71995 0
M  V30 11054 C 1083.67 -1.73145 -2.91099 0
M  V30 11055 C 1082.72 -2.94624 -3.08382 0
M  V30 11056 S 1083.55 -4.55062 -2.82274 0
M  V30 11057 C 1084.7 -4.61274 -4.23057 0
M  V30 11058 H 1084.94 -2.63675 -1.37342 0
M  V30 11059 H 1082.47 -1.42018 -0.605824 0
M  V30 11060 H 1084.43 -1.75808 -3.70947 0
M  V30 11061 H 1083.09 -0.803198 -3.03657 0
M  V30 11062 H 1082.28 -2.93492 -4.0973 0
M  V30 11063 H 1081.88 -2.8982 -2.36391 0
M  V30 11064 H 1084.18 -4.38313 -5.16612 0
M  V30 11065 H 1085.12 -5.63188 -4.29214 0
M  V30 11066 H 1085.53 -3.90361 -4.07773 0
M  V30 11067 N 1084.93 0.6715 -1.42579 0
M  V30 11068 C 1085.86 1.79693 -1.49107 0
M  V30 11069 C 1086.84 1.66516 -0.347338 0
M  V30 11070 O 1088.02 1.85887 -0.562094 0
M  V30 11071 C 1085.15 3.1801 -1.39596 0
M  V30 11072 C 1084.11 3.45926 -2.5203 0
M  V30 11073 C 1083.43 4.83852 -2.27577 0
M  V30 11074 C 1084.73 3.4249 -3.94333 0
M  V30 11075 H 1086.43 1.74486 -2.433 0
M  V30 11076 H 1083.97 0.838042 -1.17102 0
M  V30 11077 H 1085.92 3.96478 -1.42771 0
M  V30 11078 H 1084.65 3.23901 -0.418989 0
M  V30 11079 H 1083.31 2.6982 -2.48178 0
M  V30 11080 H 1082.96 4.86398 -1.28165 0
M  V30 11081 H 1082.66 5.03493 -3.02934 0
M  V30 11082 H 1084.18 5.646 -2.32506 0
M  V30 11083 H 1085.59 4.10922 -3.9977 0
M  V30 11084 H 1083.99 3.73666 -4.69568 0
M  V30 11085 H 1085.06 2.41002 -4.20768 0
M  V30 11086 N 1086.4 1.28806 0.908124 0
M  V30 11087 C 1087.65 1.1646 1.66027 0
M  V30 11088 C 1087.98 -0.285025 1.92097 0
M  V30 11089 O 1087.26 -1.20675 1.52538 0
M  V30 11090 C 1087.54 1.96951 3.01467 0
M  V30 11091 C 1087.39 3.50007 2.82515 0
M  V30 11092 C 1088.71 1.78932 4.02084 0
M  V30 11093 H 1085.83 0.424435 0.602515 0
M  V30 11094 H 1088.47 1.58185 1.0525 0
M  V30 11095 H 1086.62 1.61495 3.53344 0
M  V30 11096 H 1088.3 3.95401 2.37605 0
M  V30 11097 H 1086.54 3.75356 2.17463 0
M  V30 11098 H 1087.21 4.01591 3.7872 0
M  V30 11099 H 1089.69 2.09885 3.59287 0
M  V30 11100 H 1088.56 2.37615 4.94803 0
M  V30 11101 H 1088.82 0.742286 4.35824 0
M  V30 11102 N 1087.88 -1.11734 1.11145 0
M  V30 11103 C 1089.11 -1.87755 0.881062 0
M  V30 11104 C 1089.53 -1.79461 -0.563496 0
M  V30 11105 O 1088.89 -1.15481 -1.39763 0
M  V30 11106 C 1088.94 -3.34641 1.34342 0
M  V30 11107 O 1088.04 -4.09195 0.513157 0
M  V30 11108 H 1087.38 -0.583111 0.317613 0
M  V30 11109 H 1089.91 -1.41256 1.48013 0
M  V30 11110 H 1089.92 -3.85486 1.33658 0
M  V30 11111 H 1088.6 -3.39994 2.39534 0
M  V30 11112 H 1087.17 -3.68269 0.585833 0
M  V30 11113 N 1089.36 -0.901303 -1.29284 0
M  V30 11114 C 1090.61 -0.528826 -1.95784 0
M  V30 11115 C 1090.94 0.922833 -1.70873 0
M  V30 11116 O 1090.21 1.65448 -1.0226 0
M  V30 11117 C 1090.5 -0.823793 -3.50551 0
M  V30 11118 C 1090.35 -2.32727 -3.84913 0
M  V30 11119 C 1091.67 -0.311382 -4.38997 0
M  V30 11120 H 1088.79 -0.193604 -0.711116 0
M  V30 11121 H 1091.43 -1.12828 -1.52872 0
M  V30 11122 H 1089.58 -0.313612 -3.87232 0
M  V30 11123 H 1091.25 -2.90712 -3.58168 0
M  V30 11124 H 1089.49 -2.78735 -3.32399 0
M  V30 11125 H 1090.17 -2.48423 -4.9294 0
M  V30 11126 H 1092.64 -0.748265 -4.09317 0
M  V30 11127 H 1091.52 -0.546957 -5.46168 0
M  V30 11128 H 1091.78 0.787959 -4.35021 0
M  V30 11129 N 1090.84 1.42931 -0.663954 0
M  V30 11130 C 1092.09 2.01284 -0.181379 0
M  V30 11131 C 1092.41 1.52708 1.21265 0
M  V30 11132 O 1091.68 0.744181 1.81215 0
M  V30 11133 H 1090.26 0.744248 -0.0640646 0
M  V30 11134 H 1092.92 1.74997 -0.858031 0
M  V30 11135 H 1092.01 3.11613 -0.174273 0
M  V30 11136 N 1092.32 0.406567 1.52266 0
M  V30 11137 C 1093.26 -0.43489 2.28498 0
M  V30 11138 C 1094.26 -1.04806 1.33086 0
M  V30 11139 O 1095.46 -0.986557 1.50556 0
M  V30 11140 H 1091.84 -0.159023 0.734994 0
M  V30 11141 H 1093.81 0.229316 2.97518 0
M  V30 11142 C 1092.56 -1.54073 3.117 0
M  V30 11143 H 1091.88 -1.07824 3.84986 0
M  V30 11144 H 1093.32 -2.10337 3.6815 0
M  V30 11145 C 1091.78 -2.50662 2.251 0
M  V30 11146 O 1092.31 -3.54486 1.88951 0
M  V30 11147 N 1090.52 -2.20811 1.8892 0
M  V30 11148 H 1090.06 -1.36413 2.18516 0
M  V30 11149 H 1090.02 -2.85684 1.3127 0
M  V30 11150 N 1093.79 -1.57004 0.136909 0
M  V30 11151 C 1094.72 -2.19262 -0.802902 0
M  V30 11152 C 1095.71 -1.13786 -1.26439 0
M  V30 11153 O 1096.89 -1.42091 -1.32377 0
M  V30 11154 C 1094.02 -2.80624 -2.04615 0
M  V30 11155 C 1092.97 -3.91839 -1.72181 0
M  V30 11156 C 1092.3 -4.4009 -3.03686 0
M  V30 11157 C 1093.6 -5.13095 -0.976249 0
M  V30 11158 H 1095.29 -2.98049 -0.28406 0
M  V30 11159 H 1092.84 -1.43364 -0.135189 0
M  V30 11160 H 1094.79 -3.22842 -2.70834 0
M  V30 11161 H 1093.52 -1.99153 -2.58855 0
M  V30 11162 H 1092.18 -3.50224 -1.08344 0
M  V30 11163 H 1091.82 -3.55454 -3.55896 0
M  V30 11164 H 1091.52 -5.15098 -2.82751 0
M  V30 11165 H 1093.05 -4.84971 -3.70993 0
M  V30 11166 H 1094.46 -5.5222 -1.54033 0
M  V30 11167 H 1092.86 -5.93801 -0.867214 0
M  V30 11168 H 1093.93 -4.84888 0.0338488 0
M  V30 11169 N 1095.27 0.136881 -1.57004 0
M  V30 11170 C 1096.18 1.18793 -2.023 0
M  V30 11171 C 1097.2 1.46412 -0.94018 0
M  V30 11172 O 1098.37 1.57883 -1.2504 0
M  V30 11173 C 1095.44 2.49903 -2.40311 0
M  V30 11174 C 1094.5 2.29841 -3.6259 0
M  V30 11175 C 1093.73 3.54699 -3.98779 0
M  V30 11176 O 1093.96 4.61291 -3.3551 0
M  V30 11177 O 1092.89 3.46761 -4.91976 0
M  V30 11178 H 1096.72 0.833345 -2.92043 0
M  V30 11179 H 1094.3 0.346361 -1.4533 0
M  V30 11180 H 1096.18 3.27183 -2.65574 0
M  V30 11181 H 1094.86 2.84872 -1.5372 0
M  V30 11182 H 1093.77 1.50478 -3.42501 0
M  V30 11183 H 1095.1 1.99784 -4.4983 0
M  V30 11184 N 1096.75 1.52266 0.40654 0
M  V30 11185 C 1097.66 1.78688 1.52012 0
M  V30 11186 C 1098.68 0.6726 1.60475 0
M  V30 11187 O 1099.85 0.95829 1.77141 0
M  V30 11188 C 1096.92 1.93434 2.87722 0
M  V30 11189 C 1095.98 3.17341 2.89125 0
M  V30 11190 C 1095.21 3.31374 4.18362 0
M  V30 11191 O 1095.43 2.50613 5.12396 0
M  V30 11192 O 1094.37 4.24539 4.26674 0
M  V30 11193 H 1098.19 2.73213 1.3262 0
M  V30 11194 H 1095.78 1.37142 0.592653 0
M  V30 11195 H 1097.66 2.04941 3.68208 0
M  V30 11196 H 1096.34 1.02099 3.07177 0
M  V30 11197 H 1095.24 3.1129 2.07483 0
M  V30 11198 H 1096.58 4.08466 2.7462 0
M  V30 11199 N 1098.23 -0.663929 1.42933 0
M  V30 11200 C 1099.19 -1.75899 1.46943 0
M  V30 11201 C 1100.19 -1.5682 0.355535 0
M  V30 11202 O 1101.38 -1.62914 0.616833 0
M  V30 11203 C 1098.51 -3.14657 1.31164 0
M  V30 11204 H 1099.71 -1.73727 2.44456 0
M  V30 11205 H 1097.26 -0.874587 1.2954 0
M  V30 11206 H 1097.99 -3.22447 0.346165 0
M  V30 11207 H 1097.78 -3.29909 2.11902 0
M  V30 11208 H 1099.27 -3.9453 1.36878 0
M  V30 11209 N 1099.71 -1.29285 -0.901281 0
M  V30 11210 C 1100.95 -1.16934 -1.64836 0
M  V30 11211 C 1101.28 0.279826 -1.92982 0
M  V30 11212 O 1100.55 1.19179 -1.55478 0
M  V30 11213 H 1099.13 -0.429768 -0.61099 0
M  V30 11214 H 1101.79 -1.62189 -1.08077 0
M  V30 11215 H 1100.88 -1.71821 -2.60545 0
M  V30 11216 N 1101.18 1.11143 -1.11736 0
M  V30 11217 C 1102.09 2.20851 -0.791331 0
M  V30 11218 C 1103.11 1.72644 0.216833 0
M  V30 11219 O 1104.29 2.01332 0.0522401 0
M  V30 11220 C 1101.35 3.4585 -0.242694 0
M  V30 11221 C 1100.41 4.08829 -1.30986 0
M  V30 11222 C 1099.65 5.27861 -0.787305 0
M  V30 11223 O 1099.87 5.69122 0.381549 0
M  V30 11224 O 1098.8 5.81506 -1.55352 0
M  V30 11225 H 1102.63 2.51158 -1.70744 0
M  V30 11226 H 1100.21 1.19739 -0.893478 0
M  V30 11227 H 1102.1 4.21359 0.0587472 0
M  V30 11228 H 1100.77 3.17187 0.646079 0
M  V30 11229 H 1099.68 3.35037 -1.66436 0
M  V30 11230 H 1101.01 4.41678 -2.17213 0
M  V30 11231 N 1102.66 0.908147 1.28804 0
M  V30 11232 C 1103.89 0.553431 1.9988 0
M  V30 11233 C 1104.31 -0.856714 1.67458 0
M  V30 11234 O 1103.67 -1.57163 0.903849 0
M  V30 11235 C 1103.72 0.762688 3.52442 0
M  V30 11236 O 1102.82 -0.180924 4.12003 0
M  V30 11237 H 1102.16 0.215237 0.628147 0
M  V30 11238 H 1104.69 1.22205 1.64095 0
M  V30 11239 H 1104.7 0.670612 4.02451 0
M  V30 11240 H 1103.38 1.79071 3.75375 0
M  V30 11241 H 1101.96 -0.0405897 3.72878 0
M  V30 11242 N 1104.14 -1.42577 0.671525 0
M  V30 11243 C 1105.39 -2.01882 0.192716 0
M  V30 11244 C 1105.72 -1.52959 -1.19654 0
M  V30 11245 O 1104.99 -0.730404 -1.80265 0
M  V30 11246 C 1105.28 -3.59404 0.223734 0
M  V30 11247 C 1105.13 -4.18514 1.64821 0
M  V30 11248 C 1106.45 -4.37996 -0.429858 0
M  V30 11249 H 1103.57 -0.733523 0.0715026 0
M  V30 11250 H 1106.21 -1.69641 0.855689 0
M  V30 11251 H 1104.36 -3.87003 -0.340776 0
M  V30 11252 H 1106.03 -4.01881 2.26472 0
M  V30 11253 H 1104.28 -3.74467 2.1899 0
M  V30 11254 H 1104.95 -5.27643 1.62162 0
M  V30 11255 H 1107.42 -4.16069 0.0506433 0
M  V30 11256 H 1106.3 -5.476 -0.377503 0
M  V30 11257 H 1106.56 -4.15625 -1.50693 0
M  V30 11258 N 1105.62 -0.414636 -1.52048 0
M  V30 11259 C 1106.84 0.161137 -2.06773 0
M  V30 11260 C 1107.27 1.37628 -1.2822 0
M  V30 11261 O 1106.63 1.78562 -0.313915 0
M  V30 11262 C 1106.67 0.48452 -3.5733 0
M  V30 11263 O 1105.78 1.57466 -3.81154 0
M  V30 11264 H 1105.12 0.0118003 -0.663895 0
M  V30 11265 H 1107.65 -0.589424 -1.95926 0
M  V30 11266 H 1107.66 0.741567 -4.01204 0
M  V30 11267 H 1106.33 -0.403733 -4.13936 0
M  V30 11268 H 1104.91 1.30935 -3.49157 0
M  V30 11269 N 1107.1 1.56929 -0.145233 0
M  V30 11270 C 1108.34 1.96068 0.50632 0
M  V30 11271 C 1108.67 1.02999 1.64989 0
M  V30 11272 O 1107.93 0.0588581 1.95611 0
M  V30 11273 C 1108.23 3.41467 1.05522 0
M  V30 11274 C 1107.89 4.5089 0.0302827 0
M  V30 11275 C 1106.55 4.80542 -0.251475 0
M  V30 11276 C 1108.91 5.16917 -0.666783 0
M  V30 11277 C 1106.23 5.7353 -1.23614 0
M  V30 11278 C 1108.59 6.10965 -1.64025 0
M  V30 11279 C 1107.25 6.38998 -1.92973 0
M  V30 11280 H 1106.52 0.717464 0.185276 0
M  V30 11281 H 1109.17 1.90093 -0.23169 0
M  V30 11282 H 1107.47 3.44265 1.87053 0
M  V30 11283 H 1109.17 3.69077 1.5679 0
M  V30 11284 H 1105.76 4.2781 0.260069 0
M  V30 11285 H 1109.94 4.94142 -0.462297 0
M  V30 11286 H 1105.2 5.93543 -1.46687 0
M  V30 11287 H 1109.37 6.61204 -2.18591 0
M  V30 11288 H 1107 7.10855 -2.69423 0
M  V30 11289 N 1108.58 -0.128553 1.57075 0
M  V30 11290 C 1109.51 -1.18362 1.96273 0
M  V30 11291 C 1110.52 -1.3818 0.860818 0
M  V30 11292 O 1111.71 -1.37424 1.13916 0
M  V30 11293 C 1108.81 -2.54533 2.23755 0
M  V30 11294 C 1107.98 -2.55446 3.55058 0
M  V30 11295 C 1107.04 -3.73291 3.70864 0
M  V30 11296 O 1106.07 -3.57315 4.43074 0
M  V30 11297 N 1107.27 -4.91481 3.08912 0
M  V30 11298 H 1110.03 -0.850276 2.87385 0
M  V30 11299 H 1107.6 -0.317931 1.58748 0
M  V30 11300 H 1109.59 -3.31912 2.31553 0
M  V30 11301 H 1108.16 -2.80087 1.38816 0
M  V30 11302 H 1107.38 -1.6385 3.58534 0
M  V30 11303 H 1108.67 -2.53104 4.4138 0
M  V30 11304 H 1108.06 -5.07364 2.50196 0
M  V30 11305 H 1106.62 -5.6657 3.22245 0
M  V30 11306 N 1110.05 -1.5248 -0.398459 0
M  V30 11307 C 1110.98 -1.79549 -1.49279 0
M  V30 11308 C 1111.96 -0.647004 -1.57315 0
M  V30 11309 O 1113.15 -0.893661 -1.72416 0
M  V30 11310 C 1110.28 -1.95582 -2.86993 0
M  V30 11311 C 1109.23 -3.1123 -2.93803 0
M  V30 11312 C 1108.56 -3.12501 -4.33874 0
M  V30 11313 C 1109.86 -4.50485 -2.64312 0
M  V30 11314 H 1111.55 -2.71187 -1.26877 0
M  V30 11315 H 1109.1 -1.30492 -0.608924 0
M  V30 11316 H 1111.05 -2.13102 -3.63546 0
M  V30 11317 H 1109.78 -1.00625 -3.10712 0
M  V30 11318 H 1108.44 -2.93477 -2.19697 0
M  V30 11319 H 1108.08 -2.15245 -4.54619 0
M  V30 11320 H 1107.78 -3.90183 -4.39353 0
M  V30 11321 H 1109.31 -3.32164 -5.12347 0
M  V30 11322 H 1110.72 -4.68387 -3.30585 0
M  V30 11323 H 1109.12 -5.30163 -2.81153 0
M  V30 11324 H 1110.19 -4.57848 -1.59696 0
M  V30 11325 N 1111.53 0.65634 -1.43283 0
M  V30 11326 C 1112.46 1.78184 -1.44164 0
M  V30 11327 C 1113.48 1.59249 -0.338177 0
M  V30 11328 O 1114.67 1.68027 -0.60242 0
M  V30 11329 C 1111.77 3.15566 -1.23577 0
M  V30 11330 C 1110.94 3.61187 -2.46704 0
M  V30 11331 C 1110 4.77361 -2.21388 0
M  V30 11332 O 1109.02 4.8696 -2.94718 0
M  V30 11333 N 1110.23 5.67351 -1.22855 0
M  V30 11334 H 1112.99 1.77907 -2.41183 0
M  V30 11335 H 1110.55 0.840076 -1.38399 0
M  V30 11336 H 1112.54 3.90968 -1.04529 0
M  V30 11337 H 1111.11 3.10633 -0.350155 0
M  V30 11338 H 1110.33 2.76263 -2.81198 0
M  V30 11339 H 1111.62 3.88413 -3.28652 0
M  V30 11340 H 1111.02 5.62265 -0.622417 0
M  V30 11341 H 1109.58 6.42487 -1.09791 0
M  V30 11342 N 1113.01 1.29761 0.894412 0
M  V30 11343 C 1114.26 1.17409 1.64006 0
M  V30 11344 C 1114.57 -0.272355 1.93695 0
M  V30 11345 O 1115.78 -0.517269 2.66527 0
M  V30 11346 C 1114.23 2.05379 2.95546 0
M  V30 11347 C 1113.84 3.54878 2.73433 0
M  V30 11348 C 1115.59 2.01765 3.73485 0
M  V30 11349 C 1113.49 4.34935 4.00731 0
M  V30 11350 H 1112.42 0.43583 0.615279 0
M  V30 11351 H 1115.07 1.5444 0.990983 0
M  V30 11352 H 1113.46 1.61222 3.61695 0
M  V30 11353 H 1114.63 4.07122 2.15844 0
M  V30 11354 H 1112.94 3.60218 2.08882 0
M  V30 11355 H 1115.54 2.58835 4.67877 0
M  V30 11356 H 1115.88 0.998876 4.04139 0
M  V30 11357 H 1116.42 2.43994 3.14184 0
M  V30 11358 H 1113.16 5.3747 3.75241 0
M  V30 11359 H 1112.68 3.87458 4.5786 0
M  V30 11360 H 1114.36 4.45875 4.68833 0
M  V30 11361 N 1114.49 -1.10549 1.12324 0
M  V30 11362 C 1115.9 -1.34508 0.85905 0
M  V30 11363 C 1116.1 -1.94901 -0.511468 0
M  V30 11364 O 1115.16 -2.18793 -1.2604 0
M  V30 11365 C 1116.47 -2.26788 1.97453 0
M  V30 11366 C 1118.02 -2.40328 2.00528 0
M  V30 11367 C 1118.5 -3.35936 3.11305 0
M  V30 11368 N 1119.99 -3.43504 3.1074 0
M  V30 11369 C 1120.72 -4.17449 3.93096 0
M  V30 11370 N 1120.22 -4.9429 4.85437 0
M  V30 11371 N 1122.01 -4.13055 3.81237 0
M  V30 11372 H 1114.16 -0.697171 2.00632 0
M  V30 11373 H 1116.42 -0.369548 0.873005 0
M  V30 11374 H 1116.13 -1.89621 2.96204 0
M  V30 11375 H 1116 -3.27086 1.87869 0
M  V30 11376 H 1118.39 -2.76765 1.02397 0
M  V30 11377 H 1118.47 -1.39849 2.14186 0
M  V30 11378 H 1118.12 -3.00225 4.09667 0
M  V30 11379 H 1118.05 -4.36291 2.94886 0
M  V30 11380 H 1120.54 -2.88702 2.43843 0
M  V30 11381 H 1120.85 -5.48109 5.4479 0
M  V30 11382 H 1119.2 -4.93419 4.89452 0
M  V30 11383 H 1122.39 -3.52117 3.08433 0
M  V30 11384 H 1122.56 -4.70424 4.45651 0
M  V30 11385 N 1115.97 -0.914965 -1.28321 0
M  V30 11386 C 1117.19 -0.564023 -1.99583 0
M  V30 11387 C 1117.62 0.847821 -1.6791 0
M  V30 11388 O 1116.97 1.56682 -0.912171 0
M  V30 11389 C 1117.02 -0.781368 -3.52033 0
M  V30 11390 O 1116.13 0.159072 -4.12093 0
M  V30 11391 H 1115.47 -0.218565 -0.626997 0
M  V30 11392 H 1118 -1.23074 -1.63444 0
M  V30 11393 H 1118.01 -0.691946 -4.0209 0
M  V30 11394 H 1116.68 -1.81059 -3.7442 0
M  V30 11395 H 1115.26 0.0208145 -3.72894 0
M  V30 11396 N 1117.44 1.42219 -0.679077 0
M  V30 11397 C 1118.39 2.308 -0.00340316 0
M  V30 11398 C 1119.36 1.462 0.788334 0
M  V30 11399 O 1120.55 1.75023 0.759716 0
M  V30 11400 C 1117.69 3.32084 0.938854 0
M  V30 11401 C 1116.8 4.31772 0.140485 0
M  V30 11402 C 1115.93 5.20128 1.07888 0
M  V30 11403 C 1114.97 6.11493 0.27245 0
M  V30 11404 N 1114.11 6.92388 1.16378 0
M  V30 11405 H 1118.95 2.88024 -0.764587 0
M  V30 11406 H 1116.49 1.41869 -0.38878 0
M  V30 11407 H 1118.44 3.89339 1.49903 0
M  V30 11408 H 1117.07 2.76448 1.66662 0
M  V30 11409 H 1116.13 3.76599 -0.536376 0
M  V30 11410 H 1117.44 4.96432 -0.485433 0
M  V30 11411 H 1116.59 5.82137 1.70884 0
M  V30 11412 H 1115.33 4.55655 1.73868 0
M  V30 11413 H 1114.34 5.48549 -0.370693 0
M  V30 11414 H 1115.56 6.78017 -0.383315 0
M  V30 11415 H 1113.51 6.30538 1.8099 0
M  V30 11416 H 1113.42 7.5367 0.593043 0
M  V30 11417 H 1114.69 7.58879 1.78107 0
M  V30 11418 N 1118.92 0.422693 1.51826 0
M  V30 11419 C 1119.87 -0.41063 2.28947 0
M  V30 11420 C 1120.86 -1.03389 1.34191 0
M  V30 11421 O 1122.07 -0.970533 1.51594 0
M  V30 11422 H 1118.44 -0.151219 0.736639 0
M  V30 11423 H 1120.42 0.260859 2.97258 0
M  V30 11424 C 1119.16 -1.50758 3.13317 0
M  V30 11425 H 1118.49 -1.03734 3.86108 0
M  V30 11426 H 1119.93 -2.0642 3.7036 0
M  V30 11427 C 1118.39 -2.48261 2.27746 0
M  V30 11428 O 1118.92 -3.52462 1.92701 0
M  V30 11429 N 1117.12 -2.18795 1.91251 0
M  V30 11430 H 1116.67 -1.34088 2.1995 0
M  V30 11431 H 1116.63 -2.84276 1.34293 0
M  V30 11432 N 1120.4 -1.5685 0.153553 0
M  V30 11433 C 1121.62 -2.01135 -0.505904 0
M  V30 11434 C 1122.05 -1.03301 -1.57196 0
M  V30 11435 O 1121.41 -0.00976022 -1.81297 0
M  V30 11436 C 1121.46 -3.44129 -1.0774 0
M  V30 11437 O 1120.56 -3.49318 -2.19205 0
M  V30 11438 H 1119.9 -0.652496 -0.123062 0
M  V30 11439 H 1122.43 -2.03039 0.252216 0
M  V30 11440 H 1122.44 -3.83066 -1.40444 0
M  V30 11441 H 1121.12 -4.1484 -0.296754 0
M  V30 11442 H 1119.69 -3.22227 -1.8768 0
M  V30 11443 N 1121.88 0.120221 -1.57141 0
M  V30 11444 C 1122.81 1.1732 -1.96898 0
M  V30 11445 C 1123.82 1.37722 -0.868134 0
M  V30 11446 O 1125.01 1.36818 -1.14643 0
M  V30 11447 C 1122.11 2.53343 -2.25102 0
M  V30 11448 C 1121.28 2.53559 -3.56408 0
M  V30 11449 C 1120.34 3.71319 -3.72838 0
M  V30 11450 O 1119.37 3.54961 -4.44962 0
M  V30 11451 N 1120.57 4.89836 -3.11514 0
M  V30 11452 H 1123.34 0.835023 -2.87832 0
M  V30 11453 H 1120.9 0.309508 -1.58914 0
M  V30 11454 H 1122.89 3.30679 -2.3331 0
M  V30 11455 H 1121.46 2.79347 -1.403 0
M  V30 11456 H 1120.68 1.61946 -3.59398 0
M  V30 11457 H 1121.97 2.5076 -4.42716 0
M  V30 11458 H 1121.37 5.0603 -2.52884 0
M  V30 11459 H 1119.92 5.64853 -3.25246 0
M  V30 11460 N 1123.36 1.52689 0.390367 0
M  V30 11461 C 1124.3 1.78007 1.4972 0
M  V30 11462 C 1125.3 0.647948 1.56518 0
M  V30 11463 O 1126.5 0.830398 1.59701 0
M  V30 11464 H 1122.88 0.56322 0.498284 0
M  V30 11465 H 1124.85 2.70698 1.25559 0
M  V30 11466 C 1123.6 1.96469 2.86872 0
M  V30 11467 H 1122.92 2.83012 2.82391 0
M  V30 11468 H 1124.36 2.18174 3.6356 0
M  V30 11469 C 1122.82 0.736847 3.28743 0
M  V30 11470 O 1123.35 -0.0863743 4.01607 0
M  V30 11471 N 1121.56 0.56735 2.85008 0
M  V30 11472 H 1121.1 1.23838 2.2588 0
M  V30 11473 H 1121.06 -0.252831 3.13382 0
M  V30 11474 N 1124.83 -0.648732 1.43629 0
M  V30 11475 C 1126.25 -1.23001 1.40455 0
M  V30 11476 C 1126.6 -1.95886 0.110897 0
M  V30 11477 O 1125.72 -2.01485 -0.789487 0
M  V30 11478 C 1126.32 -2.23716 2.54434 0
M  V30 11479 C 1124.88 -2.77311 2.54511 0
M  V30 11480 C 1124.02 -1.52024 2.31914 0
M  V30 11481 H 1126.97 -0.440473 1.52465 0
M  V30 11482 H 1126.99 -3.05979 2.26179 0
M  V30 11483 H 1126.51 -1.7064 3.48574 0
M  V30 11484 H 1124.61 -3.34437 1.64263 0
M  V30 11485 H 1124.72 -3.2455 3.52426 0
M  V30 11486 H 1123.08 -1.79531 1.80667 0
M  V30 11487 H 1123.87 -1.00876 3.28145 0
M  V30 11488 N 1126.31 -1.30234 -0.887518 0
M  V30 11489 C 1127.26 -1.16302 -2.01436 0
M  V30 11490 C 1128.25 -0.0755422 -1.69231 0
M  V30 11491 O 1129.46 -0.236213 -1.78443 0
M  V30 11492 H 1125.84 -0.35961 -0.660443 0
M  V30 11493 H 1127.81 -2.11677 -2.10322 0
M  V30 11494 C 1126.56 -0.869009 -3.36665 0
M  V30 11495 H 1125.88 -1.69787 -3.61956 0
M  V30 11496 H 1127.32 -0.811621 -4.16159 0
M  V30 11497 C 1125.78 0.428021 -3.3417 0
M  V30 11498 O 1126.31 1.45033 -3.74604 0
M  V30 11499 N 1124.51 0.438264 -2.87276 0
M  V30 11500 H 1124.06 -0.394142 -2.54567 0
M  V30 11501 H 1124.02 1.30604 -2.85989 0
M  V30 11502 N 1127.79 1.09952 -1.12909 0
M  V30 11503 C 1129.02 1.8633 -0.910821 0
M  V30 11504 C 1129.44 1.80335 0.534874 0
M  V30 11505 O 1128.8 1.1769 1.37908 0
M  V30 11506 C 1128.85 3.32462 -1.39648 0
M  V30 11507 O 1127.95 4.08327 -0.578192 0
M  V30 11508 H 1127.29 0.577984 -0.32685 0
M  V30 11509 H 1129.82 1.38883 -1.50242 0
M  V30 11510 H 1129.83 3.83311 -1.39774 0
M  V30 11511 H 1128.51 3.36141 -2.44913 0
M  V30 11512 H 1127.08 3.67291 -0.644347 0
M  V30 11513 N 1129.27 0.921757 1.27833 0
M  V30 11514 C 1130.22 0.414838 2.27041 0
M  V30 11515 C 1131.19 -0.515045 1.57913 0
M  V30 11516 O 1132.37 -0.435499 1.85763 0
M  V30 11517 C 1129.51 -0.331744 3.43502 0
M  V30 11518 C 1128.62 0.631565 4.27358 0
M  V30 11519 C 1127.76 -0.134265 5.3103 0
M  V30 11520 C 1126.8 0.822138 6.06554 0
M  V30 11521 N 1125.93 0.0893149 7.02043 0
M  V30 11522 H 1130.77 1.26585 2.69778 0
M  V30 11523 H 1128.31 0.635488 1.32665 0
M  V30 11524 H 1130.27 -0.780866 4.09827 0
M  V30 11525 H 1128.9 -1.14704 3.01733 0
M  V30 11526 H 1127.95 1.19922 3.61003 0
M  V30 11527 H 1129.26 1.36274 4.79824 0
M  V30 11528 H 1128.42 -0.643579 6.03277 0
M  V30 11529 H 1127.16 -0.898443 4.79353 0
M  V30 11530 H 1126.16 1.34275 5.33151 0
M  V30 11531 H 1127.39 1.586 6.6032 0
M  V30 11532 H 1125.33 -0.656725 6.52704 0
M  V30 11533 H 1125.25 0.760167 7.52169 0
M  V30 11534 H 1126.52 -0.399541 7.78475 0
M  V30 11535 N 1130.75 -1.41857 0.686609 0
M  V30 11536 C 1132 -2.00594 0.21095 0
M  V30 11537 C 1132.31 -1.54974 -1.19341 0
M  V30 11538 O 1133.51 -2.0621 -1.76607 0
M  V30 11539 C 1131.97 -3.58418 0.326261 0
M  V30 11540 C 1131.58 -4.13022 1.73542 0
M  V30 11541 C 1133.32 -4.24404 -0.0900816 0
M  V30 11542 C 1131.23 -5.6325 1.80287 0
M  V30 11543 H 1130.16 -0.75025 0.0751077 0
M  V30 11544 H 1132.81 -1.62442 0.853508 0
M  V30 11545 H 1131.19 -3.9413 -0.384394 0
M  V30 11546 H 1132.37 -3.88747 2.47411 0
M  V30 11547 H 1130.68 -3.5953 2.10065 0
M  V30 11548 H 1133.28 -5.34666 -0.060004 0
M  V30 11549 H 1133.62 -4.00745 -1.12733 0
M  V30 11550 H 1134.15 -3.93695 0.569979 0
M  V30 11551 H 1130.89 -5.91724 2.82034 0
M  V30 11552 H 1130.41 -5.89479 1.1079 0
M  V30 11553 H 1132.09 -6.2787 1.56167 0
M  V30 11554 N 1132.22 -0.430739 -1.51599 0
M  V30 11555 C 1133.47 0.138133 -2.02329 0
M  V30 11556 C 1133.8 1.42934 -1.31466 0
M  V30 11557 O 1133.08 1.89743 -0.427551 0
M  V30 11558 C 1133.36 0.363677 -3.58259 0
M  V30 11559 C 1133.21 -0.94572 -4.39746 0
M  V30 11560 C 1134.53 1.13637 -4.25176 0
M  V30 11561 H 1131.65 0.0487287 -0.735387 0
M  V30 11562 H 1134.29 -0.568444 -1.81297 0
M  V30 11563 H 1132.44 0.965552 -3.7631 0
M  V30 11564 H 1134.12 -1.58107 -4.33359 0
M  V30 11565 H 1132.36 -1.55183 -4.05094 0
M  V30 11566 H 1133.03 -0.742031 -5.4699 0
M  V30 11567 H 1135.51 0.626608 -4.11355 0
M  V30 11568 H 1134.38 1.26294 -5.34173 0
M  V30 11569 H 1134.64 2.16273 -3.85588 0
M  V30 11570 N 1133.7 1.56767 -0.161869 0
M  V30 11571 C 1134.63 2.20511 0.767918 0
M  V30 11572 C 1135.61 1.15783 1.24612 0
M  V30 11573 O 1136.8 1.44179 1.301 0
M  V30 11574 C 1133.93 2.83844 2.00125 0
M  V30 11575 C 1132.88 3.94528 1.65926 0
M  V30 11576 C 1132.21 4.44866 2.96646 0
M  V30 11577 C 1133.51 5.14583 0.894497 0
M  V30 11578 H 1135.2 2.98464 0.236607 0
M  V30 11579 H 1132.75 1.43561 0.112363 0
M  V30 11580 H 1134.7 3.27109 2.65664 0
M  V30 11581 H 1133.43 2.03246 2.55654 0
M  V30 11582 H 1132.08 3.51904 1.02759 0
M  V30 11583 H 1131.73 3.61071 3.50196 0
M  V30 11584 H 1131.43 5.19531 2.74521 0
M  V30 11585 H 1132.96 4.90812 3.6323 0
M  V30 11586 H 1134.37 5.54601 1.45228 0
M  V30 11587 H 1132.77 5.95105 0.772636 0
M  V30 11588 H 1133.84 4.84773 -0.110986 0
M  V30 11589 N 1135.18 -0.111886 1.57202 0
M  V30 11590 C 1136.11 -1.13796 2.03894 0
M  V30 11591 C 1137.09 -1.4277 0.924696 0
M  V30 11592 O 1138.28 -1.53089 1.19488 0
M  V30 11593 C 1135.41 -2.46229 2.44925 0
M  V30 11594 C 1134.36 -2.31702 3.59859 0
M  V30 11595 C 1133.69 -3.69161 3.86813 0
M  V30 11596 C 1134.99 -1.77158 4.91337 0
M  V30 11597 H 1136.68 -0.749581 2.89865 0
M  V30 11598 H 1134.23 -0.359126 1.3945 0
M  V30 11599 H 1136.18 -3.18267 2.76195 0
M  V30 11600 H 1134.9 -2.86971 1.55933 0
M  V30 11601 H 1133.56 -1.62112 3.28809 0
M  V30 11602 H 1133.21 -4.07401 2.95015 0
M  V30 11603 H 1132.91 -3.60292 4.6418 0
M  V30 11604 H 1134.43 -4.42693 4.20542 0
M  V30 11605 H 1135.85 -2.3902 5.21097 0
M  V30 11606 H 1134.25 -1.79091 5.72753 0
M  V30 11607 H 1135.32 -0.729675 4.79379 0
M  V30 11608 N 1136.66 -1.52894 -0.382264 0
M  V30 11609 C 1137.94 -1.58853 -1.14127 0
M  V30 11610 C 1138.32 -0.38582 -2.07544 0
M  V30 11611 O 1137.66 0.625323 -2.19777 0
M  V30 11612 C 1137.87 -2.93068 -1.89504 0
M  V30 11613 C 1139.22 -3.47048 -2.44629 0
M  V30 11614 O 1140.25 -2.94987 -1.99652 0
M  V30 11615 O 1139.1 -4.3802 -3.26804 0
M  V30 11616 H 1136.2 -0.640969 -0.522578 0
M  V30 11617 H 1138.74 -1.65231 -0.386873 0
M  V30 11618 H 1137.52 -3.72047 -1.2123 0
M  V30 11619 H 1137.14 -2.90106 -2.7189 0
M  V30 11620 N 1138.14 0.641106 -1.43971 0
M  V30 11621 C 1139.38 1.40291 -1.46445 0
M  V30 11622 C 1139.72 1.93978 -0.0929004 0
M  V30 11623 O 1138.99 1.73043 0.888043 0
M  V30 11624 C 1139.27 2.57551 -2.51673 0
M  V30 11625 C 1139.13 2.09279 -3.98149 0
M  V30 11626 C 1140.45 3.59752 -2.53508 0
M  V30 11627 H 1137.57 0.508771 -0.533218 0
M  V30 11628 H 1140.21 0.725767 -1.75592 0
M  V30 11629 H 1138.36 3.15319 -2.2695 0
M  V30 11630 H 1140.03 1.56418 -4.33971 0
M  V30 11631 H 1138.27 1.40545 -4.10402 0
M  V30 11632 H 1138.94 2.93655 -4.67409 0
M  V30 11633 H 1141.42 3.11766 -2.75574 0
M  V30 11634 H 1140.3 4.39332 -3.29057 0
M  V30 11635 H 1140.56 4.13156 -1.57335 0
M  V30 11636 N 1139.62 1.30703 0.880598 0
M  V30 11637 C 1141.03 1.17818 1.4483 0
M  V30 11638 C 1141.38 -0.219456 1.94969 0
M  V30 11639 O 1140.5 -1.11646 1.85375 0
M  V30 11640 C 1141.1 2.13275 2.63247 0
M  V30 11641 C 1139.66 2.04356 3.16094 0
M  V30 11642 C 1138.8 2.03108 1.88792 0
M  V30 11643 H 1141.75 1.42909 0.690125 0
M  V30 11644 H 1141.78 1.71615 3.39601 0
M  V30 11645 H 1141.29 3.14988 2.26725 0
M  V30 11646 H 1139.39 1.058 3.57263 0
M  V30 11647 H 1139.5 2.92953 3.79098 0
M  V30 11648 H 1137.87 1.47971 2.07308 0
M  V30 11649 H 1138.65 3.06558 1.54521 0
M  V30 11650 N 1141.09 -1.09351 1.1349 0
M  V30 11651 C 1142.34 -1.81812 0.898452 0
M  V30 11652 C 1142.67 -1.85525 -0.573959 0
M  V30 11653 O 1141.95 -1.32403 -1.42477 0
M  V30 11654 C 1142.23 -3.27921 1.48794 0
M  V30 11655 C 1142.08 -3.32476 3.02952 0
M  V30 11656 C 1143.4 -4.24625 1.15678 0
M  V30 11657 H 1140.52 -0.660074 0.327829 0
M  V30 11658 H 1143.16 -1.28091 1.40331 0
M  V30 11659 H 1141.31 -3.738 1.05858 0
M  V30 11660 H 1142.99 -2.94994 3.54649 0
M  V30 11661 H 1141.23 -2.72037 3.37903 0
M  V30 11662 H 1141.9 -4.35409 3.39298 0
M  V30 11663 H 1144.38 -3.87036 1.52781 0
M  V30 11664 H 1143.25 -5.25194 1.59571 0
M  V30 11665 H 1143.51 -4.42044 0.0705933 0
M  V30 11666 N 1142.57 -0.928524 -1.27343 0
M  V30 11667 C 1143.99 -0.62889 -1.46687 0
M  V30 11668 C 1144.19 0.821592 -1.83989 0
M  V30 11669 O 1143.24 1.59941 -1.95385 0
M  V30 11670 C 1144.56 -1.57947 -2.55878 0
M  V30 11671 C 1146.1 -1.58778 -2.69738 0
M  V30 11672 C 1146.58 -2.52535 -3.82087 0
M  V30 11673 N 1148.07 -2.50747 -3.89462 0
M  V30 11674 C 1148.81 -3.19981 -4.75814 0
M  V30 11675 N 1148.3 -3.98598 -5.66649 0
M  V30 11676 N 1150.09 -3.08996 -4.69551 0
M  V30 11677 H 1142.25 -1.86625 -1.01414 0
M  V30 11678 H 1144.51 -0.801293 -0.50659 0
M  V30 11679 H 1144.21 -2.61427 -2.35264 0
M  V30 11680 H 1144.09 -1.3218 -3.53282 0
M  V30 11681 H 1146.48 -0.560292 -2.89732 0
M  V30 11682 H 1146.56 -1.88594 -1.72817 0
M  V30 11683 H 1146.2 -3.55395 -3.62846 0
M  V30 11684 H 1146.13 -2.20015 -4.78436 0
M  V30 11685 H 1148.62 -1.93651 -3.24511 0
M  V30 11686 H 1148.93 -4.4841 -6.29403 0
M  V30 11687 H 1147.28 -4.02701 -5.66442 0
M  V30 11688 H 1150.47 -2.4707 -3.97585 0
M  V30 11689 H 1150.64 -3.63223 -5.36631 0
M  V30 11690 N 1144.05 1.41491 -0.694123 0
M  V30 11691 C 1145.01 2.2917 -0.0368562 0
M  V30 11692 C 1146.01 1.44305 0.709426 0
M  V30 11693 O 1147.2 1.6547 0.544533 0
M  V30 11694 C 1144.33 3.27156 0.958201 0
M  V30 11695 H 1145.53 2.88787 -0.808829 0
M  V30 11696 H 1143.08 1.49453 -0.457538 0
M  V30 11697 H 1143.82 2.72516 1.75799 0
M  V30 11698 H 1143.6 3.89776 0.426227 0
M  V30 11699 H 1145.09 3.92863 1.41592 0
M  V30 11700 N 1145.53 0.438773 1.51369 0
M  V30 11701 C 1146.44 -0.378074 2.31534 0
M  V30 11702 C 1147.45 -1.02632 1.40508 0
M  V30 11703 O 1148.63 -1.02138 1.73579 0
M  V30 11704 C 1145.69 -1.46374 3.14286 0
M  V30 11705 C 1144.76 -0.835473 4.21092 0
M  V30 11706 C 1143.99 -1.86941 4.99889 0
M  V30 11707 O 1144.21 -3.0918 4.79337 0
M  V30 11708 O 1143.15 -1.45914 5.83946 0
M  V30 11709 H 1146.97 0.276401 3.0244 0
M  V30 11710 H 1144.56 0.201281 1.48038 0
M  V30 11711 H 1146.44 -2.09335 3.65728 0
M  V30 11712 H 1145.11 -2.10227 2.46143 0
M  V30 11713 H 1144.02 -0.167775 3.73724 0
M  V30 11714 H 1145.35 -0.240406 4.91613 0
M  V30 11715 N 1147.01 -1.56678 0.170181 0
M  V30 11716 C 1147.97 -2.16698 -0.746622 0
M  V30 11717 C 1148.97 -1.11475 -1.15888 0
M  V30 11718 O 1150.16 -1.36994 -1.07602 0
M  V30 11719 C 1147.29 -2.74892 -2.01612 0
M  V30 11720 H 1148.48 -2.99061 -0.224135 0
M  V30 11721 H 1146.04 -1.56098 -0.0793761 0
M  V30 11722 H 1146.77 -1.96259 -2.58172 0
M  V30 11723 H 1146.56 -3.51896 -1.72949 0
M  V30 11724 H 1148.05 -3.21058 -2.67042 0
M  V30 11725 N 1148.48 0.103547 -1.57259 0
M  V30 11726 C 1149.42 1.15225 -1.98131 0
M  V30 11727 C 1150.43 1.36793 -0.882692 0
M  V30 11728 O 1151.62 1.35595 -1.16088 0
M  V30 11729 C 1148.72 2.50941 -2.27776 0
M  V30 11730 C 1147.89 2.49765 -3.59077 0
M  V30 11731 C 1146.95 3.67344 -3.76756 0
M  V30 11732 O 1145.98 3.50221 -4.48702 0
M  V30 11733 N 1147.18 4.86504 -3.16692 0
M  V30 11734 H 1149.94 0.804448 -2.88702 0
M  V30 11735 H 1147.5 0.292636 -1.59233 0
M  V30 11736 H 1149.5 3.28186 -2.36804 0
M  V30 11737 H 1148.07 2.77843 -1.43255 0
M  V30 11738 H 1147.29 1.58125 -3.61096 0
M  V30 11739 H 1148.57 2.4605 -4.4535 0
M  V30 11740 H 1147.97 5.03319 -2.58236 0
M  V30 11741 H 1146.53 5.61371 -3.31218 0
M  V30 11742 N 1149.96 1.53094 0.37415 0
M  V30 11743 C 1151.21 1.69111 1.11934 0
M  V30 11744 C 1151.54 0.437252 1.89213 0
M  V30 11745 O 1150.82 -0.565298 1.86104 0
M  V30 11746 C 1151.1 2.93559 2.08554 0
M  V30 11747 C 1150.95 4.29082 1.3494 0
M  V30 11748 C 1152.27 3.13586 3.08791 0
M  V30 11749 H 1149.39 0.615383 0.405553 0
M  V30 11750 H 1152.03 1.85719 0.401078 0
M  V30 11751 H 1150.18 2.79531 2.69805 0
M  V30 11752 H 1151.85 4.54906 0.765402 0
M  V30 11753 H 1150.1 4.28884 0.651238 0
M  V30 11754 H 1150.77 5.12275 2.05616 0
M  V30 11755 H 1153.24 3.26743 2.57639 0
M  V30 11756 H 1152.12 4.02112 3.73627 0
M  V30 11757 H 1152.38 2.28475 3.78486 0
M  V30 11758 N 1151.44 -0.633461 1.44309 0
M  V30 11759 C 1152.35 -1.77428 1.53481 0
M  V30 11760 C 1153.37 -1.68839 0.420628 0
M  V30 11761 O 1154.54 -1.89658 0.677638 0
M  V30 11762 C 1151.61 -3.13801 1.47409 0
M  V30 11763 C 1150.67 -3.34039 2.6966 0
M  V30 11764 C 1149.9 -4.63907 2.63868 0
M  V30 11765 O 1150.12 -5.44559 1.69741 0
M  V30 11766 O 1149.06 -4.86295 3.54684 0
M  V30 11767 H 1152.88 -1.72642 2.49857 0
M  V30 11768 H 1150.47 -0.794399 1.26529 0
M  V30 11769 H 1152.35 -3.95101 1.46537 0
M  V30 11770 H 1151.03 -3.19134 0.541769 0
M  V30 11771 H 1149.93 -2.52427 2.761 0
M  V30 11772 H 1151.27 -3.33566 3.61931 0
M  V30 11773 N 1152.92 -1.31168 -0.873655 0
M  V30 11774 C 1153.85 -1.21094 -1.99646 0
M  V30 11775 C 1154.83 -0.0989684 -1.69812 0
M  V30 11776 O 1156.01 -0.282939 -1.92128 0
M  V30 11777 C 1153.14 -0.913684 -3.35066 0
M  V30 11778 C 1152.1 -1.98482 -3.79195 0
M  V30 11779 C 1151.42 -1.54033 -5.12033 0
M  V30 11780 C 1152.72 -3.39745 -3.96699 0
M  V30 11781 H 1154.42 -2.1503 -2.08333 0
M  V30 11782 H 1151.96 -1.03521 -1.00097 0
M  V30 11783 H 1153.92 -0.829821 -4.13149 0
M  V30 11784 H 1152.64 0.0613471 -3.26542 0
M  V30 11785 H 1151.3 -2.05851 -3.03349 0
M  V30 11786 H 1150.95 -0.553261 -4.99948 0
M  V30 11787 H 1150.65 -2.25688 -5.4253 0
M  V30 11788 H 1152.17 -1.47047 -5.92629 0
M  V30 11789 H 1153.59 -3.35071 -4.65188 0
M  V30 11790 H 1151.98 -4.09585 -4.38589 0
M  V30 11791 H 1153.05 -3.80802 -3.00196 0
M  V30 11792 N 1154.4 1.08748 -1.14068 0
M  V30 11793 C 1155.81 1.33125 -0.880341 0
M  V30 11794 C 1156.01 1.9569 0.480396 0
M  V30 11795 O 1155.07 2.2077 1.22543 0
M  V30 11796 C 1156.38 2.23618 -2.01036 0
M  V30 11797 C 1157.93 2.37108 -2.04326 0
M  V30 11798 C 1158.4 3.30941 -3.1661 0
M  V30 11799 N 1159.9 3.38517 -3.16166 0
M  V30 11800 C 1160.63 4.11142 -3.99687 0
M  V30 11801 N 1160.13 4.86505 -4.93239 0
M  V30 11802 N 1161.92 4.06938 -3.87761 0
M  V30 11803 H 1154.07 0.665164 -2.01716 0
M  V30 11804 H 1156.33 0.355612 -0.878774 0
M  V30 11805 H 1156.04 1.84885 -2.99183 0
M  V30 11806 H 1155.91 3.24056 -1.93049 0
M  V30 11807 H 1158.3 2.75101 -1.06787 0
M  V30 11808 H 1158.38 1.36424 -2.16384 0
M  V30 11809 H 1158.03 2.93669 -4.14392 0
M  V30 11810 H 1157.96 4.31545 -3.01789 0
M  V30 11811 H 1160.45 2.84786 -2.48405 0
M  V30 11812 H 1160.76 5.39372 -5.53441 0
M  V30 11813 H 1159.1 4.8557 -4.9724 0
M  V30 11814 H 1162.3 3.47166 -3.13996 0
M  V30 11815 H 1162.47 4.63275 -4.53079 0
M  V30 11816 N 1155.87 0.935264 1.26849 0
M  V30 11817 C 1157.12 0.578545 1.93642 0
M  V30 11818 C 1157.44 -0.884296 1.73796 0
M  V30 11819 O 1156.71 -1.62768 1.09011 0
M  V30 11820 H 1155.29 0.210976 0.716588 0
M  V30 11821 H 1157.96 1.1893 1.54407 0
M  V30 11822 H 1157.05 0.791268 3.01903 0
M  V30 11823 N 1157.35 -1.41121 0.701616 0
M  V30 11824 C 1158.3 -2.32582 0.0288052 0
M  V30 11825 C 1159.29 -1.5129 -0.762074 0
M  V30 11826 O 1160.5 -1.67185 -0.667014 0
M  V30 11827 H 1156.88 -0.75194 -0.00948675 0
M  V30 11828 H 1158.85 -2.86994 0.817141 0
M  V30 11829 C 1157.6 -3.36137 -0.889217 0
M  V30 11830 H 1156.92 -3.98746 -0.290062 0
M  V30 11831 H 1158.36 -4.0266 -1.32819 0
M  V30 11832 C 1156.82 -2.70504 -2.00821 0
M  V30 11833 O 1157.35 -2.55753 -3.09763 0
M  V30 11834 N 1155.55 -2.29105 -1.78772 0
M  V30 11835 H 1155.1 -2.41303 -0.901708 0
M  V30 11836 H 1155.06 -1.85527 -2.53825 0
M  V30 11837 N 1158.83 -0.446794 -1.51134 0
M  V30 11838 C 1160.06 0.117242 -2.07068 0
M  V30 11839 C 1160.48 1.34877 -1.3111 0
M  V30 11840 O 1159.84 1.77856 -0.35172 0
M  V30 11841 C 1159.89 0.408616 -3.58277 0
M  V30 11842 O 1158.99 1.49345 -3.84408 0
M  V30 11843 H 1158.33 -0.00228458 -0.663996 0
M  V30 11844 H 1160.86 -0.63085 -1.94632 0
M  V30 11845 H 1160.87 0.656298 -4.02687 0
M  V30 11846 H 1159.55 -0.491444 -4.12986 0
M  V30 11847 H 1158.12 1.23499 -3.51856 0
M  V30 11848 N 1160.31 1.56586 -0.178487 0
M  V30 11849 C 1161.56 1.97098 0.464617 0
M  V30 11850 C 1161.88 1.06476 1.62767 0
M  V30 11851 O 1161.14 0.100337 1.95443 0
M  V30 11852 C 1161.44 3.43629 0.982552 0
M  V30 11853 C 1161.1 4.50853 -0.0653645 0
M  V30 11854 C 1159.77 4.79901 -0.353349 0
M  V30 11855 C 1162.12 5.15387 -0.776279 0
M  V30 11856 C 1159.45 5.70779 -1.35751 0
M  V30 11857 C 1161.8 6.07349 -1.76948 0
M  V30 11858 C 1160.46 6.34761 -2.06483 0
M  V30 11859 H 1159.73 0.721232 0.170016 0
M  V30 11860 H 1162.38 1.89559 -0.271959 0
M  V30 11861 H 1160.68 3.48155 1.79709 0
M  V30 11862 H 1162.38 3.7232 1.48926 0
M  V30 11863 H 1158.97 4.28266 0.169266 0
M  V30 11864 H 1163.15 4.9305 -0.567008 0
M  V30 11865 H 1158.41 5.90298 -1.59244 0
M  V30 11866 H 1162.58 6.56419 -2.32567 0
M  V30 11867 H 1160.21 7.0498 -2.84441 0
M  V30 11868 N 1161.79 -0.095206 1.57312 0
M  V30 11869 C 1163.2 -0.649733 1.7503 0
M  V30 11870 C 1163.55 -1.7912 0.800652 0
M  V30 11871 O 1162.67 -2.1639 -0.0208831 0
M  V30 11872 C 1163.27 -1.18541 3.17386 0
M  V30 11873 C 1161.83 -1.686 3.36528 0
M  V30 11874 C 1160.97 -0.595531 2.7083 0
M  V30 11875 H 1163.93 0.130863 1.5816 0
M  V30 11876 H 1163.95 -2.05473 3.20252 0
M  V30 11877 H 1163.46 -0.35441 3.86478 0
M  V30 11878 H 1161.56 -2.541 2.72514 0
M  V30 11879 H 1161.67 -1.77907 4.44844 0
M  V30 11880 H 1160.04 -1.03495 2.32725 0
M  V30 11881 H 1160.82 0.224883 3.42563 0
M  V30 11882 N 1163.26 -1.53291 -0.366026 0
M  V30 11883 C 1164.23 -1.79025 -1.43117 0
M  V30 11884 C 1165.23 -0.660676 -1.46601 0
M  V30 11885 O 1166.42 -0.928875 -1.47369 0
M  V30 11886 C 1163.55 -1.91192 -2.82238 0
M  V30 11887 H 1164.74 -2.74154 -1.21572 0
M  V30 11888 H 1162.3 -1.44361 -0.599132 0
M  V30 11889 H 1163.03 -0.98129 -3.09097 0
M  V30 11890 H 1162.82 -2.7335 -2.81109 0
M  V30 11891 H 1164.31 -2.12696 -3.59375 0
M  V30 11892 N 1164.74 0.6258 -1.44643 0
M  V30 11893 C 1165.97 1.41726 -1.51422 0
M  V30 11894 C 1166.39 1.87565 -0.14181 0
M  V30 11895 O 1165.75 1.59059 0.870054 0
M  V30 11896 C 1165.8 2.61012 -2.48807 0
M  V30 11897 O 1164.9 3.61029 -1.99328 0
M  V30 11898 H 1164.24 0.423855 -0.511119 0
M  V30 11899 H 1166.77 0.763336 -1.89827 0
M  V30 11900 H 1166.78 3.08489 -2.67018 0
M  V30 11901 H 1165.46 2.26995 -3.48491 0
M  V30 11902 H 1164.04 3.20325 -1.90909 0
M  V30 11903 N 1166.22 1.31629 0.866686 0
M  V30 11904 C 1167.15 1.22151 1.99001 0
M  V30 11905 C 1168.13 0.107972 1.69757 0
M  V30 11906 O 1169.32 0.293125 1.91975 0
M  V30 11907 C 1166.45 0.93144 3.34577 0
M  V30 11908 C 1165.4 2.0049 3.78137 0
M  V30 11909 C 1164.73 1.56747 5.11209 0
M  V30 11910 C 1166.03 3.41844 3.94892 0
M  V30 11911 H 1167.72 2.16132 2.0719 0
M  V30 11912 H 1165.27 1.04051 0.995463 0
M  V30 11913 H 1167.22 0.851719 4.12703 0
M  V30 11914 H 1165.94 -0.0440289 3.2657 0
M  V30 11915 H 1164.6 2.07457 3.02253 0
M  V30 11916 H 1164.25 0.579767 4.99648 0
M  V30 11917 H 1163.95 2.28562 5.41326 0
M  V30 11918 H 1165.47 1.50188 5.91841 0
M  V30 11919 H 1166.89 3.37534 4.63405 0
M  V30 11920 H 1165.29 4.11905 4.36411 0
M  V30 11921 H 1166.36 3.82389 2.98172 0
M  V30 11922 N 1167.7 -1.08142 1.14644 0
M  V30 11923 C 1168.95 -1.80849 0.917685 0
M  V30 11924 C 1169.28 -1.86123 -0.554249 0
M  V30 11925 O 1168.55 -1.33907 -1.41065 0
M  V30 11926 C 1168.84 -3.26325 1.52264 0
M  V30 11927 C 1168.69 -3.29244 3.06461 0
M  V30 11928 C 1170.01 -4.23375 1.20175 0
M  V30 11929 H 1167.13 -0.656559 0.334812 0
M  V30 11930 H 1169.77 -1.26595 1.41682 0
M  V30 11931 H 1167.92 -3.72656 1.09817 0
M  V30 11932 H 1169.59 -2.91216 3.57758 0
M  V30 11933 H 1167.83 -2.68438 3.40769 0
M  V30 11934 H 1168.51 -4.31785 3.43897 0
M  V30 11935 H 1170.98 -3.85394 1.56877 0
M  V30 11936 H 1169.86 -5.23472 1.65132 0
M  V30 11937 H 1170.12 -4.41944 0.117474 0
M  V30 11938 N 1169.18 -0.941978 -1.26351 0
M  V30 11939 C 1170.42 -0.590845 -1.94002 0
M  V30 11940 C 1170.76 0.868004 -1.73722 0
M  V30 11941 O 1170.03 1.62111 -1.07472 0
M  V30 11942 C 1170.31 -0.934901 -3.47752 0
M  V30 11943 C 1170.17 -2.44855 -3.77314 0
M  V30 11944 C 1171.49 -0.450888 -4.37784 0
M  V30 11945 H 1168.61 -0.21613 -0.704597 0
M  V30 11946 H 1171.25 -1.17634 -1.49205 0
M  V30 11947 H 1169.4 -0.436648 -3.86038 0
M  V30 11948 H 1171.07 -3.01959 -3.48738 0
M  V30 11949 H 1169.31 -2.89169 -3.23363 0
M  V30 11950 H 1169.98 -2.6398 -4.84787 0
M  V30 11951 H 1172.46 -0.878107 -4.06729 0
M  V30 11952 H 1171.34 -0.720439 -5.44152 0
M  V30 11953 H 1171.6 0.649162 -4.37308 0
M  V30 11954 N 1170.66 1.40747 -0.709091 0
M  V30 11955 C 1171.62 2.29118 -0.0611607 0
M  V30 11956 C 1172.62 1.45049 0.694081 0
M  V30 11957 O 1173.81 1.66039 0.526952 0
M  V30 11958 C 1170.94 3.28154 0.923447 0
M  V30 11959 H 1172.13 2.87913 -0.839413 0
M  V30 11960 H 1169.69 1.4896 -0.473363 0
M  V30 11961 H 1170.42 2.74366 1.72899 0
M  V30 11962 H 1170.21 3.90207 0.384862 0
M  V30 11963 H 1171.7 3.94343 1.37417 0
M  V30 11964 N 1172.13 0.454803 1.50895 0
M  V30 11965 C 1173.1 -0.336293 2.26719 0
M  V30 11966 C 1174.1 -0.93464 1.30848 0
M  V30 11967 O 1175.29 -0.80636 1.54413 0
M  V30 11968 C 1172.42 -1.47744 3.07221 0
M  V30 11969 H 1173.61 0.328462 2.98096 0
M  V30 11970 H 1171.16 0.208419 1.54904 0
M  V30 11971 H 1171.9 -2.17773 2.40302 0
M  V30 11972 H 1171.68 -1.05438 3.77658 0
M  V30 11973 H 1173.17 -2.03592 3.6461 0
M  V30 11974 N 1173.61 -1.56489 0.186789 0
M  V30 11975 C 1174.52 -2.22304 -0.749543 0
M  V30 11976 C 1175.54 -1.21949 -1.24115 0
M  V30 11977 O 1176.71 -1.5466 -1.29005 0
M  V30 11978 C 1173.78 -2.863 -1.95533 0
M  V30 11979 C 1172.84 -4.01901 -1.5091 0
M  V30 11980 C 1172.07 -4.62837 -2.6574 0
M  V30 11981 O 1172.3 -4.22681 -3.8301 0
M  V30 11982 O 1171.23 -5.52446 -2.38929 0
M  V30 11983 H 1175.06 -3.02909 -0.21908 0
M  V30 11984 H 1172.64 -1.49341 -0.0421249 0
M  V30 11985 H 1174.52 -3.2682 -2.6602 0
M  V30 11986 H 1173.2 -2.08681 -2.47455 0
M  V30 11987 H 1172.1 -3.66021 -0.773261 0
M  V30 11988 H 1173.44 -4.8116 -1.03663 0
M  V30 11989 N 1175.09 0.086862 -1.5736 0
M  V30 11990 C 1176 1.12297 -2.05977 0
M  V30 11991 C 1177.02 1.43347 -0.986284 0
M  V30 11992 O 1178.19 1.53825 -1.3 0
M  V30 11993 C 1175.26 2.42131 -2.4814 0
M  V30 11994 C 1174.32 2.18189 -3.69719 0
M  V30 11995 C 1173.55 3.41833 -4.09861 0
M  V30 11996 O 1173.77 4.50383 -3.50016 0
M  V30 11997 O 1172.71 3.30934 -5.02759 0
M  V30 11998 H 1176.53 0.740012 -2.94546 0
M  V30 11999 H 1174.12 0.29995 -1.46358 0
M  V30 12000 H 1176 3.18568 -2.75848 0
M  V30 12001 H 1174.68 2.79837 -1.62705 0
M  V30 12002 H 1173.58 1.39506 -3.47115 0
M  V30 12003 H 1174.92 1.85372 -4.55959 0
M  V30 12004 N 1176.57 1.53483 0.357892 0
M  V30 12005 C 1177.82 1.69701 1.09754 0
M  V30 12006 C 1178.14 0.455389 1.89608 0
M  V30 12007 O 1177.41 -0.530623 1.88577 0
M  V30 12008 H 1175.99 0.62562 0.408178 0
M  V30 12009 H 1178.65 1.90696 0.402641 0
M  V30 12010 H 1177.74 2.56154 1.78302 0
M  V30 12011 N 1178.05 -0.61812 1.44973 0
M  V30 12012 C 1178.96 -1.7579 1.55355 0
M  V30 12013 C 1179.97 -1.68384 0.438512 0
M  V30 12014 O 1181.15 -1.88928 0.697715 0
M  V30 12015 C 1178.21 -3.1222 1.50729 0
M  V30 12016 C 1177.27 -3.3116 2.73188 0
M  V30 12017 C 1176.51 -4.61082 2.68774 0
M  V30 12018 O 1176.73 -5.42728 1.75507 0
M  V30 12019 O 1175.66 -4.82506 3.59821 0
M  V30 12020 H 1179.49 -1.69983 2.51674 0
M  V30 12021 H 1177.07 -0.780934 1.27365 0
M  V30 12022 H 1178.96 -3.93524 1.5072 0
M  V30 12023 H 1177.63 -3.18541 0.575587 0
M  V30 12024 H 1176.54 -2.49485 2.78762 0
M  V30 12025 H 1177.87 -3.29709 3.65449 0
M  V30 12026 N 1179.52 -1.32087 -0.859693 0
M  V30 12027 C 1180.94 -1.10968 -1.14709 0
M  V30 12028 C 1181.14 0.113139 -2.01182 0
M  V30 12029 O 1180.2 0.799499 -2.39508 0
M  V30 12030 C 1181.51 -2.38657 -1.8293 0
M  V30 12031 C 1183.06 -2.44366 -1.95587 0
M  V30 12032 C 1183.53 -3.71963 -2.67222 0
M  V30 12033 N 1185.02 -3.72916 -2.7475 0
M  V30 12034 C 1185.76 -4.68346 -3.30816 0
M  V30 12035 N 1185.25 -5.74139 -3.87732 0
M  V30 12036 N 1187.05 -4.55851 -3.28872 0
M  V30 12037 H 1179.2 -2.10497 -0.283711 0
M  V30 12038 H 1181.46 -0.929108 -0.188315 0
M  V30 12039 H 1181.17 -3.2803 -1.26844 0
M  V30 12040 H 1181.04 -2.49236 -2.83128 0
M  V30 12041 H 1183.43 -1.55456 -2.50833 0
M  V30 12042 H 1183.51 -2.37744 -0.944001 0
M  V30 12043 H 1183.15 -4.61245 -2.1264 0
M  V30 12044 H 1183.08 -3.75855 -3.68837 0
M  V30 12045 H 1185.57 -2.96447 -2.34367 0
M  V30 12046 H 1185.89 -6.43021 -4.28654 0
M  V30 12047 H 1184.23 -5.779 -3.86078 0
M  V30 12048 H 1187.42 -3.72371 -2.83651 0
M  V30 12049 H 1187.6 -5.30398 -3.72266 0
M  V30 12050 N 1181 1.07532 -1.15215 0
M  V30 12051 C 1181.91 2.18222 -0.861192 0
M  V30 12052 C 1182.93 1.73246 0.161798 0
M  V30 12053 O 1184.1 2.01397 -0.0118386 0
M  V30 12054 C 1181.17 3.44902 -0.352601 0
M  V30 12055 C 1180.23 4.04455 -1.43926 0
M  V30 12056 C 1179.46 5.25089 -0.954841 0
M  V30 12057 O 1179.69 5.70048 0.200294 0
M  V30 12058 O 1178.62 5.76269 -1.73774 0
M  V30 12059 H 1182.45 2.45599 -1.78648 0
M  V30 12060 H 1180.03 1.16835 -0.93112 0
M  V30 12061 H 1181.91 4.21333 -0.0753347 0
M  V30 12062 H 1180.59 3.19082 0.544841 0
M  V30 12063 H 1179.49 3.29573 -1.7701 0
M  V30 12064 H 1180.83 4.34544 -2.31155 0
M  V30 12065 N 1182.48 0.948665 1.2585 0
M  V30 12066 C 1183.41 0.421458 2.25292 0
M  V30 12067 C 1184.43 -0.459389 1.56184 0
M  V30 12068 O 1185.61 -0.268627 1.76467 0
M  V30 12069 C 1182.71 -0.412653 3.36378 0
M  V30 12070 C 1181.89 0.453792 4.3504 0
M  V30 12071 C 1180.95 -0.321127 5.25219 0
M  V30 12072 O 1179.97 0.278424 5.68519 0
M  V30 12073 N 1181.17 -1.61576 5.5756 0
M  V30 12074 H 1183.94 1.27636 2.71162 0
M  V30 12075 H 1181.5 0.818367 1.39694 0
M  V30 12076 H 1183.49 -0.938637 3.93664 0
M  V30 12077 H 1182.06 -1.16839 2.89944 0
M  V30 12078 H 1181.28 1.16093 3.76718 0
M  V30 12079 H 1182.57 1.04538 4.97945 0
M  V30 12080 H 1181.97 -2.12488 5.24276 0
M  V30 12081 H 1180.53 -2.08783 6.17457 0
M  V30 12082 N 1183.96 -1.40369 0.716545 0
M  V30 12083 C 1184.91 -2.32539 0.053472 0
M  V30 12084 C 1185.9 -1.5209 -0.745984 0
M  V30 12085 O 1187.11 -1.67883 -0.649245 0
M  V30 12086 H 1183.48 -0.751998 -0.00151088 0
M  V30 12087 H 1185.45 -2.86111 0.847535 0
M  V30 12088 C 1184.2 -3.37061 -0.853515 0
M  V30 12089 H 1183.52 -3.99032 -0.247754 0
M  V30 12090 H 1184.96 -4.04046 -1.28541 0
M  V30 12091 C 1183.42 -2.72619 -1.97941 0
M  V30 12092 O 1183.95 -2.59024 -3.07033 0
M  V30 12093 N 1182.16 -2.30988 -1.76332 0
M  V30 12094 H 1181.71 -2.42246 -0.876063 0
M  V30 12095 H 1181.66 -1.88209 -2.51843 0
M  V30 12096 N 1185.44 -0.462799 -1.50652 0
M  V30 12097 C 1186.66 0.0952726 -2.07181 0
M  V30 12098 C 1187.09 1.33479 -1.32533 0
M  V30 12099 O 1186.44 1.77473 -0.370564 0
M  V30 12100 C 1186.49 0.370592 -3.58691 0
M  V30 12101 O 1185.6 1.4526 -3.85971 0
M  V30 12102 H 1184.94 -0.00932702 -0.663934 0
M  V30 12103 H 1187.47 -0.651458 -1.93951 0
M  V30 12104 H 1187.48 0.613551 -4.0336 0
M  V30 12105 H 1186.15 -0.535219 -4.12442 0
M  V30 12106 H 1184.73 1.1976 -3.53146 0
M  V30 12107 N 1186.91 1.56388 -0.195085 0
M  V30 12108 C 1187.84 2.22091 0.720971 0
M  V30 12109 C 1188.83 1.184 1.22128 0
M  V30 12110 O 1190.01 1.46907 1.27012 0
M  V30 12111 C 1187.14 2.88025 1.94059 0
M  V30 12112 C 1186.09 3.97959 1.5752 0
M  V30 12113 C 1185.42 4.51058 2.87143 0
M  V30 12114 C 1186.72 5.16365 0.785145 0
M  V30 12115 H 1188.41 2.98898 0.173245 0
M  V30 12116 H 1185.96 1.43767 0.0818868 0
M  V30 12117 H 1187.91 3.32671 2.58666 0
M  V30 12118 H 1186.64 2.08623 2.51285 0
M  V30 12119 H 1185.3 3.54004 0.952715 0
M  V30 12120 H 1184.94 3.68418 3.42458 0
M  V30 12121 H 1184.64 5.25237 2.63439 0
M  V30 12122 H 1186.17 4.98406 3.52738 0
M  V30 12123 H 1187.58 5.57556 1.33431 0
M  V30 12124 H 1185.98 5.9661 0.646231 0
M  V30 12125 H 1187.05 4.84428 -0.213789 0
M  V30 12126 N 1188.39 -0.0785156 1.57404 0
M  V30 12127 C 1189.67 -0.811557 1.77969 0
M  V30 12128 C 1190.05 -1.96123 0.780966 0
M  V30 12129 O 1189.4 -2.27731 -0.18726 0
M  V30 12130 C 1189.61 -1.29075 3.24254 0
M  V30 12131 C 1190.96 -1.72685 3.87898 0
M  V30 12132 O 1191.98 -1.38658 3.28104 0
M  V30 12133 O 1190.84 -2.3566 4.93079 0
M  V30 12134 H 1187.93 -0.388361 0.73014 0
M  V30 12135 H 1190.48 -0.0591118 1.69597 0
M  V30 12136 H 1189.25 -0.467813 3.88494 0
M  V30 12137 H 1188.87 -2.10472 3.37324 0
M  V30 12138 N 1189.87 -1.5367 -0.349747 0
M  V30 12139 C 1191.1 -1.74858 -1.11532 0
M  V30 12140 C 1191.52 -0.483591 -1.81777 0
M  V30 12141 O 1190.88 0.563399 -1.72324 0
M  V30 12142 C 1190.93 -2.92479 -2.10923 0
M  V30 12143 O 1190.03 -2.62194 -3.18321 0
M  V30 12144 H 1189.37 -0.580219 -0.322865 0
M  V30 12145 H 1191.9 -2.00611 -0.402033 0
M  V30 12146 H 1191.91 -3.19093 -2.54252 0
M  V30 12147 H 1190.59 -3.84228 -1.59191 0
M  V30 12148 H 1189.16 -2.46448 -2.79853 0
M  V30 12149 N 1191.35 0.610423 -1.45298 0
M  V30 12150 C 1192.59 1.36959 -1.50379 0
M  V30 12151 C 1192.95 1.91872 -0.142378 0
M  V30 12152 O 1192.24 1.71944 0.845332 0
M  V30 12153 C 1192.44 2.53812 -2.51623 0
M  V30 12154 C 1192.27 2.10341 -3.97476 0
M  V30 12155 C 1191.04 1.96646 -4.65466 0
M  V30 12156 C 1193.23 1.67982 -4.86093 0
M  V30 12157 N 1191.22 1.46956 -5.96051 0
M  V30 12158 C 1192.59 1.29686 -6.06285 0
M  V30 12159 C 1194.64 1.55548 -4.72979 0
M  V30 12160 C 1193.34 0.801985 -7.14815 0
M  V30 12161 C 1195.37 1.07465 -5.81554 0
M  V30 12162 C 1194.73 0.701317 -7.009 0
M  V30 12163 H 1190.83 0.495191 -0.605236 0
M  V30 12164 H 1193.42 0.698121 -1.81754 0
M  V30 12165 H 1191.59 3.18558 -2.22205 0
M  V30 12166 H 1193.32 3.20683 -2.4687 0
M  V30 12167 H 1190.07 2.17743 -4.20577 0
M  V30 12168 H 1190.5 1.2435 -6.65482 0
M  V30 12169 H 1195.14 1.83038 -3.81126 0
M  V30 12170 H 1192.86 0.514634 -8.0646 0
M  V30 12171 H 1196.44 0.98274 -5.7344 0
M  V30 12172 H 1195.32 0.334967 -7.83484 0
M  V30 12173 N 1192.83 1.32541 0.852676 0
M  V30 12174 C 1194.07 1.22971 1.60383 0
M  V30 12175 C 1194.4 -0.208009 1.93887 0
M  V30 12176 O 1193.67 -1.13326 1.59794 0
M  V30 12177 H 1192.25 0.452149 0.594618 0
M  V30 12178 H 1194.91 1.66089 1.01983 0
M  V30 12179 H 1194 1.81373 2.53989 0
M  V30 12180 N 1194.3 -1.0692 1.15784 0
M  V30 12181 C 1195.72 -1.61069 0.944123 0
M  V30 12182 C 1196.07 -1.8936 -0.513522 0
M  V30 12183 O 1195.19 -1.66232 -1.38549 0
M  V30 12184 C 1195.79 -2.9263 1.70743 0
M  V30 12185 C 1194.35 -3.43505 1.53887 0
M  V30 12186 C 1193.49 -2.17495 1.72021 0
M  V30 12187 H 1196.44 -0.89951 1.30746 0
M  V30 12188 H 1196.46 -3.61757 1.17951 0
M  V30 12189 H 1195.98 -2.72007 2.76828 0
M  V30 12190 H 1194.08 -3.69201 0.502153 0
M  V30 12191 H 1194.19 -4.19254 2.31868 0
M  V30 12192 H 1192.55 -2.27407 1.1471 0
M  V30 12193 H 1193.34 -1.99362 2.79481 0
M  V30 12194 N 1195.78 -0.955326 -1.25345 0
M  V30 12195 C 1196.73 -0.474888 -2.25862 0
M  V30 12196 C 1197.7 0.472996 -1.59223 0
M  V30 12197 O 1198.88 0.386094 -1.86853 0
M  V30 12198 C 1196.02 0.240554 -3.44261 0
M  V30 12199 C 1195.14 -0.74465 -4.25534 0
M  V30 12200 C 1194.27 -0.00657513 -5.312 0
M  V30 12201 C 1193.31 -0.982666 -6.04161 0
M  V30 12202 N 1192.45 -0.275418 -7.0156 0
M  V30 12203 H 1197.29 -1.33693 -2.66327 0
M  V30 12204 H 1194.83 -0.670439 -1.30933 0
M  V30 12205 H 1196.78 0.671933 -4.11753 0
M  V30 12206 H 1195.41 1.06664 -3.04668 0
M  V30 12207 H 1194.47 -1.29451 -3.57696 0
M  V30 12208 H 1195.78 -1.48948 -4.76042 0
M  V30 12209 H 1194.93 0.483404 -6.04771 0
M  V30 12210 H 1193.67 0.771035 -4.81567 0
M  V30 12211 H 1192.68 -1.48364 -5.29404 0
M  V30 12212 H 1193.9 -1.76052 -6.55883 0
M  V30 12213 H 1191.85 0.483441 -6.54216 0
M  V30 12214 H 1191.76 -0.959324 -7.49889 0
M  V30 12215 H 1193.03 0.193002 -7.79261 0
M  V30 12216 N 1197.26 1.39987 -0.723979 0
M  V30 12217 C 1198.51 2.01028 -0.267511 0
M  V30 12218 C 1198.84 1.57295 1.13894 0
M  V30 12219 O 1198.12 0.796805 1.7743 0
M  V30 12220 C 1198.4 3.58326 -0.356971 0
M  V30 12221 C 1198.25 4.12109 -1.8024 0
M  V30 12222 C 1199.57 4.39289 0.267003 0
M  V30 12223 H 1196.69 0.730364 -0.0986775 0
M  V30 12224 H 1199.33 1.66348 -0.91806 0
M  V30 12225 H 1197.48 3.88001 0.196908 0
M  V30 12226 H 1199.15 3.93199 -2.41231 0
M  V30 12227 H 1197.4 3.66082 -2.32737 0
M  V30 12228 H 1198.07 5.21261 -1.81634 0
M  V30 12229 H 1200.54 4.15595 -0.20503 0
M  V30 12230 H 1199.42 5.48624 0.174004 0
M  V30 12231 H 1199.68 4.20931 1.35164 0
M  V30 12232 N 1198.74 0.470782 1.50404 0
M  V30 12233 C 1199.65 -0.328877 2.32283 0
M  V30 12234 C 1200.67 -0.99629 1.42654 0
M  V30 12235 O 1201.84 -0.984331 1.75707 0
M  V30 12236 C 1198.91 -1.39675 3.1732 0
M  V30 12237 C 1197.97 -0.745965 4.22769 0
M  V30 12238 C 1197.2 -1.76295 5.03742 0
M  V30 12239 O 1197.42 -2.98943 4.85788 0
M  V30 12240 O 1196.36 -1.33495 5.86909 0
M  V30 12241 H 1200.18 0.340491 3.01785 0
M  V30 12242 H 1197.77 0.232637 1.47578 0
M  V30 12243 H 1199.65 -2.0153 3.70086 0
M  V30 12244 H 1198.33 -2.04959 2.50546 0
M  V30 12245 H 1197.23 -0.0884647 3.73995 0
M  V30 12246 H 1198.57 -0.136074 4.92012 0
M  V30 12247 N 1200.22 -1.56282 0.203376 0
M  V30 12248 C 1201.17 -2.16094 -0.727145 0
M  V30 12249 C 1202.15 -1.10404 -1.17046 0
M  V30 12250 O 1203.34 -1.36444 -1.12748 0
M  V30 12251 C 1200.47 -2.83029 -1.94293 0
M  V30 12252 C 1199.56 -3.9592 -1.52013 0
M  V30 12253 N 1199.95 -4.99292 -0.808794 0
M  V30 12254 C 1198.25 -4.07674 -1.80881 0
M  V30 12255 C 1198.95 -5.78641 -0.595738 0
M  V30 12256 N 1197.92 -5.31362 -1.14697 0
M  V30 12257 H 1201.73 -2.93378 -0.175041 0
M  V30 12258 H 1199.24 -1.624 0.00390859 0
M  V30 12259 H 1201.24 -3.24277 -2.62012 0
M  V30 12260 H 1199.9 -2.07235 -2.49968 0
M  V30 12261 H 1200.91 -5.15823 -0.463383 0
M  V30 12262 H 1197.59 -3.43016 -2.38005 0
M  V30 12263 H 1198.98 -6.71893 -0.0308618 0
M  V30 12264 N 1201.7 0.070167 -1.57444 0
M  V30 12265 C 1202.92 0.781894 -1.91557 0
M  V30 12266 C 1203.34 1.71037 -0.799489 0
M  V30 12267 O 1202.7 1.81082 0.227062 0
M  V30 12268 C 1202.75 1.57415 -3.25427 0
M  V30 12269 O 1202.47 0.682991 -4.32743 0
M  V30 12270 C 1203.97 2.38673 -3.73564 0
M  V30 12271 H 1201.19 0.222211 -0.633138 0
M  V30 12272 H 1203.73 0.0399504 -2.04461 0
M  V30 12273 H 1201.89 2.26835 -3.14045 0
M  V30 12274 H 1202.3 1.2342 -5.09772 0
M  V30 12275 H 1203.78 2.89716 -4.6986 0
M  V30 12276 H 1204.25 3.18269 -3.02657 0
M  V30 12277 H 1204.86 1.74405 -3.87896 0
M  V30 12278 N 1203.17 1.53854 0.341593 0
M  V30 12279 C 1204.4 1.7488 1.10002 0
M  V30 12280 C 1204.81 0.488802 1.82777 0
M  V30 12281 O 1204.15 -0.549333 1.75294 0
M  V30 12282 C 1204.22 2.87604 2.15694 0
M  V30 12283 C 1203.88 4.27142 1.62477 0
M  V30 12284 C 1204.88 5.08642 1.07606 0
M  V30 12285 C 1202.56 4.73633 1.67265 0
M  V30 12286 C 1204.56 6.34735 0.582284 0
M  V30 12287 C 1202.24 5.99697 1.175 0
M  V30 12288 C 1203.24 6.80081 0.630742 0
M  V30 12289 O 1202.93 8.03777 0.140519 0
M  V30 12290 H 1202.66 0.587824 0.333824 0
M  V30 12291 H 1205.22 2.01488 0.398965 0
M  V30 12292 H 1203.45 2.56526 2.89364 0
M  V30 12293 H 1205.13 2.96583 2.77117 0
M  V30 12294 H 1205.9 4.73887 1.03227 0
M  V30 12295 H 1201.78 4.11121 2.08567 0
M  V30 12296 H 1205.32 6.97424 0.156811 0
M  V30 12297 H 1201.22 6.33947 1.21579 0
M  V30 12298 H 1201.99 8.18094 0.257626 0
M  V30 12299 N 1204.65 -0.602709 1.4562 0
M  V30 12300 C 1205.56 -1.74132 1.5721 0
M  V30 12301 C 1206.58 -1.67909 0.456347 0
M  V30 12302 O 1207.75 -1.88178 0.717714 0
M  V30 12303 C 1204.82 -3.10604 1.54032 0
M  V30 12304 C 1203.88 -3.28244 2.76685 0
M  V30 12305 C 1203.11 -4.58205 2.73649 0
M  V30 12306 O 1203.34 -5.40836 1.81254 0
M  V30 12307 O 1202.27 -4.78663 3.64919 0
M  V30 12308 H 1206.1 -1.67304 2.53462 0
M  V30 12309 H 1203.68 -0.767381 1.28186 0
M  V30 12310 H 1205.56 -3.91904 1.54885 0
M  V30 12311 H 1204.24 -3.17913 0.60934 0
M  V30 12312 H 1203.14 -2.46514 2.81393 0
M  V30 12313 H 1204.48 -3.25814 3.68925 0
M  V30 12314 N 1206.13 -1.32992 -0.845635 0
M  V30 12315 C 1207.06 -1.25301 -1.97033 0
M  V30 12316 C 1208.04 -0.134966 -1.69564 0
M  V30 12317 O 1209.23 -0.323629 -1.91484 0
M  V30 12318 C 1206.36 -0.984551 -3.33052 0
M  V30 12319 C 1205.31 -2.06481 -3.749 0
M  V30 12320 C 1204.64 -1.6486 -5.08651 0
M  V30 12321 C 1205.94 -3.48083 -3.89404 0
M  V30 12322 H 1207.63 -2.194 -2.03725 0
M  V30 12323 H 1205.18 -1.05621 -0.978783 0
M  V30 12324 H 1207.13 -0.917269 -4.11296 0
M  V30 12325 H 1205.85 -0.00793116 -3.26599 0
M  V30 12326 H 1204.51 -2.1224 -2.98915 0
M  V30 12327 H 1204.16 -0.659183 -4.98662 0
M  V30 12328 H 1203.86 -2.37145 -5.37621 0
M  V30 12329 H 1205.38 -1.59585 -5.89377 0
M  V30 12330 H 1206.8 -3.44863 -4.57976 0
M  V30 12331 H 1205.19 -4.18796 -4.29802 0
M  V30 12332 H 1206.26 -3.87084 -2.92051 0
M  V30 12333 N 1207.61 1.06304 -1.1635 0
M  V30 12334 C 1208.56 2.12032 -0.83825 0
M  V30 12335 C 1209.54 1.59864 0.182254 0
M  V30 12336 O 1210.73 1.7699 -0.0185576 0
M  V30 12337 C 1207.86 3.41603 -0.340968 0
M  V30 12338 C 1206.95 4.00596 -1.39225 0
M  V30 12339 N 1207.34 4.33703 -2.6026 0
M  V30 12340 C 1205.64 4.28199 -1.24748 0
M  V30 12341 C 1206.34 4.80595 -3.27725 0
M  V30 12342 N 1205.31 4.80023 -2.55105 0
M  V30 12343 H 1209.12 2.35475 -1.75866 0
M  V30 12344 H 1206.63 1.23845 -1.05053 0
M  V30 12345 H 1208.63 4.16804 -0.0895629 0
M  V30 12346 H 1207.29 3.19598 0.57337 0
M  V30 12347 H 1208.3 4.24055 -2.97318 0
M  V30 12348 H 1204.98 4.15638 -0.393887 0
M  V30 12349 H 1206.37 5.15416 -4.31041 0
M  V30 12350 N 1209.09 0.96196 1.24836 0
M  V30 12351 C 1210.03 0.479282 2.27609 0
M  V30 12352 C 1211.03 -0.454224 1.63197 0
M  V30 12353 O 1212.23 -0.330146 1.76946 0
M  V30 12354 H 1208.61 0.13651 0.739506 0
M  V30 12355 H 1210.58 1.35817 2.657 0
M  V30 12356 C 1209.33 -0.220499 3.47 0
M  V30 12357 H 1208.65 0.488694 3.96802 0
M  V30 12358 H 1210.09 -0.522137 4.20773 0
M  V30 12359 C 1208.55 -1.44552 3.04313 0
M  V30 12360 O 1209.08 -2.54287 3.10967 0
M  V30 12361 N 1207.29 -1.3095 2.59423 0
M  V30 12362 H 1206.83 -0.416656 2.54208 0
M  V30 12363 H 1206.79 -2.13029 2.31227 0
M  V30 12364 N 1210.56 -1.39601 0.731392 0
M  V30 12365 C 1211.51 -2.32469 0.0781328 0
M  V30 12366 C 1212.51 -1.52873 -0.729811 0
M  V30 12367 O 1213.71 -1.68563 -0.631402 0
M  V30 12368 H 1210.09 -0.751972 0.00646515 0
M  V30 12369 H 1212.06 -2.85196 0.877833 0
M  V30 12370 C 1210.81 -3.37948 -0.817717 0
M  V30 12371 H 1210.13 -3.99272 -0.205417 0
M  V30 12372 H 1211.57 -4.05387 -1.24248 0
M  V30 12373 C 1210.03 -2.74703 -1.95038 0
M  V30 12374 O 1210.56 -2.62266 -3.04269 0
M  V30 12375 N 1208.76 -2.32845 -1.73872 0
M  V30 12376 H 1208.31 -2.43161 -0.850321 0
M  V30 12377 H 1208.27 -1.90869 -2.49833 0
M  V30 12378 N 1212.04 -0.478751 -1.50152 0
M  V30 12379 C 1213.29 0.0734397 -2.01967 0
M  V30 12380 C 1213.61 1.39523 -1.36229 0
M  V30 12381 O 1212.88 1.89141 -0.510149 0
M  V30 12382 H 1211.46 0.0301305 -0.746392 0
M  V30 12383 H 1214.12 -0.630921 -1.84406 0
M  V30 12384 H 1213.22 0.21937 -3.11328 0
M  V30 12385 N 1213.52 1.56172 -0.211661 0
M  V30 12386 C 1214.93 1.84307 0.297982 0
M  V30 12387 C 1215.28 1.1328 1.60194 0
M  V30 12388 O 1214.41 0.399137 2.12687 0
M  V30 12389 C 1215 3.34348 0.547428 0
M  V30 12390 C 1213.56 3.62835 1.0014 0
M  V30 12391 C 1212.71 2.77237 0.0590326 0
M  V30 12392 H 1215.66 1.5262 -0.435083 0
M  V30 12393 H 1215.68 3.54018 1.39469 0
M  V30 12394 H 1215.19 3.86015 -0.401778 0
M  V30 12395 H 1213.29 3.16616 1.96431 0
M  V30 12396 H 1213.41 4.70899 0.882653 0
M  V30 12397 H 1211.77 2.48377 0.564005 0
M  V30 12398 H 1212.55 3.31699 -0.884913 0
M  V30 12399 N 1215 -0.0618163 1.57479 0
M  V30 12400 C 1216.25 -0.757569 1.87364 0
M  V30 12401 C 1216.57 -1.77607 0.805025 0
M  V30 12402 O 1215.84 -1.95202 -0.165216 0
M  V30 12403 H 1214.42 -0.28278 0.691408 0
M  V30 12404 H 1217.08 -0.0355354 1.94868 0
M  V30 12405 H 1216.18 -1.26758 2.85199 0
M  V30 12406 N 1216.48 -1.54033 -0.333429 0
M  V30 12407 C 1217.7 -1.75716 -1.09232 0
M  V30 12408 C 1218.12 -0.501076 -1.82029 0
M  V30 12409 O 1217.48 0.527772 -1.74702 0
M  V30 12410 C 1217.53 -2.9439 -2.09802 0
M  V30 12411 O 1217.25 -4.15141 -1.39963 0
M  V30 12412 C 1218.75 -3.28206 -2.97987 0
M  V30 12413 H 1215.97 -0.586859 -0.325326 0
M  V30 12414 H 1218.51 -2.0089 -0.382555 0
M  V30 12415 H 1216.67 -2.71518 -2.76327 0
M  V30 12416 H 1217.08 -4.81826 -2.0723 0
M  V30 12417 H 1218.56 -4.14568 -3.64469 0
M  V30 12418 H 1219.03 -2.44944 -3.64553 0
M  V30 12419 H 1219.64 -3.5312 -2.37036 0
M  V30 12420 N 1217.95 0.594978 -1.45938 0
M  V30 12421 C 1219.2 1.35561 -1.50834 0
M  V30 12422 C 1219.53 1.93584 -0.154566 0
M  V30 12423 O 1218.81 1.75781 0.832541 0
M  V30 12424 C 1219.09 2.49414 -2.5974 0
M  V30 12425 C 1218.94 1.96506 -4.04605 0
M  V30 12426 C 1220.26 3.51505 -2.64825 0
M  V30 12427 H 1217.38 0.491549 -0.549134 0
M  V30 12428 H 1220.02 0.669536 -1.77812 0
M  V30 12429 H 1218.17 3.07939 -2.36866 0
M  V30 12430 H 1219.85 1.42533 -4.38728 0
M  V30 12431 H 1218.09 1.27418 -4.14665 0
M  V30 12432 H 1218.76 2.78636 -4.76515 0
M  V30 12433 H 1221.24 3.02841 -2.85353 0
M  V30 12434 H 1220.11 4.28641 -3.42867 0
M  V30 12435 H 1220.37 4.07942 -1.70399 0
M  V30 12436 N 1219.43 1.33438 0.838571 0
M  V30 12437 C 1220.38 1.23698 1.96981 0
M  V30 12438 C 1221.37 0.138299 1.68835 0
M  V30 12439 O 1222.58 0.302278 1.77444 0
M  V30 12440 H 1218.96 0.383874 0.646641 0
M  V30 12441 H 1220.93 2.19337 2.02321 0
M  V30 12442 C 1219.68 0.993362 3.33208 0
M  V30 12443 H 1219 1.83104 3.55405 0
M  V30 12444 H 1220.44 0.965517 4.1286 0
M  V30 12445 C 1218.9 -0.303701 3.35528 0
M  V30 12446 O 1219.43 -1.3103 3.79729 0
M  V30 12447 N 1217.63 -0.331342 2.88705 0
M  V30 12448 H 1217.18 0.488351 2.52929 0
M  V30 12449 H 1217.14 -1.199 2.9064 0
M  V30 12450 N 1220.91 -1.05686 1.16912 0
M  V30 12451 C 1222.16 -1.78244 0.95254 0
M  V30 12452 C 1222.48 -1.87924 -0.520525 0
M  V30 12453 O 1221.75 -1.39239 -1.37802 0
M  V30 12454 H 1220.33 -0.660228 0.349439 0
M  V30 12455 H 1222.99 -1.27634 1.47294 0
M  V30 12456 H 1222.09 -2.80102 1.37657 0
M  V30 12457 N 1222.39 -0.968567 -1.24324 0
M  V30 12458 C 1223.32 -0.518323 -2.27674 0
M  V30 12459 C 1224.3 0.442479 -1.64244 0
M  V30 12460 O 1225.48 0.338416 -1.91229 0
M  V30 12461 C 1222.61 0.191459 -3.46772 0
M  V30 12462 C 1221.57 -0.685449 -4.22476 0
M  V30 12463 C 1220.89 0.155873 -5.34473 0
M  V30 12464 C 1222.19 -1.97047 -4.83704 0
M  V30 12465 H 1223.89 -1.38215 -2.65588 0
M  V30 12466 H 1221.43 -0.66604 -1.27671 0
M  V30 12467 H 1223.39 0.517667 -4.18208 0
M  V30 12468 H 1222.11 1.08965 -3.07887 0
M  V30 12469 H 1220.77 -0.994942 -3.52841 0
M  V30 12470 H 1220.42 1.05424 -4.91828 0
M  V30 12471 H 1220.12 -0.427655 -5.86042 0
M  V30 12472 H 1221.64 0.476733 -6.08736 0
M  V30 12473 H 1223.06 -1.70979 -5.4721 0
M  V30 12474 H 1221.45 -2.50079 -5.45509 0
M  V30 12475 H 1222.52 -2.66484 -4.0511 0
M  V30 12476 N 1223.87 1.39211 -0.738786 0
M  V30 12477 C 1224.82 2.27869 -0.0772787 0
M  V30 12478 C 1225.8 1.44452 0.708683 0
M  V30 12479 O 1226.99 1.67329 0.57707 0
M  V30 12480 C 1224.12 3.33206 0.826364 0
M  V30 12481 C 1223.21 4.24086 0.034349 0
M  V30 12482 N 1223.6 4.95928 -0.99446 0
M  V30 12483 C 1221.9 4.45221 0.26343 0
M  V30 12484 C 1222.6 5.62757 -1.47238 0
M  V30 12485 N 1221.57 5.37824 -0.790305 0
M  V30 12486 H 1225.38 2.80869 -0.865447 0
M  V30 12487 H 1222.89 1.51938 -0.573462 0
M  V30 12488 H 1224.89 3.95592 1.31578 0
M  V30 12489 H 1223.55 2.81765 1.61365 0
M  V30 12490 H 1224.56 4.99289 -1.37591 0
M  V30 12491 H 1221.23 4.04717 1.02522 0
M  V30 12492 H 1222.62 6.30261 -2.32853 0
M  V30 12493 N 1225.34 0.486708 1.49896 0
M  V30 12494 C 1226.27 -0.288898 2.31706 0
M  V30 12495 C 1227.26 -0.975901 1.3932 0
M  V30 12496 O 1228.44 -0.970065 1.68236 0
M  V30 12497 C 1225.57 -1.36218 3.19471 0
M  V30 12498 C 1224.52 -0.795884 4.20535 0
M  V30 12499 C 1223.85 -1.96862 4.97141 0
M  V30 12500 C 1225.15 0.203421 5.21904 0
M  V30 12501 H 1226.84 0.393934 2.96797 0
M  V30 12502 H 1224.39 0.190894 1.42729 0
M  V30 12503 H 1226.34 -1.91238 3.75508 0
M  V30 12504 H 1225.07 -2.074 2.52295 0
M  V30 12505 H 1223.73 -0.267538 3.65622 0
M  V30 12506 H 1223.37 -2.66779 4.26425 0
M  V30 12507 H 1223.07 -1.59585 5.65514 0
M  V30 12508 H 1224.6 -2.52343 5.56017 0
M  V30 12509 H 1226.01 -0.258144 5.72719 0
M  V30 12510 H 1224.41 0.491273 5.98086 0
M  V30 12511 H 1225.48 1.12414 4.7169 0
M  V30 12512 N 1226.82 -1.56058 0.219941 0
M  V30 12513 C 1228.05 -2.031 -0.42014 0
M  V30 12514 C 1228.47 -1.09875 -1.52673 0
M  V30 12515 O 1227.83 -0.0866458 -1.81093 0
M  V30 12516 C 1227.88 -3.48389 -0.93047 0
M  V30 12517 O 1226.98 -3.583 -2.04192 0
M  V30 12518 H 1226.32 -0.657129 -0.0952772 0
M  V30 12519 H 1228.85 -2.01787 0.338105 0
M  V30 12520 H 1228.86 -3.88678 -1.2407 0
M  V30 12521 H 1227.54 -4.15725 -0.120539 0
M  V30 12522 H 1226.12 -3.29898 -1.73845 0
M  V30 12523 N 1228.3 0.053464 -1.57509 0
M  V30 12524 C 1229.55 0.748016 -1.87317 0
M  V30 12525 C 1229.86 1.77805 -0.815161 0
M  V30 12526 O 1231.07 2.52347 -1.00167 0
M  V30 12527 C 1229.53 1.38137 -3.32334 0
M  V30 12528 C 1229.13 0.388958 -4.46308 0
M  V30 12529 C 1230.88 2.05722 -3.7132 0
M  V30 12530 C 1228.78 1.02927 -5.82374 0
M  V30 12531 H 1227.71 0.283123 -0.698826 0
M  V30 12532 H 1230.37 0.00170723 -1.835 0
M  V30 12533 H 1228.75 2.17656 -3.3082 0
M  V30 12534 H 1229.92 -0.377752 -4.59249 0
M  V30 12535 H 1228.24 -0.183447 -4.15996 0
M  V30 12536 H 1230.83 2.54437 -4.70283 0
M  V30 12537 H 1231.18 2.86475 -3.02056 0
M  V30 12538 H 1231.71 1.3301 -3.74904 0
M  V30 12539 H 1228.45 0.261674 -6.54977 0
M  V30 12540 H 1227.97 1.7664 -5.732 0
M  V30 12541 H 1229.65 1.54378 -6.28312 0
M  V30 12542 N 1229.78 1.54207 0.325255 0
M  V30 12543 C 1230.73 1.79856 1.40128 0
M  V30 12544 C 1231.71 0.654503 1.46987 0
M  V30 12545 O 1232.91 0.914453 1.51548 0
M  V30 12546 C 1230.03 2.02786 2.77007 0
M  V30 12547 C 1229.12 3.23309 2.74467 0
M  V30 12548 N 1229.51 4.44396 2.41549 0
M  V30 12549 C 1227.81 3.24848 3.05598 0
M  V30 12550 C 1228.51 5.26325 2.47703 0
M  V30 12551 N 1227.49 4.63468 2.84074 0
M  V30 12552 H 1231.29 2.71056 1.13603 0
M  V30 12553 H 1228.8 1.53379 0.533728 0
M  V30 12554 H 1230.8 2.19301 3.5456 0
M  V30 12555 H 1229.46 1.12839 3.04463 0
M  V30 12556 H 1230.47 4.71426 2.14425 0
M  V30 12557 H 1227.15 2.44929 3.38107 0
M  V30 12558 H 1228.54 6.33016 2.25257 0
M  V30 12559 N 1231.26 -0.58723 1.46251 0
M  V30 12560 C 1232.19 -1.70694 1.5933 0
M  V30 12561 C 1233.17 -1.64208 0.443831 0
M  V30 12562 O 1234.35 -1.82294 0.669516 0
M  V30 12563 C 1231.48 -3.0933 1.579 0
M  V30 12564 C 1230.44 -3.30643 2.7177 0
M  V30 12565 C 1229.76 -4.69761 2.554 0
M  V30 12566 C 1231.06 -3.18916 4.1363 0
M  V30 12567 H 1232.76 -1.60004 2.53059 0
M  V30 12568 H 1230.3 -0.768343 1.21789 0
M  V30 12569 H 1232.26 -3.87479 1.65644 0
M  V30 12570 H 1230.98 -3.20907 0.60712 0
M  V30 12571 H 1229.64 -2.54892 2.63488 0
M  V30 12572 H 1229.29 -4.78098 1.56306 0
M  V30 12573 H 1228.99 -4.84974 3.31774 0
M  V30 12574 H 1230.51 -5.50084 2.65028 0
M  V30 12575 H 1231.93 -3.86915 4.23048 0
M  V30 12576 H 1230.32 -3.45653 4.90555 0
M  V30 12577 H 1231.39 -2.1606 4.34104 0
M  V30 12578 N 1232.74 -1.33881 -0.831482 0
M  V30 12579 C 1234.15 -1.23112 -1.40358 0
M  V30 12580 C 1234.5 0.146944 -1.95649 0
M  V30 12581 O 1233.62 1.04689 -1.89391 0
M  V30 12582 C 1234.22 -2.22899 -2.5515 0
M  V30 12583 C 1232.78 -2.15946 -3.08292 0
M  V30 12584 C 1231.92 -2.09975 -1.81124 0
M  V30 12585 H 1234.87 -1.45372 -0.63661 0
M  V30 12586 H 1234.9 -1.841 -3.32997 0
M  V30 12587 H 1234.41 -3.23186 -2.14878 0
M  V30 12588 H 1232.51 -1.18987 -3.53091 0
M  V30 12589 H 1232.62 -3.06822 -3.67964 0
M  V30 12590 H 1230.99 -1.55564 -2.01673 0
M  V30 12591 H 1231.77 -3.12082 -1.43037 0
M  V30 12592 N 1234.21 1.05064 -1.1747 0
M  V30 12593 C 1235.46 1.77737 -0.961979 0
M  V30 12594 C 1235.78 1.88198 0.510551 0
M  V30 12595 O 1235.05 1.39968 1.37062 0
M  V30 12596 H 1233.63 0.658366 -0.352935 0
M  V30 12597 H 1236.29 1.26851 -1.47969 0
M  V30 12598 H 1235.39 2.79368 -1.39141 0
M  V30 12599 N 1235.69 0.975146 1.23809 0
M  V30 12600 C 1236.62 0.469151 2.24347 0
M  V30 12601 C 1237.64 -0.426156 1.57123 0
M  V30 12602 O 1238.83 -0.231136 1.76997 0
M  V30 12603 C 1235.93 -0.34121 3.37178 0
M  V30 12604 C 1235.1 0.545968 4.33979 0
M  V30 12605 C 1234.16 -0.209648 5.25782 0
M  V30 12606 O 1233.18 0.398953 5.678 0
M  V30 12607 N 1234.39 -1.49713 5.60862 0
M  V30 12608 H 1237.15 1.33359 2.68394 0
M  V30 12609 H 1234.71 0.847814 1.37927 0
M  V30 12610 H 1236.7 -0.854924 3.95567 0
M  V30 12611 H 1235.27 -1.10663 2.92357 0
M  V30 12612 H 1234.49 1.24057 3.7417 0
M  V30 12613 H 1235.78 1.15077 4.95615 0
M  V30 12614 H 1235.18 -2.0132 5.28665 0
M  V30 12615 H 1233.74 -1.95639 6.21746 0
M  V30 12616 N 1237.17 -1.38817 0.746158 0
M  V30 12617 C 1238.39 -2.05096 0.308302 0
M  V30 12618 C 1238.82 -1.55902 -1.05244 0
M  V30 12619 O 1238.18 -0.707685 -1.66918 0
M  V30 12620 C 1238.23 -3.59068 0.332016 0
M  V30 12621 O 1237.33 -4.06813 -0.676547 0
M  V30 12622 H 1236.67 -0.649523 0.1379 0
M  V30 12623 H 1239.2 -1.77637 1.0152 0
M  V30 12624 H 1239.21 -4.07601 0.180293 0
M  V30 12625 H 1237.89 -3.94234 1.32487 0
M  V30 12626 H 1236.46 -3.69666 -0.490046 0
M  V30 12627 N 1238.65 -0.49465 -1.49636 0
M  V30 12628 C 1239.58 0.323781 -2.26902 0
M  V30 12629 C 1240.59 0.936281 -1.33183 0
M  V30 12630 O 1241.78 0.820695 -1.58514 0
M  V30 12631 C 1238.88 1.47025 -3.05347 0
M  V30 12632 C 1238.05 0.966228 -4.26594 0
M  V30 12633 C 1237.11 1.98955 -4.87138 0
M  V30 12634 O 1236.14 1.56065 -5.47387 0
M  V30 12635 N 1237.34 3.3195 -4.76224 0
M  V30 12636 H 1240.11 -0.338716 -2.9778 0
M  V30 12637 H 1237.67 -0.326817 -1.58567 0
M  V30 12638 H 1239.66 2.15225 -3.42725 0
M  V30 12639 H 1238.23 2.03702 -2.37117 0
M  V30 12640 H 1237.45 0.109336 -3.94048 0
M  V30 12641 H 1238.74 0.607781 -5.05157 0
M  V30 12642 H 1238.14 3.69488 -4.28363 0
M  V30 12643 H 1236.69 3.95881 -5.17805 0
M  V30 12644 N 1240.13 1.55939 -0.228214 0
M  V30 12645 C 1241.54 1.84612 0.278417 0
M  V30 12646 C 1241.89 1.14973 1.58983 0
M  V30 12647 O 1241.01 0.421673 2.12252 0
M  V30 12648 C 1241.61 3.3491 0.511935 0
M  V30 12649 C 1240.17 3.63876 0.962861 0
M  V30 12650 C 1239.31 2.77284 0.0296246 0
M  V30 12651 H 1242.26 1.52149 -0.451245 0
M  V30 12652 H 1242.29 3.55477 1.35707 0
M  V30 12653 H 1241.8 3.85567 -0.442697 0
M  V30 12654 H 1239.9 3.18682 1.93062 0
M  V30 12655 H 1240.01 4.71809 0.832659 0
M  V30 12656 H 1238.38 2.48961 0.53763 0
M  V30 12657 H 1239.16 3.30742 -0.920044 0
M  V30 12658 N 1241.6 -0.0451101 1.57535 0
M  V30 12659 C 1242.83 -0.755068 1.93167 0
M  V30 12660 C 1243.25 -1.68949 0.826915 0
M  V30 12661 O 1242.61 -1.79978 -0.218534 0
M  V30 12662 C 1242.66 -1.50201 3.27829 0
M  V30 12663 O 1241.76 -2.61434 3.18945 0
M  V30 12664 H 1241.11 -0.204219 0.631815 0
M  V30 12665 H 1243.64 -0.00537504 2.04599 0
M  V30 12666 H 1243.65 -1.87547 3.6234 0
M  V30 12667 H 1242.32 -0.816591 4.07805 0
M  V30 12668 H 1240.9 -2.26749 2.96039 0
M  V30 12669 N 1243.08 -1.54377 -0.317073 0
M  V30 12670 C 1244.36 -1.63551 -1.07287 0
M  V30 12671 C 1244.74 -0.473499 -2.05721 0
M  V30 12672 O 1244.09 0.531545 -2.22232 0
M  V30 12673 C 1244.3 -3.00842 -1.76904 0
M  V30 12674 C 1245.65 -3.57111 -2.29689 0
M  V30 12675 O 1246.67 -3.0319 -1.86961 0
M  V30 12676 O 1245.53 -4.51486 -3.07932 0
M  V30 12677 H 1242.62 -0.662557 -0.494922 0
M  V30 12678 H 1245.17 -1.66723 -0.316444 0
M  V30 12679 H 1243.94 -3.76854 -1.05341 0
M  V30 12680 H 1243.56 -3.01377 -2.59341 0
M  V30 12681 N 1244.56 0.579466 -1.4656 0
M  V30 12682 C 1245.49 1.69846 -1.60233 0
M  V30 12683 C 1246.47 1.6397 -0.452533 0
M  V30 12684 O 1247.66 1.81936 -0.679174 0
M  V30 12685 C 1244.79 3.08488 -1.59538 0
M  V30 12686 C 1243.74 3.29197 -2.7352 0
M  V30 12687 C 1243.07 4.684 -2.57887 0
M  V30 12688 C 1244.37 3.16718 -4.15315 0
M  V30 12689 H 1246.06 1.5866 -2.53904 0
M  V30 12690 H 1243.61 0.761873 -1.22194 0
M  V30 12691 H 1245.56 3.86595 -1.67696 0
M  V30 12692 H 1244.28 3.20581 -0.62413 0
M  V30 12693 H 1242.94 2.53491 -2.64836 0
M  V30 12694 H 1242.59 4.77262 -1.58839 0
M  V30 12695 H 1242.29 4.83208 -3.34341 0
M  V30 12696 H 1243.81 5.48671 -2.67942 0
M  V30 12697 H 1245.23 3.84666 -4.25094 0
M  V30 12698 H 1243.63 3.43047 -4.92381 0
M  V30 12699 H 1244.7 2.13755 -4.35244 0
M  V30 12700 N 1246.04 1.3432 0.824371 0
M  V30 12701 C 1246.97 1.2842 1.95014 0
M  V30 12702 C 1247.95 0.161925 1.69328 0
M  V30 12703 O 1249.13 0.354052 1.90945 0
M  V30 12704 C 1246.26 1.03741 3.31444 0
M  V30 12705 C 1245.22 2.12419 3.71567 0
M  V30 12706 C 1244.54 1.72931 5.05963 0
M  V30 12707 C 1245.84 3.54235 3.83817 0
M  V30 12708 H 1247.54 2.22614 2.00209 0
M  V30 12709 H 1245.08 1.07165 0.961856 0
M  V30 12710 H 1247.04 0.982586 4.09784 0
M  V30 12711 H 1245.76 0.0598892 3.26545 0
M  V30 12712 H 1244.42 2.16968 2.955 0
M  V30 12713 H 1244.07 0.738433 4.9755 0
M  V30 12714 H 1243.77 2.45668 5.3378 0
M  V30 12715 H 1245.29 1.68941 5.86763 0
M  V30 12716 H 1246.71 3.52106 4.52432 0
M  V30 12717 H 1245.1 4.25581 4.23085 0
M  V30 12718 H 1246.17 3.91682 2.85856 0
M  V30 12719 N 1247.52 -1.0444 1.18026 0
M  V30 12720 C 1248.75 -1.80971 0.996642 0
M  V30 12721 C 1249.15 -1.83568 -0.458192 0
M  V30 12722 O 1248.5 -1.26713 -1.33002 0
M  V30 12723 C 1248.56 -3.28051 1.47048 0
M  V30 12724 C 1248.22 -3.49122 2.94895 0
M  V30 12725 C 1249.22 -3.40621 3.92777 0
M  V30 12726 C 1246.91 -3.7584 3.33241 0
M  V30 12727 C 1248.9 -3.58535 5.27002 0
M  V30 12728 C 1246.59 -3.93402 4.6763 0
M  V30 12729 C 1247.58 -3.84749 5.6432 0
M  V30 12730 O 1247.27 -4.01813 6.96277 0
M  V30 12731 H 1247 -0.576873 0.352411 0
M  V30 12732 H 1249.56 -1.32542 1.56913 0
M  V30 12733 H 1247.79 -3.77431 0.841609 0
M  V30 12734 H 1249.48 -3.8613 1.25135 0
M  V30 12735 H 1250.24 -3.19948 3.64497 0
M  V30 12736 H 1246.12 -3.81674 2.58545 0
M  V30 12737 H 1249.67 -3.51698 6.02457 0
M  V30 12738 H 1245.56 -4.13568 4.95613 0
M  V30 12739 H 1246.33 -4.18995 7.03126 0
M  V30 12740 N 1248.99 -0.981699 -1.2329 0
M  V30 12741 C 1250.24 -0.646818 -1.91048 0
M  V30 12742 C 1250.56 0.823479 -1.77421 0
M  V30 12743 O 1251.76 1.26948 -2.39993 0
M  V30 12744 C 1250.22 -1.1063 -3.42475 0
M  V30 12745 C 1249.83 -2.60103 -3.6476 0
M  V30 12746 C 1251.57 -0.845227 -4.16 0
M  V30 12747 C 1249.48 -2.99712 -5.0983 0
M  V30 12748 H 1248.41 -0.238221 -0.715379 0
M  V30 12749 H 1251.06 -1.18977 -1.39702 0
M  V30 12750 H 1249.44 -0.491554 -3.92937 0
M  V30 12751 H 1250.61 -3.26828 -3.24839 0
M  V30 12752 H 1248.93 -2.83972 -3.04547 0
M  V30 12753 H 1251.53 -1.11699 -5.22903 0
M  V30 12754 H 1251.87 0.218661 -4.15725 0
M  V30 12755 H 1252.4 -1.42162 -3.7153 0
M  V30 12756 H 1249.14 -4.0523 -5.15237 0
M  V30 12757 H 1248.66 -2.37683 -5.50697 0
M  V30 12758 H 1250.34 -2.9039 -5.78172 0
M  V30 12759 N 1250.47 1.3842 -0.753509 0
M  V30 12760 C 1251.4 2.33073 -0.141198 0
M  V30 12761 C 1252.38 1.54863 0.70367 0
M  V30 12762 O 1253.57 1.8318 0.644872 0
M  V30 12763 C 1250.7 3.39043 0.752802 0
M  V30 12764 C 1249.65 4.27999 0.0106692 0
M  V30 12765 C 1248.98 5.24824 1.02291 0
M  V30 12766 C 1250.28 5.09308 -1.15768 0
M  V30 12767 H 1251.97 2.84528 -0.93188 0
M  V30 12768 H 1249.52 1.36802 -0.449567 0
M  V30 12769 H 1251.47 4.04224 1.19083 0
M  V30 12770 H 1250.2 2.8607 1.57581 0
M  V30 12771 H 1248.85 3.64323 -0.407939 0
M  V30 12772 H 1248.5 4.68139 1.83998 0
M  V30 12773 H 1248.2 5.85196 0.53101 0
M  V30 12774 H 1249.73 5.92882 1.46026 0
M  V30 12775 H 1251.14 5.6773 -0.797203 0
M  V30 12776 H 1249.54 5.78914 -1.58044 0
M  V30 12777 H 1250.61 4.43051 -1.97062 0
M  V30 12778 N 1251.95 0.502579 1.49372 0
M  V30 12779 C 1253.23 -0.104472 1.95321 0
M  V30 12780 C 1253.61 -1.53975 1.44412 0
M  V30 12781 O 1252.96 -2.18804 0.658566 0
M  V30 12782 C 1253.17 -0.0154833 3.48997 0
M  V30 12783 C 1254.51 -0.188615 4.24181 0
M  V30 12784 O 1255.54 -0.090595 3.56085 0
M  V30 12785 O 1254.4 -0.390068 5.45106 0
M  V30 12786 H 1251.49 -0.0944325 0.821591 0
M  V30 12787 H 1254.04 0.565229 1.6001 0
M  V30 12788 H 1252.81 0.985383 3.7869 0
M  V30 12789 H 1252.43 -0.72526 3.90929 0
M  V30 12790 N 1253.43 -1.55816 0.23648 0
M  V30 12791 C 1254.68 -1.97862 -0.391579 0
M  V30 12792 C 1254.99 -1.1276 -1.59827 0
M  V30 12793 O 1256.2 -1.44772 -2.29681 0
M  V30 12794 C 1254.65 -3.5204 -0.748065 0
M  V30 12795 C 1254.26 -4.45867 0.436643 0
M  V30 12796 C 1256 -4.02766 -1.3409 0
M  V30 12797 C 1253.91 -5.91373 0.0568909 0
M  V30 12798 H 1252.84 -0.738913 -0.150078 0
M  V30 12799 H 1255.49 -1.80415 0.335052 0
M  V30 12800 H 1253.87 -3.65143 -1.53254 0
M  V30 12801 H 1255.05 -4.44519 1.21408 0
M  V30 12802 H 1253.36 -4.05565 0.943702 0
M  V30 12803 H 1255.96 -5.08987 -1.63817 0
M  V30 12804 H 1256.3 -3.49496 -2.26182 0
M  V30 12805 H 1256.84 -3.92946 -0.619548 0
M  V30 12806 H 1253.58 -6.48657 0.944682 0
M  V30 12807 H 1253.1 -5.95881 -0.684557 0
M  V30 12808 H 1254.77 -6.45972 -0.364586 0
M  V30 12809 N 1254.91 0.036755 -1.57557 0
M  V30 12810 C 1255.84 1.06718 -2.0284 0
M  V30 12811 C 1256.85 1.32926 -0.939917 0
M  V30 12812 O 1258.04 1.30549 -1.21734 0
M  V30 12813 C 1255.14 2.41054 -2.38214 0
M  V30 12814 C 1254.31 2.3431 -3.69347 0
M  V30 12815 C 1253.37 3.51034 -3.91997 0
M  V30 12816 O 1252.4 3.30875 -4.63152 0
M  V30 12817 N 1253.6 4.72634 -3.37042 0
M  V30 12818 H 1256.37 0.681275 -2.91854 0
M  V30 12819 H 1253.93 0.224836 -1.60331 0
M  V30 12820 H 1255.92 3.17847 -2.5051 0
M  V30 12821 H 1254.49 2.71517 -1.5491 0
M  V30 12822 H 1253.71 1.42668 -3.67477 0
M  V30 12823 H 1255 2.2694 -4.55385 0
M  V30 12824 H 1254.39 4.91914 -2.79352 0
M  V30 12825 H 1252.95 5.46818 -3.5473 0
M  V30 12826 N 1256.39 1.54543 0.308881 0
M  V30 12827 C 1257.8 1.64532 0.882392 0
M  V30 12828 C 1258.15 0.54886 1.88367 0
M  V30 12829 O 1257.27 -0.315832 2.14083 0
M  V30 12830 C 1257.87 2.98251 1.60722 0
M  V30 12831 C 1256.43 3.10387 2.12925 0
M  V30 12832 C 1255.57 2.60176 0.959362 0
M  V30 12833 H 1258.52 1.58466 0.0860803 0
M  V30 12834 H 1258.55 2.89233 2.47233 0
M  V30 12835 H 1258.06 3.78033 0.878233 0
M  V30 12836 H 1256.16 2.35309 2.88895 0
M  V30 12837 H 1256.27 4.16421 2.36918 0
M  V30 12838 H 1254.64 2.16434 1.3427 0
M  V30 12839 H 1255.42 3.42429 0.244454 0
M  V30 12840 N 1257.86 -0.571685 1.46866 0
M  V30 12841 C 1258.8 -1.69475 1.54307 0
M  V30 12842 C 1259.81 -1.57006 0.430449 0
M  V30 12843 O 1261 -1.64229 0.69936 0
M  V30 12844 C 1258.1 -3.07824 1.41766 0
M  V30 12845 C 1257.27 -3.46189 2.67342 0
M  V30 12846 C 1256.33 -4.63642 2.48843 0
M  V30 12847 O 1255.36 -4.68949 3.22608 0
M  V30 12848 N 1256.56 -5.59223 1.55724 0
M  V30 12849 H 1259.32 -1.63543 2.51145 0
M  V30 12850 H 1256.88 -0.757957 1.43062 0
M  V30 12851 H 1258.88 -3.84208 1.27146 0
M  V30 12852 H 1257.45 -3.08063 0.530667 0
M  V30 12853 H 1256.67 -2.59399 2.96826 0
M  V30 12854 H 1257.95 -3.68591 3.50739 0
M  V30 12855 H 1257.35 -5.5768 0.949175 0
M  V30 12856 H 1255.91 -6.34993 1.47063 0
M  V30 12857 N 1259.34 -1.34755 -0.817236 0
M  V30 12858 C 1260.59 -1.2718 -1.57066 0
M  V30 12859 C 1260.91 0.156531 -1.94371 0
M  V30 12860 O 1260.18 1.09049 -1.62742 0
M  V30 12861 H 1258.76 -0.467755 -0.582421 0
M  V30 12862 H 1261.42 -1.68734 -0.975438 0
M  V30 12863 H 1260.52 -1.88043 -2.49091 0
M  V30 12864 N 1260.82 1.03812 -1.18578 0
M  V30 12865 C 1262.07 1.76706 -0.980776 0
M  V30 12866 C 1262.39 1.88729 0.490562 0
M  V30 12867 O 1261.66 1.41413 1.35569 0
M  V30 12868 H 1260.24 0.654586 -0.359898 0
M  V30 12869 H 1262.9 1.25274 -1.49306 0
M  V30 12870 H 1262 2.77876 -1.42096 0
M  V30 12871 N 1262.3 0.988223 1.22768 0
M  V30 12872 C 1263.23 0.554478 2.26821 0
M  V30 12873 C 1264.21 -0.416293 1.64927 0
M  V30 12874 O 1265.39 -0.30795 1.91743 0
M  V30 12875 C 1262.52 -0.136266 3.47033 0
M  V30 12876 C 1261.48 0.752575 4.21332 0
M  V30 12877 C 1260.8 -0.0708236 5.34653 0
M  V30 12878 C 1262.1 2.04717 4.80508 0
M  V30 12879 H 1263.8 1.42423 2.63355 0
M  V30 12880 H 1261.34 0.686267 1.26595 0
M  V30 12881 H 1263.3 -0.451068 4.18979 0
M  V30 12882 H 1262.02 -1.04053 3.09581 0
M  V30 12883 H 1260.68 1.05095 3.51213 0
M  V30 12884 H 1260.33 -0.975859 4.93443 0
M  V30 12885 H 1260.03 0.520835 5.85287 0
M  V30 12886 H 1261.55 -0.379828 6.09417 0
M  V30 12887 H 1262.97 1.79663 5.44421 0
M  V30 12888 H 1261.36 2.58726 5.41462 0
M  V30 12889 H 1262.43 2.72896 4.00819 0
M  V30 12890 N 1263.78 -1.38018 0.760839 0
M  V30 12891 C 1264.71 -2.2899 0.0980916 0
M  V30 12892 C 1265.72 -1.48102 -0.675985 0
M  V30 12893 O 1266.91 -1.70883 -0.515878 0
M  V30 12894 C 1264.01 -3.27142 -0.884959 0
M  V30 12895 C 1263.18 -4.37081 -0.167 0
M  V30 12896 C 1262.24 -5.15375 -1.06184 0
M  V30 12897 O 1261.27 -5.6673 -0.529667 0
M  V30 12898 N 1262.47 -5.29052 -2.38924 0
M  V30 12899 H 1265.23 -2.86508 0.879403 0
M  V30 12900 H 1262.8 -1.49877 0.612245 0
M  V30 12901 H 1264.79 -3.764 -1.48678 0
M  V30 12902 H 1263.36 -2.70471 -1.5673 0
M  V30 12903 H 1262.58 -3.89363 0.615617 0
M  V30 12904 H 1263.87 -5.07732 0.329525 0
M  V30 12905 H 1263.26 -4.88892 -2.84607 0
M  V30 12906 H 1261.82 -5.81658 -2.94139 0
M  V30 12907 N 1265.25 -0.510493 -1.49103 0
M  V30 12908 C 1266.49 0.0288873 -2.0438 0
M  V30 12909 C 1266.86 1.334 -1.38088 0
M  V30 12910 O 1268.06 1.95821 -1.8414 0
M  V30 12911 C 1266.33 0.168392 -3.57003 0
M  V30 12912 S 1267.89 0.660651 -4.33798 0
M  V30 12913 H 1264.71 -0.00274928 -0.710995 0
M  V30 12914 H 1267.31 -0.686622 -1.83046 0
M  V30 12915 H 1266.01 -0.786627 -4.02791 0
M  V30 12916 H 1265.54 0.908861 -3.82757 0
M  V30 12917 H 1267.56 1.92833 -4.57198 0
M  V30 12918 N 1266.73 1.55688 -0.24474 0
M  V30 12919 C 1267.98 1.98891 0.380603 0
M  V30 12920 C 1268.31 1.13283 1.58105 0
M  V30 12921 O 1267.56 0.183141 1.94841 0
M  V30 12922 C 1267.86 3.47487 0.835923 0
M  V30 12923 C 1267.53 4.5017 -0.256528 0
M  V30 12924 C 1266.19 4.7797 -0.556573 0
M  V30 12925 C 1268.54 5.1163 -0.994174 0
M  V30 12926 C 1265.87 5.64508 -1.59838 0
M  V30 12927 C 1268.22 5.99297 -2.02548 0
M  V30 12928 C 1266.88 6.25432 -2.3322 0
M  V30 12929 H 1266.15 0.727794 0.139273 0
M  V30 12930 H 1268.8 1.88235 -0.352113 0
M  V30 12931 H 1267.11 3.55464 1.64781 0
M  V30 12932 H 1268.8 3.78301 1.33001 0
M  V30 12933 H 1265.39 4.28598 -0.0125284 0
M  V30 12934 H 1269.58 4.90202 -0.775617 0
M  V30 12935 H 1264.83 5.83012 -1.84138 0
M  V30 12936 H 1269.01 6.45964 -2.60198 0
M  V30 12937 H 1266.63 6.92282 -3.14085 0
M  V30 12938 N 1268.21 -0.0283989 1.57574 0
M  V30 12939 C 1269.62 -0.574912 1.77628 0
M  V30 12940 C 1269.97 -1.75563 0.875903 0
M  V30 12941 O 1269.1 -2.16284 0.0709141 0
M  V30 12942 C 1269.69 -1.04972 3.22128 0
M  V30 12943 C 1268.25 -1.54175 3.43376 0
M  V30 12944 C 1267.4 -0.480127 2.73112 0
M  V30 12945 H 1270.35 0.197826 1.57462 0
M  V30 12946 H 1270.37 -1.91705 3.28678 0
M  V30 12947 H 1269.88 -0.190173 3.87634 0
M  V30 12948 H 1267.98 -2.42313 2.83046 0
M  V30 12949 H 1268.1 -1.58879 4.51989 0
M  V30 12950 H 1266.46 -0.935314 2.36905 0
M  V30 12951 H 1267.24 0.369973 3.41301 0
M  V30 12952 N 1269.69 -1.54705 -0.300681 0
M  V30 12953 C 1270.62 -1.8205 -1.39249 0
M  V30 12954 C 1271.63 -0.703476 -1.46816 0
M  V30 12955 O 1272.82 -0.980957 -1.49129 0
M  V30 12956 C 1269.92 -1.94376 -2.77617 0
M  V30 12957 C 1269.09 -3.2478 -2.92979 0
M  V30 12958 C 1268.15 -3.27518 -4.11848 0
M  V30 12959 O 1267.18 -4.01047 -4.03918 0
M  V30 12960 N 1268.38 -2.52932 -5.22499 0
M  V30 12961 H 1271.15 -2.76279 -1.16146 0
M  V30 12962 H 1268.71 -1.54283 -0.49075 0
M  V30 12963 H 1270.7 -1.93609 -3.55384 0
M  V30 12964 H 1269.27 -1.07141 -2.93666 0
M  V30 12965 H 1268.49 -3.38319 -2.02322 0
M  V30 12966 H 1269.78 -4.10835 -3.00153 0
M  V30 12967 H 1269.18 -1.92825 -5.31822 0
M  V30 12968 H 1267.73 -2.57919 -5.98599 0
M  V30 12969 N 1271.17 0.563888 -1.47167 0
M  V30 12970 C 1272.58 1.14603 -1.47388 0
M  V30 12971 C 1272.93 1.94907 -0.224916 0
M  V30 12972 O 1272.05 2.05745 0.670672 0
M  V30 12973 C 1272.65 2.08501 -2.67044 0
M  V30 12974 C 1271.21 2.62 -2.70246 0
M  V30 12975 C 1270.35 1.38244 -2.40383 0
M  V30 12976 H 1273.31 0.350833 -1.54774 0
M  V30 12977 H 1273.33 2.92272 -2.43634 0
M  V30 12978 H 1272.84 1.50027 -3.57929 0
M  V30 12979 H 1270.94 3.24292 -1.83482 0
M  V30 12980 H 1271.05 3.0345 -3.70749 0
M  V30 12981 H 1269.42 1.68692 -1.90827 0
M  V30 12982 H 1270.2 0.815726 -3.33468 0
M  V30 12983 N 1272.64 1.35187 0.810078 0
M  V30 12984 C 1274.06 1.25329 1.38381 0
M  V30 12985 C 1274.41 -0.115799 1.95858 0
M  V30 12986 O 1273.53 -1.01663 1.91033 0
M  V30 12987 C 1274.13 2.2693 2.51572 0
M  V30 12988 C 1272.69 2.20824 3.04818 0
M  V30 12989 C 1271.83 2.1283 1.7776 0
M  V30 12990 H 1274.78 1.46366 0.613402 0
M  V30 12991 H 1274.8 1.89375 3.30026 0
M  V30 12992 H 1274.32 3.26563 2.09709 0
M  V30 12993 H 1272.42 1.24589 3.51153 0
M  V30 12994 H 1272.53 3.12637 3.63036 0
M  V30 12995 H 1270.89 1.58752 1.99173 0
M  V30 12996 H 1271.68 3.14318 1.38054 0
M  V30 12997 N 1274.12 -1.03182 1.19127 0
M  V30 12998 C 1275.37 -1.76794 0.993563 0
M  V30 12999 C 1275.7 -1.88306 -0.474809 0
M  V30 13000 O 1274.98 -1.39769 -1.35258 0
M  V30 13001 C 1275.26 -3.19573 1.65968 0
M  V30 13002 C 1275.11 -3.1595 3.2015 0
M  V30 13003 C 1276.43 -4.17897 1.38023 0
M  V30 13004 H 1273.55 -0.641768 0.362357 0
M  V30 13005 H 1276.19 -1.20472 1.46924 0
M  V30 13006 H 1274.34 -3.67663 1.25524 0
M  V30 13007 H 1276.01 -2.7578 3.69788 0
M  V30 13008 H 1274.26 -2.53743 3.51848 0
M  V30 13009 H 1274.93 -4.16811 3.61901 0
M  V30 13010 H 1277.4 -3.78394 1.73082 0
M  V30 13011 H 1276.28 -5.15997 1.87186 0
M  V30 13012 H 1276.54 -4.41048 0.304812 0
M  V30 13013 N 1275.6 -0.99472 -1.22242 0
M  V30 13014 C 1276.55 -0.53946 -2.26258 0
M  V30 13015 C 1277.54 0.410796 -1.64344 0
M  V30 13016 O 1278.75 0.283116 -1.7776 0
M  V30 13017 H 1275.12 -0.156069 -0.735627 0
M  V30 13018 H 1277.09 -1.42814 -2.62005 0
M  V30 13019 C 1275.84 0.12842 -3.47463 0
M  V30 13020 H 1275.17 -0.593727 -3.95367 0
M  V30 13021 H 1276.61 0.410393 -4.22009 0
M  V30 13022 C 1275.07 1.36433 -3.08038 0
M  V30 13023 O 1275.6 2.45953 -3.176 0
M  V30 13024 N 1273.8 1.24026 -2.62804 0
M  V30 13025 H 1273.35 0.349111 -2.55223 0
M  V30 13026 H 1273.31 2.06824 -2.36794 0
M  V30 13027 N 1277.08 1.37613 -0.768148 0
M  V30 13028 C 1278.49 1.82437 -0.396703 0
M  V30 13029 C 1278.84 1.64019 1.07668 0
M  V30 13030 O 1277.97 1.14932 1.83356 0
M  V30 13031 C 1278.56 3.31207 -0.713265 0
M  V30 13032 C 1277.12 3.74323 -0.39492 0
M  V30 13033 C 1276.27 2.60191 -0.958962 0
M  V30 13034 H 1279.22 1.26135 -0.963099 0
M  V30 13035 H 1279.24 3.805 0.00337228 0
M  V30 13036 H 1278.75 3.4458 -1.78567 0
M  V30 13037 H 1276.85 3.66521 0.670313 0
M  V30 13038 H 1276.96 4.70558 -0.900653 0
M  V30 13039 H 1275.33 2.51797 -0.383423 0
M  V30 13040 H 1276.11 2.76358 -2.03669 0
M  V30 13041 N 1278.56 0.518393 1.4883 0
M  V30 13042 C 1279.49 -0.239685 2.32267 0
M  V30 13043 C 1280.47 -0.94613 1.41359 0
M  V30 13044 O 1281.65 -0.934162 1.70256 0
M  V30 13045 C 1278.78 -1.29411 3.22289 0
M  V30 13046 C 1277.74 -0.706504 4.22129 0
M  V30 13047 C 1277.06 -1.86273 5.01205 0
M  V30 13048 C 1278.36 0.314079 5.21355 0
M  V30 13049 H 1280.06 0.4568 2.95895 0
M  V30 13050 H 1277.6 0.221126 1.42292 0
M  V30 13051 H 1279.56 -1.8323 3.7948 0
M  V30 13052 H 1278.28 -2.02001 2.56638 0
M  V30 13053 H 1276.94 -0.189924 3.66108 0
M  V30 13054 H 1276.59 -2.57674 4.31988 0
M  V30 13055 H 1276.29 -1.47554 5.68772 0
M  V30 13056 H 1277.81 -2.40492 5.61245 0
M  V30 13057 H 1279.22 -0.136604 5.73137 0
M  V30 13058 H 1277.62 0.618026 5.96909 0
M  V30 13059 H 1278.69 1.22394 4.69199 0
M  V30 13060 N 1280.03 -1.55556 0.252993 0
M  V30 13061 C 1280.98 -2.21634 -0.643979 0
M  V30 13062 C 1281.95 -1.18226 -1.1667 0
M  V30 13063 O 1283.14 -1.46694 -1.22006 0
M  V30 13064 C 1280.28 -2.92429 -1.83246 0
M  V30 13065 C 1279.39 -4.10506 -1.34569 0
M  V30 13066 C 1278.52 -4.69001 -2.49421 0
M  V30 13067 C 1277.56 -5.79315 -1.97636 0
M  V30 13068 N 1276.7 -6.31967 -3.05878 0
M  V30 13069 H 1281.54 -2.97909 -0.0738178 0
M  V30 13070 H 1279.08 -1.47079 -0.0246728 0
M  V30 13071 H 1281.04 -3.31678 -2.53072 0
M  V30 13072 H 1279.67 -2.18617 -2.375 0
M  V30 13073 H 1278.72 -3.76529 -0.541268 0
M  V30 13074 H 1280.03 -4.90125 -0.92622 0
M  V30 13075 H 1279.18 -5.10855 -3.27279 0
M  V30 13076 H 1277.92 -3.88612 -2.94673 0
M  V30 13077 H 1276.93 -5.36933 -1.18251 0
M  V30 13078 H 1278.15 -6.6156 -1.53347 0
M  V30 13079 H 1276.1 -5.5448 -3.50553 0
M  V30 13080 H 1276.02 -7.06797 -2.68281 0
M  V30 13081 H 1277.28 -6.7848 -3.83777 0
M  V30 13082 N 1281.51 0.0200419 -1.57587 0
M  V30 13083 C 1282.76 0.710078 -1.89962 0
M  V30 13084 C 1283.09 1.74521 -0.851829 0
M  V30 13085 O 1282.37 1.94052 0.132005 0
M  V30 13086 C 1282.65 1.37145 -3.32961 0
M  V30 13087 C 1282.5 0.349221 -4.48442 0
M  V30 13088 C 1283.82 2.30304 -3.75031 0
M  V30 13089 H 1280.94 0.25667 -0.690862 0
M  V30 13090 H 1283.58 -0.0271362 -1.89981 0
M  V30 13091 H 1281.73 1.99981 -3.33076 0
M  V30 13092 H 1283.4 -0.277916 -4.60462 0
M  V30 13093 H 1281.65 -0.330594 -4.32538 0
M  V30 13094 H 1282.32 0.850636 -5.45406 0
M  V30 13095 H 1284.79 1.77503 -3.7634 0
M  V30 13096 H 1283.67 2.73555 -4.75877 0
M  V30 13097 H 1283.93 3.17364 -3.07786 0
M  V30 13098 N 1282.99 1.54862 0.292472 0
M  V30 13099 C 1284.27 1.65237 1.04671 0
M  V30 13100 C 1284.65 0.506168 2.04942 0
M  V30 13101 O 1284 -0.496123 2.23049 0
M  V30 13102 C 1284.21 3.03618 1.72095 0
M  V30 13103 C 1285.55 3.6072 2.23979 0
M  V30 13104 O 1286.58 3.06126 1.82114 0
M  V30 13105 O 1285.44 4.56328 3.0071 0
M  V30 13106 H 1282.53 0.670347 0.484319 0
M  V30 13107 H 1285.08 1.67206 0.28988 0
M  V30 13108 H 1283.85 3.78482 0.993324 0
M  V30 13109 H 1283.47 3.05464 2.54514 0
M  V30 13110 N 1284.47 -0.556076 1.47464 0
M  V30 13111 C 1285.71 -1.31283 1.55358 0
M  V30 13112 C 1286.07 -1.91212 0.213492 0
M  V30 13113 O 1285.36 -1.74963 -0.780934 0
M  V30 13114 C 1285.56 -2.44298 2.6087 0
M  V30 13115 C 1285.39 -1.95444 4.05008 0
M  V30 13116 C 1284.16 -1.79235 4.72443 0
M  V30 13117 C 1286.35 -1.49825 4.91993 0
M  V30 13118 N 1284.34 -1.24732 6.01095 0
M  V30 13119 C 1285.71 -1.07095 6.1068 0
M  V30 13120 C 1287.76 -1.37887 4.78426 0
M  V30 13121 C 1286.46 -0.536134 7.17299 0
M  V30 13122 C 1288.49 -0.858066 5.85142 0
M  V30 13123 C 1287.85 -0.440699 7.0302 0
M  V30 13124 H 1283.95 -0.472387 0.623197 0
M  V30 13125 H 1286.54 -0.630184 1.84219 0
M  V30 13126 H 1284.71 -3.10092 2.33875 0
M  V30 13127 H 1286.44 -3.11299 2.58601 0
M  V30 13128 H 1283.19 -2.01984 4.28368 0
M  V30 13129 H 1283.62 -0.995659 6.69638 0
M  V30 13130 H 1288.26 -1.68766 3.87657 0
M  V30 13131 H 1285.98 -0.214967 8.07814 0
M  V30 13132 H 1289.56 -0.769235 5.76692 0
M  V30 13133 H 1288.44 -0.0439514 7.84188 0
M  V30 13134 N 1285.95 -1.35615 -0.802897 0
M  V30 13135 C 1287.2 -1.28839 -1.55708 0
M  V30 13136 C 1287.52 0.135906 -1.94526 0
M  V30 13137 O 1286.79 1.07317 -1.6389 0
M  V30 13138 H 1285.37 -0.473906 -0.577427 0
M  V30 13139 H 1288.03 -1.69759 -0.957487 0
M  V30 13140 H 1287.12 -1.90675 -2.47082 0
M  V30 13141 N 1287.43 1.02549 -1.19673 0
M  V30 13142 C 1288.36 2.12794 -0.961289 0
M  V30 13143 C 1289.34 1.69766 0.106575 0
M  V30 13144 O 1290.52 1.94138 -0.0491358 0
M  V30 13145 C 1287.65 3.4364 -0.502868 0
M  V30 13146 C 1286.61 4.00367 -1.51296 0
M  V30 13147 C 1285.93 5.26874 -0.911491 0
M  V30 13148 C 1287.23 4.34782 -2.89416 0
M  V30 13149 H 1288.93 2.32748 -1.88331 0
M  V30 13150 H 1286.47 1.11852 -0.906922 0
M  V30 13151 H 1288.42 4.20141 -0.325436 0
M  V30 13152 H 1287.15 3.23418 0.454764 0
M  V30 13153 H 1285.81 3.25964 -1.67759 0
M  V30 13154 H 1285.46 5.02971 0.0537982 0
M  V30 13155 H 1285.16 5.65791 -1.58602 0
M  V30 13156 H 1286.68 6.06039 -0.74493 0
M  V30 13157 H 1288.09 5.02207 -2.76516 0
M  V30 13158 H 1286.49 4.8479 -3.53693 0
M  V30 13159 H 1287.56 3.43935 -3.41814 0
M  V30 13160 N 1288.9 1.00119 1.21713 0
M  V30 13161 C 1290.31 0.715611 1.72441 0
M  V30 13162 C 1290.67 -0.767 1.80587 0
M  V30 13163 O 1289.79 -1.59928 1.45781 0
M  V30 13164 C 1290.39 1.29234 3.13184 0
M  V30 13165 C 1288.94 1.05597 3.61284 0
M  V30 13166 C 1288.09 1.40749 2.38925 0
M  V30 13167 H 1291.04 1.17255 1.06943 0
M  V30 13168 H 1291.06 0.67507 3.74464 0
M  V30 13169 H 1290.58 2.37141 3.07223 0
M  V30 13170 H 1288.68 -0.00610816 3.72599 0
M  V30 13171 H 1288.79 1.72517 4.46961 0
M  V30 13172 H 1287.15 0.826207 2.40927 0
M  V30 13173 H 1287.94 2.49678 2.35618 0
M  V30 13174 N 1290.38 -1.37203 0.775435 0
M  V30 13175 C 1291.63 -1.98846 0.338093 0
M  V30 13176 C 1291.94 -1.6225 -1.09244 0
M  V30 13177 O 1293.15 -2.17024 -1.63135 0
M  V30 13178 C 1291.61 -3.55618 0.553541 0
M  V30 13179 C 1291.21 -4.01149 1.99457 0
M  V30 13180 C 1292.96 -4.24118 0.180006 0
M  V30 13181 C 1290.86 -5.50644 2.15742 0
M  V30 13182 H 1289.79 -0.743955 0.122669 0
M  V30 13183 H 1292.45 -1.56685 0.955087 0
M  V30 13184 H 1290.83 -3.95777 -0.132964 0
M  V30 13185 H 1292 -3.72226 2.71633 0
M  V30 13186 H 1290.32 -3.45443 2.32504 0
M  V30 13187 H 1292.91 -5.33966 0.280145 0
M  V30 13188 H 1293.26 -4.07104 -0.870192 0
M  V30 13189 H 1293.79 -3.89274 0.819201 0
M  V30 13190 H 1290.53 -5.7259 3.19094 0
M  V30 13191 H 1290.05 -5.8124 1.48054 0
M  V30 13192 H 1291.73 -6.16668 1.95781 0
M  V30 13193 N 1291.86 -0.526279 -1.48553 0
M  V30 13194 C 1293.27 -0.0848694 -1.86507 0
M  V30 13195 C 1293.62 1.3367 -1.43621 0
M  V30 13196 O 1292.75 2.00046 -0.825268 0
M  V30 13197 C 1293.34 -0.147241 -3.3848 0
M  V30 13198 C 1291.9 0.238954 -3.75641 0
M  V30 13199 C 1291.05 -0.508648 -2.72595 0
M  V30 13200 H 1294 -0.737728 -1.40511 0
M  V30 13201 H 1294.02 0.641964 -3.75045 0
M  V30 13202 H 1293.53 -1.18199 -3.69663 0
M  V30 13203 H 1291.63 1.27598 -3.50071 0
M  V30 13204 H 1291.75 -0.0980808 -4.79 0
M  V30 13205 H 1290.11 0.0446382 -2.54661 0
M  V30 13206 H 1290.89 -1.54395 -3.06622 0
M  V30 13207 N 1293.34 1.5542 -0.261239 0
M  V30 13208 C 1294.56 2.04142 0.366144 0
M  V30 13209 C 1294.99 1.13884 1.49706 0
M  V30 13210 O 1294.35 0.134629 1.80799 0
M  V30 13211 C 1294.39 3.50733 0.837774 0
M  V30 13212 O 1293.5 3.63588 1.94621 0
M  V30 13213 H 1292.84 0.659424 0.077821 0
M  V30 13214 H 1295.37 2.0082 -0.391487 0
M  V30 13215 H 1295.38 3.91831 1.13721 0
M  V30 13216 H 1294.05 4.15899 0.0102742 0
M  V30 13217 H 1292.63 3.34391 1.65037 0
M  V30 13218 N 1294.82 -0.0116844 1.57596 0
M  V30 13219 C 1296.23 -0.55604 1.78228 0
M  V30 13220 C 1296.58 -1.74624 0.894474 0
M  V30 13221 O 1295.7 -2.16196 0.0938498 0
M  V30 13222 C 1296.3 -1.0155 3.23223 0
M  V30 13223 C 1294.86 -1.50525 3.44992 0
M  V30 13224 C 1294 -0.451133 2.73606 0
M  V30 13225 H 1296.95 0.214516 1.57243 0
M  V30 13226 H 1296.98 -1.88208 3.30693 0
M  V30 13227 H 1296.49 -0.149048 3.87814 0
M  V30 13228 H 1294.59 -2.39298 2.856 0
M  V30 13229 H 1294.7 -1.54076 4.53649 0
M  V30 13230 H 1293.07 -0.910135 2.37884 0
M  V30 13231 H 1293.85 0.406152 3.40889 0
M  V30 13232 N 1296.29 -1.55015 -0.284256 0
M  V30 13233 C 1297.52 -1.79431 -1.04016 0
M  V30 13234 C 1297.94 -0.560254 -1.79563 0
M  V30 13235 O 1297.3 0.489804 -1.74558 0
M  V30 13236 C 1297.35 -3.01162 -1.98328 0
M  V30 13237 O 1296.45 -2.75459 -3.06914 0
M  V30 13238 H 1295.79 -0.593391 -0.297965 0
M  V30 13239 H 1298.32 -2.02136 -0.316585 0
M  V30 13240 H 1298.33 -3.29589 -2.40489 0
M  V30 13241 H 1297.01 -3.90634 -1.42751 0
M  V30 13242 H 1295.59 -2.58096 -2.69148 0
M  V30 13243 N 1297.77 0.548248 -1.47757 0
M  V30 13244 C 1299.18 1.13033 -1.48595 0
M  V30 13245 C 1299.53 1.94657 -0.245575 0
M  V30 13246 O 1298.66 2.06445 0.648813 0
M  V30 13247 C 1299.25 2.05657 -2.69241 0
M  V30 13248 C 1297.81 2.59119 -2.73009 0
M  V30 13249 C 1296.96 1.35686 -2.41836 0
M  V30 13250 H 1299.91 0.334397 -1.55137 0
M  V30 13251 H 1299.93 2.89671 -2.4672 0
M  V30 13252 H 1299.44 1.46222 -3.595 0
M  V30 13253 H 1297.54 3.22327 -1.86912 0
M  V30 13254 H 1297.66 2.99501 -3.73946 0
M  V30 13255 H 1296.02 1.66659 -1.92606 0
M  V30 13256 H 1296.8 0.780311 -3.34314 0
M  V30 13257 N 1299.25 1.36039 0.795694 0
M  V30 13258 C 1300.5 1.29251 1.54845 0
M  V30 13259 C 1300.81 -0.127926 1.95181 0
M  V30 13260 O 1302.02 -0.318141 2.6963 0
M  V30 13261 C 1300.47 2.26736 2.79497 0
M  V30 13262 C 1300.08 3.74183 2.46355 0
M  V30 13263 C 1301.83 2.28913 3.5749 0
M  V30 13264 C 1299.73 4.63462 3.67365 0
M  V30 13265 H 1298.66 0.48027 0.581255 0
M  V30 13266 H 1301.31 1.61366 0.873693 0
M  V30 13267 H 1299.7 1.87608 3.4874 0
M  V30 13268 H 1300.87 4.22011 1.8505 0
M  V30 13269 H 1299.18 3.7472 1.81586 0
M  V30 13270 H 1301.78 2.92828 4.47388 0
M  V30 13271 H 1302.12 1.2959 3.95616 0
M  V30 13272 H 1302.66 2.66627 2.9522 0
M  V30 13273 H 1299.4 5.63824 3.34339 0
M  V30 13274 H 1298.92 4.20354 4.27858 0
M  V30 13275 H 1300.6 4.79424 4.34467 0
M  V30 13276 N 1300.73 -1.01913 1.20215 0
M  V30 13277 C 1301.68 -2.08774 0.916367 0
M  V30 13278 C 1302.66 -1.60431 -0.122796 0
M  V30 13279 O 1303.85 -1.76799 0.0842336 0
M  V30 13280 C 1300.98 -3.40102 0.467517 0
M  V30 13281 C 1300.07 -3.95153 1.53997 0
M  V30 13282 N 1300.46 -4.23745 2.76178 0
M  V30 13283 C 1298.76 -4.23274 1.40554 0
M  V30 13284 C 1299.46 -4.681 3.45336 0
M  V30 13285 N 1298.44 -4.70224 2.72745 0
M  V30 13286 H 1302.24 -2.28786 1.84484 0
M  V30 13287 H 1299.75 -1.19861 1.09577 0
M  V30 13288 H 1301.75 -4.16184 0.244195 0
M  V30 13289 H 1300.41 -3.21505 -0.454358 0
M  V30 13290 H 1301.42 -4.12728 3.12852 0
M  V30 13291 H 1298.1 -4.1389 0.547877 0
M  V30 13292 H 1299.49 -4.99063 4.49873 0
M  V30 13293 N 1302.21 -1.00763 -1.2118 0
M  V30 13294 C 1303.62 -0.724746 -1.72059 0
M  V30 13295 C 1303.97 0.757413 -1.80991 0
M  V30 13296 O 1303.09 1.59152 -1.46627 0
M  V30 13297 C 1303.69 -1.30893 -3.12494 0
M  V30 13298 C 1302.25 -1.07511 -3.60719 0
M  V30 13299 C 1301.39 -1.42014 -2.38175 0
M  V30 13300 H 1304.35 -1.17821 -1.0632 0
M  V30 13301 H 1304.37 -0.694919 -3.741 0
M  V30 13302 H 1303.88 -2.38767 -3.05961 0
M  V30 13303 H 1301.98 -0.0136518 -3.72597 0
M  V30 13304 H 1302.09 -1.74885 -4.4604 0
M  V30 13305 H 1300.46 -0.838972 -2.40486 0
M  V30 13306 H 1301.24 -2.50924 -2.34291 0
M  V30 13307 N 1303.68 1.3679 -0.7827 0
M  V30 13308 C 1304.65 2.28472 -0.182525 0
M  V30 13309 C 1305.65 1.48524 0.616217 0
M  V30 13310 O 1306.84 1.68599 0.438197 0
M  V30 13311 C 1303.97 3.32588 0.748202 0
M  V30 13312 H 1305.16 2.83059 -0.99085 0
M  V30 13313 H 1302.72 1.46241 -0.551658 0
M  V30 13314 H 1303.45 2.83145 1.58112 0
M  V30 13315 H 1303.24 3.91698 0.177481 0
M  V30 13316 H 1304.73 4.01073 1.16321 0
M  V30 13317 N 1305.16 0.53415 1.48272 0
M  V30 13318 C 1306.11 -0.246268 2.26666 0
M  V30 13319 C 1307.1 -0.906149 1.32958 0
M  V30 13320 O 1308.29 -0.808266 1.57468 0
M  V30 13321 C 1305.42 -1.29001 3.18141 0
M  V30 13322 C 1304.5 -0.634704 4.19324 0
M  V30 13323 N 1304.89 0.281972 5.05013 0
M  V30 13324 C 1303.19 -0.891412 4.37001 0
M  V30 13325 C 1303.89 0.660411 5.77939 0
M  V30 13326 N 1302.87 0.0205295 5.43596 0
M  V30 13327 H 1306.67 0.458881 2.90296 0
M  V30 13328 H 1304.19 0.352466 1.58529 0
M  V30 13329 H 1306.18 -1.86285 3.72966 0
M  V30 13330 H 1304.84 -1.99649 2.56067 0
M  V30 13331 H 1305.85 0.654819 5.13744 0
M  V30 13332 H 1302.53 -1.58815 3.86114 0
M  V30 13333 H 1303.92 1.41231 6.56889 0
M  V30 13334 N 1306.64 -1.55279 0.269478 0
M  V30 13335 C 1307.59 -2.18984 -0.634838 0
M  V30 13336 C 1308.57 -1.15269 -1.12258 0
M  V30 13337 O 1309.77 -1.41103 -1.0686 0
M  V30 13338 C 1306.9 -2.91014 -1.82114 0
M  V30 13339 C 1305.98 -4.02011 -1.35084 0
M  V30 13340 N 1306.37 -5.02273 -0.596299 0
M  V30 13341 C 1304.67 -4.14979 -1.63427 0
M  V30 13342 C 1305.37 -5.80647 -0.349781 0
M  V30 13343 N 1304.35 -5.35749 -0.92057 0
M  V30 13344 H 1308.15 -2.93857 -0.0504516 0
M  V30 13345 H 1305.66 -1.62237 0.0727843 0
M  V30 13346 H 1307.66 -3.35098 -2.48022 0
M  V30 13347 H 1306.32 -2.1765 -2.40953 0
M  V30 13348 H 1307.33 -5.17324 -0.244188 0
M  V30 13349 H 1304.01 -3.52802 -2.23242 0
M  V30 13350 H 1305.4 -6.71419 0.254139 0
M  V30 13351 N 1308.12 0.00332656 -1.576 0
M  V30 13352 C 1309.07 0.99581 -2.08212 0
M  V30 13353 C 1310.04 1.34342 -0.976804 0
M  V30 13354 O 1311.22 1.44236 -1.24902 0
M  V30 13355 C 1308.36 2.2836 -2.58739 0
M  V30 13356 C 1307.47 1.99531 -3.8316 0
M  V30 13357 C 1306.61 3.22367 -4.222 0
M  V30 13358 C 1305.65 2.89209 -5.39467 0
M  V30 13359 N 1304.78 4.04572 -5.73817 0
M  V30 13360 H 1309.62 0.55727 -2.92743 0
M  V30 13361 H 1307.16 0.263513 -1.4472 0
M  V30 13362 H 1309.12 3.03639 -2.86111 0
M  V30 13363 H 1307.75 2.69889 -1.77087 0
M  V30 13364 H 1306.8 1.14634 -3.62716 0
M  V30 13365 H 1308.11 1.71089 -4.6854 0
M  V30 13366 H 1307.27 4.05994 -4.50837 0
M  V30 13367 H 1306.01 3.53944 -3.35522 0
M  V30 13368 H 1305.01 2.03989 -5.10557 0
M  V30 13369 H 1306.24 2.58883 -6.27819 0
M  V30 13370 H 1304.18 4.36052 -4.90096 0
M  V30 13371 H 1304.1 3.79643 -6.53764 0
M  V30 13372 H 1305.37 4.88998 -6.07043 0
M  V30 13373 N 1309.6 1.55164 0.276031 0
M  V30 13374 C 1311.01 1.46936 0.623061 0
M  V30 13375 C 1311.21 0.680977 1.89644 0
M  V30 13376 O 1310.27 0.198618 2.51718 0
M  V30 13377 C 1311.58 2.91123 0.752839 0
M  V30 13378 C 1313.13 3.01319 0.847093 0
M  V30 13379 C 1313.6 4.46755 1.00867 0
M  V30 13380 N 1315.1 4.5057 1.07427 0
M  V30 13381 C 1315.83 5.60314 1.21804 0
M  V30 13382 N 1315.33 6.7993 1.32919 0
M  V30 13383 N 1317.12 5.4805 1.2489 0
M  V30 13384 H 1309.27 2.04877 -0.560282 0
M  V30 13385 H 1311.53 0.928925 -0.189217 0
M  V30 13386 H 1311.24 3.51521 -0.112333 0
M  V30 13387 H 1311.11 3.39967 1.63408 0
M  V30 13388 H 1313.5 2.41021 1.70274 0
M  V30 13389 H 1313.58 2.55733 -0.0586896 0
M  V30 13390 H 1313.23 5.07655 0.1577 0
M  V30 13391 H 1313.16 4.89995 1.92906 0
M  V30 13392 H 1315.65 3.64404 1.00089 0
M  V30 13393 H 1315.96 7.59319 1.43714 0
M  V30 13394 H 1314.3 6.82747 1.29929 0
M  V30 13395 H 1317.5 4.53542 1.15834 0
M  V30 13396 H 1317.67 6.33621 1.3575 0
M  V30 13397 N 1311.07 -0.540404 1.48045 0
M  V30 13398 C 1312.35 -1.30148 1.46017 0
M  V30 13399 C 1312.73 -2.10445 0.166171 0
M  V30 13400 O 1312.08 -2.12013 -0.852223 0
M  V30 13401 C 1312.29 -2.19177 2.71593 0
M  V30 13402 C 1313.64 -2.79655 3.19497 0
M  V30 13403 O 1314.66 -2.2947 2.72437 0
M  V30 13404 O 1313.52 -3.70912 4.01356 0
M  V30 13405 H 1310.61 -0.586879 0.582668 0
M  V30 13406 H 1313.16 -0.557918 1.60267 0
M  V30 13407 H 1311.93 -1.59556 3.57292 0
M  V30 13408 H 1311.56 -3.00798 2.60012 0
M  V30 13409 N 1312.55 -1.36459 -0.788468 0
M  V30 13410 C 1313.97 -1.16893 -1.08666 0
M  V30 13411 C 1314.17 0.00633808 -2.01499 0
M  V30 13412 O 1313.22 0.671417 -2.4341 0
M  V30 13413 C 1314.54 -2.48018 -1.70022 0
M  V30 13414 C 1316.09 -2.5439 -1.82358 0
M  V30 13415 C 1316.56 -3.85605 -2.47129 0
M  V30 13416 N 1318.05 -3.86956 -2.54597 0
M  V30 13417 C 1318.79 -4.85224 -3.05525 0
M  V30 13418 N 1318.28 -5.93885 -3.56753 0
M  V30 13419 N 1320.08 -4.72643 -3.04246 0
M  V30 13420 H 1312.23 -2.11705 -0.171733 0
M  V30 13421 H 1314.49 -0.937784 -0.1388 0
M  V30 13422 H 1314.2 -3.34292 -1.09277 0
M  V30 13423 H 1314.07 -2.63894 -2.69518 0
M  V30 13424 H 1316.46 -1.68534 -2.4224 0
M  V30 13425 H 1316.54 -2.42414 -0.816651 0
M  V30 13426 H 1316.18 -4.71868 -1.87891 0
M  V30 13427 H 1316.11 -3.94878 -3.48395 0
M  V30 13428 H 1318.6 -3.08453 -2.18323 0
M  V30 13429 H 1318.92 -6.64839 -3.93966 0
M  V30 13430 H 1317.26 -5.97553 -3.54902 0
M  V30 13431 H 1320.45 -3.86883 -2.63513 0
M  V30 13432 H 1320.62 -5.49385 -3.43627 0
M  V30 13433 N 1314.03 1.01274 -1.20754 0
M  V30 13434 C 1315.45 1.27256 -0.963221 0
M  V30 13435 C 1315.65 1.98349 0.354972 0
M  V30 13436 O 1314.7 2.28116 1.08255 0
M  V30 13437 C 1316.02 2.1038 -2.14851 0
M  V30 13438 C 1317.56 2.23633 -2.18991 0
M  V30 13439 C 1318.04 3.10136 -3.37016 0
M  V30 13440 N 1319.53 3.17724 -3.37054 0
M  V30 13441 C 1320.26 3.84891 -4.25025 0
M  V30 13442 N 1319.76 4.54152 -5.23181 0
M  V30 13443 N 1321.55 3.81454 -4.12855 0
M  V30 13444 H 1313.7 0.535534 -2.05538 0
M  V30 13445 H 1315.97 0.299006 -0.899611 0
M  V30 13446 H 1315.67 1.65484 -3.10335 0
M  V30 13447 H 1315.55 3.11122 -2.13267 0
M  V30 13448 H 1317.93 2.67753 -1.24067 0
M  V30 13449 H 1318.02 1.22387 -2.24622 0
M  V30 13450 H 1317.66 2.66721 -4.32229 0
M  V30 13451 H 1317.59 4.11478 -3.28623 0
M  V30 13452 H 1320.08 2.68412 -2.66014 0
M  V30 13453 H 1320.39 5.03084 -5.86623 0
M  V30 13454 H 1318.74 4.52964 -5.27113 0
M  V30 13455 H 1321.93 3.26494 -3.35439 0
M  V30 13456 H 1322.1 4.33523 -4.81624 0
M  V30 13457 N 1315.51 1.01404 1.20644 0
M  V30 13458 C 1316.44 0.540288 2.22741 0
M  V30 13459 C 1317.45 -0.375953 1.584 0
M  V30 13460 O 1318.64 -0.174708 1.77643 0
M  V30 13461 C 1315.74 -0.233766 3.38093 0
M  V30 13462 C 1314.92 0.683759 4.32023 0
M  V30 13463 C 1313.98 -0.0422681 5.26183 0
M  V30 13464 O 1313 0.579392 5.66243 0
M  V30 13465 N 1314.2 -1.31794 5.65341 0
M  V30 13466 H 1316.97 1.41831 2.64015 0
M  V30 13467 H 1314.53 0.891265 1.35159 0
M  V30 13468 H 1316.52 -0.728645 3.98087 0
M  V30 13469 H 1315.09 -1.01306 2.9573 0
M  V30 13470 H 1314.31 1.35899 3.70034 0
M  V30 13471 H 1315.6 1.30786 4.91704 0
M  V30 13472 H 1315 -1.84399 5.34802 0
M  V30 13473 H 1313.55 -1.7576 6.27656 0
M  V30 13474 N 1316.99 -1.36373 0.789944 0
M  V30 13475 C 1318.24 -1.98476 0.359165 0
M  V30 13476 C 1318.55 -1.634 -1.07517 0
M  V30 13477 O 1319.76 -2.18742 -1.60824 0
M  V30 13478 C 1318.21 -3.55011 0.591228 0
M  V30 13479 C 1317.82 -3.99011 2.03701 0
M  V30 13480 C 1319.56 -4.23903 0.224979 0
M  V30 13481 C 1317.47 -5.48325 2.2157 0
M  V30 13482 H 1316.4 -0.742612 0.130552 0
M  V30 13483 H 1319.05 -1.55664 0.971652 0
M  V30 13484 H 1317.43 -3.95895 -0.0909788 0
M  V30 13485 H 1318.61 -3.69324 2.75566 0
M  V30 13486 H 1316.92 -3.42957 2.36155 0
M  V30 13487 H 1319.52 -5.33638 0.336764 0
M  V30 13488 H 1319.86 -4.08004 -0.826964 0
M  V30 13489 H 1320.4 -3.88383 0.860443 0
M  V30 13490 H 1317.13 -5.69173 3.25149 0
M  V30 13491 H 1316.65 -5.79637 1.54211 0
M  V30 13492 H 1318.33 -6.14556 2.0231 0
M  V30 13493 N 1318.47 -0.542005 -1.47987 0
M  V30 13494 C 1319.71 -0.0123116 -2.02496 0
M  V30 13495 C 1320.04 1.33136 -1.41793 0
M  V30 13496 O 1319.3 1.87591 -0.557501 0
M  V30 13497 C 1319.59 0.146208 -3.57101 0
M  V30 13498 C 1319.26 -1.12463 -4.3665 0
M  V30 13499 C 1317.92 -1.47289 -4.58104 0
M  V30 13500 C 1320.27 -1.96746 -4.82639 0
M  V30 13501 C 1317.6 -2.66273 -5.22796 0
M  V30 13502 C 1319.95 -3.14919 -5.48643 0
M  V30 13503 C 1318.62 -3.50077 -5.68333 0
M  V30 13504 H 1317.89 -0.00450514 -0.740986 0
M  V30 13505 H 1320.54 -0.710455 -1.77834 0
M  V30 13506 H 1318.84 0.927209 -3.80671 0
M  V30 13507 H 1320.54 0.571161 -3.96912 0
M  V30 13508 H 1317.13 -0.843429 -4.20219 0
M  V30 13509 H 1321.31 -1.71149 -4.65856 0
M  V30 13510 H 1316.57 -2.937 -5.36237 0
M  V30 13511 H 1320.74 -3.80525 -5.83244 0
M  V30 13512 H 1318.37 -4.42371 -6.18233 0
M  V30 13513 N 1319.94 1.55134 -0.277709 0
M  V30 13514 C 1320.87 2.256 0.602232 0
M  V30 13515 C 1321.85 1.24708 1.15681 0
M  V30 13516 O 1323.04 1.53433 1.19046 0
M  V30 13517 C 1320.17 2.97907 1.78519 0
M  V30 13518 C 1319.12 4.0575 1.36203 0
M  V30 13519 C 1318.45 4.65644 2.62829 0
M  V30 13520 C 1319.75 5.19801 0.510327 0
M  V30 13521 H 1321.44 2.99396 0.0145622 0
M  V30 13522 H 1318.99 1.43999 0.00556389 0
M  V30 13523 H 1320.94 3.45915 2.40668 0
M  V30 13524 H 1319.67 2.21649 2.39873 0
M  V30 13525 H 1318.33 3.58557 0.763726 0
M  V30 13526 H 1317.97 3.86053 3.22447 0
M  V30 13527 H 1317.67 5.38463 2.35227 0
M  V30 13528 H 1319.2 5.16403 3.25823 0
M  V30 13529 H 1320.61 5.63845 1.03689 0
M  V30 13530 H 1319.01 5.99197 0.329073 0
M  V30 13531 H 1320.08 4.82614 -0.470273 0
M  V30 13532 N 1321.42 0.00503138 1.57599 0
M  V30 13533 C 1322.83 -0.537106 1.78807 0
M  V30 13534 C 1323.18 -1.73666 0.912945 0
M  V30 13535 O 1322.31 -2.16085 0.116775 0
M  V30 13536 C 1322.9 -0.98116 3.24282 0
M  V30 13537 C 1321.46 -1.46857 3.46569 0
M  V30 13538 C 1320.61 -0.422088 2.74069 0
M  V30 13539 H 1323.56 0.231182 1.57007 0
M  V30 13540 H 1323.58 -1.8469 3.32671 0
M  V30 13541 H 1323.09 -0.107907 3.8795 0
M  V30 13542 H 1321.19 -2.36255 2.88122 0
M  V30 13543 H 1321.31 -1.49256 4.55258 0
M  V30 13544 H 1319.67 -0.884853 2.38836 0
M  V30 13545 H 1320.45 0.442285 3.40439 0
M  V30 13546 N 1322.9 -1.55308 -0.267798 0
M  V30 13547 C 1323.81 -1.91649 -1.35307 0
M  V30 13548 C 1324.83 -0.814349 -1.53767 0
M  V30 13549 O 1326 -1.11388 -1.67793 0
M  V30 13550 C 1323.07 -2.18553 -2.69138 0
M  V30 13551 C 1322.13 -3.42083 -2.5938 0
M  V30 13552 C 1321.36 -3.67695 -3.86828 0
M  V30 13553 O 1321.58 -2.95728 -4.87751 0
M  V30 13554 O 1320.52 -4.61229 -3.86718 0
M  V30 13555 H 1324.34 -2.84044 -1.07483 0
M  V30 13556 H 1321.93 -1.41921 -0.466772 0
M  V30 13557 H 1323.81 -2.3726 -3.48261 0
M  V30 13558 H 1322.49 -1.2934 -2.96737 0
M  V30 13559 H 1321.39 -3.28706 -1.78614 0
M  V30 13560 H 1322.73 -4.31532 -2.36729 0
M  V30 13561 N 1324.38 0.532545 -1.4833 0
M  V30 13562 C 1325.79 1.11451 -1.49785 0
M  V30 13563 C 1326.14 1.94386 -0.266207 0
M  V30 13564 O 1325.26 2.07121 0.62688 0
M  V30 13565 C 1325.86 2.0279 -2.71407 0
M  V30 13566 C 1324.42 2.56209 -2.75742 0
M  V30 13567 C 1323.57 1.33114 -2.43261 0
M  V30 13568 H 1326.52 0.317924 -1.55483 0
M  V30 13569 H 1326.54 2.87038 -2.49779 0
M  V30 13570 H 1326.05 1.42401 -3.61031 0
M  V30 13571 H 1324.15 3.20327 -1.9032 0
M  V30 13572 H 1324.26 2.95518 -3.77102 0
M  V30 13573 H 1322.63 1.64607 -1.94362 0
M  V30 13574 H 1323.41 0.744809 -3.35123 0
M  V30 13575 N 1325.86 1.36875 0.78122 0
M  V30 13576 C 1326.77 1.3404 1.92537 0
M  V30 13577 C 1327.78 0.241354 1.72318 0
M  V30 13578 O 1328.96 0.475128 1.95715 0
M  V30 13579 C 1326.02 1.13708 3.27523 0
M  V30 13580 C 1325.08 2.33165 3.60462 0
M  V30 13581 C 1324.32 2.13793 4.89007 0
M  V30 13582 O 1324.54 1.11732 5.5935 0
M  V30 13583 O 1323.47 3.01762 5.20791 0
M  V30 13584 H 1327.3 2.30386 1.97879 0
M  V30 13585 H 1324.88 1.17506 0.922637 0
M  V30 13586 H 1326.77 1.0432 4.08283 0
M  V30 13587 H 1325.44 0.204306 3.23055 0
M  V30 13588 H 1324.35 2.48123 2.79974 0
M  V30 13589 H 1325.68 3.24977 3.69663 0
M  V30 13590 N 1327.33 -1.00632 1.21289 0
M  V30 13591 C 1328.27 -2.0954 0.928753 0
M  V30 13592 C 1329.28 -1.62565 -0.0875212 0
M  V30 13593 O 1330.47 -1.77912 0.144808 0
M  V30 13594 C 1327.57 -3.36844 0.37276 0
M  V30 13595 C 1326.74 -4.1291 1.44305 0
M  V30 13596 C 1325.8 -5.18506 0.896534 0
M  V30 13597 O 1324.83 -5.46841 1.57966 0
M  V30 13598 N 1326.03 -5.79781 -0.288888 0
M  V30 13599 H 1328.79 -2.34499 1.86629 0
M  V30 13600 H 1326.35 -1.17104 1.11796 0
M  V30 13601 H 1328.35 -4.04699 -0.00722737 0
M  V30 13602 H 1326.92 -3.09053 -0.469572 0
M  V30 13603 H 1326.14 -3.39876 1.99694 0
M  V30 13604 H 1327.42 -4.60508 2.16356 0
M  V30 13605 H 1326.82 -5.5911 -0.860951 0
M  V30 13606 H 1325.38 -6.48936 -0.6104 0
M  V30 13607 N 1328.81 -1.02043 -1.20104 0
M  V30 13608 C 1330.22 -0.742954 -1.71281 0
M  V30 13609 C 1330.57 0.738173 -1.81784 0
M  V30 13610 O 1329.7 1.57588 -1.48307 0
M  V30 13611 C 1330.29 -1.342 -3.11088 0
M  V30 13612 C 1328.85 -1.11331 -3.59559 0
M  V30 13613 C 1328 -1.44532 -2.36655 0
M  V30 13614 H 1330.95 -1.18942 -1.05064 0
M  V30 13615 H 1330.97 -0.734558 -3.73342 0
M  V30 13616 H 1330.48 -2.41998 -3.03411 0
M  V30 13617 H 1328.58 -0.05317 -3.72562 0
M  V30 13618 H 1328.7 -1.79606 -4.4416 0
M  V30 13619 H 1327.06 -0.864431 -2.39582 0
M  V30 13620 H 1327.84 -2.53394 -2.31616 0
M  V30 13621 N 1330.29 1.35952 -0.797165 0
M  V30 13622 C 1331.52 2.0381 -0.38421 0
M  V30 13623 C 1331.94 1.597 0.993854 0
M  V30 13624 O 1331.3 0.769148 1.64176 0
M  V30 13625 C 1331.35 3.57589 -0.465054 0
M  V30 13626 O 1330.45 4.09043 0.525095 0
M  V30 13627 H 1329.79 0.643957 -0.161912 0
M  V30 13628 H 1332.32 1.73746 -1.08043 0
M  V30 13629 H 1332.33 4.06651 -0.331448 0
M  V30 13630 H 1331.01 3.89045 -1.47027 0
M  V30 13631 H 1329.58 3.7123 0.352509 0
M  V30 13632 N 1331.77 0.549846 1.47697 0
M  V30 13633 C 1333.18 0.209085 1.58225 0
M  V30 13634 C 1333.38 -1.28823 1.54941 0
M  V30 13635 O 1332.44 -2.0679 1.44893 0
M  V30 13636 C 1333.75 0.829219 2.89041 0
M  V30 13637 C 1335.3 0.79977 3.0261 0
M  V30 13638 C 1335.78 1.39884 4.36115 0
M  V30 13639 N 1337.27 1.36169 4.42733 0
M  V30 13640 C 1338 1.79492 5.44583 0
M  V30 13641 N 1337.5 2.30637 6.53283 0
M  V30 13642 N 1339.29 1.70608 5.35583 0
M  V30 13643 H 1331.44 1.52275 1.48074 0
M  V30 13644 H 1333.71 0.634579 0.704283 0
M  V30 13645 H 1333.41 1.88122 2.97158 0
M  V30 13646 H 1333.29 0.317916 3.75858 0
M  V30 13647 H 1335.67 -0.243525 2.94093 0
M  V30 13648 H 1335.75 1.34875 2.17353 0
M  V30 13649 H 1335.4 2.44116 4.45387 0
M  V30 13650 H 1335.33 0.825362 5.20092 0
M  V30 13651 H 1337.82 0.987505 3.64769 0
M  V30 13652 H 1338.13 2.61637 7.27163 0
M  V30 13653 H 1336.48 2.34643 6.54192 0
M  V30 13654 H 1339.67 1.30434 4.4956 0
M  V30 13655 H 1339.84 2.0469 6.14822 0
M  V30 13656 N 1333.25 -1.54984 0.285932 0
M  V30 13657 C 1334.18 -2.25916 -0.590259 0
M  V30 13658 C 1335.16 -1.25319 -1.15018 0
M  V30 13659 O 1336.34 -1.54062 -1.18231 0
M  V30 13660 C 1333.47 -2.98849 -1.76936 0
M  V30 13661 C 1332.43 -4.06466 -1.3405 0
M  V30 13662 C 1331.75 -4.67032 -2.60356 0
M  V30 13663 C 1333.05 -5.20064 -0.482754 0
M  V30 13664 H 1334.75 -2.994 0.00131571 0
M  V30 13665 H 1332.29 -1.44 0.00207281 0
M  V30 13666 H 1334.25 -3.47186 -2.3883 0
M  V30 13667 H 1332.97 -2.22918 -2.38694 0
M  V30 13668 H 1331.63 -3.58957 -0.7447 0
M  V30 13669 H 1331.28 -3.87757 -3.20396 0
M  V30 13670 H 1330.98 -5.39703 -2.32368 0
M  V30 13671 H 1332.5 -5.18124 -3.23079 0
M  V30 13672 H 1333.91 -5.64387 -1.00697 0
M  V30 13673 H 1332.31 -5.99363 -0.297291 0
M  V30 13674 H 1333.38 -4.82358 0.495861 0
M  V30 13675 N 1334.72 -0.0133892 -1.57594 0
M  V30 13676 C 1335.66 1.00211 -2.06132 0
M  V30 13677 C 1336.67 1.29869 -0.98173 0
M  V30 13678 O 1337.86 1.2661 -1.25826 0
M  V30 13679 C 1334.96 2.33354 -2.45763 0
M  V30 13680 C 1334.13 2.22441 -3.76615 0
M  V30 13681 C 1333.19 3.38385 -4.02967 0
M  V30 13682 O 1332.22 3.15973 -4.73445 0
M  V30 13683 N 1333.42 4.61672 -3.51908 0
M  V30 13684 H 1336.18 0.588079 -2.93874 0
M  V30 13685 H 1333.74 0.173714 -1.60965 0
M  V30 13686 H 1335.74 3.09716 -2.60496 0
M  V30 13687 H 1334.31 2.66451 -1.6347 0
M  V30 13688 H 1333.53 1.30905 -3.7183 0
M  V30 13689 H 1334.81 2.12337 -4.62375 0
M  V30 13690 H 1334.21 4.82777 -2.9486 0
M  V30 13691 H 1332.77 5.35256 -3.71947 0
M  V30 13692 N 1336.2 1.55448 0.259558 0
M  V30 13693 C 1337.48 1.6742 1.01143 0
M  V30 13694 C 1337.86 0.549525 2.03822 0
M  V30 13695 O 1337.21 -0.448699 2.24051 0
M  V30 13696 C 1337.42 3.07201 1.65616 0
M  V30 13697 C 1338.77 3.6539 2.16277 0
M  V30 13698 O 1339.79 3.0992 1.7558 0
M  V30 13699 O 1338.65 4.62604 2.90963 0
M  V30 13700 H 1335.74 0.680469 0.469991 0
M  V30 13701 H 1338.29 1.67783 0.254348 0
M  V30 13702 H 1337.06 3.80504 0.912819 0
M  V30 13703 H 1336.68 3.10794 2.47977 0
M  V30 13704 N 1337.68 -0.524672 1.4861 0
M  V30 13705 C 1339.09 -1.10655 1.50374 0
M  V30 13706 C 1339.44 -1.94242 0.276512 0
M  V30 13707 O 1338.57 -2.07451 -0.615887 0
M  V30 13708 C 1339.16 -2.01348 2.72478 0
M  V30 13709 C 1337.72 -2.54743 2.77097 0
M  V30 13710 C 1336.87 -1.31822 2.43964 0
M  V30 13711 H 1339.82 -0.309674 1.55649 0
M  V30 13712 H 1339.84 -2.85709 2.51297 0
M  V30 13713 H 1339.35 -1.40485 3.61781 0
M  V30 13714 H 1337.45 -3.19313 1.92016 0
M  V30 13715 H 1337.57 -2.93514 3.78664 0
M  V30 13716 H 1335.93 -1.63574 1.95233 0
M  V30 13717 H 1336.71 -0.727026 3.35513 0
M  V30 13718 N 1339.16 -1.37287 -0.77395 0
M  V30 13719 C 1340.4 -1.3257 -1.5347 0
M  V30 13720 C 1340.74 0.090346 -1.9399 0
M  V30 13721 O 1340.01 1.04719 -1.63903 0
M  V30 13722 C 1340.3 -2.26277 -2.80126 0
M  V30 13723 C 1340.15 -3.76651 -2.45874 0
M  V30 13724 C 1341.47 -2.18471 -3.82045 0
M  V30 13725 H 1338.59 -0.48289 -0.556764 0
M  V30 13726 H 1341.23 -1.6797 -0.888039 0
M  V30 13727 H 1339.38 -1.96219 -3.35306 0
M  V30 13728 H 1341.05 -4.17296 -1.96626 0
M  V30 13729 H 1339.29 -3.95327 -1.78602 0
M  V30 13730 H 1339.96 -4.3765 -3.36403 0
M  V30 13731 H 1342.44 -2.44962 -3.36352 0
M  V30 13732 H 1341.32 -2.86183 -4.68392 0
M  V30 13733 H 1341.58 -1.17692 -4.26147 0
M  V30 13734 N 1340.64 0.999871 -1.21821 0
M  V30 13735 C 1341.57 2.10708 -1.00621 0
M  V30 13736 C 1342.55 1.69954 0.0705417 0
M  V30 13737 O 1343.73 1.9399 -0.0903042 0
M  V30 13738 C 1340.86 3.42496 -0.575646 0
M  V30 13739 C 1339.82 3.97068 -1.59754 0
M  V30 13740 C 1339.14 5.24822 -1.02304 0
M  V30 13741 C 1340.44 4.28545 -2.98574 0
M  V30 13742 H 1342.14 2.28701 -1.93226 0
M  V30 13743 H 1339.68 1.09903 -0.930443 0
M  V30 13744 H 1341.64 4.19357 -0.414481 0
M  V30 13745 H 1340.36 3.2431 0.386059 0
M  V30 13746 H 1339.02 3.22332 -1.74636 0
M  V30 13747 H 1338.67 5.02972 -0.0529016 0
M  V30 13748 H 1338.37 5.62299 -1.70567 0
M  V30 13749 H 1339.89 6.04322 -0.873312 0
M  V30 13750 H 1341.3 4.96229 -2.87106 0
M  V30 13751 H 1339.7 4.77178 -3.63897 0
M  V30 13752 H 1340.77 3.36607 -3.49032 0
M  V30 13753 N 1342.11 1.02678 1.19562 0
M  V30 13754 C 1343.36 0.723086 1.89471 0
M  V30 13755 C 1343.69 -0.746269 1.79289 0
M  V30 13756 O 1342.97 -1.54322 1.18384 0
M  V30 13757 C 1343.25 1.17224 3.40486 0
M  V30 13758 C 1343.1 2.70266 3.5955 0
M  V30 13759 C 1344.42 0.751397 4.33638 0
M  V30 13760 H 1341.54 0.264155 0.688034 0
M  V30 13761 H 1344.18 1.27633 1.40747 0
M  V30 13762 H 1342.33 0.701544 3.82113 0
M  V30 13763 H 1344.01 3.25266 3.27108 0
M  V30 13764 H 1342.25 3.10758 3.02675 0
M  V30 13765 H 1342.92 2.96748 4.65451 0
M  V30 13766 H 1345.4 1.15621 3.99714 0
M  V30 13767 H 1344.27 1.09358 5.37896 0
M  V30 13768 H 1344.53 -0.346367 4.40741 0
M  V30 13769 N 1343.59 -1.35528 0.804364 0
M  V30 13770 C 1344.82 -2.03604 0.395013 0
M  V30 13771 C 1345.24 -1.60225 -0.985371 0
M  V30 13772 O 1344.6 -0.777844 -1.63766 0
M  V30 13773 C 1344.65 -3.57337 0.484011 0
M  V30 13774 O 1343.75 -4.09316 -0.503395 0
M  V30 13775 H 1343.09 -0.643089 0.165325 0
M  V30 13776 H 1345.62 -1.73171 1.08963 0
M  V30 13777 H 1345.63 -4.0647 0.353009 0
M  V30 13778 H 1344.31 -3.8826 1.49088 0
M  V30 13779 H 1342.89 -3.71412 -0.332817 0
M  V30 13780 N 1345.07 -0.557671 -1.47404 0
M  V30 13781 C 1346.31 -0.0361491 -2.04368 0
M  V30 13782 C 1346.68 1.2894 -1.42262 0
M  V30 13783 O 1347.88 1.89864 -1.90276 0
M  V30 13784 C 1346.15 0.0547287 -3.57358 0
M  V30 13785 S 1347.71 0.522307 -4.3568 0
M  V30 13786 H 1344.52 -0.0253676 -0.710547 0
M  V30 13787 H 1347.13 -0.744509 -1.80769 0
M  V30 13788 H 1345.83 -0.914374 -4.00084 0
M  V30 13789 H 1345.36 0.786629 -3.85455 0
M  V30 13790 H 1347.38 1.7819 -4.63101 0
M  V30 13791 N 1346.55 1.54831 -0.294147 0
M  V30 13792 C 1347.83 1.92071 0.369902 0
M  V30 13793 C 1348.21 1.22061 1.72233 0
M  V30 13794 O 1347.55 0.353975 2.25742 0
M  V30 13795 C 1347.76 3.45524 0.49135 0
M  V30 13796 C 1349.11 4.17644 0.765411 0
M  V30 13797 O 1350.14 3.51521 0.575428 0
M  V30 13798 O 1349 5.34692 1.12992 0
M  V30 13799 H 1346.09 0.801033 0.20561 0
M  V30 13800 H 1348.64 1.66224 -0.341702 0
M  V30 13801 H 1347.41 3.88591 -0.459663 0
M  V30 13802 H 1347.03 3.77384 1.25169 0
M  V30 13803 N 1348.03 0.0217466 1.57585 0
M  V30 13804 C 1349.25 -0.67246 1.96196 0
M  V30 13805 C 1349.68 -1.6529 0.897827 0
M  V30 13806 O 1349.04 -1.80743 -0.142002 0
M  V30 13807 C 1349.08 -1.36162 3.33905 0
M  V30 13808 O 1348.19 -2.47671 3.29747 0
M  V30 13809 H 1347.53 -0.177238 0.639908 0
M  V30 13810 H 1350.06 0.0814073 2.04438 0
M  V30 13811 H 1350.07 -1.7201 3.69968 0
M  V30 13812 H 1348.74 -0.642893 4.10901 0
M  V30 13813 H 1347.32 -2.13989 3.0539 0
M  V30 13814 N 1349.51 -1.55583 -0.251311 0
M  V30 13815 C 1350.47 -1.89148 -1.29443 0
M  V30 13816 C 1351.47 -0.7676 -1.41296 0
M  V30 13817 O 1352.66 -1.03563 -1.40073 0
M  V30 13818 C 1349.79 -2.11601 -2.67279 0
M  V30 13819 H 1350.98 -2.82416 -1.00901 0
M  V30 13820 H 1348.54 -1.48407 -0.490398 0
M  V30 13821 H 1349.27 -1.20787 -3.00967 0
M  V30 13822 H 1349.06 -2.93449 -2.60058 0
M  V30 13823 H 1350.55 -2.38768 -3.42607 0
M  V30 13824 N 1350.98 0.516783 -1.48886 0
M  V30 13825 C 1352.39 1.09856 -1.50959 0
M  V30 13826 C 1352.75 1.94092 -0.28681 0
M  V30 13827 O 1351.87 2.07774 0.604877 0
M  V30 13828 C 1352.47 1.999 -2.73542 0
M  V30 13829 C 1351.02 2.5327 -2.78444 0
M  V30 13830 C 1350.17 1.30526 -2.44659 0
M  V30 13831 H 1353.12 0.301415 -1.55811 0
M  V30 13832 H 1353.14 2.84373 -2.52809 0
M  V30 13833 H 1352.66 1.38564 -3.62521 0
M  V30 13834 H 1350.76 3.1829 -1.93707 0
M  V30 13835 H 1350.87 2.91502 -3.80215 0
M  V30 13836 H 1349.23 1.62536 -1.96097 0
M  V30 13837 H 1350.02 0.709223 -3.35894 0
M  V30 13838 N 1352.46 1.37696 0.766659 0
M  V30 13839 C 1353.7 1.34588 1.53836 0
M  V30 13840 C 1354.07 -0.0676384 1.91881 0
M  V30 13841 O 1355.27 -0.223479 2.67869 0
M  V30 13842 C 1353.54 2.26329 2.76604 0
M  V30 13843 S 1355.1 2.4112 3.66615 0
M  V30 13844 H 1351.91 0.477717 0.5266 0
M  V30 13845 H 1354.52 1.73495 0.901099 0
M  V30 13846 H 1353.22 3.27943 2.46742 0
M  V30 13847 H 1352.75 1.88525 3.45285 0
M  V30 13848 H 1354.77 1.62556 4.68818 0
M  V30 13849 N 1353.94 -0.993397 1.22349 0
M  V30 13850 C 1355.17 -1.76838 1.07406 0
M  V30 13851 C 1355.58 -1.8503 -0.37542 0
M  V30 13852 O 1354.94 -1.32008 -1.26016 0
M  V30 13853 C 1354.99 -3.20177 1.67837 0
M  V30 13854 O 1354.71 -3.12429 3.07115 0
M  V30 13855 C 1356.21 -4.14125 1.58161 0
M  V30 13856 H 1353.43 -0.555379 0.376557 0
M  V30 13857 H 1355.98 -1.24893 1.61932 0
M  V30 13858 H 1354.13 -3.69191 1.17375 0
M  V30 13859 H 1354.55 -4.02568 3.36213 0
M  V30 13860 H 1356.02 -5.12455 2.05169 0
M  V30 13861 H 1356.5 -4.35892 0.538073 0
M  V30 13862 H 1357.1 -3.71008 2.07926 0
M  V30 13863 N 1355.42 -1.03311 -1.19015 0
M  V30 13864 C 1356.66 -0.733124 -1.89085 0
M  V30 13865 C 1357 0.73675 -1.79682 0
M  V30 13866 O 1356.27 1.53692 -1.19201 0
M  V30 13867 C 1356.55 -1.19028 -3.39859 0
M  V30 13868 C 1356.41 -2.72169 -3.58112 0
M  V30 13869 C 1357.73 -0.774383 -4.33234 0
M  V30 13870 H 1354.85 -0.2678 -0.686624 0
M  V30 13871 H 1357.49 -1.28378 -1.40068 0
M  V30 13872 H 1355.64 -0.721799 -3.81736 0
M  V30 13873 H 1357.31 -3.26996 -3.25379 0
M  V30 13874 H 1355.55 -3.12358 -3.01023 0
M  V30 13875 H 1356.22 -2.99213 -4.6387 0
M  V30 13876 H 1358.7 -1.17739 -3.99095 0
M  V30 13877 H 1357.58 -1.12209 -5.37308 0
M  V30 13878 H 1357.84 0.322989 -4.40919 0
M  V30 13879 N 1356.9 1.35099 -0.81154 0
M  V30 13880 C 1358.14 1.9892 -0.394815 0
M  V30 13881 C 1358.47 1.6422 1.0366 0
M  V30 13882 O 1357.75 0.908031 1.72003 0
M  V30 13883 C 1358.03 3.55331 -0.58413 0
M  V30 13884 C 1357.89 3.99812 -2.06084 0
M  V30 13885 C 1359.2 4.40098 -0.0129096 0
M  V30 13886 H 1356.32 0.72261 -0.144926 0
M  V30 13887 H 1358.97 1.60173 -1.02199 0
M  V30 13888 H 1357.12 3.88468 -0.0502446 0
M  V30 13889 H 1358.79 3.77061 -2.65749 0
M  V30 13890 H 1357.03 3.50539 -2.55548 0
M  V30 13891 H 1357.7 5.08655 -2.14416 0
M  V30 13892 H 1360.18 4.13449 -0.468917 0
M  V30 13893 H 1359.05 5.4862 -0.175252 0
M  V30 13894 H 1359.31 4.28675 1.0812 0
M  V30 13895 N 1358.37 0.56548 1.47106 0
M  V30 13896 C 1359.31 -0.215154 2.28188 0
M  V30 13897 C 1360.32 -0.871671 1.37498 0
M  V30 13898 O 1361.51 -0.744131 1.6225 0
M  V30 13899 C 1358.61 -1.32289 3.12014 0
M  V30 13900 C 1357.78 -0.761594 4.30719 0
M  V30 13901 C 1356.84 -1.75486 4.96076 0
M  V30 13902 O 1355.87 -1.29771 5.5421 0
M  V30 13903 N 1357.07 -3.0885 4.9152 0
M  V30 13904 H 1359.83 0.480405 2.95825 0
M  V30 13905 H 1357.39 0.402099 1.56827 0
M  V30 13906 H 1359.39 -1.98628 3.52603 0
M  V30 13907 H 1357.96 -1.92156 2.46566 0
M  V30 13908 H 1357.18 0.078794 3.94121 0
M  V30 13909 H 1358.46 -0.366072 5.07481 0
M  V30 13910 H 1357.86 -3.4863 4.45504 0
M  V30 13911 H 1356.42 -3.70725 5.36103 0
M  V30 13912 N 1359.85 -1.54672 0.302354 0
M  V30 13913 C 1361.09 -2.02076 -0.30738 0
M  V30 13914 C 1361.46 -1.18603 -1.50988 0
M  V30 13915 O 1362.66 -1.5571 -2.19107 0
M  V30 13916 C 1360.93 -3.5137 -0.65375 0
M  V30 13917 S 1362.49 -4.20733 -1.24615 0
M  V30 13918 H 1359.31 -0.704725 -0.0942521 0
M  V30 13919 H 1361.91 -1.907 0.430542 0
M  V30 13920 H 1360.61 -4.09756 0.229892 0
M  V30 13921 H 1360.14 -3.66784 -1.42243 0
M  V30 13922 H 1362.16 -4.26624 -2.5339 0
M  V30 13923 N 1361.33 -0.0301034 -1.57571 0
M  V30 13924 C 1362.61 0.68703 -1.83137 0
M  V30 13925 C 1362.99 1.90277 -0.914216 0
M  V30 13926 O 1362.34 2.2848 0.0299358 0
M  V30 13927 C 1362.55 1.06431 -3.32375 0
M  V30 13928 C 1363.89 1.45554 -3.98873 0
M  V30 13929 O 1364.92 1.15727 -3.36877 0
M  V30 13930 O 1363.78 2.01133 -5.08142 0
M  V30 13931 H 1360.87 0.337141 -0.755159 0
M  V30 13932 H 1363.42 -0.0578604 -1.69601 0
M  V30 13933 H 1362.19 0.199077 -3.90793 0
M  V30 13934 H 1361.81 1.86734 -3.51022 0
M  V30 13935 N 1362.81 1.55714 0.243056 0
M  V30 13936 C 1363.74 1.93655 1.30461 0
M  V30 13937 C 1364.72 0.801968 1.50008 0
M  V30 13938 O 1365.9 1.06256 1.62552 0
M  V30 13939 C 1363.03 2.23459 2.65863 0
M  V30 13940 C 1361.99 3.39205 2.61006 0
M  V30 13941 C 1361.31 3.5456 4.00239 0
M  V30 13942 C 1362.61 4.74787 2.17656 0
M  V30 13943 H 1364.31 2.82575 0.98954 0
M  V30 13944 H 1361.85 1.35955 0.474572 0
M  V30 13945 H 1363.81 2.48591 3.40266 0
M  V30 13946 H 1362.53 1.31369 2.99014 0
M  V30 13947 H 1361.19 3.14088 1.89061 0
M  V30 13948 H 1360.84 2.59884 4.30661 0
M  V30 13949 H 1360.54 4.32399 3.97876 0
M  V30 13950 H 1362.06 3.82017 4.76335 0
M  V30 13951 H 1363.48 4.99266 2.81792 0
M  V30 13952 H 1361.87 5.55756 2.26397 0
M  V30 13953 H 1362.94 4.7159 1.12831 0
M  V30 13954 N 1364.29 -0.50888 1.49158 0
M  V30 13955 C 1365.22 -1.62778 1.61356 0
M  V30 13956 C 1366.23 -1.55039 0.496653 0
M  V30 13957 O 1367.42 -1.61115 0.768386 0
M  V30 13958 C 1364.52 -3.01534 1.54694 0
M  V30 13959 C 1363.69 -3.34539 2.81785 0
M  V30 13960 C 1362.75 -4.5267 2.68283 0
M  V30 13961 O 1361.78 -4.54844 3.42207 0
M  V30 13962 N 1362.98 -5.52115 1.79303 0
M  V30 13963 H 1365.75 -1.52744 2.57855 0
M  V30 13964 H 1363.31 -0.696597 1.46148 0
M  V30 13965 H 1365.3 -3.7847 1.43327 0
M  V30 13966 H 1363.87 -3.05535 0.660849 0
M  V30 13967 H 1363.09 -2.46576 3.07561 0
M  V30 13968 H 1364.38 -3.53384 3.66057 0
M  V30 13969 H 1363.77 -5.53153 1.18485 0
M  V30 13970 H 1362.33 -6.28184 1.73863 0
M  V30 13971 N 1365.76 -1.381 -0.759346 0
M  V30 13972 C 1366.67 -1.37086 -1.9038 0
M  V30 13973 C 1367.69 -0.268738 -1.71912 0
M  V30 13974 O 1368.87 -0.506205 -1.94935 0
M  V30 13975 C 1365.93 -1.18905 -3.25672 0
M  V30 13976 C 1364.99 -2.3887 -3.56707 0
M  V30 13977 C 1364.23 -2.21546 -4.85544 0
M  V30 13978 O 1364.45 -1.20616 -5.57501 0
M  V30 13979 O 1363.38 -3.10009 -5.15924 0
M  V30 13980 H 1367.21 -2.33505 -1.94188 0
M  V30 13981 H 1364.79 -1.18959 -0.903826 0
M  V30 13982 H 1366.68 -1.10803 -4.06572 0
M  V30 13983 H 1365.35 -0.255675 -3.22689 0
M  V30 13984 H 1364.26 -2.52546 -2.75992 0
M  V30 13985 H 1365.59 -3.30817 -3.64446 0
M  V30 13986 N 1367.24 0.986894 -1.22875 0
M  V30 13987 C 1368.18 2.07604 -0.947406 0
M  V30 13988 C 1369.15 1.62214 0.111904 0
M  V30 13989 O 1370.34 1.88488 -0.0209682 0
M  V30 13990 C 1367.46 3.3601 -0.42605 0
M  V30 13991 C 1366.51 4.00331 -1.47097 0
M  V30 13992 S 1367.34 4.40412 -3.04627 0
M  V30 13993 C 1368.5 5.7198 -2.54145 0
M  V30 13994 H 1368.73 2.31149 -1.86969 0
M  V30 13995 H 1366.27 1.1222 -1.06047 0
M  V30 13996 H 1368.22 4.10288 -0.131846 0
M  V30 13997 H 1366.88 3.10484 0.475211 0
M  V30 13998 H 1366.08 4.92809 -1.05618 0
M  V30 13999 H 1365.68 3.32403 -1.71418 0
M  V30 14000 H 1367.97 6.48602 -1.9576 0
M  V30 14001 H 1368.91 6.18293 -3.45137 0
M  V30 14002 H 1369.32 5.29669 -1.95221 0
M  V30 14003 N 1368.72 1.0394 1.18466 0
M  V30 14004 C 1369.68 0.633804 2.20262 0
M  V30 14005 C 1370.68 -0.308136 1.5782 0
M  V30 14006 O 1371.87 -0.0937087 1.73948 0
M  V30 14007 C 1369.01 -0.0709693 3.40826 0
M  V30 14008 H 1370.2 1.53463 2.57661 0
M  V30 14009 H 1367.75 0.831806 1.32328 0
M  V30 14010 H 1368.49 -0.985659 3.08958 0
M  V30 14011 H 1368.27 0.606023 3.87388 0
M  V30 14012 H 1369.76 -0.341298 4.16203 0
M  V30 14013 N 1370.2 -1.34667 0.818693 0
M  V30 14014 C 1371.61 -1.51436 0.503921 0
M  V30 14015 C 1371.81 -1.76468 -0.972691 0
M  V30 14016 O 1370.87 -1.81314 -1.75731 0
M  V30 14017 C 1372.18 -2.68198 1.35978 0
M  V30 14018 C 1373.73 -2.8208 1.35647 0
M  V30 14019 C 1374.21 -4.01881 2.19672 0
M  V30 14020 N 1375.7 -4.0908 2.17273 0
M  V30 14021 C 1376.43 -5.00925 2.79038 0
M  V30 14022 N 1375.93 -5.9802 3.49777 0
M  V30 14023 N 1377.72 -4.93764 2.68615 0
M  V30 14024 H 1369.87 -1.16677 1.77483 0
M  V30 14025 H 1372.14 -0.571873 0.756085 0
M  V30 14026 H 1371.84 -2.56317 2.4082 0
M  V30 14027 H 1371.72 -3.63105 1.0215 0
M  V30 14028 H 1374.1 -2.93405 0.315849 0
M  V30 14029 H 1374.18 -1.87994 1.7347 0
M  V30 14030 H 1373.83 -3.91316 3.23781 0
M  V30 14031 H 1373.76 -4.95171 1.79202 0
M  V30 14032 H 1376.25 -3.3958 1.65814 0
M  V30 14033 H 1376.56 -6.64722 3.94162 0
M  V30 14034 H 1374.91 -5.98157 3.53883 0
M  V30 14035 H 1378.1 -4.16868 2.12929 0
M  V30 14036 H 1378.27 -5.65147 3.17038 0
M  V30 14037 N 1371.68 -0.573274 -1.46804 0
M  V30 14038 C 1372.92 -0.0551522 -2.02025 0
M  V30 14039 C 1373.25 1.30577 -1.44826 0
M  V30 14040 O 1372.52 1.85514 -0.629403 0
M  V30 14041 H 1371.1 -0.0173982 -0.746797 0
M  V30 14042 H 1373.76 -0.746919 -1.8002 0
M  V30 14043 H 1372.85 0.0209326 -3.12093 0
M  V30 14044 N 1373.15 1.5451 -0.310553 0
M  V30 14045 C 1374.09 2.2134 0.595098 0
M  V30 14046 C 1375.1 1.20917 1.09009 0
M  V30 14047 O 1376.29 1.47458 1.0059 0
M  V30 14048 C 1373.39 2.85384 1.82782 0
M  V30 14049 C 1372.56 4.11826 1.47372 0
M  V30 14050 C 1371.62 4.59584 2.56259 0
M  V30 14051 O 1370.65 5.24567 2.20949 0
M  V30 14052 N 1371.85 4.32709 3.86967 0
M  V30 14053 H 1374.61 2.99691 0.0229291 0
M  V30 14054 H 1372.17 1.61351 -0.133173 0
M  V30 14055 H 1374.17 3.14263 2.54992 0
M  V30 14056 H 1372.74 2.10816 2.30815 0
M  V30 14057 H 1371.96 3.89853 0.583826 0
M  V30 14058 H 1373.24 4.94138 1.21265 0
M  V30 14059 H 1372.64 3.80669 4.18458 0
M  V30 14060 H 1371.2 4.66275 4.55446 0
M  V30 14061 N 1374.63 0.0384594 1.57553 0
M  V30 14062 C 1376.05 -0.318006 1.564 0
M  V30 14063 C 1376.25 -1.72287 1.04496 0
M  V30 14064 O 1375.31 -2.42722 0.695861 0
M  V30 14065 C 1376.62 -0.158079 3.00284 0
M  V30 14066 C 1378.17 -0.230143 3.12153 0
M  V30 14067 C 1378.64 -0.0988948 4.57893 0
M  V30 14068 N 1380.13 -0.15558 4.62939 0
M  V30 14069 C 1380.87 -0.077948 5.73347 0
M  V30 14070 N 1380.36 0.0513054 6.92781 0
M  V30 14071 N 1382.16 -0.132612 5.61944 0
M  V30 14072 H 1374.31 0.957014 1.89618 0
M  V30 14073 H 1376.57 0.370396 0.872646 0
M  V30 14074 H 1376.28 0.810032 3.42245 0
M  V30 14075 H 1376.15 -0.924413 3.65697 0
M  V30 14076 H 1378.54 -1.18872 2.70099 0
M  V30 14077 H 1378.62 0.56673 2.49443 0
M  V30 14078 H 1378.26 0.856301 5.00629 0
M  V30 14079 H 1378.19 -0.91475 5.18594 0
M  V30 14080 H 1380.68 -0.255245 3.77037 0
M  V30 14081 H 1381 0.103595 7.72731 0
M  V30 14082 H 1379.34 0.0862166 6.94947 0
M  V30 14083 H 1382.53 -0.232056 4.67524 0
M  V30 14084 H 1382.71 -0.0686506 6.47964 0
M  V30 14085 N 1376.11 -1.55841 -0.234795 0
M  V30 14086 C 1377.07 -1.9051 -1.2743 0
M  V30 14087 C 1378.07 -0.782543 -1.40474 0
M  V30 14088 O 1379.26 -1.05043 -1.38966 0
M  V30 14089 C 1376.4 -2.14424 -2.65019 0
M  V30 14090 H 1377.59 -2.83471 -0.979003 0
M  V30 14091 H 1375.14 -1.48919 -0.47463 0
M  V30 14092 H 1375.88 -1.23972 -2.99669 0
M  V30 14093 H 1375.66 -2.96191 -2.56931 0
M  V30 14094 H 1377.15 -2.42388 -3.40056 0
M  V30 14095 N 1377.59 0.500963 -1.49426 0
M  V30 14096 C 1378.52 1.62019 -1.60701 0
M  V30 14097 C 1379.5 1.56072 -0.456092 0
M  V30 14098 O 1380.68 1.76128 -0.671642 0
M  V30 14099 C 1377.81 3.00532 -1.56199 0
M  V30 14100 C 1376.86 3.2474 -2.76489 0
M  V30 14101 S 1377.69 3.07859 -4.38159 0
M  V30 14102 C 1378.85 4.48767 -4.36301 0
M  V30 14103 H 1379.08 1.5221 -2.55381 0
M  V30 14104 H 1376.61 0.686122 -1.38317 0
M  V30 14105 H 1378.57 3.80402 -1.54287 0
M  V30 14106 H 1377.23 3.07757 -0.628067 0
M  V30 14107 H 1376.42 4.25858 -2.69558 0
M  V30 14108 H 1376.03 2.52593 -2.75813 0
M  V30 14109 H 1378.32 5.40854 -4.08023 0
M  V30 14110 H 1379.26 4.60748 -5.37696 0
M  V30 14111 H 1379.67 4.29448 -3.6638 0
M  V30 14112 N 1379.07 1.38501 0.752011 0
M  V30 14113 C 1380.31 1.34995 1.51341 0
M  V30 14114 C 1380.65 -0.0594724 1.94109 0
M  V30 14115 O 1379.92 -1.02098 1.65548 0
M  V30 14116 C 1380.2 2.30705 2.76491 0
M  V30 14117 C 1380.06 3.80515 2.39851 0
M  V30 14118 C 1381.38 2.24521 3.78521 0
M  V30 14119 H 1378.5 0.491687 0.549011 0
M  V30 14120 H 1381.14 1.69361 0.861205 0
M  V30 14121 H 1379.29 2.01529 3.32142 0
M  V30 14122 H 1380.96 4.20371 1.89962 0
M  V30 14123 H 1379.2 3.98119 1.7229 0
M  V30 14124 H 1379.87 4.42946 3.29397 0
M  V30 14125 H 1382.35 2.50282 3.32413 0
M  V30 14126 H 1381.23 2.93598 4.63779 0
M  V30 14127 H 1381.49 1.24457 4.2422 0
M  V30 14128 N 1380.55 -0.980364 1.23396 0
M  V30 14129 C 1381.77 -1.75689 1.09275 0
M  V30 14130 C 1382.19 -1.85418 -0.355773 0
M  V30 14131 O 1381.55 -1.33337 -1.24609 0
M  V30 14132 C 1381.6 -3.18378 1.71223 0
M  V30 14133 O 1381.32 -3.09154 3.10411 0
M  V30 14134 C 1382.82 -4.12425 1.62545 0
M  V30 14135 H 1380.04 -0.551354 0.382427 0
M  V30 14136 H 1382.58 -1.23169 1.63247 0
M  V30 14137 H 1380.74 -3.67925 1.21285 0
M  V30 14138 H 1381.15 -3.9898 3.40464 0
M  V30 14139 H 1382.63 -5.1025 2.10592 0
M  V30 14140 H 1383.1 -4.35296 0.584275 0
M  V30 14141 H 1383.71 -3.68782 2.1185 0
M  V30 14142 N 1382.02 -1.04567 -1.17913 0
M  V30 14143 C 1383.27 -0.753137 -1.88297 0
M  V30 14144 C 1383.6 0.717651 -1.80453 0
M  V30 14145 O 1382.88 1.5242 -1.20824 0
M  V30 14146 C 1383.16 -1.22626 -3.38578 0
M  V30 14147 C 1383.01 -2.75952 -3.55205 0
M  V30 14148 C 1384.33 -0.82029 -4.32388 0
M  V30 14149 H 1381.45 -0.275067 -0.683745 0
M  V30 14150 H 1384.09 -1.29856 -1.38699 0
M  V30 14151 H 1382.24 -0.762246 -3.80949 0
M  V30 14152 H 1383.92 -3.30429 -3.21892 0
M  V30 14153 H 1382.16 -3.15534 -2.97693 0
M  V30 14154 H 1382.83 -3.04116 -4.60671 0
M  V30 14155 H 1385.31 -1.21965 -3.97824 0
M  V30 14156 H 1384.18 -1.17902 -5.36088 0
M  V30 14157 H 1384.44 0.276205 -4.41236 0
M  V30 14158 N 1383.5 1.34231 -0.825823 0
M  V30 14159 C 1384.43 2.31997 -0.264546 0
M  V30 14160 C 1385.41 1.58375 0.620592 0
M  V30 14161 O 1386.6 1.86341 0.546865 0
M  V30 14162 C 1383.73 3.42557 0.572025 0
M  V30 14163 C 1382.68 4.27454 -0.216219 0
M  V30 14164 C 1382.01 5.29509 0.743279 0
M  V30 14165 C 1383.31 5.02456 -1.42603 0
M  V30 14166 H 1385 2.79189 -1.08139 0
M  V30 14167 H 1382.55 1.34227 -0.521451 0
M  V30 14168 H 1384.5 4.09968 0.974889 0
M  V30 14169 H 1383.22 2.94021 1.42195 0
M  V30 14170 H 1381.88 3.61649 -0.600485 0
M  V30 14171 H 1381.53 4.77234 1.58924 0
M  V30 14172 H 1381.23 5.87188 0.220064 0
M  V30 14173 H 1382.76 5.99789 1.14394 0
M  V30 14174 H 1384.17 5.62706 -1.09702 0
M  V30 14175 H 1382.57 5.69723 -1.88509 0
M  V30 14176 H 1383.64 4.31983 -2.2027 0
M  V30 14177 N 1384.98 0.581051 1.46498 0
M  V30 14178 C 1385.94 -0.142937 2.28754 0
M  V30 14179 C 1386.94 -0.820383 1.38298 0
M  V30 14180 O 1388.13 -0.672592 1.60692 0
M  V30 14181 C 1385.26 -1.21176 3.18637 0
M  V30 14182 H 1386.46 0.579918 2.9424 0
M  V30 14183 H 1384.01 0.338951 1.52581 0
M  V30 14184 H 1384.75 -1.96624 2.57894 0
M  V30 14185 H 1384.53 -0.730517 3.85235 0
M  V30 14186 H 1386.02 -1.71958 3.80552 0
M  V30 14187 N 1386.46 -1.54343 0.318742 0
M  V30 14188 C 1387.7 -2.0048 -0.285276 0
M  V30 14189 C 1388.03 -1.20698 -1.5252 0
M  V30 14190 O 1387.29 -0.275893 -1.93746 0
M  V30 14191 C 1387.59 -3.51079 -0.669181 0
M  V30 14192 C 1387.25 -4.48433 0.471017 0
M  V30 14193 C 1385.91 -4.74771 0.783985 0
M  V30 14194 C 1388.27 -5.06304 1.23715 0
M  V30 14195 C 1385.59 -5.56239 1.86589 0
M  V30 14196 C 1387.95 -5.88951 2.30911 0
M  V30 14197 C 1386.61 -6.13592 2.62794 0
M  V30 14198 H 1385.88 -0.73361 -0.10439 0
M  V30 14199 H 1388.53 -1.86341 0.441521 0
M  V30 14200 H 1386.83 -3.62921 -1.47633 0
M  V30 14201 H 1388.53 -3.84216 -1.148 0
M  V30 14202 H 1385.12 -4.2805 0.217004 0
M  V30 14203 H 1389.3 -4.85943 1.00862 0
M  V30 14204 H 1384.56 -5.73563 2.11744 0
M  V30 14205 H 1388.73 -6.32814 2.90722 0
M  V30 14206 H 1386.36 -6.76508 3.46757 0
M  V30 14207 N 1387.94 -0.0468143 -1.5753 0
M  V30 14208 C 1388.87 0.927092 -2.14306 0
M  V30 14209 C 1389.85 1.32745 -1.06362 0
M  V30 14210 O 1391.03 1.40293 -1.34281 0
M  V30 14211 C 1388.16 2.20343 -2.68452 0
M  V30 14212 C 1387.12 1.94328 -3.81341 0
M  V30 14213 C 1386.44 3.28379 -4.21985 0
M  V30 14214 C 1387.74 1.26835 -5.06666 0
M  V30 14215 H 1389.44 0.454199 -2.95935 0
M  V30 14216 H 1386.98 0.217029 -1.42355 0
M  V30 14217 H 1388.93 2.8887 -3.0681 0
M  V30 14218 H 1387.66 2.6983 -1.84009 0
M  V30 14219 H 1386.32 1.28214 -3.43448 0
M  V30 14220 H 1385.97 3.75658 -3.34499 0
M  V30 14221 H 1385.67 3.11772 -4.98068 0
M  V30 14222 H 1387.19 3.98145 -4.6294 0
M  V30 14223 H 1388.6 1.85389 -5.42498 0
M  V30 14224 H 1387 1.20569 -5.87863 0
M  V30 14225 H 1388.07 0.243759 -4.84287 0
M  V30 14226 N 1389.41 1.55964 0.226527 0
M  V30 14227 C 1390.66 1.79921 0.94869 0
M  V30 14228 C 1391.02 0.619018 1.8217 0
M  V30 14229 O 1390.31 -0.387105 1.87649 0
M  V30 14230 C 1390.5 3.07235 1.82597 0
M  V30 14231 C 1390.33 4.37524 1.03937 0
M  V30 14232 C 1389.1 4.99907 0.736294 0
M  V30 14233 C 1391.3 5.12686 0.407078 0
M  V30 14234 N 1389.28 6.13858 -0.0722247 0
M  V30 14235 C 1390.65 6.19433 -0.265063 0
M  V30 14236 C 1392.71 4.96873 0.319605 0
M  V30 14237 C 1391.41 7.12084 -1.0163 0
M  V30 14238 C 1393.44 5.8992 -0.418156 0
M  V30 14239 C 1392.8 6.96089 -1.07886 0
M  V30 14240 H 1388.9 0.710081 0.327581 0
M  V30 14241 H 1391.48 1.93453 0.219997 0
M  V30 14242 H 1389.65 2.94994 2.52652 0
M  V30 14243 H 1391.38 3.19403 2.48523 0
M  V30 14244 H 1388.14 4.61743 1.0531 0
M  V30 14245 H 1388.56 6.754 -0.465173 0
M  V30 14246 H 1393.21 4.1485 0.816071 0
M  V30 14247 H 1390.92 7.93593 -1.52431 0
M  V30 14248 H 1394.51 5.7976 -0.486776 0
M  V30 14249 H 1393.39 7.66847 -1.64061 0
M  V30 14250 N 1390.89 -0.493031 1.4969 0
M  V30 14251 C 1391.82 -1.60215 1.69863 0
M  V30 14252 C 1392.8 -1.61053 0.547362 0
M  V30 14253 O 1393.99 -1.77667 0.784093 0
M  V30 14254 C 1391.12 -2.98662 1.77252 0
M  V30 14255 C 1390.07 -3.1269 2.92248 0
M  V30 14256 C 1389.4 -4.52567 2.84758 0
M  V30 14257 C 1390.7 -2.91965 4.33074 0
M  V30 14258 H 1392.39 -1.43587 2.62723 0
M  V30 14259 H 1389.94 -0.689334 1.26429 0
M  V30 14260 H 1391.89 -3.7616 1.89951 0
M  V30 14261 H 1390.62 -3.16397 0.809976 0
M  V30 14262 H 1389.27 -2.37619 2.79164 0
M  V30 14263 H 1388.92 -4.6719 1.86394 0
M  V30 14264 H 1388.62 -4.62893 3.61944 0
M  V30 14265 H 1390.15 -5.32116 2.99475 0
M  V30 14266 H 1391.56 -3.59228 4.46798 0
M  V30 14267 H 1389.96 -3.13756 5.11544 0
M  V30 14268 H 1391.03 -1.88015 4.46966 0
M  V30 14269 N 1392.37 -1.38898 -0.744656 0
M  V30 14270 C 1393.78 -1.31789 -1.32244 0
M  V30 14271 C 1394.13 0.0222208 -1.96187 0
M  V30 14272 O 1393.26 0.924328 -1.95666 0
M  V30 14273 C 1393.85 -2.38674 -2.40458 0
M  V30 14274 C 1392.41 -2.35116 -2.93935 0
M  V30 14275 C 1391.56 -2.21069 -1.67403 0
M  V30 14276 H 1394.51 -1.49126 -0.54287 0
M  V30 14277 H 1394.53 -2.04905 -3.20615 0
M  V30 14278 H 1394.04 -3.36197 -1.9389 0
M  V30 14279 H 1392.14 -1.41201 -3.44809 0
M  V30 14280 H 1392.26 -3.29602 -3.47706 0
M  V30 14281 H 1390.62 -1.68074 -1.91372 0
M  V30 14282 H 1391.4 -3.20547 -1.229 0
M  V30 14283 N 1393.85 0.973806 -1.23914 0
M  V30 14284 C 1395.07 1.7564 -1.10296 0
M  V30 14285 C 1395.5 1.84984 0.340954 0
M  V30 14286 O 1394.86 1.31629 1.24674 0
M  V30 14287 C 1394.9 3.15809 -1.7406 0
M  V30 14288 O 1394.01 3.99911 -1.00722 0
M  V30 14289 H 1393.35 0.540133 -0.386202 0
M  V30 14290 H 1395.88 1.22197 -1.64101 0
M  V30 14291 H 1395.89 3.66359 -1.79568 0
M  V30 14292 H 1394.56 3.08324 -2.79122 0
M  V30 14293 H 1393.14 3.58405 -1.02956 0
M  V30 14294 N 1395.33 1.05191 1.17357 0
M  V30 14295 C 1396.26 0.673931 2.23563 0
M  V30 14296 C 1397.24 -0.328284 1.66902 0
M  V30 14297 O 1398.42 -0.205878 1.93106 0
M  V30 14298 C 1395.55 0.0478801 3.47267 0
M  V30 14299 C 1394.51 0.974855 4.1675 0
M  V30 14300 C 1393.83 0.212684 5.34277 0
M  V30 14301 C 1395.13 2.299 4.68981 0
M  V30 14302 H 1396.83 1.56183 2.55436 0
M  V30 14303 H 1394.37 0.752408 1.2278 0
M  V30 14304 H 1396.33 -0.228343 4.20781 0
M  V30 14305 H 1395.05 -0.874963 3.14662 0
M  V30 14306 H 1393.71 1.23564 3.45148 0
M  V30 14307 H 1393.36 -0.712924 4.97922 0
M  V30 14308 H 1393.06 0.830351 5.81703 0
M  V30 14309 H 1394.58 -0.056255 6.10574 0
M  V30 14310 H 1395.99 2.08269 5.34132 0
M  V30 14311 H 1394.39 2.87064 5.26986 0
M  V30 14312 H 1395.46 2.93759 3.8579 0
M  V30 14313 N 1396.8 -1.33791 0.83293 0
M  V30 14314 C 1398.03 -2.01894 0.43844 0
M  V30 14315 C 1398.44 -1.62844 -0.963247 0
M  V30 14316 O 1397.79 -0.834636 -1.63644 0
M  V30 14317 C 1397.85 -3.5638 0.472604 0
M  V30 14318 C 1397.51 -4.18788 1.82937 0
M  V30 14319 C 1398.51 -4.38588 2.79172 0
M  V30 14320 C 1396.19 -4.55342 2.12058 0
M  V30 14321 C 1398.19 -4.94081 4.02694 0
M  V30 14322 C 1395.87 -5.10544 3.35839 0
M  V30 14323 C 1396.87 -5.29859 4.30974 0
M  V30 14324 O 1396.56 -5.83889 5.52566 0
M  V30 14325 H 1396.29 -0.65348 0.173031 0
M  V30 14326 H 1398.85 -1.71827 1.12537 0
M  V30 14327 H 1397.08 -3.85749 -0.271074 0
M  V30 14328 H 1398.77 -4.05785 0.0967701 0
M  V30 14329 H 1399.53 -4.10701 2.57972 0
M  V30 14330 H 1395.41 -4.39607 1.38806 0
M  V30 14331 H 1398.95 -5.09072 4.7696 0
M  V30 14332 H 1394.85 -5.3786 3.56898 0
M  V30 14333 H 1395.62 -6.02311 5.54224 0
M  V30 14334 N 1398.28 -0.588812 -1.46187 0
M  V30 14335 C 1399.21 0.178825 -2.28501 0
M  V30 14336 C 1400.23 0.849686 -1.38867 0
M  V30 14337 O 1401.42 0.718224 -1.63413 0
M  V30 14338 C 1398.52 1.27309 -3.14079 0
M  V30 14339 C 1397.69 0.692974 -4.31876 0
M  V30 14340 C 1396.75 1.67572 -4.98805 0
M  V30 14341 O 1395.77 1.20937 -5.56204 0
M  V30 14342 N 1396.98 3.00992 -4.96371 0
M  V30 14343 H 1399.74 -0.527407 -2.95023 0
M  V30 14344 H 1397.3 -0.426998 -1.56168 0
M  V30 14345 H 1399.29 1.92993 -3.55719 0
M  V30 14346 H 1397.86 1.88209 -2.49592 0
M  V30 14347 H 1397.08 -0.141485 -3.93946 0
M  V30 14348 H 1398.37 0.28529 -5.08 0
M  V30 14349 H 1397.77 3.41498 -4.50994 0
M  V30 14350 H 1396.33 3.62149 -5.41933 0
M  V30 14351 N 1399.76 1.54172 -0.326923 0
M  V30 14352 C 1401.18 1.59579 0.0256055 0
M  V30 14353 C 1401.38 1.34337 1.50186 0
M  V30 14354 O 1400.43 1.12945 2.25831 0
M  V30 14355 C 1401.75 2.98086 -0.395641 0
M  V30 14356 C 1403.29 3.11075 -0.346579 0
M  V30 14357 C 1403.77 4.51932 -0.743039 0
M  V30 14358 N 1405.26 4.57932 -0.696575 0
M  V30 14359 C 1405.99 5.65041 -0.975493 0
M  V30 14360 N 1405.49 6.80075 -1.32172 0
M  V30 14361 N 1407.28 5.54835 -0.900831 0
M  V30 14362 H 1399.43 1.68836 -1.28872 0
M  V30 14363 H 1401.7 0.789858 -0.52424 0
M  V30 14364 H 1401.4 3.21568 -1.42431 0
M  V30 14365 H 1401.28 3.76451 0.237645 0
M  V30 14366 H 1403.66 2.87326 0.672889 0
M  V30 14367 H 1403.75 2.34807 -1.01484 0
M  V30 14368 H 1403.39 4.76415 -1.76044 0
M  V30 14369 H 1403.32 5.26574 -0.0524263 0
M  V30 14370 H 1405.81 3.75318 -0.440969 0
M  V30 14371 H 1406.12 7.57708 -1.51983 0
M  V30 14372 H 1404.47 6.81563 -1.36001 0
M  V30 14373 H 1407.66 4.63844 -0.629812 0
M  V30 14374 H 1407.83 6.3822 -1.12156 0
M  V30 14375 N 1401.24 0.0551678 1.57503 0
M  V30 14376 C 1402.65 -0.479948 1.80426 0
M  V30 14377 C 1403 -1.70673 0.967733 0
M  V30 14378 O 1402.13 -2.15604 0.185462 0
M  V30 14379 C 1402.72 -0.877496 3.27239 0
M  V30 14380 C 1401.28 -1.35757 3.51066 0
M  V30 14381 C 1400.43 -0.334681 2.75273 0
M  V30 14382 H 1403.38 0.281016 1.56192 0
M  V30 14383 H 1403.4 -1.74013 3.38378 0
M  V30 14384 H 1402.91 0.015571 3.88097 0
M  V30 14385 H 1401.01 -2.26969 2.95492 0
M  V30 14386 H 1401.12 -1.34697 4.59776 0
M  V30 14387 H 1399.49 -0.808421 2.4153 0
M  V30 14388 H 1400.27 0.550369 3.3886 0
M  V30 14389 N 1402.72 -1.56081 -0.218252 0
M  V30 14390 C 1403.65 -1.95706 -1.27364 0
M  V30 14391 C 1404.63 -0.825731 -1.48713 0
M  V30 14392 O 1405.81 -1.08829 -1.60841 0
M  V30 14393 C 1402.94 -2.2766 -2.62275 0
M  V30 14394 C 1401.9 -3.43314 -2.55576 0
M  V30 14395 C 1401.22 -3.60883 -3.94547 0
M  V30 14396 C 1402.52 -4.7819 -2.10075 0
M  V30 14397 H 1404.22 -2.84113 -0.944459 0
M  V30 14398 H 1401.76 -1.36693 -0.452882 0
M  V30 14399 H 1403.72 -2.53973 -3.36268 0
M  V30 14400 H 1402.44 -1.3611 -2.96887 0
M  V30 14401 H 1401.1 -3.17056 -1.8404 0
M  V30 14402 H 1400.75 -2.66703 -4.26472 0
M  V30 14403 H 1400.45 -4.38674 -3.90946 0
M  V30 14404 H 1401.97 -3.89547 -4.70197 0
M  V30 14405 H 1403.38 -5.03686 -2.73813 0
M  V30 14406 H 1401.78 -5.59287 -2.17527 0
M  V30 14407 H 1402.85 -4.73325 -1.05314 0
M  V30 14408 N 1404.2 0.485086 -1.49949 0
M  V30 14409 C 1405.47 1.24639 -1.50747 0
M  V30 14410 C 1405.85 2.09683 -0.244162 0
M  V30 14411 O 1405.2 2.1503 0.772949 0
M  V30 14412 C 1405.41 2.08946 -2.7954 0
M  V30 14413 C 1406.76 2.67604 -3.29656 0
M  V30 14414 O 1407.78 2.192 -2.80766 0
M  V30 14415 O 1406.64 3.55761 -4.14845 0
M  V30 14416 H 1403.74 0.564849 -0.604049 0
M  V30 14417 H 1406.28 0.498052 -1.62227 0
M  V30 14418 H 1405.05 1.46185 -3.62968 0
M  V30 14419 H 1404.68 2.90941 -2.70997 0
M  V30 14420 N 1405.67 1.39291 0.737279 0
M  V30 14421 C 1406.61 1.33728 1.86144 0
M  V30 14422 C 1407.62 0.246468 1.60924 0
M  V30 14423 O 1408.81 0.505252 1.712 0
M  V30 14424 C 1405.91 1.05312 3.22122 0
M  V30 14425 C 1405.08 2.25624 3.74716 0
M  V30 14426 C 1404.14 1.937 4.89251 0
M  V30 14427 O 1403.17 2.66361 5.03031 0
M  V30 14428 N 1404.37 0.901782 5.73453 0
M  V30 14429 H 1407.13 2.30604 1.91421 0
M  V30 14430 H 1404.69 1.33364 0.917919 0
M  V30 14431 H 1406.69 0.819784 3.9631 0
M  V30 14432 H 1405.26 0.171773 3.12128 0
M  V30 14433 H 1404.48 2.64923 2.91906 0
M  V30 14434 H 1405.76 3.05881 4.06589 0
M  V30 14435 H 1405.16 0.299553 5.64906 0
M  V30 14436 H 1403.72 0.728344 6.47718 0
M  V30 14437 N 1407.15 -0.967221 1.24429 0
M  V30 14438 C 1408.4 -1.71026 1.08427 0
M  V30 14439 C 1408.73 -1.90815 -0.376812 0
M  V30 14440 O 1407.98 -1.46745 -1.29477 0
M  V30 14441 C 1408.28 -3.10507 1.76975 0
M  V30 14442 C 1407.95 -3.10557 3.26902 0
M  V30 14443 C 1406.61 -3.10278 3.67806 0
M  V30 14444 C 1408.96 -3.04852 4.22746 0
M  V30 14445 C 1406.29 -3.02027 5.02988 0
M  V30 14446 C 1408.64 -2.98143 5.57937 0
M  V30 14447 C 1407.3 -2.96193 5.98185 0
M  V30 14448 H 1406.57 -0.625827 0.396764 0
M  V30 14449 H 1409.22 -1.13094 1.54538 0
M  V30 14450 H 1407.53 -3.71906 1.2326 0
M  V30 14451 H 1409.22 -3.66794 1.62058 0
M  V30 14452 H 1405.81 -3.11539 2.94349 0
M  V30 14453 H 1410 -3.04197 3.92145 0
M  V30 14454 H 1405.25 -2.98878 5.33368 0
M  V30 14455 H 1409.43 -2.92688 6.31907 0
M  V30 14456 H 1407.05 -2.89555 7.02895 0
M  V30 14457 N 1408.63 -1.05812 -1.16797 0
M  V30 14458 C 1409.88 -0.773066 -1.87487 0
M  V30 14459 C 1410.21 0.698471 -1.81204 0
M  V30 14460 O 1409.48 1.51129 -1.22434 0
M  V30 14461 C 1409.77 -1.2621 -3.37258 0
M  V30 14462 C 1409.62 -2.79704 -3.52258 0
M  V30 14463 C 1410.94 -0.866104 -4.31494 0
M  V30 14464 H 1408.06 -0.282304 -0.680789 0
M  V30 14465 H 1410.7 -1.3132 -1.37314 0
M  V30 14466 H 1408.85 -0.802608 -3.80119 0
M  V30 14467 H 1410.52 -3.33824 -3.1837 0
M  V30 14468 H 1408.76 -3.18673 -2.94329 0
M  V30 14469 H 1409.44 -3.08985 -4.57419 0
M  V30 14470 H 1411.91 -1.26178 -3.96508 0
M  V30 14471 H 1410.79 -1.23581 -5.34807 0
M  V30 14472 H 1411.05 0.229391 -4.41504 0
M  V30 14473 N 1410.11 1.33347 -0.840014 0
M  V30 14474 C 1411.04 2.31703 -0.289138 0
M  V30 14475 C 1412.02 1.59024 0.603759 0
M  V30 14476 O 1413.2 1.86911 0.527071 0
M  V30 14477 C 1410.33 3.43144 0.53566 0
M  V30 14478 C 1409.29 4.272 -0.261544 0
M  V30 14479 C 1408.61 5.30267 0.687075 0
M  V30 14480 C 1409.91 5.00915 -1.47924 0
M  V30 14481 H 1411.61 2.78026 -1.11094 0
M  V30 14482 H 1409.15 1.33666 -0.535658 0
M  V30 14483 H 1411.11 4.10979 0.931351 0
M  V30 14484 H 1409.83 2.95512 1.39069 0
M  V30 14485 H 1408.49 3.60991 -0.638809 0
M  V30 14486 H 1408.14 4.78893 1.53853 0
M  V30 14487 H 1407.84 5.87388 0.157773 0
M  V30 14488 H 1409.36 6.00968 1.08026 0
M  V30 14489 H 1410.78 5.61511 -1.15664 0
M  V30 14490 H 1409.17 5.67692 -1.94541 0
M  V30 14491 H 1410.24 4.29622 -2.24839 0
M  V30 14492 N 1411.59 0.596556 1.45873 0
M  V30 14493 C 1412.52 -0.166704 2.28593 0
M  V30 14494 C 1413.53 -0.84231 1.39316 0
M  V30 14495 O 1414.72 -0.709548 1.63792 0
M  V30 14496 C 1411.82 -1.25641 3.1475 0
M  V30 14497 C 1410.99 -0.67006 4.32237 0
M  V30 14498 C 1410.05 -1.64924 4.99686 0
M  V30 14499 O 1409.08 -1.17986 5.56838 0
M  V30 14500 N 1410.28 -2.98355 4.9796 0
M  V30 14501 H 1413.04 0.543045 2.94739 0
M  V30 14502 H 1410.61 0.435274 1.55939 0
M  V30 14503 H 1412.6 -1.91104 3.56737 0
M  V30 14504 H 1411.17 -1.86883 2.50586 0
M  V30 14505 H 1410.39 0.162375 3.93865 0
M  V30 14506 H 1411.68 -0.258345 5.08144 0
M  V30 14507 H 1411.07 -3.39101 4.52799 0
M  V30 14508 H 1409.63 -3.5927 5.43846 0
M  V30 14509 N 1413.06 -1.53996 0.335095 0
M  V30 14510 C 1414.29 -2.05657 -0.268328 0
M  V30 14511 C 1414.71 -1.20897 -1.44102 0
M  V30 14512 O 1414.07 -0.220737 -1.79951 0
M  V30 14513 C 1414.12 -3.54331 -0.669481 0
M  V30 14514 O 1413.22 -3.7246 -1.77052 0
M  V30 14515 H 1412.56 -0.662386 -0.0462705 0
M  V30 14516 H 1415.09 -1.98723 0.486854 0
M  V30 14517 H 1415.1 -3.9681 -0.948971 0
M  V30 14518 H 1413.78 -4.15474 0.188168 0
M  V30 14519 H 1412.36 -3.41884 -1.48895 0
M  V30 14520 N 1414.54 -0.0635198 -1.57472 0
M  V30 14521 C 1415.49 0.916528 -2.08767 0
M  V30 14522 C 1416.48 1.26405 -0.99552 0
M  V30 14523 O 1417.67 1.24441 -1.25871 0
M  V30 14524 C 1414.8 2.18704 -2.64619 0
M  V30 14525 C 1413.88 1.86637 -3.80825 0
M  V30 14526 N 1414.27 1.24982 -4.90115 0
M  V30 14527 C 1412.57 2.16435 -3.89964 0
M  V30 14528 C 1413.27 1.10821 -5.71046 0
M  V30 14529 N 1412.25 1.61519 -5.1905 0
M  V30 14530 H 1416.05 0.435376 -2.90657 0
M  V30 14531 H 1413.56 0.1406 -1.6179 0
M  V30 14532 H 1415.56 2.89825 -2.99678 0
M  V30 14533 H 1414.22 2.67415 -1.84172 0
M  V30 14534 H 1415.23 0.920491 -5.09654 0
M  V30 14535 H 1411.91 2.6758 -3.20479 0
M  V30 14536 H 1413.3 0.628547 -6.68954 0
M  V30 14537 N 1416.02 1.56195 0.209972 0
M  V30 14538 C 1416.98 1.92514 1.24383 0
M  V30 14539 C 1417.98 0.804793 1.39211 0
M  V30 14540 O 1419.17 1.0724 1.37278 0
M  V30 14541 C 1416.3 2.18613 2.61574 0
M  V30 14542 H 1417.5 2.84992 0.933781 0
M  V30 14543 H 1415.05 1.49656 0.450878 0
M  V30 14544 H 1415.79 1.28724 2.97659 0
M  V30 14545 H 1415.57 3.00241 2.52186 0
M  V30 14546 H 1417.06 2.47767 3.36156 0
M  V30 14547 N 1417.5 -0.477127 1.50204 0
M  V30 14548 C 1418.74 -1.22864 1.62099 0
M  V30 14549 C 1419.1 -1.89811 0.314549 0
M  V30 14550 O 1418.39 -1.78856 -0.687092 0
M  V30 14551 C 1418.59 -2.30126 2.73453 0
M  V30 14552 C 1418.41 -1.73701 4.14799 0
M  V30 14553 C 1417.18 -1.5394 4.8128 0
M  V30 14554 C 1419.38 -1.23535 4.99243 0
M  V30 14555 N 1417.36 -0.926941 6.06862 0
M  V30 14556 C 1418.74 -0.745736 6.15499 0
M  V30 14557 C 1420.79 -1.12333 4.85063 0
M  V30 14558 C 1419.49 -0.155155 7.19133 0
M  V30 14559 C 1421.52 -0.546689 5.88868 0
M  V30 14560 C 1420.88 -0.0674239 7.04368 0
M  V30 14561 H 1416.98 -0.438688 0.647361 0
M  V30 14562 H 1419.56 -0.531647 1.87301 0
M  V30 14563 H 1417.74 -2.97259 2.49984 0
M  V30 14564 H 1419.47 -2.97154 2.74739 0
M  V30 14565 H 1416.22 -1.78993 4.38473 0
M  V30 14566 H 1416.65 -0.639298 6.73975 0
M  V30 14567 H 1421.29 -1.4798 3.96058 0
M  V30 14568 H 1419.01 0.21354 8.07818 0
M  V30 14569 H 1422.59 -0.462461 5.79959 0
M  V30 14570 H 1421.47 0.371791 7.83318 0
M  V30 14571 N 1418.98 -1.3968 -0.729882 0
M  V30 14572 C 1420.22 -1.37182 -1.48954 0
M  V30 14573 C 1420.55 0.0305728 -1.94476 0
M  V30 14574 O 1419.81 1.0124 -1.67478 0
M  V30 14575 C 1420.11 -2.29499 -2.7398 0
M  V30 14576 C 1419.77 -3.77034 -2.47298 0
M  V30 14577 C 1418.43 -4.17232 -2.39731 0
M  V30 14578 C 1420.79 -4.70325 -2.24597 0
M  V30 14579 C 1418.11 -5.48777 -2.07511 0
M  V30 14580 C 1420.47 -6.02153 -1.93893 0
M  V30 14581 C 1419.13 -6.41409 -1.84798 0
M  V30 14582 H 1418.4 -0.501985 -0.545061 0
M  V30 14583 H 1421.05 -1.72226 -0.837294 0
M  V30 14584 H 1419.35 -1.87592 -3.43972 0
M  V30 14585 H 1421.05 -2.24857 -3.32024 0
M  V30 14586 H 1417.64 -3.45177 -2.54069 0
M  V30 14587 H 1421.82 -4.40097 -2.29408 0
M  V30 14588 H 1417.08 -5.78109 -1.98996 0
M  V30 14589 H 1421.25 -6.73966 -1.75337 0
M  V30 14590 H 1418.88 -7.43258 -1.59598 0
M  V30 14591 N 1420.45 0.960609 -1.2494 0
M  V30 14592 C 1421.4 2.07763 -1.04581 0
M  V30 14593 C 1422.4 1.69386 0.0214505 0
M  V30 14594 O 1423.6 1.79503 -0.133683 0
M  V30 14595 H 1419.98 0.679944 -0.321216 0
M  V30 14596 H 1421.95 2.22094 -1.99291 0
M  V30 14597 C 1420.7 3.41088 -0.674876 0
M  V30 14598 H 1420.02 3.71082 -1.4879 0
M  V30 14599 H 1421.46 4.20123 -0.572079 0
M  V30 14600 C 1419.92 3.31172 0.6186 0
M  V30 14601 O 1420.45 3.65688 1.66238 0
M  V30 14602 N 1418.66 2.84297 0.601984 0
M  V30 14603 H 1418.2 2.56406 -0.24778 0
M  V30 14604 H 1418.16 2.78045 1.4676 0
M  V30 14605 N 1421.93 1.0643 1.16234 0
M  V30 14606 C 1423.18 0.782998 1.87075 0
M  V30 14607 C 1423.51 -0.688852 1.81572 0
M  V30 14608 O 1422.79 -1.50478 1.23234 0
M  V30 14609 C 1423.07 1.27997 3.36584 0
M  V30 14610 C 1422.92 2.81568 3.5077 0
M  V30 14611 C 1424.24 0.888975 4.31028 0
M  V30 14612 H 1421.36 0.28591 0.679282 0
M  V30 14613 H 1424 1.32046 1.36615 0
M  V30 14614 H 1422.15 0.822756 3.79688 0
M  V30 14615 H 1423.82 3.35508 3.16595 0
M  V30 14616 H 1422.07 3.2023 2.92635 0
M  V30 14617 H 1422.74 3.11406 4.55774 0
M  V30 14618 H 1425.21 1.28279 3.95833 0
M  V30 14619 H 1424.09 1.26416 5.34144 0
M  V30 14620 H 1424.35 -0.205973 4.4162 0
M  V30 14621 N 1423.41 -1.329 0.847073 0
M  V30 14622 C 1424.64 -2.02244 0.459588 0
M  V30 14623 C 1425.06 -1.63279 -0.933897 0
M  V30 14624 O 1424.42 -0.829551 -1.61208 0
M  V30 14625 C 1424.47 -3.55616 0.59745 0
M  V30 14626 O 1423.57 -4.1071 -0.372919 0
M  V30 14627 H 1422.91 -0.637504 0.1857 0
M  V30 14628 H 1425.44 -1.69617 1.14417 0
M  V30 14629 H 1425.45 -4.05141 0.482145 0
M  V30 14630 H 1424.13 -3.8332 1.61365 0
M  V30 14631 H 1422.7 -3.72283 -0.214487 0
M  V30 14632 N 1424.89 -0.604284 -1.45555 0
M  V30 14633 C 1426.11 -0.102634 -2.07146 0
M  V30 14634 C 1426.54 1.20239 -1.44652 0
M  V30 14635 O 1425.9 1.73133 -0.538033 0
M  V30 14636 C 1425.94 0.0270231 -3.6059 0
M  V30 14637 O 1425.05 1.0781 -3.98059 0
M  V30 14638 H 1424.39 -0.0725667 -0.660023 0
M  V30 14639 H 1426.92 -0.833355 -1.86859 0
M  V30 14640 H 1426.93 0.226299 -4.07372 0
M  V30 14641 H 1425.6 -0.925896 -4.05463 0
M  V30 14642 H 1424.18 0.855552 -3.62953 0
M  V30 14643 N 1426.37 1.53816 -0.343257 0
M  V30 14644 C 1427.3 2.27951 0.506005 0
M  V30 14645 C 1428.28 1.29502 1.10287 0
M  V30 14646 O 1429.46 1.58344 1.12432 0
M  V30 14647 C 1426.59 3.0521 1.65723 0
M  V30 14648 C 1425.55 4.11161 1.18871 0
M  V30 14649 C 1424.87 4.76373 2.42843 0
M  V30 14650 C 1426.17 5.21498 0.289403 0
M  V30 14651 H 1427.87 2.99189 -0.112435 0
M  V30 14652 H 1425.41 1.43893 -0.055516 0
M  V30 14653 H 1427.37 3.55811 2.2578 0
M  V30 14654 H 1426.09 2.31624 2.30256 0
M  V30 14655 H 1424.75 3.61473 0.610962 0
M  V30 14656 H 1424.4 3.99381 3.05784 0
M  V30 14657 H 1424.1 5.47955 2.12177 0
M  V30 14658 H 1425.62 5.29758 3.03627 0
M  V30 14659 H 1427.03 5.67736 0.796808 0
M  V30 14660 H 1425.43 6.00054 0.0746366 0
M  V30 14661 H 1426.5 4.80185 -0.674543 0
M  V30 14662 N 1427.84 0.0718701 1.57436 0
M  V30 14663 C 1429.26 -0.460784 1.80924 0
M  V30 14664 C 1429.61 -1.69637 0.985781 0
M  V30 14665 O 1428.73 -2.15395 0.208319 0
M  V30 14666 C 1429.33 -0.842738 3.28151 0
M  V30 14667 C 1427.89 -1.32026 3.52486 0
M  V30 14668 C 1427.03 -0.305466 2.75612 0
M  V30 14669 H 1429.98 0.297566 1.55885 0
M  V30 14670 H 1430 -1.70414 3.40205 0
M  V30 14671 H 1429.52 0.056733 3.88059 0
M  V30 14672 H 1427.62 -2.23822 2.97883 0
M  V30 14673 H 1427.73 -1.29813 4.61178 0
M  V30 14674 H 1426.09 -0.782758 2.42374 0
M  V30 14675 H 1426.88 0.586279 3.38257 0
M  V30 14676 N 1429.32 -1.56304 -0.201686 0
M  V30 14677 C 1430.55 -1.84074 -0.938103 0
M  V30 14678 C 1430.96 -0.651377 -1.77634 0
M  V30 14679 O 1430.3 0.389278 -1.79528 0
M  V30 14680 C 1430.37 -3.05856 -1.88924 0
M  V30 14681 C 1430.03 -4.40036 -1.2336 0
M  V30 14682 C 1431.03 -5.16265 -0.613737 0
M  V30 14683 C 1428.71 -4.86768 -1.23942 0
M  V30 14684 C 1430.71 -6.37399 -0.00844569 0
M  V30 14685 C 1428.39 -6.07841 -0.630296 0
M  V30 14686 C 1429.39 -6.82998 -0.0158799 0
M  V30 14687 O 1429.08 -8.01778 0.58372 0
M  V30 14688 H 1428.81 -0.615492 -0.279545 0
M  V30 14689 H 1431.36 -2.04262 -0.215938 0
M  V30 14690 H 1429.59 -2.81536 -2.65093 0
M  V30 14691 H 1431.28 -3.20328 -2.49289 0
M  V30 14692 H 1432.05 -4.81257 -0.601424 0
M  V30 14693 H 1427.93 -4.2823 -1.70705 0
M  V30 14694 H 1431.47 -6.96003 0.47174 0
M  V30 14695 H 1427.37 -6.42319 -0.640089 0
M  V30 14696 H 1428.14 -8.17091 0.479979 0
M  V30 14697 N 1430.8 0.469154 -1.50455 0
M  V30 14698 C 1431.76 1.5493 -1.68906 0
M  V30 14699 C 1432.76 1.50744 -0.559721 0
M  V30 14700 O 1433.95 1.5333 -0.826781 0
M  V30 14701 C 1431.09 2.94556 -1.71609 0
M  V30 14702 H 1432.28 1.39887 -2.65276 0
M  V30 14703 H 1429.83 0.695667 -1.39965 0
M  V30 14704 H 1430.57 3.15041 -0.769382 0
M  V30 14705 H 1430.35 2.99002 -2.53654 0
M  V30 14706 H 1431.84 3.72973 -1.87831 0
M  V30 14707 N 1432.28 1.40065 0.722464 0
M  V30 14708 C 1433.52 1.38175 1.48444 0
M  V30 14709 C 1433.86 -0.0182857 1.94191 0
M  V30 14710 O 1433.13 -0.985638 1.67677 0
M  V30 14711 C 1433.42 2.36518 2.71535 0
M  V30 14712 C 1433.27 3.85517 2.31726 0
M  V30 14713 C 1434.59 2.325 3.73673 0
M  V30 14714 H 1431.71 0.503221 0.538458 0
M  V30 14715 H 1434.35 1.7115 0.825087 0
M  V30 14716 H 1432.5 2.08529 3.27793 0
M  V30 14717 H 1434.17 4.24306 1.81003 0
M  V30 14718 H 1432.41 4.01684 1.63807 0
M  V30 14719 H 1433.08 4.49834 3.19928 0
M  V30 14720 H 1435.56 2.57277 3.27029 0
M  V30 14721 H 1434.44 3.03369 4.57447 0
M  V30 14722 H 1434.7 1.33427 4.21485 0
M  V30 14723 N 1433.76 -0.95397 1.25448 0
M  V30 14724 C 1435.17 -1.51337 1.09335 0
M  V30 14725 C 1435.52 -1.93393 -0.330698 0
M  V30 14726 O 1434.64 -1.78681 -1.22074 0
M  V30 14727 C 1435.24 -2.75024 1.97857 0
M  V30 14728 C 1433.8 -3.27274 1.85927 0
M  V30 14729 C 1432.95 -2.00108 1.91969 0
M  V30 14730 H 1435.9 -0.770795 1.38724 0
M  V30 14731 H 1435.92 -3.48867 1.51894 0
M  V30 14732 H 1435.43 -2.44383 3.01494 0
M  V30 14733 H 1433.53 -3.62734 0.851767 0
M  V30 14734 H 1433.64 -3.95245 2.70773 0
M  V30 14735 H 1432.01 -2.15438 1.35862 0
M  V30 14736 H 1432.79 -1.71816 2.97211 0
M  V30 14737 N 1435.24 -1.07045 -1.15668 0
M  V30 14738 C 1436.65 -0.814932 -1.67975 0
M  V30 14739 C 1437 0.660408 -1.84751 0
M  V30 14740 O 1436.12 1.51156 -1.54857 0
M  V30 14741 C 1436.72 -1.47274 -3.05116 0
M  V30 14742 C 1435.28 -1.26481 -3.54513 0
M  V30 14743 C 1434.42 -1.54439 -2.30312 0
M  V30 14744 H 1437.37 -1.23291 -0.999251 0
M  V30 14745 H 1437.4 -0.892244 -3.69891 0
M  V30 14746 H 1436.91 -2.54649 -2.92874 0
M  V30 14747 H 1435.01 -0.211138 -3.72001 0
M  V30 14748 H 1435.12 -1.98283 -4.36143 0
M  V30 14749 H 1433.49 -0.965269 -2.357 0
M  V30 14750 H 1434.27 -2.6299 -2.20661 0
M  V30 14751 N 1436.71 1.32449 -0.85411 0
M  V30 14752 C 1437.64 2.31383 -0.313697 0
M  V30 14753 C 1438.62 1.59656 0.586858 0
M  V30 14754 O 1439.81 1.87459 0.507216 0
M  V30 14755 C 1436.94 3.43693 0.499235 0
M  V30 14756 C 1435.89 4.26899 -0.306839 0
M  V30 14757 C 1435.22 5.30966 0.630795 0
M  V30 14758 C 1436.52 4.99318 -1.53229 0
M  V30 14759 H 1438.21 2.76832 -1.14037 0
M  V30 14760 H 1435.76 1.33091 -0.549805 0
M  V30 14761 H 1437.71 4.11944 0.887709 0
M  V30 14762 H 1436.44 2.96971 1.35926 0
M  V30 14763 H 1435.1 3.60294 -0.677061 0
M  V30 14764 H 1434.74 4.80498 1.48765 0
M  V30 14765 H 1434.44 5.87522 0.0954635 0
M  V30 14766 H 1435.97 6.0208 1.01646 0
M  V30 14767 H 1437.38 5.60253 -1.21614 0
M  V30 14768 H 1435.78 5.65596 -2.00552 0
M  V30 14769 H 1436.85 4.27213 -2.29383 0
M  V30 14770 N 1438.19 0.611994 1.45232 0
M  V30 14771 C 1439.42 0.113618 2.07089 0
M  V30 14772 C 1439.84 -1.1947 1.45288 0
M  V30 14773 O 1439.2 -1.72845 0.547207 0
M  V30 14774 C 1439.25 -0.00789978 3.60599 0
M  V30 14775 O 1438.35 -1.05697 3.98625 0
M  V30 14776 H 1437.69 0.076066 0.659629 0
M  V30 14777 H 1440.22 0.843253 1.86415 0
M  V30 14778 H 1440.23 -0.204692 4.07486 0
M  V30 14779 H 1438.91 0.947386 4.04966 0
M  V30 14780 H 1437.48 -0.836291 3.63401 0
M  V30 14781 N 1439.67 -1.53632 0.351409 0
M  V30 14782 C 1440.6 -2.28217 -0.49391 0
M  V30 14783 C 1441.58 -1.30085 -1.09599 0
M  V30 14784 O 1442.77 -1.58938 -1.1159 0
M  V30 14785 C 1439.9 -3.06085 -1.64102 0
M  V30 14786 C 1438.85 -4.11786 -1.16689 0
M  V30 14787 C 1438.18 -4.77654 -2.40314 0
M  V30 14788 C 1439.48 -5.21644 -0.261742 0
M  V30 14789 H 1441.17 -2.99125 0.1283 0
M  V30 14790 H 1438.72 -1.43861 0.0631462 0
M  V30 14791 H 1440.67 -3.57003 -2.2389 0
M  V30 14792 H 1439.39 -2.32842 -2.29025 0
M  V30 14793 H 1438.05 -3.61792 -0.591784 0
M  V30 14794 H 1437.7 -4.00997 -3.03661 0
M  V30 14795 H 1437.4 -5.49072 -2.09268 0
M  V30 14796 H 1438.92 -5.3136 -3.00813 0
M  V30 14797 H 1440.34 -5.6815 -0.766689 0
M  V30 14798 H 1438.73 -6.00085 -0.0428132 0
M  V30 14799 H 1439.8 -4.79821 0.699999 0
M  V30 14800 N 1441.15 -0.0802183 -1.57396 0
M  V30 14801 C 1442.56 0.451183 -1.81166 0
M  V30 14802 C 1442.91 1.69112 -0.994764 0
M  V30 14803 O 1442.03 2.15281 -0.219739 0
M  V30 14804 C 1442.63 0.825324 -3.28594 0
M  V30 14805 C 1441.19 1.30154 -3.53181 0
M  V30 14806 C 1440.34 0.290846 -2.75771 0
M  V30 14807 H 1443.29 -0.305829 -1.55725 0
M  V30 14808 H 1443.31 1.68608 -3.41104 0
M  V30 14809 H 1442.82 -0.0773119 -3.88023 0
M  V30 14810 H 1440.92 2.22239 -2.99066 0
M  V30 14811 H 1441.03 1.27365 -4.6186 0
M  V30 14812 H 1439.4 0.769894 -2.42785 0
M  V30 14813 H 1440.18 -0.604209 -3.37941 0
M  V30 14814 N 1442.63 1.56409 0.193394 0
M  V30 14815 C 1444.04 1.50032 0.544298 0
M  V30 14816 C 1444.24 0.780546 1.85768 0
M  V30 14817 O 1443.3 0.331769 2.50311 0
M  V30 14818 C 1444.61 2.94705 0.597463 0
M  V30 14819 C 1446.16 3.05386 0.686179 0
M  V30 14820 C 1446.63 4.51473 0.770439 0
M  V30 14821 N 1448.12 4.55631 0.833921 0
M  V30 14822 C 1448.86 5.65982 0.919314 0
M  V30 14823 N 1448.36 6.8602 0.966904 0
M  V30 14824 N 1450.15 5.539 0.956634 0
M  V30 14825 H 1442.3 2.01619 -0.668096 0
M  V30 14826 H 1444.56 0.917589 -0.238191 0
M  V30 14827 H 1444.27 3.50431 -0.298509 0
M  V30 14828 H 1444.14 3.48151 1.45157 0
M  V30 14829 H 1446.53 2.49708 1.57258 0
M  V30 14830 H 1446.61 2.55062 -0.194165 0
M  V30 14831 H 1446.25 5.07777 -0.111619 0
M  V30 14832 H 1446.18 4.99531 1.66661 0
M  V30 14833 H 1448.68 3.69198 0.80632 0
M  V30 14834 H 1448.99 7.6587 1.03262 0
M  V30 14835 H 1447.33 6.88674 0.935552 0
M  V30 14836 H 1450.52 4.59044 0.916304 0
M  V30 14837 H 1450.7 6.39926 1.01972 0
M  V30 14838 N 1444.1 -0.461169 1.50702 0
M  V30 14839 C 1445.35 -1.21012 1.61866 0
M  V30 14840 C 1445.67 -1.9226 0.325736 0
M  V30 14841 O 1444.94 -1.84543 -0.657306 0
M  V30 14842 H 1443.52 -0.449671 0.596494 0
M  V30 14843 H 1446.18 -0.531056 1.87525 0
M  V30 14844 H 1445.28 -1.95266 2.4347 0
M  V30 14845 N 1445.58 -1.40446 -0.715026 0
M  V30 14846 C 1446.49 -1.43074 -1.85922 0
M  V30 14847 C 1447.51 -0.323294 -1.7097 0
M  V30 14848 O 1448.68 -0.567966 -1.93226 0
M  V30 14849 C 1445.75 -1.29206 -3.21725 0
M  V30 14850 C 1444.81 -2.50097 -3.48927 0
M  V30 14851 C 1444.04 -2.36881 -4.7825 0
M  V30 14852 O 1444.27 -1.38292 -5.53382 0
M  V30 14853 O 1443.2 -3.26266 -5.058 0
M  V30 14854 H 1447.03 -2.39565 -1.86661 0
M  V30 14855 H 1444.61 -1.21775 -0.865522 0
M  V30 14856 H 1446.49 -1.23681 -4.02841 0
M  V30 14857 H 1445.17 -0.358207 -3.21712 0
M  V30 14858 H 1444.07 -2.61199 -2.67817 0
M  V30 14859 H 1445.41 -3.42244 -3.53737 0
M  V30 14860 N 1447.06 0.947303 -1.25952 0
M  V30 14861 C 1448.02 2.02667 -1.07046 0
M  V30 14862 C 1449.02 1.60787 -0.0208127 0
M  V30 14863 O 1450.21 1.72193 -0.263668 0
M  V30 14864 C 1447.34 3.35087 -0.626885 0
M  V30 14865 H 1448.54 2.20871 -2.0287 0
M  V30 14866 H 1446.09 1.12541 -1.08462 0
M  V30 14867 H 1446.83 3.22579 0.333621 0
M  V30 14868 H 1446.61 3.66835 -1.38473 0
M  V30 14869 H 1448.1 4.14397 -0.516264 0
M  V30 14870 N 1448.54 1.07657 1.15099 0
M  V30 14871 C 1449.47 0.657598 2.19564 0
M  V30 14872 C 1450.48 -0.29146 1.6017 0
M  V30 14873 O 1451.67 -0.0802981 1.78319 0
M  V30 14874 C 1448.77 -0.0542221 3.38857 0
M  V30 14875 C 1447.95 0.911803 4.27791 0
M  V30 14876 C 1447 0.236709 5.25667 0
M  V30 14877 O 1446.03 0.878731 5.62376 0
M  V30 14878 N 1447.23 -1.01641 5.71532 0
M  V30 14879 H 1450 1.55626 2.56126 0
M  V30 14880 H 1447.56 0.961657 1.30245 0
M  V30 14881 H 1449.55 -0.516603 4.01389 0
M  V30 14882 H 1448.12 -0.854871 3.00684 0
M  V30 14883 H 1447.34 1.55322 3.6231 0
M  V30 14884 H 1448.63 1.56667 4.8408 0
M  V30 14885 H 1448.03 -1.55791 5.43825 0
M  V30 14886 H 1446.58 -1.42242 6.3609 0
M  V30 14887 N 1450.02 -1.31994 0.861122 0
M  V30 14888 C 1451.26 -1.97317 0.468371 0
M  V30 14889 C 1451.6 -1.67954 -0.974941 0
M  V30 14890 O 1450.87 -0.971243 -1.68514 0
M  V30 14891 C 1451.15 -3.52918 0.715607 0
M  V30 14892 C 1451.01 -3.91888 2.20781 0
M  V30 14893 C 1452.33 -4.39747 0.17624 0
M  V30 14894 H 1449.44 -0.716733 0.171646 0
M  V30 14895 H 1452.09 -1.56269 1.08074 0
M  V30 14896 H 1450.24 -3.88013 0.194387 0
M  V30 14897 H 1451.91 -3.66938 2.7956 0
M  V30 14898 H 1450.15 -3.40813 2.68382 0
M  V30 14899 H 1450.82 -5.00346 2.33147 0
M  V30 14900 H 1453.3 -4.11424 0.622043 0
M  V30 14901 H 1452.17 -5.47592 0.378748 0
M  V30 14902 H 1452.44 -4.32393 -0.921358 0
M  V30 14903 N 1451.49 -0.619688 -1.44906 0
M  V30 14904 C 1452.74 -0.128286 -2.02995 0
M  V30 14905 C 1453.1 1.23194 -1.47787 0
M  V30 14906 O 1452.39 1.80316 -0.64782 0
M  V30 14907 C 1452.58 -0.0432891 -3.57374 0
M  V30 14908 C 1452.41 -1.39373 -4.27557 0
M  V30 14909 C 1451.18 -1.97756 -4.64995 0
M  V30 14910 C 1453.38 -2.32512 -4.5874 0
M  V30 14911 N 1451.36 -3.26154 -5.20093 0
M  V30 14912 C 1452.73 -3.45517 -5.14799 0
M  V30 14913 C 1454.79 -2.31734 -4.40685 0
M  V30 14914 C 1453.49 -4.57924 -5.54706 0
M  V30 14915 C 1455.52 -3.43197 -4.81632 0
M  V30 14916 C 1454.88 -4.54924 -5.37795 0
M  V30 14917 H 1450.98 -0.0905961 -0.776734 0
M  V30 14918 H 1453.56 -0.820685 -1.76558 0
M  V30 14919 H 1451.73 0.61836 -3.83446 0
M  V30 14920 H 1453.46 0.455886 -4.02124 0
M  V30 14921 H 1450.22 -1.50826 -4.48941 0
M  V30 14922 H 1450.64 -3.91768 -5.52129 0
M  V30 14923 H 1455.29 -1.46609 -3.96567 0
M  V30 14924 H 1453 -5.43765 -5.97784 0
M  V30 14925 H 1456.59 -3.43757 -4.69385 0
M  V30 14926 H 1455.47 -5.39748 -5.68896 0
M  V30 14927 N 1452.97 1.53444 -0.359552 0
M  V30 14928 C 1454.2 2.05584 0.232953 0
M  V30 14929 C 1454.62 1.23347 1.42937 0
M  V30 14930 O 1453.97 0.272662 1.80452 0
M  V30 14931 C 1454.02 3.55926 0.632359 0
M  V30 14932 O 1453.74 4.35045 -0.516494 0
M  V30 14933 C 1455.25 4.24301 1.28389 0
M  V30 14934 H 1452.47 0.669676 0.042132 0
M  V30 14935 H 1455.01 1.97878 -0.516176 0
M  V30 14936 H 1453.16 3.63802 1.33141 0
M  V30 14937 H 1453.58 5.24138 -0.194906 0
M  V30 14938 H 1455.05 5.30832 1.51397 0
M  V30 14939 H 1455.53 3.77644 2.24236 0
M  V30 14940 H 1456.14 4.20661 0.626438 0
M  V30 14941 N 1454.45 0.0885642 1.57351 0
M  V30 14942 C 1455.38 -0.902617 2.10679 0
M  V30 14943 C 1456.4 -1.25037 1.04257 0
M  V30 14944 O 1457.58 -1.20462 1.31723 0
M  V30 14945 C 1454.68 -2.21362 2.56616 0
M  V30 14946 C 1453.86 -2.04219 3.86799 0
M  V30 14947 C 1452.92 -3.18774 4.18652 0
M  V30 14948 O 1451.94 -2.93024 4.87981 0
M  V30 14949 N 1453.14 -4.44357 3.73534 0
M  V30 14950 H 1455.91 -0.447199 2.96345 0
M  V30 14951 H 1453.47 -0.0967178 1.61611 0
M  V30 14952 H 1455.46 -2.96935 2.74976 0
M  V30 14953 H 1454.03 -2.58349 1.75996 0
M  V30 14954 H 1453.25 -1.13015 3.77652 0
M  V30 14955 H 1454.54 -1.90035 4.71979 0
M  V30 14956 H 1453.94 -4.68159 3.17558 0
M  V30 14957 H 1452.5 -5.169 3.97061 0
M  V30 14958 N 1455.93 -1.56509 -0.185096 0
M  V30 14959 C 1456.86 -1.98363 -1.23184 0
M  V30 14960 C 1457.84 -0.85709 -1.46929 0
M  V30 14961 O 1459.02 -1.12216 -1.58497 0
M  V30 14962 C 1456.15 -2.33172 -2.57387 0
M  V30 14963 C 1455.11 -3.48658 -2.48236 0
M  V30 14964 C 1454.43 -3.69171 -3.86804 0
M  V30 14965 C 1455.73 -4.82538 -1.99885 0
M  V30 14966 H 1457.43 -2.86053 -0.883982 0
M  V30 14967 H 1454.97 -1.37623 -0.423786 0
M  V30 14968 H 1456.93 -2.61048 -3.30805 0
M  V30 14969 H 1455.65 -1.42377 -2.93933 0
M  V30 14970 H 1454.31 -3.20889 -1.77273 0
M  V30 14971 H 1453.96 -2.75689 -4.20719 0
M  V30 14972 H 1453.66 -4.46868 -3.81553 0
M  V30 14973 H 1455.18 -3.99433 -4.61829 0
M  V30 14974 H 1456.6 -5.0938 -2.63068 0
M  V30 14975 H 1454.99 -5.63775 -2.05614 0
M  V30 14976 H 1456.06 -4.75453 -0.952503 0
M  V30 14977 N 1457.41 0.45317 -1.50944 0
M  V30 14978 C 1458.34 1.55655 -1.74051 0
M  V30 14979 C 1459.32 1.59545 -0.58987 0
M  V30 14980 O 1460.5 1.75526 -0.830922 0
M  V30 14981 C 1457.63 2.93857 -1.85109 0
M  V30 14982 C 1456.59 3.04832 -3.00435 0
M  V30 14983 C 1455.91 4.44858 -2.96657 0
M  V30 14984 C 1457.21 2.80381 -4.40663 0
M  V30 14985 H 1458.91 1.36571 -2.66437 0
M  V30 14986 H 1456.45 0.655572 -1.28212 0
M  V30 14987 H 1458.41 3.70992 -1.99857 0
M  V30 14988 H 1457.13 3.14138 -0.893579 0
M  V30 14989 H 1455.79 2.30134 -2.85366 0
M  V30 14990 H 1455.44 4.62083 -1.98716 0
M  V30 14991 H 1455.14 4.53134 -3.7409 0
M  V30 14992 H 1456.66 5.23989 -3.13478 0
M  V30 14993 H 1458.07 3.47255 -4.56165 0
M  V30 14994 H 1456.47 3.00083 -5.19683 0
M  V30 14995 H 1457.54 1.76099 -4.51793 0
M  V30 14996 N 1458.88 1.40823 0.707568 0
M  V30 14997 C 1460.3 1.23029 1.01666 0
M  V30 14998 C 1460.5 0.111152 2.01193 0
M  V30 14999 O 1459.56 -0.52836 2.4691 0
M  V30 15000 C 1460.87 2.57509 1.55272 0
M  V30 15001 C 1462.42 2.6459 1.67216 0
M  V30 15002 C 1462.89 3.99357 2.24227 0
M  V30 15003 N 1464.38 4.01141 2.31603 0
M  V30 15004 C 1465.12 5.02211 2.76715 0
M  V30 15005 N 1464.61 6.13674 3.21521 0
M  V30 15006 N 1466.41 4.89577 2.76172 0
M  V30 15007 H 1458.56 2.12346 0.0480107 0
M  V30 15008 H 1460.82 0.944281 0.0838885 0
M  V30 15009 H 1460.53 3.40095 0.896012 0
M  V30 15010 H 1460.4 2.79158 2.53674 0
M  V30 15011 H 1462.79 1.8237 2.32002 0
M  V30 15012 H 1462.87 2.46763 0.673927 0
M  V30 15013 H 1462.51 4.8202 1.6006 0
M  V30 15014 H 1462.44 4.14518 3.2478 0
M  V30 15015 H 1464.93 3.20657 1.99968 0
M  V30 15016 H 1465.25 6.86677 3.54534 0
M  V30 15017 H 1463.59 6.17228 3.1946 0
M  V30 15018 H 1466.78 4.01588 2.40509 0
M  V30 15019 H 1466.96 5.68485 3.11012 0
M  V30 15020 N 1460.36 -0.94061 1.26453 0
M  V30 15021 C 1461.33 -2.02096 1.0812 0
M  V30 15022 C 1462.33 -1.60773 0.0293393 0
M  V30 15023 O 1463.52 -1.72051 0.272796 0
M  V30 15024 C 1460.65 -3.34749 0.644646 0
M  V30 15025 H 1461.84 -2.19792 2.04038 0
M  V30 15026 H 1459.39 -1.11965 1.09058 0
M  V30 15027 H 1460.13 -3.22752 -0.316509 0
M  V30 15028 H 1459.91 -3.66095 1.40416 0
M  V30 15029 H 1461.4 -4.14117 0.538233 0
M  V30 15030 N 1461.84 -1.08266 -1.14527 0
M  V30 15031 C 1462.77 -0.732968 -2.21698 0
M  V30 15032 C 1463.75 0.283917 -1.67714 0
M  V30 15033 O 1464.94 0.154607 -1.93584 0
M  V30 15034 C 1462.07 -0.139935 -3.47018 0
M  V30 15035 C 1461.02 -1.08501 -4.14019 0
M  V30 15036 C 1460.35 -0.354263 -5.33525 0
M  V30 15037 C 1461.65 -2.42254 -4.62721 0
M  V30 15038 H 1463.34 -1.629 -2.51205 0
M  V30 15039 H 1460.89 -0.784696 -1.20742 0
M  V30 15040 H 1462.84 0.1167 -4.21238 0
M  V30 15041 H 1461.56 0.791228 -3.16871 0
M  V30 15042 H 1460.22 -1.32672 -3.41751 0
M  V30 15043 H 1459.87 0.580658 -4.99637 0
M  V30 15044 H 1459.57 -0.984287 -5.79297 0
M  V30 15045 H 1461.09 -0.105648 -6.10509 0
M  V30 15046 H 1462.51 -2.22357 -5.28422 0
M  V30 15047 H 1460.91 -3.00935 -5.1919 0
M  V30 15048 H 1461.98 -3.03884 -3.77866 0
M  V30 15049 N 1463.32 1.31536 -0.86811 0
M  V30 15050 C 1464.23 2.32326 -0.32588 0
M  V30 15051 C 1465.25 1.64632 0.563243 0
M  V30 15052 O 1466.42 1.96067 0.460403 0
M  V30 15053 C 1463.49 3.43562 0.46539 0
M  V30 15054 C 1462.55 4.26919 -0.451472 0
M  V30 15055 C 1461.78 5.32844 0.302129 0
M  V30 15056 O 1462 5.49485 1.53045 0
M  V30 15057 O 1460.94 6.00944 -0.339048 0
M  V30 15058 H 1464.76 2.80622 -1.16126 0
M  V30 15059 H 1462.35 1.35401 -0.631428 0
M  V30 15060 H 1464.23 4.11368 0.914028 0
M  V30 15061 H 1462.91 2.97432 1.27734 0
M  V30 15062 H 1461.81 3.61874 -0.948571 0
M  V30 15063 H 1463.15 4.7661 -1.22897 0
M  V30 15064 N 1464.8 0.627364 1.44575 0
M  V30 15065 C 1465.71 -0.0811184 2.3446 0
M  V30 15066 C 1466.72 -0.839668 1.52399 0
M  V30 15067 O 1467.9 -0.792784 1.8514 0
M  V30 15068 C 1464.96 -1.05296 3.30323 0
M  V30 15069 C 1464.03 -0.294201 4.28291 0
M  V30 15070 C 1463.26 -1.21975 5.19575 0
M  V30 15071 O 1463.48 -2.45834 5.14706 0
M  V30 15072 O 1462.42 -0.70611 5.97744 0
M  V30 15073 H 1466.24 0.658067 2.96485 0
M  V30 15074 H 1463.83 0.387565 1.44285 0
M  V30 15075 H 1465.71 -1.61218 3.89341 0
M  V30 15076 H 1464.38 -1.77283 2.70837 0
M  V30 15077 H 1463.29 0.307969 3.7283 0
M  V30 15078 H 1464.62 0.385567 4.90687 0
M  V30 15079 N 1466.28 -1.53251 0.367684 0
M  V30 15080 C 1467.69 -1.59591 0.0167132 0
M  V30 15081 C 1467.89 -1.38272 -1.46571 0
M  V30 15082 O 1466.95 -1.18893 -2.22757 0
M  V30 15083 C 1468.26 -2.96932 0.474534 0
M  V30 15084 C 1469.81 -3.10047 0.428934 0
M  V30 15085 C 1470.28 -4.49804 0.862599 0
M  V30 15086 N 1471.77 -4.55925 0.817742 0
M  V30 15087 C 1472.51 -5.62256 1.12496 0
M  V30 15088 N 1472.01 -6.76332 1.50156 0
M  V30 15089 N 1473.8 -5.52251 1.04762 0
M  V30 15090 H 1465.95 -1.6536 1.33303 0
M  V30 15091 H 1468.21 -0.775681 0.544998 0
M  V30 15092 H 1467.92 -3.17679 1.50907 0
M  V30 15093 H 1467.79 -3.76948 -0.137752 0
M  V30 15094 H 1470.18 -2.89009 -0.596473 0
M  V30 15095 H 1470.26 -2.32034 1.07674 0
M  V30 15096 H 1469.9 -4.7158 1.88613 0
M  V30 15097 H 1469.83 -5.2625 0.19202 0
M  V30 15098 H 1472.33 -3.74017 0.540323 0
M  V30 15099 H 1472.64 -7.53412 1.72019 0
M  V30 15100 H 1470.98 -6.77718 1.54024 0
M  V30 15101 H 1474.17 -4.62011 0.752571 0
M  V30 15102 H 1474.35 -6.35022 1.29038 0
M  V30 15103 N 1467.75 -0.0969077 -1.57302 0
M  V30 15104 C 1468.72 0.846895 -2.1298 0
M  V30 15105 C 1469.72 1.20962 -1.05947 0
M  V30 15106 O 1470.91 1.13876 -1.31826 0
M  V30 15107 C 1468.04 2.14215 -2.65188 0
M  V30 15108 H 1469.23 0.363398 -2.9769 0
M  V30 15109 H 1466.78 0.152107 -1.55558 0
M  V30 15110 H 1467.52 2.67046 -1.84002 0
M  V30 15111 H 1467.3 1.89176 -3.43445 0
M  V30 15112 H 1468.79 2.81728 -3.08252 0
M  V30 15113 N 1469.23 1.56605 0.176793 0
M  V30 15114 C 1470.48 1.80875 0.892578 0
M  V30 15115 C 1470.79 0.673245 1.83648 0
M  V30 15116 O 1472 0.800732 2.59423 0
M  V30 15117 C 1470.46 3.20481 1.63768 0
M  V30 15118 C 1470.06 4.41885 0.737685 0
M  V30 15119 C 1471.81 3.54048 2.34202 0
M  V30 15120 C 1469.71 5.72512 1.48271 0
M  V30 15121 H 1468.64 0.674476 0.337042 0
M  V30 15122 H 1471.3 1.82922 0.145574 0
M  V30 15123 H 1469.68 3.12736 2.42924 0
M  V30 15124 H 1470.85 4.60797 -0.0165186 0
M  V30 15125 H 1469.17 4.16153 0.143277 0
M  V30 15126 H 1471.76 4.48886 2.90526 0
M  V30 15127 H 1472.11 2.78665 3.09276 0
M  V30 15128 H 1472.64 3.63322 1.61995 0
M  V30 15129 H 1469.38 6.5091 0.774399 0
M  V30 15130 H 1468.9 5.57586 2.21038 0
M  V30 15131 H 1470.58 6.14274 2.03165 0
M  V30 15132 N 1470.71 -0.445159 1.51182 0
M  V30 15133 C 1472.12 -1.02528 1.56028 0
M  V30 15134 C 1472.47 -1.92503 0.379087 0
M  V30 15135 O 1471.6 -2.10424 -0.505056 0
M  V30 15136 C 1472.19 -1.86621 2.82768 0
M  V30 15137 C 1470.75 -2.39697 2.90211 0
M  V30 15138 C 1469.9 -1.18705 2.50608 0
M  V30 15139 H 1472.85 -0.226732 1.57072 0
M  V30 15140 H 1472.87 -2.71987 2.66089 0
M  V30 15141 H 1472.38 -1.2111 3.68719 0
M  V30 15142 H 1470.48 -3.08686 2.08672 0
M  V30 15143 H 1470.6 -2.73029 3.9369 0
M  V30 15144 H 1468.96 -1.52995 2.03629 0
M  V30 15145 H 1469.74 -0.548156 3.38895 0
M  V30 15146 N 1472.19 -1.41197 -0.700089 0
M  V30 15147 C 1473.44 -1.39611 -1.45574 0
M  V30 15148 C 1473.75 -0.00683378 -1.95599 0
M  V30 15149 O 1474.96 0.131643 -2.71181 0
M  V30 15150 C 1473.41 -2.45452 -2.63214 0
M  V30 15151 C 1473.02 -3.90265 -2.19993 0
M  V30 15152 C 1474.76 -2.52996 -3.40871 0
M  V30 15153 C 1472.67 -4.87668 -3.34565 0
M  V30 15154 H 1471.6 -0.51917 -0.546789 0
M  V30 15155 H 1474.25 -1.67001 -0.760456 0
M  V30 15156 H 1472.63 -2.11186 -3.34987 0
M  V30 15157 H 1473.81 -4.33756 -1.55539 0
M  V30 15158 H 1472.12 -3.86339 -1.55341 0
M  V30 15159 H 1474.72 -3.22952 -4.26153 0
M  V30 15160 H 1475.06 -1.56536 -3.85749 0
M  V30 15161 H 1475.6 -2.86331 -2.76151 0
M  V30 15162 H 1472.33 -5.85517 -2.94704 0
M  V30 15163 H 1471.85 -4.4883 -3.97884 0
M  V30 15164 H 1473.53 -5.08215 -4.00409 0
M  V30 15165 N 1473.67 0.933891 -1.2695 0
M  V30 15166 C 1474.91 1.68383 -1.141 0
M  V30 15167 C 1475.27 1.89867 0.311181 0
M  V30 15168 O 1474.56 1.47349 1.2247 0
M  V30 15169 C 1474.75 3.05706 -1.85145 0
M  V30 15170 C 1474.58 2.97621 -3.37123 0
M  V30 15171 C 1473.35 3.00239 -4.06429 0
M  V30 15172 C 1475.55 2.77206 -4.33199 0
M  V30 15173 N 1473.53 2.82531 -5.45023 0
M  V30 15174 C 1474.9 2.6814 -5.59018 0
M  V30 15175 C 1476.96 2.62046 -4.23363 0
M  V30 15176 C 1475.66 2.45461 -6.76122 0
M  V30 15177 C 1477.69 2.40742 -5.40182 0
M  V30 15178 C 1477.05 2.32414 -6.64953 0
M  V30 15179 H 1473.15 0.623223 -0.472353 0
M  V30 15180 H 1475.73 1.10457 -1.60335 0
M  V30 15181 H 1473.9 3.61757 -1.41374 0
M  V30 15182 H 1475.64 3.69601 -1.64854 0
M  V30 15183 H 1472.39 3.10231 -3.57846 0
M  V30 15184 H 1472.81 2.76824 -6.17817 0
M  V30 15185 H 1477.46 2.67247 -3.27626 0
M  V30 15186 H 1475.17 2.39 -7.71949 0
M  V30 15187 H 1478.76 2.29906 -5.34448 0
M  V30 15188 H 1477.64 2.1615 -7.53823 0
M  V30 15189 N 1475.14 1.08871 1.13951 0
M  V30 15190 C 1476.39 0.832367 1.85589 0
M  V30 15191 C 1476.74 -0.635083 1.81616 0
M  V30 15192 O 1476.04 -1.46123 1.2393 0
M  V30 15193 C 1476.23 1.29443 3.33135 0
M  V30 15194 C 1476.06 2.80527 3.51475 0
M  V30 15195 C 1474.83 3.48334 3.66048 0
M  V30 15196 C 1477.03 3.78686 3.47996 0
M  V30 15197 N 1475.01 4.87901 3.72593 0
M  V30 15198 C 1476.38 5.04176 3.60842 0
M  V30 15199 C 1478.44 3.71623 3.31362 0
M  V30 15200 C 1477.14 6.23438 3.58772 0
M  V30 15201 C 1479.17 4.90366 3.30598 0
M  V30 15202 C 1478.53 6.14696 3.43989 0
M  V30 15203 H 1474.63 0.357365 0.695568 0
M  V30 15204 H 1477.21 1.38799 1.36539 0
M  V30 15205 H 1475.38 0.766326 3.80765 0
M  V30 15206 H 1477.11 0.984006 3.92555 0
M  V30 15207 H 1473.87 2.98755 3.67481 0
M  V30 15208 H 1474.29 5.60584 3.79571 0
M  V30 15209 H 1478.93 2.7643 3.19916 0
M  V30 15210 H 1476.65 7.18937 3.68993 0
M  V30 15211 H 1480.24 4.86593 3.18933 0
M  V30 15212 H 1479.12 7.05039 3.43351 0
M  V30 15213 N 1476.62 -1.31073 0.875073 0
M  V30 15214 C 1477.87 -1.96809 0.489273 0
M  V30 15215 C 1478.2 -1.68979 -0.957073 0
M  V30 15216 O 1477.48 -0.989061 -1.67475 0
M  V30 15217 C 1477.76 -3.52139 0.752998 0
M  V30 15218 C 1477.61 -3.89524 2.24925 0
M  V30 15219 C 1478.93 -4.39535 0.222871 0
M  V30 15220 H 1476.05 -0.714873 0.179238 0
M  V30 15221 H 1478.69 -1.55114 1.09725 0
M  V30 15222 H 1476.84 -3.87785 0.23553 0
M  V30 15223 H 1478.51 -3.63953 2.83436 0
M  V30 15224 H 1476.76 -3.37948 2.71981 0
M  V30 15225 H 1477.43 -4.97845 2.38441 0
M  V30 15226 H 1479.9 -4.10741 0.665645 0
M  V30 15227 H 1478.78 -5.47159 0.436806 0
M  V30 15228 H 1479.04 -4.33346 -0.875445 0
M  V30 15229 N 1478.1 -0.635022 -1.4424 0
M  V30 15230 C 1479.03 0.0543561 -2.33437 0
M  V30 15231 C 1480.01 0.830807 -1.48431 0
M  V30 15232 O 1481.2 0.795913 -1.77141 0
M  V30 15233 C 1478.33 1.03391 -3.31553 0
M  V30 15234 C 1477.28 0.368824 -4.26408 0
M  V30 15235 C 1476.61 1.45855 -5.14422 0
M  V30 15236 C 1477.91 -0.727381 -5.1721 0
M  V30 15237 H 1479.6 -0.690489 -2.91329 0
M  V30 15238 H 1477.15 -0.3335 -1.40085 0
M  V30 15239 H 1479.1 1.52495 -3.9284 0
M  V30 15240 H 1477.82 1.80969 -2.71878 0
M  V30 15241 H 1476.48 -0.101605 -3.66459 0
M  V30 15242 H 1476.13 2.22531 -4.51098 0
M  V30 15243 H 1475.83 1.0189 -5.78699 0
M  V30 15244 H 1477.35 1.95132 -5.78581 0
M  V30 15245 H 1478.77 -0.319272 -5.7241 0
M  V30 15246 H 1477.17 -1.09041 -5.9011 0
M  V30 15247 H 1478.24 -1.59292 -4.57989 0
M  V30 15248 N 1479.58 1.53054 -0.375806 0
M  V30 15249 C 1480.82 2.017 0.210985 0
M  V30 15250 C 1481.16 1.26228 1.47581 0
M  V30 15251 O 1480.43 0.358869 1.91161 0
M  V30 15252 C 1480.72 3.56715 0.492596 0
M  V30 15253 C 1480.57 4.42869 -0.786573 0
M  V30 15254 C 1481.89 4.20803 1.28891 0
M  V30 15255 H 1479.01 0.733153 0.0752084 0
M  V30 15256 H 1481.65 1.83229 -0.502715 0
M  V30 15257 H 1479.8 3.72585 1.10059 0
M  V30 15258 H 1481.47 4.38777 -1.42381 0
M  V30 15259 H 1479.71 4.10425 -1.40478 0
M  V30 15260 H 1480.38 5.49309 -0.544354 0
M  V30 15261 H 1482.86 4.08828 0.774498 0
M  V30 15262 H 1481.74 5.29273 1.45469 0
M  V30 15263 H 1482 3.77541 2.30033 0
M  V30 15264 N 1481.06 0.105248 1.57248 0
M  V30 15265 C 1482.3 -0.554956 1.94331 0
M  V30 15266 C 1482.63 -1.68087 0.988528 0
M  V30 15267 O 1481.9 -1.95854 0.042366 0
M  V30 15268 H 1480.48 -0.207994 0.717459 0
M  V30 15269 H 1483.14 0.170964 1.94149 0
M  V30 15270 H 1482.23 -0.95853 2.97016 0
M  V30 15271 N 1482.53 -1.56697 -0.168486 0
M  V30 15272 C 1483.78 -1.82424 -0.885965 0
M  V30 15273 C 1484.11 -0.683543 -1.81773 0
M  V30 15274 O 1483.39 0.314319 -1.91943 0
M  V30 15275 C 1483.67 -3.18553 -1.67917 0
M  V30 15276 C 1483.52 -4.43154 -0.770343 0
M  V30 15277 C 1484.84 -3.51654 -2.64627 0
M  V30 15278 H 1481.96 -0.663594 -0.320644 0
M  V30 15279 H 1484.6 -1.89391 -0.15205 0
M  V30 15280 H 1482.75 -3.12745 -2.30484 0
M  V30 15281 H 1484.43 -4.61032 -0.157328 0
M  V30 15282 H 1482.67 -4.33729 -0.0785653 0
M  V30 15283 H 1483.34 -5.34961 -1.36092 0
M  V30 15284 H 1485.82 -3.57934 -2.12185 0
M  V30 15285 H 1484.69 -4.47975 -3.17191 0
M  V30 15286 H 1484.95 -2.76503 -3.44961 0
M  V30 15287 N 1484.01 0.437135 -1.51416 0
M  V30 15288 C 1484.94 1.538 -1.75692 0
M  V30 15289 C 1485.92 1.5891 -0.606759 0
M  V30 15290 O 1487.11 1.74635 -0.849492 0
M  V30 15291 C 1484.24 2.91877 -1.88215 0
M  V30 15292 C 1483.19 3.01628 -3.03652 0
M  V30 15293 C 1482.52 4.41687 -3.01358 0
M  V30 15294 C 1483.82 2.75691 -4.43612 0
M  V30 15295 H 1485.51 1.33737 -2.67871 0
M  V30 15296 H 1483.06 0.641936 -1.289 0
M  V30 15297 H 1485.01 3.68851 -2.03781 0
M  V30 15298 H 1483.74 3.13173 -0.926847 0
M  V30 15299 H 1482.39 2.27094 -2.87791 0
M  V30 15300 H 1482.04 4.5995 -2.03605 0
M  V30 15301 H 1481.74 4.49141 -3.78875 0
M  V30 15302 H 1483.27 5.20634 -3.19018 0
M  V30 15303 H 1484.68 3.42398 -4.59822 0
M  V30 15304 H 1483.08 2.94554 -5.22836 0
M  V30 15305 H 1484.15 1.71297 -4.53636 0
M  V30 15306 N 1485.49 1.41566 0.692592 0
M  V30 15307 C 1486.74 1.40805 1.44978 0
M  V30 15308 C 1487.06 0.0191039 1.94991 0
M  V30 15309 O 1486.33 -0.939544 1.71899 0
M  V30 15310 H 1484.91 0.518293 0.537942 0
M  V30 15311 H 1487.57 1.76831 0.81956 0
M  V30 15312 H 1486.67 2.09706 2.31149 0
M  V30 15313 N 1486.97 -0.927146 1.27443 0
M  V30 15314 C 1488.22 -1.67159 1.13589 0
M  V30 15315 C 1488.54 -1.92379 -0.31865 0
M  V30 15316 O 1487.81 -1.53045 -1.22287 0
M  V30 15317 H 1486.39 -0.619524 0.417371 0
M  V30 15318 H 1489.05 -1.11323 1.59979 0
M  V30 15319 H 1488.15 -2.63954 1.66537 0
M  V30 15320 N 1488.45 -1.09474 -1.13372 0
M  V30 15321 C 1489.38 -0.756441 -2.20908 0
M  V30 15322 C 1490.36 0.266113 -1.68006 0
M  V30 15323 O 1491.54 0.134067 -1.93737 0
M  V30 15324 C 1488.67 -0.176733 -3.4685 0
M  V30 15325 C 1487.63 -1.12886 -4.12845 0
M  V30 15326 C 1486.95 -0.410831 -5.33119 0
M  V30 15327 C 1488.25 -2.47148 -4.60125 0
M  V30 15328 H 1489.95 -1.65555 -2.49463 0
M  V30 15329 H 1487.49 -0.797458 -1.19902 0
M  V30 15330 H 1489.45 0.0720151 -4.21338 0
M  V30 15331 H 1488.17 0.757576 -3.17692 0
M  V30 15332 H 1486.83 -1.36289 -3.40325 0
M  V30 15333 H 1486.48 0.527632 -5.00225 0
M  V30 15334 H 1486.18 -1.04567 -5.78221 0
M  V30 15335 H 1487.7 -0.170394 -6.10362 0
M  V30 15336 H 1489.11 -2.27949 -5.26034 0
M  V30 15337 H 1487.51 -3.06425 -5.15969 0
M  V30 15338 H 1488.58 -3.07874 -3.74622 0
M  V30 15339 N 1489.92 1.30607 -0.882012 0
M  V30 15340 C 1490.85 2.30666 -0.362706 0
M  V30 15341 C 1491.84 1.60865 0.552861 0
M  V30 15342 O 1493.02 1.88493 0.467339 0
M  V30 15343 C 1490.15 3.44675 0.42622 0
M  V30 15344 C 1489.1 4.26152 -0.397322 0
M  V30 15345 C 1488.43 5.32185 0.518027 0
M  V30 15346 C 1489.73 4.95955 -1.63785 0
M  V30 15347 H 1491.42 2.74351 -1.19883 0
M  V30 15348 H 1488.97 1.31895 -0.577912 0
M  V30 15349 H 1490.92 4.13734 0.80013 0
M  V30 15350 H 1489.65 2.99787 1.29597 0
M  V30 15351 H 1488.31 3.58776 -0.753332 0
M  V30 15352 H 1487.95 4.83545 1.3854 0
M  V30 15353 H 1487.65 5.87593 -0.0291802 0
M  V30 15354 H 1489.18 6.04101 0.888518 0
M  V30 15355 H 1490.59 5.57547 -1.3347 0
M  V30 15356 H 1488.99 5.61215 -2.12504 0
M  V30 15357 H 1490.06 4.22252 -2.38394 0
M  V30 15358 N 1491.4 0.642663 1.43901 0
M  V30 15359 C 1492.33 -0.0419756 2.33462 0
M  V30 15360 C 1493.31 -0.822923 1.48869 0
M  V30 15361 O 1494.5 -0.786508 1.7756 0
M  V30 15362 C 1491.63 -1.01631 3.32097 0
M  V30 15363 C 1490.58 -0.346206 4.26597 0
M  V30 15364 C 1489.91 -1.43125 5.15189 0
M  V30 15365 C 1491.21 0.754799 5.16817 0
M  V30 15366 H 1492.9 0.705929 2.90959 0
M  V30 15367 H 1490.45 0.340924 1.39906 0
M  V30 15368 H 1492.4 -1.5041 3.93643 0
M  V30 15369 H 1491.13 -1.79525 2.72834 0
M  V30 15370 H 1489.78 0.121038 3.664 0
M  V30 15371 H 1489.43 -2.20135 4.52271 0
M  V30 15372 H 1489.13 -0.988194 5.79231 0
M  V30 15373 H 1490.66 -1.92061 5.79607 0
M  V30 15374 H 1492.07 0.349624 5.72233 0
M  V30 15375 H 1490.47 1.12169 5.89524 0
M  V30 15376 H 1491.54 1.61718 4.57138 0
M  V30 15377 N 1492.88 -1.52852 0.383918 0
M  V30 15378 C 1493.81 -2.29213 -0.44539 0
M  V30 15379 C 1494.79 -1.3238 -1.06815 0
M  V30 15380 O 1495.98 -1.61269 -1.08194 0
M  V30 15381 C 1493.11 -3.09497 -1.57573 0
M  V30 15382 C 1492.06 -4.14168 -1.07928 0
M  V30 15383 C 1491.39 -4.82644 -2.30128 0
M  V30 15384 C 1492.69 -5.22082 -0.151035 0
M  V30 15385 H 1494.38 -2.98786 0.19172 0
M  V30 15386 H 1491.93 -1.43695 0.0936471 0
M  V30 15387 H 1493.88 -3.61672 -2.16267 0
M  V30 15388 H 1492.6 -2.37647 -2.24034 0
M  V30 15389 H 1491.26 -3.62966 -0.514909 0
M  V30 15390 H 1490.91 -4.07348 -2.95087 0
M  V30 15391 H 1490.61 -5.53388 -1.97574 0
M  V30 15392 H 1492.14 -5.37621 -2.89475 0
M  V30 15393 H 1493.55 -5.69649 -0.646003 0
M  V30 15394 H 1491.95 -6.00041 0.0844833 0
M  V30 15395 H 1493.02 -4.78228 0.801618 0
M  V30 15396 N 1494.36 -0.113586 -1.5719 0
M  V30 15397 C 1495.59 0.553592 -1.99356 0
M  V30 15398 C 1496 1.60567 -0.993154 0
M  V30 15399 O 1495.36 1.82494 0.0147252 0
M  V30 15400 C 1495.41 1.18462 -3.41539 0
M  V30 15401 O 1495.13 0.174602 -4.37752 0
M  V30 15402 C 1496.63 1.93564 -3.98808 0
M  V30 15403 H 1493.85 0.146998 -0.6547 0
M  V30 15404 H 1496.4 -0.198329 -2.03536 0
M  V30 15405 H 1494.55 1.88736 -3.38316 0
M  V30 15406 H 1494.97 0.632395 -5.20674 0
M  V30 15407 H 1496.44 2.33051 -5.00391 0
M  V30 15408 H 1496.92 2.80874 -3.37648 0
M  V30 15409 H 1497.52 1.28066 -4.0556 0
M  V30 15410 N 1495.84 1.56784 0.160173 0
M  V30 15411 C 1497.09 1.81812 0.873344 0
M  V30 15412 C 1497.4 0.692686 1.82924 0
M  V30 15413 O 1498.61 0.828202 2.5856 0
M  V30 15414 C 1497.06 3.222 1.6036 0
M  V30 15415 C 1496.67 4.42642 0.690776 0
M  V30 15416 C 1498.41 3.56512 2.30433 0
M  V30 15417 C 1496.32 5.74052 1.4219 0
M  V30 15418 H 1495.25 0.678013 0.32987 0
M  V30 15419 H 1497.9 1.83066 0.126164 0
M  V30 15420 H 1496.28 3.15295 2.39593 0
M  V30 15421 H 1497.46 4.60754 -0.0653914 0
M  V30 15422 H 1495.77 4.16282 0.09913 0
M  V30 15423 H 1498.37 4.51942 2.85749 0
M  V30 15424 H 1498.71 2.8193 3.06303 0
M  V30 15425 H 1499.25 3.65019 1.58132 0
M  V30 15426 H 1495.98 6.51694 0.705318 0
M  V30 15427 H 1495.5 5.59899 2.15111 0
M  V30 15428 H 1497.18 6.16395 1.96639 0
M  V30 15429 N 1497.32 -0.429099 1.51646 0
M  V30 15430 C 1498.25 -1.52867 1.76505 0
M  V30 15431 C 1499.23 -1.58586 0.615178 0
M  V30 15432 O 1500.41 -1.74182 0.858742 0
M  V30 15433 C 1497.54 -2.90875 1.8976 0
M  V30 15434 C 1496.5 -3.00014 3.05247 0
M  V30 15435 C 1495.82 -4.40082 3.03696 0
M  V30 15436 C 1497.12 -2.73334 4.45068 0
M  V30 15437 H 1498.82 -1.32315 2.68576 0
M  V30 15438 H 1496.36 -0.635091 1.29238 0
M  V30 15439 H 1498.31 -3.67765 2.05734 0
M  V30 15440 H 1497.04 -3.12677 0.943442 0
M  V30 15441 H 1495.7 -2.25565 2.88991 0
M  V30 15442 H 1495.35 -4.58864 2.06042 0
M  V30 15443 H 1495.05 -4.47125 3.81252 0
M  V30 15444 H 1496.57 -5.18935 3.21774 0
M  V30 15445 H 1497.98 -3.39954 4.61632 0
M  V30 15446 H 1496.38 -2.91777 5.24391 0
M  V30 15447 H 1497.45 -1.68889 4.54538 0
M  V30 15448 N 1498.79 -1.41931 -0.685074 0
M  V30 15449 C 1500.04 -1.42062 -1.44728 0
M  V30 15450 C 1500.37 -0.0332072 -1.94172 0
M  V30 15451 O 1499.65 0.940835 -1.70231 0
M  V30 15452 C 1499.93 -2.43634 -2.65168 0
M  V30 15453 C 1499.78 -3.91525 -2.21423 0
M  V30 15454 C 1501.1 -2.42325 -3.67378 0
M  V30 15455 H 1498.22 -0.517321 -0.524927 0
M  V30 15456 H 1500.86 -1.73277 -0.779419 0
M  V30 15457 H 1499.01 -2.17146 -3.22149 0
M  V30 15458 H 1500.69 -4.28956 -1.69689 0
M  V30 15459 H 1498.93 -4.05886 -1.53099 0
M  V30 15460 H 1499.6 -4.58158 -3.07889 0
M  V30 15461 H 1502.08 -2.65857 -3.20093 0
M  V30 15462 H 1500.95 -3.15391 -4.49243 0
M  V30 15463 H 1501.21 -1.44555 -4.17799 0
M  V30 15464 N 1500.27 0.920374 -1.27933 0
M  V30 15465 C 1501.2 2.03882 -1.13817 0
M  V30 15466 C 1502.18 1.70058 -0.0376853 0
M  V30 15467 O 1503.37 1.93023 -0.213492 0
M  V30 15468 C 1500.5 3.38142 -0.792296 0
M  V30 15469 C 1499.45 3.86104 -1.84683 0
M  V30 15470 C 1498.78 5.17253 -1.35474 0
M  V30 15471 C 1500.08 4.0869 -3.25223 0
M  V30 15472 H 1501.77 2.15949 -2.07379 0
M  V30 15473 H 1499.32 1.03764 -0.998454 0
M  V30 15474 H 1501.27 4.15872 -0.680337 0
M  V30 15475 H 1499.99 3.26109 0.179029 0
M  V30 15476 H 1498.65 3.10573 -1.94782 0
M  V30 15477 H 1498.3 5.01618 -0.372666 0
M  V30 15478 H 1498 5.50314 -2.05982 0
M  V30 15479 H 1499.53 5.97545 -1.25587 0
M  V30 15480 H 1500.94 4.76965 -3.18083 0
M  V30 15481 H 1499.34 4.5307 -3.93507 0
M  V30 15482 H 1500.41 3.13729 -3.69733 0
M  V30 15483 N 1501.75 1.10074 1.1279 0
M  V30 15484 C 1502.71 0.74967 2.16593 0
M  V30 15485 C 1503.71 -0.224046 1.59232 0
M  V30 15486 O 1504.9 -0.00137104 1.742 0
M  V30 15487 C 1502.03 0.109795 3.40723 0
M  V30 15488 H 1503.23 1.66906 2.49164 0
M  V30 15489 H 1500.78 0.900781 1.27733 0
M  V30 15490 H 1501.52 -0.820501 3.13749 0
M  V30 15491 H 1501.3 0.810517 3.83631 0
M  V30 15492 H 1502.79 -0.120198 4.17427 0
M  V30 15493 N 1503.23 -1.30138 0.888926 0
M  V30 15494 C 1504.16 -2.26177 0.303221 0
M  V30 15495 C 1505.14 -1.51962 -0.578471 0
M  V30 15496 O 1506.32 -1.80963 -0.527685 0
M  V30 15497 C 1503.45 -3.3389 -0.568783 0
M  V30 15498 C 1502.5 -4.25801 0.24412 0
M  V30 15499 S 1503.33 -5.09931 1.63496 0
M  V30 15500 C 1504.48 -6.21151 0.76959 0
M  V30 15501 H 1504.72 -2.75507 1.11728 0
M  V30 15502 H 1502.25 -1.38195 0.688594 0
M  V30 15503 H 1504.21 -3.96413 -1.06614 0
M  V30 15504 H 1502.87 -2.83276 -1.35697 0
M  V30 15505 H 1502.06 -5.02234 -0.42151 0
M  V30 15506 H 1501.66 -3.67872 0.67424 0
M  V30 15507 H 1503.96 -6.77499 -0.0117256 0
M  V30 15508 H 1504.9 -6.91907 1.50566 0
M  V30 15509 H 1505.31 -5.63542 0.328744 0
M  V30 15510 N 1504.71 -0.650285 -1.43559 0
M  V30 15511 C 1505.95 -0.171315 -2.02677 0
M  V30 15512 C 1506.31 1.20031 -1.50367 0
M  V30 15513 O 1505.6 1.78901 -0.685922 0
M  V30 15514 C 1505.79 -0.119084 -3.57202 0
M  V30 15515 C 1505.62 -1.4841 -4.24505 0
M  V30 15516 C 1504.39 -2.07575 -4.60696 0
M  V30 15517 C 1506.59 -2.42191 -4.53705 0
M  V30 15518 N 1504.57 -3.37112 -5.13058 0
M  V30 15519 C 1505.94 -3.56359 -5.07354 0
M  V30 15520 C 1508 -2.4103 -4.35671 0
M  V30 15521 C 1506.7 -4.69587 -5.44868 0
M  V30 15522 C 1508.73 -3.53336 -4.74244 0
M  V30 15523 C 1508.09 -4.66229 -5.28024 0
M  V30 15524 H 1504.19 -0.107051 -0.774638 0
M  V30 15525 H 1506.77 -0.857951 -1.74778 0
M  V30 15526 H 1504.94 0.536887 -3.84671 0
M  V30 15527 H 1506.68 0.370487 -4.03001 0
M  V30 15528 H 1503.43 -1.60315 -4.45641 0
M  V30 15529 H 1503.85 -4.03392 -5.43695 0
M  V30 15530 H 1508.5 -1.54988 -3.93368 0
M  V30 15531 H 1506.21 -5.56322 -5.86115 0
M  V30 15532 H 1509.8 -3.53636 -4.61988 0
M  V30 15533 H 1508.68 -5.51693 -5.57319 0
M  V30 15534 N 1506.18 1.52647 -0.392018 0
M  V30 15535 C 1507.13 2.26532 0.441819 0
M  V30 15536 C 1508.1 1.2825 1.05552 0
M  V30 15537 O 1509.29 1.57083 1.08303 0
M  V30 15538 C 1506.43 3.0774 1.56174 0
M  V30 15539 C 1505.54 4.20955 0.970632 0
M  V30 15540 C 1504.67 4.89553 2.06183 0
M  V30 15541 C 1503.71 5.94756 1.44676 0
M  V30 15542 N 1502.85 6.5694 2.47738 0
M  V30 15543 H 1507.69 2.97363 -0.194699 0
M  V30 15544 H 1505.23 1.46704 -0.107848 0
M  V30 15545 H 1507.18 3.53116 2.22183 0
M  V30 15546 H 1505.81 2.39112 2.16853 0
M  V30 15547 H 1504.87 3.79874 0.200067 0
M  V30 15548 H 1506.18 4.96474 0.481181 0
M  V30 15549 H 1505.33 5.38247 2.79956 0
M  V30 15550 H 1504.07 4.13564 2.58488 0
M  V30 15551 H 1503.08 5.45399 0.694288 0
M  V30 15552 H 1504.3 6.72679 0.931617 0
M  V30 15553 H 1502.25 5.8379 2.99208 0
M  V30 15554 H 1502.16 7.2808 2.03556 0
M  V30 15555 H 1503.43 7.10277 3.21133 0
M  V30 15556 N 1507.66 0.121921 1.57128 0
M  V30 15557 C 1508.91 -0.536164 1.95584 0
M  V30 15558 C 1509.24 -1.66143 1.0055 0
M  V30 15559 O 1508.52 -1.94452 0.0432427 0
M  V30 15560 C 1508.8 -1.0661 3.43957 0
M  V30 15561 C 1508.65 0.0559458 4.49765 0
M  V30 15562 C 1509.97 -1.95603 3.94243 0
M  V30 15563 H 1507.09 -0.193427 0.711165 0
M  V30 15564 H 1509.73 0.198072 1.88965 0
M  V30 15565 H 1507.88 -1.69181 3.49729 0
M  V30 15566 H 1509.55 0.691357 4.5609 0
M  V30 15567 H 1507.8 0.71868 4.27805 0
M  V30 15568 H 1508.47 -0.356133 5.5085 0
M  V30 15569 H 1510.94 -1.42899 3.90793 0
M  V30 15570 H 1509.82 -2.29599 4.98573 0
M  V30 15571 H 1510.08 -2.88364 3.3511 0
M  V30 15572 N 1509.14 -1.56867 -0.151857 0
M  V30 15573 C 1510.39 -1.82721 -0.863575 0
M  V30 15574 C 1510.71 -0.702042 -1.81924 0
M  V30 15575 O 1509.98 0.27668 -1.93936 0
M  V30 15576 H 1508.56 -0.674088 -0.321893 0
M  V30 15577 H 1511.22 -1.94345 -0.14702 0
M  V30 15578 H 1510.32 -2.77476 -1.42876 0
M  V30 15579 N 1510.62 0.421051 -1.51871 0
M  V30 15580 C 1511.87 1.16908 -1.65344 0
M  V30 15581 C 1512.19 1.90801 -0.377538 0
M  V30 15582 O 1511.45 1.84972 0.639061 0
M  V30 15583 C 1511.75 2.19819 -2.81806 0
M  V30 15584 C 1511.41 1.62821 -4.20476 0
M  V30 15585 C 1510.08 1.47 -4.58197 0
M  V30 15586 C 1512.43 1.21079 -5.06941 0
M  V30 15587 C 1509.76 0.879359 -5.80073 0
M  V30 15588 C 1512.11 0.634373 -6.29411 0
M  V30 15589 C 1510.77 0.4632 -6.65891 0
M  V30 15590 H 1510.04 0.427798 -0.605037 0
M  V30 15591 H 1512.69 0.457896 -1.85945 0
M  V30 15592 H 1510.99 2.97037 -2.55492 0
M  V30 15593 H 1512.69 2.77548 -2.89427 0
M  V30 15594 H 1509.28 1.76115 -3.90745 0
M  V30 15595 H 1513.46 1.32115 -4.78392 0
M  V30 15596 H 1508.72 0.734646 -6.0697 0
M  V30 15597 H 1512.89 0.302484 -6.95743 0
M  V30 15598 H 1510.52 0.00341397 -7.602 0
M  V30 15599 N 1512.1 1.42293 0.677538 0
M  V30 15600 C 1513.34 1.42616 1.4376 0
M  V30 15601 C 1513.67 0.0416268 1.94455 0
M  V30 15602 O 1512.93 -0.949544 1.7112 0
M  V30 15603 C 1513.23 2.3951 2.65273 0
M  V30 15604 C 1512.89 3.85952 2.33135 0
M  V30 15605 C 1511.55 4.25842 2.24081 0
M  V30 15606 C 1513.91 4.78337 2.06987 0
M  V30 15607 C 1511.23 5.561 1.87001 0
M  V30 15608 C 1513.59 6.08934 1.71411 0
M  V30 15609 C 1512.25 6.47826 1.60865 0
M  V30 15610 H 1511.52 0.521869 0.526055 0
M  V30 15611 H 1514.17 1.75214 0.772797 0
M  V30 15612 H 1512.47 2.00229 3.36773 0
M  V30 15613 H 1514.17 2.37025 3.2345 0
M  V30 15614 H 1510.76 3.54369 2.41083 0
M  V30 15615 H 1514.94 4.48308 2.12916 0
M  V30 15616 H 1510.2 5.85097 1.77403 0
M  V30 15617 H 1514.37 6.80009 1.50203 0
M  V30 15618 H 1512 7.48669 1.31902 0
M  V30 15619 N 1513.57 -0.913576 1.28419 0
M  V30 15620 C 1514.52 -2.01603 1.12361 0
M  V30 15621 C 1515.49 -1.66087 0.0206953 0
M  V30 15622 O 1516.68 -1.89895 0.185659 0
M  V30 15623 C 1513.82 -3.35897 0.791655 0
M  V30 15624 C 1512.93 -3.84281 1.97363 0
M  V30 15625 C 1512.06 -5.07087 1.58228 0
M  V30 15626 C 1511.1 -5.47804 2.73089 0
M  V30 15627 N 1510.24 -6.618 2.34446 0
M  V30 15628 H 1515.08 -2.1467 2.0669 0
M  V30 15629 H 1512.62 -1.05147 1.02871 0
M  V30 15630 H 1514.58 -4.13149 0.579943 0
M  V30 15631 H 1513.21 -3.22596 -0.114699 0
M  V30 15632 H 1512.26 -3.03184 2.29746 0
M  V30 15633 H 1513.57 -4.10417 2.83477 0
M  V30 15634 H 1512.72 -5.91883 1.33264 0
M  V30 15635 H 1511.46 -4.82759 0.692429 0
M  V30 15636 H 1510.47 -4.61549 2.98751 0
M  V30 15637 H 1511.69 -5.74119 3.62717 0
M  V30 15638 H 1509.64 -6.39103 1.4793 0
M  V30 15639 H 1509.56 -6.87663 3.14096 0
M  V30 15640 H 1510.82 -7.49901 2.12766 0
M  V30 15641 N 1515.05 -1.1067 -1.12204 0
M  V30 15642 C 1516.47 -0.838988 -1.35769 0
M  V30 15643 C 1516.67 0.540345 -1.9412 0
M  V30 15644 O 1515.72 1.29274 -2.16897 0
M  V30 15645 C 1517.04 -1.94065 -2.29694 0
M  V30 15646 C 1518.59 -1.96938 -2.43279 0
M  V30 15647 C 1519.06 -3.06284 -3.4052 0
M  V30 15648 N 1520.55 -3.05607 -3.48079 0
M  V30 15649 C 1521.29 -3.86855 -4.23238 0
M  V30 15650 N 1520.78 -4.78046 -5.01442 0
M  V30 15651 N 1522.58 -3.75064 -4.18669 0
M  V30 15652 H 1514.73 -1.99575 -0.726878 0
M  V30 15653 H 1516.99 -0.867423 -0.382467 0
M  V30 15654 H 1516.7 -2.93356 -1.93997 0
M  V30 15655 H 1516.57 -1.82992 -3.29839 0
M  V30 15656 H 1518.96 -0.982774 -2.78254 0
M  V30 15657 H 1519.04 -2.12087 -1.43014 0
M  V30 15658 H 1518.68 -4.05165 -3.06273 0
M  V30 15659 H 1518.61 -2.88376 -4.40621 0
M  V30 15660 H 1521.1 -2.39531 -2.9229 0
M  V30 15661 H 1521.42 -5.36594 -5.56136 0
M  V30 15662 H 1519.76 -4.82073 -5.0063 0
M  V30 15663 H 1522.95 -3.03172 -3.56657 0
M  V30 15664 H 1523.12 -4.38618 -4.76988 0
M  V30 15665 N 1516.53 1.29665 -0.895815 0
M  V30 15666 C 1517.48 2.29791 -0.360404 0
M  V30 15667 C 1518.47 1.60617 0.538384 0
M  V30 15668 O 1519.68 1.74993 0.421616 0
M  V30 15669 H 1516.05 0.745599 -0.0979118 0
M  V30 15670 H 1518.02 2.72396 -1.21832 0
M  V30 15671 C 1516.77 3.45386 0.400451 0
M  V30 15672 H 1516.1 3.98805 -0.281915 0
M  V30 15673 H 1517.54 4.17492 0.740003 0
M  V30 15674 C 1516 2.96393 1.60165 0
M  V30 15675 O 1516.53 2.97339 2.70097 0
M  V30 15676 N 1514.73 2.52271 1.44249 0
M  V30 15677 H 1514.28 2.51701 0.548142 0
M  V30 15678 H 1514.24 2.19849 2.24753 0
M  V30 15679 N 1518.01 0.657889 1.43212 0
M  V30 15680 C 1519.42 0.325876 1.56238 0
M  V30 15681 C 1519.62 -1.16975 1.6407 0
M  V30 15682 O 1518.68 -1.95473 1.59833 0
M  V30 15683 C 1519.99 1.04134 2.82093 0
M  V30 15684 C 1521.54 1.02204 2.95844 0
M  V30 15685 C 1522.02 1.71849 4.24537 0
M  V30 15686 N 1523.51 1.68635 4.31412 0
M  V30 15687 C 1524.24 2.19393 5.29768 0
M  V30 15688 N 1523.74 2.7846 6.34375 0
M  V30 15689 N 1525.53 2.09866 5.21452 0
M  V30 15690 H 1517.68 1.62839 1.36371 0
M  V30 15691 H 1519.95 0.685072 0.655271 0
M  V30 15692 H 1519.65 2.09647 2.82385 0
M  V30 15693 H 1519.53 0.595842 3.72464 0
M  V30 15694 H 1521.91 -0.0247029 2.9509 0
M  V30 15695 H 1521.99 1.50627 2.06749 0
M  V30 15696 H 1521.64 2.76482 4.26052 0
M  V30 15697 H 1521.57 1.20888 5.12536 0
M  V30 15698 H 1524.06 1.25536 3.56439 0
M  V30 15699 H 1524.37 3.14855 7.05752 0
M  V30 15700 H 1522.72 2.82523 6.34985 0
M  V30 15701 H 1525.91 1.63422 4.38647 0
M  V30 15702 H 1526.08 2.49732 5.97945 0
M  V30 15703 N 1519.49 -1.52437 0.400108 0
M  V30 15704 C 1520.9 -1.86563 -0.0715162 0
M  V30 15705 C 1521.25 -1.3193 -1.4522 0
M  V30 15706 O 1520.37 -0.654955 -2.06251 0
M  V30 15707 C 1520.97 -3.38525 -0.13655 0
M  V30 15708 C 1519.53 -3.72323 -0.55249 0
M  V30 15709 C 1518.67 -2.75896 0.278729 0
M  V30 15710 H 1521.63 -1.46192 0.617547 0
M  V30 15711 H 1521.65 -3.68357 -0.953588 0
M  V30 15712 H 1521.16 -3.78258 0.868468 0
M  V30 15713 H 1519.26 -3.38164 -1.56448 0
M  V30 15714 H 1519.37 -4.7814 -0.303139 0
M  V30 15715 H 1517.74 -2.53394 -0.257608 0
M  V30 15716 H 1518.52 -3.18467 1.28193 0
M  V30 15717 N 1520.96 -0.130252 -1.57061 0
M  V30 15718 C 1522.38 0.393318 -1.8251 0
M  V30 15719 C 1522.73 1.65862 -1.04806 0
M  V30 15720 O 1521.85 2.14473 -0.288118 0
M  V30 15721 C 1522.45 0.720366 -3.31053 0
M  V30 15722 C 1521.01 1.18852 -3.57143 0
M  V30 15723 C 1520.15 0.202964 -2.76556 0
M  V30 15724 H 1523.1 -0.355217 -1.54674 0
M  V30 15725 H 1523.12 1.57671 -3.46295 0
M  V30 15726 H 1522.64 -0.200719 -3.87581 0
M  V30 15727 H 1520.74 2.12612 -3.05985 0
M  V30 15728 H 1520.85 1.12607 -4.65678 0
M  V30 15729 H 1519.21 0.692264 -2.45112 0
M  V30 15730 H 1520 -0.711417 -3.35848 0
M  V30 15731 N 1522.44 1.56945 0.143535 0
M  V30 15732 C 1523.37 2.0156 1.17881 0
M  V30 15733 C 1524.35 0.895744 1.44604 0
M  V30 15734 O 1525.54 1.16379 1.55466 0
M  V30 15735 C 1522.67 2.39915 2.51114 0
M  V30 15736 C 1521.62 3.55117 2.38905 0
M  V30 15737 C 1520.95 3.79296 3.7688 0
M  V30 15738 C 1522.25 4.87668 1.87021 0
M  V30 15739 H 1523.94 2.88296 0.80783 0
M  V30 15740 H 1521.49 1.38698 0.387149 0
M  V30 15741 H 1523.44 2.69727 3.23767 0
M  V30 15742 H 1522.17 1.5012 2.90055 0
M  V30 15743 H 1520.83 3.25476 1.68703 0
M  V30 15744 H 1520.47 2.86747 4.13262 0
M  V30 15745 H 1520.17 4.56827 3.69571 0
M  V30 15746 H 1521.7 4.11537 4.51076 0
M  V30 15747 H 1523.11 5.16176 2.4947 0
M  V30 15748 H 1521.51 5.69029 1.90594 0
M  V30 15749 H 1522.58 4.77811 0.82611 0
M  V30 15750 N 1523.92 -0.412991 1.52093 0
M  V30 15751 C 1524.83 -1.52768 1.78042 0
M  V30 15752 C 1525.85 -1.60758 0.665791 0
M  V30 15753 O 1527.02 -1.77545 0.950772 0
M  V30 15754 C 1524.09 -2.8854 1.92213 0
M  V30 15755 C 1523.15 -2.90468 3.16112 0
M  V30 15756 C 1522.38 -4.19763 3.29598 0
M  V30 15757 O 1522.61 -5.13454 2.48438 0
M  V30 15758 O 1521.54 -4.2847 4.22726 0
M  V30 15759 H 1525.37 -1.33777 2.72649 0
M  V30 15760 H 1522.95 -0.598461 1.3689 0
M  V30 15761 H 1524.83 -3.69073 2.03379 0
M  V30 15762 H 1523.51 -3.07607 1.00795 0
M  V30 15763 H 1522.41 -2.08801 3.10408 0
M  V30 15764 H 1523.75 -2.76349 4.07298 0
M  V30 15765 N 1525.4 -1.4265 -0.669982 0
M  V30 15766 C 1526.31 -1.48916 -1.81276 0
M  V30 15767 C 1527.33 -0.377523 -1.69855 0
M  V30 15768 O 1528.5 -0.629151 -1.91321 0
M  V30 15769 C 1525.57 -1.39376 -3.17451 0
M  V30 15770 C 1524.63 -2.61072 -3.40793 0
M  V30 15771 C 1523.86 -2.51976 -4.70472 0
M  V30 15772 O 1524.08 -1.55827 -5.48702 0
M  V30 15773 O 1523.02 -3.42193 -4.95164 0
M  V30 15774 H 1526.84 -2.45382 -1.78945 0
M  V30 15775 H 1524.43 -1.24467 -0.826342 0
M  V30 15776 H 1526.31 -1.36435 -3.98702 0
M  V30 15777 H 1524.99 -0.460376 -3.20409 0
M  V30 15778 H 1523.89 -2.69587 -2.59372 0
M  V30 15779 H 1525.23 -3.53325 -3.42669 0
M  V30 15780 N 1526.88 0.906753 -1.28902 0
M  V30 15781 C 1528.15 1.63637 -1.07155 0
M  V30 15782 C 1528.53 2.07527 0.386727 0
M  V30 15783 O 1527.88 1.82562 1.37417 0
M  V30 15784 C 1528.09 2.82256 -2.05263 0
M  V30 15785 C 1529.44 3.53109 -2.35794 0
M  V30 15786 O 1530.46 2.92414 -2.03402 0
M  V30 15787 O 1529.32 4.62512 -2.91109 0
M  V30 15788 H 1526.42 0.718194 -0.410032 0
M  V30 15789 H 1528.96 0.955442 -1.40248 0
M  V30 15790 H 1527.74 2.46968 -3.03517 0
M  V30 15791 H 1527.36 3.58059 -1.72857 0
M  V30 15792 N 1528.36 1.11264 1.11616 0
M  V30 15793 C 1529.63 0.772174 1.79713 0
M  V30 15794 C 1530.01 -0.740055 1.97703 0
M  V30 15795 O 1529.36 -1.66939 1.56024 0
M  V30 15796 C 1529.57 1.53316 3.13521 0
M  V30 15797 C 1530.92 1.71124 3.88589 0
M  V30 15798 O 1531.94 1.49725 3.23204 0
M  V30 15799 O 1530.8 2.0667 5.05915 0
M  V30 15800 H 1527.9 0.279548 0.77832 0
M  V30 15801 H 1530.44 1.21596 1.18375 0
M  V30 15802 H 1529.21 2.56194 2.95771 0
M  V30 15803 H 1528.84 1.08281 3.82572 0
M  V30 15804 N 1529.83 -1.29188 0.902679 0
M  V30 15805 C 1530.74 -2.3138 0.387363 0
M  V30 15806 C 1531.76 -1.66067 -0.519396 0
M  V30 15807 O 1532.94 -1.97219 -0.408257 0
M  V30 15808 C 1530 -3.44675 -0.374137 0
M  V30 15809 C 1529.06 -4.25572 0.564503 0
M  V30 15810 C 1528.29 -5.33458 -0.160748 0
M  V30 15811 O 1528.52 -5.53349 -1.38423 0
M  V30 15812 O 1527.45 -5.99834 0.498259 0
M  V30 15813 H 1531.28 -2.77444 1.23525 0
M  V30 15814 H 1528.86 -1.33679 0.667106 0
M  V30 15815 H 1530.74 -4.13647 -0.80464 0
M  V30 15816 H 1529.42 -3.00714 -1.19804 0
M  V30 15817 H 1528.33 -3.59232 1.04418 0
M  V30 15818 H 1529.66 -4.73184 1.3549 0
M  V30 15819 N 1531.31 -0.665475 -1.42861 0
M  V30 15820 C 1532.22 0.018927 -2.34592 0
M  V30 15821 C 1533.24 0.798967 -1.54572 0
M  V30 15822 O 1534.41 0.743419 -1.87177 0
M  V30 15823 C 1531.48 0.965013 -3.32999 0
M  V30 15824 C 1530.54 0.180544 -4.2892 0
M  V30 15825 C 1529.77 1.08157 -5.22626 0
M  V30 15826 O 1530 2.32101 -5.21043 0
M  V30 15827 O 1528.93 0.54738 -5.99406 0
M  V30 15828 H 1532.76 -0.736444 -2.94636 0
M  V30 15829 H 1530.34 -0.425684 -1.43207 0
M  V30 15830 H 1532.22 1.50839 -3.93479 0
M  V30 15831 H 1530.9 1.7004 -2.75442 0
M  V30 15832 H 1529.8 -0.40671 -3.71883 0
M  V30 15833 H 1531.14 -0.515529 -4.89493 0
M  V30 15834 N 1532.79 1.52222 -0.408187 0
M  V30 15835 C 1534.04 2.01404 0.167574 0
M  V30 15836 C 1534.36 1.29572 1.45726 0
M  V30 15837 O 1533.63 0.421363 1.91315 0
M  V30 15838 H 1532.21 0.744174 0.0649156 0
M  V30 15839 H 1534.87 1.87148 -0.544212 0
M  V30 15840 H 1533.97 3.09966 0.36436 0
M  V30 15841 N 1534.27 0.138579 1.5699 0
M  V30 15842 C 1535.18 -0.817548 2.19894 0
M  V30 15843 C 1536.19 -1.27806 1.18075 0
M  V30 15844 O 1537.37 -1.33699 1.5062 0
M  V30 15845 C 1534.43 -2.04244 2.80152 0
M  V30 15846 C 1533.5 -1.63197 3.97071 0
M  V30 15847 C 1532.73 -2.79847 4.54446 0
M  V30 15848 O 1532.95 -3.95827 4.10703 0
M  V30 15849 O 1531.89 -2.55804 5.44838 0
M  V30 15850 H 1535.71 -0.312123 3.02092 0
M  V30 15851 H 1533.3 -0.0880281 1.4914 0
M  V30 15852 H 1535.18 -2.75945 3.18485 0
M  V30 15853 H 1533.85 -2.53755 2.00973 0
M  V30 15854 H 1532.76 -0.885448 3.6347 0
M  V30 15855 H 1534.09 -1.1841 4.77745 0
M  V30 15856 O 1535.78 -1.615 -0.000256589 0
M  V30 15857 H 1536.48 -1.83612 -0.616957 0
M  V30 END ATOM
M  V30 BEGIN BOND
M  V30 END BOND
M  V30 END CTAB
M  END
$$$$
