drugbank_target|P08667 Glycoprotein (DB11603)
 OpenBabel12092121203D

  0  0  0     0  0            999 V3000
M  V30 BEGIN CTAB
M  V30 COUNTS 8191 8298 0 0 0
M  V30 BEGIN ATOM
M  V30 1 H -0.908 1.98254 -0.117106 0
M  V30 2 N 0 1.576 0 0
M  V30 3 C 0.933 2.03868 1.02534 0
M  V30 4 C 1.911 0.928543 1.3348 0
M  V30 5 O 3.095 1.19667 1.45644 0
M  V30 6 C 0.222 2.43627 2.35294 0
M  V30 7 C -0.732 3.65373 2.2001 0
M  V30 8 S 0.101 5.13292 1.52614 0
M  V30 9 C 1.257 5.56322 2.86805 0
M  V30 10 H 1.49 2.90518 0.631377 0
M  V30 11 H -0.977 1.52953 0.210867 0
M  V30 12 H 0.981 2.67203 3.11629 0
M  V30 13 H -0.358 1.57376 2.7183 0
M  V30 14 H -1.165 3.90944 3.18086 0
M  V30 15 H -1.563 3.418 1.51819 0
M  V30 16 H 0.729 5.58782 3.83104 0
M  V30 17 H 1.672 6.56266 2.65933 0
M  V30 18 H 2.08 4.83886 2.90714 0
M  V30 19 N 1.4781 -0.272755 1.55222 0
M  V30 20 C 2.7241 -1.00581 1.761 0
M  V30 21 C 3.0571 -1.85932 0.560625 0
M  V30 22 O 2.3321 -1.89416 -0.441801 0
M  V30 23 C 2.6151 -1.88816 3.06628 0
M  V30 24 C 2.4681 -1.06457 4.37021 0
M  V30 25 C 3.7871 -2.8752 3.33197 0
M  V30 26 H 0.9061 -0.364244 0.640699 0
M  V30 27 H 3.5481 -0.278189 1.87952 0
M  V30 28 H 1.6981 -2.50856 2.96654 0
M  V30 29 H 3.3701 -0.464863 4.58952 0
M  V30 30 H 1.6131 -0.368043 4.32236 0
M  V30 31 H 2.2841 -1.71514 5.24678 0
M  V30 32 H 4.7601 -2.35615 3.42965 0
M  V30 33 H 3.6361 -3.46399 4.25792 0
M  V30 34 H 3.8971 -3.62657 2.52849 0
M  V30 35 N 2.9562 -1.48159 -0.537278 0
M  V30 36 C 4.3672 -1.49429 -1.11928 0
M  V30 37 C 4.7182 -0.26 -1.9447 0
M  V30 38 O 3.8432 0.633489 -2.0692 0
M  V30 39 C 4.4382 -2.70758 -2.03656 0
M  V30 40 C 2.9972 -2.74923 -2.57088 0
M  V30 41 C 2.1442 -2.42835 -1.3389 0
M  V30 42 H 5.0952 -1.55381 -0.322886 0
M  V30 43 H 5.1162 -2.48861 -2.87834 0
M  V30 44 H 4.6282 -3.60575 -1.43553 0
M  V30 45 H 2.7292 -1.89296 -3.20933 0
M  V30 46 H 2.8422 -3.76157 -2.9672 0
M  V30 47 H 1.2062 -1.93836 -1.65226 0
M  V30 48 H 1.9892 -3.34884 -0.755504 0
M  V30 49 N 4.4343 0.785586 -1.36625 0
M  V30 50 C 5.3663 1.90711 -1.2713 0
M  V30 51 C 6.3793 1.61688 -0.189986 0
M  V30 52 O 7.5683 1.72864 -0.445014 0
M  V30 53 C 4.6683 3.25611 -0.939713 0
M  V30 54 C 3.8413 3.82385 -2.12369 0
M  V30 55 C 2.9003 4.95732 -1.76456 0
M  V30 56 O 1.9263 5.12047 -2.48589 0
M  V30 57 N 3.1283 5.76258 -0.700492 0
M  V30 58 H 5.8933 1.99376 -2.23762 0
M  V30 59 H 3.4543 0.964041 -1.30069 0
M  V30 60 H 5.4463 3.98937 -0.680554 0
M  V30 61 H 4.0163 3.12538 -0.0624074 0
M  V30 62 H 3.2363 3.01001 -2.54543 0
M  V30 63 H 4.5243 4.17047 -2.9146 0
M  V30 64 H 3.9223 5.65609 -0.101624 0
M  V30 65 H 2.4793 6.4987 -0.501165 0
M  V30 66 N 5.9124 1.20967 1.01018 0
M  V30 67 C 6.8754 0.965918 2.07853 0
M  V30 68 C 7.8754 -0.0610545 1.60684 0
M  V30 69 O 9.0654 0.175681 1.73312 0
M  V30 70 C 6.1974 0.455513 3.37843 0
M  V30 71 H 7.3904 1.91365 2.3091 0
M  V30 72 H 4.9434 1.02594 1.17916 0
M  V30 73 H 5.6784 -0.497381 3.20463 0
M  V30 74 H 5.4634 1.19622 3.73407 0
M  V30 75 H 6.9534 0.304667 4.16487 0
M  V30 76 N 7.3905 -1.2043 1.01659 0
M  V30 77 C 8.3205 -2.25466 0.607226 0
M  V30 78 C 9.3015 -1.65853 -0.377716 0
M  V30 79 O 10.4865 -1.92409 -0.263149 0
M  V30 80 C 7.6165 -3.47256 -0.0552949 0
M  V30 81 C 6.5705 -4.19462 0.850632 0
M  V30 82 C 5.8965 -5.34673 0.0538859 0
M  V30 83 C 7.1965 -4.75603 2.15868 0
M  V30 84 H 8.8905 -2.59962 1.48526 0
M  V30 85 H 6.4365 -1.2496 0.715605 0
M  V30 86 H 8.3895 -4.19917 -0.353233 0
M  V30 87 H 7.1135 -3.11924 -0.968045 0
M  V30 88 H 5.7725 -3.48667 1.13257 0
M  V30 89 H 5.4205 -4.95585 -0.860514 0
M  V30 90 H 5.1205 -5.83913 0.657192 0
M  V30 91 H 6.6445 -6.10138 -0.237598 0
M  V30 92 H 8.0585 -5.40083 1.92311 0
M  V30 93 H 6.4555 -5.3528 2.71284 0
M  V30 94 H 7.5255 -3.94346 2.82169 0
M  V30 95 N 8.8686 -0.792821 -1.36206 0
M  V30 96 C 9.7986 -0.207853 -2.32573 0
M  V30 97 C 10.7796 0.659055 -1.56813 0
M  V30 98 O 11.9646 0.592176 -1.84951 0
M  V30 99 C 9.0946 0.655449 -3.41059 0
M  V30 100 C 8.0486 -0.111842 -4.27854 0
M  V30 101 C 7.3746 0.872274 -5.27537 0
M  V30 102 C 8.6746 -1.30299 -5.05786 0
M  V30 103 H 10.3686 -1.01294 -2.81744 0
M  V30 104 H 7.9146 -0.48854 -1.3546 0
M  V30 105 H 9.8676 1.07464 -4.07467 0
M  V30 106 H 8.5916 1.49328 -2.90463 0
M  V30 107 H 7.2506 -0.512053 -3.63006 0
M  V30 108 H 6.8986 1.70523 -4.73214 0
M  V30 109 H 6.5986 0.363291 -5.86476 0
M  V30 110 H 8.1226 1.28996 -5.96818 0
M  V30 111 H 9.5366 -0.959379 -5.65216 0
M  V30 112 H 7.9336 -1.7455 -5.74154 0
M  V30 113 H 9.0036 -2.09663 -4.37229 0
M  V30 114 N 10.3467 1.47872 -0.545128 0
M  V30 115 C 11.5937 2.02493 -0.0165858 0
M  V30 116 C 11.9217 1.42073 1.32836 0
M  V30 117 O 11.1767 0.561459 1.87473 0
M  V30 118 C 11.4757 3.57131 0.13867 0
M  V30 119 C 11.1417 4.36411 -1.13384 0
M  V30 120 C 9.8037 4.57792 -1.48256 0
M  V30 121 C 12.1557 4.82223 -1.97764 0
M  V30 122 C 9.4837 5.22233 -2.67376 0
M  V30 123 C 11.8357 5.47977 -3.16076 0
M  V30 124 C 10.4997 5.67593 -3.51275 0
M  V30 125 H 9.7697 0.740975 -0.00606918 0
M  V30 126 H 12.4167 1.77683 -0.714207 0
M  V30 127 H 10.7217 3.80865 0.919172 0
M  V30 128 H 12.4187 3.97031 0.562782 0
M  V30 129 H 9.0087 4.2004 -0.852297 0
M  V30 130 H 13.1927 4.65493 -1.72132 0
M  V30 131 H 8.4487 5.35616 -2.94831 0
M  V30 132 H 12.6227 5.8244 -3.81755 0
M  V30 133 H 10.2497 6.17298 -4.43675 0
M  V30 134 N 11.8248 0.280983 1.55075 0
M  V30 135 C 13.0708 -0.33461 2.00021 0
M  V30 136 C 13.4038 -1.55063 1.16915 0
M  V30 137 O 12.6788 -1.93006 0.240646 0
M  V30 138 C 12.9618 -0.711007 3.53011 0
M  V30 139 C 12.8148 0.512766 4.46868 0
M  V30 140 C 14.1338 -1.54522 4.12081 0
M  V30 141 H 11.2528 -0.120147 0.727141 0
M  V30 142 H 13.8948 0.389097 1.85973 0
M  V30 143 H 12.0448 -1.32761 3.65112 0
M  V30 144 H 13.7168 1.15131 4.46702 0
M  V30 145 H 11.9598 1.14975 4.18286 0
M  V30 146 H 12.6308 0.205556 5.51617 0
M  V30 147 H 15.1068 -1.02442 4.03293 0
M  V30 148 H 13.9828 -1.77739 5.19327 0
M  V30 149 H 14.2438 -2.52813 3.62682 0
M  V30 150 N 13.3029 -1.57598 0.00835791 0
M  V30 151 C 14.7139 -1.7892 -0.53333 0
M  V30 152 C 15.0649 -0.916609 -1.73473 0
M  V30 153 O 14.1899 -0.121336 -2.1606 0
M  V30 154 C 14.7849 -3.24488 -0.974313 0
M  V30 155 C 13.3439 -3.46878 -1.46125 0
M  V30 156 C 12.4909 -2.74157 -0.416302 0
M  V30 157 H 15.4419 -1.56958 0.234495 0
M  V30 158 H 15.4629 -3.3306 -1.83988 0
M  V30 159 H 14.9749 -3.87972 -0.099718 0
M  V30 160 H 13.0759 -2.8862 -2.35646 0
M  V30 161 H 13.1889 -4.55572 -1.48295 0
M  V30 162 H 11.5529 -2.39022 -0.87981 0
M  V30 163 H 12.3359 -3.40345 0.44947 0
M  V30 164 N 14.781 0.264519 -1.55364 0
M  V30 165 C 15.711 1.33121 -1.91836 0
M  V30 166 C 16.692 1.51101 -0.781192 0
M  V30 167 O 17.877 1.64003 -1.04003 0
M  V30 168 C 15.007 2.68921 -2.19769 0
M  V30 169 C 13.961 2.65661 -3.35571 0
M  V30 170 C 13.287 4.05093 -3.49004 0
M  V30 171 C 14.587 2.24187 -4.71739 0
M  V30 172 H 16.281 1.02844 -2.81182 0
M  V30 173 H 13.827 0.493286 -1.35287 0
M  V30 174 H 15.78 3.43663 -2.43872 0
M  V30 175 H 14.504 3.00799 -1.27231 0
M  V30 176 H 13.163 1.93377 -3.1145 0
M  V30 177 H 12.811 4.34206 -2.53917 0
M  V30 178 H 12.511 4.03804 -4.26868 0
M  V30 179 H 14.035 4.81561 -3.75408 0
M  V30 180 H 15.449 2.88654 -4.9533 0
M  V30 181 H 13.846 2.34044 -5.52579 0
M  V30 182 H 14.916 1.19327 -4.69988 0
M  V30 183 N 16.2591 1.48442 0.529413 0
M  V30 184 C 17.1891 1.65902 1.64313 0
M  V30 185 C 18.1701 0.507897 1.6234 0
M  V30 186 O 19.3551 0.740503 1.79528 0
M  V30 187 C 16.4851 1.69911 3.02898 0
M  V30 188 C 15.4391 2.8453 3.19729 0
M  V30 189 C 14.7651 2.73629 4.59381 0
M  V30 190 C 16.0651 4.25821 3.02447 0
M  V30 191 H 17.7591 2.5914 1.49955 0
M  V30 192 H 15.3051 1.24709 0.719982 0
M  V30 193 H 17.2581 1.80715 3.80684 0
M  V30 194 H 15.9821 0.732524 3.18279 0
M  V30 195 H 14.6411 2.73283 2.44361 0
M  V30 196 H 14.2891 1.74938 4.71599 0
M  V30 197 H 13.9891 3.50541 4.71588 0
M  V30 198 H 15.5131 2.86401 5.39265 0
M  V30 199 H 16.9271 4.37898 3.70024 0
M  V30 200 H 15.3241 5.03735 3.26146 0
M  V30 201 H 16.3941 4.42244 1.98867 0
M  V30 202 N 17.7372 -0.778329 1.37039 0
M  V30 203 C 18.9832 -1.53892 1.32079 0
M  V30 204 C 19.3162 -1.9396 -0.0965386 0
M  V30 205 O 18.5912 -1.63568 -1.05242 0
M  V30 206 C 18.8742 -2.80847 2.25382 0
M  V30 207 C 18.7272 -2.47076 3.75864 0
M  V30 208 C 20.0462 -3.82741 2.1725 0
M  V30 209 H 17.1652 -0.558303 0.48111 0
M  V30 210 H 19.8072 -0.893397 1.67685 0
M  V30 211 H 17.9572 -3.35931 1.95148 0
M  V30 212 H 19.6292 -1.97957 4.16666 0
M  V30 213 H 17.8722 -1.79863 3.94755 0
M  V30 214 H 18.5432 -3.37798 4.36574 0
M  V30 215 H 21.0192 -3.37133 2.43887 0
M  V30 216 H 19.8952 -4.69303 2.84686 0
M  V30 217 H 20.1562 -4.2652 1.16331 0
M  V30 218 N 19.2153 -1.21501 -1.00376 0
M  V30 219 C 20.4623 -1.03299 -1.74171 0
M  V30 220 C 20.7903 0.433326 -1.89612 0
M  V30 221 O 20.0453 1.33779 -1.42834 0
M  V30 222 C 20.3443 -1.67673 -3.15627 0
M  V30 223 C 20.0103 -3.17533 -3.2013 0
M  V30 224 C 18.6723 -3.58427 -3.21067 0
M  V30 225 C 21.0243 -4.13504 -3.17275 0
M  V30 226 C 18.3523 -4.93794 -3.16835 0
M  V30 227 C 20.7043 -5.48834 -3.14585 0
M  V30 228 C 19.3683 -5.89123 -3.13831 0
M  V30 229 H 18.6383 -0.377999 -0.637336 0
M  V30 230 H 21.2853 -1.51111 -1.17634 0
M  V30 231 H 19.5903 -1.12158 -3.75404 0
M  V30 232 H 21.2873 -1.51091 -3.71446 0
M  V30 233 H 17.8773 -2.84965 -3.20145 0
M  V30 234 H 22.0613 -3.82936 -3.15711 0
M  V30 235 H 17.3173 -5.24255 -3.1459 0
M  V30 236 H 21.4913 -6.22934 -3.1133 0
M  V30 237 H 19.1183 -6.93984 -3.10307 0
M  V30 238 N 20.6934 1.19889 -1.02296 0
M  V30 239 C 22.1044 1.71124 -0.746568 0
M  V30 240 C 22.4554 1.81939 0.734335 0
M  V30 241 O 21.5804 1.48639 1.57275 0
M  V30 242 C 22.1754 3.10804 -1.34857 0
M  V30 243 C 20.7344 3.59323 -1.1209 0
M  V30 244 C 19.8814 2.3635 -1.45031 0
M  V30 245 H 22.8324 1.04813 -1.19163 0
M  V30 246 H 22.8534 3.73186 -0.742437 0
M  V30 247 H 22.3654 3.029 -2.42638 0
M  V30 248 H 20.4664 3.7255 -0.0610337 0
M  V30 249 H 20.5794 4.4378 -1.80544 0
M  V30 250 H 18.9434 2.39399 -0.869487 0
M  V30 251 H 19.7264 2.31081 -2.53883 0
M  V30 252 N 22.1715 0.800033 1.35784 0
M  V30 253 C 23.1015 0.220184 2.3246 0
M  V30 254 C 24.0825 -0.65073 1.57161 0
M  V30 255 O 25.2675 -0.582359 1.85263 0
M  V30 256 C 22.3975 -0.637353 3.41402 0
M  V30 257 C 21.3515 0.134531 4.27789 0
M  V30 258 C 20.6775 -0.844285 5.27992 0
M  V30 259 C 21.9775 1.32979 5.05088 0
M  V30 260 H 23.6715 1.02787 2.81203 0
M  V30 261 H 21.2175 0.495717 1.35199 0
M  V30 262 H 23.1705 -1.05302 4.08031 0
M  V30 263 H 21.8945 -1.47785 2.91251 0
M  V30 264 H 20.5535 0.531296 3.6273 0
M  V30 265 H 20.2015 -1.68011 4.74111 0
M  V30 266 H 19.9015 -0.332184 5.8666 0
M  V30 267 H 21.4255 -1.2583 5.97494 0
M  V30 268 H 22.8395 0.98934 5.64699 0
M  V30 269 H 21.2365 1.77593 5.7322 0
M  V30 270 H 22.3065 2.11978 4.36111 0
M  V30 271 N 23.6496 -1.47581 0.552962 0
M  V30 272 C 24.8896 -2.04379 0.0296245 0
M  V30 273 C 25.2536 -1.4185 -1.29393 0
M  V30 274 O 26.4546 -1.89669 -1.90471 0
M  V30 275 C 24.7256 -3.57339 -0.0661371 0
M  V30 276 S 26.2846 -4.35511 -0.536213 0
M  V30 277 H 23.1026 -0.710625 0.0230991 0
M  V30 278 H 25.7046 -1.81005 0.738734 0
M  V30 279 H 24.4086 -4.00374 0.901596 0
M  V30 280 H 23.9396 -3.85202 -0.798931 0
M  V30 281 H 25.9546 -4.6253 -1.79668 0
M  V30 282 N 25.1277 -0.289203 -1.54924 0
M  V30 283 C 26.3747 0.323519 -1.99899 0
M  V30 284 C 26.7027 1.54797 -1.17762 0
M  V30 285 O 25.9577 1.94237 -0.238835 0
M  V30 286 C 26.2567 0.736119 -3.49737 0
M  V30 287 C 25.9227 -0.385276 -4.49251 0
M  V30 288 C 24.5847 -0.693156 -4.76181 0
M  V30 289 C 26.9367 -1.14021 -5.08575 0
M  V30 290 C 24.2647 -1.7593 -5.59701 0
M  V30 291 C 26.6167 -2.19619 -5.93254 0
M  V30 292 C 25.2807 -2.51026 -6.185 0
M  V30 293 H 24.5507 0.118384 -0.731482 0
M  V30 294 H 27.1977 -0.405847 -1.8715 0
M  V30 295 H 25.5027 1.54539 -3.60035 0
M  V30 296 H 27.1997 1.22118 -3.81953 0
M  V30 297 H 23.7897 -0.135202 -4.28387 0
M  V30 298 H 27.9737 -0.915611 -4.87781 0
M  V30 299 H 23.2297 -2.0075 -5.77503 0
M  V30 300 H 27.4037 -2.78581 -6.38252 0
M  V30 301 H 25.0307 -3.33772 -6.83008 0
M  V30 302 N 26.6058 1.57591 -0.0167156 0
M  V30 303 C 27.8538 1.90906 0.663285 0
M  V30 304 C 28.1748 0.892509 1.73376 0
M  V30 305 O 27.4448 -0.0677623 1.95783 0
M  V30 306 H 26.0248 0.704637 0.247983 0
M  V30 307 H 28.6868 1.94803 -0.0615909 0
M  V30 308 H 27.7828 2.9116 1.12393 0
M  V30 309 N 28.0839 -0.256276 1.55502 0
M  V30 310 C 29.0309 -1.31714 1.89526 0
M  V30 311 C 30.0009 -1.4828 0.748479 0
M  V30 312 O 31.1859 -1.62416 1.00128 0
M  V30 313 C 28.3259 -2.66933 2.18725 0
M  V30 314 C 27.4389 -2.58452 3.4616 0
M  V30 315 C 26.5739 -3.85961 3.64976 0
M  V30 316 C 25.6129 -3.72059 4.86044 0
M  V30 317 N 24.7499 -4.9144 5.01429 0
M  V30 318 H 29.5899 -1.01998 2.80001 0
M  V30 319 H 27.1269 -0.492413 1.38613 0
M  V30 320 H 29.0849 -3.4563 2.33657 0
M  V30 321 H 27.7149 -2.94816 1.31466 0
M  V30 322 H 26.7669 -1.71374 3.3961 0
M  V30 323 H 28.0789 -2.44085 4.34999 0
M  V30 324 H 27.2329 -4.73101 3.79816 0
M  V30 325 H 25.9719 -4.03215 2.74353 0
M  V30 326 H 24.9769 -2.83302 4.7119 0
M  V30 327 H 26.2019 -3.56309 5.78118 0
M  V30 328 H 24.1479 -5.09072 4.13741 0
M  V30 329 H 24.0649 -4.79668 5.84341 0
M  V30 330 H 25.3329 -5.80104 5.20672 0
M  V30 331 N 29.562 -1.4872 -0.521534 0
M  V30 332 C 30.809 -1.57168 -1.27689 0
M  V30 333 C 31.137 -0.249275 -1.92896 0
M  V30 334 O 30.392 0.761162 -1.80291 0
M  V30 335 C 30.691 -2.66497 -2.38148 0
M  V30 336 C 30.357 -4.08664 -1.90538 0
M  V30 337 C 29.019 -4.47357 -1.77271 0
M  V30 338 C 31.371 -4.97724 -1.54663 0
M  V30 339 C 28.699 -5.72905 -1.26478 0
M  V30 340 C 31.051 -6.2377 -1.05329 0
M  V30 341 C 29.715 -6.61311 -0.906861 0
M  V30 342 H 28.985 -0.575117 -0.467249 0
M  V30 343 H 31.632 -1.82472 -0.581051 0
M  V30 344 H 29.937 -2.35085 -3.13437 0
M  V30 345 H 31.634 -2.70246 -2.96257 0
M  V30 346 H 28.224 -3.78111 -2.01816 0
M  V30 347 H 32.408 -4.68501 -1.63768 0
M  V30 348 H 27.664 -6.00709 -1.13835 0
M  V30 349 H 31.838 -6.9217 -0.76644 0
M  V30 350 H 29.465 -7.5848 -0.511083 0
M  V30 351 N 31.0401 0.771051 -1.3745 0
M  V30 352 C 32.4511 1.34737 -1.29239 0
M  V30 353 C 32.8021 1.96109 0.0596908 0
M  V30 354 O 31.9271 1.93865 0.961534 0
M  V30 355 C 32.5221 2.44973 -2.34037 0
M  V30 356 C 31.0811 2.98372 -2.29458 0
M  V30 357 C 30.2281 1.71595 -2.17831 0
M  V30 358 H 33.1791 0.571256 -1.48062 0
M  V30 359 H 33.2001 3.24471 -1.98744 0
M  V30 360 H 32.7121 2.00276 -3.32432 0
M  V30 361 H 30.8131 3.47443 -1.34589 0
M  V30 362 H 30.9261 3.53939 -3.229 0
M  V30 363 H 29.2901 1.94547 -1.64388 0
M  V30 364 H 30.0731 1.29001 -3.18141 0
M  V30 365 N 32.5182 1.22032 0.997298 0
M  V30 366 C 33.7672 1.03637 1.73038 0
M  V30 367 C 34.0802 -0.429475 1.90827 0
M  V30 368 O 35.2862 -0.732995 2.61418 0
M  V30 369 C 33.7422 1.80582 3.11317 0
M  V30 370 C 33.3502 3.31387 3.01474 0
M  V30 371 C 35.0942 1.70621 3.88701 0
M  V30 372 C 33.0012 4.00791 4.3488 0
M  V30 373 H 31.9312 0.384179 0.648785 0
M  V30 374 H 34.5822 1.4584 1.11368 0
M  V30 375 H 32.9642 1.31175 3.73643 0
M  V30 376 H 34.1382 3.88155 2.4834 0
M  V30 377 H 32.4532 3.41976 2.37575 0
M  V30 378 H 35.0502 2.19799 4.87434 0
M  V30 379 H 35.3932 0.665823 4.10941 0
M  V30 380 H 35.9262 2.17547 3.33044 0
M  V30 381 H 32.6652 5.05064 4.1784 0
M  V30 382 H 32.1852 3.48811 4.87945 0
M  V30 383 H 33.8642 4.06139 5.03647 0
M  V30 384 N 33.9963 -1.19345 1.0293 0
M  V30 385 C 35.2263 -1.92717 0.744563 0
M  V30 386 C 35.6343 -1.75751 -0.700579 0
M  V30 387 O 34.9773 -1.07703 -1.48815 0
M  V30 388 C 35.0393 -3.44828 1.01657 0
M  V30 389 C 34.7033 -3.85564 2.45335 0
M  V30 390 C 35.7003 -3.90286 3.43472 0
M  V30 391 C 33.3853 -4.1719 2.79746 0
M  V30 392 C 35.3793 -4.26065 4.74075 0
M  V30 393 C 33.0663 -4.52642 4.10559 0
M  V30 394 C 34.0643 -4.57054 5.07534 0
M  V30 395 O 33.7523 -4.91685 6.36004 0
M  V30 396 H 33.4843 -0.618977 0.271742 0
M  V30 397 H 36.0383 -1.52415 1.37691 0
M  V30 398 H 34.2683 -3.85314 0.327084 0
M  V30 399 H 35.9573 -3.99437 0.721427 0
M  V30 400 H 36.7233 -3.66002 3.18225 0
M  V30 401 H 32.6023 -4.1294 2.04943 0
M  V30 402 H 36.1463 -4.29423 5.49765 0
M  V30 403 H 32.0433 -4.76383 4.35579 0
M  V30 404 H 32.8113 -5.09631 6.40483 0
M  V30 405 N 35.4744 -0.807222 -1.35358 0
M  V30 406 C 36.7024 -0.400377 -2.02989 0
M  V30 407 C 37.1174 0.988859 -1.60832 0
M  V30 408 O 36.4744 1.63729 -0.806175 0
M  V30 409 C 36.5254 -0.474867 -3.58368 0
M  V30 410 O 36.2464 -1.80933 -3.98992 0
M  V30 411 C 37.7474 -0.0609112 -4.43258 0
M  V30 412 H 34.9674 -0.162587 -0.651004 0
M  V30 413 H 37.5114 -1.09102 -1.72965 0
M  V30 414 H 35.6664 0.167534 -3.87038 0
M  V30 415 H 36.0804 -1.77256 -4.9364 0
M  V30 416 H 37.5544 -0.164145 -5.51756 0
M  V30 417 H 38.0314 0.993831 -4.27808 0
M  V30 418 H 38.6374 -0.676492 -4.19885 0
M  V30 419 N 36.9525 1.47285 -0.560781 0
M  V30 420 C 38.2015 2.01668 -0.035895 0
M  V30 421 C 38.5145 1.44021 1.32353 0
M  V30 422 O 39.7205 1.90088 1.93853 0
M  V30 423 C 38.1765 3.59897 -0.0136659 0
M  V30 424 C 37.7845 4.26536 -1.37006 0
M  V30 425 C 39.5285 4.22017 0.458425 0
M  V30 426 C 37.4355 5.76782 -1.30675 0
M  V30 427 H 36.3655 0.753938 -0.00964879 0
M  V30 428 H 39.0165 1.69243 -0.709166 0
M  V30 429 H 37.3985 3.89301 0.725325 0
M  V30 430 H 38.5725 4.0877 -2.12705 0
M  V30 431 H 36.8875 3.76419 -1.78038 0
M  V30 432 H 39.4845 5.32124 0.524247 0
M  V30 433 H 39.8275 3.89437 1.4712 0
M  V30 434 H 40.3605 3.97159 -0.225818 0
M  V30 435 H 37.0995 6.13988 -2.29564 0
M  V30 436 H 36.6195 5.96875 -0.591622 0
M  V30 437 H 38.2985 6.39063 -1.01033 0
M  V30 438 N 38.4306 0.297415 1.54768 0
M  V30 439 C 39.8416 -0.195947 1.85669 0
M  V30 440 C 40.1926 -1.53707 1.21937 0
M  V30 441 O 39.3176 -2.10164 0.515754 0
M  V30 442 C 39.9126 -0.362318 3.36857 0
M  V30 443 C 38.4716 -0.799901 3.67802 0
M  V30 444 C 37.6186 0.0938578 2.77141 0
M  V30 445 H 40.5696 0.518538 1.4999 0
M  V30 446 H 40.5906 -1.19745 3.61167 0
M  V30 447 H 40.1026 0.613921 3.83214 0
M  V30 448 H 38.2036 -1.78682 3.26961 0
M  V30 449 H 38.3166 -0.621773 4.75048 0
M  V30 450 H 36.6806 -0.426254 2.51108 0
M  V30 451 H 37.4636 1.06639 3.26318 0
M  V30 452 N 39.9087 -1.5758 0.0250728 0
M  V30 453 C 41.1857 -1.82917 -0.692873 0
M  V30 454 C 41.5657 -0.908137 -1.90568 0
M  V30 455 O 40.9137 0.0372298 -2.2847 0
M  V30 456 C 41.1237 -3.32034 -1.07492 0
M  V30 457 C 42.4717 -3.98406 -1.46826 0
M  V30 458 O 43.4957 -3.36505 -1.16801 0
M  V30 459 O 42.3547 -5.07497 -2.02754 0
M  V30 460 H 39.4487 -0.754079 -0.33955 0
M  V30 461 H 41.9947 -1.69619 0.0524456 0
M  V30 462 H 40.7667 -3.90728 -0.211552 0
M  V30 463 H 40.3897 -3.50424 -1.87854 0
M  V30 464 N 41.3868 0.248026 -1.55636 0
M  V30 465 C 42.3338 1.30707 -1.90222 0
M  V30 466 C 43.3038 1.47881 -0.756332 0
M  V30 467 O 44.4888 1.61883 -1.00988 0
M  V30 468 C 41.6288 2.65769 -2.20138 0
M  V30 469 C 40.7418 2.56612 -3.47526 0
M  V30 470 C 39.8768 3.8402 -3.67017 0
M  V30 471 C 38.9158 3.69476 -4.8801 0
M  V30 472 N 38.0528 4.88774 -5.04029 0
M  V30 473 H 42.8928 1.00512 -2.80538 0
M  V30 474 H 40.4298 0.485055 -1.38873 0
M  V30 475 H 42.3878 3.44386 -2.35487 0
M  V30 476 H 41.0178 2.94115 -1.33027 0
M  V30 477 H 40.0698 1.69571 -3.40514 0
M  V30 478 H 41.3818 2.41774 -4.36287 0
M  V30 479 H 40.5358 4.7108 -3.8232 0
M  V30 480 H 39.2748 4.01754 -2.76487 0
M  V30 481 H 38.2798 2.80799 -4.72686 0
M  V30 482 H 39.5048 3.53238 -5.8 0
M  V30 483 H 37.4508 5.0687 -4.16435 0
M  V30 484 H 37.3678 4.76562 -5.86877 0
M  V30 485 H 38.6358 5.77335 -5.23741 0
M  V30 486 N 42.8649 1.48995 0.513639 0
M  V30 487 C 43.7949 1.67636 1.62544 0
M  V30 488 C 44.7759 0.525087 1.61793 0
M  V30 489 O 45.9609 0.759502 1.78732 0
M  V30 490 C 43.0909 1.73114 3.01079 0
M  V30 491 C 42.0449 2.87905 3.16693 0
M  V30 492 C 41.3709 2.78486 4.56453 0
M  V30 493 C 42.6709 4.29005 2.97913 0
M  V30 494 H 44.3649 2.60716 1.47198 0
M  V30 495 H 41.9109 1.25465 0.706714 0
M  V30 496 H 43.8639 1.84742 3.78746 0
M  V30 497 H 42.5879 0.766241 3.17484 0
M  V30 498 H 41.2469 2.75859 2.41448 0
M  V30 499 H 40.8949 1.7993 4.69717 0
M  V30 500 H 40.5949 3.55523 4.67843 0
M  V30 501 H 42.1189 2.92104 5.36197 0
M  V30 502 H 43.5329 4.41798 3.65359 0
M  V30 503 H 41.9299 5.07166 3.20785 0
M  V30 504 H 42.9999 4.44329 1.94165 0
M  V30 505 N 44.343 -0.763751 1.37857 0
M  V30 506 C 45.591 -1.51957 1.33243 0
M  V30 507 C 45.912 -1.94835 -0.0801709 0
M  V30 508 O 45.182 -1.66894 -1.02582 0
M  V30 509 H 43.762 -0.563626 0.49024 0
M  V30 510 H 46.424 -0.908504 1.7243 0
M  V30 511 H 45.52 -2.41523 1.97669 0
M  V30 512 N 45.8211 -1.22559 -0.990812 0
M  V30 513 C 47.2321 -1.04791 -1.54518 0
M  V30 514 C 47.5831 0.387998 -1.92325 0
M  V30 515 O 46.7081 1.27328 -1.74976 0
M  V30 516 C 47.3031 -1.896 -2.80779 0
M  V30 517 C 45.8621 -1.76124 -3.32652 0
M  V30 518 C 45.0091 -1.8594 -2.05722 0
M  V30 519 H 47.9601 -1.36374 -0.811662 0
M  V30 520 H 47.9811 -1.41464 -3.53225 0
M  V30 521 H 47.4931 -2.94101 -2.53231 0
M  V30 522 H 45.5941 -0.743643 -3.65104 0
M  V30 523 H 45.7071 -2.58913 -4.03114 0
M  V30 524 H 44.0711 -1.29403 -2.19379 0
M  V30 525 H 44.8541 -2.91976 -1.80568 0
M  V30 526 N 47.2992 1.18797 -1.03562 0
M  V30 527 C 48.5452 1.89192 -0.746867 0
M  V30 528 C 48.9002 1.78531 0.717245 0
M  V30 529 O 48.1932 1.17137 1.51622 0
M  V30 530 C 48.3872 3.38692 -1.14117 0
M  V30 531 C 48.2162 3.63902 -2.64207 0
M  V30 532 C 46.9862 3.81553 -3.31279 0
M  V30 533 C 49.1842 3.64903 -3.62423 0
M  V30 534 N 47.1662 3.94455 -4.70402 0
M  V30 535 C 48.5372 3.83458 -4.87196 0
M  V30 536 C 50.5922 3.47965 -3.56125 0
M  V30 537 C 49.2952 3.86829 -6.06429 0
M  V30 538 C 51.3212 3.52616 -4.7478 0
M  V30 539 C 50.6832 3.71663 -5.9837 0
M  V30 540 H 46.7822 0.711141 -0.325273 0
M  V30 541 H 49.3662 1.42727 -1.32428 0
M  V30 542 H 47.5372 3.83864 -0.591889 0
M  V30 543 H 49.2692 3.96634 -0.803966 0
M  V30 544 H 46.0242 3.80723 -2.81686 0
M  V30 545 H 46.4482 4.0474 -5.42692 0
M  V30 546 H 51.0902 3.32189 -2.61553 0
M  V30 547 H 48.8082 4.01395 -7.01362 0
M  V30 548 H 52.3942 3.40791 -4.71543 0
M  V30 549 H 51.2742 3.75145 -6.88648 0
M  V30 550 N 48.7773 0.814389 1.34928 0
M  V30 551 C 50.0023 0.410097 2.03305 0
M  V30 552 C 50.4273 -0.973464 1.60951 0
M  V30 553 O 49.7853 -1.63185 0.789964 0
M  V30 554 C 49.8333 0.51049 3.56968 0
M  V30 555 O 48.9373 -0.473035 4.09678 0
M  V30 556 H 48.2783 0.170088 0.641846 0
M  V30 557 H 50.8083 1.10244 1.72358 0
M  V30 558 H 50.8183 0.383135 4.06197 0
M  V30 559 H 49.4933 1.51963 3.87144 0
M  V30 560 H 48.0703 -0.305272 3.71648 0
M  V30 561 N 50.2554 -1.46986 0.568584 0
M  V30 562 C 51.6664 -1.86188 0.138219 0
M  V30 563 C 52.0174 -1.47388 -1.29504 0
M  V30 564 O 51.1424 -0.88219 -1.97602 0
M  V30 565 C 51.7374 -3.3792 0.244065 0
M  V30 566 C 50.2964 -3.76171 -0.131335 0
M  V30 567 C 49.4434 -2.71027 0.586465 0
M  V30 568 H 52.3944 -1.38342 0.777645 0
M  V30 569 H 52.4154 -3.76729 -0.534351 0
M  V30 570 H 51.9274 -3.66128 1.28731 0
M  V30 571 H 50.0284 -3.5358 -1.17526 0
M  V30 572 H 50.1414 -4.78523 0.235146 0
M  V30 573 H 48.5054 -2.54684 0.0282722 0
M  V30 574 H 49.2884 -3.02077 1.63109 0
M  V30 575 N 51.7335 -0.305618 -1.54608 0
M  V30 576 C 52.9825 0.303098 -1.9941 0
M  V30 577 C 53.2955 1.54648 -1.19764 0
M  V30 578 O 54.5015 2.23007 -1.54855 0
M  V30 579 C 52.9575 0.590588 -3.55021 0
M  V30 580 C 52.5655 -0.634719 -4.43481 0
M  V30 581 C 54.3095 1.16025 -4.08336 0
M  V30 582 C 52.2165 -0.320126 -5.90533 0
M  V30 583 H 51.1465 0.117031 -0.744862 0
M  V30 584 H 53.7975 -0.415045 -1.78745 0
M  V30 585 H 52.1795 1.36845 -3.71604 0
M  V30 586 H 53.3535 -1.41079 -4.38672 0
M  V30 587 H 51.6685 -1.12333 -4.00962 0
M  V30 588 H 54.2655 1.40994 -5.15776 0
M  V30 589 H 54.6085 2.10397 -3.5922 0
M  V30 590 H 55.1415 0.443985 -3.95315 0
M  V30 591 H 51.8805 -1.23254 -6.43808 0
M  V30 592 H 51.4005 0.418579 -5.98338 0
M  V30 593 H 53.0795 0.0766241 -6.46955 0
M  V30 594 N 53.2116 1.57565 -0.0334293 0
M  V30 595 C 54.4886 1.83282 0.683163 0
M  V30 596 C 54.8686 0.91823 1.90084 0
M  V30 597 O 54.2166 -0.025113 2.28486 0
M  V30 598 C 54.4266 3.32599 1.0573 0
M  V30 599 C 55.7746 3.99179 1.44711 0
M  V30 600 O 56.7986 3.3712 1.15015 0
M  V30 601 O 55.6576 5.08565 2.0006 0
M  V30 602 H 52.7516 0.755869 0.335546 0
M  V30 603 H 55.2976 1.69589 -0.0614402 0
M  V30 604 H 54.0696 3.90834 0.190828 0
M  V30 605 H 53.6926 3.51415 1.85993 0
M  V30 606 N 54.6897 -0.239769 1.55765 0
M  V30 607 C 55.9387 -0.964754 1.77131 0
M  V30 608 C 56.2517 -1.86213 0.59868 0
M  V30 609 O 57.4577 -2.6244 0.695522 0
M  V30 610 C 55.9137 -1.76552 3.1362 0
M  V30 611 C 55.5217 -0.915185 4.38553 0
M  V30 612 C 57.2657 -2.48281 3.44321 0
M  V30 613 C 55.1727 -1.71225 5.66071 0
M  V30 614 H 54.1027 -0.363953 0.660344 0
M  V30 615 H 56.7537 -0.219181 1.82186 0
M  V30 616 H 55.1357 -2.55331 3.02691 0
M  V30 617 H 56.3097 -0.169217 4.60489 0
M  V30 618 H 54.6247 -0.310889 4.15238 0
M  V30 619 H 57.2217 -3.08382 4.36812 0
M  V30 620 H 57.5647 -3.20256 2.65973 0
M  V30 621 H 58.0977 -1.76507 3.56497 0
M  V30 622 H 54.8367 -1.03612 6.4726 0
M  V30 623 H 54.3567 -2.43331 5.48224 0
M  V30 624 H 56.0357 -2.27758 6.05587 0
M  V30 625 N 56.1678 -1.49265 -0.50573 0
M  V30 626 C 57.1178 -1.6198 -1.60457 0
M  V30 627 C 58.1018 -0.47568 -1.53708 0
M  V30 628 O 59.2938 -0.728392 -1.61318 0
M  V30 629 C 56.4228 -1.68526 -2.99089 0
M  V30 630 C 55.5088 -2.885 -3.10852 0
M  V30 631 N 55.8998 -4.12635 -2.92517 0
M  V30 632 C 54.1978 -2.86338 -3.41945 0
M  V30 633 C 54.8988 -4.93258 -3.08337 0
M  V30 634 N 53.8748 -4.26533 -3.37003 0
M  V30 635 H 57.6768 -2.55681 -1.44928 0
M  V30 636 H 55.1908 -1.45972 -0.711752 0
M  V30 637 H 57.1878 -1.75732 -3.78053 0
M  V30 638 H 55.8478 -0.759584 -3.1569 0
M  V30 639 H 56.8588 -4.42689 -2.68787 0
M  V30 640 H 53.5358 -2.03129 -3.64753 0
M  V30 641 H 54.9258 -6.01856 -2.98695 0
M  V30 642 N 57.6459 0.756429 -1.3826 0
M  V30 643 C 58.5959 1.86069 -1.31766 0
M  V30 644 C 59.5799 1.59621 -0.202483 0
M  V30 645 O 60.7719 1.7149 -0.438211 0
M  V30 646 C 57.9009 3.23742 -1.1422 0
M  V30 647 C 56.9869 3.56091 -2.30348 0
M  V30 648 N 57.3779 3.59517 -3.55783 0
M  V30 649 C 55.6759 3.86341 -2.22838 0
M  V30 650 C 56.3769 3.89052 -4.32451 0
M  V30 651 N 55.3529 4.05736 -3.61772 0
M  V30 652 H 59.1549 1.86992 -2.26741 0
M  V30 653 H 56.6689 0.953643 -1.31451 0
M  V30 654 H 58.6659 4.02761 -1.07652 0
M  V30 655 H 57.3259 3.24073 -0.201763 0
M  V30 656 H 58.3369 3.41347 -3.89491 0
M  V30 657 H 55.0139 3.94404 -1.36937 0
M  V30 658 H 56.4039 3.98349 -5.4108 0
M  V30 659 N 59.124 1.23083 0.984299 0
M  V30 660 C 60.054 1.03292 2.09411 0
M  V30 661 C 61.035 -0.048923 1.7003 0
M  V30 662 O 62.22 0.114967 1.93859 0
M  V30 663 C 59.35 0.619155 3.41736 0
M  V30 664 C 58.304 1.64791 3.95004 0
M  V30 665 C 57.63 1.0897 5.23478 0
M  V30 666 C 58.93 3.03999 4.24714 0
M  V30 667 H 60.624 1.96119 2.26225 0
M  V30 668 H 58.17 0.944344 1.08711 0
M  V30 669 H 60.123 0.467777 4.18796 0
M  V30 670 H 58.847 -0.344786 3.24775 0
M  V30 671 H 57.506 1.78721 3.20085 0
M  V30 672 H 57.154 0.11686 5.02864 0
M  V30 673 H 56.854 1.77704 5.60085 0
M  V30 674 H 58.378 0.950093 6.03163 0
M  V30 675 H 59.792 2.93393 4.92538 0
M  V30 676 H 58.189 3.69936 4.72512 0
M  V30 677 H 59.259 3.53285 3.32142 0
M  V30 678 N 60.6021 -1.18246 1.0419 0
M  V30 679 C 61.8271 -1.92736 0.765996 0
M  V30 680 C 62.2521 -1.75728 -0.67091 0
M  V30 681 O 61.6101 -1.06825 -1.46486 0
M  V30 682 C 61.6581 -3.42148 1.13875 0
M  V30 683 O 60.7621 -4.11548 0.264954 0
M  V30 684 H 60.1031 -0.601238 0.281797 0
M  V30 685 H 62.6331 -1.49942 1.39207 0
M  V30 686 H 62.6431 -3.92858 1.1012 0
M  V30 687 H 61.3181 -3.53848 2.18551 0
M  V30 688 H 59.8951 -3.71137 0.362226 0
M  V30 689 N 62.0802 -0.821533 -1.34494 0
M  V30 690 C 63.3202 -0.414785 -2.00147 0
M  V30 691 C 63.6842 1.00299 -1.6372 0
M  V30 692 O 64.8852 1.51255 -2.22206 0
M  V30 693 C 63.1562 -0.609403 -3.52166 0
M  V30 694 S 64.7152 -0.295297 -4.37805 0
M  V30 695 H 61.5332 -0.15679 -0.693497 0
M  V30 696 H 64.1352 -1.06705 -1.63812 0
M  V30 697 H 62.8392 -1.64096 -3.76166 0
M  V30 698 H 62.3702 0.0576414 -3.93358 0
M  V30 699 H 64.3852 0.891531 -4.88125 0
M  V30 700 N 63.5583 1.46682 -0.576371 0
M  V30 701 C 64.9693 1.86112 -0.148091 0
M  V30 702 C 65.3203 1.48073 1.2872 0
M  V30 703 O 64.4453 0.892656 1.97131 0
M  V30 704 C 65.0403 3.37786 -0.261982 0
M  V30 705 C 63.5993 3.76235 0.111384 0
M  V30 706 C 62.7463 2.70713 -0.60083 0
M  V30 707 H 65.6973 1.37927 -0.78497 0
M  V30 708 H 65.7183 3.77007 0.514364 0
M  V30 709 H 65.2303 3.6544 -1.30671 0
M  V30 710 H 63.3313 3.54198 1.15649 0
M  V30 711 H 63.4443 4.78391 -0.26052 0
M  V30 712 H 61.8083 2.54666 -0.0417783 0
M  V30 713 H 62.5913 3.01208 -1.64708 0
M  V30 714 N 65.0364 0.313813 1.54444 0
M  V30 715 C 65.9844 -0.572171 2.25453 0
M  V30 716 C 66.9784 -1.12657 1.2651 0
M  V30 717 O 68.1844 -1.07573 1.44319 0
M  V30 718 H 64.5594 -0.203146 0.724041 0
M  V30 719 H 66.5304 0.0491145 2.9836 0
M  V30 720 C 65.2794 -1.72626 3.0182 0
M  V30 721 H 64.6024 -1.30891 3.77767 0
M  V30 722 H 66.0424 -2.32199 3.54767 0
M  V30 723 C 64.5014 -2.63806 2.09542 0
M  V30 724 O 65.0314 -3.65256 1.67185 0
M  V30 725 N 63.2374 -2.31824 1.75232 0
M  V30 726 H 62.7844 -1.49368 2.09873 0
M  V30 727 H 62.7424 -2.93095 1.13767 0
M  V30 728 N 66.5145 -1.57545 0.0417849 0
M  V30 729 C 67.4625 -2.12148 -0.953723 0
M  V30 730 C 68.4565 -1.05104 -1.32852 0
M  V30 731 O 69.6625 -1.23524 -1.30927 0
M  V30 732 H 66.0375 -0.677957 -0.325389 0
M  V30 733 H 68.0085 -2.94707 -0.467991 0
M  V30 734 C 66.7575 -2.6739 -2.22257 0
M  V30 735 H 66.0805 -3.49413 -1.94295 0
M  V30 736 H 67.5205 -3.09227 -2.90094 0
M  V30 737 C 65.9795 -1.60723 -2.96091 0
M  V30 738 O 66.5095 -1.01449 -3.88679 0
M  V30 739 N 64.7155 -1.32466 -2.58652 0
M  V30 740 H 64.2625 -1.80856 -1.83437 0
M  V30 741 H 64.2205 -0.61325 -3.08361 0
M  V30 742 N 67.9926 0.231505 -1.5589 0
M  V30 743 C 68.9226 1.29022 -1.94617 0
M  V30 744 C 69.9036 1.4941 -0.813067 0
M  V30 745 O 71.0886 1.6176 -1.07459 0
M  V30 746 C 68.2186 2.64199 -2.25424 0
M  V30 747 C 67.1726 2.58484 -3.41131 0
M  V30 748 C 66.4986 3.97599 -3.57518 0
M  V30 749 C 67.7986 2.1413 -4.76388 0
M  V30 750 H 69.4926 0.968563 -2.83301 0
M  V30 751 H 67.0386 0.464479 -1.36303 0
M  V30 752 H 68.9916 3.38413 -2.51107 0
M  V30 753 H 67.7156 2.98032 -1.33583 0
M  V30 754 H 66.3746 1.86727 -3.15481 0
M  V30 755 H 66.0226 4.28723 -2.6307 0
M  V30 756 H 65.7226 3.94659 -4.35337 0
M  V30 757 H 67.2466 4.7349 -3.85538 0
M  V30 758 H 68.6606 2.78083 -5.01341 0
M  V30 759 H 67.0576 2.2227 -5.57419 0
M  V30 760 H 68.1276 1.09331 -4.72414 0
M  V30 761 N 69.4707 1.49531 0.497807 0
M  V30 762 C 70.7167 1.59415 1.25358 0
M  V30 763 C 71.0497 0.281422 1.9215 0
M  V30 764 O 70.3247 -0.715249 1.80871 0
M  V30 765 C 70.6077 2.75566 2.3181 0
M  V30 766 C 70.4607 4.16642 1.69498 0
M  V30 767 C 71.7797 2.87347 3.33346 0
M  V30 768 H 68.8987 0.580244 0.454408 0
M  V30 769 H 71.5407 1.81827 0.551262 0
M  V30 770 H 69.6907 2.56587 2.91711 0
M  V30 771 H 71.3627 4.47145 1.13399 0
M  V30 772 H 69.6057 4.22141 0.998978 0
M  V30 773 H 70.2767 4.93792 2.46725 0
M  V30 774 H 72.7527 3.04634 2.83438 0
M  V30 775 H 71.6287 3.70289 4.05188 0
M  V30 776 H 71.8897 1.96834 3.95865 0
M  V30 777 N 70.9488 -0.749086 1.3866 0
M  V30 778 C 72.1948 -1.51056 1.35314 0
M  V30 779 C 72.5278 -1.94121 -0.0553751 0
M  V30 780 O 71.8028 -1.65763 -1.01749 0
M  V30 781 C 72.0858 -2.76003 2.31288 0
M  V30 782 C 71.9388 -2.39047 3.8102 0
M  V30 783 C 73.2578 -3.78046 2.2532 0
M  V30 784 H 70.3768 -0.547972 0.492844 0
M  V30 785 H 73.0188 -0.857628 1.69543 0
M  V30 786 H 71.1688 -3.31716 2.02229 0
M  V30 787 H 72.8408 -1.89074 4.20771 0
M  V30 788 H 71.0838 -1.71449 3.98482 0
M  V30 789 H 71.7548 -3.28462 4.4364 0
M  V30 790 H 74.2308 -3.31884 2.50983 0
M  V30 791 H 73.1068 -4.63159 2.94576 0
M  V30 792 H 73.3678 -4.23957 1.25352 0
M  V30 793 N 72.4269 -1.23603 -0.977757 0
M  V30 794 C 73.3369 -1.03632 -2.1047 0
M  V30 795 C 74.3529 0.0199435 -1.73989 0
M  V30 796 O 75.5289 -0.176076 -2.00629 0
M  V30 797 C 72.5939 -0.63276 -3.40877 0
M  V30 798 C 71.6549 -1.76437 -3.91367 0
M  V30 799 C 70.8879 -1.37997 -5.15551 0
M  V30 800 O 71.1109 -0.265357 -5.69782 0
M  V30 801 O 70.0449 -2.20201 -5.60174 0
M  V30 802 H 73.8709 -1.98086 -2.30208 0
M  V30 803 H 71.4559 -1.02332 -1.08851 0
M  V30 804 H 73.3379 -0.418761 -4.19314 0
M  V30 805 H 72.0129 0.282754 -3.22463 0
M  V30 806 H 70.9199 -2.03304 -3.14036 0
M  V30 807 H 72.2529 -2.6583 -4.14241 0
M  V30 808 N 73.905 1.17692 -1.04816 0
M  V30 809 C 75.182 1.83768 -0.669963 0
M  V30 810 C 75.562 1.93232 0.849986 0
M  V30 811 O 74.91 1.46397 1.75443 0
M  V30 812 C 75.12 3.21641 -1.35455 0
M  V30 813 C 76.468 3.97592 -1.49017 0
M  V30 814 O 77.492 3.31107 -1.31326 0
M  V30 815 O 76.351 5.16729 -1.77914 0
M  V30 816 H 73.445 0.792799 -0.235368 0
M  V30 817 H 75.991 1.25021 -1.14751 0
M  V30 818 H 74.763 3.097 -2.39168 0
M  V30 819 H 74.386 3.88052 -0.866107 0
M  V30 820 N 75.3831 0.828654 1.34056 0
M  V30 821 C 76.2931 0.256725 2.33191 0
M  V30 822 C 77.3091 -0.611898 1.62886 0
M  V30 823 O 78.4851 -0.51844 1.94613 0
M  V30 824 C 75.5501 -0.567238 3.42028 0
M  V30 825 C 74.6111 0.324458 4.28072 0
M  V30 826 C 73.8441 -0.460274 5.31712 0
M  V30 827 O 74.0671 -1.693 5.44696 0
M  V30 828 O 73.0011 0.160391 6.01686 0
M  V30 829 H 76.8271 1.07739 2.83947 0
M  V30 830 H 74.4121 0.59093 1.37217 0
M  V30 831 H 76.2941 -1.03582 4.08471 0
M  V30 832 H 74.9691 -1.36513 2.93506 0
M  V30 833 H 73.8761 0.840659 3.64532 0
M  V30 834 H 75.2091 1.08685 4.8005 0
M  V30 835 N 76.8612 -1.46375 0.584142 0
M  V30 836 C 78.1092 -2.01978 0.0701287 0
M  V30 837 C 78.4302 -1.4579 -1.295 0
M  V30 838 O 77.7002 -0.64314 -1.85042 0
M  V30 839 H 76.2802 -0.746648 0.0229345 0
M  V30 840 H 78.9422 -1.79461 0.760245 0
M  V30 841 H 78.0382 -3.121 0.0022064 0
M  V30 842 N 78.3393 -0.321999 -1.54275 0
M  V30 843 C 79.5793 0.281657 -2.0245 0
M  V30 844 C 79.9433 1.49468 -1.20513 0
M  V30 845 O 81.1443 2.17109 -1.58484 0
M  V30 846 C 79.4153 0.609014 -3.52173 0
M  V30 847 S 80.9743 1.19255 -4.22284 0
M  V30 848 H 77.7923 0.0852825 -0.705867 0
M  V30 849 H 80.3943 -0.454758 -1.90137 0
M  V30 850 H 79.0983 -0.281982 -4.0943 0
M  V30 851 H 78.6293 1.37567 -3.68563 0
M  V30 852 H 80.6443 2.47944 -4.29812 0
M  V30 853 N 79.8174 1.5752 -0.0501392 0
M  V30 854 C 81.0454 1.96963 0.633492 0
M  V30 855 C 81.4604 0.927631 1.6444 0
M  V30 856 O 80.8174 -0.0882665 1.82286 0
M  V30 857 C 80.8684 3.36487 1.32132 0
M  V30 858 O 80.5894 4.36693 0.350894 0
M  V30 859 C 82.0904 3.90682 2.09481 0
M  V30 860 H 79.3104 0.648244 0.173266 0
M  V30 861 H 81.8544 2.0417 -0.116134 0
M  V30 862 H 80.0094 3.30434 2.02218 0
M  V30 863 H 80.4234 5.17702 0.841735 0
M  V30 864 H 81.8974 4.90591 2.5303 0
M  V30 865 H 82.3744 3.26053 2.94255 0
M  V30 866 H 82.9804 4.00069 1.44307 0
M  V30 867 N 81.2955 -0.223234 1.56011 0
M  V30 868 C 82.2435 -1.29627 1.93131 0
M  V30 869 C 83.2375 -1.48608 0.813146 0
M  V30 870 O 84.4435 -1.49802 0.997966 0
M  V30 871 H 80.8185 -0.434563 0.613726 0
M  V30 872 H 82.7895 -0.955995 2.82672 0
M  V30 873 C 81.5385 -2.63983 2.26292 0
M  V30 874 H 80.8615 -2.50185 3.11846 0
M  V30 875 H 82.3015 -3.3788 2.56151 0
M  V30 876 C 80.7605 -3.18866 1.08747 0
M  V30 877 O 81.2905 -4.00192 0.347727 0
M  V30 878 N 79.4965 -2.77217 0.871743 0
M  V30 879 H 79.0435 -2.1119 1.47501 0
M  V30 880 H 79.0015 -3.1428 0.0869905 0
M  V30 881 N 82.7736 -1.49793 -0.48987 0
M  V30 882 C 83.7036 -1.70201 -1.59856 0
M  V30 883 C 84.6846 -0.55076 -1.60937 0
M  V30 884 O 85.8696 -0.787841 -1.77501 0
M  V30 885 C 82.9996 -1.77882 -2.98287 0
M  V30 886 C 81.9536 -2.92907 -3.12073 0
M  V30 887 C 81.2796 -2.85712 -4.51965 0
M  V30 888 C 82.5796 -4.3369 -2.91051 0
M  V30 889 H 84.2736 -2.63025 -1.43032 0
M  V30 890 H 81.8196 -1.26574 -0.686664 0
M  V30 891 H 83.7726 -1.90744 -3.75759 0
M  V30 892 H 82.4966 -0.816653 -3.16225 0
M  V30 893 H 81.1556 -2.79665 -2.37029 0
M  V30 894 H 80.8036 -1.8738 -4.66795 0
M  V30 895 H 80.5036 -3.62921 -4.62128 0
M  V30 896 H 82.0276 -3.00598 -5.31482 0
M  V30 897 H 83.4416 -4.47555 -3.58284 0
M  V30 898 H 81.8386 -5.12205 -3.12675 0
M  V30 899 H 82.9086 -4.47362 -1.87071 0
M  V30 900 N 84.2517 0.741722 -1.39055 0
M  V30 901 C 85.4767 1.53607 -1.39354 0
M  V30 902 C 85.9017 1.88096 0.0116905 0
M  V30 903 O 85.2597 1.5143 0.996924 0
M  V30 904 C 85.3077 2.80441 -2.26682 0
M  V30 905 O 84.4117 3.76088 -1.69208 0
M  V30 906 H 83.7527 0.464142 -0.474835 0
M  V30 907 H 86.2827 0.915665 -1.82967 0
M  V30 908 H 86.2927 3.29246 -2.40959 0
M  V30 909 H 84.9677 2.5467 -3.2881 0
M  V30 910 H 83.5447 3.34833 -1.64138 0
M  V30 911 N 85.7298 1.2412 0.971189 0
M  V30 912 C 86.9778 1.07668 1.71032 0
M  V30 913 C 87.2988 -0.385797 1.91146 0
M  V30 914 O 86.5688 -1.27569 1.4867 0
M  V30 915 H 85.1488 0.395429 0.633755 0
M  V30 916 H 87.8108 1.55984 1.16855 0
M  V30 917 H 86.9068 1.57195 2.69622 0
M  V30 918 N 87.2079 -1.17134 1.05439 0
M  V30 919 C 88.4549 -1.87456 0.765942 0
M  V30 920 C 88.7829 -1.81189 -0.707153 0
M  V30 921 O 88.0379 -1.21633 -1.5331 0
M  V30 922 C 88.3369 -3.36833 1.19491 0
M  V30 923 C 88.0029 -3.63301 2.67063 0
M  V30 924 C 86.6649 -3.70234 3.07376 0
M  V30 925 C 89.0169 -3.74575 3.62413 0
M  V30 926 C 86.3449 -3.85933 4.41896 0
M  V30 927 C 88.6969 -3.91793 4.9667 0
M  V30 928 C 87.3609 -3.96966 5.36633 0
M  V30 929 H 86.6309 -0.685948 0.280278 0
M  V30 930 H 89.2779 -1.38556 1.32192 0
M  V30 931 H 87.5829 -3.87807 0.557969 0
M  V30 932 H 89.2799 -3.89611 0.948893 0
M  V30 933 H 85.8699 -3.58532 2.34846 0
M  V30 934 H 90.0539 -3.68537 3.32406 0
M  V30 935 H 85.3099 -3.88187 4.72357 0
M  V30 936 H 89.4839 -3.99458 5.70444 0
M  V30 937 H 87.1109 -4.08883 6.40874 0
M  V30 938 N 88.686 -0.835752 -1.33615 0
M  V30 939 C 89.911 -0.442389 -2.02627 0
M  V30 940 C 90.336 0.947735 -1.62479 0
M  V30 941 O 89.694 1.61907 -0.815826 0
M  V30 942 C 89.742 -0.567216 -3.56111 0
M  V30 943 O 88.846 0.407799 -4.10379 0
M  V30 944 H 88.187 -0.180278 -0.639059 0
M  V30 945 H 90.717 -1.12972 -1.70583 0
M  V30 946 H 90.727 -0.447708 -4.05536 0
M  V30 947 H 89.402 -1.58103 -3.84677 0
M  V30 948 H 87.979 0.246107 -3.72087 0
M  V30 949 N 90.1641 1.46063 -0.591896 0
M  V30 950 C 91.3941 2.06418 -0.0867676 0
M  V30 951 C 91.8021 1.43975 1.22751 0
M  V30 952 O 91.1451 0.542531 1.75506 0
M  V30 953 C 91.2071 3.59213 0.143725 0
M  V30 954 C 90.8711 4.439 -1.08635 0
M  V30 955 C 91.8681 4.79864 -2.00067 0
M  V30 956 C 89.5531 4.84896 -1.31077 0
M  V30 957 C 91.5471 5.55661 -3.12282 0
M  V30 958 C 89.2341 5.6045 -2.43596 0
M  V30 959 C 90.2321 5.95747 -3.34027 0
M  V30 960 O 89.9201 6.69772 -4.4459 0
M  V30 961 H 89.6521 0.673443 -0.0587447 0
M  V30 962 H 92.2061 1.88539 -0.814994 0
M  V30 963 H 90.4361 3.75433 0.926668 0
M  V30 964 H 92.1251 4.01463 0.5985 0
M  V30 965 H 92.8911 4.48763 -1.83947 0
M  V30 966 H 88.7701 4.56867 -0.61594 0
M  V30 967 H 92.3141 5.8313 -3.82891 0
M  V30 968 H 88.2111 5.90965 -2.59674 0
M  V30 969 H 88.9791 6.88207 -4.43073 0
M  V30 970 N 91.6422 0.330177 1.54103 0
M  V30 971 C 92.5752 -0.575477 2.20825 0
M  V30 972 C 93.5532 -1.11064 1.18758 0
M  V30 973 O 94.7372 -1.17341 1.47524 0
M  V30 974 C 91.8642 -1.79032 2.87516 0
M  V30 975 C 90.9102 -1.38581 4.03358 0
M  V30 976 S 91.7432 -0.416911 5.33875 0
M  V30 977 C 92.8992 -1.63889 6.04062 0
M  V30 978 H 93.1322 -0.00872114 2.97299 0
M  V30 979 H 90.6652 0.114254 1.53977 0
M  V30 980 H 92.6232 -2.48734 3.2656 0
M  V30 981 H 91.2842 -2.32827 2.10832 0
M  V30 982 H 90.4772 -2.29123 4.48908 0
M  V30 983 H 90.0792 -0.768419 3.66021 0
M  V30 984 H 92.3712 -2.57536 6.26643 0
M  V30 985 H 93.3142 -1.22542 6.97416 0
M  V30 986 H 93.7222 -1.82887 5.34053 0
M  V30 987 N 93.1203 -1.57491 0.0584922 0
M  V30 988 C 94.0303 -2.15448 -0.928414 0
M  V30 989 C 95.0463 -1.11416 -1.3365 0
M  V30 990 O 96.2223 -1.4362 -1.41193 0
M  V30 991 C 93.2873 -2.69393 -2.18239 0
M  V30 992 C 92.3483 -3.88249 -1.83196 0
M  V30 993 C 91.5813 -4.39613 -3.02616 0
M  V30 994 O 91.8043 -3.90023 -4.16219 0
M  V30 995 O 90.7383 -5.31111 -2.83204 0
M  V30 996 H 94.5643 -3.00112 -0.465483 0
M  V30 997 H 92.1493 -1.48499 -0.163826 0
M  V30 998 H 94.0313 -3.04026 -2.91798 0
M  V30 999 H 92.7063 -1.87796 -2.63656 0
M  V30 1000 H 91.6133 -3.58492 -1.06931 0
M  V30 1001 H 92.9463 -4.71098 -1.42573 0
M  V30 1002 N 94.5984 0.214957 -1.56127 0
M  V30 1003 C 95.5284 1.2695 -1.95974 0
M  V30 1004 C 96.5094 1.48539 -0.828868 0
M  V30 1005 O 97.6944 1.60611 -1.09168 0
M  V30 1006 C 94.8244 2.61794 -2.28214 0
M  V30 1007 C 93.7784 2.54851 -3.43853 0
M  V30 1008 C 93.1044 3.93785 -3.61715 0
M  V30 1009 C 94.4044 2.09065 -4.78632 0
M  V30 1010 H 96.0984 0.93846 -2.84312 0
M  V30 1011 H 93.6444 0.449996 -1.36788 0
M  V30 1012 H 95.5974 3.35731 -2.54682 0
M  V30 1013 H 94.3214 2.96599 -1.36736 0
M  V30 1014 H 92.9804 1.8337 -3.17444 0
M  V30 1015 H 92.6284 4.25908 -2.67602 0
M  V30 1016 H 92.3284 3.90019 -4.39498 0
M  V30 1017 H 93.8524 4.69374 -3.90539 0
M  V30 1018 H 95.2664 2.7275 -5.04262 0
M  V30 1019 H 93.6634 2.16346 -5.59745 0
M  V30 1020 H 94.7334 1.04315 -4.73547 0
M  V30 1021 N 96.0765 1.50051 0.48192 0
M  V30 1022 C 97.0235 1.68122 1.58125 0
M  V30 1023 C 97.9935 0.522545 1.57666 0
M  V30 1024 O 99.1785 0.751844 1.75362 0
M  V30 1025 C 96.3185 1.77142 2.96167 0
M  V30 1026 C 95.4315 3.0444 3.06497 0
M  V30 1027 C 94.5665 3.04321 4.35387 0
M  V30 1028 C 93.6055 4.26118 4.3942 0
M  V30 1029 N 92.7425 4.238 5.59766 0
M  V30 1030 H 97.5825 2.6198 1.42022 0
M  V30 1031 H 95.1195 1.29877 0.690687 0
M  V30 1032 H 97.0775 1.80352 3.76203 0
M  V30 1033 H 95.7075 0.867329 3.1093 0
M  V30 1034 H 94.7595 3.10752 2.19402 0
M  V30 1035 H 96.0715 3.94426 3.05336 0
M  V30 1036 H 95.2255 3.062 5.23762 0
M  V30 1037 H 93.9645 2.12147 4.39141 0
M  V30 1038 H 92.9695 4.24463 3.49444 0
M  V30 1039 H 94.1945 5.19507 4.37366 0
M  V30 1040 H 92.1405 3.34474 5.64326 0
M  V30 1041 H 92.0575 5.07542 5.60301 0
M  V30 1042 H 93.3255 4.2981 6.50295 0
M  V30 1043 N 97.5546 -0.734337 1.39446 0
M  V30 1044 C 98.8006 -1.49613 1.36908 0
M  V30 1045 C 99.1336 -1.94169 -0.0347829 0
M  V30 1046 O 98.4086 -1.66833 -0.999847 0
M  V30 1047 C 98.6916 -2.73534 2.34203 0
M  V30 1048 C 98.5446 -2.34993 3.83534 0
M  V30 1049 C 99.8636 -3.75635 2.29317 0
M  V30 1050 H 96.9826 -0.542714 0.498629 0
M  V30 1051 H 99.6246 -0.839597 1.70443 0
M  V30 1052 H 97.7746 -3.29553 2.05736 0
M  V30 1053 H 99.4466 -1.84601 4.22753 0
M  V30 1054 H 97.6896 -1.67213 4.00278 0
M  V30 1055 H 98.3606 -3.23738 4.47099 0
M  V30 1056 H 100.837 -3.29203 2.54489 0
M  V30 1057 H 99.7126 -4.60008 2.99472 0
M  V30 1058 H 99.9736 -4.22603 1.29842 0
M  V30 1059 N 99.0327 -1.24633 -0.964593 0
M  V30 1060 C 100.281 -1.08573 -1.70459 0
M  V30 1061 C 100.602 0.375655 -1.91347 0
M  V30 1062 O 99.8717 1.26779 -1.49345 0
M  V30 1063 H 98.4517 -0.398784 -0.631649 0
M  V30 1064 H 101.114 -1.56601 -1.16026 0
M  V30 1065 H 100.21 -1.58623 -2.68785 0
M  V30 1066 N 100.511 1.16574 -1.06058 0
M  V30 1067 C 101.741 1.90675 -0.795397 0
M  V30 1068 C 102.149 1.77547 0.653735 0
M  V30 1069 O 101.492 1.11611 1.45907 0
M  V30 1070 C 101.554 3.42011 -1.10764 0
M  V30 1071 C 101.218 3.78924 -2.55471 0
M  V30 1072 C 102.215 3.81042 -3.53699 0
M  V30 1073 C 99.8998 4.09626 -2.90708 0
M  V30 1074 C 101.894 4.13346 -4.85205 0
M  V30 1075 C 99.5808 4.41597 -4.22416 0
M  V30 1076 C 100.579 4.43436 -5.19474 0
M  V30 1077 O 100.267 4.74649 -6.48817 0
M  V30 1078 H 99.9988 0.611554 -0.288058 0
M  V30 1079 H 102.553 1.48711 -1.41683 0
M  V30 1080 H 100.783 3.84312 -0.429128 0
M  V30 1081 H 102.472 3.97384 -0.827077 0
M  V30 1082 H 103.238 3.57437 -3.27817 0
M  V30 1083 H 99.1168 4.07361 -2.15819 0
M  V30 1084 H 102.661 4.14696 -5.60957 0
M  V30 1085 H 98.5578 4.64667 -4.48056 0
M  V30 1086 H 99.3258 4.9247 -6.5377 0
M  V30 1087 N 101.989 0.842826 1.3317 0
M  V30 1088 C 103.238 0.436738 1.96915 0
M  V30 1089 C 103.551 -1.01025 1.67491 0
M  V30 1090 O 104.757 -1.5212 2.24881 0
M  V30 1091 C 103.213 0.730021 3.52418 0
M  V30 1092 C 102.821 2.19195 3.90714 0
M  V30 1093 C 104.565 0.391076 4.22695 0
M  V30 1094 C 102.472 2.42907 5.39212 0
M  V30 1095 H 101.402 0.15958 0.736919 0
M  V30 1096 H 104.053 1.03196 1.51733 0
M  V30 1097 H 102.435 0.0643755 3.95948 0
M  V30 1098 H 103.609 2.8984 3.58231 0
M  V30 1099 H 101.924 2.49425 3.33431 0
M  V30 1100 H 104.521 0.545817 5.31907 0
M  V30 1101 H 104.864 -0.666294 4.10933 0
M  V30 1102 H 105.397 1.01212 3.84709 0
M  V30 1103 H 102.136 3.47224 5.55982 0
M  V30 1104 H 101.656 1.76827 5.73142 0
M  V30 1105 H 103.335 2.2626 6.06148 0
M  V30 1106 N 103.467 -1.45747 0.599634 0
M  V30 1107 C 104.692 -2.07178 0.0960198 0
M  V30 1108 C 105.117 -1.44268 -1.207 0
M  V30 1109 O 104.475 -0.532503 -1.73303 0
M  V30 1110 C 104.523 -3.60579 -0.0385348 0
M  V30 1111 O 103.627 -3.97713 -1.0908 0
M  V30 1112 H 102.968 -0.660251 0.0704593 0
M  V30 1113 H 105.498 -1.87124 0.827385 0
M  V30 1114 H 105.508 -4.07298 -0.239304 0
M  V30 1115 H 104.183 -4.05756 0.912947 0
M  V30 1116 H 102.76 -3.62678 -0.867135 0
M  V30 1117 N 104.945 -0.338344 -1.53925 0
M  V30 1118 C 105.908 0.508299 -2.23493 0
M  V30 1119 C 106.908 1.03175 -1.23335 0
M  V30 1120 O 108.098 0.921826 -1.47811 0
M  V30 1121 C 105.23 1.70754 -2.95052 0
M  V30 1122 H 106.423 -0.100058 -2.99733 0
M  V30 1123 H 103.976 -0.0896198 -1.56043 0
M  V30 1124 H 104.711 2.35474 -2.22986 0
M  V30 1125 H 104.496 1.33946 -3.68512 0
M  V30 1126 H 105.986 2.30818 -3.48013 0
M  V30 1127 N 106.423 1.57458 -0.0668435 0
M  V30 1128 C 107.672 1.92477 0.602947 0
M  V30 1129 C 107.985 0.948419 1.71068 0
M  V30 1130 O 109.191 1.19124 2.43971 0
M  V30 1131 C 107.647 3.41903 1.12383 0
M  V30 1132 C 107.255 4.47975 0.04737 0
M  V30 1133 C 108.999 3.85931 1.76797 0
M  V30 1134 C 106.906 5.88529 0.582022 0
M  V30 1135 H 105.836 0.718387 0.22899 0
M  V30 1136 H 108.487 1.82978 -0.138276 0
M  V30 1137 H 106.869 3.46459 1.91787 0
M  V30 1138 H 108.043 4.55029 -0.726978 0
M  V30 1139 H 106.358 4.13384 -0.500243 0
M  V30 1140 H 108.955 4.88322 2.17821 0
M  V30 1141 H 109.298 3.23029 2.62599 0
M  V30 1142 H 109.831 3.83958 1.04024 0
M  V30 1143 H 106.57 6.55065 -0.238721 0
M  V30 1144 H 106.09 5.85004 1.324 0
M  V30 1145 H 107.769 6.38258 1.05999 0
M  V30 1146 N 107.901 -0.206675 1.56239 0
M  V30 1147 C 108.848 -1.25617 1.93621 0
M  V30 1148 C 109.818 -1.45824 0.795274 0
M  V30 1149 O 111.003 -1.59148 1.05245 0
M  V30 1150 C 108.143 -2.59839 2.27107 0
M  V30 1151 C 107.256 -2.47308 3.54207 0
M  V30 1152 C 106.391 -3.74155 3.7707 0
M  V30 1153 C 105.43 -3.56407 4.97635 0
M  V30 1154 N 104.567 -4.75238 5.1681 0
M  V30 1155 H 109.407 -0.930383 2.83104 0
M  V30 1156 H 106.944 -0.448065 1.4011 0
M  V30 1157 H 108.902 -3.38021 2.44535 0
M  V30 1158 H 107.532 -2.90485 1.40778 0
M  V30 1159 H 106.584 -1.60483 3.4489 0
M  V30 1160 H 107.896 -2.30122 4.42544 0
M  V30 1161 H 107.05 -4.60778 3.94675 0
M  V30 1162 H 105.789 -3.94282 2.87042 0
M  V30 1163 H 104.794 -2.68168 4.79964 0
M  V30 1164 H 106.019 -3.37736 5.89161 0
M  V30 1165 H 103.965 -4.95651 4.29728 0
M  V30 1166 H 103.882 -4.60835 5.99306 0
M  V30 1167 H 105.15 -5.63246 5.38864 0
M  V30 1168 N 109.379 -1.50304 -0.473955 0
M  V30 1169 C 110.312 -1.63595 -1.59097 0
M  V30 1170 C 111.29 -0.484142 -1.55225 0
M  V30 1171 O 112.474 -0.703271 -1.7489 0
M  V30 1172 C 109.601 -1.61589 -2.97669 0
M  V30 1173 C 108.647 -2.82295 -3.19705 0
M  V30 1174 S 109.48 -4.43635 -2.99913 0
M  V30 1175 C 110.636 -4.44317 -4.40832 0
M  V30 1176 H 110.869 -2.58082 -1.47583 0
M  V30 1177 H 108.402 -1.39531 -0.661087 0
M  V30 1178 H 110.36 -1.61116 -3.7756 0
M  V30 1179 H 109.021 -0.683421 -3.06575 0
M  V30 1180 H 108.214 -2.77188 -4.20931 0
M  V30 1181 H 107.816 -2.8032 -2.47582 0
M  V30 1182 H 110.108 -4.17703 -5.33414 0
M  V30 1183 H 111.051 -5.45911 -4.50984 0
M  V30 1184 H 111.459 -3.74059 -4.22777 0
M  V30 1185 N 110.857 0.726932 -1.39834 0
M  V30 1186 C 111.805 1.86235 -1.39353 0
M  V30 1187 C 112.799 1.67144 -0.275555 0
M  V30 1188 O 114.005 1.74387 -0.44601 0
M  V30 1189 H 110.38 0.613174 -0.43534 0
M  V30 1190 H 112.351 1.83756 -2.35109 0
M  V30 1191 C 111.1 3.23995 -1.26185 0
M  V30 1192 H 110.423 3.39285 -2.11484 0
M  V30 1193 H 111.863 4.03609 -1.29907 0
M  V30 1194 C 110.322 3.36888 0.0290018 0
M  V30 1195 O 110.852 3.89152 0.99619 0
M  V30 1196 N 109.058 2.90446 0.0947437 0
M  V30 1197 H 108.605 2.48102 -0.693035 0
M  V30 1198 H 108.563 2.99451 0.957932 0
M  V30 1199 N 112.336 1.25143 0.95797 0
M  V30 1200 C 113.584 1.09476 1.69881 0
M  V30 1201 C 113.905 -0.365502 1.91544 0
M  V30 1202 O 113.175 -1.25985 1.50015 0
M  V30 1203 H 111.755 0.402128 0.629525 0
M  V30 1204 H 114.417 1.57214 1.15194 0
M  V30 1205 H 113.513 1.60046 2.6794 0
M  V30 1206 N 113.814 -1.1601 1.06675 0
M  V30 1207 C 115.061 -1.86633 0.785781 0
M  V30 1208 C 115.389 -1.81929 -0.687896 0
M  V30 1209 O 114.644 -1.23253 -1.52011 0
M  V30 1210 C 114.943 -3.35547 1.23057 0
M  V30 1211 C 114.609 -3.60448 2.70902 0
M  V30 1212 C 113.271 -3.66954 3.11285 0
M  V30 1213 C 115.623 -3.7071 3.66365 0
M  V30 1214 C 112.951 -3.81225 4.45965 0
M  V30 1215 C 115.303 -3.86503 5.00797 0
M  V30 1216 C 113.967 -3.91252 5.40813 0
M  V30 1217 H 113.237 -0.682937 0.287538 0
M  V30 1218 H 115.884 -1.37146 1.33654 0
M  V30 1219 H 114.189 -3.87193 0.59907 0
M  V30 1220 H 115.886 -3.88583 0.990163 0
M  V30 1221 H 112.476 -3.56021 2.38636 0
M  V30 1222 H 116.66 -3.64991 3.36296 0
M  V30 1223 H 111.916 -3.83155 4.76447 0
M  V30 1224 H 116.09 -3.93385 5.74649 0
M  V30 1225 H 113.717 -4.02062 6.45174 0
M  V30 1226 N 115.292 -0.849877 -1.32721 0
M  V30 1227 C 116.52 -0.464754 -2.01613 0
M  V30 1228 C 116.935 0.937191 -1.63897 0
M  V30 1229 O 116.292 1.61081 -0.857856 0
M  V30 1230 C 116.343 -0.588638 -3.56675 0
M  V30 1231 O 116.064 -1.93535 -3.93034 0
M  V30 1232 C 117.565 -0.2019 -4.4284 0
M  V30 1233 H 114.785 -0.183215 -0.645502 0
M  V30 1234 H 117.329 -1.1455 -1.69407 0
M  V30 1235 H 115.484 0.0443159 -3.87375 0
M  V30 1236 H 115.898 -1.92871 -4.87751 0
M  V30 1237 H 117.372 -0.339599 -5.50954 0
M  V30 1238 H 117.849 0.857224 -4.30753 0
M  V30 1239 H 118.455 -0.809733 -4.17521 0
M  V30 1240 N 116.77 1.45427 -0.607355 0
M  V30 1241 C 118.01 2.04128 -0.105458 0
M  V30 1242 C 118.374 1.46555 1.24039 0
M  V30 1243 O 119.575 1.96608 1.833 0
M  V30 1244 C 117.846 3.57338 -0.0665324 0
M  V30 1245 S 119.405 4.37201 0.374207 0
M  V30 1246 H 116.223 0.709278 -0.0494575 0
M  V30 1247 H 118.825 1.78139 -0.805404 0
M  V30 1248 H 117.529 3.96752 -1.04957 0
M  V30 1249 H 117.06 3.87902 0.655415 0
M  V30 1250 H 119.075 4.6888 1.62377 0
M  V30 1251 N 118.248 0.346503 1.53744 0
M  V30 1252 C 119.476 -0.25041 2.05379 0
M  V30 1253 C 119.891 -1.43979 1.22129 0
M  V30 1254 O 119.248 -1.80677 0.257321 0
M  V30 1255 C 119.299 -0.662575 3.55376 0
M  V30 1256 O 119.02 0.479515 4.35468 0
M  V30 1257 C 120.521 -1.31989 4.23195 0
M  V30 1258 H 117.741 -0.0478198 0.669294 0
M  V30 1259 H 120.285 0.499346 1.9831 0
M  V30 1260 H 118.44 -1.36227 3.62658 0
M  V30 1261 H 118.854 0.15037 5.24284 0
M  V30 1262 H 120.328 -1.55902 5.29527 0
M  V30 1263 H 120.805 -2.27436 3.75725 0
M  V30 1264 H 121.411 -0.662154 4.20114 0
M  V30 1265 N 119.726 -1.57421 0.075193 0
M  V30 1266 C 120.974 -1.93236 -0.591974 0
M  V30 1267 C 121.295 -0.956241 -1.69944 0
M  V30 1268 O 120.565 -0.00494792 -1.95899 0
M  V30 1269 H 119.145 -0.713355 -0.22166 0
M  V30 1270 H 121.807 -1.9444 0.133848 0
M  V30 1271 H 120.903 -2.95131 -1.01509 0
M  V30 1272 N 121.204 0.198386 -1.56346 0
M  V30 1273 C 122.45 0.920648 -1.80698 0
M  V30 1274 C 122.783 1.83045 -0.648697 0
M  V30 1275 O 122.058 1.91308 0.350925 0
M  V30 1276 C 122.341 1.73971 -3.15287 0
M  V30 1277 C 122.194 0.85485 -4.41602 0
M  V30 1278 C 123.513 2.71296 -3.46535 0
M  V30 1279 H 120.632 0.333261 -0.657348 0
M  V30 1280 H 123.274 0.188198 -1.89066 0
M  V30 1281 H 121.424 2.36416 -3.08285 0
M  V30 1282 H 123.096 0.245362 -4.60647 0
M  V30 1283 H 121.339 0.161398 -4.335 0
M  V30 1284 H 122.01 1.46286 -5.32264 0
M  V30 1285 H 124.486 2.18983 -3.53816 0
M  V30 1286 H 123.362 3.2569 -4.41834 0
M  V30 1287 H 123.623 3.5018 -2.69864 0
M  V30 1288 N 122.682 1.50554 0.465978 0
M  V30 1289 C 123.928 1.62038 1.21949 0
M  V30 1290 C 124.261 0.322116 1.9151 0
M  V30 1291 O 123.536 -0.676723 1.82348 0
M  V30 1292 C 123.819 2.80421 2.25912 0
M  V30 1293 C 123.672 4.20144 1.60622 0
M  V30 1294 C 124.991 2.94354 3.27176 0
M  V30 1295 H 122.11 0.589752 0.441998 0
M  V30 1296 H 124.752 1.82956 0.51257 0
M  V30 1297 H 122.902 2.62717 2.86203 0
M  V30 1298 H 124.574 4.49449 1.03889 0
M  V30 1299 H 122.817 4.24165 0.909211 0
M  V30 1300 H 123.488 4.98914 2.36196 0
M  V30 1301 H 125.964 3.10578 2.76913 0
M  V30 1302 H 124.84 3.788 3.97242 0
M  V30 1303 H 125.101 2.05186 3.916 0
M  V30 1304 N 124.16 -0.719506 1.40217 0
M  V30 1305 C 125.388 -1.50864 1.41589 0
M  V30 1306 C 125.803 -1.88794 0.0145275 0
M  V30 1307 O 125.16 -1.55174 -0.960594 0
M  V30 1308 C 125.211 -2.78646 2.30302 0
M  V30 1309 O 124.932 -2.42321 3.64983 0
M  V30 1310 C 126.433 -3.72569 2.40224 0
M  V30 1311 H 123.653 -0.465709 0.48307 0
M  V30 1312 H 126.197 -0.88785 1.84221 0
M  V30 1313 H 124.352 -3.37019 1.91042 0
M  V30 1314 H 124.766 -3.24514 4.12057 0
M  V30 1315 H 126.24 -4.5908 3.06512 0
M  V30 1316 H 126.717 -4.15403 1.42608 0
M  V30 1317 H 127.323 -3.20109 2.80019 0
M  V30 1318 N 125.638 -1.25649 -0.95132 0
M  V30 1319 C 126.548 -1.08073 -2.08224 0
M  V30 1320 C 127.564 -0.0169666 -1.73992 0
M  V30 1321 O 128.74 -0.218593 -2.0021 0
M  V30 1322 C 125.805 -0.704922 -3.39458 0
M  V30 1323 C 124.866 -1.84699 -3.87537 0
M  V30 1324 C 124.099 -1.48902 -5.12508 0
M  V30 1325 O 124.322 -0.386156 -5.69091 0
M  V30 1326 O 123.256 -2.32033 -5.55378 0
M  V30 1327 H 127.082 -2.02924 -2.25954 0
M  V30 1328 H 124.667 -1.04618 -1.06656 0
M  V30 1329 H 126.549 -0.507609 -4.18332 0
M  V30 1330 H 125.224 0.214291 -3.2299 0
M  V30 1331 H 124.131 -2.09919 -3.09653 0
M  V30 1332 H 125.464 -2.74557 -4.08509 0
M  V30 1333 N 127.117 1.15442 -1.07289 0
M  V30 1334 C 128.08 2.18358 -0.696591 0
M  V30 1335 C 129.08 1.58637 0.262837 0
M  V30 1336 O 130.27 1.74145 0.0438809 0
M  V30 1337 C 127.402 3.4089 -0.0266151 0
M  V30 1338 H 128.595 2.53162 -1.60776 0
M  V30 1339 H 126.148 1.29893 -0.869342 0
M  V30 1340 H 126.883 3.11653 0.896822 0
M  V30 1341 H 126.668 3.85495 -0.716657 0
M  V30 1342 H 128.158 4.17009 0.222028 0
M  V30 1343 N 128.595 0.856903 1.32268 0
M  V30 1344 C 129.505 0.306131 2.32594 0
M  V30 1345 C 130.521 -0.577209 1.64147 0
M  V30 1346 O 131.697 -0.477043 1.95669 0
M  V30 1347 C 128.762 -0.494561 3.43154 0
M  V30 1348 C 127.823 0.415186 4.27288 0
M  V30 1349 C 127.056 -0.347387 5.32568 0
M  V30 1350 O 127.279 -1.57708 5.48165 0
M  V30 1351 O 126.213 0.287982 6.01211 0
M  V30 1352 H 130.039 1.13737 2.81598 0
M  V30 1353 H 127.624 0.619902 1.35932 0
M  V30 1354 H 129.506 -0.948944 4.10576 0
M  V30 1355 H 128.181 -1.30257 2.96336 0
M  V30 1356 H 127.088 0.917793 3.62667 0
M  V30 1357 H 128.421 1.18844 4.77637 0
M  V30 1358 N 130.073 -1.45103 0.615059 0
M  V30 1359 C 131.301 -2.06553 0.11977 0
M  V30 1360 C 131.716 -1.45842 -1.19898 0
M  V30 1361 O 131.073 -0.575325 -1.73194 0
M  V30 1362 C 131.124 -3.61495 -0.018364 0
M  V30 1363 O 130.845 -4.19942 1.24822 0
M  V30 1364 C 132.346 -4.39947 -0.544237 0
M  V30 1365 H 129.566 -0.667096 0.0722739 0
M  V30 1366 H 132.11 -1.8623 0.84491 0
M  V30 1367 H 130.265 -3.81135 -0.693865 0
M  V30 1368 H 130.679 -5.13204 1.0827 0
M  V30 1369 H 132.153 -5.48838 -0.589953 0
M  V30 1370 H 132.63 -4.10255 -1.56805 0
M  V30 1371 H 133.236 -4.25188 0.0974703 0
M  V30 1372 N 131.551 -0.354651 -1.53558 0
M  V30 1373 C 132.781 0.239167 -2.05211 0
M  V30 1374 C 133.189 1.43879 -1.22863 0
M  V30 1375 O 132.532 1.81857 -0.259565 0
M  V30 1376 C 132.594 0.707251 -3.52474 0
M  V30 1377 C 132.258 -0.374212 -4.55465 0
M  V30 1378 C 133.255 -1.22054 -5.0537 0
M  V30 1379 C 130.94 -0.531323 -4.99482 0
M  V30 1380 C 132.934 -2.20942 -5.97882 0
M  V30 1381 C 130.621 -1.52358 -5.91802 0
M  V30 1382 C 131.619 -2.36108 -6.40892 0
M  V30 1383 O 131.307 -3.33643 -7.31394 0
M  V30 1384 H 131.039 0.0479716 -0.674296 0
M  V30 1385 H 133.593 -0.508121 -1.99016 0
M  V30 1386 H 131.823 1.50596 -3.56171 0
M  V30 1387 H 133.512 1.22285 -3.87042 0
M  V30 1388 H 134.278 -1.1103 -4.7212 0
M  V30 1389 H 130.157 0.110738 -4.60867 0
M  V30 1390 H 133.701 -2.86348 -6.36121 0
M  V30 1391 H 129.598 -1.63434 -6.24467 0
M  V30 1392 H 130.366 -3.29244 -7.4936 0
M  V30 1393 N 133.029 1.57378 -0.0835403 0
M  V30 1394 C 134.257 1.98263 0.59157 0
M  V30 1395 C 134.672 0.962302 1.62435 0
M  V30 1396 O 134.029 -0.049581 1.82433 0
M  V30 1397 C 134.08 3.39214 1.24965 0
M  V30 1398 O 133.801 4.37339 0.258186 0
M  V30 1399 C 135.302 3.95038 2.01147 0
M  V30 1400 H 132.522 0.651773 0.159477 0
M  V30 1401 H 135.066 2.03878 -0.159415 0
M  V30 1402 H 133.221 3.34649 1.95164 0
M  V30 1403 H 133.635 5.19371 0.731734 0
M  V30 1404 H 135.109 4.95848 2.42567 0
M  V30 1405 H 135.586 3.32222 2.87272 0
M  V30 1406 H 136.192 4.0304 1.35789 0
M  V30 1407 N 134.507 -0.190092 1.56449 0
M  V30 1408 C 135.455 -1.25501 1.95837 0
M  V30 1409 C 136.449 -1.4685 0.844485 0
M  V30 1410 O 137.655 -1.47651 1.02952 0
M  V30 1411 H 134.03 -0.421447 0.622805 0
M  V30 1412 H 136.001 -0.895821 2.84636 0
M  V30 1413 C 134.75 -2.59124 2.31841 0
M  V30 1414 H 134.073 -2.43514 3.17082 0
M  V30 1415 H 135.513 -3.32371 2.6326 0
M  V30 1416 C 133.972 -3.16488 1.15486 0
M  V30 1417 O 134.502 -3.99365 0.432535 0
M  V30 1418 N 132.708 -2.75305 0.930349 0
M  V30 1419 H 132.255 -2.08013 1.51948 0
M  V30 1420 H 132.213 -3.14024 0.153634 0
M  V30 1421 N 135.985 -1.50799 -0.457987 0
M  V30 1422 C 137.232 -1.62442 -1.20908 0
M  V30 1423 C 137.56 -0.330865 -1.91665 0
M  V30 1424 O 136.815 0.68401 -1.83357 0
M  V30 1425 C 137.114 -2.76358 -2.2663 0
M  V30 1426 C 136.78 -4.16378 -1.73033 0
M  V30 1427 C 135.442 -4.54473 -1.58138 0
M  V30 1428 C 137.794 -5.03836 -1.33413 0
M  V30 1429 C 135.122 -5.77754 -1.02065 0
M  V30 1430 C 137.474 -6.27676 -0.78778 0
M  V30 1431 C 136.138 -6.64562 -0.625561 0
M  V30 1432 H 135.408 -0.594417 -0.442435 0
M  V30 1433 H 138.055 -1.84772 -0.503136 0
M  V30 1434 H 136.36 -2.48167 -3.03184 0
M  V30 1435 H 138.057 -2.82568 -2.84528 0
M  V30 1436 H 134.647 -3.86331 -1.85598 0
M  V30 1437 H 138.831 -4.75026 -1.4375 0
M  V30 1438 H 134.087 -6.04997 -0.882547 0
M  V30 1439 H 138.261 -6.94797 -0.472177 0
M  V30 1440 H 135.888 -7.59965 -0.188926 0
M  V30 1441 N 137.463 0.71206 -1.40597 0
M  V30 1442 C 138.709 1.47416 -1.39271 0
M  V30 1443 C 139.042 1.942 0.00388791 0
M  V30 1444 O 138.317 1.68403 0.973179 0
M  V30 1445 C 138.6 2.69774 -2.38525 0
M  V30 1446 C 138.453 2.28861 -3.87224 0
M  V30 1447 C 139.772 3.71939 -2.35264 0
M  V30 1448 H 136.891 0.534713 -0.5072 0
M  V30 1449 H 139.533 0.812375 -1.71757 0
M  V30 1450 H 137.683 3.26238 -2.10953 0
M  V30 1451 H 139.355 1.77852 -4.25636 0
M  V30 1452 H 137.598 1.60824 -4.02887 0
M  V30 1453 H 138.269 3.16584 -4.52193 0
M  V30 1454 H 140.745 3.25113 -2.59694 0
M  V30 1455 H 139.621 4.55186 -3.06753 0
M  V30 1456 H 139.882 4.20484 -1.36549 0
M  V30 1457 N 138.941 1.26152 0.944643 0
M  V30 1458 C 140.189 1.11271 1.6871 0
M  V30 1459 C 140.51 -0.345166 1.91921 0
M  V30 1460 O 139.78 -1.24387 1.51343 0
M  V30 1461 H 138.36 0.408783 0.625224 0
M  V30 1462 H 141.022 1.58427 1.1352 0
M  V30 1463 H 140.118 1.62879 2.66227 0
M  V30 1464 N 140.419 -1.14872 1.07899 0
M  V30 1465 C 141.649 -1.89386 0.825631 0
M  V30 1466 C 142.057 -1.78565 -0.625406 0
M  V30 1467 O 141.4 -1.13918 -1.44113 0
M  V30 1468 C 141.462 -3.40206 1.16191 0
M  V30 1469 C 141.126 -3.74812 2.61467 0
M  V30 1470 C 142.123 -3.75367 3.59716 0
M  V30 1471 C 139.808 -4.0495 2.97189 0
M  V30 1472 C 141.802 -4.05574 4.9172 0
M  V30 1473 C 139.489 -4.34821 4.29388 0
M  V30 1474 C 140.487 -4.35116 5.26463 0
M  V30 1475 O 140.175 -4.64267 6.56286 0
M  V30 1476 H 139.907 -0.606894 0.297751 0
M  V30 1477 H 142.461 -1.46438 1.44031 0
M  V30 1478 H 140.691 -3.8358 0.490214 0
M  V30 1479 H 142.38 -3.96018 0.890193 0
M  V30 1480 H 143.146 -3.52176 3.33462 0
M  V30 1481 H 139.025 -4.03876 2.22273 0
M  V30 1482 H 142.569 -4.05719 5.67484 0
M  V30 1483 H 138.466 -4.5748 4.55392 0
M  V30 1484 H 139.234 -4.82007 6.61522 0
M  V30 1485 N 141.898 -0.863906 -1.31812 0
M  V30 1486 C 143.144 -0.472535 -1.97218 0
M  V30 1487 C 143.477 0.971394 -1.68159 0
M  V30 1488 O 142.752 1.68309 -0.974798 0
M  V30 1489 C 143.035 -0.723054 -3.52766 0
M  V30 1490 C 142.888 -2.21608 -3.91421 0
M  V30 1491 C 144.207 -0.185522 -4.39709 0
M  V30 1492 H 141.326 -0.173158 -0.71637 0
M  V30 1493 H 143.968 -1.08403 -1.56041 0
M  V30 1494 H 142.118 -0.202577 -3.87971 0
M  V30 1495 H 143.79 -2.80334 -3.66347 0
M  V30 1496 H 142.033 -2.691 -3.40246 0
M  V30 1497 H 142.704 -2.34203 -4.99853 0
M  V30 1498 H 145.18 -0.630726 -4.11292 0
M  V30 1499 H 144.056 -0.390306 -5.47511 0
M  V30 1500 H 144.317 0.912229 -4.32586 0
M  V30 1501 N 143.376 1.44774 -0.622745 0
M  V30 1502 C 144.604 2.06487 -0.130722 0
M  V30 1503 C 145.019 1.46476 1.19123 0
M  V30 1504 O 144.376 0.584502 1.72887 0
M  V30 1505 C 144.427 3.615 -0.000807207 0
M  V30 1506 O 144.148 4.19274 -1.27048 0
M  V30 1507 C 145.649 4.40229 0.520898 0
M  V30 1508 H 142.869 0.666704 -0.0758106 0
M  V30 1509 H 145.413 1.85779 -0.854774 0
M  V30 1510 H 143.568 3.81498 0.673643 0
M  V30 1511 H 143.982 5.12622 -1.1099 0
M  V30 1512 H 145.456 5.49144 0.560838 0
M  V30 1513 H 145.933 4.1108 1.54627 0
M  V30 1514 H 146.539 4.25131 -0.120018 0
M  V30 1515 N 144.854 0.36279 1.53368 0
M  V30 1516 C 146.082 -0.228613 2.05633 0
M  V30 1517 C 146.497 -1.42676 1.23649 0
M  V30 1518 O 145.854 -1.80394 0.27647 0
M  V30 1519 C 145.905 -0.624845 3.56059 0
M  V30 1520 O 145.626 0.525675 4.34935 0
M  V30 1521 C 147.127 -1.27493 4.24571 0
M  V30 1522 H 144.347 -0.0407183 0.669763 0
M  V30 1523 H 146.891 0.520352 1.97769 0
M  V30 1524 H 145.046 -1.32373 3.64083 0
M  V30 1525 H 145.46 0.205969 5.24095 0
M  V30 1526 H 146.934 -1.50277 5.31151 0
M  V30 1527 H 147.411 -2.23439 3.78116 0
M  V30 1528 H 148.017 -0.617558 4.20792 0
M  V30 1529 N 146.332 -1.57332 0.0918853 0
M  V30 1530 C 147.56 -1.98574 -0.581048 0
M  V30 1531 C 147.975 -0.970903 -1.61923 0
M  V30 1532 O 147.332 0.0399054 -1.82456 0
M  V30 1533 C 147.383 -3.39872 -1.23164 0
M  V30 1534 O 147.104 -4.37469 -0.234989 0
M  V30 1535 C 148.605 -3.96099 -1.99049 0
M  V30 1536 H 145.825 -0.65261 -0.156018 0
M  V30 1537 H 148.369 -2.0379 0.170225 0
M  V30 1538 H 146.524 -3.35679 -1.93386 0
M  V30 1539 H 146.938 -5.19751 -0.70418 0
M  V30 1540 H 148.412 -4.97127 -2.39934 0
M  V30 1541 H 148.889 -3.3374 -2.85507 0
M  V30 1542 H 149.495 -4.03755 -1.3365 0
M  V30 1543 N 147.81 0.181792 -1.56548 0
M  V30 1544 C 149.057 0.900097 -1.81396 0
M  V30 1545 C 149.385 1.82695 -0.667281 0
M  V30 1546 O 148.64 1.92614 0.346146 0
M  V30 1547 C 148.939 1.73728 -3.12335 0
M  V30 1548 C 148.605 0.960255 -4.40556 0
M  V30 1549 C 147.267 0.745766 -4.75386 0
M  V30 1550 C 149.619 0.414477 -5.19549 0
M  V30 1551 C 146.947 -0.0257694 -5.86694 0
M  V30 1552 C 149.299 -0.343916 -6.31664 0
M  V30 1553 C 147.963 -0.569301 -6.65068 0
M  V30 1554 H 147.233 0.329369 -0.663775 0
M  V30 1555 H 149.88 0.165647 -1.90782 0
M  V30 1556 H 148.185 2.54081 -2.98245 0
M  V30 1557 H 149.882 2.29591 -3.28769 0
M  V30 1558 H 146.472 1.13746 -4.13231 0
M  V30 1559 H 150.656 0.567554 -4.93044 0
M  V30 1560 H 145.912 -0.210233 -6.11038 0
M  V30 1561 H 150.086 -0.774133 -6.92084 0
M  V30 1562 H 147.713 -1.16903 -7.51158 0
M  V30 1563 N 149.288 1.51039 0.449983 0
M  V30 1564 C 150.235 1.71439 1.54523 0
M  V30 1565 C 151.205 0.555871 1.56522 0
M  V30 1566 O 152.39 0.788871 1.73728 0
M  V30 1567 C 149.53 1.83384 2.92343 0
M  V30 1568 C 148.643 3.10873 2.9997 0
M  V30 1569 C 147.778 3.13488 4.28834 0
M  V30 1570 C 146.817 4.35343 4.30282 0
M  V30 1571 N 145.954 4.35579 5.5065 0
M  V30 1572 H 150.794 2.64934 1.36433 0
M  V30 1573 H 148.331 1.31312 0.662982 0
M  V30 1574 H 150.289 1.88291 3.72293 0
M  V30 1575 H 148.919 0.933086 3.0902 0
M  V30 1576 H 147.971 3.15336 2.12761 0
M  V30 1577 H 149.283 4.00814 2.96901 0
M  V30 1578 H 148.437 3.17241 5.17149 0
M  V30 1579 H 147.176 2.21414 4.34543 0
M  V30 1580 H 146.181 4.3178 3.40362 0
M  V30 1581 H 147.406 5.28668 4.26248 0
M  V30 1582 H 145.352 3.46369 5.57104 0
M  V30 1583 H 145.269 5.19313 5.49409 0
M  V30 1584 H 146.537 4.43507 6.41032 0
M  V30 1585 N 150.766 -0.704594 1.40972 0
M  V30 1586 C 152.182 -1.01406 1.23244 0
M  V30 1587 C 152.382 -2.01169 0.115399 0
M  V30 1588 O 151.438 -2.47021 -0.523147 0
M  V30 1589 C 152.751 -1.54728 2.57836 0
M  V30 1590 C 154.299 -1.66658 2.64942 0
M  V30 1591 C 154.774 -2.23383 3.9983 0
M  V30 1592 N 156.265 -2.30756 4.01629 0
M  V30 1593 C 157 -2.75655 5.02794 0
M  V30 1594 N 156.496 -3.20225 6.14352 0
M  V30 1595 N 158.289 -2.75138 4.90159 0
M  V30 1596 H 150.44 -0.0435285 2.12355 0
M  V30 1597 H 152.703 -0.0818951 0.944456 0
M  V30 1598 H 152.409 -0.888832 3.40283 0
M  V30 1599 H 152.283 -2.53084 2.79693 0
M  V30 1600 H 154.67 -2.31617 1.8286 0
M  V30 1601 H 154.751 -0.668717 2.46904 0
M  V30 1602 H 154.395 -1.59043 4.82357 0
M  V30 1603 H 154.325 -3.23904 4.15203 0
M  V30 1604 H 156.816 -1.99291 3.21079 0
M  V30 1605 H 157.129 -3.53084 6.87424 0
M  V30 1606 H 155.474 -3.18156 6.17901 0
M  V30 1607 H 158.665 -2.39661 4.02095 0
M  V30 1608 H 158.838 -3.09812 5.6914 0
M  V30 1609 N 152.244 -1.26651 -0.937939 0
M  V30 1610 C 153.191 -1.0849 -2.03712 0
M  V30 1611 C 154.161 0.011033 -1.66096 0
M  V30 1612 O 155.346 -0.149353 -1.90215 0
M  V30 1613 C 152.486 -0.72735 -3.37348 0
M  V30 1614 C 151.599 -1.89986 -3.87981 0
M  V30 1615 C 150.734 -1.48513 -5.10017 0
M  V30 1616 C 149.773 -2.62575 -5.5292 0
M  V30 1617 N 148.91 -2.21762 -6.66158 0
M  V30 1618 H 153.75 -2.02551 -2.18579 0
M  V30 1619 H 151.287 -1.00844 -1.07093 0
M  V30 1620 H 153.245 -0.50092 -4.14182 0
M  V30 1621 H 151.875 0.176298 -3.22318 0
M  V30 1622 H 150.927 -2.23913 -3.07518 0
M  V30 1623 H 152.239 -2.75586 -4.15757 0
M  V30 1624 H 151.393 -1.21934 -5.94321 0
M  V30 1625 H 150.132 -0.60009 -4.83994 0
M  V30 1626 H 149.137 -2.8988 -4.67172 0
M  V30 1627 H 150.362 -3.51685 -5.80943 0
M  V30 1628 H 148.308 -1.35696 -6.41812 0
M  V30 1629 H 148.225 -3.00903 -6.93537 0
M  V30 1630 H 149.493 -1.98403 -7.53828 0
M  V30 1631 N 153.722 1.14298 -1.08507 0
M  V30 1632 C 154.672 2.17449 -0.685569 0
M  V30 1633 C 155.656 1.58167 0.295315 0
M  V30 1634 O 156.848 1.76675 0.107172 0
M  V30 1635 C 153.977 3.43161 -0.0975318 0
M  V30 1636 C 153.063 4.09471 -1.10426 0
M  V30 1637 N 153.454 4.51089 -2.28806 0
M  V30 1638 C 151.752 4.35976 -0.940258 0
M  V30 1639 C 152.453 5.02654 -2.9277 0
M  V30 1640 N 151.429 4.96927 -2.20374 0
M  V30 1641 H 155.231 2.47369 -1.587 0
M  V30 1642 H 152.745 1.30992 -0.959936 0
M  V30 1643 H 154.742 4.16388 0.20664 0
M  V30 1644 H 153.402 3.14719 0.798872 0
M  V30 1645 H 154.413 4.44097 -2.66455 0
M  V30 1646 H 151.09 4.17386 -0.0977441 0
M  V30 1647 H 152.48 5.44723 -3.93352 0
M  V30 1648 N 155.201 0.870884 1.31352 0
M  V30 1649 C 156.448 0.482273 1.96673 0
M  V30 1650 C 156.776 -0.965638 1.68836 0
M  V30 1651 O 156.031 -1.69514 0.977937 0
M  V30 1652 C 156.33 0.687157 3.50732 0
M  V30 1653 C 155.996 2.108 3.9859 0
M  V30 1654 C 154.658 2.49656 4.1137 0
M  V30 1655 C 157.01 3.03459 4.23748 0
M  V30 1656 C 154.338 3.80412 4.46659 0
M  V30 1657 C 156.69 4.3373 4.60501 0
M  V30 1658 C 155.354 4.725 4.71487 0
M  V30 1659 H 154.624 0.176476 0.719679 0
M  V30 1660 H 157.271 1.10405 1.56471 0
M  V30 1661 H 155.576 -0.0177476 3.91796 0
M  V30 1662 H 157.273 0.366284 3.99324 0
M  V30 1663 H 153.863 1.79633 3.8914 0
M  V30 1664 H 158.047 2.74665 4.13368 0
M  V30 1665 H 153.303 4.1021 4.53362 0
M  V30 1666 H 157.477 5.05578 4.78919 0
M  V30 1667 H 155.104 5.73859 4.98588 0
M  V30 1668 N 156.679 -1.44442 0.630414 0
M  V30 1669 C 158.095 -1.56832 0.295973 0
M  V30 1670 C 158.295 -1.61806 -1.20088 0
M  V30 1671 O 157.351 -1.5607 -1.9849 0
M  V30 1672 C 158.664 -2.84031 0.987264 0
M  V30 1673 C 160.212 -2.97742 0.96534 0
M  V30 1674 C 160.687 -4.27743 1.63708 0
M  V30 1675 N 162.178 -4.34555 1.60364 0
M  V30 1676 C 162.913 -5.33862 2.09234 0
M  V30 1677 N 162.409 -6.39578 2.66292 0
M  V30 1678 N 164.202 -5.25366 1.99867 0
M  V30 1679 H 156.353 -1.39457 1.60205 0
M  V30 1680 H 158.616 -0.668237 0.672431 0
M  V30 1681 H 158.322 -2.86338 2.04215 0
M  V30 1682 H 158.196 -3.73534 0.524588 0
M  V30 1683 H 160.583 -2.94989 -0.0810639 0
M  V30 1684 H 160.664 -2.09589 1.4665 0
M  V30 1685 H 160.308 -4.31255 2.68293 0
M  V30 1686 H 160.238 -5.14752 1.11076 0
M  V30 1687 H 162.729 -3.58772 1.18705 0
M  V30 1688 H 163.042 -7.11637 3.01317 0
M  V30 1689 H 161.387 -6.40265 2.70343 0
M  V30 1690 H 164.578 -4.41688 1.55013 0
M  V30 1691 H 164.751 -6.02606 2.38265 0
M  V30 1692 N 158.157 -0.370918 -1.53173 0
M  V30 1693 C 159.568 0.107139 -1.86392 0
M  V30 1694 C 159.919 1.47714 -1.29132 0
M  V30 1695 O 159.044 2.07464 -0.615439 0
M  V30 1696 C 159.639 0.201187 -3.38202 0
M  V30 1697 C 158.198 0.623507 -3.712 0
M  V30 1698 C 157.345 -0.225978 -2.76378 0
M  V30 1699 H 160.296 -0.58951 -1.47345 0
M  V30 1700 H 160.317 1.02377 -3.66468 0
M  V30 1701 H 159.829 -0.796058 -3.79848 0
M  V30 1702 H 157.93 1.62879 -3.35114 0
M  V30 1703 H 158.043 0.394414 -4.77474 0
M  V30 1704 H 156.407 0.305962 -2.52856 0
M  V30 1705 H 157.19 -1.22086 -3.20858 0
M  V30 1706 N 159.635 1.57281 -0.100228 0
M  V30 1707 C 160.863 1.98879 0.570509 0
M  V30 1708 C 161.278 0.979476 1.61405 0
M  V30 1709 O 160.635 -0.0302288 1.82475 0
M  V30 1710 C 160.686 3.4052 1.2136 0
M  V30 1711 O 160.407 4.37588 0.211786 0
M  V30 1712 C 161.908 3.97149 1.96945 0
M  V30 1713 H 159.128 0.653428 0.152555 0
M  V30 1714 H 161.672 2.03697 -0.18103 0
M  V30 1715 H 159.827 3.367 1.91603 0
M  V30 1716 H 160.241 5.20118 0.676607 0
M  V30 1717 H 161.715 4.98393 2.37294 0
M  V30 1718 H 162.192 3.3525 2.83733 0
M  V30 1719 H 162.798 4.04458 1.31506 0
M  V30 1720 N 161.113 -0.173488 1.56642 0
M  V30 1721 C 162.524 -0.736155 1.71574 0
M  V30 1722 C 162.875 -1.82888 0.710389 0
M  V30 1723 O 162 -2.16017 -0.1287 0
M  V30 1724 C 162.595 -1.34211 3.11083 0
M  V30 1725 C 161.154 -1.85162 3.27707 0
M  V30 1726 C 160.301 -0.729765 2.67525 0
M  V30 1727 H 163.252 0.0518786 1.58615 0
M  V30 1728 H 163.273 -2.21178 3.09613 0
M  V30 1729 H 162.785 -0.546579 3.84232 0
M  V30 1730 H 160.886 -2.67366 2.59512 0
M  V30 1731 H 160.999 -1.99855 4.35425 0
M  V30 1732 H 159.363 -1.14965 2.27278 0
M  V30 1733 H 160.146 0.0538806 3.43258 0
M  V30 1734 N 162.591 -1.51276 -0.441967 0
M  V30 1735 C 163.868 -1.54252 -1.20273 0
M  V30 1736 C 164.248 -0.30408 -2.08898 0
M  V30 1737 O 163.596 0.711084 -2.17154 0
M  V30 1738 C 163.806 -2.85406 -2.00859 0
M  V30 1739 C 165.154 -3.37181 -2.58059 0
M  V30 1740 O 166.178 -2.86925 -2.11074 0
M  V30 1741 O 165.037 -4.24858 -3.43741 0
M  V30 1742 H 162.131 -0.619969 -0.547328 0
M  V30 1743 H 164.677 -1.63586 -0.451413 0
M  V30 1744 H 163.449 -3.67003 -1.35736 0
M  V30 1745 H 163.072 -2.79213 -2.83065 0
M  V30 1746 N 164.069 0.697108 -1.41344 0
M  V30 1747 C 165.032 1.79281 -1.42797 0
M  V30 1748 C 166.032 1.57607 -0.318837 0
M  V30 1749 O 167.222 1.64309 -0.578642 0
M  V30 1750 C 164.354 3.17632 -1.23785 0
M  V30 1751 H 165.547 1.79385 -2.40335 0
M  V30 1752 H 163.1 0.904582 -1.27464 0
M  V30 1753 H 163.835 3.23167 -0.270814 0
M  V30 1754 H 163.62 3.34765 -2.04144 0
M  V30 1755 H 165.11 3.97617 -1.27633 0
M  V30 1756 N 165.547 1.27147 0.931209 0
M  V30 1757 C 166.787 1.14511 1.69312 0
M  V30 1758 C 167.151 -0.304638 1.89568 0
M  V30 1759 O 168.352 -0.553343 2.63043 0
M  V30 1760 C 166.623 1.90349 3.02493 0
M  V30 1761 S 168.182 1.93884 3.93642 0
M  V30 1762 H 165 0.408858 0.581684 0
M  V30 1763 H 167.602 1.61006 1.10893 0
M  V30 1764 H 166.306 2.94877 2.85439 0
M  V30 1765 H 165.837 1.44333 3.65966 0
M  V30 1766 H 167.852 1.03273 4.85334 0
M  V30 1767 N 167.025 -1.13721 1.09112 0
M  V30 1768 C 168.441 -1.36914 0.820174 0
M  V30 1769 C 168.641 -1.93356 -0.567079 0
M  V30 1770 O 167.697 -2.15093 -1.32255 0
M  V30 1771 C 169.01 -2.3235 1.90877 0
M  V30 1772 C 170.558 -2.45973 1.93562 0
M  V30 1773 C 171.033 -3.44714 3.01556 0
M  V30 1774 N 172.524 -3.52263 3.00775 0
M  V30 1775 C 173.259 -4.28536 3.80978 0
M  V30 1776 N 172.755 -5.07991 4.71081 0
M  V30 1777 N 174.548 -4.23804 3.69251 0
M  V30 1778 H 166.699 -0.754348 1.98553 0
M  V30 1779 H 168.962 -0.3944 0.862063 0
M  V30 1780 H 168.668 -1.98027 2.90651 0
M  V30 1781 H 168.542 -3.32332 1.78424 0
M  V30 1782 H 170.929 -2.79584 0.944286 0
M  V30 1783 H 171.01 -1.45926 2.10093 0
M  V30 1784 H 170.654 -3.11835 4.00901 0
M  V30 1785 H 170.584 -4.44558 2.82269 0
M  V30 1786 H 173.075 -2.95567 2.35475 0
M  V30 1787 H 173.388 -5.63487 5.28869 0
M  V30 1788 H 171.733 -5.07235 4.75119 0
M  V30 1789 H 174.924 -3.60806 2.98222 0
M  V30 1790 H 175.097 -4.82995 4.31995 0
M  V30 1791 N 168.503 -0.877838 -1.30888 0
M  V30 1792 C 169.466 -0.344265 -2.266 0
M  V30 1793 C 170.466 0.50922 -1.52524 0
M  V30 1794 O 171.656 0.317398 -1.71284 0
M  V30 1795 C 168.788 0.510198 -3.37061 0
M  V30 1796 H 169.981 -1.1893 -2.7531 0
M  V30 1797 H 167.534 -0.654088 -1.41956 0
M  V30 1798 H 168.269 1.37612 -2.93655 0
M  V30 1799 H 168.054 -0.101047 -3.9197 0
M  V30 1800 H 169.544 0.875537 -4.08319 0
M  V30 1801 N 169.982 1.44106 -0.638065 0
M  V30 1802 C 170.945 2.29138 0.0531013 0
M  V30 1803 C 171.945 1.41409 0.765506 0
M  V30 1804 O 173.135 1.63206 0.609046 0
M  V30 1805 C 170.267 3.23144 1.08584 0
M  V30 1806 H 171.46 2.91739 -0.694883 0
M  V30 1807 H 169.013 1.51134 -0.398538 0
M  V30 1808 H 169.748 2.65408 1.86357 0
M  V30 1809 H 169.533 3.87804 0.578852 0
M  V30 1810 H 171.023 3.87004 1.56899 0
M  V30 1811 N 171.46 0.379036 1.52974 0
M  V30 1812 C 172.69 -0.20649 2.05566 0
M  V30 1813 C 173.098 -1.41906 1.25137 0
M  V30 1814 O 172.441 -1.81421 0.288464 0
M  V30 1815 C 172.503 -0.651086 3.53555 0
M  V30 1816 C 172.167 0.446626 4.54812 0
M  V30 1817 C 173.164 1.30079 5.03364 0
M  V30 1818 C 170.849 0.610719 4.98573 0
M  V30 1819 C 172.843 2.30426 5.94292 0
M  V30 1820 C 170.53 1.61754 5.89304 0
M  V30 1821 C 171.528 2.46274 6.37054 0
M  V30 1822 O 171.216 3.45237 7.25994 0
M  V30 1823 H 170.948 -0.0372381 0.674974 0
M  V30 1824 H 173.502 0.539718 1.98182 0
M  V30 1825 H 171.732 -1.44911 3.58522 0
M  V30 1826 H 173.421 -1.16112 3.88938 0
M  V30 1827 H 174.187 1.18527 4.70294 0
M  V30 1828 H 170.066 -0.0374044 4.60985 0
M  V30 1829 H 173.61 2.96432 6.31485 0
M  V30 1830 H 169.507 1.73348 6.21788 0
M  V30 1831 H 170.275 3.41124 7.44027 0
M  V30 1832 N 172.938 -1.57226 0.108567 0
M  V30 1833 C 173.886 -2.16002 -0.862885 0
M  V30 1834 C 174.88 -1.10644 -1.28274 0
M  V30 1835 O 176.086 -1.28966 -1.2557 0
M  V30 1836 H 172.461 -0.691148 -0.296342 0
M  V30 1837 H 174.432 -2.96427 -0.342575 0
M  V30 1838 C 173.181 -2.76576 -2.10716 0
M  V30 1839 H 172.504 -3.5734 -1.793 0
M  V30 1840 H 173.944 -3.21253 -2.76717 0
M  V30 1841 C 172.403 -1.73137 -2.89007 0
M  V30 1842 O 172.933 -1.17842 -3.84026 0
M  V30 1843 N 171.139 -1.43317 -2.52801 0
M  V30 1844 H 170.686 -1.88473 -1.75601 0
M  V30 1845 H 170.644 -0.743485 -3.05483 0
M  V30 1846 N 174.416 0.165178 -1.56732 0
M  V30 1847 C 175.662 0.877389 -1.83503 0
M  V30 1848 C 176.017 1.79602 -0.689996 0
M  V30 1849 O 175.31 1.89023 0.313205 0
M  V30 1850 C 175.504 1.70405 -3.1416 0
M  V30 1851 C 175.333 0.866961 -4.41264 0
M  V30 1852 C 174.103 0.539646 -5.0241 0
M  V30 1853 C 176.301 0.205671 -5.13889 0
M  V30 1854 N 174.283 -0.312946 -6.13102 0
M  V30 1855 C 175.654 -0.507823 -6.17917 0
M  V30 1856 C 177.709 0.124468 -4.97744 0
M  V30 1857 C 176.412 -1.29483 -7.0755 0
M  V30 1858 C 178.438 -0.649222 -5.87826 0
M  V30 1859 C 177.8 -1.35106 -6.91322 0
M  V30 1860 H 173.899 0.299477 -0.722383 0
M  V30 1861 H 176.483 0.143949 -1.94167 0
M  V30 1862 H 174.654 2.40887 -3.04677 0
M  V30 1863 H 176.386 2.35804 -3.28905 0
M  V30 1864 H 173.141 0.871176 -4.65519 0
M  V30 1865 H 173.565 -0.729731 -6.73056 0
M  V30 1866 H 178.207 0.652724 -4.17731 0
M  V30 1867 H 175.925 -1.83441 -7.87004 0
M  V30 1868 H 179.511 -0.713804 -5.77405 0
M  V30 1869 H 178.391 -1.94013 -7.59821 0
M  V30 1870 N 175.894 1.51508 0.433938 0
M  V30 1871 C 176.841 1.73068 1.52696 0
M  V30 1872 C 177.811 0.572441 1.55924 0
M  V30 1873 O 178.996 0.807253 1.72882 0
M  V30 1874 C 176.136 1.86474 2.90381 0
M  V30 1875 C 175.249 3.14037 2.96656 0
M  V30 1876 C 174.384 3.18019 4.25485 0
M  V30 1877 C 173.423 4.39882 4.2564 0
M  V30 1878 N 172.56 4.41394 5.45999 0
M  V30 1879 H 177.4 2.66366 1.33615 0
M  V30 1880 H 174.937 1.32008 0.649018 0
M  V30 1881 H 176.895 1.92229 3.70275 0
M  V30 1882 H 175.525 0.965809 3.08013 0
M  V30 1883 H 174.577 3.17575 2.09404 0
M  V30 1884 H 175.889 4.0394 2.92633 0
M  V30 1885 H 175.043 3.22708 5.13755 0
M  V30 1886 H 173.782 2.2601 4.3217 0
M  V30 1887 H 172.787 4.35366 3.35763 0
M  V30 1888 H 174.012 5.33159 4.20617 0
M  V30 1889 H 171.958 3.52258 5.53399 0
M  V30 1890 H 171.875 5.25111 5.4387 0
M  V30 1891 H 173.143 4.50281 6.36292 0
M  V30 1892 N 177.372 -0.689602 1.41712 0
M  V30 1893 C 178.305 -1.81403 1.3845 0
M  V30 1894 C 179.283 -1.60653 0.250874 0
M  V30 1895 O 180.467 -1.83323 0.43874 0
M  V30 1896 C 177.594 -3.18176 1.1611 0
M  V30 1897 C 176.64 -3.57705 2.3227 0
M  V30 1898 S 177.473 -3.61827 3.94767 0
M  V30 1899 C 178.629 -5.01318 3.74742 0
M  V30 1900 H 178.862 -1.83893 2.33603 0
M  V30 1901 H 176.395 -0.858878 1.28307 0
M  V30 1902 H 178.353 -3.97132 1.03907 0
M  V30 1903 H 177.014 -3.13288 0.225668 0
M  V30 1904 H 176.207 -4.57082 2.12349 0
M  V30 1905 H 175.809 -2.86073 2.40911 0
M  V30 1906 H 178.101 -5.88986 3.34817 0
M  V30 1907 H 179.044 -5.26283 4.73743 0
M  V30 1908 H 179.452 -4.73138 3.07898 0
M  V30 1909 N 178.85 -1.27639 -0.924453 0
M  V30 1910 C 179.813 -1.10681 -2.00705 0
M  V30 1911 C 180.813 -0.0497823 -1.60723 0
M  V30 1912 O 182.003 -0.294654 -1.7169 0
M  V30 1913 C 179.135 -0.687164 -3.33902 0
M  V30 1914 H 180.328 -2.06817 -2.17179 0
M  V30 1915 H 177.881 -1.10473 -1.10569 0
M  V30 1916 H 178.616 0.275439 -3.23128 0
M  V30 1917 H 178.401 -1.45061 -3.6428 0
M  V30 1918 H 179.891 -0.590853 -4.13399 0
M  V30 1919 N 180.328 1.1314 -1.09713 0
M  V30 1920 C 181.576 1.84119 -0.833338 0
M  V30 1921 C 181.897 1.84097 0.642904 0
M  V30 1922 O 181.167 1.29881 1.46655 0
M  V30 1923 H 179.747 0.681766 -0.305293 0
M  V30 1924 H 182.409 1.37038 -1.38588 0
M  V30 1925 H 181.505 2.88543 -1.18951 0
M  V30 1926 N 181.806 0.884767 1.30421 0
M  V30 1927 C 183.083 0.423185 1.90967 0
M  V30 1928 C 183.463 -1.09605 1.80416 0
M  V30 1929 O 182.811 -1.93126 1.22125 0
M  V30 1930 C 183.021 0.921056 3.36627 0
M  V30 1931 C 184.369 0.955903 4.137 0
M  V30 1932 O 185.393 0.867706 3.4547 0
M  V30 1933 O 184.252 1.08614 5.35598 0
M  V30 1934 H 181.346 0.129369 0.816819 0
M  V30 1935 H 183.892 0.973653 1.3899 0
M  V30 1936 H 182.664 1.96489 3.3839 0
M  V30 1937 H 182.287 0.349741 3.96059 0
M  V30 1938 N 183.284 -1.43765 0.645699 0
M  V30 1939 C 184.695 -1.85193 0.236719 0
M  V30 1940 C 185.046 -1.54045 -1.21509 0
M  V30 1941 O 184.171 -0.985694 -1.92647 0
M  V30 1942 C 184.766 -3.36151 0.422845 0
M  V30 1943 C 183.325 -3.76338 0.0682492 0
M  V30 1944 C 182.472 -2.67538 0.729306 0
M  V30 1945 H 185.423 -1.34025 0.849883 0
M  V30 1946 H 185.444 -3.79032 -0.333904 0
M  V30 1947 H 184.956 -3.5879 1.47958 0
M  V30 1948 H 183.057 -3.59312 -0.986179 0
M  V30 1949 H 183.17 -4.76603 0.488469 0
M  V30 1950 H 181.534 -2.54176 0.163235 0
M  V30 1951 H 182.317 -2.93006 1.78892 0
M  V30 1952 N 184.763 -0.387143 -1.52771 0
M  V30 1953 C 186.179 -0.037007 -1.59557 0
M  V30 1954 C 186.379 1.44801 -1.40124 0
M  V30 1955 O 185.435 2.21227 -1.21716 0
M  V30 1956 C 186.748 -0.512256 -2.96305 0
M  V30 1957 C 188.296 -0.468328 -3.09476 0
M  V30 1958 C 188.771 -0.919731 -4.4867 0
M  V30 1959 N 190.262 -0.875656 -4.54848 0
M  V30 1960 C 190.997 -1.19637 -5.6078 0
M  V30 1961 N 190.493 -1.58745 -6.74368 0
M  V30 1962 N 192.286 -1.11776 -5.50874 0
M  V30 1963 H 184.437 -1.35395 -1.63652 0
M  V30 1964 H 186.7 -0.554818 -0.768688 0
M  V30 1965 H 186.406 -1.54935 -3.15734 0
M  V30 1966 H 186.28 0.089805 -3.77093 0
M  V30 1967 H 188.667 0.559671 -2.89744 0
M  V30 1968 H 188.748 -1.10616 -2.30646 0
M  V30 1969 H 188.392 -1.94595 -4.69143 0
M  V30 1970 H 188.322 -0.258927 -5.25963 0
M  V30 1971 H 190.813 -0.587843 -3.733 0
M  V30 1972 H 191.126 -1.81586 -7.51163 0
M  V30 1973 H 189.471 -1.6263 -6.75705 0
M  V30 1974 H 192.662 -0.811264 -4.61016 0
M  V30 1975 H 192.835 -1.37103 -6.3333 0
M  V30 1976 N 186.241 1.57166 -0.116904 0
M  V30 1977 C 187.471 1.99184 0.548586 0
M  V30 1978 C 187.879 0.995436 1.60897 0
M  V30 1979 O 187.222 -0.0201293 1.83689 0
M  V30 1980 C 187.284 3.37611 1.23526 0
M  V30 1981 C 186.948 4.55857 0.323077 0
M  V30 1982 C 187.945 5.18056 -0.437476 0
M  V30 1983 C 185.63 5.01751 0.234761 0
M  V30 1984 C 187.624 6.24536 -1.2741 0
M  V30 1985 C 185.311 6.08093 -0.605496 0
M  V30 1986 C 186.309 6.69352 -1.35856 0
M  V30 1987 O 185.997 7.7364 -2.18487 0
M  V30 1988 H 185.729 0.659148 0.149999 0
M  V30 1989 H 188.283 2.0443 -0.199428 0
M  V30 1990 H 186.513 3.29113 2.0303 0
M  V30 1991 H 188.202 3.63932 1.79745 0
M  V30 1992 H 188.968 4.83516 -0.379105 0
M  V30 1993 H 184.847 4.53817 0.810601 0
M  V30 1994 H 188.391 6.72281 -1.86237 0
M  V30 1995 H 184.288 6.42063 -0.665268 0
M  V30 1996 H 185.056 7.90727 -2.11406 0
M  V30 1997 N 187.719 -0.156864 1.56817 0
M  V30 1998 C 188.629 -1.2136 2.00771 0
M  V30 1999 C 189.645 -1.47598 0.921459 0
M  V30 2000 O 190.821 -1.59462 1.2302 0
M  V30 2001 C 187.886 -2.52943 2.37109 0
M  V30 2002 C 186.947 -2.34439 3.59634 0
M  V30 2003 C 186.18 -3.59748 3.94229 0
M  V30 2004 O 186.403 -4.65526 3.29609 0
M  V30 2005 O 185.337 -3.52998 4.8752 0
M  V30 2006 H 189.163 -0.870468 2.90958 0
M  V30 2007 H 186.748 -0.36484 1.44877 0
M  V30 2008 H 188.63 -3.30538 2.61386 0
M  V30 2009 H 187.305 -2.86806 1.5008 0
M  V30 2010 H 186.212 -1.54828 3.40557 0
M  V30 2011 H 187.545 -2.05496 4.4725 0
M  V30 2012 N 189.197 -1.51736 -0.425897 0
M  V30 2013 C 190.107 -1.76738 -1.54275 0
M  V30 2014 C 191.123 -0.65211 -1.61318 0
M  V30 2015 O 192.299 -0.935654 -1.78346 0
M  V30 2016 C 189.364 -1.89755 -2.90162 0
M  V30 2017 C 188.425 -3.13633 -2.93143 0
M  V30 2018 C 187.658 -3.2602 -4.22548 0
M  V30 2019 O 187.881 -2.44067 -5.15546 0
M  V30 2020 O 186.815 -4.19071 -4.32046 0
M  V30 2021 H 190.641 -2.71502 -1.36089 0
M  V30 2022 H 188.226 -1.36376 -0.610069 0
M  V30 2023 H 190.108 -2.00236 -3.70788 0
M  V30 2024 H 188.783 -0.981785 -3.08452 0
M  V30 2025 H 187.69 -3.08622 -2.11431 0
M  V30 2026 H 189.023 -4.04936 -2.798 0
M  V30 2027 N 190.675 0.682077 -1.42076 0
M  V30 2028 C 191.9 1.47558 -1.45744 0
M  V30 2029 C 192.325 1.87977 -0.0680981 0
M  V30 2030 O 191.683 1.55522 0.9318 0
M  V30 2031 C 191.731 2.70575 -2.38373 0
M  V30 2032 O 190.835 3.68573 -1.85007 0
M  V30 2033 H 190.176 0.443585 -0.494093 0
M  V30 2034 H 192.706 0.837238 -1.86686 0
M  V30 2035 H 192.716 3.18729 -2.54707 0
M  V30 2036 H 191.391 2.40495 -3.39315 0
M  V30 2037 H 189.968 3.2757 -1.78192 0
M  V30 2038 N 192.153 1.28127 0.917671 0
M  V30 2039 C 193.083 1.14248 2.03641 0
M  V30 2040 C 194.064 0.0412748 1.7005 0
M  V30 2041 O 195.249 0.217566 1.92977 0
M  V30 2042 C 192.379 0.799431 3.37974 0
M  V30 2043 C 191.333 1.85497 3.85713 0
M  V30 2044 C 190.659 1.36565 5.16966 0
M  V30 2045 C 191.959 3.26085 4.08002 0
M  V30 2046 H 193.653 2.07835 2.15511 0
M  V30 2047 H 191.199 1.00064 1.03553 0
M  V30 2048 H 193.152 0.689114 4.15727 0
M  V30 2049 H 191.876 -0.172145 3.26146 0
M  V30 2050 H 190.535 1.95437 3.10161 0
M  V30 2051 H 190.183 0.383253 5.01538 0
M  V30 2052 H 189.883 2.07143 5.49878 0
M  V30 2053 H 191.407 1.26848 5.97279 0
M  V30 2054 H 192.821 3.19089 4.76293 0
M  V30 2055 H 191.218 3.94462 4.52238 0
M  V30 2056 H 192.288 3.70394 3.12948 0
M  V30 2057 N 193.631 -1.12557 1.10312 0
M  V30 2058 C 194.581 -2.16331 0.720076 0
M  V30 2059 C 195.565 -1.58616 -0.270115 0
M  V30 2060 O 196.757 -1.76823 -0.0790507 0
M  V30 2061 C 193.886 -3.42963 0.152113 0
M  V30 2062 C 192.972 -4.07663 1.16927 0
M  V30 2063 N 193.363 -4.47392 2.35953 0
M  V30 2064 C 191.661 -4.34425 1.0095 0
M  V30 2065 C 192.362 -4.97932 3.0073 0
M  V30 2066 N 191.338 -4.93358 2.28252 0
M  V30 2067 H 195.14 -2.44813 1.62616 0
M  V30 2068 H 192.654 -1.29449 0.980654 0
M  V30 2069 H 194.651 -4.16664 -0.14037 0
M  V30 2070 H 193.311 -3.1595 -0.748701 0
M  V30 2071 H 194.322 -4.39802 2.73486 0
M  V30 2072 H 190.999 -4.17177 0.164134 0
M  V30 2073 H 192.389 -5.38397 4.01969 0
M  V30 2074 N 195.109 -0.891671 -1.2995 0
M  V30 2075 C 196.057 -0.353066 -2.29905 0
M  V30 2076 C 197.051 0.543509 -1.60444 0
M  V30 2077 O 198.257 0.4272 -1.74857 0
M  V30 2078 H 194.632 -0.095531 -0.745907 0
M  V30 2079 H 196.603 -1.20961 -2.72784 0
M  V30 2080 C 195.352 0.411475 -3.45257 0
M  V30 2081 H 194.675 -0.269182 -3.98893 0
M  V30 2082 H 196.115 0.753328 -4.17254 0
M  V30 2083 C 194.574 1.6111 -2.9588 0
M  V30 2084 O 195.104 2.71045 -2.96475 0
M  V30 2085 N 193.31 1.45054 -2.51809 0
M  V30 2086 H 192.857 0.556175 -2.51524 0
M  V30 2087 H 192.815 2.25453 -2.1913 0
M  V30 2088 N 196.587 1.43421 -0.653314 0
M  V30 2089 C 197.998 1.85065 -0.246537 0
M  V30 2090 C 198.349 1.54688 1.2069 0
M  V30 2091 O 197.474 0.995896 1.92122 0
M  V30 2092 C 198.069 3.35922 -0.440666 0
M  V30 2093 C 196.628 3.76297 -0.0882064 0
M  V30 2094 C 195.775 2.67147 -0.743484 0
M  V30 2095 H 198.726 1.33572 -0.856979 0
M  V30 2096 H 198.747 3.79204 0.313798 0
M  V30 2097 H 198.259 3.58 -1.49858 0
M  V30 2098 H 196.36 3.5983 0.96711 0
M  V30 2099 H 196.473 4.76338 -0.513738 0
M  V30 2100 H 194.837 2.54086 -0.176712 0
M  V30 2101 H 195.62 2.92053 -1.80443 0
M  V30 2102 N 198.065 0.39524 1.52563 0
M  V30 2103 C 199.295 -0.184675 2.05773 0
M  V30 2104 C 199.703 -1.40571 1.26635 0
M  V30 2105 O 199.046 -1.81105 0.30769 0
M  V30 2106 C 199.108 -0.613551 3.54226 0
M  V30 2107 C 198.772 0.49484 4.54313 0
M  V30 2108 C 199.769 1.3541 5.01956 0
M  V30 2109 C 197.454 0.663565 4.97898 0
M  V30 2110 C 199.448 2.36716 5.91814 0
M  V30 2111 C 197.135 1.67996 5.87555 0
M  V30 2112 C 198.133 2.53017 6.34406 0
M  V30 2113 O 197.821 3.52917 7.22291 0
M  V30 2114 H 197.553 -0.030077 0.675331 0
M  V30 2115 H 200.107 0.560708 1.97599 0
M  V30 2116 H 198.337 -1.411 3.60038 0
M  V30 2117 H 200.026 -1.11981 3.90148 0
M  V30 2118 H 200.792 1.23509 4.6901 0
M  V30 2119 H 196.671 0.0114913 4.60999 0
M  V30 2120 H 200.215 3.03113 6.28306 0
M  V30 2121 H 196.112 1.79933 6.19915 0
M  V30 2122 H 196.88 3.48996 7.40367 0
M  V30 2123 N 199.544 -1.57102 0.125237 0
M  V30 2124 C 200.955 -1.82384 -0.399142 0
M  V30 2125 C 201.306 -1.04276 -1.66195 0
M  V30 2126 O 200.431 -0.281269 -2.14564 0
M  V30 2127 C 201.026 -3.30821 -0.730932 0
M  V30 2128 C 199.585 -3.56762 -1.19992 0
M  V30 2129 C 198.732 -2.7649 -0.211792 0
M  V30 2130 H 201.683 -1.54786 0.350277 0
M  V30 2131 H 201.704 -3.4579 -1.58775 0
M  V30 2132 H 201.216 -3.87643 0.188345 0
M  V30 2133 H 199.317 -3.05305 -2.13588 0
M  V30 2134 H 199.43 -4.65317 -1.14093 0
M  V30 2135 H 197.794 -2.4489 -0.700085 0
M  V30 2136 H 198.577 -3.36073 0.700691 0
M  V30 2137 N 201.022 0.148545 -1.56898 0
M  V30 2138 C 202.299 0.890019 -1.74178 0
M  V30 2139 C 202.679 1.99407 -0.692839 0
M  V30 2140 O 202.027 2.26671 0.288505 0
M  V30 2141 C 202.237 1.43389 -3.18183 0
M  V30 2142 C 203.585 1.89791 -3.79822 0
M  V30 2143 O 204.609 1.53134 -3.21603 0
M  V30 2144 O 203.468 2.57387 -4.82093 0
M  V30 2145 H 200.562 0.420496 -0.712118 0
M  V30 2146 H 203.108 0.134591 -1.69165 0
M  V30 2147 H 201.88 0.640383 -3.86024 0
M  V30 2148 H 201.503 2.25287 -3.27615 0
M  V30 2149 N 202.5 1.5196 0.417844 0
M  V30 2150 C 203.73 1.69181 1.18581 0
M  V30 2151 C 204.138 0.397104 1.84986 0
M  V30 2152 O 203.481 -0.636011 1.72339 0
M  V30 2153 C 203.543 2.76497 2.29759 0
M  V30 2154 C 203.207 4.18514 1.83563 0
M  V30 2155 C 204.204 5.02648 1.32821 0
M  V30 2156 C 201.889 4.64708 1.90661 0
M  V30 2157 C 203.883 6.31044 0.897894 0
M  V30 2158 C 201.57 5.93096 1.47241 0
M  V30 2159 C 202.568 6.76093 0.968891 0
M  V30 2160 O 202.256 8.02078 0.540924 0
M  V30 2161 H 201.988 0.570457 0.362705 0
M  V30 2162 H 204.542 1.99249 0.498885 0
M  V30 2163 H 202.772 2.41786 3.01789 0
M  V30 2164 H 204.461 2.82403 2.91553 0
M  V30 2165 H 205.227 4.68154 1.26716 0
M  V30 2166 H 201.106 4.00216 2.28797 0
M  V30 2167 H 204.65 6.95776 0.504192 0
M  V30 2168 H 200.547 6.271 1.53022 0
M  V30 2169 H 201.315 8.15794 0.66502 0
M  V30 2170 N 203.978 -0.674533 1.42435 0
M  V30 2171 C 204.928 -1.7807 1.4239 0
M  V30 2172 C 205.912 -1.58169 0.295202 0
M  V30 2173 O 207.104 -1.68643 0.537449 0
M  V30 2174 C 204.233 -3.16532 1.32901 0
M  V30 2175 C 203.319 -3.42055 2.50717 0
M  V30 2176 N 203.71 -3.38162 3.76139 0
M  V30 2177 C 202.008 -3.72692 2.44983 0
M  V30 2178 C 202.709 -3.63177 4.54398 0
M  V30 2179 N 201.685 -3.83954 3.84812 0
M  V30 2180 H 205.487 -1.73454 2.37257 0
M  V30 2181 H 203.001 -0.875381 1.36788 0
M  V30 2182 H 204.998 -3.958 1.30951 0
M  V30 2183 H 203.658 -3.22345 0.390363 0
M  V30 2184 H 204.669 -3.18057 4.0873 0
M  V30 2185 H 201.346 -3.85749 1.59699 0
M  V30 2186 H 202.736 -3.66125 5.63384 0
M  V30 2187 N 205.456 -1.28612 -0.910864 0
M  V30 2188 C 206.702 -1.17116 -1.66299 0
M  V30 2189 C 207.057 0.276917 -1.90397 0
M  V30 2190 O 206.35 1.19795 -1.49532 0
M  V30 2191 C 206.544 -1.90624 -3.0232 0
M  V30 2192 C 206.373 -3.42431 -2.91498 0
M  V30 2193 C 205.143 -4.11773 -2.92867 0
M  V30 2194 C 207.341 -4.38124 -2.69355 0
M  V30 2195 N 205.323 -5.50025 -2.72664 0
M  V30 2196 C 206.694 -5.63759 -2.58023 0
M  V30 2197 C 208.749 -4.28016 -2.54375 0
M  V30 2198 C 207.452 -6.80436 -2.33238 0
M  V30 2199 C 209.478 -5.44433 -2.30969 0
M  V30 2200 C 208.84 -6.69034 -2.20394 0
M  V30 2201 H 204.939 -0.483506 -0.61461 0
M  V30 2202 H 207.523 -1.62299 -1.0755 0
M  V30 2203 H 205.694 -1.4787 -3.5915 0
M  V30 2204 H 207.426 -1.71488 -3.66571 0
M  V30 2205 H 204.181 -3.63378 -3.03732 0
M  V30 2206 H 204.605 -6.22705 -2.65646 0
M  V30 2207 H 209.247 -3.32388 -2.613 0
M  V30 2208 H 206.965 -7.7613 -2.25051 0
M  V30 2209 H 210.551 -5.38504 -2.20238 0
M  V30 2210 H 209.431 -7.57595 -2.02531 0
M  V30 2211 N 206.934 1.1197 -1.10907 0
M  V30 2212 C 207.864 2.19928 -0.784473 0
M  V30 2213 C 208.845 1.6833 0.244726 0
M  V30 2214 O 210.03 1.93892 0.109418 0
M  V30 2215 C 207.16 3.46597 -0.220827 0
M  V30 2216 C 206.114 4.11376 -1.18127 0
M  V30 2217 C 205.44 5.32554 -0.478594 0
M  V30 2218 C 206.74 4.56945 -2.52979 0
M  V30 2219 H 208.434 2.47337 -1.68715 0
M  V30 2220 H 205.98 1.18879 -0.812642 0
M  V30 2221 H 207.933 4.21396 0.0184278 0
M  V30 2222 H 206.657 3.1863 0.717113 0
M  V30 2223 H 205.316 3.38564 -1.40606 0
M  V30 2224 H 204.964 5.00856 0.463976 0
M  V30 2225 H 204.664 5.76844 -1.11912 0
M  V30 2226 H 206.188 6.10096 -0.248 0
M  V30 2227 H 207.602 5.23093 -2.3462 0
M  V30 2228 H 205.999 5.1203 -3.12962 0
M  V30 2229 H 207.069 3.70676 -3.12614 0
M  V30 2230 N 208.412 0.89855 1.29475 0
M  V30 2231 C 209.828 0.594483 1.48115 0
M  V30 2232 C 210.028 -0.86431 1.82022 0
M  V30 2233 O 209.084 -1.64457 1.91599 0
M  V30 2234 C 210.397 1.51932 2.59494 0
M  V30 2235 C 211.945 1.5244 2.7337 0
M  V30 2236 C 212.42 2.43548 3.87877 0
M  V30 2237 N 213.911 2.41589 3.95208 0
M  V30 2238 C 214.646 3.08789 4.83153 0
M  V30 2239 N 214.142 3.85265 5.75798 0
M  V30 2240 N 215.935 2.97952 4.76635 0
M  V30 2241 H 208.086 1.84207 1.05742 0
M  V30 2242 H 210.349 0.789251 0.525154 0
M  V30 2243 H 210.055 2.55865 2.41301 0
M  V30 2244 H 209.929 1.23899 3.56271 0
M  V30 2245 H 212.316 0.492518 2.90961 0
M  V30 2246 H 212.397 1.8451 1.77172 0
M  V30 2247 H 212.041 3.46829 3.71041 0
M  V30 2248 H 211.971 2.08788 4.83441 0
M  V30 2249 H 214.462 1.86025 3.28943 0
M  V30 2250 H 214.775 4.33598 6.39697 0
M  V30 2251 H 213.12 3.89371 5.75687 0
M  V30 2252 H 216.311 2.37723 4.03244 0
M  V30 2253 H 216.484 3.50599 5.44962 0
M  V30 2254 N 209.89 -1.43072 0.660911 0
M  V30 2255 C 211.118 -2.06067 0.185422 0
M  V30 2256 C 211.533 -1.49582 -1.15198 0
M  V30 2257 O 210.89 -0.630134 -1.71276 0
M  V30 2258 C 210.941 -3.61371 0.0966523 0
M  V30 2259 O 210.662 -4.15758 1.38119 0
M  V30 2260 C 212.163 -4.41455 -0.403996 0
M  V30 2261 H 209.383 -0.664459 0.0934604 0
M  V30 2262 H 211.927 -1.83447 0.90373 0
M  V30 2263 H 210.082 -3.8315 -0.572259 0
M  V30 2264 H 210.496 -5.09499 1.24542 0
M  V30 2265 H 211.97 -5.50437 -0.415045 0
M  V30 2266 H 212.447 -4.15036 -1.43674 0
M  V30 2267 H 213.053 -4.24663 0.232691 0
M  V30 2268 N 211.368 -0.403325 -1.52352 0
M  V30 2269 C 212.614 0.174605 -2.02047 0
M  V30 2270 C 212.947 1.45282 -1.28867 0
M  V30 2271 O 212.222 1.90483 -0.393257 0
M  V30 2272 C 212.505 0.428238 -3.57545 0
M  V30 2273 C 212.358 -0.866248 -4.4138 0
M  V30 2274 C 213.677 1.21287 -4.23057 0
M  V30 2275 H 210.796 0.0619851 -0.734389 0
M  V30 2276 H 213.438 -0.53565 -1.82293 0
M  V30 2277 H 211.588 1.03327 -3.74507 0
M  V30 2278 H 213.26 -1.50265 -4.3614 0
M  V30 2279 H 211.503 -1.47851 -4.07827 0
M  V30 2280 H 212.174 -0.643249 -5.48239 0
M  V30 2281 H 214.65 0.700703 -4.10158 0
M  V30 2282 H 213.526 1.35909 -5.31808 0
M  V30 2283 H 213.787 2.23193 -3.81625 0
M  V30 2284 N 212.846 1.57033 -0.133567 0
M  V30 2285 C 213.793 2.16074 0.811208 0
M  V30 2286 C 214.763 1.08979 1.2535 0
M  V30 2287 O 215.948 1.36958 1.32843 0
M  V30 2288 C 213.088 2.77595 2.05024 0
M  V30 2289 C 212.201 3.99042 1.65498 0
M  V30 2290 C 211.336 4.48603 2.84479 0
M  V30 2291 C 210.375 5.62547 2.41262 0
M  V30 2292 N 209.512 6.06787 3.53206 0
M  V30 2293 H 214.352 2.96477 0.300906 0
M  V30 2294 H 211.889 1.46462 0.136822 0
M  V30 2295 H 213.847 3.11402 2.77642 0
M  V30 2296 H 212.477 1.99859 2.53488 0
M  V30 2297 H 211.529 3.71302 0.826981 0
M  V30 2298 H 212.841 4.81629 1.29748 0
M  V30 2299 H 211.995 4.84395 3.65303 0
M  V30 2300 H 210.734 3.64995 3.23465 0
M  V30 2301 H 209.739 5.26345 1.58874 0
M  V30 2302 H 210.964 6.47931 2.03377 0
M  V30 2303 H 208.91 5.26117 3.91838 0
M  V30 2304 H 208.827 6.84266 3.21427 0
M  V30 2305 H 210.095 6.4722 4.34427 0
M  V30 2306 N 214.325 -0.140222 1.56975 0
M  V30 2307 C 215.553 -0.866437 1.87884 0
M  V30 2308 C 215.968 -1.74428 0.722517 0
M  V30 2309 O 215.325 -1.79891 -0.30749 0
M  V30 2310 C 215.376 -1.71753 3.18093 0
M  V30 2311 O 215.097 -0.875056 4.29272 0
M  V30 2312 C 216.598 -2.55074 3.62563 0
M  V30 2313 H 213.818 -0.25019 0.622612 0
M  V30 2314 H 216.362 -0.130977 2.0408 0
M  V30 2315 H 214.517 -2.40598 3.03631 0
M  V30 2316 H 214.931 -1.46002 5.03769 0
M  V30 2317 H 216.405 -3.10356 4.5649 0
M  V30 2318 H 216.882 -3.31434 2.88181 0
M  V30 2319 H 217.488 -1.91509 3.79743 0
M  V30 2320 N 215.803 -1.52179 -0.40978 0
M  V30 2321 C 217.031 -1.70054 -1.17853 0
M  V30 2322 C 217.446 -0.409735 -1.843 0
M  V30 2323 O 216.803 0.614183 -1.71855 0
M  V30 2324 C 216.854 -2.83568 -2.24213 0
M  V30 2325 O 216.575 -4.0765 -1.60478 0
M  V30 2326 C 218.076 -3.12947 -3.13973 0
M  V30 2327 H 215.296 -0.569917 -0.354169 0
M  V30 2328 H 217.84 -1.98734 -0.482198 0
M  V30 2329 H 215.995 -2.57409 -2.89516 0
M  V30 2330 H 216.409 -4.70899 -2.30986 0
M  V30 2331 H 217.883 -3.95889 -3.84677 0
M  V30 2332 H 218.36 -2.26472 -3.76307 0
M  V30 2333 H 218.966 -3.40868 -2.5434 0
M  V30 2334 N 217.281 0.66697 -1.42791 0
M  V30 2335 C 218.228 1.7803 -1.4688 0
M  V30 2336 C 219.198 1.6299 -0.319919 0
M  V30 2337 O 220.383 1.83432 -0.525118 0
M  V30 2338 C 217.523 3.1611 -1.38451 0
M  V30 2339 C 216.636 3.42381 -2.63437 0
M  V30 2340 C 215.771 4.70232 -2.47094 0
M  V30 2341 C 214.81 4.89564 -3.67415 0
M  V30 2342 N 213.947 6.08661 -3.49966 0
M  V30 2343 H 218.787 1.7387 -2.42019 0
M  V30 2344 H 216.324 0.84868 -1.20149 0
M  V30 2345 H 218.282 3.95914 -1.31561 0
M  V30 2346 H 216.912 3.19374 -0.469033 0
M  V30 2347 H 215.964 2.56774 -2.80662 0
M  V30 2348 H 217.276 3.52557 -3.52853 0
M  V30 2349 H 216.43 5.5814 -2.37834 0
M  V30 2350 H 215.169 4.62353 -1.5518 0
M  V30 2351 H 214.174 4.00096 -3.77099 0
M  V30 2352 H 215.399 4.99282 -4.6032 0
M  V30 2353 H 213.345 6.0194 -2.60776 0
M  V30 2354 H 213.262 6.19733 -4.32975 0
M  V30 2355 H 214.53 6.99226 -3.44532 0
M  V30 2356 N 218.759 1.29093 0.90403 0
M  V30 2357 C 219.669 1.15727 2.0407 0
M  V30 2358 C 220.685 0.0815308 1.73809 0
M  V30 2359 O 221.861 0.292749 1.99261 0
M  V30 2360 C 218.926 0.830424 3.36608 0
M  V30 2361 C 217.987 1.98955 3.80415 0
M  V30 2362 C 217.22 1.6782 5.06628 0
M  V30 2363 O 217.443 0.597105 5.67266 0
M  V30 2364 O 216.377 2.52486 5.46383 0
M  V30 2365 H 220.203 2.11171 2.18267 0
M  V30 2366 H 217.788 1.08504 1.027 0
M  V30 2367 H 219.67 0.662521 4.16159 0
M  V30 2368 H 218.345 -0.0942678 3.23563 0
M  V30 2369 H 217.252 2.21267 3.01648 0
M  V30 2370 H 218.585 2.89529 3.98037 0
M  V30 2371 N 220.237 -1.11381 1.11499 0
M  V30 2372 C 221.462 -1.87475 0.887019 0
M  V30 2373 C 221.887 -1.79639 -0.557796 0
M  V30 2374 O 221.245 -1.15924 -1.39396 0
M  V30 2375 C 221.293 -3.34213 1.35403 0
M  V30 2376 O 220.397 -4.0903 0.526146 0
M  V30 2377 H 219.738 -0.582099 0.319463 0
M  V30 2378 H 222.268 -1.40785 1.48461 0
M  V30 2379 H 222.278 -3.8506 1.34881 0
M  V30 2380 H 220.953 -3.39232 2.40612 0
M  V30 2381 H 219.53 -3.68082 0.597522 0
M  V30 2382 N 221.715 -0.905404 -1.28997 0
M  V30 2383 C 222.645 -0.404212 -2.29975 0
M  V30 2384 C 223.626 0.523784 -1.61835 0
M  V30 2385 O 224.811 0.433298 -1.89304 0
M  V30 2386 C 221.941 0.364042 -3.45387 0
M  V30 2387 C 220.895 -0.474048 -4.25367 0
M  V30 2388 C 220.221 0.422045 -5.33032 0
M  V30 2389 C 221.521 -1.72696 -4.92923 0
M  V30 2390 H 223.215 -1.24807 -2.72146 0
M  V30 2391 H 220.761 -0.601585 -1.30832 0
M  V30 2392 H 222.714 0.725447 -4.15109 0
M  V30 2393 H 221.438 1.24174 -3.02074 0
M  V30 2394 H 220.097 -0.81786 -3.57361 0
M  V30 2395 H 219.745 1.29804 -4.85963 0
M  V30 2396 H 219.445 -0.135057 -5.87445 0
M  V30 2397 H 220.969 0.779517 -6.05604 0
M  V30 2398 H 222.383 -1.43495 -5.55051 0
M  V30 2399 H 220.78 -2.22582 -5.57295 0
M  V30 2400 H 221.85 -2.45964 -4.17887 0
M  V30 2401 N 223.193 1.4272 -0.668489 0
M  V30 2402 C 224.439 2.01923 -0.188419 0
M  V30 2403 C 224.772 1.52704 1.19979 0
M  V30 2404 O 224.047 0.726566 1.8042 0
M  V30 2405 C 224.33 3.59451 -0.216085 0
M  V30 2406 C 224.183 4.18864 -1.6393 0
M  V30 2407 C 225.502 4.37903 0.439179 0
M  V30 2408 H 222.621 0.733674 -0.0699412 0
M  V30 2409 H 225.263 1.69822 -0.852076 0
M  V30 2410 H 223.413 3.86929 0.349012 0
M  V30 2411 H 225.085 4.02362 -2.25616 0
M  V30 2412 H 223.328 3.74933 -2.18193 0
M  V30 2413 H 223.999 5.27987 -1.61039 0
M  V30 2414 H 226.475 4.16079 -0.0417878 0
M  V30 2415 H 225.351 5.47519 0.389157 0
M  V30 2416 H 225.612 4.15303 1.51577 0
M  V30 2417 N 224.671 0.411399 1.52136 0
M  V30 2418 C 225.92 -0.165009 2.01024 0
M  V30 2419 C 226.233 -1.4603 1.30133 0
M  V30 2420 O 227.439 -2.1181 1.69849 0
M  V30 2421 C 225.895 -0.344618 3.58246 0
M  V30 2422 C 225.503 0.938716 4.38055 0
M  V30 2423 C 227.247 -0.876195 4.15359 0
M  V30 2424 C 225.154 0.726172 5.86925 0
M  V30 2425 H 224.084 -0.0654407 0.751155 0
M  V30 2426 H 226.735 0.537192 1.75461 0
M  V30 2427 H 225.117 -1.10921 3.80148 0
M  V30 2428 H 226.291 1.70963 4.27912 0
M  V30 2429 H 224.606 1.39688 3.92271 0
M  V30 2430 H 227.203 -1.05128 5.24263 0
M  V30 2431 H 227.546 -1.85152 3.7286 0
M  V30 2432 H 228.079 -0.170607 3.97434 0
M  V30 2433 H 224.818 1.67312 6.33788 0
M  V30 2434 H 224.338 -0.00540283 5.998 0
M  V30 2435 H 226.017 0.369231 6.45946 0
M  V30 2436 N 226.149 -1.5696 0.141893 0
M  V30 2437 C 227.398 -1.95135 -0.510427 0
M  V30 2438 C 227.711 -1.02896 -1.66348 0
M  V30 2439 O 228.917 -1.30629 -2.38009 0
M  V30 2440 C 227.373 -3.46876 -0.959427 0
M  V30 2441 C 226.981 -4.47691 0.166419 0
M  V30 2442 C 228.725 -3.93927 -1.58183 0
M  V30 2443 C 226.632 -5.90636 -0.300565 0
M  V30 2444 H 225.562 -0.728494 -0.194454 0
M  V30 2445 H 228.213 -1.8211 0.22542 0
M  V30 2446 H 226.595 -3.55215 -1.75038 0
M  V30 2447 H 227.769 -4.51043 0.94325 0
M  V30 2448 H 226.084 -4.10527 0.696905 0
M  V30 2449 H 228.681 -4.98158 -1.94275 0
M  V30 2450 H 229.024 -3.3519 -2.46888 0
M  V30 2451 H 229.557 -3.88484 -0.855863 0
M  V30 2452 H 226.296 -6.5318 0.550989 0
M  V30 2453 H 225.816 -5.90655 -1.04338 0
M  V30 2454 H 227.495 -6.42588 -0.754265 0
M  V30 2455 N 227.627 0.131896 -1.57047 0
M  V30 2456 C 228.852 0.860418 -1.8871 0
M  V30 2457 C 229.277 1.73251 -0.73251 0
M  V30 2458 O 228.635 1.785 0.317429 0
M  V30 2459 C 228.683 1.68047 -3.19049 0
M  V30 2460 O 227.787 2.7862 -3.04047 0
M  V30 2461 H 227.128 0.238743 -0.619595 0
M  V30 2462 H 229.658 0.118169 -2.04258 0
M  V30 2463 H 229.668 2.07238 -3.51449 0
M  V30 2464 H 228.343 1.04018 -4.02682 0
M  V30 2465 H 226.92 2.42726 -2.83088 0
M  V30 2466 N 229.106 1.52395 0.401703 0
M  V30 2467 C 230.517 1.58899 0.980202 0
M  V30 2468 C 230.868 0.434032 1.91339 0
M  V30 2469 O 229.993 -0.444619 2.11783 0
M  V30 2470 C 230.588 2.87994 1.78451 0
M  V30 2471 C 229.147 2.96953 2.31292 0
M  V30 2472 C 228.294 2.53903 1.11483 0
M  V30 2473 H 231.245 1.57657 0.18168 0
M  V30 2474 H 231.266 2.73765 2.64259 0
M  V30 2475 H 230.778 3.72035 1.10506 0
M  V30 2476 H 228.879 2.17422 3.02586 0
M  V30 2477 H 228.992 4.01344 2.61649 0
M  V30 2478 H 227.356 2.07925 1.47104 0
M  V30 2479 H 228.139 3.40326 0.450928 0
M  V30 2480 N 230.584 -0.659388 1.43143 0
M  V30 2481 C 231.809 -1.45221 1.48073 0
M  V30 2482 C 232.234 -1.87845 0.097995 0
M  V30 2483 O 231.592 -1.56985 -0.90694 0
M  V30 2484 C 231.64 -2.66748 2.42647 0
M  V30 2485 O 230.744 -3.65583 1.90848 0
M  V30 2486 H 230.085 -0.435669 0.501088 0
M  V30 2487 H 232.615 -0.807432 1.87994 0
M  V30 2488 H 232.625 -3.14637 2.59745 0
M  V30 2489 H 231.3 -2.35067 3.43098 0
M  V30 2490 H 229.877 -3.24693 1.83381 0
M  V30 2491 N 232.062 -1.29571 -0.897171 0
M  V30 2492 C 233.308 -1.17863 -1.65034 0
M  V30 2493 C 233.641 0.268729 -1.92332 0
M  V30 2494 O 232.916 1.19378 -1.53555 0
M  V30 2495 C 233.199 -1.995 -2.99786 0
M  V30 2496 C 233.052 -3.5239 -2.79538 0
M  V30 2497 C 234.371 -1.82335 -4.00552 0
M  V30 2498 H 231.49 -0.429528 -0.598895 0
M  V30 2499 H 234.132 -1.59072 -1.03905 0
M  V30 2500 H 232.282 -1.64485 -3.51962 0
M  V30 2501 H 233.954 -3.97401 -2.34244 0
M  V30 2502 H 232.197 -3.77187 -2.14273 0
M  V30 2503 H 232.868 -4.04787 -3.75302 0
M  V30 2504 H 235.344 -2.12924 -3.57495 0
M  V30 2505 H 234.22 -2.41801 -4.92771 0
M  V30 2506 H 234.481 -0.779209 -4.35179 0
M  V30 2507 N 233.54 1.10788 -1.12088 0
M  V30 2508 C 234.503 2.15207 -0.788577 0
M  V30 2509 C 235.503 1.59609 0.195317 0
M  V30 2510 O 236.693 1.74174 -0.0300193 0
M  V30 2511 C 233.825 3.4047 -0.171174 0
M  V30 2512 H 235.018 2.46116 -1.71368 0
M  V30 2513 H 232.571 1.26089 -0.923652 0
M  V30 2514 H 233.306 3.15176 0.763832 0
M  V30 2515 H 233.091 3.82109 -0.879514 0
M  V30 2516 H 234.581 4.17576 0.04496 0
M  V30 2517 N 235.018 0.912232 1.28515 0
M  V30 2518 C 236.295 0.463597 1.90027 0
M  V30 2519 C 236.675 -1.05753 1.82701 0
M  V30 2520 O 236.023 -1.90492 1.26194 0
M  V30 2521 C 236.233 0.992253 3.34597 0
M  V30 2522 C 237.581 1.04344 4.11579 0
M  V30 2523 O 238.605 0.94079 3.43551 0
M  V30 2524 O 237.464 1.1995 5.33174 0
M  V30 2525 H 234.558 0.146666 0.813891 0
M  V30 2526 H 237.104 1.00292 1.36893 0
M  V30 2527 H 235.876 2.03623 3.34146 0
M  V30 2528 H 235.499 0.433672 3.95228 0
M  V30 2529 N 236.496 -1.42363 0.676048 0
M  V30 2530 C 237.426 -2.33497 0.0124832 0
M  V30 2531 C 238.407 -1.50748 -0.787981 0
M  V30 2532 O 239.592 -1.79346 -0.744884 0
M  V30 2533 C 236.722 -3.34377 -0.938582 0
M  V30 2534 C 235.676 -4.27289 -0.246622 0
M  V30 2535 C 235.002 -5.18386 -1.31071 0
M  V30 2536 C 236.302 -5.14916 0.875125 0
M  V30 2537 H 237.996 -2.89233 0.773593 0
M  V30 2538 H 235.542 -1.39073 0.37346 0
M  V30 2539 H 237.495 -3.97044 -1.41188 0
M  V30 2540 H 236.219 -2.76947 -1.73113 0
M  V30 2541 H 234.878 -3.66018 0.206456 0
M  V30 2542 H 234.526 -4.57282 -2.09528 0
M  V30 2543 H 234.226 -5.81378 -0.852839 0
M  V30 2544 H 235.75 -5.83929 -1.78492 0
M  V30 2545 H 237.164 -5.71262 0.482983 0
M  V30 2546 H 235.561 -5.86747 1.25887 0
M  V30 2547 H 236.631 -4.53242 1.72335 0
M  V30 2548 N 237.974 -0.419461 -1.51915 0
M  V30 2549 C 239.251 0.211999 -1.94448 0
M  V30 2550 C 239.631 1.61703 -1.35703 0
M  V30 2551 O 238.979 2.22102 -0.536931 0
M  V30 2552 C 239.189 0.207872 -3.4838 0
M  V30 2553 C 240.537 0.422192 -4.22496 0
M  V30 2554 O 241.561 0.286778 -3.55044 0
M  V30 2555 O 240.42 0.690009 -5.42126 0
M  V30 2556 H 237.514 0.139586 -0.815135 0
M  V30 2557 H 240.06 -0.476151 -1.62883 0
M  V30 2558 H 238.832 -0.775102 -3.83546 0
M  V30 2559 H 238.455 0.939688 -3.86336 0
M  V30 2560 N 239.452 1.56882 -0.150215 0
M  V30 2561 C 240.863 1.82995 0.370076 0
M  V30 2562 C 241.214 1.06907 1.64515 0
M  V30 2563 O 240.339 0.315369 2.1409 0
M  V30 2564 C 240.934 3.31942 0.678208 0
M  V30 2565 C 239.493 3.58625 1.14301 0
M  V30 2566 C 238.64 2.76792 0.167778 0
M  V30 2567 H 241.591 1.54209 -0.374858 0
M  V30 2568 H 241.612 3.48272 1.53254 0
M  V30 2569 H 241.124 3.87294 -0.249991 0
M  V30 2570 H 239.225 3.08664 2.08704 0
M  V30 2571 H 239.338 4.67073 1.06676 0
M  V30 2572 H 237.702 2.45972 0.661037 0
M  V30 2573 H 238.485 3.34916 -0.754069 0
M  V30 2574 N 240.93 -0.123565 1.57115 0
M  V30 2575 C 242.16 -0.845233 1.88519 0
M  V30 2576 C 242.568 -1.74168 0.739064 0
M  V30 2577 O 241.911 -1.81244 -0.299355 0
M  V30 2578 C 241.973 -1.73452 3.14888 0
M  V30 2579 C 241.637 -1.01285 4.45635 0
M  V30 2580 C 242.634 -0.355774 5.18681 0
M  V30 2581 C 240.319 -0.99538 4.92339 0
M  V30 2582 C 242.313 0.309114 6.3665 0
M  V30 2583 C 240 -0.32669 6.10226 0
M  V30 2584 C 240.998 0.324406 6.82229 0
M  V30 2585 O 240.686 0.982437 7.97874 0
M  V30 2586 H 240.418 -0.248534 0.628655 0
M  V30 2587 H 242.972 -0.113907 2.05084 0
M  V30 2588 H 241.202 -2.50737 2.94394 0
M  V30 2589 H 242.891 -2.33021 3.32349 0
M  V30 2590 H 243.657 -0.360918 4.83655 0
M  V30 2591 H 239.536 -1.49159 4.36202 0
M  V30 2592 H 243.08 0.8179 6.92789 0
M  V30 2593 H 238.977 -0.319294 6.4471 0
M  V30 2594 H 239.745 0.886454 8.13686 0
M  V30 2595 N 242.408 -1.52605 -0.393616 0
M  V30 2596 C 243.685 -1.58001 -1.15304 0
M  V30 2597 C 244.065 -0.370385 -2.07825 0
M  V30 2598 O 243.413 0.641638 -2.19306 0
M  V30 2599 C 243.623 -2.91652 -1.91677 0
M  V30 2600 C 244.971 -3.4522 -2.47201 0
M  V30 2601 O 245.995 -2.93495 -2.01839 0
M  V30 2602 O 244.854 -4.35579 -3.3005 0
M  V30 2603 H 241.948 -0.637068 -0.527327 0
M  V30 2604 H 244.494 -1.64939 -0.399141 0
M  V30 2605 H 243.266 -3.71136 -1.23992 0
M  V30 2606 H 242.889 -2.88077 -2.74039 0
M  V30 2607 N 243.887 0.651787 -1.4349 0
M  V30 2608 C 245.303 0.96762 -1.26922 0
M  V30 2609 C 245.503 2.00602 -0.189982 0
M  V30 2610 O 244.559 2.48793 0.431107 0
M  V30 2611 C 245.872 1.45052 -2.63401 0
M  V30 2612 C 247.42 1.5671 -2.70945 0
M  V30 2613 C 247.895 2.0839 -4.07845 0
M  V30 2614 N 249.386 2.1569 -4.09917 0
M  V30 2615 C 250.121 2.56804 -5.12679 0
M  V30 2616 N 249.617 2.97203 -6.25813 0
M  V30 2617 N 251.41 2.56756 -5.00033 0
M  V30 2618 H 243.561 -0.0353158 -2.12371 0
M  V30 2619 H 245.824 0.0467858 -0.946845 0
M  V30 2620 H 245.53 0.761926 -3.43348 0
M  V30 2621 H 245.404 2.42529 -2.88894 0
M  V30 2622 H 247.791 2.2467 -1.9133 0
M  V30 2623 H 247.872 0.57662 -2.49216 0
M  V30 2624 H 247.516 1.41031 -4.87927 0
M  V30 2625 H 247.446 3.08271 -4.26938 0
M  V30 2626 H 249.937 1.87237 -3.28254 0
M  V30 2627 H 250.25 3.27328 -7.00055 0
M  V30 2628 H 248.595 2.95004 -6.29283 0
M  V30 2629 H 251.786 2.24572 -4.10713 0
M  V30 2630 H 251.959 2.88475 -5.80247 0
M  V30 2631 N 245.365 1.30045 0.890287 0
M  V30 2632 C 246.59 1.21598 1.68014 0
M  V30 2633 C 247.015 -0.218678 1.86825 0
M  V30 2634 O 246.373 -1.15756 1.39536 0
M  V30 2635 C 246.421 1.94434 3.03691 0
M  V30 2636 O 245.525 1.2678 3.92429 0
M  V30 2637 H 244.866 0.420856 0.513592 0
M  V30 2638 H 247.396 1.71775 1.11151 0
M  V30 2639 H 247.406 2.03251 3.5377 0
M  V30 2640 H 246.081 2.98777 2.89318 0
M  V30 2641 H 244.658 1.26282 3.50866 0
M  V30 2642 N 246.843 -1.10192 1.12674 0
M  V30 2643 C 247.773 -2.18652 0.819362 0
M  V30 2644 C 248.754 -1.68698 -0.217915 0
M  V30 2645 O 249.939 -1.94041 -0.0785581 0
M  V30 2646 C 247.069 -3.46202 0.27594 0
M  V30 2647 C 246.023 -4.09444 1.24656 0
M  V30 2648 C 245.349 -5.31725 0.563258 0
M  V30 2649 C 246.649 -4.52863 2.60217 0
M  V30 2650 H 248.343 -2.44622 1.72628 0
M  V30 2651 H 245.889 -1.17571 0.831451 0
M  V30 2652 H 247.842 -4.21372 0.0486149 0
M  V30 2653 H 246.566 -3.1973 -0.666331 0
M  V30 2654 H 245.225 -3.36284 1.45974 0
M  V30 2655 H 244.873 -5.0153 -0.384235 0
M  V30 2656 H 244.573 -5.74991 1.21075 0
M  V30 2657 H 246.097 -6.09624 0.34503 0
M  V30 2658 H 247.511 -5.19294 2.42913 0
M  V30 2659 H 245.908 -5.06986 3.21068 0
M  V30 2660 H 246.978 -3.65656 3.18471 0
M  V30 2661 N 248.321 -0.919034 -1.28029 0
M  V30 2662 C 249.271 -0.382574 -2.24767 0
M  V30 2663 C 250.255 0.508286 -1.52661 0
M  V30 2664 O 251.447 0.347145 -1.73562 0
M  V30 2665 C 248.576 0.371432 -3.41285 0
M  V30 2666 C 247.662 -0.535449 -4.20706 0
M  V30 2667 N 248.053 -1.65141 -4.78082 0
M  V30 2668 C 246.351 -0.336824 -4.44726 0
M  V30 2669 C 247.052 -2.21475 -5.37888 0
M  V30 2670 N 246.028 -1.50537 -5.22341 0
M  V30 2671 H 249.83 -1.23477 -2.66703 0
M  V30 2672 H 247.344 -0.772299 -1.42861 0
M  V30 2673 H 249.341 0.772638 -4.09678 0
M  V30 2674 H 248.001 1.22066 -3.00882 0
M  V30 2675 H 249.012 -2.03392 -4.7629 0
M  V30 2676 H 245.689 0.47246 -4.14818 0
M  V30 2677 H 247.079 -3.15379 -5.93284 0
M  V30 2678 N 249.799 1.42003 -0.683588 0
M  V30 2679 C 251.024 2.06265 -0.216647 0
M  V30 2680 C 251.449 1.51059 1.12083 0
M  V30 2681 O 250.807 0.632638 1.69904 0
M  V30 2682 C 250.855 3.60191 -0.171759 0
M  V30 2683 O 249.959 4.03396 0.857069 0
M  V30 2684 H 249.3 0.65502 -0.108834 0
M  V30 2685 H 251.83 1.81982 -0.935077 0
M  V30 2686 H 251.84 4.08 0.0014303 0
M  V30 2687 H 250.515 3.99743 -1.14796 0
M  V30 2688 H 249.092 3.67117 0.654208 0
M  V30 2689 N 251.277 0.427512 1.51691 0
M  V30 2690 C 252.693 0.0792977 1.59403 0
M  V30 2691 C 252.893 -1.41035 1.43914 0
M  V30 2692 O 251.949 -2.17922 1.27539 0
M  V30 2693 C 253.262 0.590636 2.94842 0
M  V30 2694 C 254.81 0.550215 3.08126 0
M  V30 2695 C 255.285 1.03836 4.46074 0
M  V30 2696 N 256.776 0.995943 4.52366 0
M  V30 2697 C 257.511 1.34463 5.57411 0
M  V30 2698 N 257.007 1.76569 6.69922 0
M  V30 2699 N 258.8 1.26343 5.47717 0
M  V30 2700 H 250.951 1.39687 1.60004 0
M  V30 2701 H 253.214 0.575003 0.753708 0
M  V30 2702 H 252.92 1.63251 3.11516 0
M  V30 2703 H 252.794 0.0102061 3.77199 0
M  V30 2704 H 255.181 -0.482654 2.91126 0
M  V30 2705 H 255.262 1.16693 2.27632 0
M  V30 2706 H 254.906 2.06965 4.63819 0
M  V30 2707 H 254.836 0.398286 5.25092 0
M  V30 2708 H 257.327 0.68661 3.7161 0
M  V30 2709 H 257.64 2.01438 7.46085 0
M  V30 2710 H 255.985 1.80488 6.71155 0
M  V30 2711 H 259.176 0.933209 4.58703 0
M  V30 2712 H 259.349 1.53846 6.29472 0
M  V30 2713 N 252.755 -1.56801 0.158532 0
M  V30 2714 C 254.001 -1.96781 -0.490405 0
M  V30 2715 C 254.334 -1.04397 -1.63753 0
M  V30 2716 O 253.609 -0.0885805 -1.94298 0
M  V30 2717 C 253.892 -3.4635 -0.985594 0
M  V30 2718 C 253.745 -4.49512 0.160824 0
M  V30 2719 C 255.064 -3.98697 -1.86355 0
M  V30 2720 H 252.183 -0.715482 -0.176788 0
M  V30 2721 H 254.825 -1.88451 0.242088 0
M  V30 2722 H 252.975 -3.53579 -1.60978 0
M  V30 2723 H 254.647 -4.54353 0.797537 0
M  V30 2724 H 252.89 -4.26013 0.818256 0
M  V30 2725 H 253.561 -5.51531 -0.227569 0
M  V30 2726 H 256.037 -3.94019 -1.33746 0
M  V30 2727 H 254.913 -5.03792 -2.17909 0
M  V30 2728 H 255.174 -3.41744 -2.8047 0
M  V30 2729 N 254.233 0.115231 -1.57178 0
M  V30 2730 C 255.48 0.822351 -1.8505 0
M  V30 2731 C 255.808 1.79701 -0.744168 0
M  V30 2732 O 255.063 1.93909 0.26414 0
M  V30 2733 C 255.362 1.60324 -3.19423 0
M  V30 2734 C 255.028 0.772536 -4.44233 0
M  V30 2735 C 253.69 0.543468 -4.78121 0
M  V30 2736 C 256.042 0.193746 -5.2084 0
M  V30 2737 C 253.37 -0.274583 -5.86057 0
M  V30 2738 C 255.722 -0.611517 -6.29637 0
M  V30 2739 C 254.386 -0.850867 -6.62055 0
M  V30 2740 H 253.656 0.30092 -0.677147 0
M  V30 2741 H 256.303 0.0845802 -1.91313 0
M  V30 2742 H 254.608 2.41203 -3.08753 0
M  V30 2743 H 256.305 2.1544 -3.38211 0
M  V30 2744 H 252.895 0.96117 -4.17683 0
M  V30 2745 H 257.079 0.357926 -4.95008 0
M  V30 2746 H 252.335 -0.469206 -6.09597 0
M  V30 2747 H 256.509 -1.06697 -6.88178 0
M  V30 2748 H 254.136 -1.48657 -7.45523 0
M  V30 2749 N 255.711 1.52812 0.385517 0
M  V30 2750 C 257.122 1.5993 0.963293 0
M  V30 2751 C 257.473 0.454302 1.90868 0
M  V30 2752 O 256.598 -0.422132 2.12243 0
M  V30 2753 C 257.193 2.89871 1.75387 0
M  V30 2754 C 255.752 2.99389 2.28129 0
M  V30 2755 C 254.899 2.55071 1.08783 0
M  V30 2756 H 257.85 1.5784 0.164948 0
M  V30 2757 H 257.871 2.76553 2.61341 0
M  V30 2758 H 257.383 3.73186 1.06554 0
M  V30 2759 H 255.484 2.20619 3.00263 0
M  V30 2760 H 255.597 4.04096 2.57377 0
M  V30 2761 H 253.961 2.09473 1.4489 0
M  V30 2762 H 254.744 3.40785 0.414807 0
M  V30 2763 N 257.189 -0.644168 1.43834 0
M  V30 2764 C 258.437 -1.40117 1.45642 0
M  V30 2765 C 258.758 -1.94814 0.0852413 0
M  V30 2766 O 258.028 -1.74988 -0.880688 0
M  V30 2767 H 256.608 -0.52005 0.536243 0
M  V30 2768 H 259.27 -0.7591 1.7951 0
M  V30 2769 H 258.366 -2.23902 2.17427 0
M  V30 2770 N 258.668 -1.30515 -0.883378 0
M  V30 2771 C 259.916 -1.19194 -1.63209 0
M  V30 2772 C 260.237 0.253205 -1.93349 0
M  V30 2773 O 259.507 1.17025 -1.57105 0
M  V30 2774 H 258.087 -0.438148 -0.605009 0
M  V30 2775 H 260.749 -1.63663 -1.05832 0
M  V30 2776 H 259.845 -1.75396 -2.58153 0
M  V30 2777 N 260.146 1.09593 -1.13257 0
M  V30 2778 C 261.094 2.18271 -0.803783 0
M  V30 2779 C 262.088 1.68054 0.213148 0
M  V30 2780 O 263.294 1.79862 0.0704699 0
M  V30 2781 H 259.669 0.711949 -0.242143 0
M  V30 2782 H 261.64 2.43235 -1.72856 0
M  V30 2783 C 260.389 3.46536 -0.28424 0
M  V30 2784 H 259.712 3.85545 -1.05807 0
M  V30 2785 H 261.152 4.23899 -0.0925945 0
M  V30 2786 C 259.611 3.22036 0.989684 0
M  V30 2787 O 260.141 3.44509 2.06584 0
M  V30 2788 N 258.347 2.7565 0.920086 0
M  V30 2789 H 257.894 2.57562 0.0442019 0
M  V30 2790 H 257.852 2.59635 1.77306 0
M  V30 2791 N 261.624 0.925811 1.2754 0
M  V30 2792 C 262.864 0.572521 1.96218 0
M  V30 2793 C 263.228 -0.869719 1.71172 0
M  V30 2794 O 264.429 -1.33119 2.33523 0
M  V30 2795 C 262.7 0.887325 3.4621 0
M  V30 2796 S 264.259 0.642266 4.34074 0
M  V30 2797 H 261.077 0.211403 0.678845 0
M  V30 2798 H 263.679 1.19384 1.54815 0
M  V30 2799 H 262.383 1.93469 3.61936 0
M  V30 2800 H 261.914 0.255123 3.92572 0
M  V30 2801 H 263.929 -0.500822 4.93666 0
M  V30 2802 N 263.102 -1.41638 0.69111 0
M  V30 2803 C 264.327 -2.06148 0.227583 0
M  V30 2804 C 264.752 -1.51652 -1.11281 0
M  V30 2805 O 264.11 -0.64164 -1.69566 0
M  V30 2806 C 264.158 -3.60095 0.190858 0
M  V30 2807 O 263.262 -4.03845 -0.835664 0
M  V30 2808 H 262.603 -0.654434 0.112306 0
M  V30 2809 H 265.133 -1.81484 0.944714 0
M  V30 2810 H 265.143 -4.07995 0.020207 0
M  V30 2811 H 263.818 -3.99129 1.16915 0
M  V30 2812 H 262.395 -3.67458 -0.63473 0
M  V30 2813 N 264.58 -0.43555 -1.51462 0
M  V30 2814 C 265.828 0.131254 -2.01673 0
M  V30 2815 C 266.149 1.43368 -1.32177 0
M  V30 2816 O 265.419 1.90524 -0.455769 0
M  V30 2817 H 263.999 0.0514954 -0.745223 0
M  V30 2818 H 266.661 -0.577847 -1.86137 0
M  V30 2819 H 265.757 0.308446 -3.10572 0
M  V30 2820 N 266.058 1.56714 -0.166846 0
M  V30 2821 C 267.304 1.97039 0.479962 0
M  V30 2822 C 267.637 1.05264 1.63197 0
M  V30 2823 O 266.912 0.0988833 1.94248 0
M  V30 2824 C 267.195 3.46867 0.967212 0
M  V30 2825 C 267.048 4.49421 -0.18466 0
M  V30 2826 C 268.367 3.9968 1.84238 0
M  V30 2827 H 265.486 0.71641 0.172992 0
M  V30 2828 H 268.128 1.8832 -0.252079 0
M  V30 2829 H 266.278 3.54428 1.59101 0
M  V30 2830 H 267.95 4.53924 -0.821621 0
M  V30 2831 H 266.193 4.25573 -0.840837 0
M  V30 2832 H 266.864 5.51644 0.198317 0
M  V30 2833 H 269.34 3.94723 1.31655 0
M  V30 2834 H 268.216 5.04941 2.15234 0
M  V30 2835 H 268.477 3.43226 2.78654 0
M  V30 2836 N 267.536 -0.106894 1.57237 0
M  V30 2837 C 268.499 -1.11466 2.0027 0
M  V30 2838 C 269.499 -1.33623 0.894519 0
M  V30 2839 O 270.689 -1.29935 1.16028 0
M  V30 2840 C 267.821 -2.46646 2.35327 0
M  V30 2841 H 269.014 -0.744516 2.90512 0
M  V30 2842 H 266.567 -0.351576 1.52295 0
M  V30 2843 H 267.302 -2.88558 1.48003 0
M  V30 2844 H 267.087 -2.31915 3.16161 0
M  V30 2845 H 268.577 -3.19151 2.69318 0
M  V30 2846 N 269.014 -1.53014 -0.377408 0
M  V30 2847 C 270.26 -1.68872 -1.12294 0
M  V30 2848 C 270.593 -0.433224 -1.89306 0
M  V30 2849 O 269.868 0.569258 -1.85983 0
M  V30 2850 C 270.151 -2.93115 -2.09179 0
M  V30 2851 C 270.004 -4.28794 -1.35853 0
M  V30 2852 C 271.323 -3.12928 -3.09458 0
M  V30 2853 H 268.442 -0.614518 -0.406862 0
M  V30 2854 H 271.084 -1.85633 -0.40503 0
M  V30 2855 H 269.234 -2.78956 -2.70399 0
M  V30 2856 H 270.906 -4.54742 -0.775082 0
M  V30 2857 H 269.149 -4.28744 -0.660364 0
M  V30 2858 H 269.82 -5.11837 -2.06706 0
M  V30 2859 H 272.296 -3.26194 -2.58334 0
M  V30 2860 H 271.172 -4.01316 -3.74482 0
M  V30 2861 H 271.433 -2.27669 -3.78971 0
M  V30 2862 N 270.492 0.636531 -1.44174 0
M  V30 2863 C 271.717 1.42847 -1.50364 0
M  V30 2864 C 272.142 1.87665 -0.127867 0
M  V30 2865 O 271.5 1.58408 0.88185 0
M  V30 2866 C 271.548 2.62854 -2.4686 0
M  V30 2867 O 270.652 3.62501 -1.9664 0
M  V30 2868 H 269.993 0.427642 -0.507955 0
M  V30 2869 H 272.523 0.777422 -1.89255 0
M  V30 2870 H 272.533 3.10465 -2.64718 0
M  V30 2871 H 271.208 2.29578 -3.46795 0
M  V30 2872 H 269.785 3.21735 -1.88523 0
M  V30 2873 N 271.97 1.30982 0.876444 0
M  V30 2874 C 273.195 1.23373 1.66715 0
M  V30 2875 C 273.62 -0.19885 1.87046 0
M  V30 2876 O 272.978 -1.1427 1.40756 0
M  V30 2877 C 273.026 1.97644 3.01611 0
M  V30 2878 O 272.13 1.30935 3.91062 0
M  V30 2879 H 271.471 0.426279 0.509099 0
M  V30 2880 H 274.001 1.72944 1.09323 0
M  V30 2881 H 274.011 2.06992 3.51594 0
M  V30 2882 H 272.686 3.01829 2.86133 0
M  V30 2883 H 271.263 1.29996 3.49507 0
M  V30 2884 N 273.449 -1.08991 1.13837 0
M  V30 2885 C 274.677 -1.85011 0.926202 0
M  V30 2886 C 275.092 -1.8135 -0.525127 0
M  V30 2887 O 274.449 -1.21287 -1.36366 0
M  V30 2888 C 274.5 -3.32802 1.41155 0
M  V30 2889 O 274.221 -3.36444 2.80601 0
M  V30 2890 C 275.722 -4.25649 1.23847 0
M  V30 2891 H 272.942 -0.584249 0.32999 0
M  V30 2892 H 275.486 -1.37688 1.51202 0
M  V30 2893 H 273.641 -3.77536 0.868631 0
M  V30 2894 H 274.055 -4.28657 3.02248 0
M  V30 2895 H 275.529 -5.27485 1.62675 0
M  V30 2896 H 276.006 -4.38828 0.18065 0
M  V30 2897 H 276.612 -3.86735 1.76964 0
M  V30 2898 N 274.927 -0.932562 -1.27047 0
M  V30 2899 C 276.157 -0.591173 -1.97961 0
M  V30 2900 C 276.565 0.836219 -1.69717 0
M  V30 2901 O 275.908 1.56801 -0.957036 0
M  V30 2902 C 275.97 -0.743082 -3.51736 0
M  V30 2903 C 275.634 -2.1435 -4.03613 0
M  V30 2904 C 276.631 -3.11815 -4.16014 0
M  V30 2905 C 274.316 -2.46175 -4.37839 0
M  V30 2906 C 276.31 -4.39211 -4.61923 0
M  V30 2907 C 273.997 -3.73806 -4.83438 0
M  V30 2908 C 274.995 -4.70137 -4.95439 0
M  V30 2909 O 274.683 -5.95496 -5.40037 0
M  V30 2910 H 274.415 -0.222375 -0.638377 0
M  V30 2911 H 276.969 -1.25317 -1.62742 0
M  V30 2912 H 275.199 -0.0239739 -3.86693 0
M  V30 2913 H 276.888 -0.40603 -4.03864 0
M  V30 2914 H 277.654 -2.88549 -3.89826 0
M  V30 2915 H 273.533 -1.71936 -4.27737 0
M  V30 2916 H 277.077 -5.14404 -4.71205 0
M  V30 2917 H 272.974 -3.96888 -5.09068 0
M  V30 2918 H 273.742 -5.98554 -5.58279 0
M  V30 2919 N 276.405 1.4127 -0.698611 0
M  V30 2920 C 277.645 2.03044 -0.235062 0
M  V30 2921 C 278.009 1.54146 1.14468 0
M  V30 2922 O 279.21 2.07867 1.70425 0
M  V30 2923 C 277.481 3.56192 -0.293651 0
M  V30 2924 S 279.04 4.38696 0.0954053 0
M  V30 2925 H 275.858 0.704697 -0.0944648 0
M  V30 2926 H 278.46 1.72656 -0.917064 0
M  V30 2927 H 277.164 3.89274 -1.29977 0
M  V30 2928 H 276.695 3.91285 0.407397 0
M  V30 2929 H 278.71 4.78257 1.3223 0
M  V30 2930 N 277.883 0.443576 1.51229 0
M  V30 2931 C 279.108 -0.121648 2.07043 0
M  V30 2932 C 279.533 -1.35156 1.30823 0
M  V30 2933 O 278.891 -1.7793 0.347934 0
M  V30 2934 C 278.939 -0.41624 3.5819 0
M  V30 2935 O 278.043 -1.50163 3.8409 0
M  V30 2936 H 277.384 0.000871367 0.663999 0
M  V30 2937 H 279.914 0.626706 1.94765 0
M  V30 2938 H 279.924 -0.664867 4.02546 0
M  V30 2939 H 278.599 0.482653 4.1309 0
M  V30 2940 H 277.176 -1.24248 3.51592 0
M  V30 2941 N 279.361 -1.56624 0.175154 0
M  V30 2942 C 280.589 -2.01374 -0.474971 0
M  V30 2943 C 281.004 -1.05537 -1.56548 0
M  V30 2944 O 280.361 -0.0568668 -1.82411 0
M  V30 2945 C 280.412 -3.45923 -1.04975 0
M  V30 2946 O 280.133 -4.381 -0.00276605 0
M  V30 2947 C 281.634 -4.06093 -1.77773 0
M  V30 2948 H 278.854 -0.659962 -0.121206 0
M  V30 2949 H 281.398 -2.02601 0.27801 0
M  V30 2950 H 279.553 -3.45458 -1.75321 0
M  V30 2951 H 279.967 -5.22753 -0.427681 0
M  V30 2952 H 281.441 -5.09147 -2.13245 0
M  V30 2953 H 281.918 -3.48405 -2.67414 0
M  V30 2954 H 282.524 -4.10272 -1.12059 0
M  V30 2955 N 280.839 0.0985539 -1.57292 0
M  V30 2956 C 281.787 1.1387 -2.02821 0
M  V30 2957 C 282.781 1.41676 -0.928666 0
M  V30 2958 O 283.987 1.41398 -1.11385 0
M  V30 2959 H 280.362 0.384419 -0.646317 0
M  V30 2960 H 282.333 0.728347 -2.89375 0
M  V30 2961 C 281.082 2.45166 -2.46554 0
M  V30 2962 H 280.405 2.24613 -3.3074 0
M  V30 2963 H 281.845 3.16456 -2.8219 0
M  V30 2964 C 280.304 3.09216 -1.33742 0
M  V30 2965 O 280.834 3.96163 -0.66464 0
M  V30 2966 N 279.04 2.69413 -1.08928 0
M  V30 2967 H 278.587 1.98801 -1.63817 0
M  V30 2968 H 278.545 3.12594 -0.336458 0
M  V30 2969 N 282.317 1.53212 0.369288 0
M  V30 2970 C 283.267 1.75769 1.45222 0
M  V30 2971 C 284.251 0.612136 1.48801 0
M  V30 2972 O 285.443 0.870674 1.54105 0
M  V30 2973 C 282.572 1.94769 2.82701 0
M  V30 2974 C 281.658 3.15315 2.83615 0
M  V30 2975 N 282.049 4.37295 2.54178 0
M  V30 2976 C 280.347 3.15962 3.14776 0
M  V30 2977 C 281.048 5.19015 2.62675 0
M  V30 2978 N 280.024 4.55142 2.97232 0
M  V30 2979 H 283.826 2.67691 1.2132 0
M  V30 2980 H 281.34 1.51787 0.577438 0
M  V30 2981 H 283.337 2.09056 3.60696 0
M  V30 2982 H 281.997 1.04073 3.07569 0
M  V30 2983 H 283.008 4.65091 2.27839 0
M  V30 2984 H 279.685 2.35144 3.44983 0
M  V30 2985 H 281.075 6.26305 2.43294 0
M  V30 2986 N 283.795 -0.628877 1.44509 0
M  V30 2987 C 285.072 -1.38733 1.37886 0
M  V30 2988 C 285.452 -2.11065 0.0387008 0
M  V30 2989 O 284.8 -2.06476 -0.97878 0
M  V30 2990 C 285.01 -2.35188 2.57852 0
M  V30 2991 C 286.358 -2.9845 3.02014 0
M  V30 2992 O 287.382 -2.45513 2.58073 0
M  V30 2993 O 286.241 -3.94487 3.78209 0
M  V30 2994 H 283.335 -0.621015 0.54614 0
M  V30 2995 H 285.881 -0.653744 1.56602 0
M  V30 2996 H 284.653 -1.80855 3.46998 0
M  V30 2997 H 284.276 -3.1596 2.4136 0
M  V30 2998 N 285.273 -1.31445 -0.869486 0
M  V30 2999 C 286.503 -1.23942 -1.65294 0
M  V30 3000 C 286.911 0.197561 -1.88166 0
M  V30 3001 O 286.254 1.14019 -1.44033 0
M  V30 3002 C 286.316 -1.91385 -3.04322 0
M  V30 3003 C 285.98 -3.40726 -3.04557 0
M  V30 3004 C 286.977 -4.36464 -2.82481 0
M  V30 3005 C 284.662 -3.82425 -3.25663 0
M  V30 3006 C 286.656 -5.71876 -2.8149 0
M  V30 3007 C 284.343 -5.1795 -3.243 0
M  V30 3008 C 285.341 -6.12486 -3.02241 0
M  V30 3009 O 285.029 -7.45534 -3.00724 0
M  V30 3010 H 284.761 -0.429459 -0.522054 0
M  V30 3011 H 287.315 -1.73873 -1.0935 0
M  V30 3012 H 285.545 -1.36004 -3.61994 0
M  V30 3013 H 287.234 -1.77791 -3.64891 0
M  V30 3014 H 288 -4.05576 -2.65956 0
M  V30 3015 H 283.879 -3.09274 -3.41863 0
M  V30 3016 H 287.423 -6.45638 -2.64191 0
M  V30 3017 H 283.32 -5.48473 -3.40365 0
M  V30 3018 H 284.088 -7.54713 -3.16782 0
M  V30 3019 N 286.751 1.08385 -1.14413 0
M  V30 3020 C 287.979 1.84517 -0.936001 0
M  V30 3021 C 288.394 1.81626 0.515503 0
M  V30 3022 O 287.751 1.22008 1.35721 0
M  V30 3023 C 287.802 3.32049 -1.42918 0
M  V30 3024 O 287.523 3.34951 -2.82381 0
M  V30 3025 C 289.024 4.24986 -1.26103 0
M  V30 3026 H 286.244 0.582491 -0.333084 0
M  V30 3027 H 288.788 1.36885 -1.5193 0
M  V30 3028 H 286.943 3.7707 -0.888641 0
M  V30 3029 H 287.357 4.27048 -3.04517 0
M  V30 3030 H 288.831 5.26615 -1.6547 0
M  V30 3031 H 289.308 4.38726 -0.20392 0
M  V30 3032 H 289.914 3.85791 -1.79012 0
M  V30 3033 N 288.23 0.939286 1.26551 0
M  V30 3034 C 289.479 0.581601 1.93133 0
M  V30 3035 C 289.792 -0.883224 1.74524 0
M  V30 3036 O 290.998 -1.3502 2.35546 0
M  V30 3037 C 289.454 0.989425 3.46032 0
M  V30 3038 C 289.062 2.47573 3.73379 0
M  V30 3039 C 290.806 0.703544 4.18629 0
M  V30 3040 C 288.713 2.82235 5.19709 0
M  V30 3041 H 287.643 0.213803 0.723052 0
M  V30 3042 H 290.294 1.14167 1.4366 0
M  V30 3043 H 288.676 0.357902 3.94379 0
M  V30 3044 H 289.85 3.15614 3.35744 0
M  V30 3045 H 288.165 2.73471 3.1401 0
M  V30 3046 H 290.762 0.938869 5.26393 0
M  V30 3047 H 291.105 -0.359639 4.14744 0
M  V30 3048 H 291.638 1.2947 3.76141 0
M  V30 3049 H 288.377 3.87509 5.28694 0
M  V30 3050 H 287.897 2.18854 5.58447 0
M  V30 3051 H 289.576 2.70599 5.87695 0
M  V30 3052 N 289.708 -1.40897 0.706093 0
M  V30 3053 C 290.954 -2.01849 0.250681 0
M  V30 3054 C 291.309 -1.5496 -1.14041 0
M  V30 3055 O 290.602 -0.755566 -1.76073 0
M  V30 3056 C 290.796 -3.5646 0.259099 0
M  V30 3057 C 290.625 -4.18357 1.64947 0
M  V30 3058 C 289.395 -4.522 2.25485 0
M  V30 3059 C 291.593 -4.43856 2.598 0
M  V30 3060 N 289.575 -4.9944 3.56977 0
M  V30 3061 C 290.946 -4.92986 3.75985 0
M  V30 3062 C 293.001 -4.25882 2.57933 0
M  V30 3063 C 291.704 -5.2603 4.90597 0
M  V30 3064 C 293.73 -4.6002 3.71665 0
M  V30 3065 C 293.092 -5.09331 4.86581 0
M  V30 3066 H 289.191 -0.769843 0.137353 0
M  V30 3067 H 291.775 -1.71278 0.925845 0
M  V30 3068 H 289.946 -3.86481 -0.385592 0
M  V30 3069 H 291.678 -4.04144 -0.21213 0
M  V30 3070 H 288.433 -4.3901 1.77671 0
M  V30 3071 H 288.857 -5.27454 4.24407 0
M  V30 3072 H 293.499 -3.86986 1.70298 0
M  V30 3073 H 291.217 -5.63843 5.78884 0
M  V30 3074 H 294.803 -4.47762 3.71484 0
M  V30 3075 H 293.683 -5.35251 5.73129 0
M  V30 3076 N 291.186 -0.45159 -1.50991 0
M  V30 3077 C 292.119 0.398179 -2.24699 0
M  V30 3078 C 293.097 1.01276 -1.27208 0
M  V30 3079 O 294.281 1.05247 -1.56382 0
M  V30 3080 C 291.408 1.55618 -3.00833 0
M  V30 3081 C 290.454 1.0609 -4.13095 0
M  V30 3082 S 291.287 -0.00865136 -5.35499 0
M  V30 3083 C 292.443 1.15369 -6.15175 0
M  V30 3084 H 292.676 -0.227555 -2.96428 0
M  V30 3085 H 290.209 -0.236251 -1.52582 0
M  V30 3086 H 292.167 2.21997 -3.45293 0
M  V30 3087 H 290.828 2.15337 -2.28667 0
M  V30 3088 H 290.021 1.92726 -4.65696 0
M  V30 3089 H 289.623 0.47513 -3.7097 0
M  V30 3090 H 291.915 2.06925 -6.45126 0
M  V30 3091 H 292.858 0.667344 -7.04948 0
M  V30 3092 H 293.266 1.3987 -5.46897 0
M  V30 3093 N 292.664 1.56529 -0.183458 0
M  V30 3094 C 294.075 1.83739 0.331177 0
M  V30 3095 C 294.426 1.10373 1.62211 0
M  V30 3096 O 293.551 0.36071 2.13373 0
M  V30 3097 C 294.146 3.33306 0.607646 0
M  V30 3098 C 292.705 3.60969 1.06668 0
M  V30 3099 C 291.852 2.77086 0.109029 0
M  V30 3100 H 294.803 1.53379 -0.407484 0
M  V30 3101 H 294.824 3.51444 1.45832 0
M  V30 3102 H 294.336 3.86677 -0.332086 0
M  V30 3103 H 292.437 3.13021 2.0211 0
M  V30 3104 H 292.55 4.69231 0.967447 0
M  V30 3105 H 290.914 2.47319 0.608714 0
M  V30 3106 H 291.697 3.33241 -0.82494 0
M  V30 3107 N 294.142 -0.090211 1.57342 0
M  V30 3108 C 295.052 -1.12735 2.05738 0
M  V30 3109 C 296.068 -1.43557 0.983231 0
M  V30 3110 O 297.244 -1.54101 1.29672 0
M  V30 3111 C 294.309 -2.42659 2.47624 0
M  V30 3112 C 293.37 -2.18975 3.69254 0
M  V30 3113 C 292.603 -3.42704 4.09133 0
M  V30 3114 O 292.826 -4.51127 3.49057 0
M  V30 3115 O 291.76 -3.32003 5.02053 0
M  V30 3116 H 295.586 -0.746279 2.94388 0
M  V30 3117 H 293.171 -0.303064 1.46294 0
M  V30 3118 H 295.053 -3.19155 2.7517 0
M  V30 3119 H 293.728 -2.80182 1.62109 0
M  V30 3120 H 292.635 -1.40244 3.46818 0
M  V30 3121 H 293.968 -1.86342 4.55563 0
M  V30 3122 N 295.62 -1.53406 -0.361157 0
M  V30 3123 C 296.568 -1.80832 -1.46296 0
M  V30 3124 C 297.562 -0.677699 -1.55253 0
M  V30 3125 O 298.768 -0.860723 -1.58087 0
M  V30 3126 H 295.143 -0.572627 -0.487445 0
M  V30 3127 H 297.114 -2.73045 -1.20371 0
M  V30 3128 C 295.863 -2.01907 -2.8307 0
M  V30 3129 H 295.186 -2.88349 -2.76938 0
M  V30 3130 H 296.626 -2.25072 -3.59331 0
M  V30 3131 C 295.085 -0.799449 -3.27277 0
M  V30 3132 O 295.615 0.00971761 -4.01699 0
M  V30 3133 N 293.821 -0.621637 -2.83873 0
M  V30 3134 H 293.368 -1.28126 -2.23476 0
M  V30 3135 H 293.326 0.19298 -3.13807 0
M  V30 3136 N 297.098 0.621204 -1.44841 0
M  V30 3137 C 298.509 1.20298 -1.42777 0
M  V30 3138 C 298.86 1.95639 -0.148259 0
M  V30 3139 O 297.985 2.02955 0.750892 0
M  V30 3140 C 298.58 2.1882 -2.58657 0
M  V30 3141 C 297.139 2.72403 -2.59756 0
M  V30 3142 C 296.286 1.4757 -2.34773 0
M  V30 3143 H 299.237 0.411297 -1.53278 0
M  V30 3144 H 299.258 3.01607 -2.31977 0
M  V30 3145 H 298.77 1.63957 -3.51766 0
M  V30 3146 H 296.871 3.31242 -1.70615 0
M  V30 3147 H 296.984 3.17765 -3.58556 0
M  V30 3148 H 295.348 1.76051 -1.8406 0
M  V30 3149 H 296.131 0.945954 -3.3001 0
M  V30 3150 N 298.576 1.31904 0.862503 0
M  V30 3151 C 299.992 1.10724 1.14945 0
M  V30 3152 C 300.192 -0.117421 2.01158 0
M  V30 3153 O 299.248 -0.804595 2.39338 0
M  V30 3154 C 300.561 2.38267 1.83437 0
M  V30 3155 C 302.109 2.43949 1.96106 0
M  V30 3156 C 302.584 3.71394 2.68013 0
M  V30 3157 N 304.075 3.72331 2.75543 0
M  V30 3158 C 304.81 4.67641 3.31812 0
M  V30 3159 N 304.306 5.73313 3.88953 0
M  V30 3160 N 306.099 4.5515 3.29841 0
M  V30 3161 H 298.25 2.10436 0.288191 0
M  V30 3162 H 300.513 0.928705 0.190292 0
M  V30 3163 H 300.219 3.27759 1.27542 0
M  V30 3164 H 300.093 2.48633 2.83657 0
M  V30 3165 H 302.48 1.54922 2.51164 0
M  V30 3166 H 302.561 2.37543 0.949059 0
M  V30 3167 H 302.205 4.60791 2.13621 0
M  V30 3168 H 302.135 3.75069 3.69636 0
M  V30 3169 H 304.626 2.95947 2.34997 0
M  V30 3170 H 304.939 6.42107 4.30022 0
M  V30 3171 H 303.284 5.77077 3.87308 0
M  V30 3172 H 306.475 3.71766 2.84443 0
M  V30 3173 H 306.648 5.29604 3.73394 0
M  V30 3174 N 300.054 -1.07777 1.14986 0
M  V30 3175 C 300.984 -2.16865 0.865557 0
M  V30 3176 C 301.965 -1.69123 -0.182083 0
M  V30 3177 O 303.15 -1.94164 -0.0373815 0
M  V30 3178 C 300.28 -3.45539 0.349313 0
M  V30 3179 C 299.234 -4.06708 1.33313 0
M  V30 3180 C 298.56 -5.30411 0.675918 0
M  V30 3181 C 299.86 -4.47241 2.69764 0
M  V30 3182 H 301.554 -2.40905 1.77778 0
M  V30 3183 H 299.1 -1.15781 0.856203 0
M  V30 3184 H 301.053 -4.21174 0.137983 0
M  V30 3185 H 299.777 -3.21072 -0.598362 0
M  V30 3186 H 298.436 -3.33112 1.53075 0
M  V30 3187 H 298.084 -5.02232 -0.277767 0
M  V30 3188 H 297.784 -5.72293 1.33244 0
M  V30 3189 H 299.308 -6.08755 0.474262 0
M  V30 3190 H 300.722 -5.14025 2.53873 0
M  V30 3191 H 299.119 -5.00062 3.3175 0
M  V30 3192 H 300.189 -3.58818 3.26156 0
M  V30 3193 N 301.532 -0.945985 -1.26051 0
M  V30 3194 C 302.78 -0.594941 -1.93145 0
M  V30 3195 C 303.101 0.86953 -1.7454 0
M  V30 3196 O 302.371 1.61838 -1.10387 0
M  V30 3197 H 300.951 -0.217044 -0.714773 0
M  V30 3198 H 303.613 -1.20235 -1.53393 0
M  V30 3199 H 302.709 -0.816835 -3.01221 0
M  V30 3200 N 303.011 1.40521 -0.713556 0
M  V30 3201 C 303.944 2.28198 -0.00881422 0
M  V30 3202 C 304.922 1.43227 0.769735 0
M  V30 3203 O 306.106 1.72641 0.756799 0
M  V30 3204 C 303.233 3.23758 0.994899 0
M  V30 3205 C 302.279 4.25391 0.3074 0
M  V30 3206 S 303.112 5.26765 -0.963247 0
M  V30 3207 C 304.268 6.25888 0.0384143 0
M  V30 3208 H 304.501 2.87622 -0.752407 0
M  V30 3209 H 302.034 1.45925 -0.504502 0
M  V30 3210 H 303.992 3.79341 1.56879 0
M  V30 3211 H 302.653 2.63396 1.71118 0
M  V30 3212 H 301.846 4.92596 1.0661 0
M  V30 3213 H 301.448 3.73497 -0.193879 0
M  V30 3214 H 303.74 6.71683 0.885912 0
M  V30 3215 H 304.683 7.05552 -0.60019 0
M  V30 3216 H 305.091 5.63072 0.401233 0
M  V30 3217 N 304.489 0.459591 1.5075 0
M  V30 3218 C 305.714 -0.0996819 2.0716 0
M  V30 3219 C 306.139 -1.33761 1.32249 0
M  V30 3220 O 305.497 -1.77551 0.366786 0
M  V30 3221 C 305.545 -0.378226 3.58611 0
M  V30 3222 O 304.649 -1.46081 3.85661 0
M  V30 3223 H 303.99 0.00791392 0.663953 0
M  V30 3224 H 306.52 0.647329 1.9409 0
M  V30 3225 H 306.53 -0.622135 4.03229 0
M  V30 3226 H 305.205 0.526439 4.12555 0
M  V30 3227 H 303.782 -1.20511 3.5289 0
M  V30 3228 N 305.967 -1.56429 0.191757 0
M  V30 3229 C 307.207 -1.99383 -0.450099 0
M  V30 3230 C 307.571 -1.07581 -1.59029 0
M  V30 3231 O 308.772 -1.39758 -2.29611 0
M  V30 3232 C 307.043 -3.45841 -0.901611 0
M  V30 3233 S 308.602 -4.10822 -1.54177 0
M  V30 3234 H 305.42 -0.696253 -0.144057 0
M  V30 3235 H 308.022 -1.93276 0.294036 0
M  V30 3236 H 306.726 -4.10354 -0.0616596 0
M  V30 3237 H 306.257 -3.55757 -1.67929 0
M  V30 3238 H 308.272 -4.07553 -2.83046 0
M  V30 3239 N 307.445 0.0818655 -1.57387 0
M  V30 3240 C 308.722 0.815343 -1.77796 0
M  V30 3241 C 309.102 1.96289 -0.77679 0
M  V30 3242 O 308.45 2.27691 0.192106 0
M  V30 3243 C 308.66 1.29765 -3.23978 0
M  V30 3244 C 310.008 1.7351 -3.8753 0
M  V30 3245 O 311.032 1.39356 -3.27808 0
M  V30 3246 O 309.891 2.36708 -4.92576 0
M  V30 3247 H 306.985 0.389914 -0.729312 0
M  V30 3248 H 309.531 0.0627213 -1.69584 0
M  V30 3249 H 308.303 0.47608 -3.88393 0
M  V30 3250 H 307.926 2.11189 -3.36875 0
M  V30 3251 N 308.923 1.53595 0.353017 0
M  V30 3252 C 310.172 1.69603 1.09168 0
M  V30 3253 C 310.485 0.460925 1.90092 0
M  V30 3254 O 311.691 0.501774 2.66823 0
M  V30 3255 C 310.147 2.99872 1.9901 0
M  V30 3256 C 309.755 4.30687 1.23339 0
M  V30 3257 C 311.499 3.25246 2.72792 0
M  V30 3258 C 309.406 5.52036 2.12156 0
M  V30 3259 H 308.336 0.631966 0.411261 0
M  V30 3260 H 310.987 1.80096 0.351802 0
M  V30 3261 H 309.369 2.83212 2.7678 0
M  V30 3262 H 310.543 4.58019 0.505456 0
M  V30 3263 H 308.858 4.11853 0.613663 0
M  V30 3264 H 311.455 4.13095 3.39495 0
M  V30 3265 H 311.798 2.41846 3.38846 0
M  V30 3266 H 312.331 3.42638 2.021 0
M  V30 3267 H 309.07 6.37951 1.50659 0
M  V30 3268 H 308.59 5.28966 2.82764 0
M  V30 3269 H 310.269 5.87313 2.71427 0
M  V30 3270 N 310.401 -0.613514 1.45168 0
M  V30 3271 C 311.648 -1.37268 1.48875 0
M  V30 3272 C 311.976 -1.94077 0.128161 0
M  V30 3273 O 311.231 -1.75178 -0.872416 0
M  V30 3274 C 311.53 -2.54347 2.51083 0
M  V30 3275 C 311.196 -2.1572 3.95949 0
M  V30 3276 C 309.858 -2.04899 4.35396 0
M  V30 3277 C 312.21 -1.85485 4.87078 0
M  V30 3278 C 309.538 -1.62057 5.63875 0
M  V30 3279 C 311.89 -1.4413 6.15962 0
M  V30 3280 C 310.554 -1.31863 6.54346 0
M  V30 3281 H 309.824 -0.502299 0.544773 0
M  V30 3282 H 312.471 -0.694021 1.78481 0
M  V30 3283 H 310.776 -3.27524 2.15024 0
M  V30 3284 H 312.473 -3.12577 2.51191 0
M  V30 3285 H 309.063 -2.25066 3.64751 0
M  V30 3286 H 313.247 -1.92745 4.57343 0
M  V30 3287 H 308.503 -1.51177 5.92415 0
M  V30 3288 H 312.677 -1.19778 6.86022 0
M  V30 3289 H 310.304 -0.984392 7.538 0
M  V30 3290 N 311.879 -1.3236 -0.855495 0
M  V30 3291 C 313.107 -1.2587 -1.64208 0
M  V30 3292 C 313.522 0.173457 -1.88002 0
M  V30 3293 O 312.879 1.11027 -1.44842 0
M  V30 3294 C 312.93 -2.01424 -3.00184 0
M  V30 3295 O 312.651 -3.39051 -2.77445 0
M  V30 3296 C 314.152 -2.01948 -3.94629 0
M  V30 3297 H 311.372 -0.434318 -0.511477 0
M  V30 3298 H 313.916 -1.74469 -1.0668 0
M  V30 3299 H 312.071 -1.56549 -3.5436 0
M  V30 3300 H 312.485 -3.77711 -3.63916 0
M  V30 3301 H 313.959 -2.59297 -4.87308 0
M  V30 3302 H 314.436 -1.00554 -4.27534 0
M  V30 3303 H 315.042 -2.46767 -3.4639 0
M  V30 3304 N 313.357 1.07166 -1.15556 0
M  V30 3305 C 314.305 2.16517 -0.8499 0
M  V30 3306 C 315.299 1.68468 0.177454 0
M  V30 3307 O 316.505 1.79971 0.0323026 0
M  V30 3308 H 312.88 0.706652 -0.25719 0
M  V30 3309 H 314.851 2.39514 -1.77976 0
M  V30 3310 C 313.6 3.45855 -0.357682 0
M  V30 3311 H 312.923 3.83214 -1.13961 0
M  V30 3312 H 314.363 4.23607 -0.182489 0
M  V30 3313 C 312.822 3.24062 0.921152 0
M  V30 3314 O 313.352 3.48813 1.9923 0
M  V30 3315 N 311.558 2.77539 0.86141 0
M  V30 3316 H 311.105 2.57598 -0.0104408 0
M  V30 3317 H 311.063 2.63337 1.71758 0
M  V30 3318 N 314.835 0.952656 1.25548 0
M  V30 3319 C 316.06 0.623025 1.97821 0
M  V30 3320 C 316.485 -0.7976 1.70352 0
M  V30 3321 O 315.843 -1.53905 0.958283 0
M  V30 3322 C 315.891 0.885532 3.49558 0
M  V30 3323 O 314.995 -0.0366641 4.12384 0
M  V30 3324 H 314.336 0.237082 0.620232 0
M  V30 3325 H 316.866 1.27871 1.59719 0
M  V30 3326 H 316.876 0.811009 3.99858 0
M  V30 3327 H 315.551 1.92094 3.6888 0
M  V30 3328 H 314.128 0.0898954 3.72792 0
M  V30 3329 N 316.313 -1.40141 0.720998 0
M  V30 3330 C 317.729 -1.54632 0.395113 0
M  V30 3331 C 317.929 -1.69115 -1.09555 0
M  V30 3332 O 316.985 -1.68377 -1.88163 0
M  V30 3333 C 318.298 -2.77177 1.1659 0
M  V30 3334 C 319.846 -2.91 1.15274 0
M  V30 3335 C 320.321 -4.16465 1.90579 0
M  V30 3336 N 321.812 -4.23476 1.87675 0
M  V30 3337 C 322.547 -5.19475 2.42762 0
M  V30 3338 N 322.043 -6.21348 3.06428 0
M  V30 3339 N 323.836 -5.11592 2.32874 0
M  V30 3340 H 315.987 -1.28986 1.68749 0
M  V30 3341 H 318.25 -0.62412 0.713567 0
M  V30 3342 H 317.956 -2.72771 2.22011 0
M  V30 3343 H 317.83 -3.69442 0.76108 0
M  V30 3344 H 320.217 -2.94907 0.106702 0
M  V30 3345 H 320.298 -1.99838 1.59682 0
M  V30 3346 H 319.942 -4.1332 2.95176 0
M  V30 3347 H 319.872 -5.06646 1.43587 0
M  V30 3348 H 322.363 -3.50497 1.41281 0
M  V30 3349 H 322.676 -6.91034 3.45965 0
M  V30 3350 H 321.021 -6.21777 3.10514 0
M  V30 3351 H 324.212 -4.30936 1.82789 0
M  V30 3352 H 324.385 -5.86233 2.76106 0
M  V30 3353 N 317.792 -0.46758 -1.50504 0
M  V30 3354 C 319.04 0.0884469 -2.01906 0
M  V30 3355 C 319.361 1.40532 -1.35188 0
M  V30 3356 O 318.631 1.89515 -0.496079 0
M  V30 3357 H 317.211 0.0356765 -0.746148 0
M  V30 3358 H 319.873 -0.6172 -1.84869 0
M  V30 3359 H 318.969 0.2425 -3.11156 0
M  V30 3360 N 319.27 1.56325 -0.20005 0
M  V30 3361 C 320.217 2.1932 0.718833 0
M  V30 3362 C 321.187 1.14198 1.20615 0
M  V30 3363 O 322.372 1.42469 1.26914 0
M  V30 3364 C 319.512 2.86041 1.93066 0
M  V30 3365 C 318.625 4.05702 1.48425 0
M  V30 3366 C 317.76 4.60266 2.65196 0
M  V30 3367 C 316.799 5.72273 2.17185 0
M  V30 3368 N 315.936 6.21221 3.27152 0
M  V30 3369 H 320.776 2.97486 0.17489 0
M  V30 3370 H 318.313 1.46911 0.0745794 0
M  V30 3371 H 320.271 3.22897 2.64184 0
M  V30 3372 H 318.901 2.1043 2.44783 0
M  V30 3373 H 317.953 3.74475 0.668755 0
M  V30 3374 H 319.265 4.86699 1.09204 0
M  V30 3375 H 318.419 4.99453 3.4443 0
M  V30 3376 H 317.158 3.78386 3.07693 0
M  V30 3377 H 316.163 5.3261 1.36407 0
M  V30 3378 H 317.388 6.55974 1.75713 0
M  V30 3379 H 315.334 5.42263 3.69171 0
M  V30 3380 H 315.251 6.97284 2.92116 0
M  V30 3381 H 316.519 6.65063 4.06585 0
M  V30 3382 N 320.748 -0.0735177 1.57428 0
M  V30 3383 C 322.164 -0.428264 1.53747 0
M  V30 3384 C 322.364 -1.79272 0.91998 0
M  V30 3385 O 321.42 -2.47051 0.521745 0
M  V30 3386 C 322.733 -0.370914 2.98404 0
M  V30 3387 C 324.281 -0.451224 3.0973 0
M  V30 3388 C 324.756 -0.4238 4.56035 0
M  V30 3389 N 326.247 -0.483925 4.60665 0
M  V30 3390 C 326.982 -0.484891 5.71346 0
M  V30 3391 N 326.478 -0.440775 6.91396 0
M  V30 3392 N 328.271 -0.531319 5.59583 0
M  V30 3393 H 320.422 0.819949 1.95935 0
M  V30 3394 H 322.685 0.307493 0.896745 0
M  V30 3395 H 322.391 0.564956 3.47133 0
M  V30 3396 H 322.265 -1.18176 3.5821 0
M  V30 3397 H 324.652 -1.37752 2.60976 0
M  V30 3398 H 324.733 0.388167 2.52838 0
M  V30 3399 H 324.377 0.498638 5.05446 0
M  V30 3400 H 324.307 -1.2807 5.10789 0
M  V30 3401 H 326.798 -0.522338 3.74273 0
M  V30 3402 H 327.111 -0.44539 7.71515 0
M  V30 3403 H 325.456 -0.40749 6.93804 0
M  V30 3404 H 328.647 -0.563464 4.64696 0
M  V30 3405 H 328.82 -0.528603 6.4584 0
M  V30 3406 N 322.226 -1.5378 -0.344866 0
M  V30 3407 C 323.189 -1.80981 -1.40637 0
M  V30 3408 C 324.189 -0.680816 -1.45676 0
M  V30 3409 O 325.379 -0.949095 -1.46075 0
M  V30 3410 C 322.511 -1.95063 -2.79577 0
M  V30 3411 H 323.704 -2.75803 -1.17783 0
M  V30 3412 H 321.257 -1.45173 -0.579181 0
M  V30 3413 H 321.992 -1.02379 -3.07716 0
M  V30 3414 H 321.777 -2.77198 -2.77315 0
M  V30 3415 H 323.267 -2.17629 -3.56409 0
M  V30 3416 N 323.704 0.605807 -1.45491 0
M  V30 3417 C 324.929 1.39625 -1.53361 0
M  V30 3418 C 325.354 1.87351 -0.167645 0
M  V30 3419 O 324.712 1.60243 0.848051 0
M  V30 3420 C 324.76 2.57559 -2.5238 0
M  V30 3421 O 323.864 3.58248 -2.04285 0
M  V30 3422 H 323.205 0.416771 -0.516912 0
M  V30 3423 H 325.735 0.737103 -1.90861 0
M  V30 3424 H 325.745 3.0478 -2.71244 0
M  V30 3425 H 324.42 2.22171 -3.51586 0
M  V30 3426 H 322.997 3.17664 -1.95305 0
M  V30 3427 N 325.182 1.32811 0.848464 0
M  V30 3428 C 326.129 1.22265 1.95755 0
M  V30 3429 C 327.099 0.103413 1.65778 0
M  V30 3430 O 328.284 0.280033 1.88734 0
M  V30 3431 C 325.424 0.958014 3.31536 0
M  V30 3432 C 324.537 2.16262 3.73971 0
M  V30 3433 C 323.672 1.83295 4.98575 0
M  V30 3434 C 322.711 3.00041 5.33518 0
M  V30 3435 N 321.848 2.67125 6.49299 0
M  V30 3436 H 326.688 2.17128 2.04107 0
M  V30 3437 H 324.225 1.07982 0.998913 0
M  V30 3438 H 326.183 0.785052 4.09747 0
M  V30 3439 H 324.813 0.046159 3.22767 0
M  V30 3440 H 323.865 2.44565 2.91362 0
M  V30 3441 H 325.177 3.03572 3.95785 0
M  V30 3442 H 324.331 1.62586 5.84509 0
M  V30 3443 H 323.07 0.932078 4.7871 0
M  V30 3444 H 322.075 3.21374 4.46093 0
M  V30 3445 H 323.3 3.90869 5.55336 0
M  V30 3446 H 321.246 1.79586 6.3094 0
M  V30 3447 H 321.163 3.47965 6.71161 0
M  V30 3448 H 322.431 2.49861 7.3837 0
M  V30 3449 N 326.66 -1.06551 1.16123 0
M  V30 3450 C 327.908 -1.78947 0.939267 0
M  V30 3451 C 328.229 -1.87532 -0.534476 0
M  V30 3452 O 327.499 -1.38211 -1.38833 0
M  V30 3453 H 326.079 -0.662807 0.344523 0
M  V30 3454 H 328.741 -1.28725 1.46342 0
M  V30 3455 H 327.837 -2.81117 1.35572 0
M  V30 3456 N 328.138 -0.959301 -1.25041 0
M  V30 3457 C 329.363 -0.633507 -1.97488 0
M  V30 3458 C 329.788 0.788555 -1.70773 0
M  V30 3459 O 329.146 1.53394 -0.966431 0
M  V30 3460 C 329.194 -0.904057 -3.49083 0
M  V30 3461 O 328.298 0.0147939 -4.12397 0
M  V30 3462 H 327.639 -0.240368 -0.618966 0
M  V30 3463 H 330.169 -1.28717 -1.59038 0
M  V30 3464 H 330.179 -0.832203 -3.99423 0
M  V30 3465 H 328.854 -1.94048 -3.67856 0
M  V30 3466 H 327.431 -0.109664 -3.72739 0
M  V30 3467 N 329.616 1.39756 -0.72842 0
M  V30 3468 C 330.526 2.34444 -0.0855374 0
M  V30 3469 C 331.542 1.57976 0.729356 0
M  V30 3470 O 332.718 1.90301 0.659346 0
M  V30 3471 C 329.783 3.36965 0.815798 0
M  V30 3472 C 328.844 4.29299 -0.0105996 0
M  V30 3473 C 328.077 5.26923 0.84781 0
M  V30 3474 O 328.3 5.30859 2.08673 0
M  V30 3475 O 327.234 6.01249 0.279969 0
M  V30 3476 H 331.06 2.91065 -0.866892 0
M  V30 3477 H 328.645 1.4117 -0.48902 0
M  V30 3478 H 330.527 3.99804 1.33171 0
M  V30 3479 H 329.202 2.82739 1.57608 0
M  V30 3480 H 328.109 3.69703 -0.571877 0
M  V30 3481 H 329.442 4.86712 -0.73295 0
M  V30 3482 N 331.094 0.475555 1.50254 0
M  V30 3483 C 332.322 -0.0754493 2.06762 0
M  V30 3484 C 332.737 -1.33111 1.33891 0
M  V30 3485 O 332.094 -1.77846 0.40952 0
M  V30 3486 C 332.145 -0.359008 3.59713 0
M  V30 3487 O 331.866 0.846851 4.29837 0
M  V30 3488 C 333.367 -0.956484 4.32858 0
M  V30 3489 H 330.587 0.00907525 0.670939 0
M  V30 3490 H 333.131 0.665618 1.93364 0
M  V30 3491 H 331.286 -1.05001 3.72899 0
M  V30 3492 H 331.7 0.594162 5.21124 0
M  V30 3493 H 333.174 -1.10463 5.40834 0
M  V30 3494 H 333.651 -1.94775 3.93649 0
M  V30 3495 H 334.257 -0.303723 4.24214 0
M  V30 3496 N 332.573 -1.56217 0.208337 0
M  V30 3497 C 333.813 -1.99849 -0.428927 0
M  V30 3498 C 334.177 -1.09262 -1.57879 0
M  V30 3499 O 335.378 -1.42185 -2.28116 0
M  V30 3500 C 333.649 -3.46777 -0.864879 0
M  V30 3501 S 335.208 -4.12434 -1.49811 0
M  V30 3502 H 332.026 -0.697742 -0.136665 0
M  V30 3503 H 334.628 -1.92953 0.314519 0
M  V30 3504 H 333.332 -4.10396 -0.0181326 0
M  V30 3505 H 332.863 -3.57518 -1.64147 0
M  V30 3506 H 334.878 -4.10532 -2.78707 0
M  V30 3507 N 334.051 0.0651679 -1.57465 0
M  V30 3508 C 335.299 0.761555 -1.87202 0
M  V30 3509 C 335.62 1.77778 -0.801243 0
M  V30 3510 O 334.89 1.95166 0.16937 0
M  V30 3511 H 333.47 0.284251 -0.690804 0
M  V30 3512 H 336.132 0.0396827 -1.9486 0
M  V30 3513 H 335.228 1.27365 -2.84929 0
M  V30 3514 N 335.529 1.53961 0.336706 0
M  V30 3515 C 336.776 1.71536 1.07618 0
M  V30 3516 C 337.104 0.482125 1.8843 0
M  V30 3517 O 336.359 -0.536142 1.88213 0
M  V30 3518 C 336.658 2.93493 2.03953 0
M  V30 3519 C 336.324 4.28811 1.39399 0
M  V30 3520 C 334.986 4.65602 1.21523 0
M  V30 3521 C 337.338 5.12844 0.929541 0
M  V30 3522 C 334.666 5.84037 0.558312 0
M  V30 3523 C 337.018 6.31951 0.286505 0
M  V30 3524 C 335.682 6.67432 0.0954869 0
M  V30 3525 H 334.952 0.627696 0.393801 0
M  V30 3526 H 337.599 1.88186 0.354715 0
M  V30 3527 H 335.904 2.71475 2.82504 0
M  V30 3528 H 337.601 3.04285 2.61174 0
M  V30 3529 H 334.191 3.99858 1.54311 0
M  V30 3530 H 338.375 4.84947 1.05548 0
M  V30 3531 H 333.631 6.10097 0.398995 0
M  V30 3532 H 337.805 6.96352 -0.0814376 0
M  V30 3533 H 335.432 7.59063 -0.415579 0
M  V30 3534 N 337.007 -0.598083 1.45811 0
M  V30 3535 C 338.253 -1.35882 1.50545 0
M  V30 3536 C 338.586 -1.93616 0.150445 0
M  V30 3537 O 337.861 -1.75604 -0.83628 0
M  V30 3538 C 338.144 -2.49966 2.59208 0
M  V30 3539 C 337.997 -1.97367 4.04186 0
M  V30 3540 C 339.316 -3.52068 2.64076 0
M  V30 3541 H 336.435 -0.492717 0.548087 0
M  V30 3542 H 339.077 -0.673319 1.77669 0
M  V30 3543 H 337.227 -3.08443 2.3621 0
M  V30 3544 H 338.899 -1.43466 4.38423 0
M  V30 3545 H 337.142 -1.283 4.14393 0
M  V30 3546 H 337.813 -2.79649 4.75921 0
M  V30 3547 H 340.289 -3.03448 2.84708 0
M  V30 3548 H 339.165 -4.2937 3.41954 0
M  V30 3549 H 339.426 -4.08304 1.69531 0
M  V30 3550 N 338.485 -1.33259 -0.841409 0
M  V30 3551 C 339.762 -1.15174 -1.58096 0
M  V30 3552 C 340.142 0.282858 -2.09196 0
M  V30 3553 O 339.49 1.28151 -1.89181 0
M  V30 3554 C 339.7 -2.1907 -2.71679 0
M  V30 3555 C 341.048 -2.53093 -3.40924 0
M  V30 3556 O 342.072 -2.17717 -2.81918 0
M  V30 3557 O 340.931 -3.1379 -4.47435 0
M  V30 3558 H 338.025 -0.445303 -0.696875 0
M  V30 3559 H 340.571 -1.44833 -0.884385 0
M  V30 3560 H 339.343 -3.15443 -2.31541 0
M  V30 3561 H 338.966 -1.90481 -3.49002 0
M  V30 3562 N 339.963 1.05934 -1.16686 0
M  V30 3563 C 340.873 2.17014 -0.891183 0
M  V30 3564 C 341.889 1.73453 0.137907 0
M  V30 3565 O 343.065 2.01361 -0.039592 0
M  V30 3566 C 340.13 3.44384 -0.400099 0
M  V30 3567 C 339.191 4.02433 -1.49486 0
M  V30 3568 C 338.424 5.23723 -1.02711 0
M  V30 3569 O 338.647 5.7027 0.121716 0
M  V30 3570 O 337.581 5.7382 -1.81699 0
M  V30 3571 H 341.407 2.43113 -1.82015 0
M  V30 3572 H 338.992 1.15541 -0.947132 0
M  V30 3573 H 340.874 4.21189 -0.133392 0
M  V30 3574 H 339.549 3.19802 0.500817 0
M  V30 3575 H 338.456 3.27102 -1.81535 0
M  V30 3576 H 339.789 4.31317 -2.37121 0
M  V30 3577 N 341.441 0.965919 1.2453 0
M  V30 3578 C 342.857 0.67216 1.44756 0
M  V30 3579 C 343.057 -0.766609 1.86347 0
M  V30 3580 O 342.113 -1.5407 2.00047 0
M  V30 3581 C 343.426 1.65473 2.51076 0
M  V30 3582 C 344.974 1.66716 2.64905 0
M  V30 3583 C 345.449 2.63766 3.74421 0
M  V30 3584 N 346.94 2.62198 3.81846 0
M  V30 3585 C 347.675 3.33966 4.66106 0
M  V30 3586 N 347.171 4.15245 5.54566 0
M  V30 3587 N 348.964 3.22799 4.60171 0
M  V30 3588 H 341.115 1.89553 0.958293 0
M  V30 3589 H 343.378 0.815979 0.482579 0
M  V30 3590 H 343.084 2.68296 2.27399 0
M  V30 3591 H 342.958 1.4261 3.49202 0
M  V30 3592 H 345.345 0.646057 2.87941 0
M  V30 3593 H 345.426 1.93642 1.67142 0
M  V30 3594 H 345.07 3.6601 3.52135 0
M  V30 3595 H 345 2.34121 4.71694 0
M  V30 3596 H 347.491 2.032 3.18619 0
M  V30 3597 H 347.804 4.66898 6.15814 0
M  V30 3598 H 346.149 4.1934 5.54237 0
M  V30 3599 H 349.34 2.58764 3.90075 0
M  V30 3600 H 349.513 3.78994 5.25612 0
M  V30 3601 N 342.919 -1.39368 0.735821 0
M  V30 3602 C 344.167 -2.00101 0.283562 0
M  V30 3603 C 344.488 -1.5868 -1.13338 0
M  V30 3604 O 343.758 -0.835423 -1.77193 0
M  V30 3605 H 342.338 -0.740024 0.101851 0
M  V30 3606 H 345 -1.70404 0.945962 0
M  V30 3607 H 344.096 -3.10323 0.332604 0
M  V30 3608 N 344.397 -0.483516 -1.5 0
M  V30 3609 C 345.327 0.293829 -2.31644 0
M  V30 3610 C 346.308 0.978864 -1.39112 0
M  V30 3611 O 347.493 0.973644 -1.68029 0
M  V30 3612 C 344.623 1.36897 -3.19181 0
M  V30 3613 C 343.577 0.804833 -4.20365 0
M  V30 3614 C 342.903 1.9792 -4.96721 0
M  V30 3615 C 344.203 -0.192313 -5.21946 0
M  V30 3616 H 345.897 -0.387616 -2.9688 0
M  V30 3617 H 343.443 -0.187856 -1.42769 0
M  V30 3618 H 345.396 1.92037 -3.751 0
M  V30 3619 H 344.12 2.07936 -2.51853 0
M  V30 3620 H 342.779 0.275319 -3.65565 0
M  V30 3621 H 342.427 2.67686 -4.25856 0
M  V30 3622 H 342.127 1.60789 -5.65173 0
M  V30 3623 H 343.651 2.53526 -5.55479 0
M  V30 3624 H 345.065 0.270333 -5.72662 0
M  V30 3625 H 343.462 -0.478543 -5.98189 0
M  V30 3626 H 344.532 -1.11409 -4.71928 0
M  V30 3627 N 345.875 1.56104 -0.216619 0
M  V30 3628 C 347.105 2.02269 0.420802 0
M  V30 3629 C 347.513 1.09575 1.5424 0
M  V30 3630 O 346.856 0.0967308 1.83445 0
M  V30 3631 C 346.918 3.44784 1.01806 0
M  V30 3632 C 346.582 4.56988 0.0325154 0
M  V30 3633 C 347.579 5.14225 -0.766055 0
M  V30 3634 C 345.264 5.02228 -0.0848092 0
M  V30 3635 C 347.258 6.15169 -1.6687 0
M  V30 3636 C 344.945 6.03011 -0.990994 0
M  V30 3637 C 345.943 6.59357 -1.78149 0
M  V30 3638 O 345.631 7.58179 -2.67245 0
M  V30 3639 H 345.363 0.667353 0.107776 0
M  V30 3640 H 347.917 2.02747 -0.329034 0
M  V30 3641 H 346.147 3.41359 1.81689 0
M  V30 3642 H 347.836 3.74626 1.56237 0
M  V30 3643 H 348.602 4.80126 -0.685836 0
M  V30 3644 H 344.481 4.58054 0.520349 0
M  V30 3645 H 348.025 6.59076 -2.28615 0
M  V30 3646 H 343.922 6.36532 -1.07225 0
M  V30 3647 H 344.69 7.75682 -2.61265 0
M  V30 3648 N 347.353 -0.0568162 1.57498 0
M  V30 3649 C 348.3 -1.06591 2.04712 0
M  V30 3650 C 349.27 -1.3758 0.930644 0
M  V30 3651 O 350.455 -1.48392 1.19935 0
M  V30 3652 C 347.595 -2.3701 2.50839 0
M  V30 3653 C 346.708 -2.12421 3.76167 0
M  V30 3654 C 345.843 -3.36511 4.11015 0
M  V30 3655 C 344.882 -3.07353 5.2934 0
M  V30 3656 N 344.019 -4.23816 5.59754 0
M  V30 3657 H 348.859 -0.65631 2.90683 0
M  V30 3658 H 346.396 -0.312481 1.43743 0
M  V30 3659 H 348.354 -3.13175 2.7564 0
M  V30 3660 H 346.984 -2.75744 1.67825 0
M  V30 3661 H 346.036 -1.2688 3.58616 0
M  V30 3662 H 347.348 -1.86894 4.62463 0
M  V30 3663 H 346.502 -4.21062 4.36797 0
M  V30 3664 H 345.241 -3.65128 3.23315 0
M  V30 3665 H 344.246 -2.212 5.03339 0
M  V30 3666 H 345.471 -2.80043 6.1867 0
M  V30 3667 H 343.417 -4.52436 4.75014 0
M  V30 3668 H 343.334 -4.01614 6.40501 0
M  V30 3669 H 344.602 -5.0932 5.90096 0
M  V30 3670 N 348.832 -1.54138 -0.328536 0
M  V30 3671 C 350.057 -1.76378 -1.09112 0
M  V30 3672 C 350.482 -0.508596 -1.81094 0
M  V30 3673 O 349.84 0.539598 -1.73084 0
M  V30 3674 C 349.888 -2.95358 -2.06872 0
M  V30 3675 O 348.992 -2.66556 -3.14677 0
M  V30 3676 H 348.333 -0.584614 -0.314838 0
M  V30 3677 H 350.863 -2.01146 -0.374348 0
M  V30 3678 H 350.873 -3.22566 -2.4983 0
M  V30 3679 H 349.548 -3.86385 -1.5388 0
M  V30 3680 H 348.125 -2.50282 -2.7643 0
M  V30 3681 N 350.31 0.590341 -1.46126 0
M  V30 3682 C 351.24 1.71032 -1.58966 0
M  V30 3683 C 352.221 1.64302 -0.440335 0
M  V30 3684 O 353.406 1.82436 -0.665634 0
M  V30 3685 C 350.536 3.09665 -1.57241 0
M  V30 3686 C 349.49 3.31221 -2.71066 0
M  V30 3687 C 348.816 4.70303 -2.54399 0
M  V30 3688 C 350.116 3.19796 -4.1295 0
M  V30 3689 H 351.81 1.60543 -2.52718 0
M  V30 3690 H 349.356 0.770933 -1.21625 0
M  V30 3691 H 351.309 3.87831 -1.64819 0
M  V30 3692 H 350.033 3.21036 -0.600289 0
M  V30 3693 H 348.692 2.55452 -2.62944 0
M  V30 3694 H 348.34 4.78429 -1.55288 0
M  V30 3695 H 348.04 4.85679 -3.30741 0
M  V30 3696 H 349.564 5.50647 -2.63857 0
M  V30 3697 H 350.978 3.87815 -4.22223 0
M  V30 3698 H 349.375 3.46696 -4.89818 0
M  V30 3699 H 350.445 2.16983 -4.33643 0
M  V30 3700 N 351.788 1.33704 0.83433 0
M  V30 3701 C 352.735 1.24335 1.94447 0
M  V30 3702 C 353.705 0.120991 1.65659 0
M  V30 3703 O 354.89 0.300035 1.88426 0
M  V30 3704 C 352.03 0.993124 3.30501 0
M  V30 3705 C 351.143 2.20217 3.71657 0
M  V30 3706 C 350.278 1.88572 4.96602 0
M  V30 3707 C 349.317 3.05683 5.30306 0
M  V30 3708 N 348.454 2.73997 6.46429 0
M  V30 3709 H 353.294 2.1928 2.01792 0
M  V30 3710 H 350.831 1.09035 0.987404 0
M  V30 3711 H 352.789 0.828467 4.08892 0
M  V30 3712 H 351.419 0.0803902 3.227 0
M  V30 3713 H 350.471 2.47642 2.88752 0
M  V30 3714 H 351.783 3.07752 3.92543 0
M  V30 3715 H 350.937 1.68776 5.82752 0
M  V30 3716 H 349.676 0.982799 4.77695 0
M  V30 3717 H 348.681 3.26088 4.42659 0
M  V30 3718 H 349.906 3.96737 5.51159 0
M  V30 3719 H 347.852 1.86268 6.28999 0
M  V30 3720 H 347.769 3.55064 6.67432 0
M  V30 3721 H 349.037 2.57679 7.35678 0
M  V30 3722 N 353.266 -1.05314 1.17247 0
M  V30 3723 C 354.514 -1.77941 0.958194 0
M  V30 3724 C 354.835 -1.88089 -0.514556 0
M  V30 3725 O 354.105 -1.39676 -1.37359 0
M  V30 3726 H 352.685 -0.659116 0.351533 0
M  V30 3727 H 355.347 -1.27166 1.47699 0
M  V30 3728 H 354.443 -2.79663 1.38546 0
M  V30 3729 N 354.744 -0.972509 -1.24016 0
M  V30 3730 C 355.707 -0.511403 -2.23422 0
M  V30 3731 C 356.707 0.394679 -1.55881 0
M  V30 3732 O 357.897 0.189469 -1.73167 0
M  V30 3733 C 355.029 0.258769 -3.39916 0
M  V30 3734 H 356.222 -1.39024 -2.6573 0
M  V30 3735 H 353.775 -0.757585 -1.36713 0
M  V30 3736 H 354.51 1.1545 -3.03054 0
M  V30 3737 H 354.295 -0.391522 -3.9014 0
M  V30 3738 H 355.785 0.570244 -4.13688 0
M  V30 3739 N 356.222 1.38976 -0.743202 0
M  V30 3740 C 357.462 2.02193 -0.29954 0
M  V30 3741 C 357.826 1.5771 1.09506 0
M  V30 3742 O 359.027 2.13184 1.63726 0
M  V30 3743 C 357.298 3.55077 -0.406822 0
M  V30 3744 S 358.857 4.38778 -0.0442109 0
M  V30 3745 H 355.675 0.701335 -0.116836 0
M  V30 3746 H 358.277 1.69651 -0.971529 0
M  V30 3747 H 356.981 3.84942 -1.42295 0
M  V30 3748 H 356.512 3.92383 0.282707 0
M  V30 3749 H 358.527 4.82222 1.16947 0
M  V30 3750 N 357.7 0.491464 1.49741 0
M  V30 3751 C 358.647 -0.292027 2.28945 0
M  V30 3752 C 359.617 -0.968973 1.34908 0
M  V30 3753 O 360.802 -0.97748 1.6386 0
M  V30 3754 C 357.942 -1.35617 3.17336 0
M  V30 3755 C 357.055 -0.691957 4.26422 0
M  V30 3756 C 356.19 -1.73572 5.02042 0
M  V30 3757 C 355.229 -1.05286 6.02977 0
M  V30 3758 N 354.366 -2.0404 6.71798 0
M  V30 3759 H 359.206 0.389654 2.95442 0
M  V30 3760 H 356.743 0.204003 1.45679 0
M  V30 3761 H 358.701 -1.98502 3.66951 0
M  V30 3762 H 357.331 -2.00674 2.52844 0
M  V30 3763 H 356.383 0.0499523 3.80367 0
M  V30 3764 H 357.695 -0.153946 4.98562 0
M  V30 3765 H 356.849 -2.43987 5.55478 0
M  V30 3766 H 355.588 -2.30757 4.29654 0
M  V30 3767 H 354.593 -0.334446 5.48782 0
M  V30 3768 H 355.818 -0.487636 6.77347 0
M  V30 3769 H 353.764 -2.60205 6.02187 0
M  V30 3770 H 353.681 -1.55279 7.39881 0
M  V30 3771 H 354.949 -2.73772 7.29842 0
M  V30 3772 N 359.178 -1.55987 0.224894 0
M  V30 3773 C 360.108 -2.23426 -0.678457 0
M  V30 3774 C 361.089 -1.20709 -1.19847 0
M  V30 3775 O 362.274 -1.49304 -1.24186 0
M  V30 3776 C 359.404 -2.91676 -1.88527 0
M  V30 3777 C 358.358 -4.00893 -1.49896 0
M  V30 3778 C 357.684 -4.56455 -2.78483 0
M  V30 3779 C 358.984 -5.17769 -0.686461 0
M  V30 3780 H 360.678 -2.99175 -0.116173 0
M  V30 3781 H 358.224 -1.43897 -0.054436 0
M  V30 3782 H 360.177 -3.37547 -2.5227 0
M  V30 3783 H 358.901 -2.1338 -2.47258 0
M  V30 3784 H 357.56 -3.55758 -0.884985 0
M  V30 3785 H 357.208 -3.74886 -3.35365 0
M  V30 3786 H 356.908 -5.30169 -2.53368 0
M  V30 3787 H 358.432 -5.05047 -3.43162 0
M  V30 3788 H 359.846 -5.60001 -1.22767 0
M  V30 3789 H 358.243 -5.97735 -0.532259 0
M  V30 3790 H 359.313 -4.83932 0.306196 0
M  V30 3791 N 360.656 0.0484629 -1.57525 0
M  V30 3792 C 361.603 1.05504 -2.05275 0
M  V30 3793 C 362.573 1.37084 -0.937927 0
M  V30 3794 O 363.758 1.47754 -1.2072 0
M  V30 3795 C 360.898 2.35676 -2.52093 0
M  V30 3796 C 360.011 2.10423 -3.77288 0
M  V30 3797 C 359.146 3.34327 -4.12794 0
M  V30 3798 C 358.185 3.04542 -5.30962 0
M  V30 3799 N 357.322 4.20841 -5.61994 0
M  V30 3800 H 362.162 0.640885 -2.91027 0
M  V30 3801 H 359.699 0.304854 -1.43906 0
M  V30 3802 H 361.657 3.11709 -2.77297 0
M  V30 3803 H 360.287 2.7485 -1.69285 0
M  V30 3804 H 359.339 1.24976 -3.59284 0
M  V30 3805 H 360.651 1.84438 -4.63448 0
M  V30 3806 H 359.805 4.1874 -4.39024 0
M  V30 3807 H 358.544 3.63408 -3.25247 0
M  V30 3808 H 357.549 2.18528 -5.04505 0
M  V30 3809 H 358.774 2.76758 -6.20146 0
M  V30 3810 H 356.72 4.4991 -4.77406 0
M  V30 3811 H 356.637 3.98212 -6.42622 0
M  V30 3812 H 357.905 5.06184 -5.92789 0
M  V30 3813 N 362.134 1.5431 0.320358 0
M  V30 3814 C 363.064 1.86912 1.3995 0
M  V30 3815 C 364.045 0.726211 1.53819 0
M  V30 3816 O 365.23 0.980233 1.67646 0
M  V30 3817 C 362.36 2.09932 2.7667 0
M  V30 3818 C 361.314 3.25776 2.77586 0
M  V30 3819 C 360.64 3.34173 4.17412 0
M  V30 3820 C 361.94 4.6335 2.41048 0
M  V30 3821 H 363.634 2.77292 1.12914 0
M  V30 3822 H 361.18 1.33421 0.541738 0
M  V30 3823 H 363.133 2.31324 3.52232 0
M  V30 3824 H 361.857 1.16304 3.0519 0
M  V30 3825 H 360.516 3.04276 2.04479 0
M  V30 3826 H 360.164 2.38098 4.43078 0
M  V30 3827 H 359.864 4.12033 4.18931 0
M  V30 3828 H 361.388 3.57803 4.94782 0
M  V30 3829 H 362.802 4.84602 3.06324 0
M  V30 3830 H 361.199 5.43782 2.53813 0
M  V30 3831 H 362.269 4.65381 1.36193 0
M  V30 3832 N 363.613 -0.582584 1.46437 0
M  V30 3833 C 364.853 -1.35184 1.53312 0
M  V30 3834 C 365.217 -1.9115 0.180508 0
M  V30 3835 O 366.418 -2.68514 0.124017 0
M  V30 3836 C 364.689 -2.45089 2.60127 0
M  V30 3837 S 366.248 -3.32439 2.86408 0
M  V30 3838 H 363.066 -0.460559 0.54167 0
M  V30 3839 H 365.668 -0.669709 1.83671 0
M  V30 3840 H 364.372 -2.02366 3.57038 0
M  V30 3841 H 363.903 -3.18074 2.315 0
M  V30 3842 H 365.918 -4.43924 2.21688 0
M  V30 3843 N 365.091 -1.34144 -0.827227 0
M  V30 3844 C 366.339 -1.26009 -1.58007 0
M  V30 3845 C 366.66 0.170971 -1.94249 0
M  V30 3846 O 365.93 1.10256 -1.61927 0
M  V30 3847 H 364.51 -0.463414 -0.585881 0
M  V30 3848 H 367.172 -1.68005 -0.987951 0
M  V30 3849 H 366.268 -1.86187 -2.50481 0
M  V30 3850 N 366.569 1.04691 -1.17803 0
M  V30 3851 C 367.815 1.78045 -0.970969 0
M  V30 3852 C 368.148 1.87686 0.498751 0
M  V30 3853 O 367.423 1.38035 1.37027 0
M  V30 3854 C 367.706 3.2166 -1.61884 0
M  V30 3855 C 367.559 3.20001 -3.161 0
M  V30 3856 C 368.878 4.1962 -1.3269 0
M  V30 3857 H 365.997 0.64633 -0.354155 0
M  V30 3858 H 368.639 1.22333 -1.45378 0
M  V30 3859 H 366.789 3.69232 -1.20831 0
M  V30 3860 H 368.461 2.80467 -3.66246 0
M  V30 3861 H 366.704 2.58203 -3.48588 0
M  V30 3862 H 367.375 4.21386 -3.56564 0
M  V30 3863 H 369.851 3.80567 -1.68249 0
M  V30 3864 H 368.727 5.18339 -1.80599 0
M  V30 3865 H 368.988 4.414 -0.248622 0
M  V30 3866 N 368.047 0.979072 1.23499 0
M  V30 3867 C 368.977 0.537606 2.27227 0
M  V30 3868 C 369.958 -0.428539 1.64613 0
M  V30 3869 O 371.143 -0.322191 1.91509 0
M  V30 3870 C 368.273 -0.162052 3.46922 0
M  V30 3871 C 367.227 0.721242 4.21879 0
M  V30 3872 C 366.553 -0.110555 5.34586 0
M  V30 3873 C 367.853 2.01141 4.82016 0
M  V30 3874 H 369.547 1.40462 2.64406 0
M  V30 3875 H 367.093 0.67684 1.27102 0
M  V30 3876 H 369.046 -0.482192 4.18632 0
M  V30 3877 H 367.77 -1.06351 3.08799 0
M  V30 3878 H 366.429 1.02482 3.51984 0
M  V30 3879 H 366.077 -1.0125 4.92704 0
M  V30 3880 H 365.777 0.477325 5.85658 0
M  V30 3881 H 367.301 -0.425107 6.09118 0
M  V30 3882 H 368.715 1.75612 5.45741 0
M  V30 3883 H 367.112 2.54695 5.43369 0
M  V30 3884 H 368.182 2.69909 4.02836 0
M  V30 3885 N 369.525 -1.3858 0.750561 0
M  V30 3886 C 370.773 -1.99789 0.30477 0
M  V30 3887 C 371.094 -1.59874 -1.11649 0
M  V30 3888 O 370.364 -0.85417 -1.76297 0
M  V30 3889 H 368.944 -0.738902 0.109694 0
M  V30 3890 H 371.606 -1.69391 0.963983 0
M  V30 3891 H 370.702 -3.09952 0.365499 0
M  V30 3892 N 371.003 -0.499398 -1.49478 0
M  V30 3893 C 371.933 0.269244 -2.31943 0
M  V30 3894 C 372.914 0.964054 -1.40143 0
M  V30 3895 O 374.099 0.955767 -1.69052 0
M  V30 3896 C 371.229 1.33504 -3.20615 0
M  V30 3897 C 370.183 0.760202 -4.21195 0
M  V30 3898 C 369.509 1.9264 -4.98792 0
M  V30 3899 C 370.809 -0.247661 -5.21712 0
M  V30 3900 H 372.503 -0.419082 -2.96452 0
M  V30 3901 H 370.049 -0.202988 -1.42562 0
M  V30 3902 H 372.002 1.88048 -3.77115 0
M  V30 3903 H 370.726 2.05253 -2.54045 0
M  V30 3904 H 369.385 0.23653 -3.65836 0
M  V30 3905 H 369.033 2.63154 -4.28671 0
M  V30 3906 H 368.733 1.54785 -5.66847 0
M  V30 3907 H 370.257 2.4762 -5.58137 0
M  V30 3908 H 371.671 0.209579 -5.72917 0
M  V30 3909 H 370.068 -0.541962 -5.97648 0
M  V30 3910 H 371.138 -1.16409 -4.7072 0
M  V30 3911 N 372.481 1.55866 -0.233164 0
M  V30 3912 C 373.897 1.59133 0.121988 0
M  V30 3913 C 374.097 1.25016 1.58029 0
M  V30 3914 O 373.153 0.990922 2.32243 0
M  V30 3915 C 374.466 2.99932 -0.214792 0
M  V30 3916 C 376.014 3.12601 -0.157971 0
M  V30 3917 C 376.489 4.55597 -0.46859 0
M  V30 3918 N 377.98 4.61305 -0.418585 0
M  V30 3919 C 378.715 5.69903 -0.63227 0
M  V30 3920 N 378.211 6.86819 -0.90835 0
M  V30 3921 N 380.004 5.59264 -0.563913 0
M  V30 3922 H 372.155 1.76315 -1.18434 0
M  V30 3923 H 374.418 0.820093 -0.475553 0
M  V30 3924 H 374.124 3.29588 -1.22739 0
M  V30 3925 H 373.998 3.74327 0.464691 0
M  V30 3926 H 376.385 2.82735 0.845283 0
M  V30 3927 H 376.466 2.40511 -0.871102 0
M  V30 3928 H 376.11 4.86182 -1.46934 0
M  V30 3929 H 376.04 5.25928 0.265865 0
M  V30 3930 H 378.531 3.77297 -0.213368 0
M  V30 3931 H 378.844 7.65507 -1.05919 0
M  V30 3932 H 377.189 6.88536 -0.945673 0
M  V30 3933 H 380.38 4.66802 -0.348372 0
M  V30 3934 H 380.553 6.43831 -0.733847 0
M  V30 3935 N 373.959 -0.0401083 1.57549 0
M  V30 3936 C 374.889 -1.04384 2.08869 0
M  V30 3937 C 375.87 -1.38407 0.988817 0
M  V30 3938 O 377.055 -1.47483 1.26342 0
M  V30 3939 C 374.185 -2.34808 2.55895 0
M  V30 3940 C 373.139 -2.15057 3.70047 0
M  V30 3941 C 372.465 -3.51145 4.03239 0
M  V30 3942 C 373.765 -1.54576 4.98902 0
M  V30 3943 H 375.459 -0.616666 2.92981 0
M  V30 3944 H 373.005 -0.295184 1.40942 0
M  V30 3945 H 374.958 -3.05346 2.90417 0
M  V30 3946 H 373.682 -2.79565 1.68853 0
M  V30 3947 H 372.341 -1.46954 3.35857 0
M  V30 3948 H 371.989 -3.93529 3.13279 0
M  V30 3949 H 371.689 -3.38758 4.80122 0
M  V30 3950 H 373.213 -4.23062 4.40285 0
M  V30 3951 H 374.627 -2.15017 5.31451 0
M  V30 3952 H 373.024 -1.52796 5.80322 0
M  V30 3953 H 374.094 -0.51039 4.82206 0
M  V30 3954 N 375.437 -1.54477 -0.31217 0
M  V30 3955 C 376.37 -1.79519 -1.40884 0
M  V30 3956 C 377.348 -0.645753 -1.49227 0
M  V30 3957 O 378.532 -0.884468 -1.66461 0
M  V30 3958 C 375.659 -1.92194 -2.78889 0
M  V30 3959 C 374.705 -3.14555 -2.88023 0
M  V30 3960 S 375.538 -4.72893 -2.51262 0
M  V30 3961 C 376.694 -4.8849 -3.91317 0
M  V30 3962 H 376.927 -2.72256 -1.19432 0
M  V30 3963 H 374.46 -1.45746 -0.509654 0
M  V30 3964 H 376.418 -2.00182 -3.58382 0
M  V30 3965 H 375.079 -1.00414 -2.97617 0
M  V30 3966 H 374.272 -3.20193 -3.89221 0
M  V30 3967 H 373.874 -3.04955 -2.16514 0
M  V30 3968 H 376.166 -4.71826 -4.86196 0
M  V30 3969 H 377.109 -5.90588 -3.90656 0
M  V30 3970 H 377.517 -4.16715 -3.80801 0
M  V30 3971 N 376.915 0.57481 -1.46744 0
M  V30 3972 C 378.192 1.3352 -1.4294 0
M  V30 3973 C 378.572 2.10775 -0.117009 0
M  V30 3974 O 377.92 2.09966 0.901474 0
M  V30 3975 C 378.13 2.25456 -2.66403 0
M  V30 3976 C 379.478 2.87035 -3.12883 0
M  V30 3977 O 380.502 2.35766 -2.67007 0
M  V30 3978 O 379.361 3.80179 -3.92589 0
M  V30 3979 H 376.455 0.600318 -0.568812 0
M  V30 3980 H 379.001 0.595171 -1.58921 0
M  V30 3981 H 377.773 1.67851 -3.53471 0
M  V30 3982 H 377.396 3.06785 -2.52921 0
M  V30 3983 N 378.394 1.34581 0.820102 0
M  V30 3984 C 379.642 1.26845 1.57336 0
M  V30 3985 C 379.963 -0.160667 1.94337 0
M  V30 3986 O 379.233 -1.09396 1.6251 0
M  V30 3987 H 377.813 0.466514 0.583415 0
M  V30 3988 H 380.475 1.68526 0.979027 0
M  V30 3989 H 379.571 1.87513 2.4949 0
M  V30 3990 N 379.872 -1.04064 1.18357 0
M  V30 3991 C 381.1 -1.80916 1.00384 0
M  V30 3992 C 381.515 -1.83414 -0.447738 0
M  V30 3993 O 380.872 -1.26962 -1.31099 0
M  V30 3994 C 380.923 -3.26516 1.55144 0
M  V30 3995 O 380.644 -3.2424 2.94618 0
M  V30 3996 C 382.145 -4.20013 1.41789 0
M  V30 3997 H 379.365 -0.569728 0.354474 0
M  V30 3998 H 381.909 -1.31151 1.56906 0
M  V30 3999 H 380.064 -3.73512 1.02798 0
M  V30 4000 H 380.478 -4.15452 3.20156 0
M  V30 4001 H 381.952 -5.20111 1.84901 0
M  V30 4002 H 382.429 -4.37667 0.36661 0
M  V30 4003 H 383.035 -3.78881 1.93207 0
M  V30 4004 N 381.35 -0.985608 -1.22978 0
M  V30 4005 C 382.596 -0.667998 -1.92118 0
M  V30 4006 C 382.951 0.790454 -1.75413 0
M  V30 4007 O 382.244 1.56336 -1.10768 0
M  V30 4008 C 382.438 -1.00014 -3.43121 0
M  V30 4009 C 382.267 -2.48933 -3.74516 0
M  V30 4010 C 381.037 -3.15218 -3.94925 0
M  V30 4011 C 383.235 -3.47024 -3.79577 0
M  V30 4012 N 381.217 -4.53689 -4.13569 0
M  V30 4013 C 382.588 -4.70923 -4.03276 0
M  V30 4014 C 384.643 -3.41432 -3.62393 0
M  V30 4015 C 383.346 -5.89914 -4.11574 0
M  V30 4016 C 385.372 -4.59793 -3.71947 0
M  V30 4017 C 384.734 -5.82489 -3.96088 0
M  V30 4018 H 380.833 -0.295589 -0.723983 0
M  V30 4019 H 383.417 -1.26413 -1.4808 0
M  V30 4020 H 381.588 -0.432655 -3.85983 0
M  V30 4021 H 383.32 -0.63927 -3.99619 0
M  V30 4022 H 380.075 -2.65702 -3.92045 0
M  V30 4023 H 380.499 -5.25492 -4.26834 0
M  V30 4024 H 385.141 -2.47594 -3.4272 0
M  V30 4025 H 382.859 -6.84164 -4.30053 0
M  V30 4026 H 386.445 -4.57048 -3.59998 0
M  V30 4027 H 385.325 -6.72546 -4.033 0
M  V30 4028 N 382.828 1.3818 -0.7579 0
M  V30 4029 C 384.074 2.00316 -0.316453 0
M  V30 4030 C 384.407 1.60026 1.10025 0
M  V30 4031 O 383.682 0.839835 1.75434 0
M  V30 4032 C 383.965 3.57349 -0.444245 0
M  V30 4033 C 383.818 4.07591 -1.90236 0
M  V30 4034 C 385.137 4.3981 0.1598 0
M  V30 4035 H 382.256 0.727741 -0.116459 0
M  V30 4036 H 384.898 1.6406 -0.958352 0
M  V30 4037 H 383.048 3.88365 0.102233 0
M  V30 4038 H 384.72 3.87199 -2.50748 0
M  V30 4039 H 382.963 3.60297 -2.41595 0
M  V30 4040 H 383.634 5.16677 -1.94291 0
M  V30 4041 H 386.11 4.14971 -0.306314 0
M  V30 4042 H 384.986 5.48885 0.0401675 0
M  V30 4043 H 385.247 4.24102 1.24859 0
M  V30 4044 N 384.306 0.507319 1.49211 0
M  V30 4045 C 385.269 -0.256763 2.27757 0
M  V30 4046 C 386.269 -0.888287 1.34038 0
M  V30 4047 O 387.459 -0.751841 1.5714 0
M  V30 4048 C 384.591 -1.36905 3.12202 0
M  V30 4049 H 385.784 0.432557 2.96764 0
M  V30 4050 H 383.337 0.262488 1.5408 0
M  V30 4051 H 384.072 -2.09233 2.47775 0
M  V30 4052 H 383.857 -0.921599 3.81115 0
M  V30 4053 H 385.347 -1.9071 3.7151 0
M  V30 4054 N 385.784 -1.5574 0.241426 0
M  V30 4055 C 386.717 -2.17168 -0.700935 0
M  V30 4056 C 387.695 -1.12206 -1.1768 0
M  V30 4057 O 388.879 -1.40565 -1.25593 0
M  V30 4058 C 386.006 -2.76796 -1.95196 0
M  V30 4059 C 385.052 -3.94764 -1.61442 0
M  V30 4060 S 385.885 -5.30613 -0.72182 0
M  V30 4061 C 387.041 -5.93691 -1.98197 0
M  V30 4062 H 387.274 -2.96761 -0.178882 0
M  V30 4063 H 384.807 -1.54378 0.0259299 0
M  V30 4064 H 386.765 -3.11787 -2.67019 0
M  V30 4065 H 385.426 -1.9716 -2.44514 0
M  V30 4066 H 384.619 -4.35057 -2.54443 0
M  V30 4067 H 384.221 -3.61022 -0.976672 0
M  V30 4068 H 386.513 -6.10874 -2.92983 0
M  V30 4069 H 387.456 -6.89258 -1.62262 0
M  V30 4070 H 387.864 -5.22709 -2.13156 0
M  V30 4071 N 387.262 0.0317525 -1.57568 0
M  V30 4072 C 388.194 1.06073 -2.03178 0
M  V30 4073 C 389.207 1.32627 -0.944132 0
M  V30 4074 O 390.396 1.30162 -1.22148 0
M  V30 4075 C 387.496 2.40297 -2.38978 0
M  V30 4076 C 386.669 2.33137 -3.70089 0
M  V30 4077 C 385.728 3.49787 -3.9311 0
M  V30 4078 O 384.754 3.29403 -4.64201 0
M  V30 4079 N 385.956 4.71562 -3.38541 0
M  V30 4080 H 388.721 0.672006 -2.92069 0
M  V30 4081 H 386.282 0.219745 -1.60402 0
M  V30 4082 H 388.274 3.1705 -2.51518 0
M  V30 4083 H 386.844 2.71024 -1.55771 0
M  V30 4084 H 386.064 1.415 -3.67928 0
M  V30 4085 H 387.352 2.25493 -4.56104 0
M  V30 4086 H 386.75 4.91024 -2.80912 0
M  V30 4087 H 385.307 5.45689 -3.56464 0
M  V30 4088 N 388.74 1.54641 0.303973 0
M  V30 4089 C 389.968 1.77768 1.05858 0
M  V30 4090 C 390.383 0.535722 1.8104 0
M  V30 4091 O 389.74 -0.494337 1.75677 0
M  V30 4092 C 389.791 2.9834 2.04146 0
M  V30 4093 O 389.512 4.17736 1.32015 0
M  V30 4094 C 391.013 3.33832 2.91669 0
M  V30 4095 H 388.233 0.592961 0.314067 0
M  V30 4096 H 390.777 2.01583 0.344149 0
M  V30 4097 H 388.932 2.76742 2.71096 0
M  V30 4098 H 389.346 4.85693 1.97998 0
M  V30 4099 H 390.82 4.21448 3.56491 0
M  V30 4100 H 391.297 2.51857 3.59812 0
M  V30 4101 H 391.903 3.57579 2.30254 0
M  V30 4102 N 390.218 -0.567019 1.47046 0
M  V30 4103 C 391.443 -1.3551 1.57009 0
M  V30 4104 C 391.868 -1.86841 0.217259 0
M  V30 4105 O 391.226 -1.62435 -0.805268 0
M  V30 4106 C 391.274 -2.50777 2.5912 0
M  V30 4107 O 390.378 -3.52706 2.13711 0
M  V30 4108 H 389.719 -0.402919 0.52778 0
M  V30 4109 H 392.249 -0.686241 1.92748 0
M  V30 4110 H 392.259 -2.97481 2.79229 0
M  V30 4111 H 390.934 -2.12771 3.57353 0
M  V30 4112 H 389.511 -3.12374 2.03659 0
M  V30 4113 N 391.696 -1.35014 -0.812953 0
M  V30 4114 C 392.644 -1.27435 -1.94585 0
M  V30 4115 C 393.638 -0.170494 -1.6854 0
M  V30 4116 O 394.844 -0.336085 -1.76835 0
M  V30 4117 H 391.219 -0.396144 -0.639198 0
M  V30 4118 H 393.19 -2.23158 -1.98098 0
M  V30 4119 C 391.939 -1.05677 -3.31252 0
M  V30 4120 H 391.262 -1.89853 -3.51846 0
M  V30 4121 H 392.702 -1.04413 -4.10943 0
M  V30 4122 C 391.161 0.239615 -3.36047 0
M  V30 4123 O 391.691 1.23759 -3.8216 0
M  V30 4124 N 389.897 0.276186 -2.89285 0
M  V30 4125 H 389.444 -0.53653 -2.51951 0
M  V30 4126 H 389.402 1.14332 -2.92875 0
M  V30 4127 N 393.175 1.03435 -1.18907 0
M  V30 4128 C 394.085 2.15075 -0.937015 0
M  V30 4129 C 395.101 1.73706 0.101085 0
M  V30 4130 O 396.277 2.01232 -0.0822948 0
M  V30 4131 C 393.342 3.43458 -0.473057 0
M  V30 4132 C 392.403 3.99172 -1.57989 0
M  V30 4133 C 391.636 5.21427 -1.13797 0
M  V30 4134 O 391.859 5.704 0.000725941 0
M  V30 4135 O 390.793 5.69837 -1.9383 0
M  V30 4136 H 394.619 2.39198 -1.87131 0
M  V30 4137 H 392.204 1.13506 -0.971427 0
M  V30 4138 H 394.086 4.20811 -0.222702 0
M  V30 4139 H 392.761 3.20793 0.432869 0
M  V30 4140 H 391.668 3.23178 -1.88433 0
M  V30 4141 H 393.001 4.2619 -2.46217 0
M  V30 4142 N 394.653 0.992116 1.22453 0
M  V30 4143 C 395.881 0.685944 1.95198 0
M  V30 4144 C 396.296 -0.749233 1.73297 0
M  V30 4145 O 395.653 -1.50549 1.03156 0
M  V30 4146 C 395.704 0.981395 3.47924 0
M  V30 4147 O 395.425 2.36018 3.6909 0
M  V30 4148 C 396.926 0.692815 4.37853 0
M  V30 4149 H 394.146 0.253821 0.621141 0
M  V30 4150 H 396.69 1.32668 1.55626 0
M  V30 4151 H 394.845 0.386481 3.85467 0
M  V30 4152 H 395.259 2.45884 4.63294 0
M  V30 4153 H 396.733 0.949818 5.43767 0
M  V30 4154 H 397.21 -0.373181 4.37612 0
M  V30 4155 H 397.816 1.26874 4.05935 0
M  V30 4156 N 396.131 -1.37776 0.765217 0
M  V30 4157 C 397.078 -2.30342 0.145274 0
M  V30 4158 C 398.048 -1.5077 -0.696971 0
M  V30 4159 O 399.233 -1.79362 -0.650689 0
M  V30 4160 C 396.373 -3.37227 -0.732939 0
M  V30 4161 C 395.486 -4.31819 0.125199 0
M  V30 4162 C 394.621 -5.25777 -0.757107 0
M  V30 4163 C 393.66 -6.12012 0.103963 0
M  V30 4164 N 392.797 -6.98232 -0.735953 0
M  V30 4165 H 397.637 -2.8278 0.940195 0
M  V30 4166 H 395.174 -1.39211 0.475255 0
M  V30 4167 H 397.132 -3.97818 -1.25686 0
M  V30 4168 H 395.762 -2.86171 -1.49353 0
M  V30 4169 H 394.814 -3.7259 0.766865 0
M  V30 4170 H 396.126 -4.92509 0.789683 0
M  V30 4171 H 395.28 -5.91541 -1.34776 0
M  V30 4172 H 394.019 -4.65481 -1.45529 0
M  V30 4173 H 393.024 -5.45233 0.707197 0
M  V30 4174 H 394.249 -6.74379 0.799381 0
M  V30 4175 H 392.195 -6.40472 -1.41887 0
M  V30 4176 H 392.112 -7.55891 -0.128624 0
M  V30 4177 H 393.38 -7.68393 -1.31121 0
M  V30 4178 N 397.609 -0.515225 -1.4894 0
M  V30 4179 C 398.855 0.016187 -2.03394 0
M  V30 4180 C 399.21 1.33377 -1.38666 0
M  V30 4181 O 398.503 1.84461 -0.518141 0
M  V30 4182 C 398.697 0.210595 -3.56779 0
M  V30 4183 C 398.526 -1.08659 -4.36375 0
M  V30 4184 C 397.296 -1.64237 -4.77864 0
M  V30 4185 C 399.494 -1.9935 -4.74093 0
M  V30 4186 N 397.476 -2.88398 -5.41941 0
M  V30 4187 C 398.847 -3.08088 -5.38035 0
M  V30 4188 C 400.902 -1.99856 -4.56029 0
M  V30 4189 C 399.605 -4.17377 -5.85823 0
M  V30 4190 C 401.631 -3.08129 -5.04787 0
M  V30 4191 C 400.993 -4.15586 -5.68742 0
M  V30 4192 H 397.092 -0.0352107 -0.781207 0
M  V30 4193 H 399.676 -0.693237 -1.8194 0
M  V30 4194 H 397.847 0.889088 -3.78087 0
M  V30 4195 H 399.579 0.740287 -3.97872 0
M  V30 4196 H 396.334 -1.18566 -4.58518 0
M  V30 4197 H 396.758 -3.51572 -5.78555 0
M  V30 4198 H 401.4 -1.18079 -4.05977 0
M  V30 4199 H 399.118 -4.99943 -6.34888 0
M  V30 4200 H 402.704 -3.09557 -4.92611 0
M  V30 4201 H 401.584 -4.97987 -6.05787 0
M  V30 4202 N 399.087 1.5561 -0.249682 0
M  V30 4203 C 400.327 2.00916 0.37579 0
M  V30 4204 C 400.691 1.13409 1.54927 0
M  V30 4205 O 401.892 1.48183 2.24266 0
M  V30 4206 C 400.163 3.48949 0.772633 0
M  V30 4207 S 401.722 4.16261 1.38824 0
M  V30 4208 H 398.54 0.70112 0.118117 0
M  V30 4209 H 401.142 1.92052 -0.365567 0
M  V30 4210 H 399.846 4.103 -0.090683 0
M  V30 4211 H 399.377 3.61745 1.5461 0
M  V30 4212 H 401.392 4.17778 2.67724 0
M  V30 4213 N 400.565 -0.0233959 1.57583 0
M  V30 4214 C 401.976 -0.56927 1.77809 0
M  V30 4215 C 402.327 -1.75284 0.881472 0
M  V30 4216 O 401.452 -2.1626 0.0777805 0
M  V30 4217 C 402.047 -1.03949 3.22459 0
M  V30 4218 C 400.606 -1.53084 3.43864 0
M  V30 4219 C 399.753 -0.471454 2.73263 0
M  V30 4220 H 402.704 0.202825 1.57399 0
M  V30 4221 H 402.725 -1.90661 3.29285 0
M  V30 4222 H 402.237 -0.177865 3.87692 0
M  V30 4223 H 400.338 -2.41414 2.83814 0
M  V30 4224 H 400.451 -1.57443 4.52491 0
M  V30 4225 H 398.815 -0.927788 2.37201 0
M  V30 4226 H 399.598 0.380808 3.41181 0
M  V30 4227 N 402.043 -1.548 -0.295768 0
M  V30 4228 C 403.454 -1.65274 -0.868411 0
M  V30 4229 C 403.805 -0.56481 -1.87894 0
M  V30 4230 O 402.93 0.29767 -2.14343 0
M  V30 4231 C 403.525 -2.99603 -1.58188 0
M  V30 4232 C 402.084 -3.12181 -2.10286 0
M  V30 4233 C 401.231 -2.6098 -0.93727 0
M  V30 4234 H 404.182 -1.58534 -0.0726422 0
M  V30 4235 H 404.203 -2.91319 -2.44772 0
M  V30 4236 H 403.715 -3.78764 -0.846151 0
M  V30 4237 H 401.816 -2.3775 -2.8689 0
M  V30 4238 H 401.929 -4.18415 -2.33379 0
M  V30 4239 H 400.293 -2.17564 -1.32431 0
M  V30 4240 H 401.076 -3.42623 -0.215414 0
M  V30 4241 N 403.521 0.559213 -1.47345 0
M  V30 4242 C 404.769 1.31388 -1.53563 0
M  V30 4243 C 405.09 1.93985 -0.198678 0
M  V30 4244 O 404.36 1.79825 0.777167 0
M  V30 4245 H 402.94 0.487901 -0.565652 0
M  V30 4246 H 405.602 0.65315 -1.8363 0
M  V30 4247 H 404.698 2.10844 -2.30111 0
M  V30 4248 N 404.999 1.35443 0.805782 0
M  V30 4249 C 405.931 1.24285 1.92577 0
M  V30 4250 C 406.944 0.165962 1.61952 0
M  V30 4251 O 408.133 0.419303 1.73505 0
M  V30 4252 C 405.233 0.891272 3.2697 0
M  V30 4253 C 404.406 2.06669 3.85495 0
M  V30 4254 C 403.465 1.69077 4.98297 0
M  V30 4255 O 402.491 2.4096 5.15681 0
M  V30 4256 N 403.693 0.614869 5.77234 0
M  V30 4257 H 406.458 2.20777 2.02676 0
M  V30 4258 H 404.019 1.28623 0.983243 0
M  V30 4259 H 406.011 0.621256 3.99903 0
M  V30 4260 H 404.581 0.016004 3.12596 0
M  V30 4261 H 403.801 2.50046 3.04747 0
M  V30 4262 H 405.089 2.85237 4.21328 0
M  V30 4263 H 404.487 0.017648 5.65697 0
M  V30 4264 H 403.044 0.404636 6.50543 0
M  V30 4265 N 406.477 -1.02803 1.19454 0
M  V30 4266 C 407.407 -2.12999 0.956758 0
M  V30 4267 C 408.388 -1.69743 -0.110188 0
M  V30 4268 O 409.573 -1.94148 0.0450038 0
M  V30 4269 C 406.703 -3.43746 0.495553 0
M  V30 4270 C 405.657 -4.00688 1.50443 0
M  V30 4271 C 404.983 -5.27067 0.900275 0
M  V30 4272 C 406.283 -4.35397 2.8849 0
M  V30 4273 H 407.977 -2.33148 1.87836 0
M  V30 4274 H 405.523 -1.12045 0.904539 0
M  V30 4275 H 407.476 -4.2021 0.316493 0
M  V30 4276 H 406.2 -3.23321 -0.461646 0
M  V30 4277 H 404.859 -3.2632 1.67065 0
M  V30 4278 H 404.507 -5.02959 -0.064503 0
M  V30 4279 H 404.207 -5.66127 1.57397 0
M  V30 4280 H 405.731 -6.06196 0.73203 0
M  V30 4281 H 407.145 -5.02795 2.75446 0
M  V30 4282 H 405.542 -4.85541 3.52661 0
M  V30 4283 H 406.612 -3.44662 3.41081 0
M  V30 4284 N 407.956 -0.998596 -1.21925 0
M  V30 4285 C 409.202 -0.678667 -1.91107 0
M  V30 4286 C 409.535 0.78791 -1.77498 0
M  V30 4287 O 408.81 1.57043 -1.1475 0
M  V30 4288 C 409.093 -1.09245 -3.43129 0
M  V30 4289 C 408.946 -2.61801 -3.6576 0
M  V30 4290 C 410.265 -0.649984 -4.35274 0
M  V30 4291 H 407.384 -0.248025 -0.694012 0
M  V30 4292 H 410.026 -1.24314 -1.43688 0
M  V30 4293 H 408.176 -0.612171 -3.83647 0
M  V30 4294 H 409.848 -3.17543 -3.34611 0
M  V30 4295 H 408.091 -3.03609 -3.09845 0
M  V30 4296 H 408.762 -2.85804 -4.7225 0
M  V30 4297 H 411.238 -1.0626 -4.02303 0
M  V30 4298 H 410.114 -0.967743 -5.40302 0
M  V30 4299 H 410.375 0.449139 -4.39813 0
M  V30 4300 N 409.434 1.37368 -0.772513 0
M  V30 4301 C 410.382 2.32134 -0.147111 0
M  V30 4302 C 411.376 1.54972 0.684106 0
M  V30 4303 O 412.582 1.70363 0.581083 0
M  V30 4304 H 408.957 0.751449 -0.028786 0
M  V30 4305 H 410.928 2.82464 -0.962112 0
M  V30 4306 C 409.677 3.40226 0.71703 0
M  V30 4307 H 409 3.99706 0.0867951 0
M  V30 4308 H 410.44 4.08897 1.12159 0
M  V30 4309 C 408.899 2.80372 1.86797 0
M  V30 4310 O 409.429 2.71183 2.96349 0
M  V30 4311 N 407.635 2.37904 1.66883 0
M  V30 4312 H 407.182 2.45578 0.777759 0
M  V30 4313 H 407.14 1.98202 2.44056 0
M  V30 4314 N 410.912 0.523116 1.48665 0
M  V30 4315 C 411.842 -0.23231 2.32342 0
M  V30 4316 C 412.823 -0.941637 1.41659 0
M  V30 4317 O 414.008 -0.928751 1.70552 0
M  V30 4318 C 411.138 -1.28387 3.22698 0
M  V30 4319 C 410.092 -0.693098 4.22351 0
M  V30 4320 C 409.418 -1.8468 5.01794 0
M  V30 4321 C 410.718 0.33063 5.21252 0
M  V30 4322 H 412.412 0.466192 2.95748 0
M  V30 4323 H 409.958 0.225643 1.42221 0
M  V30 4324 H 411.911 -1.82024 3.80059 0
M  V30 4325 H 410.635 -2.01186 2.57278 0
M  V30 4326 H 409.294 -0.178299 3.66166 0
M  V30 4327 H 408.942 -2.56301 4.32804 0
M  V30 4328 H 408.642 -1.45747 5.69238 0
M  V30 4329 H 410.166 -2.38709 5.62006 0
M  V30 4330 H 411.58 -0.118407 5.73178 0
M  V30 4331 H 409.977 0.636974 5.9671 0
M  V30 4332 H 411.047 1.23883 4.68808 0
M  V30 4333 N 412.39 -1.55475 0.257931 0
M  V30 4334 C 413.34 -2.18506 -0.651094 0
M  V30 4335 C 414.324 -1.14431 -1.13112 0
M  V30 4336 O 415.516 -1.40305 -1.07905 0
M  V30 4337 C 412.645 -2.89653 -1.84272 0
M  V30 4338 C 411.731 -4.00996 -1.38068 0
M  V30 4339 N 412.122 -5.01816 -0.633609 0
M  V30 4340 C 410.42 -4.13753 -1.66506 0
M  V30 4341 C 411.121 -5.80371 -0.392922 0
M  V30 4342 N 410.097 -5.3505 -0.960359 0
M  V30 4343 H 413.899 -2.93811 -0.0722883 0
M  V30 4344 H 411.413 -1.62286 0.0607256 0
M  V30 4345 H 413.41 -3.33245 -2.50506 0
M  V30 4346 H 412.07 -2.15854 -2.42564 0
M  V30 4347 H 413.081 -5.17128 -0.282626 0
M  V30 4348 H 409.758 -3.51133 -2.25858 0
M  V30 4349 H 411.148 -6.7159 0.204235 0
M  V30 4350 N 413.868 0.0150385 -1.57593 0
M  V30 4351 C 415.145 0.7392 -1.81094 0
M  V30 4352 C 415.525 1.92817 -0.859344 0
M  V30 4353 O 414.873 2.28301 0.095362 0
M  V30 4354 C 415.083 1.15907 -3.29191 0
M  V30 4355 C 416.431 1.56918 -3.9454 0
M  V30 4356 O 417.455 1.25328 -3.33424 0
M  V30 4357 O 416.314 2.15604 -5.02173 0
M  V30 4358 H 413.408 0.358631 -0.745193 0
M  V30 4359 H 415.954 -0.00926156 -1.69697 0
M  V30 4360 H 414.726 0.310921 -3.90063 0
M  V30 4361 H 414.349 1.96711 -3.45529 0
M  V30 4362 N 415.346 1.54954 0.287554 0
M  V30 4363 C 416.593 1.74873 1.02106 0
M  V30 4364 C 416.921 0.541829 1.86801 0
M  V30 4365 O 416.176 -0.475992 1.89823 0
M  V30 4366 C 416.475 2.99833 1.94512 0
M  V30 4367 C 416.141 4.33029 1.25686 0
M  V30 4368 C 414.803 4.69233 1.06649 0
M  V30 4369 C 417.155 5.15542 0.765913 0
M  V30 4370 C 414.483 5.85518 0.372222 0
M  V30 4371 C 416.835 6.32542 0.0853101 0
M  V30 4372 C 415.499 6.67398 -0.1169 0
M  V30 4373 H 414.769 0.639906 0.373632 0
M  V30 4374 H 417.416 1.89219 0.294665 0
M  V30 4375 H 415.721 2.80325 2.73725 0
M  V30 4376 H 417.418 3.1244 2.51361 0
M  V30 4377 H 414.008 4.04564 1.41512 0
M  V30 4378 H 418.192 4.88059 0.90066 0
M  V30 4379 H 413.448 6.11057 0.204695 0
M  V30 4380 H 417.622 6.95741 -0.302936 0
M  V30 4381 H 415.249 7.57357 -0.656859 0
M  V30 4382 N 416.824 -0.551391 1.4764 0
M  V30 4383 C 418.24 -0.877887 1.33287 0
M  V30 4384 C 418.44 -1.98817 0.327721 0
M  V30 4385 O 417.496 -2.51171 -0.258695 0
M  V30 4386 C 418.809 -1.26563 2.72768 0
M  V30 4387 C 420.357 -1.37673 2.81097 0
M  V30 4388 C 420.832 -1.79799 4.21232 0
M  V30 4389 N 422.323 -1.8694 4.23802 0
M  V30 4390 C 423.058 -2.20876 5.29151 0
M  V30 4391 N 422.554 -2.53386 6.448 0
M  V30 4392 N 424.347 -2.217 5.16532 0
M  V30 4393 H 416.498 0.18153 2.11623 0
M  V30 4394 H 418.761 0.0185514 0.947818 0
M  V30 4395 H 418.467 -0.523591 3.47781 0
M  V30 4396 H 418.341 -2.22052 3.04915 0
M  V30 4397 H 420.728 -2.10956 2.06353 0
M  V30 4398 H 420.809 -0.40357 2.52596 0
M  V30 4399 H 420.453 -1.07083 4.96483 0
M  V30 4400 H 420.383 -2.78128 4.4716 0
M  V30 4401 H 422.874 -1.64179 3.40373 0
M  V30 4402 H 423.187 -2.78325 7.20941 0
M  V30 4403 H 421.532 -2.50953 6.48111 0
M  V30 4404 H 424.723 -1.95745 4.25207 0
M  V30 4405 H 424.896 -2.47818 5.98741 0
M  V30 4406 N 418.302 -1.35869 -0.798587 0
M  V30 4407 C 419.527 -1.32883 -1.59238 0
M  V30 4408 C 419.952 0.0894587 -1.87887 0
M  V30 4409 O 419.31 1.05869 -1.47178 0
M  V30 4410 C 419.358 -2.14892 -2.89575 0
M  V30 4411 O 418.462 -1.53512 -3.82763 0
M  V30 4412 H 417.803 -0.455236 -0.48338 0
M  V30 4413 H 420.333 -1.79024 -0.990539 0
M  V30 4414 H 420.343 -2.27139 -3.38928 0
M  V30 4415 H 419.018 -3.17998 -2.68049 0
M  V30 4416 H 417.595 -1.50153 -3.41334 0
M  V30 4417 N 419.78 1.02168 -1.19998 0
M  V30 4418 C 421.057 1.72816 -0.916191 0
M  V30 4419 C 421.437 2.03081 0.576325 0
M  V30 4420 O 420.785 1.69122 1.53656 0
M  V30 4421 C 420.995 2.9997 -1.78378 0
M  V30 4422 C 422.343 3.73336 -2.02251 0
M  V30 4423 O 423.367 3.09914 -1.75589 0
M  V30 4424 O 422.226 4.87371 -2.47249 0
M  V30 4425 H 419.32 0.752924 -0.342103 0
M  V30 4426 H 421.866 1.08062 -1.30846 0
M  V30 4427 H 420.638 2.73888 -2.79466 0
M  V30 4428 H 420.261 3.72464 -1.39126 0
M  V30 4429 N 421.258 1.00505 1.21394 0
M  V30 4430 C 422.168 0.574806 2.27449 0
M  V30 4431 C 423.184 -0.382206 1.6975 0
M  V30 4432 O 424.36 -0.246027 1.99892 0
M  V30 4433 C 421.425 -0.0917414 3.46579 0
M  V30 4434 C 420.486 0.909758 4.1955 0
M  V30 4435 C 419.719 0.274924 5.32991 0
M  V30 4436 O 419.942 -0.928254 5.62796 0
M  V30 4437 O 418.876 0.985877 5.93771 0
M  V30 4438 H 422.702 1.45744 2.66444 0
M  V30 4439 H 420.287 0.773923 1.27792 0
M  V30 4440 H 422.169 -0.464551 4.18832 0
M  V30 4441 H 420.844 -0.948755 3.09484 0
M  V30 4442 H 419.751 1.33372 3.49518 0
M  V30 4443 H 421.084 1.73636 4.60555 0
M  V30 4444 N 422.737 -1.36956 0.779787 0
M  V30 4445 C 423.986 -1.98738 0.344405 0
M  V30 4446 C 424.299 -1.62596 -1.08728 0
M  V30 4447 O 425.505 -2.1754 -1.62445 0
M  V30 4448 C 423.961 -3.5544 0.564829 0
M  V30 4449 C 423.569 -4.00514 2.0073 0
M  V30 4450 C 425.313 -4.24059 0.193471 0
M  V30 4451 C 423.22 -5.49957 2.17489 0
M  V30 4452 H 422.15 -0.743561 0.12503 0
M  V30 4453 H 424.801 -1.56381 0.960057 0
M  V30 4454 H 423.183 -3.95817 -0.120397 0
M  V30 4455 H 424.357 -3.71362 2.72814 0
M  V30 4456 H 422.672 -3.44703 2.336 0
M  V30 4457 H 425.269 -5.33874 0.297097 0
M  V30 4458 H 425.612 -4.07378 -0.857263 0
M  V30 4459 H 426.145 -3.89012 0.831556 0
M  V30 4460 H 422.884 -5.71574 3.2091 0
M  V30 4461 H 422.404 -5.80767 1.49899 0
M  V30 4462 H 424.083 -6.16043 1.97738 0
M  V30 4463 N 424.215 -0.530993 -1.48385 0
M  V30 4464 C 425.125 0.23503 -2.3342 0
M  V30 4465 C 426.141 0.93801 -1.46552 0
M  V30 4466 O 427.317 0.912745 -1.7953 0
M  V30 4467 C 424.382 1.26778 -3.22689 0
M  V30 4468 C 423.443 0.575038 -4.25431 0
M  V30 4469 C 422.676 1.55858 -5.10435 0
M  V30 4470 O 422.899 2.79129 -4.97437 0
M  V30 4471 O 421.833 1.09742 -5.91811 0
M  V30 4472 H 425.659 -0.461794 -3.00169 0
M  V30 4473 H 423.244 -0.291903 -1.46521 0
M  V30 4474 H 425.126 1.86457 -3.77904 0
M  V30 4475 H 423.801 1.94699 -2.586 0
M  V30 4476 H 422.708 -0.0622782 -3.74048 0
M  V30 4477 H 424.041 -0.062253 -4.92161 0
M  V30 4478 N 425.693 1.55336 -0.266172 0
M  V30 4479 C 426.643 2.18848 0.639497 0
M  V30 4480 C 427.627 1.1503 1.12503 0
M  V30 4481 O 428.819 1.40875 1.0716 0
M  V30 4482 C 425.948 2.90626 1.82733 0
M  V30 4483 C 425.034 4.01723 1.35939 0
M  V30 4484 N 425.425 5.02145 0.606988 0
M  V30 4485 C 423.723 4.1463 1.6431 0
M  V30 4486 C 424.424 5.80572 0.362138 0
M  V30 4487 N 423.4 5.35551 0.931971 0
M  V30 4488 H 427.202 2.93845 0.0567057 0
M  V30 4489 H 424.716 1.62252 -0.0693312 0
M  V30 4490 H 426.713 3.34569 2.48735 0
M  V30 4491 H 425.373 2.17137 2.41416 0
M  V30 4492 H 426.384 5.17271 0.255198 0
M  V30 4493 H 423.061 3.52326 2.23993 0
M  V30 4494 H 424.451 6.71472 -0.239848 0
M  V30 4495 N 427.171 -0.0066808 1.57599 0
M  V30 4496 C 428.101 -0.999296 2.11036 0
M  V30 4497 C 429.082 -1.36278 1.01795 0
M  V30 4498 O 430.267 -1.4477 1.29442 0
M  V30 4499 C 427.397 -2.29328 2.60818 0
M  V30 4500 C 426.351 -2.07159 3.74525 0
M  V30 4501 C 425.677 -3.42512 4.10596 0
M  V30 4502 C 426.977 -1.43959 5.02069 0
M  V30 4503 H 428.671 -0.554382 2.94223 0
M  V30 4504 H 426.217 -0.265221 1.41536 0
M  V30 4505 H 428.17 -2.99117 2.96828 0
M  V30 4506 H 426.894 -2.7592 1.74745 0
M  V30 4507 H 425.553 -1.39797 3.38899 0
M  V30 4508 H 425.201 -3.86795 3.21556 0
M  V30 4509 H 424.901 -3.28498 4.87199 0
M  V30 4510 H 426.425 -4.13628 4.4916 0
M  V30 4511 H 427.839 -2.03696 5.35893 0
M  V30 4512 H 426.236 -1.40452 5.83432 0
M  V30 4513 H 427.306 -0.407992 4.83181 0
M  V30 4514 N 428.649 -1.55105 -0.279332 0
M  V30 4515 C 429.895 -1.75672 -1.01327 0
M  V30 4516 C 430.228 -0.552739 -1.86168 0
M  V30 4517 O 429.503 0.449827 -1.89227 0
M  V30 4518 C 429.786 -3.05825 -1.90114 0
M  V30 4519 C 429.639 -4.36565 -1.08309 0
M  V30 4520 C 430.958 -3.31975 -2.8893 0
M  V30 4521 H 428.077 -0.639149 -0.366957 0
M  V30 4522 H 430.719 -1.87833 -0.286154 0
M  V30 4523 H 428.869 -2.95588 -2.52111 0
M  V30 4524 H 430.541 -4.58751 -0.484314 0
M  V30 4525 H 428.784 -4.32076 -0.386362 0
M  V30 4526 H 429.455 -5.23946 -1.73737 0
M  V30 4527 H 431.931 -3.41963 -2.37067 0
M  V30 4528 H 430.807 -4.2432 -3.48201 0
M  V30 4529 H 431.068 -2.51309 -3.63725 0
M  V30 4530 N 430.127 0.543554 -1.4793 0
M  V30 4531 C 431.373 1.30201 -1.55485 0
M  V30 4532 C 431.706 1.92925 -0.222201 0
M  V30 4533 O 430.981 1.78586 0.77053 0
M  V30 4534 C 431.264 2.40174 -2.68307 0
M  V30 4535 C 431.117 1.8223 -4.11233 0
M  V30 4536 C 432.436 3.42024 -2.76961 0
M  V30 4537 H 429.555 0.472036 -0.565996 0
M  V30 4538 H 432.197 0.606914 -1.80046 0
M  V30 4539 H 430.347 2.99463 -2.47495 0
M  V30 4540 H 432.019 1.27096 -4.43446 0
M  V30 4541 H 430.262 1.12832 -4.18869 0
M  V30 4542 H 430.933 2.61793 -4.85972 0
M  V30 4543 H 433.409 2.92672 -2.95774 0
M  V30 4544 H 432.285 4.16383 -3.57654 0
M  V30 4545 H 432.546 4.0173 -1.84568 0
M  V30 4546 N 431.605 1.3629 0.791371 0
M  V30 4547 C 432.515 1.32606 1.93527 0
M  V30 4548 C 433.531 0.228541 1.72493 0
M  V30 4549 O 434.707 0.460571 1.96063 0
M  V30 4550 C 431.772 1.11271 3.28359 0
M  V30 4551 C 430.833 2.3048 3.62185 0
M  V30 4552 C 430.066 2.10154 4.90583 0
M  V30 4553 O 430.289 1.07572 5.60165 0
M  V30 4554 O 429.223 2.97884 5.23019 0
M  V30 4555 H 433.049 2.28909 1.99585 0
M  V30 4556 H 430.634 1.16818 0.931344 0
M  V30 4557 H 432.516 1.01283 4.09047 0
M  V30 4558 H 431.191 0.180292 3.23198 0
M  V30 4559 H 430.098 2.46036 2.81811 0
M  V30 4560 H 431.431 3.22221 3.72068 0
M  V30 4561 N 433.083 -1.0153 1.20538 0
M  V30 4562 C 433.993 -2.13557 0.971113 0
M  V30 4563 C 435.009 -1.73845 -0.0734366 0
M  V30 4564 O 436.185 -2.01075 0.114299 0
M  V30 4565 C 433.25 -3.42661 0.527639 0
M  V30 4566 C 432.311 -3.96608 1.64319 0
M  V30 4567 C 431.544 -5.1955 1.22078 0
M  V30 4568 O 431.767 -5.70329 0.0900198 0
M  V30 4569 O 430.701 -5.66681 2.02871 0
M  V30 4570 H 434.527 -2.3619 1.90913 0
M  V30 4571 H 432.112 -1.11946 0.989362 0
M  V30 4572 H 433.994 -4.20404 0.289621 0
M  V30 4573 H 432.669 -3.21441 -0.381779 0
M  V30 4574 H 431.576 -3.20139 1.93551 0
M  V30 4575 H 432.909 -4.22219 2.52966 0
M  V30 4576 N 434.561 -1.01147 -1.20859 0
M  V30 4577 C 435.491 -0.597663 -2.25722 0
M  V30 4578 C 436.472 0.384744 -1.65692 0
M  V30 4579 O 437.657 0.271303 -1.92296 0
M  V30 4580 C 434.787 0.0700149 -3.47229 0
M  V30 4581 C 433.741 -0.832843 -4.19819 0
M  V30 4582 C 433.067 -0.0312202 -5.34691 0
M  V30 4583 C 434.367 -2.1385 -4.76514 0
M  V30 4584 H 436.061 -1.47423 -2.60589 0
M  V30 4585 H 433.607 -0.710301 -1.25263 0
M  V30 4586 H 435.56 0.37103 -4.19763 0
M  V30 4587 H 434.284 0.981259 -3.11511 0
M  V30 4588 H 432.943 -1.11778 -3.49144 0
M  V30 4589 H 432.591 0.881515 -4.95215 0
M  V30 4590 H 432.291 -0.632434 -5.84187 0
M  V30 4591 H 433.815 0.26346 -6.10031 0
M  V30 4592 H 435.229 -1.9002 -5.40893 0
M  V30 4593 H 433.626 -2.69012 -5.36426 0
M  V30 4594 H 434.696 -2.80495 -3.95538 0
M  V30 4595 N 436.039 1.36541 -0.78704 0
M  V30 4596 C 437.285 1.99599 -0.358872 0
M  V30 4597 C 437.618 1.62323 1.06606 0
M  V30 4598 O 436.893 0.876858 1.73613 0
M  V30 4599 C 437.176 3.56327 -0.519944 0
M  V30 4600 C 437.029 4.03464 -1.98839 0
M  V30 4601 C 438.348 4.4005 0.0664737 0
M  V30 4602 H 435.467 0.725107 -0.131869 0
M  V30 4603 H 438.109 1.6199 -0.992936 0
M  V30 4604 H 436.259 3.88495 0.0198321 0
M  V30 4605 H 437.931 3.81793 -2.58905 0
M  V30 4606 H 436.174 3.55092 -2.49183 0
M  V30 4607 H 436.845 5.12439 -2.05207 0
M  V30 4608 H 439.321 4.14228 -0.394267 0
M  V30 4609 H 438.197 5.48847 -0.0762682 0
M  V30 4610 H 438.458 4.26655 1.15835 0
M  V30 4611 N 437.518 0.538854 1.48102 0
M  V30 4612 C 438.465 -0.219042 2.29758 0
M  V30 4613 C 439.435 -0.925562 1.37922 0
M  V30 4614 O 440.62 -0.924855 1.66886 0
M  V30 4615 C 437.76 -1.25452 3.2149 0
M  V30 4616 C 436.873 -0.555943 4.28408 0
M  V30 4617 C 436.008 -1.57512 5.0731 0
M  V30 4618 C 435.047 -0.860498 6.06021 0
M  V30 4619 N 434.184 -1.82564 6.77949 0
M  V30 4620 H 439.024 0.483449 2.94052 0
M  V30 4621 H 436.561 0.250247 1.44956 0
M  V30 4622 H 438.519 -1.86727 3.7308 0
M  V30 4623 H 437.149 -1.92528 2.591 0
M  V30 4624 H 436.201 0.170938 3.80016 0
M  V30 4625 H 437.513 0.00474616 4.988 0
M  V30 4626 H 436.667 -2.26191 5.62959 0
M  V30 4627 H 435.406 -2.16972 4.36778 0
M  V30 4628 H 434.411 -0.159686 5.49568 0
M  V30 4629 H 435.636 -0.271897 6.78555 0
M  V30 4630 H 433.582 -2.40915 6.10161 0
M  V30 4631 H 433.499 -1.31662 7.44447 0
M  V30 4632 H 434.767 -2.50414 7.38182 0
M  V30 4633 N 438.996 -1.55193 0.274407 0
M  V30 4634 C 439.943 -2.225 -0.613374 0
M  V30 4635 C 440.913 -1.19823 -1.15029 0
M  V30 4636 O 442.098 -1.48362 -1.19973 0
M  V30 4637 C 439.238 -2.94927 -1.79199 0
M  V30 4638 C 438.351 -4.12322 -1.28899 0
M  V30 4639 C 437.486 -4.72394 -2.42934 0
M  V30 4640 C 436.525 -5.81984 -1.89634 0
M  V30 4641 N 435.662 -6.36123 -2.9714 0
M  V30 4642 H 440.502 -2.97982 -0.032756 0
M  V30 4643 H 438.039 -1.47099 -0.00440146 0
M  V30 4644 H 439.997 -3.35134 -2.48478 0
M  V30 4645 H 438.627 -2.2187 -2.34465 0
M  V30 4646 H 437.679 -3.7724 -0.489327 0
M  V30 4647 H 438.991 -4.91355 -0.858587 0
M  V30 4648 H 438.145 -5.15317 -3.20208 0
M  V30 4649 H 436.884 -3.92636 -2.8929 0
M  V30 4650 H 435.889 -5.38511 -1.1084 0
M  V30 4651 H 437.114 -6.6361 -1.44215 0
M  V30 4652 H 435.06 -5.59259 -3.42878 0
M  V30 4653 H 434.977 -7.10427 -2.58515 0
M  V30 4654 H 436.245 -6.83704 -3.74391 0
M  V30 4655 N 440.474 -0.00167713 -1.576 0
M  V30 4656 C 441.89 0.354422 -1.55615 0
M  V30 4657 C 442.09 1.74679 -1.00447 0
M  V30 4658 O 441.146 2.4428 -0.639022 0
M  V30 4659 C 442.459 0.22812 -2.99833 0
M  V30 4660 C 444.007 0.302934 -3.11531 0
M  V30 4661 C 444.482 0.205737 -4.57538 0
M  V30 4662 N 445.973 0.263584 -4.62449 0
M  V30 4663 C 446.708 0.211742 -5.73009 0
M  V30 4664 N 446.204 0.110399 -6.92712 0
M  V30 4665 N 447.997 0.263729 -5.61481 0
M  V30 4666 H 440.148 -0.912498 -1.918 0
M  V30 4667 H 442.411 -0.349928 -0.881053 0
M  V30 4668 H 442.117 -0.729934 -3.44042 0
M  V30 4669 H 441.991 1.00951 -3.6344 0
M  V30 4670 H 444.378 1.25143 -2.67251 0
M  V30 4671 H 444.459 -0.508357 -2.50698 0
M  V30 4672 H 444.103 -0.739225 -5.02492 0
M  V30 4673 H 444.033 1.03554 -5.16318 0
M  V30 4674 H 446.524 0.343173 -3.76339 0
M  V30 4675 H 446.837 0.0767828 -7.72762 0
M  V30 4676 H 445.182 0.0760025 -6.94958 0
M  V30 4677 H 448.373 0.34111 -4.66855 0
M  V30 4678 H 448.546 0.219862 -6.47627 0
M  V30 4679 N 441.952 1.55251 0.271103 0
M  V30 4680 C 442.862 1.9136 1.35714 0
M  V30 4681 C 443.878 0.811075 1.5394 0
M  V30 4682 O 445.054 1.11031 1.6803 0
M  V30 4683 C 442.119 2.1798 2.69603 0
M  V30 4684 C 441.18 3.4153 2.60107 0
M  V30 4685 C 440.413 3.66871 3.8761 0
M  V30 4686 O 440.636 2.94689 4.8838 0
M  V30 4687 O 439.57 4.60405 3.87699 0
M  V30 4688 H 443.396 2.83815 1.08088 0
M  V30 4689 H 440.981 1.41821 0.469792 0
M  V30 4690 H 442.863 2.36518 3.48765 0
M  V30 4691 H 441.538 1.28708 2.97012 0
M  V30 4692 H 440.445 3.28325 1.79314 0
M  V30 4693 H 441.778 4.31027 2.37647 0
M  V30 4694 N 443.43 -0.535701 1.48216 0
M  V30 4695 C 444.34 -1.66785 1.64985 0
M  V30 4696 C 445.356 -1.65654 0.532414 0
M  V30 4697 O 446.532 -1.8471 0.80275 0
M  V30 4698 C 443.597 -3.0326 1.68031 0
M  V30 4699 C 442.658 -3.1529 2.9136 0
M  V30 4700 C 441.891 -4.45255 2.94252 0
M  V30 4701 O 442.114 -5.32011 2.05719 0
M  V30 4702 O 441.048 -4.6153 3.86359 0
M  V30 4703 H 444.874 -1.55576 2.60825 0
M  V30 4704 H 442.459 -0.70815 1.31551 0
M  V30 4705 H 444.341 -3.84436 1.72589 0
M  V30 4706 H 443.016 -3.14805 0.753628 0
M  V30 4707 H 441.923 -2.3343 2.92337 0
M  V30 4708 H 443.256 -3.08658 3.83394 0
M  V30 4709 N 444.908 -1.36708 -0.784132 0
M  V30 4710 C 446.148 -1.32618 -1.55537 0
M  V30 4711 C 446.512 0.0920681 -1.91779 0
M  V30 4712 O 447.713 0.257573 -2.67563 0
M  V30 4713 C 445.984 -2.22788 -2.79464 0
M  V30 4714 S 447.543 -2.36432 -3.69656 0
M  V30 4715 H 444.361 -0.470973 -0.53264 0
M  V30 4716 H 446.963 -1.72333 -0.92312 0
M  V30 4717 H 445.667 -3.24774 -2.50899 0
M  V30 4718 H 445.198 -1.84112 -3.47658 0
M  V30 4719 H 447.213 -1.56573 -4.7085 0
M  V30 4720 N 446.386 1.0089 -1.21074 0
M  V30 4721 C 447.316 2.1145 -0.990523 0
M  V30 4722 C 448.297 1.69897 0.0831699 0
M  V30 4723 O 449.482 1.94052 -0.0758853 0
M  V30 4724 C 446.612 3.42914 -0.550177 0
M  V30 4725 C 445.566 3.98244 -1.56799 0
M  V30 4726 C 444.892 5.25568 -0.984013 0
M  V30 4727 C 446.192 4.30752 -2.95381 0
M  V30 4728 H 447.886 2.3013 -1.91521 0
M  V30 4729 H 445.432 1.10592 -0.92225 0
M  V30 4730 H 447.385 4.19653 -0.383305 0
M  V30 4731 H 446.109 3.24014 0.41015 0
M  V30 4732 H 444.768 3.23621 -1.72236 0
M  V30 4733 H 444.416 5.02998 -0.0155216 0
M  V30 4734 H 444.116 5.63551 -1.66384 0
M  V30 4735 H 445.64 6.04955 -0.828378 0
M  V30 4736 H 447.054 4.98349 -2.8341 0
M  V30 4737 H 445.451 4.79869 -3.60341 0
M  V30 4738 H 446.521 3.39192 -3.46521 0
M  V30 4739 N 447.864 1.01787 1.20321 0
M  V30 4740 C 449.141 0.622978 1.85414 0
M  V30 4741 C 449.521 -0.898887 1.91006 0
M  V30 4742 O 448.869 -1.79112 1.41884 0
M  V30 4743 C 449.079 1.27226 3.24984 0
M  V30 4744 C 450.427 1.3885 4.01255 0
M  V30 4745 O 451.451 1.22857 3.34342 0
M  V30 4746 O 450.31 1.64705 5.2109 0
M  V30 4747 H 447.404 0.215116 0.798533 0
M  V30 4748 H 449.95 1.11533 1.27901 0
M  V30 4749 H 448.722 2.31209 3.15687 0
M  V30 4750 H 448.345 0.767069 3.90131 0
M  V30 4751 N 449.342 -1.36122 0.79427 0
M  V30 4752 C 450.305 -2.28309 0.201889 0
M  V30 4753 C 451.305 -1.49041 -0.603603 0
M  V30 4754 O 452.495 -1.68964 -0.423888 0
M  V30 4755 C 449.627 -3.3321 -0.719978 0
M  V30 4756 H 450.82 -2.82208 1.01481 0
M  V30 4757 H 448.373 -1.45768 0.564037 0
M  V30 4758 H 449.108 -2.84475 -1.55706 0
M  V30 4759 H 448.893 -3.91835 -0.144266 0
M  V30 4760 H 450.383 -4.02044 -1.12916 0
M  V30 4761 N 450.82 -0.546701 -1.47814 0
M  V30 4762 C 451.75 0.195317 -2.32682 0
M  V30 4763 C 452.731 0.918981 -1.43139 0
M  V30 4764 O 453.916 0.901501 -1.72008 0
M  V30 4765 C 451.046 1.23237 -3.247 0
M  V30 4766 C 450 0.625818 -4.234 0
M  V30 4767 C 449.326 1.76674 -5.04669 0
M  V30 4768 C 450.626 -0.413515 -5.2066 0
M  V30 4769 H 452.32 -0.513184 -2.94969 0
M  V30 4770 H 449.866 -0.248241 -1.41844 0
M  V30 4771 H 451.819 1.75955 -3.82907 0
M  V30 4772 H 450.543 1.97067 -2.60446 0
M  V30 4773 H 449.202 0.120023 -3.66403 0
M  V30 4774 H 448.85 2.49383 -4.36826 0
M  V30 4775 H 448.55 1.36673 -5.71484 0
M  V30 4776 H 450.074 2.29738 -5.65732 0
M  V30 4777 H 451.488 0.0272042 -5.73294 0
M  V30 4778 H 449.885 -0.731825 -5.95621 0
M  V30 4779 H 450.955 -1.31325 -4.66778 0
M  V30 4780 N 452.299 1.55045 -0.282633 0
M  V30 4781 C 453.209 2.26491 0.61147 0
M  V30 4782 C 454.225 1.29348 1.16384 0
M  V30 4783 O 455.401 1.62298 1.19253 0
M  V30 4784 C 452.466 2.97779 1.77563 0
M  V30 4785 C 451.527 4.10418 1.25919 0
M  V30 4786 C 450.76 4.78297 2.36786 0
M  V30 4787 O 450.983 4.45426 3.56303 0
M  V30 4788 O 449.917 5.66089 2.04517 0
M  V30 4789 H 453.743 3.03683 0.0324615 0
M  V30 4790 H 451.328 1.49317 -0.0497576 0
M  V30 4791 H 453.21 3.42554 2.45427 0
M  V30 4792 H 451.885 2.23498 2.34159 0
M  V30 4793 H 450.792 3.70082 0.546797 0
M  V30 4794 H 452.125 4.86622 0.738887 0
M  V30 4795 N 453.777 0.010035 1.57597 0
M  V30 4796 C 455.002 -0.687021 1.95691 0
M  V30 4797 C 455.427 -1.65952 0.885519 0
M  V30 4798 O 454.785 -1.80633 -0.15543 0
M  V30 4799 C 454.833 -1.3864 3.32884 0
M  V30 4800 O 453.937 -2.50115 3.27897 0
M  V30 4801 H 453.278 -0.181989 0.638573 0
M  V30 4802 H 455.808 0.0662122 2.04493 0
M  V30 4803 H 455.818 -1.74754 3.6868 0
M  V30 4804 H 454.493 -0.673411 4.10412 0
M  V30 4805 H 453.07 -2.16253 3.03791 0
M  V30 4806 N 455.255 -1.55392 -0.262866 0
M  V30 4807 C 456.504 -1.75679 -0.990943 0
M  V30 4808 C 456.817 -0.57097 -1.87081 0
M  V30 4809 O 458.023 -0.656486 -2.63444 0
M  V30 4810 C 456.479 -3.10964 -1.81188 0
M  V30 4811 C 456.087 -4.37146 -0.980188 0
M  V30 4812 C 457.831 -3.40597 -2.53365 0
M  V30 4813 C 455.738 -5.63466 -1.7961 0
M  V30 4814 H 454.668 -0.654868 -0.373716 0
M  V30 4815 H 457.319 -1.81841 -0.246203 0
M  V30 4816 H 455.701 -2.98867 -2.59797 0
M  V30 4817 H 456.875 -4.60187 -0.237558 0
M  V30 4818 H 455.19 -4.14731 -0.372497 0
M  V30 4819 H 457.787 -4.32186 -3.14833 0
M  V30 4820 H 458.13 -2.6119 -3.24169 0
M  V30 4821 H 458.663 -3.53838 -1.81779 0
M  V30 4822 H 455.402 -6.4565 -1.13209 0
M  V30 4823 H 454.922 -5.44552 -2.51443 0
M  V30 4824 H 456.601 -6.02139 -2.36723 0
M  V30 4825 N 456.733 0.527833 -1.48498 0
M  V30 4826 C 457.666 1.64892 -1.57753 0
M  V30 4827 C 458.644 1.5687 -0.427867 0
M  V30 4828 O 459.828 1.77311 -0.639764 0
M  V30 4829 C 456.955 3.03301 -1.50752 0
M  V30 4830 C 456.001 3.29675 -2.70586 0
M  V30 4831 S 456.834 3.15712 -4.32535 0
M  V30 4832 C 457.99 4.56564 -4.28136 0
M  V30 4833 H 458.223 1.56792 -2.52594 0
M  V30 4834 H 455.756 0.710959 -1.37057 0
M  V30 4835 H 457.714 3.83123 -1.474 0
M  V30 4836 H 456.375 3.08839 -0.572454 0
M  V30 4837 H 455.568 4.3065 -2.61833 0
M  V30 4838 H 455.17 2.57526 -2.71212 0
M  V30 4839 H 457.462 5.48126 -3.98201 0
M  V30 4840 H 458.405 4.70371 -5.29298 0
M  V30 4841 H 458.813 4.35987 -3.58574 0
M  V30 4842 N 458.211 1.37122 0.776871 0
M  V30 4843 C 459.439 1.3523 1.5659 0
M  V30 4844 C 459.854 -0.0635518 1.88693 0
M  V30 4845 O 459.211 -1.02394 1.51069 0
M  V30 4846 C 459.262 2.18583 2.8793 0
M  V30 4847 O 458.983 3.5465 2.57206 0
M  V30 4848 C 460.484 2.24612 3.82183 0
M  V30 4849 H 457.704 0.4634 0.485285 0
M  V30 4850 H 460.248 1.80392 0.963266 0
M  V30 4851 H 458.403 1.76943 3.4463 0
M  V30 4852 H 458.817 3.98286 3.41275 0
M  V30 4853 H 460.291 2.87267 4.71361 0
M  V30 4854 H 460.768 1.25309 4.20944 0
M  V30 4855 H 461.374 2.66543 3.31414 0
M  V30 4856 N 459.689 -1.00246 1.21608 0
M  V30 4857 C 460.917 -1.77631 1.06089 0
M  V30 4858 C 461.332 -1.84746 -0.38916 0
M  V30 4859 O 460.689 -1.31068 -1.26994 0
M  V30 4860 C 460.74 -3.21415 1.65453 0
M  V30 4861 O 460.461 -3.14703 3.04785 0
M  V30 4862 C 461.962 -4.15289 1.55079 0
M  V30 4863 H 459.182 -0.558162 0.37242 0
M  V30 4864 H 461.726 -1.26093 1.60999 0
M  V30 4865 H 459.881 -3.70053 1.14629 0
M  V30 4866 H 460.295 -4.05056 3.33212 0
M  V30 4867 H 461.769 -5.13965 2.01355 0
M  V30 4868 H 462.246 -4.36279 0.505665 0
M  V30 4869 H 462.852 -3.72543 2.05163 0
M  V30 4870 N 461.167 -1.02423 -1.1978 0
M  V30 4871 C 462.114 -0.601023 -2.22837 0
M  V30 4872 C 463.084 0.382801 -1.61629 0
M  V30 4873 O 464.269 0.280514 -1.88727 0
M  V30 4874 C 461.409 0.0467755 -3.45068 0
M  V30 4875 C 460.522 -0.98253 -4.20678 0
M  V30 4876 C 459.657 -0.304982 -5.30324 0
M  V30 4877 C 458.696 -1.32052 -5.97686 0
M  V30 4878 N 457.833 -0.669105 -6.98904 0
M  V30 4879 H 462.673 -1.48444 -2.58396 0
M  V30 4880 H 460.21 -0.742936 -1.2696 0
M  V30 4881 H 462.168 0.439556 -4.14878 0
M  V30 4882 H 460.798 0.893796 -3.10179 0
M  V30 4883 H 459.85 -1.49341 -3.49859 0
M  V30 4884 H 461.162 -1.75455 -4.66923 0
M  V30 4885 H 460.316 0.142893 -6.06532 0
M  V30 4886 H 459.055 0.499283 -4.85138 0
M  V30 4887 H 458.06 -1.7787 -5.20233 0
M  V30 4888 H 459.285 -2.1262 -6.44957 0
M  V30 4889 H 457.231 0.115152 -6.55899 0
M  V30 4890 H 457.148 -1.37908 -7.43315 0
M  V30 4891 H 458.416 -0.245076 -7.79115 0
M  V30 4892 N 462.645 1.35699 -0.801477 0
M  V30 4893 C 463.87 2.03687 -0.390678 0
M  V30 4894 C 464.295 1.60015 0.988778 0
M  V30 4895 O 463.653 0.774357 1.63931 0
M  V30 4896 C 463.701 3.57439 -0.476404 0
M  V30 4897 O 462.805 4.09208 0.512106 0
M  V30 4898 H 462.146 0.64344 -0.163956 0
M  V30 4899 H 464.676 1.73403 -1.08594 0
M  V30 4900 H 464.686 4.06544 -0.344357 0
M  V30 4901 H 463.361 3.88576 -1.48262 0
M  V30 4902 H 461.938 3.7134 0.340721 0
M  V30 4903 N 464.123 0.554532 1.47522 0
M  V30 4904 C 465.369 0.0295227 2.02779 0
M  V30 4905 C 465.702 -1.31582 1.42828 0
M  V30 4906 O 464.977 -1.85561 0.582872 0
M  V30 4907 C 465.26 -0.0664057 3.60039 0
M  V30 4908 C 465.113 1.30585 4.30427 0
M  V30 4909 C 466.432 -0.781162 4.33112 0
M  V30 4910 H 463.551 0.0122027 0.736899 0
M  V30 4911 H 466.193 0.716305 1.7598 0
M  V30 4912 H 464.343 -0.651307 3.83002 0
M  V30 4913 H 466.015 1.93374 4.18813 0
M  V30 4914 H 464.258 1.88125 3.90886 0
M  V30 4915 H 464.929 1.19147 5.38988 0
M  V30 4916 H 467.405 -0.284565 4.15126 0
M  V30 4917 H 466.281 -0.817237 5.42782 0
M  V30 4918 H 466.542 -1.83672 4.0214 0
M  V30 4919 N 465.601 -1.54893 0.290851 0
M  V30 4920 C 466.826 -2.04804 -0.32712 0
M  V30 4921 C 467.251 -1.16721 -1.47506 0
M  V30 4922 O 466.609 -0.169107 -1.8051 0
M  V30 4923 C 466.657 -3.52268 -0.770689 0
M  V30 4924 O 465.761 -3.67236 -1.87647 0
M  V30 4925 H 465.102 -0.660789 -0.0652227 0
M  V30 4926 H 467.632 -2.00036 0.429739 0
M  V30 4927 H 467.642 -3.9393 -1.06223 0
M  V30 4928 H 466.317 -4.15843 0.069096 0
M  V30 4929 H 464.894 -3.37479 -1.58626 0
M  V30 4930 N 467.08 -0.0183926 -1.57589 0
M  V30 4931 C 468.327 0.662562 -1.91354 0
M  V30 4932 C 468.655 1.72747 -0.893788 0
M  V30 4933 O 467.91 1.9545 0.0988509 0
M  V30 4934 C 468.209 1.32676 -3.31861 0
M  V30 4935 C 467.875 0.393267 -4.49182 0
M  V30 4936 C 466.537 0.136302 -4.81007 0
M  V30 4937 C 468.889 -0.248366 -5.20608 0
M  V30 4938 C 466.217 -0.770282 -5.81621 0
M  V30 4939 C 468.569 -1.14294 -6.22189 0
M  V30 4940 C 467.233 -1.4089 -6.52462 0
M  V30 4941 H 466.503 0.242448 -0.700214 0
M  V30 4942 H 469.15 -0.0778629 -1.91342 0
M  V30 4943 H 467.455 2.14168 -3.28084 0
M  V30 4944 H 469.152 1.86001 -3.55253 0
M  V30 4945 H 465.742 0.603723 -4.24327 0
M  V30 4946 H 469.926 -0.062883 -4.9626 0
M  V30 4947 H 465.182 -0.984154 -6.03427 0
M  V30 4948 H 469.356 -1.64637 -6.76659 0
M  V30 4949 H 466.983 -2.11306 -7.30242 0
M  V30 4950 N 468.558 1.5553 0.254621 0
M  V30 4951 C 469.974 1.4778 0.602753 0
M  V30 4952 C 470.174 0.707047 1.88688 0
M  V30 4953 O 469.23 0.233288 2.5142 0
M  V30 4954 C 470.543 2.92133 0.712648 0
M  V30 4955 C 472.091 3.02458 0.805488 0
M  V30 4956 C 472.566 4.48102 0.947009 0
M  V30 4957 N 474.057 4.52008 1.01207 0
M  V30 4958 C 474.792 5.61939 1.1407 0
M  V30 4959 N 474.288 6.81697 1.23536 0
M  V30 4960 N 476.081 5.49719 1.17325 0
M  V30 4961 H 468.232 2.04085 -0.588463 0
M  V30 4962 H 470.495 0.926229 -0.202001 0
M  V30 4963 H 470.201 3.51332 -0.160766 0
M  V30 4964 H 470.075 3.42187 1.58707 0
M  V30 4965 H 472.462 2.43344 1.66936 0
M  V30 4966 H 472.543 2.55627 -0.0939266 0
M  V30 4967 H 472.187 5.07824 0.087725 0
M  V30 4968 H 472.117 4.92607 1.86135 0
M  V30 4969 H 474.608 3.65749 0.950577 0
M  V30 4970 H 474.921 7.61228 1.33236 0
M  V30 4971 H 473.266 6.84473 1.20508 0
M  V30 4972 H 476.457 4.55095 1.09573 0
M  V30 4973 H 476.63 6.35432 1.27005 0
M  V30 4974 N 470.036 -0.519951 1.48776 0
M  V30 4975 C 471.452 -0.849418 1.35119 0
M  V30 4976 C 471.652 -1.98077 0.36982 0
M  V30 4977 O 470.708 -2.51664 -0.205359 0
M  V30 4978 C 472.021 -1.20748 2.75391 0
M  V30 4979 C 473.569 -1.31679 2.83954 0
M  V30 4980 C 474.044 -1.70824 4.24951 0
M  V30 4981 N 475.535 -1.77908 4.27672 0
M  V30 4982 C 476.27 -2.09603 5.33717 0
M  V30 4983 N 475.766 -2.39652 6.5003 0
M  V30 4984 N 477.559 -2.10694 5.21119 0
M  V30 4985 H 469.71 0.226377 2.1119 0
M  V30 4986 H 471.973 0.0386519 0.947212 0
M  V30 4987 H 471.679 -0.449703 3.48813 0
M  V30 4988 H 471.553 -2.15534 3.09556 0
M  V30 4989 H 473.94 -2.06532 2.10781 0
M  V30 4990 H 474.021 -0.3499 2.53396 0
M  V30 4991 H 473.665 -0.965282 4.98643 0
M  V30 4992 H 473.595 -2.6858 4.52959 0
M  V30 4993 H 476.086 -1.56923 3.43779 0
M  V30 4994 H 476.399 -2.6297 7.26682 0
M  V30 4995 H 474.744 -2.37149 6.53288 0
M  V30 4996 H 477.935 -1.86682 4.29264 0
M  V30 4997 H 478.108 -2.35062 6.03863 0
M  V30 4998 N 471.514 -1.37532 -0.769588 0
M  V30 4999 C 472.444 -1.36172 -1.89682 0
M  V30 5000 C 473.425 -0.23001 -1.68538 0
M  V30 5001 O 474.61 -0.43069 -1.89364 0
M  V30 5002 C 471.74 -1.1701 -3.26995 0
M  V30 5003 C 470.694 -2.27216 -3.62708 0
M  V30 5004 C 470.02 -1.93174 -4.98586 0
M  V30 5005 C 471.32 -3.6941 -3.69234 0
M  V30 5006 H 473.014 -2.30499 -1.91078 0
M  V30 5007 H 470.56 -1.10953 -0.917902 0
M  V30 5008 H 472.513 -1.14688 -4.05493 0
M  V30 5009 H 471.237 -0.191395 -3.26039 0
M  V30 5010 H 469.896 -2.28697 -2.86519 0
M  V30 5011 H 469.544 -0.938281 -4.94171 0
M  V30 5012 H 469.244 -2.66973 -5.23449 0
M  V30 5013 H 470.768 -1.92443 -5.79481 0
M  V30 5014 H 472.182 -3.70047 -4.37879 0
M  V30 5015 H 470.579 -4.4228 -4.05597 0
M  V30 5016 H 471.649 -4.0288 -2.69844 0
M  V30 5017 N 472.992 0.995999 -1.22138 0
M  V30 5018 C 474.217 1.77601 -1.0711 0
M  V30 5019 C 474.642 1.84339 0.374264 0
M  V30 5020 O 474 1.29359 1.27028 0
M  V30 5021 C 474.048 3.18897 -1.68336 0
M  V30 5022 O 473.152 4.01663 -0.934928 0
M  V30 5023 H 472.493 0.547011 -0.376397 0
M  V30 5024 H 475.023 1.25137 -1.6187 0
M  V30 5025 H 475.033 3.69539 -1.72931 0
M  V30 5026 H 473.708 3.13308 -2.73516 0
M  V30 5027 H 472.285 3.60204 -0.964751 0
M  V30 5028 N 474.47 1.03057 1.19235 0
M  V30 5029 C 475.42 0.583386 2.2041 0
M  V30 5030 C 476.404 -0.368776 1.56617 0
M  V30 5031 O 477.596 -0.189471 1.75983 0
M  V30 5032 C 474.725 -0.0626534 3.43243 0
M  V30 5033 C 473.811 0.91205 4.14177 0
M  V30 5034 N 474.202 2.07514 4.61272 0
M  V30 5035 C 472.5 0.735859 4.39888 0
M  V30 5036 C 473.201 2.69003 5.15764 0
M  V30 5037 N 472.177 1.96954 5.06666 0
M  V30 5038 H 475.979 1.46988 2.54503 0
M  V30 5039 H 473.493 0.897785 1.35328 0
M  V30 5040 H 475.49 -0.400653 4.1497 0
M  V30 5041 H 474.15 -0.944813 3.1065 0
M  V30 5042 H 475.161 2.45448 4.56043 0
M  V30 5043 H 471.838 -0.0970656 4.17387 0
M  V30 5044 H 473.228 3.67514 5.6248 0
M  V30 5045 N 475.948 -1.35272 0.808662 0
M  V30 5046 C 476.878 -2.32315 0.234981 0
M  V30 5047 C 477.859 -1.57572 -0.64071 0
M  V30 5048 O 479.044 -1.8563 -0.570551 0
M  V30 5049 C 476.174 -3.41801 -0.615601 0
M  V30 5050 C 475.128 -4.27694 0.161767 0
M  V30 5051 C 474.454 -5.28519 -0.810649 0
M  V30 5052 C 475.754 -5.04231 1.36193 0
M  V30 5053 H 477.448 -2.80543 1.04575 0
M  V30 5054 H 474.994 -1.3488 0.504315 0
M  V30 5055 H 476.947 -4.08693 -1.02702 0
M  V30 5056 H 475.671 -2.92186 -1.45928 0
M  V30 5057 H 474.33 -3.62384 0.554382 0
M  V30 5058 H 473.978 -4.75171 -1.64988 0
M  V30 5059 H 473.678 -5.8686 -0.294822 0
M  V30 5060 H 475.202 -5.98283 -1.22023 0
M  V30 5061 H 476.616 -5.64058 1.02528 0
M  V30 5062 H 475.013 -5.72077 1.81239 0
M  V30 5063 H 476.083 -4.34753 2.14751 0
M  V30 5064 N 477.426 -0.562348 -1.47226 0
M  V30 5065 C 478.842 -0.222492 -1.58042 0
M  V30 5066 C 479.042 1.27505 -1.56028 0
M  V30 5067 O 478.098 2.05555 -1.46641 0
M  V30 5068 C 479.411 -0.853694 -2.88327 0
M  V30 5069 C 480.959 -0.825397 -3.01921 0
M  V30 5070 C 481.434 -1.43576 -4.34914 0
M  V30 5071 N 482.925 -1.39918 -4.41562 0
M  V30 5072 C 483.66 -1.84103 -5.43041 0
M  V30 5073 N 483.156 -2.36167 -6.51304 0
M  V30 5074 N 484.949 -1.75142 -5.34118 0
M  V30 5075 H 477.1 -1.53525 -1.46778 0
M  V30 5076 H 479.363 -0.640527 -0.698877 0
M  V30 5077 H 479.069 -1.90635 -2.95552 0
M  V30 5078 H 478.943 -0.34977 -3.75575 0
M  V30 5079 H 481.33 0.218583 -2.94289 0
M  V30 5080 H 481.411 -1.36713 -2.16202 0
M  V30 5081 H 481.055 -2.47884 -4.43301 0
M  V30 5082 H 480.985 -0.869427 -5.19373 0
M  V30 5083 H 483.476 -1.0184 -3.63919 0
M  V30 5084 H 483.789 -2.67793 -7.24919 0
M  V30 5085 H 482.134 -2.40181 -6.52179 0
M  V30 5086 H 485.325 -1.34241 -4.48439 0
M  V30 5087 H 485.498 -2.09895 -6.13065 0
M  V30 5088 N 478.904 1.54736 -0.299062 0
M  V30 5089 C 479.851 2.23448 0.577899 0
M  V30 5090 C 480.821 1.21637 1.13109 0
M  V30 5091 O 482.006 1.50252 1.17597 0
M  V30 5092 C 479.146 2.9774 1.74484 0
M  V30 5093 C 478.259 4.1432 1.22323 0
M  V30 5094 C 477.394 4.76199 2.35388 0
M  V30 5095 C 476.433 5.84927 1.80351 0
M  V30 5096 N 475.57 6.4077 2.86982 0
M  V30 5097 H 480.41 2.97996 -0.0146545 0
M  V30 5098 H 477.947 1.47088 -0.0190013 0
M  V30 5099 H 479.905 3.39045 2.43114 0
M  V30 5100 H 478.535 2.25572 2.30905 0
M  V30 5101 H 477.587 3.7797 0.429249 0
M  V30 5102 H 478.899 4.92659 0.780309 0
M  V30 5103 H 478.053 5.20346 3.11969 0
M  V30 5104 H 476.792 3.97188 2.83006 0
M  V30 5105 H 475.797 5.40207 1.02259 0
M  V30 5106 H 477.022 6.65821 1.3364 0
M  V30 5107 H 474.968 5.64643 3.33938 0
M  V30 5108 H 474.885 7.1445 2.4718 0
M  V30 5109 H 476.153 6.89574 3.63466 0
M  V30 5110 N 480.382 0.0267497 1.57577 0
M  V30 5111 C 481.312 -0.954308 2.13108 0
M  V30 5112 C 482.293 -1.34088 1.04663 0
M  V30 5113 O 483.478 -1.41992 1.32484 0
M  V30 5114 C 480.608 -2.23744 2.65624 0
M  V30 5115 C 479.562 -1.99168 3.78835 0
M  V30 5116 C 478.888 -3.33726 4.17769 0
M  V30 5117 C 480.188 -1.33277 5.0501 0
M  V30 5118 H 481.882 -0.491848 2.95332 0
M  V30 5119 H 479.428 -0.23514 1.42067 0
M  V30 5120 H 481.381 -2.92754 3.03106 0
M  V30 5121 H 480.105 -2.72151 1.80558 0
M  V30 5122 H 478.764 -1.32577 3.41788 0
M  V30 5123 H 478.412 -3.79888 3.29688 0
M  V30 5124 H 478.112 -3.18089 4.94058 0
M  V30 5125 H 479.636 -4.04008 4.57832 0
M  V30 5126 H 481.05 -1.92283 5.40093 0
M  V30 5127 H 479.447 -1.28045 5.8628 0
M  V30 5128 H 480.517 -0.305411 4.83937 0
M  V30 5129 N 481.861 -1.55662 -0.24637 0
M  V30 5130 C 483.107 -1.77782 -0.975779 0
M  V30 5131 C 483.44 -0.592103 -1.84953 0
M  V30 5132 O 482.715 0.409588 -1.90138 0
M  V30 5133 C 482.998 -3.09788 -1.83584 0
M  V30 5134 C 482.851 -4.38764 -0.990241 0
M  V30 5135 C 484.17 -3.38029 -2.81823 0
M  V30 5136 H 481.289 -0.646789 -0.353317 0
M  V30 5137 H 483.931 -1.88398 -0.246248 0
M  V30 5138 H 482.081 -3.00869 -2.45784 0
M  V30 5139 H 483.753 -4.59675 -0.386897 0
M  V30 5140 H 481.996 -4.32798 -0.294626 0
M  V30 5141 H 482.667 -5.27514 -1.62584 0
M  V30 5142 H 485.143 -3.46915 -2.2976 0
M  V30 5143 H 484.019 -4.3161 -3.39122 0
M  V30 5144 H 484.28 -2.58968 -3.58313 0
M  V30 5145 N 483.339 0.512053 -1.4905 0
M  V30 5146 C 484.75 1.09376 -1.51307 0
M  V30 5147 C 485.101 1.94 -0.292971 0
M  V30 5148 O 484.226 2.07965 0.598277 0
M  V30 5149 C 484.821 1.99031 -2.74176 0
M  V30 5150 C 483.38 2.52385 -2.79247 0
M  V30 5151 C 482.527 1.29749 -2.45073 0
M  V30 5152 H 485.478 0.296467 -1.55906 0
M  V30 5153 H 485.499 2.83569 -2.53711 0
M  V30 5154 H 485.011 1.37412 -3.62959 0
M  V30 5155 H 483.112 3.17673 -1.94716 0
M  V30 5156 H 483.225 2.90293 -3.81139 0
M  V30 5157 H 481.589 1.61912 -1.96612 0
M  V30 5158 H 482.372 0.698555 -3.36118 0
M  V30 5159 N 484.817 1.37938 0.762283 0
M  V30 5160 C 486.065 1.33404 1.51815 0
M  V30 5161 C 486.386 -0.0780975 1.94844 0
M  V30 5162 O 485.656 -1.02405 1.67003 0
M  V30 5163 H 484.236 0.490839 0.563104 0
M  V30 5164 H 486.898 1.72527 0.906669 0
M  V30 5165 H 485.994 1.97926 2.41313 0
M  V30 5166 N 486.295 -0.989507 1.22664 0
M  V30 5167 C 487.542 -1.72953 1.05325 0
M  V30 5168 C 487.87 -1.90104 -0.411168 0
M  V30 5169 O 487.125 -1.44386 -1.32103 0
M  V30 5170 C 487.424 -3.13649 1.71345 0
M  V30 5171 C 487.09 -3.16403 3.21248 0
M  V30 5172 C 485.752 -3.16862 3.62149 0
M  V30 5173 C 488.104 -3.12428 4.17179 0
M  V30 5174 C 485.432 -3.11051 4.97458 0
M  V30 5175 C 487.784 -3.08159 5.52468 0
M  V30 5176 C 486.448 -3.06935 5.92746 0
M  V30 5177 H 485.718 -0.632881 0.385412 0
M  V30 5178 H 488.365 -1.15863 1.52473 0
M  V30 5179 H 486.67 -3.74069 1.16532 0
M  V30 5180 H 488.367 -3.69658 1.55416 0
M  V30 5181 H 484.957 -3.16798 2.88682 0
M  V30 5182 H 489.141 -3.11221 3.86595 0
M  V30 5183 H 484.397 -3.0845 5.27891 0
M  V30 5184 H 488.571 -3.04039 6.26525 0
M  V30 5185 H 486.198 -3.02186 6.97558 0
M  V30 5186 N 487.773 -1.03688 -1.18687 0
M  V30 5187 C 489.021 -0.736572 -1.88199 0
M  V30 5188 C 489.342 0.737665 -1.80509 0
M  V30 5189 O 488.612 1.53204 -1.22088 0
M  V30 5190 H 487.192 -0.269466 -0.696704 0
M  V30 5191 H 489.854 -1.31282 -1.44052 0
M  V30 5192 H 488.95 -1.03802 -2.94332 0
M  V30 5193 N 489.251 1.34841 -0.815825 0
M  V30 5194 C 490.198 2.29644 -0.230664 0
M  V30 5195 C 491.168 1.53253 0.640533 0
M  V30 5196 O 492.353 1.81653 0.583672 0
M  V30 5197 C 489.493 3.39715 0.607275 0
M  V30 5198 C 488.606 4.31056 -0.28538 0
M  V30 5199 C 487.741 5.28225 0.561446 0
M  V30 5200 C 486.78 6.11204 -0.331035 0
M  V30 5201 N 485.917 7.00483 0.476302 0
M  V30 5202 H 490.757 2.79095 -1.0445 0
M  V30 5203 H 488.294 1.37351 -0.526595 0
M  V30 5204 H 490.252 4.02208 1.10835 0
M  V30 5205 H 488.882 2.91517 1.38629 0
M  V30 5206 H 487.934 3.69487 -0.904621 0
M  V30 5207 H 489.246 4.89239 -0.97193 0
M  V30 5208 H 488.4 5.96135 1.12728 0
M  V30 5209 H 487.139 4.70562 1.28153 0
M  V30 5210 H 486.144 5.42232 -0.909069 0
M  V30 5211 H 487.369 6.70947 -1.04912 0
M  V30 5212 H 485.315 6.45296 1.18019 0
M  V30 5213 H 485.232 7.55847 -0.152008 0
M  V30 5214 H 486.5 7.7273 1.02512 0
M  V30 5215 N 490.729 0.570148 1.46925 0
M  V30 5216 C 491.692 -0.159933 2.28641 0
M  V30 5217 C 492.692 -0.830638 1.37685 0
M  V30 5218 O 493.882 -0.684516 1.60187 0
M  V30 5219 C 491.014 -1.2354 3.17727 0
M  V30 5220 H 492.207 0.558035 2.94662 0
M  V30 5221 H 489.76 0.327603 1.52828 0
M  V30 5222 H 490.495 -1.98535 2.56426 0
M  V30 5223 H 490.28 -0.759125 3.84681 0
M  V30 5224 H 491.77 -1.74782 3.79264 0
M  V30 5225 N 492.207 -1.54576 0.307264 0
M  V30 5226 C 493.437 -2.04378 -0.302158 0
M  V30 5227 C 493.845 -1.18381 -1.47589 0
M  V30 5228 O 493.188 -0.20352 -1.82569 0
M  V30 5229 C 493.25 -3.50133 -0.815305 0
M  V30 5230 C 492.914 -4.56401 0.233977 0
M  V30 5231 C 493.911 -5.08884 1.06456 0
M  V30 5232 C 491.596 -5.0088 0.377478 0
M  V30 5233 C 493.59 -6.04394 2.02452 0
M  V30 5234 C 491.277 -5.96208 1.34088 0
M  V30 5235 C 492.275 -6.47849 2.16288 0
M  V30 5236 O 491.963 -7.41308 3.10994 0
M  V30 5237 H 491.695 -0.672502 -0.0686839 0
M  V30 5238 H 494.249 -2.00484 0.446682 0
M  V30 5239 H 492.479 -3.51371 -1.61478 0
M  V30 5240 H 494.168 -3.83098 -1.34129 0
M  V30 5241 H 494.934 -4.75311 0.964596 0
M  V30 5242 H 490.813 -4.60309 -0.252405 0
M  V30 5243 H 494.357 -6.44626 2.66652 0
M  V30 5244 H 490.254 -6.29198 1.44154 0
M  V30 5245 H 491.022 -7.5913 3.06045 0
M  V30 5246 N 493.685 -0.035106 -1.57561 0
M  V30 5247 C 494.913 0.652258 -1.9635 0
M  V30 5248 C 495.328 1.65317 -0.911897 0
M  V30 5249 O 494.685 1.82194 0.105657 0
M  V30 5250 C 494.736 1.35337 -3.35211 0
M  V30 5251 O 494.457 0.392548 -4.36338 0
M  V30 5252 C 495.958 2.13199 -3.88666 0
M  V30 5253 H 493.178 0.179444 -0.646561 0
M  V30 5254 H 495.722 -0.0966459 -2.04271 0
M  V30 5255 H 493.877 2.05362 -3.28489 0
M  V30 5256 H 494.291 0.891097 -5.16875 0
M  V30 5257 H 495.765 2.577 -4.88154 0
M  V30 5258 H 496.242 2.97353 -3.23231 0
M  V30 5259 H 496.848 1.48118 -3.98674 0
M  V30 5260 N 495.163 1.55791 0.238111 0
M  V30 5261 C 496.412 1.77234 0.962868 0
M  V30 5262 C 496.725 0.600661 1.86149 0
M  V30 5263 O 497.931 0.698315 2.62366 0
M  V30 5264 C 496.387 3.13808 1.76218 0
M  V30 5265 C 495.995 4.3865 0.910518 0
M  V30 5266 C 497.739 3.44585 2.47914 0
M  V30 5267 C 495.646 5.66252 1.70623 0
M  V30 5268 H 494.576 0.660731 0.36325 0
M  V30 5269 H 497.227 1.8221 0.217242 0
M  V30 5270 H 495.609 3.02963 2.55009 0
M  V30 5271 H 496.783 4.60507 0.164316 0
M  V30 5272 H 495.098 4.15271 0.30647 0
M  V30 5273 H 497.695 4.3714 3.07917 0
M  V30 5274 H 498.038 2.66314 3.19973 0
M  V30 5275 H 498.571 3.56685 1.76127 0
M  V30 5276 H 495.31 6.47369 1.02923 0
M  V30 5277 H 494.83 5.48483 2.42748 0
M  V30 5278 H 496.509 6.05829 2.27114 0
M  V30 5279 N 496.642 -0.504142 1.49319 0
M  V30 5280 C 497.889 -1.25846 1.58647 0
M  V30 5281 C 498.217 -1.92592 0.27177 0
M  V30 5282 O 497.472 -1.81167 -0.74007 0
M  V30 5283 C 497.771 -2.35021 2.69258 0
M  V30 5284 C 497.437 -1.85755 4.1086 0
M  V30 5285 C 496.099 -1.72038 4.49395 0
M  V30 5286 C 498.451 -1.48844 4.99495 0
M  V30 5287 C 495.779 -1.19783 5.74342 0
M  V30 5288 C 498.131 -0.980422 6.24956 0
M  V30 5289 C 496.795 -0.829622 6.62324 0
M  V30 5290 H 496.065 -0.460505 0.580531 0
M  V30 5291 H 498.712 -0.559716 1.83138 0
M  V30 5292 H 497.017 -3.10672 2.38726 0
M  V30 5293 H 498.714 -2.93083 2.73685 0
M  V30 5294 H 495.304 -1.9739 3.80441 0
M  V30 5295 H 499.488 -1.5829 4.70381 0
M  V30 5296 H 494.744 -1.06817 6.01997 0
M  V30 5297 H 498.918 -0.685608 6.93017 0
M  V30 5298 H 496.545 -0.42253 7.59025 0
M  V30 5299 N 498.12 -1.38341 -0.754957 0
M  V30 5300 C 499.068 -1.35573 -1.89005 0
M  V30 5301 C 500.062 -0.241824 -1.67665 0
M  V30 5302 O 501.268 -0.410785 -1.7525 0
M  V30 5303 H 497.643 -0.422898 -0.621821 0
M  V30 5304 H 499.614 -2.31359 -1.88455 0
M  V30 5305 C 498.363 -1.19631 -3.26471 0
M  V30 5306 H 497.686 -2.04605 -3.43477 0
M  V30 5307 H 499.126 -1.21748 -4.06144 0
M  V30 5308 C 497.585 0.0968705 -3.36761 0
M  V30 5309 O 498.115 1.07439 -3.87066 0
M  V30 5310 N 496.321 0.153242 -2.90196 0
M  V30 5311 H 495.868 -0.642908 -2.49448 0
M  V30 5312 H 495.826 1.01807 -2.9746 0
M  V30 5313 N 499.598 0.982988 -1.23187 0
M  V30 5314 C 500.545 2.07491 -1.01075 0
M  V30 5315 C 501.515 1.65949 0.070905 0
M  V30 5316 O 502.7 1.90629 -0.0806822 0
M  V30 5317 C 499.84 3.39751 -0.605261 0
M  V30 5318 C 498.953 3.94578 -1.75876 0
M  V30 5319 C 498.088 5.15039 -1.3003 0
M  V30 5320 C 497.127 5.62027 -2.42472 0
M  V30 5321 N 496.264 6.73719 -1.97602 0
M  V30 5322 H 501.104 2.25739 -1.9454 0
M  V30 5323 H 498.641 1.10659 -0.969179 0
M  V30 5324 H 500.599 4.15719 -0.351279 0
M  V30 5325 H 499.229 3.21473 0.292382 0
M  V30 5326 H 498.281 3.1539 -2.12681 0
M  V30 5327 H 499.593 4.25422 -2.60418 0
M  V30 5328 H 498.747 5.9833 -1.00429 0
M  V30 5329 H 497.486 4.85843 -0.425216 0
M  V30 5330 H 496.491 4.77318 -2.7285 0
M  V30 5331 H 497.716 5.93244 -3.30512 0
M  V30 5332 H 495.662 6.46287 -1.1247 0
M  V30 5333 H 495.579 7.03934 -2.75705 0
M  V30 5334 H 496.847 7.6049 -1.71098 0
M  V30 5335 N 501.076 1.04316 1.18135 0
M  V30 5336 C 502.304 0.768117 1.92113 0
M  V30 5337 C 502.719 -0.675057 1.76319 0
M  V30 5338 O 502.076 -1.46038 1.09449 0
M  V30 5339 C 502.127 1.12808 3.43448 0
M  V30 5340 O 501.848 2.5146 3.58747 0
M  V30 5341 C 503.349 0.8779 4.3452 0
M  V30 5342 H 500.569 0.279937 0.609817 0
M  V30 5343 H 503.113 1.39149 1.49859 0
M  V30 5344 H 501.268 0.549623 3.83481 0
M  V30 5345 H 501.682 2.65313 4.52448 0
M  V30 5346 H 503.156 1.17959 5.39249 0
M  V30 5347 H 503.633 -0.187239 4.38801 0
M  V30 5348 H 504.239 1.43977 4.00188 0
M  V30 5349 N 502.554 -1.34406 0.822964 0
M  V30 5350 C 503.484 -2.32052 0.259608 0
M  V30 5351 C 504.465 -1.58243 -0.623961 0
M  V30 5352 O 505.65 -1.86224 -0.55083 0
M  V30 5353 C 502.78 -3.42434 -0.579314 0
M  V30 5354 C 501.734 -4.27499 0.20712 0
M  V30 5355 C 501.06 -5.29349 -0.754547 0
M  V30 5356 C 502.36 -5.02758 1.41533 0
M  V30 5357 H 504.054 -2.79418 1.07545 0
M  V30 5358 H 501.6 -1.34338 0.518593 0
M  V30 5359 H 503.553 -4.0976 -0.983612 0
M  V30 5360 H 502.277 -2.93717 -1.4282 0
M  V30 5361 H 500.936 -3.61776 0.592787 0
M  V30 5362 H 500.584 -4.76895 -1.59939 0
M  V30 5363 H 500.284 -5.8714 -0.232561 0
M  V30 5364 H 501.808 -5.99544 -1.1567 0
M  V30 5365 H 503.222 -5.62938 1.08504 0
M  V30 5366 H 501.619 -5.70123 1.87296 0
M  V30 5367 H 502.689 -4.32451 2.1935 0
M  V30 5368 N 504.032 -0.577932 -1.46621 0
M  V30 5369 C 504.965 0.206312 -2.27265 0
M  V30 5370 C 505.943 0.901306 -1.35334 0
M  V30 5371 O 507.127 0.916151 -1.64739 0
M  V30 5372 C 504.254 1.29563 -3.1294 0
M  V30 5373 C 503.3 0.706981 -4.206 0
M  V30 5374 S 504.133 -0.462459 -5.33499 0
M  V30 5375 C 505.289 0.628171 -6.2274 0
M  V30 5376 H 505.522 -0.477961 -2.93433 0
M  V30 5377 H 503.055 -0.364715 -1.50031 0
M  V30 5378 H 505.013 1.91935 -3.62865 0
M  V30 5379 H 503.674 1.95183 -2.46095 0
M  V30 5380 H 502.867 1.52565 -4.80354 0
M  V30 5381 H 502.469 0.159022 -3.73662 0
M  V30 5382 H 504.761 1.51506 -6.60342 0
M  V30 5383 H 505.704 0.0674961 -7.08068 0
M  V30 5384 H 506.112 0.930167 -5.56784 0
M  V30 5385 N 505.51 1.54411 -0.315457 0
M  V30 5386 C 506.42 2.27737 0.56329 0
M  V30 5387 C 507.436 1.31787 1.13614 0
M  V30 5388 O 508.612 1.64791 1.15784 0
M  V30 5389 C 505.677 3.01478 1.71207 0
M  V30 5390 C 504.738 4.12997 1.17185 0
M  V30 5391 C 503.971 4.83212 2.26588 0
M  V30 5392 O 504.194 4.52884 3.46775 0
M  V30 5393 O 503.128 5.70299 1.92463 0
M  V30 5394 H 506.954 3.03683 -0.0319614 0
M  V30 5395 H 504.539 1.49178 -0.0814188 0
M  V30 5396 H 506.421 3.47683 2.38106 0
M  V30 5397 H 505.096 2.28414 2.29366 0
M  V30 5398 H 504.003 3.71159 0.468174 0
M  V30 5399 H 505.336 4.8808 0.635501 0
M  V30 5400 N 506.988 0.0434614 1.5754 0
M  V30 5401 C 507.951 -0.918696 2.09982 0
M  V30 5402 C 508.951 -1.24488 1.01781 0
M  V30 5403 O 510.141 -1.18284 1.27885 0
M  V30 5404 C 507.273 -2.23093 2.57764 0
M  V30 5405 H 508.466 -0.464229 2.96285 0
M  V30 5406 H 506.019 -0.204818 1.54952 0
M  V30 5407 H 506.754 -2.73137 1.74832 0
M  V30 5408 H 506.539 -2.00724 3.36827 0
M  V30 5409 H 508.029 -2.92028 2.98512 0
M  V30 5410 N 508.466 -1.55915 -0.229846 0
M  V30 5411 C 509.743 -1.6932 -0.979295 0
M  V30 5412 C 510.123 -0.588321 -2.02736 0
M  V30 5413 O 509.471 0.40586 -2.24867 0
M  V30 5414 C 509.681 -3.10305 -1.59724 0
M  V30 5415 C 511.029 -3.6945 -2.09264 0
M  V30 5416 O 512.053 -3.13214 -1.69633 0
M  V30 5417 O 510.912 -4.68072 -2.82082 0
M  V30 5418 H 508.006 -0.689314 -0.456919 0
M  V30 5419 H 510.552 -1.68238 -0.222283 0
M  V30 5420 H 509.324 -3.82177 -0.840039 0
M  V30 5421 H 508.947 -3.1547 -2.42001 0
M  V30 5422 N 509.944 0.496216 -1.49584 0
M  V30 5423 C 510.907 1.57952 -1.66084 0
M  V30 5424 C 511.907 1.51729 -0.53244 0
M  V30 5425 O 513.097 1.54796 -0.79899 0
M  V30 5426 C 510.229 2.97604 -1.66268 0
M  V30 5427 H 511.422 1.44649 -2.6271 0
M  V30 5428 H 508.975 0.7208 -1.38687 0
M  V30 5429 H 509.71 3.16378 -0.712432 0
M  V30 5430 H 509.495 3.03528 -2.4822 0
M  V30 5431 H 510.985 3.76301 -1.81073 0
M  V30 5432 N 511.423 1.38739 0.74761 0
M  V30 5433 C 512.373 1.32948 1.85226 0
M  V30 5434 C 513.357 0.212642 1.59489 0
M  V30 5435 O 514.549 0.449121 1.71207 0
M  V30 5436 C 511.678 1.16279 3.23008 0
M  V30 5437 C 510.764 2.32611 3.54617 0
M  V30 5438 N 511.155 3.58065 3.57244 0
M  V30 5439 C 509.453 2.25293 3.84914 0
M  V30 5440 C 510.154 4.34919 3.8629 0
M  V30 5441 N 509.13 3.64348 4.03425 0
M  V30 5442 H 512.932 2.27927 1.85544 0
M  V30 5443 H 510.446 1.32056 0.945253 0
M  V30 5444 H 512.443 1.10214 4.02068 0
M  V30 5445 H 511.103 0.222394 3.23937 0
M  V30 5446 H 512.114 3.91656 3.3886 0
M  V30 5447 H 508.791 1.39446 3.93524 0
M  V30 5448 H 510.181 5.43605 3.94896 0
M  V30 5449 N 512.901 -0.976442 1.23707 0
M  V30 5450 C 514.131 -1.75087 1.09673 0
M  V30 5451 C 514.539 -1.85852 -0.354344 0
M  V30 5452 O 513.882 -1.33985 -1.25673 0
M  V30 5453 C 513.944 -3.19272 1.65245 0
M  V30 5454 C 513.608 -3.32004 3.14042 0
M  V30 5455 C 514.605 -3.18017 4.11292 0
M  V30 5456 C 512.29 -3.56525 3.53829 0
M  V30 5457 C 514.284 -3.28363 5.46312 0
M  V30 5458 C 511.971 -3.6651 4.88993 0
M  V30 5459 C 512.969 -3.52439 5.85043 0
M  V30 5460 O 512.657 -3.62063 7.1775 0
M  V30 5461 H 512.389 -0.556164 0.384262 0
M  V30 5462 H 514.943 -1.23518 1.64111 0
M  V30 5463 H 513.173 -3.72107 1.05231 0
M  V30 5464 H 514.862 -3.7849 1.46629 0
M  V30 5465 H 515.628 -2.98966 3.81896 0
M  V30 5466 H 511.507 -3.66547 2.79579 0
M  V30 5467 H 515.051 -3.17297 6.21263 0
M  V30 5468 H 510.948 -3.85072 5.18063 0
M  V30 5469 H 511.716 -3.78833 7.25553 0
M  V30 5470 N 514.379 -1.04941 -1.1758 0
M  V30 5471 C 515.326 -0.648155 -2.21512 0
M  V30 5472 C 516.296 0.348431 -1.62404 0
M  V30 5473 O 517.481 0.240419 -1.89279 0
M  V30 5474 C 514.621 -0.0264291 -3.4509 0
M  V30 5475 C 513.734 -1.07154 -4.185 0
M  V30 5476 C 512.869 -0.417403 -5.29558 0
M  V30 5477 C 511.908 -1.447 -5.94751 0
M  V30 5478 N 511.045 -0.817203 -6.97328 0
M  V30 5479 H 515.885 -1.53891 -2.55189 0
M  V30 5480 H 513.422 -0.769699 -1.25356 0
M  V30 5481 H 515.38 0.351456 -4.15717 0
M  V30 5482 H 514.01 0.827802 -3.12005 0
M  V30 5483 H 513.062 -1.56728 -3.46613 0
M  V30 5484 H 514.374 -1.8532 -4.63096 0
M  V30 5485 H 513.528 0.0142061 -6.06698 0
M  V30 5486 H 512.267 0.396265 -4.86087 0
M  V30 5487 H 511.272 -1.88865 -5.16343 0
M  V30 5488 H 512.497 -2.26252 -6.40302 0
M  V30 5489 H 510.443 -0.0239995 -6.55996 0
M  V30 5490 H 510.36 -1.53644 -7.40223 0
M  V30 5491 H 511.628 -0.410283 -7.7842 0
M  V30 5492 N 515.857 1.33968 -0.830081 0
M  V30 5493 C 517.082 2.02813 -0.433796 0
M  V30 5494 C 517.507 1.62076 0.954614 0
M  V30 5495 O 516.865 0.808955 1.62252 0
M  V30 5496 C 516.913 3.56348 -0.552115 0
M  V30 5497 O 516.017 4.10202 0.425191 0
M  V30 5498 H 515.358 0.639817 -0.177567 0
M  V30 5499 H 517.888 1.7106 -1.12248 0
M  V30 5500 H 517.898 4.05722 -0.430513 0
M  V30 5501 H 516.573 3.85344 -1.56471 0
M  V30 5502 H 515.15 3.71979 0.261878 0
M  V30 5503 N 517.335 0.585699 1.46312 0
M  V30 5504 C 518.581 0.0725284 2.0267 0
M  V30 5505 C 518.914 -1.28523 1.45586 0
M  V30 5506 O 518.189 -1.84283 0.622101 0
M  V30 5507 C 518.472 0.0099788 3.60099 0
M  V30 5508 C 518.325 1.39685 4.27561 0
M  V30 5509 C 519.644 -0.689117 4.34671 0
M  V30 5510 H 516.763 0.0278307 0.736474 0
M  V30 5511 H 519.405 0.753472 1.74421 0
M  V30 5512 H 517.555 -0.56992 3.84297 0
M  V30 5513 H 519.227 2.02215 4.14617 0
M  V30 5514 H 517.47 1.96374 3.86807 0
M  V30 5515 H 518.141 1.30553 5.36339 0
M  V30 5516 H 520.617 -0.196446 4.15636 0
M  V30 5517 H 519.493 -0.701921 5.44393 0
M  V30 5518 H 519.754 -1.75101 4.05946 0
M  V30 5519 N 518.813 -1.54241 0.323641 0
M  V30 5520 C 520.229 -1.59574 -0.0290018 0
M  V30 5521 C 520.429 -1.34017 -1.50472 0
M  V30 5522 O 519.485 -1.12464 -2.26071 0
M  V30 5523 C 520.798 -2.98169 0.389295 0
M  V30 5524 C 522.346 -3.11148 0.339958 0
M  V30 5525 C 522.821 -4.5209 0.733418 0
M  V30 5526 N 524.312 -4.5808 0.686827 0
M  V30 5527 C 525.047 -5.65248 0.963464 0
M  V30 5528 N 524.543 -6.80355 1.30724 0
M  V30 5529 N 526.336 -5.55025 0.88902 0
M  V30 5530 H 518.487 -1.6911 1.28512 0
M  V30 5531 H 520.75 -0.790972 0.522558 0
M  V30 5532 H 520.456 -3.21871 1.41746 0
M  V30 5533 H 520.33 -3.76399 -0.245657 0
M  V30 5534 H 522.717 -2.87182 -0.679002 0
M  V30 5535 H 522.798 -2.35023 1.00985 0
M  V30 5536 H 522.442 -4.76788 1.75029 0
M  V30 5537 H 522.372 -5.26584 0.0412189 0
M  V30 5538 H 524.863 -3.75411 0.43298 0
M  V30 5539 H 525.176 -7.58029 1.5037 0
M  V30 5540 H 523.521 -6.81851 1.3455 0
M  V30 5541 H 526.712 -4.63977 0.619939 0
M  V30 5542 H 526.885 -6.38458 1.10797 0
M  V30 5543 N 520.291 -0.0518155 -1.57515 0
M  V30 5544 C 521.519 0.631395 -1.9703 0
M  V30 5545 C 521.934 1.64341 -0.92938 0
M  V30 5546 O 521.291 1.82296 0.0863266 0
M  V30 5547 C 521.342 1.31774 -3.36627 0
M  V30 5548 O 521.063 0.346247 -4.3673 0
M  V30 5549 C 522.564 2.09065 -3.90905 0
M  V30 5550 H 519.784 0.172576 -0.648428 0
M  V30 5551 H 522.328 -0.118306 -2.04158 0
M  V30 5552 H 520.483 2.01867 -3.30649 0
M  V30 5553 H 520.897 0.836226 -5.17791 0
M  V30 5554 H 522.371 2.52508 -4.9086 0
M  V30 5555 H 522.848 2.93908 -3.26366 0
M  V30 5556 H 523.454 1.43882 -4.00223 0
M  V30 5557 N 521.769 1.56035 0.221574 0
M  V30 5558 C 523.015 1.80221 0.942973 0
M  V30 5559 C 523.37 0.624799 1.81973 0
M  V30 5560 O 522.663 -0.381145 1.87771 0
M  V30 5561 C 522.857 3.07813 1.8162 0
M  V30 5562 C 522.686 4.37852 1.02548 0
M  V30 5563 C 521.456 5.00138 0.720418 0
M  V30 5564 C 523.654 5.12813 0.390799 0
M  V30 5565 N 521.636 6.13831 -0.0917139 0
M  V30 5566 C 523.007 6.19346 -0.284728 0
M  V30 5567 C 525.062 4.96972 0.303828 0
M  V30 5568 C 523.765 7.11758 -1.03891 0
M  V30 5569 C 525.791 5.89784 -0.436883 0
M  V30 5570 C 525.153 6.95743 -1.10095 0
M  V30 5571 H 521.252 0.711117 0.325325 0
M  V30 5572 H 523.836 1.93522 0.213854 0
M  V30 5573 H 522.007 2.95795 2.51714 0
M  V30 5574 H 523.739 3.20191 2.47508 0
M  V30 5575 H 520.494 4.62075 1.03843 0
M  V30 5576 H 520.918 6.75249 -0.486615 0
M  V30 5577 H 525.56 4.15107 0.802896 0
M  V30 5578 H 523.278 7.93105 -1.54949 0
M  V30 5579 H 526.864 5.79603 -0.505181 0
M  V30 5580 H 525.744 7.66322 -1.66495 0
M  V30 5581 N 523.247 -0.488276 1.49845 0
M  V30 5582 C 524.195 -1.60917 1.67954 0
M  V30 5583 C 525.189 -1.6038 0.54539 0
M  V30 5584 O 526.395 -1.64736 0.7254 0
M  V30 5585 H 522.77 -0.533658 0.529824 0
M  V30 5586 H 524.741 -1.428 2.62013 0
M  V30 5587 C 523.49 -2.98975 1.77509 0
M  V30 5588 H 522.813 -3.00099 2.6416 0
M  V30 5589 H 524.253 -3.76906 1.9421 0
M  V30 5590 C 522.712 -3.3282 0.522745 0
M  V30 5591 O 523.242 -4.00208 -0.345866 0
M  V30 5592 N 521.448 -2.8808 0.381882 0
M  V30 5593 H 520.995 -2.33415 1.08974 0
M  V30 5594 H 520.953 -3.11091 -0.454929 0
M  V30 5595 N 524.725 -1.39134 -0.740242 0
M  V30 5596 C 525.635 -1.39697 -1.88473 0
M  V30 5597 C 526.651 -0.292403 -1.71526 0
M  V30 5598 O 527.827 -0.533021 -1.94219 0
M  V30 5599 C 524.892 -1.23382 -3.24003 0
M  V30 5600 C 523.953 -2.43763 -3.53381 0
M  V30 5601 C 523.186 -2.28216 -4.82445 0
M  V30 5602 O 523.409 -1.28288 -5.55786 0
M  V30 5603 O 522.343 -3.1709 -5.11603 0
M  V30 5604 H 526.169 -2.36159 -1.90952 0
M  V30 5605 H 523.754 -1.20194 -0.887346 0
M  V30 5606 H 525.636 -1.16395 -4.05006 0
M  V30 5607 H 524.311 -0.300121 -3.22306 0
M  V30 5608 H 523.218 -2.56325 -2.72485 0
M  V30 5609 H 524.551 -3.35808 -3.59852 0
M  V30 5610 N 526.204 0.969867 -1.24223 0
M  V30 5611 C 527.453 1.70687 -1.07466 0
M  V30 5612 C 527.766 1.91736 0.386861 0
M  V30 5613 O 528.972 2.62986 0.674581 0
M  V30 5614 C 527.428 3.07217 -1.87472 0
M  V30 5615 C 527.036 2.94018 -3.3802 0
M  V30 5616 C 528.78 3.84804 -1.79237 0
M  V30 5617 C 526.687 4.25844 -4.10379 0
M  V30 5618 H 525.617 0.640067 -0.398536 0
M  V30 5619 H 528.268 1.08092 -1.48285 0
M  V30 5620 H 526.65 3.70628 -1.39466 0
M  V30 5621 H 527.824 2.39632 -3.9359 0
M  V30 5622 H 526.139 2.29898 -3.47183 0
M  V30 5623 H 528.736 4.82417 -2.30603 0
M  V30 5624 H 529.079 4.09356 -0.757197 0
M  V30 5625 H 529.612 3.28115 -2.24912 0
M  V30 5626 H 526.351 4.06486 -5.14246 0
M  V30 5627 H 525.871 4.80054 -3.59594 0
M  V30 5628 H 527.55 4.94475 -4.17257 0
M  V30 5629 N 527.682 1.05563 1.17022 0
M  V30 5630 C 528.931 0.763036 1.8671 0
M  V30 5631 C 529.244 -0.712857 1.82147 0
M  V30 5632 O 530.45 -1.11955 2.47343 0
M  V30 5633 C 528.906 1.31474 3.35026 0
M  V30 5634 C 528.514 2.82034 3.48081 0
M  V30 5635 C 530.258 1.09935 4.10018 0
M  V30 5636 C 528.165 3.30486 4.90442 0
M  V30 5637 H 527.095 0.281747 0.699382 0
M  V30 5638 H 529.746 1.2734 1.32124 0
M  V30 5639 H 528.128 0.732171 3.89173 0
M  V30 5640 H 529.302 3.46178 3.04133 0
M  V30 5641 H 527.617 3.02156 2.86515 0
M  V30 5642 H 530.214 1.43632 5.15048 0
M  V30 5643 H 530.557 0.0373072 4.16283 0
M  V30 5644 H 531.09 1.64732 3.62089 0
M  V30 5645 H 527.829 4.36137 4.89352 0
M  V30 5646 H 527.349 2.71086 5.35044 0
M  V30 5647 H 529.028 3.25382 5.59227 0
M  V30 5648 N 529.16 -1.33526 0.837174 0
M  V30 5649 C 530.571 -1.80182 0.489017 0
M  V30 5650 C 530.922 -1.69285 -0.991826 0
M  V30 5651 O 530.047 -1.24113 -1.77271 0
M  V30 5652 C 530.642 -3.27149 0.880866 0
M  V30 5653 C 529.201 -3.71828 0.584872 0
M  V30 5654 C 528.348 -2.54974 1.09011 0
M  V30 5655 H 531.299 -1.21071 1.02603 0
M  V30 5656 H 531.32 -3.80024 0.190239 0
M  V30 5657 H 530.832 -3.35048 1.95869 0
M  V30 5658 H 528.933 -3.69457 -0.48295 0
M  V30 5659 H 529.046 -4.65366 1.13892 0
M  V30 5660 H 527.41 -2.4952 0.511047 0
M  V30 5661 H 528.193 -2.65637 2.17467 0
M  V30 5662 N 530.638 -0.59345 -1.46 0
M  V30 5663 C 531.863 -0.0872365 -2.07216 0
M  V30 5664 C 532.288 1.2131 -1.43755 0
M  V30 5665 O 531.646 1.73528 -0.525152 0
M  V30 5666 C 531.694 0.0538197 -3.6056 0
M  V30 5667 O 530.798 1.10765 -3.97247 0
M  V30 5668 H 530.139 -0.0676598 -0.660544 0
M  V30 5669 H 532.669 -0.819445 -1.87473 0
M  V30 5670 H 532.679 0.256567 -4.07193 0
M  V30 5671 H 531.354 -0.895739 -4.0614 0
M  V30 5672 H 529.931 0.882501 -3.62307 0
M  V30 5673 N 532.116 1.54067 -0.331816 0
M  V30 5674 C 533.063 2.24623 0.530372 0
M  V30 5675 C 534.033 1.24009 1.10503 0
M  V30 5676 O 535.218 1.52712 1.14384 0
M  V30 5677 C 532.358 3.01374 1.68129 0
M  V30 5678 C 531.471 4.16821 1.13507 0
M  V30 5679 C 530.606 4.81085 2.25234 0
M  V30 5680 C 529.645 5.88621 1.67903 0
M  V30 5681 N 528.782 6.46713 2.73326 0
M  V30 5682 H 533.622 2.97898 -0.0778607 0
M  V30 5683 H 531.159 1.47014 -0.0501965 0
M  V30 5684 H 533.117 3.44125 2.35868 0
M  V30 5685 H 531.747 2.30419 2.26069 0
M  V30 5686 H 530.799 3.78796 0.348979 0
M  V30 5687 H 532.111 4.94203 0.675633 0
M  V30 5688 H 531.265 5.26846 3.00862 0
M  V30 5689 H 530.004 4.03102 2.74518 0
M  V30 5690 H 529.009 5.42254 0.907773 0
M  V30 5691 H 530.234 6.68506 1.19487 0
M  V30 5692 H 528.18 5.71599 3.21886 0
M  V30 5693 H 528.097 7.19532 2.3197 0
M  V30 5694 H 529.365 6.97129 3.48758 0
M  V30 5695 N 533.594 0.0601682 1.57485 0
M  V30 5696 C 534.842 -0.610386 1.92662 0
M  V30 5697 C 535.163 -1.70849 0.939981 0
M  V30 5698 O 534.433 -1.95895 -0.0137455 0
M  V30 5699 H 533.013 -0.228457 0.711208 0
M  V30 5700 H 535.675 0.115288 1.94559 0
M  V30 5701 H 534.771 -1.0432 2.94149 0
M  V30 5702 N 535.072 -1.5615 -0.213296 0
M  V30 5703 C 536.312 -1.81325 -0.943435 0
M  V30 5704 C 536.676 -0.634934 -1.81198 0
M  V30 5705 O 537.877 -0.766166 -2.5765 0
M  V30 5706 C 536.148 -3.11437 -1.75334 0
M  V30 5707 S 537.707 -3.57955 -2.53799 0
M  V30 5708 H 534.525 -0.636538 -0.316766 0
M  V30 5709 H 537.127 -1.94387 -0.208313 0
M  V30 5710 H 535.831 -3.95228 -1.10556 0
M  V30 5711 H 535.362 -3.01204 -2.53061 0
M  V30 5712 H 537.377 -3.21947 -3.77577 0
M  V30 5713 N 536.55 0.480323 -1.50102 0
M  V30 5714 C 537.48 1.58769 -1.71215 0
M  V30 5715 C 538.461 1.60583 -0.560997 0
M  V30 5716 O 539.646 1.76996 -0.799127 0
M  V30 5717 C 536.776 2.97148 -1.79778 0
M  V30 5718 C 535.73 3.10201 -2.94888 0
M  V30 5719 C 535.056 4.50137 -2.88584 0
M  V30 5720 C 536.356 2.88283 -4.35534 0
M  V30 5721 H 538.05 1.41354 -2.6393 0
M  V30 5722 H 535.596 0.678591 -1.27008 0
M  V30 5723 H 537.549 3.74536 -1.93133 0
M  V30 5724 H 536.273 3.15699 -0.836772 0
M  V30 5725 H 534.932 2.35244 -2.81169 0
M  V30 5726 H 534.58 4.65593 -1.90349 0
M  V30 5727 H 534.28 4.59808 -3.65856 0
M  V30 5728 H 535.804 5.29558 -3.03976 0
M  V30 5729 H 537.218 3.55427 -4.49827 0
M  V30 5730 H 535.615 3.09408 -5.14186 0
M  V30 5731 H 536.685 1.84219 -4.48544 0
M  V30 5732 N 538.028 1.39524 0.732853 0
M  V30 5733 C 539.444 1.21176 1.03868 0
M  V30 5734 C 539.644 0.0748448 2.01361 0
M  V30 5735 O 538.7 -0.57281 2.45917 0
M  V30 5736 C 540.013 2.54667 1.59892 0
M  V30 5737 C 541.561 2.6153 1.71962 0
M  V30 5738 C 542.036 3.95248 2.31394 0
M  V30 5739 N 543.527 3.96899 2.38801 0
M  V30 5740 C 544.262 4.97138 2.85729 0
M  V30 5741 N 543.758 6.07775 3.32537 0
M  V30 5742 N 545.551 4.84516 2.84957 0
M  V30 5743 H 537.702 2.12225 0.086304 0
M  V30 5744 H 539.965 0.942614 0.100907 0
M  V30 5745 H 539.671 3.38423 0.95721 0
M  V30 5746 H 539.545 2.74538 2.58668 0
M  V30 5747 H 541.932 1.78156 2.35254 0
M  V30 5748 H 542.013 2.45507 0.718327 0
M  V30 5749 H 541.657 4.79054 1.68729 0
M  V30 5750 H 541.587 4.08593 3.32204 0
M  V30 5751 H 544.078 3.16998 2.05719 0
M  V30 5752 H 544.391 6.8017 3.66862 0
M  V30 5753 H 542.736 6.11366 3.30541 0
M  V30 5754 H 545.927 3.97185 2.47713 0
M  V30 5755 H 546.1 5.62783 3.21215 0
M  V30 5756 N 539.506 -0.963266 1.24736 0
M  V30 5757 C 540.752 -1.70933 1.09131 0
M  V30 5758 C 541.085 -1.90676 -0.368273 0
M  V30 5759 O 540.36 -1.47147 -1.27193 0
M  V30 5760 C 540.643 -3.09744 1.83658 0
M  V30 5761 C 540.496 -2.97465 3.37394 0
M  V30 5762 C 541.815 -4.09483 1.61282 0
M  V30 5763 H 538.934 -0.620398 0.397838 0
M  V30 5764 H 541.576 -1.12028 1.53459 0
M  V30 5765 H 539.726 -3.60031 1.4598 0
M  V30 5766 H 541.398 -2.54571 3.84696 0
M  V30 5767 H 539.641 -2.33576 3.65547 0
M  V30 5768 H 540.312 -3.95822 3.84745 0
M  V30 5769 H 542.788 -3.68073 1.94066 0
M  V30 5770 H 541.664 -5.04666 2.15878 0
M  V30 5771 H 541.925 -4.38639 0.552102 0
M  V30 5772 N 540.985 -1.06182 -1.16461 0
M  V30 5773 C 542.233 -0.776326 -1.86595 0
M  V30 5774 C 542.554 0.69921 -1.82033 0
M  V30 5775 O 541.824 1.50579 -1.2531 0
M  V30 5776 H 540.404 -0.284184 -0.690832 0
M  V30 5777 H 543.066 -1.34308 -1.41235 0
M  V30 5778 H 542.162 -1.10022 -2.92064 0
M  V30 5779 N 542.463 1.3308 -0.844243 0
M  V30 5780 C 543.711 1.97215 -0.441676 0
M  V30 5781 C 544.032 1.67185 1.0037 0
M  V30 5782 O 543.302 0.973588 1.69994 0
M  V30 5783 H 541.882 0.72959 -0.160335 0
M  V30 5784 H 544.544 1.62348 -1.07838 0
M  V30 5785 H 543.64 3.06698 -0.57815 0
M  V30 5786 N 543.941 0.601185 1.45683 0
M  V30 5787 C 545.357 0.264315 1.57396 0
M  V30 5788 C 545.557 -1.23324 1.59353 0
M  V30 5789 O 544.613 -2.01594 1.52039 0
M  V30 5790 C 545.926 0.929839 2.85962 0
M  V30 5791 C 547.474 0.905156 2.99626 0
M  V30 5792 C 547.949 1.55057 4.30954 0
M  V30 5793 N 549.44 1.51576 4.37697 0
M  V30 5794 C 550.175 1.98436 5.37969 0
M  V30 5795 N 549.671 2.53352 6.44813 0
M  V30 5796 N 551.464 1.89242 5.29286 0
M  V30 5797 H 543.615 1.57363 1.42656 0
M  V30 5798 H 545.878 0.658831 0.681649 0
M  V30 5799 H 545.584 1.98404 2.90394 0
M  V30 5800 H 545.458 0.449224 3.74515 0
M  V30 5801 H 547.845 -0.14048 2.94765 0
M  V30 5802 H 547.926 1.42397 2.12501 0
M  V30 5803 H 547.57 2.5955 4.36573 0
M  V30 5804 H 547.5 1.00682 5.16886 0
M  V30 5805 H 549.991 1.11452 3.61091 0
M  V30 5806 H 550.304 2.86918 7.17564 0
M  V30 5807 H 548.649 2.57388 6.45582 0
M  V30 5808 H 551.84 1.46083 4.44722 0
M  V30 5809 H 552.013 2.26075 6.07284 0
M  V30 5810 N 545.419 -1.53889 0.339982 0
M  V30 5811 C 546.659 -2.02765 -0.258011 0
M  V30 5812 C 547.023 -1.22249 -1.48051 0
M  V30 5813 O 548.224 -1.61007 -2.15245 0
M  V30 5814 C 546.495 -3.5286 -0.567872 0
M  V30 5815 S 548.054 -4.23647 -1.14318 0
M  V30 5816 H 544.872 -0.706814 -0.0770389 0
M  V30 5817 H 547.474 -1.89594 0.476917 0
M  V30 5818 H 546.178 -4.09073 0.329745 0
M  V30 5819 H 545.709 -3.70144 -1.33256 0
M  V30 5820 H 547.724 -4.32676 -2.42911 0
M  V30 5821 N 546.897 -0.0685191 -1.57451 0
M  V30 5822 C 547.847 0.909895 -2.09057 0
M  V30 5823 C 548.831 1.26088 -0.999528 0
M  V30 5824 O 550.023 1.24041 -1.26265 0
M  V30 5825 C 547.152 2.17863 -2.65312 0
M  V30 5826 C 546.238 1.85427 -3.81415 0
M  V30 5827 N 546.629 1.23426 -4.9051 0
M  V30 5828 C 544.927 2.15196 -3.90649 0
M  V30 5829 C 545.628 1.09008 -5.71395 0
M  V30 5830 N 544.604 1.59871 -5.1956 0
M  V30 5831 H 548.406 0.426145 -2.90794 0
M  V30 5832 H 545.92 0.135462 -1.61834 0
M  V30 5833 H 547.917 2.88872 -3.00597 0
M  V30 5834 H 546.577 2.66829 -1.85021 0
M  V30 5835 H 547.588 0.904305 -5.09944 0
M  V30 5836 H 544.265 2.66562 -3.21327 0
M  V30 5837 H 545.655 0.607305 -6.6915 0
M  V30 5838 N 548.375 1.56261 0.205012 0
M  V30 5839 C 549.786 1.70056 0.770574 0
M  V30 5840 C 550.137 0.673398 1.84282 0
M  V30 5841 O 549.262 -0.172196 2.15714 0
M  V30 5842 C 549.857 3.08316 1.40451 0
M  V30 5843 C 548.416 3.2391 1.91727 0
M  V30 5844 C 547.563 2.66001 0.783516 0
M  V30 5845 H 550.514 1.58688 -0.019911 0
M  V30 5846 H 550.535 3.05094 2.27371 0
M  V30 5847 H 550.047 3.83053 0.623882 0
M  V30 5848 H 548.148 2.54072 2.7254 0
M  V30 5849 H 548.261 4.3131 2.08588 0
M  V30 5850 H 546.625 2.24915 1.19521 0
M  V30 5851 H 547.408 3.43297 0.0152883 0
M  V30 5852 N 549.853 -0.472356 1.50355 0
M  V30 5853 C 550.803 -1.56809 1.65514 0
M  V30 5854 C 551.787 -1.5261 0.509801 0
M  V30 5855 O 552.979 -1.59655 0.764145 0
M  V30 5856 C 550.108 -2.9526 1.75146 0
M  V30 5857 C 549.194 -3.04348 2.95353 0
M  V30 5858 N 549.585 -2.83253 4.19048 0
M  V30 5859 C 547.883 -3.35482 2.93884 0
M  V30 5860 C 548.584 -2.97273 5.00003 0
M  V30 5861 N 547.56 -3.27418 4.33934 0
M  V30 5862 H 551.362 -1.39197 2.58846 0
M  V30 5863 H 548.876 -0.67906 1.47521 0
M  V30 5864 H 550.873 -3.74044 1.8411 0
M  V30 5865 H 549.533 -3.1392 0.829717 0
M  V30 5866 H 550.544 -2.5886 4.48567 0
M  V30 5867 H 547.221 -3.60138 2.11204 0
M  V30 5868 H 548.611 -2.85214 6.08361 0
M  V30 5869 N 551.331 -1.39911 -0.725443 0
M  V30 5870 C 552.577 -1.37858 -1.48738 0
M  V30 5871 C 552.91 0.0224187 -1.94187 0
M  V30 5872 O 552.185 0.989204 -1.67466 0
M  V30 5873 C 552.468 -2.3594 -2.72038 0
M  V30 5874 C 552.321 -3.85023 -2.32546 0
M  V30 5875 C 553.64 -2.31704 -3.74167 0
M  V30 5876 H 550.759 -0.502074 -0.539528 0
M  V30 5877 H 553.401 -1.70974 -0.828728 0
M  V30 5878 H 551.551 -2.0783 -3.28236 0
M  V30 5879 H 553.223 -4.2392 -1.81905 0
M  V30 5880 H 551.466 -4.01334 -1.64661 0
M  V30 5881 H 552.137 -4.49152 -3.20884 0
M  V30 5882 H 554.613 -2.5658 -3.27576 0
M  V30 5883 H 553.489 -3.02395 -4.58092 0
M  V30 5884 H 553.75 -1.3253 -4.21768 0
M  V30 5885 N 552.809 0.956637 -1.25245 0
M  V30 5886 C 553.757 2.0743 -1.0524 0
M  V30 5887 C 554.751 1.69392 0.0160725 0
M  V30 5888 O 555.957 1.7946 -0.139382 0
M  V30 5889 H 552.332 0.678921 -0.323373 0
M  V30 5890 H 554.303 2.2146 -1.99995 0
M  V30 5891 C 553.052 3.40872 -0.685702 0
M  V30 5892 H 552.375 3.70607 -1.49968 0
M  V30 5893 H 553.815 4.19939 -0.585415 0
M  V30 5894 C 552.274 3.31367 0.608082 0
M  V30 5895 O 552.804 3.66214 1.65076 0
M  V30 5896 N 551.01 2.84486 0.592955 0
M  V30 5897 H 550.557 2.56326 -0.25592 0
M  V30 5898 H 550.515 2.78509 1.45877 0
M  V30 5899 N 554.287 1.06798 1.15896 0
M  V30 5900 C 555.535 0.786211 1.8618 0
M  V30 5901 C 555.856 -0.689547 1.82401 0
M  V30 5902 O 555.126 -1.49913 1.26107 0
M  V30 5903 H 553.706 0.287843 0.689315 0
M  V30 5904 H 556.368 1.35055 1.40521 0
M  V30 5905 H 555.464 1.1157 2.91477 0
M  V30 5906 N 555.766 -1.3263 0.851289 0
M  V30 5907 C 557.012 -1.9766 0.453694 0
M  V30 5908 C 557.345 -1.67225 -0.987396 0
M  V30 5909 O 556.62 -0.958693 -1.69232 0
M  V30 5910 C 556.903 -3.5344 0.68936 0
M  V30 5911 C 556.756 -3.93517 2.17862 0
M  V30 5912 C 558.075 -4.39866 0.143555 0
M  V30 5913 H 555.194 -0.717989 0.166314 0
M  V30 5914 H 557.836 -1.57068 1.06909 0
M  V30 5915 H 555.986 -3.88147 0.165546 0
M  V30 5916 H 557.658 -3.69006 2.76826 0
M  V30 5917 H 555.901 -3.42798 2.65841 0
M  V30 5918 H 556.572 -5.02065 2.29422 0
M  V30 5919 H 559.048 -4.11875 0.591451 0
M  V30 5920 H 557.924 -5.47858 0.338043 0
M  V30 5921 H 558.185 -4.31696 -0.953466 0
M  V30 5922 N 557.244 -0.608902 -1.45362 0
M  V30 5923 C 558.491 -0.104607 -2.0223 0
M  V30 5924 C 558.819 1.26534 -1.47714 0
M  V30 5925 O 558.074 1.84855 -0.642435 0
M  V30 5926 C 558.373 -0.0167296 -3.57396 0
M  V30 5927 C 558.039 -1.32251 -4.31069 0
M  V30 5928 C 556.701 -1.68019 -4.50914 0
M  V30 5929 C 559.053 -2.18542 -4.73169 0
M  V30 5930 C 556.381 -2.89828 -5.10114 0
M  V30 5931 C 558.733 -3.39602 -5.33717 0
M  V30 5932 C 557.397 -3.7562 -5.51784 0
M  V30 5933 H 556.667 -0.0382785 -0.740011 0
M  V30 5934 H 559.314 -0.790782 -1.7441 0
M  V30 5935 H 557.619 0.752715 -3.84502 0
M  V30 5936 H 559.316 0.389634 -3.99103 0
M  V30 5937 H 555.906 -1.03411 -4.15938 0
M  V30 5938 H 560.09 -1.92208 -4.5757 0
M  V30 5939 H 555.346 -3.17839 -5.22291 0
M  V30 5940 H 559.52 -4.06716 -5.65292 0
M  V30 5941 H 557.147 -4.70093 -5.97425 0
M  V30 5942 N 558.722 1.53707 -0.348139 0
M  V30 5943 C 559.969 2.00988 0.246966 0
M  V30 5944 C 560.297 1.23586 1.50189 0
M  V30 5945 O 559.552 0.312817 1.93184 0
M  V30 5946 C 559.851 3.52292 0.602061 0
M  V30 5947 C 559.517 4.47453 -0.556509 0
M  V30 5948 C 558.179 4.73188 -0.874446 0
M  V30 5949 C 560.531 5.03851 -1.33354 0
M  V30 5950 C 557.859 5.52577 -1.9717 0
M  V30 5951 C 560.211 5.84437 -2.42108 0
M  V30 5952 C 558.875 6.08465 -2.74456 0
M  V30 5953 H 558.145 0.735469 0.0903712 0
M  V30 5954 H 560.792 1.85464 -0.477001 0
M  V30 5955 H 559.097 3.65672 1.40681 0
M  V30 5956 H 560.794 3.86337 1.07447 0
M  V30 5957 H 557.384 4.27558 -0.298652 0
M  V30 5958 H 561.568 4.8393 -1.10117 0
M  V30 5959 H 556.824 5.69418 -2.22651 0
M  V30 5960 H 560.998 6.27151 -3.02745 0
M  V30 5961 H 558.625 6.69768 -3.59604 0
M  V30 5962 N 560.2 0.0768682 1.57412 0
M  V30 5963 C 561.148 -0.906229 2.1422 0
M  V30 5964 C 562.142 -1.30477 1.08037 0
M  V30 5965 O 563.348 -1.28143 1.2641 0
M  V30 5966 H 559.723 -0.310207 0.685037 0
M  V30 5967 H 561.694 -0.402228 2.95677 0
M  V30 5968 C 560.443 -2.16245 2.72274 0
M  V30 5969 H 559.766 -1.86463 3.53655 0
M  V30 5970 H 561.206 -2.83134 3.15613 0
M  V30 5971 C 559.665 -2.92437 1.67279 0
M  V30 5972 O 560.195 -3.86322 1.10081 0
M  V30 5973 N 558.401 -2.55637 1.38195 0
M  V30 5974 H 557.948 -1.79363 1.84897 0
M  V30 5975 H 557.906 -3.06919 0.681787 0
M  V30 5976 N 561.678 -1.56367 -0.196722 0
M  V30 5977 C 562.926 -1.80172 -0.915554 0
M  V30 5978 C 563.247 -0.649649 -1.8386 0
M  V30 5979 O 562.517 0.332111 -1.93064 0
M  V30 5980 H 561.097 -0.664592 -0.341067 0
M  V30 5981 H 563.759 -1.93844 -0.202622 0
M  V30 5982 H 562.855 -2.7327 -1.50764 0
M  V30 5983 N 563.156 0.464375 -1.50603 0
M  V30 5984 C 564.405 1.21277 -1.61167 0
M  V30 5985 C 564.718 1.92953 -0.320704 0
M  V30 5986 O 565.924 2.69778 -0.30534 0
M  V30 5987 C 564.38 2.20403 -2.84518 0
M  V30 5988 C 563.988 1.54499 -4.20516 0
M  V30 5989 C 565.732 2.95843 -3.0443 0
M  V30 5990 C 563.639 2.51951 -5.35047 0
M  V30 5991 H 562.569 0.456367 -0.600204 0
M  V30 5992 H 565.22 0.48254 -1.77042 0
M  V30 5993 H 563.602 2.96746 -2.62217 0
M  V30 5994 H 564.776 0.83899 -4.53098 0
M  V30 5995 H 563.091 0.913152 -4.06264 0
M  V30 5996 H 565.688 3.6879 -3.87167 0
M  V30 5997 H 566.031 3.55622 -2.16423 0
M  V30 5998 H 566.564 2.26611 -3.26944 0
M  V30 5999 H 563.303 1.96901 -6.25228 0
M  V30 6000 H 562.823 3.20683 -5.06875 0
M  V30 6001 H 564.502 3.13643 -5.65895 0
M  V30 6002 N 564.634 1.40294 0.718013 0
M  V30 6003 C 565.883 1.37746 1.4734 0
M  V30 6004 C 566.196 -0.0180754 1.95592 0
M  V30 6005 O 567.402 -0.166166 2.70991 0
M  V30 6006 C 565.858 2.4208 2.66318 0
M  V30 6007 C 565.466 3.87432 2.24945 0
M  V30 6008 C 567.21 2.48635 3.44065 0
M  V30 6009 C 565.117 4.83368 3.40748 0
M  V30 6010 H 564.047 0.512165 0.553356 0
M  V30 6011 H 566.698 1.66019 0.781661 0
M  V30 6012 H 565.08 2.06903 3.3765 0
M  V30 6013 H 566.254 4.3174 1.6105 0
M  V30 6014 H 564.569 3.8433 1.60249 0
M  V30 6015 H 567.166 3.17499 4.30231 0
M  V30 6016 H 567.509 1.51611 3.87711 0
M  V30 6017 H 568.042 2.82791 2.79775 0
M  V30 6018 H 564.781 5.81716 3.02136 0
M  V30 6019 H 564.301 4.43726 4.03568 0
M  V30 6020 H 565.98 5.03074 4.06848 0
M  V30 6021 N 566.112 -0.949982 1.2575 0
M  V30 6022 C 567.042 -2.06483 1.09028 0
M  V30 6023 C 568.023 -1.701 -0.00201532 0
M  V30 6024 O 569.208 -1.93469 0.168383 0
M  V30 6025 C 566.338 -3.39899 0.71316 0
M  V30 6026 C 565.292 -3.90309 1.75621 0
M  V30 6027 C 564.618 -5.20274 1.23365 0
M  V30 6028 C 565.918 -4.16169 3.15596 0
M  V30 6029 H 567.612 -2.20731 2.02283 0
M  V30 6030 H 565.158 -1.06066 0.973964 0
M  V30 6031 H 567.111 -4.17346 0.58309 0
M  V30 6032 H 565.835 -3.25602 -0.255091 0
M  V30 6033 H 564.494 -3.15035 1.8748 0
M  V30 6034 H 564.142 -5.02351 0.255491 0
M  V30 6035 H 563.842 -5.54971 1.93082 0
M  V30 6036 H 565.366 -6.00314 1.11607 0
M  V30 6037 H 566.78 -4.84259 3.06864 0
M  V30 6038 H 565.177 -4.62131 3.82825 0
M  V30 6039 H 566.247 -3.22273 3.6231 0
M  V30 6040 N 567.59 -1.07411 -1.15328 0
M  V30 6041 C 568.838 -0.796073 -1.85761 0
M  V30 6042 C 569.159 0.679864 -1.82764 0
M  V30 6043 O 568.429 1.49242 -1.269 0
M  V30 6044 H 567.009 -0.291495 -0.687779 0
M  V30 6045 H 569.671 -1.35799 -1.39802 0
M  V30 6046 H 568.767 -1.13114 -2.90881 0
M  V30 6047 N 569.068 1.32177 -0.85831 0
M  V30 6048 C 570.479 1.79381 -0.517621 0
M  V30 6049 C 570.83 1.70841 0.964769 0
M  V30 6050 O 569.955 1.26917 1.75274 0
M  V30 6051 C 570.55 3.25706 -0.932801 0
M  V30 6052 C 569.109 3.70851 -0.643953 0
M  V30 6053 C 568.256 2.53208 -1.13054 0
M  V30 6054 H 571.207 1.19424 -1.04516 0
M  V30 6055 H 571.228 3.79673 -0.250674 0
M  V30 6056 H 570.74 3.31889 -2.01174 0
M  V30 6057 H 568.841 3.70178 0.424112 0
M  V30 6058 H 568.954 4.63495 -1.21281 0
M  V30 6059 H 567.318 2.48676 -0.550679 0
M  V30 6060 H 568.101 2.62143 -2.21666 0
M  V30 6061 N 570.547 0.616602 1.45037 0
M  V30 6062 C 571.824 0.0469086 1.95544 0
M  V30 6063 C 572.204 -1.42345 1.55888 0
M  V30 6064 O 571.552 -2.13055 0.825824 0
M  V30 6065 C 571.762 0.254489 3.48071 0
M  V30 6066 C 573.11 0.140025 4.24369 0
M  V30 6067 O 574.134 0.185084 3.55719 0
M  V30 6068 O 572.993 0.0327034 5.4649 0
M  V30 6069 H 570.087 -0.0306051 0.826433 0
M  V30 6070 H 572.633 0.687293 1.55159 0
M  V30 6071 H 571.405 1.27532 3.69934 0
M  V30 6072 H 571.028 -0.42073 3.95368 0
M  V30 6073 N 572.025 -1.5352 0.356285 0
M  V30 6074 C 573.273 -2.00719 -0.235837 0
M  V30 6075 C 573.594 -1.24551 -1.5004 0
M  V30 6076 O 572.864 -0.356185 -1.92635 0
M  V30 6077 H 571.444 -0.741542 -0.0901366 0
M  V30 6078 H 574.106 -1.88887 0.480378 0
M  V30 6079 H 573.202 -3.08551 -0.469357 0
M  V30 6080 N 573.503 -0.0852151 -1.57369 0
M  V30 6081 C 574.451 0.894856 -2.14698 0
M  V30 6082 C 575.445 1.29903 -1.08727 0
M  V30 6083 O 576.651 1.27471 -1.27088 0
M  V30 6084 H 573.026 0.306569 -0.686673 0
M  V30 6085 H 574.997 0.386542 -2.95886 0
M  V30 6086 C 573.746 2.14798 -2.73417 0
M  V30 6087 H 573.069 1.84585 -3.54638 0
M  V30 6088 H 574.509 2.81456 -3.1711 0
M  V30 6089 C 572.968 2.91546 -1.68828 0
M  V30 6090 O 573.498 3.85733 -1.12129 0
M  V30 6091 N 571.704 2.54901 -1.39549 0
M  V30 6092 H 571.251 1.7838 -1.85845 0
M  V30 6093 H 571.209 3.06553 -0.698054 0
M  V30 6094 N 574.981 1.5647 0.188427 0
M  V30 6095 C 576.227 1.81281 0.909124 0
M  V30 6096 C 576.56 0.66034 1.82628 0
M  V30 6097 O 575.835 -0.338737 1.91528 0
M  V30 6098 C 576.118 3.16388 1.7196 0
M  V30 6099 C 575.971 4.42137 0.826714 0
M  V30 6100 C 577.29 3.48256 2.69083 0
M  V30 6101 H 574.409 0.659457 0.329068 0
M  V30 6102 H 577.051 1.89182 0.176156 0
M  V30 6103 H 575.201 3.09784 2.34448 0
M  V30 6104 H 576.873 4.60794 0.216025 0
M  V30 6105 H 575.116 4.33594 0.133792 0
M  V30 6106 H 575.787 5.33184 1.42893 0
M  V30 6107 H 578.263 3.55203 2.16726 0
M  V30 6108 H 577.139 4.43899 3.2287 0
M  V30 6109 H 577.4 2.72088 3.48455 0
M  V30 6110 N 576.459 -0.456382 1.50847 0
M  V30 6111 C 577.389 -1.56025 1.73719 0
M  V30 6112 C 578.37 -1.5967 0.586473 0
M  V30 6113 O 579.555 -1.75702 0.827185 0
M  V30 6114 C 576.685 -2.94251 1.84483 0
M  V30 6115 C 575.639 -3.05471 2.99786 0
M  V30 6116 C 574.965 -4.45489 2.95709 0
M  V30 6117 C 576.265 -2.81318 4.40065 0
M  V30 6118 H 577.959 -1.37138 2.66146 0
M  V30 6119 H 575.505 -0.658299 1.28072 0
M  V30 6120 H 577.458 -3.71417 1.99067 0
M  V30 6121 H 576.182 -3.14328 0.886891 0
M  V30 6122 H 574.841 -2.30741 2.84876 0
M  V30 6123 H 574.489 -4.62505 1.97732 0
M  V30 6124 H 574.189 -4.53929 3.73125 0
M  V30 6125 H 575.713 -5.24655 3.12362 0
M  V30 6126 H 577.127 -3.48226 4.55425 0
M  V30 6127 H 575.524 -3.01188 5.19043 0
M  V30 6128 H 576.594 -1.7706 4.51418 0
M  V30 6129 N 577.937 -1.40673 -0.710563 0
M  V30 6130 C 579.186 -1.38525 -1.46607 0
M  V30 6131 C 579.499 0.0077024 -1.95598 0
M  V30 6132 O 580.705 0.151792 -2.71075 0
M  V30 6133 C 579.161 -2.43489 -2.6503 0
M  V30 6134 C 578.769 -3.88619 -2.22888 0
M  V30 6135 C 580.513 -2.50456 -3.42742 0
M  V30 6136 C 578.42 -4.85168 -3.3818 0
M  V30 6137 H 577.35 -0.515092 -0.550632 0
M  V30 6138 H 580.001 -1.66431 -0.772846 0
M  V30 6139 H 578.383 -2.0869 -3.36548 0
M  V30 6140 H 579.557 -4.32588 -1.58758 0
M  V30 6141 H 577.872 -3.85174 -1.58208 0
M  V30 6142 H 580.469 -3.19776 -4.28541 0
M  V30 6143 H 580.812 -1.53665 -3.86902 0
M  V30 6144 H 581.345 -2.84271 -2.78271 0
M  V30 6145 H 578.084 -5.8331 -2.99047 0
M  V30 6146 H 577.604 -4.4586 -4.01209 0
M  V30 6147 H 579.283 -5.05225 -4.04174 0
M  V30 6148 N 579.415 0.9433 -1.26252 0
M  V30 6149 C 580.826 1.50404 -1.10614 0
M  V30 6150 C 581.177 1.93666 0.31429 0
M  V30 6151 O 580.302 1.79709 1.20555 0
M  V30 6152 C 580.897 2.73336 -2.00182 0
M  V30 6153 C 579.456 3.25686 -1.88695 0
M  V30 6154 C 578.603 1.98474 -1.93658 0
M  V30 6155 H 581.554 0.759006 -1.39373 0
M  V30 6156 H 581.575 3.47567 -1.54847 0
M  V30 6157 H 581.087 2.41818 -3.03555 0
M  V30 6158 H 579.188 3.61998 -0.882489 0
M  V30 6159 H 579.301 3.92935 -2.74115 0
M  V30 6160 H 577.665 2.14278 -1.37684 0
M  V30 6161 H 578.448 1.6929 -2.98657 0
M  V30 6162 N 580.893 1.08022 1.14757 0
M  V30 6163 C 581.803 0.718292 2.23333 0
M  V30 6164 C 582.819 -0.273477 1.71837 0
M  V30 6165 O 583.995 -0.118406 2.01052 0
M  V30 6166 C 581.06 0.128855 3.4646 0
M  V30 6167 C 580.121 1.17473 4.12915 0
M  V30 6168 C 579.354 0.61333 5.30164 0
M  V30 6169 O 579.577 -0.568458 5.6756 0
M  V30 6170 O 578.511 1.3615 5.86299 0
M  V30 6171 H 582.337 1.62394 2.56636 0
M  V30 6172 H 579.922 0.853628 1.22611 0
M  V30 6173 H 581.804 -0.197249 4.20938 0
M  V30 6174 H 580.479 -0.750014 3.14891 0
M  V30 6175 H 579.386 1.5533 3.40328 0
M  V30 6176 H 580.719 2.02574 4.48581 0
M  V30 6177 N 582.371 -1.3172 0.865308 0
M  V30 6178 C 583.304 -2.26687 0.262376 0
M  V30 6179 C 584.282 -1.50894 -0.605787 0
M  V30 6180 O 585.466 -1.79982 -0.56024 0
M  V30 6181 C 582.593 -3.3281 -0.628915 0
M  V30 6182 C 581.639 -4.26172 0.167278 0
M  V30 6183 S 582.472 -5.12797 1.54272 0
M  V30 6184 C 583.628 -6.22438 0.657427 0
M  V30 6185 H 583.861 -2.77478 1.0674 0
M  V30 6186 H 581.394 -1.39414 0.663555 0
M  V30 6187 H 583.352 -3.94426 -1.13747 0
M  V30 6188 H 582.013 -2.80782 -1.40785 0
M  V30 6189 H 581.206 -5.01392 -0.51203 0
M  V30 6190 H 580.808 -3.69029 0.607777 0
M  V30 6191 H 583.1 -6.77368 -0.133925 0
M  V30 6192 H 584.043 -6.9451 1.38061 0
M  V30 6193 H 584.451 -5.64043 0.227044 0
M  V30 6194 N 583.85 -0.624285 -1.44708 0
M  V30 6195 C 584.782 0.12305 -2.28869 0
M  V30 6196 C 585.795 0.81557 -1.40898 0
M  V30 6197 O 586.984 0.678162 -1.65116 0
M  V30 6198 C 584.084 1.19612 -3.1709 0
M  V30 6199 C 583.257 0.587452 -4.33437 0
M  V30 6200 C 582.316 1.55358 -5.02743 0
M  V30 6201 O 581.341 1.07338 -5.58988 0
M  V30 6202 N 582.543 2.88798 -5.03563 0
M  V30 6203 H 585.308 -0.599193 -2.93649 0
M  V30 6204 H 582.87 -0.464954 -1.5508 0
M  V30 6205 H 584.861 1.84261 -3.60319 0
M  V30 6206 H 583.432 1.82067 -2.54107 0
M  V30 6207 H 582.652 -0.237509 -3.93484 0
M  V30 6208 H 583.94 0.161326 -5.08544 0
M  V30 6209 H 583.338 3.30399 -4.59188 0
M  V30 6210 H 581.894 3.48826 -5.50603 0
M  V30 6211 N 585.328 1.53329 -0.364422 0
M  V30 6212 C 586.553 2.06132 0.229033 0
M  V30 6213 C 586.978 1.23625 1.41769 0
M  V30 6214 O 586.336 0.255038 1.79497 0
M  V30 6215 C 586.384 3.55544 0.60174 0
M  V30 6216 O 585.488 3.75771 1.69912 0
M  V30 6217 H 584.829 0.663148 0.0336213 0
M  V30 6218 H 587.359 1.97758 -0.524689 0
M  V30 6219 H 587.369 3.98549 0.873073 0
M  V30 6220 H 586.044 4.15039 -0.267421 0
M  V30 6221 H 584.621 3.44663 1.42343 0
M  V30 6222 N 586.806 0.0935595 1.57322 0
M  V30 6223 C 588.031 -0.582324 1.99057 0
M  V30 6224 C 588.456 -1.61025 0.972242 0
M  V30 6225 O 587.814 -1.81202 -0.0594622 0
M  V30 6226 C 587.862 -1.20799 3.39765 0
M  V30 6227 O 586.966 -2.32382 3.40694 0
M  V30 6228 H 586.307 -0.147884 0.647323 0
M  V30 6229 H 588.837 0.174516 2.03854 0
M  V30 6230 H 588.847 -1.54966 3.77425 0
M  V30 6231 H 587.522 -0.454914 4.13405 0
M  V30 6232 H 586.099 -1.99845 3.14827 0
M  V30 6233 N 588.284 -1.56567 -0.180126 0
M  V30 6234 C 589.214 -1.98753 -1.22553 0
M  V30 6235 C 590.195 -0.86175 -1.46656 0
M  V30 6236 O 591.38 -1.12719 -1.58139 0
M  V30 6237 C 588.51 -2.33988 -2.56645 0
M  V30 6238 C 587.464 -3.49445 -2.47128 0
M  V30 6239 C 586.79 -3.70397 -3.8563 0
M  V30 6240 C 588.09 -4.83171 -1.98352 0
M  V30 6241 H 589.784 -2.86332 -0.874896 0
M  V30 6242 H 587.33 -1.37757 -0.419414 0
M  V30 6243 H 589.283 -2.62097 -3.29974 0
M  V30 6244 H 588.007 -1.43309 -2.93479 0
M  V30 6245 H 586.666 -3.2145 -1.76254 0
M  V30 6246 H 586.314 -2.77023 -4.19842 0
M  V30 6247 H 586.014 -4.48077 -3.80132 0
M  V30 6248 H 587.538 -4.00897 -4.60558 0
M  V30 6249 H 588.952 -5.10213 -2.61449 0
M  V30 6250 H 587.349 -5.64425 -2.03823 0
M  V30 6251 H 588.419 -4.75753 -0.937402 0
M  V30 6252 N 589.762 0.448376 -1.51087 0
M  V30 6253 C 590.692 1.55102 -1.74544 0
M  V30 6254 C 591.673 1.59357 -0.594932 0
M  V30 6255 O 592.858 1.75261 -0.836491 0
M  V30 6256 C 589.988 2.93268 -1.86041 0
M  V30 6257 C 588.942 3.03877 -3.01402 0
M  V30 6258 C 588.268 4.43914 -2.98068 0
M  V30 6259 C 589.568 2.7898 -4.41551 0
M  V30 6260 H 591.262 1.35724 -2.66869 0
M  V30 6261 H 588.808 0.651498 -1.28419 0
M  V30 6262 H 590.761 3.70356 -2.01034 0
M  V30 6263 H 589.485 3.13853 -0.903548 0
M  V30 6264 H 588.144 2.29227 -2.86096 0
M  V30 6265 H 587.792 4.6145 -2.00182 0
M  V30 6266 H 587.492 4.51944 -3.75527 0
M  V30 6267 H 589.016 5.22991 -3.1514 0
M  V30 6268 H 590.43 3.45805 -4.57265 0
M  V30 6269 H 588.827 2.98431 -5.20633 0
M  V30 6270 H 589.897 1.74663 -4.5235 0
M  V30 6271 N 591.24 1.41047 0.703093 0
M  V30 6272 C 592.172 1.38228 1.82827 0
M  V30 6273 C 593.185 0.285637 1.60275 0
M  V30 6274 O 594.374 0.54685 1.69917 0
M  V30 6275 C 591.474 1.13136 3.19458 0
M  V30 6276 C 590.647 2.34695 3.69103 0
M  V30 6277 C 589.706 2.05574 4.84382 0
M  V30 6278 O 588.732 2.78549 4.96386 0
M  V30 6279 N 589.934 1.04135 5.71083 0
M  V30 6280 H 592.699 2.35203 1.85741 0
M  V30 6281 H 590.26 1.35562 0.885125 0
M  V30 6282 H 592.252 0.916183 3.94193 0
M  V30 6283 H 590.822 0.247836 3.11616 0
M  V30 6284 H 590.042 2.71963 2.85359 0
M  V30 6285 H 591.33 3.15705 3.99009 0
M  V30 6286 H 590.728 0.43722 5.64008 0
M  V30 6287 H 589.285 0.886078 6.45749 0
M  V30 6288 N 592.718 -0.936591 1.26751 0
M  V30 6289 C 593.65 -2.03991 1.045 0
M  V30 6290 C 594.663 -1.628 0.00394261 0
M  V30 6291 O 595.852 -1.76817 0.244526 0
M  V30 6292 C 592.952 -3.34218 0.561403 0
M  V30 6293 C 592.125 -4.04151 1.67274 0
M  V30 6294 C 591.184 -5.12651 1.1864 0
M  V30 6295 O 590.21 -5.37104 1.88437 0
M  V30 6296 N 591.412 -5.80488 0.037278 0
M  V30 6297 H 594.177 -2.23644 1.99508 0
M  V30 6298 H 591.738 -1.10638 1.18198 0
M  V30 6299 H 593.73 -4.04101 0.220136 0
M  V30 6300 H 592.3 -3.11203 -0.295211 0
M  V30 6301 H 591.52 -3.28121 2.18472 0
M  V30 6302 H 592.808 -4.47626 2.41885 0
M  V30 6303 H 592.206 -5.63064 -0.545494 0
M  V30 6304 H 590.763 -6.5134 -0.244877 0
M  V30 6305 N 594.196 -1.08629 -1.14182 0
M  V30 6306 C 595.146 -0.687882 -2.17376 0
M  V30 6307 C 596.13 0.293632 -1.58198 0
M  V30 6308 O 597.322 0.105292 -1.76687 0
M  V30 6309 C 594.451 -0.101184 -3.43151 0
M  V30 6310 C 593.537 -1.10862 -4.09354 0
M  V30 6311 N 593.928 -2.29285 -4.50846 0
M  V30 6312 C 592.226 -0.944897 -4.35876 0
M  V30 6313 C 592.927 -2.93305 -5.02342 0
M  V30 6314 N 591.903 -2.20903 -4.96692 0
M  V30 6315 H 595.705 -1.58963 -2.472 0
M  V30 6316 H 593.219 -0.961329 -1.3089 0
M  V30 6317 H 595.216 0.202209 -4.16409 0
M  V30 6318 H 593.876 0.795522 -3.14804 0
M  V30 6319 H 594.887 -2.66927 -4.43813 0
M  V30 6320 H 591.564 -0.102186 -4.17375 0
M  V30 6321 H 592.954 -3.93932 -5.44304 0
M  V30 6322 N 595.674 1.31259 -0.872281 0
M  V30 6323 C 596.607 2.26544 -0.274394 0
M  V30 6324 C 597.585 1.51213 0.597776 0
M  V30 6325 O 598.769 1.80277 0.550687 0
M  V30 6326 C 595.896 3.33139 0.611256 0
M  V30 6327 C 594.942 4.26077 -0.189876 0
M  V30 6328 S 595.775 5.11971 -1.56989 0
M  V30 6329 C 596.931 6.2208 -0.690427 0
M  V30 6330 H 597.164 2.76908 -1.0821 0
M  V30 6331 H 594.697 1.3906 -0.670939 0
M  V30 6332 H 596.655 3.95024 1.11654 0
M  V30 6333 H 595.316 2.81525 1.39294 0
M  V30 6334 H 594.509 5.01657 0.485433 0
M  V30 6335 H 594.111 3.68701 -0.627339 0
M  V30 6336 H 596.403 6.77429 0.098001 0
M  V30 6337 H 597.346 6.93768 -1.41742 0
M  V30 6338 H 597.754 5.63915 -0.256953 0
M  V30 6339 N 597.152 0.631951 1.44375 0
M  V30 6340 C 598.062 -0.073674 2.34484 0
M  V30 6341 C 599.078 -0.834825 1.52665 0
M  V30 6342 O 600.254 -0.786902 1.85391 0
M  V30 6343 C 597.319 -1.04247 3.30656 0
M  V30 6344 C 596.38 -0.280602 4.28382 0
M  V30 6345 C 595.613 -1.20325 5.19959 0
M  V30 6346 O 595.836 -2.44199 5.15484 0
M  V30 6347 O 594.77 -0.687128 5.97965 0
M  V30 6348 H 598.596 0.667477 2.96274 0
M  V30 6349 H 596.181 0.392144 1.44162 0
M  V30 6350 H 598.063 -1.59981 3.89851 0
M  V30 6351 H 596.738 -1.76422 2.71398 0
M  V30 6352 H 595.645 0.319804 3.72731 0
M  V30 6353 H 596.978 0.401144 4.90563 0
M  V30 6354 N 598.631 -1.53133 0.372548 0
M  V30 6355 C 599.561 -2.28876 -0.462412 0
M  V30 6356 C 600.542 -1.31583 -1.07796 0
M  V30 6357 O 601.727 -1.60461 -1.09389 0
M  V30 6358 C 598.857 -3.08317 -1.59868 0
M  V30 6359 C 597.811 -4.13355 -1.11003 0
M  V30 6360 C 597.137 -4.8092 -2.33708 0
M  V30 6361 C 598.437 -5.21955 -0.18983 0
M  V30 6362 H 600.131 -2.9892 0.169511 0
M  V30 6363 H 597.677 -1.43761 0.0829658 0
M  V30 6364 H 599.63 -3.60055 -2.18949 0
M  V30 6365 H 598.354 -2.35976 -2.25794 0
M  V30 6366 H 597.013 -3.62573 -0.541869 0
M  V30 6367 H 596.661 -4.05144 -2.98106 0
M  V30 6368 H 596.361 -5.51904 -2.01682 0
M  V30 6369 H 597.885 -5.35455 -2.93462 0
M  V30 6370 H 599.299 -5.69153 -0.688319 0
M  V30 6371 H 597.696 -6.00087 0.0398887 0
M  V30 6372 H 598.766 -4.78811 0.766057 0
M  V30 6373 N 600.109 -0.101901 -1.5727 0
M  V30 6374 C 601.039 0.851544 -2.17419 0
M  V30 6375 C 602.02 1.28942 -1.10941 0
M  V30 6376 O 603.205 1.35509 -1.39107 0
M  V30 6377 C 600.335 2.10816 -2.75996 0
M  V30 6378 C 599.289 1.80867 -3.87906 0
M  V30 6379 C 598.615 3.13413 -4.33216 0
M  V30 6380 C 599.915 1.0903 -5.10793 0
M  V30 6381 H 601.609 0.350381 -2.97343 0
M  V30 6382 H 599.155 0.16709 -1.43027 0
M  V30 6383 H 601.108 2.77959 -3.16729 0
M  V30 6384 H 599.832 2.63227 -1.93337 0
M  V30 6385 H 598.491 1.16119 -3.47724 0
M  V30 6386 H 598.139 3.63725 -3.47438 0
M  V30 6387 H 597.839 2.94155 -5.08671 0
M  V30 6388 H 599.363 3.81704 -4.76586 0
M  V30 6389 H 600.777 1.66295 -5.48652 0
M  V30 6390 H 599.174 0.99927 -5.91722 0
M  V30 6391 H 600.244 0.0741704 -4.84843 0
M  V30 6392 N 601.587 1.56661 0.17182 0
M  V30 6393 C 602.833 1.82235 0.889845 0
M  V30 6394 C 603.166 0.679673 1.81918 0
M  V30 6395 O 602.441 -0.318404 1.91876 0
M  V30 6396 C 602.724 3.18195 1.68595 0
M  V30 6397 C 602.577 4.42989 0.779773 0
M  V30 6398 C 603.896 3.5109 2.65375 0
M  V30 6399 H 601.015 0.66291 0.322056 0
M  V30 6400 H 603.657 1.89358 0.15608 0
M  V30 6401 H 601.807 3.12253 2.3115 0
M  V30 6402 H 603.479 4.60997 0.16714 0
M  V30 6403 H 601.722 4.33711 0.0877964 0
M  V30 6404 H 602.393 5.3467 1.3723 0
M  V30 6405 H 604.869 3.57482 2.12946 0
M  V30 6406 H 603.745 4.47298 3.18144 0
M  V30 6407 H 604.006 2.75768 3.45549 0
M  V30 6408 N 603.065 -0.440357 1.51323 0
M  V30 6409 C 604.29 -1.21716 1.67928 0
M  V30 6410 C 604.715 -1.84328 0.374826 0
M  V30 6411 O 604.073 -1.68675 -0.664706 0
M  V30 6412 C 604.121 -2.27914 2.79442 0
M  V30 6413 O 603.225 -3.33325 2.42834 0
M  V30 6414 H 602.566 -0.35674 0.560029 0
M  V30 6415 H 605.096 -0.520417 1.97871 0
M  V30 6416 H 605.106 -2.72746 3.03436 0
M  V30 6417 H 603.781 -1.8172 3.741 0
M  V30 6418 H 602.358 -2.9399 2.294 0
M  V30 6419 N 604.543 -1.41418 -0.695603 0
M  V30 6420 C 605.768 -1.44329 -1.48942 0
M  V30 6421 C 606.193 -0.0501579 -1.88033 0
M  V30 6422 O 605.551 0.946598 -1.54626 0
M  V30 6423 C 605.599 -2.3578 -2.72837 0
M  V30 6424 O 604.703 -1.81482 -3.70322 0
M  V30 6425 H 604.044 -0.489838 -0.44828 0
M  V30 6426 H 606.574 -1.85878 -0.855014 0
M  V30 6427 H 606.584 -2.51654 -3.21145 0
M  V30 6428 H 605.259 -3.37005 -2.43722 0
M  V30 6429 H 603.836 -1.75058 -3.29255 0
M  V30 6430 N 606.021 0.929856 -1.27246 0
M  V30 6431 C 607.267 1.6798 -1.13625 0
M  V30 6432 C 607.6 1.91586 0.317589 0
M  V30 6433 O 606.875 1.50467 1.23247 0
M  V30 6434 C 607.158 3.04766 -1.91806 0
M  V30 6435 C 607.011 2.88415 -3.45162 0
M  V30 6436 C 608.33 4.05063 -1.72082 0
M  V30 6437 H 605.449 0.609632 -0.414147 0
M  V30 6438 H 608.091 1.0792 -1.56376 0
M  V30 6439 H 606.241 3.56034 -1.55474 0
M  V30 6440 H 607.913 2.44282 -3.91311 0
M  V30 6441 H 606.156 2.23802 -3.71611 0
M  V30 6442 H 606.827 3.85482 -3.95105 0
M  V30 6443 H 609.303 3.62798 -2.03757 0
M  V30 6444 H 608.179 4.98765 -2.29182 0
M  V30 6445 H 608.44 4.37021 -0.668206 0
M  V30 6446 N 607.499 1.09233 1.13605 0
M  V30 6447 C 608.748 0.82205 1.84188 0
M  V30 6448 C 609.061 -0.654548 1.84323 0
M  V30 6449 O 610.267 -1.04029 2.50779 0
M  V30 6450 C 608.723 1.42066 3.30674 0
M  V30 6451 C 608.331 2.92965 3.38933 0
M  V30 6452 C 610.075 1.22924 4.06313 0
M  V30 6453 C 607.982 3.45922 4.79679 0
M  V30 6454 H 606.912 0.303854 0.690064 0
M  V30 6455 H 609.563 1.31479 1.28006 0
M  V30 6456 H 607.945 0.855613 3.86646 0
M  V30 6457 H 609.119 3.55679 2.92966 0
M  V30 6458 H 607.434 3.11118 2.76757 0
M  V30 6459 H 610.031 1.59945 5.10217 0
M  V30 6460 H 610.374 0.169726 4.15954 0
M  V30 6461 H 610.907 1.76168 3.56665 0
M  V30 6462 H 607.646 4.51484 4.75229 0
M  V30 6463 H 607.166 2.87971 5.26149 0
M  V30 6464 H 608.845 3.43009 5.48592 0
M  V30 6465 N 608.977 -1.30795 0.87923 0
M  V30 6466 C 610.388 -1.78535 0.546093 0
M  V30 6467 C 610.739 -1.72354 -0.937467 0
M  V30 6468 O 609.864 -1.2969 -1.73233 0
M  V30 6469 C 610.459 -3.24181 0.9845 0
M  V30 6470 C 609.018 -3.69779 0.702871 0
M  V30 6471 C 608.165 -2.51377 1.17068 0
M  V30 6472 H 611.116 -1.17746 1.06403 0
M  V30 6473 H 611.137 -3.79227 0.311045 0
M  V30 6474 H 610.649 -3.28647 2.06429 0
M  V30 6475 H 608.75 -3.70806 -0.365166 0
M  V30 6476 H 608.863 -4.61507 1.28639 0
M  V30 6477 H 607.227 -2.47768 0.590172 0
M  V30 6478 H 608.01 -2.58584 2.25808 0
M  V30 6479 N 610.455 -0.639598 -1.44038 0
M  V30 6480 C 611.385 0.0469443 -2.33453 0
M  V30 6481 C 612.366 0.82609 -1.48694 0
M  V30 6482 O 613.551 0.790285 -1.77393 0
M  V30 6483 C 610.681 1.02338 -3.3188 0
M  V30 6484 C 609.635 0.355284 -4.26523 0
M  V30 6485 C 608.961 1.44221 -5.14883 0
M  V30 6486 C 610.261 -0.743798 -5.16977 0
M  V30 6487 H 611.955 -0.699735 -2.91108 0
M  V30 6488 H 609.501 -0.337946 -1.39978 0
M  V30 6489 H 611.454 1.51247 -3.93322 0
M  V30 6490 H 610.178 1.80105 -2.72451 0
M  V30 6491 H 608.837 -0.113239 -3.66425 0
M  V30 6492 H 608.485 2.21097 -4.51802 0
M  V30 6493 H 608.185 1.00052 -5.79019 0
M  V30 6494 H 609.709 1.93295 -5.79197 0
M  V30 6495 H 611.123 -0.337444 -5.72306 0
M  V30 6496 H 609.52 -1.10914 -5.89761 0
M  V30 6497 H 610.59 -1.60745 -4.57481 0
M  V30 6498 N 611.933 1.52934 -0.380664 0
M  V30 6499 C 612.866 2.22597 0.502564 0
M  V30 6500 C 613.844 1.22345 1.071 0
M  V30 6501 O 615.028 1.51302 1.12428 0
M  V30 6502 C 612.155 2.93246 1.69482 0
M  V30 6503 C 611.201 4.07696 1.25244 0
M  V30 6504 S 612.034 5.34957 0.241159 0
M  V30 6505 C 613.19 6.09124 1.4394 0
M  V30 6506 H 613.423 2.97167 -0.089029 0
M  V30 6507 H 610.956 1.53518 -0.164817 0
M  V30 6508 H 612.914 3.34562 2.37863 0
M  V30 6509 H 611.575 2.18373 2.2577 0
M  V30 6510 H 610.768 4.56199 2.1424 0
M  V30 6511 H 610.37 3.68349 0.647664 0
M  V30 6512 H 612.662 6.34771 2.36794 0
M  V30 6513 H 613.605 7.01068 0.995464 0
M  V30 6514 H 614.013 5.39777 1.65229 0
M  V30 6515 N 613.412 0.11024 1.57214 0
M  V30 6516 C 614.362 -0.854147 2.11396 0
M  V30 6517 C 615.346 -1.23394 1.03261 0
M  V30 6518 O 616.538 -1.20649 1.2951 0
M  V30 6519 C 613.667 -2.10752 2.70995 0
M  V30 6520 C 612.753 -1.75249 3.86198 0
M  V30 6521 N 613.144 -1.10377 4.9361 0
M  V30 6522 C 611.442 -2.04763 3.96217 0
M  V30 6523 C 612.143 -0.938199 5.74084 0
M  V30 6524 N 611.119 -1.46039 5.23616 0
M  V30 6525 H 614.921 -0.348897 2.91822 0
M  V30 6526 H 612.435 -0.0925071 1.62136 0
M  V30 6527 H 614.432 -2.80801 3.0815 0
M  V30 6528 H 613.092 -2.61829 1.9203 0
M  V30 6529 H 614.103 -0.768785 5.12162 0
M  V30 6530 H 610.78 -2.57948 3.28282 0
M  V30 6531 H 612.17 -0.429678 6.70525 0
M  V30 6532 N 614.89 -1.56749 -0.16351 0
M  V30 6533 C 616.301 -1.72039 -0.725216 0
M  V30 6534 C 616.652 -0.72202 -1.82432 0
M  V30 6535 O 615.777 0.114942 -2.16095 0
M  V30 6536 C 616.372 -3.11932 -1.32227 0
M  V30 6537 C 614.931 -3.28879 -1.83072 0
M  V30 6538 C 614.078 -2.67984 -0.712716 0
M  V30 6539 H 617.029 -1.58579 0.0619772 0
M  V30 6540 H 617.05 -3.11015 -2.19202 0
M  V30 6541 H 616.562 -3.84572 -0.522103 0
M  V30 6542 H 614.663 -2.61209 -2.65708 0
M  V30 6543 H 614.776 -4.36688 -1.97079 0
M  V30 6544 H 613.14 -2.28005 -1.13515 0
M  V30 6545 H 613.923 -3.43216 0.0757361 0
M  V30 6546 N 616.368 0.432326 -1.51554 0
M  V30 6547 C 617.298 1.53242 -1.76179 0
M  V30 6548 C 618.279 1.58717 -0.611801 0
M  V30 6549 O 619.464 1.74364 -0.855033 0
M  V30 6550 C 616.594 2.91278 -1.89141 0
M  V30 6551 C 615.548 3.00663 -3.04608 0
M  V30 6552 C 614.874 4.40728 -3.02759 0
M  V30 6553 C 616.174 2.74281 -4.44485 0
M  V30 6554 H 617.868 1.32886 -2.68294 0
M  V30 6555 H 615.414 0.637841 -1.29103 0
M  V30 6556 H 617.367 3.68203 -2.04951 0
M  V30 6557 H 616.091 3.12877 -0.936785 0
M  V30 6558 H 614.75 2.26179 -2.88511 0
M  V30 6559 H 614.398 4.59301 -2.05065 0
M  V30 6560 H 614.098 4.47936 -3.80299 0
M  V30 6561 H 615.622 5.19619 -3.20669 0
M  V30 6562 H 617.036 3.40936 -4.60907 0
M  V30 6563 H 615.433 2.92893 -5.23769 0
M  V30 6564 H 616.503 1.69856 -4.54177 0
M  V30 6565 N 617.846 1.41785 0.688094 0
M  V30 6566 C 618.809 1.43936 1.78368 0
M  V30 6567 C 619.809 0.328866 1.57401 0
M  V30 6568 O 620.999 0.589093 1.63937 0
M  V30 6569 C 618.131 1.25804 3.16838 0
M  V30 6570 H 619.324 2.41472 1.77852 0
M  V30 6571 H 616.877 1.28037 0.896448 0
M  V30 6572 H 617.612 0.291386 3.22988 0
M  V30 6573 H 617.397 2.06272 3.33458 0
M  V30 6574 H 618.887 1.30162 3.96797 0
M  V30 6575 N 619.324 -0.923095 1.27737 0
M  V30 6576 C 620.601 -1.64989 1.05062 0
M  V30 6577 C 620.981 -2.07018 -0.413124 0
M  V30 6578 O 620.329 -1.80797 -1.39731 0
M  V30 6579 C 620.539 -2.84847 2.01652 0
M  V30 6580 C 621.887 -3.56083 2.31279 0
M  V30 6581 O 622.911 -2.94981 1.99662 0
M  V30 6582 O 621.77 -4.66182 2.85196 0
M  V30 6583 H 618.864 -0.723357 0.400853 0
M  V30 6584 H 621.41 -0.973224 1.3902 0
M  V30 6585 H 620.182 -2.50814 3.00347 0
M  V30 6586 H 619.805 -3.60231 1.68284 0
M  V30 6587 N 620.802 -1.09834 -1.13024 0
M  V30 6588 C 622.213 -0.855651 -1.65938 0
M  V30 6589 C 622.564 0.615159 -1.86307 0
M  V30 6590 O 621.689 1.47335 -1.58497 0
M  V30 6591 C 622.284 -1.5467 -3.01434 0
M  V30 6592 C 620.843 -1.35088 -3.51323 0
M  V30 6593 C 619.99 -1.6001 -2.26478 0
M  V30 6594 H 622.941 -1.25691 -0.968889 0
M  V30 6595 H 622.962 -0.982179 -3.67605 0
M  V30 6596 H 622.474 -2.61715 -2.86578 0
M  V30 6597 H 620.575 -0.30179 -3.71376 0
M  V30 6598 H 620.688 -2.0886 -4.31178 0
M  V30 6599 H 619.052 -1.02246 -2.33276 0
M  V30 6600 H 619.835 -2.68293 -2.14182 0
M  V30 6601 N 622.28 1.30327 -0.886154 0
M  V30 6602 C 623.505 2.0079 -0.519425 0
M  V30 6603 C 623.93 1.65979 0.885013 0
M  V30 6604 O 623.288 0.877043 1.58675 0
M  V30 6605 C 623.336 3.53686 -0.702758 0
M  V30 6606 O 622.44 4.11637 0.250828 0
M  V30 6607 H 621.781 0.63171 -0.204544 0
M  V30 6608 H 624.311 1.66145 -1.19402 0
M  V30 6609 H 624.321 4.03531 -0.602207 0
M  V30 6610 H 622.996 3.78361 -1.72673 0
M  V30 6611 H 621.573 3.72755 0.103873 0
M  V30 6612 N 623.758 0.647228 1.43697 0
M  V30 6613 C 624.986 0.16575 2.06235 0
M  V30 6614 C 625.401 -1.1662 1.48476 0
M  V30 6615 O 624.758 -1.7187 0.613762 0
M  V30 6616 C 624.809 0.0621651 3.61447 0
M  V30 6617 O 624.53 1.34146 4.17057 0
M  V30 6618 C 626.031 -0.446102 4.4105 0
M  V30 6619 H 623.251 0.0871158 0.665321 0
M  V30 6620 H 625.795 0.886183 1.84301 0
M  V30 6621 H 623.95 -0.608794 3.82587 0
M  V30 6622 H 624.364 1.19675 5.10664 0
M  V30 6623 H 625.838 -0.46755 5.50016 0
M  V30 6624 H 626.315 -1.47627 4.13646 0
M  V30 6625 H 626.921 0.192159 4.24866 0
M  V30 6626 N 625.236 -1.5273 0.388769 0
M  V30 6627 C 626.482 -2.01871 -0.193877 0
M  V30 6628 C 626.815 -1.27475 -1.46505 0
M  V30 6629 O 626.09 -0.375063 -1.90849 0
M  V30 6630 C 626.373 -3.5712 -0.462336 0
M  V30 6631 C 626.226 -4.42186 0.824091 0
M  V30 6632 C 627.545 -4.21881 -1.25319 0
M  V30 6633 H 624.664 -0.733764 -0.0689899 0
M  V30 6634 H 627.306 -1.82796 0.518231 0
M  V30 6635 H 625.456 -3.73504 -1.06896 0
M  V30 6636 H 627.128 -4.37554 1.46096 0
M  V30 6637 H 625.371 -4.09219 1.43952 0
M  V30 6638 H 626.042 -5.48828 0.590905 0
M  V30 6639 H 628.518 -4.0947 -0.73981 0
M  V30 6640 H 627.394 -5.30487 -1.40977 0
M  V30 6641 H 627.655 -3.79478 -2.26824 0
M  V30 6642 N 626.714 -0.118576 -1.57153 0
M  V30 6643 C 627.961 0.539526 -1.9518 0
M  V30 6644 C 628.289 1.66714 -1.00184 0
M  V30 6645 O 627.544 1.95683 -0.0256482 0
M  V30 6646 C 627.843 1.11303 -3.39627 0
M  V30 6647 C 627.509 0.106809 -4.50773 0
M  V30 6648 C 626.171 -0.169876 -4.809 0
M  V30 6649 C 628.523 -0.57895 -5.17975 0
M  V30 6650 C 625.851 -1.13861 -5.75545 0
M  V30 6651 C 628.203 -1.53631 -6.13661 0
M  V30 6652 C 626.867 -1.82099 -6.42181 0
M  V30 6653 H 626.137 0.197427 -0.714215 0
M  V30 6654 H 628.784 -0.199391 -1.90459 0
M  V30 6655 H 627.089 1.92869 -3.4104 0
M  V30 6656 H 628.786 1.63032 -3.66363 0
M  V30 6657 H 625.376 0.332645 -4.27307 0
M  V30 6658 H 629.56 -0.378359 -4.94856 0
M  V30 6659 H 624.816 -1.36592 -5.95947 0
M  V30 6660 H 628.99 -2.07337 -6.64819 0
M  V30 6661 H 626.617 -2.57319 -7.15326 0
M  V30 6662 N 628.193 1.56834 0.155195 0
M  V30 6663 C 629.14 1.97646 1.19184 0
M  V30 6664 C 630.11 0.842788 1.4313 0
M  V30 6665 O 631.295 1.1042 1.55602 0
M  V30 6666 C 628.435 2.35527 2.52232 0
M  V30 6667 C 627.548 3.62147 2.35529 0
M  V30 6668 C 626.683 3.89167 3.61555 0
M  V30 6669 C 625.722 5.09084 3.39853 0
M  V30 6670 N 624.859 5.32156 4.5799 0
M  V30 6671 H 629.699 2.8601 0.836802 0
M  V30 6672 H 627.236 1.41507 0.401758 0
M  V30 6673 H 629.194 2.55516 3.29799 0
M  V30 6674 H 627.824 1.50253 2.85699 0
M  V30 6675 H 626.876 3.4998 1.49057 0
M  V30 6676 H 628.188 4.49871 2.15448 0
M  V30 6677 H 627.342 4.09611 4.47553 0
M  V30 6678 H 626.081 2.9985 3.84632 0
M  V30 6679 H 625.086 4.88522 2.52243 0
M  V30 6680 H 626.311 5.99947 3.18183 0
M  V30 6681 H 624.257 4.45791 4.81255 0
M  V30 6682 H 624.174 6.14133 4.40882 0
M  V30 6683 H 625.442 5.57091 5.45225 0
M  V30 6684 N 629.671 -0.424282 1.51781 0
M  V30 6685 C 630.619 -1.53649 1.74628 0
M  V30 6686 C 631.613 -1.57923 0.612922 0
M  V30 6687 O 632.819 -1.61511 0.794618 0
M  V30 6688 H 629.194 -0.510706 0.551981 0
M  V30 6689 H 631.165 -1.31558 2.67834 0
M  V30 6690 C 629.914 -2.91177 1.9003 0
M  V30 6691 H 629.237 -2.88625 2.76651 0
M  V30 6692 H 630.677 -3.6833 2.10021 0
M  V30 6693 C 629.136 -3.30303 0.663435 0
M  V30 6694 O 629.666 -4.01315 -0.175812 0
M  V30 6695 N 627.872 -2.86201 0.503723 0
M  V30 6696 H 627.419 -2.28583 1.18776 0
M  V30 6697 H 627.377 -3.12741 -0.322575 0
M  V30 6698 N 631.149 -1.42148 -0.680565 0
M  V30 6699 C 632.397 -1.42029 -1.43779 0
M  V30 6700 C 632.718 -0.0356347 -1.94967 0
M  V30 6701 O 631.988 0.924936 -1.7269 0
M  V30 6702 H 630.568 -0.522835 -0.533529 0
M  V30 6703 H 633.23 -1.7752 -0.804538 0
M  V30 6704 H 632.326 -2.11658 -2.29363 0
M  V30 6705 N 632.627 0.916307 -1.28225 0
M  V30 6706 C 633.904 1.64429 -1.05936 0
M  V30 6707 C 634.284 2.07234 0.402139 0
M  V30 6708 O 633.632 1.81535 1.3877 0
M  V30 6709 C 633.842 2.83773 -2.03159 0
M  V30 6710 C 635.19 3.54852 -2.33164 0
M  V30 6711 O 636.214 2.93918 -2.01223 0
M  V30 6712 O 635.073 4.64663 -2.87664 0
M  V30 6713 H 632.167 0.721221 -0.404683 0
M  V30 6714 H 634.713 0.965838 -1.39534 0
M  V30 6715 H 633.485 2.49217 -3.01673 0
M  V30 6716 H 633.108 3.59333 -1.70192 0
M  V30 6717 N 634.105 1.10431 1.1244 0
M  V30 6718 C 635.015 0.765502 2.21759 0
M  V30 6719 C 636.031 -0.236966 1.72379 0
M  V30 6720 O 637.207 -0.0757329 2.01258 0
M  V30 6721 C 634.272 0.202316 3.46109 0
M  V30 6722 C 633.333 1.26205 4.1033 0
M  V30 6723 C 632.566 0.725648 5.28744 0
M  V30 6724 O 632.789 -0.447942 5.68638 0
M  V30 6725 O 631.723 1.48555 5.83279 0
M  V30 6726 H 635.549 1.67801 2.53133 0
M  V30 6727 H 633.134 0.879443 1.20773 0
M  V30 6728 H 635.016 -0.107918 4.21262 0
M  V30 6729 H 633.691 -0.683052 3.16411 0
M  V30 6730 H 632.598 1.62514 3.36957 0
M  V30 6731 H 633.931 2.12044 4.44183 0
M  V30 6732 N 635.583 -1.29855 0.893053 0
M  V30 6733 C 636.546 -2.26183 0.370687 0
M  V30 6734 C 637.546 -1.53108 -0.491385 0
M  V30 6735 O 638.736 -1.71643 -0.297386 0
M  V30 6736 C 635.868 -3.37633 -0.470827 0
M  V30 6737 H 637.061 -2.73903 1.22135 0
M  V30 6738 H 634.614 -1.41183 0.67061 0
M  V30 6739 H 635.349 -2.95241 -1.34175 0
M  V30 6740 H 635.134 -3.91825 0.146784 0
M  V30 6741 H 636.624 -4.09313 -0.827825 0
M  V30 6742 N 637.061 -0.65484 -1.43351 0
M  V30 6743 C 637.971 0.0363603 -2.34572 0
M  V30 6744 C 638.987 0.810432 -1.53974 0
M  V30 6745 O 640.163 0.757308 -1.86619 0
M  V30 6746 C 637.228 0.989733 -3.32273 0
M  V30 6747 C 636.289 0.212414 -4.28774 0
M  V30 6748 C 635.522 1.12038 -5.21808 0
M  V30 6749 O 635.745 2.35967 -5.19303 0
M  V30 6750 O 634.679 0.59191 -5.98982 0
M  V30 6751 H 638.505 -0.714527 -2.95175 0
M  V30 6752 H 636.09 -0.415029 -1.4352 0
M  V30 6753 H 637.972 1.53759 -3.92347 0
M  V30 6754 H 636.647 1.72082 -2.74171 0
M  V30 6755 H 635.554 -0.379062 -3.72175 0
M  V30 6756 H 636.887 -0.479138 -4.89862 0
M  V30 6757 N 638.539 1.52521 -0.396863 0
M  V30 6758 C 639.816 1.94112 0.240842 0
M  V30 6759 C 640.196 1.33288 1.637 0
M  V30 6760 O 639.544 0.503901 2.22875 0
M  V30 6761 C 639.754 3.48033 0.259567 0
M  V30 6762 C 641.102 4.21822 0.484866 0
M  V30 6763 O 642.126 3.54579 0.339453 0
M  V30 6764 O 640.985 5.41042 0.770412 0
M  V30 6765 H 638.079 0.812973 0.151671 0
M  V30 6766 H 640.625 1.63572 -0.451918 0
M  V30 6767 H 639.397 3.84655 -0.718078 0
M  V30 6768 H 639.02 3.84899 0.996937 0
M  V30 6769 N 640.017 0.126909 1.57088 0
M  V30 6770 C 641.264 -0.529168 1.95464 0
M  V30 6771 C 641.592 -1.6618 1.01067 0
M  V30 6772 O 640.847 -1.95667 0.0360254 0
M  V30 6773 C 641.146 -1.095 3.40212 0
M  V30 6774 C 640.812 -0.0829015 4.50824 0
M  V30 6775 C 639.474 0.195377 4.80803 0
M  V30 6776 C 641.826 0.606411 5.1766 0
M  V30 6777 C 639.154 1.16912 5.74933 0
M  V30 6778 C 641.506 1.56884 6.12838 0
M  V30 6779 C 640.17 1.85502 6.41206 0
M  V30 6780 H 639.44 -0.193636 0.715252 0
M  V30 6781 H 642.087 0.209489 1.90351 0
M  V30 6782 H 640.392 -1.91058 3.42059 0
M  V30 6783 H 642.089 -1.61087 3.67222 0
M  V30 6784 H 638.679 -0.309979 4.27478 0
M  V30 6785 H 642.863 0.404597 4.94648 0
M  V30 6786 H 638.119 1.3975 5.95214 0
M  V30 6787 H 642.293 2.10859 6.6371 0
M  V30 6788 H 639.92 2.61109 7.13951 0
M  V30 6789 N 641.495 -1.56914 -0.146875 0
M  V30 6790 C 642.741 -1.83628 -0.860741 0
M  V30 6791 C 643.074 -0.708528 -1.80813 0
M  V30 6792 O 642.349 0.287838 -1.92358 0
M  V30 6793 C 642.632 -3.20836 -1.63511 0
M  V30 6794 C 642.485 -4.44174 -0.709199 0
M  V30 6795 C 643.804 -3.55268 -2.59756 0
M  V30 6796 H 640.923 -0.667949 -0.311468 0
M  V30 6797 H 643.565 -1.89582 -0.125936 0
M  V30 6798 H 641.715 -3.15891 -2.26153 0
M  V30 6799 H 643.387 -4.61205 -0.0937781 0
M  V30 6800 H 641.63 -4.33796 -0.0187856 0
M  V30 6801 H 642.301 -5.36785 -1.28707 0
M  V30 6802 H 644.777 -3.60824 -2.07232 0
M  V30 6803 H 643.653 -4.52303 -3.10987 0
M  V30 6804 H 643.914 -2.81231 -3.41118 0
M  V30 6805 N 642.974 0.416227 -1.52004 0
M  V30 6806 C 643.884 1.53147 -1.77717 0
M  V30 6807 C 644.9 1.609 -0.662368 0
M  V30 6808 O 646.076 1.77747 -0.946991 0
M  V30 6809 C 643.141 2.88948 -1.91598 0
M  V30 6810 C 642.202 2.9114 -3.15493 0
M  V30 6811 C 641.435 4.20464 -3.28703 0
M  V30 6812 O 641.658 5.13981 -2.47345 0
M  V30 6813 O 640.592 4.29368 -4.21813 0
M  V30 6814 H 644.418 1.34357 -2.72363 0
M  V30 6815 H 642.003 0.601373 -1.36762 0
M  V30 6816 H 643.885 3.69505 -2.02593 0
M  V30 6817 H 642.56 3.07821 -1.00141 0
M  V30 6818 H 641.467 2.09461 -3.09962 0
M  V30 6819 H 642.8 2.77216 -4.06709 0
M  V30 6820 N 644.452 1.42507 0.673017 0
M  V30 6821 C 645.698 1.43284 1.43519 0
M  V30 6822 C 646.031 0.049668 1.94136 0
M  V30 6823 O 645.306 -0.926369 1.71022 0
M  V30 6824 C 645.589 2.45874 2.63093 0
M  V30 6825 C 645.442 3.93388 2.18096 0
M  V30 6826 C 646.761 2.45431 3.6531 0
M  V30 6827 H 643.88 0.521752 0.520522 0
M  V30 6828 H 646.522 1.73932 0.764701 0
M  V30 6829 H 644.672 2.19869 3.20296 0
M  V30 6830 H 646.344 4.30379 1.66046 0
M  V30 6831 H 644.587 4.07169 1.49652 0
M  V30 6832 H 645.258 4.60752 3.03993 0
M  V30 6833 H 647.734 2.68561 3.17827 0
M  V30 6834 H 646.61 3.19189 4.46553 0
M  V30 6835 H 646.871 1.48092 4.16559 0
M  V30 6836 N 645.93 -0.909495 1.28709 0
M  V30 6837 C 646.88 -1.9991 1.09636 0
M  V30 6838 C 647.864 -1.60889 0.01872 0
M  V30 6839 O 649.056 -1.75374 0.239338 0
M  V30 6840 C 646.185 -3.34675 0.764702 0
M  V30 6841 C 645.271 -3.80085 1.8814 0
M  V30 6842 N 645.662 -3.97824 3.12361 0
M  V30 6843 C 643.96 -4.09278 1.77221 0
M  V30 6844 C 644.661 -4.35928 3.85151 0
M  V30 6845 N 643.637 -4.44426 3.13028 0
M  V30 6846 H 647.439 -2.11681 2.03883 0
M  V30 6847 H 644.953 -1.09763 1.1969 0
M  V30 6848 H 646.95 -4.12426 0.609132 0
M  V30 6849 H 645.61 -3.24255 -0.169952 0
M  V30 6850 H 646.621 -3.83626 3.47925 0
M  V30 6851 H 643.298 -4.0747 0.909621 0
M  V30 6852 H 644.688 -4.57581 4.92006 0
M  V30 6853 N 647.408 -1.11026 -1.11852 0
M  V30 6854 C 648.338 -0.786812 -2.19844 0
M  V30 6855 C 649.319 0.242935 -1.68356 0
M  V30 6856 O 650.504 0.107355 -1.93903 0
M  V30 6857 C 647.634 -0.224516 -3.46574 0
M  V30 6858 C 646.588 -1.18564 -4.1125 0
M  V30 6859 C 645.914 -0.484261 -5.32503 0
M  V30 6860 C 647.214 -2.53465 -4.56676 0
M  V30 6861 H 648.908 -1.68978 -2.47158 0
M  V30 6862 H 646.454 -0.813906 -1.18792 0
M  V30 6863 H 648.407 0.0139435 -4.21398 0
M  V30 6864 H 647.131 0.713722 -3.18706 0
M  V30 6865 H 645.79 -1.40966 -3.38414 0
M  V30 6866 H 645.438 0.458646 -5.00905 0
M  V30 6867 H 645.138 -1.12526 -5.76725 0
M  V30 6868 H 646.662 -0.254492 -6.10069 0
M  V30 6869 H 648.076 -2.35177 -5.22843 0
M  V30 6870 H 646.473 -3.13507 -5.11697 0
M  V30 6871 H 647.543 -3.13008 -3.70343 0
M  V30 6872 N 648.886 1.2938 -0.899927 0
M  V30 6873 C 650.297 1.77644 -0.574427 0
M  V30 6874 C 650.648 1.73824 0.909928 0
M  V30 6875 O 649.773 1.32429 1.71147 0
M  V30 6876 C 650.368 3.22573 -1.03595 0
M  V30 6877 C 648.927 3.68614 -0.76161 0
M  V30 6878 C 648.074 2.49483 -1.21052 0
M  V30 6879 H 651.025 1.16038 -1.08263 0
M  V30 6880 H 651.046 3.78684 -0.371337 0
M  V30 6881 H 650.558 3.25321 -2.11631 0
M  V30 6882 H 648.659 3.7134 0.306127 0
M  V30 6883 H 648.772 4.59402 -1.35965 0
M  V30 6884 H 647.136 2.46798 -0.629515 0
M  V30 6885 H 647.919 2.54959 -2.29893 0
M  V30 6886 N 650.364 0.662433 1.43002 0
M  V30 6887 C 651.641 0.109096 1.95296 0
M  V30 6888 C 652.021 -1.37313 1.60338 0
M  V30 6889 O 651.369 -2.1032 0.893187 0
M  V30 6890 C 651.579 0.365096 3.47085 0
M  V30 6891 C 652.927 0.274964 4.23709 0
M  V30 6892 O 653.951 0.29816 3.5495 0
M  V30 6893 O 652.81 0.206549 5.4611 0
M  V30 6894 H 649.904 -0.00429724 0.826989 0
M  V30 6895 H 652.45 0.736308 1.52894 0
M  V30 6896 H 651.222 1.39237 3.65689 0
M  V30 6897 H 650.845 -0.294733 3.96506 0
M  V30 6898 N 651.842 -1.52309 0.404946 0
M  V30 6899 C 653.088 -2.02065 -0.172455 0
M  V30 6900 C 653.421 -1.29022 -1.45145 0
M  V30 6901 O 652.696 -0.395284 -1.90441 0
M  V30 6902 C 652.979 -3.5759 -0.424433 0
M  V30 6903 C 652.832 -4.41287 0.870945 0
M  V30 6904 C 654.151 -4.23186 -1.20837 0
M  V30 6905 H 651.27 -0.734454 -0.0612035 0
M  V30 6906 H 653.912 -1.82236 0.53759 0
M  V30 6907 H 652.062 -3.74617 -1.02929 0
M  V30 6908 H 653.734 -4.3598 1.50729 0
M  V30 6909 H 651.977 -4.07669 1.48284 0
M  V30 6910 H 652.648 -5.48171 0.649083 0
M  V30 6911 H 655.124 -4.10232 -0.696338 0
M  V30 6912 H 654 -5.31953 -1.35343 0
M  V30 6913 H 654.261 -3.81862 -2.22786 0
M  V30 6914 N 653.32 -0.135238 -1.57019 0
M  V30 6915 C 654.27 0.820408 -2.12728 0
M  V30 6916 C 655.254 1.21735 -1.05211 0
M  V30 6917 O 656.446 1.18574 -1.31413 0
M  V30 6918 C 653.575 2.06414 -2.74314 0
M  V30 6919 C 652.661 1.69083 -3.88937 0
M  V30 6920 N 653.052 1.0251 -4.95303 0
M  V30 6921 C 651.35 1.98434 -3.99425 0
M  V30 6922 C 652.051 0.846749 -5.75504 0
M  V30 6923 N 651.027 1.3769 -5.25873 0
M  V30 6924 H 654.829 0.302426 -2.9234 0
M  V30 6925 H 652.343 0.0667009 -1.62263 0
M  V30 6926 H 654.34 2.75863 -3.12579 0
M  V30 6927 H 653 2.58741 -1.96171 0
M  V30 6928 H 654.011 0.687207 -5.1332 0
M  V30 6929 H 650.688 2.52693 -3.32344 0
M  V30 6930 H 652.078 0.322949 -6.71123 0
M  V30 6931 N 654.798 1.5699 0.138552 0
M  V30 6932 C 655.708 2.02174 1.19008 0
M  V30 6933 C 656.724 0.938622 1.46512 0
M  V30 6934 O 657.9 1.24872 1.58016 0
M  V30 6935 C 654.965 2.40045 2.50159 0
M  V30 6936 C 654.026 3.62346 2.30226 0
M  V30 6937 C 653.259 3.98401 3.55123 0
M  V30 6938 O 653.482 3.35019 4.61647 0
M  V30 6939 O 652.416 4.91606 3.47285 0
M  V30 6940 H 656.242 2.91954 0.836452 0
M  V30 6941 H 653.827 1.45293 0.347907 0
M  V30 6942 H 655.709 2.65225 3.27465 0
M  V30 6943 H 654.384 1.53417 2.85035 0
M  V30 6944 H 653.291 3.42341 1.50843 0
M  V30 6945 H 654.624 4.49617 2.00262 0
M  V30 6946 N 656.276 -0.40816 1.52223 0
M  V30 6947 C 657.692 -0.74685 1.41047 0
M  V30 6948 C 657.892 -1.94788 0.51573 0
M  V30 6949 O 656.948 -2.52494 -0.0181156 0
M  V30 6950 C 658.261 -0.999878 2.83589 0
M  V30 6951 C 659.809 -1.10253 2.92939 0
M  V30 6952 C 660.284 -1.38832 4.36451 0
M  V30 6953 N 661.775 -1.45694 4.3969 0
M  V30 6954 C 662.51 -1.69435 5.47795 0
M  V30 6955 N 662.006 -1.90774 6.66016 0
M  V30 6956 N 663.799 -1.71458 5.35312 0
M  V30 6957 H 655.95 0.382409 2.08929 0
M  V30 6958 H 658.213 0.108807 0.941735 0
M  V30 6959 H 657.919 -0.189723 3.51188 0
M  V30 6960 H 657.793 -1.91978 3.24691 0
M  V30 6961 H 660.18 -1.90328 2.2552 0
M  V30 6962 H 660.261 -0.160973 2.55293 0
M  V30 6963 H 659.905 -0.592741 5.04429 0
M  V30 6964 H 659.835 -2.34241 4.71634 0
M  V30 6965 H 662.326 -1.3099 3.54472 0
M  V30 6966 H 662.639 -2.08342 7.44186 0
M  V30 6967 H 660.984 -1.88037 6.69079 0
M  V30 6968 H 664.175 -1.54326 4.41929 0
M  V30 6969 H 664.348 -1.89621 6.19635 0
M  V30 6970 N 657.755 -1.42862 -0.66545 0
M  V30 6971 C 659.004 -1.43119 -1.42126 0
M  V30 6972 C 659.317 -0.0545297 -1.95524 0
M  V30 6973 O 660.523 0.0654747 -2.71421 0
M  V30 6974 C 658.979 -2.51797 -2.5715 0
M  V30 6975 C 658.587 -3.95514 -2.10411 0
M  V30 6976 C 660.331 -2.61233 -3.346 0
M  V30 6977 C 658.238 -4.95682 -3.22573 0
M  V30 6978 H 657.168 -0.532349 -0.533966 0
M  V30 6979 H 659.819 -1.68806 -0.719506 0
M  V30 6980 H 658.201 -2.19292 -3.29738 0
M  V30 6981 H 659.375 -4.3742 -1.44915 0
M  V30 6982 H 657.69 -3.90012 -1.45874 0
M  V30 6983 H 660.287 -3.33248 -4.18151 0
M  V30 6984 H 660.63 -1.65896 -3.81817 0
M  V30 6985 H 661.163 -2.9298 -2.69087 0
M  V30 6986 H 657.902 -5.92529 -2.80338 0
M  V30 6987 H 657.422 -4.58399 -3.86821 0
M  V30 6988 H 659.101 -5.17828 -3.87896 0
M  V30 6989 N 659.233 0.902656 -1.29189 0
M  V30 6990 C 660.458 1.69167 -1.19989 0
M  V30 6991 C 660.883 1.86607 0.236495 0
M  V30 6992 O 660.241 1.38425 1.17082 0
M  V30 6993 C 660.289 3.05532 -1.91527 0
M  V30 6994 O 659.393 3.93621 -1.2303 0
M  V30 6995 H 658.734 0.517584 -0.415936 0
M  V30 6996 H 661.264 1.12785 -1.70706 0
M  V30 6997 H 661.274 3.55693 -1.99866 0
M  V30 6998 H 659.949 2.92156 -2.96003 0
M  V30 6999 H 658.526 3.52055 -1.22928 0
M  V30 7000 N 660.711 1.11618 1.11262 0
M  V30 7001 C 661.959 0.864469 1.82678 0
M  V30 7002 C 662.28 -0.611564 1.85162 0
M  V30 7003 O 661.55 -1.44429 1.32352 0
M  V30 7004 H 660.13 0.316821 0.676486 0
M  V30 7005 H 662.792 1.40894 1.34666 0
M  V30 7006 H 661.888 1.23832 2.86482 0
M  V30 7007 N 662.189 -1.289 0.906776 0
M  V30 7008 C 663.435 -1.95558 0.53712 0
M  V30 7009 C 663.768 -1.71262 -0.915582 0
M  V30 7010 O 663.043 -1.02961 -1.65013 0
M  V30 7011 C 663.326 -3.50198 0.838645 0
M  V30 7012 C 663.179 -3.83923 2.34357 0
M  V30 7013 C 664.498 -4.38861 0.329988 0
M  V30 7014 H 661.617 -0.710289 0.196617 0
M  V30 7015 H 664.259 -1.52392 1.13475 0
M  V30 7016 H 662.409 -3.87096 0.330024 0
M  V30 7017 H 664.081 -3.56933 2.92227 0
M  V30 7018 H 662.324 -3.31215 2.80141 0
M  V30 7019 H 662.995 -4.91883 2.5051 0
M  V30 7020 H 665.471 -4.08996 0.765609 0
M  V30 7021 H 664.347 -5.45931 0.570105 0
M  V30 7022 H 664.608 -4.35352 -0.769511 0
M  V30 7023 N 663.667 -0.670007 -1.42649 0
M  V30 7024 C 664.944 -0.119451 -1.95235 0
M  V30 7025 C 665.324 1.36461 -1.61064 0
M  V30 7026 O 664.672 2.09843 -0.904329 0
M  V30 7027 C 664.882 -0.383498 -3.46887 0
M  V30 7028 C 666.23 -0.297431 -4.23557 0
M  V30 7029 O 667.254 -0.31698 -3.54787 0
M  V30 7030 O 666.113 -0.235507 -5.45992 0
M  V30 7031 H 663.207 -8.85474e-05 -0.827 0
M  V30 7032 H 665.753 -0.744406 -1.52501 0
M  V30 7033 H 664.525 -1.41174 -3.64946 0
M  V30 7034 H 664.148 0.273702 -3.96657 0
M  V30 7035 N 665.145 1.52092 -0.413018 0
M  V30 7036 C 666.075 2.30021 0.401567 0
M  V30 7037 C 667.056 1.34395 1.04269 0
M  V30 7038 O 668.241 1.63304 1.05097 0
M  V30 7039 C 665.371 3.12447 1.51638 0
M  V30 7040 C 664.325 4.16153 1.00005 0
M  V30 7041 C 663.651 4.86948 2.20875 0
M  V30 7042 C 664.951 5.22275 0.0513757 0
M  V30 7043 H 666.645 2.98365 -0.248704 0
M  V30 7044 H 664.191 1.4349 -0.121052 0
M  V30 7045 H 666.144 3.65733 2.09326 0
M  V30 7046 H 664.868 2.41879 2.19458 0
M  V30 7047 H 663.527 3.63882 0.445549 0
M  V30 7048 H 663.175 4.12905 2.8726 0
M  V30 7049 H 662.875 5.57057 1.86978 0
M  V30 7050 H 664.399 5.43048 2.79162 0
M  V30 7051 H 665.813 5.70778 0.537176 0
M  V30 7052 H 664.21 5.9977 -0.198977 0
M  V30 7053 H 665.28 4.76611 -0.892736 0
M  V30 7054 N 666.623 0.143563 1.56945 0
M  V30 7055 C 667.871 -0.507402 1.95627 0
M  V30 7056 C 668.192 -1.65626 1.02922 0
M  V30 7057 O 667.462 -1.95693 0.0901136 0
M  V30 7058 H 666.042 -0.190436 0.722318 0
M  V30 7059 H 668.704 0.218257 1.93674 0
M  V30 7060 H 667.8 -0.885816 2.99265 0
M  V30 7061 N 668.101 -1.57061 -0.130224 0
M  V30 7062 C 669.031 -2.02552 -1.16168 0
M  V30 7063 C 670.012 -0.907971 -1.4384 0
M  V30 7064 O 671.197 -1.17693 -1.54473 0
M  V30 7065 C 668.327 -2.42035 -2.49071 0
M  V30 7066 C 667.281 -3.5713 -2.35886 0
M  V30 7067 C 666.607 -3.82478 -3.7365 0
M  V30 7068 C 667.907 -4.89236 -1.8288 0
M  V30 7069 H 669.601 -2.8897 -0.783359 0
M  V30 7070 H 667.147 -1.39021 -0.375376 0
M  V30 7071 H 669.1 -2.72462 -3.21469 0
M  V30 7072 H 667.824 -1.52573 -2.88771 0
M  V30 7073 H 666.483 -3.26895 -1.65938 0
M  V30 7074 H 666.131 -2.9024 -4.10816 0
M  V30 7075 H 665.831 -4.59944 -3.65685 0
M  V30 7076 H 667.355 -4.15347 -4.47571 0
M  V30 7077 H 668.769 -5.18272 -2.45085 0
M  V30 7078 H 667.166 -5.70624 -1.85763 0
M  V30 7079 H 668.236 -4.78494 -0.785571 0
M  V30 7080 N 669.579 0.400081 -1.52437 0
M  V30 7081 C 670.99 0.97851 -1.59003 0
M  V30 7082 C 671.341 1.91293 -0.436068 0
M  V30 7083 O 670.466 2.1183 0.442365 0
M  V30 7084 C 671.061 1.78145 -2.88184 0
M  V30 7085 C 669.62 2.30976 -2.97199 0
M  V30 7086 C 668.767 1.11212 -2.54022 0
M  V30 7087 H 671.718 0.180002 -1.57676 0
M  V30 7088 H 671.739 2.63968 -2.74046 0
M  V30 7089 H 671.251 1.1011 -3.72152 0
M  V30 7090 H 669.352 3.02355 -2.17744 0
M  V30 7091 H 669.465 2.61221 -4.01622 0
M  V30 7092 H 667.829 1.46882 -2.08081 0
M  V30 7093 H 668.612 0.447307 -3.40373 0
M  V30 7094 N 671.057 1.43213 0.657864 0
M  V30 7095 C 672.005 1.48271 1.79216 0
M  V30 7096 C 672.999 0.35675 1.65601 0
M  V30 7097 O 674.205 0.530535 1.72004 0
M  V30 7098 H 670.58 0.464729 0.591211 0
M  V30 7099 H 672.551 2.43792 1.7207 0
M  V30 7100 C 671.3 1.41837 3.17455 0
M  V30 7101 H 670.623 2.27781 3.28567 0
M  V30 7102 H 672.063 1.49438 3.96793 0
M  V30 7103 C 670.522 0.135347 3.36628 0
M  V30 7104 O 671.052 -0.805199 3.93547 0
M  V30 7105 N 669.258 0.0470316 2.90562 0
M  V30 7106 H 668.805 0.813221 2.44427 0
M  V30 7107 H 668.763 -0.810737 3.03767 0
M  V30 7108 N 672.536 -0.895792 1.29666 0
M  V30 7109 C 673.782 -1.64921 1.19049 0
M  V30 7110 C 674.137 -1.90707 -0.254678 0
M  V30 7111 O 673.43 -1.5092 -1.18041 0
M  V30 7112 C 673.624 -3.00075 1.94139 0
M  V30 7113 C 673.453 -2.87482 3.4581 0
M  V30 7114 C 672.223 -2.88041 4.15163 0
M  V30 7115 C 674.421 -2.64224 4.41237 0
M  V30 7116 N 672.403 -2.66226 5.5317 0
M  V30 7117 C 673.774 -2.51427 5.66732 0
M  V30 7118 C 675.829 -2.49362 4.30956 0
M  V30 7119 C 674.532 -2.25281 6.83111 0
M  V30 7120 C 676.558 -2.246 5.47091 0
M  V30 7121 C 675.92 -2.12571 6.7156 0
M  V30 7122 H 672.019 -0.608926 0.490646 0
M  V30 7123 H 674.603 -1.05648 1.63544 0
M  V30 7124 H 672.774 -3.574 1.52052 0
M  V30 7125 H 674.506 -3.64544 1.75754 0
M  V30 7126 H 671.261 -2.99471 3.66898 0
M  V30 7127 H 671.685 -2.58361 6.25762 0
M  V30 7128 H 676.327 -2.57403 3.35415 0
M  V30 7129 H 674.045 -2.15978 7.78704 0
M  V30 7130 H 677.631 -2.13939 5.41037 0
M  V30 7131 H 676.511 -1.93676 7.59907 0
M  V30 7132 N 674.014 -1.12206 -1.10668 0
M  V30 7133 C 675.262 -0.874144 -1.82217 0
M  V30 7134 C 675.583 0.601736 -1.85484 0
M  V30 7135 O 674.853 1.43725 -1.33116 0
M  V30 7136 H 673.433 -0.320404 -0.674797 0
M  V30 7137 H 676.095 -1.41606 -1.33917 0
M  V30 7138 H 675.191 -1.25349 -2.85822 0
M  V30 7139 N 675.492 1.28418 -0.913599 0
M  V30 7140 C 676.439 2.27301 -0.400373 0
M  V30 7141 C 677.409 1.57582 0.52509 0
M  V30 7142 O 678.594 1.85482 0.447318 0
M  V30 7143 C 675.734 3.43284 0.35361 0
M  V30 7144 C 674.847 4.27752 -0.604341 0
M  V30 7145 C 673.982 5.30934 0.168075 0
M  V30 7146 C 673.021 6.07065 -0.783499 0
M  V30 7147 N 672.158 7.02086 -0.0446112 0
M  V30 7148 H 676.998 2.70579 -1.24865 0
M  V30 7149 H 674.535 1.33067 -0.627028 0
M  V30 7150 H 676.493 4.09322 0.806945 0
M  V30 7151 H 675.123 3.00997 1.16623 0
M  V30 7152 H 674.175 3.61759 -1.17621 0
M  V30 7153 H 675.487 4.80682 -1.33216 0
M  V30 7154 H 674.641 6.02855 0.681979 0
M  V30 7155 H 673.38 4.78771 0.928947 0
M  V30 7156 H 672.385 5.33995 -1.30878 0
M  V30 7157 H 673.61 6.61317 -1.54392 0
M  V30 7158 H 671.556 6.52273 0.698272 0
M  V30 7159 H 671.473 7.52637 -0.712258 0
M  V30 7160 H 672.741 7.78205 0.449102 0
M  V30 7161 N 676.97 0.677563 1.42291 0
M  V30 7162 C 678.2 0.209155 2.05539 0
M  V30 7163 C 678.608 -1.13987 1.51009 0
M  V30 7164 O 677.951 -1.71976 0.645764 0
M  V30 7165 C 678.013 0.0697758 3.59432 0
M  V30 7166 C 677.677 1.34795 4.36668 0
M  V30 7167 C 678.674 2.28201 4.67141 0
M  V30 7168 C 676.359 1.59632 4.76259 0
M  V30 7169 C 678.353 3.44718 5.36142 0
M  V30 7170 C 676.04 2.76437 5.45 0
M  V30 7171 C 677.038 3.68805 5.74867 0
M  V30 7172 O 676.726 4.83567 6.42198 0
M  V30 7173 H 676.458 0.0986202 0.668768 0
M  V30 7174 H 679.012 0.925483 1.83368 0
M  V30 7175 H 677.242 -0.702157 3.80272 0
M  V30 7176 H 678.931 -0.359115 4.04308 0
M  V30 7177 H 679.697 2.10264 4.37052 0
M  V30 7178 H 675.576 0.886073 4.52404 0
M  V30 7179 H 679.12 4.16833 5.59371 0
M  V30 7180 H 675.017 2.94299 5.74507 0
M  V30 7181 H 675.785 4.83147 6.6069 0
M  V30 7182 N 678.448 -1.51871 0.421078 0
M  V30 7183 C 679.694 -2.02237 -0.151014 0
M  V30 7184 C 680.027 -1.30554 -1.43768 0
M  V30 7185 O 679.302 -0.41546 -1.90011 0
M  V30 7186 C 679.585 -3.5802 -0.386482 0
M  V30 7187 C 679.438 -4.40339 0.9177 0
M  V30 7188 C 680.757 -4.24444 -1.16342 0
M  V30 7189 H 677.876 -0.735062 -0.0534102 0
M  V30 7190 H 680.518 -1.81656 0.556888 0
M  V30 7191 H 678.668 -3.75688 -0.989494 0
M  V30 7192 H 680.34 -4.34357 1.55344 0
M  V30 7193 H 678.583 -4.06073 1.526 0
M  V30 7194 H 679.254 -5.47451 0.707187 0
M  V30 7195 H 681.73 -4.10948 -0.652788 0
M  V30 7196 H 680.606 -5.33358 -1.29693 0
M  V30 7197 H 680.867 -3.84204 -2.18724 0
M  V30 7198 N 679.926 -0.151884 -1.56866 0
M  V30 7199 C 680.856 0.781943 -2.20018 0
M  V30 7200 C 681.837 1.25347 -1.14987 0
M  V30 7201 O 683.022 1.31015 -1.43348 0
M  V30 7202 C 680.152 2.01928 -2.82564 0
M  V30 7203 C 679.106 1.68434 -3.93464 0
M  V30 7204 C 678.432 2.99472 -4.42968 0
M  V30 7205 C 679.732 0.927244 -5.14003 0
M  V30 7206 H 681.426 0.255607 -2.98307 0
M  V30 7207 H 678.972 0.121502 -1.43486 0
M  V30 7208 H 680.925 2.67741 -3.25411 0
M  V30 7209 H 679.649 2.56943 -2.01614 0
M  V30 7210 H 678.308 1.04998 -3.51242 0
M  V30 7211 H 677.956 3.52488 -3.58834 0
M  V30 7212 H 677.656 2.77823 -5.17772 0
M  V30 7213 H 679.18 3.66348 -4.88489 0
M  V30 7214 H 680.594 1.48756 -5.53665 0
M  V30 7215 H 678.991 0.810513 -5.94601 0
M  V30 7216 H 680.061 -0.0801163 -4.84834 0
M  V30 7217 N 681.404 1.57128 0.121893 0
M  V30 7218 C 682.334 2.03165 1.15092 0
M  V30 7219 C 683.315 0.915587 1.43356 0
M  V30 7220 O 684.5 1.1851 1.53847 0
M  V30 7221 C 681.63 2.43352 2.47784 0
M  V30 7222 C 680.584 3.58376 2.33989 0
M  V30 7223 C 679.91 3.84454 3.71617 0
M  V30 7224 C 681.21 4.90199 1.80283 0
M  V30 7225 H 682.904 2.89382 0.768023 0
M  V30 7226 H 680.45 1.39218 0.367998 0
M  V30 7227 H 682.403 2.74163 3.20019 0
M  V30 7228 H 681.127 1.54103 2.87958 0
M  V30 7229 H 679.786 3.2777 1.64202 0
M  V30 7230 H 679.434 2.92414 4.09271 0
M  V30 7231 H 679.134 4.61877 3.6324 0
M  V30 7232 H 680.658 4.17714 4.45362 0
M  V30 7233 H 682.072 5.19565 2.42333 0
M  V30 7234 H 680.469 5.71601 1.82735 0
M  V30 7235 H 681.539 4.78904 0.760184 0
M  V30 7236 N 682.882 -0.391992 1.52647 0
M  V30 7237 C 684.107 -1.16312 1.71716 0
M  V30 7238 C 684.532 -1.83042 0.433279 0
M  V30 7239 O 683.89 -1.70705 -0.610707 0
M  V30 7240 C 683.938 -2.18908 2.86551 0
M  V30 7241 O 683.042 -3.2543 2.53316 0
M  V30 7242 H 682.383 -0.338743 0.571095 0
M  V30 7243 H 684.913 -0.457202 1.99426 0
M  V30 7244 H 684.923 -2.62954 3.1196 0
M  V30 7245 H 683.598 -1.69726 3.79692 0
M  V30 7246 H 682.175 -2.86543 2.38637 0
M  V30 7247 N 684.36 -1.4356 -0.65026 0
M  V30 7248 C 685.323 -1.48615 -1.74489 0
M  V30 7249 C 686.323 -0.370483 -1.56474 0
M  V30 7250 O 687.513 -0.632351 -1.62317 0
M  V30 7251 C 684.645 -1.34161 -3.13391 0
M  V30 7252 H 685.838 -2.46103 -1.71387 0
M  V30 7253 H 683.391 -1.30369 -0.862186 0
M  V30 7254 H 684.126 -0.376918 -3.22102 0
M  V30 7255 H 683.911 -2.1504 -3.27872 0
M  V30 7256 H 685.401 -1.40637 -3.93206 0
M  V30 7257 N 685.838 0.888903 -1.30139 0
M  V30 7258 C 687.086 1.63713 -1.18501 0
M  V30 7259 C 687.407 1.9324 0.261399 0
M  V30 7260 O 686.677 1.56608 1.17689 0
M  V30 7261 H 685.257 0.606861 -0.435579 0
M  V30 7262 H 687.919 1.06525 -1.63213 0
M  V30 7263 H 687.015 2.58894 -1.743 0
M  V30 7264 N 687.317 1.12792 1.10072 0
M  V30 7265 C 688.28 0.802264 2.14701 0
M  V30 7266 C 689.28 -0.18515 1.59731 0
M  V30 7267 O 690.47 0.041109 1.74151 0
M  V30 7268 C 687.602 0.19285 3.40354 0
M  V30 7269 H 688.795 1.72932 2.45019 0
M  V30 7270 H 686.348 0.931662 1.25498 0
M  V30 7271 H 687.083 -0.743748 3.15656 0
M  V30 7272 H 686.868 0.903827 3.81541 0
M  V30 7273 H 688.358 -0.0183704 4.17596 0
M  V30 7274 N 688.795 -1.27931 0.920396 0
M  V30 7275 C 689.725 -2.29487 0.431024 0
M  V30 7276 C 690.706 -1.62435 -0.504861 0
M  V30 7277 O 691.891 -1.89797 -0.411176 0
M  V30 7278 C 689.021 -3.45788 -0.323709 0
M  V30 7279 C 687.975 -4.24784 0.523658 0
M  V30 7280 C 687.301 -5.33488 -0.359809 0
M  V30 7281 C 688.601 -4.90874 1.78437 0
M  V30 7282 H 690.295 -2.70671 1.27975 0
M  V30 7283 H 687.841 -1.30121 0.616813 0
M  V30 7284 H 689.794 -4.15927 -0.676952 0
M  V30 7285 H 688.518 -3.03502 -1.2064 0
M  V30 7286 H 687.177 -3.56382 0.85951 0
M  V30 7287 H 686.825 -4.87445 -1.24124 0
M  V30 7288 H 686.525 -5.87247 0.203605 0
M  V30 7289 H 688.049 -6.06472 -0.708787 0
M  V30 7290 H 689.463 -5.53339 1.49963 0
M  V30 7291 H 687.86 -5.54659 2.29071 0
M  V30 7292 H 688.93 -4.14988 2.50824 0
M  V30 7293 N 690.273 -0.685099 -1.4193 0
M  V30 7294 C 691.501 -0.220372 -2.05723 0
M  V30 7295 C 691.916 1.12642 -1.51516 0
M  V30 7296 O 691.273 1.70182 -0.659114 0
M  V30 7297 C 691.324 -0.157974 -3.61155 0
M  V30 7298 O 691.045 -1.45156 -4.13354 0
M  V30 7299 C 692.546 0.329009 -4.42077 0
M  V30 7300 H 689.766 -0.104725 -0.662777 0
M  V30 7301 H 692.31 -0.934736 -1.81887 0
M  V30 7302 H 690.465 0.507144 -3.84066 0
M  V30 7303 H 690.879 -1.33172 -5.07312 0
M  V30 7304 H 692.353 0.321559 -5.51063 0
M  V30 7305 H 692.83 1.36608 -4.17414 0
M  V30 7306 H 693.436 -0.304737 -4.24207 0
M  V30 7307 N 691.751 1.51645 -0.429126 0
M  V30 7308 C 692.714 2.26116 0.374726 0
M  V30 7309 C 693.714 1.29242 0.956714 0
M  V30 7310 O 694.904 1.53022 0.832452 0
M  V30 7311 C 692.036 3.04669 1.52937 0
M  V30 7312 H 693.229 2.9861 -0.277818 0
M  V30 7313 H 690.782 1.55236 -0.182097 0
M  V30 7314 H 691.517 2.36571 2.21821 0
M  V30 7315 H 691.302 3.75814 1.11833 0
M  V30 7316 H 692.792 3.61102 2.09751 0
M  V30 7317 N 693.229 0.160201 1.56784 0
M  V30 7318 C 694.159 -0.770264 2.2043 0
M  V30 7319 C 695.14 -1.24736 1.15651 0
M  V30 7320 O 696.325 -1.30253 1.44041 0
M  V30 7321 C 693.455 -2.00427 2.83631 0
M  V30 7322 C 692.409 -1.66345 3.94352 0
M  V30 7323 C 691.735 -2.97119 4.4455 0
M  V30 7324 C 693.035 -0.899972 5.14488 0
M  V30 7325 H 694.729 -0.239783 2.98438 0
M  V30 7326 H 692.275 -0.113891 1.43549 0
M  V30 7327 H 694.228 -2.66012 3.26827 0
M  V30 7328 H 692.952 -2.5587 2.02973 0
M  V30 7329 H 691.611 -1.03133 3.51794 0
M  V30 7330 H 691.259 -3.5058 3.60698 0
M  V30 7331 H 690.959 -2.75073 5.19238 0
M  V30 7332 H 692.483 -3.63753 4.90425 0
M  V30 7333 H 693.897 -1.45818 5.54446 0
M  V30 7334 H 692.294 -0.778968 5.95023 0
M  V30 7335 H 693.364 0.105827 4.84785 0
M  V30 7336 N 694.707 -1.5719 -0.113559 0
M  V30 7337 C 695.64 -1.9595 -1.16957 0
M  V30 7338 C 696.618 -0.829951 -1.39823 0
M  V30 7339 O 697.802 -1.08861 -1.53888 0
M  V30 7340 C 694.929 -2.2604 -2.52237 0
M  V30 7341 C 693.975 -3.48571 -2.45765 0
M  V30 7342 S 694.808 -5.00962 -1.89203 0
M  V30 7343 C 695.964 -5.3421 -3.26145 0
M  V30 7344 H 696.197 -2.85214 -0.839069 0
M  V30 7345 H 693.73 -1.51036 -0.320529 0
M  V30 7346 H 695.688 -2.44054 -3.30073 0
M  V30 7347 H 694.349 -1.3738 -2.82463 0
M  V30 7348 H 693.542 -3.67008 -3.45429 0
M  V30 7349 H 693.144 -3.29972 -1.76053 0
M  V30 7350 H 695.436 -5.29725 -4.22371 0
M  V30 7351 H 696.379 -6.35398 -3.12529 0
M  V30 7352 H 696.787 -4.61681 -3.24825 0
M  V30 7353 N 696.185 0.383891 -1.52853 0
M  V30 7354 C 697.115 1.47559 -1.80965 0
M  V30 7355 C 698.096 1.5669 -0.661986 0
M  V30 7356 O 699.281 1.71556 -0.910072 0
M  V30 7357 C 696.411 2.85114 -1.98312 0
M  V30 7358 C 695.365 2.9082 -3.14019 0
M  V30 7359 C 694.691 4.30873 -3.16627 0
M  V30 7360 C 695.991 2.60001 -4.52986 0
M  V30 7361 H 697.685 1.24283 -2.72386 0
M  V30 7362 H 695.231 0.596445 -1.31067 0
M  V30 7363 H 697.184 3.61496 -2.16561 0
M  V30 7364 H 695.908 3.09738 -1.03585 0
M  V30 7365 H 694.567 2.16886 -2.9556 0
M  V30 7366 H 694.215 4.52545 -2.19573 0
M  V30 7367 H 693.915 4.3561 -3.94357 0
M  V30 7368 H 695.439 5.09154 -3.37038 0
M  V30 7369 H 696.853 3.261 -4.71521 0
M  V30 7370 H 695.25 2.76081 -5.32822 0
M  V30 7371 H 696.32 1.5532 -4.59351 0
M  V30 7372 N 697.663 1.43903 0.642637 0
M  V30 7373 C 698.912 1.45362 1.39831 0
M  V30 7374 C 699.225 0.0856289 1.95412 0
M  V30 7375 O 700.431 -0.0222856 2.71491 0
M  V30 7376 C 698.887 2.55857 2.53111 0
M  V30 7377 C 698.495 3.98811 2.04092 0
M  V30 7378 C 700.239 2.66524 3.30402 0
M  V30 7379 C 698.146 5.00751 3.14647 0
M  V30 7380 H 697.076 0.540777 0.52543 0
M  V30 7381 H 699.727 1.69929 0.692559 0
M  V30 7382 H 698.109 2.2451 3.26207 0
M  V30 7383 H 699.283 4.3967 1.37938 0
M  V30 7384 H 697.598 3.92284 1.39651 0
M  V30 7385 H 700.195 3.39858 4.12796 0
M  V30 7386 H 700.538 1.71949 3.79129 0
M  V30 7387 H 701.071 2.97224 2.64392 0
M  V30 7388 H 697.81 5.96914 2.70876 0
M  V30 7389 H 697.33 4.64495 3.79479 0
M  V30 7390 H 699.009 5.23933 3.79609 0
M  V30 7391 N 699.141 -0.881989 1.30609 0
M  V30 7392 C 700.39 -1.62878 1.18969 0
M  V30 7393 C 700.703 -1.93946 -0.253859 0
M  V30 7394 O 701.909 -2.67008 -0.491813 0
M  V30 7395 C 700.365 -2.93573 2.0819 0
M  V30 7396 C 699.973 -2.70034 3.57471 0
M  V30 7397 C 701.717 -3.71543 2.0532 0
M  V30 7398 C 699.624 -3.96563 4.38739 0
M  V30 7399 H 698.554 -0.611092 0.441682 0
M  V30 7400 H 701.205 -0.976201 1.55379 0
M  V30 7401 H 699.587 -3.6014 1.64666 0
M  V30 7402 H 700.761 -2.11949 4.09163 0
M  V30 7403 H 699.076 -2.05435 3.62195 0
M  V30 7404 H 701.673 -4.65386 2.63288 0
M  V30 7405 H 702.016 -4.03167 1.03739 0
M  V30 7406 H 702.549 -3.11842 2.46981 0
M  V30 7407 H 699.288 -3.70095 5.41027 0
M  V30 7408 H 698.808 -4.54142 3.9181 0
M  V30 7409 H 700.487 -4.64557 4.50329 0
M  V30 7410 N 700.619 -1.13374 -1.09472 0
M  V30 7411 C 701.866 -0.89519 -1.81639 0
M  V30 7412 C 702.194 0.57868 -1.85692 0
M  V30 7413 O 701.449 1.44426 -1.32059 0
M  V30 7414 C 701.748 -1.42759 -3.2765 0
M  V30 7415 C 701.414 -2.91822 -3.43731 0
M  V30 7416 C 700.076 -3.32521 -3.47827 0
M  V30 7417 C 702.428 -3.87727 -3.48307 0
M  V30 7418 C 699.756 -4.6781 -3.54078 0
M  V30 7419 C 702.108 -5.22859 -3.56091 0
M  V30 7420 C 700.772 -5.63086 -3.58456 0
M  V30 7421 H 700.042 -0.327573 -0.664663 0
M  V30 7422 H 702.689 -1.4156 -1.28969 0
M  V30 7423 H 700.994 -0.827871 -3.82954 0
M  V30 7424 H 702.691 -1.2191 -3.8202 0
M  V30 7425 H 699.281 -2.5935 -3.41226 0
M  V30 7426 H 703.465 -3.57371 -3.44383 0
M  V30 7427 H 698.721 -4.98353 -3.54195 0
M  V30 7428 H 702.895 -5.96989 -3.58577 0
M  V30 7429 H 700.522 -6.67905 -3.63052 0
M  V30 7430 N 702.098 1.27442 -0.927168 0
M  V30 7431 C 703.028 2.29256 -0.443188 0
M  V30 7432 C 704.009 1.62701 0.49624 0
M  V30 7433 O 705.194 1.90013 0.401105 0
M  V30 7434 C 702.324 3.45955 0.305366 0
M  V30 7435 C 701.278 4.24501 -0.546178 0
M  V30 7436 C 700.604 5.33671 0.331512 0
M  V30 7437 C 701.904 4.89921 -1.81037 0
M  V30 7438 H 703.598 2.69988 -1.29409 0
M  V30 7439 H 701.144 1.29792 -0.623705 0
M  V30 7440 H 703.097 4.1628 0.654885 0
M  V30 7441 H 701.821 3.04138 1.19029 0
M  V30 7442 H 700.48 3.55921 -0.878398 0
M  V30 7443 H 700.128 4.88096 1.21537 0
M  V30 7444 H 699.828 5.87131 -0.234746 0
M  V30 7445 H 701.352 6.0684 0.676614 0
M  V30 7446 H 702.766 5.52536 -1.52895 0
M  V30 7447 H 701.163 5.53436 -2.32009 0
M  V30 7448 H 702.233 4.13652 -2.53021 0
M  V30 7449 N 703.576 0.692616 1.41565 0
M  V30 7450 C 704.509 -0.025063 2.28186 0
M  V30 7451 C 705.487 -0.790912 1.42068 0
M  V30 7452 O 706.671 -0.782344 1.71498 0
M  V30 7453 C 703.798 -1.04285 3.22246 0
M  V30 7454 C 702.844 -0.370515 4.24888 0
M  V30 7455 S 703.677 0.884942 5.28137 0
M  V30 7456 C 704.833 -0.131324 6.25762 0
M  V30 7457 H 705.066 0.709626 2.88707 0
M  V30 7458 H 702.599 0.482783 1.46658 0
M  V30 7459 H 704.557 -1.62493 3.7697 0
M  V30 7460 H 703.218 -1.7501 2.60827 0
M  V30 7461 H 702.411 -1.13911 4.90959 0
M  V30 7462 H 702.013 0.138411 3.73744 0
M  V30 7463 H 704.305 -0.985527 6.70294 0
M  V30 7464 H 705.248 0.495384 7.06365 0
M  V30 7465 H 705.656 -0.484777 5.62415 0
M  V30 7466 N 705.054 -1.51416 0.437162 0
M  V30 7467 C 706.282 -2.06503 -0.128045 0
M  V30 7468 C 706.697 -1.30461 -1.36475 0
M  V30 7469 O 706.054 -0.364127 -1.78831 0
M  V30 7470 C 706.105 -3.58683 -0.450437 0
M  V30 7471 O 705.826 -4.31853 0.737186 0
M  V30 7472 C 707.327 -4.30284 -1.06633 0
M  V30 7473 H 704.547 -0.670952 -0.00800269 0
M  V30 7474 H 707.091 -1.94996 0.616193 0
M  V30 7475 H 705.246 -3.70106 -1.14457 0
M  V30 7476 H 705.66 -5.22467 0.461347 0
M  V30 7477 H 707.134 -5.37848 -1.24191 0
M  V30 7478 H 707.611 -3.88564 -2.0473 0
M  V30 7479 H 708.217 -4.23304 -0.411585 0
M  V30 7480 N 706.532 -0.168513 -1.56696 0
M  V30 7481 C 707.772 0.479648 -1.98693 0
M  V30 7482 C 708.136 1.60609 -1.05209 0
M  V30 7483 O 709.337 2.3166 -1.36334 0
M  V30 7484 C 707.608 0.952852 -3.44464 0
M  V30 7485 S 709.167 1.60259 -4.08488 0
M  V30 7486 H 705.985 0.154377 -0.694038 0
M  V30 7487 H 708.587 -0.265312 -1.93691 0
M  V30 7488 H 707.291 0.12257 -4.10217 0
M  V30 7489 H 706.822 1.73192 -3.53225 0
M  V30 7490 H 708.837 2.89065 -4.03307 0
M  V30 7491 N 708.01 1.57248 0.105221 0
M  V30 7492 C 709.256 1.86719 0.806692 0
M  V30 7493 C 709.611 0.758061 1.76837 0
M  V30 7494 O 708.904 -0.240812 1.90081 0
M  V30 7495 C 709.098 3.20437 1.58287 0
M  V30 7496 C 708.927 4.44252 0.697864 0
M  V30 7497 C 707.697 5.04104 0.347444 0
M  V30 7498 C 709.895 5.14299 0.00933014 0
M  V30 7499 N 707.877 6.1146 -0.546786 0
M  V30 7500 C 709.248 6.15528 -0.74336 0
M  V30 7501 C 711.303 4.97857 -0.0656505 0
M  V30 7502 C 710.006 7.02091 -1.56401 0
M  V30 7503 C 712.032 5.84919 -0.873167 0
M  V30 7504 C 711.394 6.8566 -1.61401 0
M  V30 7505 H 707.493 0.73329 0.271679 0
M  V30 7506 H 710.077 1.94575 0.0697152 0
M  V30 7507 H 708.248 3.13651 2.29079 0
M  V30 7508 H 709.98 3.37668 2.23075 0
M  V30 7509 H 706.735 4.68505 0.692817 0
M  V30 7510 H 707.159 6.69779 -0.986157 0
M  V30 7511 H 711.801 4.19919 0.492768 0
M  V30 7512 H 709.519 7.79427 -2.13353 0
M  V30 7513 H 713.105 5.74259 -0.933724 0
M  V30 7514 H 711.985 7.5186 -2.2288 0
M  V30 7515 N 709.488 -0.375779 1.53054 0
M  V30 7516 C 710.904 -0.716764 1.426 0
M  V30 7517 C 711.104 -1.93651 0.556931 0
M  V30 7518 O 710.16 -2.52475 0.0354461 0
M  V30 7519 C 711.473 -0.939499 2.85646 0
M  V30 7520 C 713.021 -1.04015 2.95212 0
M  V30 7521 C 713.496 -1.29543 4.39298 0
M  V30 7522 N 714.987 -1.36335 4.42682 0
M  V30 7523 C 715.722 -1.57778 5.51266 0
M  V30 7524 N 715.218 -1.76604 6.69913 0
M  V30 7525 N 717.011 -1.60065 5.38828 0
M  V30 7526 H 709.162 0.42664 2.08071 0
M  V30 7527 H 711.425 0.128758 0.939215 0
M  V30 7528 H 711.131 -0.115189 3.51511 0
M  V30 7529 H 711.005 -1.85048 3.2869 0
M  V30 7530 H 713.392 -1.85501 2.29507 0
M  V30 7531 H 713.473 -0.106785 2.55577 0
M  V30 7532 H 713.117 -0.485611 5.05573 0
M  V30 7533 H 713.047 -2.24184 4.76497 0
M  V30 7534 H 715.538 -1.23441 3.5717 0
M  V30 7535 H 715.851 -1.9251 7.48438 0
M  V30 7536 H 714.196 -1.73802 6.72917 0
M  V30 7537 H 717.387 -1.44917 4.45103 0
M  V30 7538 H 717.56 -1.76435 6.23518 0
M  V30 7539 N 710.966 -1.44241 -0.634997 0
M  V30 7540 C 712.382 -1.28043 -0.952742 0
M  V30 7541 C 712.582 -0.21338 -2.00367 0
M  V30 7542 O 711.638 0.402042 -2.49279 0
M  V30 7543 C 712.951 -2.65076 -1.41968 0
M  V30 7544 C 714.499 -2.72755 -1.53537 0
M  V30 7545 C 714.974 -4.10249 -2.03616 0
M  V30 7546 N 716.465 -4.12406 -2.10892 0
M  V30 7547 C 717.2 -5.15641 -2.50803 0
M  V30 7548 N 716.696 -6.29239 -2.89879 0
M  V30 7549 N 718.489 -5.02995 -2.50903 0
M  V30 7550 H 710.64 -2.12315 0.060098 0
M  V30 7551 H 712.903 -0.947326 -0.0357325 0
M  V30 7552 H 712.609 -3.44213 -0.721804 0
M  V30 7553 H 712.483 -2.91704 -2.39141 0
M  V30 7554 H 714.87 -1.93939 -2.22422 0
M  V30 7555 H 714.951 -2.49872 -0.547496 0
M  V30 7556 H 714.595 -4.8954 -1.35327 0
M  V30 7557 H 714.525 -4.30507 -3.03268 0
M  V30 7558 H 717.016 -3.30417 -1.83393 0
M  V30 7559 H 717.329 -7.03827 -3.19135 0
M  V30 7560 H 715.674 -6.32683 -2.8764 0
M  V30 7561 H 718.865 -4.13306 -2.19763 0
M  V30 7562 H 719.038 -5.83574 -2.81683 0
M  V30 7563 N 712.444 0.87505 -1.31075 0
M  V30 7564 C 713.69 1.63009 -1.20647 0
M  V30 7565 C 714.023 1.9276 0.236045 0
M  V30 7566 O 713.298 1.55559 1.16754 0
M  V30 7567 C 713.581 2.96357 -2.0456 0
M  V30 7568 C 713.434 2.73516 -3.57084 0
M  V30 7569 C 714.753 3.974 -1.89107 0
M  V30 7570 H 711.872 0.591518 -0.439631 0
M  V30 7571 H 714.514 1.0119 -1.60812 0
M  V30 7572 H 712.664 3.49119 -1.70435 0
M  V30 7573 H 714.336 2.27465 -4.01319 0
M  V30 7574 H 712.579 2.0784 -3.80769 0
M  V30 7575 H 713.25 3.68377 -4.11099 0
M  V30 7576 H 715.726 3.5383 -2.18961 0
M  V30 7577 H 714.602 4.88596 -2.5013 0
M  V30 7578 H 714.863 4.33794 -0.85296 0
M  V30 7579 N 713.922 1.13953 1.08869 0
M  V30 7580 C 714.87 0.817664 2.17754 0
M  V30 7581 C 715.864 -0.202444 1.68186 0
M  V30 7582 O 717.07 -0.0590159 1.79903 0
M  V30 7583 H 713.445 0.246671 0.710392 0
M  V30 7584 H 715.416 1.74401 2.4213 0
M  V30 7585 C 714.165 0.3063 3.46348 0
M  V30 7586 H 713.488 1.08259 3.84864 0
M  V30 7587 H 714.928 0.119584 4.23831 0
M  V30 7588 C 713.387 -0.969158 3.22659 0
M  V30 7589 O 713.917 -2.04386 3.45817 0
M  V30 7590 N 712.123 -0.902516 2.7623 0
M  V30 7591 H 711.67 -0.027801 2.57585 0
M  V30 7592 H 711.628 -1.75649 2.60758 0
M  V30 7593 N 715.4 -1.26948 0.933913 0
M  V30 7594 C 716.816 -1.46419 0.635103 0
M  V30 7595 C 717.016 -1.84336 -0.813785 0
M  V30 7596 O 716.072 -1.96061 -1.59111 0
M  V30 7597 C 717.385 -2.55206 1.5903 0
M  V30 7598 C 718.933 -2.69062 1.5992 0
M  V30 7599 C 719.408 -3.81013 2.54152 0
M  V30 7600 N 720.899 -3.88395 2.52395 0
M  V30 7601 C 721.634 -4.74454 3.21996 0
M  V30 7602 N 721.13 -5.64954 4.00997 0
M  V30 7603 N 722.923 -4.68237 3.10983 0
M  V30 7604 H 715.074 -1.00622 1.87053 0
M  V30 7605 H 717.337 -0.503189 0.803433 0
M  V30 7606 H 717.043 -2.34153 2.62422 0
M  V30 7607 H 716.917 -3.52719 1.33677 0
M  V30 7608 H 719.304 -2.89492 0.572569 0
M  V30 7609 H 719.385 -1.72016 1.89325 0
M  V30 7610 H 719.029 -3.61336 3.5693 0
M  V30 7611 H 718.959 -4.77499 2.22041 0
M  V30 7612 H 721.45 -3.23687 1.95025 0
M  V30 7613 H 721.763 -6.27496 4.51074 0
M  V30 7614 H 720.108 -5.6473 4.05099 0
M  V30 7615 H 723.299 -3.96535 2.48753 0
M  V30 7616 H 723.472 -5.35087 3.65494 0
M  V30 7617 N 716.879 -0.700114 -1.41195 0
M  V30 7618 C 718.104 -0.240704 -2.05998 0
M  V30 7619 C 718.529 1.10313 -1.52357 0
M  V30 7620 O 717.887 1.69154 -0.652424 0
M  V30 7621 C 717.935 -0.213783 -3.59966 0
M  V30 7622 O 717.039 0.809933 -4.04368 0
M  V30 7623 H 716.38 -0.116471 -0.653705 0
M  V30 7624 H 718.91 -0.956251 -1.80878 0
M  V30 7625 H 718.92 -0.0461852 -4.07974 0
M  V30 7626 H 717.595 -1.19454 -3.98376 0
M  V30 7627 H 716.172 0.611319 -3.67855 0
M  V30 7628 N 718.357 1.51182 -0.445186 0
M  V30 7629 C 719.267 2.31692 0.368255 0
M  V30 7630 C 720.283 1.40942 1.02036 0
M  V30 7631 O 721.459 1.74011 1.01401 0
M  V30 7632 C 718.524 3.14903 1.45041 0
M  V30 7633 C 717.585 4.21442 0.817615 0
M  V30 7634 C 716.818 5.00677 1.8482 0
M  V30 7635 O 717.041 4.80644 3.07145 0
M  V30 7636 O 715.975 5.84559 1.43438 0
M  V30 7637 H 719.801 3.0232 -0.289219 0
M  V30 7638 H 717.386 1.47951 -0.207555 0
M  V30 7639 H 719.268 3.66612 2.07783 0
M  V30 7640 H 717.943 2.47031 2.09182 0
M  V30 7641 H 716.85 3.73791 0.151931 0
M  V30 7642 H 718.183 4.9171 0.219564 0
M  V30 7643 N 719.835 0.176821 1.56605 0
M  V30 7644 C 721.246 -0.338963 1.83597 0
M  V30 7645 C 721.597 -1.62677 1.09684 0
M  V30 7646 O 720.722 -2.13524 0.351661 0
M  V30 7647 C 721.317 -0.62177 3.33046 0
M  V30 7648 C 719.876 -1.08198 3.60514 0
M  V30 7649 C 719.023 -0.120774 2.77037 0
M  V30 7650 H 721.974 0.400978 1.53551 0
M  V30 7651 H 721.995 -1.47321 3.50823 0
M  V30 7652 H 721.507 0.315692 3.86814 0
M  V30 7653 H 719.608 -2.03435 3.12162 0
M  V30 7654 H 719.721 -0.987329 4.68816 0
M  V30 7655 H 718.085 -0.619192 2.47059 0
M  V30 7656 H 718.868 0.810806 3.33588 0
M  V30 7657 N 721.313 -1.57302 -0.09688 0
M  V30 7658 C 722.541 -1.90202 -0.814295 0
M  V30 7659 C 722.956 -0.770344 -1.72369 0
M  V30 7660 O 722.313 0.257764 -1.8067 0
M  V30 7661 C 722.364 -3.22708 -1.62916 0
M  V30 7662 O 722.085 -4.31522 -0.756343 0
M  V30 7663 C 723.586 -3.69459 -2.44979 0
M  V30 7664 H 720.806 -0.629275 -0.232925 0
M  V30 7665 H 723.35 -2.04364 -0.0746482 0
M  V30 7666 H 721.505 -3.1015 -2.32133 0
M  V30 7667 H 721.919 -5.07604 -1.32054 0
M  V30 7668 H 723.393 -4.64875 -2.9765 0
M  V30 7669 H 723.87 -2.97211 -3.23361 0
M  V30 7670 H 724.476 -3.84879 -1.80964 0
M  V30 7671 N 722.791 0.367657 -1.53252 0
M  V30 7672 C 723.723 1.47032 -1.75824 0
M  V30 7673 C 724.736 1.49736 -0.63898 0
M  V30 7674 O 725.925 1.53253 -0.915193 0
M  V30 7675 C 723.025 2.85805 -1.82122 0
M  V30 7676 C 722.198 3.06822 -3.11736 0
M  V30 7677 C 721.257 4.25698 -3.09302 0
M  V30 7678 O 720.283 4.20972 -3.83107 0
M  V30 7679 N 721.485 5.33002 -2.29977 0
M  V30 7680 H 724.25 1.28048 -2.70968 0
M  V30 7681 H 721.811 0.557363 -1.52004 0
M  V30 7682 H 723.803 3.63465 -1.77975 0
M  V30 7683 H 722.373 2.98046 -0.942716 0
M  V30 7684 H 721.593 2.1684 -3.29202 0
M  V30 7685 H 722.881 3.17731 -3.97397 0
M  V30 7686 H 722.279 5.39703 -1.69521 0
M  V30 7687 H 720.836 6.09247 -2.3165 0
M  V30 7688 N 724.269 1.44576 0.627338 0
M  V30 7689 C 725.219 1.48168 1.73293 0
M  V30 7690 C 726.203 0.347045 1.57113 0
M  V30 7691 O 727.395 0.592605 1.66785 0
M  V30 7692 C 724.524 1.43236 3.11991 0
M  V30 7693 C 723.61 2.61828 3.33627 0
M  V30 7694 N 724.001 3.87053 3.25612 0
M  V30 7695 C 722.299 2.57104 3.64436 0
M  V30 7696 C 723 4.66093 3.48041 0
M  V30 7697 N 721.976 3.97228 3.71095 0
M  V30 7698 H 725.778 2.42832 1.6556 0
M  V30 7699 H 723.292 1.39592 0.829934 0
M  V30 7700 H 725.289 1.43893 3.91281 0
M  V30 7701 H 723.949 0.496133 3.20887 0
M  V30 7702 H 724.96 4.18966 3.04447 0
M  V30 7703 H 721.637 1.72295 3.8029 0
M  V30 7704 H 723.027 5.75117 3.47404 0
M  V30 7705 N 725.747 -0.868086 1.31537 0
M  V30 7706 C 726.695 -1.99688 1.1928 0
M  V30 7707 C 727.689 -1.69101 0.100656 0
M  V30 7708 O 728.895 -1.78073 0.262677 0
M  V30 7709 H 725.27 -0.655032 0.369374 0
M  V30 7710 H 727.241 -2.07157 2.14776 0
M  V30 7711 C 725.99 -3.35338 0.918892 0
M  V30 7712 H 725.313 -3.59396 1.75142 0
M  V30 7713 H 726.753 -4.14909 0.873311 0
M  V30 7714 C 725.212 -3.34769 -0.378366 0
M  V30 7715 O 725.742 -3.76716 -1.39456 0
M  V30 7716 N 723.948 -2.87895 -0.39557 0
M  V30 7717 H 723.495 -2.53954 0.431889 0
M  V30 7718 H 723.453 -2.87897 -1.26344 0
M  V30 7719 N 727.225 -1.14528 -1.08264 0
M  V30 7720 C 728.155 -0.856356 -2.1723 0
M  V30 7721 C 729.136 0.189251 -1.69044 0
M  V30 7722 O 730.321 0.0456119 -1.94146 0
M  V30 7723 C 727.451 -0.334662 -3.45684 0
M  V30 7724 C 726.405 -1.31588 -4.0727 0
M  V30 7725 C 725.731 -0.653428 -5.30692 0
M  V30 7726 C 727.031 -2.67866 -4.48381 0
M  V30 7727 H 728.725 -1.76755 -2.41657 0
M  V30 7728 H 726.271 -0.851287 -1.16143 0
M  V30 7729 H 728.224 -0.120128 -4.21229 0
M  V30 7730 H 726.948 0.611967 -3.20815 0
M  V30 7731 H 725.607 -1.51661 -3.33758 0
M  V30 7732 H 725.255 0.299054 -5.0211 0
M  V30 7733 H 724.955 -1.30817 -5.72853 0
M  V30 7734 H 726.479 -0.448453 -6.08951 0
M  V30 7735 H 727.893 -2.51692 -5.15096 0
M  V30 7736 H 726.29 -3.29627 -5.01464 0
M  V30 7737 H 727.36 -3.24632 -3.60198 0
M  V30 7738 N 728.703 1.26451 -0.940633 0
M  V30 7739 C 730.119 1.4608 -0.642859 0
M  V30 7740 C 730.319 1.84765 0.803998 0
M  V30 7741 O 729.375 1.96902 1.58069 0
M  V30 7742 C 730.688 2.54359 -1.60381 0
M  V30 7743 C 732.236 2.6821 -1.61345 0
M  V30 7744 C 732.711 3.79659 -2.56169 0
M  V30 7745 N 734.202 3.87051 -2.54452 0
M  V30 7746 C 734.937 4.72739 -3.24507 0
M  V30 7747 N 734.433 5.6282 -4.03987 0
M  V30 7748 N 736.226 4.66581 -3.13462 0
M  V30 7749 H 728.377 0.996289 -1.87584 0
M  V30 7750 H 730.64 0.498921 -0.80609 0
M  V30 7751 H 730.346 2.32758 -2.6366 0
M  V30 7752 H 730.22 3.52005 -1.35545 0
M  V30 7753 H 732.607 2.89184 -0.587913 0
M  V30 7754 H 732.688 1.7101 -1.90235 0
M  V30 7755 H 732.332 3.59438 -3.58841 0
M  V30 7756 H 732.262 4.76315 -2.2457 0
M  V30 7757 H 734.753 3.22649 -1.96739 0
M  V30 7758 H 735.066 6.25095 -4.54396 0
M  V30 7759 H 733.411 5.62574 -4.08088 0
M  V30 7760 H 736.602 3.9521 -2.50852 0
M  V30 7761 H 736.775 5.33141 -3.68327 0
M  V30 7762 N 730.181 0.707592 1.40822 0
M  V30 7763 C 731.429 0.243189 2.00632 0
M  V30 7764 C 731.75 -1.16512 1.56365 0
M  V30 7765 O 731.02 -1.78841 0.799553 0
M  V30 7766 H 729.6 0.0869203 0.741926 0
M  V30 7767 H 732.262 0.911438 1.72275 0
M  V30 7768 H 731.358 0.270014 3.1093 0
M  V30 7769 N 731.66 -1.50943 0.453197 0
M  V30 7770 C 732.888 -2.06628 -0.106135 0
M  V30 7771 C 733.303 -1.31901 -1.35084 0
M  V30 7772 O 732.66 -0.383074 -1.78434 0
M  V30 7773 C 732.711 -3.5914 -0.412368 0
M  V30 7774 O 732.432 -4.31047 0.782948 0
M  V30 7775 C 733.933 -4.31391 -1.02064 0
M  V30 7776 H 731.153 -0.670999 -0.000885896 0
M  V30 7777 H 733.697 -1.94331 0.63684 0
M  V30 7778 H 731.852 -3.71299 -1.10526 0
M  V30 7779 H 732.266 -5.21948 0.516736 0
M  V30 7780 H 733.74 -5.39135 -1.1848 0
M  V30 7781 H 734.217 -3.90714 -2.00598 0
M  V30 7782 H 734.823 -4.23716 -0.366664 0
M  V30 7783 N 733.138 -0.185124 -1.56509 0
M  V30 7784 C 734.386 0.455357 -1.96903 0
M  V30 7785 C 734.707 1.62839 -1.07277 0
M  V30 7786 O 733.977 1.95385 -0.141966 0
M  V30 7787 H 732.557 0.171218 -0.727113 0
M  V30 7788 H 735.219 -0.26953 -1.93027 0
M  V30 7789 H 734.315 0.80616 -3.01509 0
M  V30 7790 N 734.616 1.57351 0.0885366 0
M  V30 7791 C 736.032 1.53331 0.442916 0
M  V30 7792 C 736.232 0.902831 1.80142 0
M  V30 7793 O 735.288 0.498147 2.47537 0
M  V30 7794 C 736.601 2.98036 0.399372 0
M  V30 7795 C 738.149 3.09286 0.480759 0
M  V30 7796 C 738.624 4.5561 0.467296 0
M  V30 7797 N 740.115 4.60182 0.52786 0
M  V30 7798 C 740.85 5.70857 0.539388 0
M  V30 7799 N 740.346 6.90944 0.506729 0
M  V30 7800 N 742.139 5.59051 0.584691 0
M  V30 7801 H 734.29 1.96709 -0.801215 0
M  V30 7802 H 736.553 0.899639 -0.298922 0
M  V30 7803 H 736.259 3.47656 -0.531806 0
M  V30 7804 H 736.133 3.57066 1.21589 0
M  V30 7805 H 738.52 2.5965 1.40236 0
M  V30 7806 H 738.601 2.53197 -0.364023 0
M  V30 7807 H 738.245 5.05899 -0.450384 0
M  V30 7808 H 738.175 5.09544 1.32938 0
M  V30 7809 H 740.666 3.73757 0.558028 0
M  V30 7810 H 740.979 7.71055 0.518989 0
M  V30 7811 H 739.324 6.93384 0.473675 0
M  V30 7812 H 742.515 4.64138 0.607781 0
M  V30 7813 H 742.688 6.45307 0.590206 0
M  V30 7814 N 736.094 -0.359525 1.53444 0
M  V30 7815 C 737.004 -1.46445 1.83278 0
M  V30 7816 C 738.02 -1.5833 0.721629 0
M  V30 7817 O 739.196 -1.7411 1.01231 0
M  V30 7818 C 736.261 -2.81638 2.02191 0
M  V30 7819 C 735.322 -2.7923 3.26082 0
M  V30 7820 C 734.555 -4.07974 3.44082 0
M  V30 7821 O 734.778 -5.04447 2.66251 0
M  V30 7822 O 733.712 -4.13417 4.37458 0
M  V30 7823 H 737.538 -1.24156 2.77162 0
M  V30 7824 H 735.123 -0.550201 1.389 0
M  V30 7825 H 737.005 -3.61732 2.16167 0
M  V30 7826 H 735.68 -3.03892 1.11496 0
M  V30 7827 H 734.587 -1.97813 3.17523 0
M  V30 7828 H 735.92 -2.6193 4.16718 0
M  V30 7829 N 737.572 -1.44907 -0.619662 0
M  V30 7830 C 738.818 -1.48512 -1.38102 0
M  V30 7831 C 739.151 -0.121686 -1.93818 0
M  V30 7832 O 738.426 0.862256 -1.74343 0
M  V30 7833 C 738.709 -2.55469 -2.53787 0
M  V30 7834 C 738.562 -4.01212 -2.03345 0
M  V30 7835 C 739.881 -2.58821 -3.55949 0
M  V30 7836 H 737 -0.540712 -0.500799 0
M  V30 7837 H 739.642 -1.7665 -0.69962 0
M  V30 7838 H 737.792 -2.31606 -3.11915 0
M  V30 7839 H 739.464 -4.36245 -1.49959 0
M  V30 7840 H 737.707 -4.12443 -1.34438 0
M  V30 7841 H 738.378 -4.71717 -2.86683 0
M  V30 7842 H 740.854 -2.80172 -3.07641 0
M  V30 7843 H 739.73 -3.35542 -4.34399 0
M  V30 7844 H 739.991 -1.63451 -4.10775 0
M  V30 7845 N 739.05 0.861098 -1.31996 0
M  V30 7846 C 740.275 1.65264 -1.2531 0
M  V30 7847 C 740.7 1.87265 0.177007 0
M  V30 7848 O 740.058 1.4208 1.12619 0
M  V30 7849 C 740.106 2.99284 -2.0115 0
M  V30 7850 O 739.21 3.89508 -1.3549 0
M  V30 7851 H 738.551 0.50409 -0.432192 0
M  V30 7852 H 741.081 1.07297 -1.74208 0
M  V30 7853 H 741.091 3.49154 -2.11081 0
M  V30 7854 H 739.766 2.82591 -3.05148 0
M  V30 7855 H 738.343 3.47966 -1.34066 0
M  V30 7856 N 740.528 1.15101 1.07655 0
M  V30 7857 C 741.774 0.925343 1.80458 0
M  V30 7858 C 742.107 -0.546354 1.86356 0
M  V30 7859 O 741.382 -1.40496 1.34503 0
M  V30 7860 C 741.665 1.53646 3.25676 0
M  V30 7861 C 741.518 3.07854 3.27942 0
M  V30 7862 C 742.837 1.21968 4.22861 0
M  V30 7863 H 739.956 0.337592 0.655134 0
M  V30 7864 H 742.598 1.42217 1.25993 0
M  V30 7865 H 740.748 1.11395 3.72187 0
M  V30 7866 H 742.42 3.58989 2.89697 0
M  V30 7867 H 740.663 3.41904 2.66991 0
M  V30 7868 H 741.334 3.45725 4.30324 0
M  V30 7869 H 743.81 1.5851 3.84726 0
M  V30 7870 H 742.686 1.67349 5.22767 0
M  V30 7871 H 742.947 0.136207 4.4189 0
M  V30 7872 N 742.006 -1.2595 0.947325 0
M  V30 7873 C 743.234 -1.97544 0.615127 0
M  V30 7874 C 743.649 -1.70484 -0.811221 0
M  V30 7875 O 743.006 -0.97662 -1.5417 0
M  V30 7876 C 743.057 -3.51236 0.855328 0
M  V30 7877 O 742.778 -3.77359 2.22558 0
M  V30 7878 C 744.279 -4.40066 0.534515 0
M  V30 7879 H 741.499 -0.629888 0.231263 0
M  V30 7880 H 744.043 -1.60308 1.26971 0
M  V30 7881 H 742.198 -3.8661 0.247266 0
M  V30 7882 H 742.612 -4.71857 2.29022 0
M  V30 7883 H 744.086 -5.46838 0.753168 0
M  V30 7884 H 744.563 -4.35982 -0.530701 0
M  V30 7885 H 745.169 -4.10245 1.12158 0
M  V30 7886 N 743.484 -0.715051 -1.40445 0
M  V30 7887 C 744.895 -0.326763 -1.83818 0
M  V30 7888 C 745.246 1.13851 -1.59789 0
M  V30 7889 O 744.371 1.87611 -1.07848 0
M  V30 7890 C 744.966 -0.586297 -3.33688 0
M  V30 7891 C 743.525 -0.251724 -3.75557 0
M  V30 7892 C 742.672 -0.858928 -2.63662 0
M  V30 7893 H 745.623 -0.914241 -1.2972 0
M  V30 7894 H 745.644 0.148636 -3.8021 0
M  V30 7895 H 745.156 -1.65281 -3.51146 0
M  V30 7896 H 743.257 0.809754 -3.63695 0
M  V30 7897 H 743.37 -0.720348 -4.73654 0
M  V30 7898 H 741.734 -0.287013 -2.53078 0
M  V30 7899 H 742.517 -1.9297 -2.83932 0
M  V30 7900 N 744.962 1.50701 -0.461195 0
M  V30 7901 C 745.894 2.26124 0.374244 0
M  V30 7902 C 746.907 1.31064 0.965715 0
M  V30 7903 O 748.096 1.56647 0.855801 0
M  V30 7904 C 745.196 3.01996 1.5379 0
M  V30 7905 C 744.369 4.24336 1.06101 0
M  V30 7906 C 743.428 4.82585 2.09756 0
M  V30 7907 O 742.454 5.43775 1.68219 0
M  V30 7908 N 743.656 4.68712 3.42475 0
M  V30 7909 H 746.421 2.9846 -0.2723 0
M  V30 7910 H 743.982 1.59256 -0.291415 0
M  V30 7911 H 745.974 3.37846 2.22806 0
M  V30 7912 H 744.544 2.32521 2.08933 0
M  V30 7913 H 743.764 3.93707 0.197085 0
M  V30 7914 H 745.052 5.03678 0.720156 0
M  V30 7915 H 744.45 4.20026 3.78938 0
M  V30 7916 H 743.007 5.08858 4.07317 0
M  V30 7917 N 746.441 0.193421 1.56409 0
M  V30 7918 C 747.666 -0.454552 2.02358 0
M  V30 7919 C 748.091 -1.54516 1.07268 0
M  V30 7920 O 747.449 -1.81214 0.0558962 0
M  V30 7921 C 747.497 -0.989469 3.46759 0
M  V30 7922 O 746.601 -2.10244 3.54783 0
M  V30 7923 H 745.942 -0.106417 0.655417 0
M  V30 7924 H 748.472 0.303807 2.02332 0
M  V30 7925 H 748.482 -1.30649 3.86516 0
M  V30 7926 H 747.157 -0.191083 4.15461 0
M  V30 7927 H 745.734 -1.79419 3.26899 0
M  V30 7928 N 747.919 -1.57396 -0.0801906 0
M  V30 7929 C 749.167 -1.86467 -0.779384 0
M  V30 7930 C 749.488 -0.784243 -1.78535 0
M  V30 7931 O 748.758 0.187986 -1.94996 0
M  V30 7932 H 747.338 -0.68806 -0.29083 0
M  V30 7933 H 750 -1.94813 -0.0582749 0
M  V30 7934 H 749.096 -2.83701 -1.30078 0
M  V30 7935 N 749.397 0.351382 -1.53633 0
M  V30 7936 C 750.344 1.43115 -1.81071 0
M  V30 7937 C 751.314 1.52601 -0.655913 0
M  V30 7938 O 752.499 1.68264 -0.89955 0
M  V30 7939 C 749.639 2.79874 -2.01903 0
M  V30 7940 C 748.752 2.79242 -3.29618 0
M  V30 7941 C 747.887 4.07667 -3.40559 0
M  V30 7942 C 746.926 4.01233 -4.62254 0
M  V30 7943 N 746.063 5.21334 -4.70271 0
M  V30 7944 H 750.903 1.19017 -2.73201 0
M  V30 7945 H 748.44 0.576691 -1.35324 0
M  V30 7946 H 750.398 3.5934 -2.11969 0
M  V30 7947 H 749.028 3.0234 -1.13094 0
M  V30 7948 H 748.08 1.91927 -3.28433 0
M  V30 7949 H 749.392 2.70363 -4.19172 0
M  V30 7950 H 748.546 4.95555 -3.50015 0
M  V30 7951 H 747.285 4.19317 -2.49047 0
M  V30 7952 H 746.29 3.11732 -4.52884 0
M  V30 7953 H 747.515 3.91173 -5.55122 0
M  V30 7954 H 745.461 5.33543 -3.81665 0
M  V30 7955 H 745.378 5.14681 -5.5375 0
M  V30 7956 H 746.646 6.11014 -4.84027 0
M  V30 7957 N 750.875 1.45233 0.611969 0
M  V30 7958 C 752.124 1.48296 1.36716 0
M  V30 7959 C 752.437 0.12706 1.95187 0
M  V30 7960 O 753.643 0.0353066 2.71477 0
M  V30 7961 C 752.099 2.61168 2.47627 0
M  V30 7962 C 751.707 4.03051 1.95587 0
M  V30 7963 C 753.451 2.73472 3.24674 0
M  V30 7964 C 751.358 5.07312 3.03954 0
M  V30 7965 H 750.288 0.5518 0.513841 0
M  V30 7966 H 752.939 1.7136 0.656359 0
M  V30 7967 H 751.321 2.31379 3.21372 0
M  V30 7968 H 752.495 4.42497 1.2858 0
M  V30 7969 H 750.81 3.95158 1.31298 0
M  V30 7970 H 753.407 3.48537 4.05494 0
M  V30 7971 H 753.75 1.79953 3.75397 0
M  V30 7972 H 754.283 3.02765 2.58028 0
M  V30 7973 H 751.022 6.02525 2.58154 0
M  V30 7974 H 750.542 4.7244 3.69541 0
M  V30 7975 H 752.221 5.31867 3.6841 0
M  V30 7976 N 752.353 -0.854086 1.3245 0
M  V30 7977 C 753.602 -1.60318 1.22397 0
M  V30 7978 C 753.915 -1.9444 -0.212664 0
M  V30 7979 O 755.121 -2.67991 -0.435066 0
M  V30 7980 C 753.577 -2.8909 2.1437 0
M  V30 7981 C 753.185 -2.62391 3.63119 0
M  V30 7982 C 754.929 -3.67104 2.13155 0
M  V30 7983 C 752.836 -3.87167 4.47052 0
M  V30 7984 H 751.766 -0.601586 0.454544 0
M  V30 7985 H 754.417 -0.943023 1.57415 0
M  V30 7986 H 752.799 -3.56567 1.72268 0
M  V30 7987 H 753.973 -2.03222 4.13567 0
M  V30 7988 H 752.288 -1.97706 3.66471 0
M  V30 7989 H 754.885 -4.59696 2.731 0
M  V30 7990 H 755.228 -4.00876 1.12268 0
M  V30 7991 H 755.761 -3.06533 2.5354 0
M  V30 7992 H 752.5 -3.58536 5.48755 0
M  V30 7993 H 752.02 -4.45729 4.01355 0
M  V30 7994 H 753.699 -4.549 4.60081 0
M  V30 7995 N 753.831 -1.1567 -1.07043 0
M  V30 7996 C 755.056 -0.957946 -1.83952 0
M  V30 7997 C 755.481 0.488807 -1.81638 0
M  V30 7998 O 754.839 1.34869 -1.21162 0
M  V30 7999 C 754.887 -1.48064 -3.288 0
M  V30 8000 O 753.991 -0.681921 -4.06723 0
M  V30 8001 H 753.332 -0.341453 -0.569479 0
M  V30 8002 H 755.862 -1.53728 -1.35015 0
M  V30 8003 H 755.872 -1.49484 -3.7963 0
M  V30 8004 H 754.547 -2.53388 -3.29799 0
M  V30 8005 H 753.124 -0.737612 -3.65532 0
M  V30 8006 N 755.309 1.25446 -0.953992 0
M  V30 8007 C 756.534 1.97755 -0.625129 0
M  V30 8008 C 756.959 1.70437 0.795787 0
M  V30 8009 O 756.317 0.95992 1.53803 0
M  V30 8010 C 756.365 3.49463 -0.889251 0
M  V30 8011 O 755.469 4.12387 0.0322757 0
M  V30 8012 H 754.81 0.61998 -0.237742 0
M  V30 8013 H 757.34 1.59582 -1.28041 0
M  V30 8014 H 757.35 3.99772 -0.815263 0
M  V30 8015 H 756.025 3.68676 -1.92487 0
M  V30 8016 H 754.602 3.72782 -0.0938625 0
M  V30 8017 N 756.787 0.722489 1.40064 0
M  V30 8018 C 758.033 0.27422 2.01543 0
M  V30 8019 C 758.388 -1.12224 1.5628 0
M  V30 8020 O 757.681 -1.75179 0.776063 0
M  V30 8021 C 757.875 0.300682 3.56133 0
M  V30 8022 C 757.704 1.69818 4.16404 0
M  V30 8023 C 756.474 2.30747 4.49537 0
M  V30 8024 C 758.672 2.64962 4.40794 0
M  V30 8025 N 756.654 3.62781 4.9524 0
M  V30 8026 C 758.025 3.81712 4.88565 0
M  V30 8027 C 760.08 2.62885 4.22842 0
M  V30 8028 C 758.783 4.96703 5.20268 0
M  V30 8029 C 760.809 3.77009 4.55652 0
M  V30 8030 C 760.171 4.92492 5.03618 0
M  V30 8031 H 756.27 0.146328 0.768188 0
M  V30 8032 H 758.854 0.94577 1.70186 0
M  V30 8033 H 757.025 -0.340461 3.86905 0
M  V30 8034 H 758.757 -0.164951 4.04364 0
M  V30 8035 H 755.512 1.82783 4.36907 0
M  V30 8036 H 755.936 4.30533 5.22465 0
M  V30 8037 H 760.578 1.74803 3.84972 0
M  V30 8038 H 758.296 5.85425 5.57049 0
M  V30 8039 H 761.882 3.76685 4.43396 0
M  V30 8040 H 760.762 5.79336 5.28525 0
M  V30 8041 N 758.265 -1.50454 0.469181 0
M  V30 8042 C 759.175 -2.32248 -0.331349 0
M  V30 8043 C 760.191 -1.42548 -0.997807 0
M  V30 8044 O 761.367 -1.75602 -0.9862 0
M  V30 8045 C 758.432 -3.17171 -1.40012 0
M  V30 8046 C 757.493 -4.2269 -0.750463 0
M  V30 8047 C 756.726 -5.03554 -1.76831 0
M  V30 8048 O 756.949 -4.85469 -2.99459 0
M  V30 8049 O 755.883 -5.86767 -1.3412 0
M  V30 8050 H 759.709 -3.01821 0.337279 0
M  V30 8051 H 757.294 -1.47602 0.231066 0
M  V30 8052 H 759.176 -3.69871 -2.01924 0
M  V30 8053 H 757.851 -2.50328 -2.05226 0
M  V30 8054 H 756.758 -3.73986 -0.0924446 0
M  V30 8055 H 758.091 -4.91997 -0.14131 0
M  V30 8056 N 759.743 -0.201713 -1.56304 0
M  V30 8057 C 760.968 0.443815 -2.02596 0
M  V30 8058 C 761.393 1.53945 -1.08086 0
M  V30 8059 O 760.751 1.81182 -0.0655056 0
M  V30 8060 C 760.799 0.971066 -3.47279 0
M  V30 8061 O 759.903 2.0836 -3.55893 0
M  V30 8062 H 759.244 0.10294 -0.655972 0
M  V30 8063 H 761.774 -0.314533 -2.02168 0
M  V30 8064 H 761.784 1.28598 -3.87204 0
M  V30 8065 H 760.459 0.169048 -4.15556 0
M  V30 8066 H 759.036 1.77683 -3.27846 0
M  V30 8067 N 761.222 1.57436 0.0718424 0
M  V30 8068 C 762.452 1.91196 0.782795 0
M  V30 8069 C 762.86 0.795927 1.71644 0
M  V30 8070 O 762.203 -0.239604 1.82131 0
M  V30 8071 C 762.265 3.20421 1.63005 0
M  V30 8072 C 761.929 4.48724 0.865782 0
M  V30 8073 C 762.926 5.19571 0.185051 0
M  V30 8074 C 760.611 4.95345 0.832971 0
M  V30 8075 C 762.605 6.3529 -0.518264 0
M  V30 8076 C 760.292 6.1097 0.125884 0
M  V30 8077 C 761.29 6.80794 -0.548533 0
M  V30 8078 O 760.978 7.94213 -1.24423 0
M  V30 8079 H 760.71 0.636486 0.227731 0
M  V30 8080 H 763.264 2.05348 0.0464187 0
M  V30 8081 H 761.494 3.02478 2.40923 0
M  V30 8082 H 763.183 3.39831 2.21968 0
M  V30 8083 H 763.949 4.8458 0.201707 0
M  V30 8084 H 759.828 4.40871 1.34737 0
M  V30 8085 H 763.372 6.89725 -1.04523 0
M  V30 8086 H 759.269 6.45411 0.107155 0
M  V30 8087 H 760.037 8.10331 -1.1535 0
M  V30 8088 N 762.7 -0.34323 1.53817 0
M  V30 8089 C 763.647 -1.42153 1.81827 0
M  V30 8090 C 764.617 -1.52251 0.663996 0
M  V30 8091 O 765.802 -1.67784 0.908461 0
M  V30 8092 C 762.942 -2.78799 2.03384 0
M  V30 8093 C 762.055 -2.7749 3.31094 0
M  V30 8094 C 761.19 -4.05856 3.42717 0
M  V30 8095 C 760.229 -3.98776 4.64375 0
M  V30 8096 N 759.366 -5.18833 4.73029 0
M  V30 8097 H 764.206 -1.17567 2.73829 0
M  V30 8098 H 761.743 -0.569506 1.35628 0
M  V30 8099 H 763.701 -3.58211 2.13872 0
M  V30 8100 H 762.331 -3.01736 1.14696 0
M  V30 8101 H 761.383 -1.90182 3.29446 0
M  V30 8102 H 762.695 -2.68137 4.206 0
M  V30 8103 H 761.849 -4.93691 3.52638 0
M  V30 8104 H 760.588 -4.1799 2.51267 0
M  V30 8105 H 759.593 -3.09325 4.5453 0
M  V30 8106 H 760.818 -3.88224 5.57189 0
M  V30 8107 H 758.764 -5.31511 3.84489 0
M  V30 8108 H 758.681 -5.11737 5.56472 0
M  V30 8109 H 759.949 -6.08439 4.87261 0
M  V30 8110 N 764.178 -1.45556 -0.604258 0
M  V30 8111 C 765.403 -1.53509 -1.39462 0
M  V30 8112 C 765.828 -0.169638 -1.87333 0
M  V30 8113 O 765.186 0.846346 -1.60333 0
M  V30 8114 C 765.234 -2.52654 -2.5729 0
M  V30 8115 O 764.338 -2.04666 -3.5803 0
M  V30 8116 H 763.679 -0.517355 -0.416221 0
M  V30 8117 H 766.209 -1.90939 -0.735072 0
M  V30 8118 H 766.219 -2.71568 -3.04491 0
M  V30 8119 H 764.894 -3.51823 -2.21797 0
M  V30 8120 H 763.471 -1.95643 -3.17456 0
M  V30 8121 N 765.656 0.84705 -1.32902 0
M  V30 8122 C 766.904 1.5986 -1.2365 0
M  V30 8123 C 767.225 1.93974 0.199789 0
M  V30 8124 O 766.495 1.60273 1.12648 0
M  V30 8125 H 765.075 0.592696 -0.454665 0
M  V30 8126 H 767.737 1.01278 -1.66519 0
M  V30 8127 H 766.833 2.53218 -1.82448 0
M  V30 8128 N 767.134 1.16236 1.06428 0
M  V30 8129 C 768.382 0.941171 1.78847 0
M  V30 8130 C 768.703 -0.53248 1.87589 0
M  V30 8131 O 767.973 -1.38686 1.38358 0
M  V30 8132 H 766.553 0.345228 0.66244 0
M  V30 8133 H 769.215 1.46479 1.28569 0
M  V30 8134 H 768.311 1.35871 2.80972 0
M  V30 8135 N 768.612 -1.24939 0.960631 0
M  V30 8136 C 769.522 -2.29374 0.492435 0
M  V30 8137 C 770.538 -1.68262 -0.443154 0
M  V30 8138 O 771.714 -1.98875 -0.31793 0
M  V30 8139 C 768.779 -3.46023 -0.216626 0
M  V30 8140 C 767.84 -4.22557 0.757915 0
M  V30 8141 C 767.073 -5.33636 0.0825969 0
M  V30 8142 O 767.296 -5.59084 -1.13054 0
M  V30 8143 O 766.23 -5.96939 0.771177 0
M  V30 8144 H 770.056 -2.71525 1.36044 0
M  V30 8145 H 767.641 -1.30499 0.72735 0
M  V30 8146 H 769.523 -4.16885 -0.615241 0
M  V30 8147 H 768.198 -3.05862 -1.05971 0
M  V30 8148 H 767.105 -3.54099 1.20685 0
M  V30 8149 H 768.438 -4.66516 1.5692 0
M  V30 8150 N 770.09 -0.729906 -1.39679 0
M  V30 8151 C 771.318 -0.285709 -2.04918 0
M  V30 8152 C 771.733 1.07765 -1.55023 0
M  V30 8153 O 771.09 1.67999 -0.712923 0
M  V30 8154 C 771.141 -0.272793 -3.60469 0
M  V30 8155 O 770.862 -1.58233 -4.08527 0
M  V30 8156 C 772.363 0.188199 -4.429 0
M  V30 8157 H 769.583 -0.125758 -0.65911 0
M  V30 8158 H 772.127 -0.992129 -1.78821 0
M  V30 8159 H 770.282 0.384699 -3.85485 0
M  V30 8160 H 770.696 -1.49245 -5.02818 0
M  V30 8161 H 772.17 0.14608 -5.51807 0
M  V30 8162 H 772.647 1.2326 -4.21549 0
M  V30 8163 H 773.253 -0.439541 -4.23023 0
M  V30 8164 N 771.568 1.50203 -0.477153 0
M  V30 8165 C 772.816 2.01959 0.0755889 0
M  V30 8166 C 773.137 1.3608 1.39668 0
M  V30 8167 O 772.407 0.508136 1.89195 0
M  V30 8168 H 770.987 0.74636 0.0309248 0
M  V30 8169 H 773.649 1.84473 -0.628959 0
M  V30 8170 H 772.745 3.11305 0.222683 0
M  V30 8171 N 773.046 0.209999 1.56195 0
M  V30 8172 C 773.976 -0.699746 2.22769 0
M  V30 8173 C 774.957 -1.20993 1.1956 0
M  V30 8174 O 776.142 -1.25605 1.48112 0
M  V30 8175 C 773.272 -1.91302 2.89863 0
M  V30 8176 C 772.226 -1.53715 3.99444 0
M  V30 8177 C 771.552 -2.82826 4.53777 0
M  V30 8178 C 772.852 -0.735836 5.17091 0
M  V30 8179 H 774.546 -0.144716 2.9905 0
M  V30 8180 H 772.092 -0.0681645 1.43839 0
M  V30 8181 H 774.045 -2.5548 3.35124 0
M  V30 8182 H 772.769 -2.49283 2.11011 0
M  V30 8183 H 771.428 -0.918892 3.54897 0
M  V30 8184 H 771.076 -3.38927 3.71669 0
M  V30 8185 H 770.776 -2.58415 5.27727 0
M  V30 8186 H 772.3 -3.47966 5.01749 0
M  V30 8187 H 773.714 -1.28105 5.58804 0
M  V30 8188 H 772.111 -0.589272 5.972 0
M  V30 8189 H 773.181 0.260004 4.84202 0
M  V30 8190 O 774.563 -1.61333 0.0733639 0
M  V30 8191 H 775.254 -1.86233 -0.532616 0
M  V30 END ATOM
M  V30 BEGIN BOND
M  V30 END BOND
M  V30 END CTAB
M  END
$$$$
