drugbank_target|P08671 Matrix protein (DB11603)
 OpenBabel12092121203D

  0  0  0     0  0            999 V3000
M  V30 BEGIN CTAB
M  V30 COUNTS 3239 3275 0 0 0
M  V30 BEGIN ATOM
M  V30 1 H -0.908 1.98254 -0.117106 0
M  V30 2 N 0 1.576 0 0
M  V30 3 C 0.933 2.03868 1.02534 0
M  V30 4 C 1.911 0.928543 1.3348 0
M  V30 5 O 3.095 1.19667 1.45644 0
M  V30 6 C 0.222 2.43627 2.35294 0
M  V30 7 C -0.732 3.65373 2.2001 0
M  V30 8 S 0.101 5.13292 1.52614 0
M  V30 9 C 1.257 5.56322 2.86805 0
M  V30 10 H 1.49 2.90518 0.631377 0
M  V30 11 H -0.977 1.52953 0.210867 0
M  V30 12 H 0.981 2.67203 3.11629 0
M  V30 13 H -0.358 1.57376 2.7183 0
M  V30 14 H -1.165 3.90944 3.18086 0
M  V30 15 H -1.563 3.418 1.51819 0
M  V30 16 H 0.729 5.58782 3.83104 0
M  V30 17 H 1.672 6.56266 2.65933 0
M  V30 18 H 2.08 4.83886 2.90714 0
M  V30 19 N 1.4781 -0.272755 1.55222 0
M  V30 20 C 2.4261 -1.35705 1.88909 0
M  V30 21 C 3.4201 -1.5112 0.765456 0
M  V30 22 O 4.6261 -1.52901 0.949802 0
M  V30 23 H 1.0011 -0.453868 0.59959 0
M  V30 24 H 2.9721 -1.04544 2.79487 0
M  V30 25 C 1.7211 -2.71049 2.17779 0
M  V30 26 H 1.0441 -2.59979 3.03728 0
M  V30 27 H 2.4841 -3.45858 2.45272 0
M  V30 28 C 0.9431 -3.22165 0.985473 0
M  V30 29 O 1.4731 -4.01096 0.220233 0
M  V30 30 N -0.3209 -2.7985 0.783108 0
M  V30 31 H -0.7739 -2.15775 1.40708 0
M  V30 32 H -0.8159 -3.14397 -0.0130392 0
M  V30 33 N 2.9562 -1.48159 -0.537278 0
M  V30 34 C 4.2032 -1.55804 -1.29349 0
M  V30 35 C 4.5312 -0.228802 -1.9315 0
M  V30 36 O 3.7862 0.780242 -1.79473 0
M  V30 37 C 4.0852 -2.63956 -2.40961 0
M  V30 38 C 3.7512 -4.0662 -1.94861 0
M  V30 39 C 2.4132 -4.45452 -1.82006 0
M  V30 40 C 4.7652 -4.96055 -1.59933 0
M  V30 41 C 2.0932 -5.71531 -1.32547 0
M  V30 42 C 4.4452 -6.22617 -1.11939 0
M  V30 43 C 3.1092 -6.60312 -0.976951 0
M  V30 44 H 2.3792 -0.570129 -0.473322 0
M  V30 45 H 5.0262 -1.81845 -0.600372 0
M  V30 46 H 3.3312 -2.31747 -3.15912 0
M  V30 47 H 5.0282 -2.67089 -2.99107 0
M  V30 48 H 1.6182 -3.75949 -2.05815 0
M  V30 49 H 5.8022 -4.66738 -1.68728 0
M  V30 50 H 1.0582 -5.99468 -1.202 0
M  V30 51 H 5.2322 -6.91318 -0.839811 0
M  V30 52 H 2.8592 -7.57895 -0.591501 0
M  V30 53 N 4.4343 0.785586 -1.36625 0
M  V30 54 C 5.3643 1.91259 -1.33949 0
M  V30 55 C 6.3453 1.68795 -0.210325 0
M  V30 56 O 7.5303 1.89854 -0.408561 0
M  V30 57 C 4.6603 3.28339 -1.13186 0
M  V30 58 C 3.6143 3.65335 -2.22967 0
M  V30 59 C 2.9403 5.00806 -1.87342 0
M  V30 60 C 4.2403 3.7352 -3.65075 0
M  V30 61 H 5.9343 1.93755 -2.28253 0
M  V30 62 H 3.4803 0.930788 -1.09874 0
M  V30 63 H 5.4333 4.06804 -1.09948 0
M  V30 64 H 4.1573 3.2624 -0.153332 0
M  V30 65 H 2.8163 2.89169 -2.25337 0
M  V30 66 H 2.4643 4.95233 -0.880545 0
M  V30 67 H 2.1643 5.26529 -2.60846 0
M  V30 68 H 3.6883 5.81687 -1.85667 0
M  V30 69 H 5.1023 4.42168 -3.64911 0
M  V30 70 H 3.4993 4.10731 -4.37516 0
M  V30 71 H 4.5693 2.74527 -3.99703 0
M  V30 72 N 5.9124 1.20967 1.01018 0
M  V30 73 C 7.3284 0.965905 1.27053 0
M  V30 74 C 7.5284 -0.350785 1.98423 0
M  V30 75 O 6.5844 -1.07773 2.28344 0
M  V30 76 C 7.8974 2.15294 2.09926 0
M  V30 77 C 9.4454 2.19463 2.23171 0
M  V30 78 C 9.9204 3.3767 3.09424 0
M  V30 79 N 11.4114 3.37724 3.17012 0
M  V30 80 C 12.1464 4.25837 3.83993 0
M  V30 81 N 11.6424 5.24138 4.53047 0
M  V30 82 N 13.4354 4.1366 3.80581 0
M  V30 83 H 5.5864 2.0565 0.531194 0
M  V30 84 H 7.8494 0.90024 0.297106 0
M  V30 85 H 7.5554 3.10684 1.64828 0
M  V30 86 H 7.4294 2.13923 3.10672 0
M  V30 87 H 9.8164 1.24632 2.6749 0
M  V30 88 H 9.8974 2.2488 1.21912 0
M  V30 89 H 9.5414 4.32791 2.65808 0
M  V30 90 H 9.4714 3.29491 4.10784 0
M  V30 91 H 11.9624 2.6658 2.6785 0
M  V30 92 H 12.2754 5.87684 5.01844 0
M  V30 93 H 10.6204 5.28068 4.5185 0
M  V30 94 H 13.8114 3.36127 3.25785 0
M  V30 95 H 13.9844 4.82538 4.32505 0
M  V30 96 N 7.3905 -1.2043 1.01659 0
M  V30 97 C 8.3375 -2.23215 0.586822 0
M  V30 98 C 9.3075 -1.61382 -0.393085 0
M  V30 99 O 10.4925 -1.88544 -0.292525 0
M  V30 100 C 7.6325 -3.45032 -0.0687464 0
M  V30 101 C 6.7455 -4.21296 0.955724 0
M  V30 102 C 5.8805 -5.30507 0.271208 0
M  V30 103 C 4.9195 -5.98515 1.28244 0
M  V30 104 N 4.0565 -6.99316 0.62459 0
M  V30 105 H 8.8965 -2.59336 1.46796 0
M  V30 106 H 6.4335 -1.27431 0.734836 0
M  V30 107 H 8.3915 -4.1459 -0.465965 0
M  V30 108 H 7.0215 -3.09604 -0.913529 0
M  V30 109 H 6.0735 -3.50803 1.4711 0
M  V30 110 H 7.3855 -4.6803 1.72479 0
M  V30 111 H 6.5395 -6.06428 -0.18151 0
M  V30 112 H 5.2785 -4.8481 -0.530163 0
M  V30 113 H 4.2835 -5.21355 1.74554 0
M  V30 114 H 5.5085 -6.46298 2.08509 0
M  V30 115 H 3.4545 -6.55812 -0.156914 0
M  V30 116 H 3.3715 -7.44178 1.33172 0
M  V30 117 H 4.6395 -7.79255 0.195462 0
M  V30 118 N 8.8686 -0.792821 -1.36206 0
M  V30 119 C 10.1176 -0.363353 -1.984 0
M  V30 120 C 10.4306 1.07172 -1.63626 0
M  V30 121 O 11.6366 1.60362 -2.19081 0
M  V30 122 C 10.0926 -0.59872 -3.54885 0
M  V30 123 C 9.7006 -2.04543 -3.9858 0
M  V30 124 C 11.4446 -0.233926 -4.23855 0
M  V30 125 C 9.3516 -2.22727 -5.47856 0
M  V30 126 H 8.2816 -0.13212 -0.742334 0
M  V30 127 H 10.9326 -0.974935 -1.55458 0
M  V30 128 H 9.3146 0.0826222 -3.95914 0
M  V30 129 H 10.4886 -2.76345 -3.68741 0
M  V30 130 H 8.8036 -2.36879 -3.42458 0
M  V30 131 H 11.4006 -0.348027 -5.33566 0
M  V30 132 H 11.7436 0.818351 -4.08177 0
M  V30 133 H 12.2766 -0.868639 -3.882 0
M  V30 134 H 9.0156 -3.2635 -5.68486 0
M  V30 135 H 8.5356 -1.55434 -5.7931 0
M  V30 136 H 10.2146 -2.03607 -6.14128 0
M  V30 137 N 10.3467 1.47872 -0.545128 0
M  V30 138 C 11.5927 2.02793 -0.0166104 0
M  V30 139 C 11.9257 1.41987 1.32489 0
M  V30 140 O 11.2007 0.571045 1.85928 0
M  V30 141 C 11.4837 3.59989 0.0893294 0
M  V30 142 C 11.3367 4.3125 -1.27841 0
M  V30 143 C 12.6557 4.32606 0.808724 0
M  V30 144 H 9.7747 0.736962 -0.00751035 0
M  V30 145 H 12.4167 1.76433 -0.705085 0
M  V30 146 H 10.5667 3.82579 0.675681 0
M  V30 147 H 12.2387 4.20035 -1.90704 0
M  V30 148 H 10.4817 3.92076 -1.85632 0
M  V30 149 H 11.1527 5.39736 -1.15713 0
M  V30 150 H 13.6287 4.14936 0.310992 0
M  V30 151 H 12.5047 5.42251 0.851782 0
M  V30 152 H 12.7657 4.00963 1.86229 0
M  V30 153 N 11.8248 0.280983 1.55075 0
M  V30 154 C 12.7718 -0.603937 2.22758 0
M  V30 155 C 13.7418 -1.1452 1.20309 0
M  V30 156 O 14.9268 -1.19343 1.48869 0
M  V30 157 C 12.0668 -1.77947 2.95684 0
M  V30 158 C 11.1798 -1.2715 4.12864 0
M  V30 159 C 10.3148 -2.4093 4.7342 0
M  V30 160 C 9.3538 -1.87165 5.82783 0
M  V30 161 N 8.4908 -2.94441 6.37377 0
M  V30 162 H 13.3308 -0.020124 2.97993 0
M  V30 163 H 10.8678 0.00183425 1.471 0
M  V30 164 H 12.8258 -2.47055 3.36184 0
M  V30 165 H 11.4558 -2.33522 2.22861 0
M  V30 166 H 10.5078 -0.473331 3.77444 0
M  V30 167 H 11.8198 -0.837751 4.91715 0
M  V30 168 H 10.9738 -3.18021 5.1667 0
M  V30 169 H 9.7128 -2.87623 3.93859 0
M  V30 170 H 8.7178 -1.08556 5.38976 0
M  V30 171 H 9.9428 -1.41401 6.64216 0
M  V30 172 H 7.8888 -3.40505 5.60707 0
M  V30 173 H 7.8058 -2.55501 7.11516 0
M  V30 174 H 9.0738 -3.71489 6.85285 0
M  V30 175 N 13.3029 -1.57598 0.00835791 0
M  V30 176 C 14.2509 -2.10078 -0.998508 0
M  V30 177 C 15.2449 -1.02262 -1.35051 0
M  V30 178 O 16.4509 -1.20719 -1.33518 0
M  V30 179 H 12.8259 -0.670903 -0.339696 0
M  V30 180 H 14.7969 -2.93648 -0.530398 0
M  V30 181 C 13.5459 -2.62615 -2.27879 0
M  V30 182 H 12.8689 -3.45213 -2.01662 0
M  V30 183 H 14.3089 -3.03004 -2.96588 0
M  V30 184 C 12.7679 -1.54407 -2.99433 0
M  V30 185 O 13.2979 -0.931812 -3.90743 0
M  V30 186 N 11.5039 -1.2695 -2.61404 0
M  V30 187 H 11.0509 -1.76924 -1.87232 0
M  V30 188 H 11.0089 -0.547704 -3.09593 0
M  V30 189 N 14.781 0.264519 -1.55364 0
M  V30 190 C 16.021 1.00254 -1.78125 0
M  V30 191 C 16.385 1.83187 -0.575017 0
M  V30 192 O 17.586 2.60029 -0.681042 0
M  V30 193 C 15.857 1.85478 -3.05504 0
M  V30 194 S 17.416 2.6543 -3.49417 0
M  V30 195 H 14.234 0.337522 -0.625779 0
M  V30 196 H 16.836 0.272111 -1.93597 0
M  V30 197 H 15.54 1.23491 -3.9138 0
M  V30 198 H 15.071 2.62827 -2.92721 0
M  V30 199 H 17.086 3.87958 -3.09359 0
M  V30 200 N 16.2591 1.48442 0.529413 0
M  V30 201 C 17.6751 1.34575 0.858004 0
M  V30 202 C 17.8751 0.3572 1.98309 0
M  V30 203 O 16.9311 -0.221379 2.51528 0
M  V30 204 C 18.2441 2.74617 1.22499 0
M  V30 205 C 19.7921 2.83109 1.33484 0
M  V30 206 C 20.2671 4.23854 1.73526 0
M  V30 207 N 21.7581 4.2653 1.80628 0
M  V30 208 C 22.4931 5.32372 2.12997 0
M  V30 209 N 21.9891 6.48491 2.43786 0
M  V30 210 N 23.7821 5.19766 2.14008 0
M  V30 211 H 15.9331 2.1133 -0.212925 0
M  V30 212 H 18.1961 0.947439 -0.0326199 0
M  V30 213 H 17.9021 3.4852 0.471905 0
M  V30 214 H 17.7761 3.08177 2.17501 0
M  V30 215 H 20.1631 2.09462 2.0787 0
M  V30 216 H 20.2441 2.53168 0.366027 0
M  V30 217 H 19.8881 4.98018 0.997013 0
M  V30 218 H 19.8181 4.5124 2.71459 0
M  V30 219 H 22.3091 3.42772 1.59108 0
M  V30 220 H 22.6221 7.24993 2.67592 0
M  V30 221 H 20.9671 6.51765 2.41304 0
M  V30 222 H 24.1581 4.28066 1.89412 0
M  V30 223 H 24.3311 6.02354 2.38902 0
M  V30 224 N 17.7372 -0.778329 1.37039 0
M  V30 225 C 19.0142 -1.52551 1.22424 0
M  V30 226 C 19.3942 -2.10288 -0.184964 0
M  V30 227 O 18.7422 -1.94953 -1.19187 0
M  V30 228 C 18.9522 -2.61164 2.31504 0
M  V30 229 C 20.3002 -3.28746 2.68721 0
M  V30 230 O 21.3242 -2.71455 2.30631 0
M  V30 231 O 20.1832 -4.3231 3.3432 0
M  V30 232 H 17.2772 -0.675343 0.477326 0
M  V30 233 H 19.8232 -0.815859 1.48801 0
M  V30 234 H 18.5952 -2.16574 3.25901 0
M  V30 235 H 18.2182 -3.39737 2.06554 0
M  V30 236 N 19.2153 -1.21501 -1.00376 0
M  V30 237 C 20.1253 -0.991447 -2.12621 0
M  V30 238 C 21.1413 0.0568446 -1.73907 0
M  V30 239 O 22.3173 -0.13348 -2.00957 0
M  V30 240 C 19.3823 -0.560312 -3.42142 0
M  V30 241 C 18.4433 -1.68096 -3.95022 0
M  V30 242 C 17.6763 -1.2703 -5.18362 0
M  V30 243 O 17.8993 -0.144438 -5.70217 0
M  V30 244 O 16.8333 -2.08269 -5.64719 0
M  V30 245 H 20.6593 -1.93158 -2.34358 0
M  V30 246 H 18.2443 -0.999999 -1.10997 0
M  V30 247 H 20.1263 -0.329724 -4.20108 0
M  V30 248 H 18.8013 0.351089 -3.2179 0
M  V30 249 H 17.7083 -1.96597 -3.18278 0
M  V30 250 H 19.0413 -2.56983 -4.19786 0
M  V30 251 N 20.6934 1.19889 -1.02296 0
M  V30 252 C 21.9704 1.85148 -0.630832 0
M  V30 253 C 22.3504 1.91385 0.890782 0
M  V30 254 O 21.6984 1.42642 1.78509 0
M  V30 255 C 21.9084 3.24442 -1.28602 0
M  V30 256 C 23.2564 4.00663 -1.4055 0
M  V30 257 O 24.2804 3.33818 -1.24273 0
M  V30 258 O 23.1394 5.20387 -1.66913 0
M  V30 259 H 20.2334 0.797613 -0.218499 0
M  V30 260 H 22.7794 1.27427 -1.12074 0
M  V30 261 H 21.5514 3.14704 -2.32545 0
M  V30 262 H 21.1744 3.89802 -0.7836 0
M  V30 263 N 22.1715 0.800033 1.35784 0
M  V30 264 C 23.3995 0.389606 2.03199 0
M  V30 265 C 23.8145 -0.997375 1.60306 0
M  V30 266 O 23.1715 -1.64154 0.797481 0
M  V30 267 C 23.2225 0.455855 3.58614 0
M  V30 268 O 22.9435 1.78815 3.99946 0
M  V30 269 C 24.4445 0.0374032 4.43284 0
M  V30 270 H 21.6645 0.159132 0.651857 0
M  V30 271 H 24.2085 1.08183 1.73541 0
M  V30 272 H 22.3635 -0.188057 3.86943 0
M  V30 273 H 22.7775 1.74636 4.94573 0
M  V30 274 H 24.2515 0.134882 5.51835 0
M  V30 275 H 24.7285 -1.01651 4.27275 0
M  V30 276 H 25.3345 0.654215 4.20238 0
M  V30 277 N 23.6496 -1.47581 0.552962 0
M  V30 278 C 24.5816 -2.27997 -0.234533 0
M  V30 279 C 25.5946 -1.36753 -0.883321 0
M  V30 280 O 26.7836 -1.61612 -0.757889 0
M  V30 281 C 23.8836 -3.10879 -1.34935 0
M  V30 282 C 23.0566 -4.30056 -0.798158 0
M  V30 283 C 22.1156 -4.94567 -1.79694 0
M  V30 284 O 21.1416 -5.53087 -1.34474 0
M  V30 285 N 22.3436 -4.88878 -3.13015 0
M  V30 286 H 25.1086 -2.96222 0.455255 0
M  V30 287 H 22.6696 -1.57163 0.388761 0
M  V30 288 H 24.6616 -3.50903 -2.01616 0
M  V30 289 H 23.2316 -2.44924 -1.94244 0
M  V30 290 H 22.4516 -3.94174 0.0453079 0
M  V30 291 H 23.7396 -5.07152 -0.409173 0
M  V30 292 H 23.1376 -4.42526 -3.52402 0
M  V30 293 H 21.6946 -5.32934 -3.75266 0
M  V30 294 N 25.1277 -0.289203 -1.54924 0
M  V30 295 C 26.0747 0.592115 -2.23075 0
M  V30 296 C 27.0447 1.13881 -1.20915 0
M  V30 297 O 28.2297 1.18551 -1.495 0
M  V30 298 C 25.3697 1.76376 -2.96623 0
M  V30 299 C 24.4827 1.24959 -4.13533 0
M  V30 300 C 23.6177 2.38416 -4.74691 0
M  V30 301 C 22.6567 1.84072 -5.83767 0
M  V30 302 N 21.7937 2.91057 -6.38929 0
M  V30 303 H 26.6337 0.00432038 -2.98 0
M  V30 304 H 24.1707 -0.00963529 -1.47097 0
M  V30 305 H 26.1287 2.45268 -3.3749 0
M  V30 306 H 24.7587 2.32337 -2.24097 0
M  V30 307 H 23.8107 0.453307 -3.77689 0
M  V30 308 H 25.1227 0.811662 -4.92152 0
M  V30 309 H 24.2767 3.15276 -5.18349 0
M  V30 310 H 23.0157 2.8553 -3.95378 0
M  V30 311 H 22.0207 1.05697 -5.39545 0
M  V30 312 H 23.2457 1.37877 -6.64956 0
M  V30 313 H 21.1917 3.37526 -5.62505 0
M  V30 314 H 21.1087 2.51724 -7.12861 0
M  V30 315 H 22.3767 3.6785 -6.87246 0
M  V30 316 N 26.6058 1.57591 -0.0167156 0
M  V30 317 C 28.0168 1.79201 0.523834 0
M  V30 318 C 28.3678 0.925796 1.72984 0
M  V30 319 O 27.4928 0.132792 2.15992 0
M  V30 320 C 28.0878 3.25 0.957091 0
M  V30 321 C 26.6468 3.47648 1.44283 0
M  V30 322 C 25.7938 2.74374 0.401757 0
M  V30 323 H 28.7448 1.56831 -0.242816 0
M  V30 324 H 28.7658 3.34031 1.82219 0
M  V30 325 H 28.2778 3.88019 0.0791415 0
M  V30 326 H 26.3788 2.89866 2.34113 0
M  V30 327 H 26.4918 4.56352 1.45877 0
M  V30 328 H 24.8558 2.39485 0.867121 0
M  V30 329 H 25.6388 3.40102 -0.467513 0
M  V30 330 N 28.0839 -0.256276 1.55502 0
M  V30 331 C 29.3089 -1.00766 1.81276 0
M  V30 332 C 29.7339 -1.78524 0.59252 0
M  V30 333 O 29.0919 -1.75413 -0.45827 0
M  V30 334 C 29.1399 -1.92869 3.04687 0
M  V30 335 O 28.2439 -3.019 2.80945 0
M  V30 336 H 27.5849 -0.287224 0.598664 0
M  V30 337 H 30.1149 -0.280109 2.02674 0
M  V30 338 H 30.1249 -2.34511 3.33869 0
M  V30 339 H 28.7999 -1.35689 3.93143 0
M  V30 340 H 27.3769 -2.64454 2.62904 0
M  V30 341 N 29.562 -1.4872 -0.521534 0
M  V30 342 C 30.973 -1.50607 -1.10337 0
M  V30 343 C 31.324 -0.280612 -1.94183 0
M  V30 344 O 30.449 0.611507 -2.0758 0
M  V30 345 C 31.044 -2.72903 -2.00772 0
M  V30 346 C 29.603 -2.77634 -2.54158 0
M  V30 347 C 28.75 -2.44241 -1.31307 0
M  V30 348 H 31.701 -1.55714 -0.306388 0
M  V30 349 H 31.722 -2.519 -2.85178 0
M  V30 350 H 31.234 -3.62077 -1.39721 0
M  V30 351 H 29.335 -1.92689 -3.18907 0
M  V30 352 H 29.448 -3.79283 -2.92714 0
M  V30 353 H 27.812 -1.95577 -1.63161 0
M  V30 354 H 28.595 -3.35666 -0.719943 0
M  V30 355 N 31.0401 0.771051 -1.3745 0
M  V30 356 C 32.2861 1.5319 -1.32894 0
M  V30 357 C 32.6191 1.94008 0.0862511 0
M  V30 358 O 31.8941 1.64124 1.04373 0
M  V30 359 C 32.1771 2.79648 -2.26868 0
M  V30 360 C 32.0301 2.45079 -3.77169 0
M  V30 361 C 33.3491 3.81583 -2.19277 0
M  V30 362 H 30.4681 0.555744 -0.484064 0
M  V30 363 H 33.1101 0.884492 -1.68157 0
M  V30 364 H 31.2601 3.34891 -1.96926 0
M  V30 365 H 32.9321 1.95745 -4.1771 0
M  V30 366 H 31.1751 1.77767 -3.95704 0
M  V30 367 H 31.8461 3.35478 -4.38359 0
M  V30 368 H 34.3221 3.35835 -2.45671 0
M  V30 369 H 33.1981 4.67787 -2.87171 0
M  V30 370 H 33.4591 4.25897 -1.18592 0
M  V30 371 N 32.5182 1.22032 0.997298 0
M  V30 372 C 33.7432 1.06921 1.77715 0
M  V30 373 C 34.1682 -0.376226 1.84299 0
M  V30 374 O 33.5262 -1.27165 1.29223 0
M  V30 375 C 33.5742 1.67996 3.19076 0
M  V30 376 O 32.6782 0.930653 4.01762 0
M  V30 377 H 32.0192 0.375814 0.547412 0
M  V30 378 H 34.5492 1.61737 1.25309 0
M  V30 379 H 34.5592 1.72538 3.69723 0
M  V30 380 H 33.2342 2.73182 3.13599 0
M  V30 381 H 31.8112 0.960917 3.60307 0
M  V30 382 N 33.9963 -1.19345 1.0293 0
M  V30 383 C 34.9593 -2.20793 0.615069 0
M  V30 384 C 35.9593 -1.57553 -0.321533 0
M  V30 385 O 37.1493 -1.73862 -0.108483 0
M  V30 386 C 34.2813 -3.40754 -0.0999222 0
M  V30 387 H 35.4743 -2.58955 1.51269 0
M  V30 388 H 33.0273 -1.3303 0.820534 0
M  V30 389 H 33.7623 -3.0811 -1.01187 0
M  V30 390 H 33.5473 -3.87889 0.57309 0
M  V30 391 H 35.0373 -4.15898 -0.376645 0
M  V30 392 N 35.4744 -0.807222 -1.35358 0
M  V30 393 C 36.8854 -0.44876 -1.81226 0
M  V30 394 C 37.2364 1.02929 -1.67033 0
M  V30 395 O 36.3614 1.79991 -1.20133 0
M  V30 396 C 36.9564 -0.807774 -3.2903 0
M  V30 397 C 35.5154 -0.501901 -3.73039 0
M  V30 398 C 34.6624 -1.03304 -2.57339 0
M  V30 399 H 37.6134 -0.998808 -1.23327 0
M  V30 400 H 37.6344 -0.10554 -3.80354 0
M  V30 401 H 37.1464 -1.88357 -3.39328 0
M  V30 402 H 35.2474 0.565128 -3.68289 0
M  V30 403 H 35.3604 -1.03497 -4.67787 0
M  V30 404 H 33.7244 -0.455339 -2.50597 0
M  V30 405 H 34.5074 -2.11496 -2.70415 0
M  V30 406 N 36.9525 1.47285 -0.560781 0
M  V30 407 C 37.8825 2.32857 0.173105 0
M  V30 408 C 38.8635 1.44009 0.905281 0
M  V30 409 O 40.0485 1.7286 0.885046 0
M  V30 410 C 37.1785 3.25861 1.20133 0
M  V30 411 C 36.1325 4.23978 0.585388 0
M  V30 412 C 35.4585 5.06332 1.7185 0
M  V30 413 C 36.7585 5.20242 -0.463178 0
M  V30 414 H 38.4525 2.94466 -0.541307 0
M  V30 415 H 35.9985 1.41601 -0.261764 0
M  V30 416 H 37.9515 3.84569 1.72293 0
M  V30 417 H 36.6755 2.62315 1.94573 0
M  V30 418 H 35.3345 3.66501 0.085054 0
M  V30 419 H 34.9825 4.39186 2.45203 0
M  V30 420 H 34.6825 5.72762 1.31213 0
M  V30 421 H 36.2065 5.67899 2.24329 0
M  V30 422 H 37.6205 5.73293 -0.027502 0
M  V30 423 H 36.0175 5.94896 -0.788627 0
M  V30 424 H 37.0875 4.65504 -1.35773 0
M  V30 425 N 38.4306 0.297415 1.54768 0
M  V30 426 C 39.7076 -0.365847 1.92148 0
M  V30 427 C 40.0876 -1.71975 1.22424 0
M  V30 428 O 39.4356 -2.25666 0.358739 0
M  V30 429 C 39.6456 -0.484056 3.45627 0
M  V30 430 C 40.9936 -0.756594 4.17805 0
M  V30 431 O 42.0176 -0.568007 3.51642 0
M  V30 432 O 40.8766 -1.11863 5.34929 0
M  V30 433 H 37.9706 -0.203919 0.801465 0
M  V30 434 H 40.5166 0.34521 1.66152 0
M  V30 435 H 39.2886 0.467865 3.88493 0
M  V30 436 H 38.9116 -1.24372 3.77647 0
M  V30 437 N 39.9087 -1.5758 0.0250728 0
M  V30 438 C 41.1857 -1.82917 -0.692873 0
M  V30 439 C 41.5657 -0.908137 -1.90568 0
M  V30 440 O 40.9137 0.0372298 -2.2847 0
M  V30 441 C 41.1237 -3.32034 -1.07492 0
M  V30 442 C 42.4717 -3.98406 -1.46826 0
M  V30 443 O 43.4957 -3.36505 -1.16801 0
M  V30 444 O 42.3547 -5.07497 -2.02754 0
M  V30 445 H 39.4487 -0.754079 -0.33955 0
M  V30 446 H 41.9947 -1.69619 0.0524456 0
M  V30 447 H 40.7667 -3.90728 -0.211552 0
M  V30 448 H 40.3897 -3.50424 -1.87854 0
M  V30 449 N 41.3868 0.248026 -1.55636 0
M  V30 450 C 42.6638 0.998988 -1.68165 0
M  V30 451 C 43.0438 2.03409 -0.564621 0
M  V30 452 O 42.3918 2.24378 0.432076 0
M  V30 453 C 42.6018 1.63334 -3.0842 0
M  V30 454 C 43.9498 2.13562 -3.66983 0
M  V30 455 O 44.9738 1.73277 -3.11213 0
M  V30 456 O 43.8328 2.87526 -4.64749 0
M  V30 457 H 40.9268 0.464933 -0.683935 0
M  V30 458 H 43.4728 0.241902 -1.67967 0
M  V30 459 H 42.2448 0.884583 -3.8117 0
M  V30 460 H 41.8678 2.45666 -3.12624 0
M  V30 461 N 42.8649 1.48995 0.513639 0
M  V30 462 C 44.1419 1.48338 1.27495 0
M  V30 463 C 44.5219 0.204065 2.10111 0
M  V30 464 O 43.8699 -0.813881 2.13514 0
M  V30 465 C 44.0799 2.75498 2.14247 0
M  V30 466 C 45.4279 3.24484 2.73852 0
M  V30 467 O 46.4519 2.76528 2.24523 0
M  V30 468 O 45.3109 4.07974 3.6362 0
M  V30 469 H 42.4049 0.593149 0.576284 0
M  V30 470 H 44.9509 1.61246 0.528948 0
M  V30 471 H 43.7229 3.60109 1.53092 0
M  V30 472 H 43.3459 2.6539 2.96064 0
M  V30 473 N 44.343 -0.763751 1.37857 0
M  V30 474 C 45.273 -1.89103 1.36975 0
M  V30 475 C 46.254 -1.68439 0.237152 0
M  V30 476 O 47.439 -1.8918 0.438713 0
M  V30 477 C 44.569 -3.26496 1.18395 0
M  V30 478 C 43.523 -3.61741 2.28751 0
M  V30 479 C 42.849 -4.97762 1.95286 0
M  V30 480 C 44.149 -3.67665 3.70972 0
M  V30 481 H 45.843 -1.90099 2.31307 0
M  V30 482 H 43.389 -0.91319 1.11341 0
M  V30 483 H 45.342 -4.05003 1.16406 0
M  V30 484 H 44.066 -3.25955 0.205215 0
M  V30 485 H 42.725 -2.85547 2.29909 0
M  V30 486 H 42.373 -4.93769 0.959221 0
M  V30 487 H 42.073 -5.22313 2.69189 0
M  V30 488 H 43.597 -5.7866 1.94898 0
M  V30 489 H 45.011 -4.36307 3.719 0
M  V30 490 H 43.408 -4.03718 4.43995 0
M  V30 491 H 44.478 -2.68134 4.0402 0
M  V30 492 N 45.8211 -1.22559 -0.990812 0
M  V30 493 C 47.0671 -1.06303 -1.73411 0
M  V30 494 C 47.4221 0.397442 -1.8825 0
M  V30 495 O 46.7151 1.29062 -1.41611 0
M  V30 496 C 46.9091 -1.71011 -3.13831 0
M  V30 497 C 46.7381 -3.232 -3.12685 0
M  V30 498 C 45.5081 -3.92314 -3.18461 0
M  V30 499 C 47.7061 -4.20107 -2.96673 0
M  V30 500 N 45.6881 -5.31571 -3.07091 0
M  V30 501 C 47.0591 -5.46208 -2.93354 0
M  V30 502 C 49.1141 -4.10973 -2.8108 0
M  V30 503 C 47.8171 -6.64225 -2.76039 0
M  V30 504 C 49.8431 -5.28642 -2.65126 0
M  V30 505 C 49.2051 -6.53663 -2.62496 0
M  V30 506 H 45.3041 -0.443441 -0.644115 0
M  V30 507 H 47.8881 -1.55131 -1.17654 0
M  V30 508 H 46.0591 -1.2473 -3.67827 0
M  V30 509 H 47.7911 -1.47828 -3.76735 0
M  V30 510 H 44.5461 -3.43326 -3.26227 0
M  V30 511 H 44.9701 -6.0455 -3.0471 0
M  V30 512 H 49.6121 -3.15098 -2.8191 0
M  V30 513 H 47.3301 -7.60246 -2.73954 0
M  V30 514 H 50.9161 -5.23407 -2.54039 0
M  V30 515 H 49.7961 -7.43182 -2.50302 0
M  V30 516 N 47.2992 1.18797 -1.03562 0
M  V30 517 C 48.2292 2.24472 -0.643019 0
M  V30 518 C 49.2102 1.66433 0.351283 0
M  V30 519 O 50.3952 1.92803 0.232505 0
M  V30 520 C 47.5252 3.473 4.24935e-05 0
M  V30 521 C 46.4792 4.18055 -0.917257 0
M  V30 522 C 45.8052 5.34519 -0.138941 0
M  V30 523 C 47.1052 4.72109 -2.23407 0
M  V30 524 H 48.7992 2.57566 -1.52643 0
M  V30 525 H 46.3452 1.23806 -0.735394 0
M  V30 526 H 48.2982 4.20426 0.286383 0
M  V30 527 H 47.0222 3.13424 0.918299 0
M  V30 528 H 45.6812 3.46821 -1.1879 0
M  V30 529 H 45.3292 4.96891 0.781562 0
M  V30 530 H 45.0292 5.82794 -0.750005 0
M  V30 531 H 46.5532 6.10438 0.1405 0
M  V30 532 H 47.9672 5.36955 -2.00879 0
M  V30 533 H 46.3642 5.30897 -2.79765 0
M  V30 534 H 47.4342 3.89807 -2.88407 0
M  V30 535 N 48.7773 0.814389 1.34928 0
M  V30 536 C 50.1883 0.458364 1.80986 0
M  V30 537 C 50.5393 -1.02042 1.67577 0
M  V30 538 O 49.6643 -1.79352 1.21086 0
M  V30 539 C 50.2593 0.825212 3.28597 0
M  V30 540 C 48.8183 0.521677 3.72767 0
M  V30 541 C 47.9653 1.04668 2.56788 0
M  V30 542 H 50.9163 1.00533 1.22795 0
M  V30 543 H 50.9373 0.12571 3.80292 0
M  V30 544 H 50.4493 1.90154 3.38324 0
M  V30 545 H 48.5503 -0.545589 3.68584 0
M  V30 546 H 48.6633 1.05977 4.67232 0
M  V30 547 H 47.0273 0.468622 2.50352 0
M  V30 548 H 47.8103 2.12927 2.6929 0
M  V30 549 N 50.2554 -1.46986 0.568584 0
M  V30 550 C 51.6664 -1.86188 0.138219 0
M  V30 551 C 52.0174 -1.47388 -1.29504 0
M  V30 552 O 51.1424 -0.88219 -1.97602 0
M  V30 553 C 51.7374 -3.3792 0.244065 0
M  V30 554 C 50.2964 -3.76171 -0.131335 0
M  V30 555 C 49.4434 -2.71027 0.586465 0
M  V30 556 H 52.3944 -1.38342 0.777645 0
M  V30 557 H 52.4154 -3.76729 -0.534351 0
M  V30 558 H 51.9274 -3.66128 1.28731 0
M  V30 559 H 50.0284 -3.5358 -1.17526 0
M  V30 560 H 50.1414 -4.78523 0.235146 0
M  V30 561 H 48.5054 -2.54684 0.0282722 0
M  V30 562 H 49.2884 -3.02077 1.63109 0
M  V30 563 N 51.7335 -0.305618 -1.54608 0
M  V30 564 C 53.1445 0.186098 -1.8577 0
M  V30 565 C 53.4955 1.53058 -1.22751 0
M  V30 566 O 52.6205 2.09888 -0.526893 0
M  V30 567 C 53.2155 0.344449 -3.37044 0
M  V30 568 C 51.7745 0.780384 -3.68221 0
M  V30 569 C 50.9215 -0.108554 -2.77087 0
M  V30 570 H 53.8725 -0.526485 -1.49712 0
M  V30 571 H 53.8935 1.17828 -3.61796 0
M  V30 572 H 53.4055 -0.634235 -3.82883 0
M  V30 573 H 51.5065 1.76945 -3.27904 0
M  V30 574 H 51.6195 0.596572 -4.75371 0
M  V30 575 H 49.9835 0.412931 -2.5133 0
M  V30 576 H 50.7665 -1.08368 -3.25747 0
M  V30 577 N 53.2116 1.57565 -0.0334293 0
M  V30 578 C 54.1216 2.13943 0.962572 0
M  V30 579 C 55.1376 1.09276 1.35406 0
M  V30 580 O 56.3136 1.41355 1.4346 0
M  V30 581 C 53.3786 2.65887 2.22497 0
M  V30 582 C 52.4396 3.85286 1.8935 0
M  V30 583 C 51.6726 4.34743 3.09571 0
M  V30 584 O 51.8956 3.83352 4.22371 0
M  V30 585 O 50.8296 5.26538 2.91618 0
M  V30 586 H 54.6556 2.99333 0.513169 0
M  V30 587 H 52.2406 1.4822 0.18743 0
M  V30 588 H 54.1226 2.99346 2.96598 0
M  V30 589 H 52.7976 1.83578 2.6661 0
M  V30 590 H 51.7046 3.56746 1.1262 0
M  V30 591 H 53.0376 4.68771 1.5005 0
M  V30 592 N 54.6897 -0.239769 1.55765 0
M  V30 593 C 55.9197 -0.982743 1.8173 0
M  V30 594 C 56.3277 -1.7917 0.607835 0
M  V30 595 O 55.6707 -1.78525 -0.432973 0
M  V30 596 C 55.7327 -1.96332 3.01155 0
M  V30 597 C 55.3967 -1.34062 4.36894 0
M  V30 598 C 56.3937 -0.739539 5.14613 0
M  V30 599 C 54.0787 -1.35784 4.83599 0
M  V30 600 C 56.0727 -0.163989 6.37189 0
M  V30 601 C 53.7597 -0.778441 6.06122 0
M  V30 602 C 54.7577 -0.182548 6.82756 0
M  V30 603 O 54.4457 0.387887 8.02964 0
M  V30 604 H 54.1777 -0.294481 0.608487 0
M  V30 605 H 56.7317 -0.26572 2.03674 0
M  V30 606 H 54.9617 -2.71884 2.74984 0
M  V30 607 H 56.6507 -2.57032 3.14149 0
M  V30 608 H 57.4167 -0.718687 4.79646 0
M  V30 609 H 53.2957 -1.81105 4.23936 0
M  V30 610 H 56.8397 0.301753 6.96947 0
M  V30 611 H 52.7367 -0.796645 6.40565 0
M  V30 612 H 53.5047 0.28044 8.18019 0
M  V30 613 N 56.1678 -1.49265 -0.50573 0
M  V30 614 C 57.4138 -1.58748 -1.26202 0
M  V30 615 C 57.7468 -0.271227 -1.92297 0
M  V30 616 O 57.0218 0.724831 -1.80489 0
M  V30 617 C 57.3048 -2.74332 -2.33268 0
M  V30 618 C 57.1578 -4.15737 -1.71705 0
M  V30 619 C 58.4768 -2.85576 -3.34865 0
M  V30 620 H 55.5958 -0.577826 -0.457478 0
M  V30 621 H 58.2378 -1.81532 -0.560897 0
M  V30 622 H 56.3878 -2.55036 -2.93068 0
M  V30 623 H 58.0598 -4.46537 -1.15769 0
M  V30 624 H 56.3028 -4.21605 -1.02135 0
M  V30 625 H 56.9738 -4.92477 -2.49341 0
M  V30 626 H 59.4498 -3.03127 -2.8505 0
M  V30 627 H 58.3258 -3.68135 -4.07146 0
M  V30 628 H 58.5868 -1.94732 -3.96903 0
M  V30 629 N 57.6459 0.756429 -1.3826 0
M  V30 630 C 59.0569 1.33359 -1.30661 0
M  V30 631 C 59.4079 1.96161 0.0388875 0
M  V30 632 O 58.5329 1.94874 0.940918 0
M  V30 633 C 59.1279 2.42477 -2.36622 0
M  V30 634 C 57.6869 2.95922 -2.3261 0
M  V30 635 C 56.8339 1.69275 -2.19639 0
M  V30 636 H 59.7849 0.55552 -1.4866 0
M  V30 637 H 59.8059 3.22345 -2.02174 0
M  V30 638 H 59.3179 1.96739 -3.34538 0
M  V30 639 H 57.4189 3.45996 -1.38267 0
M  V30 640 H 57.5319 3.50494 -3.26636 0
M  V30 641 H 55.8959 1.92793 -1.66442 0
M  V30 642 H 56.6789 1.25619 -3.19491 0
M  V30 643 N 59.124 1.23083 0.984299 0
M  V30 644 C 60.054 1.03292 2.09411 0
M  V30 645 C 61.035 -0.048923 1.7003 0
M  V30 646 O 62.22 0.114967 1.93859 0
M  V30 647 C 59.35 0.619155 3.41736 0
M  V30 648 C 58.304 1.64791 3.95004 0
M  V30 649 C 57.63 1.0897 5.23478 0
M  V30 650 C 58.93 3.03999 4.24714 0
M  V30 651 H 60.624 1.96119 2.26225 0
M  V30 652 H 58.17 0.944344 1.08711 0
M  V30 653 H 60.123 0.467777 4.18796 0
M  V30 654 H 58.847 -0.344786 3.24775 0
M  V30 655 H 57.506 1.78721 3.20085 0
M  V30 656 H 57.154 0.11686 5.02864 0
M  V30 657 H 56.854 1.77704 5.60085 0
M  V30 658 H 58.378 0.950093 6.03163 0
M  V30 659 H 59.792 2.93393 4.92538 0
M  V30 660 H 58.189 3.69936 4.72512 0
M  V30 661 H 59.259 3.53285 3.32142 0
M  V30 662 N 60.6021 -1.18246 1.0419 0
M  V30 663 C 61.5491 -2.2192 0.634037 0
M  V30 664 C 62.5191 -1.62179 -0.358765 0
M  V30 665 O 63.7041 -1.89122 -0.252466 0
M  V30 666 C 60.8441 -3.451 0.00445535 0
M  V30 667 C 59.9571 -4.19174 1.04487 0
M  V30 668 C 59.0921 -5.29813 0.383676 0
M  V30 669 C 58.1311 -5.9566 1.4091 0
M  V30 670 N 57.2681 -6.97834 0.772784 0
M  V30 671 H 62.1081 -2.56164 1.52263 0
M  V30 672 H 59.6451 -1.25843 0.761701 0
M  V30 673 H 61.6031 -4.15485 -0.377919 0
M  V30 674 H 60.2331 -3.11472 -0.847652 0
M  V30 675 H 59.2851 -3.47604 1.54518 0
M  V30 676 H 60.5971 -4.64267 1.82368 0
M  V30 677 H 59.7511 -6.06677 -0.0528366 0
M  V30 678 H 58.4901 -4.85825 -0.427208 0
M  V30 679 H 57.4951 -5.17535 1.85574 0
M  V30 680 H 58.7201 -6.4173 2.22171 0
M  V30 681 H 56.6661 -6.55998 -0.0177708 0
M  V30 682 H 56.5831 -7.41186 1.48928 0
M  V30 683 H 57.8511 -7.78665 0.36071 0
M  V30 684 N 62.0802 -0.821533 -1.34494 0
M  V30 685 C 62.9902 -0.244355 -2.33324 0
M  V30 686 C 64.0062 0.620527 -1.62559 0
M  V30 687 O 65.1822 0.528754 -1.94335 0
M  V30 688 C 62.2472 0.585368 -3.41723 0
M  V30 689 C 61.3082 -0.301752 -4.28238 0
M  V30 690 C 60.5412 0.488466 -5.3146 0
M  V30 691 O 60.7642 1.72186 -5.4379 0
M  V30 692 O 59.6982 -0.12848 -6.01763 0
M  V30 693 H 63.5242 -1.06231 -2.84515 0
M  V30 694 H 61.1092 -0.583645 -1.37528 0
M  V30 695 H 62.9912 1.05747 -4.07916 0
M  V30 696 H 61.6662 1.38068 -2.92778 0
M  V30 697 H 60.5732 -0.821315 -3.64973 0
M  V30 698 H 61.9062 -1.06138 -4.8062 0
M  V30 699 N 63.5583 1.46682 -0.576371 0
M  V30 700 C 64.4883 2.33028 0.148397 0
M  V30 701 C 65.4693 1.44961 0.889956 0
M  V30 702 O 66.6543 1.73789 0.866662 0
M  V30 703 C 63.7843 3.27117 1.1667 0
M  V30 704 C 62.7383 4.24575 0.540386 0
M  V30 705 C 62.0643 5.08126 1.6647 0
M  V30 706 C 63.3643 5.19722 -0.518331 0
M  V30 707 H 65.0583 2.93875 -0.572509 0
M  V30 708 H 62.6043 1.41315 -0.276768 0
M  V30 709 H 64.5573 3.86374 1.68204 0
M  V30 710 H 63.2813 2.64364 1.9178 0
M  V30 711 H 61.9403 3.66571 0.0461769 0
M  V30 712 H 61.5883 4.41762 2.40531 0
M  V30 713 H 61.2883 5.74122 1.25131 0
M  V30 714 H 62.8123 5.70246 2.18293 0
M  V30 715 H 64.2263 5.73232 -0.0883058 0
M  V30 716 H 62.6233 5.94026 -0.851679 0
M  V30 717 H 63.6933 4.64037 -1.40703 0
M  V30 718 N 65.0364 0.313813 1.54444 0
M  V30 719 C 66.2644 -0.293918 2.04802 0
M  V30 720 C 66.6794 -1.46537 1.19047 0
M  V30 721 O 66.0364 -1.81182 0.218939 0
M  V30 722 C 66.0874 -0.737806 3.53891 0
M  V30 723 O 65.8084 0.387038 4.36387 0
M  V30 724 C 67.3094 -1.40936 4.203 0
M  V30 725 H 64.5294 -0.0620057 0.668129 0
M  V30 726 H 67.0734 0.457169 1.99324 0
M  V30 727 H 65.2284 -1.43889 3.59687 0
M  V30 728 H 65.6424 0.0391274 5.24485 0
M  V30 729 H 67.1164 -1.67099 5.26101 0
M  V30 730 H 67.5934 -2.35355 3.70816 0
M  V30 731 H 68.1994 -0.751117 4.18615 0
M  V30 732 N 66.5145 -1.57545 0.0417849 0
M  V30 733 C 67.7395 -1.97035 -0.647455 0
M  V30 734 C 68.1645 -0.918775 -1.64135 0
M  V30 735 O 67.5225 0.119006 -1.80909 0
M  V30 736 C 67.5705 -3.35609 -1.31905 0
M  V30 737 O 66.6745 -3.3287 -2.43457 0
M  V30 738 H 66.0155 -0.64211 -0.169086 0
M  V30 739 H 68.5455 -2.04318 0.107399 0
M  V30 740 H 68.5555 -3.72126 -1.67291 0
M  V30 741 H 67.2305 -4.11685 -0.590586 0
M  V30 742 H 65.8075 -3.08087 -2.10088 0
M  V30 743 N 67.9926 0.231505 -1.5589 0
M  V30 744 C 68.9396 1.28682 -1.91598 0
M  V30 745 C 69.9096 1.47071 -0.771974 0
M  V30 746 O 71.0946 1.60802 -1.027 0
M  V30 747 C 68.2346 2.6342 -2.22944 0
M  V30 748 C 67.3476 2.52912 -3.50228 0
M  V30 749 C 66.4826 3.80106 -3.7107 0
M  V30 750 C 65.5216 3.64279 -4.91902 0
M  V30 751 N 64.6586 4.834 -5.09184 0
M  V30 752 H 69.4986 0.975305 -2.81588 0
M  V30 753 H 67.0356 0.470299 -1.39379 0
M  V30 754 H 68.9936 3.41869 -2.39126 0
M  V30 755 H 67.6236 2.92687 -1.36139 0
M  V30 756 H 66.6756 1.6595 -3.42294 0
M  V30 757 H 67.9876 2.37133 -4.38827 0
M  V30 758 H 67.1416 4.66999 -3.87295 0
M  V30 759 H 65.8806 3.98799 -2.80733 0
M  V30 760 H 64.8856 2.7577 -4.75637 0
M  V30 761 H 66.1106 3.47067 -5.83714 0
M  V30 762 H 64.0566 5.02425 -4.21788 0
M  V30 763 H 63.9736 4.70311 -5.91898 0
M  V30 764 H 65.2416 5.71747 -5.29835 0
M  V30 765 N 69.4707 1.49531 0.497807 0
M  V30 766 C 70.4177 1.66436 1.59899 0
M  V30 767 C 71.3877 0.505793 1.58212 0
M  V30 768 O 72.5727 0.733202 1.7615 0
M  V30 769 C 69.7127 1.7399 2.98029 0
M  V30 770 C 68.8257 3.01172 3.09708 0
M  V30 771 C 67.9607 2.99686 4.38591 0
M  V30 772 C 66.9997 4.21434 4.43914 0
M  V30 773 N 66.1367 4.1784 5.64229 0
M  V30 774 H 70.9767 2.60459 1.44793 0
M  V30 775 H 68.5137 1.29137 0.704423 0
M  V30 776 H 70.4717 1.76352 3.78095 0
M  V30 777 H 69.1017 0.834301 3.11832 0
M  V30 778 H 68.1537 3.08408 2.22685 0
M  V30 779 H 69.4657 3.91165 3.09502 0
M  V30 780 H 68.6197 3.00628 5.2698 0
M  V30 781 H 67.3587 2.07477 4.41367 0
M  V30 782 H 66.3637 4.20733 3.53926 0
M  V30 783 H 67.5887 5.14839 4.42851 0
M  V30 784 H 65.5347 3.28469 5.67841 0
M  V30 785 H 65.4517 5.01571 5.65652 0
M  V30 786 H 66.7197 4.22889 6.54817 0
M  V30 787 N 70.9488 -0.749086 1.3866 0
M  V30 788 C 71.8968 -1.88428 1.36373 0
M  V30 789 C 72.8908 -1.67561 0.248929 0
M  V30 790 O 74.0968 -1.75074 0.41821 0
M  V30 791 H 70.4718 -0.620023 0.42553 0
M  V30 792 H 72.4428 -1.87473 2.32156 0
M  V30 793 C 71.1918 -3.25961 1.21014 0
M  V30 794 H 70.5148 -3.42607 2.06059 0
M  V30 795 H 71.9548 -4.05625 1.23469 0
M  V30 796 C 70.4138 -3.36799 -0.0825941 0
M  V30 797 O 70.9438 -3.87517 -1.05797 0
M  V30 798 N 69.1498 -2.90258 -0.140939 0
M  V30 799 H 68.6968 -2.49174 0.653477 0
M  V30 800 H 68.6548 -2.97889 -1.00545 0
M  V30 801 N 72.4269 -1.23603 -0.977757 0
M  V30 802 C 73.8429 -0.999251 -1.24447 0
M  V30 803 C 74.0429 0.298053 -1.99283 0
M  V30 804 O 73.0989 1.01681 -2.31122 0
M  V30 805 C 74.4119 -2.20784 -2.04144 0
M  V30 806 C 75.9599 -2.25303 -2.17273 0
M  V30 807 C 76.4349 -3.45755 -3.00362 0
M  V30 808 N 77.9259 -3.4601 -3.07947 0
M  V30 809 C 78.6609 -4.35868 -3.72568 0
M  V30 810 N 78.1569 -5.35966 -4.38991 0
M  V30 811 N 79.9499 -4.23605 -3.6948 0
M  V30 812 H 72.1009 -2.06986 -0.476483 0
M  V30 813 H 74.3639 -0.907801 -0.273134 0
M  V30 814 H 74.0699 -3.14945 -1.56533 0
M  V30 815 H 73.9439 -2.22085 -3.04891 0
M  V30 816 H 76.3309 -1.3168 -2.64092 0
M  V30 817 H 76.4119 -2.28033 -1.15907 0
M  V30 818 H 76.0559 -4.39687 -2.5424 0
M  V30 819 H 75.9859 -3.40266 -4.01904 0
M  V30 820 H 78.4769 -2.73588 -2.60688 0
M  V30 821 H 78.7899 -6.00783 -4.86086 0
M  V30 822 H 77.1349 -5.39863 -4.37691 0
M  V30 823 H 80.3259 -3.44647 -3.16759 0
M  V30 824 H 80.4989 -4.93836 -4.1956 0
M  V30 825 N 73.905 1.17692 -1.04816 0
M  V30 826 C 75.321 1.39863 -0.768794 0
M  V30 827 C 75.521 1.91118 0.638451 0
M  V30 828 O 74.577 2.10036 1.40146 0
M  V30 829 C 75.89 2.39274 -1.82122 0
M  V30 830 C 77.438 2.52987 -1.843 0
M  V30 831 C 77.913 3.55669 -2.88555 0
M  V30 832 N 79.404 3.63183 -2.87493 0
M  V30 833 C 80.139 4.42381 -3.64811 0
M  V30 834 N 79.635 5.25125 -4.51903 0
M  V30 835 N 81.428 4.37217 -3.53267 0
M  V30 836 H 73.579 0.82752 -1.95617 0
M  V30 837 H 75.842 0.426123 -0.846831 0
M  V30 838 H 75.548 2.08678 -2.83102 0
M  V30 839 H 75.422 3.38725 -1.65967 0
M  V30 840 H 77.809 2.82896 -0.839869 0
M  V30 841 H 77.89 1.53623 -2.04532 0
M  V30 842 H 77.534 3.26499 -3.89051 0
M  V30 843 H 77.464 4.54728 -2.65575 0
M  V30 844 H 79.955 3.04103 -2.24343 0
M  V30 845 H 80.268 5.82728 -5.07591 0
M  V30 846 H 78.613 5.24519 -4.55966 0
M  V30 847 H 81.804 3.71626 -2.84625 0
M  V30 848 H 81.977 4.98696 -4.13771 0
M  V30 849 N 75.3831 0.828654 1.34056 0
M  V30 850 C 76.3311 0.242973 2.31327 0
M  V30 851 C 77.3251 -0.61944 1.57668 0
M  V30 852 O 78.5311 -0.51014 1.7262 0
M  V30 853 H 74.9061 0.059834 0.749616 0
M  V30 854 H 76.8771 1.07809 2.78244 0
M  V30 855 C 75.6261 -0.575733 3.429 0
M  V30 856 H 74.9491 0.0785582 3.99723 0
M  V30 857 H 76.3891 -0.951547 4.13185 0
M  V30 858 C 74.8481 -1.75044 2.87856 0
M  V30 859 O 75.3781 -2.84882 2.83205 0
M  V30 860 N 73.5841 -1.56903 2.44602 0
M  V30 861 H 73.1311 -0.675547 2.48584 0
M  V30 862 H 73.0891 -2.35652 2.08124 0
M  V30 863 N 76.8612 -1.46375 0.584142 0
M  V30 864 C 78.1082 -2.02378 0.0702675 0
M  V30 865 C 78.4362 -1.45545 -1.29023 0
M  V30 866 O 77.6912 -0.610967 -1.85918 0
M  V30 867 C 77.9902 -3.57373 -0.0439342 0
M  V30 868 C 77.6562 -4.33252 1.24915 0
M  V30 869 C 76.3182 -4.53701 1.60341 0
M  V30 870 C 78.6702 -4.7681 2.1048 0
M  V30 871 C 75.9982 -5.1496 2.81128 0
M  V30 872 C 78.3502 -5.39404 3.30494 0
M  V30 873 C 77.0142 -5.5808 3.66201 0
M  V30 874 H 76.2842 -0.740554 0.0257127 0
M  V30 875 H 78.9312 -1.75727 0.761065 0
M  V30 876 H 77.2362 -3.83169 -0.817869 0
M  V30 877 H 78.9332 -3.98384 -0.457318 0
M  V30 878 H 75.5232 -4.17633 0.963364 0
M  V30 879 H 79.7072 -4.60766 1.84414 0
M  V30 880 H 74.9632 -5.27611 3.08928 0
M  V30 881 H 79.1372 -5.72114 3.97063 0
M  V30 882 H 76.7642 -6.05318 4.59885 0
M  V30 883 N 78.3393 -0.321999 -1.54275 0
M  V30 884 C 79.5793 0.281657 -2.0245 0
M  V30 885 C 79.9433 1.49468 -1.20513 0
M  V30 886 O 81.1443 2.17109 -1.58484 0
M  V30 887 C 79.4153 0.609014 -3.52173 0
M  V30 888 S 80.9743 1.19255 -4.22284 0
M  V30 889 H 77.7923 0.0852825 -0.705867 0
M  V30 890 H 80.3943 -0.454758 -1.90137 0
M  V30 891 H 79.0983 -0.281982 -4.0943 0
M  V30 892 H 78.6293 1.37567 -3.68563 0
M  V30 893 H 80.6443 2.47944 -4.29812 0
M  V30 894 N 79.8174 1.5752 -0.0501392 0
M  V30 895 C 81.0664 1.91827 0.623328 0
M  V30 896 C 81.3794 0.930222 1.72065 0
M  V30 897 O 82.5854 1.1653 2.4522 0
M  V30 898 C 81.0414 3.40692 1.16003 0
M  V30 899 C 80.6494 4.479 0.0948811 0
M  V30 900 C 82.3934 3.84034 1.80881 0
M  V30 901 C 80.3004 5.87879 0.644411 0
M  V30 902 H 79.2304 0.715918 0.236596 0
M  V30 903 H 81.8814 1.83115 -0.118861 0
M  V30 904 H 80.2634 3.44405 1.9545 0
M  V30 905 H 81.4374 4.55775 -0.678675 0
M  V30 906 H 79.7524 4.13892 -0.45637 0
M  V30 907 H 82.3494 4.85984 2.22988 0
M  V30 908 H 82.6924 3.20225 2.6601 0
M  V30 909 H 83.2254 3.82833 1.0809 0
M  V30 910 H 79.9644 6.55282 -0.169229 0
M  V30 911 H 79.4844 5.83567 1.38598 0
M  V30 912 H 81.1634 6.37098 1.12763 0
M  V30 913 N 81.2955 -0.223234 1.56011 0
M  V30 914 C 82.2435 -1.29627 1.93131 0
M  V30 915 C 83.2375 -1.48608 0.813146 0
M  V30 916 O 84.4435 -1.49802 0.997966 0
M  V30 917 H 80.8185 -0.434563 0.613726 0
M  V30 918 H 82.7895 -0.955995 2.82672 0
M  V30 919 C 81.5385 -2.63983 2.26292 0
M  V30 920 H 80.8615 -2.50185 3.11846 0
M  V30 921 H 82.3015 -3.3788 2.56151 0
M  V30 922 C 80.7605 -3.18866 1.08747 0
M  V30 923 O 81.2905 -4.00192 0.347727 0
M  V30 924 N 79.4965 -2.77217 0.871743 0
M  V30 925 H 79.0435 -2.1119 1.47501 0
M  V30 926 H 79.0015 -3.1428 0.0869905 0
M  V30 927 N 82.7736 -1.49793 -0.48987 0
M  V30 928 C 84.0216 -1.59525 -1.24081 0
M  V30 929 C 84.3426 -0.288953 -1.92847 0
M  V30 930 O 83.6126 0.692436 -1.83254 0
M  V30 931 H 82.1926 -0.587796 -0.460983 0
M  V30 932 H 84.8546 -1.86477 -0.566778 0
M  V30 933 H 83.9506 -2.39696 -1.99881 0
M  V30 934 N 84.2517 0.741722 -1.39055 0
M  V30 935 C 85.4997 1.49818 -1.35643 0
M  V30 936 C 85.8207 1.94938 0.0491642 0
M  V30 937 O 85.0907 1.68505 0.999141 0
M  V30 938 H 83.6707 0.555755 -0.499144 0
M  V30 939 H 86.3327 0.880957 -1.73854 0
M  V30 940 H 85.4287 2.38348 -2.01486 0
M  V30 941 N 85.7298 1.2412 0.971189 0
M  V30 942 C 86.9758 1.08041 1.71625 0
M  V30 943 C 87.3088 -0.380407 1.90438 0
M  V30 944 O 86.5838 -1.28127 1.46334 0
M  V30 945 C 86.8668 1.81682 3.10908 0
M  V30 946 C 86.7198 3.35493 2.99608 0
M  V30 947 C 88.0388 1.58671 4.10501 0
M  V30 948 H 85.1578 0.39388 0.622919 0
M  V30 949 H 87.7998 1.52743 1.13003 0
M  V30 950 H 85.9498 1.43684 3.60953 0
M  V30 951 H 87.6218 3.83068 2.57015 0
M  V30 952 H 85.8648 3.64052 2.35899 0
M  V30 953 H 86.5358 3.82217 3.98264 0
M  V30 954 H 89.0118 1.91719 3.69301 0
M  V30 955 H 87.8878 2.1266 5.06031 0
M  V30 956 H 88.1488 0.524161 4.38982 0
M  V30 957 N 87.2079 -1.17134 1.05439 0
M  V30 958 C 88.1549 -2.21235 0.657539 0
M  V30 959 C 89.1249 -1.62551 -0.341543 0
M  V30 960 O 90.3099 -1.89379 -0.232393 0
M  V30 961 C 87.4499 -3.45076 0.0410575 0
M  V30 962 C 86.5629 -4.18042 1.08927 0
M  V30 963 C 85.6979 -5.29376 0.439848 0
M  V30 964 C 84.7369 -5.94132 1.4722 0
M  V30 965 N 83.8739 -6.96975 0.846756 0
M  V30 966 H 88.7139 -2.54534 1.54972 0
M  V30 967 H 86.2509 -1.25028 0.775006 0
M  V30 968 H 88.2089 -4.15862 -0.33383 0
M  V30 969 H 86.8389 -3.12353 -0.814568 0
M  V30 970 H 85.8909 -3.45945 1.58196 0
M  V30 971 H 87.2029 -4.62306 1.87282 0
M  V30 972 H 86.3569 -6.06699 0.0115125 0
M  V30 973 H 85.0959 -4.86251 -0.375656 0
M  V30 974 H 84.1009 -5.15538 1.91052 0
M  V30 975 H 85.3259 -6.39337 2.28965 0
M  V30 976 H 83.2719 -6.5598 0.0518075 0
M  V30 977 H 83.1889 -7.39565 1.5678 0
M  V30 978 H 84.4569 -7.78239 0.443277 0
M  V30 979 N 88.686 -0.835752 -1.33615 0
M  V30 980 C 89.932 -0.430596 -1.98176 0
M  V30 981 C 90.265 1.00684 -1.66061 0
M  V30 982 O 89.54 1.70339 -0.938877 0
M  V30 983 C 89.823 -0.648065 -3.5422 0
M  V30 984 C 89.676 -2.13255 -3.96033 0
M  V30 985 C 90.995 -0.0922113 -4.40003 0
M  V30 986 H 88.114 -0.157924 -0.719881 0
M  V30 987 H 90.756 -1.05069 -1.58305 0
M  V30 988 H 88.906 -0.120237 -3.88314 0
M  V30 989 H 90.578 -2.725 -3.72211 0
M  V30 990 H 88.821 -2.61823 -3.45878 0
M  V30 991 H 89.492 -2.23547 -5.04708 0
M  V30 992 H 91.968 -0.543343 -4.12537 0
M  V30 993 H 90.844 -0.274083 -5.48215 0
M  V30 994 H 91.105 1.00378 -4.30554 0
M  V30 995 N 90.1641 1.46063 -0.591896 0
M  V30 996 C 91.4041 2.04228 -0.0838014 0
M  V30 997 C 91.7681 1.45231 1.25587 0
M  V30 998 O 92.9691 1.94653 1.85375 0
M  V30 999 C 91.2401 3.57389 -0.0286282 0
M  V30 1000 S 92.7991 4.3678 0.420557 0
M  V30 1001 H 89.6171 0.709762 -0.0419319 0
M  V30 1002 H 92.2191 1.78983 -0.786465 0
M  V30 1003 H 90.9231 3.97843 -1.00743 0
M  V30 1004 H 90.4541 3.87185 0.69652 0
M  V30 1005 H 92.4691 4.67131 1.67341 0
M  V30 1006 N 91.6422 0.330177 1.54103 0
M  V30 1007 C 92.8672 -0.274893 2.0557 0
M  V30 1008 C 93.2922 -1.44487 1.20437 0
M  V30 1009 O 92.6502 -1.80021 0.214991 0
M  V30 1010 C 92.6982 -0.68079 3.54115 0
M  V30 1011 O 91.8022 -1.7824 3.71893 0
M  V30 1012 H 91.1432 -0.0483849 0.662235 0
M  V30 1013 H 93.6732 0.480508 1.98878 0
M  V30 1014 H 93.6832 -0.961635 3.96505 0
M  V30 1015 H 92.3582 0.174903 4.15532 0
M  V30 1016 H 90.9352 -1.49985 3.41407 0
M  V30 1017 N 93.1203 -1.57491 0.0584922 0
M  V30 1018 C 94.5313 -1.80526 -0.476138 0
M  V30 1019 C 94.8823 -0.971334 -1.70469 0
M  V30 1020 O 94.0073 -0.190012 -2.15564 0
M  V30 1021 C 94.6023 -3.27424 -0.870587 0
M  V30 1022 C 93.1613 -3.51351 -1.35015 0
M  V30 1023 C 92.3083 -2.75343 -0.32887 0
M  V30 1024 H 95.2593 -1.56133 0.284312 0
M  V30 1025 H 95.2803 -3.38745 -1.73299 0
M  V30 1026 H 94.7923 -3.88093 0.0237627 0
M  V30 1027 H 92.8933 -2.95971 -2.26345 0
M  V30 1028 H 93.0063 -4.60059 -1.33726 0
M  V30 1029 H 91.3703 -2.417 -0.803321 0
M  V30 1030 H 92.1533 -3.38743 0.557521 0
M  V30 1031 N 94.5984 0.214957 -1.56127 0
M  V30 1032 C 95.5464 1.28601 -1.93816 0
M  V30 1033 C 96.5404 1.48175 -0.821016 0
M  V30 1034 O 97.7464 1.49271 -1.0059 0
M  V30 1035 H 94.1214 0.431302 -0.616022 0
M  V30 1036 H 96.0924 0.940991 -2.83175 0
M  V30 1037 C 94.8414 2.62779 -2.27689 0
M  V30 1038 H 94.1644 2.48527 -3.13168 0
M  V30 1039 H 95.6044 3.36517 -2.57939 0
M  V30 1040 C 94.0634 3.18285 -1.10436 0
M  V30 1041 O 94.5934 4.00002 -0.368945 0
M  V30 1042 N 92.7994 2.7675 -0.886433 0
M  V30 1043 H 92.3464 2.10404 -1.48619 0
M  V30 1044 H 92.3044 3.14229 -0.103656 0
M  V30 1045 N 96.0765 1.50051 0.48192 0
M  V30 1046 C 97.3245 1.60181 1.23234 0
M  V30 1047 C 97.6455 0.299176 1.92691 0
M  V30 1048 O 96.9155 -0.682708 1.83619 0
M  V30 1049 H 95.4955 0.590232 0.457859 0
M  V30 1050 H 98.1575 1.86775 0.556881 0
M  V30 1051 H 97.2535 2.40753 1.98607 0
M  V30 1052 N 97.5546 -0.734337 1.39446 0
M  V30 1053 C 98.7846 -1.52137 1.39778 0
M  V30 1054 C 99.1926 -1.89198 -0.00929312 0
M  V30 1055 O 98.5356 -1.54666 -0.991168 0
M  V30 1056 C 98.5976 -2.83762 2.20724 0
M  V30 1057 C 98.2616 -2.69131 3.69347 0
M  V30 1058 C 99.2586 -2.37635 4.62413 0
M  V30 1059 C 96.9436 -2.85982 4.1294 0
M  V30 1060 C 98.9376 -2.23172 5.97054 0
M  V30 1061 C 96.6246 -2.71137 5.47657 0
M  V30 1062 C 97.6226 -2.39777 6.39528 0
M  V30 1063 O 97.3106 -2.25026 7.71763 0
M  V30 1064 H 97.0426 -0.476717 0.479288 0
M  V30 1065 H 99.5966 -0.915012 1.83893 0
M  V30 1066 H 97.8266 -3.4666 1.71359 0
M  V30 1067 H 99.5156 -3.45383 2.13226 0
M  V30 1068 H 100.282 -2.24267 4.30034 0
M  V30 1069 H 96.1606 -3.09383 3.41765 0
M  V30 1070 H 99.7046 -1.98617 6.68728 0
M  V30 1071 H 95.6016 -2.84083 5.79626 0
M  V30 1072 H 96.3696 -2.40091 7.82495 0
M  V30 1073 N 99.0327 -1.24633 -0.964593 0
M  V30 1074 C 100.258 -1.11596 -1.74818 0
M  V30 1075 C 100.683 0.32723 -1.85232 0
M  V30 1076 O 100.041 1.23695 -1.32549 0
M  V30 1077 C 100.089 -1.76397 -3.1451 0
M  V30 1078 O 99.1927 -1.03685 -3.99153 0
M  V30 1079 H 98.5337 -0.390196 -0.537255 0
M  V30 1080 H 101.064 -1.65002 -1.20977 0
M  V30 1081 H 101.074 -1.8228 -3.65018 0
M  V30 1082 H 99.7487 -2.81401 -3.06246 0
M  V30 1083 H 98.3257 -1.05611 -3.57632 0
M  V30 1084 N 100.511 1.16574 -1.06058 0
M  V30 1085 C 101.758 1.87047 -0.775873 0
M  V30 1086 C 102.086 1.81562 0.697534 0
M  V30 1087 O 101.341 1.22445 1.52662 0
M  V30 1088 C 101.64 3.36195 -1.21275 0
M  V30 1089 C 101.306 3.6188 -2.68986 0
M  V30 1090 C 99.9678 3.68599 -3.09335 0
M  V30 1091 C 102.32 3.72648 -3.64394 0
M  V30 1092 C 99.6478 3.83584 -4.43937 0
M  V30 1093 C 102 3.89154 -4.98741 0
M  V30 1094 C 100.664 3.94114 -5.3873 0
M  V30 1095 H 99.9338 0.684452 -0.283912 0
M  V30 1096 H 102.581 1.37853 -1.32925 0
M  V30 1097 H 100.886 3.87505 -0.578528 0
M  V30 1098 H 102.583 3.89103 -0.969542 0
M  V30 1099 H 99.1728 3.57281 -2.36744 0
M  V30 1100 H 103.357 3.66769 -3.34356 0
M  V30 1101 H 98.6128 3.85677 -4.74409 0
M  V30 1102 H 102.787 3.96427 -5.72554 0
M  V30 1103 H 100.414 4.05478 -6.43033 0
M  V30 1104 N 101.989 0.842826 1.3317 0
M  V30 1105 C 103.237 0.439577 1.97262 0
M  V30 1106 C 103.558 -1.00548 1.67078 0
M  V30 1107 O 102.828 -1.70098 0.971779 0
M  V30 1108 H 101.408 0.159558 0.72976 0
M  V30 1109 H 104.07 1.07665 1.62463 0
M  V30 1110 H 103.166 0.574886 3.0676 0
M  V30 1111 N 103.467 -1.45747 0.599634 0
M  V30 1112 C 104.716 -2.01502 0.0893511 0
M  V30 1113 C 105.029 -1.4748 -1.28488 0
M  V30 1114 O 106.235 -1.95161 -1.88745 0
M  V30 1115 C 104.691 -3.59735 0.109082 0
M  V30 1116 C 104.299 -4.22754 1.48267 0
M  V30 1117 C 106.043 -4.23085 -0.346374 0
M  V30 1118 C 103.95 -5.73115 1.45921 0
M  V30 1119 H 102.88 -0.753417 0.0296347 0
M  V30 1120 H 105.531 -1.67303 0.753788 0
M  V30 1121 H 103.913 -3.91087 -0.621854 0
M  V30 1122 H 105.087 -4.02987 2.23468 0
M  V30 1123 H 103.402 -3.71567 1.87955 0
M  V30 1124 H 105.999 -5.33327 -0.38298 0
M  V30 1125 H 106.342 -3.93201 -1.36743 0
M  V30 1126 H 106.875 -3.9642 0.331038 0
M  V30 1127 H 103.614 -6.07685 2.45762 0
M  V30 1128 H 103.134 -5.95097 0.749665 0
M  V30 1129 H 104.813 -6.3616 1.17941 0
M  V30 1130 N 104.945 -0.338344 -1.53925 0
M  V30 1131 C 105.875 0.51328 -2.27789 0
M  V30 1132 C 106.856 1.107 -1.29149 0
M  V30 1133 O 108.041 1.12937 -1.57984 0
M  V30 1134 C 105.171 1.66697 -3.04679 0
M  V30 1135 C 104.125 1.20183 -4.1078 0
M  V30 1136 C 103.451 2.44363 -4.75595 0
M  V30 1137 C 104.751 0.30605 -5.21403 0
M  V30 1138 H 106.445 -0.102883 -2.99223 0
M  V30 1139 H 103.991 -0.0509219 -1.4391 0
M  V30 1140 H 105.944 2.26915 -3.55088 0
M  V30 1141 H 104.668 2.30995 -2.30887 0
M  V30 1142 H 103.327 0.622499 -3.61276 0
M  V30 1143 H 102.975 3.07057 -3.98403 0
M  V30 1144 H 102.675 2.13925 -5.47275 0
M  V30 1145 H 104.199 3.05317 -5.28786 0
M  V30 1146 H 105.613 0.814929 -5.67478 0
M  V30 1147 H 104.01 0.0937929 -6.00027 0
M  V30 1148 H 105.08 -0.65921 -4.80398 0
M  V30 1149 N 106.423 1.57458 -0.0668435 0
M  V30 1150 C 107.839 1.56947 0.289772 0
M  V30 1151 C 108.039 1.07584 1.70376 0
M  V30 1152 O 107.095 0.739486 2.41429 0
M  V30 1153 C 108.408 3.0052 0.103943 0
M  V30 1154 C 109.956 3.12517 0.173857 0
M  V30 1155 C 110.431 4.57997 0.0163682 0
M  V30 1156 N 111.922 4.63144 0.0721352 0
M  V30 1157 C 112.657 5.73394 -0.0253794 0
M  V30 1158 N 112.153 6.92576 -0.176133 0
M  V30 1159 N 113.946 5.62091 0.0313305 0
M  V30 1160 H 106.097 1.87863 -0.991027 0
M  V30 1161 H 108.36 0.86583 -0.38606 0
M  V30 1162 H 108.066 3.40729 -0.871572 0
M  V30 1163 H 107.94 3.67304 0.858366 0
M  V30 1164 H 110.327 2.72197 1.13985 0
M  V30 1165 H 110.408 2.48381 -0.611586 0
M  V30 1166 H 110.052 4.99005 -0.946374 0
M  V30 1167 H 109.982 5.20158 0.821153 0
M  V30 1168 H 112.473 3.77436 0.187263 0
M  V30 1169 H 112.786 7.72418 -0.242821 0
M  V30 1170 H 111.131 6.94678 -0.211429 0
M  V30 1171 H 114.322 4.67867 0.147773 0
M  V30 1172 H 114.495 6.47982 -0.048121 0
M  V30 1173 N 107.901 -0.206675 1.56239 0
M  V30 1174 C 108.851 -1.26 1.90021 0
M  V30 1175 C 109.835 -1.41566 0.764721 0
M  V30 1176 O 111.027 -1.44131 1.02739 0
M  V30 1177 C 108.156 -2.6073 2.23326 0
M  V30 1178 C 107.242 -2.49005 3.43304 0
M  V30 1179 N 107.633 -2.06946 4.61527 0
M  V30 1180 C 105.931 -2.79927 3.47213 0
M  V30 1181 C 106.632 -2.06832 5.43687 0
M  V30 1182 N 105.608 -2.47892 4.83788 0
M  V30 1183 H 109.41 -0.925955 2.78932 0
M  V30 1184 H 106.924 -0.415172 1.57003 0
M  V30 1185 H 108.921 -3.36798 2.45708 0
M  V30 1186 H 107.581 -2.94968 1.35735 0
M  V30 1187 H 108.592 -1.77839 4.86409 0
M  V30 1188 H 105.269 -3.18438 2.70006 0
M  V30 1189 H 106.659 -1.76312 6.48354 0
M  V30 1190 N 109.379 -1.50304 -0.473955 0
M  V30 1191 C 110.628 -1.60392 -1.22301 0
M  V30 1192 C 110.941 -0.308411 -1.93153 0
M  V30 1193 O 112.147 -0.288156 -2.69966 0
M  V30 1194 C 110.603 -2.83109 -2.2221 0
M  V30 1195 C 110.211 -4.19524 -1.57173 0
M  V30 1196 C 111.955 -3.0254 -2.97775 0
M  V30 1197 C 109.862 -5.33431 -2.55353 0
M  V30 1198 H 108.792 -0.597286 -0.460179 0
M  V30 1199 H 111.443 -1.76731 -0.493803 0
M  V30 1200 H 109.825 -2.60322 -2.9841 0
M  V30 1201 H 110.999 -4.52554 -0.867824 0
M  V30 1202 H 109.314 -4.05674 -0.939002 0
M  V30 1203 H 111.911 -3.84811 -3.71248 0
M  V30 1204 H 112.254 -2.14154 -3.56992 0
M  V30 1205 H 112.787 -3.25494 -2.28688 0
M  V30 1206 H 109.526 -6.23962 -2.00878 0
M  V30 1207 H 109.046 -5.04823 -3.23904 0
M  V30 1208 H 110.725 -5.63887 -3.17239 0
M  V30 1209 N 110.857 0.726932 -1.39834 0
M  V30 1210 C 111.787 1.85405 -1.41941 0
M  V30 1211 C 112.768 1.67751 -0.281728 0
M  V30 1212 O 113.953 1.8795 -0.488717 0
M  V30 1213 C 111.083 3.23243 -1.2701 0
M  V30 1214 C 110.037 3.55549 -2.38262 0
M  V30 1215 C 109.363 4.9241 -2.08415 0
M  V30 1216 C 110.663 3.577 -3.80589 0
M  V30 1217 H 112.357 1.83899 -2.36266 0
M  V30 1218 H 109.903 0.883349 -1.13723 0
M  V30 1219 H 111.856 4.01775 -1.27103 0
M  V30 1220 H 110.58 3.25296 -0.291564 0
M  V30 1221 H 109.239 2.79351 -2.37399 0
M  V30 1222 H 108.887 4.91052 -1.0898 0
M  V30 1223 H 108.587 5.14992 -2.82943 0
M  V30 1224 H 110.111 5.73289 -2.10171 0
M  V30 1225 H 111.525 4.26293 -3.83337 0
M  V30 1226 H 109.922 3.91804 -4.54543 0
M  V30 1227 H 110.992 2.57328 -4.10987 0
M  V30 1228 N 112.336 1.25143 0.95797 0
M  V30 1229 C 113.752 1.01892 1.22842 0
M  V30 1230 C 113.952 -0.266311 1.99732 0
M  V30 1231 O 113.008 -0.979913 2.3271 0
M  V30 1232 C 114.321 2.24004 2.00606 0
M  V30 1233 C 115.869 2.28731 2.13662 0
M  V30 1234 C 116.344 3.5049 2.94823 0
M  V30 1235 N 117.835 3.50866 3.02403 0
M  V30 1236 C 118.57 4.4174 3.65586 0
M  V30 1237 N 118.066 5.42882 4.30408 0
M  V30 1238 N 119.859 4.29429 3.62694 0
M  V30 1239 H 112.01 2.07718 0.443493 0
M  V30 1240 H 114.273 0.912031 0.258657 0
M  V30 1241 H 113.979 3.17395 1.51503 0
M  V30 1242 H 113.853 2.26907 3.01319 0
M  V30 1243 H 116.24 1.35865 2.61963 0
M  V30 1244 H 116.321 2.29848 1.12265 0
M  V30 1245 H 115.965 4.43676 2.47213 0
M  V30 1246 H 115.895 3.46617 3.96439 0
M  V30 1247 H 118.386 2.777 2.56302 0
M  V30 1248 H 118.699 6.0844 4.76467 0
M  V30 1249 H 117.044 5.46758 4.29047 0
M  V30 1250 H 120.235 3.49643 3.11236 0
M  V30 1251 H 120.408 5.00448 4.1165 0
M  V30 1252 N 113.814 -1.1601 1.06675 0
M  V30 1253 C 115.039 -1.91068 0.806706 0
M  V30 1254 C 115.464 -1.77112 -0.633485 0
M  V30 1255 O 114.822 -1.09908 -1.44187 0
M  V30 1256 C 114.87 -3.39655 1.21106 0
M  V30 1257 O 113.974 -4.10893 0.352189 0
M  V30 1258 H 113.315 -0.595125 0.294486 0
M  V30 1259 H 115.845 -1.46955 1.42356 0
M  V30 1260 H 115.855 -3.90434 1.18428 0
M  V30 1261 H 114.53 -3.49132 2.26008 0
M  V30 1262 H 113.107 -3.70285 0.440868 0
M  V30 1263 N 115.292 -0.849877 -1.32721 0
M  V30 1264 C 116.539 -0.450923 -1.97416 0
M  V30 1265 C 116.867 0.992376 -1.67279 0
M  V30 1266 O 116.122 1.71048 -0.950845 0
M  V30 1267 C 116.421 -0.631272 -3.51781 0
M  V30 1268 C 116.087 -2.04432 -4.01894 0
M  V30 1269 C 114.749 -2.4308 -4.1529 0
M  V30 1270 C 117.101 -2.96679 -4.28522 0
M  V30 1271 C 114.429 -3.73257 -4.52654 0
M  V30 1272 C 116.781 -4.26349 -4.67343 0
M  V30 1273 C 115.445 -4.64939 -4.78945 0
M  V30 1274 H 114.715 -0.165004 -0.722395 0
M  V30 1275 H 117.362 -1.07901 -1.58207 0
M  V30 1276 H 115.667 0.0800767 -3.91718 0
M  V30 1277 H 117.364 -0.302709 -3.99856 0
M  V30 1278 H 113.954 -1.73419 -3.91949 0
M  V30 1279 H 118.138 -2.68054 -4.17685 0
M  V30 1280 H 113.394 -4.02946 -4.59831 0
M  V30 1281 H 117.568 -4.97895 -4.86902 0
M  V30 1282 H 115.195 -5.65855 -5.07654 0
M  V30 1283 N 116.77 1.45427 -0.607355 0
M  V30 1284 C 118.047 1.9557 -0.0344566 0
M  V30 1285 C 118.427 1.54979 1.43334 0
M  V30 1286 O 117.775 0.812241 2.13576 0
M  V30 1287 C 117.985 3.48226 -0.232321 0
M  V30 1288 C 119.333 4.2445 -0.113001 0
M  V30 1289 O 120.357 3.55829 -0.162431 0
M  V30 1290 O 119.216 5.465 0.00209442 0
M  V30 1291 H 116.31 0.826222 0.0358667 0
M  V30 1292 H 118.856 1.55594 -0.6774 0
M  V30 1293 H 117.628 3.70739 -1.25174 0
M  V30 1294 H 117.251 3.95092 0.445896 0
M  V30 1295 N 118.248 0.346503 1.53744 0
M  V30 1296 C 119.158 -0.517293 2.28826 0
M  V30 1297 C 120.174 -1.10935 1.3405 0
M  V30 1298 O 121.35 -1.1244 1.6709 0
M  V30 1299 C 118.415 -1.65098 3.04866 0
M  V30 1300 C 117.476 -1.0884 4.15274 0
M  V30 1301 C 116.709 -2.16806 4.87679 0
M  V30 1302 O 116.932 -3.3758 4.59778 0
M  V30 1303 O 115.866 -1.80934 5.74061 0
M  V30 1304 H 119.692 0.0931396 3.03557 0
M  V30 1305 H 117.277 0.111458 1.48984 0
M  V30 1306 H 119.159 -2.31053 3.5241 0
M  V30 1307 H 117.834 -2.24717 2.32989 0
M  V30 1308 H 116.741 -0.3933 3.72027 0
M  V30 1309 H 118.074 -0.537036 4.89261 0
M  V30 1310 N 119.726 -1.57421 0.075193 0
M  V30 1311 C 120.975 -1.92794 -0.592731 0
M  V30 1312 C 121.288 -0.957478 -1.70563 0
M  V30 1313 O 122.494 -1.20417 -2.43335 0
M  V30 1314 C 120.95 -3.42495 -1.10569 0
M  V30 1315 C 120.558 -4.47994 -0.0236121 0
M  V30 1316 C 122.302 -3.86864 -1.74748 0
M  V30 1317 C 120.209 -5.88829 -0.550803 0
M  V30 1318 H 119.139 -0.719591 -0.225177 0
M  V30 1319 H 121.79 -1.82902 0.147978 0
M  V30 1320 H 120.172 -3.47471 -1.89947 0
M  V30 1321 H 121.346 -4.54637 0.751099 0
M  V30 1322 H 119.661 -4.13113 0.522159 0
M  V30 1323 H 122.258 -4.8947 -2.15229 0
M  V30 1324 H 122.601 -3.24417 -2.60882 0
M  V30 1325 H 123.134 -3.84504 -1.01986 0
M  V30 1326 H 119.873 -6.54929 0.273457 0
M  V30 1327 H 119.393 -5.85698 -1.29296 0
M  V30 1328 H 121.072 -6.38811 -1.02613 0
M  V30 1329 N 121.204 0.198386 -1.56346 0
M  V30 1330 C 122.434 0.934215 -1.84271 0
M  V30 1331 C 122.842 1.77496 -0.655125 0
M  V30 1332 O 122.185 1.7961 0.385488 0
M  V30 1333 C 122.247 1.88278 -3.06254 0
M  V30 1334 C 121.911 1.22431 -4.40295 0
M  V30 1335 C 122.908 0.602839 -5.16393 0
M  V30 1336 C 120.593 1.22915 -4.87029 0
M  V30 1337 C 122.587 -0.0050083 -6.374 0
M  V30 1338 C 120.274 0.617465 -6.07973 0
M  V30 1339 C 121.272 0.00146341 -6.83 0
M  V30 1340 O 120.96 -0.600642 -8.01653 0
M  V30 1341 H 120.692 0.278245 -0.616081 0
M  V30 1342 H 123.246 0.211626 -2.04307 0
M  V30 1343 H 121.476 2.64498 -2.82095 0
M  V30 1344 H 123.165 2.48612 -3.20853 0
M  V30 1345 H 123.931 0.591265 -4.81382 0
M  V30 1346 H 119.81 1.69801 -4.28589 0
M  V30 1347 H 123.354 -0.48643 -6.95902 0
M  V30 1348 H 119.251 0.62653 -6.42452 0
M  V30 1349 H 120.019 -0.497225 -8.16988 0
M  V30 1350 N 122.682 1.50554 0.465978 0
M  V30 1351 C 123.907 1.65838 1.24549 0
M  V30 1352 C 124.332 0.343486 1.84937 0
M  V30 1353 O 123.69 -0.69324 1.67523 0
M  V30 1354 C 123.738 2.75533 2.32624 0
M  V30 1355 O 122.842 2.37142 3.37398 0
M  V30 1356 H 122.183 0.553893 0.366194 0
M  V30 1357 H 124.713 1.96959 0.553927 0
M  V30 1358 H 124.723 2.98763 2.77857 0
M  V30 1359 H 123.398 3.70962 1.88043 0
M  V30 1360 H 121.975 2.24377 2.97841 0
M  V30 1361 N 124.16 -0.719506 1.40217 0
M  V30 1362 C 125.408 -1.47641 1.3801 0
M  V30 1363 C 125.729 -1.94992 -0.018145 0
M  V30 1364 O 124.999 -1.70073 -0.972207 0
M  V30 1365 H 123.579 -0.547744 0.507923 0
M  V30 1366 H 126.241 -0.853187 1.75233 0
M  V30 1367 H 125.337 -2.35112 2.05253 0
M  V30 1368 N 125.638 -1.25649 -0.95132 0
M  V30 1369 C 126.586 -1.06118 -2.06982 0
M  V30 1370 C 127.58 0.00889169 -1.69398 0
M  V30 1371 O 128.786 -0.146988 -1.79399 0
M  V30 1372 H 125.161 -0.326248 -0.677544 0
M  V30 1373 H 127.132 -2.00932 -2.2061 0
M  V30 1374 C 125.881 -0.700145 -3.40578 0
M  V30 1375 H 125.204 -1.51537 -3.69968 0
M  V30 1376 H 126.644 -0.603211 -4.19687 0
M  V30 1377 C 125.103 0.59403 -3.31622 0
M  V30 1378 O 125.633 1.63522 -3.66911 0
M  V30 1379 N 123.839 0.58089 -2.84735 0
M  V30 1380 H 123.386 -0.266783 -2.56215 0
M  V30 1381 H 123.344 1.44695 -2.79125 0
M  V30 1382 N 127.117 1.15442 -1.07289 0
M  V30 1383 C 128.067 2.18164 -0.662467 0
M  V30 1384 C 129.051 1.57845 0.312074 0
M  V30 1385 O 130.243 1.76552 0.125905 0
M  V30 1386 C 127.372 3.43246 -0.0611295 0
M  V30 1387 C 126.458 4.1062 -1.06077 0
M  V30 1388 N 126.849 4.53491 -2.24008 0
M  V30 1389 C 125.147 4.36949 -0.893964 0
M  V30 1390 C 125.848 5.05731 -2.87422 0
M  V30 1391 N 124.824 4.99236 -2.15091 0
M  V30 1392 H 128.626 2.49038 -1.56068 0
M  V30 1393 H 126.14 1.32003 -0.945988 0
M  V30 1394 H 128.137 4.16145 0.250792 0
M  V30 1395 H 126.797 3.13854 0.832207 0
M  V30 1396 H 127.808 4.46898 -2.6173 0
M  V30 1397 H 124.485 4.17466 -0.0534693 0
M  V30 1398 H 125.875 5.48865 -3.87553 0
M  V30 1399 N 128.595 0.856903 1.32268 0
M  V30 1400 C 130.011 0.547061 1.49931 0
M  V30 1401 C 130.211 -0.921781 1.7918 0
M  V30 1402 O 129.267 -1.70469 1.8627 0
M  V30 1403 C 130.58 1.43599 2.64196 0
M  V30 1404 C 132.128 1.43665 2.78081 0
M  V30 1405 C 132.603 2.31085 3.95428 0
M  V30 1406 N 134.094 2.28893 4.02694 0
M  V30 1407 C 134.829 2.93262 4.92732 0
M  V30 1408 N 134.325 3.66751 5.87763 0
M  V30 1409 N 136.118 2.82638 4.85873 0
M  V30 1410 H 128.269 1.8075 1.11549 0
M  V30 1411 H 130.532 0.772144 0.549997 0
M  V30 1412 H 130.238 2.48058 2.49319 0
M  V30 1413 H 130.112 1.12502 3.60032 0
M  V30 1414 H 132.499 0.399701 2.92381 0
M  V30 1415 H 132.58 1.7878 1.82952 0
M  V30 1416 H 132.224 3.34849 3.81888 0
M  V30 1417 H 132.154 1.93302 4.89839 0
M  V30 1418 H 134.645 1.75466 3.34694 0
M  V30 1419 H 134.958 4.13027 6.53168 0
M  V30 1420 H 133.303 3.70859 5.87783 0
M  V30 1421 H 136.494 2.24774 4.10602 0
M  V30 1422 H 136.667 3.33084 5.55841 0
M  V30 1423 N 130.073 -1.45103 0.615059 0
M  V30 1424 C 131.006 -2.27717 -0.148408 0
M  V30 1425 C 131.984 -1.37584 -0.866572 0
M  V30 1426 O 133.168 -1.67017 -0.87393 0
M  V30 1427 C 130.295 -3.16136 -1.21557 0
M  V30 1428 C 129.341 -4.22263 -0.599712 0
M  V30 1429 S 130.174 -5.3215 0.598081 0
M  V30 1430 C 131.33 -6.24137 -0.469484 0
M  V30 1431 H 131.563 -2.92121 0.552483 0
M  V30 1432 H 129.096 -1.49054 0.402778 0
M  V30 1433 H 131.054 -3.67633 -1.82638 0
M  V30 1434 H 129.715 -2.50982 -1.88857 0
M  V30 1435 H 128.908 -4.84081 -1.4029 0
M  V30 1436 H 128.51 -3.73945 -0.063876 0
M  V30 1437 H 130.802 -6.63984 -1.34652 0
M  V30 1438 H 131.745 -7.0801 0.112725 0
M  V30 1439 H 132.153 -5.58971 -0.788168 0
M  V30 1440 N 131.551 -0.354651 -1.53558 0
M  V30 1441 C 132.797 0.238797 -2.01389 0
M  V30 1442 C 133.13 1.49309 -1.2418 0
M  V30 1443 O 132.405 1.91638 -0.332457 0
M  V30 1444 C 132.688 0.541771 -3.56001 0
M  V30 1445 C 132.541 -0.725388 -4.43912 0
M  V30 1446 C 133.86 1.34685 -4.18984 0
M  V30 1447 H 130.979 0.0853177 -0.732045 0
M  V30 1448 H 133.621 -0.477384 -1.83905 0
M  V30 1449 H 131.771 1.15189 -3.71031 0
M  V30 1450 H 133.443 -1.36313 -4.407 0
M  V30 1451 H 131.686 -1.34801 -4.12324 0
M  V30 1452 H 132.357 -0.468505 -5.50008 0
M  V30 1453 H 134.833 0.830837 -4.07721 0
M  V30 1454 H 133.709 1.52759 -5.27215 0
M  V30 1455 H 133.97 2.35221 -3.74331 0
M  V30 1456 N 133.029 1.57378 -0.0835403 0
M  V30 1457 C 134.277 1.93547 0.581718 0
M  V30 1458 C 134.598 0.96524 1.69435 0
M  V30 1459 O 133.868 0.0153369 1.95894 0
M  V30 1460 H 132.448 0.714521 0.217874 0
M  V30 1461 H 135.11 1.94366 -0.144158 0
M  V30 1462 H 134.206 2.95665 0.999423 0
M  V30 1463 N 134.507 -0.190092 1.56449 0
M  V30 1464 C 135.437 -1.23816 1.97969 0
M  V30 1465 C 136.418 -1.47201 0.852395 0
M  V30 1466 O 137.603 -1.58854 1.1171 0
M  V30 1467 C 134.733 -2.5813 2.3235 0
M  V30 1468 C 133.687 -2.49348 3.47864 0
M  V30 1469 C 133.013 -3.8798 3.67934 0
M  V30 1470 C 134.313 -2.01424 4.81898 0
M  V30 1471 H 136.007 -0.89311 2.85769 0
M  V30 1472 H 133.553 -0.428177 1.37487 0
M  V30 1473 H 135.506 -3.31637 2.59991 0
M  V30 1474 H 134.23 -2.94386 1.41438 0
M  V30 1475 H 132.889 -1.78297 3.20321 0
M  V30 1476 H 132.537 -4.21597 2.74344 0
M  V30 1477 H 132.237 -3.82978 4.45648 0
M  V30 1478 H 133.761 -4.63101 3.97957 0
M  V30 1479 H 135.175 -2.64693 5.08538 0
M  V30 1480 H 133.572 -2.07413 5.63116 0
M  V30 1481 H 134.642 -0.967677 4.75146 0
M  V30 1482 N 135.985 -1.50799 -0.457987 0
M  V30 1483 C 137.231 -1.62683 -1.21088 0
M  V30 1484 C 137.564 -0.332268 -1.91336 0
M  V30 1485 O 136.839 0.667043 -1.82704 0
M  V30 1486 C 137.122 -2.81615 -2.24422 0
M  V30 1487 C 136.975 -4.20989 -1.58392 0
M  V30 1488 C 138.294 -2.96085 -3.2561 0
M  V30 1489 H 135.413 -0.592087 -0.438864 0
M  V30 1490 H 138.055 -1.83225 -0.50286 0
M  V30 1491 H 136.205 -2.64231 -2.84806 0
M  V30 1492 H 137.877 -4.49994 -1.01504 0
M  V30 1493 H 136.12 -4.24641 -0.886704 0
M  V30 1494 H 136.791 -5.0016 -2.33547 0
M  V30 1495 H 139.267 -3.12042 -2.75262 0
M  V30 1496 H 138.143 -3.80902 -3.95228 0
M  V30 1497 H 138.404 -2.0726 -3.90507 0
M  V30 1498 N 137.463 0.71206 -1.40597 0
M  V30 1499 C 138.41 1.82613 -1.41142 0
M  V30 1500 C 139.38 1.63925 -0.267903 0
M  V30 1501 O 140.565 1.85009 -0.466495 0
M  V30 1502 C 137.705 3.20354 -1.28324 0
M  V30 1503 C 136.818 3.50589 -2.52411 0
M  V30 1504 C 135.953 4.77855 -2.32009 0
M  V30 1505 C 134.992 5.01005 -3.51654 0
M  V30 1506 N 134.129 6.19487 -3.30425 0
M  V30 1507 H 138.969 1.81482 -2.36365 0
M  V30 1508 H 136.506 0.886475 -1.17388 0
M  V30 1509 H 138.464 3.99899 -1.18899 0
M  V30 1510 H 137.094 3.20705 -0.367189 0
M  V30 1511 H 136.146 2.65573 -2.72351 0
M  V30 1512 H 137.458 3.63604 -3.41458 0
M  V30 1513 H 136.612 5.65424 -2.19956 0
M  V30 1514 H 135.351 4.67056 -1.40392 0
M  V30 1515 H 134.356 4.1189 -3.64179 0
M  V30 1516 H 135.581 5.13674 -4.44202 0
M  V30 1517 H 133.527 6.09932 -2.41494 0
M  V30 1518 H 133.444 6.33194 -4.13039 0
M  V30 1519 H 134.712 7.09834 -3.22113 0
M  V30 1520 N 138.941 1.26152 0.944643 0
M  V30 1521 C 140.187 1.11657 1.69294 0
M  V30 1522 C 140.52 -0.339926 1.91202 0
M  V30 1523 O 139.795 -1.24994 1.49019 0
M  V30 1524 C 140.078 1.88236 3.06984 0
M  V30 1525 C 139.931 3.41772 2.92424 0
M  V30 1526 C 141.25 1.67343 4.07043 0
M  V30 1527 H 138.369 0.407004 0.614424 0
M  V30 1528 H 141.011 1.55106 1.09737 0
M  V30 1529 H 139.161 1.51308 3.57824 0
M  V30 1530 H 140.833 3.88433 2.48832 0
M  V30 1531 H 139.076 3.68974 2.28124 0
M  V30 1532 H 139.747 3.90579 3.90067 0
M  V30 1533 H 142.223 1.99509 3.65151 0
M  V30 1534 H 141.099 2.23346 5.01406 0
M  V30 1535 H 141.36 0.617158 4.37771 0
M  V30 1536 N 140.419 -1.14872 1.07899 0
M  V30 1537 C 141.665 -1.86064 0.806725 0
M  V30 1538 C 141.998 -1.82434 -0.665706 0
M  V30 1539 O 141.273 -1.25138 -1.48899 0
M  V30 1540 C 141.556 -3.34929 1.32267 0
M  V30 1541 C 141.409 -3.47161 2.86006 0
M  V30 1542 C 142.728 -4.29863 0.943717 0
M  V30 1543 H 139.847 -0.675591 0.294526 0
M  V30 1544 H 142.489 -1.34925 1.33773 0
M  V30 1545 H 140.639 -3.78611 0.870974 0
M  V30 1546 H 142.311 -3.12302 3.39507 0
M  V30 1547 H 140.554 -2.88539 3.23925 0
M  V30 1548 H 141.225 -4.51777 3.17177 0
M  V30 1549 H 143.701 -3.9417 1.33302 0
M  V30 1550 H 142.577 -5.32494 1.33198 0
M  V30 1551 H 142.838 -4.41846 -0.149796 0
M  V30 1552 N 141.898 -0.863906 -1.31812 0
M  V30 1553 C 143.147 -0.46801 -1.96195 0
M  V30 1554 C 143.46 0.983474 -1.69077 0
M  V30 1555 O 144.666 1.48523 -2.27273 0
M  V30 1556 C 143.122 -0.785995 -3.51212 0
M  V30 1557 C 142.73 -2.25383 -3.87178 0
M  V30 1558 C 144.474 -0.458274 -4.22019 0
M  V30 1559 C 142.381 -2.51455 -5.3528 0
M  V30 1560 H 141.311 -0.171283 -0.734287 0
M  V30 1561 H 143.962 -1.05597 -1.50072 0
M  V30 1562 H 142.344 -0.127359 -3.95795 0
M  V30 1563 H 143.518 -2.95502 -3.53575 0
M  V30 1564 H 141.833 -2.54698 -3.2942 0
M  V30 1565 H 144.43 -0.630369 -5.30971 0
M  V30 1566 H 144.773 0.600834 -4.11941 0
M  V30 1567 H 145.306 -1.07319 -3.8305 0
M  V30 1568 H 142.045 -3.56025 -5.50387 0
M  V30 1569 H 141.565 -1.85923 -5.70257 0
M  V30 1570 H 143.244 -2.35874 -6.02472 0
M  V30 1571 N 143.376 1.44774 -0.622745 0
M  V30 1572 C 144.624 2.01721 -0.123655 0
M  V30 1573 C 144.945 1.49172 1.25589 0
M  V30 1574 O 144.215 0.691974 1.83272 0
M  V30 1575 H 142.795 0.745777 -0.0427225 0
M  V30 1576 H 145.457 1.77382 -0.807559 0
M  V30 1577 H 144.553 3.11984 -0.0849534 0
M  V30 1578 N 144.854 0.36279 1.53368 0
M  V30 1579 C 145.784 -0.476976 2.28576 0
M  V30 1580 C 146.765 -1.08631 1.30894 0
M  V30 1581 O 147.95 -1.10409 1.59761 0
M  V30 1582 C 145.08 -1.61828 3.07293 0
M  V30 1583 C 144.034 -1.13633 4.1264 0
M  V30 1584 C 143.36 -2.36766 4.79423 0
M  V30 1585 C 144.66 -0.223061 5.21823 0
M  V30 1586 H 146.354 0.150474 2.99022 0
M  V30 1587 H 143.9 0.0738103 1.43811 0
M  V30 1588 H 145.853 -2.21237 3.58653 0
M  V30 1589 H 144.577 -2.27292 2.34533 0
M  V30 1590 H 143.236 -0.564945 3.62221 0
M  V30 1591 H 142.884 -3.0068 4.03238 0
M  V30 1592 H 142.584 -2.05192 5.50609 0
M  V30 1593 H 144.108 -2.96865 5.33576 0
M  V30 1594 H 145.522 -0.724545 5.68703 0
M  V30 1595 H 143.919 0.001678 6.001 0
M  V30 1596 H 144.989 0.735553 4.79289 0
M  V30 1597 N 146.332 -1.57332 0.0918853 0
M  V30 1598 C 147.295 -2.12708 -0.85369 0
M  V30 1599 C 148.295 -1.05561 -1.213 0
M  V30 1600 O 149.485 -1.31461 -1.14296 0
M  V30 1601 C 146.617 -2.64503 -2.15061 0
M  V30 1602 H 147.81 -2.97573 -0.3729 0
M  V30 1603 H 145.363 -1.55509 -0.157072 0
M  V30 1604 H 146.098 -1.83149 -2.67632 0
M  V30 1605 H 145.883 -3.4284 -1.90272 0
M  V30 1606 H 147.373 -3.07351 -2.82711 0
M  V30 1607 N 147.81 0.181792 -1.56548 0
M  V30 1608 C 148.74 1.22765 -1.98623 0
M  V30 1609 C 149.721 1.46747 -0.860189 0
M  V30 1610 O 150.906 1.58259 -1.12551 0
M  V30 1611 C 148.036 2.56894 -2.33715 0
M  V30 1612 C 146.99 2.475 -3.49182 0
M  V30 1613 C 146.316 3.86023 -3.69986 0
M  V30 1614 C 147.616 1.98866 -4.82959 0
M  V30 1615 H 149.31 0.877942 -2.86239 0
M  V30 1616 H 146.856 0.42088 -1.37712 0
M  V30 1617 H 148.809 3.30253 -2.61746 0
M  V30 1618 H 147.533 2.93632 -1.42997 0
M  V30 1619 H 146.192 1.76596 -3.21262 0
M  V30 1620 H 145.84 4.20136 -2.76576 0
M  V30 1621 H 145.54 3.80609 -4.47672 0
M  V30 1622 H 147.064 4.60984 -4.00407 0
M  V30 1623 H 148.478 2.61992 -5.09934 0
M  V30 1624 H 146.875 2.04424 -5.64208 0
M  V30 1625 H 147.945 0.942465 -4.75653 0
M  V30 1626 N 149.288 1.51039 0.449983 0
M  V30 1627 C 150.513 1.6715 1.22783 0
M  V30 1628 C 150.938 0.363081 1.84563 0
M  V30 1629 O 150.296 -0.675433 1.68249 0
M  V30 1630 C 150.344 2.77985 2.29689 0
M  V30 1631 O 149.448 2.40707 3.34864 0
M  V30 1632 H 148.789 0.557746 0.360299 0
M  V30 1633 H 151.319 1.97535 0.533005 0
M  V30 1634 H 151.329 3.01693 2.74673 0
M  V30 1635 H 150.004 3.72935 1.84098 0
M  V30 1636 H 148.581 2.27523 2.95445 0
M  V30 1637 N 150.766 -0.704594 1.40972 0
M  V30 1638 C 152.014 -1.46169 1.39568 0
M  V30 1639 C 152.335 -1.95 0.00253745 0
M  V30 1640 O 151.605 -1.71095 -0.954114 0
M  V30 1641 H 150.185 -0.542326 0.513704 0
M  V30 1642 H 152.847 -0.834553 1.76128 0
M  V30 1643 H 151.943 -2.32922 2.07735 0
M  V30 1644 N 152.244 -1.26651 -0.937939 0
M  V30 1645 C 153.207 -1.08546 -2.01867 0
M  V30 1646 C 154.207 -0.0327327 -1.60767 0
M  V30 1647 O 155.397 -0.276427 -1.71993 0
M  V30 1648 C 152.529 -0.651711 -3.34613 0
M  V30 1649 H 153.722 -2.04502 -2.1936 0
M  V30 1650 H 151.275 -1.09294 -1.11734 0
M  V30 1651 H 152.01 0.309696 -3.22818 0
M  V30 1652 H 151.795 -1.41189 -3.65798 0
M  V30 1653 H 153.285 -0.546973 -4.14002 0
M  V30 1654 N 153.722 1.14298 -1.08507 0
M  V30 1655 C 155.133 1.66926 -0.836227 0
M  V30 1656 C 155.484 1.85576 0.63686 0
M  V30 1657 O 154.609 1.56767 1.49175 0
M  V30 1658 C 155.204 3.03219 -1.51142 0
M  V30 1659 C 153.763 3.52876 -1.30979 0
M  V30 1660 C 152.91 2.2833 -1.57356 0
M  V30 1661 H 155.861 0.983491 -1.24552 0
M  V30 1662 H 155.882 3.68726 -0.939211 0
M  V30 1663 H 155.394 2.89612 -2.58353 0
M  V30 1664 H 153.495 3.71703 -0.258429 0
M  V30 1665 H 153.608 4.33586 -2.03814 0
M  V30 1666 H 151.972 2.34454 -0.995164 0
M  V30 1667 H 152.755 2.17298 -2.65775 0
M  V30 1668 N 155.201 0.870884 1.31352 0
M  V30 1669 C 156.447 0.482987 1.96965 0
M  V30 1670 C 156.78 -0.962462 1.68672 0
M  V30 1671 O 156.055 -1.6779 0.98371 0
M  V30 1672 C 156.338 0.741752 3.52378 0
M  V30 1673 C 156.191 2.2368 3.9024 0
M  V30 1674 C 157.51 0.208838 4.39604 0
M  V30 1675 H 154.629 0.176955 0.715441 0
M  V30 1676 H 157.271 1.09229 1.55464 0
M  V30 1677 H 155.421 0.223149 3.87859 0
M  V30 1678 H 157.093 2.82273 3.64856 0
M  V30 1679 H 155.336 2.70901 3.38814 0
M  V30 1680 H 156.007 2.3685 4.98604 0
M  V30 1681 H 158.483 0.652529 4.10952 0
M  V30 1682 H 157.359 0.419336 5.47296 0
M  V30 1683 H 157.62 -0.889275 4.33064 0
M  V30 1684 N 156.679 -1.44442 0.630414 0
M  V30 1685 C 158.09 -1.85434 0.217063 0
M  V30 1686 C 158.441 -1.52748 -1.23136 0
M  V30 1687 O 157.566 -0.965205 -1.93682 0
M  V30 1688 C 158.161 -3.36581 0.387168 0
M  V30 1689 C 156.72 -3.76389 0.0283297 0
M  V30 1690 C 155.867 -2.68296 0.700889 0
M  V30 1691 H 158.818 -1.34919 0.83562 0
M  V30 1692 H 158.839 -3.78657 -0.374086 0
M  V30 1693 H 158.351 -3.60339 1.44144 0
M  V30 1694 H 156.452 -3.58246 -1.02423 0
M  V30 1695 H 156.565 -4.77095 0.437892 0
M  V30 1696 H 154.929 -2.54335 0.136267 0
M  V30 1697 H 155.712 -2.94887 1.75774 0
M  V30 1698 N 158.157 -0.370918 -1.53173 0
M  V30 1699 C 159.067 0.480823 -2.2962 0
M  V30 1700 C 160.083 1.08789 -1.35798 0
M  V30 1701 O 161.259 1.09768 -1.68858 0
M  V30 1702 C 158.324 1.60227 -3.07454 0
M  V30 1703 C 157.385 1.0222 -4.16953 0
M  V30 1704 C 156.618 2.0902 -4.91066 0
M  V30 1705 O 156.841 3.30222 -4.65091 0
M  V30 1706 O 155.775 1.71778 -5.76867 0
M  V30 1707 H 159.601 -0.141421 -3.03371 0
M  V30 1708 H 157.186 -0.135146 -1.48787 0
M  V30 1709 H 159.068 2.25417 -3.56041 0
M  V30 1710 H 157.743 2.20982 -2.36535 0
M  V30 1711 H 156.65 0.334064 -3.72605 0
M  V30 1712 H 157.983 0.459131 -4.90054 0
M  V30 1713 N 159.635 1.57281 -0.100228 0
M  V30 1714 C 160.883 1.94153 0.561157 0
M  V30 1715 C 161.204 0.983157 1.68401 0
M  V30 1716 O 160.474 0.0361132 1.95867 0
M  V30 1717 H 159.054 0.716791 0.210283 0
M  V30 1718 H 161.716 1.94202 -0.164765 0
M  V30 1719 H 160.812 2.96709 0.968008 0
M  V30 1720 N 161.113 -0.173488 1.56642 0
M  V30 1721 C 162.046 -1.24353 1.91342 0
M  V30 1722 C 163.024 -1.4289 0.775965 0
M  V30 1723 O 164.208 -1.57932 1.02907 0
M  V30 1724 C 161.335 -2.60683 2.16245 0
M  V30 1725 C 160.381 -2.58894 3.38934 0
M  V30 1726 S 161.214 -2.0819 4.93373 0
M  V30 1727 C 162.37 -3.46302 5.21369 0
M  V30 1728 H 162.603 -0.947345 2.81803 0
M  V30 1729 H 160.136 -0.377958 1.49703 0
M  V30 1730 H 162.094 -3.39149 2.31275 0
M  V30 1731 H 160.755 -2.87502 1.26496 0
M  V30 1732 H 159.948 -3.59188 3.53553 0
M  V30 1733 H 159.55 -1.88522 3.2301 0
M  V30 1734 H 161.842 -4.42287 5.13214 0
M  V30 1735 H 162.785 -3.3656 6.23003 0
M  V30 1736 H 163.193 -3.42214 4.48943 0
M  V30 1737 N 162.591 -1.51276 -0.441967 0
M  V30 1738 C 163.539 -1.72823 -1.55676 0
M  V30 1739 C 164.533 -0.59445 -1.58627 0
M  V30 1740 O 165.739 -0.775715 -1.62427 0
M  V30 1741 H 162.114 -0.545983 -0.517113 0
M  V30 1742 H 164.085 -2.6628 -1.34675 0
M  V30 1743 C 162.834 -1.86619 -2.93375 0
M  V30 1744 H 162.157 -2.73264 -2.91834 0
M  V30 1745 H 163.597 -2.05709 -3.70756 0
M  V30 1746 C 162.056 -0.624842 -3.31055 0
M  V30 1747 O 162.586 0.222636 -4.01083 0
M  V30 1748 N 160.792 -0.470288 -2.86769 0
M  V30 1749 H 160.339 -1.161 -2.29953 0
M  V30 1750 H 160.297 0.359051 -3.12343 0
M  V30 1751 N 164.069 0.697108 -1.41344 0
M  V30 1752 C 165.315 1.45796 -1.41828 0
M  V30 1753 C 165.67 1.92382 -0.0261743 0
M  V30 1754 O 164.963 1.66522 0.947688 0
M  V30 1755 C 165.157 2.68553 -2.35826 0
M  V30 1756 C 164.986 2.33975 -3.84039 0
M  V30 1757 C 163.756 2.24414 -4.52732 0
M  V30 1758 C 165.954 1.97048 -4.75054 0
M  V30 1759 N 163.936 1.82705 -5.86082 0
M  V30 1760 C 165.307 1.66086 -5.9734 0
M  V30 1761 C 167.362 1.83845 -4.62715 0
M  V30 1762 C 166.065 1.23246 -7.08663 0
M  V30 1763 C 168.091 1.4241 -5.73998 0
M  V30 1764 C 167.453 1.12357 -6.95381 0
M  V30 1765 H 163.552 0.530859 -0.574206 0
M  V30 1766 H 166.136 0.806674 -1.77203 0
M  V30 1767 H 164.307 3.31404 -2.02549 0
M  V30 1768 H 166.039 3.35015 -2.2704 0
M  V30 1769 H 162.794 2.4276 -4.0665 0
M  V30 1770 H 163.218 1.64337 -6.56751 0
M  V30 1771 H 167.86 2.05734 -3.69369 0
M  V30 1772 H 165.578 1.00102 -8.01876 0
M  V30 1773 H 169.164 1.32746 -5.66454 0
M  V30 1774 H 168.044 0.807795 -7.80028 0
M  V30 1775 N 165.547 1.27147 0.931209 0
M  V30 1776 C 166.793 1.13446 1.68101 0
M  V30 1777 C 167.126 -0.319628 1.91552 0
M  V30 1778 O 166.401 -1.23407 1.50336 0
M  V30 1779 C 166.684 1.91482 3.0497 0
M  V30 1780 C 166.537 3.44855 2.88782 0
M  V30 1781 C 167.856 1.71651 4.05246 0
M  V30 1782 H 164.975 0.413498 0.610072 0
M  V30 1783 H 167.617 1.56261 1.08086 0
M  V30 1784 H 165.767 1.55095 3.56199 0
M  V30 1785 H 167.439 3.9105 2.44698 0
M  V30 1786 H 165.682 3.71373 2.24198 0
M  V30 1787 H 166.353 3.94694 3.85902 0
M  V30 1788 H 168.829 2.0337 3.63015 0
M  V30 1789 H 167.705 2.28651 4.99009 0
M  V30 1790 H 167.966 0.663555 4.37092 0
M  V30 1791 N 167.025 -1.13721 1.09112 0
M  V30 1792 C 168.255 -1.88499 0.845671 0
M  V30 1793 C 168.663 -1.79218 -0.606432 0
M  V30 1794 O 168.006 -1.1544 -1.42896 0
M  V30 1795 C 168.068 -3.38954 1.19793 0
M  V30 1796 C 167.732 -3.72018 2.65428 0
M  V30 1797 C 168.729 -3.7153 3.63677 0
M  V30 1798 C 166.414 -4.01775 3.01467 0
M  V30 1799 C 168.408 -4.00336 4.95994 0
M  V30 1800 C 166.095 -4.30243 4.33975 0
M  V30 1801 C 167.093 -4.29508 5.31048 0
M  V30 1802 O 166.781 -4.5728 6.61173 0
M  V30 1803 H 166.513 -0.603702 0.304171 0
M  V30 1804 H 169.067 -1.44903 1.45576 0
M  V30 1805 H 167.297 -3.83039 0.530871 0
M  V30 1806 H 168.986 -3.95052 0.932146 0
M  V30 1807 H 169.752 -3.4862 3.37179 0
M  V30 1808 H 165.631 -4.01496 2.26544 0
M  V30 1809 H 169.175 -3.99678 5.71755 0
M  V30 1810 H 165.072 -4.52625 4.60219 0
M  V30 1811 H 165.84 -4.74964 6.66597 0
M  V30 1812 N 168.503 -0.877838 -1.30888 0
M  V30 1813 C 169.45 -0.337538 -2.28318 0
M  V30 1814 C 170.42 0.568346 -1.56074 0
M  V30 1815 O 171.605 0.498298 -1.84178 0
M  V30 1816 C 168.745 0.448142 -3.42178 0
M  V30 1817 C 167.858 -0.48615 -4.29256 0
M  V30 1818 C 166.993 0.314427 -5.30269 0
M  V30 1819 C 166.032 -0.615791 -6.08995 0
M  V30 1820 N 165.169 0.14902 -7.01942 0
M  V30 1821 H 170.009 -1.17356 -2.73919 0
M  V30 1822 H 167.546 -0.590094 -1.34745 0
M  V30 1823 H 169.504 0.919517 -4.06941 0
M  V30 1824 H 168.134 1.24879 -2.97666 0
M  V30 1825 H 167.186 -1.076 -3.64865 0
M  V30 1826 H 168.498 -1.19909 -4.84173 0
M  V30 1827 H 167.652 0.847969 -6.00745 0
M  V30 1828 H 166.391 1.06062 -4.76027 0
M  V30 1829 H 165.396 -1.16102 -5.37401 0
M  V30 1830 H 166.621 -1.36097 -6.65323 0
M  V30 1831 H 164.567 0.877884 -6.50099 0
M  V30 1832 H 164.484 -0.504433 -7.54315 0
M  V30 1833 H 165.752 0.663537 -7.76671 0
M  V30 1834 N 169.982 1.44106 -0.638065 0
M  V30 1835 C 170.912 2.33448 0.0494287 0
M  V30 1836 C 171.893 1.48606 0.827672 0
M  V30 1837 O 173.078 1.77308 0.792173 0
M  V30 1838 C 170.208 3.31771 1.02691 0
M  V30 1839 C 169.162 4.26485 0.359823 0
M  V30 1840 C 168.488 5.14729 1.44769 0
M  V30 1841 C 169.788 5.17056 -0.738296 0
M  V30 1842 H 171.482 2.91183 -0.696636 0
M  V30 1843 H 169.028 1.40014 -0.336456 0
M  V30 1844 H 170.981 3.93161 1.51666 0
M  V30 1845 H 169.705 2.7226 1.80395 0
M  V30 1846 H 168.364 3.66437 -0.10934 0
M  V30 1847 H 168.012 4.51566 2.21578 0
M  V30 1848 H 167.712 5.78913 1.00668 0
M  V30 1849 H 169.236 5.78991 1.93911 0
M  V30 1850 H 170.65 5.72342 -0.331354 0
M  V30 1851 H 169.047 5.89879 -1.10286 0
M  V30 1852 H 170.117 4.57652 -1.60258 0
M  V30 1853 N 171.46 0.379036 1.52974 0
M  V30 1854 C 172.876 0.0285448 1.59574 0
M  V30 1855 C 173.076 -1.45542 1.39355 0
M  V30 1856 O 172.132 -2.2187 1.20541 0
M  V30 1857 C 173.445 0.496535 2.96572 0
M  V30 1858 C 174.993 0.451909 3.0972 0
M  V30 1859 C 175.468 0.895924 4.49152 0
M  V30 1860 N 176.959 0.851522 4.55306 0
M  V30 1861 C 177.694 1.16661 5.61407 0
M  V30 1862 N 177.19 1.55166 6.752 0
M  V30 1863 N 178.983 1.08853 5.51459 0
M  V30 1864 H 171.134 1.34525 1.64367 0
M  V30 1865 H 173.397 0.550733 0.771619 0
M  V30 1866 H 173.103 1.53258 3.16552 0
M  V30 1867 H 172.977 -0.109802 3.7704 0
M  V30 1868 H 175.364 -0.575029 2.89443 0
M  V30 1869 H 175.445 1.09392 2.3123 0
M  V30 1870 H 175.089 1.92104 4.70168 0
M  V30 1871 H 175.019 0.23103 5.26093 0
M  V30 1872 H 177.51 0.568038 3.73606 0
M  V30 1873 H 177.823 1.776 7.52116 0
M  V30 1874 H 176.168 1.59044 6.76557 0
M  V30 1875 H 179.359 0.786803 4.6144 0
M  V30 1876 H 179.532 1.33742 6.34048 0
M  V30 1877 N 172.938 -1.57226 0.108567 0
M  V30 1878 C 174.354 -1.5766 -0.248058 0
M  V30 1879 C 174.554 -1.12063 -1.67464 0
M  V30 1880 O 173.61 -0.803236 -2.39383 0
M  V30 1881 C 174.923 -3.0069 -0.0242287 0
M  V30 1882 C 176.471 -3.12868 -0.0909372 0
M  V30 1883 C 176.946 -4.57879 0.105067 0
M  V30 1884 N 178.437 -4.63172 0.0506846 0
M  V30 1885 C 179.172 -5.73126 0.177396 0
M  V30 1886 N 178.668 -6.91866 0.359696 0
M  V30 1887 N 180.461 -5.61977 0.117709 0
M  V30 1888 H 172.612 -1.85169 1.04049 0
M  V30 1889 H 174.875 -0.85529 0.40888 0
M  V30 1890 H 174.581 -3.38299 0.961604 0
M  V30 1891 H 174.455 -3.6945 -0.76068 0
M  V30 1892 H 176.842 -2.75124 -1.06729 0
M  V30 1893 H 176.923 -2.46672 0.677225 0
M  V30 1894 H 176.567 -4.96321 1.07834 0
M  V30 1895 H 176.497 -5.22153 -0.682954 0
M  V30 1896 H 178.988 -3.778 -0.0871266 0
M  V30 1897 H 179.301 -7.71503 0.447529 0
M  V30 1898 H 177.646 -6.93874 0.395536 0
M  V30 1899 H 180.837 -4.68094 -0.0236741 0
M  V30 1900 H 181.01 -6.47627 0.219905 0
M  V30 1901 N 174.416 0.165178 -1.56732 0
M  V30 1902 C 175.644 0.896218 -1.86482 0
M  V30 1903 C 176.059 1.75555 -0.694675 0
M  V30 1904 O 175.416 1.79379 0.33607 0
M  V30 1905 C 175.467 1.76792 -3.1532 0
M  V30 1906 O 175.188 0.943239 -4.27825 0
M  V30 1907 C 176.689 2.6081 -3.58459 0
M  V30 1908 H 173.909 0.260064 -0.618553 0
M  V30 1909 H 176.453 0.163428 -2.03846 0
M  V30 1910 H 174.608 2.45398 -2.99764 0
M  V30 1911 H 175.022 1.53998 -5.01383 0
M  V30 1912 H 176.496 3.17579 -4.51495 0
M  V30 1913 H 176.973 3.35977 -2.82872 0
M  V30 1914 H 177.579 1.97526 -3.76648 0
M  V30 1915 N 175.894 1.51508 0.433938 0
M  V30 1916 C 176.824 1.76016 1.53429 0
M  V30 1917 C 177.805 0.610112 1.58782 0
M  V30 1918 O 178.99 0.853177 1.74455 0
M  V30 1919 C 176.12 1.88831 2.9148 0
M  V30 1920 C 175.074 3.04288 3.00987 0
M  V30 1921 C 174.4 3.0229 4.4105 0
M  V30 1922 C 175.7 4.44193 2.74754 0
M  V30 1923 H 177.394 2.68152 1.33171 0
M  V30 1924 H 174.94 1.29035 0.639214 0
M  V30 1925 H 176.893 2.04559 3.6842 0
M  V30 1926 H 175.617 0.933455 3.12976 0
M  V30 1927 H 174.276 2.8827 2.26486 0
M  V30 1928 H 173.924 2.04576 4.59519 0
M  V30 1929 H 173.624 3.79822 4.4834 0
M  V30 1930 H 175.148 3.20116 5.1996 0
M  V30 1931 H 176.562 4.60544 3.41426 0
M  V30 1932 H 174.959 5.23457 2.9345 0
M  V30 1933 H 176.029 4.53996 1.70339 0
M  V30 1934 N 177.372 -0.689602 1.41712 0
M  V30 1935 C 178.621 -1.44534 1.40686 0
M  V30 1936 C 178.934 -1.95588 0.0213352 0
M  V30 1937 O 180.14 -2.71271 -0.111534 0
M  V30 1938 C 178.596 -2.61387 2.47396 0
M  V30 1939 C 178.204 -2.17094 3.91885 0
M  V30 1940 C 179.948 -3.38986 2.55517 0
M  V30 1941 C 177.855 -3.3094 4.90135 0
M  V30 1942 H 176.785 -0.542925 0.52321 0
M  V30 1943 H 179.436 -0.748054 1.6756 0
M  V30 1944 H 177.818 -3.33412 2.13664 0
M  V30 1945 H 178.992 -1.52318 4.34897 0
M  V30 1946 H 177.307 -1.52473 3.8748 0
M  V30 1947 H 179.904 -4.23747 3.26102 0
M  V30 1948 H 180.247 -3.84578 1.59391 0
M  V30 1949 H 180.78 -2.74021 2.8837 0
M  V30 1950 H 177.519 -2.90355 5.87685 0
M  V30 1951 H 177.039 -3.94546 4.51767 0
M  V30 1952 H 178.718 -3.9663 5.11169 0
M  V30 1953 N 178.85 -1.27639 -0.924453 0
M  V30 1954 C 180.097 -1.14167 -1.67249 0
M  V30 1955 C 180.425 0.311863 -1.91984 0
M  V30 1956 O 179.68 1.24425 -1.51053 0
M  V30 1957 C 179.979 -1.87407 -3.04325 0
M  V30 1958 C 179.645 -3.37249 -2.99289 0
M  V30 1959 C 178.307 -3.7812 -2.97622 0
M  V30 1960 C 180.659 -4.32845 -2.90336 0
M  V30 1961 C 177.987 -5.12944 -2.8479 0
M  V30 1962 C 180.339 -5.6773 -2.79045 0
M  V30 1963 C 179.003 -6.07889 -2.7573 0
M  V30 1964 H 178.273 -0.417766 -0.612007 0
M  V30 1965 H 180.92 -1.58286 -1.07786 0
M  V30 1966 H 179.225 -1.35805 -3.67511 0
M  V30 1967 H 180.922 -1.74408 -3.61086 0
M  V30 1968 H 177.512 -3.04748 -3.01374 0
M  V30 1969 H 181.696 -4.02239 -2.90719 0
M  V30 1970 H 176.952 -5.432 -2.80612 0
M  V30 1971 H 181.126 -6.41472 -2.71083 0
M  V30 1972 H 178.753 -7.12314 -2.65544 0
M  V30 1973 N 180.328 1.1314 -1.09713 0
M  V30 1974 C 181.26 2.18343 -0.697056 0
M  V30 1975 C 182.273 1.60669 0.262551 0
M  V30 1976 O 183.462 1.78435 0.0481527 0
M  V30 1977 C 180.562 3.38899 -0.00684728 0
M  V30 1978 C 179.735 4.26078 -0.988741 0
M  V30 1979 C 178.794 5.25155 -0.331394 0
M  V30 1980 O 177.82 5.60701 -0.979926 0
M  V30 1981 N 179.022 5.73271 0.913261 0
M  V30 1982 H 181.787 2.5328 -1.60216 0
M  V30 1983 H 179.348 1.28491 -0.984971 0
M  V30 1984 H 181.34 4.02255 0.444191 0
M  V30 1985 H 179.91 3.02175 0.800551 0
M  V30 1986 H 179.13 3.59453 -1.61826 0
M  V30 1987 H 180.418 4.81178 -1.65364 0
M  V30 1988 H 179.816 5.46544 1.45966 0
M  V30 1989 H 178.373 6.3855 1.30757 0
M  V30 1990 N 181.806 0.884767 1.30421 0
M  V30 1991 C 183.052 0.513218 1.96819 0
M  V30 1992 C 183.407 -0.927347 1.68577 0
M  V30 1993 O 182.7 -1.64644 0.979941 0
M  V30 1994 C 182.894 0.724318 3.49983 0
M  V30 1995 C 182.723 2.18385 3.93113 0
M  V30 1996 C 181.493 2.82839 4.18725 0
M  V30 1997 C 183.691 3.15763 4.05953 0
M  V30 1998 N 181.673 4.1939 4.48314 0
M  V30 1999 C 183.044 4.37387 4.39423 0
M  V30 2000 C 185.099 3.11555 3.88379 0
M  V30 2001 C 183.802 5.55343 4.5715 0
M  V30 2002 C 185.828 4.28782 4.07308 0
M  V30 2003 C 185.19 5.49172 4.41123 0
M  V30 2004 H 181.289 0.237123 0.745182 0
M  V30 2005 H 183.873 1.14246 1.57658 0
M  V30 2006 H 182.044 0.124565 3.882 0
M  V30 2007 H 183.776 0.31969 4.03435 0
M  V30 2008 H 180.531 2.33708 4.11919 0
M  V30 2009 H 180.955 4.89911 4.67243 0
M  V30 2010 H 185.597 2.19576 3.61312 0
M  V30 2011 H 183.315 6.47826 4.8306 0
M  V30 2012 H 186.901 4.26995 3.95179 0
M  V30 2013 H 185.781 6.38371 4.55469 0
M  V30 2014 N 183.284 -1.43765 0.645699 0
M  V30 2015 C 184.247 -2.29163 -0.0409488 0
M  V30 2016 C 185.247 -1.41813 -0.757996 0
M  V30 2017 O 186.437 -1.63527 -0.600382 0
M  V30 2018 C 183.569 -3.23716 -1.06869 0
M  V30 2019 H 184.762 -2.91366 0.710345 0
M  V30 2020 H 182.315 -1.5092 0.406547 0
M  V30 2021 H 183.05 -2.66393 -1.84947 0
M  V30 2022 H 182.835 -3.88105 -0.558277 0
M  V30 2023 H 184.325 -3.87831 -1.54845 0
M  V30 2024 N 184.763 -0.387143 -1.52771 0
M  V30 2025 C 186.04 0.253197 -1.93954 0
M  V30 2026 C 186.42 1.64545 -1.32243 0
M  V30 2027 O 185.768 2.23191 -0.489699 0
M  V30 2028 C 185.978 0.281722 -3.47861 0
M  V30 2029 C 187.326 0.511715 -4.21505 0
M  V30 2030 O 188.35 0.362023 -3.54356 0
M  V30 2031 O 187.209 0.804847 -5.40541 0
M  V30 2032 H 184.303 0.156845 -0.811991 0
M  V30 2033 H 186.849 -0.441494 -1.63856 0
M  V30 2034 H 185.621 -0.693571 -3.85104 0
M  V30 2035 H 185.244 1.02142 -3.84256 0
M  V30 2036 N 186.241 1.57166 -0.116904 0
M  V30 2037 C 187.466 1.999 0.55271 0
M  V30 2038 C 187.891 0.996039 1.59564 0
M  V30 2039 O 187.249 -0.032556 1.81271 0
M  V30 2040 C 187.297 3.4152 1.15742 0
M  V30 2041 O 186.401 3.44106 2.27299 0
M  V30 2042 H 185.742 0.649447 0.138258 0
M  V30 2043 H 188.272 2.03573 -0.204759 0
M  V30 2044 H 188.282 3.79684 1.49346 0
M  V30 2045 H 186.957 4.14034 0.393493 0
M  V30 2046 H 185.534 3.17759 1.9515 0
M  V30 2047 N 187.719 -0.156864 1.56817 0
M  V30 2048 C 189.135 -0.50916 1.5126 0
M  V30 2049 C 189.335 -1.83897 0.823658 0
M  V30 2050 O 188.391 -2.49469 0.390055 0
M  V30 2051 C 189.704 -0.52857 2.96018 0
M  V30 2052 C 191.252 -0.614771 3.06903 0
M  V30 2053 C 191.727 -0.664938 4.53147 0
M  V30 2054 N 193.218 -0.727433 4.57452 0
M  V30 2055 C 193.953 -0.787067 5.67973 0
M  V30 2056 N 193.449 -0.806649 6.88088 0
M  V30 2057 N 195.242 -0.827195 5.5598 0
M  V30 2058 H 187.393 0.714935 2.00006 0
M  V30 2059 H 189.656 0.259526 0.911784 0
M  V30 2060 H 189.362 0.380154 3.49639 0
M  V30 2061 H 189.236 -1.36998 3.51442 0
M  V30 2062 H 191.623 -1.51392 2.53307 0
M  V30 2063 H 191.704 0.253597 2.5454 0
M  V30 2064 H 191.348 0.230011 5.07379 0
M  V30 2065 H 191.278 -1.54966 5.03282 0
M  V30 2066 H 193.769 -0.719998 3.70978 0
M  V30 2067 H 194.082 -0.853727 7.6807 0
M  V30 2068 H 192.427 -0.774687 6.90669 0
M  V30 2069 H 195.618 -0.808998 4.61056 0
M  V30 2070 H 195.791 -0.870206 6.4213 0
M  V30 2071 N 189.197 -1.51736 -0.425897 0
M  V30 2072 C 190.445 -1.64644 -1.17204 0
M  V30 2073 C 190.766 -0.370486 -1.91448 0
M  V30 2074 O 190.036 0.614088 -1.86026 0
M  V30 2075 H 188.616 -0.606819 -0.435638 0
M  V30 2076 H 191.278 -1.88713 -0.487177 0
M  V30 2077 H 190.374 -2.47958 -1.89534 0
M  V30 2078 N 190.675 0.682077 -1.42076 0
M  V30 2079 C 192.086 1.26246 -1.37546 0
M  V30 2080 C 192.437 1.96092 -0.0651481 0
M  V30 2081 O 191.562 1.99587 0.836297 0
M  V30 2082 C 192.157 2.29594 -2.49143 0
M  V30 2083 C 190.716 2.83175 -2.47969 0
M  V30 2084 C 189.863 1.57395 -2.28303 0
M  V30 2085 H 192.814 0.475937 -1.51395 0
M  V30 2086 H 192.835 3.11175 -2.18976 0
M  V30 2087 H 192.347 1.78729 -3.44496 0
M  V30 2088 H 190.448 3.3818 -1.56413 0
M  V30 2089 H 190.561 3.32687 -3.44755 0
M  V30 2090 H 188.925 1.83699 -1.76428 0
M  V30 2091 H 189.708 1.08507 -3.25701 0
M  V30 2092 N 192.153 1.28127 0.917671 0
M  V30 2093 C 193.083 1.14248 2.03641 0
M  V30 2094 C 194.064 0.0412748 1.7005 0
M  V30 2095 O 195.249 0.217566 1.92977 0
M  V30 2096 C 192.379 0.799431 3.37974 0
M  V30 2097 C 191.333 1.85497 3.85713 0
M  V30 2098 C 190.659 1.36565 5.16966 0
M  V30 2099 C 191.959 3.26085 4.08002 0
M  V30 2100 H 193.653 2.07835 2.15511 0
M  V30 2101 H 191.199 1.00064 1.03553 0
M  V30 2102 H 193.152 0.689114 4.15727 0
M  V30 2103 H 191.876 -0.172145 3.26146 0
M  V30 2104 H 190.535 1.95437 3.10161 0
M  V30 2105 H 190.183 0.383253 5.01538 0
M  V30 2106 H 189.883 2.07143 5.49878 0
M  V30 2107 H 191.407 1.26848 5.97279 0
M  V30 2108 H 192.821 3.19089 4.76293 0
M  V30 2109 H 191.218 3.94462 4.52238 0
M  V30 2110 H 192.288 3.70394 3.12948 0
M  V30 2111 N 193.631 -1.12557 1.10312 0
M  V30 2112 C 194.541 -2.21841 0.763142 0
M  V30 2113 C 195.557 -1.72354 -0.238801 0
M  V30 2114 O 196.733 -2.01249 -0.0778746 0
M  V30 2115 C 193.798 -3.46131 0.198632 0
M  V30 2116 C 192.859 -4.10464 1.25769 0
M  V30 2117 C 192.092 -5.28821 0.72002 0
M  V30 2118 O 192.315 -5.6859 -0.453993 0
M  V30 2119 O 191.249 -5.83437 1.47935 0
M  V30 2120 H 195.075 -2.53312 1.67532 0
M  V30 2121 H 192.66 -1.20867 0.878157 0
M  V30 2122 H 194.542 -4.2125 -0.112401 0
M  V30 2123 H 193.217 -3.16338 -0.686419 0
M  V30 2124 H 192.124 -3.3713 1.62156 0
M  V30 2125 H 193.457 -4.44408 2.11571 0
M  V30 2126 N 195.109 -0.891671 -1.2995 0
M  V30 2127 C 196.357 -0.512486 -1.95494 0
M  V30 2128 C 196.678 0.942776 -1.70695 0
M  V30 2129 O 195.948 1.66374 -1.03424 0
M  V30 2130 H 194.528 -0.186533 -0.723336 0
M  V30 2131 H 197.19 -1.13621 -1.58355 0
M  V30 2132 H 196.286 -0.688342 -3.04415 0
M  V30 2133 N 196.587 1.43421 -0.653314 0
M  V30 2134 C 197.497 2.34568 0.0388565 0
M  V30 2135 C 198.513 1.53888 0.81207 0
M  V30 2136 O 199.689 1.86539 0.759294 0
M  V30 2137 C 196.754 3.32167 0.993269 0
M  V30 2138 C 195.815 4.28751 0.216977 0
M  V30 2139 C 195.048 5.21688 1.12593 0
M  V30 2140 O 195.271 5.19052 2.36519 0
M  V30 2141 O 194.205 5.98919 0.598284 0
M  V30 2142 H 198.031 2.95251 -0.711386 0
M  V30 2143 H 195.616 1.43564 -0.413502 0
M  V30 2144 H 197.498 3.92183 1.54176 0
M  V30 2145 H 196.173 2.73987 1.72374 0
M  V30 2146 H 195.08 3.72215 -0.375101 0
M  V30 2147 H 196.413 4.89913 -0.473924 0
M  V30 2148 N 198.065 0.39524 1.52563 0
M  V30 2149 C 198.975 -0.444232 2.30356 0
M  V30 2150 C 199.991 -1.06615 1.37511 0
M  V30 2151 O 201.167 -1.07067 1.70583 0
M  V30 2152 C 198.232 -1.55315 3.09964 0
M  V30 2153 C 197.293 -0.955734 4.18526 0
M  V30 2154 C 196.526 -2.01181 4.9433 0
M  V30 2155 O 196.749 -3.22781 4.70285 0
M  V30 2156 O 195.683 -1.62579 5.79527 0
M  V30 2157 H 199.509 0.189667 3.03107 0
M  V30 2158 H 197.094 0.1588 1.48554 0
M  V30 2159 H 198.976 -2.19724 3.59582 0
M  V30 2160 H 197.651 -2.17191 2.4002 0
M  V30 2161 H 196.558 -0.274743 3.7309 0
M  V30 2162 H 197.891 -0.381109 4.90722 0
M  V30 2163 N 199.544 -1.57102 0.125237 0
M  V30 2164 C 200.474 -2.18659 -0.819174 0
M  V30 2165 C 201.455 -1.12843 -1.27281 0
M  V30 2166 O 202.64 -1.41104 -1.33429 0
M  V30 2167 C 199.77 -2.79096 -2.06695 0
M  V30 2168 C 198.724 -3.90548 -1.75088 0
M  V30 2169 C 198.05 -4.37821 -3.06948 0
M  V30 2170 C 199.35 -5.12356 -1.01435 0
M  V30 2171 H 201.044 -2.9783 -0.306202 0
M  V30 2172 H 198.59 -1.4326 -0.145839 0
M  V30 2173 H 200.543 -3.2082 -2.73226 0
M  V30 2174 H 199.267 -1.97223 -2.60328 0
M  V30 2175 H 197.926 -3.49409 -1.10944 0
M  V30 2176 H 197.574 -3.52799 -3.58527 0
M  V30 2177 H 197.274 -5.12982 -2.86571 0
M  V30 2178 H 198.798 -4.822 -3.74587 0
M  V30 2179 H 200.212 -5.5106 -1.58132 0
M  V30 2180 H 198.609 -5.9314 -0.911319 0
M  V30 2181 H 199.679 -4.849 -0.00218681 0
M  V30 2182 N 201.022 0.148545 -1.56898 0
M  V30 2183 C 201.932 1.20293 -2.01412 0
M  V30 2184 C 202.948 1.47107 -0.929273 0
M  V30 2185 O 204.124 1.58807 -1.23863 0
M  V30 2186 C 201.189 2.51682 -2.38447 0
M  V30 2187 C 200.25 2.32529 -3.60872 0
M  V30 2188 C 199.483 3.57653 -3.96132 0
M  V30 2189 O 199.706 4.63771 -3.32073 0
M  V30 2190 O 198.64 3.50408 -4.89385 0
M  V30 2191 H 202.466 0.855025 -2.91416 0
M  V30 2192 H 200.051 0.357151 -1.45068 0
M  V30 2193 H 201.933 3.29147 -2.63135 0
M  V30 2194 H 200.608 2.86006 -1.51599 0
M  V30 2195 H 199.515 1.53019 -3.41373 0
M  V30 2196 H 200.848 2.03121 -4.48333 0
M  V30 2197 N 202.5 1.5196 0.417844 0
M  V30 2198 C 203.73 1.69181 1.18581 0
M  V30 2199 C 204.138 0.397104 1.84986 0
M  V30 2200 O 203.481 -0.636011 1.72339 0
M  V30 2201 C 203.543 2.76497 2.29759 0
M  V30 2202 C 203.207 4.18514 1.83563 0
M  V30 2203 C 204.204 5.02648 1.32821 0
M  V30 2204 C 201.889 4.64708 1.90661 0
M  V30 2205 C 203.883 6.31044 0.897894 0
M  V30 2206 C 201.57 5.93096 1.47241 0
M  V30 2207 C 202.568 6.76093 0.968891 0
M  V30 2208 O 202.256 8.02078 0.540924 0
M  V30 2209 H 201.988 0.570457 0.362705 0
M  V30 2210 H 204.542 1.99249 0.498885 0
M  V30 2211 H 202.772 2.41786 3.01789 0
M  V30 2212 H 204.461 2.82403 2.91553 0
M  V30 2213 H 205.227 4.68154 1.26716 0
M  V30 2214 H 201.106 4.00216 2.28797 0
M  V30 2215 H 204.65 6.95776 0.504192 0
M  V30 2216 H 200.547 6.271 1.53022 0
M  V30 2217 H 201.315 8.15794 0.66502 0
M  V30 2218 N 203.978 -0.674533 1.42435 0
M  V30 2219 C 205.203 -1.46784 1.46524 0
M  V30 2220 C 205.628 -1.87938 0.078066 0
M  V30 2221 O 204.986 -1.56014 -0.92354 0
M  V30 2222 C 205.034 -2.69307 2.39805 0
M  V30 2223 O 204.138 -3.67587 1.86959 0
M  V30 2224 H 203.479 -0.440959 0.496439 0
M  V30 2225 H 206.009 -0.827326 1.87127 0
M  V30 2226 H 206.019 -3.17374 2.56393 0
M  V30 2227 H 204.694 -2.38692 3.40586 0
M  V30 2228 H 203.271 -3.2662 1.79927 0
M  V30 2229 N 205.456 -1.28612 -0.910864 0
M  V30 2230 C 206.388 -1.08589 -2.01844 0
M  V30 2231 C 207.401 -0.0367419 -1.62759 0
M  V30 2232 O 208.59 -0.280101 -1.76289 0
M  V30 2233 C 205.69 -0.628626 -3.33019 0
M  V30 2234 C 204.863 -1.75382 -4.00699 0
M  V30 2235 C 203.922 -1.28945 -5.10156 0
M  V30 2236 O 202.948 -1.9922 -5.33198 0
M  V30 2237 N 204.15 -0.154224 -5.80295 0
M  V30 2238 H 206.915 -2.03973 -2.19579 0
M  V30 2239 H 204.476 -1.20403 -1.08234 0
M  V30 2240 H 206.468 -0.301508 -4.03575 0
M  V30 2241 H 205.038 0.232451 -3.11735 0
M  V30 2242 H 204.258 -2.25039 -3.23653 0
M  V30 2243 H 205.546 -2.50854 -4.42662 0
M  V30 2244 H 204.944 0.43194 -5.64049 0
M  V30 2245 H 203.501 0.113599 -6.51701 0
M  V30 2246 N 206.934 1.1197 -1.10907 0
M  V30 2247 C 207.844 2.21433 -0.774896 0
M  V30 2248 C 208.86 1.72478 0.229657 0
M  V30 2249 O 210.036 2.01288 0.0672008 0
M  V30 2250 C 207.101 3.4602 -0.216986 0
M  V30 2251 C 206.162 4.09791 -1.27944 0
M  V30 2252 C 205.395 5.28431 -0.748055 0
M  V30 2253 O 205.618 5.68823 0.423833 0
M  V30 2254 O 204.552 5.82644 -1.51027 0
M  V30 2255 H 208.378 2.5242 -1.68873 0
M  V30 2256 H 205.963 1.20399 -0.884555 0
M  V30 2257 H 207.845 4.21304 0.090059 0
M  V30 2258 H 206.52 3.16698 0.669633 0
M  V30 2259 H 205.427 3.36265 -1.63941 0
M  V30 2260 H 206.76 4.4328 -2.13925 0
M  V30 2261 N 208.412 0.89855 1.29475 0
M  V30 2262 C 209.661 0.519863 1.94885 0
M  V30 2263 C 209.974 -0.9383 1.71625 0
M  V30 2264 O 211.18 -1.42445 2.31131 0
M  V30 2265 C 209.636 0.878836 3.49005 0
M  V30 2266 C 209.244 2.35569 3.81066 0
M  V30 2267 C 210.988 0.570004 4.20656 0
M  V30 2268 C 208.895 2.65558 5.28425 0
M  V30 2269 H 207.825 0.190692 0.729488 0
M  V30 2270 H 210.476 1.09539 1.47219 0
M  V30 2271 H 208.858 0.232253 3.95318 0
M  V30 2272 H 210.032 3.04773 3.45616 0
M  V30 2273 H 208.347 2.63343 3.22552 0
M  V30 2274 H 210.944 0.770925 5.29113 0
M  V30 2275 H 211.287 -0.491404 4.1339 0
M  V30 2276 H 211.82 1.17438 3.8007 0
M  V30 2277 H 208.559 3.70493 5.40754 0
M  V30 2278 H 208.079 2.00977 5.65127 0
M  V30 2279 H 209.758 2.51765 5.96006 0
M  V30 2280 N 209.89 -1.43072 0.660911 0
M  V30 2281 C 211.118 -2.06067 0.185422 0
M  V30 2282 C 211.533 -1.49582 -1.15198 0
M  V30 2283 O 210.89 -0.630134 -1.71276 0
M  V30 2284 C 210.941 -3.61371 0.0966523 0
M  V30 2285 O 210.662 -4.15758 1.38119 0
M  V30 2286 C 212.163 -4.41455 -0.403996 0
M  V30 2287 H 209.383 -0.664459 0.0934604 0
M  V30 2288 H 211.927 -1.83447 0.90373 0
M  V30 2289 H 210.082 -3.8315 -0.572259 0
M  V30 2290 H 210.496 -5.09499 1.24542 0
M  V30 2291 H 211.97 -5.50437 -0.415045 0
M  V30 2292 H 212.447 -4.15036 -1.43674 0
M  V30 2293 H 213.053 -4.24663 0.232691 0
M  V30 2294 N 211.368 -0.403325 -1.52352 0
M  V30 2295 C 212.614 0.167015 -2.02713 0
M  V30 2296 C 212.969 1.43296 -1.28391 0
M  V30 2297 O 212.262 1.87796 -0.379885 0
M  V30 2298 C 212.456 0.474665 -3.54234 0
M  V30 2299 C 212.285 -0.759909 -4.43233 0
M  V30 2300 C 211.055 -1.28338 -4.88731 0
M  V30 2301 C 213.253 -1.63634 -4.87574 0
M  V30 2302 N 211.235 -2.47404 -5.6184 0
M  V30 2303 C 212.606 -2.67329 -5.59406 0
M  V30 2304 C 214.661 -1.65478 -4.69597 0
M  V30 2305 C 213.364 -3.72773 -6.15169 0
M  V30 2306 C 215.39 -2.69837 -5.26253 0
M  V30 2307 C 214.752 -3.72253 -5.98002 0
M  V30 2308 H 210.851 0.0228343 -0.781667 0
M  V30 2309 H 213.435 -0.556368 -1.86581 0
M  V30 2310 H 211.606 1.16709 -3.7045 0
M  V30 2311 H 213.338 1.03338 -3.91284 0
M  V30 2312 H 210.093 -0.842273 -4.6605 0
M  V30 2313 H 210.517 -3.07688 -6.0304 0
M  V30 2314 H 215.159 -0.876389 -4.13617 0
M  V30 2315 H 212.877 -4.51471 -6.70223 0
M  V30 2316 H 216.463 -2.72164 -5.14216 0
M  V30 2317 H 215.343 -4.51679 -6.41058 0
M  V30 2318 N 212.846 1.57033 -0.133567 0
M  V30 2319 C 214.123 1.87256 0.56522 0
M  V30 2320 C 214.503 1.03726 1.83859 0
M  V30 2321 O 213.851 0.120247 2.28183 0
M  V30 2322 C 214.061 3.3865 0.843636 0
M  V30 2323 C 215.409 4.07574 1.19032 0
M  V30 2324 O 216.433 3.43752 0.933429 0
M  V30 2325 O 215.292 5.20259 1.67312 0
M  V30 2326 H 212.386 0.775678 0.286796 0
M  V30 2327 H 214.932 1.68855 -0.169168 0
M  V30 2328 H 213.704 3.91257 -0.0581149 0
M  V30 2329 H 213.327 3.62532 1.63268 0
M  V30 2330 N 214.325 -0.140222 1.56975 0
M  V30 2331 C 215.602 -0.880769 1.74648 0
M  V30 2332 C 215.982 -1.99036 0.703404 0
M  V30 2333 O 215.33 -2.26821 -0.27648 0
M  V30 2334 C 215.54 -1.417 3.18939 0
M  V30 2335 C 216.888 -1.87774 3.80823 0
M  V30 2336 O 217.912 -1.51427 3.2241 0
M  V30 2337 O 216.771 -2.54827 4.83452 0
M  V30 2338 H 213.865 -0.416713 0.714338 0
M  V30 2339 H 216.411 -0.125618 1.69234 0
M  V30 2340 H 215.183 -0.619902 3.86359 0
M  V30 2341 H 214.806 -2.23546 3.28805 0
M  V30 2342 N 215.803 -1.52179 -0.40978 0
M  V30 2343 C 216.751 -1.76086 -1.51975 0
M  V30 2344 C 217.745 -0.627964 -1.57331 0
M  V30 2345 O 218.951 -0.809993 -1.60745 0
M  V30 2346 H 215.326 -0.556829 -0.505416 0
M  V30 2347 H 217.297 -2.69077 -1.28996 0
M  V30 2348 C 216.046 -1.92799 -2.8935 0
M  V30 2349 H 215.369 -2.79392 -2.85972 0
M  V30 2350 H 216.809 -2.13527 -3.66309 0
M  V30 2351 C 215.268 -0.694923 -3.29655 0
M  V30 2352 O 215.798 0.13751 -4.01465 0
M  V30 2353 N 214.004 -0.53101 -2.85707 0
M  V30 2354 H 213.551 -1.20952 -2.27439 0
M  V30 2355 H 213.509 0.292718 -3.13034 0
M  V30 2356 N 217.281 0.66697 -1.42791 0
M  V30 2357 C 218.509 1.45505 -1.47091 0
M  V30 2358 C 218.924 1.8861 -0.0845873 0
M  V30 2359 O 218.281 1.58632 0.90234 0
M  V30 2360 C 218.332 2.69906 -2.40485 0
M  V30 2361 O 218.053 2.28608 -3.73725 0
M  V30 2362 C 219.554 3.63396 -2.53886 0
M  V30 2363 H 216.774 0.447459 -0.500022 0
M  V30 2364 H 219.318 0.818866 -1.8739 0
M  V30 2365 H 217.473 3.29696 -2.03419 0
M  V30 2366 H 217.887 3.08997 -4.23817 0
M  V30 2367 H 219.361 4.47387 -3.2334 0
M  V30 2368 H 219.838 4.09824 -1.57927 0
M  V30 2369 H 220.444 3.09495 -2.91706 0
M  V30 2370 N 218.759 1.29093 0.90403 0
M  V30 2371 C 219.669 1.15727 2.0407 0
M  V30 2372 C 220.685 0.0815308 1.73809 0
M  V30 2373 O 221.861 0.292749 1.99261 0
M  V30 2374 C 218.926 0.830424 3.36608 0
M  V30 2375 C 217.987 1.98955 3.80415 0
M  V30 2376 C 217.22 1.6782 5.06628 0
M  V30 2377 O 217.443 0.597105 5.67266 0
M  V30 2378 O 216.377 2.52486 5.46383 0
M  V30 2379 H 220.203 2.11171 2.18267 0
M  V30 2380 H 217.788 1.08504 1.027 0
M  V30 2381 H 219.67 0.662521 4.16159 0
M  V30 2382 H 218.345 -0.0942678 3.23563 0
M  V30 2383 H 217.252 2.21267 3.01648 0
M  V30 2384 H 218.585 2.89529 3.98037 0
M  V30 2385 N 220.237 -1.11381 1.11499 0
M  V30 2386 C 221.484 -1.83132 0.864231 0
M  V30 2387 C 221.812 -1.84683 -0.610114 0
M  V30 2388 O 221.067 -1.29589 -1.46646 0
M  V30 2389 C 221.366 -3.30026 1.37177 0
M  V30 2390 C 221.032 -3.48634 2.85946 0
M  V30 2391 C 219.694 -3.53421 3.26569 0
M  V30 2392 C 222.046 -3.54837 3.81759 0
M  V30 2393 C 219.374 -3.61967 4.61733 0
M  V30 2394 C 221.726 -3.64915 5.1674 0
M  V30 2395 C 220.39 -3.67962 5.5692 0
M  V30 2396 H 219.66 -0.670127 0.316245 0
M  V30 2397 H 222.307 -1.31354 1.3935 0
M  V30 2398 H 220.612 -3.84304 0.762753 0
M  V30 2399 H 222.309 -3.84034 1.15408 0
M  V30 2400 H 218.899 -3.45579 2.53521 0
M  V30 2401 H 223.083 -3.50399 3.51474 0
M  V30 2402 H 218.339 -3.62603 4.92269 0
M  V30 2403 H 222.513 -3.68658 5.90816 0
M  V30 2404 H 220.14 -3.74336 6.61647 0
M  V30 2405 N 221.715 -0.905404 -1.28997 0
M  V30 2406 C 222.961 -0.535039 -1.95615 0
M  V30 2407 C 223.294 0.917404 -1.71165 0
M  V30 2408 O 222.569 1.65123 -1.02785 0
M  V30 2409 C 222.852 -0.834918 -3.50287 0
M  V30 2410 C 222.705 -2.33948 -3.84172 0
M  V30 2411 C 224.024 -0.325318 -4.38896 0
M  V30 2412 H 221.143 -0.195861 -0.710498 0
M  V30 2413 H 223.785 -1.13313 -1.52513 0
M  V30 2414 H 221.935 -0.325904 -3.87131 0
M  V30 2415 H 223.607 -2.91847 -3.57243 0
M  V30 2416 H 221.85 -2.79789 -3.31513 0
M  V30 2417 H 222.521 -2.49987 -4.92149 0
M  V30 2418 H 224.997 -0.761256 -4.09077 0
M  V30 2419 H 223.873 -0.564295 -5.45992 0
M  V30 2420 H 224.134 0.774144 -4.35269 0
M  V30 2421 N 223.193 1.4272 -0.668489 0
M  V30 2422 C 224.441 2.01226 -0.187769 0
M  V30 2423 C 224.762 1.53092 1.2078 0
M  V30 2424 O 224.032 0.74993 1.80977 0
M  V30 2425 H 222.612 0.744041 -0.0664272 0
M  V30 2426 H 225.274 1.74723 -0.863583 0
M  V30 2427 H 224.37 3.11556 -0.184166 0
M  V30 2428 N 224.671 0.411399 1.52136 0
M  V30 2429 C 225.601 -0.404015 2.29978 0
M  V30 2430 C 226.582 -1.04412 1.34284 0
M  V30 2431 O 227.767 -1.0527 1.63192 0
M  V30 2432 C 224.897 -1.5197 3.12286 0
M  V30 2433 C 223.851 -1.00448 4.16046 0
M  V30 2434 C 223.177 -2.21393 4.86712 0
M  V30 2435 C 224.477 -0.0569336 5.22269 0
M  V30 2436 H 226.171 0.245529 2.98392 0
M  V30 2437 H 223.717 0.119525 1.43503 0
M  V30 2438 H 225.67 -2.09715 3.6551 0
M  V30 2439 H 224.394 -2.19716 2.41646 0
M  V30 2440 H 223.053 -0.449421 3.63835 0
M  V30 2441 H 222.701 -2.87699 4.12599 0
M  V30 2442 H 222.401 -1.87571 5.56858 0
M  V30 2443 H 223.925 -2.7974 5.4275 0
M  V30 2444 H 225.339 -0.54325 5.7072 0
M  V30 2445 H 223.736 0.192594 5.99791 0
M  V30 2446 H 224.806 0.887663 4.76706 0
M  V30 2447 N 226.149 -1.5696 0.141893 0
M  V30 2448 C 227.081 -2.13619 -0.830627 0
M  V30 2449 C 228.094 -1.08439 -1.21428 0
M  V30 2450 O 229.283 -1.35734 -1.15925 0
M  V30 2451 C 226.383 -2.63978 -2.12529 0
M  V30 2452 C 225.556 -3.93504 -1.9098 0
M  V30 2453 C 224.615 -4.29225 -3.04388 0
M  V30 2454 O 223.641 -4.97641 -2.76302 0
M  V30 2455 N 224.843 -3.88393 -4.31429 0
M  V30 2456 H 227.608 -2.97691 -0.34641 0
M  V30 2457 H 225.169 -1.61846 -0.0418375 0
M  V30 2458 H 227.161 -2.84891 -2.87436 0
M  V30 2459 H 225.731 -1.84659 -2.52229 0
M  V30 2460 H 224.951 -3.81269 -1.00139 0
M  V30 2461 H 226.239 -4.78154 -1.73914 0
M  V30 2462 H 225.637 -3.33257 -4.57117 0
M  V30 2463 H 224.194 -4.14368 -5.03133 0
M  V30 2464 N 227.627 0.131896 -1.57047 0
M  V30 2465 C 228.876 0.84044 -1.83356 0
M  V30 2466 C 229.189 1.81646 -0.725535 0
M  V30 2467 O 230.395 2.57025 -0.874659 0
M  V30 2468 C 228.851 1.54528 -3.25037 0
M  V30 2469 C 228.459 0.610902 -4.43815 0
M  V30 2470 C 230.203 2.23972 -3.60606 0
M  V30 2471 C 228.11 1.31823 -5.76521 0
M  V30 2472 H 227.04 0.317599 -0.683847 0
M  V30 2473 H 229.691 0.0931561 -1.83263 0
M  V30 2474 H 228.073 2.33873 -3.19561 0
M  V30 2475 H 229.247 -0.148407 -4.60561 0
M  V30 2476 H 227.562 0.0241016 -4.16393 0
M  V30 2477 H 230.159 2.77558 -4.57018 0
M  V30 2478 H 230.502 3.01173 -2.87403 0
M  V30 2479 H 231.035 1.51529 -3.6781 0
M  V30 2480 H 227.774 0.587771 -6.52859 0
M  V30 2481 H 227.294 2.04987 -5.63685 0
M  V30 2482 H 228.973 1.855 -6.19838 0
M  V30 2483 N 229.106 1.52395 0.401703 0
M  V30 2484 C 230.522 1.41363 0.740864 0
M  V30 2485 C 230.722 0.523982 1.94568 0
M  V30 2486 O 229.778 -0.00741204 2.52499 0
M  V30 2487 C 231.091 2.84011 0.987847 0
M  V30 2488 C 232.639 2.93404 1.09011 0
M  V30 2489 C 233.114 4.37036 1.3698 0
M  V30 2490 N 234.605 4.40304 1.43829 0
M  V30 2491 C 235.34 5.48508 1.67112 0
M  V30 2492 N 234.836 6.66819 1.87949 0
M  V30 2493 N 236.629 5.36034 1.69187 0
M  V30 2494 H 228.78 2.08765 -0.391262 0
M  V30 2495 H 231.043 0.941265 -0.112798 0
M  V30 2496 H 230.749 3.51265 0.174835 0
M  V30 2497 H 230.623 3.25502 1.906 0
M  V30 2498 H 233.01 2.26325 1.8937 0
M  V30 2499 H 233.091 2.55359 0.15015 0
M  V30 2500 H 232.735 5.04676 0.571353 0
M  V30 2501 H 232.665 4.72623 2.3224 0
M  V30 2502 H 235.156 3.55024 1.29486 0
M  V30 2503 H 235.469 7.45063 2.05185 0
M  V30 2504 H 233.814 6.6987 1.85199 0
M  V30 2505 H 237.005 4.42579 1.52451 0
M  V30 2506 H 237.178 6.20434 1.86993 0
M  V30 2507 N 230.584 -0.659388 1.43143 0
M  V30 2508 C 231.83 -1.42145 1.44647 0
M  V30 2509 C 232.163 -1.9408 0.0681907 0
M  V30 2510 O 231.438 -1.71899 -0.910007 0
M  V30 2511 C 231.721 -2.60735 2.48373 0
M  V30 2512 C 231.574 -2.14332 3.95451 0
M  V30 2513 C 232.893 -3.62951 2.48906 0
M  V30 2514 H 230.012 -0.51552 0.526696 0
M  V30 2515 H 232.654 -0.748069 1.74654 0
M  V30 2516 H 230.804 -3.18184 2.22916 0
M  V30 2517 H 232.476 -1.61932 4.31944 0
M  V30 2518 H 230.719 -1.4576 4.08578 0
M  V30 2519 H 231.39 -2.99583 4.63631 0
M  V30 2520 H 233.866 -3.1525 2.71582 0
M  V30 2521 H 232.742 -4.43487 3.23435 0
M  V30 2522 H 233.003 -4.15126 1.52061 0
M  V30 2523 N 232.062 -1.29571 -0.897171 0
M  V30 2524 C 233.287 -1.20705 -1.68656 0
M  V30 2525 C 233.712 0.228582 -1.86706 0
M  V30 2526 O 233.07 1.16494 -1.3892 0
M  V30 2527 C 233.118 -1.9282 -3.04717 0
M  V30 2528 O 232.222 -1.24697 -3.93096 0
M  V30 2529 H 231.563 -0.418126 -0.515816 0
M  V30 2530 H 234.093 -1.71183 -1.12061 0
M  V30 2531 H 234.103 -2.01372 -3.54843 0
M  V30 2532 H 232.778 -2.97239 -2.90899 0
M  V30 2533 H 231.355 -1.2442 -3.51531 0
M  V30 2534 N 233.54 1.10788 -1.12088 0
M  V30 2535 C 234.503 2.15207 -0.788577 0
M  V30 2536 C 235.503 1.59609 0.195317 0
M  V30 2537 O 236.693 1.74174 -0.0300193 0
M  V30 2538 C 233.825 3.4047 -0.171174 0
M  V30 2539 H 235.018 2.46116 -1.71368 0
M  V30 2540 H 232.571 1.26089 -0.923652 0
M  V30 2541 H 233.306 3.15176 0.763832 0
M  V30 2542 H 233.091 3.82109 -0.879514 0
M  V30 2543 H 234.581 4.17576 0.04496 0
M  V30 2544 N 235.018 0.912232 1.28515 0
M  V30 2545 C 235.965 0.397954 2.27343 0
M  V30 2546 C 236.935 -0.526766 1.57526 0
M  V30 2547 O 238.12 -0.449292 1.85435 0
M  V30 2548 C 235.26 -0.357263 3.43246 0
M  V30 2549 C 234.373 0.599788 4.27816 0
M  V30 2550 C 233.508 -0.173725 5.30916 0
M  V30 2551 C 232.547 0.777039 6.07148 0
M  V30 2552 N 231.684 0.0371398 7.0209 0
M  V30 2553 H 236.524 1.24577 2.70711 0
M  V30 2554 H 234.061 0.625612 1.33133 0
M  V30 2555 H 236.019 -0.8113 4.09236 0
M  V30 2556 H 234.649 -1.16943 3.00872 0
M  V30 2557 H 233.701 1.17235 3.61884 0
M  V30 2558 H 235.013 1.32704 4.80823 0
M  V30 2559 H 234.167 -0.688394 6.02782 0
M  V30 2560 H 232.906 -0.934041 4.78672 0
M  V30 2561 H 231.911 1.3031 5.34134 0
M  V30 2562 H 233.136 1.53689 6.61481 0
M  V30 2563 H 231.082 -0.705213 6.52198 0
M  V30 2564 H 230.999 0.704249 7.52713 0
M  V30 2565 H 232.267 -0.457383 7.78157 0
M  V30 2566 N 236.496 -1.42363 0.676048 0
M  V30 2567 C 237.428 -2.29164 -0.0404605 0
M  V30 2568 C 238.441 -1.43747 -0.764245 0
M  V30 2569 O 239.63 -1.67453 -0.618195 0
M  V30 2570 C 236.73 -3.21196 -1.08103 0
M  V30 2571 C 235.903 -4.35273 -0.430812 0
M  V30 2572 C 234.962 -5.08017 -1.37133 0
M  V30 2573 O 233.988 -5.62494 -0.87116 0
M  V30 2574 N 235.19 -5.13647 -2.70456 0
M  V30 2575 H 237.955 -2.91298 0.704667 0
M  V30 2576 H 235.516 -1.53303 0.520559 0
M  V30 2577 H 237.508 -3.66728 -1.71152 0
M  V30 2578 H 236.078 -2.60505 -1.72788 0
M  V30 2579 H 235.298 -3.92372 0.379209 0
M  V30 2580 H 236.586 -5.08795 0.0221132 0
M  V30 2581 H 235.984 -4.708 -3.1363 0
M  V30 2582 H 234.541 -5.62821 -3.28749 0
M  V30 2583 N 237.974 -0.419461 -1.51915 0
M  V30 2584 C 239.214 0.152336 -2.03832 0
M  V30 2585 C 239.578 1.41501 -1.29775 0
M  V30 2586 O 240.779 2.06591 -1.7197 0
M  V30 2587 C 239.05 0.383812 -3.55333 0
M  V30 2588 S 240.609 0.921577 -4.29013 0
M  V30 2589 H 237.427 0.0402193 -0.709862 0
M  V30 2590 H 240.029 -0.574758 -1.8686 0
M  V30 2591 H 238.733 -0.541794 -4.06808 0
M  V30 2592 H 238.264 1.13849 -3.76566 0
M  V30 2593 H 240.279 2.20108 -4.4471 0
M  V30 2594 N 239.452 1.56882 -0.150215 0
M  V30 2595 C 240.402 2.13501 0.800071 0
M  V30 2596 C 241.386 1.06368 1.20726 0
M  V30 2597 O 242.578 1.32538 1.17314 0
M  V30 2598 C 239.707 2.76271 2.03787 0
M  V30 2599 C 238.793 3.90533 1.65364 0
M  V30 2600 N 239.184 4.96259 0.977794 0
M  V30 2601 C 237.482 4.013 1.94613 0
M  V30 2602 C 238.183 5.76286 0.791794 0
M  V30 2603 N 237.159 5.27163 1.32666 0
M  V30 2604 H 240.961 2.92615 0.274517 0
M  V30 2605 H 238.475 1.62319 0.0512144 0
M  V30 2606 H 240.472 3.15197 2.72867 0
M  V30 2607 H 239.132 1.98631 2.56857 0
M  V30 2608 H 240.143 5.13953 0.638193 0
M  V30 2609 H 236.82 3.3474 2.4951 0
M  V30 2610 H 238.21 6.71401 0.258894 0
M  V30 2611 N 240.93 -0.123565 1.57115 0
M  V30 2612 C 242.179 -0.830704 1.83799 0
M  V30 2613 C 242.492 -1.81259 0.735158 0
M  V30 2614 O 243.698 -2.56558 0.888278 0
M  V30 2615 C 242.154 -1.52802 3.25852 0
M  V30 2616 C 241.762 -0.587356 4.44133 0
M  V30 2617 C 243.506 -2.22056 3.61789 0
M  V30 2618 C 241.413 -1.28764 5.77212 0
M  V30 2619 H 240.343 -0.313967 0.685522 0
M  V30 2620 H 242.994 -0.0834359 1.8331 0
M  V30 2621 H 241.376 -2.32175 3.20797 0
M  V30 2622 H 242.55 0.172829 4.60476 0
M  V30 2623 H 240.865 -0.00201892 4.164 0
M  V30 2624 H 243.462 -2.75131 4.58483 0
M  V30 2625 H 243.805 -2.99644 2.88997 0
M  V30 2626 H 244.338 -1.49576 3.68608 0
M  V30 2627 H 241.077 -0.55314 6.53162 0
M  V30 2628 H 240.597 -2.01995 5.64764 0
M  V30 2629 H 242.276 -1.8221 6.20813 0
M  V30 2630 N 242.408 -1.52605 -0.393616 0
M  V30 2631 C 243.824 -1.41753 -0.733357 0
M  V30 2632 C 244.024 -0.534293 -1.94287 0
M  V30 2633 O 243.08 -0.0059787 -2.52499 0
M  V30 2634 C 244.393 -2.84531 -0.972772 0
M  V30 2635 C 245.941 -2.93978 -1.07453 0
M  V30 2636 C 246.416 -4.37756 -1.3466 0
M  V30 2637 N 247.907 -4.4106 -1.41492 0
M  V30 2638 C 248.642 -5.49387 -1.642 0
M  V30 2639 N 248.138 -6.67806 -1.8441 0
M  V30 2640 N 249.931 -5.36923 -1.66342 0
M  V30 2641 H 242.082 -2.08555 0.402328 0
M  V30 2642 H 244.345 -0.940654 0.117789 0
M  V30 2643 H 244.051 -3.51353 -0.156204 0
M  V30 2644 H 243.925 -3.26508 -1.88871 0
M  V30 2645 H 246.312 -2.27326 -1.88167 0
M  V30 2646 H 246.393 -2.55435 -0.136605 0
M  V30 2647 H 246.037 -5.04972 -0.544581 0
M  V30 2648 H 245.967 -4.73848 -2.2973 0
M  V30 2649 H 248.458 -3.55705 -1.27601 0
M  V30 2650 H 248.771 -7.46141 -2.01231 0
M  V30 2651 H 247.116 -6.70843 -1.81644 0
M  V30 2652 H 250.307 -4.43381 -1.50102 0
M  V30 2653 H 250.48 -6.21416 -1.837 0
M  V30 2654 N 243.887 0.651787 -1.4349 0
M  V30 2655 C 245.135 1.40888 -1.44897 0
M  V30 2656 C 245.456 1.94856 -0.0749086 0
M  V30 2657 O 244.726 1.74518 0.889956 0
M  V30 2658 H 243.306 0.522887 -0.533478 0
M  V30 2659 H 245.968 0.768609 -1.79104 0
M  V30 2660 H 245.064 2.25052 -2.16236 0
M  V30 2661 N 245.365 1.30045 0.890287 0
M  V30 2662 C 246.781 1.08261 1.17268 0
M  V30 2663 C 246.981 -0.160063 2.00863 0
M  V30 2664 O 246.037 -0.855181 2.37577 0
M  V30 2665 C 247.35 2.34323 1.8845 0
M  V30 2666 C 248.898 2.39735 2.01237 0
M  V30 2667 C 249.373 3.65625 2.7583 0
M  V30 2668 N 250.864 3.66402 2.83379 0
M  V30 2669 C 251.599 4.60498 3.41657 0
M  V30 2670 N 251.095 5.64933 4.01026 0
M  V30 2671 N 252.888 4.48051 3.39421 0
M  V30 2672 H 245.039 2.09777 0.332762 0
M  V30 2673 H 247.302 0.92446 0.209948 0
M  V30 2674 H 247.008 3.2498 1.34465 0
M  V30 2675 H 246.882 2.4256 2.88867 0
M  V30 2676 H 249.269 1.4956 2.54393 0
M  V30 2677 H 249.35 2.35476 0.999232 0
M  V30 2678 H 248.994 4.56156 2.23347 0
M  V30 2679 H 248.924 3.67144 3.77509 0
M  V30 2680 H 251.415 2.90896 2.41222 0
M  V30 2681 H 251.728 6.32841 4.43545 0
M  V30 2682 H 250.073 5.68732 3.99461 0
M  V30 2683 H 253.264 3.65649 2.92264 0
M  V30 2684 H 253.437 5.21565 3.84544 0
M  V30 2685 N 246.843 -1.10192 1.12674 0
M  V30 2686 C 248.092 -1.81573 0.8783 0
M  V30 2687 C 248.405 -1.86249 -0.597557 0
M  V30 2688 O 249.611 -2.5386 -0.962681 0
M  V30 2689 C 248.067 -3.26149 1.52167 0
M  V30 2690 C 247.675 -3.29763 3.03249 0
M  V30 2691 C 249.419 -4.0234 1.3536 0
M  V30 2692 C 247.326 -4.68815 3.60508 0
M  V30 2693 H 246.256 -0.680394 0.324931 0
M  V30 2694 H 248.907 -1.23902 1.35353 0
M  V30 2695 H 247.289 -3.83832 0.974104 0
M  V30 2696 H 248.463 -2.8189 3.6452 0
M  V30 2697 H 246.778 -2.67059 3.19481 0
M  V30 2698 H 249.375 -5.05058 1.75559 0
M  V30 2699 H 249.718 -4.15235 0.297554 0
M  V30 2700 H 250.251 -3.51079 1.87052 0
M  V30 2701 H 246.99 -4.61121 4.65884 0
M  V30 2702 H 246.51 -5.17045 3.04014 0
M  V30 2703 H 248.189 -5.37785 3.59717 0
M  V30 2704 N 248.321 -0.919034 -1.28029 0
M  V30 2705 C 249.567 -0.565221 -1.95389 0
M  V30 2706 C 249.922 0.882325 -1.70976 0
M  V30 2707 O 249.215 1.61988 -1.02325 0
M  V30 2708 C 249.409 -0.816855 -3.4794 0
M  V30 2709 C 249.238 -2.28731 -3.87185 0
M  V30 2710 C 248.008 -2.93841 -4.11079 0
M  V30 2711 C 250.206 -3.26415 -3.97439 0
M  V30 2712 N 248.188 -4.31129 -4.37037 0
M  V30 2713 C 249.559 -4.48884 -4.27672 0
M  V30 2714 C 251.614 -3.21742 -3.79982 0
M  V30 2715 C 250.317 -5.67268 -4.42266 0
M  V30 2716 C 252.343 -4.39431 -3.95796 0
M  V30 2717 C 251.705 -5.60675 -4.26407 0
M  V30 2718 H 247.804 -0.256797 -0.738633 0
M  V30 2719 H 250.388 -1.18386 -1.54573 0
M  V30 2720 H 248.559 -0.227445 -3.87733 0
M  V30 2721 H 250.291 -0.426542 -4.02446 0
M  V30 2722 H 247.046 -2.44547 -4.05578 0
M  V30 2723 H 247.47 -5.02127 -4.5409 0
M  V30 2724 H 252.112 -2.29079 -3.55363 0
M  V30 2725 H 249.83 -6.60406 -4.65714 0
M  V30 2726 H 253.416 -4.37323 -3.83719 0
M  V30 2727 H 252.296 -6.50223 -4.38383 0
M  V30 2728 N 249.799 1.42003 -0.683588 0
M  V30 2729 C 251.039 2.03282 -0.213513 0
M  V30 2730 C 251.403 1.52924 1.16097 0
M  V30 2731 O 252.604 2.06048 1.7262 0
M  V30 2732 C 250.875 3.56483 -0.255856 0
M  V30 2733 S 252.434 4.3857 0.14193 0
M  V30 2734 H 249.252 0.705659 -0.0869853 0
M  V30 2735 H 251.854 1.73619 -0.8987 0
M  V30 2736 H 250.558 3.90631 -1.25841 0
M  V30 2737 H 250.089 3.90831 0.448875 0
M  V30 2738 H 252.104 4.76828 1.37295 0
M  V30 2739 N 251.277 0.427512 1.51691 0
M  V30 2740 C 252.526 -0.143679 2.01188 0
M  V30 2741 C 252.839 -1.44642 1.31674 0
M  V30 2742 O 254.045 -2.09997 1.72086 0
M  V30 2743 C 252.501 -0.306602 3.58592 0
M  V30 2744 C 252.109 0.985125 4.37035 0
M  V30 2745 C 253.853 -0.832091 4.16265 0
M  V30 2746 C 251.76 0.788382 5.86122 0
M  V30 2747 H 250.69 -0.0574701 0.751807 0
M  V30 2748 H 253.341 0.555772 1.74881 0
M  V30 2749 H 251.723 -1.06882 3.81303 0
M  V30 2750 H 252.897 1.75492 4.26074 0
M  V30 2751 H 251.212 1.4384 3.90767 0
M  V30 2752 H 253.809 -0.995617 5.25349 0
M  V30 2753 H 254.152 -1.81186 3.74803 0
M  V30 2754 H 254.685 -0.128444 3.97593 0
M  V30 2755 H 251.424 1.74025 6.31978 0
M  V30 2756 H 250.944 0.0582143 5.99772 0
M  V30 2757 H 252.623 0.437722 6.45518 0
M  V30 2758 N 252.755 -1.56801 0.158532 0
M  V30 2759 C 253.703 -2.18638 -0.793729 0
M  V30 2760 C 254.697 -1.14669 -1.24689 0
M  V30 2761 O 255.903 -1.32895 -1.21403 0
M  V30 2762 H 252.278 -0.700226 -0.274204 0
M  V30 2763 H 254.249 -2.97367 -0.248095 0
M  V30 2764 C 252.998 -2.83139 -2.0181 0
M  V30 2765 H 252.321 -3.62863 -1.67841 0
M  V30 2766 H 253.761 -3.29894 -2.66357 0
M  V30 2767 C 252.22 -1.82244 -2.83353 0
M  V30 2768 O 252.75 -1.3 -3.80083 0
M  V30 2769 N 250.956 -1.51288 -2.48114 0
M  V30 2770 H 250.503 -1.93964 -1.69516 0
M  V30 2771 H 250.461 -0.840296 -3.02963 0
M  V30 2772 N 254.233 0.115231 -1.57178 0
M  V30 2773 C 255.166 1.17166 -1.95825 0
M  V30 2774 C 256.144 1.39912 -0.828463 0
M  V30 2775 O 257.328 1.54004 -1.08697 0
M  V30 2776 C 254.455 2.52478 -2.25771 0
M  V30 2777 C 253.501 2.46136 -3.48309 0
M  V30 2778 S 254.334 1.89736 -5.0076 0
M  V30 2779 C 255.49 3.26713 -5.33863 0
M  V30 2780 H 255.723 0.842103 -2.85124 0
M  V30 2781 H 253.256 0.322136 -1.51002 0
M  V30 2782 H 255.214 3.30332 -2.43702 0
M  V30 2783 H 253.875 2.82609 -1.37079 0
M  V30 2784 H 253.068 3.45819 -3.66641 0
M  V30 2785 H 252.67 1.76404 -3.29784 0
M  V30 2786 H 254.962 4.22935 -5.29275 0
M  V30 2787 H 255.905 3.13205 -6.35065 0
M  V30 2788 H 256.313 3.25316 -4.61335 0
M  V30 2789 N 255.711 1.52812 0.385517 0
M  V30 2790 C 256.659 1.78482 1.49155 0
M  V30 2791 C 257.653 0.652914 1.56312 0
M  V30 2792 O 258.859 0.835464 1.59436 0
M  V30 2793 H 255.234 0.5648 0.496493 0
M  V30 2794 H 257.205 2.71095 1.24699 0
M  V30 2795 C 255.954 1.97378 2.86247 0
M  V30 2796 H 255.277 2.83907 2.81491 0
M  V30 2797 H 256.717 2.19327 3.62866 0
M  V30 2798 C 255.176 0.74728 3.28508 0
M  V30 2799 O 255.706 -0.0736232 4.01633 0
M  V30 2800 N 253.912 0.576396 2.84826 0
M  V30 2801 H 253.459 1.24555 2.25486 0
M  V30 2802 H 253.417 -0.24288 3.1346 0
M  V30 2803 N 257.189 -0.644168 1.43834 0
M  V30 2804 C 258.414 -1.43642 1.49605 0
M  V30 2805 C 258.839 -1.8773 0.117913 0
M  V30 2806 O 258.197 -1.57938 -0.890239 0
M  V30 2807 C 258.245 -2.6416 2.45463 0
M  V30 2808 O 257.349 -3.63538 1.94714 0
M  V30 2809 H 256.69 -0.430329 0.50568 0
M  V30 2810 H 259.22 -0.787448 1.8884 0
M  V30 2811 H 259.23 -3.11864 2.63068 0
M  V30 2812 H 257.905 -2.31414 3.45572 0
M  V30 2813 H 256.482 -3.2273 1.86814 0
M  V30 2814 N 258.668 -1.30515 -0.883378 0
M  V30 2815 C 260.084 -1.08881 -1.16692 0
M  V30 2816 C 260.284 0.149409 -2.00945 0
M  V30 2817 O 259.34 0.84257 -2.38027 0
M  V30 2818 C 260.653 -2.35319 -1.87204 0
M  V30 2819 C 262.201 -2.40799 -1.99962 0
M  V30 2820 C 262.676 -3.67083 -2.73887 0
M  V30 2821 N 264.167 -3.679 -2.81432 0
M  V30 2822 C 264.902 -4.62303 -3.3921 0
M  V30 2823 N 264.398 -5.67052 -3.98025 0
M  V30 2824 N 266.191 -4.49845 -3.3704 0
M  V30 2825 H 258.342 -2.09951 -0.321633 0
M  V30 2826 H 260.605 -0.92556 -0.205043 0
M  V30 2827 H 260.311 -3.25689 -1.3274 0
M  V30 2828 H 260.185 -2.44089 -2.87577 0
M  V30 2829 H 262.572 -1.50907 -2.53597 0
M  V30 2830 H 262.653 -2.36003 -0.98673 0
M  V30 2831 H 262.297 -4.57334 -2.20925 0
M  V30 2832 H 262.227 -3.69141 -3.75556 0
M  V30 2833 H 264.718 -2.92171 -2.39676 0
M  V30 2834 H 265.031 -6.35184 -4.40183 0
M  V30 2835 H 263.376 -5.70842 -3.96439 0
M  V30 2836 H 266.567 -3.67194 -2.90321 0
M  V30 2837 H 266.74 -5.23597 -3.81772 0
M  V30 2838 N 260.146 1.09593 -1.13257 0
M  V30 2839 C 261.109 2.14359 -0.811358 0
M  V30 2840 C 262.109 1.59808 0.178377 0
M  V30 2841 O 263.299 1.74132 -0.0484911 0
M  V30 2842 C 260.431 3.40269 -0.207276 0
M  V30 2843 H 261.624 2.44284 -1.73969 0
M  V30 2844 H 259.177 1.25102 -0.936973 0
M  V30 2845 H 259.912 3.15969 0.73036 0
M  V30 2846 H 259.697 3.81154 -0.919992 0
M  V30 2847 H 261.187 4.176 0.000667944 0
M  V30 2848 N 261.624 0.925811 1.2754 0
M  V30 2849 C 262.872 0.564138 1.94067 0
M  V30 2850 C 263.193 -0.897188 1.73134 0
M  V30 2851 O 262.463 -1.63573 1.07799 0
M  V30 2852 H 261.043 0.205645 0.718136 0
M  V30 2853 H 263.705 1.1778 1.55287 0
M  V30 2854 H 262.801 0.76881 3.02483 0
M  V30 2855 N 263.102 -1.41638 0.69111 0
M  V30 2856 C 264.034 -2.29194 -0.0161523 0
M  V30 2857 C 265.047 -1.44549 -0.748955 0
M  V30 2858 O 266.236 -1.681 -0.6004 0
M  V30 2859 C 263.336 -3.22325 -1.0469 0
M  V30 2860 C 262.509 -4.35706 -0.384621 0
M  V30 2861 C 261.568 -5.09443 -1.31737 0
M  V30 2862 O 260.594 -5.63386 -0.811451 0
M  V30 2863 N 261.796 -5.16487 -2.64993 0
M  V30 2864 H 264.561 -2.90534 0.735523 0
M  V30 2865 H 262.122 -1.52742 0.53679 0
M  V30 2866 H 264.114 -3.68522 -1.67252 0
M  V30 2867 H 262.684 -2.62323 -1.70015 0
M  V30 2868 H 261.904 -3.91948 0.420804 0
M  V30 2869 H 263.192 -5.08743 0.0760765 0
M  V30 2870 H 262.59 -4.741 -3.08619 0
M  V30 2871 H 261.147 -5.66276 -3.22761 0
M  V30 2872 N 264.58 -0.43555 -1.51462 0
M  V30 2873 C 265.51 0.367376 -2.30592 0
M  V30 2874 C 266.491 1.02263 -1.35928 0
M  V30 2875 O 267.676 1.02661 -1.64847 0
M  V30 2876 C 264.806 1.46983 -3.14664 0
M  V30 2877 C 263.76 0.938161 -4.17591 0
M  V30 2878 C 263.086 2.13622 -4.90173 0
M  V30 2879 C 264.386 -0.0261621 -5.22293 0
M  V30 2880 H 266.08 -0.292969 -2.97963 0
M  V30 2881 H 263.626 -0.14234 -1.43295 0
M  V30 2882 H 265.579 2.03873 -3.688 0
M  V30 2883 H 264.303 2.15843 -2.4511 0
M  V30 2884 H 262.962 0.391481 -3.64504 0
M  V30 2885 H 262.61 2.81098 -4.17124 0
M  V30 2886 H 262.31 1.78688 -5.59772 0
M  V30 2887 H 263.834 2.7107 -5.47132 0
M  V30 2888 H 265.248 0.452384 -5.71512 0
M  V30 2889 H 263.645 -0.287992 -5.99409 0
M  V30 2890 H 264.715 -0.963391 -4.75233 0
M  V30 2891 N 266.058 1.56714 -0.166846 0
M  V30 2892 C 267.304 1.97813 0.473473 0
M  V30 2893 C 267.659 1.05095 1.61161 0
M  V30 2894 O 266.952 0.0897541 1.9139 0
M  V30 2895 C 267.146 3.42889 1.00806 0
M  V30 2896 C 266.975 4.49635 -0.0767392 0
M  V30 2897 C 265.745 5.02566 -0.524894 0
M  V30 2898 C 267.943 5.06793 -0.875504 0
M  V30 2899 N 265.925 5.9294 -1.59047 0
M  V30 2900 C 267.296 5.93565 -1.79111 0
M  V30 2901 C 269.351 4.89306 -0.921083 0
M  V30 2902 C 268.054 6.64721 -2.74843 0
M  V30 2903 C 270.08 5.61179 -1.86633 0
M  V30 2904 C 269.442 6.47675 -2.76942 0
M  V30 2905 H 265.541 0.769093 0.141489 0
M  V30 2906 H 268.125 1.92874 -0.266031 0
M  V30 2907 H 266.296 3.48382 1.7171 0
M  V30 2908 H 268.028 3.71008 1.61664 0
M  V30 2909 H 264.783 4.73439 -0.123432 0
M  V30 2910 H 265.207 6.42831 -2.12361 0
M  V30 2911 H 269.849 4.22136 -0.23692 0
M  V30 2912 H 267.567 7.31107 -3.44249 0
M  V30 2913 H 271.153 5.49636 -1.90764 0
M  V30 2914 H 270.033 7.02313 -3.48893 0
M  V30 2915 N 267.536 -0.106894 1.57237 0
M  V30 2916 C 268.761 -0.830287 1.90055 0
M  V30 2917 C 269.186 -1.72064 0.75998 0
M  V30 2918 O 268.544 -1.78982 -0.288991 0
M  V30 2919 C 268.592 -1.6295 3.21683 0
M  V30 2920 O 267.696 -2.73748 3.08441 0
M  V30 2921 H 267.037 -0.228855 0.623315 0
M  V30 2922 H 269.567 -0.085658 2.04421 0
M  V30 2923 H 269.577 -2.01621 3.54701 0
M  V30 2924 H 268.252 -0.975989 4.04286 0
M  V30 2925 H 266.829 -2.38192 2.86913 0
M  V30 2926 N 269.014 -1.53014 -0.377408 0
M  V30 2927 C 270.291 -1.59215 -1.13622 0
M  V30 2928 C 270.671 -0.392407 -2.07421 0
M  V30 2929 O 270.019 0.618342 -2.19975 0
M  V30 2930 C 270.229 -2.93669 -1.88573 0
M  V30 2931 C 271.577 -3.47822 -2.43526 0
M  V30 2932 O 272.601 -2.9562 -1.98715 0
M  V30 2933 O 271.46 -4.39055 -3.25412 0
M  V30 2934 H 268.554 -0.642625 -0.52054 0
M  V30 2935 H 271.1 -1.65353 -0.381625 0
M  V30 2936 H 269.872 -3.7243 -1.20048 0
M  V30 2937 H 269.495 -2.90968 -2.70968 0
M  V30 2938 N 270.492 0.636531 -1.44174 0
M  V30 2939 C 271.425 1.76139 -1.45087 0
M  V30 2940 C 272.403 1.59611 -0.310326 0
M  V30 2941 O 273.587 1.81568 -0.506477 0
M  V30 2942 C 270.714 3.13648 -1.27839 0
M  V30 2943 C 269.76 3.48838 -2.45386 0
M  V30 2944 S 270.593 3.46927 -4.07924 0
M  V30 2945 C 271.749 4.87064 -3.9309 0
M  V30 2946 H 271.982 1.75096 -2.40268 0
M  V30 2947 H 269.515 0.810666 -1.31406 0
M  V30 2948 H 271.473 3.93002 -1.18575 0
M  V30 2949 H 270.134 3.12235 -0.341787 0
M  V30 2950 H 269.327 4.48886 -2.29167 0
M  V30 2951 H 268.929 2.76935 -2.51362 0
M  V30 2952 H 271.221 5.76153 -3.56446 0
M  V30 2953 H 272.164 5.08337 -4.92949 0
M  V30 2954 H 272.572 4.61384 -3.25246 0
M  V30 2955 N 271.97 1.30982 0.876444 0
M  V30 2956 C 273.195 1.23373 1.66715 0
M  V30 2957 C 273.62 -0.19885 1.87046 0
M  V30 2958 O 272.978 -1.1427 1.40756 0
M  V30 2959 C 273.026 1.97644 3.01611 0
M  V30 2960 O 272.13 1.30935 3.91062 0
M  V30 2961 H 271.471 0.426279 0.509099 0
M  V30 2962 H 274.001 1.72944 1.09323 0
M  V30 2963 H 274.011 2.06992 3.51594 0
M  V30 2964 H 272.686 3.01829 2.86133 0
M  V30 2965 H 271.263 1.29996 3.49507 0
M  V30 2966 N 273.449 -1.08991 1.13837 0
M  V30 2967 C 274.379 -2.17771 0.842507 0
M  V30 2968 C 275.36 -1.6892 -0.20001 0
M  V30 2969 O 276.545 -1.94113 -0.0579731 0
M  V30 2970 C 273.675 -3.4589 0.312644 0
M  V30 2971 C 272.629 -4.08099 1.28992 0
M  V30 2972 C 271.955 -5.31098 0.619623 0
M  V30 2973 C 273.255 -4.50077 2.65005 0
M  V30 2974 H 274.949 -2.42777 1.75213 0
M  V30 2975 H 272.495 -1.16682 0.843875 0
M  V30 2976 H 274.448 -4.21297 0.0933043 0
M  V30 2977 H 273.172 -3.20419 -0.632382 0
M  V30 2978 H 271.831 -3.34717 1.49533 0
M  V30 2979 H 271.479 -5.0191 -0.33102 0
M  V30 2980 H 271.179 -5.73674 1.27167 0
M  V30 2981 H 272.703 -6.09224 0.409669 0
M  V30 2982 H 274.117 -5.16688 2.48407 0
M  V30 2983 H 272.514 -5.03553 3.26427 0
M  V30 2984 H 273.584 -3.62257 3.22332 0
M  V30 2985 N 274.927 -0.932562 -1.27047 0
M  V30 2986 C 275.859 -0.392734 -2.2581 0
M  V30 2987 C 276.872 0.479241 -1.55586 0
M  V30 2988 O 278.061 0.291078 -1.76111 0
M  V30 2989 C 275.161 0.455456 -3.35826 0
M  V30 2990 C 274.334 -0.398355 -4.35582 0
M  V30 2991 C 273.393 0.387985 -5.24768 0
M  V30 2992 O 272.419 -0.206003 -5.68827 0
M  V30 2993 N 273.621 1.68664 -5.55457 0
M  V30 2994 H 276.386 -1.24173 -2.72766 0
M  V30 2995 H 273.947 -0.800511 -1.40725 0
M  V30 2996 H 275.939 0.988692 -3.92437 0
M  V30 2997 H 274.509 1.20522 -2.88432 0
M  V30 2998 H 273.729 -1.11286 -3.78165 0
M  V30 2999 H 275.017 -0.981889 -4.99236 0
M  V30 3000 H 274.415 2.19147 -5.21528 0
M  V30 3001 H 272.972 2.1663 -6.14748 0
M  V30 3002 N 276.405 1.4127 -0.698611 0
M  V30 3003 C 277.633 2.05503 -0.239992 0
M  V30 3004 C 278.048 1.52584 1.11191 0
M  V30 3005 O 277.405 0.675323 1.69545 0
M  V30 3006 C 277.456 3.60987 -0.192429 0
M  V30 3007 O 277.177 4.1195 -1.49094 0
M  V30 3008 C 278.678 4.42371 0.28681 0
M  V30 3009 H 275.898 0.661748 -0.111045 0
M  V30 3010 H 278.442 1.80987 -0.95205 0
M  V30 3011 H 276.597 3.84533 0.470472 0
M  V30 3012 H 277.011 5.06018 -1.38007 0
M  V30 3013 H 278.485 5.51344 0.26896 0
M  V30 3014 H 278.962 4.18699 1.32619 0
M  V30 3015 H 279.568 4.23897 -0.345201 0
M  V30 3016 N 277.883 0.443576 1.51229 0
M  V30 3017 C 278.815 -0.400608 2.25672 0
M  V30 3018 C 279.828 -0.980945 1.29928 0
M  V30 3019 O 281.017 -0.874024 1.55638 0
M  V30 3020 C 278.117 -1.57304 3.00181 0
M  V30 3021 C 277.29 -1.11046 4.23069 0
M  V30 3022 C 276.349 -2.15374 4.80105 0
M  V30 3023 O 275.375 -1.74554 5.41774 0
M  V30 3024 N 276.577 -3.47922 4.64683 0
M  V30 3025 H 279.342 0.23745 2.98758 0
M  V30 3026 H 276.903 0.272809 1.59585 0
M  V30 3027 H 278.895 -2.26733 3.35223 0
M  V30 3028 H 277.465 -2.11632 2.30066 0
M  V30 3029 H 276.685 -0.243019 3.9345 0
M  V30 3030 H 277.973 -0.778888 5.02803 0
M  V30 3031 H 277.371 -3.83815 4.15575 0
M  V30 3032 H 275.928 -4.13228 5.0407 0
M  V30 3033 N 279.361 -1.56624 0.175154 0
M  V30 3034 C 280.777 -1.58571 -0.180966 0
M  V30 3035 C 280.977 -1.19065 -1.6256 0
M  V30 3036 O 280.033 -0.904044 -2.35761 0
M  V30 3037 C 281.346 -3.00522 0.103326 0
M  V30 3038 C 282.894 -3.12972 0.0418426 0
M  V30 3039 C 283.369 -4.57022 0.299175 0
M  V30 3040 N 284.86 -4.62541 0.247086 0
M  V30 3041 C 285.595 -5.71857 0.420318 0
M  V30 3042 N 285.091 -6.89717 0.652816 0
M  V30 3043 N 286.884 -5.60972 0.355957 0
M  V30 3044 H 279.035 -1.80589 1.11809 0
M  V30 3045 H 281.298 -0.837178 0.444788 0
M  V30 3046 H 281.004 -3.33916 1.10422 0
M  V30 3047 H 280.878 -3.72344 -0.603299 0
M  V30 3048 H 283.265 -2.79403 -0.949636 0
M  V30 3049 H 283.346 -2.43578 0.781238 0
M  V30 3050 H 282.99 -4.913 1.28788 0
M  V30 3051 H 282.92 -5.24579 -0.460876 0
M  V30 3052 H 285.411 -3.77829 0.0731895 0
M  V30 3053 H 285.724 -7.68911 0.774347 0
M  V30 3054 H 284.069 -6.91572 0.689476 0
M  V30 3055 H 287.26 -4.67773 0.174882 0
M  V30 3056 H 287.433 -6.46111 0.494388 0
M  V30 3057 N 280.839 0.0985539 -1.57292 0
M  V30 3058 C 282.064 0.820196 -1.90493 0
M  V30 3059 C 282.489 1.71658 -0.769094 0
M  V30 3060 O 281.847 1.79133 0.279495 0
M  V30 3061 C 281.895 1.61242 -3.22542 0
M  V30 3062 O 280.999 2.72108 -3.09888 0
M  V30 3063 H 280.34 0.225547 -0.62452 0
M  V30 3064 H 282.87 0.0748159 -2.04463 0
M  V30 3065 H 282.88 1.99737 -3.55766 0
M  V30 3066 H 281.555 0.954535 -4.04798 0
M  V30 3067 H 280.132 2.36667 -2.88172 0
M  V30 3068 N 282.317 1.53212 0.369288 0
M  V30 3069 C 283.227 1.82342 1.47609 0
M  V30 3070 C 284.243 0.711532 1.58787 0
M  V30 3071 O 285.419 1.0012 1.74751 0
M  V30 3072 C 282.484 2.00393 2.8292 0
M  V30 3073 C 281.545 3.24297 2.81301 0
M  V30 3074 C 280.778 3.41478 4.10157 0
M  V30 3075 O 281.001 2.63033 5.06132 0
M  V30 3076 O 279.935 4.34817 4.16194 0
M  V30 3077 H 283.761 2.76366 1.25918 0
M  V30 3078 H 281.346 1.38547 0.559034 0
M  V30 3079 H 283.228 2.13859 3.63101 0
M  V30 3080 H 281.903 1.09559 3.04596 0
M  V30 3081 H 280.81 3.16257 1.99831 0
M  V30 3082 H 282.143 4.15041 2.64578 0
M  V30 3083 N 283.795 -0.628877 1.44509 0
M  V30 3084 C 284.705 -1.7694 1.54044 0
M  V30 3085 C 285.721 -1.68705 0.425987 0
M  V30 3086 O 286.897 -1.89442 0.683656 0
M  V30 3087 C 283.962 -3.13332 1.48405 0
M  V30 3088 C 283.023 -3.33181 2.70719 0
M  V30 3089 C 282.256 -4.63067 2.6534 0
M  V30 3090 O 282.479 -5.44017 1.71469 0
M  V30 3091 O 281.413 -4.85167 3.56226 0
M  V30 3092 H 285.239 -1.71848 2.50403 0
M  V30 3093 H 282.824 -0.790378 1.26781 0
M  V30 3094 H 284.706 -3.94634 1.47791 0
M  V30 3095 H 283.381 -3.1896 0.551898 0
M  V30 3096 H 282.288 -2.51549 2.769 0
M  V30 3097 H 283.621 -3.32416 3.62988 0
M  V30 3098 N 285.273 -1.31445 -0.869486 0
M  V30 3099 C 286.55 -1.11795 -1.60503 0
M  V30 3100 C 286.93 0.327168 -2.08549 0
M  V30 3101 O 286.278 1.32135 -1.8642 0
M  V30 3102 C 286.488 -2.13258 -2.76265 0
M  V30 3103 C 287.836 -2.45805 -3.46215 0
M  V30 3104 O 288.86 -2.11688 -2.86473 0
M  V30 3105 O 287.719 -3.04228 -4.5399 0
M  V30 3106 H 284.813 -0.430421 -0.706163 0
M  V30 3107 H 287.359 -1.42925 -0.914907 0
M  V30 3108 H 286.131 -3.10461 -2.3818 0
M  V30 3109 H 285.754 -1.83035 -3.52964 0
M  V30 3110 N 286.751 1.08385 -1.14413 0
M  V30 3111 C 287.698 2.15311 -0.831265 0
M  V30 3112 C 288.668 1.64751 0.211292 0
M  V30 3113 O 289.853 1.90627 0.0811674 0
M  V30 3114 C 286.993 3.43658 -0.315143 0
M  V30 3115 C 286.106 4.08064 -1.41802 0
M  V30 3116 C 285.241 5.24207 -0.859126 0
M  V30 3117 C 284.28 5.80554 -1.93967 0
M  V30 3118 N 283.417 6.88042 -1.39793 0
M  V30 3119 H 288.257 2.41415 -1.74708 0
M  V30 3120 H 285.794 1.18474 -0.871909 0
M  V30 3121 H 287.752 4.172 0.00230884 0
M  V30 3122 H 286.382 3.17839 0.56378 0
M  V30 3123 H 285.434 3.3228 -1.85187 0
M  V30 3124 H 286.746 4.45962 -2.23427 0
M  V30 3125 H 285.9 6.04689 -0.49359 0
M  V30 3126 H 284.639 4.87699 -0.011932 0
M  V30 3127 H 283.644 4.98725 -2.31415 0
M  V30 3128 H 284.869 6.19121 -2.79046 0
M  V30 3129 H 282.815 6.53493 -0.572919 0
M  V30 3130 H 282.732 7.24767 -2.15054 0
M  V30 3131 H 284 7.72255 -1.0603 0
M  V30 3132 N 288.23 0.939286 1.26551 0
M  V30 3133 C 289.507 0.5038 1.89001 0
M  V30 3134 C 289.887 -1.01854 1.84903 0
M  V30 3135 O 289.235 -1.87773 1.30206 0
M  V30 3136 C 289.445 1.063 3.32417 0
M  V30 3137 C 290.793 1.13051 4.09273 0
M  V30 3138 O 291.817 1.01345 3.41479 0
M  V30 3139 O 290.676 1.31233 5.30509 0
M  V30 3140 H 287.77 0.163897 0.810597 0
M  V30 3141 H 290.316 1.03173 1.34735 0
M  V30 3142 H 289.088 2.10665 3.29752 0
M  V30 3143 H 288.711 0.517408 3.94219 0
M  V30 3144 N 289.708 -1.40897 0.706093 0
M  V30 3145 C 290.933 -2.05895 0.249435 0
M  V30 3146 C 291.358 -1.52823 -1.09666 0
M  V30 3147 O 290.716 -0.659589 -1.68876 0
M  V30 3148 C 290.764 -3.59872 0.22904 0
M  V30 3149 O 289.868 -4.04708 -0.792784 0
M  V30 3150 H 289.209 -0.653206 0.119241 0
M  V30 3151 H 291.739 -1.80471 0.96391 0
M  V30 3152 H 291.749 -4.07951 0.0634791 0
M  V30 3153 H 290.424 -3.97866 1.21141 0
M  V30 3154 H 289.001 -3.68111 -0.59572 0
M  V30 3155 N 291.186 -0.45159 -1.50991 0
M  V30 3156 C 292.411 0.110667 -2.07105 0
M  V30 3157 C 292.836 1.3446 -1.31538 0
M  V30 3158 O 292.194 1.77743 -0.357365 0
M  V30 3159 C 292.242 0.397238 -3.58405 0
M  V30 3160 O 291.346 1.48124 -3.84881 0
M  V30 3161 H 290.687 -0.00439271 -0.663985 0
M  V30 3162 H 293.217 -0.637026 -1.9443 0
M  V30 3163 H 293.227 0.64351 -4.02893 0
M  V30 3164 H 291.902 -0.504553 -4.12828 0
M  V30 3165 H 290.479 1.22381 -3.52246 0
M  V30 3166 N 292.664 1.56529 -0.183458 0
M  V30 3167 C 293.594 2.21549 0.737456 0
M  V30 3168 C 294.575 1.17489 1.23005 0
M  V30 3169 O 295.76 1.45959 1.281 0
M  V30 3170 C 292.89 2.86575 1.96194 0
M  V30 3171 C 291.844 3.96778 1.60473 0
M  V30 3172 C 291.17 4.48911 2.90487 0
M  V30 3173 C 292.47 5.15767 0.823497 0
M  V30 3174 H 294.164 2.98761 0.195453 0
M  V30 3175 H 291.71 1.43702 0.0925686 0
M  V30 3176 H 293.663 3.30739 2.61131 0
M  V30 3177 H 292.387 2.06749 2.52828 0
M  V30 3178 H 291.046 3.53286 0.978997 0
M  V30 3179 H 290.694 3.65862 3.45186 0
M  V30 3180 H 290.394 5.23265 2.67335 0
M  V30 3181 H 291.918 4.95771 3.56432 0
M  V30 3182 H 293.332 5.56549 1.37571 0
M  V30 3183 H 291.729 5.96114 0.690551 0
M  V30 3184 H 292.799 4.84574 -0.177782 0
M  V30 3185 N 294.142 -0.090211 1.57342 0
M  V30 3186 C 295.072 -1.10976 2.05443 0
M  V30 3187 C 296.053 -1.41482 0.944284 0
M  V30 3188 O 297.238 -1.51428 1.21586 0
M  V30 3189 C 294.368 -2.42831 2.48295 0
M  V30 3190 C 293.322 -2.26721 3.63018 0
M  V30 3191 C 292.648 -3.63796 3.91863 0
M  V30 3192 C 293.948 -1.7037 4.93732 0
M  V30 3193 H 295.642 -0.709564 2.9087 0
M  V30 3194 H 293.188 -0.339874 1.39932 0
M  V30 3195 H 295.141 -3.14431 2.80555 0
M  V30 3196 H 293.865 -2.84795 1.59873 0
M  V30 3197 H 292.524 -1.57565 3.31012 0
M  V30 3198 H 292.172 -4.03297 3.00601 0
M  V30 3199 H 291.872 -3.53861 4.69101 0
M  V30 3200 H 293.396 -4.36855 4.26603 0
M  V30 3201 H 294.81 -2.31816 5.24342 0
M  V30 3202 H 293.207 -1.71181 5.75167 0
M  V30 3203 H 294.277 -0.663542 4.80339 0
M  V30 3204 N 295.62 -1.53406 -0.361157 0
M  V30 3205 C 296.55 -1.83136 -1.44857 0
M  V30 3206 C 297.531 -0.685174 -1.5569 0
M  V30 3207 O 298.716 -0.93544 -1.70186 0
M  V30 3208 C 295.846 -2.02522 -2.82138 0
M  V30 3209 C 294.8 -3.18302 -2.86126 0
M  V30 3210 C 294.126 -3.22989 -4.26125 0
M  V30 3211 C 295.426 -4.56796 -2.53248 0
M  V30 3212 H 297.12 -2.74201 -1.20226 0
M  V30 3213 H 294.666 -1.31938 -0.576922 0
M  V30 3214 H 296.619 -2.21904 -3.58241 0
M  V30 3215 H 295.343 -1.08172 -3.08166 0
M  V30 3216 H 294.002 -2.98747 -2.12475 0
M  V30 3217 H 293.65 -2.26267 -4.49235 0
M  V30 3218 H 293.35 -4.00781 -4.29708 0
M  V30 3219 H 294.874 -3.44559 -5.04094 0
M  V30 3220 H 296.288 -4.7631 -3.19064 0
M  V30 3221 H 294.685 -5.36862 -2.68141 0
M  V30 3222 H 295.755 -4.61606 -1.48484 0
M  V30 3223 N 297.098 0.621204 -1.44841 0
M  V30 3224 C 298.008 1.7612 -1.5498 0
M  V30 3225 C 299.024 1.68477 -0.434927 0
M  V30 3226 O 300.2 1.89076 -0.693693 0
M  V30 3227 C 297.265 3.1254 -1.50065 0
M  V30 3228 C 296.326 3.31741 -2.72482 0
M  V30 3229 C 295.559 4.61653 -2.67792 0
M  V30 3230 O 295.782 5.431 -1.74352 0
M  V30 3231 O 294.716 4.83271 -3.58794 0
M  V30 3232 H 298.542 1.70518 -2.51311 0
M  V30 3233 H 296.127 0.783643 -1.27198 0
M  V30 3234 H 298.009 3.93844 -1.49882 0
M  V30 3235 H 296.684 3.18663 -0.568806 0
M  V30 3236 H 295.591 2.50077 -2.7823 0
M  V30 3237 H 296.924 3.30486 -3.64746 0
M  V30 3238 O 298.615 1.4224 0.764848 0
M  V30 3239 H 299.306 1.32519 1.41274 0
M  V30 END ATOM
M  V30 BEGIN BOND
M  V30 END BOND
M  V30 END CTAB
M  END
$$$$
