drugbank_target|P08670 Vimentin (DB11638; DB12695)
 OpenBabel12092120533D

  0  0  0     0  0            999 V3000
M  V30 BEGIN CTAB
M  V30 COUNTS 7478 7517 0 0 0
M  V30 BEGIN ATOM
M  V30 1 H -0.908 1.98254 -0.117106 0
M  V30 2 N 0 1.576 0 0
M  V30 3 C 0.933 2.03868 1.02534 0
M  V30 4 C 1.911 0.928543 1.3348 0
M  V30 5 O 3.095 1.19667 1.45644 0
M  V30 6 C 0.222 2.43627 2.35294 0
M  V30 7 C -0.732 3.65373 2.2001 0
M  V30 8 S 0.101 5.13292 1.52614 0
M  V30 9 C 1.257 5.56322 2.86805 0
M  V30 10 H 1.49 2.90518 0.631377 0
M  V30 11 H -0.977 1.52953 0.210867 0
M  V30 12 H 0.981 2.67203 3.11629 0
M  V30 13 H -0.358 1.57376 2.7183 0
M  V30 14 H -1.165 3.90944 3.18086 0
M  V30 15 H -1.563 3.418 1.51819 0
M  V30 16 H 0.729 5.58782 3.83104 0
M  V30 17 H 1.672 6.56266 2.65933 0
M  V30 18 H 2.08 4.83886 2.90714 0
M  V30 19 N 1.4781 -0.272755 1.55222 0
M  V30 20 C 2.7031 -1.02683 1.80197 0
M  V30 21 C 3.1281 -1.79142 0.573551 0
M  V30 22 O 2.4861 -1.74917 -0.476849 0
M  V30 23 C 2.5341 -1.9609 3.02624 0
M  V30 24 O 1.6381 -3.04863 2.77727 0
M  V30 25 H 0.9791 -0.293557 0.595584 0
M  V30 26 H 3.5091 -0.30159 2.02365 0
M  V30 27 H 3.5191 -2.38039 3.31363 0
M  V30 28 H 2.1941 -1.39851 3.91682 0
M  V30 29 H 0.7711 -2.67228 2.60084 0
M  V30 30 N 2.9562 -1.48159 -0.537278 0
M  V30 31 C 4.1842 -1.59454 -1.31841 0
M  V30 32 C 4.5992 -0.252065 -1.8711 0
M  V30 33 O 3.9562 0.757621 -1.66031 0
M  V30 34 C 4.0072 -2.63546 -2.47439 0
M  V30 35 O 3.7282 -3.92583 -1.94449 0
M  V30 36 C 5.2292 -2.85212 -3.39366 0
M  V30 37 H 2.4492 -0.53785 -0.401196 0
M  V30 38 H 4.9932 -1.93932 -0.648891 0
M  V30 39 H 3.1482 -2.31946 -3.1029 0
M  V30 40 H 3.5622 -4.49629 -2.70063 0
M  V30 41 H 5.0362 -3.61863 -4.16844 0
M  V30 42 H 5.5132 -1.93765 -3.94147 0
M  V30 43 H 6.1192 -3.18086 -2.82314 0
M  V30 44 N 4.4343 0.785586 -1.36625 0
M  V30 45 C 5.8503 1.08419 -1.17122 0
M  V30 46 C 6.0503 2.015 0.00208491 0
M  V30 47 O 5.1063 2.43551 0.666278 0
M  V30 48 C 6.4193 1.69498 -2.48377 0
M  V30 49 C 7.9673 1.81821 -2.54775 0
M  V30 50 C 8.4423 2.46315 -3.86126 0
M  V30 51 N 9.9333 2.53779 -3.87492 0
M  V30 52 C 10.6683 3.045 -4.85868 0
M  V30 53 N 10.1643 3.55499 -5.94637 0
M  V30 54 N 11.9573 3.03247 -4.73284 0
M  V30 55 H 4.1083 0.167264 -2.1174 0
M  V30 56 H 6.3713 0.13682 -0.938075 0
M  V30 57 H 6.0773 1.08571 -3.34522 0
M  V30 58 H 5.9513 2.6896 -2.64462 0
M  V30 59 H 8.3383 2.41884 -1.69045 0
M  V30 60 H 8.4193 0.811532 -2.42586 0
M  V30 61 H 8.0633 1.86895 -4.72263 0
M  V30 62 H 7.9933 3.47561 -3.95612 0
M  V30 63 H 10.4843 2.17672 -3.08913 0
M  V30 64 H 10.7973 3.92562 -6.65669 0
M  V30 65 H 9.1423 3.5364 -5.98301 0
M  V30 66 H 12.3333 2.62696 -3.87438 0
M  V30 67 H 12.5063 3.42467 -5.50109 0
M  V30 68 N 5.9124 1.20967 1.01018 0
M  V30 69 C 7.1374 1.0503 1.78839 0
M  V30 70 C 7.5624 -0.395752 1.8389 0
M  V30 71 O 6.9204 -1.28529 1.27867 0
M  V30 72 C 6.9684 1.64602 3.2084 0
M  V30 73 O 6.0724 0.887988 4.02726 0
M  V30 74 H 5.4134 0.369987 0.551367 0
M  V30 75 H 7.9434 1.60399 1.27018 0
M  V30 76 H 7.9534 1.68607 3.71532 0
M  V30 77 H 6.6284 2.69841 3.16479 0
M  V30 78 H 5.2054 0.922648 3.61305 0
M  V30 79 N 7.3905 -1.2043 1.01659 0
M  V30 80 C 8.6365 -1.90079 0.706963 0
M  V30 81 C 8.9695 -1.78648 -0.761474 0
M  V30 82 O 8.2445 -1.17069 -1.55323 0
M  V30 83 C 8.5275 -3.41469 1.14327 0
M  V30 84 C 8.3805 -3.61833 2.67201 0
M  V30 85 C 9.6995 -4.34261 0.714529 0
M  V30 86 H 6.8185 -0.690254 0.2583 0
M  V30 87 H 9.4605 -1.41826 1.26433 0
M  V30 88 H 7.6105 -3.82696 0.669056 0
M  V30 89 H 9.2825 -3.2986 3.22475 0
M  V30 90 H 7.5255 -3.05304 3.08175 0
M  V30 91 H 8.1965 -4.67955 2.92783 0
M  V30 92 H 10.6725 -4.00682 1.12221 0
M  V30 93 H 9.5485 -5.38806 1.04784 0
M  V30 94 H 9.8095 -4.40431 -0.383799 0
M  V30 95 N 8.8686 -0.792821 -1.36206 0
M  V30 96 C 10.0936 -0.377701 -2.03932 0
M  V30 97 C 10.5186 0.998947 -1.59382 0
M  V30 98 O 9.8766 1.64421 -0.763903 0
M  V30 99 C 9.9246 -0.453635 -3.57735 0
M  V30 100 O 9.0286 0.538151 -4.08874 0
M  V30 101 H 8.3696 -0.159855 -0.644471 0
M  V30 102 H 10.8996 -1.07488 -1.7409 0
M  V30 103 H 10.9096 -0.318464 -4.06755 0
M  V30 104 H 9.5846 -1.45784 -3.89512 0
M  V30 105 H 8.1616 0.364359 -3.71116 0
M  V30 106 N 10.3467 1.47872 -0.545128 0
M  V30 107 C 11.5717 2.07391 -0.0190611 0
M  V30 108 C 11.9967 1.39688 1.25971 0
M  V30 109 O 11.3547 0.467816 1.7516 0
M  V30 110 C 11.4027 3.60188 0.172335 0
M  V30 111 O 10.5067 3.9339 1.23766 0
M  V30 112 H 9.8477 0.662411 -0.0459059 0
M  V30 113 H 12.3777 1.90066 -0.757365 0
M  V30 114 H 12.3877 4.06129 0.390305 0
M  V30 115 H 11.0627 4.08865 -0.761725 0
M  V30 116 H 9.6397 3.5921 1.00114 0
M  V30 117 N 11.8248 0.280983 1.55075 0
M  V30 118 C 13.0498 -0.340154 2.04592 0
M  V30 119 C 13.4748 -1.48246 1.15779 0
M  V30 120 O 12.8328 -1.80614 0.15761 0
M  V30 121 C 12.8808 -0.793104 3.5177 0
M  V30 122 O 11.9848 -1.89981 3.66034 0
M  V30 123 H 11.3258 -0.0694289 0.66036 0
M  V30 124 H 13.8558 0.416993 2.00306 0
M  V30 125 H 13.8658 -1.08729 3.93245 0
M  V30 126 H 12.5408 0.0426163 4.15878 0
M  V30 127 H 11.1178 -1.60771 3.36463 0
M  V30 128 N 13.3029 -1.57598 0.00835791 0
M  V30 129 C 14.5279 -1.95617 -0.689103 0
M  V30 130 C 14.9529 -0.883753 -1.66046 0
M  V30 131 O 14.3109 0.157352 -1.80616 0
M  V30 132 C 14.3589 -3.32736 -1.38994 0
M  V30 133 O 13.4629 -3.27631 -2.50463 0
M  V30 134 H 12.8039 -0.638379 -0.182668 0
M  V30 135 H 15.3339 -2.045 0.064036 0
M  V30 136 H 15.3439 -3.68494 -1.75147 0
M  V30 137 H 14.0189 -4.1034 -0.677778 0
M  V30 138 H 12.5959 -3.03561 -2.16576 0
M  V30 139 N 14.781 0.264519 -1.55364 0
M  V30 140 C 16.011 1.01153 -1.80143 0
M  V30 141 C 16.419 1.80115 -0.579253 0
M  V30 142 O 15.762 1.77813 0.46132 0
M  V30 143 C 15.824 2.01098 -2.97993 0
M  V30 144 C 15.488 1.40995 -4.34706 0
M  V30 145 C 16.485 0.821316 -5.13372 0
M  V30 146 C 14.17 1.43461 -4.81378 0
M  V30 147 C 16.164 0.265339 -6.36847 0
M  V30 148 C 13.851 0.874771 -6.04807 0
M  V30 149 C 14.849 0.291146 -6.82379 0
M  V30 150 O 14.537 -0.260093 -8.03479 0
M  V30 151 H 14.269 0.304125 -0.603725 0
M  V30 152 H 16.823 0.298089 -2.03225 0
M  V30 153 H 15.053 2.76224 -2.70623 0
M  V30 154 H 16.742 2.61997 -3.1002 0
M  V30 155 H 17.508 0.794903 -4.78442 0
M  V30 156 H 13.387 1.87826 -4.21002 0
M  V30 157 H 16.931 -0.190837 -6.97339 0
M  V30 158 H 12.828 0.898452 -6.39217 0
M  V30 159 H 13.596 -0.150265 -8.18362 0
M  V30 160 N 16.2591 1.48442 0.529413 0
M  V30 161 C 17.6751 1.34575 0.858004 0
M  V30 162 C 17.8751 0.3572 1.98309 0
M  V30 163 O 16.9311 -0.221379 2.51528 0
M  V30 164 C 18.2441 2.74617 1.22499 0
M  V30 165 C 19.7921 2.83109 1.33484 0
M  V30 166 C 20.2671 4.23854 1.73526 0
M  V30 167 N 21.7581 4.2653 1.80628 0
M  V30 168 C 22.4931 5.32372 2.12997 0
M  V30 169 N 21.9891 6.48491 2.43786 0
M  V30 170 N 23.7821 5.19766 2.14008 0
M  V30 171 H 15.9331 2.1133 -0.212925 0
M  V30 172 H 18.1961 0.947439 -0.0326199 0
M  V30 173 H 17.9021 3.4852 0.471905 0
M  V30 174 H 17.7761 3.08177 2.17501 0
M  V30 175 H 20.1631 2.09462 2.0787 0
M  V30 176 H 20.2441 2.53168 0.366027 0
M  V30 177 H 19.8881 4.98018 0.997013 0
M  V30 178 H 19.8181 4.5124 2.71459 0
M  V30 179 H 22.3091 3.42772 1.59108 0
M  V30 180 H 22.6221 7.24993 2.67592 0
M  V30 181 H 20.9671 6.51765 2.41304 0
M  V30 182 H 24.1581 4.28066 1.89412 0
M  V30 183 H 24.3311 6.02354 2.38902 0
M  V30 184 N 17.7372 -0.778329 1.37039 0
M  V30 185 C 19.1532 -1.07796 1.17695 0
M  V30 186 C 19.3532 -2.01498 0.00860115 0
M  V30 187 O 18.4092 -2.43901 -0.653352 0
M  V30 188 C 19.7222 -1.68178 2.49272 0
M  V30 189 C 21.2702 -1.80467 2.55735 0
M  V30 190 C 21.7452 -2.44263 3.87427 0
M  V30 191 N 23.2362 -2.51721 3.88833 0
M  V30 192 C 23.9712 -3.01919 4.87476 0
M  V30 193 N 23.4672 -3.5234 5.96513 0
M  V30 194 N 25.2602 -3.00733 4.74885 0
M  V30 195 H 17.4112 -0.156032 2.11826 0
M  V30 196 H 19.6742 -0.131844 0.938787 0
M  V30 197 H 19.3802 -1.06796 3.35093 0
M  V30 198 H 19.2542 -2.67554 2.65885 0
M  V30 199 H 21.6412 -2.40984 1.70325 0
M  V30 200 H 21.7222 -0.798656 2.43013 0
M  V30 201 H 21.3662 -1.84388 4.73248 0
M  V30 202 H 21.2962 -3.45458 3.9745 0
M  V30 203 H 23.7872 -2.1603 3.10063 0
M  V30 204 H 24.1002 -3.89027 6.67741 0
M  V30 205 H 22.4452 -3.50462 6.00168 0
M  V30 206 H 25.6362 -2.60638 3.88826 0
M  V30 207 H 25.8092 -3.39545 5.51918 0
M  V30 208 N 19.2153 -1.21501 -1.00376 0
M  V30 209 C 20.1483 -0.918669 -2.08892 0
M  V30 210 C 21.1263 0.134277 -1.62045 0
M  V30 211 O 22.3103 0.00504255 -1.88499 0
M  V30 212 C 19.4373 -0.379645 -3.36566 0
M  V30 213 C 18.4833 -1.41559 -4.02323 0
M  V30 214 S 19.3163 -2.98521 -4.44574 0
M  V30 215 C 20.4723 -2.46228 -5.75433 0
M  V30 216 H 20.7053 -1.83761 -2.33707 0
M  V30 217 H 18.2383 -1.04489 -1.13673 0
M  V30 218 H 20.1963 -0.0752195 -4.10431 0
M  V30 219 H 18.8573 0.518008 -3.09799 0
M  V30 220 H 18.0503 -0.988076 -4.9422 0
M  V30 221 H 17.6523 -1.66815 -3.34737 0
M  V30 222 H 19.9443 -1.86791 -6.51241 0
M  V30 223 H 20.8873 -3.36572 -6.22997 0
M  V30 224 H 21.2953 -1.87894 -5.32312 0
M  V30 225 N 20.6934 1.19889 -1.02296 0
M  V30 226 C 21.9404 1.8942 -0.715972 0
M  V30 227 C 22.2684 1.79251 0.754944 0
M  V30 228 O 21.5234 1.17526 1.56481 0
M  V30 229 C 21.8224 3.39883 -1.10518 0
M  V30 230 C 21.4884 3.70254 -2.57337 0
M  V30 231 C 20.1504 3.78254 -2.97452 0
M  V30 232 C 22.5024 3.84052 -3.52354 0
M  V30 233 C 19.8304 3.97514 -4.31509 0
M  V30 234 C 22.1824 4.04824 -4.86108 0
M  V30 235 C 20.8464 4.11054 -5.25919 0
M  V30 236 H 20.1164 0.693138 -0.261993 0
M  V30 237 H 22.7634 1.42012 -1.28472 0
M  V30 238 H 21.0684 3.8915 -0.454953 0
M  V30 239 H 22.7654 3.9199 -0.845261 0
M  V30 240 H 19.3554 3.64632 -2.25258 0
M  V30 241 H 23.5394 3.77221 -3.22518 0
M  V30 242 H 18.7954 4.00574 -4.61898 0
M  V30 243 H 22.9694 4.14442 -5.59653 0
M  V30 244 H 20.5964 4.2573 -6.29808 0
M  V30 245 N 22.1715 0.800033 1.35784 0
M  V30 246 C 23.4195 0.376597 1.9856 0
M  V30 247 C 23.7405 -1.05812 1.63795 0
M  V30 248 O 23.0105 -1.73103 0.917171 0
M  V30 249 H 21.5905 0.136261 0.734467 0
M  V30 250 H 24.2525 1.02442 1.65806 0
M  V30 251 H 23.3485 0.477002 3.08433 0
M  V30 252 N 23.6496 -1.47581 0.552962 0
M  V30 253 C 24.8976 -2.02082 0.0272703 0
M  V30 254 C 25.2186 -1.4301 -1.32563 0
M  V30 255 O 24.4886 -0.603745 -1.86365 0
M  V30 256 H 23.0686 -0.746966 0.00709182 0
M  V30 257 H 25.7306 -1.81033 0.722008 0
M  V30 258 H 24.8266 -3.12034 -0.0639951 0
M  V30 259 N 25.1277 -0.289203 -1.54924 0
M  V30 260 C 26.5387 0.205791 -1.85562 0
M  V30 261 C 26.8897 1.54351 -1.2112 0
M  V30 262 O 26.0147 2.10435 -0.504601 0
M  V30 263 C 26.6097 0.380177 -3.3666 0
M  V30 264 C 25.1687 0.819395 -3.67373 0
M  V30 265 C 24.3157 -0.079159 -2.77187 0
M  V30 266 H 27.2667 -0.510577 -1.50262 0
M  V30 267 H 27.2877 1.21659 -3.60526 0
M  V30 268 H 26.7997 -0.593589 -3.83534 0
M  V30 269 H 24.9007 1.80413 -3.26009 0
M  V30 270 H 25.0137 0.646957 -4.74712 0
M  V30 271 H 23.3777 0.439565 -2.50878 0
M  V30 272 H 24.1607 -1.04906 -3.26878 0
M  V30 273 N 26.6058 1.57591 -0.0167156 0
M  V30 274 C 27.8538 1.90906 0.663285 0
M  V30 275 C 28.1748 0.892509 1.73376 0
M  V30 276 O 27.4448 -0.0677623 1.95783 0
M  V30 277 H 26.0248 0.704637 0.247983 0
M  V30 278 H 28.6868 1.94803 -0.0615909 0
M  V30 279 H 27.7828 2.9116 1.12393 0
M  V30 280 N 28.0839 -0.256276 1.55502 0
M  V30 281 C 29.3119 -1.00342 1.8094 0
M  V30 282 C 29.7269 -1.79307 0.59114 0
M  V30 283 O 29.0839 -1.77114 -0.440081 0
M  V30 284 C 29.1349 -1.94875 3.04476 0
M  V30 285 O 28.8559 -1.19107 4.21598 0
M  V30 286 C 30.3569 -2.81266 3.42644 0
M  V30 287 H 27.5769 -0.295685 0.602338 0
M  V30 288 H 30.1209 -0.281998 2.02546 0
M  V30 289 H 28.2759 -2.62457 2.84947 0
M  V30 290 H 28.6899 -1.82969 4.91551 0
M  V30 291 H 30.1639 -3.43362 4.32211 0
M  V30 292 H 30.6409 -3.51897 2.62802 0
M  V30 293 H 31.2469 -2.1915 3.64491 0
M  V30 294 N 29.562 -1.4872 -0.521534 0
M  V30 295 C 30.525 -1.63379 -1.60748 0
M  V30 296 C 31.525 -0.50661 -1.52611 0
M  V30 297 O 32.715 -0.772601 -1.5613 0
M  V30 298 C 29.847 -1.61192 -3.00383 0
M  V30 299 H 31.04 -2.60217 -1.49087 0
M  V30 300 H 28.593 -1.37444 -0.744235 0
M  V30 301 H 29.328 -0.65863 -3.17541 0
M  V30 302 H 29.113 -2.43032 -3.07698 0
M  V30 303 H 30.603 -1.7466 -3.7932 0
M  V30 304 N 31.0401 0.771051 -1.3745 0
M  V30 305 C 32.2651 1.56529 -1.36065 0
M  V30 306 C 32.6901 1.88029 0.0515859 0
M  V30 307 O 32.0481 1.49282 1.02882 0
M  V30 308 C 32.0961 2.85187 -2.20683 0
M  V30 309 O 31.2001 3.79593 -1.61193 0
M  V30 310 H 30.5411 0.47411 -0.464883 0
M  V30 311 H 33.0711 0.954269 -1.80983 0
M  V30 312 H 33.0811 3.34283 -2.33921 0
M  V30 313 H 31.7561 2.61588 -3.23334 0
M  V30 314 H 30.3331 3.38239 -1.56999 0
M  V30 315 N 32.5182 1.22032 0.997298 0
M  V30 316 C 33.9342 0.979326 1.26021 0
M  V30 317 C 34.1342 -0.32972 1.98784 0
M  V30 318 O 33.1902 -1.05345 2.29475 0
M  V30 319 C 34.5032 2.17509 2.07631 0
M  V30 320 C 36.0512 2.21817 2.2083 0
M  V30 321 C 36.5262 3.40933 3.05825 0
M  V30 322 N 38.0172 3.41067 3.13412 0
M  V30 323 C 38.7522 4.29885 3.79455 0
M  V30 324 N 38.2482 5.28914 4.47462 0
M  V30 325 N 40.0412 4.17673 3.76173 0
M  V30 326 H 32.1922 2.06202 0.509352 0
M  V30 327 H 34.4552 0.90334 0.287541 0
M  V30 328 H 34.1612 3.12415 1.61524 0
M  V30 329 H 34.0352 2.17206 3.08385 0
M  V30 330 H 36.4222 1.27462 2.66153 0
M  V30 331 H 36.5032 2.2616 1.1952 0
M  V30 332 H 36.1472 4.35586 2.61203 0
M  V30 333 H 36.0772 3.33829 4.07266 0
M  V30 334 H 38.5682 2.69406 2.65007 0
M  V30 335 H 38.8812 5.92973 4.95583 0
M  V30 336 H 37.2262 5.32831 4.46224 0
M  V30 337 H 40.4172 3.39564 3.22202 0
M  V30 338 H 40.5902 4.87098 4.27363 0
M  V30 339 N 33.9963 -1.19345 1.0293 0
M  V30 340 C 35.4073 -1.70725 0.755633 0
M  V30 341 C 35.7583 -1.82326 -0.724676 0
M  V30 342 O 34.8833 -1.49471 -1.56484 0
M  V30 343 C 35.4783 -3.10084 1.36503 0
M  V30 344 C 34.0373 -3.58723 1.13994 0
M  V30 345 C 33.1843 -2.35577 1.46283 0
M  V30 346 H 36.1353 -1.0418 1.19718 0
M  V30 347 H 36.1563 -3.72787 0.762217 0
M  V30 348 H 35.6683 -3.01609 2.44241 0
M  V30 349 H 33.7693 -3.72512 0.0807901 0
M  V30 350 H 33.8823 -4.42816 1.82894 0
M  V30 351 H 32.2463 -2.38935 0.88217 0
M  V30 352 H 33.0293 -2.29731 2.55105 0
M  V30 353 N 35.4744 -0.807222 -1.35358 0
M  V30 354 C 36.6994 -0.399309 -2.0352 0
M  V30 355 C 37.1244 0.981986 -1.60433 0
M  V30 356 O 36.4824 1.63601 -0.781299 0
M  V30 357 C 36.5304 -0.491552 -3.57234 0
M  V30 358 O 35.6344 0.494754 -4.09421 0
M  V30 359 H 34.9754 -0.166682 -0.642739 0
M  V30 360 H 37.5054 -1.09328 -1.72941 0
M  V30 361 H 37.5154 -0.361588 -4.06395 0
M  V30 362 H 36.1904 -1.49907 -3.87944 0
M  V30 363 H 34.7674 0.324977 -3.71481 0
M  V30 364 N 36.9525 1.47285 -0.560781 0
M  V30 365 C 38.1775 2.07359 -0.0410566 0
M  V30 366 C 38.6025 1.41017 1.24483 0
M  V30 367 O 37.9605 0.486368 1.74654 0
M  V30 368 C 38.0085 3.6035 0.134123 0
M  V30 369 O 37.1125 3.94681 1.19587 0
M  V30 370 H 36.4535 0.661887 -0.0529291 0
M  V30 371 H 38.9835 1.89252 -0.777482 0
M  V30 372 H 38.9935 4.0652 0.347207 0
M  V30 373 H 37.6685 4.08034 -0.805047 0
M  V30 374 H 36.2455 3.60251 0.962987 0
M  V30 375 N 38.4306 0.297415 1.54768 0
M  V30 376 C 39.6556 -0.318435 2.04941 0
M  V30 377 C 40.0806 -1.4701 1.17345 0
M  V30 378 O 39.4386 -1.80436 0.176758 0
M  V30 379 C 39.4866 -0.755749 3.52592 0
M  V30 380 O 38.5906 -1.86088 3.68028 0
M  V30 381 H 37.9316 -0.062421 0.661059 0
M  V30 382 H 40.4616 0.438215 1.99852 0
M  V30 383 H 40.4716 -1.04552 3.94376 0
M  V30 384 H 39.1466 0.0867233 4.1581 0
M  V30 385 H 37.7236 -1.57193 3.38149 0
M  V30 386 N 39.9087 -1.5758 0.0250728 0
M  V30 387 C 41.3247 -1.56124 -0.331282 0
M  V30 388 C 41.5247 -1.03029 -1.73169 0
M  V30 389 O 40.5807 -0.675215 -2.43305 0
M  V30 390 C 41.8937 -3.00139 -0.183584 0
M  V30 391 C 43.4417 -3.11946 -0.256654 0
M  V30 392 C 43.9167 -4.57793 -0.137792 0
M  V30 393 N 45.4077 -4.6279 -0.194904 0
M  V30 394 C 46.1427 -5.7326 -0.126655 0
M  V30 395 N 45.6387 -6.928 -0.00755288 0
M  V30 396 N 47.4317 -5.61811 -0.180348 0
M  V30 397 H 39.5827 -1.90424 0.94087 0
M  V30 398 H 41.8457 -0.875761 0.362968 0
M  V30 399 H 41.5517 -3.4292 0.780927 0
M  V30 400 H 41.4257 -3.64899 -0.955448 0
M  V30 401 H 43.8127 -2.69079 -1.21162 0
M  V30 402 H 43.8937 -2.49915 0.545517 0
M  V30 403 H 43.5377 -5.01339 0.813739 0
M  V30 404 H 43.4677 -5.17798 -0.958775 0
M  V30 405 H 45.9587 -3.76807 -0.287267 0
M  V30 406 H 46.2717 -7.72791 0.0379428 0
M  V30 407 H 44.6167 -6.94995 0.0271731 0
M  V30 408 H 47.8077 -4.6731 -0.271767 0
M  V30 409 H 47.9807 -6.47882 -0.123697 0
M  V30 410 N 41.3868 0.248026 -1.55636 0
M  V30 411 C 42.6118 0.998028 -1.81808 0
M  V30 412 C 43.0368 1.78207 -0.601979 0
M  V30 413 O 42.3948 1.75653 0.448961 0
M  V30 414 C 42.4428 1.9125 -3.05705 0
M  V30 415 O 41.5468 3.00406 -2.82542 0
M  V30 416 H 40.8878 0.284045 -0.600179 0
M  V30 417 H 43.4178 0.269357 -2.02819 0
M  V30 418 H 43.4278 2.32737 -3.35108 0
M  V30 419 H 42.1028 1.33602 -3.93857 0
M  V30 420 H 40.6798 2.63056 -2.64303 0
M  V30 421 N 42.8649 1.48995 0.513639 0
M  V30 422 C 44.0949 1.61297 1.291 0
M  V30 423 C 44.5029 0.278656 1.87137 0
M  V30 424 O 43.8459 -0.744325 1.67945 0
M  V30 425 C 43.9079 2.61326 2.46879 0
M  V30 426 C 43.5719 4.05993 2.09807 0
M  V30 427 C 44.5689 4.93183 1.64519 0
M  V30 428 C 42.2539 4.51642 2.19829 0
M  V30 429 C 44.2479 6.24056 1.2974 0
M  V30 430 C 41.9349 5.82532 1.84662 0
M  V30 431 C 42.9329 6.68562 1.3969 0
M  V30 432 O 42.6209 7.97014 1.04992 0
M  V30 433 H 42.3529 0.546236 0.39825 0
M  V30 434 H 44.9069 1.95673 0.62459 0
M  V30 435 H 43.1369 2.22104 3.16554 0
M  V30 436 H 44.8259 2.6329 3.08923 0
M  V30 437 H 45.5919 4.59147 1.56233 0
M  V30 438 H 41.4709 3.84855 2.53786 0
M  V30 439 H 45.0149 6.91161 0.945659 0
M  V30 440 H 40.9119 6.16099 1.92594 0
M  V30 441 H 41.6799 8.09913 1.18249 0
M  V30 442 N 44.343 -0.763751 1.37857 0
M  V30 443 C 45.589 -1.52483 1.33704 0
M  V30 444 C 45.922 -1.94051 -0.0759612 0
M  V30 445 O 45.197 -1.64675 -1.03501 0
M  V30 446 C 45.48 -2.78441 2.28348 0
M  V30 447 C 45.333 -2.43075 3.78463 0
M  V30 448 C 46.652 -3.80415 2.21298 0
M  V30 449 H 43.771 -0.553169 0.487005 0
M  V30 450 H 46.413 -0.875562 1.68624 0
M  V30 451 H 44.563 -3.33842 1.987 0
M  V30 452 H 46.235 -1.93527 4.18742 0
M  V30 453 H 44.478 -1.75666 3.96641 0
M  V30 454 H 45.149 -3.33149 4.40132 0
M  V30 455 H 47.625 -3.34527 2.47449 0
M  V30 456 H 46.501 -4.66257 2.89647 0
M  V30 457 H 46.762 -4.25262 1.20849 0
M  V30 458 N 45.8211 -1.22559 -0.990812 0
M  V30 459 C 47.0491 -1.07779 -1.76611 0
M  V30 460 C 47.4641 0.371513 -1.85109 0
M  V30 461 O 46.8211 1.25737 -1.32274 0
M  V30 462 C 46.8721 -1.68512 -3.19822 0
M  V30 463 O 46.5931 -3.07774 -3.1178 0
M  V30 464 C 48.0941 -1.59035 -4.13791 0
M  V30 465 H 45.3141 -0.377729 -0.554583 0
M  V30 466 H 47.8581 -1.62195 -1.24551 0
M  V30 467 H 46.0131 -1.18154 -3.68942 0
M  V30 468 H 46.4271 -3.37062 -4.01858 0
M  V30 469 H 47.9011 -2.0625 -5.1202 0
M  V30 470 H 48.3781 -0.547273 -4.35777 0
M  V30 471 H 48.9841 -2.08709 -3.70568 0
M  V30 472 N 47.2992 1.18797 -1.03562 0
M  V30 473 C 48.5272 1.92599 -0.755869 0
M  V30 474 C 48.9422 1.75886 0.686271 0
M  V30 475 O 48.2992 1.08517 1.46732 0
M  V30 476 C 48.3502 3.44159 -1.10619 0
M  V30 477 O 48.0712 3.60341 -2.4917 0
M  V30 478 C 49.5722 4.3507 -0.850214 0
M  V30 479 H 46.7922 0.611587 -0.276048 0
M  V30 480 H 49.3362 1.50742 -1.38192 0
M  V30 481 H 47.4912 3.83823 -0.525194 0
M  V30 482 H 47.9052 4.54128 -2.62427 0
M  V30 483 H 49.3792 5.39989 -1.14523 0
M  V30 484 H 49.8562 4.38673 0.215176 0
M  V30 485 H 50.4622 4.01097 -1.41426 0
M  V30 486 N 48.7773 0.814389 1.34928 0
M  V30 487 C 50.0023 0.410097 2.03305 0
M  V30 488 C 50.4273 -0.973464 1.60951 0
M  V30 489 O 49.7853 -1.63185 0.789964 0
M  V30 490 C 49.8333 0.51049 3.56968 0
M  V30 491 O 48.9373 -0.473035 4.09678 0
M  V30 492 H 48.2783 0.170088 0.641846 0
M  V30 493 H 50.8083 1.10244 1.72358 0
M  V30 494 H 50.8183 0.383135 4.06197 0
M  V30 495 H 49.4933 1.51963 3.87144 0
M  V30 496 H 48.0703 -0.305272 3.71648 0
M  V30 497 N 50.2554 -1.46986 0.568584 0
M  V30 498 C 51.4834 -2.0683 0.0539956 0
M  V30 499 C 51.8984 -1.41953 -1.24478 0
M  V30 500 O 51.2554 -0.519933 -1.74937 0
M  V30 501 C 51.3064 -3.61254 -0.133362 0
M  V30 502 O 51.0274 -4.237 1.11399 0
M  V30 503 C 52.5284 -4.37992 -0.683927 0
M  V30 504 H 49.7484 -0.669058 0.0510141 0
M  V30 505 H 52.2924 -1.88824 0.785234 0
M  V30 506 H 50.4474 -3.78735 -0.81477 0
M  V30 507 H 50.8614 -5.16388 0.91888 0
M  V30 508 H 52.3354 -5.46684 -0.764263 0
M  V30 509 H 52.8124 -4.05058 -1.69778 0
M  V30 510 H 53.4184 -4.25283 -0.0378494 0
M  V30 511 N 51.7335 -0.305618 -1.54608 0
M  V30 512 C 53.1495 0.0476228 -1.59529 0
M  V30 513 C 53.3495 1.52025 -1.32252 0
M  V30 514 O 52.4055 2.27368 -1.09818 0
M  V30 515 C 53.7185 -0.354471 -2.98603 0
M  V30 516 C 55.2665 -0.303622 -3.11524 0
M  V30 517 C 55.7415 -0.680608 -4.52915 0
M  V30 518 N 57.2325 -0.63332 -4.5885 0
M  V30 519 C 57.9675 -0.897432 -5.66334 0
M  V30 520 N 57.4635 -1.22775 -6.81834 0
M  V30 521 N 59.2565 -0.824186 -5.56025 0
M  V30 522 H 51.4075 -1.2653 -1.70599 0
M  V30 523 H 53.6705 -0.513291 -0.797017 0
M  V30 524 H 53.3765 -1.3798 -3.23503 0
M  V30 525 H 53.2505 0.289568 -3.76087 0
M  V30 526 H 55.6375 0.712472 -2.8637 0
M  V30 527 H 55.7185 -0.982348 -2.36185 0
M  V30 528 H 55.3625 -1.69453 -4.78799 0
M  V30 529 H 55.2925 0.0202385 -5.26596 0
M  V30 530 H 57.7835 -0.389138 -3.75891 0
M  V30 531 H 58.0965 -1.41513 -7.59733 0
M  V30 532 H 56.4415 -1.26583 -6.83375 0
M  V30 533 H 59.6325 -0.565748 -4.64669 0
M  V30 534 H 59.8055 -1.03338 -6.39707 0
M  V30 535 N 53.2116 1.57565 -0.0334293 0
M  V30 536 C 54.4396 1.9628 0.654347 0
M  V30 537 C 54.8546 0.910138 1.65414 0
M  V30 538 O 54.2116 -0.107595 1.82183 0
M  V30 539 C 54.2626 3.35067 1.35693 0
M  V30 540 O 53.9836 4.36296 0.397191 0
M  V30 541 C 55.4846 3.88439 2.13613 0
M  V30 542 H 52.7046 0.646369 0.180132 0
M  V30 543 H 55.2486 2.04282 -0.0944721 0
M  V30 544 H 53.4036 3.2827 2.05712 0
M  V30 545 H 53.8176 5.1678 0.896597 0
M  V30 546 H 55.2916 4.8788 2.58219 0
M  V30 547 H 55.7686 3.22914 2.97696 0
M  V30 548 H 56.3746 3.98516 1.48543 0
M  V30 549 N 54.6897 -0.239769 1.55765 0
M  V30 550 C 55.9197 -0.982743 1.8173 0
M  V30 551 C 56.3277 -1.7917 0.607835 0
M  V30 552 O 55.6707 -1.78525 -0.432973 0
M  V30 553 C 55.7327 -1.96332 3.01155 0
M  V30 554 C 55.3967 -1.34062 4.36894 0
M  V30 555 C 56.3937 -0.739539 5.14613 0
M  V30 556 C 54.0787 -1.35784 4.83599 0
M  V30 557 C 56.0727 -0.163989 6.37189 0
M  V30 558 C 53.7597 -0.778441 6.06122 0
M  V30 559 C 54.7577 -0.182548 6.82756 0
M  V30 560 O 54.4457 0.387887 8.02964 0
M  V30 561 H 54.1777 -0.294481 0.608487 0
M  V30 562 H 56.7317 -0.26572 2.03674 0
M  V30 563 H 54.9617 -2.71884 2.74984 0
M  V30 564 H 56.6507 -2.57032 3.14149 0
M  V30 565 H 57.4167 -0.718687 4.79646 0
M  V30 566 H 53.2957 -1.81105 4.23936 0
M  V30 567 H 56.8397 0.301753 6.96947 0
M  V30 568 H 52.7367 -0.796645 6.40565 0
M  V30 569 H 53.5047 0.28044 8.18019 0
M  V30 570 N 56.1678 -1.49265 -0.50573 0
M  V30 571 C 57.3928 -1.62478 -1.28902 0
M  V30 572 C 57.8178 -0.294332 -1.85783 0
M  V30 573 O 57.1758 0.737412 -1.65626 0
M  V30 574 C 57.2238 -2.69268 -2.39848 0
M  V30 575 O 56.3278 -2.28113 -3.43567 0
M  V30 576 H 55.6688 -0.54399 -0.380751 0
M  V30 577 H 58.1988 -1.95421 -0.605952 0
M  V30 578 H 58.2088 -2.91291 -2.85681 0
M  V30 579 H 56.8838 -3.65846 -1.97812 0
M  V30 580 H 55.4608 -2.16401 -3.03685 0
M  V30 581 N 57.6459 0.756429 -1.3826 0
M  V30 582 C 58.5759 1.88374 -1.37976 0
M  V30 583 C 59.5569 1.68311 -0.246082 0
M  V30 584 O 60.7419 1.88944 -0.44874 0
M  V30 585 C 57.8719 3.25864 -1.20125 0
M  V30 586 C 56.8259 3.60523 -2.30666 0
M  V30 587 C 56.1519 4.9672 -1.97923 0
M  V30 588 C 57.4519 3.65692 -3.72916 0
M  V30 589 H 59.1459 1.88869 -2.32312 0
M  V30 590 H 56.6919 0.907272 -1.11824 0
M  V30 591 H 58.6449 4.0438 -1.18552 0
M  V30 592 H 57.3689 3.25841 -0.222498 0
M  V30 593 H 56.0279 2.84324 -2.3142 0
M  V30 594 H 55.6759 4.93253 -0.985393 0
M  V30 595 H 55.3759 5.20878 -2.71955 0
M  V30 596 H 56.8999 5.77618 -1.97964 0
M  V30 597 H 58.3139 4.34328 -3.74208 0
M  V30 598 H 56.7109 4.01358 -4.4613 0
M  V30 599 H 57.7809 2.65987 -4.05436 0
M  V30 600 N 59.124 1.23083 0.984299 0
M  V30 601 C 60.372 1.05848 1.72165 0
M  V30 602 C 60.693 -0.406049 1.90726 0
M  V30 603 O 59.963 -1.29139 1.47309 0
M  V30 604 H 58.543 0.388685 0.637913 0
M  V30 605 H 61.205 1.54736 1.18503 0
M  V30 606 H 60.301 1.54327 2.71274 0
M  V30 607 N 60.6021 -1.18246 1.0419 0
M  V30 608 C 61.8271 -1.92736 0.765996 0
M  V30 609 C 62.2521 -1.75728 -0.67091 0
M  V30 610 O 61.6101 -1.06825 -1.46486 0
M  V30 611 C 61.6581 -3.42148 1.13875 0
M  V30 612 O 60.7621 -4.11548 0.264954 0
M  V30 613 H 60.1031 -0.601238 0.281797 0
M  V30 614 H 62.6331 -1.49942 1.39207 0
M  V30 615 H 62.6431 -3.92858 1.1012 0
M  V30 616 H 61.3181 -3.53848 2.18551 0
M  V30 617 H 59.8951 -3.71137 0.362226 0
M  V30 618 N 62.0802 -0.821533 -1.34494 0
M  V30 619 C 63.0432 -0.247847 -2.27856 0
M  V30 620 C 64.0432 0.573453 -1.50227 0
M  V30 621 O 65.2332 0.389759 -1.69784 0
M  V30 622 C 62.3652 0.652698 -3.34593 0
M  V30 623 H 63.5582 -1.07146 -2.80107 0
M  V30 624 H 61.1112 -0.593291 -1.44602 0
M  V30 625 H 61.8462 1.49943 -2.87555 0
M  V30 626 H 61.6312 0.065292 -3.92046 0
M  V30 627 H 63.1212 1.04793 -4.04238 0
M  V30 628 N 63.5583 1.46682 -0.576371 0
M  V30 629 C 64.4883 2.33028 0.148397 0
M  V30 630 C 65.4693 1.44961 0.889956 0
M  V30 631 O 66.6543 1.73789 0.866662 0
M  V30 632 C 63.7843 3.27117 1.1667 0
M  V30 633 C 62.7383 4.24575 0.540386 0
M  V30 634 C 62.0643 5.08126 1.6647 0
M  V30 635 C 63.3643 5.19722 -0.518331 0
M  V30 636 H 65.0583 2.93875 -0.572509 0
M  V30 637 H 62.6043 1.41315 -0.276768 0
M  V30 638 H 64.5573 3.86374 1.68204 0
M  V30 639 H 63.2813 2.64364 1.9178 0
M  V30 640 H 61.9403 3.66571 0.0461769 0
M  V30 641 H 61.5883 4.41762 2.40531 0
M  V30 642 H 61.2883 5.74122 1.25131 0
M  V30 643 H 62.8123 5.70246 2.18293 0
M  V30 644 H 64.2263 5.73232 -0.0883058 0
M  V30 645 H 62.6233 5.94026 -0.851679 0
M  V30 646 H 63.6933 4.64037 -1.40703 0
M  V30 647 N 65.0364 0.313813 1.54444 0
M  V30 648 C 66.4524 -0.0391619 1.59552 0
M  V30 649 C 66.6524 -1.51322 1.33056 0
M  V30 650 O 65.7084 -2.26782 1.11022 0
M  V30 651 C 67.0214 0.370302 2.98411 0
M  V30 652 C 68.5694 0.320139 3.11358 0
M  V30 653 C 69.0444 0.704617 4.52547 0
M  V30 654 N 70.5354 0.657645 4.58508 0
M  V30 655 C 71.2704 0.927453 5.6585 0
M  V30 656 N 70.7664 1.26389 6.81174 0
M  V30 657 N 72.5594 0.853662 5.5558 0
M  V30 658 H 64.7104 1.27433 1.69925 0
M  V30 659 H 66.9734 0.517511 0.794284 0
M  V30 660 H 66.6794 1.39694 3.22767 0
M  V30 661 H 66.5534 -0.269619 3.76235 0
M  V30 662 H 68.9404 -0.697275 2.86744 0
M  V30 663 H 69.0214 0.99486 2.35661 0
M  V30 664 H 68.6654 1.7199 4.77893 0
M  V30 665 H 68.5954 0.00768843 5.26599 0
M  V30 666 H 71.0864 0.409067 3.75679 0
M  V30 667 H 71.3994 1.4554 7.58972 0
M  V30 668 H 69.7444 1.30206 6.82694 0
M  V30 669 H 72.9354 0.590383 4.64362 0
M  V30 670 H 73.1084 1.0673 6.3915 0
M  V30 671 N 66.5145 -1.57545 0.0417849 0
M  V30 672 C 67.9255 -1.80011 -0.495259 0
M  V30 673 C 68.2765 -0.953199 -1.71489 0
M  V30 674 O 67.4015 -0.167138 -2.15754 0
M  V30 675 C 67.9965 -3.26482 -0.905265 0
M  V30 676 C 66.5555 -3.499 -1.38734 0
M  V30 677 C 65.7025 -2.74979 -0.358056 0
M  V30 678 H 68.6535 -1.56425 0.267736 0
M  V30 679 H 68.6745 -3.36887 -1.76882 0
M  V30 680 H 68.1865 -3.88096 -0.017401 0
M  V30 681 H 66.2875 -2.93553 -2.29471 0
M  V30 682 H 66.4005 -4.58615 -1.38598 0
M  V30 683 H 64.7645 -2.40834 -0.828912 0
M  V30 684 H 65.5475 -3.39315 0.521561 0
M  V30 685 N 67.9926 0.231505 -1.5589 0
M  V30 686 C 69.2176 0.978689 -1.82856 0
M  V30 687 C 69.6426 1.77559 -0.620846 0
M  V30 688 O 69.0006 1.76119 0.430305 0
M  V30 689 C 69.0486 1.87997 -3.07716 0
M  V30 690 O 68.1526 2.97393 -2.85712 0
M  V30 691 H 67.4936 0.277663 -0.603158 0
M  V30 692 H 70.0236 0.24783 -2.03093 0
M  V30 693 H 70.0336 2.2917 -3.37558 0
M  V30 694 H 68.7086 1.29417 -3.95252 0
M  V30 695 H 67.2856 2.60238 -2.67078 0
M  V30 696 N 69.4707 1.49531 0.497807 0
M  V30 697 C 70.6987 1.62893 1.27567 0
M  V30 698 C 71.1137 0.301585 1.86376 0
M  V30 699 O 70.4707 -0.713335 1.67982 0
M  V30 700 C 70.5217 2.70013 2.40364 0
M  V30 701 O 70.2427 3.976 1.83972 0
M  V30 702 C 71.7437 2.94109 3.31685 0
M  V30 703 H 68.9637 0.548298 0.386794 0
M  V30 704 H 71.5077 1.95584 0.597245 0
M  V30 705 H 69.6627 2.40092 3.04031 0
M  V30 706 H 70.0767 4.56631 2.58047 0
M  V30 707 H 71.5507 3.72788 4.07104 0
M  V30 708 H 72.0277 2.04147 3.88871 0
M  V30 709 H 72.6337 3.2546 2.73781 0
M  V30 710 N 70.9488 -0.749086 1.3866 0
M  V30 711 C 72.1738 -1.54344 1.38538 0
M  V30 712 C 72.5988 -1.88088 -0.0216655 0
M  V30 713 O 71.9568 -1.50899 -1.00494 0
M  V30 714 C 72.0048 -2.8164 2.25192 0
M  V30 715 O 71.1088 -3.7698 1.67212 0
M  V30 716 H 70.4498 -0.466654 0.472367 0
M  V30 717 H 72.9798 -0.925355 1.82478 0
M  V30 718 H 72.9898 -3.30519 2.3921 0
M  V30 719 H 71.6648 -2.56411 3.27454 0
M  V30 720 H 70.2418 -3.35699 1.6236 0
M  V30 721 N 72.4269 -1.23603 -0.977757 0
M  V30 722 C 73.8429 -0.999251 -1.24447 0
M  V30 723 C 74.0429 0.298053 -1.99283 0
M  V30 724 O 73.0989 1.01681 -2.31122 0
M  V30 725 C 74.4119 -2.20784 -2.04144 0
M  V30 726 C 75.9599 -2.25303 -2.17273 0
M  V30 727 C 76.4349 -3.45755 -3.00362 0
M  V30 728 N 77.9259 -3.4601 -3.07947 0
M  V30 729 C 78.6609 -4.35868 -3.72568 0
M  V30 730 N 78.1569 -5.35966 -4.38991 0
M  V30 731 N 79.9499 -4.23605 -3.6948 0
M  V30 732 H 72.1009 -2.06986 -0.476483 0
M  V30 733 H 74.3639 -0.907801 -0.273134 0
M  V30 734 H 74.0699 -3.14945 -1.56533 0
M  V30 735 H 73.9439 -2.22085 -3.04891 0
M  V30 736 H 76.3309 -1.3168 -2.64092 0
M  V30 737 H 76.4119 -2.28033 -1.15907 0
M  V30 738 H 76.0559 -4.39687 -2.5424 0
M  V30 739 H 75.9859 -3.40266 -4.01904 0
M  V30 740 H 78.4769 -2.73588 -2.60688 0
M  V30 741 H 78.7899 -6.00783 -4.86086 0
M  V30 742 H 77.1349 -5.39863 -4.37691 0
M  V30 743 H 80.3259 -3.44647 -3.16759 0
M  V30 744 H 80.4989 -4.93836 -4.1956 0
M  V30 745 N 73.905 1.17692 -1.04816 0
M  V30 746 C 75.13 1.92327 -0.776207 0
M  V30 747 C 75.555 1.76082 0.661581 0
M  V30 748 O 74.913 1.076 1.45917 0
M  V30 749 C 74.961 3.41539 -1.15687 0
M  V30 750 O 74.065 4.11402 -0.286775 0
M  V30 751 H 73.406 0.599735 -0.284981 0
M  V30 752 H 75.936 1.49201 -1.4 0
M  V30 753 H 75.946 3.92269 -1.12202 0
M  V30 754 H 74.621 3.52684 -2.20425 0
M  V30 755 H 73.198 3.70939 -0.381903 0
M  V30 756 N 75.3831 0.828654 1.34056 0
M  V30 757 C 76.3131 0.269443 2.3194 0
M  V30 758 C 77.2941 -0.617247 1.58506 0
M  V30 759 O 78.4791 -0.542931 1.86456 0
M  V30 760 C 75.6091 -0.564793 3.42677 0
M  V30 761 C 74.5631 0.225241 4.27407 0
M  V30 762 C 73.8891 -0.7321 5.29664 0
M  V30 763 C 75.1891 1.43663 5.02154 0
M  V30 764 H 76.8831 1.08728 2.7896 0
M  V30 765 H 74.4291 0.524283 1.34117 0
M  V30 766 H 76.3821 -0.966233 4.10173 0
M  V30 767 H 75.1061 -1.41574 2.9432 0
M  V30 768 H 73.7651 0.608117 3.61521 0
M  V30 769 H 73.4131 -1.57916 4.77568 0
M  V30 770 H 73.1131 -0.20767 5.87233 0
M  V30 771 H 74.6371 -1.13128 6.00029 0
M  V30 772 H 76.0511 1.1089 5.62473 0
M  V30 773 H 74.4481 1.89711 5.69324 0
M  V30 774 H 75.5181 2.21181 4.31517 0
M  V30 775 N 76.8612 -1.46375 0.584142 0
M  V30 776 C 78.0912 -2.06461 0.0758195 0
M  V30 777 C 78.4992 -1.43322 -1.23512 0
M  V30 778 O 77.8422 -0.533216 -1.75791 0
M  V30 779 C 77.9042 -3.59131 -0.162773 0
M  V30 780 C 77.5682 -4.4447 1.06279 0
M  V30 781 C 78.5652 -4.80918 1.97519 0
M  V30 782 C 76.2502 -4.85584 1.28504 0
M  V30 783 C 78.2442 -5.57309 3.09331 0
M  V30 784 C 75.9312 -5.61734 2.4062 0
M  V30 785 C 76.9292 -5.9751 3.30863 0
M  V30 786 O 76.6172 -6.72121 4.41032 0
M  V30 787 H 76.3492 -0.673745 0.0551725 0
M  V30 788 H 78.9032 -1.88969 0.804984 0
M  V30 789 H 77.1332 -3.74936 -0.946565 0
M  V30 790 H 78.8222 -4.0114 -0.619782 0
M  V30 791 H 79.5882 -4.49732 1.81565 0
M  V30 792 H 75.4672 -4.57187 0.591702 0
M  V30 793 H 79.0112 -5.85152 3.79793 0
M  V30 794 H 74.9082 -5.92334 2.56537 0
M  V30 795 H 75.6762 -6.90547 4.39417 0
M  V30 796 N 78.3393 -0.321999 -1.54275 0
M  V30 797 C 79.3023 0.531975 -2.22941 0
M  V30 798 C 80.3023 1.04478 -1.22234 0
M  V30 799 O 81.4923 0.937452 -1.46825 0
M  V30 800 C 78.6243 1.73874 -2.93224 0
M  V30 801 H 79.8173 -0.0682612 -2.99822 0
M  V30 802 H 77.3703 -0.0730644 -1.56129 0
M  V30 803 H 78.1053 2.37825 -2.20476 0
M  V30 804 H 77.8903 1.37847 -3.6707 0
M  V30 805 H 79.3803 2.34496 -3.45545 0
M  V30 806 N 79.8174 1.5752 -0.0501392 0
M  V30 807 C 81.0424 1.97376 0.636997 0
M  V30 808 C 81.4674 0.927466 1.63645 0
M  V30 809 O 80.8254 -0.10941 1.8097 0
M  V30 810 C 80.8734 3.36304 1.30123 0
M  V30 811 O 79.9774 3.34156 2.41689 0
M  V30 812 H 79.3184 0.642998 0.165679 0
M  V30 813 H 81.8484 2.04258 -0.118233 0
M  V30 814 H 81.8584 3.73008 1.65315 0
M  V30 815 H 80.5334 4.11993 0.568746 0
M  V30 816 H 79.1104 3.09196 2.08451 0
M  V30 817 N 81.2955 -0.223234 1.56011 0
M  V30 818 C 82.5205 -0.968978 1.83373 0
M  V30 819 C 82.9455 -1.77227 0.630254 0
M  V30 820 O 82.3035 -1.76345 -0.420959 0
M  V30 821 C 82.3515 -1.86363 3.08709 0
M  V30 822 O 81.4555 -2.95873 2.87285 0
M  V30 823 H 80.7965 -0.274461 0.604622 0
M  V30 824 H 83.3265 -0.237056 2.03222 0
M  V30 825 H 83.3365 -2.27376 3.38768 0
M  V30 826 H 82.0115 -1.27319 3.95933 0
M  V30 827 H 80.5885 -2.58818 2.68454 0
M  V30 828 N 82.7736 -1.49793 -0.48987 0
M  V30 829 C 84.1846 -1.52914 -1.07118 0
M  V30 830 C 84.5356 -0.321738 -1.93544 0
M  V30 831 O 83.6606 0.567338 -2.08831 0
M  V30 832 C 84.2556 -2.771 -1.94938 0
M  V30 833 C 82.8146 -2.82963 -2.48212 0
M  V30 834 C 81.9616 -2.46972 -1.26096 0
M  V30 835 H 84.9126 -1.56329 -0.273289 0
M  V30 836 H 84.9336 -2.57892 -2.79771 0
M  V30 837 H 84.4456 -3.64959 -1.32009 0
M  V30 838 H 82.5466 -1.99411 -3.14748 0
M  V30 839 H 82.6596 -3.85406 -2.84603 0
M  V30 840 H 81.0236 -1.98994 -1.58976 0
M  V30 841 H 81.8066 -3.37118 -0.648581 0
M  V30 842 N 84.2517 0.741722 -1.39055 0
M  V30 843 C 85.4997 1.49818 -1.35643 0
M  V30 844 C 85.8207 1.94938 0.0491642 0
M  V30 845 O 85.0907 1.68505 0.999141 0
M  V30 846 H 83.6707 0.555755 -0.499144 0
M  V30 847 H 86.3327 0.880957 -1.73854 0
M  V30 848 H 85.4287 2.38348 -2.01486 0
M  V30 849 N 85.7298 1.2412 0.971189 0
M  V30 850 C 86.9778 1.07668 1.71032 0
M  V30 851 C 87.2988 -0.385797 1.91146 0
M  V30 852 O 86.5688 -1.27569 1.4867 0
M  V30 853 H 85.1488 0.395429 0.633755 0
M  V30 854 H 87.8108 1.55984 1.16855 0
M  V30 855 H 86.9068 1.57195 2.69622 0
M  V30 856 N 87.2079 -1.17134 1.05439 0
M  V30 857 C 88.4539 -1.87733 0.767077 0
M  V30 858 C 88.7869 -1.8098 -0.704253 0
M  V30 859 O 88.0619 -1.21951 -1.5152 0
M  V30 860 C 88.3449 -3.37659 1.25133 0
M  V30 861 C 88.1979 -3.53149 2.78578 0
M  V30 862 C 89.5169 -4.31768 0.852324 0
M  V30 863 H 86.6359 -0.681687 0.280129 0
M  V30 864 H 89.2779 -1.37732 1.30881 0
M  V30 865 H 87.4279 -3.80373 0.790469 0
M  V30 866 H 89.0999 -3.19434 3.32806 0
M  V30 867 H 87.3429 -2.95345 3.17732 0
M  V30 868 H 88.0139 -4.58403 3.07523 0
M  V30 869 H 90.4899 -3.96909 1.24911 0
M  V30 870 H 89.3659 -5.35199 1.21873 0
M  V30 871 H 89.6269 -4.41429 -0.243485 0
M  V30 872 N 88.686 -0.835752 -1.33615 0
M  V30 873 C 89.916 -0.442701 -2.01801 0
M  V30 874 C 90.324 0.959807 -1.63047 0
M  V30 875 O 89.667 1.63468 -0.838088 0
M  V30 876 C 89.729 -0.480125 -3.56279 0
M  V30 877 C 89.393 -1.8382 -4.18401 0
M  V30 878 C 90.39 -2.80097 -4.37998 0
M  V30 879 C 88.075 -2.13019 -4.54894 0
M  V30 880 C 90.069 -4.03736 -4.9323 0
M  V30 881 C 87.756 -3.36916 -5.09834 0
M  V30 882 C 88.754 -4.32091 -5.28948 0
M  V30 883 O 88.442 -5.53797 -5.82721 0
M  V30 884 H 88.174 -0.17441 -0.653114 0
M  V30 885 H 90.728 -1.129 -1.71589 0
M  V30 886 H 88.958 0.262931 -3.85805 0
M  V30 887 H 90.647 -0.105335 -4.05763 0
M  V30 888 H 91.413 -2.58838 -4.10156 0
M  V30 889 H 87.292 -1.39733 -4.39313 0
M  V30 890 H 90.836 -4.78034 -5.08064 0
M  V30 891 H 86.733 -3.58033 -5.37106 0
M  V30 892 H 87.501 -5.55494 -6.0114 0
M  V30 893 N 90.1641 1.46063 -0.591896 0
M  V30 894 C 91.1271 2.28854 0.125973 0
M  V30 895 C 92.1271 1.38903 0.810107 0
M  V30 896 O 93.3171 1.61186 0.66066 0
M  V30 897 C 90.4491 3.19526 1.1881 0
M  V30 898 H 91.6421 2.93802 -0.601717 0
M  V30 899 H 89.1951 1.52325 -0.350254 0
M  V30 900 H 89.9301 2.59345 1.94707 0
M  V30 901 H 89.7151 3.85766 0.701936 0
M  V30 902 H 91.2051 3.81817 1.69132 0
M  V30 903 N 91.6422 0.330177 1.54103 0
M  V30 904 C 92.8702 -0.272179 2.05102 0
M  V30 905 C 93.2852 -1.45267 1.20595 0
M  V30 906 O 92.6422 -1.8094 0.238144 0
M  V30 907 C 92.6932 -0.70023 3.54653 0
M  V30 908 O 92.4142 0.433301 4.35952 0
M  V30 909 C 93.9152 -1.3647 4.21771 0
M  V30 910 H 91.1352 -0.0549159 0.668749 0
M  V30 911 H 93.6792 0.478285 1.98828 0
M  V30 912 H 91.8342 -1.40066 3.61193 0
M  V30 913 H 92.2482 0.0947539 5.24414 0
M  V30 914 H 93.7222 -1.61509 5.27843 0
M  V30 915 H 94.1992 -2.31409 3.73292 0
M  V30 916 H 94.8052 -0.706675 4.19388 0
M  V30 917 N 93.1203 -1.57491 0.0584922 0
M  V30 918 C 94.5363 -1.56792 -0.298091 0
M  V30 919 C 94.7363 -1.06679 -1.70944 0
M  V30 920 O 93.7923 -0.726672 -2.41818 0
M  V30 921 C 95.1053 -3.00461 -0.119879 0
M  V30 922 C 96.6533 -3.1242 -0.190428 0
M  V30 923 C 97.1283 -4.57982 -0.0406567 0
M  V30 924 N 98.6193 -4.63099 -0.0966958 0
M  V30 925 C 99.3543 -5.734 -0.00502943 0
M  V30 926 N 98.8503 -6.9266 0.139402 0
M  V30 927 N 100.643 -5.62067 -0.0611391 0
M  V30 928 H 92.7943 -1.88386 0.98105 0
M  V30 929 H 95.0573 -0.867865 0.381463 0
M  V30 930 H 94.7633 -3.41187 0.85349 0
M  V30 931 H 94.6373 -3.66843 -0.877833 0
M  V30 932 H 97.0243 -2.71589 -1.15427 0
M  V30 933 H 97.1053 -2.48702 0.598405 0
M  V30 934 H 96.7493 -4.995 0.919897 0
M  V30 935 H 96.6793 -5.19715 -0.848727 0
M  V30 936 H 99.1703 -3.77331 -0.207277 0
M  V30 937 H 99.4833 -7.72536 0.201855 0
M  V30 938 H 97.8283 -6.94781 0.174586 0
M  V30 939 H 101.019 -4.67782 -0.172583 0
M  V30 940 H 101.192 -6.47999 0.0137562 0
M  V30 941 N 94.5984 0.214957 -1.56127 0
M  V30 942 C 95.8234 0.95924 -1.83884 0
M  V30 943 C 96.2484 1.7689 -0.639644 0
M  V30 944 O 95.6064 1.76566 0.411601 0
M  V30 945 C 95.6544 1.84723 -3.09693 0
M  V30 946 O 94.7584 2.94346 -2.8885 0
M  V30 947 H 94.0994 0.27125 -0.606069 0
M  V30 948 H 96.6294 0.226276 -2.03345 0
M  V30 949 H 96.6394 2.25576 -3.39969 0
M  V30 950 H 95.3144 1.25218 -3.96602 0
M  V30 951 H 93.8914 2.57391 -2.69823 0
M  V30 952 N 96.0765 1.50051 0.48192 0
M  V30 953 C 97.3015 1.64508 1.26301 0
M  V30 954 C 97.7265 0.323851 1.85291 0
M  V30 955 O 97.0845 -0.710969 1.66778 0
M  V30 956 C 97.1325 2.7305 2.35533 0
M  V30 957 O 96.2365 2.3355 3.39895 0
M  V30 958 H 95.5775 0.549978 0.372048 0
M  V30 959 H 98.1075 1.9636 0.574786 0
M  V30 960 H 98.1175 2.95799 2.8101 0
M  V30 961 H 96.7925 3.68946 1.91967 0
M  V30 962 H 95.3695 2.21205 3.00204 0
M  V30 963 N 97.5546 -0.734337 1.39446 0
M  V30 964 C 98.5176 -1.83004 1.37994 0
M  V30 965 C 99.5176 -1.58397 0.276938 0
M  V30 966 O 100.708 -1.65785 0.534875 0
M  V30 967 C 97.8396 -3.20802 1.1532 0
M  V30 968 H 99.0326 -1.85694 2.35494 0
M  V30 969 H 96.5856 -0.938059 1.25021 0
M  V30 970 H 97.3206 -3.23772 0.185036 0
M  V30 971 H 97.1056 -3.4006 1.95197 0
M  V30 972 H 98.5956 -4.00862 1.17046 0
M  V30 973 N 99.0327 -1.24633 -0.964593 0
M  V30 974 C 100.279 -1.08949 -1.71049 0
M  V30 975 C 100.612 0.370302 -1.90637 0
M  V30 976 O 99.8867 1.27349 -1.47011 0
M  V30 977 C 100.17 -1.83329 -3.0994 0
M  V30 978 C 100.023 -3.37077 -2.97824 0
M  V30 979 C 101.342 -1.60846 -4.09654 0
M  V30 980 H 98.4607 -0.397178 -0.620821 0
M  V30 981 H 101.103 -1.5334 -1.12191 0
M  V30 982 H 99.2527 -1.45597 -3.60186 0
M  V30 983 H 100.925 -3.84425 -2.5498 0
M  V30 984 H 99.1677 -3.65298 -2.33965 0
M  V30 985 H 99.8387 -3.84324 -3.96231 0
M  V30 986 H 102.315 -1.93674 -3.68279 0
M  V30 987 H 101.191 -2.1534 -5.04896 0
M  V30 988 H 101.452 -0.547434 -4.38698 0
M  V30 989 N 100.511 1.16574 -1.06058 0
M  V30 990 C 101.927 1.3904 -0.783585 0
M  V30 991 C 102.127 1.91784 0.618145 0
M  V30 992 O 101.183 2.11511 1.37911 0
M  V30 993 C 102.496 2.37329 -1.84649 0
M  V30 994 C 104.044 2.51018 -1.86973 0
M  V30 995 C 104.519 3.52588 -2.92311 0
M  V30 996 N 106.01 3.60113 -2.91329 0
M  V30 997 C 106.745 4.38486 -3.69482 0
M  V30 998 N 106.241 5.20302 -4.57447 0
M  V30 999 N 108.034 4.33446 -3.57885 0
M  V30 1000 H 100.185 0.806725 -1.96483 0
M  V30 1001 H 102.448 0.417117 -0.851303 0
M  V30 1002 H 102.154 2.05663 -2.85299 0
M  V30 1003 H 102.028 3.36946 -1.6955 0
M  V30 1004 H 104.415 2.81989 -0.869827 0
M  V30 1005 H 104.496 1.51445 -2.0615 0
M  V30 1006 H 104.14 3.22354 -3.92492 0
M  V30 1007 H 104.07 4.51886 -2.70383 0
M  V30 1008 H 106.561 3.01707 -2.27555 0
M  V30 1009 H 106.874 5.77311 -5.13743 0
M  V30 1010 H 105.219 5.19653 -4.61503 0
M  V30 1011 H 108.41 3.68586 -2.88551 0
M  V30 1012 H 108.583 4.94279 -4.19037 0
M  V30 1013 N 101.989 0.842826 1.3317 0
M  V30 1014 C 102.919 0.294028 2.31641 0
M  V30 1015 C 103.9 -0.600401 1.59151 0
M  V30 1016 O 105.085 -0.523124 1.87022 0
M  V30 1017 C 102.215 -0.528416 3.43257 0
M  V30 1018 C 101.169 0.27056 4.27144 0
M  V30 1019 C 100.495 -0.675881 5.30411 0
M  V30 1020 C 101.795 1.48981 5.00602 0
M  V30 1021 H 103.489 1.11681 2.77791 0
M  V30 1022 H 101.035 0.538478 1.33553 0
M  V30 1023 H 102.988 -0.922674 4.11175 0
M  V30 1024 H 101.712 -1.38445 2.95805 0
M  V30 1025 H 100.371 0.646427 3.60856 0
M  V30 1026 H 100.019 -1.52842 4.79216 0
M  V30 1027 H 99.7189 -0.145374 5.8742 0
M  V30 1028 H 101.243 -1.06757 6.01195 0
M  V30 1029 H 102.657 1.16849 5.61266 0
M  V30 1030 H 101.054 1.95739 5.6728 0
M  V30 1031 H 102.124 2.25746 4.29147 0
M  V30 1032 N 103.467 -1.45747 0.599634 0
M  V30 1033 C 104.883 -1.57424 0.26264 0
M  V30 1034 C 105.083 -1.59222 -1.23493 0
M  V30 1035 O 104.139 -1.51825 -2.01756 0
M  V30 1036 C 105.452 -2.86061 0.926795 0
M  V30 1037 C 107 -2.99722 0.901967 0
M  V30 1038 C 107.475 -4.31119 1.54598 0
M  V30 1039 N 108.966 -4.37858 1.5111 0
M  V30 1040 C 109.701 -5.3818 1.97863 0
M  V30 1041 N 109.197 -6.45083 2.52666 0
M  V30 1042 N 110.99 -5.29487 1.88679 0
M  V30 1043 H 103.141 -1.42823 1.57211 0
M  V30 1044 H 105.404 -0.68235 0.658105 0
M  V30 1045 H 105.11 -2.90605 1.98095 0
M  V30 1046 H 104.984 -3.74563 0.445238 0
M  V30 1047 H 107.371 -2.9475 -0.143617 0
M  V30 1048 H 107.452 -2.12652 1.42171 0
M  V30 1049 H 107.096 -4.36849 2.59085 0
M  V30 1050 H 107.026 -5.16992 1.00132 0
M  V30 1051 H 109.517 -3.61209 1.11068 0
M  V30 1052 H 109.83 -7.17869 2.86155 0
M  V30 1053 H 108.175 -6.45856 2.56701 0
M  V30 1054 H 111.366 -4.44877 1.4561 0
M  V30 1055 H 111.539 -6.07524 2.25429 0
M  V30 1056 N 104.945 -0.338344 -1.53925 0
M  V30 1057 C 106.17 0.263987 -2.05713 0
M  V30 1058 C 106.595 1.43847 -1.21201 0
M  V30 1059 O 105.953 1.79904 -0.224535 0
M  V30 1060 C 106.001 0.662 -3.54471 0
M  V30 1061 O 105.105 1.76265 -3.72833 0
M  V30 1062 H 104.446 0.0448722 -0.662482 0
M  V30 1063 H 106.976 -0.491048 -1.9862 0
M  V30 1064 H 106.986 0.940594 -3.9701 0
M  V30 1065 H 105.661 -0.196937 -4.15433 0
M  V30 1066 H 104.238 1.48173 -3.42198 0
M  V30 1067 N 106.423 1.57458 -0.0668435 0
M  V30 1068 C 107.648 1.9804 0.616027 0
M  V30 1069 C 108.073 0.944771 1.62652 0
M  V30 1070 O 107.431 -0.0902094 1.81075 0
M  V30 1071 C 107.479 3.37665 1.26549 0
M  V30 1072 O 106.583 3.36701 2.38131 0
M  V30 1073 H 105.924 0.644719 0.158849 0
M  V30 1074 H 108.454 2.04121 -0.139891 0
M  V30 1075 H 108.464 3.7474 1.6135 0
M  V30 1076 H 107.139 4.12573 0.525016 0
M  V30 1077 H 105.716 3.1139 2.0516 0
M  V30 1078 N 107.901 -0.206675 1.56239 0
M  V30 1079 C 109.147 -0.930218 1.80208 0
M  V30 1080 C 109.48 -1.83387 0.638981 0
M  V30 1081 O 108.755 -1.91119 -0.361066 0
M  V30 1082 C 109.038 -1.75641 3.1436 0
M  V30 1083 C 108.891 -0.878257 4.41142 0
M  V30 1084 C 110.21 -2.73129 3.45092 0
M  V30 1085 H 107.329 -0.336742 0.655571 0
M  V30 1086 H 109.971 -0.198222 1.88963 0
M  V30 1087 H 108.121 -2.38048 3.07027 0
M  V30 1088 H 109.793 -0.269787 4.6051 0
M  V30 1089 H 108.036 -0.184385 4.33408 0
M  V30 1090 H 108.707 -1.49106 5.3148 0
M  V30 1091 H 111.183 -2.20856 3.52649 0
M  V30 1092 H 110.059 -3.28028 4.40101 0
M  V30 1093 H 110.32 -3.51606 2.68003 0
M  V30 1094 N 109.379 -1.50304 -0.473955 0
M  V30 1095 C 110.79 -1.54042 -1.0549 0
M  V30 1096 C 111.141 -0.342248 -1.93192 0
M  V30 1097 O 110.266 0.545157 -2.09421 0
M  V30 1098 C 110.861 -2.79152 -1.91989 0
M  V30 1099 C 109.42 -2.8558 -2.45196 0
M  V30 1100 C 108.567 -2.48295 -1.2347 0
M  V30 1101 H 111.518 -1.5661 -0.256693 0
M  V30 1102 H 111.539 -2.60845 -2.7702 0
M  V30 1103 H 111.051 -3.66339 -1.28131 0
M  V30 1104 H 109.152 -2.02738 -3.12615 0
M  V30 1105 H 109.265 -3.88403 -2.80499 0
M  V30 1106 H 107.629 -2.00669 -1.56856 0
M  V30 1107 H 108.412 -3.37787 -0.612789 0
M  V30 1108 N 110.857 0.726932 -1.39834 0
M  V30 1109 C 112.105 1.4837 -1.37225 0
M  V30 1110 C 112.426 1.94979 0.0284857 0
M  V30 1111 O 111.696 1.69555 0.981213 0
M  V30 1112 H 110.276 0.55043 -0.505011 0
M  V30 1113 H 112.938 0.862468 -1.74778 0
M  V30 1114 H 112.034 2.36198 -2.04003 0
M  V30 1115 N 112.336 1.25143 0.95797 0
M  V30 1116 C 113.582 1.09855 1.70469 0
M  V30 1117 C 113.915 -0.360187 1.90831 0
M  V30 1118 O 113.19 -1.26568 1.47685 0
M  V30 1119 C 113.473 1.8497 3.08963 0
M  V30 1120 C 113.326 3.38652 2.96032 0
M  V30 1121 C 114.645 1.63016 4.08795 0
M  V30 1122 H 111.764 0.400465 0.618706 0
M  V30 1123 H 114.406 1.53933 1.11376 0
M  V30 1124 H 112.556 1.47505 3.59409 0
M  V30 1125 H 114.228 3.85772 2.52938 0
M  V30 1126 H 112.471 3.66534 2.32025 0
M  V30 1127 H 113.142 3.8642 3.94187 0
M  V30 1128 H 115.618 1.95625 3.67247 0
M  V30 1129 H 114.494 2.18015 5.03747 0
M  V30 1130 H 114.755 0.570692 4.38401 0
M  V30 1131 N 113.814 -1.1601 1.06675 0
M  V30 1132 C 115.23 -1.38622 0.790948 0
M  V30 1133 C 115.43 -1.92109 -0.607965 0
M  V30 1134 O 114.486 -2.12239 -1.36787 0
M  V30 1135 C 115.799 -2.36347 1.85905 0
M  V30 1136 C 117.347 -2.50023 1.88301 0
M  V30 1137 C 117.822 -3.51033 2.94176 0
M  V30 1138 N 119.313 -3.58563 2.93235 0
M  V30 1139 C 120.048 -4.36521 3.71803 0
M  V30 1140 N 119.544 -5.17869 4.602 0
M  V30 1141 N 121.337 -4.31541 3.60178 0
M  V30 1142 H 113.488 -0.796294 1.96908 0
M  V30 1143 H 115.751 -0.412597 0.853503 0
M  V30 1144 H 115.457 -2.04147 2.86386 0
M  V30 1145 H 115.331 -3.36042 1.71334 0
M  V30 1146 H 117.718 -2.81524 0.884769 0
M  V30 1147 H 117.799 -1.5035 2.06951 0
M  V30 1148 H 117.443 -3.20268 3.94196 0
M  V30 1149 H 117.373 -4.50445 2.72776 0
M  V30 1150 H 119.864 -3.00496 2.29152 0
M  V30 1151 H 120.177 -5.74578 5.16797 0
M  V30 1152 H 118.522 -5.17199 4.64253 0
M  V30 1153 H 121.713 -3.67051 2.90502 0
M  V30 1154 H 121.886 -4.9205 4.21653 0
M  V30 1155 N 115.292 -0.849877 -1.32721 0
M  V30 1156 C 116.222 -0.306308 -2.31482 0
M  V30 1157 C 117.203 0.591952 -1.59468 0
M  V30 1158 O 118.388 0.513199 -1.87296 0
M  V30 1159 C 115.518 0.510204 -3.43532 0
M  V30 1160 C 114.472 -0.293209 -4.26994 0
M  V30 1161 C 113.798 0.647743 -5.30762 0
M  V30 1162 C 115.098 -1.51634 -4.99804 0
M  V30 1163 H 116.792 -1.13153 -2.77195 0
M  V30 1164 H 114.338 -0.545553 -1.33266 0
M  V30 1165 H 116.291 0.900856 -4.11658 0
M  V30 1166 H 115.015 1.36874 -2.96535 0
M  V30 1167 H 113.674 -0.665555 -3.60508 0
M  V30 1168 H 113.322 1.50299 -4.8002 0
M  V30 1169 H 113.022 0.11422 -5.87489 0
M  V30 1170 H 114.546 1.03567 -6.01753 0
M  V30 1171 H 115.96 -1.19824 -5.60638 0
M  V30 1172 H 114.357 -1.98745 -5.66234 0
M  V30 1173 H 115.427 -2.28018 -4.27943 0
M  V30 1174 N 116.77 1.45427 -0.607355 0
M  V30 1175 C 117.7 2.3329 0.0989352 0
M  V30 1176 C 118.681 1.46816 0.859007 0
M  V30 1177 O 119.866 1.75588 0.829604 0
M  V30 1178 C 116.996 3.29518 1.09705 0
M  V30 1179 C 115.95 4.25626 0.450206 0
M  V30 1180 C 115.276 5.11542 1.55655 0
M  V30 1181 C 116.576 5.18505 -0.628455 0
M  V30 1182 H 118.27 2.92595 -0.634716 0
M  V30 1183 H 115.816 1.40696 -0.306681 0
M  V30 1184 H 117.769 3.89855 1.59971 0
M  V30 1185 H 116.493 2.68372 1.86129 0
M  V30 1186 H 115.152 3.66586 -0.0315886 0
M  V30 1187 H 114.8 4.46765 2.31107 0
M  V30 1188 H 114.5 5.76647 1.12925 0
M  V30 1189 H 116.024 5.74748 2.06148 0
M  V30 1190 H 117.438 5.72916 -0.209877 0
M  V30 1191 H 115.835 5.92085 -0.977489 0
M  V30 1192 H 116.905 4.60948 -1.50514 0
M  V30 1193 N 118.248 0.346503 1.53744 0
M  V30 1194 C 119.18 -0.543316 2.22667 0
M  V30 1195 C 120.193 -1.06159 1.23427 0
M  V30 1196 O 121.382 -0.971235 1.49764 0
M  V30 1197 C 118.482 -1.76076 2.89569 0
M  V30 1198 C 117.655 -1.37727 4.15151 0
M  V30 1199 C 116.714 -2.45471 4.65436 0
M  V30 1200 O 115.74 -2.08655 5.29577 0
M  V30 1201 N 116.942 -3.7677 4.41616 0
M  V30 1202 H 119.707 0.0469703 2.99663 0
M  V30 1203 H 117.268 0.170766 1.60997 0
M  V30 1204 H 119.26 -2.47593 3.20125 0
M  V30 1205 H 117.83 -2.25835 2.16142 0
M  V30 1206 H 117.05 -0.492746 3.91108 0
M  V30 1207 H 118.338 -1.09708 4.96832 0
M  V30 1208 H 117.736 -4.09467 3.90325 0
M  V30 1209 H 116.293 -4.44448 4.7677 0
M  V30 1210 N 119.726 -1.57421 0.075193 0
M  V30 1211 C 121.003 -1.85029 -0.634329 0
M  V30 1212 C 121.383 -0.968305 -1.87582 0
M  V30 1213 O 120.731 -0.0354749 -2.28472 0
M  V30 1214 C 120.941 -3.35286 -0.968742 0
M  V30 1215 C 122.289 -4.02875 -1.34077 0
M  V30 1216 O 123.313 -3.40051 -1.06037 0
M  V30 1217 O 122.172 -5.13691 -1.86506 0
M  V30 1218 H 119.266 -0.7645 -0.315387 0
M  V30 1219 H 121.812 -1.69366 0.106382 0
M  V30 1220 H 120.584 -3.91203 -0.0871376 0
M  V30 1221 H 120.207 -3.56223 -1.7661 0
M  V30 1222 N 121.204 0.198386 -1.56346 0
M  V30 1223 C 122.429 0.939682 -1.84891 0
M  V30 1224 C 122.854 1.76202 -0.658369 0
M  V30 1225 O 122.212 1.76993 0.392851 0
M  V30 1226 C 122.26 1.81428 -3.11635 0
M  V30 1227 O 121.364 2.91265 -2.91956 0
M  V30 1228 H 120.705 0.264807 -0.608912 0
M  V30 1229 H 123.235 0.204695 -2.03573 0
M  V30 1230 H 123.245 2.21958 -3.42343 0
M  V30 1231 H 121.92 1.21004 -3.97908 0
M  V30 1232 H 120.497 2.54514 -2.72538 0
M  V30 1233 N 122.682 1.50554 0.465978 0
M  V30 1234 C 123.928 1.62038 1.21949 0
M  V30 1235 C 124.261 0.322116 1.9151 0
M  V30 1236 O 123.536 -0.676723 1.82348 0
M  V30 1237 C 123.819 2.80421 2.25912 0
M  V30 1238 C 123.672 4.20144 1.60622 0
M  V30 1239 C 124.991 2.94354 3.27176 0
M  V30 1240 H 122.11 0.589752 0.441998 0
M  V30 1241 H 124.752 1.82956 0.51257 0
M  V30 1242 H 122.902 2.62717 2.86203 0
M  V30 1243 H 124.574 4.49449 1.03889 0
M  V30 1244 H 122.817 4.24165 0.909211 0
M  V30 1245 H 123.488 4.98914 2.36196 0
M  V30 1246 H 125.964 3.10578 2.76913 0
M  V30 1247 H 124.84 3.788 3.97242 0
M  V30 1248 H 125.101 2.05186 3.916 0
M  V30 1249 N 124.16 -0.719506 1.40217 0
M  V30 1250 C 125.437 -1.47221 1.28784 0
M  V30 1251 C 125.817 -2.10883 -0.0956067 0
M  V30 1252 O 125.165 -1.99833 -1.10811 0
M  V30 1253 C 125.375 -2.5111 2.42373 0
M  V30 1254 C 126.723 -3.17053 2.82423 0
M  V30 1255 O 127.747 -2.61429 2.41937 0
M  V30 1256 O 126.606 -4.17742 3.52355 0
M  V30 1257 H 123.7 -0.654491 0.50554 0
M  V30 1258 H 126.246 -0.752014 1.52128 0
M  V30 1259 H 125.018 -2.02556 3.34793 0
M  V30 1260 H 124.641 -3.3067 2.20778 0
M  V30 1261 N 125.638 -1.25649 -0.95132 0
M  V30 1262 C 126.885 -1.10594 -1.69633 0
M  V30 1263 C 127.213 0.352515 -1.91279 0
M  V30 1264 O 126.468 1.27601 -1.4838 0
M  V30 1265 C 126.767 -1.80909 -3.08231 0
M  V30 1266 C 126.433 -3.30825 -3.06375 0
M  V30 1267 C 125.095 -3.71722 -3.05576 0
M  V30 1268 C 127.447 -4.26589 -2.99452 0
M  V30 1269 C 124.775 -5.06788 -2.95606 0
M  V30 1270 C 127.127 -5.61683 -2.91024 0
M  V30 1271 C 125.791 -6.01904 -2.88562 0
M  V30 1272 H 125.061 -0.404691 -0.620731 0
M  V30 1273 H 127.708 -1.55964 -1.11119 0
M  V30 1274 H 126.013 -1.27979 -3.70309 0
M  V30 1275 H 127.71 -1.6671 -3.64704 0
M  V30 1276 H 124.3 -2.98287 -3.07771 0
M  V30 1277 H 128.484 -3.95982 -2.99185 0
M  V30 1278 H 123.74 -5.37126 -2.92071 0
M  V30 1279 H 127.914 -6.35578 -2.84629 0
M  V30 1280 H 125.541 -7.06521 -2.80593 0
M  V30 1281 N 127.117 1.15442 -1.07289 0
M  V30 1282 C 128.342 1.90638 -0.816828 0
M  V30 1283 C 128.767 1.77445 0.624083 0
M  V30 1284 O 128.125 1.10671 1.43602 0
M  V30 1285 C 128.173 3.39008 -1.22906 0
M  V30 1286 O 127.277 4.10701 -0.373975 0
M  V30 1287 H 126.618 0.593555 -0.297638 0
M  V30 1288 H 129.148 1.46198 -1.43134 0
M  V30 1289 H 129.158 3.89801 -1.20497 0
M  V30 1290 H 127.833 3.47929 -2.27856 0
M  V30 1291 H 126.41 3.70046 -0.460499 0
M  V30 1292 N 128.595 0.856903 1.32268 0
M  V30 1293 C 129.525 0.31858 2.31316 0
M  V30 1294 C 130.506 -0.583487 1.59779 0
M  V30 1295 O 131.691 -0.503259 1.87566 0
M  V30 1296 C 128.821 -0.491979 3.43798 0
M  V30 1297 C 127.775 0.315849 4.26833 0
M  V30 1298 C 127.101 -0.619586 5.31098 0
M  V30 1299 C 128.401 1.54282 4.98993 0
M  V30 1300 H 130.095 1.14621 2.76591 0
M  V30 1301 H 127.641 0.552613 1.32974 0
M  V30 1302 H 129.594 -0.879012 4.1213 0
M  V30 1303 H 128.318 -1.35299 2.97257 0
M  V30 1304 H 126.977 0.684664 3.6015 0
M  V30 1305 H 126.625 -1.47751 4.8081 0
M  V30 1306 H 126.325 -0.0830621 5.87541 0
M  V30 1307 H 127.849 -1.00375 6.02293 0
M  V30 1308 H 129.263 1.22796 5.59995 0
M  V30 1309 H 127.66 2.01745 5.65172 0
M  V30 1310 H 128.73 2.30285 4.26728 0
M  V30 1311 N 130.073 -1.45103 0.615059 0
M  V30 1312 C 131.036 -2.29025 -0.0895485 0
M  V30 1313 C 132.036 -1.40174 -0.787906 0
M  V30 1314 O 133.226 -1.62217 -0.634933 0
M  V30 1315 C 130.358 -3.21376 -1.13711 0
M  V30 1316 H 131.551 -2.92807 0.648382 0
M  V30 1317 H 129.104 -1.51749 0.374444 0
M  V30 1318 H 129.839 -2.6241 -1.90556 0
M  V30 1319 H 129.624 -3.86834 -0.640475 0
M  V30 1320 H 131.114 -3.84459 -1.63036 0
M  V30 1321 N 131.551 -0.354651 -1.53558 0
M  V30 1322 C 132.828 0.294281 -1.93374 0
M  V30 1323 C 133.208 1.67313 -1.28723 0
M  V30 1324 O 132.556 2.24179 -0.442247 0
M  V30 1325 C 132.766 0.355445 -3.47185 0
M  V30 1326 C 134.114 0.601007 -4.20325 0
M  V30 1327 O 135.138 0.437106 -3.53508 0
M  V30 1328 O 133.997 0.919322 -5.38712 0
M  V30 1329 H 131.091 0.174033 -0.808481 0
M  V30 1330 H 133.637 -0.406638 -1.64756 0
M  V30 1331 H 132.409 -0.611729 -3.86489 0
M  V30 1332 H 132.032 1.1027 -3.82003 0
M  V30 1333 N 133.029 1.57378 -0.0835403 0
M  V30 1334 C 133.992 2.12252 0.864959 0
M  V30 1335 C 134.992 1.04916 1.21858 0
M  V30 1336 O 136.182 1.30853 1.14991 0
M  V30 1337 C 133.314 2.63358 2.16461 0
M  V30 1338 H 134.507 2.97371 0.388676 0
M  V30 1339 H 132.06 1.55423 0.165317 0
M  V30 1340 H 132.795 1.81727 2.686 0
M  V30 1341 H 132.58 3.41826 1.92087 0
M  V30 1342 H 134.07 3.05847 2.84337 0
M  V30 1343 N 134.507 -0.190092 1.56449 0
M  V30 1344 C 135.756 -0.907912 1.80111 0
M  V30 1345 C 136.069 -1.84214 0.657619 0
M  V30 1346 O 137.275 -2.60094 0.778663 0
M  V30 1347 C 135.731 -1.66485 3.19078 0
M  V30 1348 C 135.339 -0.7752 4.41242 0
M  V30 1349 C 137.083 -2.37201 3.52045 0
M  V30 1350 C 134.99 -1.53129 5.71231 0
M  V30 1351 H 133.92 -0.34276 0.671589 0
M  V30 1352 H 136.571 -0.161109 1.82791 0
M  V30 1353 H 134.953 -2.45572 3.10661 0
M  V30 1354 H 136.127 -0.0226298 4.60794 0
M  V30 1355 H 134.442 -0.178627 4.16017 0
M  V30 1356 H 137.039 -2.94329 4.46402 0
M  V30 1357 H 137.382 -3.11632 2.76028 0
M  V30 1358 H 137.915 -1.65075 3.61932 0
M  V30 1359 H 134.654 -0.82967 6.50228 0
M  V30 1360 H 134.174 -2.25767 5.55688 0
M  V30 1361 H 135.853 -2.08377 6.12526 0
M  V30 1362 N 135.985 -1.50799 -0.457987 0
M  V30 1363 C 136.933 -1.71162 -1.575 0
M  V30 1364 C 137.927 -0.577592 -1.59249 0
M  V30 1365 O 139.133 -0.758443 -1.63241 0
M  V30 1366 H 135.508 -0.540468 -0.522875 0
M  V30 1367 H 137.479 -2.64837 -1.37492 0
M  V30 1368 C 136.228 -1.83496 -2.95338 0
M  V30 1369 H 135.551 -2.70153 -2.94716 0
M  V30 1370 H 136.991 -2.01765 -3.72917 0
M  V30 1371 C 135.45 -0.589694 -3.31699 0
M  V30 1372 O 135.98 0.265163 -4.00824 0
M  V30 1373 N 134.186 -0.439845 -2.87252 0
M  V30 1374 H 133.733 -1.13655 -2.31172 0
M  V30 1375 H 133.691 0.392159 -3.11945 0
M  V30 1376 N 137.463 0.71206 -1.40597 0
M  V30 1377 C 138.691 1.50111 -1.42388 0
M  V30 1378 C 139.106 1.88784 -0.0245395 0
M  V30 1379 O 138.463 1.55681 0.952351 0
M  V30 1380 C 138.514 2.7742 -2.31776 0
M  V30 1381 O 138.235 2.40382 -3.66262 0
M  V30 1382 C 139.736 3.7129 -2.42196 0
M  V30 1383 H 136.956 0.46314 -0.485533 0
M  V30 1384 H 139.5 0.878068 -1.8469 0
M  V30 1385 H 137.655 3.36001 -1.92827 0
M  V30 1386 H 138.069 3.22324 -4.13772 0
M  V30 1387 H 139.543 4.57448 -3.08943 0
M  V30 1388 H 140.02 4.14641 -1.44809 0
M  V30 1389 H 140.626 3.18619 -2.81712 0
M  V30 1390 N 138.941 1.26152 0.944643 0
M  V30 1391 C 139.851 1.09176 2.07648 0
M  V30 1392 C 140.867 0.0261935 1.7398 0
M  V30 1393 O 142.043 0.229208 2.00091 0
M  V30 1394 C 139.108 0.722915 3.39079 0
M  V30 1395 C 138.169 1.86752 3.86552 0
M  V30 1396 C 137.402 1.51617 5.11711 0
M  V30 1397 O 137.625 0.416331 5.68879 0
M  V30 1398 O 136.559 2.34975 5.54139 0
M  V30 1399 H 140.385 2.0412 2.24875 0
M  V30 1400 H 137.97 1.05182 1.061 0
M  V30 1401 H 139.852 0.529787 4.18056 0
M  V30 1402 H 138.527 -0.197159 3.23099 0
M  V30 1403 H 137.434 2.11558 3.08535 0
M  V30 1404 H 138.767 2.76719 4.07047 0
M  V30 1405 N 140.419 -1.14872 1.07899 0
M  V30 1406 C 141.666 -1.85789 0.805532 0
M  V30 1407 C 141.994 -1.82649 -0.668561 0
M  V30 1408 O 141.249 -1.24858 -1.50695 0
M  V30 1409 C 141.548 -3.34223 1.26609 0
M  V30 1410 C 141.214 -3.57555 2.74709 0
M  V30 1411 C 139.876 -3.63631 3.1516 0
M  V30 1412 C 142.228 -3.66803 3.70277 0
M  V30 1413 C 139.556 -3.76473 4.49983 0
M  V30 1414 C 141.908 -3.8117 5.04869 0
M  V30 1415 C 140.572 -3.85494 5.44932 0
M  V30 1416 H 139.842 -0.679849 0.294765 0
M  V30 1417 H 142.489 -1.3572 1.35101 0
M  V30 1418 H 140.794 -3.86536 0.640103 0
M  V30 1419 H 142.491 -3.87511 1.03132 0
M  V30 1420 H 139.081 -3.5347 2.42398 0
M  V30 1421 H 143.265 -3.61404 3.40149 0
M  V30 1422 H 138.521 -3.7808 4.80484 0
M  V30 1423 H 142.695 -3.87268 5.78789 0
M  V30 1424 H 140.322 -3.95197 6.49403 0
M  V30 1425 N 141.898 -0.863906 -1.31812 0
M  V30 1426 C 142.845 -0.313303 -2.28664 0
M  V30 1427 C 143.815 0.584868 -1.55462 0
M  V30 1428 O 145 0.517805 -1.83639 0
M  V30 1429 C 142.14 0.48441 -3.41683 0
M  V30 1430 C 141.253 -0.440594 -4.29747 0
M  V30 1431 C 140.388 0.370652 -5.29905 0
M  V30 1432 C 139.427 -0.551164 -6.09613 0
M  V30 1433 N 138.564 0.223462 -7.01744 0
M  V30 1434 H 143.404 -1.14444 -2.75148 0
M  V30 1435 H 140.941 -0.575769 -1.35364 0
M  V30 1436 H 142.899 0.962627 -4.05943 0
M  V30 1437 H 141.529 1.28029 -2.96325 0
M  V30 1438 H 140.581 -1.03724 -3.65986 0
M  V30 1439 H 141.893 -1.14767 -4.85417 0
M  V30 1440 H 141.047 0.911638 -5.99812 0
M  V30 1441 H 139.786 1.11105 -4.74876 0
M  V30 1442 H 138.791 -1.10396 -5.38603 0
M  V30 1443 H 140.016 -1.29032 -6.66729 0
M  V30 1444 H 137.962 0.946787 -6.49132 0
M  V30 1445 H 137.879 -0.424399 -7.54808 0
M  V30 1446 H 139.147 0.745876 -7.75923 0
M  V30 1447 N 143.376 1.44774 -0.622745 0
M  V30 1448 C 144.324 2.32387 0.0994683 0
M  V30 1449 C 145.318 1.46859 0.844326 0
M  V30 1450 O 146.524 1.63254 0.758174 0
M  V30 1451 H 142.899 0.750273 0.0509291 0
M  V30 1452 H 144.87 2.91062 -0.65767 0
M  V30 1453 C 143.619 3.30723 1.07319 0
M  V30 1454 H 142.942 3.96541 0.509462 0
M  V30 1455 H 144.382 3.94725 1.54817 0
M  V30 1456 C 142.841 2.59021 2.15429 0
M  V30 1457 O 143.371 2.38286 3.23393 0
M  V30 1458 N 141.577 2.189 1.91131 0
M  V30 1459 H 141.124 2.35964 1.03337 0
M  V30 1460 H 141.082 1.71251 2.63668 0
M  V30 1461 N 144.854 0.36279 1.53368 0
M  V30 1462 C 146.082 -0.228613 2.05633 0
M  V30 1463 C 146.497 -1.42676 1.23649 0
M  V30 1464 O 145.854 -1.80394 0.27647 0
M  V30 1465 C 145.905 -0.624845 3.56059 0
M  V30 1466 O 145.626 0.525675 4.34935 0
M  V30 1467 C 147.127 -1.27493 4.24571 0
M  V30 1468 H 144.347 -0.0407183 0.669763 0
M  V30 1469 H 146.891 0.520352 1.97769 0
M  V30 1470 H 145.046 -1.32373 3.64083 0
M  V30 1471 H 145.46 0.205969 5.24095 0
M  V30 1472 H 146.934 -1.50277 5.31151 0
M  V30 1473 H 147.411 -2.23439 3.78116 0
M  V30 1474 H 148.017 -0.617558 4.20792 0
M  V30 1475 N 146.332 -1.57332 0.0918853 0
M  V30 1476 C 147.748 -1.57389 -0.264766 0
M  V30 1477 C 147.948 -1.10281 -1.68643 0
M  V30 1478 O 147.004 -0.777801 -2.40222 0
M  V30 1479 C 148.317 -3.00648 -0.0561195 0
M  V30 1480 C 149.865 -3.12754 -0.124116 0
M  V30 1481 C 150.34 -4.57965 0.0564972 0
M  V30 1482 N 151.831 -4.632 0.00155611 0
M  V30 1483 C 152.566 -5.73281 0.116598 0
M  V30 1484 N 152.062 -6.92208 0.286294 0
M  V30 1485 N 153.855 -5.6207 0.0580973 0
M  V30 1486 H 146.006 -1.86262 1.02079 0
M  V30 1487 H 148.269 -0.859579 0.399786 0
M  V30 1488 H 147.975 -3.393 0.925669 0
M  V30 1489 H 147.849 -3.68623 -0.799823 0
M  V30 1490 H 150.236 -2.73976 -1.09641 0
M  V30 1491 H 150.317 -2.47377 0.651024 0
M  V30 1492 H 149.961 -4.97436 1.02564 0
M  V30 1493 H 149.891 -5.21399 -0.738297 0
M  V30 1494 H 152.382 -3.77686 -0.127192 0
M  V30 1495 H 152.695 -7.71934 0.365676 0
M  V30 1496 H 151.04 -6.94254 0.32192 0
M  V30 1497 H 154.231 -4.68043 -0.0733204 0
M  V30 1498 H 154.404 -6.47824 0.151203 0
M  V30 1499 N 147.81 0.181792 -1.56548 0
M  V30 1500 C 149.038 0.915947 -1.85521 0
M  V30 1501 C 149.453 1.76282 -0.676016 0
M  V30 1502 O 148.81 1.79012 0.355077 0
M  V30 1503 C 148.861 1.80126 -3.13427 0
M  V30 1504 O 148.582 0.988562 -4.26801 0
M  V30 1505 C 150.083 2.64597 -3.55673 0
M  V30 1506 H 147.303 0.26661 -0.61576 0
M  V30 1507 H 149.847 0.185039 -2.03661 0
M  V30 1508 H 148.002 2.48563 -2.97145 0
M  V30 1509 H 148.416 1.59308 -4.99721 0
M  V30 1510 H 149.89 3.2235 -4.48101 0
M  V30 1511 H 150.367 3.38958 -2.79292 0
M  V30 1512 H 150.973 2.0151 -3.74532 0
M  V30 1513 N 149.288 1.51039 0.449983 0
M  V30 1514 C 150.236 1.71995 1.5659 0
M  V30 1515 C 151.23 0.586029 1.5894 0
M  V30 1516 O 152.436 0.76709 1.62837 0
M  V30 1517 H 148.811 0.543233 0.520001 0
M  V30 1518 H 150.782 2.65562 1.36085 0
M  V30 1519 C 149.531 1.8506 2.9436 0
M  V30 1520 H 148.854 2.71712 2.93279 0
M  V30 1521 H 150.294 2.0374 3.71842 0
M  V30 1522 C 148.753 0.607277 3.31382 0
M  V30 1523 O 149.283 -0.243903 4.00959 0
M  V30 1524 N 147.489 0.455073 2.87015 0
M  V30 1525 H 147.036 1.14879 2.30566 0
M  V30 1526 H 146.994 -0.375611 3.12148 0
M  V30 1527 N 150.766 -0.704594 1.40972 0
M  V30 1528 C 151.676 -1.84856 1.44448 0
M  V30 1529 C 152.692 -1.70726 0.335961 0
M  V30 1530 O 153.868 -1.92799 0.582276 0
M  V30 1531 C 150.933 -3.20758 1.31587 0
M  V30 1532 C 149.994 -3.47063 2.52677 0
M  V30 1533 C 149.227 -4.76481 2.4042 0
M  V30 1534 O 149.45 -5.52341 1.42391 0
M  V30 1535 O 148.384 -5.03367 3.30007 0
M  V30 1536 H 152.21 -1.8488 2.40942 0
M  V30 1537 H 149.795 -0.85647 1.22413 0
M  V30 1538 H 151.677 -4.01913 1.26665 0
M  V30 1539 H 150.352 -3.21438 0.382049 0
M  V30 1540 H 149.259 -2.65873 2.63177 0
M  V30 1541 H 150.592 -3.5119 3.44858 0
M  V30 1542 N 152.244 -1.26651 -0.937939 0
M  V30 1543 C 153.191 -1.0849 -2.03712 0
M  V30 1544 C 154.161 0.011033 -1.66096 0
M  V30 1545 O 155.346 -0.149353 -1.90215 0
M  V30 1546 C 152.486 -0.72735 -3.37348 0
M  V30 1547 C 151.599 -1.89986 -3.87981 0
M  V30 1548 C 150.734 -1.48513 -5.10017 0
M  V30 1549 C 149.773 -2.62575 -5.5292 0
M  V30 1550 N 148.91 -2.21762 -6.66158 0
M  V30 1551 H 153.75 -2.02551 -2.18579 0
M  V30 1552 H 151.287 -1.00844 -1.07093 0
M  V30 1553 H 153.245 -0.50092 -4.14182 0
M  V30 1554 H 151.875 0.176298 -3.22318 0
M  V30 1555 H 150.927 -2.23913 -3.07518 0
M  V30 1556 H 152.239 -2.75586 -4.15757 0
M  V30 1557 H 151.393 -1.21934 -5.94321 0
M  V30 1558 H 150.132 -0.60009 -4.83994 0
M  V30 1559 H 149.137 -2.8988 -4.67172 0
M  V30 1560 H 150.362 -3.51685 -5.80943 0
M  V30 1561 H 148.308 -1.35696 -6.41812 0
M  V30 1562 H 148.225 -3.00903 -6.93537 0
M  V30 1563 H 149.493 -1.98403 -7.53828 0
M  V30 1564 N 153.722 1.14298 -1.08507 0
M  V30 1565 C 154.968 1.85633 -0.816581 0
M  V30 1566 C 155.301 1.82784 0.656021 0
M  V30 1567 O 154.576 1.25926 1.48233 0
M  V30 1568 C 154.859 3.34223 -1.34041 0
M  V30 1569 C 154.712 3.45639 -2.87843 0
M  V30 1570 C 156.031 4.29356 -0.9665 0
M  V30 1571 H 153.15 0.67402 -0.298104 0
M  V30 1572 H 155.792 1.34214 -1.34487 0
M  V30 1573 H 153.942 3.78144 -0.89104 0
M  V30 1574 H 155.614 3.10498 -3.41158 0
M  V30 1575 H 153.857 2.86817 -3.25451 0
M  V30 1576 H 154.528 4.50089 -3.19569 0
M  V30 1577 H 157.004 3.93457 -1.35391 0
M  V30 1578 H 155.88 5.3178 -1.3602 0
M  V30 1579 H 156.141 4.41919 0.126362 0
M  V30 1580 N 155.201 0.870884 1.31352 0
M  V30 1581 C 156.111 0.330783 2.32256 0
M  V30 1582 C 157.127 -0.559767 1.6475 0
M  V30 1583 O 158.303 -0.456263 1.96164 0
M  V30 1584 C 155.368 -0.458137 3.4366 0
M  V30 1585 C 154.429 0.460482 4.26823 0
M  V30 1586 C 153.662 -0.290881 5.32907 0
M  V30 1587 O 153.885 -1.51885 5.49806 0
M  V30 1588 O 152.819 0.351732 6.00871 0
M  V30 1589 H 156.645 1.16718 2.80376 0
M  V30 1590 H 154.23 0.634285 1.35267 0
M  V30 1591 H 156.112 -0.905343 4.1156 0
M  V30 1592 H 154.787 -1.27106 2.97701 0
M  V30 1593 H 153.694 0.956207 3.61673 0
M  V30 1594 H 155.027 1.23903 4.7635 0
M  V30 1595 N 156.679 -1.44442 0.630414 0
M  V30 1596 C 157.609 -2.33418 -0.0618083 0
M  V30 1597 C 158.59 -1.48165 -0.835541 0
M  V30 1598 O 159.775 -1.76886 -0.801564 0
M  V30 1599 C 156.905 -3.31222 -1.04449 0
M  V30 1600 C 155.859 -4.26288 -0.382436 0
M  V30 1601 C 155.185 -5.13954 -1.47497 0
M  V30 1602 C 156.485 -5.1744 0.710865 0
M  V30 1603 H 158.179 -2.91548 0.681184 0
M  V30 1604 H 155.725 -1.40191 0.329026 0
M  V30 1605 H 157.678 -3.92351 -1.53748 0
M  V30 1606 H 156.402 -2.71299 -1.81836 0
M  V30 1607 H 155.061 -3.6649 0.0899054 0
M  V30 1608 H 154.709 -4.50385 -2.2397 0
M  V30 1609 H 154.409 -5.7837 -1.03737 0
M  V30 1610 H 155.933 -5.77955 -1.96979 0
M  V30 1611 H 157.347 -5.72509 0.300996 0
M  V30 1612 H 155.744 -5.90455 1.07156 0
M  V30 1613 H 156.814 -4.58496 1.57829 0
M  V30 1614 N 158.157 -0.370918 -1.53173 0
M  V30 1615 C 159.089 0.507823 -2.23503 0
M  V30 1616 C 160.102 1.04182 -1.251 0
M  V30 1617 O 161.291 0.947286 -1.5129 0
M  V30 1618 C 158.391 1.71447 -2.92334 0
M  V30 1619 C 157.564 1.31105 -4.17289 0
M  V30 1620 C 156.623 2.38035 -4.69282 0
M  V30 1621 O 155.649 2.00204 -5.32829 0
M  V30 1622 N 156.851 3.69697 -4.47554 0
M  V30 1623 H 159.616 -0.0946382 -2.99551 0
M  V30 1624 H 157.177 -0.196358 -1.60705 0
M  V30 1625 H 159.169 2.42469 -3.24023 0
M  V30 1626 H 157.739 2.22368 -2.19707 0
M  V30 1627 H 156.959 0.430462 -3.91843 0
M  V30 1628 H 158.247 1.0179 -4.98514 0
M  V30 1629 H 157.645 4.03205 -3.9679 0
M  V30 1630 H 156.202 4.36807 -4.8378 0
M  V30 1631 N 159.635 1.57281 -0.100228 0
M  V30 1632 C 160.545 2.17833 0.870965 0
M  V30 1633 C 161.561 1.14921 1.30649 0
M  V30 1634 O 162.737 1.47313 1.37335 0
M  V30 1635 C 159.802 2.75085 2.1102 0
M  V30 1636 C 158.863 3.9297 1.72838 0
M  V30 1637 C 158.096 4.47482 2.90854 0
M  V30 1638 O 158.319 4.00922 4.05731 0
M  V30 1639 O 157.253 5.38433 2.69023 0
M  V30 1640 H 161.079 3.0124 0.38575 0
M  V30 1641 H 158.664 1.48881 0.124397 0
M  V30 1642 H 160.546 3.11656 2.83634 0
M  V30 1643 H 159.221 1.94721 2.58584 0
M  V30 1644 H 158.128 3.61201 0.973883 0
M  V30 1645 H 159.461 4.74713 1.30033 0
M  V30 1646 N 161.113 -0.173488 1.56642 0
M  V30 1647 C 162.043 -1.2171 1.99271 0
M  V30 1648 C 163.024 -1.46289 0.867959 0
M  V30 1649 O 164.209 -1.5766 1.13388 0
M  V30 1650 C 161.339 -2.55651 2.35074 0
M  V30 1651 C 160.293 -2.45645 3.50489 0
M  V30 1652 C 159.619 -3.84056 3.72028 0
M  V30 1653 C 160.919 -1.96302 4.84007 0
M  V30 1654 H 162.613 -0.86275 2.867 0
M  V30 1655 H 160.159 -0.413571 1.37933 0
M  V30 1656 H 162.112 -3.2886 2.63494 0
M  V30 1657 H 160.836 -2.92869 1.44552 0
M  V30 1658 H 159.495 -1.7489 3.22194 0
M  V30 1659 H 159.143 -4.18664 2.788 0
M  V30 1660 H 158.843 -3.7823 4.49684 0
M  V30 1661 H 160.367 -4.58854 4.02846 0
M  V30 1662 H 161.781 -2.59284 5.11317 0
M  V30 1663 H 160.178 -2.01429 5.65284 0
M  V30 1664 H 161.248 -0.917226 4.76146 0
M  V30 1665 N 162.591 -1.51276 -0.441967 0
M  V30 1666 C 163.539 -1.72823 -1.55676 0
M  V30 1667 C 164.533 -0.59445 -1.58627 0
M  V30 1668 O 165.739 -0.775715 -1.62427 0
M  V30 1669 H 162.114 -0.545983 -0.517113 0
M  V30 1670 H 164.085 -2.6628 -1.34675 0
M  V30 1671 C 162.834 -1.86619 -2.93375 0
M  V30 1672 H 162.157 -2.73264 -2.91834 0
M  V30 1673 H 163.597 -2.05709 -3.70756 0
M  V30 1674 C 162.056 -0.624842 -3.31055 0
M  V30 1675 O 162.586 0.222636 -4.01083 0
M  V30 1676 N 160.792 -0.470288 -2.86769 0
M  V30 1677 H 160.339 -1.161 -2.29953 0
M  V30 1678 H 160.297 0.359051 -3.12343 0
M  V30 1679 N 164.069 0.697108 -1.41344 0
M  V30 1680 C 165.346 1.45154 -1.31109 0
M  V30 1681 C 165.726 2.11009 0.0620449 0
M  V30 1682 O 165.074 2.01571 1.07618 0
M  V30 1683 C 165.284 2.47223 -2.46337 0
M  V30 1684 C 166.632 3.1252 -2.87431 0
M  V30 1685 O 167.656 2.57547 -2.46065 0
M  V30 1686 O 166.515 4.12083 -3.58957 0
M  V30 1687 H 163.609 0.646365 -0.515889 0
M  V30 1688 H 166.155 0.727716 -1.53305 0
M  V30 1689 H 164.927 1.97204 -3.37974 0
M  V30 1690 H 164.55 3.27116 -2.2601 0
M  V30 1691 N 165.547 1.27147 0.931209 0
M  V30 1692 C 166.963 1.04475 1.20653 0
M  V30 1693 C 167.163 -0.223885 2.00252 0
M  V30 1694 O 166.219 -0.930332 2.34736 0
M  V30 1695 C 167.532 2.28209 1.95809 0
M  V30 1696 C 169.08 2.33211 2.08762 0
M  V30 1697 C 169.555 3.56665 2.87323 0
M  V30 1698 N 171.046 3.57201 2.94892 0
M  V30 1699 C 171.781 4.49395 3.56134 0
M  V30 1700 N 171.277 5.51889 4.18796 0
M  V30 1701 N 173.07 4.37026 3.53504 0
M  V30 1702 H 165.221 2.08612 0.399333 0
M  V30 1703 H 167.484 0.917312 0.239253 0
M  V30 1704 H 167.19 3.20538 1.44736 0
M  V30 1705 H 167.064 2.33247 2.96438 0
M  V30 1706 H 169.451 1.41391 2.59023 0
M  V30 1707 H 169.532 2.32178 1.07364 0
M  V30 1708 H 169.176 4.4882 2.37746 0
M  V30 1709 H 169.106 3.54948 3.88998 0
M  V30 1710 H 171.597 2.83074 2.50354 0
M  V30 1711 H 171.91 6.18409 4.63454 0
M  V30 1712 H 170.255 5.55735 4.17353 0
M  V30 1713 H 173.446 3.56166 3.03749 0
M  V30 1714 H 173.619 5.09067 4.00942 0
M  V30 1715 N 167.025 -1.13721 1.09112 0
M  V30 1716 C 168.272 -1.84924 0.825192 0
M  V30 1717 C 168.6 -1.83347 -0.649151 0
M  V30 1718 O 167.855 -1.26449 -1.49362 0
M  V30 1719 C 168.154 -3.32861 1.30146 0
M  V30 1720 C 167.82 -3.54621 2.78486 0
M  V30 1721 C 166.482 -3.60268 3.18999 0
M  V30 1722 C 168.834 -3.62855 3.74146 0
M  V30 1723 C 166.162 -3.71679 4.53951 0
M  V30 1724 C 168.514 -3.75793 5.08883 0
M  V30 1725 C 167.178 -3.79692 5.4899 0
M  V30 1726 H 166.448 -0.676684 0.301959 0
M  V30 1727 H 169.095 -1.3428 1.36533 0
M  V30 1728 H 167.4 -3.85835 0.681064 0
M  V30 1729 H 169.097 -3.86395 1.07236 0
M  V30 1730 H 165.687 -3.50879 2.46134 0
M  V30 1731 H 169.871 -3.57775 3.43963 0
M  V30 1732 H 165.127 -3.72963 4.84467 0
M  V30 1733 H 169.301 -3.81107 5.82864 0
M  V30 1734 H 166.928 -3.88287 6.53558 0
M  V30 1735 N 168.503 -0.877838 -1.30888 0
M  V30 1736 C 169.466 -0.344265 -2.266 0
M  V30 1737 C 170.466 0.50922 -1.52524 0
M  V30 1738 O 171.656 0.317398 -1.71284 0
M  V30 1739 C 168.788 0.510198 -3.37061 0
M  V30 1740 H 169.981 -1.1893 -2.7531 0
M  V30 1741 H 167.534 -0.654088 -1.41956 0
M  V30 1742 H 168.269 1.37612 -2.93655 0
M  V30 1743 H 168.054 -0.101047 -3.9197 0
M  V30 1744 H 169.544 0.875537 -4.08319 0
M  V30 1745 N 169.982 1.44106 -0.638065 0
M  V30 1746 C 170.93 2.3248 0.0748149 0
M  V30 1747 C 171.924 1.47746 0.828702 0
M  V30 1748 O 173.13 1.64049 0.740816 0
M  V30 1749 H 169.505 0.750771 0.0429686 0
M  V30 1750 H 171.476 2.90348 -0.688504 0
M  V30 1751 C 170.225 3.31843 1.03805 0
M  V30 1752 H 169.548 3.97059 0.467375 0
M  V30 1753 H 170.988 3.96345 1.50622 0
M  V30 1754 C 169.447 2.61291 2.1267 0
M  V30 1755 O 169.977 2.41702 3.20847 0
M  V30 1756 N 168.183 2.20915 1.88798 0
M  V30 1757 H 167.73 2.37047 1.00829 0
M  V30 1758 H 167.688 1.74038 2.61836 0
M  V30 1759 N 171.46 0.379036 1.52974 0
M  V30 1760 C 172.69 -0.20649 2.05566 0
M  V30 1761 C 173.098 -1.41906 1.25137 0
M  V30 1762 O 172.441 -1.81421 0.288464 0
M  V30 1763 C 172.503 -0.651086 3.53555 0
M  V30 1764 C 172.167 0.446626 4.54812 0
M  V30 1765 C 173.164 1.30079 5.03364 0
M  V30 1766 C 170.849 0.610719 4.98573 0
M  V30 1767 C 172.843 2.30426 5.94292 0
M  V30 1768 C 170.53 1.61754 5.89304 0
M  V30 1769 C 171.528 2.46274 6.37054 0
M  V30 1770 O 171.216 3.45237 7.25994 0
M  V30 1771 H 170.948 -0.0372381 0.674974 0
M  V30 1772 H 173.502 0.539718 1.98182 0
M  V30 1773 H 171.732 -1.44911 3.58522 0
M  V30 1774 H 173.421 -1.16112 3.88938 0
M  V30 1775 H 174.187 1.18527 4.70294 0
M  V30 1776 H 170.066 -0.0374044 4.60985 0
M  V30 1777 H 173.61 2.96432 6.31485 0
M  V30 1778 H 169.507 1.73348 6.21788 0
M  V30 1779 H 170.275 3.41124 7.44027 0
M  V30 1780 N 172.938 -1.57226 0.108567 0
M  V30 1781 C 174.187 -1.94008 -0.551703 0
M  V30 1782 C 174.5 -0.993442 -1.68494 0
M  V30 1783 O 175.706 -1.25551 -2.40726 0
M  V30 1784 C 174.162 -3.44763 -1.03279 0
M  V30 1785 C 173.77 -4.47943 0.0714193 0
M  V30 1786 C 175.514 -3.90483 -1.66503 0
M  V30 1787 C 173.421 -5.89865 -0.425779 0
M  V30 1788 H 172.351 -0.724206 -0.209863 0
M  V30 1789 H 175.002 -1.82547 0.186741 0
M  V30 1790 H 173.384 -3.51422 -1.82533 0
M  V30 1791 H 174.558 -4.52942 0.847365 0
M  V30 1792 H 172.873 -4.11913 0.609669 0
M  V30 1793 H 175.47 -4.93925 -2.04798 0
M  V30 1794 H 175.813 -3.29877 -2.53942 0
M  V30 1795 H 176.346 -3.86581 -0.938074 0
M  V30 1796 H 173.085 -6.54202 0.412316 0
M  V30 1797 H 172.605 -5.88309 -1.16843 0
M  V30 1798 H 174.284 -6.40844 -0.890397 0
M  V30 1799 N 174.416 0.165178 -1.56732 0
M  V30 1800 C 175.693 0.908443 -1.73224 0
M  V30 1801 C 176.073 2.0013 -0.67165 0
M  V30 1802 O 175.421 2.26353 0.31253 0
M  V30 1803 C 175.631 1.46756 -3.16644 0
M  V30 1804 C 176.979 1.93809 -3.77787 0
M  V30 1805 O 178.003 1.56537 -3.1996 0
M  V30 1806 O 176.862 2.62486 -4.79336 0
M  V30 1807 H 173.956 0.428025 -0.707618 0
M  V30 1808 H 176.502 0.152526 -1.69013 0
M  V30 1809 H 175.274 0.68129 -3.85323 0
M  V30 1810 H 174.897 2.28749 -3.25207 0
M  V30 1811 N 175.894 1.51508 0.433938 0
M  V30 1812 C 176.841 1.73068 1.52696 0
M  V30 1813 C 177.811 0.572441 1.55924 0
M  V30 1814 O 178.996 0.807253 1.72882 0
M  V30 1815 C 176.136 1.86474 2.90381 0
M  V30 1816 C 175.249 3.14037 2.96656 0
M  V30 1817 C 174.384 3.18019 4.25485 0
M  V30 1818 C 173.423 4.39882 4.2564 0
M  V30 1819 N 172.56 4.41394 5.45999 0
M  V30 1820 H 177.4 2.66366 1.33615 0
M  V30 1821 H 174.937 1.32008 0.649018 0
M  V30 1822 H 176.895 1.92229 3.70275 0
M  V30 1823 H 175.525 0.965809 3.08013 0
M  V30 1824 H 174.577 3.17575 2.09404 0
M  V30 1825 H 175.889 4.0394 2.92633 0
M  V30 1826 H 175.043 3.22708 5.13755 0
M  V30 1827 H 173.782 2.2601 4.3217 0
M  V30 1828 H 172.787 4.35366 3.35763 0
M  V30 1829 H 174.012 5.33159 4.20617 0
M  V30 1830 H 171.958 3.52258 5.53399 0
M  V30 1831 H 171.875 5.25111 5.4387 0
M  V30 1832 H 173.143 4.50281 6.36292 0
M  V30 1833 N 177.372 -0.689602 1.41712 0
M  V30 1834 C 178.618 -1.45181 1.41599 0
M  V30 1835 C 178.951 -1.94181 0.0270081 0
M  V30 1836 O 178.226 -1.6993 -0.946265 0
M  V30 1837 C 178.509 -2.65945 2.42787 0
M  V30 1838 C 178.362 -2.22672 3.90816 0
M  V30 1839 C 179.681 -3.68149 2.41151 0
M  V30 1840 H 176.8 -0.526576 0.515642 0
M  V30 1841 H 179.442 -0.784947 1.73028 0
M  V30 1842 H 177.592 -3.2284 2.16116 0
M  V30 1843 H 179.264 -1.71058 4.28412 0
M  V30 1844 H 177.507 -1.54394 4.05395 0
M  V30 1845 H 178.178 -3.0935 4.57172 0
M  V30 1846 H 180.654 -3.2094 2.64834 0
M  V30 1847 H 179.53 -4.50248 3.13955 0
M  V30 1848 H 179.791 -4.18259 1.43221 0
M  V30 1849 N 178.85 -1.27639 -0.924453 0
M  V30 1850 C 180.266 -1.05113 -1.20097 0
M  V30 1851 C 180.466 0.213262 -2.00368 0
M  V30 1852 O 179.522 0.91787 -2.35226 0
M  V30 1853 C 180.835 -2.29244 -1.94596 0
M  V30 1854 C 182.383 -2.34315 -2.07522 0
M  V30 1855 C 182.858 -3.58183 -2.85427 0
M  V30 1856 N 184.349 -3.5876 -2.92994 0
M  V30 1857 C 185.084 -4.51277 -3.53746 0
M  V30 1858 N 184.58 -5.54102 -4.15863 0
M  V30 1859 N 186.373 -4.38894 -3.51181 0
M  V30 1860 H 178.524 -2.08821 -0.388264 0
M  V30 1861 H 180.787 -0.918568 -0.234385 0
M  V30 1862 H 180.493 -3.21301 -1.43034 0
M  V30 1863 H 180.367 -2.34816 -2.95197 0
M  V30 1864 H 182.754 -1.42762 -2.58269 0
M  V30 1865 H 182.835 -2.32744 -1.06131 0
M  V30 1866 H 182.479 -4.50074 -2.35363 0
M  V30 1867 H 182.409 -3.57006 -3.8711 0
M  V30 1868 H 184.9 -2.84398 -2.4885 0
M  V30 1869 H 185.213 -6.20859 -4.60168 0
M  V30 1870 H 183.558 -5.57941 -4.144 0
M  V30 1871 H 186.749 -3.57772 -3.01856 0
M  V30 1872 H 186.922 -5.11186 -3.98237 0
M  V30 1873 N 180.328 1.1314 -1.09713 0
M  V30 1874 C 181.575 1.84484 -0.834987 0
M  V30 1875 C 181.903 1.83689 0.639418 0
M  V30 1876 O 181.158 1.2724 1.4869 0
M  V30 1877 C 181.457 3.32167 -1.3191 0
M  V30 1878 C 181.123 3.53139 -2.80363 0
M  V30 1879 C 179.785 3.58571 -3.20905 0
M  V30 1880 C 182.137 3.60866 -3.76065 0
M  V30 1881 C 179.465 3.69267 -4.55916 0
M  V30 1882 C 181.817 3.73089 -5.10869 0
M  V30 1883 C 180.481 3.76775 -5.50996 0
M  V30 1884 H 179.751 0.675073 -0.305544 0
M  V30 1885 H 182.398 1.33554 -1.37243 0
M  V30 1886 H 180.703 3.85469 -0.701517 0
M  V30 1887 H 182.4 3.85821 -1.09284 0
M  V30 1888 H 178.99 3.49569 -2.47991 0
M  V30 1889 H 183.174 3.55946 -3.45855 0
M  V30 1890 H 178.43 3.70388 -4.86438 0
M  V30 1891 H 182.604 3.78011 -5.84877 0
M  V30 1892 H 180.231 3.84815 -6.55608 0
M  V30 1893 N 181.806 0.884767 1.30421 0
M  V30 1894 C 182.736 0.367574 2.30589 0
M  V30 1895 C 183.717 -0.549464 1.60981 0
M  V30 1896 O 184.902 -0.46336 1.88591 0
M  V30 1897 C 182.032 -0.418944 3.44764 0
M  V30 1898 C 180.986 0.406316 4.26067 0
M  V30 1899 C 180.312 -0.506793 5.32293 0
M  V30 1900 C 181.612 1.64832 4.95608 0
M  V30 1901 H 183.306 1.20462 2.74097 0
M  V30 1902 H 180.852 0.580695 1.31772 0
M  V30 1903 H 182.805 -0.791395 4.13902 0
M  V30 1904 H 181.529 -1.28964 3.0006 0
M  V30 1905 H 180.188 0.760903 3.58617 0
M  V30 1906 H 179.836 -1.37519 4.83836 0
M  V30 1907 H 179.536 0.0415828 5.87585 0
M  V30 1908 H 181.06 -0.875764 6.04287 0
M  V30 1909 H 182.474 1.34646 5.57264 0
M  V30 1910 H 180.871 2.13688 5.60765 0
M  V30 1911 H 181.941 2.39284 4.21748 0
M  V30 1912 N 183.284 -1.43765 0.645699 0
M  V30 1913 C 184.194 -2.34544 -0.0512957 0
M  V30 1914 C 185.21 -1.53455 -0.82022 0
M  V30 1915 O 186.386 -1.86133 -0.769176 0
M  V30 1916 C 183.451 -3.31636 -1.01087 0
M  V30 1917 C 182.512 -4.2863 -0.239712 0
M  V30 1918 C 181.745 -5.21084 -1.15358 0
M  V30 1919 O 181.968 -5.1779 -2.39269 0
M  V30 1920 O 180.902 -5.98593 -0.630038 0
M  V30 1921 H 184.728 -2.95624 0.695718 0
M  V30 1922 H 182.313 -1.43781 0.405882 0
M  V30 1923 H 184.195 -3.9136 -1.56254 0
M  V30 1924 H 182.87 -2.73069 -1.73824 0
M  V30 1925 H 181.777 -3.72408 0.355356 0
M  V30 1926 H 183.11 -4.90157 0.447936 0
M  V30 1927 N 184.763 -0.387143 -1.52771 0
M  V30 1928 C 185.695 0.484089 -2.2403 0
M  V30 1929 C 186.708 1.02849 -1.26198 0
M  V30 1930 O 187.897 0.931186 -1.52286 0
M  V30 1931 C 184.997 1.68337 -2.94136 0
M  V30 1932 C 184.17 1.26672 -4.18656 0
M  V30 1933 C 183.229 2.33045 -4.7178 0
M  V30 1934 O 182.255 1.94541 -5.34923 0
M  V30 1935 N 183.457 3.64929 -4.5145 0
M  V30 1936 H 186.222 -0.126404 -2.99433 0
M  V30 1937 H 183.783 -0.213392 -1.60488 0
M  V30 1938 H 185.775 2.39019 -3.26577 0
M  V30 1939 H 184.345 2.20025 -2.22053 0
M  V30 1940 H 183.565 0.388878 -3.92277 0
M  V30 1941 H 184.853 0.964964 -4.99566 0
M  V30 1942 H 184.251 3.98974 -4.01044 0
M  V30 1943 H 182.808 4.31651 -4.88386 0
M  V30 1944 N 186.241 1.57166 -0.116904 0
M  V30 1945 C 187.173 2.12271 0.864507 0
M  V30 1946 C 188.186 1.06494 1.23138 0
M  V30 1947 O 189.375 1.33873 1.18069 0
M  V30 1948 C 186.475 2.60564 2.16702 0
M  V30 1949 C 185.648 3.90416 1.97216 0
M  V30 1950 C 184.707 4.24329 3.11178 0
M  V30 1951 O 183.733 4.93182 2.84184 0
M  V30 1952 N 184.935 3.8148 4.37554 0
M  V30 1953 H 187.7 2.97102 0.393726 0
M  V30 1954 H 185.261 1.61759 0.0675805 0
M  V30 1955 H 187.253 2.80282 2.91932 0
M  V30 1956 H 185.823 1.80623 2.55135 0
M  V30 1957 H 185.043 3.79627 1.06192 0
M  V30 1958 H 186.331 4.75327 1.81499 0
M  V30 1959 H 185.729 3.25943 4.62361 0
M  V30 1960 H 184.286 4.06311 5.09661 0
M  V30 1961 N 187.719 -0.156864 1.56817 0
M  V30 1962 C 188.667 -1.21319 1.98455 0
M  V30 1963 C 189.661 -1.45025 0.875444 0
M  V30 1964 O 190.867 -1.45435 1.0606 0
M  V30 1965 H 187.242 -0.408142 0.631605 0
M  V30 1966 H 189.213 -0.835244 2.86472 0
M  V30 1967 C 187.962 -2.54148 2.37285 0
M  V30 1968 H 187.285 -2.36733 3.22176 0
M  V30 1969 H 188.725 -3.26712 2.70251 0
M  V30 1970 C 187.184 -3.13967 1.22173 0
M  V30 1971 O 187.714 -3.98357 0.517149 0
M  V30 1972 N 185.92 -2.7327 0.988536 0
M  V30 1973 H 185.467 -2.04744 1.56326 0
M  V30 1974 H 185.425 -3.13628 0.220209 0
M  V30 1975 N 189.197 -1.51736 -0.425897 0
M  V30 1976 C 190.144 -1.73875 -1.51776 0
M  V30 1977 C 191.114 -0.580702 -1.55618 0
M  V30 1978 O 192.299 -0.81641 -1.72451 0
M  V30 1979 C 189.439 -1.88012 -2.89388 0
M  V30 1980 C 188.552 -3.15606 -2.94986 0
M  V30 1981 C 187.687 -3.20271 -4.23793 0
M  V30 1982 C 186.726 -4.42134 -4.23302 0
M  V30 1983 N 185.863 -4.44284 -5.43651 0
M  V30 1984 H 190.703 -2.67071 -1.32201 0
M  V30 1985 H 188.24 -1.32351 -0.642008 0
M  V30 1986 H 190.198 -1.9419 -3.69251 0
M  V30 1987 H 188.828 -0.98213 -3.07496 0
M  V30 1988 H 187.88 -3.18681 -2.07717 0
M  V30 1989 H 189.192 -4.05486 -2.90486 0
M  V30 1990 H 188.346 -3.25428 -5.12036 0
M  V30 1991 H 187.085 -2.28299 -4.30965 0
M  V30 1992 H 186.09 -4.3714 -3.3345 0
M  V30 1993 H 187.315 -5.35382 -4.17783 0
M  V30 1994 H 185.261 -3.55188 -5.51523 0
M  V30 1995 H 185.178 -5.27988 -5.41078 0
M  V30 1996 H 186.446 -4.53649 -6.33895 0
M  V30 1997 N 190.675 0.682077 -1.42076 0
M  V30 1998 C 191.924 1.43786 -1.41451 0
M  V30 1999 C 192.237 1.95574 -0.0317074 0
M  V30 2000 O 193.443 2.71326 0.0971462 0
M  V30 2001 C 191.899 2.60071 -2.48779 0
M  V30 2002 C 191.507 2.15013 -3.93031 0
M  V30 2003 C 193.251 3.37626 -2.57311 0
M  V30 2004 C 191.158 3.28336 -4.91883 0
M  V30 2005 H 190.088 0.540143 -0.526082 0
M  V30 2006 H 192.739 0.739157 -1.67955 0
M  V30 2007 H 191.121 3.32275 -2.15429 0
M  V30 2008 H 192.295 1.5001 -4.35699 0
M  V30 2009 H 190.61 1.50416 -3.88284 0
M  V30 2010 H 193.207 4.22012 -3.28345 0
M  V30 2011 H 193.55 3.83727 -1.61429 0
M  V30 2012 H 194.083 2.72488 -2.89819 0
M  V30 2013 H 190.822 2.87234 -5.89217 0
M  V30 2014 H 190.342 3.92145 -4.53853 0
M  V30 2015 H 192.021 3.93913 -5.13265 0
M  V30 2016 N 192.153 1.28127 0.917671 0
M  V30 2017 C 193.083 1.14248 2.03641 0
M  V30 2018 C 194.064 0.0412748 1.7005 0
M  V30 2019 O 195.249 0.217566 1.92977 0
M  V30 2020 C 192.379 0.799431 3.37974 0
M  V30 2021 C 191.333 1.85497 3.85713 0
M  V30 2022 C 190.659 1.36565 5.16966 0
M  V30 2023 C 191.959 3.26085 4.08002 0
M  V30 2024 H 193.653 2.07835 2.15511 0
M  V30 2025 H 191.199 1.00064 1.03553 0
M  V30 2026 H 193.152 0.689114 4.15727 0
M  V30 2027 H 191.876 -0.172145 3.26146 0
M  V30 2028 H 190.535 1.95437 3.10161 0
M  V30 2029 H 190.183 0.383253 5.01538 0
M  V30 2030 H 189.883 2.07143 5.49878 0
M  V30 2031 H 191.407 1.26848 5.97279 0
M  V30 2032 H 192.821 3.19089 4.76293 0
M  V30 2033 H 191.218 3.94462 4.52238 0
M  V30 2034 H 192.288 3.70394 3.12948 0
M  V30 2035 N 193.631 -1.12557 1.10312 0
M  V30 2036 C 194.561 -2.20341 0.772798 0
M  V30 2037 C 195.542 -1.68198 -0.25365 0
M  V30 2038 O 196.727 -1.93831 -0.119699 0
M  V30 2039 C 193.857 -3.46709 0.202443 0
M  V30 2040 C 192.811 -4.11996 1.15943 0
M  V30 2041 C 192.137 -5.328 0.450345 0
M  V30 2042 C 193.437 -4.5828 2.50552 0
M  V30 2043 H 195.131 -2.48229 1.674 0
M  V30 2044 H 192.677 -1.19308 0.806326 0
M  V30 2045 H 194.63 -4.2138 -0.0407752 0
M  V30 2046 H 193.354 -3.18245 -0.734001 0
M  V30 2047 H 192.013 -3.39305 1.38808 0
M  V30 2048 H 191.661 -5.00602 -0.490531 0
M  V30 2049 H 191.361 -5.7743 1.08851 0
M  V30 2050 H 192.885 -6.10219 0.215642 0
M  V30 2051 H 194.299 -5.2433 2.31843 0
M  V30 2052 H 192.696 -5.13683 3.10242 0
M  V30 2053 H 193.766 -3.72329 3.10643 0
M  V30 2054 N 195.109 -0.891671 -1.2995 0
M  V30 2055 C 196.072 -0.36828 -2.26222 0
M  V30 2056 C 197.072 0.493014 -1.53056 0
M  V30 2057 O 198.262 0.299213 -1.71611 0
M  V30 2058 C 195.394 0.47442 -3.37583 0
M  V30 2059 H 196.587 -1.21844 -2.74033 0
M  V30 2060 H 194.14 -0.669107 -1.41254 0
M  V30 2061 H 194.875 1.34489 -2.95099 0
M  V30 2062 H 194.66 -0.142615 -3.91841 0
M  V30 2063 H 196.15 0.83218 -4.09224 0
M  V30 2064 N 196.587 1.43421 -0.653314 0
M  V30 2065 C 197.497 2.34568 0.0388565 0
M  V30 2066 C 198.513 1.53888 0.81207 0
M  V30 2067 O 199.689 1.86539 0.759294 0
M  V30 2068 C 196.754 3.32167 0.993269 0
M  V30 2069 C 195.815 4.28751 0.216977 0
M  V30 2070 C 195.048 5.21688 1.12593 0
M  V30 2071 O 195.271 5.19052 2.36519 0
M  V30 2072 O 194.205 5.98919 0.598284 0
M  V30 2073 H 198.031 2.95251 -0.711386 0
M  V30 2074 H 195.616 1.43564 -0.413502 0
M  V30 2075 H 197.498 3.92183 1.54176 0
M  V30 2076 H 196.173 2.73987 1.72374 0
M  V30 2077 H 195.08 3.72215 -0.375101 0
M  V30 2078 H 196.413 4.89913 -0.473924 0
M  V30 2079 N 198.065 0.39524 1.52563 0
M  V30 2080 C 198.995 -0.428384 2.29537 0
M  V30 2081 C 199.976 -1.05831 1.33169 0
M  V30 2082 O 201.161 -1.06995 1.62067 0
M  V30 2083 C 198.291 -1.55274 3.10656 0
M  V30 2084 C 197.245 -1.04855 4.14957 0
M  V30 2085 C 196.571 -2.26543 4.84337 0
M  V30 2086 C 197.871 -0.112324 5.22179 0
M  V30 2087 H 199.565 0.213867 2.98635 0
M  V30 2088 H 197.111 0.104298 1.43622 0
M  V30 2089 H 199.064 -2.1358 3.63265 0
M  V30 2090 H 197.788 -2.22266 2.39302 0
M  V30 2091 H 196.447 -0.487985 3.63338 0
M  V30 2092 H 196.095 -2.92059 4.09525 0
M  V30 2093 H 195.795 -1.93466 5.54837 0
M  V30 2094 H 197.319 -2.85481 5.39753 0
M  V30 2095 H 198.733 -0.603752 5.70112 0
M  V30 2096 H 197.13 0.128968 5.99961 0
M  V30 2097 H 198.2 0.837052 4.77621 0
M  V30 2098 N 199.544 -1.57102 0.125237 0
M  V30 2099 C 200.454 -2.19191 -0.8362 0
M  V30 2100 C 201.47 -1.16985 -1.28805 0
M  V30 2101 O 202.646 -1.49479 -1.34974 0
M  V30 2102 C 199.711 -2.78407 -2.06617 0
M  V30 2103 C 198.772 -3.9567 -1.66565 0
M  V30 2104 C 198.005 -4.52052 -2.83698 0
M  V30 2105 O 198.228 -4.07326 -3.99302 0
M  V30 2106 O 197.162 -5.42645 -2.60423 0
M  V30 2107 H 200.988 -3.01816 -0.337776 0
M  V30 2108 H 198.573 -1.4906 -0.100695 0
M  V30 2109 H 200.455 -3.16129 -2.7864 0
M  V30 2110 H 199.13 -1.9881 -2.55453 0
M  V30 2111 H 198.037 -3.62705 -0.916296 0
M  V30 2112 H 199.37 -4.76722 -1.22464 0
M  V30 2113 N 201.022 0.148545 -1.56898 0
M  V30 2114 C 201.954 1.20852 -1.9475 0
M  V30 2115 C 202.967 1.39265 -0.843152 0
M  V30 2116 O 204.156 1.38864 -1.12156 0
M  V30 2117 C 201.256 2.57362 -2.20495 0
M  V30 2118 C 200.429 2.59947 -3.51776 0
M  V30 2119 C 199.488 3.77984 -3.6608 0
M  V30 2120 O 198.514 3.62929 -4.38487 0
M  V30 2121 N 199.716 4.95375 -3.02629 0
M  V30 2122 H 202.481 0.886804 -2.86279 0
M  V30 2123 H 200.042 0.338121 -1.5833 0
M  V30 2124 H 202.034 3.34833 -2.27307 0
M  V30 2125 H 200.604 2.81832 -1.35238 0
M  V30 2126 H 199.824 1.68403 -3.56419 0
M  V30 2127 H 201.112 2.58704 -4.38121 0
M  V30 2128 H 200.51 5.10509 -2.43715 0
M  V30 2129 H 199.067 5.70627 -3.15004 0
M  V30 2130 N 202.5 1.5196 0.417844 0
M  V30 2131 C 203.43 1.77634 1.51554 0
M  V30 2132 C 204.411 0.626918 1.58126 0
M  V30 2133 O 205.596 0.871632 1.7354 0
M  V30 2134 C 202.726 1.91911 2.8946 0
M  V30 2135 C 201.68 3.07463 2.97743 0
M  V30 2136 C 201.006 3.06951 4.37819 0
M  V30 2137 C 202.306 4.47082 2.70027 0
M  V30 2138 H 204 2.6955 1.3032 0
M  V30 2139 H 201.546 1.29706 0.625492 0
M  V30 2140 H 203.499 2.08455 3.6623 0
M  V30 2141 H 202.223 0.966598 3.11969 0
M  V30 2142 H 200.882 2.90656 2.23416 0
M  V30 2143 H 200.53 2.09438 4.57323 0
M  V30 2144 H 200.23 3.84556 4.44286 0
M  V30 2145 H 201.754 3.25613 5.16535 0
M  V30 2146 H 203.168 4.6414 3.36522 0
M  V30 2147 H 201.565 5.2654 2.87881 0
M  V30 2148 H 202.635 4.55777 1.65514 0
M  V30 2149 N 203.978 -0.674533 1.42435 0
M  V30 2150 C 204.925 -1.78807 1.45934 0
M  V30 2151 C 205.895 -1.63157 0.311271 0
M  V30 2152 O 207.08 -1.83707 0.515383 0
M  V30 2153 C 204.22 -3.16839 1.36773 0
M  V30 2154 C 203.333 -3.43774 2.61617 0
M  V30 2155 C 202.468 -4.71536 2.44597 0
M  V30 2156 C 201.507 -4.91505 3.64814 0
M  V30 2157 N 200.644 -6.10508 3.46734 0
M  V30 2158 H 205.484 -1.75151 2.41093 0
M  V30 2159 H 203.021 -0.85504 1.19697 0
M  V30 2160 H 204.979 -3.96606 1.29459 0
M  V30 2161 H 203.609 -3.19619 0.452089 0
M  V30 2162 H 202.661 -2.58259 2.79297 0
M  V30 2163 H 203.973 -3.54423 3.50978 0
M  V30 2164 H 203.127 -5.59393 2.3487 0
M  V30 2165 H 201.866 -4.6317 1.52726 0
M  V30 2166 H 200.871 -4.0209 3.74972 0
M  V30 2167 H 202.096 -5.01716 4.57665 0
M  V30 2168 H 200.042 -6.03315 2.5758 0
M  V30 2169 H 199.959 -6.2202 4.29682 0
M  V30 2170 H 201.227 -7.01044 3.40819 0
M  V30 2171 N 205.456 -1.28612 -0.910864 0
M  V30 2172 C 206.704 -1.15705 -1.65701 0
M  V30 2173 C 207.025 0.29416 -1.92769 0
M  V30 2174 O 206.295 1.20331 -1.54588 0
M  V30 2175 H 204.875 -0.425216 -0.614167 0
M  V30 2176 H 207.537 -1.61381 -1.0928 0
M  V30 2177 H 206.633 -1.6988 -2.61815 0
M  V30 2178 N 206.934 1.1197 -1.10907 0
M  V30 2179 C 207.866 2.17592 -0.720175 0
M  V30 2180 C 208.879 1.60938 0.245495 0
M  V30 2181 O 210.068 1.78476 0.0292245 0
M  V30 2182 C 207.168 3.38873 -0.0427917 0
M  V30 2183 C 206.341 4.25006 -1.03388 0
M  V30 2184 C 205.4 5.24774 -0.387075 0
M  V30 2185 O 204.426 5.59631 -1.03934 0
M  V30 2186 N 205.628 5.74208 0.852407 0
M  V30 2187 H 208.393 2.51567 -1.62893 0
M  V30 2188 H 205.954 1.27439 -0.998543 0
M  V30 2189 H 207.946 4.02703 0.401501 0
M  V30 2190 H 206.516 3.03007 0.768456 0
M  V30 2191 H 205.736 3.57716 -1.65629 0
M  V30 2192 H 207.024 4.79397 -1.70458 0
M  V30 2193 H 206.422 5.48062 1.40161 0
M  V30 2194 H 204.979 6.39901 1.23977 0
M  V30 2195 N 208.412 0.89855 1.29475 0
M  V30 2196 C 209.66 0.522847 1.9522 0
M  V30 2197 C 209.981 -0.93371 1.71192 0
M  V30 2198 O 209.251 -1.65823 1.04305 0
M  V30 2199 H 207.831 0.190366 0.722336 0
M  V30 2200 H 210.493 1.14459 1.5775 0
M  V30 2201 H 209.589 0.704476 3.04045 0
M  V30 2202 N 209.89 -1.43072 0.660911 0
M  V30 2203 C 210.837 -2.30785 -0.0259884 0
M  V30 2204 C 211.807 -1.45184 -0.806888 0
M  V30 2205 O 212.992 -1.74041 -0.781943 0
M  V30 2206 C 210.132 -3.30861 -0.981067 0
M  V30 2207 C 209.245 -4.31558 -0.195458 0
M  V30 2208 C 208.38 -5.18712 -1.14503 0
M  V30 2209 C 207.419 -6.11097 -0.350299 0
M  V30 2210 N 206.556 -6.90849 -1.25186 0
M  V30 2211 H 211.396 -2.88975 0.727846 0
M  V30 2212 H 208.933 -1.42353 0.370682 0
M  V30 2213 H 210.891 -3.87399 -1.54849 0
M  V30 2214 H 209.521 -2.74304 -1.70169 0
M  V30 2215 H 208.573 -3.77252 0.488374 0
M  V30 2216 H 209.885 -4.9701 0.422176 0
M  V30 2217 H 209.039 -5.79914 -1.78284 0
M  V30 2218 H 207.778 -4.53404 -1.79656 0
M  V30 2219 H 206.783 -5.48976 0.300808 0
M  V30 2220 H 208.008 -6.7845 0.296941 0
M  V30 2221 H 205.954 -6.28182 -1.89005 0
M  V30 2222 H 205.871 -7.52854 -0.688971 0
M  V30 2223 H 207.139 -7.5655 -1.87757 0
M  V30 2224 N 211.368 -0.403325 -1.52352 0
M  V30 2225 C 212.593 0.176499 -2.06648 0
M  V30 2226 C 213.018 1.38577 -1.27193 0
M  V30 2227 O 212.376 1.7879 -0.300637 0
M  V30 2228 C 212.424 0.511061 -3.5696 0
M  V30 2229 O 211.528 1.60294 -3.79973 0
M  V30 2230 H 210.869 0.0167337 -0.663789 0
M  V30 2231 H 213.399 -0.574848 -1.96359 0
M  V30 2232 H 213.409 0.771362 -4.00642 0
M  V30 2233 H 212.084 -0.37296 -4.14224 0
M  V30 2234 H 210.661 1.33526 -3.48174 0
M  V30 2235 N 212.846 1.57033 -0.133567 0
M  V30 2236 C 214.262 1.58035 0.222944 0
M  V30 2237 C 214.462 1.14713 1.6566 0
M  V30 2238 O 213.518 0.841218 2.38075 0
M  V30 2239 C 214.831 3.00691 -0.0236116 0
M  V30 2240 C 216.379 3.12973 0.0411512 0
M  V30 2241 C 216.854 4.57654 -0.177899 0
M  V30 2242 N 218.345 4.63033 -0.124365 0
M  V30 2243 C 219.08 5.72771 -0.268553 0
M  V30 2244 N 218.576 6.91206 -0.46972 0
M  V30 2245 N 220.369 5.61718 -0.2071 0
M  V30 2246 H 212.52 1.8349 -1.06981 0
M  V30 2247 H 214.783 0.848677 -0.422436 0
M  V30 2248 H 214.489 3.36726 -1.0153 0
M  V30 2249 H 214.363 3.70614 0.701808 0
M  V30 2250 H 216.75 2.76787 1.02338 0
M  V30 2251 H 216.831 2.45564 -0.716383 0
M  V30 2252 H 216.475 4.94542 -1.15717 0
M  V30 2253 H 216.405 5.23173 0.599797 0
M  V30 2254 H 218.896 3.7789 0.027011 0
M  V30 2255 H 219.209 7.70693 -0.570212 0
M  V30 2256 H 217.554 6.93156 -0.505876 0
M  V30 2257 H 220.745 4.68072 -0.0507986 0
M  V30 2258 H 220.918 6.47195 -0.322909 0
M  V30 2259 N 214.325 -0.140222 1.56975 0
M  V30 2260 C 215.255 -1.17456 2.01808 0
M  V30 2261 C 216.236 -1.44415 0.898794 0
M  V30 2262 O 217.421 -1.5522 1.16707 0
M  V30 2263 C 214.551 -2.50607 2.40444 0
M  V30 2264 C 213.505 -2.38155 3.55621 0
M  V30 2265 C 212.831 -3.76078 3.80091 0
M  V30 2266 C 214.131 -1.85991 4.88062 0
M  V30 2267 H 215.825 -0.801743 2.88466 0
M  V30 2268 H 213.371 -0.38422 1.38779 0
M  V30 2269 H 215.324 -3.23197 2.7041 0
M  V30 2270 H 214.048 -2.89737 1.50732 0
M  V30 2271 H 212.707 -1.68016 3.25832 0
M  V30 2272 H 212.355 -4.12656 2.87618 0
M  V30 2273 H 212.055 -3.68606 4.57606 0
M  V30 2274 H 213.579 -4.50206 4.12488 0
M  V30 2275 H 214.993 -2.4838 5.16701 0
M  V30 2276 H 213.39 -1.89393 5.6943 0
M  V30 2277 H 214.46 -0.816023 4.77984 0
M  V30 2278 N 215.803 -1.52179 -0.40978 0
M  V30 2279 C 217.051 -1.65878 -1.15451 0
M  V30 2280 C 217.372 -0.390771 -1.91044 0
M  V30 2281 O 216.642 0.594323 -1.86667 0
M  V30 2282 H 215.222 -0.611405 -0.429177 0
M  V30 2283 H 217.884 -1.89219 -0.467134 0
M  V30 2284 H 216.98 -2.49954 -1.86894 0
M  V30 2285 N 217.281 0.66697 -1.42791 0
M  V30 2286 C 218.558 1.4234 -1.34159 0
M  V30 2287 C 218.938 2.11093 0.0172729 0
M  V30 2288 O 218.286 2.03808 1.03318 0
M  V30 2289 C 218.496 2.41942 -2.51526 0
M  V30 2290 C 219.844 3.06353 -2.93995 0
M  V30 2291 O 220.868 2.52269 -2.51473 0
M  V30 2292 O 219.727 4.04376 -3.67617 0
M  V30 2293 H 216.821 0.635277 -0.529483 0
M  V30 2294 H 219.367 0.695034 -1.54814 0
M  V30 2295 H 218.139 1.89991 -3.42081 0
M  V30 2296 H 217.762 3.22249 -2.32898 0
M  V30 2297 N 218.759 1.29093 0.90403 0
M  V30 2298 C 219.689 1.16401 2.02418 0
M  V30 2299 C 220.67 0.0593085 1.69997 0
M  V30 2300 O 221.855 0.238021 1.92736 0
M  V30 2301 C 218.985 0.835233 3.37107 0
M  V30 2302 C 217.939 1.89578 3.83724 0
M  V30 2303 C 217.265 1.42041 5.15489 0
M  V30 2304 C 218.565 3.30394 4.04521 0
M  V30 2305 H 220.259 2.10109 2.13295 0
M  V30 2306 H 217.805 1.01157 1.02486 0
M  V30 2307 H 219.758 0.733169 4.14973 0
M  V30 2308 H 218.482 -0.137543 3.2631 0
M  V30 2309 H 217.141 1.98715 3.08071 0
M  V30 2310 H 216.789 0.436426 5.01103 0
M  V30 2311 H 216.489 2.12964 5.4765 0
M  V30 2312 H 218.013 1.33176 5.959 0
M  V30 2313 H 219.427 3.24123 4.72882 0
M  V30 2314 H 217.824 3.99237 4.48029 0
M  V30 2315 H 218.894 3.73692 3.09002 0
M  V30 2316 N 220.237 -1.11381 1.11499 0
M  V30 2317 C 221.467 -1.86663 0.885464 0
M  V30 2318 C 221.875 -1.80464 -0.568281 0
M  V30 2319 O 221.218 -1.18445 -1.40415 0
M  V30 2320 C 221.28 -3.36337 1.26956 0
M  V30 2321 C 220.944 -3.66304 2.73259 0
M  V30 2322 C 221.941 -3.63733 3.71476 0
M  V30 2323 C 219.626 -3.9529 3.09921 0
M  V30 2324 C 221.62 -3.89725 5.04374 0
M  V30 2325 C 219.307 -4.20941 4.43004 0
M  V30 2326 C 220.305 -4.18147 5.40039 0
M  V30 2327 O 219.993 -4.43153 6.70724 0
M  V30 2328 H 219.725 -0.597114 0.316908 0
M  V30 2329 H 222.279 -1.41782 1.48617 0
M  V30 2330 H 220.509 -3.81826 0.611999 0
M  V30 2331 H 222.198 -3.92986 1.01573 0
M  V30 2332 H 222.964 -3.41389 3.44498 0
M  V30 2333 H 218.843 -3.966 2.35009 0
M  V30 2334 H 222.387 -3.8746 5.80104 0
M  V30 2335 H 218.284 -4.42761 4.69716 0
M  V30 2336 H 219.052 -4.60717 6.76522 0
M  V30 2337 N 221.715 -0.905404 -1.28997 0
M  V30 2338 C 222.625 -0.392246 -2.31298 0
M  V30 2339 C 223.641 0.515889 -1.66176 0
M  V30 2340 O 224.817 0.404093 -1.97304 0
M  V30 2341 C 221.882 0.36686 -3.44754 0
M  V30 2342 C 220.943 -0.573485 -4.25452 0
M  V30 2343 C 220.176 0.149488 -5.33491 0
M  V30 2344 O 220.399 1.37255 -5.5364 0
M  V30 2345 O 219.333 -0.510919 -5.99728 0
M  V30 2346 H 223.159 -1.2411 -2.77183 0
M  V30 2347 H 220.744 -0.669926 -1.33538 0
M  V30 2348 H 222.626 0.795907 -4.13816 0
M  V30 2349 H 221.301 1.19169 -3.00966 0
M  V30 2350 H 220.208 -1.05176 -3.59011 0
M  V30 2351 H 221.541 -1.36489 -4.72897 0
M  V30 2352 N 223.193 1.4272 -0.668489 0
M  V30 2353 C 224.103 2.34596 0.0139753 0
M  V30 2354 C 225.119 1.5474 0.795703 0
M  V30 2355 O 226.295 1.87334 0.739466 0
M  V30 2356 C 223.36 3.33202 0.957982 0
M  V30 2357 C 222.421 4.28957 0.17149 0
M  V30 2358 C 221.654 5.22853 1.07053 0
M  V30 2359 O 221.877 5.21531 2.31001 0
M  V30 2360 O 220.811 5.9952 0.534727 0
M  V30 2361 H 224.637 2.9448 -0.742661 0
M  V30 2362 H 222.222 1.43117 -0.428705 0
M  V30 2363 H 224.104 3.93796 1.50008 0
M  V30 2364 H 222.779 2.758 1.69458 0
M  V30 2365 H 221.686 3.71796 -0.414558 0
M  V30 2366 H 223.019 4.89383 -0.52586 0
M  V30 2367 N 224.671 0.411399 1.52136 0
M  V30 2368 C 225.581 -0.419774 2.30814 0
M  V30 2369 C 226.597 -1.0515 1.38634 0
M  V30 2370 O 227.773 -1.05252 1.71709 0
M  V30 2371 C 224.838 -1.52019 3.11594 0
M  V30 2372 C 223.899 -0.91129 4.19516 0
M  V30 2373 C 223.132 -1.95927 4.96436 0
M  V30 2374 O 223.355 -3.17775 4.73683 0
M  V30 2375 O 222.289 -1.56423 5.81219 0
M  V30 2376 H 226.115 0.221805 3.02889 0
M  V30 2377 H 223.7 0.174547 1.48377 0
M  V30 2378 H 225.582 -2.15898 3.61892 0
M  V30 2379 H 224.257 -2.14633 2.42311 0
M  V30 2380 H 223.164 -0.235157 3.7336 0
M  V30 2381 H 224.497 -0.32904 4.91099 0
M  V30 2382 N 226.149 -1.5696 0.141893 0
M  V30 2383 C 227.082 -2.12271 -0.837627 0
M  V30 2384 C 228.06 -1.04495 -1.24578 0
M  V30 2385 O 229.244 -1.32293 -1.34278 0
M  V30 2386 C 226.371 -2.63822 -2.12404 0
M  V30 2387 C 225.417 -3.83698 -1.86221 0
M  V30 2388 S 226.25 -5.24948 -1.05781 0
M  V30 2389 C 227.406 -5.79884 -2.35552 0
M  V30 2390 H 227.639 -2.95023 -0.367249 0
M  V30 2391 H 225.172 -1.54231 -0.0723014 0
M  V30 2392 H 227.13 -2.94175 -2.86307 0
M  V30 2393 H 225.791 -1.8121 -2.56557 0
M  V30 2394 H 224.984 -4.17995 -2.81596 0
M  V30 2395 H 224.586 -3.5408 -1.20429 0
M  V30 2396 H 226.878 -5.91005 -3.31239 0
M  V30 2397 H 227.821 -6.77544 -2.05767 0
M  V30 2398 H 228.229 -5.08095 -2.45967 0
M  V30 2399 N 227.627 0.131896 -1.57047 0
M  V30 2400 C 229.043 0.485031 -1.52051 0
M  V30 2401 C 229.243 1.82563 -0.85281 0
M  V30 2402 O 228.299 2.48817 -0.429694 0
M  V30 2403 C 229.612 0.481409 -2.96821 0
M  V30 2404 C 231.16 0.565868 -3.07842 0
M  V30 2405 C 231.635 0.592762 -4.54148 0
M  V30 2406 N 233.126 0.654564 -4.58552 0
M  V30 2407 C 233.861 0.696608 -5.69153 0
M  V30 2408 N 233.357 0.697078 -6.89284 0
M  V30 2409 N 235.15 0.738639 -5.57226 0
M  V30 2410 H 227.301 -0.746664 -1.98843 0
M  V30 2411 H 229.564 -0.273999 -0.90754 0
M  V30 2412 H 229.27 -0.435731 -3.4899 0
M  V30 2413 H 229.144 1.3139 -3.53577 0
M  V30 2414 H 231.531 1.47343 -2.55684 0
M  V30 2415 H 231.612 -0.29406 -2.54104 0
M  V30 2416 H 231.256 -0.310701 -5.06949 0
M  V30 2417 H 231.186 1.46939 -5.05684 0
M  V30 2418 H 233.677 0.660887 -3.72076 0
M  V30 2419 H 233.99 0.731426 -7.69331 0
M  V30 2420 H 232.335 0.66471 -6.91814 0
M  V30 2421 H 235.526 0.735545 -4.62285 0
M  V30 2422 H 235.699 0.767938 -6.43434 0
M  V30 2423 N 229.106 1.52395 0.401703 0
M  V30 2424 C 230.016 1.7917 1.51444 0
M  V30 2425 C 231.032 0.677691 1.6026 0
M  V30 2426 O 232.208 0.963909 1.76835 0
M  V30 2427 C 229.273 1.94347 2.87107 0
M  V30 2428 C 228.334 3.18257 2.88116 0
M  V30 2429 C 227.567 3.32701 4.17308 0
M  V30 2430 O 227.79 2.52238 5.11598 0
M  V30 2431 O 226.724 4.25891 4.25324 0
M  V30 2432 H 230.55 2.73633 1.31752 0
M  V30 2433 H 228.135 1.3733 0.588296 0
M  V30 2434 H 230.017 2.06109 3.67555 0
M  V30 2435 H 228.692 1.03073 3.06851 0
M  V30 2436 H 227.599 3.11947 2.06494 0
M  V30 2437 H 228.932 4.09336 2.73322 0
M  V30 2438 N 230.584 -0.659388 1.43143 0
M  V30 2439 C 231.514 -1.78422 1.50625 0
M  V30 2440 C 232.495 -1.66216 0.361443 0
M  V30 2441 O 233.68 -1.85404 0.577834 0
M  V30 2442 C 230.81 -3.16815 1.42287 0
M  V30 2443 C 229.764 -3.43777 2.54954 0
M  V30 2444 C 229.09 -4.81905 2.31671 0
M  V30 2445 C 230.39 -3.39134 3.97222 0
M  V30 2446 H 232.084 -1.72417 2.44771 0
M  V30 2447 H 229.63 -0.828084 1.17808 0
M  V30 2448 H 231.583 -3.95253 1.46127 0
M  V30 2449 H 230.307 -3.23534 0.446435 0
M  V30 2450 H 228.966 -2.67707 2.50457 0
M  V30 2451 H 228.614 -4.85294 1.32284 0
M  V30 2452 H 228.314 -5.00906 3.07192 0
M  V30 2453 H 229.838 -5.62609 2.37284 0
M  V30 2454 H 231.252 -4.07518 4.03239 0
M  V30 2455 H 229.649 -3.69671 4.72719 0
M  V30 2456 H 230.719 -2.37426 4.22797 0
M  V30 2457 N 232.062 -1.29571 -0.897171 0
M  V30 2458 C 233.478 -1.07637 -1.17841 0
M  V30 2459 C 233.678 0.170713 -2.00776 0
M  V30 2460 O 232.734 0.867768 -2.3712 0
M  V30 2461 C 234.047 -2.3332 -1.8969 0
M  V30 2462 C 235.595 -2.38664 -2.02505 0
M  V30 2463 C 236.07 -3.64157 -2.77765 0
M  V30 2464 N 237.561 -3.64894 -2.85318 0
M  V30 2465 C 238.296 -4.58679 -3.44094 0
M  V30 2466 N 237.792 -5.62799 -4.04017 0
M  V30 2467 N 239.585 -4.46245 -3.41793 0
M  V30 2468 H 231.736 -2.09598 -0.343883 0
M  V30 2469 H 233.999 -0.923333 -0.214848 0
M  V30 2470 H 233.705 -3.24262 -1.36187 0
M  V30 2471 H 233.579 -2.41025 -2.9015 0
M  V30 2472 H 235.966 -1.48208 -2.55183 0
M  V30 2473 H 236.047 -2.34943 -1.01171 0
M  V30 2474 H 235.691 -4.54965 -2.25763 0
M  V30 2475 H 235.621 -3.65137 -3.7945 0
M  V30 2476 H 238.112 -2.89613 -2.42761 0
M  V30 2477 H 238.425 -6.3048 -4.46895 0
M  V30 2478 H 236.77 -5.66605 -4.02472 0
M  V30 2479 H 239.961 -3.64094 -2.94199 0
M  V30 2480 H 240.134 -5.19518 -3.87304 0
M  V30 2481 N 233.54 1.10788 -1.12088 0
M  V30 2482 C 234.956 1.34691 -0.856186 0
M  V30 2483 C 235.156 1.94791 0.515615 0
M  V30 2484 O 234.212 2.18524 1.26505 0
M  V30 2485 C 235.525 2.27208 -1.9697 0
M  V30 2486 C 237.073 2.40755 -2.00016 0
M  V30 2487 C 237.548 3.36598 -3.1059 0
M  V30 2488 N 239.039 3.44164 -3.10008 0
M  V30 2489 C 239.774 4.18284 -3.92206 0
M  V30 2490 N 239.27 4.95322 -4.84384 0
M  V30 2491 N 241.063 4.13865 -3.80357 0
M  V30 2492 H 233.214 0.70144 -2.00483 0
M  V30 2493 H 235.477 0.371405 -0.872217 0
M  V30 2494 H 235.183 1.90251 -2.958 0
M  V30 2495 H 235.057 3.27485 -1.87172 0
M  V30 2496 H 237.444 2.76982 -1.01808 0
M  V30 2497 H 237.525 1.40305 -2.13888 0
M  V30 2498 H 237.169 3.01096 -4.09028 0
M  V30 2499 H 237.099 4.36918 -2.93956 0
M  V30 2500 H 239.59 2.8922 -2.43228 0
M  V30 2501 H 239.903 5.49267 -5.43623 0
M  V30 2502 H 238.248 4.94459 -4.884 0
M  V30 2503 H 241.439 3.52773 -3.07683 0
M  V30 2504 H 241.612 4.71372 -4.44649 0
M  V30 2505 N 235.018 0.912232 1.28515 0
M  V30 2506 C 235.95 0.35676 2.26406 0
M  V30 2507 C 236.963 -0.503933 1.54804 0
M  V30 2508 O 238.152 -0.319059 1.75625 0
M  V30 2509 C 235.252 -0.508825 3.35058 0
M  V30 2510 C 234.425 0.329007 4.36161 0
M  V30 2511 C 233.484 -0.471422 5.24084 0
M  V30 2512 O 232.51 0.115482 5.69083 0
M  V30 2513 N 233.712 -1.77479 5.52704 0
M  V30 2514 H 236.477 1.19818 2.74707 0
M  V30 2515 H 234.038 0.778022 1.4198 0
M  V30 2516 H 236.03 -1.051 3.90815 0
M  V30 2517 H 234.6 -1.25095 2.86478 0
M  V30 2518 H 233.82 1.05256 3.79888 0
M  V30 2519 H 235.108 0.90234 5.00735 0
M  V30 2520 H 234.506 -2.27417 5.17975 0
M  V30 2521 H 233.063 -2.26382 6.11224 0
M  V30 2522 N 236.496 -1.42363 0.676048 0
M  V30 2523 C 237.742 -2.0182 0.199125 0
M  V30 2524 C 238.075 -1.53339 -1.19168 0
M  V30 2525 O 237.35 -0.736124 -1.80032 0
M  V30 2526 C 237.633 -3.59331 0.235144 0
M  V30 2527 C 237.486 -4.17989 1.66149 0
M  V30 2528 C 238.805 -4.3813 -0.41595 0
M  V30 2529 H 235.924 -0.733293 0.0738311 0
M  V30 2530 H 238.566 -1.69368 0.86107 0
M  V30 2531 H 236.716 -3.87109 -0.328487 0
M  V30 2532 H 238.388 -4.0116 2.27747 0
M  V30 2533 H 236.631 -3.7377 2.20178 0
M  V30 2534 H 237.302 -5.27126 1.63837 0
M  V30 2535 H 239.778 -4.16051 0.0638529 0
M  V30 2536 H 238.654 -5.47717 -0.360115 0
M  V30 2537 H 238.915 -4.16101 -1.49373 0
M  V30 2538 N 237.974 -0.419461 -1.51915 0
M  V30 2539 C 239.251 0.211999 -1.94448 0
M  V30 2540 C 239.631 1.61703 -1.35703 0
M  V30 2541 O 238.979 2.22102 -0.536931 0
M  V30 2542 C 239.189 0.207872 -3.4838 0
M  V30 2543 C 240.537 0.422192 -4.22496 0
M  V30 2544 O 241.561 0.286778 -3.55044 0
M  V30 2545 O 240.42 0.690009 -5.42126 0
M  V30 2546 H 237.514 0.139586 -0.815135 0
M  V30 2547 H 240.06 -0.476151 -1.62883 0
M  V30 2548 H 238.832 -0.775102 -3.83546 0
M  V30 2549 H 238.455 0.939688 -3.86336 0
M  V30 2550 N 239.452 1.56882 -0.150215 0
M  V30 2551 C 240.384 2.14057 0.819286 0
M  V30 2552 C 241.397 1.09082 1.20851 0
M  V30 2553 O 242.586 1.36347 1.15203 0
M  V30 2554 C 239.686 2.65102 2.11127 0
M  V30 2555 C 238.859 3.94511 1.88891 0
M  V30 2556 C 237.918 4.30834 3.02107 0
M  V30 2557 O 236.944 4.99099 2.73659 0
M  V30 2558 N 238.146 3.90676 4.29363 0
M  V30 2559 H 240.911 2.97871 0.330618 0
M  V30 2560 H 238.472 1.61866 0.0332538 0
M  V30 2561 H 240.464 2.86411 2.85921 0
M  V30 2562 H 239.034 1.85994 2.51247 0
M  V30 2563 H 238.254 3.81795 0.981152 0
M  V30 2564 H 239.542 4.7907 1.71376 0
M  V30 2565 H 238.94 3.35677 4.55343 0
M  V30 2566 H 237.497 4.1703 5.00928 0
M  V30 2567 N 240.93 -0.123565 1.57115 0
M  V30 2568 C 241.86 -1.15309 2.03042 0
M  V30 2569 C 242.841 -1.43454 0.914061 0
M  V30 2570 O 244.026 -1.53973 1.18347 0
M  V30 2571 C 241.156 -2.48043 2.43089 0
M  V30 2572 C 240.11 -2.3437 3.58127 0
M  V30 2573 C 239.436 -3.72026 3.84059 0
M  V30 2574 C 240.736 -1.80804 4.90007 0
M  V30 2575 H 242.43 -0.771102 2.893 0
M  V30 2576 H 239.976 -0.369479 1.39179 0
M  V30 2577 H 241.929 -3.20311 2.73823 0
M  V30 2578 H 240.653 -2.88122 1.53796 0
M  V30 2579 H 239.312 -1.64551 3.27595 0
M  V30 2580 H 238.96 -4.09582 2.91979 0
M  V30 2581 H 238.66 -3.63732 4.6149 0
M  V30 2582 H 240.184 -4.45806 4.1724 0
M  V30 2583 H 241.598 -2.42886 5.19307 0
M  V30 2584 H 239.995 -1.83343 5.71407 0
M  V30 2585 H 241.065 -0.76528 4.78823 0
M  V30 2586 N 242.408 -1.52605 -0.393616 0
M  V30 2587 C 243.636 -1.71294 -1.16043 0
M  V30 2588 C 244.051 -0.429259 -1.83855 0
M  V30 2589 O 243.408 0.595921 -1.72496 0
M  V30 2590 C 243.459 -2.8593 -2.21193 0
M  V30 2591 O 243.18 -4.09329 -1.56146 0
M  V30 2592 C 244.681 -3.16259 -3.10636 0
M  V30 2593 H 241.901 -0.573641 -0.348104 0
M  V30 2594 H 244.445 -1.99234 -0.461092 0
M  V30 2595 H 242.6 -2.60465 -2.86769 0
M  V30 2596 H 243.014 -4.73323 -2.25978 0
M  V30 2597 H 244.488 -3.99946 -3.80456 0
M  V30 2598 H 244.965 -2.3045 -3.73884 0
M  V30 2599 H 245.571 -3.43547 -2.50711 0
M  V30 2600 N 243.887 0.651787 -1.4349 0
M  V30 2601 C 244.835 1.78586 -1.49029 0
M  V30 2602 C 245.829 1.65448 -0.363767 0
M  V30 2603 O 247.035 1.71777 -0.537821 0
M  V30 2604 H 243.41 0.589236 -0.467231 0
M  V30 2605 H 245.381 1.71035 -2.44519 0
M  V30 2606 C 244.13 3.16851 -1.43181 0
M  V30 2607 H 243.453 3.27598 -2.29171 0
M  V30 2608 H 244.893 3.96156 -1.51118 0
M  V30 2609 C 243.352 3.36568 -0.149616 0
M  V30 2610 O 243.882 3.93885 0.788509 0
M  V30 2611 N 242.088 2.90539 -0.0593484 0
M  V30 2612 H 241.635 2.4408 -0.823575 0
M  V30 2613 H 241.593 3.04108 0.797853 0
M  V30 2614 N 245.365 1.30045 0.890287 0
M  V30 2615 C 246.642 1.09227 1.62262 0
M  V30 2616 C 247.022 -0.360305 2.08002 0
M  V30 2617 O 246.37 -1.35084 1.84295 0
M  V30 2618 C 246.58 2.08835 2.79623 0
M  V30 2619 C 247.928 2.40266 3.50082 0
M  V30 2620 O 248.952 2.07104 2.89804 0
M  V30 2621 O 247.811 2.96967 4.58773 0
M  V30 2622 H 244.905 0.419132 0.712922 0
M  V30 2623 H 247.451 1.41451 0.937529 0
M  V30 2624 H 246.223 3.06633 2.43089 0
M  V30 2625 H 245.846 1.77397 3.55832 0
M  V30 2626 N 246.843 -1.10192 1.12674 0
M  V30 2627 C 247.79 -2.16606 0.796906 0
M  V30 2628 C 248.76 -1.64394 -0.237476 0
M  V30 2629 O 249.945 -1.90474 -0.111484 0
M  V30 2630 C 247.085 -3.44116 0.26043 0
M  V30 2631 C 246.198 -4.10268 1.35293 0
M  V30 2632 C 245.333 -5.25507 0.775621 0
M  V30 2633 C 244.372 -5.83567 1.84706 0
M  V30 2634 N 243.509 -6.90179 1.28829 0
M  V30 2635 H 248.349 -2.44163 1.70846 0
M  V30 2636 H 245.886 -1.19846 0.85295 0
M  V30 2637 H 247.844 -4.17143 -0.0686814 0
M  V30 2638 H 246.474 -3.16901 -0.614274 0
M  V30 2639 H 245.526 -3.35184 1.79877 0
M  V30 2640 H 246.838 -4.4946 2.16303 0
M  V30 2641 H 245.992 -6.05398 0.397327 0
M  V30 2642 H 244.731 -4.87656 -0.0656581 0
M  V30 2643 H 243.736 -5.02344 2.23452 0
M  V30 2644 H 244.961 -6.23482 2.69161 0
M  V30 2645 H 242.907 -6.54322 0.468881 0
M  V30 2646 H 242.824 -7.28097 2.03497 0
M  V30 2647 H 244.092 -7.73844 0.937311 0
M  V30 2648 N 248.321 -0.919034 -1.28029 0
M  V30 2649 C 249.284 -0.416182 -2.2539 0
M  V30 2650 C 250.284 0.460438 -1.54067 0
M  V30 2651 O 251.474 0.262744 -1.72207 0
M  V30 2652 C 248.606 0.402707 -3.38513 0
M  V30 2653 H 249.799 -1.27629 -2.71387 0
M  V30 2654 H 247.352 -0.698919 -1.39803 0
M  V30 2655 H 248.087 1.282 -2.97885 0
M  V30 2656 H 247.872 -0.225698 -3.9145 0
M  V30 2657 H 249.362 0.745191 -4.10897 0
M  V30 2658 N 249.799 1.42003 -0.683588 0
M  V30 2659 C 251.215 1.55625 -0.353976 0
M  V30 2660 C 251.415 1.66151 1.14 0
M  V30 2661 O 250.471 1.63329 1.92561 0
M  V30 2662 C 251.784 2.80171 -1.092 0
M  V30 2663 C 253.332 2.93954 -1.07518 0
M  V30 2664 C 253.807 4.21372 -1.79471 0
M  V30 2665 N 255.298 4.28303 -1.76381 0
M  V30 2666 C 256.033 5.25729 -2.28904 0
M  V30 2667 N 255.529 6.29254 -2.89846 0
M  V30 2668 N 257.322 5.17586 -2.19228 0
M  V30 2669 H 249.473 1.33415 -1.6527 0
M  V30 2670 H 251.736 0.64282 -0.696769 0
M  V30 2671 H 251.442 2.78561 -2.14701 0
M  V30 2672 H 251.316 3.7133 -0.662862 0
M  V30 2673 H 253.703 2.95086 -0.028475 0
M  V30 2674 H 253.784 2.04002 -1.54328 0
M  V30 2675 H 253.428 4.21001 -2.84114 0
M  V30 2676 H 253.358 5.10275 -1.30104 0
M  V30 2677 H 255.849 3.54119 -1.31939 0
M  V30 2678 H 256.162 6.99964 -3.27522 0
M  V30 2679 H 254.507 6.29791 -2.93919 0
M  V30 2680 H 257.698 4.35631 -1.71299 0
M  V30 2681 H 257.871 5.93348 -2.60466 0
M  V30 2682 N 251.277 0.427512 1.51691 0
M  V30 2683 C 252.523 -0.142439 2.02299 0
M  V30 2684 C 252.856 -1.43214 1.31162 0
M  V30 2685 O 252.131 -1.89833 0.423511 0
M  V30 2686 C 252.414 -0.371301 3.58181 0
M  V30 2687 C 252.267 0.936358 4.39946 0
M  V30 2688 C 253.586 -1.14542 4.24933 0
M  V30 2689 H 250.705 -0.0502937 0.735282 0
M  V30 2690 H 253.347 0.564584 1.81418 0
M  V30 2691 H 251.497 -0.973559 3.76104 0
M  V30 2692 H 253.169 1.57184 4.33694 0
M  V30 2693 H 251.412 1.5432 4.05423 0
M  V30 2694 H 252.083 0.730388 5.47147 0
M  V30 2695 H 254.559 -0.635362 4.11221 0
M  V30 2696 H 253.435 -1.27431 5.33903 0
M  V30 2697 H 253.696 -2.17093 3.85127 0
M  V30 2698 N 252.755 -1.56801 0.158532 0
M  V30 2699 C 253.665 -2.20916 -0.789518 0
M  V30 2700 C 254.681 -1.1969 -1.26294 0
M  V30 2701 O 255.857 -1.52308 -1.31773 0
M  V30 2702 C 252.922 -2.82727 -2.00665 0
M  V30 2703 C 251.983 -3.99114 -1.58134 0
M  V30 2704 C 251.216 -4.57968 -2.74045 0
M  V30 2705 O 251.439 -4.15704 -3.90572 0
M  V30 2706 O 250.373 -5.48047 -2.48855 0
M  V30 2707 H 254.199 -3.02464 -0.273681 0
M  V30 2708 H 251.784 -1.4924 -0.0690548 0
M  V30 2709 H 253.666 -3.21968 -2.71872 0
M  V30 2710 H 252.341 -2.04184 -2.51179 0
M  V30 2711 H 251.248 -3.64567 -0.839155 0
M  V30 2712 H 252.581 -4.79212 -1.12325 0
M  V30 2713 N 254.233 0.115231 -1.57178 0
M  V30 2714 C 255.479 0.82357 -1.85325 0
M  V30 2715 C 255.812 1.79349 -0.744814 0
M  V30 2716 O 255.087 1.92899 0.249024 0
M  V30 2717 C 255.37 1.57014 -3.24066 0
M  V30 2718 C 255.223 0.619565 -4.45513 0
M  V30 2719 C 256.542 2.52545 -3.60429 0
M  V30 2720 H 253.661 0.297948 -0.674089 0
M  V30 2721 H 256.303 0.0877138 -1.89797 0
M  V30 2722 H 254.453 2.19742 -3.20383 0
M  V30 2723 H 256.125 0.000837639 -4.613 0
M  V30 2724 H 254.368 -0.0686174 -4.33746 0
M  V30 2725 H 255.039 1.17866 -5.3927 0
M  V30 2726 H 257.515 1.9992 -3.64926 0
M  V30 2727 H 256.391 3.01811 -4.58477 0
M  V30 2728 H 256.652 3.35383 -2.88047 0
M  V30 2729 N 255.711 1.52812 0.385517 0
M  V30 2730 C 256.621 1.80766 1.49535 0
M  V30 2731 C 257.637 0.694651 1.59532 0
M  V30 2732 O 258.813 0.982611 1.75803 0
M  V30 2733 C 255.878 1.97381 2.85029 0
M  V30 2734 C 254.939 3.21295 2.84724 0
M  V30 2735 C 254.172 3.37108 4.13756 0
M  V30 2736 O 254.395 2.5765 5.08893 0
M  V30 2737 O 253.329 4.30378 4.20783 0
M  V30 2738 H 257.155 2.75015 1.28842 0
M  V30 2739 H 254.74 1.37946 0.573697 0
M  V30 2740 H 256.622 2.09996 3.65349 0
M  V30 2741 H 255.297 1.06322 3.05741 0
M  V30 2742 H 254.204 3.1412 2.03174 0
M  V30 2743 H 255.537 4.12212 2.68965 0
M  V30 2744 N 257.189 -0.644168 1.43834 0
M  V30 2745 C 258.605 -0.960875 1.27434 0
M  V30 2746 C 258.805 -2.00499 0.200618 0
M  V30 2747 O 257.861 -2.49018 -0.417906 0
M  V30 2748 C 259.174 -1.43653 2.64167 0
M  V30 2749 C 260.722 -1.55271 2.71772 0
M  V30 2750 C 261.197 -2.06224 4.08944 0
M  V30 2751 N 262.688 -2.13513 4.11055 0
M  V30 2752 C 263.423 -2.54081 5.14033 0
M  V30 2753 N 262.919 -2.9388 6.27381 0
M  V30 2754 N 264.712 -2.54101 5.01387 0
M  V30 2755 H 256.863 0.0465779 2.12349 0
M  V30 2756 H 259.126 -0.0417638 0.94708 0
M  V30 2757 H 258.832 -0.743706 3.43747 0
M  V30 2758 H 258.706 -2.40993 2.90176 0
M  V30 2759 H 261.093 -2.23653 1.92519 0
M  V30 2760 H 261.174 -0.563395 2.49519 0
M  V30 2761 H 260.818 -1.38441 4.88668 0
M  V30 2762 H 260.748 -3.06003 4.28567 0
M  V30 2763 H 263.239 -1.85493 3.29242 0
M  V30 2764 H 263.552 -3.2361 7.01781 0
M  V30 2765 H 261.897 -2.91663 6.30839 0
M  V30 2766 H 265.088 -2.22391 4.11898 0
M  V30 2767 H 265.261 -2.85394 5.81768 0
M  V30 2768 N 258.668 -1.30515 -0.883378 0
M  V30 2769 C 259.945 -1.10086 -1.6168 0
M  V30 2770 C 260.325 0.349269 -2.08191 0
M  V30 2771 O 259.673 1.34105 -1.85008 0
M  V30 2772 C 259.883 -2.10315 -2.78511 0
M  V30 2773 C 261.231 -2.42119 -3.48803 0
M  V30 2774 O 262.255 -2.08638 -2.88702 0
M  V30 2775 O 261.114 -2.99396 -4.57192 0
M  V30 2776 H 258.208 -0.422907 -0.710689 0
M  V30 2777 H 260.754 -1.41947 -0.930015 0
M  V30 2778 H 259.526 -3.07917 -2.41459 0
M  V30 2779 H 259.149 -1.79282 -3.54886 0
M  V30 2780 N 260.146 1.09593 -1.13257 0
M  V30 2781 C 261.094 2.18271 -0.803783 0
M  V30 2782 C 262.088 1.68054 0.213148 0
M  V30 2783 O 263.294 1.79862 0.0704699 0
M  V30 2784 H 259.669 0.711949 -0.242143 0
M  V30 2785 H 261.64 2.43235 -1.72856 0
M  V30 2786 C 260.389 3.46536 -0.28424 0
M  V30 2787 H 259.712 3.85545 -1.05807 0
M  V30 2788 H 261.152 4.23899 -0.0925945 0
M  V30 2789 C 259.611 3.22036 0.989684 0
M  V30 2790 O 260.141 3.44509 2.06584 0
M  V30 2791 N 258.347 2.7565 0.920086 0
M  V30 2792 H 257.894 2.57562 0.0442019 0
M  V30 2793 H 257.852 2.59635 1.77306 0
M  V30 2794 N 261.624 0.925811 1.2754 0
M  V30 2795 C 262.554 0.440748 2.29303 0
M  V30 2796 C 263.535 -0.497971 1.62648 0
M  V30 2797 O 264.72 -0.403126 1.8997 0
M  V30 2798 C 261.85 -0.309048 3.45922 0
M  V30 2799 C 260.804 0.54166 4.24559 0
M  V30 2800 C 260.13 -0.337191 5.33636 0
M  V30 2801 C 261.43 1.80516 4.90114 0
M  V30 2802 H 263.124 1.29121 2.70126 0
M  V30 2803 H 260.67 0.622323 1.29858 0
M  V30 2804 H 262.623 -0.659315 4.1621 0
M  V30 2805 H 261.347 -1.19352 3.04011 0
M  V30 2806 H 260.006 0.874609 3.56014 0
M  V30 2807 H 259.654 -1.22056 4.87966 0
M  V30 2808 H 259.354 0.228497 5.87156 0
M  V30 2809 H 260.878 -0.683072 6.06767 0
M  V30 2810 H 262.292 1.52307 5.52698 0
M  V30 2811 H 260.689 2.3142 5.53683 0
M  V30 2812 H 261.759 2.52581 4.13921 0
M  V30 2813 N 263.102 -1.41638 0.69111 0
M  V30 2814 C 264.065 -2.29178 0.0319786 0
M  V30 2815 C 265.065 -1.44153 -0.712496 0
M  V30 2816 O 266.255 -1.65354 -0.548053 0
M  V30 2817 C 263.387 -3.26952 -0.965161 0
M  V30 2818 H 264.58 -2.88959 0.802681 0
M  V30 2819 H 262.133 -1.4955 0.454356 0
M  V30 2820 H 262.868 -2.72142 -1.76378 0
M  V30 2821 H 262.653 -3.89685 -0.434522 0
M  V30 2822 H 264.143 -3.92561 -1.42428 0
M  V30 2823 N 264.58 -0.43555 -1.51462 0
M  V30 2824 C 265.49 0.383001 -2.31453 0
M  V30 2825 C 266.506 1.02931 -1.4029 0
M  V30 2826 O 267.682 1.02507 -1.73362 0
M  V30 2827 C 264.747 1.47043 -3.13973 0
M  V30 2828 C 263.808 0.844433 -4.20913 0
M  V30 2829 C 263.041 1.88004 -4.9949 0
M  V30 2830 O 263.264 3.10199 -4.78678 0
M  V30 2831 O 262.198 1.47157 -5.83634 0
M  V30 2832 H 266.024 -0.269964 -3.02498 0
M  V30 2833 H 263.609 -0.19813 -1.4808 0
M  V30 2834 H 265.491 2.10113 -3.65281 0
M  V30 2835 H 264.166 2.10751 -2.45695 0
M  V30 2836 H 263.073 0.175729 -3.73687 0
M  V30 2837 H 264.406 0.250869 -4.9156 0
M  V30 2838 N 266.058 1.56714 -0.166846 0
M  V30 2839 C 267.335 1.88412 0.525373 0
M  V30 2840 C 267.715 1.07602 1.81618 0
M  V30 2841 O 267.063 0.168621 2.27877 0
M  V30 2842 C 267.273 3.40363 0.771613 0
M  V30 2843 C 268.621 4.10007 1.1036 0
M  V30 2844 O 269.645 3.45655 0.860304 0
M  V30 2845 O 268.504 5.2369 1.56239 0
M  V30 2846 H 265.598 0.781587 0.270278 0
M  V30 2847 H 268.144 1.68458 -0.204946 0
M  V30 2848 H 266.916 3.91046 -0.141093 0
M  V30 2849 H 266.539 3.65914 1.55541 0
M  V30 2850 N 267.536 -0.106894 1.57237 0
M  V30 2851 C 268.785 -0.811163 1.8467 0
M  V30 2852 C 269.098 -1.80469 0.754342 0
M  V30 2853 O 270.304 -2.55601 0.915439 0
M  V30 2854 C 268.76 -1.49337 3.27454 0
M  V30 2855 C 268.368 -0.540217 4.44731 0
M  V30 2856 C 270.112 -2.18206 3.64124 0
M  V30 2857 C 268.019 -1.22634 5.78545 0
M  V30 2858 H 266.949 -0.306679 0.688813 0
M  V30 2859 H 269.6 -0.0639887 1.83388 0
M  V30 2860 H 267.982 -2.2876 3.23241 0
M  V30 2861 H 269.156 0.221659 4.60267 0
M  V30 2862 H 267.471 0.042146 4.16379 0
M  V30 2863 H 270.068 -2.70253 4.61376 0
M  V30 2864 H 270.411 -2.96562 2.92158 0
M  V30 2865 H 270.944 -1.45658 3.70174 0
M  V30 2866 H 267.683 -0.483832 6.53712 0
M  V30 2867 H 267.203 -1.95993 5.66874 0
M  V30 2868 H 268.882 -1.75615 6.2271 0
M  V30 2869 N 269.014 -1.53014 -0.377408 0
M  V30 2870 C 269.947 -1.73382 -1.48371 0
M  V30 2871 C 270.925 -0.581879 -1.51832 0
M  V30 2872 O 272.109 -0.81307 -1.70063 0
M  V30 2873 C 269.236 -1.80192 -2.8679 0
M  V30 2874 C 268.282 -3.02056 -3.01105 0
M  V30 2875 S 269.115 -4.61811 -2.71093 0
M  V30 2876 C 270.271 -4.71453 -4.11683 0
M  V30 2877 H 270.504 -2.66946 -1.30872 0
M  V30 2878 H 268.037 -1.43453 -0.571012 0
M  V30 2879 H 269.995 -1.84802 -3.6655 0
M  V30 2880 H 268.656 -0.877008 -3.01608 0
M  V30 2881 H 267.849 -3.03396 -4.02451 0
M  V30 2882 H 267.451 -2.95498 -2.29253 0
M  V30 2883 H 269.743 -4.50781 -5.0577 0
M  V30 2884 H 270.686 -5.73487 -4.15353 0
M  V30 2885 H 271.094 -4.00189 -3.98132 0
M  V30 2886 N 270.492 0.636531 -1.44174 0
M  V30 2887 C 271.908 0.954104 -1.27941 0
M  V30 2888 C 272.108 2.0039 -0.211248 0
M  V30 2889 O 271.164 2.49236 0.404695 0
M  V30 2890 C 272.477 1.4225 -2.64925 0
M  V30 2891 C 274.025 1.53827 -2.72592 0
M  V30 2892 C 274.5 2.04053 -4.10032 0
M  V30 2893 N 275.991 2.11331 -4.12182 0
M  V30 2894 C 276.726 2.51352 -5.15374 0
M  V30 2895 N 276.222 2.90549 -6.2893 0
M  V30 2896 N 278.015 2.51438 -5.02728 0
M  V30 2897 H 270.166 -0.0578386 -2.12321 0
M  V30 2898 H 272.429 0.0367406 -0.947288 0
M  V30 2899 H 272.135 0.725466 -3.44136 0
M  V30 2900 H 272.009 2.39451 -2.9145 0
M  V30 2901 H 274.396 2.22628 -1.93702 0
M  V30 2902 H 274.477 0.550154 -2.49814 0
M  V30 2903 H 274.121 1.35848 -4.89395 0
M  V30 2904 H 274.051 3.03726 -4.30184 0
M  V30 2905 H 276.542 1.83745 -3.30222 0
M  V30 2906 H 276.855 3.19884 -7.03487 0
M  V30 2907 H 275.2 2.88313 -6.32377 0
M  V30 2908 H 278.391 2.20203 -4.13072 0
M  V30 2909 H 278.564 2.82304 -5.83274 0
M  V30 2910 N 271.97 1.30982 0.876444 0
M  V30 2911 C 272.9 1.20668 1.99903 0
M  V30 2912 C 273.881 0.095354 1.69833 0
M  V30 2913 O 275.066 0.27885 1.92188 0
M  V30 2914 C 272.196 0.90655 3.3526 0
M  V30 2915 C 271.15 1.97675 3.79617 0
M  V30 2916 C 270.476 1.52943 5.1236 0
M  V30 2917 C 271.776 3.389 3.97422 0
M  V30 2918 H 273.47 2.14586 2.0879 0
M  V30 2919 H 271.016 1.03308 1.00317 0
M  V30 2920 H 272.969 0.821025 4.13324 0
M  V30 2921 H 271.693 -0.0682969 3.26529 0
M  V30 2922 H 270.352 2.05205 3.03787 0
M  V30 2923 H 270 0.54262 5.00065 0
M  V30 2924 H 269.7 2.24532 5.43009 0
M  V30 2925 H 271.224 1.45786 5.92941 0
M  V30 2926 H 272.638 3.34081 4.659 0
M  V30 2927 H 271.035 4.0865 4.3946 0
M  V30 2928 H 272.105 3.80163 3.01006 0
M  V30 2929 N 273.449 -1.08991 1.13837 0
M  V30 2930 C 274.865 -1.33312 0.877506 0
M  V30 2931 C 275.065 -1.95587 -0.48456 0
M  V30 2932 O 274.121 -2.20509 -1.23013 0
M  V30 2933 C 275.434 -2.24045 2.0056 0
M  V30 2934 C 276.982 -2.37542 2.03821 0
M  V30 2935 C 277.457 -3.31614 3.15905 0
M  V30 2936 N 278.948 -3.39189 3.15445 0
M  V30 2937 C 279.683 -4.11992 3.98811 0
M  V30 2938 N 279.179 -4.87553 4.92203 0
M  V30 2939 N 280.972 -4.07762 3.86894 0
M  V30 2940 H 273.123 -0.669456 2.01574 0
M  V30 2941 H 275.386 -0.357482 0.878015 0
M  V30 2942 H 275.092 -1.85521 2.98789 0
M  V30 2943 H 274.966 -3.24466 1.92359 0
M  V30 2944 H 277.353 -2.75327 1.06202 0
M  V30 2945 H 277.434 -1.36884 2.16093 0
M  V30 2946 H 277.078 -2.94551 4.13766 0
M  V30 2947 H 277.008 -4.32186 3.0087 0
M  V30 2948 H 279.499 -2.85314 2.47799 0
M  V30 2949 H 279.812 -5.40549 5.52292 0
M  V30 2950 H 278.157 -4.86627 4.96205 0
M  V30 2951 H 281.348 -3.47833 3.13257 0
M  V30 2952 H 281.521 -4.64238 4.52092 0
M  V30 2953 N 274.927 -0.932562 -1.27047 0
M  V30 2954 C 275.837 -0.441219 -2.30414 0
M  V30 2955 C 276.853 0.480525 -1.67233 0
M  V30 2956 O 278.029 0.362151 -1.98117 0
M  V30 2957 C 275.094 0.293651 -3.45454 0
M  V30 2958 C 274.155 -0.663601 -4.2414 0
M  V30 2959 C 273.388 0.0362932 -5.33688 0
M  V30 2960 O 273.611 1.2548 -5.56427 0
M  V30 2961 O 272.545 -0.638015 -5.98509 0
M  V30 2962 H 276.371 -1.29962 -2.74488 0
M  V30 2963 H 273.956 -0.6981 -1.32087 0
M  V30 2964 H 275.838 0.707951 -4.15411 0
M  V30 2965 H 274.513 1.12758 -3.03426 0
M  V30 2966 H 273.42 -1.12768 -3.56699 0
M  V30 2967 H 274.753 -1.46489 -4.69896 0
M  V30 2968 N 276.405 1.4127 -0.698611 0
M  V30 2969 C 277.352 2.30773 -0.0352094 0
M  V30 2970 C 278.322 1.47273 0.768111 0
M  V30 2971 O 279.507 1.76053 0.735524 0
M  V30 2972 C 276.647 3.33346 0.893 0
M  V30 2973 C 275.76 4.31924 0.0809695 0
M  V30 2974 C 274.895 5.21566 1.0071 0
M  V30 2975 C 273.934 6.11811 0.188155 0
M  V30 2976 N 273.071 6.93926 1.06825 0
M  V30 2977 H 277.911 2.86943 -0.804207 0
M  V30 2978 H 275.448 1.4132 -0.408294 0
M  V30 2979 H 277.406 3.91368 1.44523 0
M  V30 2980 H 276.036 2.78719 1.62836 0
M  V30 2981 H 275.088 3.75825 -0.588224 0
M  V30 2982 H 276.4 4.95716 -0.553801 0
M  V30 2983 H 275.554 5.84437 1.62845 0
M  V30 2984 H 274.293 4.58008 1.67572 0
M  V30 2985 H 273.298 5.47986 -0.446254 0
M  V30 2986 H 274.523 6.77425 -0.476716 0
M  V30 2987 H 272.469 6.32973 1.72283 0
M  V30 2988 H 272.386 7.54416 0.489123 0
M  V30 2989 H 273.654 7.61262 1.67632 0
M  V30 2990 N 277.883 0.443576 1.51229 0
M  V30 2991 C 278.813 -0.355142 2.30783 0
M  V30 2992 C 279.794 -1.0154 1.36468 0
M  V30 2993 O 280.979 -1.01785 1.65389 0
M  V30 2994 C 278.109 -1.45312 3.15439 0
M  V30 2995 C 277.063 -0.916002 4.18083 0
M  V30 2996 C 276.389 -2.1102 4.91299 0
M  V30 2997 C 277.689 0.0538602 5.22272 0
M  V30 2998 H 279.383 0.308767 2.97804 0
M  V30 2999 H 276.929 0.149937 1.43217 0
M  V30 3000 H 278.882 -2.01914 3.69876 0
M  V30 3001 H 277.606 -2.14541 2.46252 0
M  V30 3002 H 276.265 -0.372145 3.64706 0
M  V30 3003 H 275.913 -2.78882 4.18609 0
M  V30 3004 H 275.613 -1.75717 5.60712 0
M  V30 3005 H 277.137 -2.68164 5.48562 0
M  V30 3006 H 278.551 -0.422069 5.71744 0
M  V30 3007 H 276.948 0.319776 5.99247 0
M  V30 3008 H 278.018 0.98858 4.74716 0
M  V30 3009 N 279.361 -1.56624 0.175154 0
M  V30 3010 C 280.293 -2.15333 -0.785128 0
M  V30 3011 C 281.306 -1.1099 -1.19101 0
M  V30 3012 O 282.495 -1.38162 -1.13019 0
M  V30 3013 C 279.595 -2.68427 -2.06882 0
M  V30 3014 C 278.768 -3.97466 -1.8259 0
M  V30 3015 C 277.827 -4.35585 -2.95215 0
M  V30 3016 O 276.853 -5.03389 -2.65684 0
M  V30 3017 N 278.055 -3.97457 -4.23094 0
M  V30 3018 H 280.82 -2.98359 -0.283187 0
M  V30 3019 H 278.381 -1.61898 -0.00749817 0
M  V30 3020 H 280.373 -2.90924 -2.81328 0
M  V30 3021 H 278.943 -1.89968 -2.48256 0
M  V30 3022 H 278.163 -3.83307 -0.920287 0
M  V30 3023 H 279.451 -4.81736 -1.63733 0
M  V30 3024 H 278.849 -3.42878 -4.49945 0
M  V30 3025 H 277.406 -4.24947 -4.9423 0
M  V30 3026 N 280.839 0.0985539 -1.57292 0
M  V30 3027 C 281.749 1.13824 -2.05137 0
M  V30 3028 C 282.765 1.44076 -0.975604 0
M  V30 3029 O 283.941 1.54786 -1.28853 0
M  V30 3030 C 281.006 2.43969 -2.46333 0
M  V30 3031 C 280.067 2.2093 -3.68087 0
M  V30 3032 C 279.3 3.44869 -4.0731 0
M  V30 3033 O 279.523 4.52972 -3.46659 0
M  V30 3034 O 278.457 3.34661 -5.00285 0
M  V30 3035 H 282.283 0.761881 -2.93988 0
M  V30 3036 H 279.868 0.310818 -1.46131 0
M  V30 3037 H 281.75 3.20609 -2.73473 0
M  V30 3038 H 280.425 2.81038 -1.60621 0
M  V30 3039 H 279.332 1.42081 -3.46069 0
M  V30 3040 H 280.665 1.88755 -4.54568 0
M  V30 3041 N 282.317 1.53212 0.369288 0
M  V30 3042 C 283.227 1.82342 1.47609 0
M  V30 3043 C 284.243 0.711532 1.58787 0
M  V30 3044 O 285.419 1.0012 1.74751 0
M  V30 3045 C 282.484 2.00393 2.8292 0
M  V30 3046 C 281.545 3.24297 2.81301 0
M  V30 3047 C 280.778 3.41478 4.10157 0
M  V30 3048 O 281.001 2.63033 5.06132 0
M  V30 3049 O 279.935 4.34817 4.16194 0
M  V30 3050 H 283.761 2.76366 1.25918 0
M  V30 3051 H 281.346 1.38547 0.559034 0
M  V30 3052 H 283.228 2.13859 3.63101 0
M  V30 3053 H 281.903 1.09559 3.04596 0
M  V30 3054 H 280.81 3.16257 1.99831 0
M  V30 3055 H 282.143 4.15041 2.64578 0
M  V30 3056 N 283.795 -0.628877 1.44509 0
M  V30 3057 C 284.728 -1.75367 1.46019 0
M  V30 3058 C 285.706 -1.59444 0.318787 0
M  V30 3059 O 286.89 -1.81297 0.516099 0
M  V30 3060 C 284.017 -3.12965 1.29501 0
M  V30 3061 C 283.063 -3.47532 2.47233 0
M  V30 3062 S 283.896 -3.44758 4.09758 0
M  V30 3063 C 285.052 -4.84973 3.95667 0
M  V30 3064 H 285.285 -1.7382 2.41193 0
M  V30 3065 H 282.818 -0.803686 1.31834 0
M  V30 3066 H 284.776 -3.92367 1.20658 0
M  V30 3067 H 283.437 -3.12049 0.358341 0
M  V30 3068 H 282.63 -4.47664 2.31544 0
M  V30 3069 H 282.232 -2.75598 2.52828 0
M  V30 3070 H 284.524 -5.74255 3.59496 0
M  V30 3071 H 285.467 -5.05716 4.95638 0
M  V30 3072 H 285.875 -4.59653 3.27688 0
M  V30 3073 N 285.273 -1.31445 -0.869486 0
M  V30 3074 C 286.203 -1.21727 -1.99261 0
M  V30 3075 C 287.184 -0.104359 -1.6978 0
M  V30 3076 O 288.369 -0.289038 -1.92037 0
M  V30 3077 C 285.499 -0.924317 -3.34774 0
M  V30 3078 C 284.453 -1.99685 -3.78563 0
M  V30 3079 C 283.779 -1.55658 -5.11541 0
M  V30 3080 C 285.079 -3.41003 -3.95619 0
M  V30 3081 H 286.773 -2.1569 -2.07649 0
M  V30 3082 H 284.319 -1.03839 -0.997675 0
M  V30 3083 H 286.272 -0.842934 -4.12883 0
M  V30 3084 H 284.996 0.0509793 -3.2656 0
M  V30 3085 H 283.655 -2.06813 -3.02694 0
M  V30 3086 H 283.303 -0.569132 -4.9977 0
M  V30 3087 H 283.003 -2.27409 -5.41811 0
M  V30 3088 H 284.527 -1.48928 -5.92159 0
M  V30 3089 H 285.941 -3.36547 -4.64122 0
M  V30 3090 H 284.338 -4.10975 -4.37286 0
M  V30 3091 H 285.408 -3.81754 -2.98985 0
M  V30 3092 N 286.751 1.08385 -1.14413 0
M  V30 3093 C 287.683 2.1519 -0.789036 0
M  V30 3094 C 288.696 1.61638 0.19417 0
M  V30 3095 O 289.885 1.78479 -0.0275711 0
M  V30 3096 C 286.985 3.38565 -0.15058 0
M  V30 3097 C 286.158 4.21501 -1.16857 0
M  V30 3098 C 285.217 5.23277 -0.553832 0
M  V30 3099 O 284.243 5.56041 -1.21686 0
M  V30 3100 N 285.445 5.76629 0.669296 0
M  V30 3101 H 288.21 2.46257 -1.70814 0
M  V30 3102 H 285.771 1.24198 -1.03858 0
M  V30 3103 H 287.763 4.03777 0.273181 0
M  V30 3104 H 286.333 3.05299 0.671667 0
M  V30 3105 H 285.553 3.52265 -1.76926 0
M  V30 3106 H 286.841 4.73731 -1.85624 0
M  V30 3107 H 286.239 5.52243 1.22654 0
M  V30 3108 H 284.796 6.43521 1.03556 0
M  V30 3109 N 288.23 0.939286 1.26551 0
M  V30 3110 C 289.646 0.641304 1.46149 0
M  V30 3111 C 289.846 -0.805964 1.84679 0
M  V30 3112 O 288.902 -1.58278 1.96734 0
M  V30 3113 C 290.215 1.6011 2.54529 0
M  V30 3114 C 291.763 1.6106 2.68382 0
M  V30 3115 C 292.238 2.55765 3.79932 0
M  V30 3116 N 293.729 2.5404 3.87322 0
M  V30 3117 C 294.464 3.24004 4.73085 0
M  V30 3118 N 293.96 4.03388 5.63249 0
M  V30 3119 N 295.753 3.12965 4.66914 0
M  V30 3120 H 287.904 1.87478 0.998285 0
M  V30 3121 H 290.167 0.805559 0.499779 0
M  V30 3122 H 289.873 2.63412 2.33039 0
M  V30 3123 H 289.747 1.35171 3.52149 0
M  V30 3124 H 292.134 0.584835 2.89247 0
M  V30 3125 H 292.215 1.90053 1.71212 0
M  V30 3126 H 291.859 3.58458 3.5982 0
M  V30 3127 H 291.789 2.24063 4.76554 0
M  V30 3128 H 294.28 1.96396 3.22858 0
M  V30 3129 H 294.593 4.5373 6.25579 0
M  V30 3130 H 292.938 4.07489 5.63008 0
M  V30 3131 H 296.129 2.50432 3.95476 0
M  V30 3132 H 296.302 3.67759 5.33533 0
M  V30 3133 N 289.708 -1.40897 0.706093 0
M  V30 3134 C 290.618 -2.3455 0.0482286 0
M  V30 3135 C 291.634 -1.56796 -0.754396 0
M  V30 3136 O 292.81 -1.89228 -0.689538 0
M  V30 3137 C 289.875 -3.35625 -0.869303 0
M  V30 3138 C 288.936 -4.29261 -0.0576994 0
M  V30 3139 C 288.169 -5.25508 -0.931531 0
M  V30 3140 O 288.392 -5.27472 -2.17092 0
M  V30 3141 O 287.326 -6.00727 -0.375587 0
M  V30 3142 H 291.152 -2.92407 0.820476 0
M  V30 3143 H 288.737 -1.4193 0.4665 0
M  V30 3144 H 290.619 -3.97635 -1.39514 0
M  V30 3145 H 289.294 -2.80196 -1.62086 0
M  V30 3146 H 288.201 -3.70566 0.512988 0
M  V30 3147 H 289.534 -4.87817 0.655426 0
M  V30 3148 N 291.186 -0.45159 -1.50991 0
M  V30 3149 C 292.096 0.358431 -2.31846 0
M  V30 3150 C 293.112 1.01438 -1.41373 0
M  V30 3151 O 294.288 1.00663 -1.74439 0
M  V30 3152 C 291.353 1.43704 -3.15515 0
M  V30 3153 C 290.414 0.799742 -4.21785 0
M  V30 3154 C 289.647 1.82696 -5.01456 0
M  V30 3155 O 289.87 3.05105 -4.81941 0
M  V30 3156 O 288.804 1.40958 -5.85162 0
M  V30 3157 H 292.63 -0.302032 -3.02194 0
M  V30 3158 H 290.215 -0.213825 -1.47862 0
M  V30 3159 H 292.097 2.06227 -3.67489 0
M  V30 3160 H 290.772 2.08133 -2.47916 0
M  V30 3161 H 289.679 0.136084 -3.73852 0
M  V30 3162 H 291.012 0.198718 -4.91799 0
M  V30 3163 N 292.664 1.56529 -0.183458 0
M  V30 3164 C 293.627 2.17324 0.728223 0
M  V30 3165 C 294.627 1.12453 1.14939 0
M  V30 3166 O 295.817 1.37902 1.06437 0
M  V30 3167 C 292.949 2.76591 1.99274 0
M  V30 3168 H 294.142 2.99241 0.198772 0
M  V30 3169 H 291.695 1.5616 0.0661391 0
M  V30 3170 H 292.43 1.98441 2.56499 0
M  V30 3171 H 292.215 3.5335 1.69959 0
M  V30 3172 H 293.705 3.23311 2.6431 0
M  V30 3173 N 294.142 -0.090211 1.57342 0
M  V30 3174 C 295.052 -1.12735 2.05738 0
M  V30 3175 C 296.068 -1.43557 0.983231 0
M  V30 3176 O 297.244 -1.54101 1.29672 0
M  V30 3177 C 294.309 -2.42659 2.47624 0
M  V30 3178 C 293.37 -2.18975 3.69254 0
M  V30 3179 C 292.603 -3.42704 4.09133 0
M  V30 3180 O 292.826 -4.51127 3.49057 0
M  V30 3181 O 291.76 -3.32003 5.02053 0
M  V30 3182 H 295.586 -0.746279 2.94388 0
M  V30 3183 H 293.171 -0.303064 1.46294 0
M  V30 3184 H 295.053 -3.19155 2.7517 0
M  V30 3185 H 293.728 -2.80182 1.62109 0
M  V30 3186 H 292.635 -1.40244 3.46818 0
M  V30 3187 H 293.968 -1.86342 4.55563 0
M  V30 3188 N 295.62 -1.53406 -0.361157 0
M  V30 3189 C 296.568 -1.80832 -1.46296 0
M  V30 3190 C 297.562 -0.677699 -1.55253 0
M  V30 3191 O 298.768 -0.860723 -1.58087 0
M  V30 3192 H 295.143 -0.572627 -0.487445 0
M  V30 3193 H 297.114 -2.73045 -1.20371 0
M  V30 3194 C 295.863 -2.01907 -2.8307 0
M  V30 3195 H 295.186 -2.88349 -2.76938 0
M  V30 3196 H 296.626 -2.25072 -3.59331 0
M  V30 3197 C 295.085 -0.799449 -3.27277 0
M  V30 3198 O 295.615 0.00971761 -4.01699 0
M  V30 3199 N 293.821 -0.621637 -2.83873 0
M  V30 3200 H 293.368 -1.28126 -2.23476 0
M  V30 3201 H 293.326 0.19298 -3.13807 0
M  V30 3202 N 297.098 0.621204 -1.44841 0
M  V30 3203 C 298.326 1.40752 -1.51646 0
M  V30 3204 C 298.741 1.88246 -0.144549 0
M  V30 3205 O 298.098 1.61422 0.851416 0
M  V30 3206 C 298.149 2.62119 -2.4895 0
M  V30 3207 O 297.87 2.16602 -3.80808 0
M  V30 3208 C 299.371 3.55135 -2.65319 0
M  V30 3209 H 296.591 0.431325 -0.514004 0
M  V30 3210 H 299.135 0.758835 -1.899 0
M  V30 3211 H 297.29 3.23058 -2.13805 0
M  V30 3212 H 297.704 2.95358 -4.33433 0
M  V30 3213 H 299.178 4.36874 -3.37409 0
M  V30 3214 H 299.655 4.04592 -1.70886 0
M  V30 3215 H 300.261 3.00058 -3.01405 0
M  V30 3216 N 298.576 1.31904 0.862503 0
M  V30 3217 C 299.506 1.22782 1.98612 0
M  V30 3218 C 300.487 0.113362 1.69722 0
M  V30 3219 O 301.672 0.299218 1.91881 0
M  V30 3220 C 298.802 0.942058 3.34279 0
M  V30 3221 C 297.756 2.0169 3.77499 0
M  V30 3222 C 297.082 1.58369 5.10709 0
M  V30 3223 C 298.382 3.43096 3.93805 0
M  V30 3224 H 300.076 2.16788 2.06502 0
M  V30 3225 H 297.622 1.04366 0.992154 0
M  V30 3226 H 299.575 0.864818 4.1243 0
M  V30 3227 H 298.299 -0.0336603 3.26583 0
M  V30 3228 H 296.958 2.08416 3.01593 0
M  V30 3229 H 296.606 0.595628 4.99461 0
M  V30 3230 H 296.306 2.30279 5.40597 0
M  V30 3231 H 297.83 1.52067 5.91361 0
M  V30 3232 H 299.244 3.39003 4.62331 0
M  V30 3233 H 297.641 4.13288 4.35101 0
M  V30 3234 H 298.711 3.83334 2.96957 0
M  V30 3235 N 300.054 -1.07777 1.14986 0
M  V30 3236 C 300.986 -2.14769 0.800436 0
M  V30 3237 C 301.999 -1.61739 -0.185595 0
M  V30 3238 O 303.188 -1.78462 0.0370358 0
M  V30 3239 C 300.288 -3.38481 0.168533 0
M  V30 3240 C 299.461 -4.20876 1.1909 0
M  V30 3241 C 298.52 -5.22976 0.581575 0
M  V30 3242 O 297.546 -5.55388 1.24633 0
M  V30 3243 N 298.748 -5.76976 -0.638706 0
M  V30 3244 H 301.513 -2.45348 1.72118 0
M  V30 3245 H 299.074 -1.23645 1.04515 0
M  V30 3246 H 301.066 -4.03916 -0.251764 0
M  V30 3247 H 299.636 -3.05651 -0.655467 0
M  V30 3248 H 298.856 -3.51322 1.78791 0
M  V30 3249 H 300.144 -4.7274 1.88133 0
M  V30 3250 H 299.542 -5.52886 -1.19723 0
M  V30 3251 H 298.099 -6.44061 -1.00142 0
M  V30 3252 N 301.532 -0.945985 -1.26051 0
M  V30 3253 C 302.757 -0.612525 -1.98149 0
M  V30 3254 C 303.182 0.806623 -1.69927 0
M  V30 3255 O 302.54 1.54411 -0.950108 0
M  V30 3256 C 302.588 -0.866981 -3.50023 0
M  V30 3257 O 301.692 0.0585333 -4.12358 0
M  V30 3258 H 301.033 -0.23379 -0.621481 0
M  V30 3259 H 303.563 -1.27023 -1.60395 0
M  V30 3260 H 303.573 -0.789792 -4.00283 0
M  V30 3261 H 302.248 -1.90135 -3.69894 0
M  V30 3262 H 300.825 -0.0701241 -3.72834 0
M  V30 3263 N 303.011 1.40521 -0.713556 0
M  V30 3264 C 304.258 2.00923 -0.25219 0
M  V30 3265 C 304.586 1.56571 1.15395 0
M  V30 3266 O 303.841 0.775874 1.79663 0
M  V30 3267 C 304.14 3.56317 -0.278 0
M  V30 3268 C 303.806 4.20246 -1.63415 0
M  V30 3269 C 302.468 4.37422 -2.00538 0
M  V30 3270 C 304.82 4.55923 -2.52554 0
M  V30 3271 C 302.148 4.87558 -3.2635 0
M  V30 3272 C 304.5 5.07458 -3.77716 0
M  V30 3273 C 303.164 5.22843 -4.14959 0
M  V30 3274 H 302.434 0.735231 -0.0922829 0
M  V30 3275 H 305.081 1.68161 -0.916188 0
M  V30 3276 H 303.386 3.88976 0.469567 0
M  V30 3277 H 305.083 4.00883 0.0967819 0
M  V30 3278 H 301.673 4.07263 -1.33546 0
M  V30 3279 H 305.857 4.42291 -2.25149 0
M  V30 3280 H 301.113 4.97654 -3.55176 0
M  V30 3281 H 305.287 5.34041 -4.4696 0
M  V30 3282 H 302.914 5.61454 -5.12516 0
M  V30 3283 N 304.489 0.459591 1.5075 0
M  V30 3284 C 305.905 0.113092 1.59199 0
M  V30 3285 C 306.105 -1.37951 1.46874 0
M  V30 3286 O 305.161 -2.15168 1.32132 0
M  V30 3287 C 306.474 0.653043 2.93523 0
M  V30 3288 C 308.022 0.615449 3.0689 0
M  V30 3289 C 308.497 1.13275 4.43771 0
M  V30 3290 N 309.988 1.09167 4.50152 0
M  V30 3291 C 310.723 1.46256 5.54434 0
M  V30 3292 N 310.219 1.90739 6.66026 0
M  V30 3293 N 312.012 1.37932 5.44914 0
M  V30 3294 H 304.163 1.43049 1.57005 0
M  V30 3295 H 306.426 0.590861 0.741341 0
M  V30 3296 H 306.132 1.69822 3.07983 0
M  V30 3297 H 306.006 0.0902132 3.77092 0
M  V30 3298 H 308.393 -0.420793 2.92084 0
M  V30 3299 H 308.474 1.21495 2.25106 0
M  V30 3300 H 308.118 2.16757 4.59324 0
M  V30 3301 H 308.048 0.509576 5.24129 0
M  V30 3302 H 310.539 0.76528 3.7007 0
M  V30 3303 H 310.852 2.17218 7.41644 0
M  V30 3304 H 309.197 1.94683 6.67176 0
M  V30 3305 H 312.388 1.0303 4.56621 0
M  V30 3306 H 312.561 1.67164 6.26067 0
M  V30 3307 N 305.967 -1.56429 0.191757 0
M  V30 3308 C 306.899 -2.16154 -0.762245 0
M  V30 3309 C 307.912 -1.12247 -1.17917 0
M  V30 3310 O 309.101 -1.39353 -1.11548 0
M  V30 3311 C 306.201 -2.70606 -2.04024 0
M  V30 3312 C 305.374 -3.99381 -1.78364 0
M  V30 3313 C 304.433 -4.38692 -2.90578 0
M  V30 3314 O 303.459 -5.06179 -2.6033 0
M  V30 3315 N 304.661 -4.01922 -4.18854 0
M  V30 3316 H 307.426 -2.98643 -0.251526 0
M  V30 3317 H 304.987 -1.61897 0.00967373 0
M  V30 3318 H 306.979 -2.93891 -2.78227 0
M  V30 3319 H 305.549 -1.9259 -2.46227 0
M  V30 3320 H 304.769 -3.84262 -0.879581 0
M  V30 3321 H 306.057 -4.83445 -1.58614 0
M  V30 3322 H 305.455 -3.47631 -4.46283 0
M  V30 3323 H 304.012 -4.30165 -4.89695 0
M  V30 3324 N 307.445 0.0818655 -1.57387 0
M  V30 3325 C 308.722 0.815343 -1.77796 0
M  V30 3326 C 309.102 1.96289 -0.77679 0
M  V30 3327 O 308.45 2.27691 0.192106 0
M  V30 3328 C 308.66 1.29765 -3.23978 0
M  V30 3329 C 310.008 1.7351 -3.8753 0
M  V30 3330 O 311.032 1.39356 -3.27808 0
M  V30 3331 O 309.891 2.36708 -4.92576 0
M  V30 3332 H 306.985 0.389914 -0.729312 0
M  V30 3333 H 309.531 0.0627213 -1.69584 0
M  V30 3334 H 308.303 0.47608 -3.88393 0
M  V30 3335 H 307.926 2.11189 -3.36875 0
M  V30 3336 N 308.923 1.53595 0.353017 0
M  V30 3337 C 310.169 1.70638 1.09593 0
M  V30 3338 C 310.502 0.463286 1.88593 0
M  V30 3339 O 309.777 -0.539597 1.86865 0
M  V30 3340 C 310.06 2.96406 2.04489 0
M  V30 3341 C 309.913 4.30901 1.29014 0
M  V30 3342 C 311.232 3.17812 3.0444 0
M  V30 3343 H 308.351 0.620913 0.397034 0
M  V30 3344 H 310.993 1.86254 0.375446 0
M  V30 3345 H 309.143 2.83223 2.65927 0
M  V30 3346 H 310.815 4.55917 0.702638 0
M  V30 3347 H 309.058 4.29741 0.592071 0
M  V30 3348 H 309.729 5.1506 1.98537 0
M  V30 3349 H 312.205 3.30263 2.53112 0
M  V30 3350 H 311.081 4.07223 3.6805 0
M  V30 3351 H 311.342 2.33669 3.75301 0
M  V30 3352 N 310.401 -0.613514 1.45168 0
M  V30 3353 C 311.678 -1.37263 1.39349 0
M  V30 3354 C 312.058 -2.11012 0.0610848 0
M  V30 3355 O 311.406 -2.07502 -0.956825 0
M  V30 3356 C 311.616 -2.3244 2.60332 0
M  V30 3357 C 312.964 -2.9523 3.05163 0
M  V30 3358 O 313.988 -2.42762 2.60663 0
M  V30 3359 O 312.847 -3.90454 3.82372 0
M  V30 3360 H 309.941 -0.615188 0.552696 0
M  V30 3361 H 312.487 -0.637097 1.57287 0
M  V30 3362 H 311.259 -1.77164 3.48896 0
M  V30 3363 H 310.882 -3.13383 2.44698 0
M  V30 3364 N 311.879 -1.3236 -0.855495 0
M  V30 3365 C 312.827 -1.2118 -1.9854 0
M  V30 3366 C 313.821 -0.116788 -1.68997 0
M  V30 3367 O 315.027 -0.279657 -1.77814 0
M  V30 3368 H 311.402 -0.375608 -0.651477 0
M  V30 3369 H 313.373 -2.16743 -2.05098 0
M  V30 3370 C 312.122 -0.950849 -3.34446 0
M  V30 3371 H 311.445 -1.78563 -3.57708 0
M  V30 3372 H 312.885 -0.912863 -4.14057 0
M  V30 3373 C 311.344 0.346404 -3.35114 0
M  V30 3374 O 311.874 1.35855 -3.7803 0
M  V30 3375 N 310.08 0.36808 -2.88259 0
M  V30 3376 H 309.627 -0.456102 -2.5353 0
M  V30 3377 H 309.585 1.23591 -2.89089 0
M  V30 3378 N 313.357 1.07166 -1.15556 0
M  V30 3379 C 314.32 2.12589 -0.856644 0
M  V30 3380 C 315.32 1.6015 0.14444 0
M  V30 3381 O 316.51 1.7399 -0.0854163 0
M  V30 3382 C 313.642 3.39753 -0.279405 0
M  V30 3383 H 314.835 2.40539 -1.79112 0
M  V30 3384 H 312.388 1.23086 -0.963298 0
M  V30 3385 H 313.123 3.17447 0.663174 0
M  V30 3386 H 312.908 3.79117 -1.00063 0
M  V30 3387 H 314.398 4.17507 -0.0879113 0
M  V30 3388 N 314.835 0.952656 1.25548 0
M  V30 3389 C 316.06 0.623025 1.97821 0
M  V30 3390 C 316.485 -0.7976 1.70352 0
M  V30 3391 O 315.843 -1.53905 0.958283 0
M  V30 3392 C 315.891 0.885532 3.49558 0
M  V30 3393 O 314.995 -0.0366641 4.12384 0
M  V30 3394 H 314.336 0.237082 0.620232 0
M  V30 3395 H 316.866 1.27871 1.59719 0
M  V30 3396 H 316.876 0.811009 3.99858 0
M  V30 3397 H 315.551 1.92094 3.6888 0
M  V30 3398 H 314.128 0.0898954 3.72792 0
M  V30 3399 N 316.313 -1.40141 0.720998 0
M  V30 3400 C 317.243 -2.33339 0.0867621 0
M  V30 3401 C 318.224 -1.53178 -0.739622 0
M  V30 3402 O 319.409 -1.81625 -0.687449 0
M  V30 3403 C 316.539 -3.37194 -0.831728 0
M  V30 3404 C 315.493 -4.27857 -0.110558 0
M  V30 3405 C 314.819 -5.22294 -1.14513 0
M  V30 3406 C 316.119 -5.11872 1.0385 0
M  V30 3407 H 317.813 -2.86626 0.865219 0
M  V30 3408 H 315.359 -1.37814 0.417516 0
M  V30 3409 H 317.312 -4.01335 -1.28485 0
M  V30 3410 H 316.036 -2.82314 -1.64214 0
M  V30 3411 H 314.695 -3.65176 0.322797 0
M  V30 3412 H 314.343 -4.63717 -1.94874 0
M  V30 3413 H 314.043 -5.83797 -0.667446 0
M  V30 3414 H 315.567 -5.89312 -1.59824 0
M  V30 3415 H 316.981 -5.69436 0.664482 0
M  V30 3416 H 315.378 -5.82445 1.4449 0
M  V30 3417 H 316.448 -4.4753 1.86668 0
M  V30 3418 N 317.792 -0.46758 -1.50504 0
M  V30 3419 C 318.755 0.317059 -2.26996 0
M  V30 3420 C 319.755 0.923513 -1.31635 0
M  V30 3421 O 320.945 0.793239 -1.55091 0
M  V30 3422 C 318.077 1.45134 -3.08462 0
M  V30 3423 H 319.27 -0.353723 -2.97807 0
M  V30 3424 H 316.823 -0.221545 -1.54722 0
M  V30 3425 H 317.558 2.15728 -2.4214 0
M  V30 3426 H 317.343 1.02232 -3.78538 0
M  V30 3427 H 318.833 2.00493 -3.66323 0
M  V30 3428 N 319.27 1.56325 -0.20005 0
M  V30 3429 C 320.686 1.58839 0.155716 0
M  V30 3430 C 320.886 1.21636 1.60645 0
M  V30 3431 O 319.942 0.941437 2.34293 0
M  V30 3432 C 321.255 3.0032 -0.151124 0
M  V30 3433 C 322.803 3.12866 -0.0916284 0
M  V30 3434 C 323.278 4.56488 -0.371845 0
M  V30 3435 N 324.769 4.62089 -0.320641 0
M  V30 3436 C 325.504 5.71116 -0.511243 0
M  V30 3437 N 325 6.88592 -0.762461 0
M  V30 3438 N 326.793 5.60335 -0.445157 0
M  V30 3439 H 318.944 1.78788 -1.14668 0
M  V30 3440 H 321.207 0.829996 -0.458051 0
M  V30 3441 H 320.913 3.32117 -1.15721 0
M  V30 3442 H 320.787 3.73257 0.543986 0
M  V30 3443 H 323.174 2.80878 0.905065 0
M  V30 3444 H 323.255 2.42304 -0.81989 0
M  V30 3445 H 322.899 4.89189 -1.36588 0
M  V30 3446 H 322.829 5.25246 0.377362 0
M  V30 3447 H 325.32 3.77665 -0.13329 0
M  V30 3448 H 325.633 7.67581 -0.896576 0
M  V30 3449 H 323.978 6.90387 -0.799412 0
M  V30 3450 H 327.169 4.67436 -0.249278 0
M  V30 3451 H 327.342 6.45243 -0.597116 0
M  V30 3452 N 320.748 -0.0735177 1.57428 0
M  V30 3453 C 321.678 -1.0879 2.06608 0
M  V30 3454 C 322.659 -1.40473 0.959237 0
M  V30 3455 O 323.844 -1.5013 1.23185 0
M  V30 3456 C 320.974 -2.40183 2.50857 0
M  V30 3457 C 319.928 -2.22858 3.65402 0
M  V30 3458 C 319.254 -3.59619 3.957 0
M  V30 3459 C 320.554 -1.65123 4.95511 0
M  V30 3460 H 322.248 -0.678673 2.91607 0
M  V30 3461 H 319.794 -0.325013 1.40284 0
M  V30 3462 H 321.747 -3.11437 2.83874 0
M  V30 3463 H 320.471 -2.83083 1.62885 0
M  V30 3464 H 319.13 -1.54045 3.32664 0
M  V30 3465 H 318.778 -4.00086 3.04861 0
M  V30 3466 H 318.478 -3.48866 4.72828 0
M  V30 3467 H 320.002 -4.32306 4.31212 0
M  V30 3468 H 321.416 -2.26241 5.26771 0
M  V30 3469 H 319.813 -1.65071 5.7695 0
M  V30 3470 H 320.883 -0.612559 4.81015 0
M  V30 3471 N 322.226 -1.5378 -0.344866 0
M  V30 3472 C 323.503 -1.61589 -1.10219 0
M  V30 3473 C 323.883 -0.436316 -2.06542 0
M  V30 3474 O 323.231 0.571543 -2.21237 0
M  V30 3475 C 323.441 -2.97602 -1.82301 0
M  V30 3476 C 324.789 -3.5291 -2.36093 0
M  V30 3477 O 325.813 -2.99768 -1.924 0
M  V30 3478 O 324.672 -4.45859 -3.16026 0
M  V30 3479 H 321.766 -0.653522 -0.506792 0
M  V30 3480 H 324.312 -1.66126 -0.346465 0
M  V30 3481 H 323.084 -3.74893 -1.12121 0
M  V30 3482 H 322.707 -2.9665 -2.64735 0
M  V30 3483 N 323.704 0.605807 -1.45491 0
M  V30 3484 C 324.634 1.72709 -1.57143 0
M  V30 3485 C 325.615 1.6476 -0.422884 0
M  V30 3486 O 326.8 1.83132 -0.646247 0
M  V30 3487 C 323.93 3.11316 -1.53948 0
M  V30 3488 C 322.884 3.34077 -2.67537 0
M  V30 3489 C 322.21 4.72975 -2.49397 0
M  V30 3490 C 323.51 3.24158 -4.09535 0
M  V30 3491 H 325.204 1.63214 -2.51001 0
M  V30 3492 H 322.75 0.78379 -1.208 0
M  V30 3493 H 324.703 3.89557 -1.60696 0
M  V30 3494 H 323.427 3.21655 -0.566205 0
M  V30 3495 H 322.086 2.58227 -2.6022 0
M  V30 3496 H 321.734 4.8005 -1.50205 0
M  V30 3497 H 321.434 4.8916 -3.25571 0
M  V30 3498 H 322.958 5.53414 -2.58002 0
M  V30 3499 H 324.372 3.92271 -4.18086 0
M  V30 3500 H 322.769 3.51872 -4.86113 0
M  V30 3501 H 323.839 2.2157 -4.31317 0
M  V30 3502 N 325.182 1.32811 0.848464 0
M  V30 3503 C 326.092 1.24278 1.98978 0
M  V30 3504 C 327.108 0.155176 1.73307 0
M  V30 3505 O 328.284 0.376999 1.9784 0
M  V30 3506 C 325.349 0.972444 3.32783 0
M  V30 3507 C 324.41 2.14911 3.71634 0
M  V30 3508 C 323.643 1.89157 4.99054 0
M  V30 3509 O 323.866 0.837165 5.64223 0
M  V30 3510 O 322.8 2.75433 5.35183 0
M  V30 3511 H 326.626 2.20238 2.09115 0
M  V30 3512 H 324.211 1.12762 0.980052 0
M  V30 3513 H 326.093 0.838432 4.12975 0
M  V30 3514 H 324.768 0.043051 3.23671 0
M  V30 3515 H 323.675 2.33862 2.91992 0
M  V30 3516 H 325.008 3.06151 3.85399 0
M  V30 3517 N 326.66 -1.06551 1.16123 0
M  V30 3518 C 328.076 -1.3142 0.905585 0
M  V30 3519 C 328.276 -1.96571 -0.442964 0
M  V30 3520 O 327.332 -2.23068 -1.18308 0
M  V30 3521 C 328.645 -2.19741 2.05267 0
M  V30 3522 C 330.193 -2.33165 2.08813 0
M  V30 3523 C 330.668 -3.24838 3.22868 0
M  V30 3524 N 332.159 -3.32421 3.22568 0
M  V30 3525 C 332.894 -4.0344 4.0746 0
M  V30 3526 N 332.39 -4.77003 5.02434 0
M  V30 3527 N 334.183 -3.99464 3.95456 0
M  V30 3528 H 326.334 -0.626548 2.02949 0
M  V30 3529 H 328.597 -0.338777 0.8854 0
M  V30 3530 H 328.303 -1.79142 3.02657 0
M  V30 3531 H 328.177 -3.20313 1.99198 0
M  V30 3532 H 330.564 -2.73013 1.12018 0
M  V30 3533 H 330.645 -1.3227 2.18948 0
M  V30 3534 H 330.289 -2.85708 4.19921 0
M  V30 3535 H 330.219 -4.25707 3.0997 0
M  V30 3536 H 332.71 -2.79994 2.53795 0
M  V30 3537 H 333.023 -5.28712 5.63634 0
M  V30 3538 H 331.368 -4.75992 5.06415 0
M  V30 3539 H 334.559 -3.4111 3.20564 0
M  V30 3540 H 334.732 -4.54544 4.61837 0
M  V30 3541 N 328.138 -0.959301 -1.25041 0
M  V30 3542 C 329.085 -0.482057 -2.2571 0
M  V30 3543 C 330.055 0.467939 -1.59372 0
M  V30 3544 O 331.24 0.380159 -1.86974 0
M  V30 3545 C 328.38 0.229623 -3.44335 0
M  V30 3546 C 327.493 -0.758156 -4.25295 0
M  V30 3547 C 326.628 -0.0234403 -5.31195 0
M  V30 3548 C 325.667 -1.00184 -6.03846 0
M  V30 3549 N 324.804 -0.29769 -7.01469 0
M  V30 3550 H 329.644 -1.34538 -2.65901 0
M  V30 3551 H 327.181 -0.674592 -1.3072 0
M  V30 3552 H 329.139 0.658856 -4.11965 0
M  V30 3553 H 327.769 1.05696 -3.05005 0
M  V30 3554 H 326.821 -1.30586 -3.57284 0
M  V30 3555 H 328.133 -1.50458 -4.75567 0
M  V30 3556 H 327.287 0.464201 -6.04922 0
M  V30 3557 H 326.026 0.755741 -4.81809 0
M  V30 3558 H 325.031 -1.50044 -5.2893 0
M  V30 3559 H 326.256 -1.78133 -6.55321 0
M  V30 3560 H 324.202 0.462668 -6.54366 0
M  V30 3561 H 324.119 -0.983128 -7.4958 0
M  V30 3562 H 325.387 0.16826 -7.79318 0
M  V30 3563 N 329.616 1.39756 -0.72842 0
M  V30 3564 C 330.862 2.00942 -0.273892 0
M  V30 3565 C 331.195 1.57656 1.13394 0
M  V30 3566 O 330.47 0.802434 1.77176 0
M  V30 3567 C 330.753 3.58211 -0.368346 0
M  V30 3568 C 330.606 4.11534 -1.81548 0
M  V30 3569 C 331.925 4.39372 0.253054 0
M  V30 3570 H 329.044 0.730047 -0.100996 0
M  V30 3571 H 331.686 1.66056 -0.923337 0
M  V30 3572 H 329.836 3.88061 0.184588 0
M  V30 3573 H 331.508 3.92431 -2.42478 0
M  V30 3574 H 329.751 3.65341 -2.33898 0
M  V30 3575 H 330.422 5.20682 -1.83288 0
M  V30 3576 H 332.898 4.15527 -0.218224 0
M  V30 3577 H 331.774 5.48677 0.156585 0
M  V30 3578 H 332.035 4.21358 1.33826 0
M  V30 3579 N 331.094 0.475555 1.50254 0
M  V30 3580 C 332.004 -0.321501 2.32387 0
M  V30 3581 C 333.02 -0.991755 1.42969 0
M  V30 3582 O 334.196 -0.978747 1.76018 0
M  V30 3583 C 331.261 -1.38667 3.17762 0
M  V30 3584 C 330.322 -0.732538 4.23004 0
M  V30 3585 C 329.555 -1.74695 5.04299 0
M  V30 3586 O 329.778 -2.97399 4.86734 0
M  V30 3587 O 328.712 -1.31631 5.8733 0
M  V30 3588 H 332.538 0.350071 3.01676 0
M  V30 3589 H 330.123 0.237321 1.47503 0
M  V30 3590 H 332.005 -2.00354 3.70724 0
M  V30 3591 H 330.68 -2.04163 2.51196 0
M  V30 3592 H 329.587 -0.0765902 3.74022 0
M  V30 3593 H 330.92 -0.120452 4.92053 0
M  V30 3594 N 332.573 -1.56217 0.208337 0
M  V30 3595 C 333.798 -2.02782 -0.435222 0
M  V30 3596 C 334.223 -1.08738 -1.53485 0
M  V30 3597 O 333.581 -0.0731855 -1.81152 0
M  V30 3598 C 333.629 -3.47687 -0.956335 0
M  V30 3599 O 332.733 -3.56773 -2.06849 0
M  V30 3600 H 332.074 -0.656403 -0.100158 0
M  V30 3601 H 334.604 -2.02033 0.3231 0
M  V30 3602 H 334.614 -3.87745 -1.26955 0
M  V30 3603 H 333.289 -4.15624 -0.15143 0
M  V30 3604 H 331.866 -3.28597 -1.76292 0
M  V30 3605 N 334.051 0.0651679 -1.57465 0
M  V30 3606 C 334.981 1.07693 -2.07182 0
M  V30 3607 C 335.962 1.39962 -0.966673 0
M  V30 3608 O 337.147 1.49475 -1.2398 0
M  V30 3609 C 334.277 2.3885 -2.52127 0
M  V30 3610 C 333.231 2.20917 -3.66579 0
M  V30 3611 C 332.557 3.57515 -3.97601 0
M  V30 3612 C 333.857 1.62493 -4.9638 0
M  V30 3613 H 335.551 0.663199 -2.91962 0
M  V30 3614 H 333.097 0.317569 -1.40455 0
M  V30 3615 H 335.05 3.09928 -2.85522 0
M  V30 3616 H 333.774 2.82215 -1.64384 0
M  V30 3617 H 332.433 1.52279 -3.33477 0
M  V30 3618 H 332.081 3.98463 -3.06979 0
M  V30 3619 H 331.781 3.46353 -4.74672 0
M  V30 3620 H 333.305 4.30013 -4.33499 0
M  V30 3621 H 334.719 2.23445 -5.27963 0
M  V30 3622 H 333.116 1.62009 -5.77818 0
M  V30 3623 H 334.186 0.587041 -4.81333 0
M  V30 3624 N 335.529 1.53961 0.336706 0
M  V30 3625 C 336.461 1.78751 1.4346 0
M  V30 3626 C 337.474 0.669019 1.48418 0
M  V30 3627 O 338.663 0.945884 1.51378 0
M  V30 3628 C 335.763 1.87844 2.82078 0
M  V30 3629 C 334.936 3.17854 3.00479 0
M  V30 3630 C 333.995 3.17816 4.19379 0
M  V30 3631 O 333.021 3.91511 4.13168 0
M  V30 3632 N 334.223 2.40669 5.2826 0
M  V30 3633 H 336.988 2.73493 1.22563 0
M  V30 3634 H 334.549 1.53096 0.526625 0
M  V30 3635 H 336.541 1.85261 3.59806 0
M  V30 3636 H 335.111 1.00257 2.96086 0
M  V30 3637 H 334.331 3.33504 2.10163 0
M  V30 3638 H 335.619 4.03718 3.0966 0
M  V30 3639 H 335.017 1.8036 5.36178 0
M  V30 3640 H 333.574 2.43877 6.04456 0
M  V30 3641 N 337.007 -0.598083 1.45811 0
M  V30 3642 C 337.917 -1.73632 1.57763 0
M  V30 3643 C 338.933 -1.67763 0.461676 0
M  V30 3644 O 340.109 -1.87949 0.723685 0
M  V30 3645 C 337.174 -3.10114 1.55018 0
M  V30 3646 C 336.235 -3.27364 2.77726 0
M  V30 3647 C 335.468 -4.57334 2.75102 0
M  V30 3648 O 335.691 -5.40258 1.8297 0
M  V30 3649 O 334.625 -4.77502 3.66437 0
M  V30 3650 H 338.451 -1.66498 2.53992 0
M  V30 3651 H 336.036 -0.763308 1.28429 0
M  V30 3652 H 337.918 -3.9141 1.56129 0
M  V30 3653 H 336.593 -3.17718 0.619431 0
M  V30 3654 H 335.5 -2.45619 2.82174 0
M  V30 3655 H 336.833 -3.24641 3.69958 0
M  V30 3656 N 338.485 -1.33259 -0.841409 0
M  V30 3657 C 339.395 -1.25332 -1.98316 0
M  V30 3658 C 340.411 -0.164364 -1.73222 0
M  V30 3659 O 341.587 -0.387486 -1.97637 0
M  V30 3660 C 338.652 -0.990078 -3.32262 0
M  V30 3661 C 337.713 -2.16879 -3.70489 0
M  V30 3662 C 336.946 -1.91801 -4.98044 0
M  V30 3663 O 337.169 -0.867075 -5.63771 0
M  V30 3664 O 336.103 -2.78267 -5.33714 0
M  V30 3665 H 339.929 -2.21344 -2.07944 0
M  V30 3666 H 337.514 -1.1328 -0.974058 0
M  V30 3667 H 339.396 -0.860321 -4.12524 0
M  V30 3668 H 338.071 -0.0602155 -3.23644 0
M  V30 3669 H 336.978 -2.35407 -2.90748 0
M  V30 3670 H 338.311 -3.0819 -3.8377 0
M  V30 3671 N 339.963 1.05934 -1.16686 0
M  V30 3672 C 341.212 1.78188 -0.945085 0
M  V30 3673 C 341.525 1.88338 0.528021 0
M  V30 3674 O 342.731 2.57258 0.867799 0
M  V30 3675 C 341.187 3.20277 -1.64167 0
M  V30 3676 C 340.795 3.18281 -3.15279 0
M  V30 3677 C 342.539 3.97039 -1.502 0
M  V30 3678 C 340.446 4.55112 -3.7766 0
M  V30 3679 H 339.376 0.667866 -0.349959 0
M  V30 3680 H 342.027 1.18794 -1.39858 0
M  V30 3681 H 340.409 3.79952 -1.11589 0
M  V30 3682 H 341.583 2.68167 -3.74731 0
M  V30 3683 H 339.898 2.55018 -3.29173 0
M  V30 3684 H 342.495 4.98194 -1.94183 0
M  V30 3685 H 342.838 4.13845 -0.451461 0
M  V30 3686 H 343.371 3.43894 -1.99954 0
M  V30 3687 H 340.11 4.43512 -4.82677 0
M  V30 3688 H 339.63 5.05406 -3.22994 0
M  V30 3689 H 341.309 5.24064 -3.79428 0
M  V30 3690 N 341.441 0.965919 1.2453 0
M  V30 3691 C 342.404 0.499547 2.2369 0
M  V30 3692 C 343.404 -0.40294 1.5567 0
M  V30 3693 O 344.594 -0.19865 1.73064 0
M  V30 3694 C 341.726 -0.276792 3.39774 0
M  V30 3695 H 342.919 1.37613 2.66463 0
M  V30 3696 H 340.472 0.750324 1.37112 0
M  V30 3697 H 341.207 -1.17055 3.02438 0
M  V30 3698 H 340.992 0.370826 3.90343 0
M  V30 3699 H 342.482 -0.592175 4.1338 0
M  V30 3700 N 342.919 -1.39368 0.735821 0
M  V30 3701 C 344.166 -2.00497 0.284123 0
M  V30 3702 C 344.494 -1.58387 -1.12889 0
M  V30 3703 O 343.749 -0.804359 -1.78406 0
M  V30 3704 C 344.048 -3.5583 0.334651 0
M  V30 3705 C 343.714 -4.17593 1.7008 0
M  V30 3706 C 342.376 -4.34176 2.07472 0
M  V30 3707 C 344.728 -4.51848 2.59775 0
M  V30 3708 C 342.056 -4.82304 3.34065 0
M  V30 3709 C 344.408 -5.01384 3.85741 0
M  V30 3710 C 343.072 -5.16175 4.23225 0
M  V30 3711 H 342.342 -0.73367 0.103968 0
M  V30 3712 H 344.989 -1.66683 0.942825 0
M  V30 3713 H 343.294 -3.89674 -0.407625 0
M  V30 3714 H 344.991 -4.00986 -0.0329927 0
M  V30 3715 H 341.581 -4.05087 1.40008 0
M  V30 3716 H 345.765 -4.38653 2.32157 0
M  V30 3717 H 341.021 -4.91941 3.63049 0
M  V30 3718 H 345.195 -5.26863 4.55399 0
M  V30 3719 H 342.822 -5.5323 5.21384 0
M  V30 3720 N 344.397 -0.483516 -1.5 0
M  V30 3721 C 345.327 0.293829 -2.31644 0
M  V30 3722 C 346.308 0.978864 -1.39112 0
M  V30 3723 O 347.493 0.973644 -1.68029 0
M  V30 3724 C 344.623 1.36897 -3.19181 0
M  V30 3725 C 343.577 0.804833 -4.20365 0
M  V30 3726 C 342.903 1.9792 -4.96721 0
M  V30 3727 C 344.203 -0.192313 -5.21946 0
M  V30 3728 H 345.897 -0.387616 -2.9688 0
M  V30 3729 H 343.443 -0.187856 -1.42769 0
M  V30 3730 H 345.396 1.92037 -3.751 0
M  V30 3731 H 344.12 2.07936 -2.51853 0
M  V30 3732 H 342.779 0.275319 -3.65565 0
M  V30 3733 H 342.427 2.67686 -4.25856 0
M  V30 3734 H 342.127 1.60789 -5.65173 0
M  V30 3735 H 343.651 2.53526 -5.55479 0
M  V30 3736 H 345.065 0.270333 -5.72662 0
M  V30 3737 H 343.462 -0.478543 -5.98189 0
M  V30 3738 H 344.532 -1.11409 -4.71928 0
M  V30 3739 N 345.875 1.56104 -0.216619 0
M  V30 3740 C 346.822 2.2007 0.695531 0
M  V30 3741 C 347.792 1.15471 1.19397 0
M  V30 3742 O 348.977 1.43807 1.25396 0
M  V30 3743 C 346.117 2.88073 1.90021 0
M  V30 3744 C 345.23 4.07253 1.44113 0
M  V30 3745 C 344.365 4.63052 2.603 0
M  V30 3746 C 343.404 5.74545 2.11103 0
M  V30 3747 N 342.541 6.24656 3.20545 0
M  V30 3748 H 347.381 2.97655 0.143327 0
M  V30 3749 H 344.918 1.46982 0.0589934 0
M  V30 3750 H 346.876 3.25681 2.60745 0
M  V30 3751 H 345.506 2.13015 2.42538 0
M  V30 3752 H 344.558 3.75164 0.628999 0
M  V30 3753 H 345.87 4.8783 1.04036 0
M  V30 3754 H 345.024 5.03078 3.39113 0
M  V30 3755 H 343.763 3.81628 3.03663 0
M  V30 3756 H 342.768 5.34027 1.3075 0
M  V30 3757 H 343.993 6.57801 1.68746 0
M  V30 3758 H 341.939 5.46148 3.63399 0
M  V30 3759 H 341.856 7.00343 2.84704 0
M  V30 3760 H 343.124 6.69338 3.99508 0
M  V30 3761 N 347.353 -0.0568162 1.57498 0
M  V30 3762 C 348.3 -1.06591 2.04712 0
M  V30 3763 C 349.27 -1.3758 0.930644 0
M  V30 3764 O 350.455 -1.48392 1.19935 0
M  V30 3765 C 347.595 -2.3701 2.50839 0
M  V30 3766 C 346.708 -2.12421 3.76167 0
M  V30 3767 C 345.843 -3.36511 4.11015 0
M  V30 3768 C 344.882 -3.07353 5.2934 0
M  V30 3769 N 344.019 -4.23816 5.59754 0
M  V30 3770 H 348.859 -0.65631 2.90683 0
M  V30 3771 H 346.396 -0.312481 1.43743 0
M  V30 3772 H 348.354 -3.13175 2.7564 0
M  V30 3773 H 346.984 -2.75744 1.67825 0
M  V30 3774 H 346.036 -1.2688 3.58616 0
M  V30 3775 H 347.348 -1.86894 4.62463 0
M  V30 3776 H 346.502 -4.21062 4.36797 0
M  V30 3777 H 345.241 -3.65128 3.23315 0
M  V30 3778 H 344.246 -2.212 5.03339 0
M  V30 3779 H 345.471 -2.80043 6.1867 0
M  V30 3780 H 343.417 -4.52436 4.75014 0
M  V30 3781 H 343.334 -4.01614 6.40501 0
M  V30 3782 H 344.602 -5.0932 5.90096 0
M  V30 3783 N 348.832 -1.54138 -0.328536 0
M  V30 3784 C 349.762 -1.86167 -1.40939 0
M  V30 3785 C 350.743 -0.718044 -1.54202 0
M  V30 3786 O 351.928 -0.971328 -1.68163 0
M  V30 3787 C 349.058 -2.08461 -2.77779 0
M  V30 3788 C 348.012 -3.24299 -2.7931 0
M  V30 3789 C 347.338 -3.31955 -4.19178 0
M  V30 3790 C 348.638 -4.62065 -2.43502 0
M  V30 3791 H 350.332 -2.76689 -1.14383 0
M  V30 3792 H 347.878 -1.33132 -0.548806 0
M  V30 3793 H 349.831 -2.29453 -3.53454 0
M  V30 3794 H 348.555 -1.14684 -3.05802 0
M  V30 3795 H 347.214 -3.03187 -2.0609 0
M  V30 3796 H 346.862 -2.35745 -4.44335 0
M  V30 3797 H 346.562 -4.09805 -4.2111 0
M  V30 3798 H 348.086 -3.55175 -4.96672 0
M  V30 3799 H 349.5 -4.8297 -3.08889 0
M  V30 3800 H 347.897 -5.42429 -2.56693 0
M  V30 3801 H 348.967 -4.64652 -1.38659 0
M  V30 3802 N 350.31 0.590341 -1.46126 0
M  V30 3803 C 351.26 1.69466 -1.5253 0
M  V30 3804 C 352.244 1.56179 -0.386917 0
M  V30 3805 O 353.436 1.65223 -0.634858 0
M  V30 3806 C 350.565 3.08245 -1.5113 0
M  V30 3807 C 349.651 3.26856 -2.70233 0
M  V30 3808 N 350.042 3.15657 -3.95214 0
M  V30 3809 C 348.34 3.57775 -2.66296 0
M  V30 3810 C 349.041 3.36066 -4.74799 0
M  V30 3811 N 348.017 3.60865 -4.06543 0
M  V30 3812 H 351.819 1.59326 -2.46966 0
M  V30 3813 H 349.333 0.79414 -1.41659 0
M  V30 3814 H 351.33 3.87492 -1.53804 0
M  V30 3815 H 349.99 3.19521 -0.577636 0
M  V30 3816 H 351.001 2.93686 -4.26578 0
M  V30 3817 H 347.678 3.75782 -1.81918 0
M  V30 3818 H 349.068 3.32655 -5.83772 0
M  V30 3819 N 351.788 1.33704 0.83433 0
M  V30 3820 C 352.698 1.26382 1.97648 0
M  V30 3821 C 353.714 0.173548 1.73132 0
M  V30 3822 O 354.89 0.397962 1.97429 0
M  V30 3823 C 351.955 1.00769 3.31733 0
M  V30 3824 C 351.016 2.1884 3.69334 0
M  V30 3825 C 350.249 1.9444 4.9702 0
M  V30 3826 O 350.472 0.896961 5.63303 0
M  V30 3827 O 349.406 2.81093 5.32231 0
M  V30 3828 H 353.232 2.22444 2.06767 0
M  V30 3829 H 350.817 1.13795 0.968037 0
M  V30 3830 H 352.699 0.882186 4.12062 0
M  V30 3831 H 351.374 0.0773783 3.23608 0
M  V30 3832 H 350.281 2.36946 2.89495 0
M  V30 3833 H 351.614 3.10221 3.82131 0
M  V30 3834 N 353.266 -1.05314 1.17247 0
M  V30 3835 C 354.176 -2.16538 0.90268 0
M  V30 3836 C 355.192 -1.73523 -0.128707 0
M  V30 3837 O 356.368 -2.01337 0.0502701 0
M  V30 3838 C 353.433 -3.44167 0.418356 0
M  V30 3839 C 352.494 -4.01635 1.51618 0
M  V30 3840 C 351.727 -5.23171 1.05487 0
M  V30 3841 O 351.95 -5.70327 -0.0914715 0
M  V30 3842 O 350.884 -5.72848 1.8474 0
M  V30 3843 H 354.71 -2.42145 1.83302 0
M  V30 3844 H 352.295 -1.15037 0.953246 0
M  V30 3845 H 354.177 -4.21112 0.155726 0
M  V30 3846 H 352.852 -3.20063 -0.48385 0
M  V30 3847 H 351.759 -3.26135 1.83268 0
M  V30 3848 H 353.092 -4.30053 2.39405 0
M  V30 3849 N 354.744 -0.972509 -1.24016 0
M  V30 3850 C 355.654 -0.5143 -2.28893 0
M  V30 3851 C 356.67 0.427078 -1.68677 0
M  V30 3852 O 357.846 0.298939 -1.99169 0
M  V30 3853 C 354.911 0.183598 -3.46214 0
M  V30 3854 C 353.972 -0.798202 -4.21814 0
M  V30 3855 C 353.205 -0.133514 -5.33533 0
M  V30 3856 O 353.428 1.07714 -5.60137 0
M  V30 3857 O 352.362 -0.828103 -5.96176 0
M  V30 3858 H 356.188 -1.38629 -2.70214 0
M  V30 3859 H 353.773 -0.739769 -1.29799 0
M  V30 3860 H 355.655 0.575433 -4.17453 0
M  V30 3861 H 354.33 1.03048 -3.0686 0
M  V30 3862 H 353.237 -1.24059 -3.52931 0
M  V30 3863 H 354.57 -1.61364 -4.64997 0
M  V30 3864 N 356.222 1.38976 -0.743202 0
M  V30 3865 C 357.471 1.99581 -0.291592 0
M  V30 3866 C 357.784 1.59656 1.13001 0
M  V30 3867 O 358.99 2.13157 1.68156 0
M  V30 3868 C 357.446 3.56813 -0.470391 0
M  V30 3869 C 357.054 4.05695 -1.90041 0
M  V30 3870 C 358.798 4.24423 -0.0809709 0
M  V30 3871 C 356.705 5.5553 -2.02832 0
M  V30 3872 H 355.635 0.746615 -0.105272 0
M  V30 3873 H 358.286 1.58872 -0.918258 0
M  V30 3874 H 356.668 3.95359 0.225299 0
M  V30 3875 H 357.842 3.78464 -2.62872 0
M  V30 3876 H 356.157 3.50775 -2.24379 0
M  V30 3877 H 358.754 5.34474 -0.155445 0
M  V30 3878 H 359.097 4.04962 0.96497 0
M  V30 3879 H 359.63 3.9108 -0.728124 0
M  V30 3880 H 356.369 5.79881 -3.05643 0
M  V30 3881 H 355.889 5.84537 -1.34448 0
M  V30 3882 H 357.568 6.21069 -1.81335 0
M  V30 3883 N 357.7 0.491464 1.49741 0
M  V30 3884 C 358.632 -0.328609 2.26832 0
M  V30 3885 C 359.645 -0.939113 1.32983 0
M  V30 3886 O 360.834 -0.824067 1.58339 0
M  V30 3887 C 357.934 -1.47675 3.05033 0
M  V30 3888 C 357.107 -0.975305 4.26388 0
M  V30 3889 C 356.166 -1.99991 4.86714 0
M  V30 3890 O 355.192 -1.57229 5.47054 0
M  V30 3891 N 356.394 -3.32962 4.75517 0
M  V30 3892 H 359.159 0.332377 2.97851 0
M  V30 3893 H 356.72 0.323441 1.58636 0
M  V30 3894 H 358.712 -2.15954 3.42266 0
M  V30 3895 H 357.282 -2.04206 2.36683 0
M  V30 3896 H 356.502 -0.117723 3.94024 0
M  V30 3897 H 357.79 -0.618531 5.05026 0
M  V30 3898 H 357.188 -3.70399 4.27576 0
M  V30 3899 H 355.745 -3.96982 5.16961 0
M  V30 3900 N 359.178 -1.55987 0.224894 0
M  V30 3901 C 360.088 -2.24066 -0.69511 0
M  V30 3902 C 361.104 -1.24939 -1.21104 0
M  V30 3903 O 362.28 -1.5776 -1.25195 0
M  V30 3904 C 359.345 -2.90983 -1.88493 0
M  V30 3905 C 358.406 -4.05462 -1.41064 0
M  V30 3906 C 357.639 -4.69179 -2.54375 0
M  V30 3907 O 357.862 -4.31895 -3.72589 0
M  V30 3908 O 356.796 -5.58108 -2.25386 0
M  V30 3909 H 360.622 -3.03353 -0.145149 0
M  V30 3910 H 358.207 -1.49399 -0.00569476 0
M  V30 3911 H 360.089 -3.33209 -2.57972 0
M  V30 3912 H 358.764 -2.14653 -2.42293 0
M  V30 3913 H 357.671 -3.67798 -0.683774 0
M  V30 3914 H 359.004 -4.83545 -0.918985 0
M  V30 3915 N 360.656 0.0484629 -1.57525 0
M  V30 3916 C 361.586 1.0549 -2.08313 0
M  V30 3917 C 362.567 1.38929 -0.981463 0
M  V30 3918 O 363.752 1.48151 -1.25558 0
M  V30 3919 C 360.882 2.36162 -2.54646 0
M  V30 3920 C 359.836 2.17016 -3.68901 0
M  V30 3921 C 359.162 3.53278 -4.01371 0
M  V30 3922 C 360.462 1.57219 -4.98076 0
M  V30 3923 H 362.156 0.632195 -2.92649 0
M  V30 3924 H 359.702 0.302654 -1.40784 0
M  V30 3925 H 361.655 3.06882 -2.88793 0
M  V30 3926 H 360.379 2.80456 -1.67368 0
M  V30 3927 H 359.038 1.48733 -3.35073 0
M  V30 3928 H 358.686 3.95185 -3.11188 0
M  V30 3929 H 358.386 3.41299 -4.78318 0
M  V30 3930 H 359.91 4.25391 -4.38035 0
M  V30 3931 H 361.324 2.17832 -5.30304 0
M  V30 3932 H 359.721 1.55871 -5.79503 0
M  V30 3933 H 360.791 0.535956 -4.81929 0
M  V30 3934 N 362.134 1.5431 0.320358 0
M  V30 3935 C 363.066 1.80262 1.41556 0
M  V30 3936 C 364.079 0.684723 1.477 0
M  V30 3937 O 365.268 0.961886 1.50366 0
M  V30 3938 C 362.368 1.90825 2.8007 0
M  V30 3939 C 361.541 3.21023 2.97091 0
M  V30 3940 C 360.6 3.22247 4.15985 0
M  V30 3941 O 359.626 3.95871 4.08992 0
M  V30 3942 N 360.828 2.46258 5.25678 0
M  V30 3943 H 363.593 2.74778 1.19655 0
M  V30 3944 H 361.154 1.53646 0.510358 0
M  V30 3945 H 363.146 1.89067 3.57821 0
M  V30 3946 H 361.716 1.03392 2.95006 0
M  V30 3947 H 360.936 3.35715 2.06614 0
M  V30 3948 H 362.224 4.0698 3.05361 0
M  V30 3949 H 361.622 1.86037 5.34235 0
M  V30 3950 H 360.179 2.50275 6.01835 0
M  V30 3951 N 363.613 -0.582584 1.46437 0
M  V30 3952 C 364.576 -1.67366 1.56592 0
M  V30 3953 C 365.576 -1.54575 0.443072 0
M  V30 3954 O 366.766 -1.59191 0.707381 0
M  V30 3955 C 363.898 -3.06791 1.48634 0
M  V30 3956 H 365.091 -1.5972 2.5383 0
M  V30 3957 H 362.644 -0.800432 1.34249 0
M  V30 3958 H 363.379 -3.19993 0.526763 0
M  V30 3959 H 363.164 -3.17484 2.30101 0
M  V30 3960 H 364.654 -3.86218 1.58826 0
M  V30 3961 N 365.091 -1.34144 -0.827227 0
M  V30 3962 C 366.023 -1.21206 -1.9453 0
M  V30 3963 C 367.036 -0.140176 -1.62195 0
M  V30 3964 O 368.225 -0.391647 -1.7415 0
M  V30 3965 C 365.325 -0.839141 -3.28347 0
M  V30 3966 C 364.498 -2.0051 -3.88734 0
M  V30 3967 C 363.557 -1.61128 -5.00923 0
M  V30 3968 O 362.583 -2.32726 -5.19449 0
M  V30 3969 N 363.785 -0.522958 -5.7814 0
M  V30 3970 H 366.55 -2.17525 -2.06162 0
M  V30 3971 H 364.111 -1.27043 -1.00358 0
M  V30 3972 H 366.103 -0.557556 -4.00841 0
M  V30 3973 H 364.673 0.0337293 -3.12582 0
M  V30 3974 H 363.893 -2.45166 -3.08686 0
M  V30 3975 H 365.181 -2.78498 -4.25812 0
M  V30 3976 H 364.579 0.0723518 -5.65654 0
M  V30 3977 H 363.136 -0.301089 -6.51104 0
M  V30 3978 N 366.569 1.04691 -1.17803 0
M  V30 3979 C 367.818 1.77176 -0.963931 0
M  V30 3980 C 368.131 1.88888 0.508015 0
M  V30 3981 O 369.337 2.58164 0.840465 0
M  V30 3982 C 367.793 3.18518 -1.67555 0
M  V30 3983 C 367.401 3.14919 -3.18637 0
M  V30 3984 C 369.145 3.95424 -1.54402 0
M  V30 3985 C 367.052 4.51081 -3.82466 0
M  V30 3986 H 365.982 0.664116 -0.357023 0
M  V30 3987 H 368.633 1.17303 -1.4111 0
M  V30 3988 H 367.015 3.78748 -1.15613 0
M  V30 3989 H 368.189 2.64178 -3.77554 0
M  V30 3990 H 366.504 2.51512 -3.31859 0
M  V30 3991 H 369.101 4.96106 -1.99456 0
M  V30 3992 H 369.444 4.13343 -0.495329 0
M  V30 3993 H 369.977 3.41754 -2.0359 0
M  V30 3994 H 366.716 4.38368 -4.87354 0
M  V30 3995 H 366.236 5.01951 -3.28337 0
M  V30 3996 H 367.915 5.2001 -3.84965 0
M  V30 3997 N 368.047 0.979072 1.23499 0
M  V30 3998 C 368.979 0.476271 2.24197 0
M  V30 3999 C 369.992 -0.421166 1.57258 0
M  V30 4000 O 371.181 -0.225515 1.7707 0
M  V30 4001 C 368.281 -0.330503 3.37285 0
M  V30 4002 C 367.454 0.559744 4.33804 0
M  V30 4003 C 366.513 -0.192954 5.25846 0
M  V30 4004 O 365.539 0.416978 5.67671 0
M  V30 4005 N 366.741 -1.47932 5.61334 0
M  V30 4006 H 369.506 1.34211 2.67969 0
M  V30 4007 H 367.067 0.852189 1.37657 0
M  V30 4008 H 369.059 -0.842361 3.95836 0
M  V30 4009 H 367.629 -1.09734 2.92707 0
M  V30 4010 H 366.849 1.25245 3.73775 0
M  V30 4011 H 368.137 1.1665 4.95248 0
M  V30 4012 H 367.535 -1.9964 5.29302 0
M  V30 4013 H 366.092 -1.93664 6.22364 0
M  V30 4014 N 369.525 -1.3858 0.750561 0
M  V30 4015 C 370.435 -2.34278 0.122825 0
M  V30 4016 C 371.451 -1.59116 -0.704131 0
M  V30 4017 O 372.627 -1.91326 -0.628987 0
M  V30 4018 C 369.692 -3.38221 -0.762086 0
M  V30 4019 C 368.753 -4.29227 0.078896 0
M  V30 4020 C 367.986 -5.28205 -0.763874 0
M  V30 4021 O 368.209 -5.34112 -2.00201 0
M  V30 4022 O 367.143 -6.01618 -0.18428 0
M  V30 4023 H 370.969 -2.89649 0.913088 0
M  V30 4024 H 368.554 -1.40374 0.511417 0
M  V30 4025 H 370.436 -4.01872 -1.26793 0
M  V30 4026 H 369.111 -2.85211 -1.5309 0
M  V30 4027 H 368.018 -3.68747 0.630621 0
M  V30 4028 H 369.351 -4.85484 0.810289 0
M  V30 4029 N 371.003 -0.499398 -1.49478 0
M  V30 4030 C 371.935 0.316575 -2.27003 0
M  V30 4031 C 372.948 0.932047 -1.33479 0
M  V30 4032 O 374.137 0.815658 -1.58774 0
M  V30 4033 C 371.237 1.46055 -3.05812 0
M  V30 4034 C 370.41 0.952679 -4.26899 0
M  V30 4035 C 369.469 1.97407 -4.87767 0
M  V30 4036 O 368.495 1.54326 -5.4788 0
M  V30 4037 N 369.697 3.30436 -4.77276 0
M  V30 4038 H 372.462 -0.348168 -2.97671 0
M  V30 4039 H 370.023 -0.33185 -1.58463 0
M  V30 4040 H 372.015 2.14135 -3.43407 0
M  V30 4041 H 370.585 2.02948 -2.37762 0
M  V30 4042 H 369.805 0.0968248 -3.94081 0
M  V30 4043 H 371.093 0.59174 -5.05347 0
M  V30 4044 H 370.491 3.68126 -4.29534 0
M  V30 4045 H 369.048 3.94235 -5.19059 0
M  V30 4046 N 372.481 1.55866 -0.233164 0
M  V30 4047 C 373.431 2.17442 0.685774 0
M  V30 4048 C 374.415 1.12617 1.14918 0
M  V30 4049 O 375.607 1.3857 1.10124 0
M  V30 4050 C 372.736 2.86685 1.88856 0
M  V30 4051 C 371.822 3.98749 1.4443 0
M  V30 4052 N 372.213 5.00744 0.713364 0
M  V30 4053 C 370.511 4.11052 1.73068 0
M  V30 4054 C 371.212 5.79673 0.485205 0
M  V30 4055 N 370.188 5.33454 1.04536 0
M  V30 4056 H 373.99 2.93659 0.119022 0
M  V30 4057 H 371.504 1.62362 -0.0348995 0
M  V30 4058 H 373.501 3.29218 2.55776 0
M  V30 4059 H 372.161 2.11967 2.45967 0
M  V30 4060 H 373.172 5.16613 0.364861 0
M  V30 4061 H 369.849 3.47495 2.31416 0
M  V30 4062 H 371.239 6.71829 -0.097365 0
M  V30 4063 N 373.959 -0.0401083 1.57549 0
M  V30 4064 C 375.205 -0.734211 1.89043 0
M  V30 4065 C 375.538 -1.75591 0.829535 0
M  V30 4066 O 374.813 -1.93868 -0.156706 0
M  V30 4067 C 375.096 -1.41374 3.31188 0
M  V30 4068 C 374.949 -0.406299 4.47961 0
M  V30 4069 C 376.268 -2.35061 3.72068 0
M  V30 4070 H 373.387 -0.265447 0.687537 0
M  V30 4071 H 376.029 0.00294087 1.9 0
M  V30 4072 H 374.179 -2.04206 3.30503 0
M  V30 4073 H 375.851 0.219255 4.60779 0
M  V30 4074 H 374.094 0.275485 4.32924 0
M  V30 4075 H 374.765 -0.920022 5.44279 0
M  V30 4076 H 377.241 -1.82282 3.74049 0
M  V30 4077 H 376.117 -2.79593 4.72355 0
M  V30 4078 H 376.378 -3.21258 3.0372 0
M  V30 4079 N 375.437 -1.54477 -0.31217 0
M  V30 4080 C 376.369 -1.81011 -1.40598 0
M  V30 4081 C 377.382 -0.692546 -1.47335 0
M  V30 4082 O 378.571 -0.969847 -1.49854 0
M  V30 4083 C 375.671 -1.92307 -2.79054 0
M  V30 4084 C 374.844 -3.22594 -2.95384 0
M  V30 4085 C 373.903 -3.24448 -4.1427 0
M  V30 4086 O 372.929 -3.98035 -4.06887 0
M  V30 4087 N 374.131 -2.49042 -5.24365 0
M  V30 4088 H 376.896 -2.75408 -1.18196 0
M  V30 4089 H 374.457 -1.53914 -0.502202 0
M  V30 4090 H 376.449 -1.90962 -3.56813 0
M  V30 4091 H 375.019 -1.04955 -2.94454 0
M  V30 4092 H 374.239 -3.36806 -2.04831 0
M  V30 4093 H 375.527 -4.08593 -3.03198 0
M  V30 4094 H 374.925 -1.88867 -5.33241 0
M  V30 4095 H 373.482 -2.53463 -6.005 0
M  V30 4096 N 376.915 0.57481 -1.46744 0
M  V30 4097 C 378.164 1.32898 -1.51727 0
M  V30 4098 C 378.477 1.948 -0.176692 0
M  V30 4099 O 379.683 2.71299 -0.104385 0
M  V30 4100 C 378.139 2.40901 -2.67385 0
M  V30 4101 C 377.747 1.85266 -4.07898 0
M  V30 4102 C 379.491 3.17609 -2.81646 0
M  V30 4103 C 377.398 2.90945 -5.14883 0
M  V30 4104 H 376.328 0.499631 -0.564699 0
M  V30 4105 H 378.979 0.612536 -1.72975 0
M  V30 4106 H 377.361 3.15379 -2.39483 0
M  V30 4107 H 378.535 1.17278 -4.45626 0
M  V30 4108 H 376.85 1.21199 -3.98371 0
M  V30 4109 H 379.447 3.96493 -3.58744 0
M  V30 4110 H 379.79 3.70696 -1.89448 0
M  V30 4111 H 380.323 2.50239 -3.09233 0
M  V30 4112 H 377.062 2.42736 -6.089 0
M  V30 4113 H 376.582 3.57398 -4.81691 0
M  V30 4114 H 378.261 3.54755 -5.41071 0
M  V30 4115 N 378.394 1.34581 0.820102 0
M  V30 4116 C 379.671 1.17675 1.56244 0
M  V30 4117 C 380.051 -0.249541 2.0962 0
M  V30 4118 O 379.399 -1.25125 1.91196 0
M  V30 4119 C 379.609 2.23364 2.6816 0
M  V30 4120 C 380.957 2.58485 3.36854 0
M  V30 4121 O 381.981 2.22175 2.78418 0
M  V30 4122 O 380.84 3.20868 4.42386 0
M  V30 4123 H 377.934 0.456333 0.689702 0
M  V30 4124 H 380.48 1.46222 0.861231 0
M  V30 4125 H 379.252 3.19087 2.26493 0
M  V30 4126 H 378.875 1.96009 3.45928 0
M  V30 4127 N 379.872 -1.04064 1.18357 0
M  V30 4128 C 381.118 -1.77528 0.980397 0
M  V30 4129 C 381.451 -1.87948 -0.48879 0
M  V30 4130 O 380.726 -1.3876 -1.36293 0
M  V30 4131 C 381.009 -3.20797 1.63588 0
M  V30 4132 C 380.862 -3.1832 3.17793 0
M  V30 4133 C 382.181 -4.18911 1.34914 0
M  V30 4134 H 379.3 -0.644443 0.357578 0
M  V30 4135 H 381.942 -1.2156 1.46024 0
M  V30 4136 H 380.092 -3.68586 1.22788 0
M  V30 4137 H 381.764 -2.78521 3.67728 0
M  V30 4138 H 380.007 -2.56351 3.49952 0
M  V30 4139 H 380.678 -4.19489 3.58794 0
M  V30 4140 H 383.154 -3.7967 1.70265 0
M  V30 4141 H 382.03 -5.17374 1.83346 0
M  V30 4142 H 382.291 -4.41262 0.272027 0
M  V30 4143 N 381.35 -0.985608 -1.22978 0
M  V30 4144 C 382.627 -0.573599 -1.87001 0
M  V30 4145 C 383.007 0.949213 -1.88555 0
M  V30 4146 O 382.355 1.82811 -1.37086 0
M  V30 4147 C 382.565 -1.18564 -3.28243 0
M  V30 4148 C 383.913 -1.28163 -4.04796 0
M  V30 4149 O 384.937 -1.13949 -3.37482 0
M  V30 4150 O 383.796 -1.50832 -5.25273 0
M  V30 4151 H 380.89 -0.193868 -0.803955 0
M  V30 4152 H 383.436 -1.08102 -1.30813 0
M  V30 4153 H 382.208 -2.22758 -3.21706 0
M  V30 4154 H 381.831 -0.663363 -3.92027 0
M  V30 4155 N 382.828 1.3818 -0.7579 0
M  V30 4156 C 384.074 2.00316 -0.316453 0
M  V30 4157 C 384.407 1.60026 1.10025 0
M  V30 4158 O 383.682 0.839835 1.75434 0
M  V30 4159 C 383.965 3.57349 -0.444245 0
M  V30 4160 C 383.818 4.07591 -1.90236 0
M  V30 4161 C 385.137 4.3981 0.1598 0
M  V30 4162 H 382.256 0.727741 -0.116459 0
M  V30 4163 H 384.898 1.6406 -0.958352 0
M  V30 4164 H 383.048 3.88365 0.102233 0
M  V30 4165 H 384.72 3.87199 -2.50748 0
M  V30 4166 H 382.963 3.60297 -2.41595 0
M  V30 4167 H 383.634 5.16677 -1.94291 0
M  V30 4168 H 386.11 4.14971 -0.306314 0
M  V30 4169 H 384.986 5.48885 0.0401675 0
M  V30 4170 H 385.247 4.24102 1.24859 0
M  V30 4171 N 384.306 0.507319 1.49211 0
M  V30 4172 C 385.531 -0.033725 2.07373 0
M  V30 4173 C 385.956 -1.29485 1.36437 0
M  V30 4174 O 385.314 -1.76294 0.423087 0
M  V30 4175 C 385.362 -0.263945 3.59633 0
M  V30 4176 O 384.466 -1.33737 3.90113 0
M  V30 4177 H 383.807 0.0290331 0.663365 0
M  V30 4178 H 386.337 0.708749 1.91932 0
M  V30 4179 H 386.347 -0.493536 4.05004 0
M  V30 4180 H 385.022 0.657424 4.10671 0
M  V30 4181 H 383.599 -1.09224 3.56545 0
M  V30 4182 N 385.784 -1.5574 0.241426 0
M  V30 4183 C 386.731 -2.21149 -0.660432 0
M  V30 4184 C 387.701 -1.17356 -1.17545 0
M  V30 4185 O 388.886 -1.45784 -1.23093 0
M  V30 4186 C 386.026 -2.91059 -1.85414 0
M  V30 4187 C 385.139 -4.09495 -1.37616 0
M  V30 4188 C 384.274 -4.67135 -2.529 0
M  V30 4189 C 383.313 -5.77831 -2.01936 0
M  V30 4190 N 382.45 -6.29677 -3.10566 0
M  V30 4191 H 387.29 -2.97845 -0.095955 0
M  V30 4192 H 384.827 -1.47057 -0.0356024 0
M  V30 4193 H 386.785 -3.29788 -2.5553 0
M  V30 4194 H 385.415 -2.16846 -2.39118 0
M  V30 4195 H 384.467 -3.76117 -0.569235 0
M  V30 4196 H 385.779 -4.89423 -0.962618 0
M  V30 4197 H 384.933 -5.08409 -3.31067 0
M  V30 4198 H 383.672 -3.86411 -2.97553 0
M  V30 4199 H 382.677 -5.36039 -1.22238 0
M  V30 4200 H 383.902 -6.60402 -1.58259 0
M  V30 4201 H 381.848 -5.5186 -3.54664 0
M  V30 4202 H 381.765 -7.04783 -2.73526 0
M  V30 4203 H 383.033 -6.75609 -3.88809 0
M  V30 4204 N 387.262 0.0317525 -1.57568 0
M  V30 4205 C 388.673 0.578692 -1.77505 0
M  V30 4206 C 389.024 1.75749 -0.872164 0
M  V30 4207 O 388.149 2.16298 -0.0663106 0
M  V30 4208 C 388.744 1.05658 -3.21904 0
M  V30 4209 C 387.303 1.54906 -3.43047 0
M  V30 4210 C 386.45 0.485939 -2.73009 0
M  V30 4211 H 389.401 -0.194475 -1.57504 0
M  V30 4212 H 389.422 1.92404 -3.28269 0
M  V30 4213 H 388.934 0.198422 -3.87592 0
M  V30 4214 H 387.035 2.42915 -2.82529 0
M  V30 4215 H 387.148 1.59841 -4.5165 0
M  V30 4216 H 385.512 0.940354 -2.36705 0
M  V30 4217 H 386.295 -0.362709 -3.41379 0
M  V30 4218 N 388.74 1.54641 0.303973 0
M  V30 4219 C 390.017 1.64455 1.05896 0
M  V30 4220 C 390.397 0.490923 2.05312 0
M  V30 4221 O 389.745 -0.512685 2.22674 0
M  V30 4222 C 389.955 3.02331 1.74347 0
M  V30 4223 C 391.303 3.59045 2.26653 0
M  V30 4224 O 392.327 3.04764 1.84384 0
M  V30 4225 O 391.186 4.54081 3.04093 0
M  V30 4226 H 388.28 0.666729 0.489287 0
M  V30 4227 H 390.826 1.66986 0.302298 0
M  V30 4228 H 389.598 3.77734 1.02142 0
M  V30 4229 H 389.221 3.03565 2.56777 0
M  V30 4230 N 390.218 -0.567019 1.47046 0
M  V30 4231 C 391.148 -1.68482 1.61667 0
M  V30 4232 C 392.129 -1.6358 0.466418 0
M  V30 4233 O 393.314 -1.81354 0.694574 0
M  V30 4234 C 390.444 -3.07124 1.62148 0
M  V30 4235 C 389.398 -3.26867 2.76301 0
M  V30 4236 C 388.724 -4.66196 2.61849 0
M  V30 4237 C 390.024 -3.13186 4.17986 0
M  V30 4238 H 391.718 -1.56502 2.5524 0
M  V30 4239 H 389.264 -0.751486 1.22836 0
M  V30 4240 H 391.217 -3.8516 1.70968 0
M  V30 4241 H 389.941 -3.2004 0.651287 0
M  V30 4242 H 388.6 -2.51237 2.66975 0
M  V30 4243 H 388.248 -4.75898 1.62879 0
M  V30 4244 H 387.948 -4.80356 3.38425 0
M  V30 4245 H 389.472 -5.46379 2.72584 0
M  V30 4246 H 390.886 -3.81049 4.2834 0
M  V30 4247 H 389.283 -3.3886 4.95272 0
M  V30 4248 H 390.353 -2.10057 4.3704 0
M  V30 4249 N 391.696 -1.35014 -0.812953 0
M  V30 4250 C 392.924 -1.31031 -1.6012 0
M  V30 4251 C 393.339 0.113558 -1.88458 0
M  V30 4252 O 392.696 1.06363 -1.48301 0
M  V30 4253 C 392.747 -2.10872 -2.93624 0
M  V30 4254 O 392.468 -3.47706 -2.66518 0
M  V30 4255 C 393.969 -2.14401 -3.88004 0
M  V30 4256 H 391.189 -0.45037 -0.497401 0
M  V30 4257 H 393.733 -1.77775 -1.01076 0
M  V30 4258 H 391.888 -1.67744 -3.492 0
M  V30 4259 H 392.302 -3.89097 -3.51715 0
M  V30 4260 H 393.776 -2.74669 -4.78812 0
M  V30 4261 H 394.253 -1.14105 -4.24119 0
M  V30 4262 H 394.859 -2.57662 -3.38364 0
M  V30 4263 N 393.175 1.03435 -1.18907 0
M  V30 4264 C 394.138 2.09756 -0.923844 0
M  V30 4265 C 395.138 1.60528 0.093416 0
M  V30 4266 O 396.328 1.73631 -0.140727 0
M  V30 4267 C 393.46 3.38692 -0.387354 0
M  V30 4268 H 394.653 2.34719 -1.86674 0
M  V30 4269 H 392.206 1.19959 -1.00197 0
M  V30 4270 H 392.941 3.19396 0.561845 0
M  V30 4271 H 392.726 3.75742 -1.12074 0
M  V30 4272 H 394.216 4.17016 -0.220694 0
M  V30 4273 N 394.653 0.992116 1.22453 0
M  V30 4274 C 395.616 0.546883 2.2258 0
M  V30 4275 C 396.616 -0.369829 1.56489 0
M  V30 4276 O 397.806 -0.161896 1.73446 0
M  V30 4277 C 394.938 -0.204659 3.40285 0
M  V30 4278 H 396.131 1.43234 2.63484 0
M  V30 4279 H 393.684 0.779239 1.3549 0
M  V30 4280 H 394.419 -1.10614 3.04853 0
M  V30 4281 H 394.204 0.45354 3.89468 0
M  V30 4282 H 395.694 -0.504358 4.14543 0
M  V30 4283 N 396.131 -1.37776 0.765217 0
M  V30 4284 C 397.061 -2.32945 0.160953 0
M  V30 4285 C 398.042 -1.55454 -0.690516 0
M  V30 4286 O 399.227 -1.83721 -0.629318 0
M  V30 4287 C 396.357 -3.39669 -0.724031 0
M  V30 4288 C 395.311 -4.27992 0.0256173 0
M  V30 4289 C 394.637 -5.25673 -0.978383 0
M  V30 4290 C 395.937 -5.08309 1.20082 0
M  V30 4291 H 397.631 -2.83728 0.955969 0
M  V30 4292 H 395.177 -1.36416 0.461149 0
M  V30 4293 H 397.13 -4.05219 -1.15652 0
M  V30 4294 H 395.854 -2.87396 -1.5515 0
M  V30 4295 H 394.513 -3.63964 0.438812 0
M  V30 4296 H 394.161 -4.69682 -1.80022 0
M  V30 4297 H 393.861 -5.85625 -0.481378 0
M  V30 4298 H 395.385 -5.94098 -1.40995 0
M  V30 4299 H 396.799 -5.67034 0.845307 0
M  V30 4300 H 395.196 -5.77554 1.62947 0
M  V30 4301 H 396.266 -4.41365 2.00811 0
M  V30 4302 N 397.609 -0.515225 -1.4894 0
M  V30 4303 C 399.025 -0.172099 -1.58669 0
M  V30 4304 C 399.225 1.32405 -1.51892 0
M  V30 4305 O 398.281 2.10116 -1.40027 0
M  V30 4306 C 399.594 -0.761533 -2.90897 0
M  V30 4307 C 401.142 -0.728926 -3.04394 0
M  V30 4308 C 401.617 -1.29667 -4.39261 0
M  V30 4309 N 403.108 -1.25799 -4.4579 0
M  V30 4310 C 403.843 -1.66733 -5.48623 0
M  V30 4311 N 403.339 -2.15327 -6.58488 0
M  V30 4312 N 405.132 -1.58061 -5.39419 0
M  V30 4313 H 397.283 -1.48778 -1.51588 0
M  V30 4314 H 399.546 -0.617968 -0.718901 0
M  V30 4315 H 399.252 -1.81136 -3.01468 0
M  V30 4316 H 399.126 -0.230106 -3.76497 0
M  V30 4317 H 401.513 0.312098 -2.93445 0
M  V30 4318 H 401.594 -1.29766 -2.20442 0
M  V30 4319 H 401.238 -2.33655 -4.50963 0
M  V30 4320 H 401.168 -0.703752 -5.21876 0
M  V30 4321 H 403.659 -0.902102 -3.66975 0
M  V30 4322 H 403.972 -2.44594 -7.33071 0
M  V30 4323 H 402.317 -2.19311 -6.59491 0
M  V30 4324 H 405.508 -1.19906 -4.52482 0
M  V30 4325 H 405.681 -1.90284 -6.19432 0
M  V30 4326 N 399.087 1.5561 -0.249682 0
M  V30 4327 C 400.364 1.90932 0.424761 0
M  V30 4328 C 400.744 1.17078 1.75658 0
M  V30 4329 O 400.092 0.289176 2.26663 0
M  V30 4330 C 400.302 3.43975 0.590109 0
M  V30 4331 C 401.65 4.15281 0.884714 0
M  V30 4332 O 402.674 3.49729 0.67587 0
M  V30 4333 O 401.533 5.31236 1.28259 0
M  V30 4334 H 398.627 0.794815 0.228468 0
M  V30 4335 H 401.173 1.67135 -0.293954 0
M  V30 4336 H 399.945 3.89748 -0.34818 0
M  V30 4337 H 399.568 3.73644 1.35926 0
M  V30 4338 N 400.565 -0.0233959 1.57583 0
M  V30 4339 C 401.811 -0.714119 1.89811 0
M  V30 4340 C 402.144 -1.74702 0.848113 0
M  V30 4341 O 401.419 -1.94023 -0.136135 0
M  V30 4342 C 401.702 -1.37853 3.32669 0
M  V30 4343 C 401.555 -0.358764 4.48367 0
M  V30 4344 C 402.874 -2.31101 3.7454 0
M  V30 4345 H 399.993 -0.25814 0.690314 0
M  V30 4346 H 402.635 0.0230927 1.89986 0
M  V30 4347 H 400.785 -2.00689 3.3265 0
M  V30 4348 H 402.457 0.268115 4.6052 0
M  V30 4349 H 400.7 0.321387 4.32608 0
M  V30 4350 H 401.371 -0.862242 5.45224 0
M  V30 4351 H 403.847 -1.78304 3.75961 0
M  V30 4352 H 402.723 -2.74567 4.75294 0
M  V30 4353 H 402.984 -3.18018 3.0711 0
M  V30 4354 N 402.043 -1.548 -0.295768 0
M  V30 4355 C 403.459 -1.4613 -0.641722 0
M  V30 4356 C 403.659 -0.656771 -1.90496 0
M  V30 4357 O 402.715 -0.166547 -2.5195 0
M  V30 4358 C 404.028 -2.90141 -0.789852 0
M  V30 4359 C 405.576 -3.00216 -0.885396 0
M  V30 4360 C 406.051 -4.45434 -1.06548 0
M  V30 4361 N 407.542 -4.49166 -1.13156 0
M  V30 4362 C 408.277 -5.58717 -1.28929 0
M  V30 4363 N 407.773 -6.78182 -1.41567 0
M  V30 4364 N 409.566 -5.46415 -1.31859 0
M  V30 4365 H 401.717 -2.05574 0.534147 0
M  V30 4366 H 403.98 -0.931259 0.177372 0
M  V30 4367 H 403.686 -3.51635 0.0675598 0
M  V30 4368 H 403.56 -3.37859 -1.67724 0
M  V30 4369 H 405.947 -2.38833 -1.73329 0
M  V30 4370 H 406.028 -2.55787 0.0261185 0
M  V30 4371 H 405.672 -5.07413 -0.222335 0
M  V30 4372 H 405.602 -4.87499 -1.9913 0
M  V30 4373 H 408.093 -3.631 -1.04721 0
M  V30 4374 H 408.406 -7.57428 -1.53372 0
M  V30 4375 H 406.751 -6.81037 -1.38613 0
M  V30 4376 H 409.942 -4.5203 -1.21601 0
M  V30 4377 H 410.115 -6.31841 -1.43808 0
M  V30 4378 N 403.521 0.559213 -1.47345 0
M  V30 4379 C 404.453 1.68161 -1.55738 0
M  V30 4380 C 405.466 1.56636 -0.443744 0
M  V30 4381 O 406.655 1.6363 -0.713258 0
M  V30 4382 C 403.755 3.06611 -1.4437 0
M  V30 4383 C 402.928 3.4391 -2.70268 0
M  V30 4384 C 401.987 4.61515 -2.52765 0
M  V30 4385 O 401.013 4.66197 -3.26572 0
M  V30 4386 N 402.215 5.57883 -1.6046 0
M  V30 4387 H 404.98 1.61408 -2.52522 0
M  V30 4388 H 402.541 0.7458 -1.43699 0
M  V30 4389 H 404.533 3.83117 -1.30398 0
M  V30 4390 H 403.103 3.07602 -0.556766 0
M  V30 4391 H 402.323 2.56873 -2.99015 0
M  V30 4392 H 403.611 3.65605 -3.53851 0
M  V30 4393 H 403.009 5.56855 -0.996422 0
M  V30 4394 H 401.566 6.33723 -1.52441 0
M  V30 4395 N 404.999 1.35443 0.805782 0
M  V30 4396 C 405.931 1.24285 1.92577 0
M  V30 4397 C 406.944 0.165962 1.61952 0
M  V30 4398 O 408.133 0.419303 1.73505 0
M  V30 4399 C 405.233 0.891272 3.2697 0
M  V30 4400 C 404.406 2.06669 3.85495 0
M  V30 4401 C 403.465 1.69077 4.98297 0
M  V30 4402 O 402.491 2.4096 5.15681 0
M  V30 4403 N 403.693 0.614869 5.77234 0
M  V30 4404 H 406.458 2.20777 2.02676 0
M  V30 4405 H 404.019 1.28623 0.983243 0
M  V30 4406 H 406.011 0.621256 3.99903 0
M  V30 4407 H 404.581 0.016004 3.12596 0
M  V30 4408 H 403.801 2.50046 3.04747 0
M  V30 4409 H 405.089 2.85237 4.21328 0
M  V30 4410 H 404.487 0.017648 5.65697 0
M  V30 4411 H 403.044 0.404636 6.50543 0
M  V30 4412 N 406.477 -1.02803 1.19454 0
M  V30 4413 C 407.707 -1.79581 1.02149 0
M  V30 4414 C 408.115 -1.84182 -0.432851 0
M  V30 4415 O 407.458 -1.28534 -1.31243 0
M  V30 4416 C 407.52 -3.25993 1.51554 0
M  V30 4417 C 407.184 -3.45025 2.99678 0
M  V30 4418 C 408.181 -3.35175 3.97434 0
M  V30 4419 C 405.866 -3.71212 3.38389 0
M  V30 4420 C 407.86 -3.51238 5.31893 0
M  V30 4421 C 405.547 -3.8692 4.73008 0
M  V30 4422 C 406.545 -3.76936 5.69569 0
M  V30 4423 O 406.233 -3.92179 7.01748 0
M  V30 4424 H 405.965 -0.571962 0.360327 0
M  V30 4425 H 408.519 -1.30367 1.58725 0
M  V30 4426 H 406.749 -3.76235 0.893543 0
M  V30 4427 H 408.438 -3.84368 1.30444 0
M  V30 4428 H 409.204 -3.14895 3.68872 0
M  V30 4429 H 405.083 -3.78075 2.6378 0
M  V30 4430 H 408.627 -3.43362 6.07247 0
M  V30 4431 H 404.524 -4.06699 5.01265 0
M  V30 4432 H 405.292 -4.09265 7.08833 0
M  V30 4433 N 407.956 -0.998596 -1.21925 0
M  V30 4434 C 408.866 -0.562736 -2.27751 0
M  V30 4435 C 409.882 0.391203 -1.69545 0
M  V30 4436 O 411.058 0.256625 -1.99758 0
M  V30 4437 C 408.123 0.11012 -3.46525 0
M  V30 4438 C 407.184 -0.887495 -4.20026 0
M  V30 4439 C 406.417 -0.246654 -5.3313 0
M  V30 4440 O 406.64 0.958088 -5.62296 0
M  V30 4441 O 405.574 -0.954374 -5.94286 0
M  V30 4442 H 409.4 -1.44329 -2.67213 0
M  V30 4443 H 406.985 -0.767135 -1.28201 0
M  V30 4444 H 408.867 0.486756 -4.18579 0
M  V30 4445 H 407.542 0.965154 -3.08976 0
M  V30 4446 H 406.449 -1.31517 -3.5022 0
M  V30 4447 H 407.782 -1.71191 -4.6147 0
M  V30 4448 N 409.434 1.37368 -0.772513 0
M  V30 4449 C 410.659 2.0447 -0.347386 0
M  V30 4450 C 411.084 1.57882 1.0225 0
M  V30 4451 O 410.442 0.73941 1.65537 0
M  V30 4452 C 410.49 3.58369 -0.400479 0
M  V30 4453 O 409.594 4.0803 0.598789 0
M  V30 4454 H 408.935 0.646773 -0.15027 0
M  V30 4455 H 411.465 1.75667 -1.04892 0
M  V30 4456 H 411.475 4.07183 -0.258045 0
M  V30 4457 H 410.15 3.91633 -1.39986 0
M  V30 4458 H 408.727 3.70534 0.419411 0
M  V30 4459 N 410.912 0.523116 1.48665 0
M  V30 4460 C 412.158 -0.0134963 2.02796 0
M  V30 4461 C 412.491 -1.34582 1.40004 0
M  V30 4462 O 411.766 -1.86756 0.543381 0
M  V30 4463 C 412.049 -0.14276 3.59817 0
M  V30 4464 C 411.902 1.21425 4.331 0
M  V30 4465 C 413.221 -0.872856 4.31357 0
M  V30 4466 H 410.34 -0.00343074 0.736992 0
M  V30 4467 H 412.982 0.678816 1.7746 0
M  V30 4468 H 411.132 -0.732401 3.81534 0
M  V30 4469 H 412.804 1.84447 4.2282 0
M  V30 4470 H 411.047 1.79791 3.94788 0
M  V30 4471 H 411.718 1.07687 5.41394 0
M  V30 4472 H 414.194 -0.372555 4.14429 0
M  V30 4473 H 413.07 -0.932185 5.40927 0
M  V30 4474 H 413.331 -1.92161 3.98154 0
M  V30 4475 N 412.39 -1.55475 0.257931 0
M  V30 4476 C 413.353 -2.20551 -0.623706 0
M  V30 4477 C 414.353 -1.17809 -1.09443 0
M  V30 4478 O 415.543 -1.42823 -0.997362 0
M  V30 4479 C 412.675 -2.85784 -1.8585 0
M  V30 4480 H 413.868 -2.99848 -0.0557743 0
M  V30 4481 H 411.421 -1.56298 0.0084422 0
M  V30 4482 H 412.156 -2.10453 -2.46739 0
M  V30 4483 H 411.941 -3.61057 -1.52907 0
M  V30 4484 H 413.431 -3.35553 -2.48584 0
M  V30 4485 N 413.868 0.0150385 -1.57593 0
M  V30 4486 C 414.831 0.995996 -2.06428 0
M  V30 4487 C 415.831 1.2818 -0.970903 0
M  V30 4488 O 417.021 1.22949 -1.23406 0
M  V30 4489 C 414.153 2.32506 -2.49307 0
M  V30 4490 H 415.346 0.573873 -2.94358 0
M  V30 4491 H 412.899 0.262186 -1.54085 0
M  V30 4492 H 413.634 2.79438 -1.64575 0
M  V30 4493 H 413.419 2.13087 -3.29145 0
M  V30 4494 H 414.909 3.02906 -2.87468 0
M  V30 4495 N 415.346 1.54954 0.287554 0
M  V30 4496 C 416.293 1.86834 1.35505 0
M  V30 4497 C 417.263 0.718452 1.49758 0
M  V30 4498 O 418.448 0.968358 1.644 0
M  V30 4499 C 415.588 2.13303 2.71286 0
M  V30 4500 C 414.701 3.40883 2.65373 0
M  V30 4501 C 413.836 3.57125 3.93236 0
M  V30 4502 C 412.875 4.78449 3.81776 0
M  V30 4503 N 412.012 4.91426 5.01443 0
M  V30 4504 H 416.852 2.77889 1.07619 0
M  V30 4505 H 414.389 1.37593 0.520241 0
M  V30 4506 H 416.347 2.26646 3.50267 0
M  V30 4507 H 414.977 1.25499 2.97405 0
M  V30 4508 H 414.029 3.36088 1.78182 0
M  V30 4509 H 415.341 4.29993 2.52799 0
M  V30 4510 H 414.495 3.70207 4.80658 0
M  V30 4511 H 413.234 2.66173 4.0866 0
M  V30 4512 H 412.239 4.65386 2.92738 0
M  V30 4513 H 413.464 5.70822 3.67884 0
M  V30 4514 H 411.41 4.03401 5.17304 0
M  V30 4515 H 411.327 5.74559 4.91343 0
M  V30 4516 H 412.595 5.08879 5.90477 0
M  V30 4517 N 416.824 -0.551391 1.4764 0
M  V30 4518 C 417.772 -1.67896 1.60978 0
M  V30 4519 C 418.766 -1.62549 0.476877 0
M  V30 4520 O 419.972 -1.67664 0.654878 0
M  V30 4521 H 416.347 -0.555649 0.506713 0
M  V30 4522 H 418.318 -1.53784 2.55721 0
M  V30 4523 C 417.067 -3.06234 1.64669 0
M  V30 4524 H 416.39 -3.11033 2.51194 0
M  V30 4525 H 417.83 -3.84804 1.7805 0
M  V30 4526 C 416.289 -3.34737 0.381115 0
M  V30 4527 O 416.819 -3.98381 -0.515297 0
M  V30 4528 N 415.025 -2.8944 0.259354 0
M  V30 4529 H 414.572 -2.37827 0.98976 0
M  V30 4530 H 414.53 -3.08882 -0.586464 0
M  V30 4531 N 418.302 -1.35869 -0.798587 0
M  V30 4532 C 419.232 -1.32118 -1.92528 0
M  V30 4533 C 420.213 -0.194209 -1.68988 0
M  V30 4534 O 421.398 -0.390426 -1.90235 0
M  V30 4535 C 418.528 -1.10047 -3.29404 0
M  V30 4536 C 417.482 -2.19471 -3.67446 0
M  V30 4537 C 416.808 -1.82555 -5.02571 0
M  V30 4538 C 418.108 -3.61495 -3.76987 0
M  V30 4539 H 419.802 -2.26394 -1.95924 0
M  V30 4540 H 417.348 -1.08981 -0.94123 0
M  V30 4541 H 419.301 -1.06061 -4.07835 0
M  V30 4542 H 418.025 -0.122195 -3.26371 0
M  V30 4543 H 416.684 -2.22568 -2.91306 0
M  V30 4544 H 416.332 -0.833249 -4.9605 0
M  V30 4545 H 416.032 -2.5581 -5.28995 0
M  V30 4546 H 417.556 -1.80108 -5.83432 0
M  V30 4547 H 418.97 -3.60676 -4.4563 0
M  V30 4548 H 417.367 -4.33577 -4.14887 0
M  V30 4549 H 418.437 -3.97065 -2.78329 0
M  V30 4550 N 419.78 1.02168 -1.19998 0
M  V30 4551 C 420.712 2.10705 -0.901994 0
M  V30 4552 C 421.725 1.6244 0.108216 0
M  V30 4553 O 422.914 1.78082 -0.12214 0
M  V30 4554 C 420.014 3.37291 -0.329834 0
M  V30 4555 C 419.187 4.14714 -1.39035 0
M  V30 4556 C 418.246 5.19606 -0.830432 0
M  V30 4557 O 417.272 5.48809 -1.50989 0
M  V30 4558 N 418.474 5.79366 0.362696 0
M  V30 4559 H 421.239 2.36856 -1.83628 0
M  V30 4560 H 418.8 1.18518 -1.10296 0
M  V30 4561 H 420.792 4.04657 0.0587633 0
M  V30 4562 H 419.362 3.0843 0.508891 0
M  V30 4563 H 418.582 3.42392 -1.9535 0
M  V30 4564 H 419.87 4.63226 -2.10474 0
M  V30 4565 H 419.268 5.57968 0.932081 0
M  V30 4566 H 417.825 6.48106 0.69299 0
M  V30 4567 N 421.258 1.00505 1.21394 0
M  V30 4568 C 422.168 0.574806 2.27449 0
M  V30 4569 C 423.184 -0.382206 1.6975 0
M  V30 4570 O 424.36 -0.246027 1.99892 0
M  V30 4571 C 421.425 -0.0917414 3.46579 0
M  V30 4572 C 420.486 0.909758 4.1955 0
M  V30 4573 C 419.719 0.274924 5.32991 0
M  V30 4574 O 419.942 -0.928254 5.62796 0
M  V30 4575 O 418.876 0.985877 5.93771 0
M  V30 4576 H 422.702 1.45744 2.66444 0
M  V30 4577 H 420.287 0.773923 1.27792 0
M  V30 4578 H 422.169 -0.464551 4.18832 0
M  V30 4579 H 420.844 -0.948755 3.09484 0
M  V30 4580 H 419.751 1.33372 3.49518 0
M  V30 4581 H 421.084 1.73636 4.60555 0
M  V30 4582 N 422.737 -1.36956 0.779787 0
M  V30 4583 C 423.7 -2.2851 0.177662 0
M  V30 4584 C 424.7 -1.48393 -0.619377 0
M  V30 4585 O 425.89 -1.68505 -0.441785 0
M  V30 4586 C 423.022 -3.32428 -0.755279 0
M  V30 4587 H 424.215 -2.83269 0.984823 0
M  V30 4588 H 421.768 -1.46358 0.548544 0
M  V30 4589 H 422.503 -2.82808 -1.58714 0
M  V30 4590 H 422.288 -3.91659 -0.185817 0
M  V30 4591 H 423.778 -4.00824 -1.17174 0
M  V30 4592 N 424.215 -0.530993 -1.48385 0
M  V30 4593 C 425.125 0.23503 -2.3342 0
M  V30 4594 C 426.141 0.93801 -1.46552 0
M  V30 4595 O 427.317 0.912745 -1.7953 0
M  V30 4596 C 424.382 1.26778 -3.22689 0
M  V30 4597 C 423.443 0.575038 -4.25431 0
M  V30 4598 C 422.676 1.55858 -5.10435 0
M  V30 4599 O 422.899 2.79129 -4.97437 0
M  V30 4600 O 421.833 1.09742 -5.91811 0
M  V30 4601 H 425.659 -0.461794 -3.00169 0
M  V30 4602 H 423.244 -0.291903 -1.46521 0
M  V30 4603 H 425.126 1.86457 -3.77904 0
M  V30 4604 H 423.801 1.94699 -2.586 0
M  V30 4605 H 422.708 -0.0622782 -3.74048 0
M  V30 4606 H 424.041 -0.062253 -4.92161 0
M  V30 4607 N 425.693 1.55336 -0.266172 0
M  V30 4608 C 426.603 2.2583 0.635458 0
M  V30 4609 C 427.619 1.28106 1.17749 0
M  V30 4610 O 428.795 1.61024 1.20968 0
M  V30 4611 C 425.86 2.95879 1.80712 0
M  V30 4612 C 424.921 4.09059 1.30265 0
M  V30 4613 C 424.154 4.75759 2.41846 0
M  V30 4614 O 424.377 4.41622 3.61007 0
M  V30 4615 O 423.311 5.63888 2.1051 0
M  V30 4616 H 427.137 3.03631 0.0646693 0
M  V30 4617 H 424.722 1.49361 -0.0339177 0
M  V30 4618 H 426.604 3.39932 2.49047 0
M  V30 4619 H 425.279 2.21002 2.36516 0
M  V30 4620 H 424.186 3.69482 0.586019 0
M  V30 4621 H 425.519 4.85811 0.790458 0
M  V30 4622 N 427.171 -0.0066808 1.57599 0
M  V30 4623 C 428.417 -0.68835 1.91398 0
M  V30 4624 C 428.772 -1.7175 0.86716 0
M  V30 4625 O 428.065 -1.91215 -0.121475 0
M  V30 4626 C 428.259 -1.37939 3.29708 0
M  V30 4627 C 428.088 -0.418689 4.47747 0
M  V30 4628 C 426.858 -0.031526 5.0529 0
M  V30 4629 C 429.056 0.312301 5.13351 0
M  V30 4630 N 427.038 0.928088 6.06844 0
M  V30 4631 C 428.409 1.12682 6.09674 0
M  V30 4632 C 430.464 0.376853 4.96472 0
M  V30 4633 C 429.167 2 6.90936 0
M  V30 4634 C 431.193 1.23723 5.78314 0
M  V30 4635 C 430.555 2.03962 6.74225 0
M  V30 4636 H 426.654 -0.225292 0.748844 0
M  V30 4637 H 429.238 0.0520973 1.9463 0
M  V30 4638 H 427.409 -2.09017 3.27363 0
M  V30 4639 H 429.141 -2.01522 3.50957 0
M  V30 4640 H 425.896 -0.398485 4.71921 0
M  V30 4641 H 426.32 1.40307 6.62301 0
M  V30 4642 H 430.962 -0.22921 4.22178 0
M  V30 4643 H 428.68 2.61676 7.64559 0
M  V30 4644 H 432.266 1.291 5.67296 0
M  V30 4645 H 431.146 2.69461 7.36451 0
M  V30 4646 N 428.649 -1.55105 -0.279332 0
M  V30 4647 C 429.879 -1.7917 -1.02867 0
M  V30 4648 C 430.287 -0.56204 -1.80659 0
M  V30 4649 O 429.63 0.478266 -1.77365 0
M  V30 4650 C 429.692 -2.96061 -2.03932 0
M  V30 4651 C 429.356 -4.33341 -1.45137 0
M  V30 4652 C 430.353 -5.12565 -0.870266 0
M  V30 4653 C 428.038 -4.79987 -1.48048 0
M  V30 4654 C 430.032 -6.36565 -0.326097 0
M  V30 4655 C 427.719 -6.03944 -0.932443 0
M  V30 4656 C 428.717 -6.8207 -0.356247 0
M  V30 4657 O 428.405 -8.03691 0.183412 0
M  V30 4658 H 428.137 -0.600796 -0.309872 0
M  V30 4659 H 430.691 -2.02932 -0.317468 0
M  V30 4660 H 428.921 -2.67975 -2.78794 0
M  V30 4661 H 430.61 -3.07506 -2.64943 0
M  V30 4662 H 431.376 -4.77661 -0.840521 0
M  V30 4663 H 427.255 -4.1919 -1.91835 0
M  V30 4664 H 430.799 -6.97489 0.124286 0
M  V30 4665 H 426.696 -6.3833 -0.959407 0
M  V30 4666 H 427.464 -8.18468 0.0721681 0
M  V30 4667 N 430.127 0.543554 -1.4793 0
M  V30 4668 C 431.074 1.64942 -1.6144 0
M  V30 4669 C 432.044 1.59692 -0.456903 0
M  V30 4670 O 433.229 1.78321 -0.678688 0
M  V30 4671 C 430.369 3.03238 -1.64744 0
M  V30 4672 C 429.482 3.18823 -2.91506 0
M  V30 4673 C 428.617 4.47599 -2.86057 0
M  V30 4674 C 427.656 4.56664 -4.07584 0
M  V30 4675 N 426.793 5.76811 -4.00292 0
M  V30 4676 H 431.633 1.52733 -2.55884 0
M  V30 4677 H 429.17 0.7438 -1.2691 0
M  V30 4678 H 431.128 3.83339 -1.64641 0
M  V30 4679 H 429.758 3.1425 -0.738017 0
M  V30 4680 H 428.81 2.32064 -3.01414 0
M  V30 4681 H 430.122 3.21384 -3.81463 0
M  V30 4682 H 429.276 5.35975 -2.84281 0
M  V30 4683 H 428.015 4.47538 -1.93807 0
M  V30 4684 H 427.02 3.66697 -4.09651 0
M  V30 4685 H 428.245 4.58474 -5.00978 0
M  V30 4686 H 426.191 5.77673 -3.10853 0
M  V30 4687 H 426.108 5.80808 -4.8394 0
M  V30 4688 H 427.376 6.67512 -4.02553 0
M  V30 4689 N 431.605 1.3629 0.791371 0
M  V30 4690 C 432.83 1.33726 1.58531 0
M  V30 4691 C 433.255 -0.0794933 1.87932 0
M  V30 4692 O 432.613 -1.05087 1.47738 0
M  V30 4693 C 432.661 2.16425 2.88431 0
M  V30 4694 O 431.765 1.5554 3.81944 0
M  V30 4695 H 431.106 0.457793 0.480959 0
M  V30 4696 H 433.636 1.79547 0.981031 0
M  V30 4697 H 433.646 2.28933 3.37718 0
M  V30 4698 H 432.321 3.19415 2.66359 0
M  V30 4699 H 430.898 1.51961 3.40532 0
M  V30 4700 N 433.083 -1.0153 1.20538 0
M  V30 4701 C 434.03 -2.10098 0.955383 0
M  V30 4702 C 435 -1.65702 -0.114878 0
M  V30 4703 O 436.185 -1.90776 0.0301118 0
M  V30 4704 C 433.325 -3.41236 0.514969 0
M  V30 4705 C 432.438 -3.99102 1.65353 0
M  V30 4706 C 431.573 -5.18306 1.16329 0
M  V30 4707 C 430.612 -5.68258 2.27485 0
M  V30 4708 N 429.749 -6.78722 1.7967 0
M  V30 4709 H 434.589 -2.30818 1.88486 0
M  V30 4710 H 432.126 -1.13189 0.939499 0
M  V30 4711 H 434.084 -4.16504 0.240935 0
M  V30 4712 H 432.714 -3.20585 -0.377512 0
M  V30 4713 H 431.766 -3.20918 2.04245 0
M  V30 4714 H 433.078 -4.32177 2.49047 0
M  V30 4715 H 432.232 -6.00782 0.845302 0
M  V30 4716 H 430.971 -4.86799 0.296254 0
M  V30 4717 H 429.976 -4.84385 2.60099 0
M  V30 4718 H 431.201 -6.01798 3.14667 0
M  V30 4719 H 429.147 -6.49042 0.95295 0
M  V30 4720 H 429.064 -7.10996 2.56944 0
M  V30 4721 H 430.332 -7.64759 1.50875 0
M  V30 4722 N 434.561 -1.01147 -1.20859 0
M  V30 4723 C 435.808 -0.697865 -1.90095 0
M  V30 4724 C 436.136 0.772014 -1.78522 0
M  V30 4725 O 435.391 1.57595 -1.16027 0
M  V30 4726 C 435.69 -1.0727 -3.40922 0
M  V30 4727 C 435.356 -2.53792 -3.72693 0
M  V30 4728 C 434.018 -2.93829 -3.81075 0
M  V30 4729 C 436.37 -3.48674 -3.87397 0
M  V30 4730 C 433.698 -4.27696 -4.01613 0
M  V30 4731 C 436.05 -4.82223 -4.09444 0
M  V30 4732 C 434.714 -5.21973 -4.16054 0
M  V30 4733 H 433.984 -0.255367 -0.695607 0
M  V30 4734 H 436.631 -1.27111 -1.43231 0
M  V30 4735 H 434.936 -0.417799 -3.89566 0
M  V30 4736 H 436.633 -0.807818 -3.92779 0
M  V30 4737 H 433.223 -2.21768 -3.66765 0
M  V30 4738 H 437.407 -3.18904 -3.80281 0
M  V30 4739 H 432.663 -4.58055 -4.04964 0
M  V30 4740 H 436.837 -5.55672 -4.19763 0
M  V30 4741 H 434.464 -6.25717 -4.31721 0
M  V30 4742 N 436.039 1.36541 -0.78704 0
M  V30 4743 C 437.002 2.28413 -0.189778 0
M  V30 4744 C 438.002 1.48719 0.611499 0
M  V30 4745 O 439.192 1.68737 0.432842 0
M  V30 4746 C 436.324 3.32824 0.737638 0
M  V30 4747 H 437.517 2.82743 -0.999831 0
M  V30 4748 H 435.07 1.46065 -0.556298 0
M  V30 4749 H 435.805 2.83646 1.57212 0
M  V30 4750 H 435.59 3.91752 0.165044 0
M  V30 4751 H 437.08 4.0144 1.15047 0
M  V30 4752 N 437.518 0.538854 1.48102 0
M  V30 4753 C 438.795 -0.0568108 1.95517 0
M  V30 4754 C 439.175 -1.50408 1.48124 0
M  V30 4755 O 438.523 -2.17133 0.711727 0
M  V30 4756 C 438.733 0.0696262 3.48931 0
M  V30 4757 C 440.081 -0.0851202 4.24515 0
M  V30 4758 O 441.105 -0.0037347 3.562 0
M  V30 4759 O 439.964 -0.257025 5.45895 0
M  V30 4760 H 437.058 -0.0743695 0.823649 0
M  V30 4761 H 439.604 0.604081 1.58584 0
M  V30 4762 H 438.376 1.07744 3.76174 0
M  V30 4763 H 437.999 -0.629714 3.92582 0
M  V30 4764 N 438.996 -1.55193 0.274407 0
M  V30 4765 C 439.926 -2.25471 -0.607032 0
M  V30 4766 C 440.907 -1.24461 -1.15946 0
M  V30 4767 O 442.092 -1.53179 -1.19373 0
M  V30 4768 C 439.222 -2.97526 -1.79153 0
M  V30 4769 C 438.176 -4.05459 -1.37067 0
M  V30 4770 C 437.502 -4.65084 -2.6382 0
M  V30 4771 C 438.802 -5.19691 -0.521389 0
M  V30 4772 H 440.496 -2.99393 -0.0209343 0
M  V30 4773 H 438.042 -1.43997 -0.00862866 0
M  V30 4774 H 439.995 -3.45402 -2.41404 0
M  V30 4775 H 438.719 -2.21138 -2.40344 0
M  V30 4776 H 437.378 -3.58393 -0.771355 0
M  V30 4777 H 437.026 -3.85365 -3.23268 0
M  V30 4778 H 436.726 -5.37961 -2.36372 0
M  V30 4779 H 438.25 -5.15708 -3.26921 0
M  V30 4780 H 439.664 -5.63623 -1.04889 0
M  V30 4781 H 438.061 -5.99126 -0.341825 0
M  V30 4782 H 439.131 -4.82713 0.46 0
M  V30 4783 N 440.474 -0.00167713 -1.576 0
M  V30 4784 C 441.699 0.69739 -1.95323 0
M  V30 4785 C 442.124 1.6642 -0.876706 0
M  V30 4786 O 441.482 1.80548 0.165007 0
M  V30 4787 C 441.53 1.40403 -3.32144 0
M  V30 4788 O 440.634 2.5185 -3.26566 0
M  V30 4789 H 439.975 0.185373 -0.637599 0
M  V30 4790 H 442.505 -0.0553665 -2.04525 0
M  V30 4791 H 442.515 1.76707 -3.67748 0
M  V30 4792 H 441.19 0.695167 -4.10049 0
M  V30 4793 H 439.767 2.17861 -3.0264 0
M  V30 4794 N 441.952 1.55251 0.271103 0
M  V30 4795 C 442.862 1.9136 1.35714 0
M  V30 4796 C 443.878 0.811075 1.5394 0
M  V30 4797 O 445.054 1.11031 1.6803 0
M  V30 4798 C 442.119 2.1798 2.69603 0
M  V30 4799 C 441.18 3.4153 2.60107 0
M  V30 4800 C 440.413 3.66871 3.8761 0
M  V30 4801 O 440.636 2.94689 4.8838 0
M  V30 4802 O 439.57 4.60405 3.87699 0
M  V30 4803 H 443.396 2.83815 1.08088 0
M  V30 4804 H 440.981 1.41821 0.469792 0
M  V30 4805 H 442.863 2.36518 3.48765 0
M  V30 4806 H 441.538 1.28708 2.97012 0
M  V30 4807 H 440.445 3.28325 1.79314 0
M  V30 4808 H 441.778 4.31027 2.37647 0
M  V30 4809 N 443.43 -0.535701 1.48216 0
M  V30 4810 C 444.393 -1.623 1.61838 0
M  V30 4811 C 445.393 -1.53087 0.492024 0
M  V30 4812 O 446.583 -1.5686 0.757668 0
M  V30 4813 C 443.715 -3.01907 1.58319 0
M  V30 4814 H 444.908 -1.51564 2.58783 0
M  V30 4815 H 442.461 -0.757317 1.36727 0
M  V30 4816 H 443.196 -3.18155 0.628299 0
M  V30 4817 H 442.981 -3.10003 2.40085 0
M  V30 4818 H 444.471 -3.80969 1.71033 0
M  V30 4819 N 444.908 -1.36708 -0.784132 0
M  V30 4820 C 445.871 -1.31307 -1.87859 0
M  V30 4821 C 446.871 -0.219654 -1.59293 0
M  V30 4822 O 448.061 -0.47476 -1.67606 0
M  V30 4823 C 445.193 -1.03679 -3.24751 0
M  V30 4824 H 446.386 -2.28647 -1.94064 0
M  V30 4825 H 443.939 -1.21558 -0.98252 0
M  V30 4826 H 444.674 -0.0681936 -3.24228 0
M  V30 4827 H 444.459 -1.82811 -3.46876 0
M  V30 4828 H 445.949 -1.02518 -4.04821 0
M  V30 4829 N 446.386 1.0089 -1.21074 0
M  V30 4830 C 447.334 2.11707 -0.963476 0
M  V30 4831 C 448.328 1.69172 0.0879032 0
M  V30 4832 O 449.534 1.79889 -0.0631415 0
M  V30 4833 H 445.909 0.692026 -0.294287 0
M  V30 4834 H 447.88 2.29743 -1.90422 0
M  V30 4835 C 446.629 3.43473 -0.540509 0
M  V30 4836 H 445.952 3.76634 -1.34114 0
M  V30 4837 H 447.392 4.22044 -0.406777 0
M  V30 4838 C 445.851 3.2849 0.748079 0
M  V30 4839 O 446.381 3.58883 1.8046 0
M  V30 4840 N 444.587 2.81715 0.713081 0
M  V30 4841 H 444.134 2.5718 -0.146973 0
M  V30 4842 H 444.092 2.72071 1.57558 0
M  V30 4843 N 447.864 1.01787 1.20321 0
M  V30 4844 C 449.28 0.732951 1.41774 0
M  V30 4845 C 449.48 -0.686883 1.89431 0
M  V30 4846 O 448.536 -1.45446 2.06402 0
M  V30 4847 C 449.849 1.75973 2.43832 0
M  V30 4848 C 451.397 1.77802 2.57596 0
M  V30 4849 C 451.872 2.7941 3.62897 0
M  V30 4850 N 453.363 2.78157 3.70382 0
M  V30 4851 C 454.098 3.53434 4.51521 0
M  V30 4852 N 453.594 4.38392 5.36455 0
M  V30 4853 N 455.387 3.42026 4.46066 0
M  V30 4854 H 447.538 1.93447 0.877035 0
M  V30 4855 H 449.801 0.835712 0.447536 0
M  V30 4856 H 449.507 2.77699 2.15815 0
M  V30 4857 H 449.381 1.57292 3.4284 0
M  V30 4858 H 451.768 0.767602 2.84942 0
M  V30 4859 H 451.849 2.00557 1.58779 0
M  V30 4860 H 451.493 3.80616 3.36295 0
M  V30 4861 H 451.423 2.53916 4.61339 0
M  V30 4862 H 453.914 2.16531 3.09714 0
M  V30 4863 H 454.227 4.92596 5.95457 0
M  V30 4864 H 452.572 4.4247 5.35953 0
M  V30 4865 H 455.763 2.75075 3.78749 0
M  V30 4866 H 455.936 4.00946 5.09064 0
M  V30 4867 N 449.342 -1.36122 0.79427 0
M  V30 4868 C 450.29 -2.31871 0.184023 0
M  V30 4869 C 451.284 -1.56041 -0.659365 0
M  V30 4870 O 452.49 -1.71266 -0.553906 0
M  V30 4871 H 448.865 -0.750896 0.0407373 0
M  V30 4872 H 450.836 -2.80898 1.00693 0
M  V30 4873 C 449.585 -3.41324 -0.662813 0
M  V30 4874 H 448.908 -3.99793 -0.0231944 0
M  V30 4875 H 450.348 -4.10629 -1.05639 0
M  V30 4876 C 448.807 -2.83308 -1.82313 0
M  V30 4877 O 449.337 -2.75863 -2.91997 0
M  V30 4878 N 447.543 -2.40529 -1.63077 0
M  V30 4879 H 447.09 -2.46785 -0.738591 0
M  V30 4880 H 447.048 -2.02059 -2.40872 0
M  V30 4881 N 450.82 -0.546701 -1.47814 0
M  V30 4882 C 451.768 0.220048 -2.31557 0
M  V30 4883 C 452.762 0.919472 -1.42275 0
M  V30 4884 O 453.968 0.841953 -1.59095 0
M  V30 4885 H 450.343 0.0898334 -0.746615 0
M  V30 4886 H 452.314 -0.505589 -2.94086 0
M  V30 4887 C 451.063 1.24353 -3.24702 0
M  V30 4888 H 450.386 0.714758 -3.93359 0
M  V30 4889 H 451.826 1.75112 -3.8615 0
M  V30 4890 C 450.285 2.28593 -2.47481 0
M  V30 4891 O 450.815 3.35334 -2.21165 0
M  V30 4892 N 449.021 2.02244 -2.08676 0
M  V30 4893 H 448.568 1.15455 -2.30278 0
M  V30 4894 H 448.526 2.72207 -1.57323 0
M  V30 4895 N 452.299 1.55045 -0.282633 0
M  V30 4896 C 453.576 1.9179 0.384166 0
M  V30 4897 C 453.956 1.20778 1.73136 0
M  V30 4898 O 453.304 0.33719 2.25998 0
M  V30 4899 C 453.514 3.45149 0.517014 0
M  V30 4900 C 454.862 4.17064 0.796427 0
M  V30 4901 O 455.886 3.51084 0.601535 0
M  V30 4902 O 454.745 5.33837 1.16962 0
M  V30 4903 H 451.839 0.799483 0.211558 0
M  V30 4904 H 454.385 1.66474 -0.32934 0
M  V30 4905 H 453.157 3.88922 -0.430772 0
M  V30 4906 H 452.78 3.76443 1.2797 0
M  V30 4907 N 453.777 0.010035 1.57597 0
M  V30 4908 C 454.74 -0.963029 2.07986 0
M  V30 4909 C 455.74 -1.26619 0.991173 0
M  V30 4910 O 456.93 -1.2097 1.25347 0
M  V30 4911 C 454.062 -2.2851 2.52974 0
M  V30 4912 H 455.255 -0.526971 2.95234 0
M  V30 4913 H 452.808 -0.237639 1.54483 0
M  V30 4914 H 453.543 -2.76784 1.69 0
M  V30 4915 H 453.328 -2.07824 3.32493 0
M  V30 4916 H 454.818 -2.98294 2.9225 0
M  V30 4917 N 455.255 -1.55392 -0.262866 0
M  V30 4918 C 456.185 -1.91978 -1.32917 0
M  V30 4919 C 457.166 -0.7828 -1.51017 0
M  V30 4920 O 458.351 -1.04178 -1.63892 0
M  V30 4921 C 455.481 -2.20055 -2.68687 0
M  V30 4922 C 454.435 -3.35854 -2.65304 0
M  V30 4923 C 453.761 -3.49435 -4.04721 0
M  V30 4924 C 455.061 -4.71977 -2.23685 0
M  V30 4925 H 456.755 -2.81292 -1.02544 0
M  V30 4926 H 454.301 -1.3534 -0.491846 0
M  V30 4927 H 456.254 -2.44237 -3.43404 0
M  V30 4928 H 454.978 -1.27551 -3.00663 0
M  V30 4929 H 453.637 -3.11655 -1.93045 0
M  V30 4930 H 453.285 -2.54379 -4.33936 0
M  V30 4931 H 452.985 -4.27297 -4.0335 0
M  V30 4932 H 454.509 -3.7592 -4.81161 0
M  V30 4933 H 455.923 -4.95637 -2.88127 0
M  V30 4934 H 454.32 -5.52828 -2.33456 0
M  V30 4935 H 455.39 -4.70115 -1.18827 0
M  V30 4936 N 456.733 0.527833 -1.48498 0
M  V30 4937 C 458.149 0.856571 -1.34666 0
M  V30 4938 C 458.349 1.98271 -0.35931 0
M  V30 4939 O 457.405 2.51551 0.218703 0
M  V30 4940 C 458.718 1.22207 -2.74747 0
M  V30 4941 C 460.266 1.33183 -2.83251 0
M  V30 4942 C 460.741 1.73075 -4.24039 0
M  V30 4943 N 462.232 1.80174 -4.26722 0
M  V30 4944 C 462.967 2.1243 -5.32598 0
M  V30 4945 N 462.463 2.43096 -6.4875 0
M  V30 4946 N 464.256 2.13454 -5.19994 0
M  V30 4947 H 456.407 -0.215174 -2.11307 0
M  V30 4948 H 458.67 -0.0336281 -0.947403 0
M  V30 4949 H 458.376 0.468195 -3.4857 0
M  V30 4950 H 458.25 2.17173 -3.08409 0
M  V30 4951 H 460.637 2.07647 -2.09683 0
M  V30 4952 H 460.718 0.363333 -2.53206 0
M  V30 4953 H 460.362 0.991712 -4.98124 0
M  V30 4954 H 460.292 2.70979 -4.51529 0
M  V30 4955 H 462.783 1.58744 -3.42942 0
M  V30 4956 H 463.096 2.6682 -7.25277 0
M  V30 4957 H 461.441 2.40611 -6.52021 0
M  V30 4958 H 464.632 1.88956 -4.28268 0
M  V30 4959 H 464.805 2.38261 -6.02608 0
M  V30 4960 N 458.211 1.37122 0.776871 0
M  V30 4961 C 459.143 1.28342 1.89897 0
M  V30 4962 C 460.156 0.200277 1.61563 0
M  V30 4963 O 461.345 0.456012 1.72577 0
M  V30 4964 C 458.445 0.960427 3.25006 0
M  V30 4965 C 457.618 2.148 3.81025 0
M  V30 4966 C 456.677 1.79608 4.94598 0
M  V30 4967 O 455.703 2.51845 5.10454 0
M  V30 4968 N 456.905 0.737171 5.758 0
M  V30 4969 H 459.67 2.25027 1.97947 0
M  V30 4970 H 457.231 1.3068 0.955739 0
M  V30 4971 H 459.223 0.705942 3.98495 0
M  V30 4972 H 457.793 0.0823066 3.12492 0
M  V30 4973 H 457.013 2.56454 2.99374 0
M  V30 4974 H 458.301 2.9411 4.15183 0
M  V30 4975 H 457.699 0.137637 5.65533 0
M  V30 4976 H 456.256 0.542534 6.49538 0
M  V30 4977 N 459.689 -1.00246 1.21608 0
M  V30 4978 C 460.652 -2.07233 0.979133 0
M  V30 4979 C 461.652 -1.6072 -0.0508219 0
M  V30 4980 O 462.842 -1.73196 0.186712 0
M  V30 4981 C 459.974 -3.37546 0.477016 0
M  V30 4982 H 461.167 -2.29687 1.92831 0
M  V30 4983 H 458.72 -1.17261 1.03342 0
M  V30 4984 H 459.455 -3.20773 -0.476966 0
M  V30 4985 H 459.24 -3.72638 1.21997 0
M  V30 4986 H 460.73 -4.16285 0.331181 0
M  V30 4987 N 461.167 -1.02423 -1.1978 0
M  V30 4988 C 462.114 -0.601023 -2.22837 0
M  V30 4989 C 463.084 0.382801 -1.61629 0
M  V30 4990 O 464.269 0.280514 -1.88727 0
M  V30 4991 C 461.409 0.0467755 -3.45068 0
M  V30 4992 C 460.522 -0.98253 -4.20678 0
M  V30 4993 C 459.657 -0.304982 -5.30324 0
M  V30 4994 C 458.696 -1.32052 -5.97686 0
M  V30 4995 N 457.833 -0.669105 -6.98904 0
M  V30 4996 H 462.673 -1.48444 -2.58396 0
M  V30 4997 H 460.21 -0.742936 -1.2696 0
M  V30 4998 H 462.168 0.439556 -4.14878 0
M  V30 4999 H 460.798 0.893796 -3.10179 0
M  V30 5000 H 459.85 -1.49341 -3.49859 0
M  V30 5001 H 461.162 -1.75455 -4.66923 0
M  V30 5002 H 460.316 0.142893 -6.06532 0
M  V30 5003 H 459.055 0.499283 -4.85138 0
M  V30 5004 H 458.06 -1.7787 -5.20233 0
M  V30 5005 H 459.285 -2.1262 -6.44957 0
M  V30 5006 H 457.231 0.115152 -6.55899 0
M  V30 5007 H 457.148 -1.37908 -7.43315 0
M  V30 5008 H 458.416 -0.245076 -7.79115 0
M  V30 5009 N 462.645 1.35699 -0.801477 0
M  V30 5010 C 463.577 2.28598 -0.166028 0
M  V30 5011 C 464.59 1.50044 0.631721 0
M  V30 5012 O 465.779 1.72339 0.464921 0
M  V30 5013 C 462.879 3.29625 0.787451 0
M  V30 5014 C 462.052 4.37384 0.037171 0
M  V30 5015 C 461.111 5.183 0.908375 0
M  V30 5016 O 460.137 5.68053 0.361189 0
M  V30 5017 N 461.339 5.35912 2.23112 0
M  V30 5018 H 464.104 2.83771 -0.964071 0
M  V30 5019 H 461.665 1.47994 -0.656469 0
M  V30 5020 H 463.657 3.80648 1.37439 0
M  V30 5021 H 462.227 2.75004 1.48632 0
M  V30 5022 H 461.447 3.87364 -0.730935 0
M  V30 5023 H 462.735 5.0653 -0.480109 0
M  V30 5024 H 462.133 4.97125 2.69968 0
M  V30 5025 H 460.69 5.90133 2.76741 0
M  V30 5026 N 464.123 0.554532 1.47522 0
M  V30 5027 C 465.033 -0.197865 2.33764 0
M  V30 5028 C 466.049 -0.914576 1.48025 0
M  V30 5029 O 467.225 -0.884067 1.80959 0
M  V30 5030 C 464.29 -1.21628 3.24665 0
M  V30 5031 C 463.351 -0.507283 4.26292 0
M  V30 5032 C 462.584 -1.47718 5.1285 0
M  V30 5033 O 462.807 -2.7118 5.01814 0
M  V30 5034 O 461.741 -1.00313 5.93482 0
M  V30 5035 H 465.567 0.50949 2.99396 0
M  V30 5036 H 463.152 0.315176 1.46038 0
M  V30 5037 H 465.034 -1.80421 3.80823 0
M  V30 5038 H 463.709 -1.9056 2.61665 0
M  V30 5039 H 462.616 0.121778 3.73902 0
M  V30 5040 H 463.949 0.140544 4.91999 0
M  V30 5041 N 465.601 -1.54893 0.290851 0
M  V30 5042 C 466.826 -2.04804 -0.32712 0
M  V30 5043 C 467.251 -1.16721 -1.47506 0
M  V30 5044 O 466.609 -0.169107 -1.8051 0
M  V30 5045 C 466.657 -3.52268 -0.770689 0
M  V30 5046 O 465.761 -3.67236 -1.87647 0
M  V30 5047 H 465.102 -0.660789 -0.0652227 0
M  V30 5048 H 467.632 -2.00036 0.429739 0
M  V30 5049 H 467.642 -3.9393 -1.06223 0
M  V30 5050 H 466.317 -4.15843 0.069096 0
M  V30 5051 H 464.894 -3.37479 -1.58626 0
M  V30 5052 N 467.08 -0.0183926 -1.57589 0
M  V30 5053 C 468.308 0.673046 -1.95647 0
M  V30 5054 C 468.723 1.66275 -0.894312 0
M  V30 5055 O 468.08 1.82072 0.124975 0
M  V30 5056 C 468.131 1.38884 -3.33756 0
M  V30 5057 O 467.852 0.438806 -4.35897 0
M  V30 5058 C 469.353 2.1731 -3.86383 0
M  V30 5059 H 466.573 0.186292 -0.644621 0
M  V30 5060 H 469.117 -0.0749748 -2.04363 0
M  V30 5061 H 467.272 2.08835 -3.26293 0
M  V30 5062 H 467.686 0.945869 -5.15901 0
M  V30 5063 H 469.16 2.62863 -4.85394 0
M  V30 5064 H 469.637 3.00764 -3.20059 0
M  V30 5065 H 470.243 1.52339 -3.97081 0
M  V30 5066 N 468.558 1.5553 0.254621 0
M  V30 5067 C 469.468 1.92789 1.33677 0
M  V30 5068 C 470.484 0.827356 1.53071 0
M  V30 5069 O 471.66 1.12807 1.66843 0
M  V30 5070 C 468.725 2.20827 2.67275 0
M  V30 5071 C 467.786 3.4427 2.5647 0
M  V30 5072 C 467.019 3.70961 3.83697 0
M  V30 5073 O 467.242 2.99852 4.85227 0
M  V30 5074 O 466.176 4.64491 3.82794 0
M  V30 5075 H 470.002 2.84945 1.05071 0
M  V30 5076 H 467.587 1.42312 0.454723 0
M  V30 5077 H 469.469 2.40204 3.46237 0
M  V30 5078 H 468.144 1.31851 2.9563 0
M  V30 5079 H 467.051 3.30209 1.75821 0
M  V30 5080 H 468.384 4.33524 2.33062 0
M  V30 5081 N 470.036 -0.519951 1.48776 0
M  V30 5082 C 471.266 -1.29783 1.60748 0
M  V30 5083 C 471.674 -1.87253 0.27072 0
M  V30 5084 O 471.017 -1.67628 -0.751438 0
M  V30 5085 C 471.079 -2.47984 2.60277 0
M  V30 5086 C 470.743 -2.11526 4.051 0
M  V30 5087 C 471.74 -1.66608 4.92481 0
M  V30 5088 C 469.425 -2.21742 4.50706 0
M  V30 5089 C 471.419 -1.32384 6.23501 0
M  V30 5090 C 469.106 -1.87129 5.81744 0
M  V30 5091 C 470.104 -1.42523 6.67964 0
M  V30 5092 O 469.792 -1.0837 7.96562 0
M  V30 5093 H 469.524 -0.400562 0.544542 0
M  V30 5094 H 472.078 -0.632879 1.95407 0
M  V30 5095 H 470.308 -3.17493 2.2076 0
M  V30 5096 H 471.997 -3.10036 2.61978 0
M  V30 5097 H 472.763 -1.58178 4.58481 0
M  V30 5098 H 468.642 -2.55415 3.83776 0
M  V30 5099 H 472.186 -0.974949 6.90754 0
M  V30 5100 H 468.083 -1.95204 6.15277 0
M  V30 5101 H 468.851 -1.21681 8.09405 0
M  V30 5102 N 471.514 -1.37532 -0.769588 0
M  V30 5103 C 472.93 -1.18379 -1.07045 0
M  V30 5104 C 473.13 -0.0214312 -2.01489 0
M  V30 5105 O 472.186 0.637809 -2.44312 0
M  V30 5106 C 473.499 -2.50338 -1.66588 0
M  V30 5107 C 475.047 -2.56879 -1.78835 0
M  V30 5108 C 475.522 -3.88974 -2.41792 0
M  V30 5109 N 477.013 -3.90428 -2.4924 0
M  V30 5110 C 477.748 -4.89388 -2.98809 0
M  V30 5111 N 477.244 -5.98745 -3.48535 0
M  V30 5112 N 479.037 -4.76791 -2.97703 0
M  V30 5113 H 471.188 -2.11921 -0.142541 0
M  V30 5114 H 473.451 -0.939608 -0.125863 0
M  V30 5115 H 473.157 -3.35767 -1.0466 0
M  V30 5116 H 473.031 -2.67583 -2.65856 0
M  V30 5117 H 475.418 -1.71856 -2.39895 0
M  V30 5118 H 475.499 -2.43516 -0.783166 0
M  V30 5119 H 475.143 -4.74412 -1.81371 0
M  V30 5120 H 475.073 -3.99641 -3.4292 0
M  V30 5121 H 477.564 -3.11433 -2.14052 0
M  V30 5122 H 477.877 -6.70205 -3.84767 0
M  V30 5123 H 476.222 -6.02387 -3.46634 0
M  V30 5124 H 479.413 -3.90478 -2.58157 0
M  V30 5125 H 479.586 -5.54069 -3.36024 0
M  V30 5126 N 472.992 0.995999 -1.22138 0
M  V30 5127 C 474.408 1.25917 -0.980667 0
M  V30 5128 C 474.608 1.98819 0.327604 0
M  V30 5129 O 473.664 2.29587 1.05101 0
M  V30 5130 C 474.977 2.07399 -2.17729 0
M  V30 5131 C 476.525 2.20594 -2.22052 0
M  V30 5132 C 477 3.05462 -3.41258 0
M  V30 5133 N 478.491 3.13049 -3.41401 0
M  V30 5134 C 479.226 3.78997 -4.30289 0
M  V30 5135 N 478.722 4.46899 -5.2939 0
M  V30 5136 N 480.515 3.75728 -4.18073 0
M  V30 5137 H 472.666 0.507158 -2.06256 0
M  V30 5138 H 474.929 0.28658 -0.903646 0
M  V30 5139 H 474.635 1.61191 -3.12586 0
M  V30 5140 H 474.509 3.08154 -2.17534 0
M  V30 5141 H 476.896 2.66017 -1.27745 0
M  V30 5142 H 476.977 1.1928 -2.26287 0
M  V30 5143 H 476.621 2.60739 -4.35864 0
M  V30 5144 H 476.551 4.06911 -3.34262 0
M  V30 5145 H 479.042 2.64721 -2.69688 0
M  V30 5146 H 479.355 4.94952 -5.935 0
M  V30 5147 H 477.7 4.45657 -5.33306 0
M  V30 5148 H 480.891 3.2184 -3.39907 0
M  V30 5149 H 481.064 4.26845 -4.87553 0
M  V30 5150 N 474.47 1.03057 1.19235 0
M  V30 5151 C 475.402 0.570932 2.21975 0
M  V30 5152 C 476.415 -0.354088 1.58903 0
M  V30 5153 O 477.604 -0.150211 1.77867 0
M  V30 5154 C 474.704 -0.187152 3.38383 0
M  V30 5155 C 473.877 0.743231 4.31039 0
M  V30 5156 C 472.936 0.0302493 5.26191 0
M  V30 5157 O 471.962 0.657371 5.65391 0
M  V30 5158 N 473.164 -1.23991 5.67104 0
M  V30 5159 H 475.929 1.45456 2.62036 0
M  V30 5160 H 473.49 0.909807 1.33918 0
M  V30 5161 H 475.482 -0.673715 3.99053 0
M  V30 5162 H 474.052 -0.972205 2.97098 0
M  V30 5163 H 473.272 1.40985 3.68126 0
M  V30 5164 H 474.56 1.3755 4.89854 0
M  V30 5165 H 473.958 -1.77011 5.37293 0
M  V30 5166 H 472.515 -1.67093 6.30018 0
M  V30 5167 N 475.948 -1.35272 0.808662 0
M  V30 5168 C 477.194 -1.99003 0.390581 0
M  V30 5169 C 477.527 -1.63999 -1.0401 0
M  V30 5170 O 476.802 -0.904368 -1.72196 0
M  V30 5171 C 477.085 -3.55454 0.576566 0
M  V30 5172 C 476.938 -4.00249 2.05233 0
M  V30 5173 C 478.257 -4.401 0.00354277 0
M  V30 5174 H 475.376 -0.722917 0.143388 0
M  V30 5175 H 478.018 -1.6039 1.01858 0
M  V30 5176 H 476.168 -3.88477 0.0419766 0
M  V30 5177 H 477.84 -3.77626 2.64946 0
M  V30 5178 H 476.083 -3.51082 2.54801 0
M  V30 5179 H 476.754 -5.0911 2.13333 0
M  V30 5180 H 479.23 -4.13548 0.460117 0
M  V30 5181 H 478.106 -5.48656 0.163575 0
M  V30 5182 H 478.367 -4.28444 -1.09032 0
M  V30 5183 N 477.426 -0.562348 -1.47226 0
M  V30 5184 C 478.358 0.220011 -2.28142 0
M  V30 5185 C 479.371 0.874596 -1.37312 0
M  V30 5186 O 480.56 0.747583 -1.62091 0
M  V30 5187 C 477.66 1.32953 -3.11732 0
M  V30 5188 C 476.833 0.770759 -4.30556 0
M  V30 5189 C 475.892 1.76541 -4.95701 0
M  V30 5190 O 474.918 1.3095 -5.53932 0
M  V30 5191 N 476.12 3.09896 -4.90861 0
M  V30 5192 H 478.885 -0.474107 -2.95926 0
M  V30 5193 H 476.446 -0.398761 -1.56912 0
M  V30 5194 H 478.438 1.99378 -3.5218 0
M  V30 5195 H 477.008 1.92681 -2.46156 0
M  V30 5196 H 476.228 -0.0704056 -3.94137 0
M  V30 5197 H 477.516 0.376872 -5.07402 0
M  V30 5198 H 476.914 3.49577 -4.44761 0
M  V30 5199 H 475.471 3.71865 -5.35313 0
M  V30 5200 N 478.904 1.54736 -0.299062 0
M  V30 5201 C 480.129 2.04975 0.316254 0
M  V30 5202 C 480.554 1.17501 1.46885 0
M  V30 5203 O 479.912 0.178678 1.80417 0
M  V30 5204 C 479.96 3.52672 0.751997 0
M  V30 5205 O 479.064 3.68226 1.85697 0
M  V30 5206 H 478.405 0.661126 0.0617175 0
M  V30 5207 H 480.935 1.99805 -0.440341 0
M  V30 5208 H 480.945 3.94488 1.04133 0
M  V30 5209 H 479.62 4.158 -0.0911482 0
M  V30 5210 H 478.197 3.38316 1.56834 0
M  V30 5211 N 480.382 0.0267497 1.57577 0
M  V30 5212 C 481.312 -0.954308 2.13108 0
M  V30 5213 C 482.293 -1.34088 1.04663 0
M  V30 5214 O 483.478 -1.41992 1.32484 0
M  V30 5215 C 480.608 -2.23744 2.65624 0
M  V30 5216 C 479.562 -1.99168 3.78835 0
M  V30 5217 C 478.888 -3.33726 4.17769 0
M  V30 5218 C 480.188 -1.33277 5.0501 0
M  V30 5219 H 481.882 -0.491848 2.95332 0
M  V30 5220 H 479.428 -0.23514 1.42067 0
M  V30 5221 H 481.381 -2.92754 3.03106 0
M  V30 5222 H 480.105 -2.72151 1.80558 0
M  V30 5223 H 478.764 -1.32577 3.41788 0
M  V30 5224 H 478.412 -3.79888 3.29688 0
M  V30 5225 H 478.112 -3.18089 4.94058 0
M  V30 5226 H 479.636 -4.04008 4.57832 0
M  V30 5227 H 481.05 -1.92283 5.40093 0
M  V30 5228 H 479.447 -1.28045 5.8628 0
M  V30 5229 H 480.517 -0.305411 4.83937 0
M  V30 5230 N 481.861 -1.55662 -0.24637 0
M  V30 5231 C 483.089 -1.81575 -0.991876 0
M  V30 5232 C 483.504 -0.602545 -1.78927 0
M  V30 5233 O 482.861 0.428795 -1.77391 0
M  V30 5234 C 482.912 -3.05711 -1.92933 0
M  V30 5235 O 482.633 -4.22348 -1.1642 0
M  V30 5236 C 484.134 -3.44428 -2.79078 0
M  V30 5237 H 481.354 -0.604209 -0.291844 0
M  V30 5238 H 483.898 -2.02722 -0.269095 0
M  V30 5239 H 482.053 -2.86612 -2.60638 0
M  V30 5240 H 482.467 -4.92706 -1.79835 0
M  V30 5241 H 483.941 -4.34388 -3.40603 0
M  V30 5242 H 484.418 -2.65037 -3.50217 0
M  V30 5243 H 485.024 -3.65879 -2.16824 0
M  V30 5244 N 483.339 0.512053 -1.4905 0
M  V30 5245 C 484.579 1.27715 -1.59588 0
M  V30 5246 C 484.943 1.90071 -0.271502 0
M  V30 5247 O 486.144 2.67616 -0.251987 0
M  V30 5248 C 484.415 2.32399 -2.71524 0
M  V30 5249 S 485.974 3.18396 -3.01943 0
M  V30 5250 H 482.792 0.43419 -0.563027 0
M  V30 5251 H 485.394 0.581315 -1.86657 0
M  V30 5252 H 484.098 1.85101 -3.66287 0
M  V30 5253 H 483.629 3.06667 -2.46412 0
M  V30 5254 H 485.644 4.32842 -2.42616 0
M  V30 5255 N 484.817 1.37938 0.762283 0
M  V30 5256 C 485.727 1.36681 1.90671 0
M  V30 5257 C 486.743 0.265078 1.71969 0
M  V30 5258 O 487.919 0.502055 1.95042 0
M  V30 5259 C 484.984 1.18211 3.25925 0
M  V30 5260 C 484.045 2.3811 3.57214 0
M  V30 5261 C 483.278 2.20512 4.86014 0
M  V30 5262 O 483.501 1.19429 5.57757 0
M  V30 5263 O 482.435 3.08911 5.16583 0
M  V30 5264 H 486.261 2.33091 1.94685 0
M  V30 5265 H 483.846 1.18767 0.906356 0
M  V30 5266 H 485.728 1.09937 4.06807 0
M  V30 5267 H 484.403 0.248807 3.22742 0
M  V30 5268 H 483.31 2.51958 2.76529 0
M  V30 5269 H 484.643 3.30041 3.65149 0
M  V30 5270 N 486.295 -0.989507 1.22664 0
M  V30 5271 C 487.541 -1.7321 1.05481 0
M  V30 5272 C 487.874 -1.89852 -0.408635 0
M  V30 5273 O 487.149 -1.44416 -1.30285 0
M  V30 5274 C 487.432 -3.1357 1.77047 0
M  V30 5275 C 487.285 -3.04555 3.31008 0
M  V30 5276 C 488.604 -4.12812 1.5256 0
M  V30 5277 H 485.723 -0.628697 0.384589 0
M  V30 5278 H 488.365 -1.15258 1.51049 0
M  V30 5279 H 486.515 -3.63046 1.3831 0
M  V30 5280 H 488.187 -2.62674 3.7921 0
M  V30 5281 H 486.43 -2.41278 3.6051 0
M  V30 5282 H 487.101 -4.03894 3.76263 0
M  V30 5283 H 489.577 -3.72106 1.86215 0
M  V30 5284 H 488.453 -5.09132 2.05124 0
M  V30 5285 H 488.714 -4.39711 0.458936 0
M  V30 5286 N 487.773 -1.03688 -1.18687 0
M  V30 5287 C 489.05 -0.652397 -1.84399 0
M  V30 5288 C 489.43 0.868386 -1.92412 0
M  V30 5289 O 488.778 1.76832 -1.44716 0
M  V30 5290 C 488.988 -1.3238 -3.22919 0
M  V30 5291 C 490.336 -1.45216 -3.98996 0
M  V30 5292 O 491.36 -1.2816 -3.32345 0
M  V30 5293 O 490.219 -1.72975 -5.18403 0
M  V30 5294 H 487.313 -0.227793 -0.795009 0
M  V30 5295 H 489.859 -1.13553 -1.2611 0
M  V30 5296 H 488.631 -2.36202 -3.11968 0
M  V30 5297 H 488.254 -0.829039 -3.88861 0
M  V30 5298 N 489.251 1.34841 -0.815825 0
M  V30 5299 C 490.214 2.27959 -0.238185 0
M  V30 5300 C 491.214 1.49983 0.579816 0
M  V30 5301 O 492.404 1.69617 0.396953 0
M  V30 5302 C 489.536 3.34314 0.666876 0
M  V30 5303 H 490.729 2.80558 -1.05958 0
M  V30 5304 H 488.282 1.44852 -0.587156 0
M  V30 5305 H 489.017 2.86916 1.5116 0
M  V30 5306 H 488.802 3.92014 0.0819106 0
M  V30 5307 H 490.292 4.0379 1.06506 0
M  V30 5308 N 490.729 0.570148 1.46925 0
M  V30 5309 C 491.659 -0.158274 2.32963 0
M  V30 5310 C 492.64 -0.896093 1.44583 0
M  V30 5311 O 493.825 -0.874022 1.7342 0
M  V30 5312 C 490.955 -1.18055 3.26619 0
M  V30 5313 C 489.909 -0.558379 4.24342 0
M  V30 5314 C 489.235 -1.68623 5.07415 0
M  V30 5315 C 490.535 0.496295 5.19937 0
M  V30 5316 H 492.229 0.560046 2.94115 0
M  V30 5317 H 489.775 0.270775 1.41431 0
M  V30 5318 H 491.728 -1.69841 3.85658 0
M  V30 5319 H 490.452 -1.92899 2.63548 0
M  V30 5320 H 489.111 -0.0617157 3.66548 0
M  V30 5321 H 488.759 -2.42402 4.40738 0
M  V30 5322 H 488.459 -1.27564 5.73586 0
M  V30 5323 H 489.983 -2.20709 5.69315 0
M  V30 5324 H 491.397 0.0640052 5.73264 0
M  V30 5325 H 489.794 0.82649 5.94381 0
M  V30 5326 H 490.864 1.38735 4.6463 0
M  V30 5327 N 492.207 -1.54576 0.307264 0
M  V30 5328 C 493.154 -2.23751 -0.56604 0
M  V30 5329 C 494.124 -1.22235 -1.12462 0
M  V30 5330 O 495.309 -1.50873 -1.16799 0
M  V30 5331 C 492.449 -2.98661 -1.72903 0
M  V30 5332 C 491.562 -4.14963 -1.20124 0
M  V30 5333 C 490.697 -4.77441 -2.3286 0
M  V30 5334 C 489.736 -5.85875 -1.77247 0
M  V30 5335 N 488.873 -6.42282 -2.8358 0
M  V30 5336 H 493.713 -2.97984 0.0304578 0
M  V30 5337 H 491.25 -1.47076 0.0268015 0
M  V30 5338 H 493.208 -3.40329 -2.41313 0
M  V30 5339 H 491.838 -2.26793 -2.29706 0
M  V30 5340 H 490.89 -3.78193 -0.409198 0
M  V30 5341 H 492.202 -4.93066 -0.754171 0
M  V30 5342 H 491.356 -5.21993 -3.09205 0
M  V30 5343 H 490.095 -3.98684 -2.80896 0
M  V30 5344 H 489.1 -5.40741 -0.993926 0
M  V30 5345 H 490.325 -6.6652 -1.30107 0
M  V30 5346 H 488.271 -5.66406 -3.30939 0
M  V30 5347 H 488.188 -7.1575 -2.43388 0
M  V30 5348 H 489.456 -6.91492 -3.59804 0
M  V30 5349 N 493.685 -0.035106 -1.57561 0
M  V30 5350 C 494.933 0.64096 -1.91667 0
M  V30 5351 C 495.254 1.72323 -0.912681 0
M  V30 5352 O 494.524 1.95849 0.0449089 0
M  V30 5353 H 493.104 0.239743 -0.707483 0
M  V30 5354 H 495.766 -0.084321 -1.94718 0
M  V30 5355 H 494.862 1.08987 -2.92452 0
M  V30 5356 N 495.163 1.55791 0.238111 0
M  V30 5357 C 496.391 1.82098 0.982233 0
M  V30 5358 C 496.806 0.612025 1.78605 0
M  V30 5359 O 496.163 -0.419381 1.77616 0
M  V30 5360 C 496.214 3.0673 1.91309 0
M  V30 5361 O 495.935 4.2296 1.14179 0
M  V30 5362 C 497.436 3.45903 2.77248 0
M  V30 5363 H 494.656 0.605748 0.288635 0
M  V30 5364 H 497.2 2.02862 0.258341 0
M  V30 5365 H 495.355 2.87991 2.59114 0
M  V30 5366 H 495.769 4.93653 1.7722 0
M  V30 5367 H 497.243 4.36189 3.38295 0
M  V30 5368 H 497.72 2.66891 3.48806 0
M  V30 5369 H 498.326 3.67024 2.14881 0
M  V30 5370 N 496.642 -0.504142 1.49319 0
M  V30 5371 C 497.59 -1.62689 1.66238 0
M  V30 5372 C 498.584 -1.6095 0.528349 0
M  V30 5373 O 499.79 -1.65496 0.707887 0
M  V30 5374 H 496.165 -0.539247 0.524134 0
M  V30 5375 H 498.136 -1.45571 2.60484 0
M  V30 5376 C 496.885 -3.00841 1.74328 0
M  V30 5377 H 496.208 -3.02884 2.60963 0
M  V30 5378 H 497.648 -3.78945 1.90202 0
M  V30 5379 C 496.107 -3.33355 0.487416 0
M  V30 5380 O 496.637 -3.99819 -0.388294 0
M  V30 5381 N 494.843 -2.88469 0.351306 0
M  V30 5382 H 494.39 -2.34557 1.06492 0
M  V30 5383 H 494.348 -3.10591 -0.487899 0
M  V30 5384 N 498.12 -1.38341 -0.754957 0
M  V30 5385 C 499.03 -1.3769 -1.89944 0
M  V30 5386 C 500.046 -0.274194 -1.71826 0
M  V30 5387 O 501.222 -0.512391 -1.94773 0
M  V30 5388 C 498.287 -1.19938 -3.25293 0
M  V30 5389 C 497.348 -2.40001 -3.55946 0
M  V30 5390 C 496.581 -2.23087 -4.84838 0
M  V30 5391 O 496.804 -1.22386 -5.57116 0
M  V30 5392 O 495.738 -3.11646 -5.14937 0
M  V30 5393 H 499.564 -2.3412 -1.93446 0
M  V30 5394 H 497.149 -1.19246 -0.900044 0
M  V30 5395 H 499.031 -1.12093 -4.06218 0
M  V30 5396 H 497.706 -0.265919 -3.22606 0
M  V30 5397 H 496.613 -2.53421 -2.75188 0
M  V30 5398 H 497.946 -3.31973 -3.63394 0
M  V30 5399 N 499.598 0.982988 -1.23187 0
M  V30 5400 C 500.823 1.76455 -1.08988 0
M  V30 5401 C 501.248 1.84726 0.354691 0
M  V30 5402 O 500.606 1.30699 1.25649 0
M  V30 5403 C 500.654 3.17094 -1.71708 0
M  V30 5404 O 499.758 4.00648 -0.977477 0
M  V30 5405 H 499.099 0.542988 -0.382177 0
M  V30 5406 H 501.629 1.23413 -1.63188 0
M  V30 5407 H 501.639 3.67684 -1.76841 0
M  V30 5408 H 500.314 3.10389 -2.76823 0
M  V30 5409 H 498.891 3.59161 -1.0029 0
M  V30 5410 N 501.076 1.04316 1.18135 0
M  V30 5411 C 502.006 0.657299 2.24058 0
M  V30 5412 C 502.987 -0.340678 1.66654 0
M  V30 5413 O 504.172 -0.220223 1.92947 0
M  V30 5414 C 501.302 0.0220715 3.47293 0
M  V30 5415 C 500.256 0.943857 4.17463 0
M  V30 5416 C 499.582 0.172973 5.3442 0
M  V30 5417 C 500.882 2.26409 4.70677 0
M  V30 5418 H 502.576 1.5428 2.56589 0
M  V30 5419 H 500.122 0.743263 1.23335 0
M  V30 5420 H 502.075 -0.259607 4.206 0
M  V30 5421 H 500.799 -0.898323 3.14003 0
M  V30 5422 H 499.458 1.20996 3.46057 0
M  V30 5423 H 499.106 -0.749907 4.97379 0
M  V30 5424 H 498.806 0.787098 5.82304 0
M  V30 5425 H 500.33 -0.101628 6.10515 0
M  V30 5426 H 501.744 2.04294 5.35665 0
M  V30 5427 H 500.141 2.8314 5.29105 0
M  V30 5428 H 501.211 2.90883 3.87962 0
M  V30 5429 N 502.554 -1.34406 0.822964 0
M  V30 5430 C 503.464 -2.33298 0.246838 0
M  V30 5431 C 504.48 -1.62625 -0.618797 0
M  V30 5432 O 505.656 -1.94391 -0.526685 0
M  V30 5433 C 502.721 -3.41785 -0.581731 0
M  V30 5434 C 501.782 -4.28206 0.306309 0
M  V30 5435 C 501.015 -5.31512 -0.48281 0
M  V30 5436 O 501.238 -5.43973 -1.71607 0
M  V30 5437 O 500.172 -6.01749 0.134884 0
M  V30 5438 H 503.998 -2.84401 1.06534 0
M  V30 5439 H 501.583 -1.37466 0.585108 0
M  V30 5440 H 503.465 -4.08028 -1.05313 0
M  V30 5441 H 502.14 -2.92925 -1.37756 0
M  V30 5442 H 501.047 -3.64885 0.825199 0
M  V30 5443 H 502.38 -4.80507 1.06649 0
M  V30 5444 N 504.032 -0.577932 -1.46621 0
M  V30 5445 C 505.448 -0.239242 -1.57797 0
M  V30 5446 C 505.648 1.25843 -1.57371 0
M  V30 5447 O 504.704 2.03988 -1.48813 0
M  V30 5448 C 506.017 -0.884227 -2.87405 0
M  V30 5449 C 507.565 -0.857373 -3.01028 0
M  V30 5450 C 508.04 -1.48181 -4.33366 0
M  V30 5451 N 509.531 -1.44593 -4.40053 0
M  V30 5452 C 510.266 -1.89852 -5.41058 0
M  V30 5453 N 509.762 -2.43062 -6.48762 0
M  V30 5454 N 511.555 -1.80797 -5.3223 0
M  V30 5455 H 503.706 -1.55073 -1.45142 0
M  V30 5456 H 505.969 -0.647903 -0.692044 0
M  V30 5457 H 505.675 -1.93759 -2.93514 0
M  V30 5458 H 505.549 -0.389585 -3.75183 0
M  V30 5459 H 507.936 0.187357 -2.94505 0
M  V30 5460 H 508.017 -1.38999 -2.14739 0
M  V30 5461 H 507.661 -2.52572 -4.40647 0
M  V30 5462 H 507.591 -0.924464 -5.18422 0
M  V30 5463 H 510.082 -1.05694 -3.62819 0
M  V30 5464 H 510.395 -2.75466 -7.22038 0
M  V30 5465 H 508.74 -2.47085 -6.49595 0
M  V30 5466 H 511.931 -1.38989 -4.46989 0
M  V30 5467 H 512.104 -2.16385 -6.10804 0
M  V30 5468 N 505.51 1.54411 -0.315457 0
M  V30 5469 C 506.442 2.21527 0.588067 0
M  V30 5470 C 507.455 1.21263 1.08624 0
M  V30 5471 O 508.644 1.47777 1.00121 0
M  V30 5472 C 505.744 2.85963 1.81875 0
M  V30 5473 C 504.917 4.12291 1.46063 0
M  V30 5474 C 503.976 4.60396 2.54799 0
M  V30 5475 O 503.002 5.25265 2.19283 0
M  V30 5476 N 504.204 4.33935 3.85591 0
M  V30 5477 H 506.969 2.99697 0.013414 0
M  V30 5478 H 504.53 1.61308 -0.138295 0
M  V30 5479 H 506.522 3.15071 2.53993 0
M  V30 5480 H 505.092 2.11548 2.30144 0
M  V30 5481 H 504.312 3.90036 0.571445 0
M  V30 5482 H 505.6 4.9452 1.19695 0
M  V30 5483 H 504.998 3.81996 4.17248 0
M  V30 5484 H 503.555 4.67718 4.53964 0
M  V30 5485 N 506.988 0.0434614 1.5754 0
M  V30 5486 C 507.921 -0.968729 2.06618 0
M  V30 5487 C 508.899 -1.30868 0.965 0
M  V30 5488 O 510.083 -1.42288 1.23638 0
M  V30 5489 C 507.21 -2.28486 2.50023 0
M  V30 5490 C 506.256 -2.09851 3.71302 0
M  V30 5491 S 507.089 -1.38401 5.17306 0
M  V30 5492 C 508.245 -2.71354 5.64019 0
M  V30 5493 H 508.478 -0.551021 2.92149 0
M  V30 5494 H 506.011 -0.168607 1.53477 0
M  V30 5495 H 507.969 -3.04142 2.75695 0
M  V30 5496 H 506.63 -2.67387 1.64812 0
M  V30 5497 H 505.823 -3.07184 3.99567 0
M  V30 5498 H 505.425 -1.42336 3.45856 0
M  V30 5499 H 507.717 -3.67549 5.69134 0
M  V30 5500 H 508.66 -2.47734 6.6335 0
M  V30 5501 H 509.068 -2.77259 4.91719 0
M  V30 5502 N 508.466 -1.55915 -0.229846 0
M  V30 5503 C 509.882 -1.48721 -0.579166 0
M  V30 5504 C 510.082 -0.736976 -1.87539 0
M  V30 5505 O 509.138 -0.273258 -2.51017 0
M  V30 5506 C 510.451 -2.9323 -0.666082 0
M  V30 5507 C 511.999 -3.03701 -0.757267 0
M  V30 5508 C 512.474 -4.49552 -0.8756 0
M  V30 5509 N 513.965 -4.53561 -0.940035 0
M  V30 5510 C 514.7 -5.63683 -1.05116 0
M  V30 5511 N 514.196 -6.83576 -1.12675 0
M  V30 5512 N 515.989 -5.51516 -1.08565 0
M  V30 5513 H 508.14 -2.03123 0.620857 0
M  V30 5514 H 510.403 -0.922898 0.21671 0
M  V30 5515 H 510.109 -3.51032 0.21664 0
M  V30 5516 H 509.983 -3.44668 -1.53243 0
M  V30 5517 H 512.37 -2.45969 -1.63043 0
M  V30 5518 H 512.451 -2.55446 0.134583 0
M  V30 5519 H 512.095 -5.079 -0.00692351 0
M  V30 5520 H 512.025 -4.95506 -1.78274 0
M  V30 5521 H 514.516 -3.67215 -0.892269 0
M  V30 5522 H 514.829 -7.63251 -1.21109 0
M  V30 5523 H 513.174 -6.86303 -1.09603 0
M  V30 5524 H 516.365 -4.5678 -1.02319 0
M  V30 5525 H 516.538 -6.37372 -1.1688 0
M  V30 5526 N 509.944 0.496216 -1.49584 0
M  V30 5527 C 510.854 1.62352 -1.69349 0
M  V30 5528 C 511.87 1.64184 -0.576147 0
M  V30 5529 O 513.046 1.82517 -0.85144 0
M  V30 5530 C 510.111 2.98698 -1.76013 0
M  V30 5531 C 509.172 3.07454 -2.99617 0
M  V30 5532 C 508.405 4.37296 -3.05953 0
M  V30 5533 O 508.628 5.2637 -2.19752 0
M  V30 5534 O 507.562 4.51124 -3.9846 0
M  V30 5535 H 511.388 1.48606 -2.64859 0
M  V30 5536 H 508.973 0.673022 -1.33382 0
M  V30 5537 H 510.855 3.79725 -1.82721 0
M  V30 5538 H 509.53 3.12696 -0.836828 0
M  V30 5539 H 508.437 2.25597 -2.98424 0
M  V30 5540 H 509.77 2.98385 -3.91443 0
M  V30 5541 N 511.423 1.38739 0.74761 0
M  V30 5542 C 512.356 1.3083 1.86972 0
M  V30 5543 C 513.334 0.184229 1.61553 0
M  V30 5544 O 514.518 0.36256 1.8498 0
M  V30 5545 C 511.645 1.02854 3.22705 0
M  V30 5546 C 510.691 2.17281 3.67003 0
M  V30 5547 S 511.524 3.79468 3.77842 0
M  V30 5548 C 512.68 3.53692 5.16385 0
M  V30 5549 H 512.913 2.258 1.93395 0
M  V30 5550 H 510.446 1.24646 0.911199 0
M  V30 5551 H 512.404 0.87397 4.01089 0
M  V30 5552 H 511.065 0.0959295 3.13953 0
M  V30 5553 H 510.258 1.93267 4.65472 0
M  V30 5554 H 509.86 2.28876 2.9579 0
M  V30 5555 H 512.152 3.10176 6.02327 0
M  V30 5556 H 513.095 4.51576 5.45422 0
M  V30 5557 H 513.503 2.8807 4.85464 0
M  V30 5558 N 512.901 -0.976442 1.23707 0
M  V30 5559 C 513.811 -2.10359 1.03856 0
M  V30 5560 C 514.827 -1.73991 -0.0180919 0
M  V30 5561 O 516.003 -2.0061 0.178211 0
M  V30 5562 C 513.068 -3.40809 0.636387 0
M  V30 5563 C 512.129 -3.91179 1.76854 0
M  V30 5564 C 511.362 -5.15404 1.38546 0
M  V30 5565 O 511.585 -5.69754 0.27142 0
M  V30 5566 O 510.519 -5.5994 2.20797 0
M  V30 5567 H 514.345 -2.29997 1.98331 0
M  V30 5568 H 511.93 -1.08742 1.02448 0
M  V30 5569 H 513.812 -4.19269 0.423223 0
M  V30 5570 H 512.487 -3.22493 -0.279322 0
M  V30 5571 H 511.394 -3.13819 2.03638 0
M  V30 5572 H 512.727 -4.13958 2.6627 0
M  V30 5573 N 514.379 -1.04941 -1.1758 0
M  V30 5574 C 515.289 -0.658826 -2.25159 0
M  V30 5575 C 516.305 0.318941 -1.71052 0
M  V30 5576 O 517.481 0.171669 -2.00667 0
M  V30 5577 C 514.546 -0.0369522 -3.4668 0
M  V30 5578 C 513.607 -1.06484 -4.15884 0
M  V30 5579 C 512.84 -0.472551 -5.31604 0
M  V30 5580 O 513.063 0.718736 -5.65854 0
M  V30 5581 O 511.997 -1.20557 -5.89703 0
M  V30 5582 H 515.823 -1.55533 -2.60851 0
M  V30 5583 H 513.408 -0.820819 -1.24832 0
M  V30 5584 H 515.29 0.308784 -4.20267 0
M  V30 5585 H 513.965 0.833238 -3.12792 0
M  V30 5586 H 512.872 -1.46253 -3.44327 0
M  V30 5587 H 514.205 -1.9061 -4.53794 0
M  V30 5588 N 515.857 1.33968 -0.830081 0
M  V30 5589 C 516.805 2.31301 -0.245435 0
M  V30 5590 C 517.799 1.57734 0.617762 0
M  V30 5591 O 519.005 1.72674 0.508303 0
M  V30 5592 H 515.38 0.749552 -0.0606316 0
M  V30 5593 H 517.351 2.78129 -1.08105 0
M  V30 5594 C 516.1 3.42961 0.572084 0
M  V30 5595 H 515.423 3.99714 -0.0828118 0
M  V30 5596 H 516.863 4.13286 0.94715 0
M  V30 5597 C 515.322 2.88043 1.74737 0
M  V30 5598 O 515.852 2.83508 2.8458 0
M  V30 5599 N 514.058 2.44768 1.56642 0
M  V30 5600 H 513.605 2.48656 0.672901 0
M  V30 5601 H 513.563 2.08375 2.3543 0
M  V30 5602 N 517.335 0.585699 1.46312 0
M  V30 5603 C 518.582 0.0724211 2.0237 0
M  V30 5604 C 518.91 -1.28868 1.45683 0
M  V30 5605 O 518.165 -1.85853 0.612945 0
M  V30 5606 C 518.464 -0.0401312 3.57377 0
M  V30 5607 C 518.13 1.25376 4.33119 0
M  V30 5608 C 516.792 1.60824 4.5353 0
M  V30 5609 C 519.144 2.10987 4.76586 0
M  V30 5610 C 516.472 2.81676 5.14661 0
M  V30 5611 C 518.824 3.31068 5.39052 0
M  V30 5612 C 517.488 3.66794 5.5769 0
M  V30 5613 H 516.758 0.0265007 0.740526 0
M  V30 5614 H 519.405 0.762935 1.75646 0
M  V30 5615 H 517.71 -0.813791 3.83255 0
M  V30 5616 H 519.407 -0.453078 3.98432 0
M  V30 5617 H 515.997 0.967808 4.1753 0
M  V30 5618 H 520.181 1.84904 4.60569 0
M  V30 5619 H 515.437 3.0949 5.27282 0
M  V30 5620 H 519.611 3.97672 5.71691 0
M  V30 5621 H 517.238 4.60529 6.04828 0
M  V30 5622 N 518.813 -1.54241 0.323641 0
M  V30 5623 C 519.776 -2.22997 -0.529602 0
M  V30 5624 C 520.776 -1.22345 -1.04347 0
M  V30 5625 O 521.966 -1.46924 -0.935889 0
M  V30 5626 C 519.098 -2.93409 -1.73562 0
M  V30 5627 H 520.291 -2.99815 0.0714518 0
M  V30 5628 H 517.844 -1.56121 0.0747258 0
M  V30 5629 H 518.579 -2.20729 -2.37591 0
M  V30 5630 H 518.364 -3.67217 -1.37456 0
M  V30 5631 H 519.854 -3.45794 -2.34128 0
M  V30 5632 N 520.291 -0.0518155 -1.57515 0
M  V30 5633 C 521.537 0.622745 -1.93002 0
M  V30 5634 C 521.87 1.70456 -0.930499 0
M  V30 5635 O 521.145 1.94452 0.0434086 0
M  V30 5636 C 521.428 1.21824 -3.38867 0
M  V30 5637 C 521.281 0.144434 -4.49568 0
M  V30 5638 C 522.6 2.12968 -3.8514 0
M  V30 5639 H 519.719 0.22491 -0.701844 0
M  V30 5640 H 522.361 -0.113711 -1.89659 0
M  V30 5641 H 520.511 1.8459 -3.41846 0
M  V30 5642 H 522.183 -0.48753 -4.58717 0
M  V30 5643 H 520.426 -0.527424 -4.30582 0
M  V30 5644 H 521.097 0.601127 -5.48717 0
M  V30 5645 H 523.573 1.60163 -3.8404 0
M  V30 5646 H 522.449 2.51578 -4.87852 0
M  V30 5647 H 522.71 3.03004 -3.21934 0
M  V30 5648 N 521.769 1.56035 0.221574 0
M  V30 5649 C 522.679 1.95581 1.29558 0
M  V30 5650 C 523.695 0.859639 1.51282 0
M  V30 5651 O 524.871 1.16321 1.64413 0
M  V30 5652 C 521.936 2.26447 2.62531 0
M  V30 5653 C 520.997 3.49632 2.4911 0
M  V30 5654 C 520.23 3.79017 3.75742 0
M  V30 5655 O 520.453 3.10077 4.78757 0
M  V30 5656 O 519.387 4.72507 3.72855 0
M  V30 5657 H 523.213 2.8711 0.990035 0
M  V30 5658 H 520.798 1.43244 0.424434 0
M  V30 5659 H 522.68 2.47494 3.41064 0
M  V30 5660 H 521.355 1.38092 2.92766 0
M  V30 5661 H 520.262 3.33864 1.68777 0
M  V30 5662 H 521.595 4.3837 2.23814 0
M  V30 5663 N 523.247 -0.488276 1.49845 0
M  V30 5664 C 524.21 -1.57069 1.66919 0
M  V30 5665 C 525.21 -1.51445 0.540479 0
M  V30 5666 O 526.4 -1.5437 0.807188 0
M  V30 5667 C 523.532 -2.96718 1.67844 0
M  V30 5668 H 524.725 -1.43254 2.63474 0
M  V30 5669 H 522.278 -0.713435 1.39068 0
M  V30 5670 H 523.013 -3.15996 0.7292 0
M  V30 5671 H 522.798 -3.02208 2.49826 0
M  V30 5672 H 524.288 -3.75335 1.83066 0
M  V30 5673 N 524.725 -1.39134 -0.740242 0
M  V30 5674 C 525.688 -1.37217 -1.83587 0
M  V30 5675 C 526.688 -0.270221 -1.58513 0
M  V30 5676 O 527.878 -0.527843 -1.6601 0
M  V30 5677 C 525.01 -1.13959 -3.21288 0
M  V30 5678 H 526.203 -2.34705 -1.86691 0
M  V30 5679 H 523.756 -1.24622 -0.94335 0
M  V30 5680 H 524.491 -0.17131 -3.23847 0
M  V30 5681 H 524.276 -1.93754 -3.40884 0
M  V30 5682 H 525.766 -1.15346 -4.01354 0
M  V30 5683 N 526.204 0.969867 -1.24223 0
M  V30 5684 C 527.152 2.08535 -1.03034 0
M  V30 5685 C 528.146 1.69366 0.0340379 0
M  V30 5686 O 529.352 1.79597 -0.12034 0
M  V30 5687 H 525.727 0.682313 -0.316154 0
M  V30 5688 H 527.698 2.23569 -1.97635 0
M  V30 5689 C 526.447 3.4158 -0.649509 0
M  V30 5690 H 525.77 3.72177 -1.46028 0
M  V30 5691 H 527.21 4.20536 -0.540841 0
M  V30 5692 C 525.669 3.30703 0.643194 0
M  V30 5693 O 526.199 3.64443 1.68951 0
M  V30 5694 N 524.405 2.83841 0.623095 0
M  V30 5695 H 523.952 2.56583 -0.228719 0
M  V30 5696 H 523.91 2.76946 1.48823 0
M  V30 5697 N 527.682 1.05563 1.17022 0
M  V30 5698 C 528.912 0.787307 1.91011 0
M  V30 5699 C 529.32 -0.661256 1.77268 0
M  V30 5700 O 528.663 -1.46379 1.10991 0
M  V30 5701 C 528.725 1.09313 3.42478 0
M  V30 5702 C 528.389 2.53863 3.80004 0
M  V30 5703 C 529.386 3.52081 3.82538 0
M  V30 5704 C 527.071 2.88969 4.10855 0
M  V30 5705 C 529.065 4.83449 4.15399 0
M  V30 5706 C 526.752 4.2054 4.43384 0
M  V30 5707 C 527.75 5.17589 4.45635 0
M  V30 5708 O 527.438 6.46799 4.77395 0
M  V30 5709 H 527.17 0.285463 0.61277 0
M  V30 5710 H 529.724 1.41051 1.49311 0
M  V30 5711 H 527.954 0.412833 3.8449 0
M  V30 5712 H 529.643 0.810224 3.97731 0
M  V30 5713 H 530.409 3.26299 3.58823 0
M  V30 5714 H 526.288 2.1409 4.08272 0
M  V30 5715 H 529.832 5.59194 4.1707 0
M  V30 5716 H 525.729 4.46083 4.66563 0
M  V30 5717 H 526.497 6.51677 4.95237 0
M  V30 5718 N 529.16 -1.33526 0.837174 0
M  V30 5719 C 530.092 -2.28077 0.226579 0
M  V30 5720 C 531.105 -1.51666 -0.591717 0
M  V30 5721 O 532.294 -1.73511 -0.419064 0
M  V30 5722 C 529.394 -3.31597 -0.69978 0
M  V30 5723 C 528.567 -4.37329 0.0788067 0
M  V30 5724 C 527.626 -5.20526 -0.770637 0
M  V30 5725 O 526.652 -5.68811 -0.210453 0
M  V30 5726 N 527.854 -5.41639 -2.08825 0
M  V30 5727 H 530.619 -2.81115 1.03897 0
M  V30 5728 H 528.18 -1.46201 0.695476 0
M  V30 5729 H 530.172 -3.84158 -1.27298 0
M  V30 5730 H 528.742 -2.78848 -1.41288 0
M  V30 5731 H 527.962 -3.8529 0.833381 0
M  V30 5732 H 529.25 -5.05079 0.614238 0
M  V30 5733 H 528.648 -5.04108 -2.56693 0
M  V30 5734 H 527.205 -5.97263 -2.60998 0
M  V30 5735 N 530.638 -0.59345 -1.46 0
M  V30 5736 C 531.915 -0.0157933 -1.95594 0
M  V30 5737 C 532.295 1.44807 -1.53604 0
M  V30 5738 O 531.643 2.14342 -0.791824 0
M  V30 5739 C 531.853 -0.199081 -3.48432 0
M  V30 5740 C 533.201 -0.0724943 -4.24538 0
M  V30 5741 O 534.225 -0.128469 -3.55968 0
M  V30 5742 O 533.084 0.0542426 -5.46473 0
M  V30 5743 H 530.178 0.043749 -0.825842 0
M  V30 5744 H 532.724 -0.662522 -1.56233 0
M  V30 5745 H 531.496 -1.21631 -3.71916 0
M  V30 5746 H 531.119 0.483576 -3.94648 0
M  V30 5747 N 532.116 1.54067 -0.331816 0
M  V30 5748 C 533.344 2.05131 0.269996 0
M  V30 5749 C 533.759 1.20749 1.45138 0
M  V30 5750 O 533.116 0.240069 1.80914 0
M  V30 5751 C 533.167 3.54728 0.696456 0
M  V30 5752 O 532.888 4.35906 -0.43794 0
M  V30 5753 C 534.389 4.21916 1.36021 0
M  V30 5754 H 531.609 0.668807 0.0542042 0
M  V30 5755 H 534.153 1.98777 -0.4804 0
M  V30 5756 H 532.308 3.61342 1.39681 0
M  V30 5757 H 532.722 5.24404 -0.100334 0
M  V30 5758 H 534.196 5.28015 1.60947 0
M  V30 5759 H 534.673 3.73538 2.31011 0
M  V30 5760 H 535.279 4.19463 0.702212 0
M  V30 5761 N 533.594 0.0601682 1.57485 0
M  V30 5762 C 534.843 -0.611101 1.9222 0
M  V30 5763 C 535.156 -1.71469 0.941159 0
M  V30 5764 O 536.362 -2.44473 1.18089 0
M  V30 5765 C 534.818 -1.13832 3.41424 0
M  V30 5766 C 534.426 -0.0663596 4.47951 0
M  V30 5767 C 536.17 -1.78432 3.85178 0
M  V30 5768 C 534.077 -0.606965 5.88277 0
M  V30 5769 H 533.007 -0.232033 0.71741 0
M  V30 5770 H 535.658 0.130518 1.83035 0
M  V30 5771 H 534.04 -1.93254 3.45643 0
M  V30 5772 H 535.214 0.707682 4.55333 0
M  V30 5773 H 533.529 0.482715 4.13593 0
M  V30 5774 H 536.126 -2.1989 4.87394 0
M  V30 5775 H 536.469 -2.63966 3.21913 0
M  V30 5776 H 537.002 -1.05651 3.83514 0
M  V30 5777 H 533.741 0.21095 6.5516 0
M  V30 5778 H 533.261 -1.34879 5.84438 0
M  V30 5779 H 534.94 -1.08704 6.37803 0
M  V30 5780 N 535.072 -1.5615 -0.213296 0
M  V30 5781 C 536.32 -1.79191 -0.934612 0
M  V30 5782 C 536.641 -0.630112 -1.84539 0
M  V30 5783 O 535.911 0.35257 -1.92701 0
M  V30 5784 H 534.491 -0.660937 -0.348097 0
M  V30 5785 H 537.153 -1.93618 -0.22317 0
M  V30 5786 H 536.249 -2.71656 -1.53654 0
M  V30 5787 N 536.55 0.480323 -1.50102 0
M  V30 5788 C 537.966 0.813295 -1.37323 0
M  V30 5789 C 538.166 1.97027 -0.422206 0
M  V30 5790 O 537.222 2.5212 0.138563 0
M  V30 5791 C 538.535 1.13404 -2.78496 0
M  V30 5792 C 540.083 1.24104 -2.87345 0
M  V30 5793 C 540.558 1.59497 -4.29331 0
M  V30 5794 N 542.049 1.66507 -4.32238 0
M  V30 5795 C 542.784 1.95378 -5.39087 0
M  V30 5796 N 542.28 2.22333 -6.56155 0
M  V30 5797 N 544.073 1.96803 -5.26522 0
M  V30 5798 H 536.224 -0.282291 -2.10516 0
M  V30 5799 H 538.487 -0.063752 -0.945854 0
M  V30 5800 H 538.193 0.357064 -3.49883 0
M  V30 5801 H 538.067 2.07251 -3.15162 0
M  V30 5802 H 540.454 2.00871 -2.16183 0
M  V30 5803 H 540.535 0.282593 -2.54234 0
M  V30 5804 H 540.179 0.832736 -5.01027 0
M  V30 5805 H 540.109 2.56477 -4.59921 0
M  V30 5806 H 542.6 1.47753 -3.47818 0
M  V30 5807 H 542.913 2.43611 -7.33399 0
M  V30 5808 H 541.258 2.19745 -6.59346 0
M  V30 5809 H 544.449 1.75235 -4.34062 0
M  V30 5810 H 544.622 2.18969 -6.09883 0
M  V30 5811 N 538.028 1.39524 0.732853 0
M  V30 5812 C 538.958 1.41153 1.86005 0
M  V30 5813 C 539.939 0.274614 1.67869 0
M  V30 5814 O 541.124 0.480745 1.88155 0
M  V30 5815 C 538.254 1.25638 3.23778 0
M  V30 5816 C 537.208 2.36752 3.56556 0
M  V30 5817 C 536.534 2.06326 4.93289 0
M  V30 5818 C 537.834 3.79069 3.5931 0
M  V30 5819 H 539.528 2.35484 1.84899 0
M  V30 5820 H 537.074 1.13348 0.888162 0
M  V30 5821 H 539.027 1.25398 4.0231 0
M  V30 5822 H 537.751 0.277772 3.25417 0
M  V30 5823 H 536.41 2.36213 2.80355 0
M  V30 5824 H 536.058 1.06897 4.9151 0
M  V30 5825 H 535.758 2.80757 5.16187 0
M  V30 5826 H 537.282 2.07739 5.74175 0
M  V30 5827 H 538.696 3.81526 4.27914 0
M  V30 5828 H 537.093 4.52878 3.93728 0
M  V30 5829 H 538.163 4.09893 2.59068 0
M  V30 5830 N 539.506 -0.963266 1.24736 0
M  V30 5831 C 540.438 -2.06162 1.0015 0
M  V30 5832 C 541.451 -1.62771 -0.0305905 0
M  V30 5833 O 542.64 -1.77296 0.206966 0
M  V30 5834 C 539.74 -3.35333 0.490385 0
M  V30 5835 C 538.913 -4.07609 1.58663 0
M  V30 5836 C 537.972 -5.15052 1.0774 0
M  V30 5837 O 536.998 -5.4098 1.77002 0
M  V30 5838 N 538.2 -5.80436 -0.0858605 0
M  V30 5839 H 540.965 -2.27825 1.94719 0
M  V30 5840 H 538.526 -1.13121 1.15825 0
M  V30 5841 H 540.518 -4.04477 0.134371 0
M  V30 5842 H 539.088 -3.10507 -0.361155 0
M  V30 5843 H 538.308 -3.32681 2.11463 0
M  V30 5844 H 539.596 -4.52656 2.32336 0
M  V30 5845 H 538.994 -5.6178 -0.664806 0
M  V30 5846 H 537.551 -6.50674 -0.382981 0
M  V30 5847 N 540.985 -1.06182 -1.16461 0
M  V30 5848 C 542.262 -0.691364 -1.82974 0
M  V30 5849 C 542.642 0.827377 -1.9421 0
M  V30 5850 O 541.99 1.73723 -1.48434 0
M  V30 5851 C 542.2 -1.39199 -3.20038 0
M  V30 5852 C 543.548 -1.53647 -3.95825 0
M  V30 5853 O 544.572 -1.35181 -3.29552 0
M  V30 5854 O 543.431 -1.83932 -5.14618 0
M  V30 5855 H 540.525 -0.244605 -0.789998 0
M  V30 5856 H 543.071 -1.16203 -1.23673 0
M  V30 5857 H 541.843 -2.42766 -3.06888 0
M  V30 5858 H 541.466 -0.911335 -3.87015 0
M  V30 5859 N 542.463 1.3308 -0.844243 0
M  V30 5860 C 543.373 2.32876 -0.283922 0
M  V30 5861 C 544.389 1.63589 0.592846 0
M  V30 5862 O 545.565 1.95205 0.495693 0
M  V30 5863 C 542.63 3.42667 0.527283 0
M  V30 5864 C 541.691 4.27664 -0.374394 0
M  V30 5865 C 540.924 5.32212 0.39819 0
M  V30 5866 O 541.147 5.46635 1.62932 0
M  V30 5867 O 540.081 6.01458 -0.2306 0
M  V30 5868 H 543.907 2.82671 -1.11045 0
M  V30 5869 H 541.492 1.36518 -0.606903 0
M  V30 5870 H 543.374 4.09652 0.988078 0
M  V30 5871 H 542.049 2.95079 1.33078 0
M  V30 5872 H 540.956 3.63526 -0.883144 0
M  V30 5873 H 542.289 4.78749 -1.1428 0
M  V30 5874 N 543.941 0.601185 1.45683 0
M  V30 5875 C 545.19 0.0914953 2.01492 0
M  V30 5876 C 545.503 -1.28331 1.47616 0
M  V30 5877 O 546.709 -1.88537 1.95362 0
M  V30 5878 C 545.165 0.11291 3.59723 0
M  V30 5879 C 544.773 1.48717 4.22596 0
M  V30 5880 C 546.517 -0.341871 4.23121 0
M  V30 5881 C 544.424 1.46531 5.7296 0
M  V30 5882 H 543.354 0.0304365 0.753385 0
M  V30 5883 H 546.005 0.755568 1.67223 0
M  V30 5884 H 544.387 -0.617692 3.91153 0
M  V30 5885 H 545.561 2.23897 4.02749 0
M  V30 5886 H 543.876 1.88351 3.71366 0
M  V30 5887 H 546.473 -0.377304 5.33367 0
M  V30 5888 H 546.816 -1.36325 3.93346 0
M  V30 5889 H 547.349 0.335256 3.96385 0
M  V30 5890 H 544.088 2.46408 6.07423 0
M  V30 5891 H 543.608 0.755997 5.95017 0
M  V30 5892 H 545.287 1.18618 6.36034 0
M  V30 5893 N 545.419 -1.53889 0.339982 0
M  V30 5894 C 546.351 -2.22435 -0.55275 0
M  V30 5895 C 547.364 -1.22975 -1.06681 0
M  V30 5896 O 548.553 -1.49351 -0.977575 0
M  V30 5897 C 545.653 -2.8882 -1.77302 0
M  V30 5898 C 544.826 -4.14563 -1.39486 0
M  V30 5899 C 543.885 -4.64391 -2.47442 0
M  V30 5900 O 542.911 -5.28687 -2.10899 0
M  V30 5901 N 544.113 -4.40015 -3.78639 0
M  V30 5902 H 546.878 -2.9968 0.0342669 0
M  V30 5903 H 544.439 -1.61068 0.16394 0
M  V30 5904 H 546.431 -3.19072 -2.48948 0
M  V30 5905 H 545.001 -2.15182 -2.26749 0
M  V30 5906 H 544.221 -3.90896 -0.509321 0
M  V30 5907 H 545.509 -4.96362 -1.11813 0
M  V30 5908 H 544.907 -3.88586 -4.11118 0
M  V30 5909 H 543.464 -4.74881 -4.46465 0
M  V30 5910 N 546.897 -0.0685191 -1.57451 0
M  V30 5911 C 547.845 0.917577 -2.13736 0
M  V30 5912 C 548.839 1.31049 -1.07344 0
M  V30 5913 O 550.045 1.28811 -1.25728 0
M  V30 5914 H 546.42 0.313835 -0.683382 0
M  V30 5915 H 548.391 0.417903 -2.95459 0
M  V30 5916 C 547.14 2.17686 -2.71123 0
M  V30 5917 H 546.463 1.88336 -3.52661 0
M  V30 5918 H 547.903 2.84803 -3.14107 0
M  V30 5919 C 546.362 2.9332 -1.65726 0
M  V30 5920 O 546.892 3.86901 -1.08031 0
M  V30 5921 N 545.098 2.56367 -1.36837 0
M  V30 5922 H 544.645 1.80341 -1.83943 0
M  V30 5923 H 544.603 3.07276 -0.665501 0
M  V30 5924 N 548.375 1.56261 0.205012 0
M  V30 5925 C 549.308 1.88797 1.28183 0
M  V30 5926 C 550.286 0.747018 1.44424 0
M  V30 5927 O 551.47 0.997039 1.59973 0
M  V30 5928 C 548.597 2.10949 2.64987 0
M  V30 5929 C 547.643 3.33649 2.6567 0
M  V30 5930 S 548.476 4.89078 2.18088 0
M  V30 5931 C 549.632 5.14286 3.56736 0
M  V30 5932 H 549.865 2.79837 1.00393 0
M  V30 5933 H 547.398 1.48911 0.408042 0
M  V30 5934 H 549.356 2.24395 3.4374 0
M  V30 5935 H 548.017 1.20678 2.89993 0
M  V30 5936 H 547.21 3.46245 3.66239 0
M  V30 5937 H 546.812 3.19146 1.94992 0
M  V30 5938 H 549.104 5.04198 4.52537 0
M  V30 5939 H 550.047 6.16096 3.49043 0
M  V30 5940 H 550.455 4.41957 3.51189 0
M  V30 5941 N 549.853 -0.472356 1.50355 0
M  V30 5942 C 550.8 -1.57051 1.69126 0
M  V30 5943 C 551.77 -1.5733 0.532574 0
M  V30 5944 O 552.955 -1.7488 0.762994 0
M  V30 5945 C 550.095 -2.95033 1.79024 0
M  V30 5946 C 549.208 -3.04552 3.06386 0
M  V30 5947 C 548.343 -4.33441 3.07087 0
M  V30 5948 C 547.382 -4.36697 4.28908 0
M  V30 5949 N 546.519 -5.57056 4.27356 0
M  V30 5950 H 551.359 -1.40351 2.62879 0
M  V30 5951 H 548.896 -0.682403 1.30314 0
M  V30 5952 H 550.854 -3.75048 1.82744 0
M  V30 5953 H 549.484 -3.10371 0.887109 0
M  V30 5954 H 548.536 -2.17419 3.12143 0
M  V30 5955 H 549.848 -3.02818 3.96362 0
M  V30 5956 H 549.002 -5.21801 3.09529 0
M  V30 5957 H 547.741 -4.37782 2.14939 0
M  V30 5958 H 546.746 -3.46734 4.2668 0
M  V30 5959 H 547.971 -4.34049 5.22282 0
M  V30 5960 H 545.917 -5.62184 3.3806 0
M  V30 5961 H 545.834 -5.57058 5.111 0
M  V30 5962 H 547.102 -6.47545 4.33942 0
M  V30 5963 N 551.331 -1.39911 -0.725443 0
M  V30 5964 C 552.241 -1.41688 -1.8698 0
M  V30 5965 C 553.257 -0.310579 -1.71206 0
M  V30 5966 O 554.433 -0.55359 -1.93642 0
M  V30 5967 C 551.498 -1.26811 -3.22676 0
M  V30 5968 C 550.559 -2.47497 -3.50776 0
M  V30 5969 C 549.792 -2.3332 -4.79997 0
M  V30 5970 O 550.015 -1.34175 -5.54394 0
M  V30 5971 O 548.949 -3.22498 -5.08211 0
M  V30 5972 H 552.775 -2.38171 -1.88436 0
M  V30 5973 H 550.36 -1.21128 -0.874548 0
M  V30 5974 H 552.242 -1.20684 -4.03749 0
M  V30 5975 H 550.917 -0.334289 -3.21969 0
M  V30 5976 H 549.824 -2.59201 -2.69751 0
M  V30 5977 H 551.157 -3.39606 -3.5627 0
M  V30 5978 N 552.809 0.956637 -1.25245 0
M  V30 5979 C 553.719 2.0868 -1.0719 0
M  V30 5980 C 554.735 1.73997 -0.00959074 0
M  V30 5981 O 555.911 2.00301 -0.210104 0
M  V30 5982 C 552.976 3.39754 -0.690526 0
M  V30 5983 C 552.037 3.88316 -1.83055 0
M  V30 5984 C 551.27 5.13134 -1.46728 0
M  V30 5985 O 551.493 5.6925 -0.362029 0
M  V30 5986 O 550.427 5.56356 -2.29677 0
M  V30 5987 H 554.253 2.26813 -2.01965 0
M  V30 5988 H 551.838 1.07098 -1.04165 0
M  V30 5989 H 553.72 4.18543 -0.489871 0
M  V30 5990 H 552.395 3.22896 0.227981 0
M  V30 5991 H 551.302 3.1054 -2.08604 0
M  V30 5992 H 552.635 4.09669 -2.72822 0
M  V30 5993 N 554.287 1.06798 1.15896 0
M  V30 5994 C 555.22 0.627503 2.19403 0
M  V30 5995 C 556.198 -0.352352 1.58736 0
M  V30 5996 O 557.382 -0.260111 1.86697 0
M  V30 5997 C 554.509 -0.079356 3.38607 0
M  V30 5998 C 553.555 0.858057 4.17779 0
M  V30 5999 S 554.388 2.35605 4.80885 0
M  V30 6000 C 555.544 1.66083 6.03463 0
M  V30 6001 H 555.777 1.50441 2.56427 0
M  V30 6002 H 553.31 0.881427 1.26768 0
M  V30 6003 H 555.268 -0.48095 4.07673 0
M  V30 6004 H 553.929 -0.932524 2.99938 0
M  V30 6005 H 553.122 0.310108 5.03045 0
M  V30 6006 H 552.724 1.19977 3.54234 0
M  V30 6007 H 555.016 0.969337 6.7053 0
M  V30 6008 H 555.959 2.49159 6.62816 0
M  V30 6009 H 556.367 1.14122 5.52844 0
M  V30 6010 N 555.766 -1.3263 0.851289 0
M  V30 6011 C 556.729 -2.27247 0.298541 0
M  V30 6012 C 557.729 -1.51467 -0.539847 0
M  V30 6013 O 558.919 -1.7061 -0.351843 0
M  V30 6014 C 556.051 -3.35964 -0.578004 0
M  V30 6015 H 557.244 -2.7765 1.13359 0
M  V30 6016 H 554.797 -1.43245 0.625354 0
M  V30 6017 H 555.532 -2.90823 -1.435 0
M  V30 6018 H 555.317 -3.92094 0.0220539 0
M  V30 6019 H 556.807 -4.06472 -0.957626 0
M  V30 6020 N 557.244 -0.608902 -1.45362 0
M  V30 6021 C 558.66 -0.272659 -1.57254 0
M  V30 6022 C 558.86 1.22477 -1.60005 0
M  V30 6023 O 557.916 2.00785 -1.53106 0
M  V30 6024 C 559.229 -0.944991 -2.85465 0
M  V30 6025 C 560.777 -0.921033 -2.99142 0
M  V30 6026 C 561.252 -1.5734 -4.30126 0
M  V30 6027 N 562.743 -1.53895 -4.36887 0
M  V30 6028 C 563.478 -2.01286 -5.36909 0
M  V30 6029 N 562.974 -2.56768 -6.43461 0
M  V30 6030 N 564.767 -1.92046 -5.28275 0
M  V30 6031 H 556.918 -1.58117 -1.4182 0
M  V30 6032 H 559.181 -0.662437 -0.678146 0
M  V30 6033 H 558.887 -1.99941 -2.89338 0
M  V30 6034 H 558.761 -0.469079 -3.74272 0
M  V30 6035 H 561.148 0.124846 -2.94836 0
M  V30 6036 H 561.229 -1.43522 -2.11743 0
M  V30 6037 H 560.873 -2.61862 -4.35191 0
M  V30 6038 H 560.803 -1.03422 -5.16344 0
M  V30 6039 H 563.294 -1.13366 -3.60495 0
M  V30 6040 H 563.607 -2.9072 -7.16032 0
M  V30 6041 H 561.952 -2.60808 -6.44208 0
M  V30 6042 H 565.143 -1.48439 -4.43941 0
M  V30 6043 H 565.316 -2.29293 -6.06077 0
M  V30 6044 N 558.722 1.53707 -0.348139 0
M  V30 6045 C 559.672 2.2193 0.522592 0
M  V30 6046 C 560.656 1.20831 1.06248 0
M  V30 6047 O 561.848 1.46357 0.995415 0
M  V30 6048 C 558.977 2.99904 1.6707 0
M  V30 6049 C 558.063 4.08364 1.14454 0
M  V30 6050 N 558.454 5.04656 0.339958 0
M  V30 6051 C 556.752 4.22757 1.421 0
M  V30 6052 C 557.453 5.81675 0.0538806 0
M  V30 6053 N 556.429 5.39739 0.646776 0
M  V30 6054 H 560.231 2.93733 -0.099135 0
M  V30 6055 H 557.745 1.61656 -0.15524 0
M  V30 6056 H 559.742 3.47284 2.30651 0
M  V30 6057 H 558.402 2.29629 2.29566 0
M  V30 6058 H 559.413 5.17896 -0.0193552 0
M  V30 6059 H 556.09 3.63704 2.05002 0
M  V30 6060 H 557.48 6.69256 -0.595443 0
M  V30 6061 N 560.2 0.0768682 1.57412 0
M  V30 6062 C 561.13 -0.886026 2.16037 0
M  V30 6063 C 562.111 -1.30691 1.08876 0
M  V30 6064 O 563.296 -1.37705 1.36934 0
M  V30 6065 C 560.426 -2.1518 2.72608 0
M  V30 6066 C 559.38 -1.87015 3.8498 0
M  V30 6067 C 558.706 -3.20266 4.28175 0
M  V30 6068 C 560.006 -1.17143 5.08994 0
M  V30 6069 H 561.7 -0.397642 2.96748 0
M  V30 6070 H 559.246 -0.189823 1.42743 0
M  V30 6071 H 561.199 -2.82962 3.12266 0
M  V30 6072 H 559.923 -2.66269 1.89125 0
M  V30 6073 H 558.582 -1.21636 3.45833 0
M  V30 6074 H 558.23 -3.69207 3.41607 0
M  V30 6075 H 557.93 -3.0221 5.03927 0
M  V30 6076 H 559.454 -3.89237 4.70454 0
M  V30 6077 H 560.868 -1.75003 5.45937 0
M  V30 6078 H 559.265 -1.09328 5.90057 0
M  V30 6079 H 560.335 -0.151295 4.84664 0
M  V30 6080 N 561.678 -1.56367 -0.196722 0
M  V30 6081 C 563.094 -1.49916 -0.54749 0
M  V30 6082 C 563.294 -0.77659 -1.85934 0
M  V30 6083 O 562.35 -0.32644 -2.50381 0
M  V30 6084 C 563.663 -2.94577 -0.603734 0
M  V30 6085 C 565.211 -3.05239 -0.692677 0
M  V30 6086 C 565.686 -4.51308 -0.780046 0
M  V30 6087 N 567.177 -4.55453 -0.843616 0
M  V30 6088 C 567.912 -5.65786 -0.931358 0
M  V30 6089 N 567.408 -6.85812 -0.981503 0
M  V30 6090 N 569.201 -5.53695 -0.968421 0
M  V30 6091 H 561.352 -2.01761 0.663803 0
M  V30 6092 H 563.615 -0.918094 0.236238 0
M  V30 6093 H 563.321 -3.50494 0.29105 0
M  V30 6094 H 563.195 -3.47841 -1.45898 0
M  V30 6095 H 565.582 -2.49372 -1.57789 0
M  V30 6096 H 565.663 -2.55103 0.188736 0
M  V30 6097 H 565.307 -5.078 0.100811 0
M  V30 6098 H 565.237 -4.99176 -1.67724 0
M  V30 6099 H 567.728 -3.69025 -0.814176 0
M  V30 6100 H 568.041 -7.65648 -1.04892 0
M  V30 6101 H 566.386 -6.88474 -0.950208 0
M  V30 6102 H 569.577 -4.58848 -0.926072 0
M  V30 6103 H 569.75 -6.39708 -1.03334 0
M  V30 6104 N 563.156 0.464375 -1.50603 0
M  V30 6105 C 564.066 1.58723 -1.72754 0
M  V30 6106 C 565.082 1.62925 -0.610844 0
M  V30 6107 O 566.258 1.8067 -0.889963 0
M  V30 6108 C 563.323 2.94897 -1.82309 0
M  V30 6109 C 562.384 3.0103 -3.06071 0
M  V30 6110 C 561.617 4.30708 -3.1516 0
M  V30 6111 O 561.84 5.2159 -2.30868 0
M  V30 6112 O 560.774 4.42571 -4.0794 0
M  V30 6113 H 564.6 1.42954 -2.67951 0
M  V30 6114 H 562.185 0.644579 -1.3478 0
M  V30 6115 H 564.067 3.75764 -1.90735 0
M  V30 6116 H 562.742 3.10851 -0.902967 0
M  V30 6117 H 561.649 2.19217 -3.03142 0
M  V30 6118 H 562.982 2.90014 -3.97684 0
M  V30 6119 N 564.634 1.40294 0.718013 0
M  V30 6120 C 565.864 1.41544 1.50495 0
M  V30 6121 C 566.272 0.0127877 1.89196 0
M  V30 6122 O 565.615 -0.97305 1.55812 0
M  V30 6123 C 565.677 2.24021 2.81167 0
M  V30 6124 C 565.341 3.72463 2.64803 0
M  V30 6125 C 566.338 4.65154 2.32223 0
M  V30 6126 C 564.023 4.1625 2.81143 0
M  V30 6127 C 566.017 5.99618 2.16189 0
M  V30 6128 C 563.704 5.50784 2.64727 0
M  V30 6129 C 564.702 6.42283 2.32297 0
M  V30 6130 O 564.39 7.74337 2.16004 0
M  V30 6131 H 564.122 0.484819 0.471091 0
M  V30 6132 H 566.676 1.84948 0.893488 0
M  V30 6133 H 564.906 1.75393 3.44636 0
M  V30 6134 H 566.595 2.17243 3.42871 0
M  V30 6135 H 567.361 4.32622 2.19234 0
M  V30 6136 H 563.24 3.45352 3.05373 0
M  V30 6137 H 566.784 6.71 1.90799 0
M  V30 6138 H 562.681 5.82902 2.773 0
M  V30 6139 H 563.449 7.85244 2.30942 0
M  V30 6140 N 566.112 -0.949982 1.2575 0
M  V30 6141 C 567.044 -2.05088 1.02331 0
M  V30 6142 C 568.057 -1.62795 -0.0133247 0
M  V30 6143 O 569.246 -1.77067 0.225759 0
M  V30 6144 C 566.346 -3.34794 0.525924 0
M  V30 6145 C 565.519 -4.05903 1.62978 0
M  V30 6146 C 564.578 -5.1388 1.13196 0
M  V30 6147 O 563.604 -5.39072 1.82729 0
M  V30 6148 N 564.806 -5.80495 -0.0242926 0
M  V30 6149 H 567.571 -2.25747 1.97125 0
M  V30 6150 H 565.132 -1.11886 1.17018 0
M  V30 6151 H 567.124 -4.04312 0.177263 0
M  V30 6152 H 565.694 -3.10872 -0.328202 0
M  V30 6153 H 564.914 -3.3042 2.1498 0
M  V30 6154 H 566.202 -4.50166 2.37124 0
M  V30 6155 H 565.6 -5.62454 -0.605184 0
M  V30 6156 H 564.157 -6.51043 -0.313947 0
M  V30 6157 N 567.59 -1.07411 -1.15328 0
M  V30 6158 C 568.867 -0.710732 -1.82231 0
M  V30 6159 C 569.247 0.806732 -1.95077 0
M  V30 6160 O 568.595 1.72139 -1.50268 0
M  V30 6161 C 568.805 -1.42586 -3.18544 0
M  V30 6162 C 570.153 -1.57836 -3.94174 0
M  V30 6163 O 571.177 -1.38669 -3.281 0
M  V30 6164 O 570.036 -1.8938 -5.12638 0
M  V30 6165 H 567.13 -0.25297 -0.78736 0
M  V30 6166 H 569.676 -1.17508 -1.22434 0
M  V30 6167 H 568.448 -2.46008 -3.04296 0
M  V30 6168 H 568.071 -0.952332 -3.86026 0
M  V30 6169 N 569.068 1.32177 -0.85831 0
M  V30 6170 C 569.998 2.31282 -0.321041 0
M  V30 6171 C 570.979 1.59841 0.581786 0
M  V30 6172 O 572.164 1.87619 0.501262 0
M  V30 6173 C 569.294 3.4385 0.48832 0
M  V30 6174 C 568.248 4.26799 -0.320391 0
M  V30 6175 C 567.574 5.31164 0.613934 0
M  V30 6176 C 568.874 4.98829 -1.54813 0
M  V30 6177 H 570.568 2.76469 -1.14915 0
M  V30 6178 H 568.114 1.32916 -0.554028 0
M  V30 6179 H 570.067 4.12224 0.874626 0
M  V30 6180 H 568.791 2.97401 1.34983 0
M  V30 6181 H 567.45 3.60077 -0.688497 0
M  V30 6182 H 567.098 4.80967 1.47239 0
M  V30 6183 H 566.798 5.8755 0.0768097 0
M  V30 6184 H 568.322 6.024 0.997336 0
M  V30 6185 H 569.736 5.59864 -1.23392 0
M  V30 6186 H 568.133 5.64957 -2.02346 0
M  V30 6187 H 569.203 4.26483 -2.30739 0
M  V30 6188 N 570.547 0.616602 1.45037 0
M  V30 6189 C 571.477 -0.0840787 2.33349 0
M  V30 6190 C 572.458 -0.849641 1.4736 0
M  V30 6191 O 573.643 -0.818407 1.76113 0
M  V30 6192 C 570.773 -1.07604 3.3021 0
M  V30 6193 C 569.727 -0.423096 4.25904 0
M  V30 6194 C 569.053 -1.52394 5.12523 0
M  V30 6195 C 570.353 0.661457 5.18095 0
M  V30 6196 H 572.047 0.653333 2.92185 0
M  V30 6197 H 569.593 0.315634 1.40498 0
M  V30 6198 H 571.546 -1.57485 3.90866 0
M  V30 6199 H 570.27 -1.84416 2.69552 0
M  V30 6200 H 568.929 0.05493 3.66559 0
M  V30 6201 H 568.577 -2.28257 4.48227 0
M  V30 6202 H 568.277 -1.09251 5.77354 0
M  V30 6203 H 569.801 -2.02485 5.76049 0
M  V30 6204 H 571.215 0.246353 5.7277 0
M  V30 6205 H 569.612 1.01517 5.91451 0
M  V30 6206 H 570.682 1.53446 4.59981 0
M  V30 6207 N 572.025 -1.5352 0.356285 0
M  V30 6208 C 572.973 -2.26945 -0.50978 0
M  V30 6209 C 573.967 -1.29569 -1.09125 0
M  V30 6210 O 575.173 -1.47231 -1.03552 0
M  V30 6211 H 571.548 -0.729368 -0.183102 0
M  V30 6212 H 573.519 -2.98111 0.131374 0
M  V30 6213 C 572.268 -3.06466 -1.64237 0
M  V30 6214 H 571.591 -3.81233 -1.20423 0
M  V30 6215 H 573.031 -3.61035 -2.22327 0
M  V30 6216 C 571.49 -2.16737 -2.57928 0
M  V30 6217 O 572.02 -1.77195 -3.60507 0
M  V30 6218 N 570.226 -1.81558 -2.26903 0
M  V30 6219 H 569.773 -2.13913 -1.43524 0
M  V30 6220 H 569.731 -1.21806 -2.89846 0
M  V30 6221 N 573.503 -0.0852151 -1.57369 0
M  V30 6222 C 574.749 0.581666 -1.94279 0
M  V30 6223 C 575.082 1.68444 -0.966446 0
M  V30 6224 O 574.357 1.945 0.00215277 0
M  V30 6225 C 574.64 1.14609 -3.41375 0
M  V30 6226 C 574.493 0.0490414 -4.49773 0
M  V30 6227 C 575.812 2.04751 -3.8957 0
M  V30 6228 H 572.931 0.209972 -0.706456 0
M  V30 6229 H 575.573 -0.153915 -1.89376 0
M  V30 6230 H 573.723 1.77297 -3.45685 0
M  V30 6231 H 575.395 -0.584721 -4.57579 0
M  V30 6232 H 573.638 -0.618638 -4.29366 0
M  V30 6233 H 574.309 0.484601 -5.49869 0
M  V30 6234 H 576.785 1.51981 -3.87351 0
M  V30 6235 H 575.661 2.41173 -4.93079 0
M  V30 6236 H 575.922 2.96107 -3.28288 0
M  V30 6237 N 574.981 1.5647 0.188427 0
M  V30 6238 C 575.928 1.95073 1.23349 0
M  V30 6239 C 576.898 0.812238 1.44886 0
M  V30 6240 O 578.083 1.07095 1.57909 0
M  V30 6241 C 575.223 2.30124 2.57171 0
M  V30 6242 C 574.336 3.57069 2.43157 0
M  V30 6243 C 573.471 3.81411 3.69729 0
M  V30 6244 C 572.51 5.0176 3.50575 0
M  V30 6245 N 571.647 5.22321 4.69175 0
M  V30 6246 H 576.487 2.84171 0.89728 0
M  V30 6247 H 574.024 1.40623 0.431683 0
M  V30 6248 H 575.982 2.48463 3.35145 0
M  V30 6249 H 574.612 1.44159 2.88822 0
M  V30 6250 H 573.664 3.4674 1.56447 0
M  V30 6251 H 574.976 4.452 2.24942 0
M  V30 6252 H 574.13 4.00026 4.56141 0
M  V30 6253 H 572.869 2.91624 3.90905 0
M  V30 6254 H 571.874 4.83061 2.62549 0
M  V30 6255 H 573.099 5.93063 3.30837 0
M  V30 6256 H 571.045 4.35483 4.90602 0
M  V30 6257 H 570.962 6.04643 4.53809 0
M  V30 6258 H 572.23 5.45401 5.56919 0
M  V30 6259 N 576.459 -0.456382 1.50847 0
M  V30 6260 C 577.392 -1.57177 1.65441 0
M  V30 6261 C 578.37 -1.54649 0.502224 0
M  V30 6262 O 579.554 -1.74057 0.723633 0
M  V30 6263 C 576.681 -2.95763 1.65052 0
M  V30 6264 C 575.727 -3.16389 2.86007 0
M  V30 6265 S 576.56 -2.94716 4.47105 0
M  V30 6266 C 577.716 -4.35617 4.49432 0
M  V30 6267 H 577.949 -1.44561 2.59787 0
M  V30 6268 H 575.482 -0.644758 1.40293 0
M  V30 6269 H 577.44 -3.75654 1.65512 0
M  V30 6270 H 576.101 -3.05756 0.719153 0
M  V30 6271 H 575.294 -4.17667 2.82081 0
M  V30 6272 H 574.896 -2.44293 2.8319 0
M  V30 6273 H 577.188 -5.28503 4.239 0
M  V30 6274 H 578.131 -4.44582 5.51137 0
M  V30 6275 H 578.539 -4.18382 3.78967 0
M  V30 6276 N 577.937 -1.40673 -0.710563 0
M  V30 6277 C 578.9 -1.4108 -1.80635 0
M  V30 6278 C 579.9 -0.303783 -1.57904 0
M  V30 6279 O 581.09 -0.562937 -1.64853 0
M  V30 6280 C 578.222 -1.20748 -3.18799 0
M  V30 6281 H 579.415 -2.38612 -1.81671 0
M  V30 6282 H 576.968 -1.26595 -0.916704 0
M  V30 6283 H 577.703 -0.239964 -3.23411 0
M  V30 6284 H 577.488 -2.00941 -3.36698 0
M  V30 6285 H 578.978 -1.23833 -3.98817 0
M  V30 6286 N 579.415 0.9433 -1.26252 0
M  V30 6287 C 580.345 2.05902 -1.10122 0
M  V30 6288 C 581.326 1.70099 -0.00700552 0
M  V30 6289 O 582.511 1.93377 -0.178641 0
M  V30 6290 C 579.641 3.39516 -0.731175 0
M  V30 6291 C 578.595 3.89372 -1.77688 0
M  V30 6292 C 577.921 5.19613 -1.26122 0
M  V30 6293 C 579.221 4.14489 -3.17799 0
M  V30 6294 H 580.915 2.19655 -2.03451 0
M  V30 6295 H 578.461 1.05548 -0.979576 0
M  V30 6296 H 580.414 4.17031 -0.605215 0
M  V30 6297 H 579.138 3.25733 0.23782 0
M  V30 6298 H 577.797 3.14036 -1.89148 0
M  V30 6299 H 577.445 5.02208 -0.282128 0
M  V30 6300 H 577.145 5.53939 -1.96023 0
M  V30 6301 H 578.669 5.99713 -1.14789 0
M  V30 6302 H 580.083 4.82625 -3.09428 0
M  V30 6303 H 578.48 4.60094 -3.85271 0
M  V30 6304 H 579.55 3.20347 -3.64014 0
M  V30 6305 N 580.893 1.08022 1.14757 0
M  V30 6306 C 582.17 0.720386 1.81851 0
M  V30 6307 C 582.55 -0.796375 1.95502 0
M  V30 6308 O 581.898 -1.71339 1.51179 0
M  V30 6309 C 582.108 1.44273 3.17783 0
M  V30 6310 C 583.456 1.59925 3.93331 0
M  V30 6311 O 584.48 1.40407 3.2736 0
M  V30 6312 O 583.339 1.92096 5.11626 0
M  V30 6313 H 580.433 0.257142 0.786007 0
M  V30 6314 H 582.979 1.18155 1.21809 0
M  V30 6315 H 581.751 2.47618 3.02987 0
M  V30 6316 H 581.374 0.97279 3.85516 0
M  V30 6317 N 582.371 -1.3172 0.865308 0
M  V30 6318 C 583.62 -1.96145 0.470098 0
M  V30 6319 C 583.933 -1.69182 -0.981674 0
M  V30 6320 O 585.139 -2.27431 -1.48281 0
M  V30 6321 C 583.595 -3.51129 0.789732 0
M  V30 6322 C 583.203 -3.86938 2.25795 0
M  V30 6323 C 584.947 -4.2197 0.462765 0
M  V30 6324 C 582.854 -5.35012 2.52024 0
M  V30 6325 H 581.784 -0.734105 0.172065 0
M  V30 6326 H 584.435 -1.49959 1.05757 0
M  V30 6327 H 582.817 -3.95781 0.131571 0
M  V30 6328 H 583.991 -3.5326 2.95879 0
M  V30 6329 H 582.306 -3.29149 2.55049 0
M  V30 6330 H 584.903 -5.30904 0.636019 0
M  V30 6331 H 585.246 -4.12005 -0.59645 0
M  V30 6332 H 585.779 -3.82936 1.07727 0
M  V30 6333 H 582.518 -5.50008 3.56611 0
M  V30 6334 H 582.038 -5.70058 1.8653 0
M  V30 6335 H 583.717 -6.0222 2.36515 0
M  V30 6336 N 583.85 -0.624285 -1.44708 0
M  V30 6337 C 584.76 0.0861083 -2.34442 0
M  V30 6338 C 585.776 0.84291 -1.5222 0
M  V30 6339 O 586.952 0.796723 -1.84971 0
M  V30 6340 C 584.017 1.05999 -3.30099 0
M  V30 6341 C 583.077 0.303316 -4.28227 0
M  V30 6342 C 582.311 1.23081 -5.19314 0
M  V30 6343 O 582.534 2.46929 -5.14181 0
M  V30 6344 O 581.468 0.71883 -5.97592 0
M  V30 6345 H 585.293 -0.651756 -2.96624 0
M  V30 6346 H 582.879 -0.384493 -1.44368 0
M  V30 6347 H 584.76 1.62046 -3.88997 0
M  V30 6348 H 583.436 1.77859 -2.70459 0
M  V30 6349 H 582.343 -0.300033 -3.72895 0
M  V30 6350 H 583.676 -0.375123 -4.90768 0
M  V30 6351 N 585.328 1.53329 -0.364422 0
M  V30 6352 C 586.577 2.00421 0.226747 0
M  V30 6353 C 586.89 1.25581 1.49963 0
M  V30 6354 O 588.096 1.63256 2.16933 0
M  V30 6355 C 586.552 3.57017 0.454618 0
M  V30 6356 C 586.16 4.40734 -0.803568 0
M  V30 6357 C 587.904 4.12468 1.00351 0
M  V30 6358 C 585.811 5.8888 -0.545345 0
M  V30 6359 H 584.741 0.748787 0.0885082 0
M  V30 6360 H 587.392 1.7703 -0.482983 0
M  V30 6361 H 585.774 3.76558 1.22558 0
M  V30 6362 H 586.948 4.32967 -1.57723 0
M  V30 6363 H 585.263 3.96381 -1.27559 0
M  V30 6364 H 587.86 5.20783 1.212 0
M  V30 6365 H 588.203 3.6699 1.9653 0
M  V30 6366 H 588.736 3.96721 0.29274 0
M  V30 6367 H 585.475 6.38633 -1.47743 0
M  V30 6368 H 584.995 5.99499 0.189842 0
M  V30 6369 H 586.674 6.46776 -0.170425 0
M  V30 6370 N 586.806 0.0935595 1.57322 0
M  V30 6371 C 587.769 -0.851426 2.12799 0
M  V30 6372 C 588.769 -1.21187 1.0569 0
M  V30 6373 O 589.959 -1.14156 1.31583 0
M  V30 6374 C 587.091 -2.14779 2.64731 0
M  V30 6375 H 588.284 -0.369733 2.97612 0
M  V30 6376 H 585.837 -0.155417 1.55525 0
M  V30 6377 H 586.572 -2.67437 1.83434 0
M  V30 6378 H 586.357 -1.89907 3.43042 0
M  V30 6379 H 587.847 -2.82383 3.07651 0
M  V30 6380 N 588.284 -1.56567 -0.180126 0
M  V30 6381 C 589.512 -1.85618 -0.913972 0
M  V30 6382 C 589.927 -0.677892 -1.7621 0
M  V30 6383 O 589.284 0.353171 -1.7905 0
M  V30 6384 C 589.335 -3.13619 -1.79793 0
M  V30 6385 O 589.056 -4.26906 -0.98402 0
M  V30 6386 C 590.557 -3.55954 -2.64219 0
M  V30 6387 H 587.777 -0.616043 -0.265954 0
M  V30 6388 H 590.321 -2.03681 -0.182872 0
M  V30 6389 H 588.476 -2.97409 -2.48247 0
M  V30 6390 H 588.89 -4.9989 -1.58776 0
M  V30 6391 H 590.364 -4.48444 -3.21873 0
M  V30 6392 H 590.841 -2.79653 -3.38661 0
M  V30 6393 H 591.447 -3.74746 -2.01111 0
M  V30 6394 N 589.762 0.448376 -1.51087 0
M  V30 6395 C 590.992 1.21965 -1.66757 0
M  V30 6396 C 591.4 1.85748 -0.359753 0
M  V30 6397 O 590.743 1.71022 0.670604 0
M  V30 6398 C 590.805 2.35284 -2.71812 0
M  V30 6399 C 590.469 1.91957 -4.1473 0
M  V30 6400 C 591.466 1.42921 -4.9987 0
M  V30 6401 C 589.151 1.99985 -4.60772 0
M  V30 6402 C 591.145 1.02485 -6.29107 0
M  V30 6403 C 588.832 1.5916 -5.90009 0
M  V30 6404 C 589.83 1.10491 -6.74004 0
M  V30 6405 O 589.518 0.702413 -8.00825 0
M  V30 6406 H 589.25 0.374125 -0.563034 0
M  V30 6407 H 591.804 0.538927 -1.98204 0
M  V30 6408 H 590.034 3.06599 -2.35657 0
M  V30 6409 H 591.723 2.97184 -2.76472 0
M  V30 6410 H 592.489 1.36123 -4.65506 0
M  V30 6411 H 588.368 2.36814 -3.95525 0
M  V30 6412 H 591.912 0.644271 -6.94619 0
M  V30 6413 H 587.809 1.65626 -6.2389 0
M  V30 6414 H 588.577 0.829248 -8.14288 0
M  V30 6415 N 591.24 1.41047 0.703093 0
M  V30 6416 C 592.656 1.23351 1.01275 0
M  V30 6417 C 592.856 0.11754 2.01157 0
M  V30 6418 O 591.912 -0.520518 2.47077 0
M  V30 6419 C 593.225 2.58001 1.54454 0
M  V30 6420 C 594.773 2.65119 1.66376 0
M  V30 6421 C 595.248 4.00067 2.22958 0
M  V30 6422 N 596.739 4.01875 2.30328 0
M  V30 6423 C 597.474 5.03087 2.75119 0
M  V30 6424 N 596.97 6.14692 3.19571 0
M  V30 6425 N 598.763 4.90451 2.74616 0
M  V30 6426 H 590.914 2.1236 0.0412686 0
M  V30 6427 H 593.177 0.944543 0.08089 0
M  V30 6428 H 592.883 3.40378 0.88521 0
M  V30 6429 H 592.757 2.79962 2.52786 0
M  V30 6430 H 595.144 1.83106 2.31422 0
M  V30 6431 H 595.225 2.46975 0.666089 0
M  V30 6432 H 594.869 4.82526 1.58529 0
M  V30 6433 H 594.799 4.15547 3.23462 0
M  V30 6434 H 597.29 3.21291 1.98949 0
M  V30 6435 H 597.603 6.87799 3.52352 0
M  V30 6436 H 595.948 6.18239 3.17498 0
M  V30 6437 H 599.139 4.0235 2.39233 0
M  V30 6438 H 599.312 5.6947 3.09206 0
M  V30 6439 N 592.718 -0.936591 1.26751 0
M  V30 6440 C 593.665 -2.03597 1.08706 0
M  V30 6441 C 594.635 -1.66097 -0.00926542 0
M  V30 6442 O 595.82 -1.90199 0.151377 0
M  V30 6443 C 592.96 -3.3727 0.73094 0
M  V30 6444 C 592.073 -3.87778 1.90399 0
M  V30 6445 C 591.208 -5.09859 1.49056 0
M  V30 6446 C 590.247 -5.5264 2.63164 0
M  V30 6447 N 589.384 -6.65921 2.22471 0
M  V30 6448 H 594.224 -2.18364 2.02784 0
M  V30 6449 H 591.761 -1.06985 1.00958 0
M  V30 6450 H 593.719 -4.14128 0.505328 0
M  V30 6451 H 592.349 -3.22337 -0.172868 0
M  V30 6452 H 591.401 -3.07279 2.2424 0
M  V30 6453 H 592.713 -4.15464 2.76028 0
M  V30 6454 H 591.867 -5.9419 1.22567 0
M  V30 6455 H 590.606 -4.8393 0.60524 0
M  V30 6456 H 589.611 -4.66863 2.90377 0
M  V30 6457 H 590.836 -5.80568 3.52303 0
M  V30 6458 H 588.782 -6.41667 1.36379 0
M  V30 6459 H 588.699 -6.93216 3.01641 0
M  V30 6460 H 589.967 -7.53616 1.99205 0
M  V30 6461 N 594.196 -1.08629 -1.14182 0
M  V30 6462 C 595.126 -0.740003 -2.21464 0
M  V30 6463 C 596.107 0.278591 -1.67803 0
M  V30 6464 O 597.292 0.148461 -1.93632 0
M  V30 6465 C 594.422 -0.150952 -3.46972 0
M  V30 6466 C 593.376 -1.09815 -4.13672 0
M  V30 6467 C 592.702 -0.3712 -5.3341 0
M  V30 6468 C 594.002 -2.43722 -4.61949 0
M  V30 6469 H 595.696 -1.63697 -2.50686 0
M  V30 6470 H 593.242 -0.788526 -1.20492 0
M  V30 6471 H 595.195 0.103325 -4.21273 0
M  V30 6472 H 593.919 0.781164 -3.1712 0
M  V30 6473 H 592.578 -1.33756 -3.41328 0
M  V30 6474 H 592.226 0.564792 -4.99819 0
M  V30 6475 H 591.926 -1.00267 -5.78982 0
M  V30 6476 H 593.45 -0.12503 -6.10472 0
M  V30 6477 H 594.864 -2.24034 -5.27714 0
M  V30 6478 H 593.261 -3.02582 -5.18232 0
M  V30 6479 H 594.331 -3.05082 -3.76899 0
M  V30 6480 N 595.674 1.31259 -0.872281 0
M  V30 6481 C 596.604 2.30929 -0.345554 0
M  V30 6482 C 597.585 1.60449 0.5648 0
M  V30 6483 O 598.77 1.8814 0.481335 0
M  V30 6484 C 595.9 3.44348 0.451823 0
M  V30 6485 C 594.854 4.26435 -0.365641 0
M  V30 6486 C 594.18 5.31785 0.557562 0
M  V30 6487 C 595.48 4.97159 -1.60095 0
M  V30 6488 H 597.174 2.75234 -1.17841 0
M  V30 6489 H 594.72 1.3232 -0.568094 0
M  V30 6490 H 596.673 4.13128 0.830854 0
M  V30 6491 H 595.397 2.98816 1.31821 0
M  V30 6492 H 594.056 3.59326 -0.726649 0
M  V30 6493 H 593.704 4.82502 1.4213 0
M  V30 6494 H 593.404 5.87598 0.0144878 0
M  V30 6495 H 594.928 6.03424 0.933387 0
M  V30 6496 H 596.342 5.58523 -1.29323 0
M  V30 6497 H 594.739 5.62779 -2.08327 0
M  V30 6498 H 595.809 4.24012 -2.35249 0
M  V30 6499 N 597.152 0.631951 1.44375 0
M  V30 6500 C 598.062 -0.073674 2.34484 0
M  V30 6501 C 599.078 -0.834825 1.52665 0
M  V30 6502 O 600.254 -0.786902 1.85391 0
M  V30 6503 C 597.319 -1.04247 3.30656 0
M  V30 6504 C 596.38 -0.280602 4.28382 0
M  V30 6505 C 595.613 -1.20325 5.19959 0
M  V30 6506 O 595.836 -2.44199 5.15484 0
M  V30 6507 O 594.77 -0.687128 5.97965 0
M  V30 6508 H 598.596 0.667477 2.96274 0
M  V30 6509 H 596.181 0.392144 1.44162 0
M  V30 6510 H 598.063 -1.59981 3.89851 0
M  V30 6511 H 596.738 -1.76422 2.71398 0
M  V30 6512 H 595.645 0.319804 3.72731 0
M  V30 6513 H 596.978 0.401144 4.90563 0
M  V30 6514 N 598.631 -1.53133 0.372548 0
M  V30 6515 C 599.879 -2.00958 -0.214534 0
M  V30 6516 C 600.2 -1.26135 -1.48711 0
M  V30 6517 O 599.47 -0.376597 -1.92246 0
M  V30 6518 H 598.05 -0.742456 -0.0822664 0
M  V30 6519 H 600.712 -1.88367 0.500385 0
M  V30 6520 H 599.808 -3.09031 -0.436605 0
M  V30 6521 N 600.109 -0.101901 -1.5727 0
M  V30 6522 C 601.019 0.868647 -2.17926 0
M  V30 6523 C 602.035 1.30527 -1.1506 0
M  V30 6524 O 603.211 1.37178 -1.47459 0
M  V30 6525 C 600.276 2.10727 -2.75309 0
M  V30 6526 C 599.337 1.7242 -3.93154 0
M  V30 6527 C 598.57 2.90377 -4.47791 0
M  V30 6528 O 598.793 4.05305 -4.01353 0
M  V30 6529 O 597.727 2.6845 -5.38719 0
M  V30 6530 H 601.553 0.382544 -3.01281 0
M  V30 6531 H 599.138 0.122812 -1.48894 0
M  V30 6532 H 601.02 2.83303 -3.11958 0
M  V30 6533 H 599.695 2.58376 -1.94996 0
M  V30 6534 H 598.602 0.970039 -3.61305 0
M  V30 6535 H 599.935 1.29528 -4.74851 0
M  V30 6536 N 601.587 1.56661 0.17182 0
M  V30 6537 C 602.497 1.99604 1.2327 0
M  V30 6538 C 603.513 0.907333 1.4847 0
M  V30 6539 O 604.689 1.21492 1.60629 0
M  V30 6540 C 601.754 2.34685 2.55194 0
M  V30 6541 C 600.815 3.57381 2.3786 0
M  V30 6542 C 600.048 3.90779 3.63494 0
M  V30 6543 O 600.271 3.25152 4.6865 0
M  V30 6544 O 599.205 4.84129 3.57634 0
M  V30 6545 H 603.031 2.90114 0.898192 0
M  V30 6546 H 600.616 1.44522 0.378647 0
M  V30 6547 H 602.498 2.5822 3.33017 0
M  V30 6548 H 601.173 1.47336 2.88225 0
M  V30 6549 H 600.08 3.39064 1.5807 0
M  V30 6550 H 601.413 4.45268 2.09754 0
M  V30 6551 N 603.065 -0.440357 1.51323 0
M  V30 6552 C 604.29 -1.21716 1.67928 0
M  V30 6553 C 604.715 -1.84328 0.374826 0
M  V30 6554 O 604.073 -1.68675 -0.664706 0
M  V30 6555 C 604.121 -2.27914 2.79442 0
M  V30 6556 O 603.225 -3.33325 2.42834 0
M  V30 6557 H 602.566 -0.35674 0.560029 0
M  V30 6558 H 605.096 -0.520417 1.97871 0
M  V30 6559 H 605.106 -2.72746 3.03436 0
M  V30 6560 H 603.781 -1.8172 3.741 0
M  V30 6561 H 602.358 -2.9399 2.294 0
M  V30 6562 N 604.543 -1.41418 -0.695603 0
M  V30 6563 C 605.959 -1.23887 -1.00619 0
M  V30 6564 C 606.159 -0.128206 -2.01092 0
M  V30 6565 O 605.215 0.507408 -2.47349 0
M  V30 6566 C 606.528 -2.58816 -1.53083 0
M  V30 6567 C 608.076 -2.65998 -1.64967 0
M  V30 6568 C 608.551 -4.01244 -2.20833 0
M  V30 6569 N 610.042 -4.0309 -2.28194 0
M  V30 6570 C 610.777 -5.04539 -2.72448 0
M  V30 6571 N 610.273 -6.16378 -3.16306 0
M  V30 6572 N 612.066 -4.91901 -2.72011 0
M  V30 6573 H 604.217 -2.12379 -0.0300061 0
M  V30 6574 H 606.48 -0.944958 -0.0758797 0
M  V30 6575 H 606.186 -3.40842 -0.867147 0
M  V30 6576 H 606.06 -2.81299 -2.51298 0
M  V30 6577 H 608.447 -1.84331 -2.30448 0
M  V30 6578 H 608.528 -2.47325 -0.652982 0
M  V30 6579 H 608.172 -4.83359 -1.55968 0
M  V30 6580 H 608.102 -4.17257 -3.21254 0
M  V30 6581 H 610.593 -3.22341 -1.97242 0
M  V30 6582 H 610.906 -6.89658 -3.487 0
M  V30 6583 H 609.251 -6.19914 -3.14215 0
M  V30 6584 H 612.442 -4.03613 -2.37095 0
M  V30 6585 H 612.615 -5.71102 -3.06181 0
M  V30 6586 N 606.021 0.929856 -1.27246 0
M  V30 6587 C 607.27 1.67182 -1.12842 0
M  V30 6588 C 607.583 1.9287 0.325666 0
M  V30 6589 O 608.789 2.64999 0.590572 0
M  V30 6590 C 607.245 3.01097 -1.97151 0
M  V30 6591 C 606.853 2.83115 -3.47203 0
M  V30 6592 C 608.597 3.78907 -1.91389 0
M  V30 6593 C 606.504 4.12573 -4.23719 0
M  V30 6594 H 605.434 0.627064 -0.418697 0
M  V30 6595 H 608.085 1.0332 -1.51649 0
M  V30 6596 H 606.467 3.66004 -1.51186 0
M  V30 6597 H 607.641 2.26989 -4.01015 0
M  V30 6598 H 605.956 2.18736 -3.54321 0
M  V30 6599 H 608.553 4.74837 -2.45834 0
M  V30 6600 H 608.896 4.0674 -0.887047 0
M  V30 6601 H 609.429 3.20794 -2.35237 0
M  V30 6602 H 606.168 3.8992 -5.26918 0
M  V30 6603 H 605.688 4.68371 -3.74685 0
M  V30 6604 H 607.367 4.8095 -4.32777 0
M  V30 6605 N 607.499 1.09233 1.13605 0
M  V30 6606 C 608.724 0.849067 1.89224 0
M  V30 6607 C 609.149 -0.593875 1.78479 0
M  V30 6608 O 608.507 -1.41703 1.13092 0
M  V30 6609 C 608.555 1.28642 3.36873 0
M  V30 6610 O 607.659 0.44363 4.10007 0
M  V30 6611 H 607 0.30767 0.588417 0
M  V30 6612 H 609.53 1.45595 1.43748 0
M  V30 6613 H 609.54 1.27096 3.87699 0
M  V30 6614 H 608.215 2.33729 3.44011 0
M  V30 6615 H 606.792 0.523241 3.69211 0
M  V30 6616 N 608.977 -1.30795 0.87923 0
M  V30 6617 C 609.907 -2.30742 0.357796 0
M  V30 6618 C 610.888 -1.60747 -0.556283 0
M  V30 6619 O 612.073 -1.88393 -0.47135 0
M  V30 6620 C 609.203 -3.44583 -0.433555 0
M  V30 6621 C 608.157 -4.26235 0.388251 0
M  V30 6622 C 607.483 -5.32073 -0.529352 0
M  V30 6623 C 608.783 -4.96303 1.62729 0
M  V30 6624 H 610.477 -2.74605 1.19299 0
M  V30 6625 H 608.023 -1.32017 0.575104 0
M  V30 6626 H 609.976 -4.13563 -0.808934 0
M  V30 6627 H 608.7 -2.99511 -1.30234 0
M  V30 6628 H 607.359 -3.58936 0.745695 0
M  V30 6629 H 607.007 -4.83249 -1.39569 0
M  V30 6630 H 606.707 -5.87598 0.0166741 0
M  V30 6631 H 608.231 -6.0391 -0.901373 0
M  V30 6632 H 609.645 -5.5783 1.32283 0
M  V30 6633 H 608.042 -5.61666 2.11309 0
M  V30 6634 H 609.112 -4.22758 2.37494 0
M  V30 6635 N 610.455 -0.639598 -1.44038 0
M  V30 6636 C 611.866 -0.228866 -1.85292 0
M  V30 6637 C 612.217 1.22161 -1.53529 0
M  V30 6638 O 611.342 1.93064 -0.977518 0
M  V30 6639 C 611.937 -0.408592 -3.36327 0
M  V30 6640 C 610.496 -0.0522953 -3.76364 0
M  V30 6641 C 609.643 -0.717959 -2.67844 0
M  V30 6642 H 612.594 -0.844194 -1.34384 0
M  V30 6643 H 612.615 0.349968 -3.78887 0
M  V30 6644 H 612.127 -1.46435 -3.59414 0
M  V30 6645 H 610.228 1.0014 -3.58891 0
M  V30 6646 H 610.341 -0.468261 -4.76806 0
M  V30 6647 H 608.705 -0.152459 -2.54243 0
M  V30 6648 H 609.488 -1.77648 -2.93762 0
M  V30 6649 N 611.933 1.52934 -0.380664 0
M  V30 6650 C 612.863 2.29118 0.450268 0
M  V30 6651 C 613.844 1.32153 1.07096 0
M  V30 6652 O 615.029 1.61038 1.08537 0
M  V30 6653 C 612.159 3.09161 1.58231 0
M  V30 6654 C 611.113 4.13938 1.0881 0
M  V30 6655 C 610.439 4.82153 2.31155 0
M  V30 6656 C 611.739 5.22048 0.162146 0
M  V30 6657 H 613.433 2.98826 -0.185361 0
M  V30 6658 H 610.979 1.43715 -0.0905886 0
M  V30 6659 H 612.932 3.61211 2.17036 0
M  V30 6660 H 611.656 2.3717 2.2454 0
M  V30 6661 H 610.315 3.62855 0.522633 0
M  V30 6662 H 609.963 4.06719 2.95953 0
M  V30 6663 H 609.663 5.52966 1.98752 0
M  V30 6664 H 611.187 5.37004 2.90618 0
M  V30 6665 H 612.601 5.6951 0.658126 0
M  V30 6666 H 610.998 6.00057 -0.0717122 0
M  V30 6667 H 612.068 4.78398 -0.791438 0
M  V30 6668 N 613.412 0.11024 1.57214 0
M  V30 6669 C 614.823 -0.416527 1.81994 0
M  V30 6670 C 615.174 -1.67183 1.02686 0
M  V30 6671 O 614.299 -2.14823 0.260782 0
M  V30 6672 C 614.894 -0.762466 3.30109 0
M  V30 6673 C 613.453 -1.23391 3.556 0
M  V30 6674 C 612.6 -0.238166 2.76275 0
M  V30 6675 H 615.551 0.335491 1.55113 0
M  V30 6676 H 615.572 -1.62068 3.44259 0
M  V30 6677 H 615.084 0.151346 3.87805 0
M  V30 6678 H 613.185 -2.16492 3.03253 0
M  V30 6679 H 613.298 -1.18528 4.64207 0
M  V30 6680 H 611.662 -0.723421 2.4421 0
M  V30 6681 H 612.445 0.668591 3.36727 0
M  V30 6682 N 614.89 -1.56749 -0.16351 0
M  V30 6683 C 615.838 -1.97939 -1.22159 0
M  V30 6684 C 616.832 -0.869288 -1.45395 0
M  V30 6685 O 618.038 -1.05443 -1.45883 0
M  V30 6686 H 614.413 -0.629869 -0.410815 0
M  V30 6687 H 616.384 -2.86115 -0.847381 0
M  V30 6688 C 615.133 -2.36206 -2.55151 0
M  V30 6689 H 614.456 -3.2117 -2.38097 0
M  V30 6690 H 615.896 -2.68863 -3.27854 0
M  V30 6691 C 614.355 -1.20841 -3.14482 0
M  V30 6692 O 614.885 -0.500258 -3.98573 0
M  V30 6693 N 613.091 -0.976943 -2.73686 0
M  V30 6694 H 612.638 -1.55457 -2.05404 0
M  V30 6695 H 612.596 -0.206912 -3.13718 0
M  V30 6696 N 616.368 0.432326 -1.51554 0
M  V30 6697 C 617.615 1.18134 -1.64471 0
M  V30 6698 C 617.943 1.91076 -0.363349 0
M  V30 6699 O 617.198 1.84492 0.65279 0
M  V30 6700 C 617.497 2.21907 -2.80164 0
M  V30 6701 C 617.163 1.65941 -4.19255 0
M  V30 6702 C 615.825 1.50401 -4.57092 0
M  V30 6703 C 618.177 1.24843 -5.06027 0
M  V30 6704 C 615.505 0.922443 -5.79403 0
M  V30 6705 C 617.857 0.68113 -6.28922 0
M  V30 6706 C 616.521 0.512673 -6.65528 0
M  V30 6707 H 615.791 0.432283 -0.601841 0
M  V30 6708 H 618.438 0.471701 -1.856 0
M  V30 6709 H 616.743 2.98928 -2.53277 0
M  V30 6710 H 618.44 2.79691 -2.87357 0
M  V30 6711 H 615.03 1.79014 -3.89425 0
M  V30 6712 H 619.214 1.35667 -4.77397 0
M  V30 6713 H 614.47 0.779733 -6.06408 0
M  V30 6714 H 618.644 0.35418 -6.95499 0
M  V30 6715 H 616.271 0.0599084 -7.60176 0
M  V30 6716 N 617.846 1.41785 0.688094 0
M  V30 6717 C 619.071 1.45117 1.48175 0
M  V30 6718 C 619.496 0.060129 1.88004 0
M  V30 6719 O 618.854 -0.938385 1.55126 0
M  V30 6720 C 618.902 2.37224 2.71583 0
M  V30 6721 O 618.006 1.83443 3.69354 0
M  V30 6722 H 617.347 0.492208 0.445676 0
M  V30 6723 H 619.877 1.86329 0.845145 0
M  V30 6724 H 619.887 2.53353 3.19806 0
M  V30 6725 H 618.562 3.38293 2.41931 0
M  V30 6726 H 617.139 1.76802 3.28322 0
M  V30 6727 N 619.324 -0.923095 1.27737 0
M  V30 6728 C 620.549 -1.71054 1.17283 0
M  V30 6729 C 620.974 -1.86208 -0.266153 0
M  V30 6730 O 620.332 -1.36545 -1.1927 0
M  V30 6731 C 620.38 -3.0854 1.86642 0
M  V30 6732 O 619.484 -3.95528 1.16752 0
M  V30 6733 H 618.825 -0.524136 0.407649 0
M  V30 6734 H 621.355 -1.15487 1.6889 0
M  V30 6735 H 621.365 -3.58828 1.94182 0
M  V30 6736 H 620.04 -2.96828 2.91317 0
M  V30 6737 H 618.617 -3.53967 1.17312 0
M  V30 6738 N 620.802 -1.09834 -1.13024 0
M  V30 6739 C 621.732 -0.763451 -2.20666 0
M  V30 6740 C 622.713 0.260778 -1.68089 0
M  V30 6741 O 623.898 0.127915 -1.93778 0
M  V30 6742 C 621.028 -0.187744 -3.46792 0
M  V30 6743 C 619.982 -1.14196 -4.12484 0
M  V30 6744 C 619.308 -0.427755 -5.32986 0
M  V30 6745 C 620.608 -2.48607 -4.59338 0
M  V30 6746 H 622.302 -1.66347 -2.48936 0
M  V30 6747 H 619.848 -0.801261 -1.19649 0
M  V30 6748 H 621.801 0.0586375 -4.21359 0
M  V30 6749 H 620.525 0.747485 -3.17931 0
M  V30 6750 H 619.184 -1.37369 -3.3989 0
M  V30 6751 H 618.832 0.511747 -5.0039 0
M  V30 6752 H 618.532 -1.06403 -5.77886 0
M  V30 6753 H 620.056 -0.189772 -6.10305 0
M  V30 6754 H 621.47 -2.29618 -5.25308 0
M  V30 6755 H 619.867 -3.08062 -5.14993 0
M  V30 6756 H 620.937 -3.09062 -3.73642 0
M  V30 6757 N 622.28 1.30327 -0.886154 0
M  V30 6758 C 623.228 2.30052 -0.343317 0
M  V30 6759 C 624.222 1.60212 0.550305 0
M  V30 6760 O 625.428 1.74674 0.434609 0
M  V30 6761 H 621.803 0.746306 -0.0923681 0
M  V30 6762 H 623.774 2.73294 -1.19804 0
M  V30 6763 C 622.523 3.45079 0.426107 0
M  V30 6764 H 621.846 3.99003 -0.25227 0
M  V30 6765 H 623.286 4.16931 0.771009 0
M  V30 6766 C 621.745 2.95195 1.62363 0
M  V30 6767 O 622.275 2.95323 2.723 0
M  V30 6768 N 620.481 2.51192 1.4612 0
M  V30 6769 H 620.028 2.51286 0.566832 0
M  V30 6770 H 619.986 2.18173 2.2638 0
M  V30 6771 N 623.758 0.647228 1.43697 0
M  V30 6772 C 624.688 -0.0345631 2.33474 0
M  V30 6773 C 625.669 -0.818193 1.4913 0
M  V30 6774 O 626.854 -0.780867 1.77809 0
M  V30 6775 C 623.984 -1.00576 3.32418 0
M  V30 6776 C 622.938 -0.33266 4.26705 0
M  V30 6777 C 622.264 -1.41489 5.1564 0
M  V30 6778 C 623.564 0.771204 5.16575 0
M  V30 6779 H 625.258 0.715163 2.90733 0
M  V30 6780 H 622.804 0.345364 1.39797 0
M  V30 6781 H 624.757 -1.49159 3.94119 0
M  V30 6782 H 623.481 -1.78657 2.73403 0
M  V30 6783 H 622.14 0.13267 3.6636 0
M  V30 6784 H 621.788 -2.18698 4.52968 0
M  V30 6785 H 621.488 -0.969799 5.79542 0
M  V30 6786 H 623.012 -1.9022 5.80214 0
M  V30 6787 H 624.426 0.36779 5.72119 0
M  V30 6788 H 622.823 1.1404 5.89165 0
M  V30 6789 H 623.893 1.63169 4.56622 0
M  V30 6790 N 625.236 -1.5273 0.388769 0
M  V30 6791 C 626.652 -1.59553 0.0387049 0
M  V30 6792 C 626.852 -1.40278 -1.44652 0
M  V30 6793 O 625.908 -1.21951 -2.21098 0
M  V30 6794 C 627.221 -2.9625 0.515409 0
M  V30 6795 C 628.769 -3.09426 0.471621 0
M  V30 6796 C 629.244 -4.48572 0.924505 0
M  V30 6797 N 630.735 -4.54754 0.880496 0
M  V30 6798 C 631.47 -5.60653 1.20234 0
M  V30 6799 N 630.966 -6.74198 1.59463 0
M  V30 6800 N 632.759 -5.50755 1.12363 0
M  V30 6801 H 624.91 -1.63508 1.35569 0
M  V30 6802 H 627.173 -0.768097 0.555636 0
M  V30 6803 H 626.879 -3.15569 1.5527 0
M  V30 6804 H 626.753 -3.77102 -0.085792 0
M  V30 6805 H 629.14 -2.89804 -0.556588 0
M  V30 6806 H 629.221 -2.30528 1.10862 0
M  V30 6807 H 628.865 -4.68936 1.95094 0
M  V30 6808 H 628.795 -5.25935 0.264524 0
M  V30 6809 H 631.286 -3.73237 0.591815 0
M  V30 6810 H 631.599 -7.5097 1.82385 0
M  V30 6811 H 629.944 -6.75531 1.63349 0
M  V30 6812 H 633.135 -4.6093 0.816169 0
M  V30 6813 H 633.308 -6.33184 1.37777 0
M  V30 6814 N 626.714 -0.118576 -1.57153 0
M  V30 6815 C 627.624 0.845484 -2.18835 0
M  V30 6816 C 628.64 1.29299 -1.16438 0
M  V30 6817 O 629.816 1.35607 -1.48905 0
M  V30 6818 C 626.881 2.07795 -2.77529 0
M  V30 6819 C 625.942 1.6824 -3.9496 0
M  V30 6820 C 625.175 2.85612 -4.50845 0
M  V30 6821 O 625.398 4.01025 -4.05629 0
M  V30 6822 O 624.332 2.62721 -5.41536 0
M  V30 6823 H 628.158 0.350568 -3.0167 0
M  V30 6824 H 625.743 0.107013 -1.49016 0
M  V30 6825 H 627.625 2.79978 -3.14945 0
M  V30 6826 H 626.3 2.56294 -1.97725 0
M  V30 6827 H 625.207 0.931663 -3.62313 0
M  V30 6828 H 626.54 1.24484 -4.76198 0
M  V30 6829 N 628.193 1.56834 0.155195 0
M  V30 6830 C 629.421 1.87049 0.884326 0
M  V30 6831 C 629.836 0.705839 1.7511 0
M  V30 6832 O 629.193 -0.324641 1.79589 0
M  V30 6833 C 629.244 3.1644 1.74781 0
M  V30 6834 O 628.965 4.28417 0.915978 0
M  V30 6835 C 630.466 3.60113 2.58522 0
M  V30 6836 H 627.686 0.620196 0.25612 0
M  V30 6837 H 630.23 2.03946 0.150445 0
M  V30 6838 H 628.385 3.01321 2.43484 0
M  V30 6839 H 628.799 5.02353 1.50803 0
M  V30 6840 H 630.273 4.53508 3.14698 0
M  V30 6841 H 630.75 2.85005 3.34169 0
M  V30 6842 H 631.356 3.77898 1.95124 0
M  V30 6843 N 629.671 -0.424282 1.51781 0
M  V30 6844 C 630.619 -1.53649 1.74628 0
M  V30 6845 C 631.613 -1.57923 0.612922 0
M  V30 6846 O 632.819 -1.61511 0.794618 0
M  V30 6847 H 629.194 -0.510706 0.551981 0
M  V30 6848 H 631.165 -1.31558 2.67834 0
M  V30 6849 C 629.914 -2.91177 1.9003 0
M  V30 6850 H 629.237 -2.88625 2.76651 0
M  V30 6851 H 630.677 -3.6833 2.10021 0
M  V30 6852 C 629.136 -3.30303 0.663435 0
M  V30 6853 O 629.666 -4.01315 -0.175812 0
M  V30 6854 N 627.872 -2.86201 0.503723 0
M  V30 6855 H 627.419 -2.28583 1.18776 0
M  V30 6856 H 627.377 -3.12741 -0.322575 0
M  V30 6857 N 631.149 -1.42148 -0.680565 0
M  V30 6858 C 632.079 -1.4796 -1.80638 0
M  V30 6859 C 633.06 -0.336728 -1.66734 0
M  V30 6860 O 634.245 -0.550247 -1.86242 0
M  V30 6861 C 631.375 -1.37569 -3.18892 0
M  V30 6862 C 630.329 -2.49823 -3.47524 0
M  V30 6863 C 629.655 -2.24491 -4.85291 0
M  V30 6864 C 630.955 -3.92144 -3.44994 0
M  V30 6865 H 632.649 -2.42184 -1.76032 0
M  V30 6866 H 630.195 -1.16566 -0.845481 0
M  V30 6867 H 632.148 -1.40243 -3.97379 0
M  V30 6868 H 630.872 -0.398357 -3.24162 0
M  V30 6869 H 629.531 -2.46455 -2.71395 0
M  V30 6870 H 629.179 -1.25066 -4.87204 0
M  V30 6871 H 628.879 -2.99722 -5.05411 0
M  V30 6872 H 630.403 -2.28906 -5.66069 0
M  V30 6873 H 631.817 -3.97145 -4.13459 0
M  V30 6874 H 630.214 -4.67179 -3.76648 0
M  V30 6875 H 631.284 -4.19225 -2.43676 0
M  V30 6876 N 632.627 0.916307 -1.28225 0
M  V30 6877 C 633.904 1.64429 -1.05936 0
M  V30 6878 C 634.284 2.07234 0.402139 0
M  V30 6879 O 633.632 1.81535 1.3877 0
M  V30 6880 C 633.842 2.83773 -2.03159 0
M  V30 6881 C 635.19 3.54852 -2.33164 0
M  V30 6882 O 636.214 2.93918 -2.01223 0
M  V30 6883 O 635.073 4.64663 -2.87664 0
M  V30 6884 H 632.167 0.721221 -0.404683 0
M  V30 6885 H 634.713 0.965838 -1.39534 0
M  V30 6886 H 633.485 2.49217 -3.01673 0
M  V30 6887 H 633.108 3.59333 -1.70192 0
M  V30 6888 N 634.105 1.10431 1.1244 0
M  V30 6889 C 635.33 0.869089 1.88313 0
M  V30 6890 C 635.755 -0.574912 1.79099 0
M  V30 6891 O 635.113 -1.40496 1.14589 0
M  V30 6892 C 635.161 1.32208 3.3549 0
M  V30 6893 O 634.265 0.487092 4.09513 0
M  V30 6894 H 633.606 0.313894 0.585121 0
M  V30 6895 H 636.136 1.47111 1.42195 0
M  V30 6896 H 636.146 1.31201 3.86329 0
M  V30 6897 H 634.821 2.37364 3.41513 0
M  V30 6898 H 633.398 0.562372 3.68635 0
M  V30 6899 N 635.583 -1.29855 0.893053 0
M  V30 6900 C 636.513 -2.3035 0.382249 0
M  V30 6901 C 637.494 -1.61328 -0.539203 0
M  V30 6902 O 638.679 -1.88882 -0.451342 0
M  V30 6903 C 635.809 -3.45024 -0.396983 0
M  V30 6904 C 634.763 -4.258 0.433437 0
M  V30 6905 C 634.089 -5.32605 -0.472889 0
M  V30 6906 C 635.389 -4.94549 1.67984 0
M  V30 6907 H 637.083 -2.73325 1.22205 0
M  V30 6908 H 634.629 -1.314 0.589073 0
M  V30 6909 H 636.582 -4.14398 -0.765024 0
M  V30 6910 H 635.306 -3.00875 -1.2705 0
M  V30 6911 H 633.965 -3.58125 0.783723 0
M  V30 6912 H 633.613 -4.84702 -1.34435 0
M  V30 6913 H 633.313 -5.87547 0.0789958 0
M  V30 6914 H 634.837 -6.04832 -0.837269 0
M  V30 6915 H 636.251 -5.56395 1.38192 0
M  V30 6916 H 634.648 -5.59393 2.17254 0
M  V30 6917 H 635.718 -4.20215 2.41965 0
M  V30 6918 N 637.061 -0.65484 -1.43351 0
M  V30 6919 C 638.472 -0.248506 -1.85039 0
M  V30 6920 C 638.823 1.20526 -1.54816 0
M  V30 6921 O 637.948 1.92016 -0.99794 0
M  V30 6922 C 638.543 -0.444241 -3.35875 0
M  V30 6923 C 637.102 -0.0922108 -3.76287 0
M  V30 6924 C 636.249 -0.746327 -2.67068 0
M  V30 6925 H 639.2 -0.8584 -1.33481 0
M  V30 6926 H 639.221 0.309762 -3.79237 0
M  V30 6927 H 638.733 -1.50239 -3.5784 0
M  V30 6928 H 636.834 0.96328 -3.59933 0
M  V30 6929 H 636.947 -0.518807 -4.76283 0
M  V30 6930 H 635.311 -0.179416 -2.54067 0
M  V30 6931 H 636.094 -1.80754 -2.91861 0
M  V30 6932 N 638.539 1.52521 -0.396863 0
M  V30 6933 C 639.469 2.29582 0.425941 0
M  V30 6934 C 640.45 1.33281 1.05689 0
M  V30 6935 O 641.635 1.62181 1.06823 0
M  V30 6936 C 638.765 3.10821 1.54943 0
M  V30 6937 C 637.719 4.15069 1.04413 0
M  V30 6938 C 637.045 4.84578 2.26028 0
M  V30 6939 C 638.345 5.22191 0.106767 0
M  V30 6940 H 640.039 2.98612 -0.217045 0
M  V30 6941 H 637.585 1.43611 -0.105826 0
M  V30 6942 H 639.538 3.63492 2.13193 0
M  V30 6943 H 638.262 2.39538 2.22011 0
M  V30 6944 H 636.921 3.63389 0.484118 0
M  V30 6945 H 636.569 4.09835 2.91623 0
M  V30 6946 H 636.269 5.55043 1.92876 0
M  V30 6947 H 637.793 5.40056 2.84906 0
M  V30 6948 H 639.207 5.70176 0.597685 0
M  V30 6949 H 637.604 5.99947 -0.135352 0
M  V30 6950 H 638.674 4.77531 -0.842134 0
M  V30 6951 N 640.017 0.126909 1.57088 0
M  V30 6952 C 641.263 -0.529952 1.95753 0
M  V30 6953 C 641.596 -1.65823 1.01077 0
M  V30 6954 O 640.871 -1.94437 0.0494162 0
M  V30 6955 C 641.154 -1.05517 3.44294 0
M  V30 6956 C 641.007 0.0702253 4.49745 0
M  V30 6957 C 642.326 -1.9435 3.94862 0
M  V30 6958 H 639.445 -0.191168 0.711775 0
M  V30 6959 H 642.087 0.204071 1.88901 0
M  V30 6960 H 640.237 -1.68069 3.50264 0
M  V30 6961 H 641.909 0.705834 4.55868 0
M  V30 6962 H 640.152 0.732259 4.27575 0
M  V30 6963 H 640.823 -0.338642 5.5096 0
M  V30 6964 H 643.299 -1.41658 3.91244 0
M  V30 6965 H 642.175 -2.28015 4.993 0
M  V30 6966 H 642.436 -2.87299 3.36024 0
M  V30 6967 N 641.495 -1.56914 -0.146875 0
M  V30 6968 C 642.772 -1.74273 -0.888165 0
M  V30 6969 C 643.152 -0.69496 -1.99333 0
M  V30 6970 O 642.5 0.286093 -2.26702 0
M  V30 6971 C 642.71 -3.18336 -1.43051 0
M  V30 6972 C 644.058 -3.80024 -1.89387 0
M  V30 6973 O 645.082 -3.21765 -1.52792 0
M  V30 6974 O 643.941 -4.82367 -2.56874 0
M  V30 6975 H 641.035 -0.712565 -0.419738 0
M  V30 6976 H 643.581 -1.6918 -0.132791 0
M  V30 6977 H 642.353 -3.86092 -0.636274 0
M  V30 6978 H 641.976 -3.27854 -2.24938 0
M  V30 6979 N 642.974 0.416227 -1.52004 0
M  V30 6980 C 644.202 1.18573 -1.69553 0
M  V30 6981 C 644.617 1.84472 -0.401919 0
M  V30 6982 O 643.974 1.71593 0.621463 0
M  V30 6983 C 644.025 2.25413 -2.82615 0
M  V30 6984 O 643.746 1.62205 -4.06966 0
M  V30 6985 C 645.247 3.15297 -3.11613 0
M  V30 6986 H 642.467 0.356582 -0.56841 0
M  V30 6987 H 645.011 0.490618 -1.98528 0
M  V30 6988 H 643.166 2.90604 -2.56179 0
M  V30 6989 H 643.58 2.3298 -4.69916 0
M  V30 6990 H 645.054 3.86351 -3.94255 0
M  V30 6991 H 645.531 3.77264 -2.24874 0
M  V30 6992 H 646.137 2.55783 -3.39787 0
M  V30 6993 N 644.452 1.42507 0.673017 0
M  V30 6994 C 645.402 1.4258 1.77919 0
M  V30 6995 C 646.386 0.296885 1.58137 0
M  V30 6996 O 647.578 0.539243 1.68586 0
M  V30 6997 C 644.707 1.33238 3.1639 0
M  V30 6998 C 643.793 2.51081 3.41788 0
M  V30 6999 N 644.184 3.76498 3.37761 0
M  V30 7000 C 642.482 2.4538 3.72431 0
M  V30 7001 C 643.183 4.54784 3.62693 0
M  V30 7002 N 642.159 3.8522 3.83544 0
M  V30 7003 H 645.961 2.37442 1.73201 0
M  V30 7004 H 643.475 1.36881 0.873924 0
M  V30 7005 H 645.472 1.31372 3.9566 0
M  V30 7006 H 644.132 0.393794 3.22303 0
M  V30 7007 H 645.143 4.09068 3.17622 0
M  V30 7008 H 641.82 1.60109 3.85579 0
M  V30 7009 H 643.21 5.63774 3.65525 0
M  V30 7010 N 645.93 -0.909495 1.28709 0
M  V30 7011 C 647.155 -1.69801 1.1909 0
M  V30 7012 C 647.58 -1.86479 -0.246388 0
M  V30 7013 O 646.938 -1.37802 -1.17815 0
M  V30 7014 C 646.986 -3.06543 1.89904 0
M  V30 7015 O 646.09 -3.94268 1.2094 0
M  V30 7016 H 645.431 -0.519783 0.413185 0
M  V30 7017 H 647.961 -1.13689 1.70106 0
M  V30 7018 H 647.971 -3.56748 1.97977 0
M  V30 7019 H 646.646 -2.93722 2.94449 0
M  V30 7020 H 645.223 -3.52702 1.2106 0
M  V30 7021 N 647.408 -1.11026 -1.11852 0
M  V30 7022 C 648.355 -0.764662 -2.17765 0
M  V30 7023 C 649.325 0.261854 -1.64023 0
M  V30 7024 O 650.51 0.139748 -1.90288 0
M  V30 7025 C 647.65 -0.209317 -3.44465 0
M  V30 7026 C 646.763 -1.29187 -4.12231 0
M  V30 7027 C 645.898 -0.697523 -5.266 0
M  V30 7028 C 644.937 -1.76023 -5.86244 0
M  V30 7029 N 644.074 -1.18569 -6.92016 0
M  V30 7030 H 648.914 -1.67202 -2.46673 0
M  V30 7031 H 646.451 -0.835065 -1.21099 0
M  V30 7032 H 648.409 0.130599 -4.16996 0
M  V30 7033 H 647.039 0.661251 -3.15955 0
M  V30 7034 H 646.091 -1.74881 -3.37818 0
M  V30 7035 H 647.403 -2.09607 -4.52622 0
M  V30 7036 H 646.557 -0.307412 -6.05921 0
M  V30 7037 H 645.296 0.138044 -4.87505 0
M  V30 7038 H 644.301 -2.1597 -5.05606 0
M  V30 7039 H 645.526 -2.59875 -6.27409 0
M  V30 7040 H 643.472 -0.371695 -6.54946 0
M  V30 7041 H 643.389 -1.92666 -7.31038 0
M  V30 7042 H 644.657 -0.82233 -7.7515 0
M  V30 7043 N 648.886 1.2938 -0.899927 0
M  V30 7044 C 650.302 1.48052 -0.596059 0
M  V30 7045 C 650.502 1.82114 0.862372 0
M  V30 7046 O 649.558 1.91774 1.64253 0
M  V30 7047 C 650.871 2.59332 -1.52208 0
M  V30 7048 C 652.419 2.73208 -1.5273 0
M  V30 7049 C 652.894 3.87617 -2.43961 0
M  V30 7050 N 654.385 3.9495 -2.42009 0
M  V30 7051 C 655.12 4.82824 -3.09303 0
M  V30 7052 N 654.616 5.75387 -3.85877 0
M  V30 7053 N 656.409 4.76317 -2.98459 0
M  V30 7054 H 648.56 1.05546 -1.8432 0
M  V30 7055 H 650.823 0.524314 -0.78981 0
M  V30 7056 H 650.529 2.41029 -2.56121 0
M  V30 7057 H 650.403 3.56139 -1.24278 0
M  V30 7058 H 652.79 2.90908 -0.495614 0
M  V30 7059 H 652.871 1.76975 -1.84698 0
M  V30 7060 H 652.515 3.70672 -3.47224 0
M  V30 7061 H 652.445 4.83218 -2.09303 0
M  V30 7062 H 654.936 3.28744 -1.86375 0
M  V30 7063 H 655.249 6.39235 -4.34279 0
M  V30 7064 H 653.594 5.75272 -3.89984 0
M  V30 7065 H 656.785 4.0299 -2.38152 0
M  V30 7066 H 656.958 5.44589 -3.51179 0
M  V30 7067 N 650.364 0.662433 1.43002 0
M  V30 7068 C 651.592 0.187615 2.06048 0
M  V30 7069 C 652.007 -1.15039 1.49705 0
M  V30 7070 O 651.364 -1.71209 0.631956 0
M  V30 7071 C 651.415 0.100498 3.6136 0
M  V30 7072 O 651.136 1.38562 4.15611 0
M  V30 7073 C 652.637 -0.399298 4.41498 0
M  V30 7074 H 649.857 0.0941675 0.664359 0
M  V30 7075 H 652.401 0.905681 1.83351 0
M  V30 7076 H 650.556 -0.568181 3.83211 0
M  V30 7077 H 650.97 1.25084 5.09366 0
M  V30 7078 H 652.444 -0.409187 5.50481 0
M  V30 7079 H 652.921 -1.43232 4.15188 0
M  V30 7080 H 653.527 0.23721 4.24638 0
M  V30 7081 N 651.842 -1.52309 0.404946 0
M  V30 7082 C 652.772 -2.29805 -0.41376 0
M  V30 7083 C 653.753 -1.3384 -1.0498 0
M  V30 7084 O 654.938 -1.62745 -1.05961 0
M  V30 7085 C 652.068 -3.11639 -1.53292 0
M  V30 7086 C 651.022 -4.15616 -1.02211 0
M  V30 7087 C 650.348 -4.8577 -2.23455 0
M  V30 7088 C 651.648 -5.2224 -0.0790725 0
M  V30 7089 H 653.342 -2.98493 0.232878 0
M  V30 7090 H 650.888 -1.43552 0.113441 0
M  V30 7091 H 652.841 -3.64618 -2.11262 0
M  V30 7092 H 651.565 -2.40712 -2.20738 0
M  V30 7093 H 650.224 -3.63641 -0.46484 0
M  V30 7094 H 649.872 -4.11376 -2.89445 0
M  V30 7095 H 649.572 -5.56058 -1.89929 0
M  V30 7096 H 651.096 -5.4156 -2.82038 0
M  V30 7097 H 652.51 -5.70485 -0.567438 0
M  V30 7098 H 650.907 -5.99867 0.167167 0
M  V30 7099 H 651.977 -4.77078 0.867447 0
M  V30 7100 N 653.32 -0.135238 -1.57019 0
M  V30 7101 C 654.25 0.805235 -2.19176 0
M  V30 7102 C 655.231 1.2656 -1.13651 0
M  V30 7103 O 656.416 1.32528 -1.4195 0
M  V30 7104 C 653.546 2.04914 -2.80406 0
M  V30 7105 C 652.5 1.72598 -3.91655 0
M  V30 7106 C 651.826 3.04154 -4.39766 0
M  V30 7107 C 653.126 0.981709 -5.12991 0
M  V30 7108 H 654.82 0.287232 -2.98019 0
M  V30 7109 H 652.366 0.136714 -1.4335 0
M  V30 7110 H 654.319 2.71178 -3.22553 0
M  V30 7111 H 653.043 2.59067 -1.98877 0
M  V30 7112 H 651.702 1.08717 -3.50109 0
M  V30 7113 H 651.35 3.56274 -3.55075 0
M  V30 7114 H 651.05 2.83299 -5.14796 0
M  V30 7115 H 652.574 3.71509 -4.84576 0
M  V30 7116 H 653.988 1.5462 -5.52056 0
M  V30 7117 H 652.385 0.873533 -5.93708 0
M  V30 7118 H 653.455 -0.0286887 -4.84892 0
M  V30 7119 N 654.798 1.5699 0.138552 0
M  V30 7120 C 656.047 1.82998 0.848205 0
M  V30 7121 C 656.36 0.717829 1.81952 0
M  V30 7122 O 657.566 0.863756 2.57394 0
M  V30 7123 C 656.022 3.24379 1.55904 0
M  V30 7124 C 655.63 4.43552 0.62971 0
M  V30 7125 C 657.374 3.59654 2.25498 0
M  V30 7126 C 655.281 5.75957 1.34266 0
M  V30 7127 H 654.211 0.682495 0.320495 0
M  V30 7128 H 656.862 1.83222 0.100924 0
M  V30 7129 H 655.244 3.18567 2.35226 0
M  V30 7130 H 656.418 4.6062 -0.128882 0
M  V30 7131 H 654.733 4.16379 0.0417526 0
M  V30 7132 H 657.33 4.55837 2.79493 0
M  V30 7133 H 657.673 2.86124 3.02388 0
M  V30 7134 H 658.206 3.67164 1.53087 0
M  V30 7135 H 654.945 6.52604 0.615441 0
M  V30 7136 H 654.465 5.62811 2.07375 0
M  V30 7137 H 656.144 6.19046 1.88126 0
M  V30 7138 N 656.276 -0.40816 1.52223 0
M  V30 7139 C 657.223 -1.49737 1.75635 0
M  V30 7140 C 658.193 -1.5493 0.598824 0
M  V30 7141 O 659.378 -1.71487 0.83648 0
M  V30 7142 C 656.518 -2.87174 1.91376 0
M  V30 7143 C 655.631 -2.91283 3.19027 0
M  V30 7144 C 654.766 -4.20026 3.25195 0
M  V30 7145 C 653.805 -4.18113 4.47044 0
M  V30 7146 N 652.942 -5.38429 4.50598 0
M  V30 7147 H 657.782 -1.29075 2.68596 0
M  V30 7148 H 655.319 -0.626518 1.33091 0
M  V30 7149 H 657.277 -3.66959 1.98486 0
M  V30 7150 H 655.907 -3.06329 1.01795 0
M  V30 7151 H 654.959 -2.03984 3.21084 0
M  V30 7152 H 656.271 -2.85734 4.08849 0
M  V30 7153 H 655.425 -5.08204 3.31382 0
M  V30 7154 H 654.164 -4.28271 2.33313 0
M  V30 7155 H 653.169 -3.28325 4.41002 0
M  V30 7156 H 654.394 -4.11507 5.40221 0
M  V30 7157 H 652.34 -5.4734 3.616 0
M  V30 7158 H 652.257 -5.34879 5.34266 0
M  V30 7159 H 653.525 -6.28557 4.61016 0
M  V30 7160 N 657.755 -1.42862 -0.66545 0
M  V30 7161 C 658.983 -1.47246 -1.45349 0
M  V30 7162 C 659.398 -0.0865944 -1.88601 0
M  V30 7163 O 658.755 0.900652 -1.58728 0
M  V30 7164 C 658.806 -2.40772 -2.6965 0
M  V30 7165 O 658.527 -3.73968 -2.2821 0
M  V30 7166 C 660.028 -2.54272 -3.63126 0
M  V30 7167 H 657.248 -0.500497 -0.446927 0
M  V30 7168 H 659.792 -1.87477 -0.816871 0
M  V30 7169 H 657.947 -2.0377 -3.29479 0
M  V30 7170 H 658.361 -4.24146 -3.08546 0
M  V30 7171 H 659.835 -3.23815 -4.47043 0
M  V30 7172 H 660.312 -1.58364 -4.09656 0
M  V30 7173 H 660.918 -2.92036 -3.09185 0
M  V30 7174 N 659.233 0.902656 -1.29189 0
M  V30 7175 C 660.479 1.65532 -1.17163 0
M  V30 7176 C 660.812 1.92216 0.276879 0
M  V30 7177 O 660.087 1.53048 1.20027 0
M  V30 7178 C 660.37 3.00629 -1.98228 0
M  V30 7179 C 660.223 2.81029 -3.51202 0
M  V30 7180 C 661.542 4.01321 -1.80635 0
M  V30 7181 H 658.661 0.60071 -0.426985 0
M  V30 7182 H 661.303 1.04578 -1.5863 0
M  V30 7183 H 659.453 3.52656 -1.62991 0
M  V30 7184 H 661.125 2.35927 -3.96404 0
M  V30 7185 H 659.368 2.1587 -3.76275 0
M  V30 7186 H 660.039 3.77014 -4.03192 0
M  V30 7187 H 662.515 3.58394 -2.11406 0
M  V30 7188 H 661.391 4.93792 -2.3971 0
M  V30 7189 H 661.652 4.35505 -0.760754 0
M  V30 7190 N 660.711 1.11618 1.11262 0
M  V30 7191 C 661.621 0.78898 2.20935 0
M  V30 7192 C 662.637 -0.21867 1.7262 0
M  V30 7193 O 663.813 -0.0543826 2.01327 0
M  V30 7194 C 660.878 0.239014 3.45875 0
M  V30 7195 C 659.939 1.3055 4.08968 0
M  V30 7196 C 659.172 0.781687 5.27944 0
M  V30 7197 O 659.395 -0.387605 5.69082 0
M  V30 7198 O 658.329 1.54734 5.81671 0
M  V30 7199 H 662.155 1.70477 2.51339 0
M  V30 7200 H 659.74 0.892203 1.19834 0
M  V30 7201 H 661.622 -0.0632312 4.21353 0
M  V30 7202 H 660.297 -0.649454 3.17118 0
M  V30 7203 H 659.204 1.66079 3.35214 0
M  V30 7204 H 660.537 2.16743 4.41909 0
M  V30 7205 N 662.189 -1.289 0.906776 0
M  V30 7206 C 663.417 -1.99401 0.551969 0
M  V30 7207 C 663.832 -1.67816 -0.865048 0
M  V30 7208 O 663.189 -0.927078 -1.57199 0
M  V30 7209 C 663.24 -3.53779 0.743152 0
M  V30 7210 O 662.961 -3.84248 2.1044 0
M  V30 7211 C 664.462 -4.41543 0.39424 0
M  V30 7212 H 661.682 -0.636926 0.211106 0
M  V30 7213 H 664.226 -1.64266 1.21807 0
M  V30 7214 H 662.381 -3.87201 0.124143 0
M  V30 7215 H 662.795 -4.78904 2.13895 0
M  V30 7216 H 664.269 -5.48957 0.578814 0
M  V30 7217 H 664.746 -4.34073 -0.669137 0
M  V30 7218 H 665.352 -4.13605 0.990491 0
M  V30 7219 N 663.667 -0.670007 -1.42649 0
M  V30 7220 C 665.083 -0.33911 -1.55956 0
M  V30 7221 C 665.283 1.1558 -1.65056 0
M  V30 7222 O 664.339 1.94111 -1.61485 0
M  V30 7223 C 665.652 -1.06522 -2.812 0
M  V30 7224 C 667.2 -1.04708 -2.94966 0
M  V30 7225 C 667.675 -1.75442 -4.23065 0
M  V30 7226 N 669.166 -1.72286 -4.29967 0
M  V30 7227 C 669.901 -2.23877 -5.27889 0
M  V30 7228 N 669.397 -2.83829 -6.31991 0
M  V30 7229 N 671.19 -2.14279 -5.19654 0
M  V30 7230 H 663.341 -1.6399 -1.34986 0
M  V30 7231 H 665.604 -0.690603 -0.649439 0
M  V30 7232 H 665.31 -2.12033 -2.80597 0
M  V30 7233 H 665.184 -0.627398 -3.71946 0
M  V30 7234 H 667.571 -0.000315966 -2.951 0
M  V30 7235 H 667.652 -1.52374 -2.05465 0
M  V30 7236 H 667.296 -2.80084 -4.23693 0
M  V30 7237 H 667.226 -1.25229 -5.11493 0
M  V30 7238 H 669.717 -1.28554 -3.55362 0
M  V30 7239 H 670.03 -3.20827 -7.03057 0
M  V30 7240 H 668.375 -2.87896 -6.32567 0
M  V30 7241 H 671.566 -1.67135 -4.37245 0
M  V30 7242 H 671.739 -2.54792 -5.95806 0
M  V30 7243 N 665.145 1.52092 -0.413018 0
M  V30 7244 C 666.422 1.94356 0.22024 0
M  V30 7245 C 666.802 1.35017 1.62277 0
M  V30 7246 O 666.15 0.527511 2.22328 0
M  V30 7247 C 666.36 3.48289 0.222638 0
M  V30 7248 C 667.708 4.22313 0.440098 0
M  V30 7249 O 668.732 3.54919 0.301826 0
M  V30 7250 O 667.591 5.41829 0.712984 0
M  V30 7251 H 664.685 0.814536 0.14304 0
M  V30 7252 H 667.231 1.63083 -0.469242 0
M  V30 7253 H 666.003 3.83872 -0.758836 0
M  V30 7254 H 665.626 3.85934 0.956057 0
M  V30 7255 N 666.623 0.143563 1.56945 0
M  V30 7256 C 667.871 -0.507402 1.95627 0
M  V30 7257 C 668.192 -1.65626 1.02922 0
M  V30 7258 O 667.462 -1.95693 0.0901136 0
M  V30 7259 H 666.042 -0.190436 0.722318 0
M  V30 7260 H 668.704 0.218257 1.93674 0
M  V30 7261 H 667.8 -0.885816 2.99265 0
M  V30 7262 N 668.101 -1.57061 -0.130224 0
M  V30 7263 C 669.033 -1.96147 -1.18571 0
M  V30 7264 C 670.046 -0.859347 -1.38272 0
M  V30 7265 O 671.235 -1.13769 -1.37545 0
M  V30 7266 C 668.335 -2.23484 -2.54771 0
M  V30 7267 C 667.508 -3.54786 -2.55824 0
M  V30 7268 C 666.567 -3.70467 -3.73686 0
M  V30 7269 O 665.593 -4.42693 -3.57787 0
M  V30 7270 N 666.795 -3.08389 -4.91809 0
M  V30 7271 H 669.56 -2.87295 -0.853333 0
M  V30 7272 H 667.121 -1.58714 -0.319621 0
M  V30 7273 H 669.113 -2.312 -3.32158 0
M  V30 7274 H 667.683 -1.38518 -2.80235 0
M  V30 7275 H 666.903 -3.5836 -1.64232 0
M  V30 7276 H 668.191 -4.4111 -2.53573 0
M  V30 7277 H 667.589 -2.49656 -5.0763 0
M  V30 7278 H 666.146 -3.21642 -5.66912 0
M  V30 7279 N 669.579 0.400081 -1.52437 0
M  V30 7280 C 670.825 1.14788 -1.67187 0
M  V30 7281 C 671.158 1.89928 -0.405074 0
M  V30 7282 O 670.433 1.85118 0.596804 0
M  V30 7283 C 670.716 2.13507 -2.89977 0
M  V30 7284 C 670.569 1.42204 -4.2673 0
M  V30 7285 C 671.888 3.14069 -3.083 0
M  V30 7286 H 669.007 0.415939 -0.608411 0
M  V30 7287 H 671.649 0.432542 -1.85011 0
M  V30 7288 H 669.799 2.7451 -2.74912 0
M  V30 7289 H 671.471 0.842503 -4.53541 0
M  V30 7290 H 669.714 0.723939 -4.27717 0
M  V30 7291 H 670.385 2.14281 -5.08712 0
M  V30 7292 H 672.861 2.63148 -3.22323 0
M  V30 7293 H 671.737 3.80398 -3.95713 0
M  V30 7294 H 671.998 3.82309 -2.22018 0
M  V30 7295 N 671.057 1.43213 0.657864 0
M  V30 7296 C 672.306 1.43871 1.41365 0
M  V30 7297 C 672.619 0.064898 1.95492 0
M  V30 7298 O 673.825 -0.0510796 2.71452 0
M  V30 7299 C 672.281 2.53158 2.55811 0
M  V30 7300 C 671.889 3.96624 2.08311 0
M  V30 7301 C 673.633 2.63004 3.3321 0
M  V30 7302 C 671.54 4.97385 3.1994 0
M  V30 7303 H 670.47 0.535174 0.531136 0
M  V30 7304 H 673.121 1.69185 0.710543 0
M  V30 7305 H 671.503 2.21037 3.2857 0
M  V30 7306 H 672.677 4.38182 1.42593 0
M  V30 7307 H 670.992 3.90781 1.43804 0
M  V30 7308 H 673.589 3.3546 4.16378 0
M  V30 7309 H 673.932 1.67918 3.80932 0
M  V30 7310 H 674.465 2.94403 2.67529 0
M  V30 7311 H 671.204 5.94007 2.77192 0
M  V30 7312 H 670.724 4.60444 3.84385 0
M  V30 7313 H 672.403 5.19877 3.85145 0
M  V30 7314 N 672.536 -0.895792 1.29666 0
M  V30 7315 C 673.484 -2.02173 1.15017 0
M  V30 7316 C 674.478 -1.69276 0.0647651 0
M  V30 7317 O 675.684 -1.7859 0.224846 0
M  V30 7318 H 672.059 -0.662719 0.355397 0
M  V30 7319 H 674.03 -2.11666 2.10334 0
M  V30 7320 C 672.779 -3.37212 0.847555 0
M  V30 7321 H 672.102 -3.6303 1.67479 0
M  V30 7322 H 673.542 -4.16668 0.785106 0
M  V30 7323 C 672.001 -3.33891 -0.44929 0
M  V30 7324 O 672.531 -3.73673 -1.47415 0
M  V30 7325 N 670.737 -2.86991 -0.456547 0
M  V30 7326 H 670.284 -2.54813 0.377925 0
M  V30 7327 H 670.242 -2.85152 -1.32423 0
M  V30 7328 N 674.014 -1.12206 -1.10668 0
M  V30 7329 C 674.924 -0.800686 -2.20513 0
M  V30 7330 C 675.94 0.209512 -1.72734 0
M  V30 7331 O 677.116 0.043705 -2.01353 0
M  V30 7332 C 674.181 -0.257353 -3.45744 0
M  V30 7333 C 673.242 -1.32718 -4.0827 0
M  V30 7334 C 672.475 -0.809674 -5.27522 0
M  V30 7335 O 672.698 0.35742 -5.69279 0
M  V30 7336 O 671.632 -1.57816 -5.80842 0
M  V30 7337 H 675.458 -1.71807 -2.50432 0
M  V30 7338 H 673.043 -0.898546 -1.19359 0
M  V30 7339 H 674.925 0.0408849 -4.2138 0
M  V30 7340 H 673.6 0.632627 -3.17458 0
M  V30 7341 H 672.507 -1.67855 -3.34329 0
M  V30 7342 H 673.84 -2.19083 -4.40753 0
M  V30 7343 N 675.492 1.28418 -0.913599 0
M  V30 7344 C 676.72 1.99106 -0.562536 0
M  V30 7345 C 677.135 1.68273 0.856137 0
M  V30 7346 O 676.492 0.935401 1.56705 0
M  V30 7347 C 676.543 3.5338 -0.761903 0
M  V30 7348 O 676.264 3.83127 -2.12475 0
M  V30 7349 C 677.765 4.41328 -0.417651 0
M  V30 7350 H 674.985 0.635798 -0.214481 0
M  V30 7351 H 677.529 1.63618 -1.22676 0
M  V30 7352 H 675.684 3.8713 -0.144676 0
M  V30 7353 H 676.098 4.77763 -2.16431 0
M  V30 7354 H 677.572 5.48642 -0.607919 0
M  V30 7355 H 678.049 4.34422 0.646108 0
M  V30 7356 H 678.655 4.13074 -1.01241 0
M  V30 7357 N 676.97 0.677563 1.42291 0
M  V30 7358 C 678.195 0.207901 2.06355 0
M  V30 7359 C 678.62 -1.12723 1.50583 0
M  V30 7360 O 677.978 -1.70171 0.62543 0
M  V30 7361 C 678.026 0.156489 3.6026 0
M  V30 7362 O 677.13 -0.874162 4.03029 0
M  V30 7363 H 676.471 0.106056 0.655475 0
M  V30 7364 H 679.001 0.927354 1.82377 0
M  V30 7365 H 679.011 -0.0187258 4.07996 0
M  V30 7366 H 677.686 1.13101 4.00226 0
M  V30 7367 H 676.263 -0.669764 3.66836 0
M  V30 7368 N 678.448 -1.51871 0.421078 0
M  V30 7369 C 679.38 -2.25052 -0.434065 0
M  V30 7370 C 680.393 -1.28458 -1.00013 0
M  V30 7371 O 681.582 -1.54323 -0.897033 0
M  V30 7372 C 678.682 -2.97813 -1.61743 0
M  V30 7373 C 677.855 -4.21374 -1.17315 0
M  V30 7374 C 676.914 -4.76854 -2.22478 0
M  V30 7375 O 675.94 -5.39123 -1.82577 0
M  V30 7376 N 677.142 -4.59467 -3.54782 0
M  V30 7377 H 679.907 -2.99077 0.193073 0
M  V30 7378 H 677.468 -1.59972 0.249088 0
M  V30 7379 H 679.46 -3.3182 -2.31685 0
M  V30 7380 H 678.03 -2.26899 -2.15024 0
M  V30 7381 H 677.25 -3.93046 -0.3014 0
M  V30 7382 H 678.538 -5.01591 -0.853444 0
M  V30 7383 H 677.936 -4.09832 -3.89941 0
M  V30 7384 H 676.493 -4.9788 -4.20665 0
M  V30 7385 N 679.926 -0.151884 -1.56866 0
M  V30 7386 C 680.876 0.797799 -2.13586 0
M  V30 7387 C 681.86 1.20613 -1.06496 0
M  V30 7388 O 683.052 1.17173 -1.32663 0
M  V30 7389 C 680.181 2.03493 -2.76488 0
M  V30 7390 C 679.267 1.64948 -3.90708 0
M  V30 7391 N 679.658 0.972513 -4.96363 0
M  V30 7392 C 677.956 1.94186 -4.01507 0
M  V30 7393 C 678.657 0.785661 -5.7637 0
M  V30 7394 N 677.633 1.32105 -5.27304 0
M  V30 7395 H 681.435 0.271403 -2.92644 0
M  V30 7396 H 678.949 0.049487 -1.62325 0
M  V30 7397 H 680.946 2.72532 -3.15487 0
M  V30 7398 H 679.606 2.56646 -1.98904 0
M  V30 7399 H 680.617 0.632724 -5.1402 0
M  V30 7400 H 677.294 2.49154 -3.35005 0
M  V30 7401 H 678.684 0.251749 -6.71428 0
M  V30 7402 N 681.404 1.57128 0.121893 0
M  V30 7403 C 682.354 1.96556 1.15541 0
M  V30 7404 C 683.338 0.840147 1.37224 0
M  V30 7405 O 684.53 1.10382 1.38365 0
M  V30 7406 C 681.659 2.37097 2.48274 0
M  V30 7407 C 680.745 3.56265 2.30078 0
M  V30 7408 N 681.136 4.72041 1.81688 0
M  V30 7409 C 679.434 3.61841 2.60744 0
M  V30 7410 C 680.135 5.54075 1.77132 0
M  V30 7411 N 679.111 4.96483 2.21371 0
M  V30 7412 H 682.913 2.83531 0.77378 0
M  V30 7413 H 680.427 1.59019 0.329672 0
M  V30 7414 H 682.424 2.6356 3.2302 0
M  V30 7415 H 681.084 1.51486 2.87197 0
M  V30 7416 H 682.095 4.95313 1.51278 0
M  V30 7417 H 678.772 2.8683 3.03373 0
M  V30 7418 H 680.162 6.56939 1.40998 0
M  V30 7419 N 682.882 -0.391992 1.52647 0
M  V30 7420 C 684.159 -1.15136 1.58123 0
M  V30 7421 C 684.539 -2.07786 0.372597 0
M  V30 7422 O 683.887 -2.19374 -0.639304 0
M  V30 7423 C 684.097 -1.91367 2.91856 0
M  V30 7424 C 685.445 -2.46833 3.45483 0
M  V30 7425 O 686.469 -2.01527 2.9371 0
M  V30 7426 O 685.328 -3.29587 4.3593 0
M  V30 7427 H 682.422 -0.526649 0.637629 0
M  V30 7428 H 684.968 -0.397386 1.64982 0
M  V30 7429 H 683.74 -1.23597 3.71268 0
M  V30 7430 H 683.363 -2.73732 2.88369 0
M  V30 7431 N 684.36 -1.4356 -0.65026 0
M  V30 7432 C 685.637 -1.35811 -1.40765 0
M  V30 7433 C 686.017 -0.00736379 -2.11099 0
M  V30 7434 O 685.365 1.00932 -2.05 0
M  V30 7435 C 685.575 -2.54332 -2.3899 0
M  V30 7436 C 686.923 -2.97551 -3.02901 0
M  V30 7437 O 687.947 -2.544 -2.49317 0
M  V30 7438 O 686.806 -3.72311 -4.00059 0
M  V30 7439 H 683.9 -0.536861 -0.629054 0
M  V30 7440 H 686.446 -1.55615 -0.676919 0
M  V30 7441 H 685.218 -3.44274 -1.85986 0
M  V30 7442 H 684.841 -2.36643 -3.19509 0
M  V30 7443 N 685.838 0.888903 -1.30139 0
M  V30 7444 C 686.768 2.01046 -1.18755 0
M  V30 7445 C 687.749 1.69916 -0.0791438 0
M  V30 7446 O 688.934 1.92445 -0.260498 0
M  V30 7447 C 686.064 3.36109 -0.874518 0
M  V30 7448 C 685.018 3.81486 -1.94043 0
M  V30 7449 C 684.344 5.13796 -1.48047 0
M  V30 7450 C 685.644 4.00637 -3.35093 0
M  V30 7451 H 687.338 2.10828 -2.12584 0
M  V30 7452 H 684.884 1.01298 -1.02346 0
M  V30 7453 H 686.837 4.14089 -0.781548 0
M  V30 7454 H 685.561 3.26449 0.0994519 0
M  V30 7455 H 684.22 3.05731 -2.02297 0
M  V30 7456 H 683.868 5.0056 -0.494878 0
M  V30 7457 H 683.568 5.45127 -2.19341 0
M  V30 7458 H 685.092 5.94305 -1.40121 0
M  V30 7459 H 686.506 4.69067 -3.2962 0
M  V30 7460 H 684.903 4.43339 -4.04438 0
M  V30 7461 H 685.973 3.0462 -3.77273 0
M  V30 7462 N 687.317 1.12792 1.10072 0
M  V30 7463 C 688.227 0.812369 2.20086 0
M  V30 7464 C 689.243 -0.200349 1.72843 0
M  V30 7465 O 690.419 -0.0330262 2.01373 0
M  V30 7466 C 687.484 0.275685 3.45602 0
M  V30 7467 C 686.545 1.34881 4.07561 0
M  V30 7468 C 685.778 0.837639 5.27086 0
M  V30 7469 O 686.001 -0.327224 5.69461 0
M  V30 7470 O 684.935 1.60894 5.79997 0
M  V30 7471 H 688.761 1.73133 2.49517 0
M  V30 7472 H 686.346 0.904863 1.18881 0
M  V30 7473 H 688.228 -0.0185375 4.21396 0
M  V30 7474 H 686.903 -0.615783 3.17789 0
M  V30 7475 H 685.81 1.69625 3.33434 0
M  V30 7476 H 687.143 2.21418 4.39585 0
M  V30 7477 O 688.834 -1.22539 1.05197 0
M  V30 7478 H 689.525 -1.79492 0.728171 0
M  V30 END ATOM
M  V30 BEGIN BOND
M  V30 END BOND
M  V30 END CTAB
M  END
$$$$
