drugbank_target|P08697 Alpha-2-antiplasmin (DB08888; DB09130)
 OpenBabel12092119483D

  0  0  0     0  0            999 V3000
M  V30 BEGIN CTAB
M  V30 COUNTS 7691 7792 0 0 0
M  V30 BEGIN ATOM
M  V30 1 H -0.908 1.98254 -0.117106 0
M  V30 2 N 0 1.576 0 0
M  V30 3 C 0.933 2.03868 1.02534 0
M  V30 4 C 1.911 0.928543 1.3348 0
M  V30 5 O 3.095 1.19667 1.45644 0
M  V30 6 C 0.222 2.43627 2.35294 0
M  V30 7 C -0.732 3.65373 2.2001 0
M  V30 8 S 0.101 5.13292 1.52614 0
M  V30 9 C 1.257 5.56322 2.86805 0
M  V30 10 H 1.49 2.90518 0.631377 0
M  V30 11 H -0.977 1.52953 0.210867 0
M  V30 12 H 0.981 2.67203 3.11629 0
M  V30 13 H -0.358 1.57376 2.7183 0
M  V30 14 H -1.165 3.90944 3.18086 0
M  V30 15 H -1.563 3.418 1.51819 0
M  V30 16 H 0.729 5.58782 3.83104 0
M  V30 17 H 1.672 6.56266 2.65933 0
M  V30 18 H 2.08 4.83886 2.90714 0
M  V30 19 N 1.4781 -0.272755 1.55222 0
M  V30 20 C 2.4411 -1.32041 1.87344 0
M  V30 21 C 3.4411 -1.42342 0.74803 0
M  V30 22 O 4.6311 -1.41488 1.0162 0
M  V30 23 C 1.7631 -2.70173 2.07893 0
M  V30 24 H 2.9561 -1.04789 2.80997 0
M  V30 25 H 0.5091 -0.51083 1.47717 0
M  V30 26 H 1.2441 -3.02605 1.16622 0
M  V30 27 H 1.0291 -2.64082 2.89833 0
M  V30 28 H 2.5191 -3.45869 2.34017 0
M  V30 29 N 2.9562 -1.48159 -0.537278 0
M  V30 30 C 3.8862 -1.65029 -1.6519 0
M  V30 31 C 4.8672 -0.499281 -1.62607 0
M  V30 32 O 6.0522 -0.730972 -1.79918 0
M  V30 33 C 3.1822 -1.68303 -3.03795 0
M  V30 34 C 2.1362 -2.8283 -3.21234 0
M  V30 35 C 1.4622 -2.71189 -4.60826 0
M  V30 36 C 2.7622 -4.24211 -3.04701 0
M  V30 37 H 4.4562 -2.58341 -1.51328 0
M  V30 38 H 2.0022 -1.24325 -0.726585 0
M  V30 39 H 3.9552 -1.78693 -3.81637 0
M  V30 40 H 2.6792 -0.715635 -3.18663 0
M  V30 41 H 1.3382 -2.71983 -2.45807 0
M  V30 42 H 0.9862 -1.72435 -4.7252 0
M  V30 43 H 0.6862 -3.48035 -4.7344 0
M  V30 44 H 2.2102 -2.83537 -5.40777 0
M  V30 45 H 3.6242 -4.3593 -3.72341 0
M  V30 46 H 2.0212 -5.01998 -3.28813 0
M  V30 47 H 3.0912 -4.41184 -2.01209 0
M  V30 48 N 4.4343 0.785586 -1.36625 0
M  V30 49 C 5.3643 1.91259 -1.33949 0
M  V30 50 C 6.3453 1.68795 -0.210325 0
M  V30 51 O 7.5303 1.89854 -0.408561 0
M  V30 52 C 4.6603 3.28339 -1.13186 0
M  V30 53 C 3.6143 3.65335 -2.22967 0
M  V30 54 C 2.9403 5.00806 -1.87342 0
M  V30 55 C 4.2403 3.7352 -3.65075 0
M  V30 56 H 5.9343 1.93755 -2.28253 0
M  V30 57 H 3.4803 0.930788 -1.09874 0
M  V30 58 H 5.4333 4.06804 -1.09948 0
M  V30 59 H 4.1573 3.2624 -0.153332 0
M  V30 60 H 2.8163 2.89169 -2.25337 0
M  V30 61 H 2.4643 4.95233 -0.880545 0
M  V30 62 H 2.1643 5.26529 -2.60846 0
M  V30 63 H 3.6883 5.81687 -1.85667 0
M  V30 64 H 5.1023 4.42168 -3.64911 0
M  V30 65 H 3.4993 4.10731 -4.37516 0
M  V30 66 H 4.5693 2.74527 -3.99703 0
M  V30 67 N 5.9124 1.20967 1.01018 0
M  V30 68 C 7.1584 1.0353 1.7508 0
M  V30 69 C 7.5134 -0.42734 1.87594 0
M  V30 70 O 6.8064 -1.31298 1.3954 0
M  V30 71 C 7.0004 1.65997 3.16512 0
M  V30 72 C 6.8294 3.18184 3.17788 0
M  V30 73 C 5.5994 3.87198 3.24662 0
M  V30 74 C 7.7974 4.15334 3.03319 0
M  V30 75 N 5.7794 5.26618 3.15509 0
M  V30 76 C 7.1504 5.41472 3.02007 0
M  V30 77 C 9.2054 4.06449 2.87583 0
M  V30 78 C 7.9084 6.5975 2.86571 0
M  V30 79 C 9.9344 5.24357 2.73503 0
M  V30 80 C 9.2964 6.49404 2.72862 0
M  V30 81 H 5.3954 0.433137 0.651089 0
M  V30 82 H 7.9794 1.5324 1.20107 0
M  V30 83 H 6.1504 1.18863 3.69765 0
M  V30 84 H 7.8824 1.41816 3.79039 0
M  V30 85 H 4.6374 3.38093 3.31648 0
M  V30 86 H 5.0614 5.99626 3.14289 0
M  V30 87 H 9.7034 3.10573 2.86887 0
M  V30 88 H 7.4214 7.55792 2.86015 0
M  V30 89 H 11.0074 5.19299 2.62334 0
M  V30 90 H 9.8874 7.39105 2.62093 0
M  V30 91 N 7.3905 -1.2043 1.01659 0
M  V30 92 C 8.6385 -1.89423 0.704522 0
M  V30 93 C 8.9595 -1.79231 -0.768197 0
M  V30 94 O 8.2295 -1.1947 -1.55254 0
M  V30 95 H 6.8095 -0.701178 0.257602 0
M  V30 96 H 9.4715 -1.4626 1.28818 0
M  V30 97 H 8.5675 -2.96052 0.987916 0
M  V30 98 N 8.8686 -0.792821 -1.36206 0
M  V30 99 C 9.7986 -0.207853 -2.32573 0
M  V30 100 C 10.7796 0.659055 -1.56813 0
M  V30 101 O 11.9646 0.592176 -1.84951 0
M  V30 102 C 9.0946 0.655449 -3.41059 0
M  V30 103 C 8.0486 -0.111842 -4.27854 0
M  V30 104 C 7.3746 0.872274 -5.27537 0
M  V30 105 C 8.6746 -1.30299 -5.05786 0
M  V30 106 H 10.3686 -1.01294 -2.81744 0
M  V30 107 H 7.9146 -0.48854 -1.3546 0
M  V30 108 H 9.8676 1.07464 -4.07467 0
M  V30 109 H 8.5916 1.49328 -2.90463 0
M  V30 110 H 7.2506 -0.512053 -3.63006 0
M  V30 111 H 6.8986 1.70523 -4.73214 0
M  V30 112 H 6.5986 0.363291 -5.86476 0
M  V30 113 H 8.1226 1.28996 -5.96818 0
M  V30 114 H 9.5366 -0.959379 -5.65216 0
M  V30 115 H 7.9336 -1.7455 -5.74154 0
M  V30 116 H 9.0036 -2.09663 -4.37229 0
M  V30 117 N 10.3467 1.47872 -0.545128 0
M  V30 118 C 11.2767 2.32661 0.197793 0
M  V30 119 C 12.2577 1.43041 0.920504 0
M  V30 120 O 13.4427 1.71912 0.90333 0
M  V30 121 C 10.5727 3.24569 1.23582 0
M  V30 122 C 9.5267 4.23333 0.630323 0
M  V30 123 C 8.8527 5.0448 1.77211 0
M  V30 124 C 10.1527 5.20704 -0.407974 0
M  V30 125 H 11.8467 2.95024 -0.510045 0
M  V30 126 H 9.3927 1.4187 -0.246731 0
M  V30 127 H 11.3457 3.8272 1.76362 0
M  V30 128 H 10.0697 2.60236 1.97344 0
M  V30 129 H 8.7287 3.6639 0.123922 0
M  V30 130 H 8.3767 4.36561 2.49847 0
M  V30 131 H 8.0767 5.71339 1.37281 0
M  V30 132 H 9.6007 5.65487 2.3034 0
M  V30 133 H 11.0147 5.7329 0.033305 0
M  V30 134 H 9.4117 5.95699 -0.725486 0
M  V30 135 H 10.4817 4.66917 -1.30828 0
M  V30 136 N 11.8248 0.280983 1.55075 0
M  V30 137 C 13.0708 -0.33461 2.00021 0
M  V30 138 C 13.4038 -1.55063 1.16915 0
M  V30 139 O 12.6788 -1.93006 0.240646 0
M  V30 140 C 12.9618 -0.711007 3.53011 0
M  V30 141 C 12.8148 0.512766 4.46868 0
M  V30 142 C 14.1338 -1.54522 4.12081 0
M  V30 143 H 11.2528 -0.120147 0.727141 0
M  V30 144 H 13.8948 0.389097 1.85973 0
M  V30 145 H 12.0448 -1.32761 3.65112 0
M  V30 146 H 13.7168 1.15131 4.46702 0
M  V30 147 H 11.9598 1.14975 4.18286 0
M  V30 148 H 12.6308 0.205556 5.51617 0
M  V30 149 H 15.1068 -1.02442 4.03293 0
M  V30 150 H 13.9828 -1.77739 5.19327 0
M  V30 151 H 14.2438 -2.52813 3.62682 0
M  V30 152 N 13.3029 -1.57598 0.00835791 0
M  V30 153 C 14.2329 -2.1198 -0.979113 0
M  V30 154 C 15.2139 -1.03091 -1.35301 0
M  V30 155 O 16.3989 -1.30818 -1.43528 0
M  V30 156 C 13.5289 -2.62995 -2.26828 0
M  V30 157 C 12.4829 -3.76485 -2.03576 0
M  V30 158 C 11.8089 -4.13846 -3.38579 0
M  V30 159 C 13.1089 -5.0342 -1.39161 0
M  V30 160 H 14.8029 -2.94738 -0.526281 0
M  V30 161 H 12.3489 -1.41783 -0.251704 0
M  V30 162 H 14.3019 -2.99669 -2.96271 0
M  V30 163 H 13.0259 -1.7737 -2.7424 0
M  V30 164 H 11.6849 -3.40217 -1.36557 0
M  V30 165 H 11.3329 -3.25232 -3.83709 0
M  V30 166 H 11.0329 -4.90312 -3.23834 0
M  V30 167 H 12.5569 -4.53086 -4.09323 0
M  V30 168 H 13.9709 -5.37812 -1.98573 0
M  V30 169 H 12.3679 -5.84746 -1.34878 0
M  V30 170 H 13.4379 -4.83548 -0.361868 0
M  V30 171 N 14.781 0.264519 -1.55364 0
M  V30 172 C 16.006 1.01726 -1.80739 0
M  V30 173 C 16.431 1.78836 -0.583044 0
M  V30 174 O 15.789 1.75167 0.467566 0
M  V30 175 C 15.837 1.94482 -3.03659 0
M  V30 176 O 14.941 3.03386 -2.7934 0
M  V30 177 H 14.282 0.290395 -0.597132 0
M  V30 178 H 16.812 0.290854 -2.02522 0
M  V30 179 H 16.822 2.36278 -3.32621 0
M  V30 180 H 15.497 1.37772 -3.92418 0
M  V30 181 H 14.074 2.65844 -2.61498 0
M  V30 182 N 16.2591 1.48442 0.529413 0
M  V30 183 C 17.5051 1.57699 1.28463 0
M  V30 184 C 17.8601 0.247913 1.90796 0
M  V30 185 O 17.1531 -0.749279 1.76342 0
M  V30 186 C 17.3471 2.6523 2.39558 0
M  V30 187 C 17.1761 4.08464 1.88114 0
M  V30 188 C 15.9461 4.75596 1.70693 0
M  V30 189 C 18.1441 4.94613 1.40935 0
M  V30 190 N 16.1261 6.03245 1.13881 0
M  V30 191 C 17.4971 6.12511 0.960734 0
M  V30 192 C 19.5521 4.80833 1.29243 0
M  V30 193 C 18.2551 7.18149 0.406792 0
M  V30 194 C 20.2811 5.86593 0.752487 0
M  V30 195 C 19.6431 7.037 0.313946 0
M  V30 196 H 15.7421 0.631608 0.46108 0
M  V30 197 H 18.3261 1.85325 0.596886 0
M  V30 198 H 16.4971 2.39425 3.05827 0
M  V30 199 H 18.2291 2.64169 3.06589 0
M  V30 200 H 14.9841 4.31938 1.94232 0
M  V30 201 H 15.4081 6.71324 0.874831 0
M  V30 202 H 20.0501 3.90635 1.61754 0
M  V30 203 H 17.7681 8.0807 0.0693671 0
M  V30 204 H 21.3541 5.77985 0.665192 0
M  V30 205 H 20.2341 7.8414 -0.0973632 0
M  V30 206 N 17.7372 -0.778329 1.37039 0
M  V30 207 C 18.9622 -1.57248 1.35233 0
M  V30 208 C 19.3872 -1.87999 -0.0615568 0
M  V30 209 O 18.7452 -1.48734 -1.03672 0
M  V30 210 C 18.7932 -2.86353 2.19167 0
M  V30 211 O 17.8972 -3.80442 1.59178 0
M  V30 212 H 17.2382 -0.476569 0.462362 0
M  V30 213 H 19.7682 -0.963853 1.80474 0
M  V30 214 H 19.7782 -3.35519 2.32145 0
M  V30 215 H 18.4532 -2.63299 3.21942 0
M  V30 216 H 17.0302 -3.39067 1.55203 0
M  V30 217 N 19.2153 -1.21501 -1.00376 0
M  V30 218 C 20.4553 -1.04444 -1.75701 0
M  V30 219 C 20.8193 0.414644 -1.87469 0
M  V30 220 O 22.0203 0.705763 -2.59369 0
M  V30 221 C 20.2913 -1.72389 -3.13077 0
M  V30 222 S 21.8503 -1.70604 -4.04277 0
M  V30 223 H 18.6683 -0.374249 -0.604532 0
M  V30 224 H 21.2703 -1.54267 -1.20091 0
M  V30 225 H 19.9743 -2.77734 -3.02146 0
M  V30 226 H 19.5053 -1.22751 -3.73759 0
M  V30 227 H 21.5203 -0.748012 -4.9053 0
M  V30 228 N 20.6934 1.19889 -1.02296 0
M  V30 229 C 21.6234 2.25141 -0.619174 0
M  V30 230 C 22.6044 1.66051 0.368915 0
M  V30 231 O 23.7894 1.92546 0.252941 0
M  V30 232 C 20.9194 3.4728 0.0368783 0
M  V30 233 C 19.8734 4.19005 -0.872865 0
M  V30 234 C 19.1994 5.34637 -0.0822402 0
M  V30 235 C 20.4994 4.74452 -2.18387 0
M  V30 236 H 22.1934 2.59171 -1.49903 0
M  V30 237 H 19.7394 1.24579 -0.722222 0
M  V30 238 H 21.6924 4.20098 0.330958 0
M  V30 239 H 20.4164 3.12433 0.95149 0
M  V30 240 H 19.0754 3.48061 -1.15105 0
M  V30 241 H 18.7234 4.96034 0.83422 0
M  V30 242 H 18.4234 5.83557 -0.688149 0
M  V30 243 H 19.9474 6.10255 0.205238 0
M  V30 244 H 21.3614 5.39055 -1.95172 0
M  V30 245 H 19.7584 5.33834 -2.74119 0
M  V30 246 H 20.8284 3.92844 -2.84257 0
M  V30 247 N 22.1715 0.800033 1.35784 0
M  V30 248 C 23.1035 0.163596 2.28615 0
M  V30 249 C 24.1165 -0.633317 1.49976 0
M  V30 250 O 25.3055 -0.466754 1.72289 0
M  V30 251 C 22.4055 -0.790958 3.29541 0
M  V30 252 C 21.5785 -0.0418255 4.3738 0
M  V30 253 C 20.6375 -0.91389 5.18203 0
M  V30 254 O 19.6635 -0.367234 5.68014 0
M  V30 255 N 20.8655 -2.23682 5.35674 0
M  V30 256 H 23.6305 0.96105 2.83873 0
M  V30 257 H 21.1915 0.654894 1.48063 0
M  V30 258 H 23.1835 -1.37844 3.80501 0
M  V30 259 H 21.7535 -1.48925 2.74846 0
M  V30 260 H 20.9735 0.726813 3.87442 0
M  V30 261 H 22.2615 0.474719 5.06581 0
M  V30 262 H 21.6595 -2.70497 4.96838 0
M  V30 263 H 20.2165 -2.77369 5.89839 0
M  V30 264 N 23.6496 -1.47581 0.552962 0
M  V30 265 C 24.8976 -2.02082 0.0272703 0
M  V30 266 C 25.2186 -1.4301 -1.32563 0
M  V30 267 O 24.4886 -0.603745 -1.86365 0
M  V30 268 H 23.0686 -0.746966 0.00709182 0
M  V30 269 H 25.7306 -1.81033 0.722008 0
M  V30 270 H 24.8266 -3.12034 -0.0639951 0
M  V30 271 N 25.1277 -0.289203 -1.54924 0
M  V30 272 C 26.5387 0.205791 -1.85562 0
M  V30 273 C 26.8897 1.54351 -1.2112 0
M  V30 274 O 26.0147 2.10435 -0.504601 0
M  V30 275 C 26.6097 0.380177 -3.3666 0
M  V30 276 C 25.1687 0.819395 -3.67373 0
M  V30 277 C 24.3157 -0.079159 -2.77187 0
M  V30 278 H 27.2667 -0.510577 -1.50262 0
M  V30 279 H 27.2877 1.21659 -3.60526 0
M  V30 280 H 26.7997 -0.593589 -3.83534 0
M  V30 281 H 24.9007 1.80413 -3.26009 0
M  V30 282 H 25.0137 0.646957 -4.74712 0
M  V30 283 H 23.3777 0.439565 -2.50878 0
M  V30 284 H 24.1607 -1.04906 -3.26878 0
M  V30 285 N 26.6058 1.57591 -0.0167156 0
M  V30 286 C 27.8458 1.93145 0.668902 0
M  V30 287 C 28.2098 0.892406 1.7 0
M  V30 288 O 29.4108 1.13373 2.43721 0
M  V30 289 C 27.6818 3.33678 1.28039 0
M  V30 290 S 29.2408 3.91142 1.9888 0
M  V30 291 H 26.0588 0.67593 0.220545 0
M  V30 292 H 28.6608 1.95347 -0.0774105 0
M  V30 293 H 27.3648 4.07126 0.517339 0
M  V30 294 H 26.8958 3.3489 2.06427 0
M  V30 295 H 28.9108 3.73571 3.26587 0
M  V30 296 N 28.0839 -0.256276 1.55502 0
M  V30 297 C 29.3089 -1.00766 1.81276 0
M  V30 298 C 29.7339 -1.78524 0.59252 0
M  V30 299 O 29.0919 -1.75413 -0.45827 0
M  V30 300 C 29.1399 -1.92869 3.04687 0
M  V30 301 O 28.2439 -3.019 2.80945 0
M  V30 302 H 27.5849 -0.287224 0.598664 0
M  V30 303 H 30.1149 -0.280109 2.02674 0
M  V30 304 H 30.1249 -2.34511 3.33869 0
M  V30 305 H 28.7999 -1.35689 3.93143 0
M  V30 306 H 27.3769 -2.64454 2.62904 0
M  V30 307 N 29.562 -1.4872 -0.521534 0
M  V30 308 C 30.808 -1.574 -1.27879 0
M  V30 309 C 31.141 -0.250817 -1.92573 0
M  V30 310 O 30.416 0.743934 -1.79711 0
M  V30 311 C 30.699 -2.71843 -2.36164 0
M  V30 312 C 30.552 -4.13893 -1.76105 0
M  V30 313 C 31.871 -2.82008 -3.37875 0
M  V30 314 H 28.99 -0.572941 -0.463581 0
M  V30 315 H 31.632 -1.80927 -0.580119 0
M  V30 316 H 29.782 -2.51914 -2.95756 0
M  V30 317 H 31.454 -4.45284 -1.20499 0
M  V30 318 H 29.697 -4.20498 -1.06601 0
M  V30 319 H 30.368 -4.89804 -2.5455 0
M  V30 320 H 32.844 -3.00086 -2.88249 0
M  V30 321 H 31.72 -3.63796 -4.11028 0
M  V30 322 H 31.981 -1.90511 -3.98946 0
M  V30 323 N 31.0401 0.771051 -1.3745 0
M  V30 324 C 32.2871 1.52963 -1.32697 0
M  V30 325 C 32.6151 1.94299 0.0883274 0
M  V30 326 O 31.8701 1.64397 1.0617 0
M  V30 327 C 32.1691 2.80676 -2.2126 0
M  V30 328 C 31.8351 2.58389 -3.69521 0
M  V30 329 C 30.4971 2.52019 -4.09927 0
M  V30 330 C 32.8491 2.38469 -4.63446 0
M  V30 331 C 30.1771 2.23721 -5.42371 0
M  V30 332 C 32.5291 2.11694 -5.96128 0
M  V30 333 C 31.1931 2.03769 -6.35637 0
M  V30 334 H 30.4631 0.559732 -0.485573 0
M  V30 335 H 33.1101 0.888083 -1.69662 0
M  V30 336 H 31.4151 3.49392 -1.77291 0
M  V30 337 H 33.1121 3.38557 -2.14895 0
M  V30 338 H 29.7021 2.6421 -3.37478 0
M  V30 339 H 33.8861 2.4238 -4.33089 0
M  V30 340 H 29.1421 2.16081 -5.71943 0
M  V30 341 H 33.3161 1.9528 -6.6846 0
M  V30 342 H 30.9431 1.81606 -7.38189 0
M  V30 343 N 32.5182 1.22032 0.997298 0
M  V30 344 C 33.7432 1.06921 1.77715 0
M  V30 345 C 34.1682 -0.376226 1.84299 0
M  V30 346 O 33.5262 -1.27165 1.29223 0
M  V30 347 C 33.5742 1.67996 3.19076 0
M  V30 348 O 32.6782 0.930653 4.01762 0
M  V30 349 H 32.0192 0.375814 0.547412 0
M  V30 350 H 34.5492 1.61737 1.25309 0
M  V30 351 H 34.5592 1.72538 3.69723 0
M  V30 352 H 33.2342 2.73182 3.13599 0
M  V30 353 H 31.8112 0.960917 3.60307 0
M  V30 354 N 33.9963 -1.19345 1.0293 0
M  V30 355 C 35.4073 -1.70725 0.755633 0
M  V30 356 C 35.7583 -1.82326 -0.724676 0
M  V30 357 O 34.8833 -1.49471 -1.56484 0
M  V30 358 C 35.4783 -3.10084 1.36503 0
M  V30 359 C 34.0373 -3.58723 1.13994 0
M  V30 360 C 33.1843 -2.35577 1.46283 0
M  V30 361 H 36.1353 -1.0418 1.19718 0
M  V30 362 H 36.1563 -3.72787 0.762217 0
M  V30 363 H 35.6683 -3.01609 2.44241 0
M  V30 364 H 33.7693 -3.72512 0.0807901 0
M  V30 365 H 33.8823 -4.42816 1.82894 0
M  V30 366 H 32.2463 -2.38935 0.88217 0
M  V30 367 H 33.0293 -2.29731 2.55105 0
M  V30 368 N 35.4744 -0.807222 -1.35358 0
M  V30 369 C 36.7204 -0.388463 -1.99045 0
M  V30 370 C 37.0534 1.04184 -1.63888 0
M  V30 371 O 36.3284 1.72292 -0.902535 0
M  V30 372 C 36.6114 -0.572783 -3.55515 0
M  V30 373 C 36.4644 -2.04807 -4.00468 0
M  V30 374 C 37.7834 0.00114064 -4.401 0
M  V30 375 H 34.9024 -0.142619 -0.723069 0
M  V30 376 H 37.5444 -1.01687 -1.60498 0
M  V30 377 H 35.6944 -0.0378425 -3.88482 0
M  V30 378 H 37.3664 -2.64544 -3.77908 0
M  V30 379 H 35.6094 -2.54427 -3.51353 0
M  V30 380 H 36.2804 -2.12792 -5.09337 0
M  V30 381 H 38.7564 -0.455716 -4.13597 0
M  V30 382 H 37.6324 -0.157737 -5.48673 0
M  V30 383 H 37.8934 1.09488 -4.28328 0
M  V30 384 N 36.9525 1.47285 -0.560781 0
M  V30 385 C 38.1775 2.07359 -0.0410566 0
M  V30 386 C 38.6025 1.41017 1.24483 0
M  V30 387 O 37.9605 0.486368 1.74654 0
M  V30 388 C 38.0085 3.6035 0.134123 0
M  V30 389 O 37.1125 3.94681 1.19587 0
M  V30 390 H 36.4535 0.661887 -0.0529291 0
M  V30 391 H 38.9835 1.89252 -0.777482 0
M  V30 392 H 38.9935 4.0652 0.347207 0
M  V30 393 H 37.6685 4.08034 -0.805047 0
M  V30 394 H 36.2455 3.60251 0.962987 0
M  V30 395 N 38.4306 0.297415 1.54768 0
M  V30 396 C 39.3936 -0.567375 2.22066 0
M  V30 397 C 40.3936 -1.06409 1.20556 0
M  V30 398 O 41.5836 -0.960691 1.45315 0
M  V30 399 C 38.7156 -1.78517 2.90421 0
M  V30 400 H 39.9086 0.0205534 2.99893 0
M  V30 401 H 37.4616 0.0482163 1.56226 0
M  V30 402 H 38.1966 -2.41303 2.16664 0
M  V30 403 H 37.9816 -1.43669 3.64831 0
M  V30 404 H 39.4716 -2.39964 3.41771 0
M  V30 405 N 39.9087 -1.5758 0.0250728 0
M  V30 406 C 40.8417 -2.05473 -0.992777 0
M  V30 407 C 41.8197 -0.949661 -1.31986 0
M  V30 408 O 43.0037 -1.21969 -1.43722 0
M  V30 409 C 40.1307 -2.4734 -2.31389 0
M  V30 410 C 39.1767 -3.68827 -2.1417 0
M  V30 411 S 40.0097 -5.15655 -1.44429 0
M  V30 412 C 41.1657 -5.60814 -2.77918 0
M  V30 413 H 41.3987 -2.91486 -0.585078 0
M  V30 414 H 38.9317 -1.53269 -0.186507 0
M  V30 415 H 40.8897 -2.72127 -3.07339 0
M  V30 416 H 39.5507 -1.6168 -2.69292 0
M  V30 417 H 38.7437 -3.95955 -3.11826 0
M  V30 418 H 38.3457 -3.44172 -1.46362 0
M  V30 419 H 40.6377 -5.64806 -3.74166 0
M  V30 420 H 41.5807 -6.60414 -2.55459 0
M  V30 421 H 41.9887 -4.8845 -2.82979 0
M  V30 422 N 41.3868 0.248026 -1.55636 0
M  V30 423 C 42.2968 1.32859 -1.93354 0
M  V30 424 C 43.3128 1.52719 -0.833838 0
M  V30 425 O 44.4888 1.66363 -1.13513 0
M  V30 426 C 41.5538 2.66337 -2.21958 0
M  V30 427 C 40.6148 2.55008 -3.45354 0
M  V30 428 C 39.8478 3.82121 -3.72584 0
M  V30 429 O 40.0708 4.83951 -3.01907 0
M  V30 430 O 39.0048 3.80822 -4.6611 0
M  V30 431 H 42.8308 1.03862 -2.85388 0
M  V30 432 H 40.4158 0.448686 -1.42503 0
M  V30 433 H 42.2978 3.45216 -2.4167 0
M  V30 434 H 40.9728 2.95068 -1.33103 0
M  V30 435 H 39.8798 1.7442 -3.30951 0
M  V30 436 H 41.2128 2.31222 -4.34508 0
M  V30 437 N 42.8649 1.48995 0.513639 0
M  V30 438 C 44.2759 1.5119 1.09537 0
M  V30 439 C 44.6269 0.290906 1.94031 0
M  V30 440 O 43.7519 -0.60049 2.07902 0
M  V30 441 C 44.3469 2.73964 1.99322 0
M  V30 442 C 42.9059 2.78978 2.52682 0
M  V30 443 C 42.0529 2.44934 1.30009 0
M  V30 444 H 45.0039 1.55875 0.298125 0
M  V30 445 H 45.0249 2.53409 2.83838 0
M  V30 446 H 44.5369 3.62813 1.37799 0
M  V30 447 H 42.6379 1.94378 3.1788 0
M  V30 448 H 42.7509 3.8083 2.90698 0
M  V30 449 H 41.1149 1.9644 1.62122 0
M  V30 450 H 41.8979 3.36043 0.702131 0
M  V30 451 N 44.343 -0.763751 1.37857 0
M  V30 452 C 45.273 -1.89103 1.36975 0
M  V30 453 C 46.254 -1.68439 0.237152 0
M  V30 454 O 47.439 -1.8918 0.438713 0
M  V30 455 C 44.569 -3.26496 1.18395 0
M  V30 456 C 43.523 -3.61741 2.28751 0
M  V30 457 C 42.849 -4.97762 1.95286 0
M  V30 458 C 44.149 -3.67665 3.70972 0
M  V30 459 H 45.843 -1.90099 2.31307 0
M  V30 460 H 43.389 -0.91319 1.11341 0
M  V30 461 H 45.342 -4.05003 1.16406 0
M  V30 462 H 44.066 -3.25955 0.205215 0
M  V30 463 H 42.725 -2.85547 2.29909 0
M  V30 464 H 42.373 -4.93769 0.959221 0
M  V30 465 H 42.073 -5.22313 2.69189 0
M  V30 466 H 43.597 -5.7866 1.94898 0
M  V30 467 H 45.011 -4.36307 3.719 0
M  V30 468 H 43.408 -4.03718 4.43995 0
M  V30 469 H 44.478 -2.68134 4.0402 0
M  V30 470 N 45.8211 -1.22559 -0.990812 0
M  V30 471 C 47.0691 -1.04933 -1.72724 0
M  V30 472 C 47.3901 0.416158 -1.90508 0
M  V30 473 O 46.6601 1.29918 -1.46622 0
M  V30 474 H 45.2401 -0.385296 -0.639965 0
M  V30 475 H 47.9021 -1.54105 -1.19322 0
M  V30 476 H 46.9981 -1.52886 -2.72089 0
M  V30 477 N 47.2992 1.18797 -1.03562 0
M  V30 478 C 48.7152 1.40671 -0.753917 0
M  V30 479 C 48.9152 1.9043 0.658686 0
M  V30 480 O 47.9712 2.08538 1.42366 0
M  V30 481 C 49.2842 2.41192 -1.79574 0
M  V30 482 C 50.8322 2.54928 -1.81606 0
M  V30 483 C 51.3072 3.58709 -2.84766 0
M  V30 484 N 52.7982 3.66212 -2.83625 0
M  V30 485 C 53.5332 4.46225 -3.60098 0
M  V30 486 N 53.0292 5.29888 -4.46308 0
M  V30 487 N 54.8222 4.40939 -3.4861 0
M  V30 488 H 46.9732 0.848221 -1.94728 0
M  V30 489 H 49.2362 0.435081 -0.842264 0
M  V30 490 H 48.9422 2.11669 -2.80872 0
M  V30 491 H 48.8162 3.40467 -1.62365 0
M  V30 492 H 51.2032 2.83771 -0.809817 0
M  V30 493 H 51.2842 1.55784 -2.02891 0
M  V30 494 H 50.9282 3.30607 -3.85566 0
M  V30 495 H 50.8582 4.57519 -2.60737 0
M  V30 496 H 53.3492 3.06466 -2.21105 0
M  V30 497 H 53.6622 5.88078 -5.01382 0
M  V30 498 H 52.0072 5.29326 -4.50377 0
M  V30 499 H 55.1982 3.74624 -2.80668 0
M  V30 500 H 55.3712 5.03056 -4.08459 0
M  V30 501 N 48.7773 0.814389 1.34928 0
M  V30 502 C 49.7093 0.187834 2.28429 0
M  V30 503 C 50.7223 -0.617374 1.5064 0
M  V30 504 O 51.9113 -0.448454 1.72775 0
M  V30 505 C 49.0113 -0.755962 3.30361 0
M  V30 506 C 48.1843 0.00456686 4.374 0
M  V30 507 C 47.2433 -0.858876 5.19143 0
M  V30 508 O 46.2693 -0.306968 5.68372 0
M  V30 509 N 47.4713 -2.17988 5.38016 0
M  V30 510 H 50.2363 0.991105 2.82838 0
M  V30 511 H 47.7973 0.670561 1.4736 0
M  V30 512 H 49.7893 -1.338 3.81942 0
M  V30 513 H 48.3593 -1.46001 2.7641 0
M  V30 514 H 47.5793 0.767865 3.86649 0
M  V30 515 H 48.8673 0.528422 5.06049 0
M  V30 516 H 48.2653 -2.65212 4.99679 0
M  V30 517 H 46.8223 -2.71098 5.92747 0
M  V30 518 N 50.2554 -1.46986 0.568584 0
M  V30 519 C 51.1854 -2.32946 -0.160753 0
M  V30 520 C 52.1664 -1.44487 -0.897631 0
M  V30 521 O 53.3514 -1.73327 -0.875867 0
M  V30 522 C 50.4814 -3.26494 -1.18403 0
M  V30 523 C 49.4354 -4.24282 -0.562895 0
M  V30 524 C 48.7614 -5.07236 -1.69163 0
M  V30 525 C 50.0614 -5.19989 0.490761 0
M  V30 526 H 51.7554 -2.94175 0.556916 0
M  V30 527 H 49.3014 -1.4146 0.26927 0
M  V30 528 H 51.2544 -3.85477 -1.70251 0
M  V30 529 H 49.9784 -2.63343 -1.93179 0
M  V30 530 H 48.6374 -3.66541 -0.0656164 0
M  V30 531 H 48.2854 -4.4048 -2.42871 0
M  V30 532 H 47.9854 -5.7345 -1.28174 0
M  V30 533 H 49.5094 -5.6908 -2.21314 0
M  V30 534 H 50.9234 -5.73271 0.0579047 0
M  V30 535 H 49.3204 -5.94469 0.820165 0
M  V30 536 H 50.3904 -4.64777 1.3824 0
M  V30 537 N 51.7335 -0.305618 -1.54608 0
M  V30 538 C 52.9615 0.304775 -2.04643 0
M  V30 539 C 53.3765 1.47167 -1.18268 0
M  V30 540 O 52.7335 1.81296 -0.209328 0
M  V30 541 C 52.7845 0.756564 -3.53495 0
M  V30 542 O 52.5055 -0.36389 -4.36586 0
M  V30 543 C 54.0065 1.43163 -4.19546 0
M  V30 544 H 51.2265 0.0655481 -0.667791 0
M  V30 545 H 53.7705 -0.446592 -1.99564 0
M  V30 546 H 51.9255 1.45794 -3.58919 0
M  V30 547 H 52.3395 -0.0113121 -5.24499 0
M  V30 548 H 53.8135 1.69886 -5.25207 0
M  V30 549 H 54.2905 2.37318 -3.69563 0
M  V30 550 H 54.8965 0.773307 -4.18211 0
M  V30 551 N 53.2116 1.57565 -0.0334293 0
M  V30 552 C 54.4366 1.96689 0.657895 0
M  V30 553 C 54.8616 0.910057 1.64619 0
M  V30 554 O 54.2196 -0.128598 1.80843 0
M  V30 555 C 54.2676 3.34905 1.33683 0
M  V30 556 O 53.3716 3.31574 2.45219 0
M  V30 557 H 52.7126 0.641205 0.172489 0
M  V30 558 H 55.2426 2.04372 -0.0965621 0
M  V30 559 H 55.2526 3.71234 1.69262 0
M  V30 560 H 53.9276 4.11366 0.612411 0
M  V30 561 H 52.5046 3.06968 2.11719 0
M  V30 562 N 54.6897 -0.239769 1.55765 0
M  V30 563 C 55.9377 -0.964892 1.77579 0
M  V30 564 C 56.2587 -1.85582 0.598699 0
M  V30 565 O 55.5287 -1.92075 -0.385226 0
M  V30 566 H 54.1087 -0.359265 0.654933 0
M  V30 567 H 56.7707 -0.256001 1.93211 0
M  V30 568 H 55.8667 -1.58243 2.69009 0
M  V30 569 N 56.1678 -1.49265 -0.50573 0
M  V30 570 C 57.5788 -1.51769 -1.08734 0
M  V30 571 C 57.9298 -0.301192 -1.93874 0
M  V30 572 O 57.0548 0.589456 -2.08217 0
M  V30 573 C 57.6498 -2.75017 -1.97867 0
M  V30 574 C 56.2088 -2.80314 -2.51199 0
M  V30 575 C 55.3558 -2.4562 -1.28709 0
M  V30 576 H 58.3068 -1.56031 -0.289855 0
M  V30 577 H 58.3278 -2.5491 -2.82491 0
M  V30 578 H 57.8398 -3.63539 -1.35873 0
M  V30 579 H 55.9408 -1.96061 -3.16845 0
M  V30 580 H 56.0538 -3.82366 -2.88675 0
M  V30 581 H 54.4178 -1.97297 -1.61078 0
M  V30 582 H 55.2008 -3.36411 -0.6843 0
M  V30 583 N 57.6459 0.756429 -1.3826 0
M  V30 584 C 58.5939 1.89149 -1.35372 0
M  V30 585 C 59.5879 1.67691 -0.24004 0
M  V30 586 O 60.7939 1.75294 -0.408919 0
M  V30 587 H 57.1689 0.622271 -0.422236 0
M  V30 588 H 59.1399 1.88701 -2.31159 0
M  V30 589 C 57.8889 3.26599 -1.19284 0
M  V30 590 H 57.2119 3.43695 -2.0424 0
M  V30 591 H 58.6519 4.06274 -1.21316 0
M  V30 592 C 57.1109 3.3675 0.100454 0
M  V30 593 O 57.6409 3.86951 1.07851 0
M  V30 594 N 55.8469 2.90179 0.15633 0
M  V30 595 H 55.3939 2.49517 -0.640253 0
M  V30 596 H 55.3519 2.97352 1.02123 0
M  V30 597 N 59.124 1.23083 0.984299 0
M  V30 598 C 60.056 0.96636 2.07832 0
M  V30 599 C 61.069 -0.0582135 1.62696 0
M  V30 600 O 62.258 0.176843 1.77622 0
M  V30 601 C 59.358 0.433397 3.36117 0
M  V30 602 C 58.531 1.51722 4.10243 0
M  V30 603 C 57.59 0.989821 5.16807 0
M  V30 604 O 56.616 1.67794 5.43906 0
M  V30 605 N 57.818 -0.184367 5.80207 0
M  V30 606 H 60.583 1.90824 2.31098 0
M  V30 607 H 58.144 1.13888 1.1507 0
M  V30 608 H 60.136 0.065699 4.04647 0
M  V30 609 H 58.706 -0.413806 3.09849 0
M  V30 610 H 57.926 2.05786 3.36223 0
M  V30 611 H 59.214 2.24619 4.56534 0
M  V30 612 H 58.612 -0.760062 5.60571 0
M  V30 613 H 57.169 -0.493366 6.4993 0
M  V30 614 N 60.6021 -1.18246 1.0419 0
M  V30 615 C 61.5121 -2.25574 0.644476 0
M  V30 616 C 62.5281 -1.70845 -0.329826 0
M  V30 617 O 63.7041 -2.00554 -0.184443 0
M  V30 618 C 60.7691 -3.46697 0.014877 0
M  V30 619 C 59.8301 -4.16554 1.03834 0
M  V30 620 C 59.0631 -5.31894 0.438692 0
M  V30 621 O 59.2861 -5.65385 -0.754752 0
M  V30 622 O 58.2201 -5.90459 1.168 0
M  V30 623 H 62.0461 -2.61836 1.53869 0
M  V30 624 H 59.6311 -1.25352 0.812854 0
M  V30 625 H 61.5131 -4.20062 -0.335538 0
M  V30 626 H 60.1881 -3.12255 -0.853138 0
M  V30 627 H 59.0951 -3.45251 1.44057 0
M  V30 628 H 60.4281 -4.54998 1.87716 0
M  V30 629 N 62.0802 -0.821533 -1.34494 0
M  V30 630 C 63.0122 -0.199946 -2.28326 0
M  V30 631 C 64.0252 0.609377 -1.50965 0
M  V30 632 O 65.2142 0.439285 -1.7301 0
M  V30 633 C 62.3142 0.738431 -3.30757 0
M  V30 634 C 61.4872 -0.0277632 -4.37391 0
M  V30 635 C 60.5462 0.831332 -5.19591 0
M  V30 636 O 59.5722 0.276822 -5.68526 0
M  V30 637 N 60.7742 2.15132 -5.39165 0
M  V30 638 H 63.5392 -1.00609 -2.82308 0
M  V30 639 H 61.1002 -0.678366 -1.47003 0
M  V30 640 H 63.0922 1.31773 -3.82646 0
M  V30 641 H 61.6622 1.44533 -2.7718 0
M  V30 642 H 60.8822 -0.788359 -3.86236 0
M  V30 643 H 62.1702 -0.555251 -5.05761 0
M  V30 644 H 61.5682 2.62559 -5.01078 0
M  V30 645 H 60.1252 2.6795 -5.94177 0
M  V30 646 N 63.5583 1.46682 -0.576371 0
M  V30 647 C 64.8043 2.02712 -0.0596221 0
M  V30 648 C 65.1373 1.44765 1.29448 0
M  V30 649 O 64.4123 0.610355 1.84675 0
M  V30 650 C 64.6953 3.60098 0.0129503 0
M  V30 651 C 64.5483 4.28441 -1.3696 0
M  V30 652 C 65.8673 4.34224 0.71678 0
M  V30 653 H 62.9863 0.736637 -0.0231407 0
M  V30 654 H 65.6283 1.74898 -0.742351 0
M  V30 655 H 63.7783 3.83926 0.594378 0
M  V30 656 H 65.4503 4.15896 -1.9957 0
M  V30 657 H 63.6933 3.8805 -1.93907 0
M  V30 658 H 64.3643 5.3716 -1.27135 0
M  V30 659 H 66.8403 4.15503 0.222908 0
M  V30 660 H 65.7163 5.43936 0.73657 0
M  V30 661 H 65.9773 4.04823 1.77682 0
M  V30 662 N 65.0364 0.313813 1.54444 0
M  V30 663 C 66.2614 -0.296681 2.05267 0
M  V30 664 C 66.6864 -1.45757 1.18897 0
M  V30 665 O 66.0444 -1.80239 0.195886 0
M  V30 666 C 66.0924 -0.71831 3.53373 0
M  V30 667 O 65.1964 -1.82175 3.69981 0
M  V30 668 H 64.5374 -0.0554061 0.661684 0
M  V30 669 H 67.0674 0.459387 1.99376 0
M  V30 670 H 67.0774 -1.00364 3.95463 0
M  V30 671 H 65.7524 0.130821 4.15694 0
M  V30 672 H 64.3294 -1.53598 3.39797 0
M  V30 673 N 66.5145 -1.57545 0.0417849 0
M  V30 674 C 67.9255 -1.80011 -0.495259 0
M  V30 675 C 68.2765 -0.953199 -1.71489 0
M  V30 676 O 67.4015 -0.167138 -2.15754 0
M  V30 677 C 67.9965 -3.26482 -0.905265 0
M  V30 678 C 66.5555 -3.499 -1.38734 0
M  V30 679 C 65.7025 -2.74979 -0.358056 0
M  V30 680 H 68.6535 -1.56425 0.267736 0
M  V30 681 H 68.6745 -3.36887 -1.76882 0
M  V30 682 H 68.1865 -3.88096 -0.017401 0
M  V30 683 H 66.2875 -2.93553 -2.29471 0
M  V30 684 H 66.4005 -4.58615 -1.38598 0
M  V30 685 H 64.7645 -2.40834 -0.828912 0
M  V30 686 H 65.5475 -3.39315 0.521561 0
M  V30 687 N 67.9926 0.231505 -1.5589 0
M  V30 688 C 68.9226 1.29022 -1.94617 0
M  V30 689 C 69.9036 1.4941 -0.813067 0
M  V30 690 O 71.0886 1.6176 -1.07459 0
M  V30 691 C 68.2186 2.64199 -2.25424 0
M  V30 692 C 67.1726 2.58484 -3.41131 0
M  V30 693 C 66.4986 3.97599 -3.57518 0
M  V30 694 C 67.7986 2.1413 -4.76388 0
M  V30 695 H 69.4926 0.968563 -2.83301 0
M  V30 696 H 67.0386 0.464479 -1.36303 0
M  V30 697 H 68.9916 3.38413 -2.51107 0
M  V30 698 H 67.7156 2.98032 -1.33583 0
M  V30 699 H 66.3746 1.86727 -3.15481 0
M  V30 700 H 66.0226 4.28723 -2.6307 0
M  V30 701 H 65.7226 3.94659 -4.35337 0
M  V30 702 H 67.2466 4.7349 -3.85538 0
M  V30 703 H 68.6606 2.78083 -5.01341 0
M  V30 704 H 67.0576 2.2227 -5.57419 0
M  V30 705 H 68.1276 1.09331 -4.72414 0
M  V30 706 N 69.4707 1.49531 0.497807 0
M  V30 707 C 70.6987 1.62893 1.27567 0
M  V30 708 C 71.1137 0.301585 1.86376 0
M  V30 709 O 70.4707 -0.713335 1.67982 0
M  V30 710 C 70.5217 2.70013 2.40364 0
M  V30 711 O 70.2427 3.976 1.83972 0
M  V30 712 C 71.7437 2.94109 3.31685 0
M  V30 713 H 68.9637 0.548298 0.386794 0
M  V30 714 H 71.5077 1.95584 0.597245 0
M  V30 715 H 69.6627 2.40092 3.04031 0
M  V30 716 H 70.0767 4.56631 2.58047 0
M  V30 717 H 71.5507 3.72788 4.07104 0
M  V30 718 H 72.0277 2.04147 3.88871 0
M  V30 719 H 72.6337 3.2546 2.73781 0
M  V30 720 N 70.9488 -0.749086 1.3866 0
M  V30 721 C 71.8788 -1.8764 1.38973 0
M  V30 722 C 72.8598 -1.68178 0.255004 0
M  V30 723 O 74.0448 -1.88704 0.458754 0
M  V30 724 C 71.1748 -3.25222 1.21851 0
M  V30 725 C 70.1288 -3.59295 2.32575 0
M  V30 726 C 69.4548 -4.95663 2.00555 0
M  V30 727 C 70.7548 -3.63709 3.7485 0
M  V30 728 H 72.4488 -1.87635 2.3331 0
M  V30 729 H 69.9948 -0.901329 1.12303 0
M  V30 730 H 71.9478 -4.03746 1.20695 0
M  V30 731 H 70.6718 -3.25719 0.239775 0
M  V30 732 H 69.3308 -2.83093 2.32925 0
M  V30 733 H 68.9788 -4.92724 1.01154 0
M  V30 734 H 68.6788 -5.19429 2.74714 0
M  V30 735 H 70.2028 -5.7656 2.01024 0
M  V30 736 H 71.6168 -4.32338 3.76506 0
M  V30 737 H 70.0138 -3.98986 4.48252 0
M  V30 738 H 71.0838 -2.63834 4.06841 0
M  V30 739 N 72.4269 -1.23603 -0.977757 0
M  V30 740 C 73.3569 -1.04401 -2.0886 0
M  V30 741 C 74.3379 0.0399052 -1.70053 0
M  V30 742 O 75.5229 -0.125246 -1.93796 0
M  V30 743 C 72.6529 -0.637269 -3.41403 0
M  V30 744 C 71.6069 -1.66883 -3.94124 0
M  V30 745 C 70.9329 -1.11745 -5.22893 0
M  V30 746 C 72.2329 -3.06247 -4.23096 0
M  V30 747 H 73.9269 -1.97316 -2.25182 0
M  V30 748 H 71.4729 -0.950096 -1.08209 0
M  V30 749 H 73.4259 -0.48998 -4.18542 0
M  V30 750 H 72.1499 0.327557 -3.24953 0
M  V30 751 H 70.8089 -1.80416 -3.19133 0
M  V30 752 H 70.4569 -0.143527 -5.02795 0
M  V30 753 H 70.1569 -1.80672 -5.59134 0
M  V30 754 H 71.6809 -0.982067 -6.02651 0
M  V30 755 H 73.0949 -2.96001 -4.90975 0
M  V30 756 H 71.4919 -3.72436 -4.70544 0
M  V30 757 H 72.5619 -3.55041 -3.30263 0
M  V30 758 N 73.905 1.17692 -1.04816 0
M  V30 759 C 74.852 2.21581 -0.645797 0
M  V30 760 C 75.822 1.62367 0.350159 0
M  V30 761 O 77.007 1.89254 0.242433 0
M  V30 762 C 74.147 3.45092 -0.0227568 0
M  V30 763 C 73.26 4.18613 -1.06709 0
M  V30 764 C 72.395 5.29602 -0.411767 0
M  V30 765 C 71.434 5.94904 -1.44067 0
M  V30 766 N 70.571 6.97414 -0.809781 0
M  V30 767 H 75.411 2.55353 -1.5362 0
M  V30 768 H 72.948 1.25438 -0.768364 0
M  V30 769 H 74.906 4.15679 0.35588 0
M  V30 770 H 73.536 3.11917 0.831122 0
M  V30 771 H 72.588 3.46779 -1.5636 0
M  V30 772 H 73.9 4.63293 -1.84827 0
M  V30 773 H 73.054 6.06696 0.0206623 0
M  V30 774 H 71.793 4.86045 0.401438 0
M  V30 775 H 70.798 5.16544 -1.88316 0
M  V30 776 H 72.023 6.40542 -2.25571 0
M  V30 777 H 69.969 6.55998 -0.0170186 0
M  V30 778 H 69.886 7.40386 -1.52856 0
M  V30 779 H 71.154 7.78463 -0.401999 0
M  V30 780 N 75.3831 0.828654 1.34056 0
M  V30 781 C 76.3131 0.269443 2.3194 0
M  V30 782 C 77.2941 -0.617247 1.58506 0
M  V30 783 O 78.4791 -0.542931 1.86456 0
M  V30 784 C 75.6091 -0.564793 3.42677 0
M  V30 785 C 74.5631 0.225241 4.27407 0
M  V30 786 C 73.8891 -0.7321 5.29664 0
M  V30 787 C 75.1891 1.43663 5.02154 0
M  V30 788 H 76.8831 1.08728 2.7896 0
M  V30 789 H 74.4291 0.524283 1.34117 0
M  V30 790 H 76.3821 -0.966233 4.10173 0
M  V30 791 H 75.1061 -1.41574 2.9432 0
M  V30 792 H 73.7651 0.608117 3.61521 0
M  V30 793 H 73.4131 -1.57916 4.77568 0
M  V30 794 H 73.1131 -0.20767 5.87233 0
M  V30 795 H 74.6371 -1.13128 6.00029 0
M  V30 796 H 76.0511 1.1089 5.62473 0
M  V30 797 H 74.4481 1.89711 5.69324 0
M  V30 798 H 75.5181 2.21181 4.31517 0
M  V30 799 N 76.8612 -1.46375 0.584142 0
M  V30 800 C 78.1092 -2.01978 0.0701287 0
M  V30 801 C 78.4302 -1.4579 -1.295 0
M  V30 802 O 77.7002 -0.64314 -1.85042 0
M  V30 803 H 76.2802 -0.746648 0.0229345 0
M  V30 804 H 78.9422 -1.79461 0.760245 0
M  V30 805 H 78.0382 -3.121 0.0022064 0
M  V30 806 N 78.3393 -0.321999 -1.54275 0
M  V30 807 C 79.2873 0.560206 -2.25753 0
M  V30 808 C 80.2813 1.11984 -1.27106 0
M  V30 809 O 81.4873 1.06806 -1.44888 0
M  V30 810 H 77.8623 0.199304 -0.725108 0
M  V30 811 H 79.8333 -0.0649365 -2.98329 0
M  V30 812 C 78.5823 1.71023 -3.02731 0
M  V30 813 H 77.9053 1.28885 -3.78456 0
M  V30 814 H 79.3453 2.30314 -3.55993 0
M  V30 815 C 77.8043 2.62692 -2.10938 0
M  V30 816 O 78.3343 3.64364 -1.6912 0
M  V30 817 N 76.5403 2.30891 -1.76459 0
M  V30 818 H 76.0873 1.48253 -2.10663 0
M  V30 819 H 76.0453 2.92487 -1.1532 0
M  V30 820 N 79.8174 1.5752 -0.0501392 0
M  V30 821 C 80.7494 2.08413 0.95376 0
M  V30 822 C 81.7624 1.01175 1.27544 0
M  V30 823 O 82.9514 1.28744 1.23641 0
M  V30 824 C 80.0514 2.51138 2.27559 0
M  V30 825 C 79.2244 3.817 2.13598 0
M  V30 826 C 78.2834 4.10749 3.28895 0
M  V30 827 O 77.3094 4.80685 3.04845 0
M  V30 828 N 78.5114 3.62579 4.5334 0
M  V30 829 H 81.2764 2.95165 0.519383 0
M  V30 830 H 78.8374 1.61327 0.136127 0
M  V30 831 H 80.8294 2.67648 3.03557 0
M  V30 832 H 79.3994 1.6964 2.62567 0
M  V30 833 H 78.6194 3.74782 1.22197 0
M  V30 834 H 79.9074 4.67201 2.01496 0
M  V30 835 H 79.3054 3.06039 4.75769 0
M  V30 836 H 77.8624 3.84329 5.26436 0
M  V30 837 N 81.2955 -0.223234 1.56011 0
M  V30 838 C 82.2055 -1.29766 1.95443 0
M  V30 839 C 83.2215 -1.51373 0.858028 0
M  V30 840 O 84.3975 -1.64536 1.16146 0
M  V30 841 C 81.4625 -2.62772 2.26167 0
M  V30 842 C 80.5235 -2.49482 3.49367 0
M  V30 843 C 79.7565 -3.76145 3.78616 0
M  V30 844 O 79.9795 -4.79087 3.09568 0
M  V30 845 O 78.9135 -3.73358 4.72109 0
M  V30 846 H 82.7395 -0.99309 2.87004 0
M  V30 847 H 80.3245 -0.425958 1.43199 0
M  V30 848 H 82.2065 -3.41327 2.47131 0
M  V30 849 H 80.8815 -2.92913 1.37781 0
M  V30 850 H 79.7885 -1.69133 3.33684 0
M  V30 851 H 81.1215 -2.2428 4.38131 0
M  V30 852 N 82.7736 -1.49793 -0.48987 0
M  V30 853 C 84.1846 -1.52914 -1.07118 0
M  V30 854 C 84.5356 -0.321738 -1.93544 0
M  V30 855 O 83.6606 0.567338 -2.08831 0
M  V30 856 C 84.2556 -2.771 -1.94938 0
M  V30 857 C 82.8146 -2.82963 -2.48212 0
M  V30 858 C 81.9616 -2.46972 -1.26096 0
M  V30 859 H 84.9126 -1.56329 -0.273289 0
M  V30 860 H 84.9336 -2.57892 -2.79771 0
M  V30 861 H 84.4456 -3.64959 -1.32009 0
M  V30 862 H 82.5466 -1.99411 -3.14748 0
M  V30 863 H 82.6596 -3.85406 -2.84603 0
M  V30 864 H 81.0236 -1.98994 -1.58976 0
M  V30 865 H 81.8066 -3.37118 -0.648581 0
M  V30 866 N 84.2517 0.741722 -1.39055 0
M  V30 867 C 85.4997 1.49818 -1.35643 0
M  V30 868 C 85.8207 1.94938 0.0491642 0
M  V30 869 O 85.0907 1.68505 0.999141 0
M  V30 870 H 83.6707 0.555755 -0.499144 0
M  V30 871 H 86.3327 0.880957 -1.73854 0
M  V30 872 H 85.4287 2.38348 -2.01486 0
M  V30 873 N 85.7298 1.2412 0.971189 0
M  V30 874 C 86.9778 1.07668 1.71032 0
M  V30 875 C 87.2988 -0.385797 1.91146 0
M  V30 876 O 86.5688 -1.27569 1.4867 0
M  V30 877 H 85.1488 0.395429 0.633755 0
M  V30 878 H 87.8108 1.55984 1.16855 0
M  V30 879 H 86.9068 1.57195 2.69622 0
M  V30 880 N 87.2079 -1.17134 1.05439 0
M  V30 881 C 88.1399 -2.2078 0.615539 0
M  V30 882 C 89.1529 -1.59584 -0.322001 0
M  V30 883 O 90.3419 -1.78133 -0.114344 0
M  V30 884 C 87.4419 -3.38691 -0.118938 0
M  V30 885 C 86.6149 -4.29454 0.829924 0
M  V30 886 C 85.6739 -5.26024 0.136258 0
M  V30 887 O 84.6999 -5.63952 0.77115 0
M  V30 888 N 85.9019 -5.69487 -1.1254 0
M  V30 889 H 88.6669 -2.59052 1.50705 0
M  V30 890 H 86.2279 -1.32058 0.936603 0
M  V30 891 H 88.2199 -4.00329 -0.593179 0
M  V30 892 H 86.7899 -2.98996 -0.91215 0
M  V30 893 H 86.0099 -3.65211 1.48373 0
M  V30 894 H 87.2979 -4.86984 1.47392 0
M  V30 895 H 86.6959 -5.4075 -1.6615 0
M  V30 896 H 85.2529 -6.33257 -1.54366 0
M  V30 897 N 88.686 -0.835752 -1.33615 0
M  V30 898 C 89.914 -0.443344 -2.02094 0
M  V30 899 C 90.329 0.954522 -1.62894 0
M  V30 900 O 89.686 1.61982 -0.840723 0
M  V30 901 C 89.737 -0.550775 -3.5728 0
M  V30 902 O 89.458 -1.89356 -3.95065 0
M  V30 903 C 90.959 -0.154919 -4.43029 0
M  V30 904 H 88.179 -0.176359 -0.647409 0
M  V30 905 H 90.723 -1.12746 -1.70612 0
M  V30 906 H 88.878 0.0853997 -3.87306 0
M  V30 907 H 89.292 -1.87687 -4.89769 0
M  V30 908 H 90.766 -0.281144 -5.51284 0
M  V30 909 H 91.243 0.902863 -4.2982 0
M  V30 910 H 91.849 -0.765404 -4.18356 0
M  V30 911 N 90.1641 1.46063 -0.591896 0
M  V30 912 C 91.1271 2.28854 0.125973 0
M  V30 913 C 92.1271 1.38903 0.810107 0
M  V30 914 O 93.3171 1.61186 0.66066 0
M  V30 915 C 90.4491 3.19526 1.1881 0
M  V30 916 H 91.6421 2.93802 -0.601717 0
M  V30 917 H 89.1951 1.52325 -0.350254 0
M  V30 918 H 89.9301 2.59345 1.94707 0
M  V30 919 H 89.7151 3.85766 0.701936 0
M  V30 920 H 91.2051 3.81817 1.69132 0
M  V30 921 N 91.6422 0.330177 1.54103 0
M  V30 922 C 92.5722 -0.525353 2.27513 0
M  V30 923 C 93.5532 -1.11383 1.2856 0
M  V30 924 O 94.7382 -1.13773 1.57383 0
M  V30 925 C 91.8682 -1.6831 3.03791 0
M  V30 926 C 90.8222 -1.2236 4.10137 0
M  V30 927 C 90.1482 -2.46882 4.74293 0
M  V30 928 C 91.4482 -0.333697 5.21233 0
M  V30 929 H 93.1422 0.087013 2.99274 0
M  V30 930 H 90.6882 0.0432893 1.43935 0
M  V30 931 H 92.6412 -2.28795 3.5388 0
M  V30 932 H 91.3652 -2.32216 2.29659 0
M  V30 933 H 90.0242 -0.64165 3.60941 0
M  V30 934 H 89.6722 -3.09165 3.96769 0
M  V30 935 H 89.3722 -2.16825 5.46133 0
M  V30 936 H 90.8962 -3.08117 5.27159 0
M  V30 937 H 92.3102 -0.845013 5.67038 0
M  V30 938 H 90.7072 -0.125612 5.99969 0
M  V30 939 H 91.7772 0.633724 4.80741 0
M  V30 940 N 93.1203 -1.57491 0.0584922 0
M  V30 941 C 94.0673 -2.11958 -0.913376 0
M  V30 942 C 95.0373 -1.02875 -1.30407 0
M  V30 943 O 96.2223 -1.30464 -1.39226 0
M  V30 944 C 93.3623 -2.67497 -2.18035 0
M  V30 945 C 92.4753 -3.90691 -1.84349 0
M  V30 946 C 91.6103 -4.3452 -3.05559 0
M  V30 947 C 90.6493 -5.50395 -2.67827 0
M  V30 948 N 89.7863 -5.89244 -3.81754 0
M  V30 949 H 94.6263 -2.94704 -0.442017 0
M  V30 950 H 92.1633 -1.45643 -0.206545 0
M  V30 951 H 94.1213 -2.978 -2.92183 0
M  V30 952 H 92.7513 -1.87537 -2.62735 0
M  V30 953 H 91.8033 -3.66934 -1.00319 0
M  V30 954 H 93.1153 -4.7489 -1.5258 0
M  V30 955 H 92.2693 -4.66414 -3.87998 0
M  V30 956 H 91.0083 -3.49147 -3.40511 0
M  V30 957 H 90.0133 -5.18165 -1.83806 0
M  V30 958 H 91.2383 -6.3749 -2.34059 0
M  V30 959 H 89.1843 -5.06823 -4.16493 0
M  V30 960 H 89.1013 -6.68151 -3.53708 0
M  V30 961 H 90.3693 -6.25756 -4.64811 0
M  V30 962 N 94.5984 0.214957 -1.56127 0
M  V30 963 C 95.8234 0.95924 -1.83884 0
M  V30 964 C 96.2484 1.7689 -0.639644 0
M  V30 965 O 95.6064 1.76566 0.411601 0
M  V30 966 C 95.6544 1.84723 -3.09693 0
M  V30 967 O 94.7584 2.94346 -2.8885 0
M  V30 968 H 94.0994 0.27125 -0.606069 0
M  V30 969 H 96.6294 0.226276 -2.03345 0
M  V30 970 H 96.6394 2.25576 -3.39969 0
M  V30 971 H 95.3144 1.25218 -3.96602 0
M  V30 972 H 93.8914 2.57391 -2.69823 0
M  V30 973 N 96.0765 1.50051 0.48192 0
M  V30 974 C 97.4875 1.5348 1.06305 0
M  V30 975 C 97.8385 0.331997 1.93371 0
M  V30 976 O 96.9635 -0.556256 2.09129 0
M  V30 977 C 97.5585 2.7813 1.93466 0
M  V30 978 C 96.1175 2.84275 2.46707 0
M  V30 979 C 95.2645 2.47637 1.24785 0
M  V30 980 H 98.2155 1.56472 0.264995 0
M  V30 981 H 98.2365 2.59372 2.78399 0
M  V30 982 H 97.7485 3.65654 1.30072 0
M  V30 983 H 95.8495 2.01077 3.13686 0
M  V30 984 H 95.9625 3.8691 2.82555 0
M  V30 985 H 94.3265 1.99835 1.57918 0
M  V30 986 H 95.1095 3.37457 0.630694 0
M  V30 987 N 97.5546 -0.734337 1.39446 0
M  V30 988 C 98.9656 -1.31264 1.32766 0
M  V30 989 C 99.3166 -1.96198 -0.00767497 0
M  V30 990 O 98.4416 -1.96346 -0.909796 0
M  V30 991 C 99.0366 -2.38682 2.4045 0
M  V30 992 C 97.5956 -2.92184 2.37288 0
M  V30 993 C 96.7426 -1.6576 2.22304 0
M  V30 994 H 99.6936 -0.531799 1.49525 0
M  V30 995 H 99.7146 -3.19087 2.07276 0
M  V30 996 H 99.2266 -1.91392 3.37625 0
M  V30 997 H 97.3276 -3.43752 1.43754 0
M  V30 998 H 97.4406 -3.45253 3.3217 0
M  V30 999 H 95.8046 -1.9012 1.69489 0
M  V30 1000 H 96.5876 -1.20521 3.21449 0
M  V30 1001 N 99.0327 -1.24633 -0.964593 0
M  V30 1002 C 100.281 -1.08573 -1.70459 0
M  V30 1003 C 100.602 0.375655 -1.91347 0
M  V30 1004 O 99.8717 1.26779 -1.49345 0
M  V30 1005 H 98.4517 -0.398784 -0.631649 0
M  V30 1006 H 101.114 -1.56601 -1.16026 0
M  V30 1007 H 100.21 -1.58623 -2.68785 0
M  V30 1008 N 100.511 1.16574 -1.06058 0
M  V30 1009 C 101.757 1.87324 -0.777022 0
M  V30 1010 C 102.09 1.81351 0.694645 0
M  V30 1011 O 101.365 1.22753 1.50871 0
M  V30 1012 C 101.648 3.36991 -1.26922 0
M  V30 1013 C 101.501 3.51667 -2.80447 0
M  V30 1014 C 102.82 4.3131 -0.87521 0
M  V30 1015 H 99.9388 0.680191 -0.28374 0
M  V30 1016 H 102.581 1.37036 -1.3161 0
M  V30 1017 H 100.731 3.79949 -0.81063 0
M  V30 1018 H 102.403 3.17664 -3.34495 0
M  V30 1019 H 100.646 2.93656 -3.19294 0
M  V30 1020 H 101.317 4.56766 -3.0995 0
M  V30 1021 H 103.793 3.9624 -1.27014 0
M  V30 1022 H 102.669 5.34545 -1.2471 0
M  V30 1023 H 102.93 4.41552 0.220071 0
M  V30 1024 N 101.989 0.842826 1.3317 0
M  V30 1025 C 103.229 0.446574 1.99462 0
M  V30 1026 C 103.593 -0.976818 1.65295 0
M  V30 1027 O 104.794 -1.477 2.24584 0
M  V30 1028 C 103.065 0.665353 3.51152 0
M  V30 1029 S 104.624 0.364911 4.3728 0
M  V30 1030 H 101.442 0.167803 0.690915 0
M  V30 1031 H 104.044 1.09297 1.62094 0
M  V30 1032 H 102.748 1.7006 3.73507 0
M  V30 1033 H 102.279 0.00494568 3.934 0
M  V30 1034 H 104.294 -0.813761 4.89482 0
M  V30 1035 N 103.467 -1.45747 0.599634 0
M  V30 1036 C 104.692 -2.07178 0.0960198 0
M  V30 1037 C 105.117 -1.44268 -1.207 0
M  V30 1038 O 104.475 -0.532503 -1.73303 0
M  V30 1039 C 104.523 -3.60579 -0.0385348 0
M  V30 1040 O 103.627 -3.97713 -1.0908 0
M  V30 1041 H 102.968 -0.660251 0.0704593 0
M  V30 1042 H 105.498 -1.87124 0.827385 0
M  V30 1043 H 105.508 -4.07298 -0.239304 0
M  V30 1044 H 104.183 -4.05756 0.912947 0
M  V30 1045 H 102.76 -3.62678 -0.867135 0
M  V30 1046 N 104.945 -0.338344 -1.53925 0
M  V30 1047 C 106.361 0.0137736 -1.59594 0
M  V30 1048 C 106.561 1.49186 -1.35447 0
M  V30 1049 O 105.617 2.24987 -1.14616 0
M  V30 1050 C 106.93 -0.41773 -2.97784 0
M  V30 1051 C 108.478 -0.369633 -3.1081 0
M  V30 1052 C 108.953 -0.776524 -4.51369 0
M  V30 1053 N 110.444 -0.730506 -4.57403 0
M  V30 1054 C 111.179 -1.01736 -5.64303 0
M  V30 1055 N 110.675 -1.3721 -6.79077 0
M  V30 1056 N 112.468 -0.941942 -5.54151 0
M  V30 1057 H 104.619 -1.3012 -1.67876 0
M  V30 1058 H 106.882 -0.530082 -0.78595 0
M  V30 1059 H 106.588 -1.44811 -3.20504 0
M  V30 1060 H 106.462 0.209729 -3.76616 0
M  V30 1061 H 108.849 0.651568 -2.87817 0
M  V30 1062 H 108.93 -1.03223 -2.34049 0
M  V30 1063 H 108.574 -1.79571 -4.75096 0
M  V30 1064 H 108.504 -0.0914649 -5.26521 0
M  V30 1065 H 110.995 -0.468783 -3.74981 0
M  V30 1066 H 111.308 -1.57597 -7.5656 0
M  V30 1067 H 109.653 -1.4105 -6.80536 0
M  V30 1068 H 112.844 -0.664184 -4.63364 0
M  V30 1069 H 113.017 -1.16884 -6.37371 0
M  V30 1070 N 106.423 1.57458 -0.0668435 0
M  V30 1071 C 107.7 1.8469 0.644132 0
M  V30 1072 C 108.08 0.958343 1.88093 0
M  V30 1073 O 107.428 0.0233579 2.28488 0
M  V30 1074 C 107.638 3.34767 0.986509 0
M  V30 1075 C 108.986 4.02159 1.36212 0
M  V30 1076 O 110.01 3.39484 1.07839 0
M  V30 1077 O 108.869 5.12694 1.89227 0
M  V30 1078 H 105.963 0.762816 0.319437 0
M  V30 1079 H 108.509 1.6942 -0.0973986 0
M  V30 1080 H 107.281 3.91151 0.107883 0
M  V30 1081 H 106.904 3.55281 1.78497 0
M  V30 1082 N 107.901 -0.206675 1.56239 0
M  V30 1083 C 109.312 -0.772383 1.69974 0
M  V30 1084 C 109.663 -1.84353 0.671436 0
M  V30 1085 O 108.788 -2.15695 -0.174491 0
M  V30 1086 C 109.383 -1.40779 3.08167 0
M  V30 1087 C 107.942 -1.92072 3.23706 0
M  V30 1088 C 107.089 -0.786347 2.65917 0
M  V30 1089 H 110.04 0.0182223 1.5869 0
M  V30 1090 H 110.061 -2.27696 3.04852 0
M  V30 1091 H 109.573 -0.627958 3.82986 0
M  V30 1092 H 107.674 -2.7281 2.53782 0
M  V30 1093 H 107.787 -2.09046 4.31087 0
M  V30 1094 H 106.151 -1.1976 2.24788 0
M  V30 1095 H 106.934 -0.0189416 3.43295 0
M  V30 1096 N 109.379 -1.50304 -0.473955 0
M  V30 1097 C 110.607 -1.64902 -1.24959 0
M  V30 1098 C 111.022 -0.331198 -1.85872 0
M  V30 1099 O 110.379 0.68652 -1.69095 0
M  V30 1100 C 110.43 -2.73803 -2.36038 0
M  V30 1101 O 110.151 -4.00477 -1.77624 0
M  V30 1102 C 111.652 -2.99349 -3.26964 0
M  V30 1103 H 108.872 -0.554383 -0.378022 0
M  V30 1104 H 111.416 -1.9651 -0.566054 0
M  V30 1105 H 109.571 -2.44898 -3.00173 0
M  V30 1106 H 109.985 -4.60678 -2.5075 0
M  V30 1107 H 111.459 -3.79217 -4.01121 0
M  V30 1108 H 111.936 -2.10307 -3.85574 0
M  V30 1109 H 112.542 -3.29774 -2.68569 0
M  V30 1110 N 110.857 0.726932 -1.39834 0
M  V30 1111 C 112.268 1.30558 -1.3346 0
M  V30 1112 C 112.619 1.962 -0.00273003 0
M  V30 1113 O 111.744 1.96826 0.899371 0
M  V30 1114 C 112.339 2.37404 -2.41713 0
M  V30 1115 C 110.898 2.90921 -2.38835 0
M  V30 1116 C 110.045 1.64578 -2.2318 0
M  V30 1117 H 112.996 0.523862 -1.49804 0
M  V30 1118 H 113.017 3.17984 -2.08966 0
M  V30 1119 H 112.529 1.89599 -3.38635 0
M  V30 1120 H 110.63 3.42985 -1.45575 0
M  V30 1121 H 110.743 3.43487 -3.33997 0
M  V30 1122 H 109.107 1.89219 -1.70494 0
M  V30 1123 H 109.89 1.18814 -3.22084 0
M  V30 1124 N 112.336 1.25143 0.95797 0
M  V30 1125 C 113.246 1.06968 2.08794 0
M  V30 1126 C 114.262 0.00773911 1.73998 0
M  V30 1127 O 115.438 0.207972 2.00323 0
M  V30 1128 C 112.503 0.68691 3.39827 0
M  V30 1129 C 111.564 1.82641 3.88511 0
M  V30 1130 C 110.797 1.46181 5.1329 0
M  V30 1131 O 111.02 0.355971 5.69288 0
M  V30 1132 O 109.954 2.29085 5.566 0
M  V30 1133 H 113.78 2.01723 2.27027 0
M  V30 1134 H 111.365 1.04051 1.07209 0
M  V30 1135 H 113.247 0.485417 4.18595 0
M  V30 1136 H 111.922 -0.231417 3.22872 0
M  V30 1137 H 110.829 2.08274 3.10762 0
M  V30 1138 H 112.162 2.72386 4.09959 0
M  V30 1139 N 113.814 -1.1601 1.06675 0
M  V30 1140 C 114.746 -2.20115 0.638921 0
M  V30 1141 C 115.759 -1.59916 -0.305057 0
M  V30 1142 O 116.948 -1.78245 -0.0954446 0
M  V30 1143 C 114.048 -3.38798 -0.0830083 0
M  V30 1144 C 113.221 -4.2855 0.875426 0
M  V30 1145 C 112.28 -5.25849 0.192042 0
M  V30 1146 O 111.306 -5.63102 0.830921 0
M  V30 1147 N 112.508 -5.70648 -1.06493 0
M  V30 1148 H 115.273 -2.57439 1.53444 0
M  V30 1149 H 112.834 -1.31057 0.950557 0
M  V30 1150 H 114.826 -4.00936 -0.550685 0
M  V30 1151 H 113.396 -2.99947 -0.880386 0
M  V30 1152 H 112.616 -3.63617 1.52238 0
M  V30 1153 H 113.904 -4.85393 1.52548 0
M  V30 1154 H 113.302 -5.42482 -1.60405 0
M  V30 1155 H 111.859 -6.34859 -1.47641 0
M  V30 1156 N 115.292 -0.849877 -1.32721 0
M  V30 1157 C 116.52 -0.464754 -2.01613 0
M  V30 1158 C 116.935 0.937191 -1.63897 0
M  V30 1159 O 116.292 1.61081 -0.857856 0
M  V30 1160 C 116.343 -0.588638 -3.56675 0
M  V30 1161 O 116.064 -1.93535 -3.93034 0
M  V30 1162 C 117.565 -0.2019 -4.4284 0
M  V30 1163 H 114.785 -0.183215 -0.645502 0
M  V30 1164 H 117.329 -1.1455 -1.69407 0
M  V30 1165 H 115.484 0.0443159 -3.87375 0
M  V30 1166 H 115.898 -1.92871 -4.87751 0
M  V30 1167 H 117.372 -0.339599 -5.50954 0
M  V30 1168 H 117.849 0.857224 -4.30753 0
M  V30 1169 H 118.455 -0.809733 -4.17521 0
M  V30 1170 N 116.77 1.45427 -0.607355 0
M  V30 1171 C 117.72 2.27612 0.133038 0
M  V30 1172 C 118.704 1.37307 0.838785 0
M  V30 1173 O 119.896 1.61299 0.728813 0
M  V30 1174 C 117.025 3.24173 1.12991 0
M  V30 1175 C 116.111 4.21965 0.425011 0
M  V30 1176 N 116.502 5.02982 -0.533217 0
M  V30 1177 C 114.8 4.40899 0.672593 0
M  V30 1178 C 115.501 5.73931 -0.947518 0
M  V30 1179 N 114.477 5.42819 -0.291321 0
M  V30 1180 H 118.279 2.87649 -0.602935 0
M  V30 1181 H 115.793 1.56576 -0.431006 0
M  V30 1182 H 117.79 3.81783 1.67473 0
M  V30 1183 H 116.45 2.65696 1.86644 0
M  V30 1184 H 117.461 5.09843 -0.90995 0
M  V30 1185 H 114.138 3.93547 1.39382 0
M  V30 1186 H 115.528 6.49037 -1.73782 0
M  V30 1187 N 118.248 0.346503 1.53744 0
M  V30 1188 C 119.664 -0.00530975 1.59599 0
M  V30 1189 C 119.864 -1.48465 1.36236 0
M  V30 1190 O 118.92 -2.24376 1.15808 0
M  V30 1191 C 120.233 0.433516 2.97559 0
M  V30 1192 C 121.781 0.386111 3.10609 0
M  V30 1193 C 122.256 0.800451 4.50951 0
M  V30 1194 N 123.747 0.754753 4.5701 0
M  V30 1195 C 124.482 1.04727 5.63755 0
M  V30 1196 N 123.978 1.4081 6.7834 0
M  V30 1197 N 125.771 0.971316 5.53644 0
M  V30 1198 H 117.922 1.31009 1.67184 0
M  V30 1199 H 120.185 0.534242 0.783128 0
M  V30 1200 H 119.891 1.46509 3.19731 0
M  V30 1201 H 119.765 -0.189753 3.76722 0
M  V30 1202 H 122.152 -0.636295 2.88158 0
M  V30 1203 H 122.233 1.04462 2.33498 0
M  V30 1204 H 121.877 1.82088 4.74137 0
M  V30 1205 H 121.807 0.119386 5.26465 0
M  V30 1206 H 124.298 0.488662 3.74727 0
M  V30 1207 H 124.611 1.61607 7.55714 0
M  V30 1208 H 122.956 1.44657 6.79779 0
M  V30 1209 H 126.147 0.688748 4.63005 0
M  V30 1210 H 126.32 1.20263 6.36742 0
M  V30 1211 N 119.726 -1.57421 0.075193 0
M  V30 1212 C 120.656 -2.15942 -0.888324 0
M  V30 1213 C 121.637 -1.08737 -1.30806 0
M  V30 1214 O 122.822 -1.36787 -1.37851 0
M  V30 1215 C 119.952 -2.72379 -2.1547 0
M  V30 1216 C 118.906 -3.8478 -1.87425 0
M  V30 1217 C 118.232 -4.27834 -3.20721 0
M  V30 1218 C 119.532 -5.08869 -1.17684 0
M  V30 1219 H 121.226 -2.96705 -0.400799 0
M  V30 1220 H 118.772 -1.42723 -0.191342 0
M  V30 1221 H 120.725 -3.11965 -2.83295 0
M  V30 1222 H 119.449 -1.88841 -2.6647 0
M  V30 1223 H 118.108 -3.45703 -1.22004 0
M  V30 1224 H 117.756 -3.41214 -3.6957 0
M  V30 1225 H 117.456 -5.03605 -3.02746 0
M  V30 1226 H 118.98 -4.70039 -3.89738 0
M  V30 1227 H 120.394 -5.4575 -1.75584 0
M  V30 1228 H 118.791 -5.8994 -1.09956 0
M  V30 1229 H 119.861 -4.84648 -0.156453 0
M  V30 1230 N 121.204 0.198386 -1.56346 0
M  V30 1231 C 122.167 1.22952 -1.93431 0
M  V30 1232 C 123.167 1.38611 -0.815092 0
M  V30 1233 O 124.357 1.36479 -1.08255 0
M  V30 1234 C 121.489 2.59946 -2.20546 0
M  V30 1235 H 122.682 0.912626 -2.85677 0
M  V30 1236 H 120.235 0.43977 -1.49986 0
M  V30 1237 H 120.97 2.96696 -1.30927 0
M  V30 1238 H 120.755 2.49953 -3.02102 0
M  V30 1239 H 122.245 3.3431 -2.50253 0
M  V30 1240 N 122.682 1.50554 0.465978 0
M  V30 1241 C 124.098 1.38093 0.800154 0
M  V30 1242 C 124.298 0.440988 1.96615 0
M  V30 1243 O 123.354 -0.114499 2.5224 0
M  V30 1244 C 124.667 2.79565 1.10742 0
M  V30 1245 C 126.215 2.88516 1.21357 0
M  V30 1246 C 126.69 4.30833 1.55393 0
M  V30 1247 N 128.181 4.33807 1.62375 0
M  V30 1248 C 128.916 5.40927 1.90225 0
M  V30 1249 N 128.412 6.58247 2.16062 0
M  V30 1250 N 130.205 5.28376 1.9177 0
M  V30 1251 H 122.356 2.10237 -0.302366 0
M  V30 1252 H 124.619 0.945203 -0.0727746 0
M  V30 1253 H 124.325 3.50208 0.323661 0
M  V30 1254 H 124.199 3.17125 2.04234 0
M  V30 1255 H 126.586 2.1809 1.98799 0
M  V30 1256 H 126.667 2.54492 0.258321 0
M  V30 1257 H 126.311 5.01799 0.784889 0
M  V30 1258 H 126.241 4.62347 2.52076 0
M  V30 1259 H 128.732 3.49212 1.44427 0
M  V30 1260 H 129.045 7.3569 2.36601 0
M  V30 1261 H 127.39 6.61413 2.13444 0
M  V30 1262 H 130.581 4.35715 1.71085 0
M  V30 1263 H 130.754 6.11944 2.13139 0
M  V30 1264 N 124.16 -0.719506 1.40217 0
M  V30 1265 C 125.123 -1.8153 1.39927 0
M  V30 1266 C 126.123 -1.58095 0.293723 0
M  V30 1267 O 127.313 -1.65209 0.552429 0
M  V30 1268 C 124.445 -3.19561 1.18716 0
M  V30 1269 H 125.638 -1.83186 2.37451 0
M  V30 1270 H 123.191 -0.924746 1.26008 0
M  V30 1271 H 123.926 -3.23557 0.219366 0
M  V30 1272 H 123.711 -3.3797 1.98793 0
M  V30 1273 H 125.201 -3.99598 1.21291 0
M  V30 1274 N 125.638 -1.25649 -0.95132 0
M  V30 1275 C 126.571 -1.00644 -2.04807 0
M  V30 1276 C 127.549 0.0654271 -1.62468 0
M  V30 1277 O 128.733 -0.074911 -1.88351 0
M  V30 1278 C 125.86 -0.522052 -3.34653 0
M  V30 1279 C 124.906 -1.58495 -3.95957 0
M  V30 1280 S 125.739 -3.17108 -4.31512 0
M  V30 1281 C 126.895 -2.70412 -5.64471 0
M  V30 1282 H 127.128 -1.93508 -2.25703 0
M  V30 1283 H 124.661 -1.09216 -1.09139 0
M  V30 1284 H 126.619 -0.24923 -4.09743 0
M  V30 1285 H 125.28 0.386146 -3.11717 0
M  V30 1286 H 124.473 -1.1968 -4.89584 0
M  V30 1287 H 124.075 -1.80862 -3.2736 0
M  V30 1288 H 126.367 -2.14245 -6.42733 0
M  V30 1289 H 127.31 -3.62693 -6.08161 0
M  V30 1290 H 127.718 -2.10302 -5.23864 0
M  V30 1291 N 127.117 1.15442 -1.07289 0
M  V30 1292 C 128.05 2.19135 -0.636798 0
M  V30 1293 C 129.028 1.58884 0.34562 0
M  V30 1294 O 130.212 1.86805 0.252195 0
M  V30 1295 C 127.339 3.38638 0.0650014 0
M  V30 1296 C 126.385 4.17412 -0.87576 0
M  V30 1297 S 127.218 4.79882 -2.37642 0
M  V30 1298 C 128.374 6.02753 -1.6864 0
M  V30 1299 H 128.607 2.55787 -1.51526 0
M  V30 1300 H 126.14 1.26394 -0.886793 0
M  V30 1301 H 128.098 4.07873 0.463664 0
M  V30 1302 H 126.759 3.00331 0.919801 0
M  V30 1303 H 125.952 5.02909 -0.33143 0
M  V30 1304 H 125.554 3.53722 -1.21478 0
M  V30 1305 H 127.846 6.70113 -0.997753 0
M  V30 1306 H 128.789 6.61754 -2.51967 0
M  V30 1307 H 129.197 5.52355 -1.16465 0
M  V30 1308 N 128.595 0.856903 1.32268 0
M  V30 1309 C 129.558 0.308171 2.27119 0
M  V30 1310 C 130.558 -0.533421 1.51695 0
M  V30 1311 O 131.748 -0.344607 1.70757 0
M  V30 1312 C 128.88 -0.563757 3.36206 0
M  V30 1313 H 130.073 1.14535 2.77167 0
M  V30 1314 H 127.626 0.631421 1.42978 0
M  V30 1315 H 128.361 -1.42266 2.91429 0
M  V30 1316 H 128.146 0.0386749 3.92081 0
M  V30 1317 H 129.636 -0.940386 4.06874 0
M  V30 1318 N 130.073 -1.45103 0.615059 0
M  V30 1319 C 131.32 -2.02183 0.113179 0
M  V30 1320 C 131.648 -1.48249 -1.25906 0
M  V30 1321 O 130.903 -0.650265 -1.84581 0
M  V30 1322 C 131.202 -3.57386 0.0318797 0
M  V30 1323 C 130.868 -4.30505 1.34077 0
M  V30 1324 C 129.53 -4.50197 1.69929 0
M  V30 1325 C 131.882 -4.72238 2.20546 0
M  V30 1326 C 129.21 -5.08881 2.91988 0
M  V30 1327 C 131.562 -5.32272 3.41861 0
M  V30 1328 C 130.226 -5.50187 3.77956 0
M  V30 1329 H 129.496 -0.739842 0.0414151 0
M  V30 1330 H 132.143 -1.74073 0.798168 0
M  V30 1331 H 130.448 -3.84817 -0.736409 0
M  V30 1332 H 132.145 -3.99264 -0.372712 0
M  V30 1333 H 128.735 -4.15496 1.05173 0
M  V30 1334 H 132.919 -4.56751 1.94146 0
M  V30 1335 H 128.175 -5.20939 3.2005 0
M  V30 1336 H 132.349 -5.63563 4.09109 0
M  V30 1337 H 129.976 -5.95427 4.72622 0
M  V30 1338 N 131.551 -0.354651 -1.53558 0
M  V30 1339 C 132.779 0.239515 -2.05509 0
M  V30 1340 C 133.194 1.4333 -1.2289 0
M  V30 1341 O 132.551 1.80538 -0.266899 0
M  V30 1342 C 132.602 0.643719 -3.55723 0
M  V30 1343 O 132.323 -0.502602 -4.35207 0
M  V30 1344 C 133.824 1.29743 -4.23889 0
M  V30 1345 H 131.044 0.0442697 -0.669538 0
M  V30 1346 H 133.588 -0.509856 -1.98042 0
M  V30 1347 H 131.743 1.34302 -3.63376 0
M  V30 1348 H 132.157 -0.178172 -5.24197 0
M  V30 1349 H 133.631 1.53091 -5.30346 0
M  V30 1350 H 134.108 2.25441 -3.76926 0
M  V30 1351 H 134.714 0.639865 -4.20459 0
M  V30 1352 N 133.029 1.57378 -0.0835403 0
M  V30 1353 C 133.992 2.12252 0.864959 0
M  V30 1354 C 134.992 1.04916 1.21858 0
M  V30 1355 O 136.182 1.30853 1.14991 0
M  V30 1356 C 133.314 2.63358 2.16461 0
M  V30 1357 H 134.507 2.97371 0.388676 0
M  V30 1358 H 132.06 1.55423 0.165317 0
M  V30 1359 H 132.795 1.81727 2.686 0
M  V30 1360 H 132.58 3.41826 1.92087 0
M  V30 1361 H 134.07 3.05847 2.84337 0
M  V30 1362 N 134.507 -0.190092 1.56449 0
M  V30 1363 C 135.784 -0.935886 1.71757 0
M  V30 1364 C 136.164 -2.01173 0.639726 0
M  V30 1365 O 135.512 -2.25827 -0.348502 0
M  V30 1366 C 135.722 -1.51775 3.1427 0
M  V30 1367 C 137.07 -1.99794 3.74656 0
M  V30 1368 O 138.094 -1.61607 3.1743 0
M  V30 1369 O 136.953 -2.70079 4.751 0
M  V30 1370 H 134.047 -0.439229 0.700719 0
M  V30 1371 H 136.593 -0.179395 1.68749 0
M  V30 1372 H 135.365 -0.742505 3.84191 0
M  V30 1373 H 134.988 -2.33894 3.21527 0
M  V30 1374 N 135.985 -1.50799 -0.457987 0
M  V30 1375 C 136.915 -1.73553 -1.5621 0
M  V30 1376 C 137.896 -0.584774 -1.59732 0
M  V30 1377 O 139.081 -0.825314 -1.7579 0
M  V30 1378 C 136.211 -1.84169 -2.94447 0
M  V30 1379 C 135.165 -2.99461 -3.0579 0
M  V30 1380 C 134.491 -2.95235 -4.45803 0
M  V30 1381 C 135.791 -4.39766 -2.81786 0
M  V30 1382 H 137.485 -2.66 -1.37421 0
M  V30 1383 H 135.031 -1.28002 -0.659662 0
M  V30 1384 H 136.984 -1.98672 -3.71628 0
M  V30 1385 H 135.708 -0.883545 -3.14422 0
M  V30 1386 H 134.367 -2.8463 -2.31044 0
M  V30 1387 H 134.015 -1.97239 -4.62715 0
M  V30 1388 H 133.715 -3.72642 -4.54326 0
M  V30 1389 H 135.239 -3.11803 -5.24987 0
M  V30 1390 H 136.653 -4.55054 -3.4871 0
M  V30 1391 H 135.05 -5.18722 -3.0174 0
M  V30 1392 H 136.12 -4.51229 -1.7754 0
M  V30 1393 N 137.463 0.71206 -1.40597 0
M  V30 1394 C 138.71 1.47197 -1.39065 0
M  V30 1395 C 139.038 1.94499 0.00583891 0
M  V30 1396 O 138.293 1.68752 0.99102 0
M  V30 1397 C 138.592 2.71039 -2.32965 0
M  V30 1398 C 138.258 2.42484 -3.80148 0
M  V30 1399 C 136.92 2.34406 -4.20247 0
M  V30 1400 C 139.272 2.18598 -4.73143 0
M  V30 1401 C 136.6 2.00516 -5.51371 0
M  V30 1402 C 138.952 1.8622 -6.0457 0
M  V30 1403 C 137.616 1.76626 -6.43708 0
M  V30 1404 H 136.886 0.538634 -0.508876 0
M  V30 1405 H 139.533 0.815325 -1.73276 0
M  V30 1406 H 137.838 3.41558 -1.91951 0
M  V30 1407 H 139.535 3.29138 -2.29061 0
M  V30 1408 H 136.125 2.49659 -3.4838 0
M  V30 1409 H 140.309 2.23793 -4.42979 0
M  V30 1410 H 135.565 1.91628 -5.80593 0
M  V30 1411 H 139.739 1.66752 -6.76141 0
M  V30 1412 H 137.366 1.50133 -7.45228 0
M  V30 1413 N 138.941 1.26152 0.944643 0
M  V30 1414 C 140.166 1.14363 1.7302 0
M  V30 1415 C 140.591 -0.29772 1.85729 0
M  V30 1416 O 139.949 -1.2157 1.34501 0
M  V30 1417 C 139.997 1.81378 3.11664 0
M  V30 1418 O 139.101 1.10022 3.97453 0
M  V30 1419 H 138.442 0.398694 0.53098 0
M  V30 1420 H 140.972 1.66906 1.18337 0
M  V30 1421 H 140.982 1.88064 3.62072 0
M  V30 1422 H 139.657 2.86237 3.0173 0
M  V30 1423 H 138.234 1.11287 3.55907 0
M  V30 1424 N 140.419 -1.14872 1.07899 0
M  V30 1425 C 141.349 -2.2193 0.725887 0
M  V30 1426 C 142.33 -1.67622 -0.28927 0
M  V30 1427 O 143.515 -1.93533 -0.160787 0
M  V30 1428 C 140.645 -3.47061 0.128856 0
M  V30 1429 C 139.599 -4.14363 1.07178 0
M  V30 1430 C 138.925 -5.33636 0.337229 0
M  V30 1431 C 140.225 -4.63492 2.40775 0
M  V30 1432 H 141.919 -2.51724 1.62097 0
M  V30 1433 H 139.465 -1.20991 0.780838 0
M  V30 1434 H 141.418 -4.21199 -0.130147 0
M  V30 1435 H 140.142 -3.16617 -0.80134 0
M  V30 1436 H 138.801 -3.42173 1.3158 0
M  V30 1437 H 138.449 -4.99449 -0.596606 0
M  V30 1438 H 138.149 -5.79609 0.965788 0
M  V30 1439 H 139.673 -6.10539 0.0861567 0
M  V30 1440 H 141.087 -5.2913 2.20669 0
M  V30 1441 H 139.484 -5.20148 2.99276 0
M  V30 1442 H 140.554 -3.78834 3.02676 0
M  V30 1443 N 141.898 -0.863906 -1.31812 0
M  V30 1444 C 143.144 -0.472535 -1.97218 0
M  V30 1445 C 143.477 0.971394 -1.68159 0
M  V30 1446 O 142.752 1.68309 -0.974798 0
M  V30 1447 C 143.035 -0.723054 -3.52766 0
M  V30 1448 C 142.888 -2.21608 -3.91421 0
M  V30 1449 C 144.207 -0.185522 -4.39709 0
M  V30 1450 H 141.326 -0.173158 -0.71637 0
M  V30 1451 H 143.968 -1.08403 -1.56041 0
M  V30 1452 H 142.118 -0.202577 -3.87971 0
M  V30 1453 H 143.79 -2.80334 -3.66347 0
M  V30 1454 H 142.033 -2.691 -3.40246 0
M  V30 1455 H 142.704 -2.34203 -4.99853 0
M  V30 1456 H 145.18 -0.630726 -4.11292 0
M  V30 1457 H 144.056 -0.390306 -5.47511 0
M  V30 1458 H 144.317 0.912229 -4.32586 0
M  V30 1459 N 143.376 1.44774 -0.622745 0
M  V30 1460 C 144.339 2.29069 0.0774015 0
M  V30 1461 C 145.339 1.4059 0.780461 0
M  V30 1462 O 146.529 1.62551 0.626322 0
M  V30 1463 C 143.661 3.21974 1.12006 0
M  V30 1464 H 144.854 2.92459 -0.663901 0
M  V30 1465 H 142.407 1.51548 -0.382486 0
M  V30 1466 H 143.142 2.63417 1.89162 0
M  V30 1467 H 142.927 3.87168 0.619951 0
M  V30 1468 H 144.417 3.85318 1.60995 0
M  V30 1469 N 144.854 0.36279 1.53368 0
M  V30 1470 C 145.786 -0.519668 2.23231 0
M  V30 1471 C 146.799 -1.04844 1.24546 0
M  V30 1472 O 147.988 -0.955296 1.50786 0
M  V30 1473 C 145.088 -1.72995 2.9142 0
M  V30 1474 C 144.261 -1.33316 4.16588 0
M  V30 1475 C 143.32 -2.40521 4.68013 0
M  V30 1476 O 142.346 -2.03027 5.3176 0
M  V30 1477 N 143.548 -3.72065 4.45587 0
M  V30 1478 H 146.313 0.078751 2.99597 0
M  V30 1479 H 143.874 0.187833 1.60807 0
M  V30 1480 H 145.866 -2.44184 3.22733 0
M  V30 1481 H 144.436 -2.2353 2.18525 0
M  V30 1482 H 143.656 -0.451236 3.91609 0
M  V30 1483 H 144.944 -1.04432 4.97967 0
M  V30 1484 H 144.342 -4.05304 3.94646 0
M  V30 1485 H 142.899 -4.39366 4.81457 0
M  V30 1486 N 146.332 -1.57332 0.0918853 0
M  V30 1487 C 147.56 -1.98574 -0.581048 0
M  V30 1488 C 147.975 -0.970903 -1.61923 0
M  V30 1489 O 147.332 0.0399054 -1.82456 0
M  V30 1490 C 147.383 -3.39872 -1.23164 0
M  V30 1491 O 147.104 -4.37469 -0.234989 0
M  V30 1492 C 148.605 -3.96099 -1.99049 0
M  V30 1493 H 145.825 -0.65261 -0.156018 0
M  V30 1494 H 148.369 -2.0379 0.170225 0
M  V30 1495 H 146.524 -3.35679 -1.93386 0
M  V30 1496 H 146.938 -5.19751 -0.70418 0
M  V30 1497 H 148.412 -4.97127 -2.39934 0
M  V30 1498 H 148.889 -3.3374 -2.85507 0
M  V30 1499 H 149.495 -4.03755 -1.3365 0
M  V30 1500 N 147.81 0.181792 -1.56548 0
M  V30 1501 C 149.035 0.920019 -1.85877 0
M  V30 1502 C 149.46 1.75494 -0.677021 0
M  V30 1503 O 148.818 1.77399 0.374056 0
M  V30 1504 C 148.866 1.78112 -3.13542 0
M  V30 1505 O 147.97 2.88152 -2.95029 0
M  V30 1506 H 147.311 0.258334 -0.611686 0
M  V30 1507 H 149.841 0.183092 -2.03779 0
M  V30 1508 H 149.851 2.18314 -3.44678 0
M  V30 1509 H 148.526 1.16777 -3.99169 0
M  V30 1510 H 147.103 2.51609 -2.75222 0
M  V30 1511 N 149.288 1.51039 0.449983 0
M  V30 1512 C 150.516 1.66869 1.2232 0
M  V30 1513 C 150.931 0.360727 1.85322 0
M  V30 1514 O 150.288 -0.659531 1.70166 0
M  V30 1515 C 150.339 2.77524 2.31652 0
M  V30 1516 O 150.06 4.03252 1.7123 0
M  V30 1517 C 151.561 3.04512 3.2216 0
M  V30 1518 H 148.781 0.560326 0.369155 0
M  V30 1519 H 151.325 1.97385 0.534719 0
M  V30 1520 H 149.48 2.49642 2.96239 0
M  V30 1521 H 149.894 4.64609 2.43389 0
M  V30 1522 H 151.368 3.85551 3.95038 0
M  V30 1523 H 151.845 2.16415 3.8218 0
M  V30 1524 H 152.451 3.34005 2.63288 0
M  V30 1525 N 150.766 -0.704594 1.40972 0
M  V30 1526 C 152.006 -1.47691 1.41304 0
M  V30 1527 C 152.37 -1.91992 0.0178582 0
M  V30 1528 O 153.571 -2.68599 -0.103996 0
M  V30 1529 C 151.842 -2.66254 2.38419 0
M  V30 1530 S 153.401 -3.55516 2.57204 0
M  V30 1531 H 150.219 -0.504808 0.500689 0
M  V30 1532 H 152.821 -0.822962 1.77335 0
M  V30 1533 H 151.525 -2.31897 3.38603 0
M  V30 1534 H 151.056 -3.3655 2.03711 0
M  V30 1535 H 153.071 -4.61115 1.83268 0
M  V30 1536 N 152.244 -1.26651 -0.937939 0
M  V30 1537 C 153.655 -1.1125 -1.49934 0
M  V30 1538 C 154.006 0.306077 -1.93798 0
M  V30 1539 O 153.131 1.19792 -1.80219 0
M  V30 1540 C 153.726 -2.01339 -2.72485 0
M  V30 1541 C 152.285 -1.90074 -3.24883 0
M  V30 1542 C 151.432 -1.94498 -1.97651 0
M  V30 1543 H 154.383 -1.39693 -0.753091 0
M  V30 1544 H 154.404 -1.56319 -3.46907 0
M  V30 1545 H 153.916 -3.04577 -2.40529 0
M  V30 1546 H 152.017 -0.897827 -3.61621 0
M  V30 1547 H 152.13 -2.75778 -3.9177 0
M  V30 1548 H 150.494 -1.38591 -2.13693 0
M  V30 1549 H 151.277 -2.99372 -1.68022 0
M  V30 1550 N 153.722 1.14298 -1.08507 0
M  V30 1551 C 154.67 2.21483 -0.710483 0
M  V30 1552 C 155.664 1.66998 0.284234 0
M  V30 1553 O 156.87 1.79401 0.146692 0
M  V30 1554 H 153.245 0.721578 -0.211729 0
M  V30 1555 H 155.216 2.50348 -1.62384 0
M  V30 1556 C 153.965 3.4743 -0.137007 0
M  V30 1557 H 153.288 3.89686 -0.893592 0
M  V30 1558 H 154.728 4.2391 0.0872789 0
M  V30 1559 C 153.187 3.17548 1.12538 0
M  V30 1560 O 153.717 3.35437 2.21009 0
M  V30 1561 N 151.923 2.71499 1.03617 0
M  V30 1562 H 151.47 2.57143 0.153403 0
M  V30 1563 H 151.428 2.51881 1.88158 0
M  V30 1564 N 155.201 0.870884 1.31352 0
M  V30 1565 C 156.131 0.343096 2.30966 0
M  V30 1566 C 157.112 -0.566507 1.60389 0
M  V30 1567 O 158.297 -0.483336 1.88089 0
M  V30 1568 C 155.427 -0.455487 3.443 0
M  V30 1569 C 154.381 0.361103 4.26474 0
M  V30 1570 C 153.707 -0.563221 5.31725 0
M  V30 1571 C 155.007 1.59566 4.97329 0
M  V30 1572 H 156.701 1.17548 2.75359 0
M  V30 1573 H 154.247 0.566686 1.32381 0
M  V30 1574 H 156.2 -0.83525 4.13039 0
M  V30 1575 H 154.924 -1.32139 2.98675 0
M  V30 1576 H 153.583 0.722825 3.59403 0
M  V30 1577 H 153.231 -1.42643 4.82351 0
M  V30 1578 H 152.931 -0.0207409 5.87596 0
M  V30 1579 H 154.455 -0.939808 6.03324 0
M  V30 1580 H 155.869 1.28728 5.58661 0
M  V30 1581 H 154.266 2.07728 5.63 0
M  V30 1582 H 155.336 2.34798 4.24262 0
M  V30 1583 N 156.679 -1.44442 0.630414 0
M  V30 1584 C 157.928 -2.01267 0.132073 0
M  V30 1585 C 158.241 -1.50172 -1.25331 0
M  V30 1586 O 159.447 -1.9912 -1.84562 0
M  V30 1587 C 157.903 -3.59422 0.185362 0
M  V30 1588 C 157.511 -4.19514 1.57201 0
M  V30 1589 C 159.255 -4.23724 -0.256553 0
M  V30 1590 C 157.162 -5.69891 1.58045 0
M  V30 1591 H 156.092 -0.752619 0.0456092 0
M  V30 1592 H 158.743 -1.65666 0.789106 0
M  V30 1593 H 157.125 -3.92318 -0.538759 0
M  V30 1594 H 158.299 -3.98156 2.31966 0
M  V30 1595 H 156.614 -3.67496 1.95795 0
M  V30 1596 H 159.211 -5.34019 -0.269767 0
M  V30 1597 H 159.554 -3.96013 -1.28372 0
M  V30 1598 H 160.087 -3.95629 0.41505 0
M  V30 1599 H 156.826 -6.02336 2.58597 0
M  V30 1600 H 156.346 -5.93373 0.875725 0
M  V30 1601 H 158.025 -6.33515 1.31408 0
M  V30 1602 N 158.157 -0.370918 -1.53173 0
M  V30 1603 C 159.087 0.464847 -2.28826 0
M  V30 1604 C 160.068 1.07936 -1.31468 0
M  V30 1605 O 161.253 1.0956 -1.60344 0
M  V30 1606 C 158.383 1.60196 -3.08147 0
M  V30 1607 C 157.337 1.11443 -4.13237 0
M  V30 1608 C 156.663 2.3422 -4.80672 0
M  V30 1609 C 157.963 0.195384 -5.21934 0
M  V30 1610 H 159.657 -0.166329 -2.98938 0
M  V30 1611 H 157.203 -0.0814359 -1.4377 0
M  V30 1612 H 159.156 2.19332 -3.59822 0
M  V30 1613 H 157.88 2.26045 -2.35735 0
M  V30 1614 H 156.539 0.545727 -3.62515 0
M  V30 1615 H 156.187 2.98537 -4.04827 0
M  V30 1616 H 155.887 2.02269 -5.51689 0
M  V30 1617 H 157.411 2.94032 -5.35143 0
M  V30 1618 H 158.825 0.694375 -5.69079 0
M  V30 1619 H 157.222 -0.0335027 -6.00091 0
M  V30 1620 H 158.292 -0.760961 -4.78892 0
M  V30 1621 N 159.635 1.57281 -0.100228 0
M  V30 1622 C 160.86 1.99302 0.573881 0
M  V30 1623 C 161.285 0.979059 1.60611 0
M  V30 1624 O 160.643 -0.0517803 1.81226 0
M  V30 1625 C 160.691 3.40274 1.19358 0
M  V30 1626 O 159.795 3.41676 2.30935 0
M  V30 1627 H 159.136 0.647944 0.145138 0
M  V30 1628 H 161.666 2.03779 -0.183156 0
M  V30 1629 H 161.676 3.78078 1.53365 0
M  V30 1630 H 160.351 4.13594 0.437385 0
M  V30 1631 H 158.928 3.15672 1.98509 0
M  V30 1632 N 161.113 -0.173488 1.56642 0
M  V30 1633 C 162.524 -0.736155 1.71574 0
M  V30 1634 C 162.875 -1.82888 0.710389 0
M  V30 1635 O 162 -2.16017 -0.1287 0
M  V30 1636 C 162.595 -1.34211 3.11083 0
M  V30 1637 C 161.154 -1.85162 3.27707 0
M  V30 1638 C 160.301 -0.729765 2.67525 0
M  V30 1639 H 163.252 0.0518786 1.58615 0
M  V30 1640 H 163.273 -2.21178 3.09613 0
M  V30 1641 H 162.785 -0.546579 3.84232 0
M  V30 1642 H 160.886 -2.67366 2.59512 0
M  V30 1643 H 160.999 -1.99855 4.35425 0
M  V30 1644 H 159.363 -1.14965 2.27278 0
M  V30 1645 H 160.146 0.0538806 3.43258 0
M  V30 1646 N 162.591 -1.51276 -0.441967 0
M  V30 1647 C 163.521 -1.752 -1.54361 0
M  V30 1648 C 164.502 -0.601682 -1.59103 0
M  V30 1649 O 165.687 -0.843913 -1.74905 0
M  V30 1650 C 162.817 -1.87282 -2.92477 0
M  V30 1651 C 161.771 -3.02687 -3.02596 0
M  V30 1652 C 161.097 -2.99947 -4.42647 0
M  V30 1653 C 162.397 -4.4273 -2.77106 0
M  V30 1654 H 164.091 -2.67442 -1.34592 0
M  V30 1655 H 161.637 -1.28694 -0.646048 0
M  V30 1656 H 163.59 -2.02602 -3.695 0
M  V30 1657 H 162.314 -0.916844 -3.13467 0
M  V30 1658 H 160.973 -2.87065 -2.28012 0
M  V30 1659 H 160.621 -2.02136 -4.60597 0
M  V30 1660 H 160.321 -3.77439 -4.50348 0
M  V30 1661 H 161.845 -3.17354 -5.2165 0
M  V30 1662 H 163.259 -4.58727 -3.43864 0
M  V30 1663 H 161.656 -5.21893 -2.96222 0
M  V30 1664 H 162.726 -4.53087 -1.72744 0
M  V30 1665 N 164.069 0.697108 -1.41344 0
M  V30 1666 C 165.294 1.49096 -1.44171 0
M  V30 1667 C 165.719 1.88038 -0.0481568 0
M  V30 1668 O 165.077 1.54525 0.948243 0
M  V30 1669 C 165.125 2.73088 -2.3549 0
M  V30 1670 O 164.229 3.70514 -1.81088 0
M  V30 1671 H 163.57 0.448801 -0.489361 0
M  V30 1672 H 166.1 0.856992 -1.85787 0
M  V30 1673 H 166.11 3.21413 -2.51312 0
M  V30 1674 H 164.785 2.44081 -3.36745 0
M  V30 1675 H 163.362 3.29441 -1.74708 0
M  V30 1676 N 165.547 1.27147 0.931209 0
M  V30 1677 C 166.793 1.13446 1.68101 0
M  V30 1678 C 167.126 -0.319628 1.91552 0
M  V30 1679 O 166.401 -1.23407 1.50336 0
M  V30 1680 C 166.684 1.91482 3.0497 0
M  V30 1681 C 166.537 3.44855 2.88782 0
M  V30 1682 C 167.856 1.71651 4.05246 0
M  V30 1683 H 164.975 0.413498 0.610072 0
M  V30 1684 H 167.617 1.56261 1.08086 0
M  V30 1685 H 165.767 1.55095 3.56199 0
M  V30 1686 H 167.439 3.9105 2.44698 0
M  V30 1687 H 165.682 3.71373 2.24198 0
M  V30 1688 H 166.353 3.94694 3.85902 0
M  V30 1689 H 168.829 2.0337 3.63015 0
M  V30 1690 H 167.705 2.28651 4.99009 0
M  V30 1691 H 167.966 0.663555 4.37092 0
M  V30 1692 N 167.025 -1.13721 1.09112 0
M  V30 1693 C 167.988 -2.17222 0.731241 0
M  V30 1694 C 168.988 -1.59035 -0.237566 0
M  V30 1695 O 170.178 -1.74192 -0.0161704 0
M  V30 1696 C 167.31 -3.40804 0.0808443 0
M  V30 1697 H 168.503 -2.50573 1.64783 0
M  V30 1698 H 166.056 -1.28493 0.889897 0
M  V30 1699 H 166.791 -3.1304 -0.847127 0
M  V30 1700 H 166.576 -3.84306 0.777896 0
M  V30 1701 H 168.066 -4.1731 -0.155657 0
M  V30 1702 N 168.503 -0.877838 -1.30888 0
M  V30 1703 C 169.433 -0.35534 -2.3078 0
M  V30 1704 C 170.414 0.557994 -1.60687 0
M  V30 1705 O 171.599 0.473355 -1.88343 0
M  V30 1706 C 168.729 0.437221 -3.44537 0
M  V30 1707 C 167.683 -0.383715 -4.26276 0
M  V30 1708 C 167.009 0.535014 -5.32017 0
M  V30 1709 C 168.309 -1.62201 -4.96476 0
M  V30 1710 H 170.003 -1.19007 -2.74732 0
M  V30 1711 H 167.549 -0.573698 -1.32078 0
M  V30 1712 H 169.502 0.813334 -4.13477 0
M  V30 1713 H 168.226 1.30553 -2.99372 0
M  V30 1714 H 166.885 -0.741874 -3.59015 0
M  V30 1715 H 166.533 1.40083 -4.831 0
M  V30 1716 H 166.233 -0.0104211 -5.87599 0
M  V30 1717 H 167.757 0.907799 -6.03814 0
M  V30 1718 H 169.171 -1.31689 -5.5797 0
M  V30 1719 H 167.568 -2.10711 -5.61891 0
M  V30 1720 H 168.638 -2.37044 -4.23011 0
M  V30 1721 N 169.982 1.44106 -0.638065 0
M  V30 1722 C 170.945 2.29138 0.0531013 0
M  V30 1723 C 171.945 1.41409 0.765506 0
M  V30 1724 O 173.135 1.63206 0.609046 0
M  V30 1725 C 170.267 3.23144 1.08584 0
M  V30 1726 H 171.46 2.91739 -0.694883 0
M  V30 1727 H 169.013 1.51134 -0.398538 0
M  V30 1728 H 169.748 2.65408 1.86357 0
M  V30 1729 H 169.533 3.87804 0.578852 0
M  V30 1730 H 171.023 3.87004 1.56899 0
M  V30 1731 N 171.46 0.379036 1.52974 0
M  V30 1732 C 172.39 -0.452706 2.29069 0
M  V30 1733 C 173.371 -1.07237 1.32039 0
M  V30 1734 O 174.556 -1.08708 1.60923 0
M  V30 1735 C 171.686 -1.5856 3.08992 0
M  V30 1736 C 170.64 -1.0925 4.13822 0
M  V30 1737 C 169.966 -2.31668 4.81907 0
M  V30 1738 C 171.266 -0.167702 5.22031 0
M  V30 1739 H 172.96 0.182181 2.98845 0
M  V30 1740 H 170.506 0.0890592 1.43724 0
M  V30 1741 H 172.459 -2.1742 3.6098 0
M  V30 1742 H 171.183 -2.24792 2.36931 0
M  V30 1743 H 169.842 -0.526494 3.628 0
M  V30 1744 H 169.49 -2.96386 4.06404 0
M  V30 1745 H 169.19 -1.9934 5.52754 0
M  V30 1746 H 170.714 -2.91189 5.36695 0
M  V30 1747 H 172.128 -0.664186 5.6944 0
M  V30 1748 H 170.525 0.0653265 6.00064 0
M  V30 1749 H 171.595 0.786347 4.78482 0
M  V30 1750 N 172.938 -1.57226 0.108567 0
M  V30 1751 C 174.163 -1.99604 -0.563303 0
M  V30 1752 C 174.588 -0.987563 -1.6009 0
M  V30 1753 O 173.946 0.0421687 -1.81251 0
M  V30 1754 C 173.994 -3.40902 -1.17552 0
M  V30 1755 O 173.098 -3.42896 -2.2912 0
M  V30 1756 H 172.439 -0.648704 -0.1417 0
M  V30 1757 H 174.969 -2.03679 0.193961 0
M  V30 1758 H 174.979 -3.78886 -1.51357 0
M  V30 1759 H 173.654 -4.1382 -0.415445 0
M  V30 1760 H 172.231 -3.1672 -1.96832 0
M  V30 1761 N 174.416 0.165178 -1.56732 0
M  V30 1762 C 175.366 1.20917 -1.93295 0
M  V30 1763 C 176.35 1.39488 -0.801985 0
M  V30 1764 O 177.542 1.41356 -1.06525 0
M  V30 1765 C 174.671 2.54718 -2.3016 0
M  V30 1766 C 173.757 2.39815 -3.49785 0
M  V30 1767 N 174.148 1.94637 -4.66851 0
M  V30 1768 C 172.446 2.70623 -3.54513 0
M  V30 1769 C 173.147 1.92344 -5.4898 0
M  V30 1770 N 172.123 2.34978 -4.9019 0
M  V30 1771 H 175.925 0.851675 -2.81289 0
M  V30 1772 H 173.439 0.373399 -1.58049 0
M  V30 1773 H 175.436 3.30165 -2.54552 0
M  V30 1774 H 174.096 2.91265 -1.43508 0
M  V30 1775 H 175.107 1.6488 -4.90953 0
M  V30 1776 H 171.784 3.11167 -2.78354 0
M  V30 1777 H 173.174 1.5906 -6.52801 0
M  V30 1778 N 175.894 1.51508 0.433938 0
M  V30 1779 C 176.824 1.76016 1.53429 0
M  V30 1780 C 177.805 0.610112 1.58782 0
M  V30 1781 O 178.99 0.853177 1.74455 0
M  V30 1782 C 176.12 1.88831 2.9148 0
M  V30 1783 C 175.074 3.04288 3.00987 0
M  V30 1784 C 174.4 3.0229 4.4105 0
M  V30 1785 C 175.7 4.44193 2.74754 0
M  V30 1786 H 177.394 2.68152 1.33171 0
M  V30 1787 H 174.94 1.29035 0.639214 0
M  V30 1788 H 176.893 2.04559 3.6842 0
M  V30 1789 H 175.617 0.933455 3.12976 0
M  V30 1790 H 174.276 2.8827 2.26486 0
M  V30 1791 H 173.924 2.04576 4.59519 0
M  V30 1792 H 173.624 3.79822 4.4834 0
M  V30 1793 H 175.148 3.20116 5.1996 0
M  V30 1794 H 176.562 4.60544 3.41426 0
M  V30 1795 H 174.959 5.23457 2.9345 0
M  V30 1796 H 176.029 4.53996 1.70339 0
M  V30 1797 N 177.372 -0.689602 1.41712 0
M  V30 1798 C 178.335 -1.78521 1.43746 0
M  V30 1799 C 179.335 -1.57436 0.327191 0
M  V30 1800 O 180.525 -1.64 0.587348 0
M  V30 1801 C 177.657 -3.16971 1.25467 0
M  V30 1802 H 178.85 -1.78108 2.41283 0
M  V30 1803 H 176.403 -0.89781 1.27942 0
M  V30 1804 H 177.138 -3.23019 0.287948 0
M  V30 1805 H 176.923 -3.33678 2.05917 0
M  V30 1806 H 178.413 -3.96935 1.2974 0
M  V30 1807 N 178.85 -1.27639 -0.924453 0
M  V30 1808 C 179.78 -1.13166 -2.04244 0
M  V30 1809 C 180.761 -0.032256 -1.70069 0
M  V30 1810 O 181.946 -0.207328 -1.9309 0
M  V30 1811 C 179.076 -0.781496 -3.38393 0
M  V30 1812 C 178.03 -1.83449 -3.86692 0
M  V30 1813 C 177.356 -1.33822 -5.17683 0
M  V30 1814 C 178.656 -3.23917 -4.09726 0
M  V30 1815 H 180.35 -2.06689 -2.1661 0
M  V30 1816 H 177.896 -0.995136 -1.04082 0
M  V30 1817 H 179.849 -0.667057 -4.16087 0
M  V30 1818 H 178.573 0.189439 -3.2605 0
M  V30 1819 H 177.232 -1.93789 -3.11193 0
M  V30 1820 H 176.88 -0.35665 -5.01734 0
M  V30 1821 H 176.58 -2.04224 -5.50968 0
M  V30 1822 H 178.104 -1.23679 -5.97943 0
M  V30 1823 H 179.518 -3.16559 -4.77978 0
M  V30 1824 H 177.915 -3.92059 -4.54324 0
M  V30 1825 H 178.985 -3.68729 -3.14908 0
M  V30 1826 N 180.328 1.1314 -1.09713 0
M  V30 1827 C 181.576 1.84119 -0.833338 0
M  V30 1828 C 181.897 1.84097 0.642904 0
M  V30 1829 O 181.167 1.29881 1.46655 0
M  V30 1830 H 179.747 0.681766 -0.305293 0
M  V30 1831 H 182.409 1.37038 -1.38588 0
M  V30 1832 H 181.505 2.88543 -1.18951 0
M  V30 1833 N 181.806 0.884767 1.30421 0
M  V30 1834 C 182.769 0.356277 2.26414 0
M  V30 1835 C 183.769 -0.501124 1.52792 0
M  V30 1836 O 184.959 -0.30831 1.7145 0
M  V30 1837 C 182.091 -0.492316 3.37326 0
M  V30 1838 H 183.284 1.20389 2.74675 0
M  V30 1839 H 180.837 0.661607 1.41607 0
M  V30 1840 H 181.572 -1.36052 2.94381 0
M  V30 1841 H 181.357 0.121832 3.91911 0
M  V30 1842 H 182.847 -0.853871 4.08777 0
M  V30 1843 N 183.284 -1.43765 0.645699 0
M  V30 1844 C 184.216 -2.29027 -0.0890605 0
M  V30 1845 C 185.229 -1.42093 -0.794563 0
M  V30 1846 O 186.418 -1.66104 -0.653575 0
M  V30 1847 C 183.518 -3.18831 -1.14891 0
M  V30 1848 C 182.691 -4.34261 -0.523043 0
M  V30 1849 C 181.75 -5.04994 -1.47878 0
M  V30 1850 O 180.776 -5.6052 -0.990277 0
M  V30 1851 N 181.978 -5.07795 -2.81291 0
M  V30 1852 H 184.743 -2.92727 0.64272 0
M  V30 1853 H 182.304 -1.54373 0.487924 0
M  V30 1854 H 184.296 -3.63015 -1.78892 0
M  V30 1855 H 182.866 -2.56782 -1.78275 0
M  V30 1856 H 182.086 -3.93088 0.295896 0
M  V30 1857 H 183.374 -5.08728 -0.0858147 0
M  V30 1858 H 182.772 -4.64042 -3.23546 0
M  V30 1859 H 181.329 -5.55721 -3.40614 0
M  V30 1860 N 184.763 -0.387143 -1.52771 0
M  V30 1861 C 185.711 0.463953 -2.27926 0
M  V30 1862 C 186.705 1.06493 -1.31741 0
M  V30 1863 O 187.911 1.00565 -1.49287 0
M  V30 1864 H 184.286 0.16837 -0.732909 0
M  V30 1865 H 186.257 -0.19141 -2.97785 0
M  V30 1866 C 185.006 1.5803 -3.09713 0
M  V30 1867 H 184.329 1.12718 -3.83581 0
M  V30 1868 H 185.769 2.15008 -3.65442 0
M  V30 1869 C 184.228 2.53509 -2.2189 0
M  V30 1870 O 184.758 3.56863 -1.84422 0
M  V30 1871 N 182.964 2.23199 -1.86093 0
M  V30 1872 H 182.511 1.39185 -2.16761 0
M  V30 1873 H 182.469 2.87333 -1.27621 0
M  V30 1874 N 186.241 1.57166 -0.116904 0
M  V30 1875 C 187.191 2.11756 0.845178 0
M  V30 1876 C 188.175 1.03783 1.22955 0
M  V30 1877 O 189.367 1.3002 1.20099 0
M  V30 1878 C 186.496 2.71886 2.09602 0
M  V30 1879 C 185.582 3.86937 1.7361 0
M  V30 1880 N 185.973 4.94073 1.08284 0
M  V30 1881 C 184.271 3.97082 2.03082 0
M  V30 1882 C 184.972 5.74477 0.913855 0
M  V30 1883 N 183.948 5.2423 1.43818 0
M  V30 1884 H 187.75 2.91967 0.336523 0
M  V30 1885 H 185.264 1.62174 0.0856332 0
M  V30 1886 H 187.261 3.09338 2.79492 0
M  V30 1887 H 185.921 1.93138 2.61013 0
M  V30 1888 H 186.932 5.12483 0.747067 0
M  V30 1889 H 183.609 3.29372 2.56554 0
M  V30 1890 H 184.999 6.70701 0.40125 0
M  V30 1891 N 187.719 -0.156864 1.56817 0
M  V30 1892 C 188.947 -0.886316 1.86955 0
M  V30 1893 C 189.362 -1.75185 0.703975 0
M  V30 1894 O 188.719 -1.79555 -0.326552 0
M  V30 1895 C 188.77 -1.75117 3.16253 0
M  V30 1896 O 188.491 -0.920537 4.2832 0
M  V30 1897 C 189.992 -2.58905 3.59837 0
M  V30 1898 H 187.212 -0.25678 0.619923 0
M  V30 1899 H 189.756 -0.152615 2.0393 0
M  V30 1900 H 187.911 -2.43805 3.01062 0
M  V30 1901 H 188.325 -1.51337 5.02192 0
M  V30 1902 H 189.799 -3.1518 4.53172 0
M  V30 1903 H 190.276 -3.34472 2.84649 0
M  V30 1904 H 190.882 -1.95526 3.7769 0
M  V30 1905 N 189.197 -1.51736 -0.425897 0
M  V30 1906 C 190.127 -1.76827 -1.52494 0
M  V30 1907 C 191.108 -0.618524 -1.58456 0
M  V30 1908 O 192.293 -0.862416 -1.74 0
M  V30 1909 C 189.423 -1.90374 -2.90474 0
M  V30 1910 C 188.377 -3.0588 -2.99369 0
M  V30 1911 C 187.703 -3.04625 -4.3944 0
M  V30 1912 C 189.003 -4.45644 -2.72394 0
M  V30 1913 H 190.697 -2.68855 -1.31748 0
M  V30 1914 H 188.243 -1.29372 -0.632362 0
M  V30 1915 H 190.196 -2.0651 -3.6733 0
M  V30 1916 H 188.92 -0.95004 -3.12477 0
M  V30 1917 H 187.579 -2.89467 -2.24954 0
M  V30 1918 H 187.227 -2.0701 -4.58428 0
M  V30 1919 H 186.927 -3.82195 -4.46319 0
M  V30 1920 H 188.451 -3.22869 -5.18255 0
M  V30 1921 H 189.865 -4.62348 -3.38979 0
M  V30 1922 H 188.262 -5.25006 -2.9067 0
M  V30 1923 H 189.332 -4.54893 -1.67929 0
M  V30 1924 N 190.675 0.682077 -1.42076 0
M  V30 1925 C 191.607 1.80755 -1.40926 0
M  V30 1926 C 192.62 1.59833 -0.309398 0
M  V30 1927 O 193.809 1.69087 -0.572014 0
M  V30 1928 C 190.909 3.17744 -1.17865 0
M  V30 1929 C 190.082 3.65578 -2.40149 0
M  V30 1930 C 189.141 4.81277 -2.12742 0
M  V30 1931 O 188.167 4.92197 -2.85887 0
M  V30 1932 N 189.369 5.69474 -1.12602 0
M  V30 1933 H 192.134 1.82229 -2.37935 0
M  V30 1934 H 189.695 0.864903 -1.36861 0
M  V30 1935 H 191.687 3.9279 -0.9746 0
M  V30 1936 H 190.257 3.11214 -0.294068 0
M  V30 1937 H 189.477 2.81291 -2.76169 0
M  V30 1938 H 190.765 3.94278 -3.21593 0
M  V30 1939 H 190.163 5.63297 -0.520899 0
M  V30 1940 H 188.72 6.44363 -0.981842 0
M  V30 1941 N 192.153 1.28127 0.917671 0
M  V30 1942 C 193.569 1.05749 1.19538 0
M  V30 1943 C 193.769 -0.202633 2.00479 0
M  V30 1944 O 192.825 -0.905382 2.3571 0
M  V30 1945 C 194.138 2.30273 1.93378 0
M  V30 1946 C 195.686 2.35412 2.06277 0
M  V30 1947 C 196.161 3.59692 2.83524 0
M  V30 1948 N 197.652 3.60309 2.91087 0
M  V30 1949 C 198.387 4.53147 3.51348 0
M  V30 1950 N 197.883 5.563 4.12919 0
M  V30 1951 N 199.676 4.40751 3.48849 0
M  V30 1952 H 191.827 2.09024 0.377184 0
M  V30 1953 H 194.09 0.919798 0.22951 0
M  V30 1954 H 193.796 3.22055 1.41328 0
M  V30 1955 H 193.67 2.36378 2.93947 0
M  V30 1956 H 196.057 1.4413 2.57508 0
M  V30 1957 H 196.138 2.33304 1.04895 0
M  V30 1958 H 195.782 4.51316 2.32973 0
M  V30 1959 H 195.712 3.59054 3.85211 0
M  V30 1960 H 198.203 2.85714 2.47338 0
M  V30 1961 H 198.516 6.2329 4.56869 0
M  V30 1962 H 196.861 5.60131 4.11435 0
M  V30 1963 H 200.052 3.59367 2.99955 0
M  V30 1964 H 200.225 5.13291 3.9552 0
M  V30 1965 N 193.631 -1.12557 1.10312 0
M  V30 1966 C 194.561 -2.20341 0.772798 0
M  V30 1967 C 195.542 -1.68198 -0.25365 0
M  V30 1968 O 196.727 -1.93831 -0.119699 0
M  V30 1969 C 193.857 -3.46709 0.202443 0
M  V30 1970 C 192.811 -4.11996 1.15943 0
M  V30 1971 C 192.137 -5.328 0.450345 0
M  V30 1972 C 193.437 -4.5828 2.50552 0
M  V30 1973 H 195.131 -2.48229 1.674 0
M  V30 1974 H 192.677 -1.19308 0.806326 0
M  V30 1975 H 194.63 -4.2138 -0.0407752 0
M  V30 1976 H 193.354 -3.18245 -0.734001 0
M  V30 1977 H 192.013 -3.39305 1.38808 0
M  V30 1978 H 191.661 -5.00602 -0.490531 0
M  V30 1979 H 191.361 -5.7743 1.08851 0
M  V30 1980 H 192.885 -6.10219 0.215642 0
M  V30 1981 H 194.299 -5.2433 2.31843 0
M  V30 1982 H 192.696 -5.13683 3.10242 0
M  V30 1983 H 193.766 -3.72329 3.10643 0
M  V30 1984 N 195.109 -0.891671 -1.2995 0
M  V30 1985 C 196.041 -0.320695 -2.26945 0
M  V30 1986 C 197.054 0.528497 -1.53983 0
M  V30 1987 O 198.243 0.346959 -1.75096 0
M  V30 1988 C 195.343 0.562066 -3.34207 0
M  V30 1989 C 194.516 -0.259576 -4.36629 0
M  V30 1990 C 193.575 0.554739 -5.23268 0
M  V30 1991 O 192.601 -0.0249311 -5.69195 0
M  V30 1992 N 193.803 1.8625 -5.4981 0
M  V30 1993 H 196.568 -1.15432 -2.76578 0
M  V30 1994 H 194.129 -0.755336 -1.432 0
M  V30 1995 H 196.121 1.11304 -3.89093 0
M  V30 1996 H 194.691 1.29637 -2.84452 0
M  V30 1997 H 193.911 -0.991986 -3.81514 0
M  V30 1998 H 195.199 -0.822564 -5.02107 0
M  V30 1999 H 194.597 2.35628 -5.14292 0
M  V30 2000 H 193.154 2.36078 -6.07545 0
M  V30 2001 N 196.587 1.43421 -0.653314 0
M  V30 2002 C 197.519 2.29071 0.0769134 0
M  V30 2003 C 198.532 1.42513 0.787017 0
M  V30 2004 O 199.721 1.66449 0.644757 0
M  V30 2005 C 196.821 3.19436 1.13199 0
M  V30 2006 C 195.994 4.34533 0.500006 0
M  V30 2007 C 195.053 5.05771 1.45198 0
M  V30 2008 O 194.079 5.61037 0.960538 0
M  V30 2009 N 195.281 5.0928 2.78594 0
M  V30 2010 H 198.046 2.92382 -0.658235 0
M  V30 2011 H 195.607 1.54112 -0.496104 0
M  V30 2012 H 197.599 3.63958 1.76964 0
M  V30 2013 H 196.169 2.57724 1.7691 0
M  V30 2014 H 195.389 3.92925 -0.316738 0
M  V30 2015 H 196.677 5.08766 0.0588345 0
M  V30 2016 H 196.075 4.65751 3.2108 0
M  V30 2017 H 194.632 5.57519 3.37662 0
M  V30 2018 N 198.065 0.39524 1.52563 0
M  V30 2019 C 199.311 -0.185318 2.01952 0
M  V30 2020 C 199.644 -1.45964 1.28095 0
M  V30 2021 O 198.919 -1.90689 0.38315 0
M  V30 2022 C 199.202 -0.447193 3.57312 0
M  V30 2023 C 199.055 0.842828 4.41833 0
M  V30 2024 C 200.374 -1.23529 4.22408 0
M  V30 2025 H 197.493 -0.0658788 0.73405 0
M  V30 2026 H 200.135 0.525975 1.82575 0
M  V30 2027 H 198.285 -1.05312 3.73954 0
M  V30 2028 H 199.957 1.4795 4.36931 0
M  V30 2029 H 198.2 1.45686 4.08605 0
M  V30 2030 H 198.871 0.614165 5.48573 0
M  V30 2031 H 201.347 -0.722445 4.0978 0
M  V30 2032 H 200.223 -1.38727 5.3108 0
M  V30 2033 H 200.484 -2.25213 3.80436 0
M  V30 2034 N 199.544 -1.57102 0.125237 0
M  V30 2035 C 200.474 -2.18659 -0.819174 0
M  V30 2036 C 201.455 -1.12843 -1.27281 0
M  V30 2037 O 202.64 -1.41104 -1.33429 0
M  V30 2038 C 199.77 -2.79096 -2.06695 0
M  V30 2039 C 198.724 -3.90548 -1.75088 0
M  V30 2040 C 198.05 -4.37821 -3.06948 0
M  V30 2041 C 199.35 -5.12356 -1.01435 0
M  V30 2042 H 201.044 -2.9783 -0.306202 0
M  V30 2043 H 198.59 -1.4326 -0.145839 0
M  V30 2044 H 200.543 -3.2082 -2.73226 0
M  V30 2045 H 199.267 -1.97223 -2.60328 0
M  V30 2046 H 197.926 -3.49409 -1.10944 0
M  V30 2047 H 197.574 -3.52799 -3.58527 0
M  V30 2048 H 197.274 -5.12982 -2.86571 0
M  V30 2049 H 198.798 -4.822 -3.74587 0
M  V30 2050 H 200.212 -5.5106 -1.58132 0
M  V30 2051 H 198.609 -5.9314 -0.911319 0
M  V30 2052 H 199.679 -4.849 -0.00218681 0
M  V30 2053 N 201.022 0.148545 -1.56898 0
M  V30 2054 C 201.972 1.1886 -1.94567 0
M  V30 2055 C 202.956 1.3863 -0.816735 0
M  V30 2056 O 204.148 1.40218 -1.08018 0
M  V30 2057 C 201.277 2.52262 -2.32849 0
M  V30 2058 C 200.363 2.36092 -3.52309 0
M  V30 2059 N 200.754 1.89674 -4.6889 0
M  V30 2060 C 199.052 2.66848 -3.57363 0
M  V30 2061 C 199.753 1.86511 -5.50989 0
M  V30 2062 N 198.729 2.29766 -4.92655 0
M  V30 2063 H 202.531 0.821793 -2.82177 0
M  V30 2064 H 200.045 0.356615 -1.58436 0
M  V30 2065 H 202.042 3.27447 -2.58039 0
M  V30 2066 H 200.702 2.89727 -1.46589 0
M  V30 2067 H 201.713 1.59663 -4.92674 0
M  V30 2068 H 198.39 3.08198 -2.81639 0
M  V30 2069 H 199.78 1.52128 -6.54452 0
M  V30 2070 N 202.5 1.5196 0.417844 0
M  V30 2071 C 203.463 1.74065 1.49111 0
M  V30 2072 C 204.463 0.610537 1.48758 0
M  V30 2073 O 205.653 0.87832 1.50437 0
M  V30 2074 C 202.785 1.81502 2.88565 0
M  V30 2075 H 203.978 2.69869 1.30807 0
M  V30 2076 H 201.531 1.42244 0.647785 0
M  V30 2077 H 202.266 0.875813 3.1225 0
M  V30 2078 H 202.051 2.63651 2.90225 0
M  V30 2079 H 203.541 2.00376 3.66387 0
M  V30 2080 N 203.978 -0.674533 1.42435 0
M  V30 2081 C 205.226 -1.43175 1.42637 0
M  V30 2082 C 205.547 -1.94951 0.0438992 0
M  V30 2083 O 204.817 -1.7308 -0.917607 0
M  V30 2084 H 203.397 -0.531307 0.525092 0
M  V30 2085 H 206.059 -0.797006 1.77859 0
M  V30 2086 H 205.155 -2.28463 2.12629 0
M  V30 2087 N 205.456 -1.28612 -0.910864 0
M  V30 2088 C 206.681 -1.1891 -1.69927 0
M  V30 2089 C 207.106 0.248372 -1.86453 0
M  V30 2090 O 206.464 1.17961 -1.37676 0
M  V30 2091 C 206.512 -1.89578 -3.06745 0
M  V30 2092 O 205.616 -1.20521 -3.94396 0
M  V30 2093 H 204.957 -0.412632 -0.520222 0
M  V30 2094 H 207.487 -1.69985 -1.1387 0
M  V30 2095 H 207.497 -1.97597 -3.56958 0
M  V30 2096 H 206.172 -2.94136 -2.94035 0
M  V30 2097 H 204.749 -1.20684 -3.52831 0
M  V30 2098 N 206.934 1.1197 -1.10907 0
M  V30 2099 C 208.182 1.83225 -0.852819 0
M  V30 2100 C 208.503 1.84769 0.623341 0
M  V30 2101 O 207.773 1.3143 1.45269 0
M  V30 2102 H 206.353 0.67849 -0.312507 0
M  V30 2103 H 209.015 1.3556 -1.40033 0
M  V30 2104 H 208.111 2.87265 -1.22005 0
M  V30 2105 N 208.412 0.89855 1.29475 0
M  V30 2106 C 209.823 0.572537 1.77705 0
M  V30 2107 C 210.174 -0.911778 1.73727 0
M  V30 2108 O 209.299 -1.71288 1.32247 0
M  V30 2109 C 209.894 1.03252 3.22683 0
M  V30 2110 C 208.453 0.757687 3.68695 0
M  V30 2111 C 207.6 1.20787 2.49612 0
M  V30 2112 H 210.551 1.08139 1.16153 0
M  V30 2113 H 210.572 0.367307 3.78723 0
M  V30 2114 H 210.084 2.11285 3.25546 0
M  V30 2115 H 208.185 -0.310079 3.71308 0
M  V30 2116 H 208.298 1.35476 4.59547 0
M  V30 2117 H 206.662 0.626888 2.46865 0
M  V30 2118 H 207.445 2.29622 2.55203 0
M  V30 2119 N 209.89 -1.43072 0.660911 0
M  V30 2120 C 211.13 -2.03596 0.181146 0
M  V30 2121 C 211.494 -1.51057 -1.18515 0
M  V30 2122 O 212.695 -2.03275 -1.75877 0
M  V30 2123 C 210.966 -3.56845 0.19911 0
M  V30 2124 S 212.525 -4.38289 -0.211684 0
M  V30 2125 H 209.343 -0.706954 0.0757479 0
M  V30 2126 H 211.945 -1.75027 0.870965 0
M  V30 2127 H 210.649 -3.92583 1.1961 0
M  V30 2128 H 210.18 -3.90067 -0.510996 0
M  V30 2129 H 212.195 -4.74583 -1.44863 0
M  V30 2130 N 211.368 -0.403325 -1.52352 0
M  V30 2131 C 212.298 0.416205 -2.29761 0
M  V30 2132 C 213.279 1.05123 -1.33728 0
M  V30 2133 O 214.464 1.06134 -1.62632 0
M  V30 2134 C 211.594 1.53624 -3.11475 0
M  V30 2135 C 210.548 1.02653 -4.15507 0
M  V30 2136 C 209.874 2.23971 -4.85532 0
M  V30 2137 C 211.174 0.08463 -5.22231 0
M  V30 2138 H 212.868 -0.229701 -2.98518 0
M  V30 2139 H 210.414 -0.111913 -1.43564 0
M  V30 2140 H 212.367 2.1165 -3.64393 0
M  V30 2141 H 211.091 2.20994 -2.40477 0
M  V30 2142 H 209.75 0.46871 -3.63591 0
M  V30 2143 H 209.398 2.89883 -4.11068 0
M  V30 2144 H 209.098 1.90521 -5.55856 0
M  V30 2145 H 210.622 2.82614 -5.41259 0
M  V30 2146 H 212.036 0.573509 -5.70424 0
M  V30 2147 H 210.433 -0.160783 -5.99885 0
M  V30 2148 H 211.503 -0.86237 -4.7717 0
M  V30 2149 N 212.846 1.57033 -0.133567 0
M  V30 2150 C 214.257 1.82593 0.389464 0
M  V30 2151 C 214.608 1.05156 1.6564 0
M  V30 2152 O 213.733 0.292644 2.14412 0
M  V30 2153 C 214.328 3.31204 0.713377 0
M  V30 2154 C 212.887 3.57393 1.18098 0
M  V30 2155 C 212.034 2.76598 0.197126 0
M  V30 2156 H 214.985 1.54598 -0.358481 0
M  V30 2157 H 215.006 3.46627 1.56939 0
M  V30 2158 H 214.518 3.87537 -0.2089 0
M  V30 2159 H 212.619 3.06433 2.11966 0
M  V30 2160 H 212.732 4.65915 1.11624 0
M  V30 2161 H 211.096 2.45257 0.687088 0
M  V30 2162 H 211.879 3.35697 -0.718504 0
M  V30 2163 N 214.325 -0.140222 1.56975 0
M  V30 2164 C 215.275 -1.17827 1.95194 0
M  V30 2165 C 216.259 -1.38195 0.824075 0
M  V30 2166 O 217.451 -1.39643 1.0876 0
M  V30 2167 C 214.58 -2.51024 2.34184 0
M  V30 2168 C 213.666 -2.3422 3.53556 0
M  V30 2169 N 214.057 -1.87185 4.69889 0
M  V30 2170 C 212.355 -2.64949 3.58773 0
M  V30 2171 C 213.056 -1.83586 5.5197 0
M  V30 2172 N 212.032 -2.2715 4.93866 0
M  V30 2173 H 215.834 -0.806817 2.82609 0
M  V30 2174 H 213.348 -0.348208 1.58623 0
M  V30 2175 H 215.345 -3.26074 2.59772 0
M  V30 2176 H 214.005 -2.88945 1.48124 0
M  V30 2177 H 215.016 -1.57048 4.93514 0
M  V30 2178 H 211.693 -3.067 2.8327 0
M  V30 2179 H 213.083 -1.48655 6.55249 0
M  V30 2180 N 215.803 -1.52179 -0.40978 0
M  V30 2181 C 216.733 -1.78435 -1.5061 0
M  V30 2182 C 217.714 -0.635295 -1.57791 0
M  V30 2183 O 218.899 -0.880823 -1.73076 0
M  V30 2184 C 216.029 -1.93444 -2.88439 0
M  V30 2185 C 214.983 -3.09038 -2.96108 0
M  V30 2186 C 214.309 -3.09268 -4.36185 0
M  V30 2187 C 215.609 -4.48508 -2.67652 0
M  V30 2188 H 217.303 -2.70237 -1.28889 0
M  V30 2189 H 214.849 -1.30036 -0.618605 0
M  V30 2190 H 216.802 -2.10394 -3.65119 0
M  V30 2191 H 215.526 -0.983129 -3.11452 0
M  V30 2192 H 214.185 -2.91837 -2.21872 0
M  V30 2193 H 213.833 -2.11861 -4.56206 0
M  V30 2194 H 213.533 -3.86907 -4.42241 0
M  V30 2195 H 215.057 -3.28348 -5.14801 0
M  V30 2196 H 216.471 -4.65918 -3.34056 0
M  V30 2197 H 214.868 -5.28059 -2.85085 0
M  V30 2198 H 215.938 -4.56649 -1.63095 0
M  V30 2199 N 217.281 0.66697 -1.42791 0
M  V30 2200 C 218.211 1.79218 -1.49677 0
M  V30 2201 C 219.192 1.66405 -0.352623 0
M  V30 2202 O 220.377 1.85708 -0.567993 0
M  V30 2203 C 217.507 3.17565 -1.40605 0
M  V30 2204 C 216.461 3.45124 -2.53127 0
M  V30 2205 C 215.787 4.83127 -2.29112 0
M  V30 2206 C 217.087 3.41236 -3.95418 0
M  V30 2207 H 218.781 1.73713 -2.43853 0
M  V30 2208 H 216.327 0.83432 -1.17367 0
M  V30 2209 H 218.28 3.96022 -1.44029 0
M  V30 2210 H 217.004 3.23767 -0.429271 0
M  V30 2211 H 215.663 2.69031 -2.49034 0
M  V30 2212 H 215.311 4.85988 -1.29709 0
M  V30 2213 H 215.011 5.02528 -3.04531 0
M  V30 2214 H 216.535 5.63859 -2.34297 0
M  V30 2215 H 217.949 4.09651 -4.01073 0
M  V30 2216 H 216.346 3.72173 -4.70752 0
M  V30 2217 H 217.416 2.39665 -4.21532 0
M  V30 2218 N 218.759 1.29093 0.90403 0
M  V30 2219 C 219.984 1.19809 1.69294 0
M  V30 2220 C 220.409 -0.238481 1.86582 0
M  V30 2221 O 219.767 -1.1723 1.383 0
M  V30 2222 C 219.815 1.91202 3.05736 0
M  V30 2223 O 218.919 1.22611 3.93752 0
M  V30 2224 H 218.26 0.415385 0.518027 0
M  V30 2225 H 220.79 1.70586 1.12967 0
M  V30 2226 H 220.8 1.99487 3.55906 0
M  V30 2227 H 219.475 2.95692 2.92471 0
M  V30 2228 H 218.052 1.22554 3.52186 0
M  V30 2229 N 220.237 -1.11381 1.11499 0
M  V30 2230 C 221.653 -1.35143 0.849031 0
M  V30 2231 C 221.853 -1.94515 -0.525938 0
M  V30 2232 O 220.909 -2.1785 -1.27662 0
M  V30 2233 C 222.222 -2.28249 1.95762 0
M  V30 2234 C 223.77 -2.41812 1.98736 0
M  V30 2235 C 224.245 -3.3824 3.088 0
M  V30 2236 N 225.736 -3.45803 3.08179 0
M  V30 2237 C 226.471 -4.20358 3.89982 0
M  V30 2238 N 225.967 -4.97884 4.8175 0
M  V30 2239 N 227.76 -4.15877 3.78157 0
M  V30 2240 H 219.911 -0.712062 2.00109 0
M  V30 2241 H 222.174 -0.376025 0.870235 0
M  V30 2242 H 221.88 -1.91817 2.94787 0
M  V30 2243 H 221.754 -3.28473 1.85433 0
M  V30 2244 H 224.141 -2.77518 1.00338 0
M  V30 2245 H 224.222 -1.41437 2.13141 0
M  V30 2246 H 223.866 -3.03261 4.07425 0
M  V30 2247 H 223.796 -4.38471 2.91635 0
M  V30 2248 H 226.287 -2.90506 2.41691 0
M  V30 2249 H 226.6 -5.52142 5.40702 0
M  V30 2250 H 224.945 -4.97043 4.85771 0
M  V30 2251 H 228.136 -3.544 3.05808 0
M  V30 2252 H 228.309 -4.73723 4.42143 0
M  V30 2253 N 221.715 -0.905404 -1.28997 0
M  V30 2254 C 222.645 -0.404212 -2.29975 0
M  V30 2255 C 223.626 0.523784 -1.61835 0
M  V30 2256 O 224.811 0.433298 -1.89304 0
M  V30 2257 C 221.941 0.364042 -3.45387 0
M  V30 2258 C 220.895 -0.474048 -4.25367 0
M  V30 2259 C 220.221 0.422045 -5.33032 0
M  V30 2260 C 221.521 -1.72696 -4.92923 0
M  V30 2261 H 223.215 -1.24807 -2.72146 0
M  V30 2262 H 220.761 -0.601585 -1.30832 0
M  V30 2263 H 222.714 0.725447 -4.15109 0
M  V30 2264 H 221.438 1.24174 -3.02074 0
M  V30 2265 H 220.097 -0.81786 -3.57361 0
M  V30 2266 H 219.745 1.29804 -4.85963 0
M  V30 2267 H 219.445 -0.135057 -5.87445 0
M  V30 2268 H 220.969 0.779517 -6.05604 0
M  V30 2269 H 222.383 -1.43495 -5.55051 0
M  V30 2270 H 220.78 -2.22582 -5.57295 0
M  V30 2271 H 221.85 -2.45964 -4.17887 0
M  V30 2272 N 223.193 1.4272 -0.668489 0
M  V30 2273 C 224.433 2.03497 -0.19194 0
M  V30 2274 C 224.797 1.51684 1.17712 0
M  V30 2275 O 225.998 2.04205 1.74796 0
M  V30 2276 C 224.269 3.56734 -0.218032 0
M  V30 2277 S 225.828 4.38395 0.188438 0
M  V30 2278 H 222.646 0.706542 -0.0794959 0
M  V30 2279 H 225.248 1.74563 -0.880235 0
M  V30 2280 H 223.952 3.91943 -1.2169 0
M  V30 2281 H 223.483 3.90333 0.490303 0
M  V30 2282 H 225.498 4.75345 1.42345 0
M  V30 2283 N 224.671 0.411399 1.52136 0
M  V30 2284 C 225.603 -0.448386 2.24771 0
M  V30 2285 C 226.616 -1.00828 1.27818 0
M  V30 2286 O 227.805 -0.906841 1.53749 0
M  V30 2287 C 224.905 -1.63636 2.96777 0
M  V30 2288 C 224.078 -1.19995 4.20618 0
M  V30 2289 C 223.137 -2.25509 4.75428 0
M  V30 2290 O 222.163 -1.86007 5.3795 0
M  V30 2291 N 223.365 -3.577 4.57199 0
M  V30 2292 H 226.13 0.174025 2.99194 0
M  V30 2293 H 223.691 0.238897 1.60128 0
M  V30 2294 H 225.683 -2.33793 3.30338 0
M  V30 2295 H 224.253 -2.16465 2.25526 0
M  V30 2296 H 223.473 -0.326421 3.92846 0
M  V30 2297 H 224.761 -0.885365 5.01038 0
M  V30 2298 H 224.159 -3.92543 4.07341 0
M  V30 2299 H 222.716 -4.23827 4.95191 0
M  V30 2300 N 226.149 -1.5696 0.141893 0
M  V30 2301 C 227.426 -1.87553 -0.555281 0
M  V30 2302 C 227.806 -1.04699 -1.83306 0
M  V30 2303 O 227.154 -0.132346 -2.28116 0
M  V30 2304 C 227.364 -3.39093 -0.825664 0
M  V30 2305 C 228.712 -4.08199 -1.16869 0
M  V30 2306 O 229.736 -3.44242 -0.915185 0
M  V30 2307 O 228.595 -5.21139 -1.6455 0
M  V30 2308 H 225.689 -0.777188 -0.282679 0
M  V30 2309 H 228.235 -1.68763 0.17812 0
M  V30 2310 H 227.007 -3.91221 0.0788633 0
M  V30 2311 H 226.63 -3.63393 -1.61343 0
M  V30 2312 N 227.627 0.131896 -1.57047 0
M  V30 2313 C 228.557 1.16384 -2.02428 0
M  V30 2314 C 229.538 1.43936 -0.90644 0
M  V30 2315 O 230.723 1.54599 -1.17528 0
M  V30 2316 C 227.853 2.49328 -2.4177 0
M  V30 2317 C 226.807 2.36266 -3.56879 0
M  V30 2318 C 226.133 3.74057 -3.8208 0
M  V30 2319 C 227.433 1.834 -4.89042 0
M  V30 2320 H 229.127 0.786433 -2.88887 0
M  V30 2321 H 226.673 0.376855 -1.38981 0
M  V30 2322 H 228.626 3.21759 -2.7212 0
M  V30 2323 H 227.35 2.88934 -1.52266 0
M  V30 2324 H 226.009 1.66286 -3.26718 0
M  V30 2325 H 225.657 4.11125 -2.89803 0
M  V30 2326 H 225.357 3.66174 -4.59554 0
M  V30 2327 H 226.881 4.48012 -4.1487 0
M  V30 2328 H 228.295 2.45636 -5.18011 0
M  V30 2329 H 226.692 1.8637 -5.70426 0
M  V30 2330 H 227.762 0.790662 -4.7841 0
M  V30 2331 N 229.106 1.52395 0.401703 0
M  V30 2332 C 230.354 1.66488 1.14569 0
M  V30 2333 C 230.675 0.400897 1.90835 0
M  V30 2334 O 229.945 -0.584415 1.8698 0
M  V30 2335 H 228.525 0.613672 0.425929 0
M  V30 2336 H 231.187 1.89464 0.457093 0
M  V30 2337 H 230.283 2.50942 1.85566 0
M  V30 2338 N 230.584 -0.659388 1.43143 0
M  V30 2339 C 231.995 -1.24041 1.39537 0
M  V30 2340 C 232.346 -1.95963 0.0963364 0
M  V30 2341 O 231.471 -2.00892 -0.804438 0
M  V30 2342 C 232.066 -2.25601 2.52764 0
M  V30 2343 C 230.625 -2.79195 2.52443 0
M  V30 2344 C 229.772 -1.53743 2.30778 0
M  V30 2345 H 232.723 -0.451792 1.52133 0
M  V30 2346 H 232.744 -3.07651 2.23899 0
M  V30 2347 H 232.256 -1.73226 3.47296 0
M  V30 2348 H 230.357 -3.35649 1.61773 0
M  V30 2349 H 230.47 -3.2716 3.50004 0
M  V30 2350 H 228.834 -1.80869 1.79328 0
M  V30 2351 H 229.617 -1.03312 3.27386 0
M  V30 2352 N 232.062 -1.29571 -0.897171 0
M  V30 2353 C 233.31 -1.17456 -1.64464 0
M  V30 2354 C 233.631 0.273698 -1.9307 0
M  V30 2355 O 232.901 1.18684 -1.55855 0
M  V30 2356 H 231.481 -0.431706 -0.609622 0
M  V30 2357 H 234.143 -1.62531 -1.07562 0
M  V30 2358 H 233.239 -1.72648 -2.59998 0
M  V30 2359 N 233.54 1.10788 -1.12088 0
M  V30 2360 C 234.503 2.15207 -0.788577 0
M  V30 2361 C 235.503 1.59609 0.195317 0
M  V30 2362 O 236.693 1.74174 -0.0300193 0
M  V30 2363 C 233.825 3.4047 -0.171174 0
M  V30 2364 H 235.018 2.46116 -1.71368 0
M  V30 2365 H 232.571 1.26089 -0.923652 0
M  V30 2366 H 233.306 3.15176 0.763832 0
M  V30 2367 H 233.091 3.82109 -0.879514 0
M  V30 2368 H 234.581 4.17576 0.04496 0
M  V30 2369 N 235.018 0.912232 1.28515 0
M  V30 2370 C 236.265 0.544599 1.95039 0
M  V30 2371 C 236.593 -0.911435 1.71823 0
M  V30 2372 O 235.848 -1.66317 1.03137 0
M  V30 2373 C 236.147 0.798392 3.48368 0
M  V30 2374 C 235.813 2.23374 3.91682 0
M  V30 2375 C 234.475 2.62617 4.03219 0
M  V30 2376 C 236.827 3.16786 4.13879 0
M  V30 2377 C 234.155 3.94429 4.3433 0
M  V30 2378 C 236.507 4.48161 4.46469 0
M  V30 2379 C 235.171 4.8726 4.56217 0
M  V30 2380 H 234.441 0.199283 0.7137 0
M  V30 2381 H 237.088 1.15327 1.52879 0
M  V30 2382 H 235.393 0.106908 3.91654 0
M  V30 2383 H 237.09 0.493141 3.97956 0
M  V30 2384 H 233.68 1.91922 3.83228 0
M  V30 2385 H 237.864 2.87677 4.0442 0
M  V30 2386 H 233.12 4.24426 4.40082 0
M  V30 2387 H 237.294 5.20559 4.62592 0
M  V30 2388 H 234.921 5.89431 4.80078 0
M  V30 2389 N 236.496 -1.42363 0.676048 0
M  V30 2390 C 237.912 -1.55811 0.345718 0
M  V30 2391 C 238.112 -1.65544 -1.14879 0
M  V30 2392 O 237.168 -1.62306 -1.93424 0
M  V30 2393 C 238.481 -2.80746 1.07713 0
M  V30 2394 C 240.029 -2.9452 1.05958 0
M  V30 2395 C 240.504 -4.22318 1.77233 0
M  V30 2396 N 241.995 -4.29233 1.74108 0
M  V30 2397 C 242.73 -5.26935 2.26113 0
M  V30 2398 N 242.226 -6.30783 2.86505 0
M  V30 2399 N 244.019 -5.18741 2.1648 0
M  V30 2400 H 236.17 -1.34289 1.6456 0
M  V30 2401 H 238.433 -0.646506 0.69335 0
M  V30 2402 H 238.139 -2.79696 2.13221 0
M  V30 2403 H 238.013 -3.71676 0.64316 0
M  V30 2404 H 240.4 -2.95097 0.0128255 0
M  V30 2405 H 240.481 -2.04817 1.53244 0
M  V30 2406 H 240.125 -4.22502 2.81877 0
M  V30 2407 H 240.055 -5.10958 1.27396 0
M  V30 2408 H 242.546 -3.54814 1.30059 0
M  V30 2409 H 242.859 -7.01691 3.23805 0
M  V30 2410 H 241.204 -6.31341 2.90575 0
M  V30 2411 H 244.395 -4.36533 1.68987 0
M  V30 2412 H 244.568 -5.94721 2.57316 0
M  V30 2413 N 237.974 -0.419461 -1.51915 0
M  V30 2414 C 238.904 0.391813 -2.30189 0
M  V30 2415 C 239.885 1.03699 -1.34836 0
M  V30 2416 O 241.07 1.04403 -1.63748 0
M  V30 2417 C 238.2 1.50312 -3.13087 0
M  V30 2418 C 237.154 0.9824 -4.16573 0
M  V30 2419 C 236.48 2.18809 -4.8788 0
M  V30 2420 C 237.78 0.0292356 -5.22292 0
M  V30 2421 H 239.474 -0.26135 -2.98257 0
M  V30 2422 H 237.02 -0.127134 -1.43438 0
M  V30 2423 H 238.973 2.07773 -3.66617 0
M  V30 2424 H 237.697 2.18431 -2.42807 0
M  V30 2425 H 236.356 0.430119 -3.64068 0
M  V30 2426 H 236.004 2.85507 -4.14119 0
M  V30 2427 H 235.704 1.84615 -5.57845 0
M  V30 2428 H 237.228 2.76858 -5.44226 0
M  V30 2429 H 238.642 0.512976 -5.71 0
M  V30 2430 H 237.039 -0.2244 -5.9968 0
M  V30 2431 H 238.109 -0.912931 -4.76228 0
M  V30 2432 N 239.452 1.56882 -0.150215 0
M  V30 2433 C 240.415 2.1573 0.774157 0
M  V30 2434 C 241.415 1.0999 1.17298 0
M  V30 2435 O 242.605 1.35613 1.09338 0
M  V30 2436 C 239.737 2.72302 2.05096 0
M  V30 2437 H 240.93 2.98752 0.262201 0
M  V30 2438 H 238.483 1.55985 0.099248 0
M  V30 2439 H 239.218 1.92956 2.6065 0
M  V30 2440 H 239.003 3.49665 1.77416 0
M  V30 2441 H 240.493 3.17632 2.71109 0
M  V30 2442 N 240.93 -0.123565 1.57115 0
M  V30 2443 C 241.893 -1.13583 1.99076 0
M  V30 2444 C 242.893 -1.34564 0.880296 0
M  V30 2445 O 244.083 -1.31158 1.14644 0
M  V30 2446 C 241.215 -2.49128 2.32698 0
M  V30 2447 H 242.408 -0.775287 2.89706 0
M  V30 2448 H 239.961 -0.36771 1.51913 0
M  V30 2449 H 240.696 -2.90111 1.44934 0
M  V30 2450 H 240.481 -2.35255 3.13684 0
M  V30 2451 H 241.971 -3.2199 2.65918 0
M  V30 2452 N 242.408 -1.52605 -0.393616 0
M  V30 2453 C 243.824 -1.41753 -0.733357 0
M  V30 2454 C 244.024 -0.534293 -1.94287 0
M  V30 2455 O 243.08 -0.0059787 -2.52499 0
M  V30 2456 C 244.393 -2.84531 -0.972772 0
M  V30 2457 C 245.941 -2.93978 -1.07453 0
M  V30 2458 C 246.416 -4.37756 -1.3466 0
M  V30 2459 N 247.907 -4.4106 -1.41492 0
M  V30 2460 C 248.642 -5.49387 -1.642 0
M  V30 2461 N 248.138 -6.67806 -1.8441 0
M  V30 2462 N 249.931 -5.36923 -1.66342 0
M  V30 2463 H 242.082 -2.08555 0.402328 0
M  V30 2464 H 244.345 -0.940654 0.117789 0
M  V30 2465 H 244.051 -3.51353 -0.156204 0
M  V30 2466 H 243.925 -3.26508 -1.88871 0
M  V30 2467 H 246.312 -2.27326 -1.88167 0
M  V30 2468 H 246.393 -2.55435 -0.136605 0
M  V30 2469 H 246.037 -5.04972 -0.544581 0
M  V30 2470 H 245.967 -4.73848 -2.2973 0
M  V30 2471 H 248.458 -3.55705 -1.27601 0
M  V30 2472 H 248.771 -7.46141 -2.01231 0
M  V30 2473 H 247.116 -6.70843 -1.81644 0
M  V30 2474 H 250.307 -4.43381 -1.50102 0
M  V30 2475 H 250.48 -6.21416 -1.837 0
M  V30 2476 N 243.887 0.651787 -1.4349 0
M  V30 2477 C 244.82 1.77668 -1.43211 0
M  V30 2478 C 245.798 1.59931 -0.29338 0
M  V30 2479 O 246.982 1.82095 -0.487191 0
M  V30 2480 C 244.109 3.14986 -1.24505 0
M  V30 2481 C 243.155 3.51421 -2.41673 0
M  V30 2482 S 243.988 3.51234 -4.04222 0
M  V30 2483 C 245.144 4.91206 -3.87902 0
M  V30 2484 H 245.377 1.77635 -2.38397 0
M  V30 2485 H 242.91 0.824558 -1.30539 0
M  V30 2486 H 244.868 3.94237 -1.144 0
M  V30 2487 H 243.529 3.1258 -0.308651 0
M  V30 2488 H 242.722 4.51291 -2.24393 0
M  V30 2489 H 242.324 2.79585 -2.48411 0
M  V30 2490 H 244.616 5.79902 -3.50315 0
M  V30 2491 H 245.559 5.13537 -4.8753 0
M  V30 2492 H 245.967 4.64808 -3.20334 0
M  V30 2493 N 245.365 1.30045 0.890287 0
M  V30 2494 C 246.595 1.21296 1.67245 0
M  V30 2495 C 247.003 -0.227471 1.87828 0
M  V30 2496 O 246.346 -1.16296 1.422 0
M  V30 2497 C 246.408 1.86519 3.07329 0
M  V30 2498 C 246.072 3.35837 3.09939 0
M  V30 2499 C 247.069 4.31915 2.89389 0
M  V30 2500 C 244.754 3.77196 3.31706 0
M  V30 2501 C 246.748 5.67325 2.90552 0
M  V30 2502 C 244.435 5.12725 3.32499 0
M  V30 2503 C 245.433 6.076 3.11947 0
M  V30 2504 O 245.121 7.40655 3.12547 0
M  V30 2505 H 244.853 0.4211 0.528821 0
M  V30 2506 H 247.407 1.72111 1.12103 0
M  V30 2507 H 245.637 1.30228 3.64112 0
M  V30 2508 H 247.326 1.71963 3.67673 0
M  V30 2509 H 248.092 4.01294 2.72375 0
M  V30 2510 H 243.971 3.03796 3.4674 0
M  V30 2511 H 247.515 6.41354 2.74429 0
M  V30 2512 H 243.412 5.42988 3.49047 0
M  V30 2513 H 244.18 7.49577 3.28749 0
M  V30 2514 N 246.843 -1.10192 1.12674 0
M  V30 2515 C 247.773 -2.18652 0.819362 0
M  V30 2516 C 248.754 -1.68698 -0.217915 0
M  V30 2517 O 249.939 -1.94041 -0.0785581 0
M  V30 2518 C 247.069 -3.46202 0.27594 0
M  V30 2519 C 246.023 -4.09444 1.24656 0
M  V30 2520 C 245.349 -5.31725 0.563258 0
M  V30 2521 C 246.649 -4.52863 2.60217 0
M  V30 2522 H 248.343 -2.44622 1.72628 0
M  V30 2523 H 245.889 -1.17571 0.831451 0
M  V30 2524 H 247.842 -4.21372 0.0486149 0
M  V30 2525 H 246.566 -3.1973 -0.666331 0
M  V30 2526 H 245.225 -3.36284 1.45974 0
M  V30 2527 H 244.873 -5.0153 -0.384235 0
M  V30 2528 H 244.573 -5.74991 1.21075 0
M  V30 2529 H 246.097 -6.09624 0.34503 0
M  V30 2530 H 247.511 -5.19294 2.42913 0
M  V30 2531 H 245.908 -5.06986 3.21068 0
M  V30 2532 H 246.978 -3.65656 3.18471 0
M  V30 2533 N 248.321 -0.919034 -1.28029 0
M  V30 2534 C 249.253 -0.368762 -2.26214 0
M  V30 2535 C 250.266 0.495716 -1.55069 0
M  V30 2536 O 251.455 0.30974 -1.75792 0
M  V30 2537 C 248.555 0.491049 -3.35324 0
M  V30 2538 C 247.728 -0.352133 -4.3598 0
M  V30 2539 C 246.787 0.443622 -5.24327 0
M  V30 2540 O 245.813 -0.14566 -5.69014 0
M  V30 2541 N 247.015 1.74545 -5.53637 0
M  V30 2542 H 249.78 -1.21273 -2.74068 0
M  V30 2543 H 247.341 -0.785541 -1.41566 0
M  V30 2544 H 249.333 1.03026 -3.91366 0
M  V30 2545 H 247.903 1.23574 -2.87138 0
M  V30 2546 H 247.123 -1.07269 -3.79324 0
M  V30 2547 H 248.411 -0.928883 -5.00249 0
M  V30 2548 H 247.809 2.24666 -5.19174 0
M  V30 2549 H 246.366 2.23138 -6.12416 0
M  V30 2550 N 249.799 1.42003 -0.683588 0
M  V30 2551 C 250.746 2.30798 -0.0107309 0
M  V30 2552 C 251.716 1.4645 0.783688 0
M  V30 2553 O 252.901 1.75263 0.754156 0
M  V30 2554 C 250.041 3.3238 0.928306 0
M  V30 2555 C 249.154 4.31814 0.126776 0
M  V30 2556 C 248.289 5.20468 1.06236 0
M  V30 2557 C 247.328 6.11577 0.253035 0
M  V30 2558 N 246.465 6.92754 1.14179 0
M  V30 2559 H 251.305 2.8778 -0.773727 0
M  V30 2560 H 248.842 1.41745 -0.393283 0
M  V30 2561 H 250.8 3.89813 1.48666 0
M  V30 2562 H 249.43 2.76976 1.65783 0
M  V30 2563 H 248.482 3.76427 -0.54833 0
M  V30 2564 H 249.794 4.96276 -0.501192 0
M  V30 2565 H 248.948 5.82677 1.69035 0
M  V30 2566 H 247.687 4.56204 1.7242 0
M  V30 2567 H 246.692 5.48428 -0.388108 0
M  V30 2568 H 247.917 6.77892 -0.404839 0
M  V30 2569 H 245.863 6.3111 1.78987 0
M  V30 2570 H 245.78 7.53855 0.569111 0
M  V30 2571 H 247.048 7.59441 1.75697 0
M  V30 2572 N 251.277 0.427512 1.51691 0
M  V30 2573 C 252.525 -0.141948 2.01601 0
M  V30 2574 C 252.846 -1.44067 1.31414 0
M  V30 2575 O 252.116 -1.90763 0.445658 0
M  V30 2576 H 250.696 -0.0554468 0.744939 0
M  V30 2577 H 253.358 0.567968 1.86441 0
M  V30 2578 H 252.454 -0.324913 3.10404 0
M  V30 2579 N 252.755 -1.56801 0.158532 0
M  V30 2580 C 254.002 -1.9649 -0.489679 0
M  V30 2581 C 254.33 -1.04394 -1.6411 0
M  V30 2582 O 253.585 -0.0754401 -1.95555 0
M  V30 2583 C 253.884 -3.4235 -1.02623 0
M  V30 2584 C 253.55 -4.50899 0.00794526 0
M  V30 2585 C 252.212 -4.80312 0.292207 0
M  V30 2586 C 254.564 -5.16333 0.710584 0
M  V30 2587 C 251.892 -5.72461 1.28472 0
M  V30 2588 C 254.244 -6.09553 1.69199 0
M  V30 2589 C 252.908 -6.37339 1.98383 0
M  V30 2590 H 252.178 -0.719009 -0.179186 0
M  V30 2591 H 254.825 -1.8989 0.247798 0
M  V30 2592 H 253.13 -3.45838 -1.84128 0
M  V30 2593 H 254.827 -3.70393 -1.53656 0
M  V30 2594 H 251.417 -4.28015 -0.22379 0
M  V30 2595 H 255.601 -4.93732 0.504174 0
M  V30 2596 H 250.857 -5.92278 1.51714 0
M  V30 2597 H 255.031 -6.59327 2.24189 0
M  V30 2598 H 252.658 -7.08546 2.7544 0
M  V30 2599 N 254.233 0.115231 -1.57178 0
M  V30 2600 C 255.644 0.67197 -1.74188 0
M  V30 2601 C 255.995 1.80125 -0.777777 0
M  V30 2602 O 255.12 2.16346 0.0484376 0
M  V30 2603 C 255.715 1.22573 -3.1585 0
M  V30 2604 C 254.274 1.72872 -3.34353 0
M  V30 2605 C 253.421 0.629972 -2.70049 0
M  V30 2606 H 256.372 -0.110712 -1.58313 0
M  V30 2607 H 256.393 2.09535 -3.17609 0
M  V30 2608 H 255.905 0.403598 -3.85996 0
M  V30 2609 H 254.006 2.5755 -2.69256 0
M  V30 2610 H 254.119 1.83557 -4.42542 0
M  V30 2611 H 252.483 1.0645 -2.31388 0
M  V30 2612 H 253.266 -0.181241 -3.42821 0
M  V30 2613 N 255.711 1.52812 0.385517 0
M  V30 2614 C 256.96 1.67249 1.12741 0
M  V30 2615 C 257.273 0.4205 1.91027 0
M  V30 2616 O 258.479 0.445064 2.67827 0
M  V30 2617 C 256.935 2.95583 2.05326 0
M  V30 2618 C 256.543 4.27974 1.32447 0
M  V30 2619 C 258.287 3.19386 2.7963 0
M  V30 2620 C 256.194 5.47412 2.23818 0
M  V30 2621 H 255.124 0.6231 0.424573 0
M  V30 2622 H 257.775 1.79309 0.389924 0
M  V30 2623 H 256.157 2.77277 2.82725 0
M  V30 2624 H 257.331 4.56844 0.602495 0
M  V30 2625 H 255.646 4.10459 0.700885 0
M  V30 2626 H 258.243 4.05801 3.48181 0
M  V30 2627 H 258.586 2.34604 3.43899 0
M  V30 2628 H 259.119 3.38274 2.09322 0
M  V30 2629 H 255.858 6.34612 1.64157 0
M  V30 2630 H 255.378 5.22849 2.93921 0
M  V30 2631 H 257.057 5.81423 2.83824 0
M  V30 2632 N 257.189 -0.644168 1.43834 0
M  V30 2633 C 258.136 -1.75671 1.49694 0
M  V30 2634 C 259.106 -1.6246 0.345809 0
M  V30 2635 O 260.291 -1.82573 0.554234 0
M  V30 2636 C 257.431 -3.13867 1.43463 0
M  V30 2637 C 256.544 -3.38147 2.6885 0
M  V30 2638 C 255.679 -4.66241 2.54544 0
M  V30 2639 C 254.718 -4.83657 3.75157 0
M  V30 2640 N 253.855 -6.03016 3.59605 0
M  V30 2641 H 258.695 -1.69998 2.44754 0
M  V30 2642 H 256.232 -0.829458 1.21484 0
M  V30 2643 H 258.19 -3.9377 1.37843 0
M  V30 2644 H 256.82 -3.18588 0.519783 0
M  V30 2645 H 255.872 -2.52276 2.84712 0
M  V30 2646 H 257.184 -3.46899 3.58417 0
M  V30 2647 H 256.338 -5.54285 2.46683 0
M  V30 2648 H 255.077 -4.59826 1.62516 0
M  V30 2649 H 254.082 -3.94046 3.83416 0
M  V30 2650 H 255.307 -4.91896 4.68204 0
M  V30 2651 H 253.253 -5.97715 2.7032 0
M  V30 2652 H 253.17 -6.12766 4.42779 0
M  V30 2653 H 254.438 -6.93657 3.55613 0
M  V30 2654 N 258.668 -1.30515 -0.883378 0
M  V30 2655 C 259.578 -1.18959 -2.02203 0
M  V30 2656 C 260.594 -0.109172 -1.73657 0
M  V30 2657 O 261.77 -0.324413 -1.9877 0
M  V30 2658 C 258.835 -0.883871 -3.35244 0
M  V30 2659 C 257.896 -2.04982 -3.77201 0
M  V30 2660 C 257.129 -1.75859 -5.03894 0
M  V30 2661 O 257.352 -0.687276 -5.66244 0
M  V30 2662 O 256.286 -2.61146 -5.42297 0
M  V30 2663 H 260.112 -2.14616 -2.1488 0
M  V30 2664 H 257.697 -1.10124 -1.0096 0
M  V30 2665 H 259.579 -0.728644 -4.15053 0
M  V30 2666 H 258.254 0.0427798 -3.23672 0
M  V30 2667 H 257.161 -2.26038 -2.9809 0
M  V30 2668 H 258.494 -2.95825 -3.93381 0
M  V30 2669 N 260.146 1.09593 -1.13257 0
M  V30 2670 C 261.423 1.78293 -0.804432 0
M  V30 2671 C 261.803 1.99004 0.70431 0
M  V30 2672 O 261.151 1.59007 1.641 0
M  V30 2673 C 261.361 3.10707 -1.5894 0
M  V30 2674 C 262.709 3.85443 -1.78099 0
M  V30 2675 O 263.733 3.20454 -1.55525 0
M  V30 2676 O 262.592 5.02108 -2.15753 0
M  V30 2677 H 259.686 0.773156 -0.293528 0
M  V30 2678 H 262.232 1.16164 -1.23709 0
M  V30 2679 H 261.004 2.91106 -2.61482 0
M  V30 2680 H 260.627 3.80558 -1.15157 0
M  V30 2681 N 261.624 0.925811 1.2754 0
M  V30 2682 C 262.871 0.565255 1.94451 0
M  V30 2683 C 263.199 -0.89316 1.7278 0
M  V30 2684 O 262.454 -1.65213 1.04895 0
M  V30 2685 C 262.753 0.835296 3.47502 0
M  V30 2686 C 262.419 2.27515 3.89291 0
M  V30 2687 C 261.081 2.66879 4.00411 0
M  V30 2688 C 263.433 3.21158 4.10496 0
M  V30 2689 C 260.761 3.99014 4.30122 0
M  V30 2690 C 263.113 4.52871 4.4169 0
M  V30 2691 C 261.777 4.92072 4.51023 0
M  V30 2692 H 261.047 0.206841 0.711546 0
M  V30 2693 H 263.694 1.16942 1.51647 0
M  V30 2694 H 261.999 0.148442 3.91519 0
M  V30 2695 H 263.696 0.535322 3.97411 0
M  V30 2696 H 260.286 1.95976 3.81171 0
M  V30 2697 H 264.47 2.9195 4.01346 0
M  V30 2698 H 259.726 4.2907 4.35556 0
M  V30 2699 H 263.9 5.25436 4.57045 0
M  V30 2700 H 261.527 5.9449 4.738 0
M  V30 2701 N 263.102 -1.41638 0.69111 0
M  V30 2702 C 264.032 -2.3347 0.037248 0
M  V30 2703 C 265.013 -1.51575 -0.771947 0
M  V30 2704 O 266.198 -1.80126 -0.72582 0
M  V30 2705 C 263.328 -3.35354 -0.903064 0
M  V30 2706 C 262.282 -4.27526 -0.201288 0
M  V30 2707 C 261.608 -5.19747 -1.25565 0
M  V30 2708 C 262.908 -5.13959 0.929689 0
M  V30 2709 H 264.602 -2.88397 0.804227 0
M  V30 2710 H 262.148 -1.38669 0.388189 0
M  V30 2711 H 264.101 -3.98519 -1.36969 0
M  V30 2712 H 262.825 -2.78767 -1.70166 0
M  V30 2713 H 261.484 -3.65779 0.245265 0
M  V30 2714 H 261.132 -4.59479 -2.04666 0
M  V30 2715 H 260.832 -5.8225 -0.791128 0
M  V30 2716 H 262.356 -5.85789 -1.72288 0
M  V30 2717 H 263.77 -5.70718 0.543546 0
M  V30 2718 H 262.167 -5.85379 1.32103 0
M  V30 2719 H 263.237 -4.51389 1.77133 0
M  V30 2720 N 264.58 -0.43555 -1.51462 0
M  V30 2721 C 265.49 0.383001 -2.31453 0
M  V30 2722 C 266.506 1.02931 -1.4029 0
M  V30 2723 O 267.682 1.02507 -1.73362 0
M  V30 2724 C 264.747 1.47043 -3.13973 0
M  V30 2725 C 263.808 0.844433 -4.20913 0
M  V30 2726 C 263.041 1.88004 -4.9949 0
M  V30 2727 O 263.264 3.10199 -4.78678 0
M  V30 2728 O 262.198 1.47157 -5.83634 0
M  V30 2729 H 266.024 -0.269964 -3.02498 0
M  V30 2730 H 263.609 -0.19813 -1.4808 0
M  V30 2731 H 265.491 2.10113 -3.65281 0
M  V30 2732 H 264.166 2.10751 -2.45695 0
M  V30 2733 H 263.073 0.175729 -3.73687 0
M  V30 2734 H 264.406 0.250869 -4.9156 0
M  V30 2735 N 266.058 1.56714 -0.166846 0
M  V30 2736 C 266.99 2.14914 0.796537 0
M  V30 2737 C 268.003 1.10357 1.19688 0
M  V30 2738 O 269.192 1.37561 1.13751 0
M  V30 2739 C 266.292 2.67326 2.08303 0
M  V30 2740 C 265.465 3.96493 1.84696 0
M  V30 2741 C 264.524 4.34014 2.97521 0
M  V30 2742 O 263.55 5.01973 2.6835 0
M  V30 2743 N 264.752 3.95208 4.25196 0
M  V30 2744 H 267.517 2.98205 0.299006 0
M  V30 2745 H 265.078 1.61892 0.0160839 0
M  V30 2746 H 267.07 2.89428 2.82867 0
M  V30 2747 H 265.64 1.88649 2.4926 0
M  V30 2748 H 264.86 3.82814 0.940602 0
M  V30 2749 H 266.148 4.8086 1.66285 0
M  V30 2750 H 265.546 3.40487 4.51758 0
M  V30 2751 H 264.103 4.2232 4.96477 0
M  V30 2752 N 267.536 -0.106894 1.57237 0
M  V30 2753 C 268.761 -0.830287 1.90055 0
M  V30 2754 C 269.186 -1.72064 0.75998 0
M  V30 2755 O 268.544 -1.78982 -0.288991 0
M  V30 2756 C 268.592 -1.6295 3.21683 0
M  V30 2757 O 267.696 -2.73748 3.08441 0
M  V30 2758 H 267.037 -0.228855 0.623315 0
M  V30 2759 H 269.567 -0.085658 2.04421 0
M  V30 2760 H 269.577 -2.01621 3.54701 0
M  V30 2761 H 268.252 -0.975989 4.04286 0
M  V30 2762 H 266.829 -2.38192 2.86913 0
M  V30 2763 N 269.014 -1.53014 -0.377408 0
M  V30 2764 C 269.924 -1.81557 -1.48574 0
M  V30 2765 C 270.94 -0.703102 -1.59162 0
M  V30 2766 O 272.116 -0.99192 -1.75279 0
M  V30 2767 C 269.181 -1.9889 -2.83978 0
M  V30 2768 C 268.242 -3.22801 -2.83016 0
M  V30 2769 C 267.475 -3.39298 -4.11962 0
M  V30 2770 O 267.698 -2.60345 -5.0752 0
M  V30 2771 O 266.632 -4.32604 -4.18494 0
M  V30 2772 H 270.458 -2.75695 -1.27382 0
M  V30 2773 H 268.043 -1.38248 -0.566373 0
M  V30 2774 H 269.925 -2.11931 -3.6423 0
M  V30 2775 H 268.6 -1.07942 -3.05172 0
M  V30 2776 H 267.507 -3.15193 -2.01505 0
M  V30 2777 H 268.84 -4.13632 -2.66775 0
M  V30 2778 N 270.492 0.636531 -1.44174 0
M  V30 2779 C 271.424 1.7618 -1.46606 0
M  V30 2780 C 272.437 1.58768 -0.360091 0
M  V30 2781 O 273.626 1.67181 -0.625518 0
M  V30 2782 C 270.726 3.13833 -1.27915 0
M  V30 2783 C 269.899 3.57753 -2.51658 0
M  V30 2784 C 268.958 4.74265 -2.27945 0
M  V30 2785 O 267.984 4.82852 -3.01401 0
M  V30 2786 N 269.186 5.65604 -1.30662 0
M  V30 2787 H 271.951 1.74567 -2.43612 0
M  V30 2788 H 269.512 0.820924 -1.39544 0
M  V30 2789 H 271.504 3.8949 -1.09907 0
M  V30 2790 H 270.074 3.10121 -0.39293 0
M  V30 2791 H 269.294 2.72362 -2.84978 0
M  V30 2792 H 270.582 3.83847 -3.33974 0
M  V30 2793 H 269.98 5.61354 -0.699844 0
M  V30 2794 H 268.537 6.40913 -1.18634 0
M  V30 2795 N 271.97 1.30982 0.876444 0
M  V30 2796 C 272.9 1.20668 1.99903 0
M  V30 2797 C 273.881 0.095354 1.69833 0
M  V30 2798 O 275.066 0.27885 1.92188 0
M  V30 2799 C 272.196 0.90655 3.3526 0
M  V30 2800 C 271.15 1.97675 3.79617 0
M  V30 2801 C 270.476 1.52943 5.1236 0
M  V30 2802 C 271.776 3.389 3.97422 0
M  V30 2803 H 273.47 2.14586 2.0879 0
M  V30 2804 H 271.016 1.03308 1.00317 0
M  V30 2805 H 272.969 0.821025 4.13324 0
M  V30 2806 H 271.693 -0.0682969 3.26529 0
M  V30 2807 H 270.352 2.05205 3.03787 0
M  V30 2808 H 270 0.54262 5.00065 0
M  V30 2809 H 269.7 2.24532 5.43009 0
M  V30 2810 H 271.224 1.45786 5.92941 0
M  V30 2811 H 272.638 3.34081 4.659 0
M  V30 2812 H 271.035 4.0865 4.3946 0
M  V30 2813 H 272.105 3.80163 3.01006 0
M  V30 2814 N 273.449 -1.08991 1.13837 0
M  V30 2815 C 274.696 -1.81258 0.902882 0
M  V30 2816 C 275.024 -1.85936 -0.570803 0
M  V30 2817 O 274.279 -1.3267 -1.43865 0
M  V30 2818 C 274.578 -3.27042 1.44147 0
M  V30 2819 C 274.244 -3.4249 2.93276 0
M  V30 2820 C 272.906 -3.46414 3.33992 0
M  V30 2821 C 275.258 -3.4666 3.892 0
M  V30 2822 C 272.586 -3.52091 4.69307 0
M  V30 2823 C 274.938 -3.53872 5.24364 0
M  V30 2824 C 273.602 -3.56066 5.646 0
M  V30 2825 H 272.872 -0.663268 0.330388 0
M  V30 2826 H 275.519 -1.28368 1.42105 0
M  V30 2827 H 273.824 -3.82599 0.844097 0
M  V30 2828 H 275.521 -3.81499 1.23528 0
M  V30 2829 H 272.111 -3.40124 2.60794 0
M  V30 2830 H 276.295 -3.42865 3.58828 0
M  V30 2831 H 271.551 -3.52079 4.9985 0
M  V30 2832 H 275.725 -3.56043 5.98503 0
M  V30 2833 H 273.352 -3.60218 6.69438 0
M  V30 2834 N 274.927 -0.932562 -1.27047 0
M  V30 2835 C 276.175 -0.574422 -1.93765 0
M  V30 2836 C 276.496 0.887993 -1.73608 0
M  V30 2837 O 275.766 1.62999 -1.08665 0
M  V30 2838 H 274.346 -0.209451 -0.717035 0
M  V30 2839 H 277.008 -1.18601 -1.5466 0
M  V30 2840 H 276.104 -0.784841 -3.02071 0
M  V30 2841 N 276.405 1.4127 -0.698611 0
M  V30 2842 C 277.368 2.29158 -0.044132 0
M  V30 2843 C 278.368 1.44529 0.704841 0
M  V30 2844 O 279.558 1.65643 0.539276 0
M  V30 2845 C 276.69 3.27459 0.947809 0
M  V30 2846 H 277.883 2.88529 -0.817994 0
M  V30 2847 H 275.436 1.49307 -0.46228 0
M  V30 2848 H 276.171 2.73073 1.74933 0
M  V30 2849 H 275.956 3.8991 0.41385 0
M  V30 2850 H 277.446 3.93311 1.40344 0
M  V30 2851 N 277.883 0.443576 1.51229 0
M  V30 2852 C 278.83 -0.364716 2.279 0
M  V30 2853 C 279.8 -1.0114 1.31757 0
M  V30 2854 O 280.985 -1.02912 1.60667 0
M  V30 2855 C 278.125 -1.45644 3.12861 0
M  V30 2856 C 277.238 -0.827269 4.24005 0
M  V30 2857 C 276.373 -1.89456 4.96266 0
M  V30 2858 C 275.412 -1.24416 5.99322 0
M  V30 2859 N 274.549 -2.25309 6.64966 0
M  V30 2860 H 279.389 0.295464 2.96532 0
M  V30 2861 H 276.926 0.157554 1.46254 0
M  V30 2862 H 278.884 -2.10076 3.6045 0
M  V30 2863 H 277.514 -2.08616 2.46331 0
M  V30 2864 H 276.566 -0.0710839 3.80334 0
M  V30 2865 H 277.878 -0.312481 4.9782 0
M  V30 2866 H 277.032 -2.61535 5.47434 0
M  V30 2867 H 275.771 -2.4431 4.22095 0
M  V30 2868 H 274.776 -0.508868 5.4744 0
M  V30 2869 H 276.001 -0.702882 6.75453 0
M  V30 2870 H 273.947 -2.79231 5.93604 0
M  V30 2871 H 273.864 -1.78739 7.34567 0
M  V30 2872 H 275.132 -2.96853 7.20763 0
M  V30 2873 N 279.361 -1.56624 0.175154 0
M  V30 2874 C 280.772 -1.83561 -0.340916 0
M  V30 2875 C 281.123 -1.09511 -1.62794 0
M  V30 2876 O 280.248 -0.349389 -2.13561 0
M  V30 2877 C 280.843 -3.32979 -0.625313 0
M  V30 2878 C 279.402 -3.60399 -1.08581 0
M  V30 2879 C 278.549 -2.77024 -0.123722 0
M  V30 2880 H 281.5 -1.53593 0.399344 0
M  V30 2881 H 281.521 -3.50666 -1.47694 0
M  V30 2882 H 281.033 -3.86847 0.311575 0
M  V30 2883 H 279.134 -3.11945 -2.03767 0
M  V30 2884 H 279.247 -4.68711 -0.992317 0
M  V30 2885 H 277.611 -2.46993 -0.621821 0
M  V30 2886 H 278.394 -3.33674 0.807256 0
M  V30 2887 N 280.839 0.0985539 -1.57292 0
M  V30 2888 C 282.085 0.803867 -1.86188 0
M  V30 2889 C 282.418 1.78549 -0.763794 0
M  V30 2890 O 281.693 1.93153 0.22855 0
M  V30 2891 C 281.976 1.53568 -3.25713 0
M  V30 2892 C 281.829 0.572277 -4.46145 0
M  V30 2893 C 283.148 2.48708 -3.63087 0
M  V30 2894 H 280.267 0.290781 -0.677211 0
M  V30 2895 H 282.909 0.0675783 -1.8988 0
M  V30 2896 H 281.059 2.16332 -3.22696 0
M  V30 2897 H 282.731 -0.0480894 -4.61275 0
M  V30 2898 H 280.974 -0.114618 -4.33649 0
M  V30 2899 H 281.645 1.12139 -5.40489 0
M  V30 2900 H 284.121 1.96039 -3.67026 0
M  V30 2901 H 282.997 2.96932 -4.61652 0
M  V30 2902 H 283.258 3.32309 -2.91588 0
M  V30 2903 N 282.317 1.53212 0.369288 0
M  V30 2904 C 283.542 1.73423 1.1375 0
M  V30 2905 C 283.967 0.460404 1.82378 0
M  V30 2906 O 283.325 -0.585298 1.71592 0
M  V30 2907 C 283.373 2.89769 2.1463 0
M  V30 2908 O 282.477 2.58119 3.21634 0
M  V30 2909 H 281.818 0.576061 0.330227 0
M  V30 2910 H 284.348 2.00083 0.427547 0
M  V30 2911 H 284.358 3.15829 2.58294 0
M  V30 2912 H 283.033 3.8217 1.64071 0
M  V30 2913 H 281.61 2.42864 2.82969 0
M  V30 2914 N 283.795 -0.628877 1.44509 0
M  V30 2915 C 284.725 -1.75187 1.54376 0
M  V30 2916 C 285.706 -1.65411 0.396618 0
M  V30 2917 O 286.891 -1.84137 0.617031 0
M  V30 2918 C 284.021 -3.13725 1.48976 0
M  V30 2919 C 282.975 -3.38291 2.62189 0
M  V30 2920 C 282.301 -4.76883 2.41841 0
M  V30 2921 C 283.601 -3.30632 4.04326 0
M  V30 2922 H 285.295 -1.67187 2.48373 0
M  V30 2923 H 282.841 -0.802909 1.19538 0
M  V30 2924 H 284.794 -3.92064 1.54478 0
M  V30 2925 H 283.518 -3.22515 0.514961 0
M  V30 2926 H 282.177 -2.62334 2.56079 0
M  V30 2927 H 281.825 -4.82378 1.42548 0
M  V30 2928 H 281.525 -4.94278 3.17747 0
M  V30 2929 H 283.049 -5.57449 2.49165 0
M  V30 2930 H 284.463 -3.98873 4.11793 0
M  V30 2931 H 282.86 -3.59561 4.80454 0
M  V30 2932 H 283.93 -2.28404 4.27738 0
M  V30 2933 N 285.273 -1.31445 -0.869486 0
M  V30 2934 C 286.501 -1.24122 -1.65534 0
M  V30 2935 C 286.916 0.193387 -1.87807 0
M  V30 2936 O 286.273 1.12557 -1.43656 0
M  V30 2937 C 286.324 -1.98229 -3.02304 0
M  V30 2938 O 286.045 -3.3609 -2.81026 0
M  V30 2939 C 287.546 -1.97751 -3.96749 0
M  V30 2940 H 284.766 -0.428868 -0.516055 0
M  V30 2941 H 287.31 -1.73328 -1.08525 0
M  V30 2942 H 285.465 -1.52782 -3.56001 0
M  V30 2943 H 285.879 -3.7383 -3.67902 0
M  V30 2944 H 287.353 -2.54114 -4.90031 0
M  V30 2945 H 287.83 -0.960137 -4.28577 0
M  V30 2946 H 288.436 -2.43079 -3.48988 0
M  V30 2947 N 286.751 1.08385 -1.14413 0
M  V30 2948 C 287.999 1.80419 -0.910679 0
M  V30 2949 C 288.32 1.86658 0.564243 0
M  V30 2950 O 287.59 1.35985 1.41014 0
M  V30 2951 H 286.17 0.668204 -0.333934 0
M  V30 2952 H 288.832 1.31037 -1.44275 0
M  V30 2953 H 287.928 2.83238 -1.31082 0
M  V30 2954 N 288.23 0.939286 1.26551 0
M  V30 2955 C 289.177 0.446088 2.26448 0
M  V30 2956 C 290.147 -0.493234 1.58608 0
M  V30 2957 O 291.332 -0.409857 1.86346 0
M  V30 2958 C 288.472 -0.284375 3.43926 0
M  V30 2959 C 287.585 0.690399 4.26448 0
M  V30 2960 C 286.72 -0.0610712 5.31165 0
M  V30 2961 C 285.759 0.905649 6.05363 0
M  V30 2962 N 284.896 0.186055 7.01853 0
M  V30 2963 H 289.736 1.30291 2.68008 0
M  V30 2964 H 287.273 0.65371 1.31776 0
M  V30 2965 H 289.231 -0.724313 4.10864 0
M  V30 2966 H 287.861 -1.10535 3.03285 0
M  V30 2967 H 286.913 1.24885 3.59316 0
M  V30 2968 H 288.225 1.42873 4.779 0
M  V30 2969 H 287.379 -0.56038 6.04106 0
M  V30 2970 H 286.118 -0.832297 4.80546 0
M  V30 2971 H 285.123 1.4161 5.3125 0
M  V30 2972 H 286.348 1.67685 6.58072 0
M  V30 2973 H 284.294 -0.566714 6.53548 0
M  V30 2974 H 284.211 0.863752 7.51049 0
M  V30 2975 H 285.479 -0.292221 7.78952 0
M  V30 2976 N 289.708 -1.40897 0.706093 0
M  V30 2977 C 290.64 -2.29199 0.00815776 0
M  V30 2978 C 291.653 -1.45336 -0.733582 0
M  V30 2979 O 292.842 -1.68727 -0.582537 0
M  V30 2980 C 289.942 -3.23417 -1.01265 0
M  V30 2981 C 289.115 -4.36089 -0.338387 0
M  V30 2982 C 288.174 -5.10811 -1.26326 0
M  V30 2983 O 287.2 -5.64215 -0.751651 0
M  V30 2984 N 288.402 -5.19269 -2.595 0
M  V30 2985 H 291.167 -2.89738 0.766297 0
M  V30 2986 H 288.728 -1.52164 0.55296 0
M  V30 2987 H 290.72 -3.70276 -1.63334 0
M  V30 2988 H 289.29 -2.64112 -1.67223 0
M  V30 2989 H 288.51 -3.91479 0.462352 0
M  V30 2990 H 289.798 -5.08634 0.130031 0
M  V30 2991 H 289.196 -4.77347 -3.03573 0
M  V30 2992 H 287.753 -5.69667 -3.16737 0
M  V30 2993 N 291.186 -0.45159 -1.50991 0
M  V30 2994 C 292.096 0.358431 -2.31846 0
M  V30 2995 C 293.112 1.01438 -1.41373 0
M  V30 2996 O 294.288 1.00663 -1.74439 0
M  V30 2997 C 291.353 1.43704 -3.15515 0
M  V30 2998 C 290.414 0.799742 -4.21785 0
M  V30 2999 C 289.647 1.82696 -5.01456 0
M  V30 3000 O 289.87 3.05105 -4.81941 0
M  V30 3001 O 288.804 1.40958 -5.85162 0
M  V30 3002 H 292.63 -0.302032 -3.02194 0
M  V30 3003 H 290.215 -0.213825 -1.47862 0
M  V30 3004 H 292.097 2.06227 -3.67489 0
M  V30 3005 H 290.772 2.08133 -2.47916 0
M  V30 3006 H 289.679 0.136084 -3.73852 0
M  V30 3007 H 291.012 0.198718 -4.91799 0
M  V30 3008 N 292.664 1.56529 -0.183458 0
M  V30 3009 C 293.941 1.88959 0.50536 0
M  V30 3010 C 294.321 1.09523 1.80466 0
M  V30 3011 O 293.669 0.19278 2.27685 0
M  V30 3012 C 293.879 3.41162 0.73547 0
M  V30 3013 C 295.227 4.11155 1.06005 0
M  V30 3014 O 296.251 3.46548 0.823594 0
M  V30 3015 O 295.11 5.25318 1.50675 0
M  V30 3016 H 292.204 0.78441 0.261973 0
M  V30 3017 H 294.75 1.68231 -0.222802 0
M  V30 3018 H 293.522 3.90874 -0.182561 0
M  V30 3019 H 293.145 3.67543 1.51651 0
M  V30 3020 N 294.142 -0.090211 1.57342 0
M  V30 3021 C 295.419 -0.824761 1.77361 0
M  V30 3022 C 295.799 -1.96698 0.76637 0
M  V30 3023 O 295.147 -2.27586 -0.204179 0
M  V30 3024 C 295.357 -1.31481 3.23286 0
M  V30 3025 C 296.705 -1.75563 3.86604 0
M  V30 3026 O 297.729 -1.41093 3.27065 0
M  V30 3027 O 296.588 -2.39317 4.91314 0
M  V30 3028 H 293.682 -0.393776 0.727234 0
M  V30 3029 H 296.228 -0.0717138 1.69548 0
M  V30 3030 H 295 -0.496671 3.88135 0
M  V30 3031 H 294.623 -2.12973 3.35751 0
M  V30 3032 N 295.62 -1.53406 -0.361157 0
M  V30 3033 C 296.55 -1.83136 -1.44857 0
M  V30 3034 C 297.531 -0.685174 -1.5569 0
M  V30 3035 O 298.716 -0.93544 -1.70186 0
M  V30 3036 C 295.846 -2.02522 -2.82138 0
M  V30 3037 C 294.8 -3.18302 -2.86126 0
M  V30 3038 C 294.126 -3.22989 -4.26125 0
M  V30 3039 C 295.426 -4.56796 -2.53248 0
M  V30 3040 H 297.12 -2.74201 -1.20226 0
M  V30 3041 H 294.666 -1.31938 -0.576922 0
M  V30 3042 H 296.619 -2.21904 -3.58241 0
M  V30 3043 H 295.343 -1.08172 -3.08166 0
M  V30 3044 H 294.002 -2.98747 -2.12475 0
M  V30 3045 H 293.65 -2.26267 -4.49235 0
M  V30 3046 H 293.35 -4.00781 -4.29708 0
M  V30 3047 H 294.874 -3.44559 -5.04094 0
M  V30 3048 H 296.288 -4.7631 -3.19064 0
M  V30 3049 H 294.685 -5.36862 -2.68141 0
M  V30 3050 H 295.755 -4.61606 -1.48484 0
M  V30 3051 N 297.098 0.621204 -1.44841 0
M  V30 3052 C 298.061 1.71459 -1.521 0
M  V30 3053 C 299.061 1.55696 -0.401933 0
M  V30 3054 O 300.251 1.61011 -0.664925 0
M  V30 3055 C 297.383 3.10624 -1.40447 0
M  V30 3056 H 298.576 1.66394 -2.49506 0
M  V30 3057 H 296.129 0.835745 -1.3208 0
M  V30 3058 H 296.864 3.21277 -0.441737 0
M  V30 3059 H 296.649 3.23473 -2.21602 0
M  V30 3060 H 298.139 3.90293 -1.4853 0
M  V30 3061 N 298.576 1.31904 0.862503 0
M  V30 3062 C 299.524 1.20125 1.9918 0
M  V30 3063 C 300.518 0.107824 1.69056 0
M  V30 3064 O 301.724 0.270223 1.7796 0
M  V30 3065 H 298.099 0.372148 0.65346 0
M  V30 3066 H 300.07 2.15652 2.06244 0
M  V30 3067 C 298.819 0.933099 3.34946 0
M  V30 3068 H 298.142 1.76664 3.5865 0
M  V30 3069 H 299.582 0.890892 4.14535 0
M  V30 3070 C 298.041 -0.364172 3.34926 0
M  V30 3071 O 298.571 -1.37858 3.77304 0
M  V30 3072 N 296.777 -0.383362 2.8806 0
M  V30 3073 H 296.324 0.442651 2.53768 0
M  V30 3074 H 296.282 -1.25123 2.8843 0
M  V30 3075 N 300.054 -1.07777 1.14986 0
M  V30 3076 C 301.303 -1.79669 0.916617 0
M  V30 3077 C 301.616 -1.87474 -0.557917 0
M  V30 3078 O 302.822 -2.55845 -0.908617 0
M  V30 3079 C 301.278 -3.22848 1.59051 0
M  V30 3080 C 300.886 -3.23257 3.10176 0
M  V30 3081 C 302.63 -3.99379 1.43864 0
M  V30 3082 C 300.537 -4.61063 3.70372 0
M  V30 3083 H 299.467 -0.673349 0.33929 0
M  V30 3084 H 302.118 -1.21003 1.37951 0
M  V30 3085 H 300.5 -3.8168 1.0553 0
M  V30 3086 H 301.674 -2.74095 3.70417 0
M  V30 3087 H 299.989 -2.60222 3.25074 0
M  V30 3088 H 302.586 -5.0122 1.86232 0
M  V30 3089 H 302.929 -4.14511 0.385564 0
M  V30 3090 H 303.462 -3.47032 1.94457 0
M  V30 3091 H 300.201 -4.51135 4.7556 0
M  V30 3092 H 299.721 -5.1048 3.14913 0
M  V30 3093 H 301.4 -5.30034 3.71043 0
M  V30 3094 N 301.532 -0.945985 -1.26051 0
M  V30 3095 C 302.48 -0.450259 -2.282 0
M  V30 3096 C 303.474 0.47497 -1.62605 0
M  V30 3097 O 304.68 0.352653 -1.76512 0
M  V30 3098 H 301.055 -0.127081 -0.741184 0
M  V30 3099 H 303.026 -1.32422 -2.67408 0
M  V30 3100 C 301.775 0.26467 -3.46691 0
M  V30 3101 H 301.098 -0.438123 -3.97392 0
M  V30 3102 H 302.538 0.575678 -4.20074 0
M  V30 3103 C 300.997 1.48416 -3.02447 0
M  V30 3104 O 301.527 2.58227 -3.07704 0
M  V30 3105 N 299.733 1.34243 -2.57735 0
M  V30 3106 H 299.28 0.448994 -2.53657 0
M  V30 3107 H 299.238 2.15957 -2.28495 0
M  V30 3108 N 303.011 1.40521 -0.713556 0
M  V30 3109 C 303.943 2.29191 -0.0203126 0
M  V30 3110 C 304.956 1.45723 0.725864 0
M  V30 3111 O 306.145 1.69033 0.573581 0
M  V30 3112 C 303.245 3.2395 0.995486 0
M  V30 3113 C 302.418 4.36262 0.315256 0
M  V30 3114 C 301.477 5.11474 1.23616 0
M  V30 3115 O 300.503 5.64606 0.721719 0
M  V30 3116 N 301.705 5.20638 2.56743 0
M  V30 3117 H 304.47 2.89327 -0.781652 0
M  V30 3118 H 302.031 1.51869 -0.561022 0
M  V30 3119 H 304.023 3.71137 1.61368 0
M  V30 3120 H 302.593 2.64995 1.6582 0
M  V30 3121 H 301.813 3.91228 -0.483106 0
M  V30 3122 H 303.101 5.08558 -0.157004 0
M  V30 3123 H 302.499 4.7895 3.01037 0
M  V30 3124 H 301.056 5.71339 3.13712 0
M  V30 3125 N 304.489 0.459591 1.5075 0
M  V30 3126 C 305.735 -0.091664 2.03193 0
M  V30 3127 C 306.09 -1.38432 1.3362 0
M  V30 3128 O 305.383 -1.86257 0.449322 0
M  V30 3129 C 305.577 -0.342866 3.55752 0
M  V30 3130 C 305.406 0.923888 4.40107 0
M  V30 3131 C 304.176 1.46388 4.83631 0
M  V30 3132 C 306.374 1.81617 4.81165 0
M  V30 3133 N 304.356 2.68086 5.52271 0
M  V30 3134 C 305.727 2.87907 5.49099 0
M  V30 3135 C 307.782 1.82793 4.63132 0
M  V30 3136 C 306.485 3.95347 6.0091 0
M  V30 3137 C 308.511 2.89182 5.15876 0
M  V30 3138 C 307.873 3.94191 5.83774 0
M  V30 3139 H 303.972 0.00619247 0.781975 0
M  V30 3140 H 306.556 0.625233 1.84388 0
M  V30 3141 H 304.727 -1.0288 3.74527 0
M  V30 3142 H 306.459 -0.887445 3.9485 0
M  V30 3143 H 303.214 1.01466 4.62603 0
M  V30 3144 H 303.638 3.29857 5.91205 0
M  V30 3145 H 308.28 1.0293 4.1008 0
M  V30 3146 H 305.998 4.76035 6.53006 0
M  V30 3147 H 309.584 2.91061 5.0376 0
M  V30 3148 H 308.464 4.75161 6.23853 0
M  V30 3149 N 305.967 -1.56429 0.191757 0
M  V30 3150 C 307.213 -1.97777 -0.448554 0
M  V30 3151 C 307.546 -1.07847 -1.61501 0
M  V30 3152 O 306.821 -0.129774 -1.94067 0
M  V30 3153 C 307.104 -3.48362 -0.911906 0
M  V30 3154 C 306.957 -4.4907 0.256136 0
M  V30 3155 C 308.276 -4.02561 -1.77857 0
M  V30 3156 H 305.395 -0.719071 -0.161572 0
M  V30 3157 H 308.037 -1.87896 0.282007 0
M  V30 3158 H 306.187 -3.56914 -1.53442 0
M  V30 3159 H 307.859 -4.5256 0.893733 0
M  V30 3160 H 306.102 -4.24181 0.908436 0
M  V30 3161 H 306.773 -5.51889 -0.11053 0
M  V30 3162 H 309.249 -3.96767 -1.25359 0
M  V30 3163 H 308.125 -5.08301 -2.07174 0
M  V30 3164 H 308.386 -3.47616 -2.73158 0
M  V30 3165 N 307.445 0.0818655 -1.57387 0
M  V30 3166 C 308.392 1.09834 -2.0299 0
M  V30 3167 C 309.362 1.39043 -0.908639 0
M  V30 3168 O 310.547 1.50282 -1.17559 0
M  V30 3169 C 307.687 2.40971 -2.47037 0
M  V30 3170 C 306.8 2.18379 -3.7274 0
M  V30 3171 C 305.935 3.43008 -4.0561 0
M  V30 3172 C 304.974 3.15736 -5.24383 0
M  V30 3173 N 304.111 4.32667 -5.52941 0
M  V30 3174 H 308.951 0.702472 -2.89602 0
M  V30 3175 H 306.488 0.33531 -1.43227 0
M  V30 3176 H 308.446 3.1752 -2.70623 0
M  V30 3177 H 307.076 2.78379 -1.63417 0
M  V30 3178 H 306.128 1.32569 -3.56552 0
M  V30 3179 H 307.44 1.94227 -4.59431 0
M  V30 3180 H 306.594 4.27958 -4.30043 0
M  V30 3181 H 305.333 3.70225 -3.17466 0
M  V30 3182 H 304.338 2.2918 -4.99757 0
M  V30 3183 H 305.563 2.8985 -6.14136 0
M  V30 3184 H 303.509 4.59935 -4.67756 0
M  V30 3185 H 303.426 4.11753 -6.34031 0
M  V30 3186 H 304.694 5.18644 -5.81918 0
M  V30 3187 N 308.923 1.53595 0.353017 0
M  V30 3188 C 309.833 1.83897 1.45667 0
M  V30 3189 C 310.849 0.728334 1.58023 0
M  V30 3190 O 312.025 1.01968 1.73679 0
M  V30 3191 C 309.09 2.03383 2.80778 0
M  V30 3192 C 308.151 3.27262 2.77845 0
M  V30 3193 C 307.384 3.45809 4.06512 0
M  V30 3194 O 307.607 2.68387 5.03314 0
M  V30 3195 O 306.541 4.39207 4.11559 0
M  V30 3196 H 310.367 2.77686 1.2298 0
M  V30 3197 H 307.952 1.39132 0.544308 0
M  V30 3198 H 309.834 2.17698 3.60812 0
M  V30 3199 H 308.509 1.12783 3.03417 0
M  V30 3200 H 307.416 3.18359 1.96465 0
M  V30 3201 H 308.749 4.17824 2.60161 0
M  V30 3202 N 310.401 -0.613514 1.45168 0
M  V30 3203 C 311.364 -1.7065 1.53007 0
M  V30 3204 C 312.364 -1.5548 0.410184 0
M  V30 3205 O 313.554 -1.60656 0.673455 0
M  V30 3206 C 310.686 -3.09875 1.42093 0
M  V30 3207 H 311.879 -1.65068 2.50385 0
M  V30 3208 H 309.432 -0.828728 1.32521 0
M  V30 3209 H 310.167 -3.21039 0.458769 0
M  V30 3210 H 309.952 -3.22293 2.23315 0
M  V30 3211 H 311.442 -3.895 1.50598 0
M  V30 3212 N 311.879 -1.3236 -0.855495 0
M  V30 3213 C 313.107 -1.2587 -1.64208 0
M  V30 3214 C 313.522 0.173457 -1.88002 0
M  V30 3215 O 312.879 1.11027 -1.44842 0
M  V30 3216 C 312.93 -2.01424 -3.00184 0
M  V30 3217 O 312.651 -3.39051 -2.77445 0
M  V30 3218 C 314.152 -2.01948 -3.94629 0
M  V30 3219 H 311.372 -0.434318 -0.511477 0
M  V30 3220 H 313.916 -1.74469 -1.0668 0
M  V30 3221 H 312.071 -1.56549 -3.5436 0
M  V30 3222 H 312.485 -3.77711 -3.63916 0
M  V30 3223 H 313.959 -2.59297 -4.87308 0
M  V30 3224 H 314.436 -1.00554 -4.27534 0
M  V30 3225 H 315.042 -2.46767 -3.4639 0
M  V30 3226 N 313.357 1.07166 -1.15556 0
M  V30 3227 C 314.267 2.17947 -0.868116 0
M  V30 3228 C 315.283 1.73297 0.156297 0
M  V30 3229 O 316.459 2.01392 -0.0182327 0
M  V30 3230 C 313.524 3.44789 -0.36355 0
M  V30 3231 C 312.585 4.03996 -1.45209 0
M  V30 3232 C 311.818 5.24783 -0.971508 0
M  V30 3233 O 312.041 5.70109 0.182194 0
M  V30 3234 O 310.975 5.75715 -1.75603 0
M  V30 3235 H 314.801 2.4503 -1.79427 0
M  V30 3236 H 312.386 1.16539 -0.934824 0
M  V30 3237 H 314.268 4.21307 -0.0887113 0
M  V30 3238 H 312.943 3.19253 0.534708 0
M  V30 3239 H 311.85 3.29009 -1.78056 0
M  V30 3240 H 313.183 4.33808 -2.32533 0
M  V30 3241 N 314.835 0.952656 1.25548 0
M  V30 3242 C 316.083 0.605176 1.92826 0
M  V30 3243 C 316.404 -0.860261 1.74999 0
M  V30 3244 O 315.674 -1.6125 1.11244 0
M  V30 3245 H 314.254 0.220832 0.713612 0
M  V30 3246 H 316.916 1.21047 1.52754 0
M  V30 3247 H 316.012 0.832798 3.00784 0
M  V30 3248 N 316.313 -1.40141 0.720998 0
M  V30 3249 C 317.26 -2.30688 0.071919 0
M  V30 3250 C 318.23 -1.48476 -0.744584 0
M  V30 3251 O 319.415 -1.77201 -0.707423 0
M  V30 3252 C 316.555 -3.34724 -0.839855 0
M  V30 3253 C 315.668 -4.31998 -0.0122438 0
M  V30 3254 C 314.803 -5.23102 -0.923995 0
M  V30 3255 C 313.842 -6.12033 -0.0907969 0
M  V30 3256 N 312.979 -6.95537 -0.957718 0
M  V30 3257 H 317.819 -2.85628 0.849755 0
M  V30 3258 H 315.356 -1.40653 0.430726 0
M  V30 3259 H 317.314 -3.93618 -1.38279 0
M  V30 3260 H 315.944 -2.81274 -1.58381 0
M  V30 3261 H 314.996 -3.74841 0.64794 0
M  V30 3262 H 316.308 -4.94772 0.632595 0
M  V30 3263 H 315.462 -5.86953 -1.53527 0
M  V30 3264 H 314.201 -4.60615 -1.60264 0
M  V30 3265 H 313.206 -5.47207 0.533377 0
M  V30 3266 H 314.431 -6.76581 0.584428 0
M  V30 3267 H 312.377 -6.35633 -1.62192 0
M  V30 3268 H 312.294 -7.55099 -0.36904 0
M  V30 3269 H 313.562 -7.63832 -1.555 0
M  V30 3270 N 317.792 -0.46758 -1.50504 0
M  V30 3271 C 319.041 0.0902868 -2.01498 0
M  V30 3272 C 319.354 1.411 -1.35463 0
M  V30 3273 O 320.56 2.0536 -1.77594 0
M  V30 3274 C 319.016 0.21142 -3.59278 0
M  V30 3275 C 318.624 -1.10065 -4.34269 0
M  V30 3276 C 320.368 0.721433 -4.18325 0
M  V30 3277 C 318.275 -0.943505 -5.83825 0
M  V30 3278 H 317.205 0.037517 -0.753066 0
M  V30 3279 H 319.856 -0.601943 -1.73346 0
M  V30 3280 H 318.238 0.967352 -3.84003 0
M  V30 3281 H 319.412 -1.86726 -4.21272 0
M  V30 3282 H 317.727 -1.5415 -3.86816 0
M  V30 3283 H 320.324 0.85598 -5.27804 0
M  V30 3284 H 320.667 1.71186 -3.79475 0
M  V30 3285 H 321.2 0.0229843 -3.97793 0
M  V30 3286 H 317.939 -1.90719 -6.27141 0
M  V30 3287 H 317.459 -0.217213 -5.99407 0
M  V30 3288 H 319.138 -0.608715 -6.4413 0
M  V30 3289 N 319.27 1.56325 -0.20005 0
M  V30 3290 C 320.202 2.16555 0.750771 0
M  V30 3291 C 321.215 1.12871 1.1732 0
M  V30 3292 O 322.404 1.39943 1.10807 0
M  V30 3293 C 319.504 2.71684 2.02586 0
M  V30 3294 C 318.677 4.00321 1.76244 0
M  V30 3295 C 317.736 4.40227 2.88248 0
M  V30 3296 O 316.762 5.07552 2.57642 0
M  V30 3297 N 317.964 4.04138 4.16717 0
M  V30 3298 H 320.729 2.98772 0.235685 0
M  V30 3299 H 318.29 1.6189 -0.0182594 0
M  V30 3300 H 320.282 2.95363 2.76664 0
M  V30 3301 H 318.852 1.93893 2.45202 0
M  V30 3302 H 318.072 3.84723 0.85919 0
M  V30 3303 H 319.36 4.84279 1.56048 0
M  V30 3304 H 318.758 3.49993 4.44434 0
M  V30 3305 H 317.315 4.32756 4.87407 0
M  V30 3306 N 320.748 -0.0735177 1.57428 0
M  V30 3307 C 321.658 -1.10547 2.06922 0
M  V30 3308 C 322.674 -1.42506 0.998402 0
M  V30 3309 O 323.85 -1.52717 1.31299 0
M  V30 3310 C 320.915 -2.40019 2.50184 0
M  V30 3311 C 319.976 -2.15046 3.71556 0
M  V30 3312 C 319.209 -3.38345 4.12745 0
M  V30 3313 O 319.432 -4.47399 3.53822 0
M  V30 3314 O 318.366 -3.2666 5.05546 0
M  V30 3315 H 322.192 -0.715013 2.95163 0
M  V30 3316 H 319.777 -0.287531 1.46607 0
M  V30 3317 H 321.659 -3.16218 2.78539 0
M  V30 3318 H 320.334 -2.78447 1.65072 0
M  V30 3319 H 319.241 -1.36558 3.48285 0
M  V30 3320 H 320.574 -1.81499 4.57514 0
M  V30 3321 N 322.226 -1.5378 -0.344866 0
M  V30 3322 C 323.473 -1.70963 -1.08526 0
M  V30 3323 C 323.801 -0.472126 -1.88683 0
M  V30 3324 O 323.056 0.546116 -1.87926 0
M  V30 3325 C 323.355 -2.92407 -2.05506 0
M  V30 3326 C 323.021 -4.28066 -1.41671 0
M  V30 3327 C 321.683 -4.64951 -1.2399 0
M  V30 3328 C 324.035 -5.12344 -0.956726 0
M  V30 3329 C 321.363 -5.83733 -0.589277 0
M  V30 3330 C 323.715 -6.3179 -0.320015 0
M  V30 3331 C 322.379 -6.67372 -0.130881 0
M  V30 3332 H 321.649 -0.625598 -0.397124 0
M  V30 3333 H 324.296 -1.87995 -0.36469 0
M  V30 3334 H 322.601 -2.69973 -2.8394 0
M  V30 3335 H 324.298 -3.02895 -2.62784 0
M  V30 3336 H 320.888 -3.99034 -1.56429 0
M  V30 3337 H 325.072 -4.8438 -1.08118 0
M  V30 3338 H 320.328 -6.09877 -0.431344 0
M  V30 3339 H 324.502 -6.96386 0.0445072 0
M  V30 3340 H 322.129 -7.59273 0.375318 0
M  V30 3341 N 323.704 0.605807 -1.45491 0
M  V30 3342 C 324.634 1.72709 -1.57143 0
M  V30 3343 C 325.615 1.6476 -0.422884 0
M  V30 3344 O 326.8 1.83132 -0.646247 0
M  V30 3345 C 323.93 3.11316 -1.53948 0
M  V30 3346 C 322.884 3.34077 -2.67537 0
M  V30 3347 C 322.21 4.72975 -2.49397 0
M  V30 3348 C 323.51 3.24158 -4.09535 0
M  V30 3349 H 325.204 1.63214 -2.51001 0
M  V30 3350 H 322.75 0.78379 -1.208 0
M  V30 3351 H 324.703 3.89557 -1.60696 0
M  V30 3352 H 323.427 3.21655 -0.566205 0
M  V30 3353 H 322.086 2.58227 -2.6022 0
M  V30 3354 H 321.734 4.8005 -1.50205 0
M  V30 3355 H 321.434 4.8916 -3.25571 0
M  V30 3356 H 322.958 5.53414 -2.58002 0
M  V30 3357 H 324.372 3.92271 -4.18086 0
M  V30 3358 H 322.769 3.51872 -4.86113 0
M  V30 3359 H 323.839 2.2157 -4.31317 0
M  V30 3360 N 325.182 1.32811 0.848464 0
M  V30 3361 C 326.407 1.26882 1.6406 0
M  V30 3362 C 326.832 -0.15913 1.87426 0
M  V30 3363 O 326.19 -1.11258 1.43148 0
M  V30 3364 C 326.238 2.03997 2.97351 0
M  V30 3365 O 325.342 1.39201 3.88197 0
M  V30 3366 H 324.683 0.436982 0.499943 0
M  V30 3367 H 327.213 1.75224 1.0563 0
M  V30 3368 H 327.223 2.14403 3.47124 0
M  V30 3369 H 325.898 3.0783 2.79666 0
M  V30 3370 H 324.475 1.37381 3.46671 0
M  V30 3371 N 326.66 -1.06551 1.16123 0
M  V30 3372 C 327.908 -1.78947 0.939267 0
M  V30 3373 C 328.229 -1.87532 -0.534476 0
M  V30 3374 O 327.499 -1.38211 -1.38833 0
M  V30 3375 H 326.079 -0.662807 0.344523 0
M  V30 3376 H 328.741 -1.28725 1.46342 0
M  V30 3377 H 327.837 -2.81117 1.35572 0
M  V30 3378 N 328.138 -0.959301 -1.25041 0
M  V30 3379 C 329.068 -0.501388 -2.28053 0
M  V30 3380 C 330.049 0.454673 -1.63911 0
M  V30 3381 O 331.234 0.352618 -1.90972 0
M  V30 3382 C 328.364 0.217224 -3.4662 0
M  V30 3383 C 327.318 -0.654034 -4.22973 0
M  V30 3384 C 326.644 0.195589 -5.34342 0
M  V30 3385 C 327.944 -1.93447 -4.85155 0
M  V30 3386 H 329.638 -1.36238 -2.66608 0
M  V30 3387 H 327.184 -0.656534 -1.28163 0
M  V30 3388 H 329.137 0.548732 -4.17812 0
M  V30 3389 H 327.861 1.1125 -3.07068 0
M  V30 3390 H 326.52 -0.968693 -3.5357 0
M  V30 3391 H 326.168 1.09076 -4.91031 0
M  V30 3392 H 325.868 -0.384091 -5.86343 0
M  V30 3393 H 327.392 0.521958 -6.08365 0
M  V30 3394 H 328.806 -1.66908 -5.48466 0
M  V30 3395 H 327.203 -2.46018 -5.47353 0
M  V30 3396 H 328.273 -2.63466 -4.07079 0
M  V30 3397 N 329.616 1.39756 -0.72842 0
M  V30 3398 C 331.027 1.83498 -0.344289 0
M  V30 3399 C 331.378 1.60868 1.12321 0
M  V30 3400 O 330.503 1.09634 1.86573 0
M  V30 3401 C 331.098 3.33114 -0.618112 0
M  V30 3402 C 329.657 3.753 -0.287549 0
M  V30 3403 C 328.804 2.62831 -0.884048 0
M  V30 3404 H 331.755 1.28842 -0.926578 0
M  V30 3405 H 331.776 3.80334 0.112349 0
M  V30 3406 H 331.288 3.49553 -1.68625 0
M  V30 3407 H 329.389 3.64451 0.775012 0
M  V30 3408 H 329.502 4.72945 -0.765512 0
M  V30 3409 H 327.866 2.52792 -0.311149 0
M  V30 3410 H 328.649 2.82078 -1.95671 0
M  V30 3411 N 331.094 0.475555 1.50254 0
M  V30 3412 C 332.004 -0.321501 2.32387 0
M  V30 3413 C 333.02 -0.991755 1.42969 0
M  V30 3414 O 334.196 -0.978747 1.76018 0
M  V30 3415 C 331.261 -1.38667 3.17762 0
M  V30 3416 C 330.322 -0.732538 4.23004 0
M  V30 3417 C 329.555 -1.74695 5.04299 0
M  V30 3418 O 329.778 -2.97399 4.86734 0
M  V30 3419 O 328.712 -1.31631 5.8733 0
M  V30 3420 H 332.538 0.350071 3.01676 0
M  V30 3421 H 330.123 0.237321 1.47503 0
M  V30 3422 H 332.005 -2.00354 3.70724 0
M  V30 3423 H 330.68 -2.04163 2.51196 0
M  V30 3424 H 329.587 -0.0765902 3.74022 0
M  V30 3425 H 330.92 -0.120452 4.92053 0
M  V30 3426 N 332.573 -1.56217 0.208337 0
M  V30 3427 C 333.85 -1.89739 -0.475234 0
M  V30 3428 C 334.23 -1.1238 -1.78701 0
M  V30 3429 O 333.578 -0.228979 -2.2735 0
M  V30 3430 C 333.788 -3.42289 -0.681101 0
M  V30 3431 C 335.136 -4.12789 -0.994507 0
M  V30 3432 O 336.16 -3.47814 -0.768357 0
M  V30 3433 O 335.019 -5.27649 -1.42299 0
M  V30 3434 H 332.113 -0.788478 -0.249461 0
M  V30 3435 H 334.659 -1.67855 0.249538 0
M  V30 3436 H 333.431 -3.90534 0.244722 0
M  V30 3437 H 333.054 -3.69909 -1.45785 0
M  V30 3438 N 334.051 0.0651679 -1.57465 0
M  V30 3439 C 335.279 0.775808 -1.91804 0
M  V30 3440 C 335.694 1.70782 -0.804916 0
M  V30 3441 O 335.051 1.81153 0.221311 0
M  V30 3442 C 335.102 1.56381 -3.25925 0
M  V30 3443 O 334.823 0.669248 -4.32958 0
M  V30 3444 C 336.324 2.37485 -3.7432 0
M  V30 3445 H 333.544 0.2202 -0.63384 0
M  V30 3446 H 336.088 0.0334587 -2.04473 0
M  V30 3447 H 334.243 2.25837 -3.14764 0
M  V30 3448 H 334.657 1.21801 -5.10162 0
M  V30 3449 H 336.131 2.88223 -4.70778 0
M  V30 3450 H 336.608 3.17307 -3.03666 0
M  V30 3451 H 337.214 1.73173 -3.88447 0
M  V30 3452 N 335.529 1.53961 0.336706 0
M  V30 3453 C 336.775 1.7179 1.07777 0
M  V30 3454 C 337.108 0.483263 1.88091 0
M  V30 3455 O 336.383 -0.519747 1.87427 0
M  V30 3456 C 336.666 2.98558 2.01334 0
M  V30 3457 C 336.519 4.32245 1.24437 0
M  V30 3458 C 337.838 3.21023 3.01052 0
M  V30 3459 H 334.957 0.625089 0.390426 0
M  V30 3460 H 337.599 1.86641 0.35567 0
M  V30 3461 H 335.749 2.86028 2.62908 0
M  V30 3462 H 337.421 4.56637 0.654243 0
M  V30 3463 H 335.664 4.30344 0.546458 0
M  V30 3464 H 336.335 5.17137 1.93063 0
M  V30 3465 H 338.811 3.32929 2.49595 0
M  V30 3466 H 337.687 4.11104 3.6371 0
M  V30 3467 H 337.948 2.37637 3.72802 0
M  V30 3468 N 337.007 -0.598083 1.45811 0
M  V30 3469 C 337.937 -1.71873 1.58057 0
M  V30 3470 C 338.918 -1.64533 0.431615 0
M  V30 3471 O 340.103 -1.82787 0.65595 0
M  V30 3472 C 337.233 -3.10495 1.55597 0
M  V30 3473 C 336.187 -3.32654 2.69305 0
M  V30 3474 C 335.513 -4.71646 2.51902 0
M  V30 3475 C 336.813 -3.21981 4.11248 0
M  V30 3476 H 338.507 -1.61881 2.51863 0
M  V30 3477 H 336.053 -0.777372 1.21214 0
M  V30 3478 H 338.006 -3.88699 1.6276 0
M  V30 3479 H 336.73 -3.2135 0.583255 0
M  V30 3480 H 335.389 -2.56843 2.61586 0
M  V30 3481 H 335.037 -4.79246 1.52748 0
M  V30 3482 H 334.737 -4.87426 3.2816 0
M  V30 3483 H 336.261 -5.52038 2.60933 0
M  V30 3484 H 337.675 -3.90049 4.20161 0
M  V30 3485 H 336.072 -3.49289 4.87972 0
M  V30 3486 H 337.142 -2.1928 4.32486 0
M  V30 3487 N 338.485 -1.33259 -0.841409 0
M  V30 3488 C 339.415 -1.25926 -1.96634 0
M  V30 3489 C 340.396 -0.140349 -1.6952 0
M  V30 3490 O 341.581 -0.329707 -1.91381 0
M  V30 3491 C 338.711 -0.99512 -3.32738 0
M  V30 3492 C 337.665 -2.0767 -3.74242 0
M  V30 3493 C 336.991 -1.66474 -5.08125 0
M  V30 3494 C 338.291 -3.49318 -3.88297 0
M  V30 3495 H 339.985 -2.20046 -2.03027 0
M  V30 3496 H 337.531 -1.05931 -0.975425 0
M  V30 3497 H 339.484 -0.930323 -4.11002 0
M  V30 3498 H 338.208 -0.0183004 -3.26595 0
M  V30 3499 H 336.867 -2.13187 -2.98239 0
M  V30 3500 H 336.515 -0.675012 -4.9845 0
M  V30 3501 H 336.215 -2.3885 -5.36865 0
M  V30 3502 H 337.739 -1.61455 -5.88867 0
M  V30 3503 H 339.153 -3.46316 -4.56879 0
M  V30 3504 H 337.55 -4.20158 -4.28471 0
M  V30 3505 H 338.62 -3.8801 -2.9082 0
M  V30 3506 N 339.963 1.05934 -1.16686 0
M  V30 3507 C 340.893 2.1546 -0.899949 0
M  V30 3508 C 341.874 1.69391 0.155154 0
M  V30 3509 O 343.059 1.94199 0.00648693 0
M  V30 3510 C 340.189 3.44939 -0.404241 0
M  V30 3511 C 339.143 4.04536 -1.39767 0
M  V30 3512 C 338.469 5.29268 -0.760216 0
M  V30 3513 C 339.769 4.42893 -2.76845 0
M  V30 3514 H 341.463 2.38046 -1.81588 0
M  V30 3515 H 339.009 1.14404 -0.874514 0
M  V30 3516 H 340.962 4.20901 -0.204971 0
M  V30 3517 H 339.686 3.21983 0.547206 0
M  V30 3518 H 338.345 3.30635 -1.58355 0
M  V30 3519 H 337.993 5.02611 0.197831 0
M  V30 3520 H 337.693 5.70101 -1.42332 0
M  V30 3521 H 339.217 6.07924 -0.57105 0
M  V30 3522 H 340.631 5.09921 -2.62019 0
M  V30 3523 H 339.028 4.94721 -3.39663 0
M  V30 3524 H 340.098 3.53584 -3.31823 0
M  V30 3525 N 341.441 0.965919 1.2453 0
M  V30 3526 C 342.371 0.513476 2.27784 0
M  V30 3527 C 343.352 -0.445974 1.6415 0
M  V30 3528 O 344.537 -0.342485 1.91156 0
M  V30 3529 C 341.667 -0.198839 3.4673 0
M  V30 3530 C 340.621 0.676456 4.2262 0
M  V30 3531 C 339.947 -0.167248 5.34438 0
M  V30 3532 C 341.247 1.96017 4.84123 0
M  V30 3533 H 342.941 1.3765 2.65881 0
M  V30 3534 H 340.487 0.663321 1.27813 0
M  V30 3535 H 342.44 -0.526567 4.18097 0
M  V30 3536 H 341.164 -1.0962 3.07654 0
M  V30 3537 H 339.823 0.98743 3.53052 0
M  V30 3538 H 339.471 -1.0647 4.91603 0
M  V30 3539 H 339.171 0.415181 5.86131 0
M  V30 3540 H 340.695 -0.489688 6.08633 0
M  V30 3541 H 342.109 1.69814 5.47573 0
M  V30 3542 H 340.506 2.48918 5.4604 0
M  V30 3543 H 341.576 2.65622 4.05676 0
M  V30 3544 N 342.919 -1.39368 0.735821 0
M  V30 3545 C 343.867 -2.32443 0.0855131 0
M  V30 3546 C 344.861 -1.53104 -0.724954 0
M  V30 3547 O 346.067 -1.68762 -0.626047 0
M  V30 3548 H 342.442 -0.751948 0.00885257 0
M  V30 3549 H 344.413 -2.84916 0.886883 0
M  V30 3550 C 343.162 -3.38206 -0.806983 0
M  V30 3551 H 342.485 -3.99335 -0.19274 0
M  V30 3552 H 343.925 -4.05779 -1.2296 0
M  V30 3553 C 342.384 -2.75321 -1.94165 0
M  V30 3554 O 342.914 -2.63231 -3.03435 0
M  V30 3555 N 341.12 -2.33396 -1.73132 0
M  V30 3556 H 340.667 -2.4343 -0.842596 0
M  V30 3557 H 340.625 -1.91661 -2.49225 0
M  V30 3558 N 344.397 -0.483516 -1.5 0
M  V30 3559 C 345.36 0.292965 -2.2732 0
M  V30 3560 C 346.36 0.909499 -1.32608 0
M  V30 3561 O 347.55 0.776745 -1.55924 0
M  V30 3562 C 344.682 1.41854 -3.09984 0
M  V30 3563 H 345.875 -0.385289 -2.97415 0
M  V30 3564 H 343.428 -0.237942 -1.54478 0
M  V30 3565 H 344.163 2.13148 -2.44414 0
M  V30 3566 H 343.948 0.982114 -3.79601 0
M  V30 3567 H 345.438 1.96597 -3.68429 0
M  V30 3568 N 345.875 1.56104 -0.216619 0
M  V30 3569 C 347.124 1.97348 0.416744 0
M  V30 3570 C 347.437 1.10715 1.6125 0
M  V30 3571 O 348.643 1.41836 2.31506 0
M  V30 3572 C 347.099 3.51059 0.792835 0
M  V30 3573 C 346.707 4.46387 -0.379828 0
M  V30 3574 C 348.451 4.01026 1.39208 0
M  V30 3575 C 346.358 5.91397 0.0184223 0
M  V30 3576 H 345.288 0.736942 0.159475 0
M  V30 3577 H 347.939 1.80827 -0.31205 0
M  V30 3578 H 346.321 3.63162 1.57891 0
M  V30 3579 H 347.495 4.46029 -1.15737 0
M  V30 3580 H 345.81 4.06734 -0.891979 0
M  V30 3581 H 348.407 5.0686 1.70286 0
M  V30 3582 H 348.75 3.46587 2.30614 0
M  V30 3583 H 349.283 3.92125 0.669537 0
M  V30 3584 H 346.022 6.49807 -0.862002 0
M  V30 3585 H 345.542 5.94961 0.760384 0
M  V30 3586 H 347.221 6.45455 0.446818 0
M  V30 3587 N 347.353 -0.0568162 1.57498 0
M  V30 3588 C 348.303 -1.07315 2.01166 0
M  V30 3589 C 349.287 -1.33632 0.896171 0
M  V30 3590 O 350.479 -1.33682 1.16009 0
M  V30 3591 C 347.608 -2.38257 2.47161 0
M  V30 3592 C 346.694 -2.1515 3.65474 0
M  V30 3593 N 347.085 -1.62014 4.7915 0
M  V30 3594 C 345.383 -2.45559 3.72313 0
M  V30 3595 C 346.084 -1.54069 5.60926 0
M  V30 3596 N 345.06 -2.00652 5.05213 0
M  V30 3597 H 348.862 -0.655878 2.86488 0
M  V30 3598 H 346.376 -0.263635 1.60246 0
M  V30 3599 H 348.373 -3.11845 2.76691 0
M  V30 3600 H 347.033 -2.80687 1.63232 0
M  V30 3601 H 348.044 -1.30667 5.01145 0
M  V30 3602 H 344.721 -2.91253 2.99129 0
M  V30 3603 H 346.111 -1.13712 6.62208 0
M  V30 3604 N 348.832 -1.54138 -0.328536 0
M  V30 3605 C 350.079 -1.72105 -1.06706 0
M  V30 3606 C 350.407 -0.492111 -1.88171 0
M  V30 3607 O 349.662 0.526153 -1.88494 0
M  V30 3608 C 349.961 -2.9457 -2.02393 0
M  V30 3609 C 349.627 -4.29544 -1.37122 0
M  V30 3610 C 348.289 -4.6624 -1.19052 0
M  V30 3611 C 350.641 -5.1333 -0.902331 0
M  V30 3612 C 347.969 -5.84325 -0.527331 0
M  V30 3613 C 350.321 -6.32094 -0.252988 0
M  V30 3614 C 348.985 -6.67473 -0.0600901 0
M  V30 3615 H 348.255 -0.629775 -0.390466 0
M  V30 3616 H 350.902 -1.88372 -0.34473 0
M  V30 3617 H 349.207 -2.72969 -2.81061 0
M  V30 3618 H 350.904 -3.05665 -2.59557 0
M  V30 3619 H 347.494 -4.0067 -1.52188 0
M  V30 3620 H 351.678 -4.855 -1.02974 0
M  V30 3621 H 346.934 -6.103 -0.366634 0
M  V30 3622 H 351.108 -6.96299 0.118366 0
M  V30 3623 H 348.735 -7.58832 0.455828 0
M  V30 3624 N 350.31 0.590341 -1.46126 0
M  V30 3625 C 351.242 1.71427 -1.52136 0
M  V30 3626 C 352.255 1.57542 -0.41042 0
M  V30 3627 O 353.444 1.65106 -0.678389 0
M  V30 3628 C 350.544 3.09605 -1.37834 0
M  V30 3629 C 349.717 3.49566 -2.62912 0
M  V30 3630 C 348.776 4.66773 -2.42918 0
M  V30 3631 O 347.802 4.73019 -3.1661 0
M  V30 3632 N 349.004 5.61161 -1.4859 0
M  V30 3633 H 351.769 1.66728 -2.49042 0
M  V30 3634 H 349.33 0.776113 -1.42085 0
M  V30 3635 H 351.322 3.85796 -1.22243 0
M  V30 3636 H 349.892 3.08714 -0.491393 0
M  V30 3637 H 349.112 2.63158 -2.93499 0
M  V30 3638 H 350.4 3.73028 -3.46017 0
M  V30 3639 H 349.798 5.58844 -0.87808 0
M  V30 3640 H 348.355 6.36814 -1.38965 0
M  V30 3641 N 351.788 1.33704 0.83433 0
M  V30 3642 C 353.036 1.25169 1.58673 0
M  V30 3643 C 353.357 -0.18127 1.94156 0
M  V30 3644 O 352.627 -1.11113 1.6134 0
M  V30 3645 H 351.207 0.4603 0.58833 0
M  V30 3646 H 353.869 1.67478 0.996847 0
M  V30 3647 H 352.965 1.84856 2.51465 0
M  V30 3648 N 353.266 -1.05314 1.17247 0
M  V30 3649 C 354.513 -1.78293 0.960091 0
M  V30 3650 C 354.841 -1.87658 -0.51136 0
M  V30 3651 O 354.096 -1.3718 -1.39571 0
M  V30 3652 C 354.395 -3.2229 1.54479 0
M  V30 3653 C 354.061 -3.32987 3.04024 0
M  V30 3654 C 352.723 -3.35613 3.44844 0
M  V30 3655 C 355.075 -3.34102 4.00031 0
M  V30 3656 C 352.403 -3.36982 4.8027 0
M  V30 3657 C 354.755 -3.3701 5.35357 0
M  V30 3658 C 353.419 -3.37923 5.75642 0
M  V30 3659 H 352.689 -0.652422 0.351322 0
M  V30 3660 H 355.336 -1.23782 1.46117 0
M  V30 3661 H 353.641 -3.7972 0.965391 0
M  V30 3662 H 355.338 -3.77376 1.35603 0
M  V30 3663 H 351.928 -3.31655 2.71483 0
M  V30 3664 H 356.112 -3.31276 3.69554 0
M  V30 3665 H 351.368 -3.35999 5.10798 0
M  V30 3666 H 355.542 -3.36822 6.09528 0
M  V30 3667 H 353.169 -3.38738 6.80559 0
M  V30 3668 N 354.744 -0.972509 -1.24016 0
M  V30 3669 C 355.99 -0.647583 -1.92816 0
M  V30 3670 C 356.345 0.809015 -1.74564 0
M  V30 3671 O 355.638 1.57502 -1.09103 0
M  V30 3672 C 355.832 -0.963694 -3.44162 0
M  V30 3673 C 355.661 -2.44947 -3.77135 0
M  V30 3674 C 354.431 -3.11012 -3.98246 0
M  V30 3675 C 356.629 -3.42978 -3.83237 0
M  V30 3676 N 354.611 -4.49277 -4.18358 0
M  V30 3677 C 355.982 -4.66619 -4.08248 0
M  V30 3678 C 358.037 -3.37569 -3.65994 0
M  V30 3679 C 356.74 -5.85516 -4.17808 0
M  V30 3680 C 358.766 -4.55822 -3.76802 0
M  V30 3681 C 358.128 -5.78256 -4.02243 0
M  V30 3682 H 354.227 -0.287894 -0.727077 0
M  V30 3683 H 356.811 -1.24835 -1.49413 0
M  V30 3684 H 354.982 -0.391692 -3.8642 0
M  V30 3685 H 356.714 -0.596849 -4.00275 0
M  V30 3686 H 353.469 -2.61529 -3.94841 0
M  V30 3687 H 353.893 -5.20935 -4.32384 0
M  V30 3688 H 358.535 -2.43945 -3.45327 0
M  V30 3689 H 356.253 -6.79564 -4.37285 0
M  V30 3690 H 359.839 -4.53204 -3.64825 0
M  V30 3691 H 358.719 -6.68231 -4.10411 0
M  V30 3692 N 356.222 1.38976 -0.743202 0
M  V30 3693 C 357.638 1.53984 -0.419664 0
M  V30 3694 C 357.838 1.70837 1.0685 0
M  V30 3695 O 356.894 1.7135 1.8546 0
M  V30 3696 C 358.207 2.75287 -1.20985 0
M  V30 3697 C 359.755 2.89129 -1.19889 0
M  V30 3698 C 360.23 4.13381 -1.97181 0
M  V30 3699 N 361.721 4.20437 -1.94389 0
M  V30 3700 C 362.456 5.15547 -2.50996 0
M  V30 3701 N 361.952 6.16395 -3.16274 0
M  V30 3702 N 363.745 5.07822 -2.40984 0
M  V30 3703 H 355.896 1.26285 -1.7078 0
M  V30 3704 H 358.159 0.612689 -0.723406 0
M  V30 3705 H 357.865 2.69204 -2.26323 0
M  V30 3706 H 357.739 3.68184 -0.819759 0
M  V30 3707 H 360.126 2.947 -0.153606 0
M  V30 3708 H 360.207 1.97272 -1.62841 0
M  V30 3709 H 359.851 4.08572 -3.01714 0
M  V30 3710 H 359.781 5.04298 -1.51629 0
M  V30 3711 H 362.272 3.48205 -1.46839 0
M  V30 3712 H 362.585 6.85443 -3.56915 0
M  V30 3713 H 360.93 6.16758 -3.20367 0
M  V30 3714 H 364.121 4.27973 -1.89622 0
M  V30 3715 H 364.294 5.81767 -2.85397 0
M  V30 3716 N 357.7 0.491464 1.49741 0
M  V30 3717 C 358.648 -0.305837 2.30581 0
M  V30 3718 C 359.642 -0.971642 1.38764 0
M  V30 3719 O 360.848 -0.90042 1.5586 0
M  V30 3720 H 357.223 -0.117482 0.742767 0
M  V30 3721 H 359.194 0.396093 2.95759 0
M  V30 3722 C 357.943 -1.36319 3.19863 0
M  V30 3723 H 357.266 -0.860258 3.90435 0
M  V30 3724 H 358.706 -1.89323 3.79385 0
M  V30 3725 C 357.165 -2.37621 2.38826 0
M  V30 3726 O 357.695 -3.43311 2.08567 0
M  V30 3727 N 355.901 -2.09849 2.01026 0
M  V30 3728 H 355.448 -1.23922 2.25834 0
M  V30 3729 H 355.406 -2.77859 1.47112 0
M  V30 3730 N 359.178 -1.55987 0.224894 0
M  V30 3731 C 360.125 -2.20436 -0.68385 0
M  V30 3732 C 361.095 -1.16102 -1.18783 0
M  V30 3733 O 362.28 -1.4447 -1.24632 0
M  V30 3734 C 359.42 -2.89076 -1.88491 0
M  V30 3735 C 358.533 -4.08012 -1.41951 0
M  V30 3736 C 357.668 -4.64426 -2.5784 0
M  V30 3737 C 356.707 -5.75656 -2.08053 0
M  V30 3738 N 355.844 -6.26347 -3.17227 0
M  V30 3739 H 360.684 -2.97727 -0.12754 0
M  V30 3740 H 358.221 -1.47011 -0.0511978 0
M  V30 3741 H 360.179 -3.27059 -2.59014 0
M  V30 3742 H 358.809 -2.14298 -2.41405 0
M  V30 3743 H 357.861 -3.75492 -0.609095 0
M  V30 3744 H 359.173 -4.88375 -1.01447 0
M  V30 3745 H 358.327 -5.04869 -3.3644 0
M  V30 3746 H 357.066 -3.83233 -3.01635 0
M  V30 3747 H 356.071 -5.34712 -1.27916 0
M  V30 3748 H 357.296 -6.58686 -1.65255 0
M  V30 3749 H 355.242 -5.48067 -3.60497 0
M  V30 3750 H 355.159 -7.01843 -2.80986 0
M  V30 3751 H 356.427 -6.71447 -3.95953 0
M  V30 3752 N 360.656 0.0484629 -1.57525 0
M  V30 3753 C 361.903 0.743125 -1.88372 0
M  V30 3754 C 362.231 1.76383 -0.819715 0
M  V30 3755 O 361.486 1.94855 0.181659 0
M  V30 3756 C 361.785 1.46632 -3.25935 0
M  V30 3757 C 361.451 0.583427 -4.4711 0
M  V30 3758 C 360.113 0.340191 -4.79996 0
M  V30 3759 C 362.465 -0.0273345 -5.21193 0
M  V30 3760 C 359.793 -0.522903 -5.84365 0
M  V30 3761 C 362.145 -0.878017 -6.26477 0
M  V30 3762 C 360.809 -1.1309 -6.5785 0
M  V30 3763 H 360.079 0.271929 -0.689301 0
M  V30 3764 H 362.726 0.00336166 -1.915 0
M  V30 3765 H 361.031 2.2789 -3.18706 0
M  V30 3766 H 362.728 2.00902 -3.47044 0
M  V30 3767 H 359.318 0.783151 -4.21384 0
M  V30 3768 H 363.502 0.147654 -4.9608 0
M  V30 3769 H 358.758 -0.727335 -6.07058 0
M  V30 3770 H 362.932 -1.35789 -6.83033 0
M  V30 3771 H 360.559 -1.80144 -7.38547 0
M  V30 3772 N 362.134 1.5431 0.320358 0
M  V30 3773 C 363.411 1.63322 1.07635 0
M  V30 3774 C 363.791 0.46912 2.05821 0
M  V30 3775 O 363.139 -0.536274 2.22118 0
M  V30 3776 C 363.349 3.00465 1.77544 0
M  V30 3777 C 364.697 3.56621 2.30449 0
M  V30 3778 O 365.721 3.02791 1.87606 0
M  V30 3779 O 364.58 4.5083 3.08892 0
M  V30 3780 H 361.674 0.661502 0.496331 0
M  V30 3781 H 364.22 1.66656 0.319992 0
M  V30 3782 H 362.992 3.76629 1.06143 0
M  V30 3783 H 362.615 3.00824 2.59982 0
M  V30 3784 N 363.613 -0.582584 1.46437 0
M  V30 3785 C 365.024 -1.1647 1.45916 0
M  V30 3786 C 365.375 -1.95177 0.200077 0
M  V30 3787 O 364.5 -2.04874 -0.696819 0
M  V30 3788 C 365.095 -2.11885 2.64367 0
M  V30 3789 C 363.654 -2.65421 2.66887 0
M  V30 3790 C 362.801 -1.41294 2.38603 0
M  V30 3791 H 365.752 -0.370514 1.54314 0
M  V30 3792 H 365.773 -2.9535 2.39892 0
M  V30 3793 H 365.285 -1.54573 3.5599 0
M  V30 3794 H 363.386 -3.26602 1.79338 0
M  V30 3795 H 363.499 -3.08147 3.66854 0
M  V30 3796 H 361.863 -1.71109 1.88663 0
M  V30 3797 H 362.646 -0.858125 3.32402 0
M  V30 3798 N 365.091 -1.34144 -0.827227 0
M  V30 3799 C 366.316 -1.29476 -1.62021 0
M  V30 3800 C 366.741 0.129292 -1.87655 0
M  V30 3801 O 366.099 1.08967 -1.449 0
M  V30 3802 C 366.147 -2.08702 -2.94068 0
M  V30 3803 O 365.251 -1.45359 -3.85933 0
M  V30 3804 H 364.592 -0.444881 -0.492927 0
M  V30 3805 H 367.122 -1.76882 -1.02829 0
M  V30 3806 H 367.132 -2.19898 -3.43669 0
M  V30 3807 H 365.807 -3.12241 -2.74734 0
M  V30 3808 H 364.384 -1.42879 -3.44442 0
M  V30 3809 N 366.569 1.04691 -1.17803 0
M  V30 3810 C 367.499 2.14494 -0.92275 0
M  V30 3811 C 368.48 1.69546 0.137179 0
M  V30 3812 O 369.665 1.94195 -0.0141108 0
M  V30 3813 C 366.795 3.44491 -0.440803 0
M  V30 3814 C 365.749 4.03031 -1.4405 0
M  V30 3815 C 365.075 5.28432 -0.81631 0
M  V30 3816 C 366.375 4.39932 -2.81527 0
M  V30 3817 H 368.069 2.36107 -1.84103 0
M  V30 3818 H 365.615 1.1347 -0.886599 0
M  V30 3819 H 367.568 4.2066 -0.249602 0
M  V30 3820 H 366.292 3.22546 0.513025 0
M  V30 3821 H 364.951 3.28937 -1.61853 0
M  V30 3822 H 364.599 5.02792 0.144511 0
M  V30 3823 H 364.299 5.68559 -1.48371 0
M  V30 3824 H 365.823 6.07284 -0.635496 0
M  V30 3825 H 367.237 5.07113 -2.67412 0
M  V30 3826 H 365.634 4.9109 -3.44892 0
M  V30 3827 H 366.704 3.50045 -3.35554 0
M  V30 3828 N 368.047 0.979072 1.23499 0
M  V30 3829 C 369.275 0.665202 1.95915 0
M  V30 3830 C 369.69 -0.767571 1.72493 0
M  V30 3831 O 369.047 -1.51635 1.01554 0
M  V30 3832 C 369.098 0.944438 3.48945 0
M  V30 3833 O 368.819 2.3209 3.71572 0
M  V30 3834 C 370.32 0.646336 4.38563 0
M  V30 3835 H 367.54 0.247218 0.623798 0
M  V30 3836 H 370.084 1.31009 1.57025 0
M  V30 3837 H 368.239 0.345575 3.85856 0
M  V30 3838 H 368.653 2.40957 4.65876 0
M  V30 3839 H 370.127 0.892091 5.44744 0
M  V30 3840 H 370.604 -0.419575 4.37191 0
M  V30 3841 H 371.21 1.22562 4.07258 0
M  V30 3842 N 369.525 -1.3858 0.750561 0
M  V30 3843 C 370.457 -2.29057 0.0810714 0
M  V30 3844 C 371.47 -1.47596 -0.686973 0
M  V30 3845 O 372.659 -1.70495 -0.528563 0
M  V30 3846 C 369.759 -3.26475 -0.909247 0
M  V30 3847 C 368.932 -4.36945 -0.199478 0
M  V30 3848 C 367.991 -5.14572 -1.10011 0
M  V30 3849 O 367.017 -5.66321 -0.57177 0
M  V30 3850 N 368.219 -5.27262 -2.42849 0
M  V30 3851 H 370.984 -2.87153 0.858087 0
M  V30 3852 H 368.545 -1.50328 0.60109 0
M  V30 3853 H 370.537 -3.75285 -1.51471 0
M  V30 3854 H 369.107 -2.69298 -1.58736 0
M  V30 3855 H 368.327 -3.8981 0.586664 0
M  V30 3856 H 369.615 -5.07963 0.291783 0
M  V30 3857 H 369.013 -4.86763 -2.88233 0
M  V30 3858 H 367.57 -5.79456 -2.98453 0
M  V30 3859 N 371.003 -0.499398 -1.49478 0
M  V30 3860 C 372.419 -0.155261 -1.58843 0
M  V30 3861 C 372.619 1.34008 -1.50479 0
M  V30 3862 O 371.675 2.11589 -1.37791 0
M  V30 3863 C 372.988 -0.730636 -2.91689 0
M  V30 3864 C 374.536 -0.696599 -3.0515 0
M  V30 3865 C 375.011 -1.25001 -4.40612 0
M  V30 3866 N 376.502 -1.21064 -4.47099 0
M  V30 3867 C 377.237 -1.60905 -5.50361 0
M  V30 3868 N 376.733 -2.08331 -6.60735 0
M  V30 3869 N 378.526 -1.52331 -5.41065 0
M  V30 3870 H 370.677 -1.47162 -1.53158 0
M  V30 3871 H 372.94 -0.610309 -0.725415 0
M  V30 3872 H 372.646 -1.77928 -3.03372 0
M  V30 3873 H 372.52 -0.190161 -3.7672 0
M  V30 3874 H 374.907 0.343204 -2.93097 0
M  V30 3875 H 374.988 -1.2742 -2.21806 0
M  V30 3876 H 374.632 -2.28859 -4.53416 0
M  V30 3877 H 374.562 -0.64836 -5.22593 0
M  V30 3878 H 377.053 -0.863128 -3.67911 0
M  V30 3879 H 377.366 -2.36805 -7.35624 0
M  V30 3880 H 375.711 -2.12304 -6.6178 0
M  V30 3881 H 378.902 -1.151 -4.53729 0
M  V30 3882 H 379.075 -1.83704 -6.21415 0
M  V30 3883 N 372.481 1.55866 -0.233164 0
M  V30 3884 C 373.758 1.90471 0.444988 0
M  V30 3885 C 374.138 1.15209 1.7689 0
M  V30 3886 O 373.486 0.265119 2.26957 0
M  V30 3887 C 373.696 3.4333 0.626559 0
M  V30 3888 C 375.044 4.14319 0.92871 0
M  V30 3889 O 376.068 3.48993 0.712926 0
M  V30 3890 O 374.927 5.29846 1.33887 0
M  V30 3891 H 372.021 0.792347 0.236885 0
M  V30 3892 H 374.567 1.67437 -0.276211 0
M  V30 3893 H 373.339 3.90095 -0.306822 0
M  V30 3894 H 372.962 3.72181 1.39881 0
M  V30 3895 N 373.959 -0.0401083 1.57549 0
M  V30 3896 C 375.184 -0.748931 1.93406 0
M  V30 3897 C 375.609 -1.68686 0.832274 0
M  V30 3898 O 374.967 -1.80047 -0.212818 0
M  V30 3899 C 375.015 -1.4916 3.28304 0
M  V30 3900 O 374.119 -2.6042 3.19774 0
M  V30 3901 H 373.46 -0.202212 0.63246 0
M  V30 3902 H 375.99 0.00112086 2.046 0
M  V30 3903 H 376 -1.86395 3.62934 0
M  V30 3904 H 374.675 -0.80364 4.08062 0
M  V30 3905 H 373.252 -2.25808 2.96758 0
M  V30 3906 N 375.437 -1.54477 -0.31217 0
M  V30 3907 C 376.684 -1.73227 -1.04875 0
M  V30 3908 C 377.012 -0.512042 -1.87639 0
M  V30 3909 O 376.267 0.506131 -1.89042 0
M  V30 3910 C 376.566 -2.967 -1.99258 0
M  V30 3911 C 376.232 -4.30974 -1.32559 0
M  V30 3912 C 374.894 -4.67477 -1.141 0
M  V30 3913 C 377.246 -5.14258 -0.847835 0
M  V30 3914 C 374.574 -5.84852 -0.465326 0
M  V30 3915 C 376.926 -6.32327 -0.185931 0
M  V30 3916 C 375.59 -6.67499 0.0107077 0
M  V30 3917 H 374.86 -0.633881 -0.383765 0
M  V30 3918 H 377.507 -1.88727 -0.324731 0
M  V30 3919 H 375.812 -2.75935 -2.7815 0
M  V30 3920 H 377.509 -3.08401 -2.563 0
M  V30 3921 H 374.099 -4.02262 -1.4793 0
M  V30 3922 H 378.283 -4.86565 -0.978192 0
M  V30 3923 H 373.539 -6.10654 -0.301883 0
M  V30 3924 H 377.713 -6.96135 0.192211 0
M  V30 3925 H 375.34 -7.58306 0.536287 0
M  V30 3926 N 376.915 0.57481 -1.46744 0
M  V30 3927 C 377.865 1.67838 -1.54319 0
M  V30 3928 C 378.849 1.55759 -0.40346 0
M  V30 3929 O 380.041 1.6454 -0.652347 0
M  V30 3930 C 377.17 3.06624 -1.5439 0
M  V30 3931 C 376.256 3.23971 -2.73685 0
M  V30 3932 N 376.647 3.11447 -3.9854 0
M  V30 3933 C 374.945 3.5493 -2.70075 0
M  V30 3934 C 375.646 3.31011 -4.78337 0
M  V30 3935 N 374.622 3.56533 -4.10348 0
M  V30 3936 H 378.424 1.56698 -2.48642 0
M  V30 3937 H 375.938 0.779071 -1.42493 0
M  V30 3938 H 377.935 3.85839 -1.57905 0
M  V30 3939 H 376.595 3.1889 -0.611493 0
M  V30 3940 H 377.606 2.89145 -4.29669 0
M  V30 3941 H 374.283 3.73832 -1.85893 0
M  V30 3942 H 375.673 3.26445 -5.87268 0
M  V30 3943 N 378.394 1.34581 0.820102 0
M  V30 3944 C 379.324 1.29038 1.94606 0
M  V30 3945 C 380.305 0.1673 1.69275 0
M  V30 3946 O 381.49 0.360112 1.90832 0
M  V30 3947 C 378.62 1.04793 3.31113 0
M  V30 3948 C 377.574 2.13597 3.70891 0
M  V30 3949 C 376.9 1.74537 5.05412 0
M  V30 3950 C 378.2 3.55451 3.8269 0
M  V30 3951 H 379.894 2.23248 1.99501 0
M  V30 3952 H 377.44 1.0747 0.958449 0
M  V30 3953 H 379.393 0.995592 4.0947 0
M  V30 3954 H 378.117 0.0702565 3.26524 0
M  V30 3955 H 376.776 2.17905 2.9481 0
M  V30 3956 H 376.424 0.754226 4.97313 0
M  V30 3957 H 376.124 2.47361 5.32997 0
M  V30 3958 H 377.648 1.70803 5.86224 0
M  V30 3959 H 379.062 3.5354 4.51312 0
M  V30 3960 H 377.459 4.26922 4.21732 0
M  V30 3961 H 378.529 3.92587 2.84611 0
M  V30 3962 N 379.872 -1.04064 1.18357 0
M  V30 3963 C 381.149 -1.74252 0.888581 0
M  V30 3964 C 381.529 -2.02138 -0.60856 0
M  V30 3965 O 380.877 -1.66656 -1.56327 0
M  V30 3966 C 381.087 -3.0277 1.73584 0
M  V30 3967 C 382.435 -3.76506 1.96286 0
M  V30 3968 O 383.459 -3.12668 1.70637 0
M  V30 3969 O 382.318 -4.91243 2.39464 0
M  V30 3970 H 379.412 -0.758271 0.330082 0
M  V30 3971 H 381.958 -1.1013 1.2911 0
M  V30 3972 H 380.73 -2.78299 2.75073 0
M  V30 3973 H 380.353 -3.74631 1.33183 0
M  V30 3974 N 381.35 -0.985608 -1.22978 0
M  V30 3975 C 382.26 -0.538548 -2.28335 0
M  V30 3976 C 383.276 0.409163 -1.69121 0
M  V30 3977 O 384.452 0.277797 -1.99475 0
M  V30 3978 C 381.517 0.146867 -3.46389 0
M  V30 3979 C 380.578 -0.842896 -4.20944 0
M  V30 3980 C 379.811 -0.190095 -5.33361 0
M  V30 3981 O 380.034 1.01767 -5.61248 0
M  V30 3982 O 378.968 -0.891289 -5.95264 0
M  V30 3983 H 382.794 -1.41487 -2.68729 0
M  V30 3984 H 380.379 -0.753495 -1.29007 0
M  V30 3985 H 382.261 0.531125 -4.1804 0
M  V30 3986 H 380.936 0.997871 -3.07935 0
M  V30 3987 H 379.843 -1.27795 -3.51595 0
M  V30 3988 H 381.176 -1.66287 -4.6326 0
M  V30 3989 N 382.828 1.3818 -0.7579 0
M  V30 3990 C 383.76 2.2901 -0.0932177 0
M  V30 3991 C 384.773 1.47958 0.679136 0
M  V30 3992 O 385.962 1.70773 0.519514 0
M  V30 3993 C 383.062 3.26953 0.89192 0
M  V30 3994 C 382.235 4.37045 0.176303 0
M  V30 3995 C 381.294 5.15148 1.07281 0
M  V30 3996 O 380.32 5.66616 0.541728 0
M  V30 3997 N 381.522 5.28542 2.40049 0
M  V30 3998 H 384.287 2.86694 -0.873303 0
M  V30 3999 H 381.848 1.50007 -0.609054 0
M  V30 4000 H 383.84 3.76083 1.49479 0
M  V30 4001 H 382.41 2.70136 1.57306 0
M  V30 4002 H 381.63 3.89493 -0.607328 0
M  V30 4003 H 382.918 5.07801 -0.318718 0
M  V30 4004 H 382.316 4.88285 2.85647 0
M  V30 4005 H 380.873 5.8103 2.95376 0
M  V30 4006 N 384.306 0.507319 1.49211 0
M  V30 4007 C 385.553 -0.0349529 2.0247 0
M  V30 4008 C 385.881 -1.36409 1.38647 0
M  V30 4009 O 385.136 -1.88841 0.513566 0
M  V30 4010 C 385.435 -0.229513 3.56662 0
M  V30 4011 C 385.101 1.02241 4.39156 0
M  V30 4012 C 383.763 1.36557 4.61417 0
M  V30 4013 C 386.115 1.85428 4.871 0
M  V30 4014 C 383.443 2.53999 5.28868 0
M  V30 4015 C 385.795 3.02028 5.55843 0
M  V30 4016 C 384.459 3.36717 5.76349 0
M  V30 4017 H 383.729 -0.0127902 0.74089 0
M  V30 4018 H 386.376 0.668756 1.79443 0
M  V30 4019 H 384.681 -1.0158 3.78403 0
M  V30 4020 H 386.378 -0.663641 3.9547 0
M  V30 4021 H 382.968 0.745124 4.22073 0
M  V30 4022 H 387.152 1.6023 4.69723 0
M  V30 4023 H 382.408 2.81105 5.42946 0
M  V30 4024 H 386.582 3.66808 5.91967 0
M  V30 4025 H 384.209 4.27821 6.28389 0
M  V30 4026 N 385.784 -1.5574 0.241426 0
M  V30 4027 C 387.012 -2.03208 -0.389134 0
M  V30 4028 C 387.427 -1.12082 -1.51931 0
M  V30 4029 O 386.784 -0.134183 -1.82006 0
M  V30 4030 C 386.835 -3.50064 -0.902087 0
M  V30 4031 O 386.556 -4.37717 0.18305 0
M  V30 4032 C 388.057 -4.13268 -1.60389 0
M  V30 4033 H 385.277 -0.664509 -0.0931053 0
M  V30 4034 H 387.821 -2.0124 0.36369 0
M  V30 4035 H 385.976 -3.52583 -1.60511 0
M  V30 4036 H 386.39 -5.24097 -0.205579 0
M  V30 4037 H 387.864 -5.17733 -1.91458 0
M  V30 4038 H 388.341 -3.59434 -2.52397 0
M  V30 4039 H 388.947 -4.14655 -0.945576 0
M  V30 4040 N 387.262 0.0317525 -1.57568 0
M  V30 4041 C 388.508 0.724175 -1.8943 0
M  V30 4042 C 388.841 1.75149 -0.838836 0
M  V30 4043 O 388.116 1.93948 0.146422 0
M  V30 4044 C 388.399 1.39615 -3.31933 0
M  V30 4045 C 388.252 0.382537 -4.4817 0
M  V30 4046 C 389.571 2.33084 -3.73309 0
M  V30 4047 H 386.69 0.261797 -0.688935 0
M  V30 4048 H 389.332 -0.013017 -1.89996 0
M  V30 4049 H 387.482 2.02451 -3.31581 0
M  V30 4050 H 389.154 -0.243689 -4.60656 0
M  V30 4051 H 387.397 -0.29844 -4.32772 0
M  V30 4052 H 388.068 0.891145 -5.44759 0
M  V30 4053 H 390.544 1.80295 -3.7501 0
M  V30 4054 H 389.42 2.77084 -4.73831 0
M  V30 4055 H 389.681 3.19643 -3.05419 0
M  V30 4056 N 388.74 1.54641 0.303973 0
M  V30 4057 C 390.151 1.64811 0.877163 0
M  V30 4058 C 390.502 0.554838 1.88191 0
M  V30 4059 O 389.627 -0.309033 2.14182 0
M  V30 4060 C 390.222 2.9876 1.59775 0
M  V30 4061 C 388.781 3.11061 2.11938 0
M  V30 4062 C 387.928 2.60479 0.951097 0
M  V30 4063 H 390.879 1.58493 0.0810486 0
M  V30 4064 H 390.9 2.90017 2.46314 0
M  V30 4065 H 390.412 3.7831 0.866226 0
M  V30 4066 H 388.513 2.36225 2.88146 0
M  V30 4067 H 388.626 4.17171 2.35595 0
M  V30 4068 H 386.99 2.16859 1.33583 0
M  V30 4069 H 387.773 3.42504 0.233581 0
M  V30 4070 N 390.218 -0.567019 1.47046 0
M  V30 4071 C 391.464 -1.32658 1.53394 0
M  V30 4072 C 391.797 -1.93254 0.19148 0
M  V30 4073 O 391.072 -1.77338 -0.798844 0
M  V30 4074 C 391.355 -2.44412 2.64452 0
M  V30 4075 C 391.208 -1.88749 4.08282 0
M  V30 4076 C 392.527 -3.46387 2.71485 0
M  V30 4077 H 389.646 -0.48098 0.558415 0
M  V30 4078 H 392.288 -0.635481 1.79058 0
M  V30 4079 H 390.438 -3.03363 2.427 0
M  V30 4080 H 392.11 -1.34134 4.41368 0
M  V30 4081 H 390.353 -1.19481 4.17021 0
M  V30 4082 H 391.024 -2.69491 4.81745 0
M  V30 4083 H 393.5 -2.9734 2.91081 0
M  V30 4084 H 392.376 -4.2202 3.50985 0
M  V30 4085 H 392.637 -4.04616 1.78153 0
M  V30 4086 N 391.696 -1.35014 -0.812953 0
M  V30 4087 C 392.606 -1.2951 -1.95613 0
M  V30 4088 C 393.622 -0.20107 -1.72834 0
M  V30 4089 O 394.798 -0.42932 -1.96771 0
M  V30 4090 C 391.863 -1.06033 -3.30088 0
M  V30 4091 C 390.924 -2.24688 -3.65805 0
M  V30 4092 C 390.157 -2.02322 -4.93864 0
M  V30 4093 O 390.38 -0.986464 -5.61805 0
M  V30 4094 O 389.314 -2.89525 -5.27692 0
M  V30 4095 H 393.14 -2.25705 -2.03202 0
M  V30 4096 H 390.725 -1.15321 -0.949811 0
M  V30 4097 H 392.607 -0.94763 -4.10607 0
M  V30 4098 H 391.282 -0.128852 -3.23443 0
M  V30 4099 H 390.189 -2.41521 -2.85689 0
M  V30 4100 H 391.522 -3.16261 -3.77147 0
M  V30 4101 N 393.175 1.03435 -1.18907 0
M  V30 4102 C 394.108 2.11162 -0.86521 0
M  V30 4103 C 395.086 1.6165 0.175473 0
M  V30 4104 O 396.27 1.88425 0.0530129 0
M  V30 4105 C 393.397 3.37423 -0.293868 0
M  V30 4106 C 392.443 4.05795 -1.31274 0
M  V30 4107 S 393.276 4.52027 -2.8711 0
M  V30 4108 C 394.432 5.81513 -2.31504 0
M  V30 4109 H 394.665 2.38308 -1.77754 0
M  V30 4110 H 392.198 1.16295 -1.01562 0
M  V30 4111 H 394.156 4.1049 0.0292572 0
M  V30 4112 H 392.817 3.0838 0.596682 0
M  V30 4113 H 392.01 4.96574 -0.86198 0
M  V30 4114 H 391.612 3.38874 -1.58242 0
M  V30 4115 H 393.904 6.55784 -1.70157 0
M  V30 4116 H 394.847 6.3136 -3.20608 0
M  V30 4117 H 395.255 5.36921 -1.74286 0
M  V30 4118 N 394.653 0.992116 1.22453 0
M  V30 4119 C 395.586 0.486701 2.22949 0
M  V30 4120 C 396.564 -0.45259 1.56174 0
M  V30 4121 O 397.748 -0.378317 1.84665 0
M  V30 4122 C 394.875 -0.294537 3.37417 0
M  V30 4123 C 393.921 0.590628 4.22391 0
M  V30 4124 S 394.754 2.04546 4.94895 0
M  V30 4125 C 395.91 1.27369 6.12803 0
M  V30 4126 H 396.143 1.33828 2.65475 0
M  V30 4127 H 393.676 0.799023 1.32117 0
M  V30 4128 H 395.634 -0.739241 4.03789 0
M  V30 4129 H 394.295 -1.12139 2.934 0
M  V30 4130 H 393.488 -0.0104375 5.03999 0
M  V30 4131 H 393.09 0.972064 3.61147 0
M  V30 4132 H 395.382 0.540943 6.75337 0
M  V30 4133 H 396.325 2.06502 6.7732 0
M  V30 4134 H 396.733 0.787324 5.58983 0
M  V30 4135 N 396.131 -1.37776 0.765217 0
M  V30 4136 C 397.063 -2.28958 0.105361 0
M  V30 4137 C 398.076 -1.48316 -0.67128 0
M  V30 4138 O 399.265 -1.71046 -0.51045 0
M  V30 4139 C 396.365 -3.27421 -0.874569 0
M  V30 4140 C 395.538 -4.37132 -0.153123 0
M  V30 4141 C 394.597 -5.1571 -1.04547 0
M  V30 4142 O 393.623 -5.66896 -0.511672 0
M  V30 4143 N 394.825 -5.29808 -2.37243 0
M  V30 4144 H 397.59 -2.86227 0.888495 0
M  V30 4145 H 395.151 -1.49682 0.617 0
M  V30 4146 H 397.143 -3.7687 -1.47483 0
M  V30 4147 H 395.713 -2.70967 -1.55871 0
M  V30 4148 H 394.933 -3.89166 0.627975 0
M  V30 4149 H 396.221 -5.07625 0.345643 0
M  V30 4150 H 395.619 -4.89793 -2.83054 0
M  V30 4151 H 394.176 -5.82589 -2.9229 0
M  V30 4152 N 397.609 -0.515225 -1.4894 0
M  V30 4153 C 398.572 0.244681 -2.2789 0
M  V30 4154 C 399.572 0.881166 -1.34507 0
M  V30 4155 O 400.762 0.743497 -1.57537 0
M  V30 4156 C 397.894 1.35247 -3.12923 0
M  V30 4157 H 399.087 -0.448289 -2.96531 0
M  V30 4158 H 396.64 -0.270656 -1.53939 0
M  V30 4159 H 397.375 2.07916 -2.48881 0
M  V30 4160 H 397.16 0.901374 -3.81599 0
M  V30 4161 H 398.65 1.88737 -3.72516 0
M  V30 4162 N 399.087 1.5561 -0.249682 0
M  V30 4163 C 400.503 1.59254 0.105103 0
M  V30 4164 C 400.703 1.26685 1.56694 0
M  V30 4165 O 399.759 1.0155 2.31179 0
M  V30 4166 C 401.072 2.99687 -0.246592 0
M  V30 4167 C 402.62 3.12416 -0.191118 0
M  V30 4168 C 403.095 4.55074 -0.516885 0
M  V30 4169 N 404.586 4.60835 -0.467489 0
M  V30 4170 C 405.321 5.69201 -0.69268 0
M  V30 4171 N 404.817 6.85817 -0.981146 0
M  V30 4172 N 406.61 5.58635 -0.623198 0
M  V30 4173 H 398.761 1.75049 -1.20298 0
M  V30 4174 H 401.024 0.815003 -0.484225 0
M  V30 4175 H 400.73 3.28267 -1.26228 0
M  V30 4176 H 400.604 3.74798 0.424962 0
M  V30 4177 H 402.991 2.83615 0.815247 0
M  V30 4178 H 403.072 2.39573 -0.896563 0
M  V30 4179 H 402.716 4.84596 -1.52082 0
M  V30 4180 H 402.646 5.26181 0.210068 0
M  V30 4181 H 405.137 3.7705 -0.253373 0
M  V30 4182 H 405.45 7.64341 -1.14032 0
M  V30 4183 H 403.795 6.87494 -1.01865 0
M  V30 4184 H 406.986 4.66406 -0.397863 0
M  V30 4185 H 407.159 6.43017 -0.802093 0
M  V30 4186 N 400.565 -0.0233959 1.57583 0
M  V30 4187 C 401.793 -0.724682 1.93794 0
M  V30 4188 C 402.208 -1.68588 0.849912 0
M  V30 4189 O 401.565 -1.81676 -0.173204 0
M  V30 4190 C 401.616 -1.47684 3.29957 0
M  V30 4191 O 401.337 -0.554222 4.3458 0
M  V30 4192 C 402.838 -2.27477 3.80485 0
M  V30 4193 H 400.058 -0.203317 0.639455 0
M  V30 4194 H 402.602 0.0207653 2.04489 0
M  V30 4195 H 400.757 -2.17412 3.20641 0
M  V30 4196 H 401.171 -1.08232 5.13212 0
M  V30 4197 H 402.645 -2.7564 4.78254 0
M  V30 4198 H 403.122 -3.09144 3.11972 0
M  V30 4199 H 403.728 -1.62813 3.92902 0
M  V30 4200 N 402.043 -1.548 -0.295768 0
M  V30 4201 C 403.273 -1.78069 -1.04762 0
M  V30 4202 C 403.681 -0.542847 -1.81245 0
M  V30 4203 O 403.024 0.497051 -1.76848 0
M  V30 4204 C 403.086 -2.93881 -2.07061 0
M  V30 4205 C 402.75 -4.31777 -1.49725 0
M  V30 4206 C 403.747 -5.11613 -0.924581 0
M  V30 4207 C 401.432 -4.78389 -1.5313 0
M  V30 4208 C 403.426 -6.36184 -0.393594 0
M  V30 4209 C 401.113 -6.02921 -0.996447 0
M  V30 4210 C 402.111 -6.81654 -0.428569 0
M  V30 4211 O 401.799 -8.0384 0.0981593 0
M  V30 4212 H 401.531 -0.597475 -0.316226 0
M  V30 4213 H 404.085 -2.02584 -0.338973 0
M  V30 4214 H 402.315 -2.65003 -2.81621 0
M  V30 4215 H 404.004 -3.04679 -2.6819 0
M  V30 4216 H 404.77 -4.76743 -0.891136 0
M  V30 4217 H 400.649 -4.17132 -1.9627 0
M  V30 4218 H 404.193 -6.97582 0.0503014 0
M  V30 4219 H 400.09 -6.37277 -1.02706 0
M  V30 4220 H 400.858 -8.18499 -0.0146455 0
M  V30 4221 N 403.521 0.559213 -1.47345 0
M  V30 4222 C 404.932 1.14134 -1.47751 0
M  V30 4223 C 405.283 1.94834 -0.231103 0
M  V30 4224 O 404.408 2.05957 0.664137 0
M  V30 4225 C 405.003 2.07653 -2.67705 0
M  V30 4226 C 403.562 2.61141 -2.71076 0
M  V30 4227 C 402.709 1.3748 -2.40821 0
M  V30 4228 H 405.66 0.345917 -1.54884 0
M  V30 4229 H 405.681 2.91497 -2.44561 0
M  V30 4230 H 405.193 1.4889 -3.58404 0
M  V30 4231 H 403.294 3.23707 -1.84511 0
M  V30 4232 H 403.407 3.02272 -3.7171 0
M  V30 4233 H 401.771 1.68086 -1.91362 0
M  V30 4234 H 402.554 0.805135 -3.33725 0
M  V30 4235 N 404.999 1.35443 0.805782 0
M  V30 4236 C 405.929 1.31095 1.93226 0
M  V30 4237 C 406.91 0.185244 1.69088 0
M  V30 4238 O 408.095 0.380332 1.90439 0
M  V30 4239 C 405.225 1.08299 3.29983 0
M  V30 4240 C 404.179 2.17519 3.68605 0
M  V30 4241 C 403.505 1.79887 5.03532 0
M  V30 4242 C 404.805 3.5949 3.78898 0
M  V30 4243 H 406.499 2.25352 1.97122 0
M  V30 4244 H 404.045 1.0848 0.946996 0
M  V30 4245 H 405.998 1.03897 4.08391 0
M  V30 4246 H 404.722 0.104885 3.26432 0
M  V30 4247 H 403.381 2.2102 2.92482 0
M  V30 4248 H 403.029 0.80693 4.96485 0
M  V30 4249 H 402.729 2.53001 5.30344 0
M  V30 4250 H 404.253 1.77011 5.84379 0
M  V30 4251 H 405.667 3.58307 4.47536 0
M  V30 4252 H 404.064 4.31371 4.1718 0
M  V30 4253 H 405.134 3.95584 2.80431 0
M  V30 4254 N 406.477 -1.02803 1.19454 0
M  V30 4255 C 407.893 -1.28473 0.946937 0
M  V30 4256 C 408.093 -1.97881 -0.380202 0
M  V30 4257 O 407.149 -2.26719 -1.11151 0
M  V30 4258 C 408.462 -2.13099 2.12154 0
M  V30 4259 C 410.01 -2.26404 2.16126 0
M  V30 4260 C 410.485 -3.14402 3.33039 0
M  V30 4261 N 411.976 -3.21991 3.32981 0
M  V30 4262 C 412.711 -3.90272 4.20089 0
M  V30 4263 N 412.207 -4.60777 5.17355 0
M  V30 4264 N 414 -3.8668 4.07964 0
M  V30 4265 H 406.151 -0.561665 2.04839 0
M  V30 4266 H 408.414 -0.310438 0.89573 0
M  V30 4267 H 408.12 -1.69422 3.08203 0
M  V30 4268 H 407.994 -3.13813 2.09287 0
M  V30 4269 H 410.381 -2.69311 1.20647 0
M  V30 4270 H 410.462 -1.25237 2.23045 0
M  V30 4271 H 410.106 -2.72204 4.28798 0
M  V30 4272 H 410.036 -4.1563 3.23356 0
M  V30 4273 H 412.527 -2.71778 2.62574 0
M  V30 4274 H 412.84 -5.10513 5.80169 0
M  V30 4275 H 411.185 -4.5964 5.21302 0
M  V30 4276 H 414.376 -3.30739 3.31254 0
M  V30 4277 H 414.549 -4.39621 4.76064 0
M  V30 4278 N 407.956 -0.998596 -1.21925 0
M  V30 4279 C 409.202 -0.688337 -1.91399 0
M  V30 4280 C 409.557 0.771805 -1.76241 0
M  V30 4281 O 408.85 1.55153 -1.1242 0
M  V30 4282 C 409.044 -1.03648 -3.42041 0
M  V30 4283 C 408.873 -2.52892 -3.71855 0
M  V30 4284 C 407.643 -3.19389 -3.91559 0
M  V30 4285 C 409.841 -3.5103 -3.75875 0
M  V30 4286 N 407.823 -4.5805 -4.08734 0
M  V30 4287 C 409.194 -4.75174 -3.98259 0
M  V30 4288 C 411.249 -3.45257 -3.58751 0
M  V30 4289 C 409.952 -5.94247 -4.05294 0
M  V30 4290 C 411.978 -4.63712 -3.67049 0
M  V30 4291 C 411.34 -5.86658 -3.89887 0
M  V30 4292 H 407.439 -0.303251 -0.720807 0
M  V30 4293 H 410.023 -1.27977 -1.46731 0
M  V30 4294 H 408.194 -0.473569 -3.85502 0
M  V30 4295 H 409.926 -0.681619 -3.98919 0
M  V30 4296 H 406.681 -2.69846 -3.89205 0
M  V30 4297 H 407.105 -5.29989 -4.21237 0
M  V30 4298 H 411.747 -2.51215 -3.40075 0
M  V30 4299 H 409.465 -6.88687 -4.22772 0
M  V30 4300 H 413.051 -4.6084 -3.5513 0
M  V30 4301 H 411.931 -6.76786 -3.96144 0
M  V30 4302 N 409.434 1.37368 -0.772513 0
M  V30 4303 C 410.681 1.99673 -0.337182 0
M  V30 4304 C 411.009 1.61324 1.0865 0
M  V30 4305 O 410.264 0.851377 1.7621 0
M  V30 4306 C 410.563 3.54817 -0.428876 0
M  V30 4307 C 410.229 4.12936 -1.81092 0
M  V30 4308 C 408.891 4.28523 -2.1891 0
M  V30 4309 C 411.243 4.44801 -2.71664 0
M  V30 4310 C 408.571 4.73277 -3.46735 0
M  V30 4311 C 410.923 4.90981 -3.98899 0
M  V30 4312 C 409.587 5.04773 -4.36761 0
M  V30 4313 H 408.857 0.730656 -0.123384 0
M  V30 4314 H 411.504 1.64124 -0.986686 0
M  V30 4315 H 409.809 3.90618 0.304167 0
M  V30 4316 H 411.506 4.00933 -0.0733334 0
M  V30 4317 H 408.096 4.01233 -1.50699 0
M  V30 4318 H 412.28 4.32344 -2.43706 0
M  V30 4319 H 407.536 4.82142 -3.75964 0
M  V30 4320 H 411.71 5.14603 -4.69208 0
M  V30 4321 H 409.337 5.39211 -5.35868 0
M  V30 4322 N 410.912 0.523116 1.48665 0
M  V30 4323 C 411.842 -0.23231 2.32342 0
M  V30 4324 C 412.823 -0.941637 1.41659 0
M  V30 4325 O 414.008 -0.928751 1.70552 0
M  V30 4326 C 411.138 -1.28387 3.22698 0
M  V30 4327 C 410.092 -0.693098 4.22351 0
M  V30 4328 C 409.418 -1.8468 5.01794 0
M  V30 4329 C 410.718 0.33063 5.21252 0
M  V30 4330 H 412.412 0.466192 2.95748 0
M  V30 4331 H 409.958 0.225643 1.42221 0
M  V30 4332 H 411.911 -1.82024 3.80059 0
M  V30 4333 H 410.635 -2.01186 2.57278 0
M  V30 4334 H 409.294 -0.178299 3.66166 0
M  V30 4335 H 408.942 -2.56301 4.32804 0
M  V30 4336 H 408.642 -1.45747 5.69238 0
M  V30 4337 H 410.166 -2.38709 5.62006 0
M  V30 4338 H 411.58 -0.118407 5.73178 0
M  V30 4339 H 409.977 0.636974 5.9671 0
M  V30 4340 H 411.047 1.23883 4.68808 0
M  V30 4341 N 412.39 -1.55475 0.257931 0
M  V30 4342 C 413.32 -2.24815 -0.630912 0
M  V30 4343 C 414.301 -1.23224 -1.17259 0
M  V30 4344 O 415.486 -1.51904 -1.20991 0
M  V30 4345 C 412.616 -2.95609 -1.82298 0
M  V30 4346 C 411.57 -4.03982 -1.41359 0
M  V30 4347 C 410.896 -4.6226 -2.68738 0
M  V30 4348 C 412.196 -5.19109 -0.57648 0
M  V30 4349 H 413.89 -2.99354 -0.0526878 0
M  V30 4350 H 411.436 -1.4398 -0.023901 0
M  V30 4351 H 413.389 -3.42822 -2.45054 0
M  V30 4352 H 412.113 -2.18577 -2.42676 0
M  V30 4353 H 410.772 -3.57555 -0.809324 0
M  V30 4354 H 410.42 -3.81915 -3.27338 0
M  V30 4355 H 410.12 -5.35424 -2.42065 0
M  V30 4356 H 411.644 -5.12212 -3.32372 0
M  V30 4357 H 413.058 -5.62479 -1.10861 0
M  V30 4358 H 411.455 -5.98729 -0.405351 0
M  V30 4359 H 412.525 -4.83174 0.408776 0
M  V30 4360 N 413.868 0.0150385 -1.57593 0
M  V30 4361 C 414.778 1.02791 -2.10882 0
M  V30 4362 C 415.794 1.38702 -1.0506 0
M  V30 4363 O 416.97 1.47739 -1.36877 0
M  V30 4364 C 414.035 2.30568 -2.58919 0
M  V30 4365 C 413.096 2.01108 -3.79281 0
M  V30 4366 C 412.329 3.22794 -4.25018 0
M  V30 4367 O 412.552 4.33959 -3.70183 0
M  V30 4368 O 411.486 3.07672 -5.17322 0
M  V30 4369 H 415.312 0.604973 -2.97613 0
M  V30 4370 H 412.897 0.23292 -1.47573 0
M  V30 4371 H 414.779 3.05662 -2.90084 0
M  V30 4372 H 413.454 2.72129 -1.75293 0
M  V30 4373 H 412.361 1.23537 -3.53114 0
M  V30 4374 H 413.694 1.64394 -4.63935 0
M  V30 4375 N 415.346 1.54954 0.287554 0
M  V30 4376 C 416.278 1.83224 1.37701 0
M  V30 4377 C 417.291 0.715898 1.46215 0
M  V30 4378 O 418.48 0.993565 1.48292 0
M  V30 4379 C 415.58 1.96723 2.75959 0
M  V30 4380 C 414.753 3.27253 2.90215 0
M  V30 4381 C 413.812 3.30998 4.09056 0
M  V30 4382 O 412.838 4.04457 4.00503 0
M  V30 4383 N 414.04 2.57353 5.20336 0
M  V30 4384 H 416.805 2.77254 1.138 0
M  V30 4385 H 414.366 1.54694 0.477652 0
M  V30 4386 H 416.358 1.96615 3.5373 0
M  V30 4387 H 414.928 1.09626 2.92747 0
M  V30 4388 H 414.148 3.40022 1.99447 0
M  V30 4389 H 415.436 4.13365 2.96659 0
M  V30 4390 H 414.834 1.97327 5.30169 0
M  V30 4391 H 413.391 2.62984 5.96391 0
M  V30 4392 N 416.824 -0.551391 1.4764 0
M  V30 4393 C 418.235 -1.13349 1.48354 0
M  V30 4394 C 418.586 -1.94709 0.241432 0
M  V30 4395 O 417.711 -2.06306 -0.653205 0
M  V30 4396 C 418.306 -2.0623 2.68802 0
M  V30 4397 C 416.865 -2.597 2.72457 0
M  V30 4398 C 416.012 -1.36201 2.41546 0
M  V30 4399 H 418.963 -0.337698 1.55065 0
M  V30 4400 H 418.984 -2.90196 2.46103 0
M  V30 4401 H 418.496 -1.46987 3.59188 0
M  V30 4402 H 416.597 -3.22724 1.86225 0
M  V30 4403 H 416.71 -3.00296 3.73308 0
M  V30 4404 H 415.074 -1.67068 1.9225 0
M  V30 4405 H 415.857 -0.787425 3.34147 0
M  V30 4406 N 418.302 -1.35869 -0.798587 0
M  V30 4407 C 419.212 -1.31578 -1.94228 0
M  V30 4408 C 420.228 -0.21939 -1.72611 0
M  V30 4409 O 421.404 -0.450167 -1.96305 0
M  V30 4410 C 418.469 -1.09528 -3.28944 0
M  V30 4411 C 417.53 -2.28556 -3.63402 0
M  V30 4412 C 416.763 -2.07549 -4.9169 0
M  V30 4413 O 416.986 -1.046 -5.60727 0
M  V30 4414 O 415.92 -2.95106 -5.24591 0
M  V30 4415 H 419.746 -2.27847 -2.00796 0
M  V30 4416 H 417.331 -1.16322 -0.937526 0
M  V30 4417 H 419.213 -0.991127 -4.09579 0
M  V30 4418 H 417.888 -0.16315 -3.23289 0
M  V30 4419 H 416.795 -2.44538 -2.83112 0
M  V30 4420 H 418.128 -3.20244 -3.73771 0
M  V30 4421 N 419.78 1.02168 -1.19998 0
M  V30 4422 C 421.029 1.75091 -1.0013 0
M  V30 4423 C 421.342 1.89923 0.467835 0
M  V30 4424 O 422.548 2.59888 0.785515 0
M  V30 4425 C 421.004 3.14892 -1.74273 0
M  V30 4426 C 420.612 3.0809 -3.25245 0
M  V30 4427 C 422.356 3.9206 -1.62755 0
M  V30 4428 C 420.263 4.42867 -3.91948 0
M  V30 4429 H 419.193 0.656394 -0.37103 0
M  V30 4430 H 421.844 1.14284 -1.43567 0
M  V30 4431 H 420.226 3.7621 -1.2362 0
M  V30 4432 H 421.4 2.5611 -3.83072 0
M  V30 4433 H 419.715 2.44416 -3.3712 0
M  V30 4434 H 422.312 4.91764 -2.09934 0
M  V30 4435 H 422.655 4.12199 -0.582894 0
M  V30 4436 H 423.188 3.37359 -2.10793 0
M  V30 4437 H 419.927 4.27931 -4.96543 0
M  V30 4438 H 419.447 4.94874 -3.3891 0
M  V30 4439 H 421.126 5.11728 -3.95909 0
M  V30 4440 N 421.258 1.00505 1.21394 0
M  V30 4441 C 422.19 0.52372 2.23136 0
M  V30 4442 C 423.203 -0.387714 1.58116 0
M  V30 4443 O 424.392 -0.187905 1.77508 0
M  V30 4444 C 421.492 -0.258885 3.3791 0
M  V30 4445 C 420.665 0.651634 4.32519 0
M  V30 4446 C 419.724 -0.0813705 5.26137 0
M  V30 4447 O 418.75 0.537295 5.66658 0
M  V30 4448 N 419.952 -1.35992 5.64346 0
M  V30 4449 H 422.717 1.39865 2.65062 0
M  V30 4450 H 420.278 0.881196 1.35818 0
M  V30 4451 H 422.27 -0.758208 3.97534 0
M  V30 4452 H 420.84 -1.035 2.94968 0
M  V30 4453 H 420.06 1.33145 3.71034 0
M  V30 4454 H 421.348 1.27129 4.92662 0
M  V30 4455 H 420.746 -1.88368 5.33417 0
M  V30 4456 H 419.303 -1.8042 6.26332 0
M  V30 4457 N 422.737 -1.36956 0.779787 0
M  V30 4458 C 423.983 -1.99787 0.348281 0
M  V30 4459 C 424.316 -1.61756 -1.07465 0
M  V30 4460 O 423.591 -0.867639 -1.74075 0
M  V30 4461 C 423.874 -3.56597 0.50104 0
M  V30 4462 C 423.727 -4.04513 1.96697 0
M  V30 4463 C 425.046 -4.40008 -0.0898097 0
M  V30 4464 H 422.165 -0.725796 0.128022 0
M  V30 4465 H 424.807 -1.62514 0.984331 0
M  V30 4466 H 422.957 -3.88479 -0.0404347 0
M  V30 4467 H 424.629 -3.83161 2.56876 0
M  V30 4468 H 422.872 -3.56408 2.47297 0
M  V30 4469 H 423.543 -5.1352 2.02486 0
M  V30 4470 H 426.019 -4.14431 0.372293 0
M  V30 4471 H 424.895 -5.4888 0.0471605 0
M  V30 4472 H 425.156 -4.26035 -1.18096 0
M  V30 4473 N 424.215 -0.530993 -1.48385 0
M  V30 4474 C 425.178 0.220497 -2.28137 0
M  V30 4475 C 426.178 0.866851 -1.35434 0
M  V30 4476 O 427.368 0.726746 -1.58316 0
M  V30 4477 C 424.5 1.31921 -3.1434 0
M  V30 4478 H 425.693 -0.479714 -2.96038 0
M  V30 4479 H 423.246 -0.286968 -1.53643 0
M  V30 4480 H 423.981 2.05264 -2.51072 0
M  V30 4481 H 423.766 0.86085 -3.82533 0
M  V30 4482 H 425.256 1.84776 -3.74497 0
M  V30 4483 N 425.693 1.55336 -0.266172 0
M  V30 4484 C 426.643 2.18848 0.639497 0
M  V30 4485 C 427.627 1.1503 1.12503 0
M  V30 4486 O 428.819 1.40875 1.0716 0
M  V30 4487 C 425.948 2.90626 1.82733 0
M  V30 4488 C 425.034 4.01723 1.35939 0
M  V30 4489 N 425.425 5.02145 0.606988 0
M  V30 4490 C 423.723 4.1463 1.6431 0
M  V30 4491 C 424.424 5.80572 0.362138 0
M  V30 4492 N 423.4 5.35551 0.931971 0
M  V30 4493 H 427.202 2.93845 0.0567057 0
M  V30 4494 H 424.716 1.62252 -0.0693312 0
M  V30 4495 H 426.713 3.34569 2.48735 0
M  V30 4496 H 425.373 2.17137 2.41416 0
M  V30 4497 H 426.384 5.17271 0.255198 0
M  V30 4498 H 423.061 3.52326 2.23993 0
M  V30 4499 H 424.451 6.71472 -0.239848 0
M  V30 4500 N 427.171 -0.0066808 1.57599 0
M  V30 4501 C 428.418 -0.69292 1.90276 0
M  V30 4502 C 428.746 -1.74148 0.866192 0
M  V30 4503 O 428.001 -1.95268 -0.129933 0
M  V30 4504 C 428.3 -1.37939 3.29708 0
M  V30 4505 C 427.966 -0.464679 4.48499 0
M  V30 4506 C 426.628 -0.212809 4.80729 0
M  V30 4507 C 428.98 0.16551 5.20937 0
M  V30 4508 C 426.308 0.677653 5.82773 0
M  V30 4509 C 428.66 1.04381 6.23929 0
M  V30 4510 C 427.324 1.30492 6.54621 0
M  V30 4511 H 426.594 -0.253558 0.696268 0
M  V30 4512 H 429.241 0.0474123 1.91441 0
M  V30 4513 H 427.546 -2.1936 3.24636 0
M  V30 4514 H 429.243 -1.9163 3.52249 0
M  V30 4515 H 425.833 -0.671153 4.23313 0
M  V30 4516 H 430.017 -0.0160756 4.96297 0
M  V30 4517 H 425.273 0.88803 6.04917 0
M  V30 4518 H 429.447 1.53851 6.79193 0
M  V30 4519 H 427.074 1.99662 7.33512 0
M  V30 4520 N 428.649 -1.55105 -0.279332 0
M  V30 4521 C 430.06 -1.66186 -0.850832 0
M  V30 4522 C 430.411 -0.584707 -1.87285 0
M  V30 4523 O 429.536 0.274919 -2.14647 0
M  V30 4524 C 430.131 -3.01264 -1.55001 0
M  V30 4525 C 428.69 -3.14394 -2.06963 0
M  V30 4526 C 427.837 -2.61959 -0.909536 0
M  V30 4527 H 430.788 -1.58602 -0.0558235 0
M  V30 4528 H 430.809 -2.93899 -2.41669 0
M  V30 4529 H 430.321 -3.7964 -0.805931 0
M  V30 4530 H 428.422 -2.4078 -2.84352 0
M  V30 4531 H 428.535 -4.20867 -2.28928 0
M  V30 4532 H 426.899 -2.18957 -1.30116 0
M  V30 4533 H 427.682 -3.42833 -0.179062 0
M  V30 4534 N 430.127 0.543554 -1.4793 0
M  V30 4535 C 431.374 1.30008 -1.55255 0
M  V30 4536 C 431.702 1.93245 -0.220612 0
M  V30 4537 O 430.957 1.79141 0.787843 0
M  V30 4538 C 431.256 2.42078 -2.62932 0
M  V30 4539 C 430.922 1.96583 -4.0579 0
M  V30 4540 C 429.584 1.83893 -4.44676 0
M  V30 4541 C 431.936 1.62034 -4.95373 0
M  V30 4542 C 429.264 1.34969 -5.70964 0
M  V30 4543 C 431.616 1.14577 -6.22137 0
M  V30 4544 C 430.28 1.00493 -6.59892 0
M  V30 4545 H 429.55 0.475735 -0.568117 0
M  V30 4546 H 432.197 0.608075 -1.81589 0
M  V30 4547 H 430.502 3.16892 -2.30406 0
M  V30 4548 H 432.199 3.00236 -2.65818 0
M  V30 4549 H 428.789 2.07407 -3.75074 0
M  V30 4550 H 432.973 1.70705 -4.66019 0
M  V30 4551 H 428.229 1.2274 -5.98953 0
M  V30 4552 H 432.403 0.869109 -6.90955 0
M  V30 4553 H 430.03 0.623624 -7.57638 0
M  V30 4554 N 431.605 1.3629 0.791371 0
M  V30 4555 C 432.552 1.30458 1.90393 0
M  V30 4556 C 433.522 0.173632 1.6519 0
M  V30 4557 O 434.707 0.35983 1.87376 0
M  V30 4558 C 431.847 1.09777 3.27174 0
M  V30 4559 C 430.96 2.31929 3.64462 0
M  V30 4560 C 430.095 2.04276 4.90352 0
M  V30 4561 C 429.134 3.224 5.20312 0
M  V30 4562 N 428.271 2.94424 6.37385 0
M  V30 4563 H 433.111 2.25589 1.94714 0
M  V30 4564 H 430.648 1.12122 0.952216 0
M  V30 4565 H 432.606 0.958133 4.06049 0
M  V30 4566 H 431.236 0.183014 3.22281 0
M  V30 4567 H 430.288 2.56703 2.80727 0
M  V30 4568 H 431.6 3.20085 3.82553 0
M  V30 4569 H 430.754 1.87231 5.77087 0
M  V30 4570 H 429.493 1.13428 4.74326 0
M  V30 4571 H 428.498 3.40005 4.32061 0
M  V30 4572 H 429.723 4.14071 5.38258 0
M  V30 4573 H 427.669 2.06185 6.22755 0
M  V30 4574 H 427.586 3.76118 6.55798 0
M  V30 4575 H 428.854 2.80953 7.27108 0
M  V30 4576 N 433.083 -1.0153 1.20538 0
M  V30 4577 C 434.031 -2.12215 0.952235 0
M  V30 4578 C 435.025 -1.69123 -0.0968735 0
M  V30 4579 O 436.231 -1.7992 0.0536006 0
M  V30 4580 H 432.606 -0.693576 0.290613 0
M  V30 4581 H 434.577 -2.3075 1.89201 0
M  V30 4582 C 433.326 -3.43755 0.522287 0
M  V30 4583 H 432.649 -3.7734 1.32115 0
M  V30 4584 H 434.089 -4.22254 0.384389 0
M  V30 4585 C 432.548 -3.28088 -0.765489 0
M  V30 4586 O 433.078 -3.57921 -1.8236 0
M  V30 4587 N 431.284 -2.81333 -0.728011 0
M  V30 4588 H 430.831 -2.57255 0.133332 0
M  V30 4589 H 430.789 -2.71232 -1.58999 0
M  V30 4590 N 434.561 -1.01147 -1.20859 0
M  V30 4591 C 435.509 -0.57059 -2.25493 0
M  V30 4592 C 436.503 0.388109 -1.64894 0
M  V30 4593 O 437.709 0.258592 -1.78133 0
M  V30 4594 H 434.084 -0.166191 -0.733406 0
M  V30 4595 H 436.055 -1.46411 -2.60012 0
M  V30 4596 C 434.804 0.0805241 -3.47607 0
M  V30 4597 H 434.127 -0.648156 -3.94511 0
M  V30 4598 H 435.567 0.352197 -4.22535 0
M  V30 4599 C 434.026 1.32175 -3.09889 0
M  V30 4600 O 434.556 2.41553 -3.20959 0
M  V30 4601 N 432.762 1.20392 -2.64488 0
M  V30 4602 H 432.309 0.313905 -2.5568 0
M  V30 4603 H 432.267 2.03541 -2.39621 0
M  V30 4604 N 436.039 1.36541 -0.78704 0
M  V30 4605 C 436.972 2.27831 -0.129765 0
M  V30 4606 C 437.95 1.47105 0.692732 0
M  V30 4607 O 439.134 1.7641 0.664222 0
M  V30 4608 C 436.261 3.28577 0.821883 0
M  V30 4609 C 435.307 4.26422 0.0814771 0
M  V30 4610 S 436.14 5.20919 -1.24112 0
M  V30 4611 C 437.296 6.25212 -0.293409 0
M  V30 4612 H 437.529 2.83229 -0.903811 0
M  V30 4613 H 435.062 1.43046 -0.581144 0
M  V30 4614 H 437.02 3.87123 1.3655 0
M  V30 4615 H 435.681 2.72096 1.56916 0
M  V30 4616 H 434.874 4.97554 0.803485 0
M  V30 4617 H 434.476 3.71944 -0.391589 0
M  V30 4618 H 436.768 6.75435 0.528622 0
M  V30 4619 H 437.711 7.01378 -0.973344 0
M  V30 4620 H 438.119 5.64407 0.102196 0
M  V30 4621 N 437.518 0.538854 1.48102 0
M  V30 4622 C 438.743 0.0102694 2.07397 0
M  V30 4623 C 439.168 -1.26562 1.39153 0
M  V30 4624 O 438.526 -1.75357 0.460387 0
M  V30 4625 C 438.574 -0.187602 3.60112 0
M  V30 4626 O 437.678 -1.25432 3.92862 0
M  V30 4627 H 437.019 0.0430975 0.6626 0
M  V30 4628 H 439.549 0.749301 1.90385 0
M  V30 4629 H 439.559 -0.407517 4.0596 0
M  V30 4630 H 438.234 0.744386 4.09184 0
M  V30 4631 H 436.811 -1.01636 3.58782 0
M  V30 4632 N 438.996 -1.55193 0.274407 0
M  V30 4633 C 440.243 -1.99581 -0.342579 0
M  V30 4634 C 440.571 -1.1628 -1.55914 0
M  V30 4635 O 439.826 -0.22029 -1.94456 0
M  V30 4636 C 440.125 -3.49019 -0.769458 0
M  V30 4637 C 439.791 -4.49598 0.342389 0
M  V30 4638 C 438.453 -4.76821 0.647686 0
M  V30 4639 C 440.805 -5.0964 1.09163 0
M  V30 4640 C 438.133 -5.61354 1.70581 0
M  V30 4641 C 440.485 -5.95323 2.13948 0
M  V30 4642 C 439.149 -6.20867 2.45113 0
M  V30 4643 H 438.419 -0.730319 -0.125358 0
M  V30 4644 H 441.066 -1.87529 0.387971 0
M  V30 4645 H 439.371 -3.58544 -1.57967 0
M  V30 4646 H 441.068 -3.8077 -1.25757 0
M  V30 4647 H 437.658 -4.28496 0.094318 0
M  V30 4648 H 441.842 -4.88632 0.869024 0
M  V30 4649 H 437.098 -5.79392 1.9523 0
M  V30 4650 H 441.272 -6.40881 2.72478 0
M  V30 4651 H 438.899 -6.86162 3.27239 0
M  V30 4652 N 440.474 -0.00167713 -1.576 0
M  V30 4653 C 441.72 0.683832 -1.90923 0
M  V30 4654 C 442.053 1.7333 -0.875799 0
M  V30 4655 O 441.328 1.94215 0.10525 0
M  V30 4656 C 441.611 1.32543 -3.3482 0
M  V30 4657 C 441.464 0.287387 -4.48881 0
M  V30 4658 C 442.783 2.25114 -3.78169 0
M  V30 4659 H 439.902 0.247125 -0.694333 0
M  V30 4660 H 442.544 -0.0533149 -1.89925 0
M  V30 4661 H 440.694 1.95372 -3.35801 0
M  V30 4662 H 442.366 -0.341346 -4.60035 0
M  V30 4663 H 440.609 -0.39017 -4.32042 0
M  V30 4664 H 441.28 0.775393 -5.46527 0
M  V30 4665 H 443.756 1.723 -3.7875 0
M  V30 4666 H 442.632 2.66971 -4.79602 0
M  V30 4667 H 442.893 3.13092 -3.12131 0
M  V30 4668 N 441.952 1.55251 0.271103 0
M  V30 4669 C 443.198 1.76207 1.00394 0
M  V30 4670 C 443.531 0.562604 1.85872 0
M  V30 4671 O 442.806 -0.439785 1.89463 0
M  V30 4672 C 443.089 3.06828 1.8849 0
M  V30 4673 C 442.942 4.37134 1.05992 0
M  V30 4674 C 444.261 3.33503 2.87165 0
M  V30 4675 H 441.38 0.641086 0.363562 0
M  V30 4676 H 444.022 1.87982 0.276189 0
M  V30 4677 H 442.172 2.96921 2.5054 0
M  V30 4678 H 443.844 4.59001 0.459978 0
M  V30 4679 H 442.087 4.32275 0.363443 0
M  V30 4680 H 442.758 5.2486 1.70955 0
M  V30 4681 H 445.234 3.43215 2.3525 0
M  V30 4682 H 444.11 4.2616 3.45946 0
M  V30 4683 H 444.371 2.53235 3.62387 0
M  V30 4684 N 443.43 -0.535701 1.48216 0
M  V30 4685 C 444.36 -1.65014 1.65204 0
M  V30 4686 C 445.341 -1.62554 0.501011 0
M  V30 4687 O 446.526 -1.7984 0.732886 0
M  V30 4688 C 443.656 -3.03616 1.68626 0
M  V30 4689 C 442.61 -3.20932 2.83172 0
M  V30 4690 C 441.936 -4.60537 2.71679 0
M  V30 4691 C 443.236 -3.04249 4.24535 0
M  V30 4692 H 444.93 -1.51053 2.58502 0
M  V30 4693 H 442.476 -0.725262 1.24402 0
M  V30 4694 H 444.429 -3.81446 1.79099 0
M  V30 4695 H 443.153 -3.18587 0.719026 0
M  V30 4696 H 441.812 -2.45517 2.72244 0
M  V30 4697 H 441.46 -4.72336 1.72937 0
M  V30 4698 H 441.16 -4.73069 3.48538 0
M  V30 4699 H 442.684 -5.40475 2.84112 0
M  V30 4700 H 444.098 -3.71877 4.36326 0
M  V30 4701 H 442.495 -3.28278 5.02348 0
M  V30 4702 H 443.565 -2.00739 4.41397 0
M  V30 4703 N 444.908 -1.36708 -0.784132 0
M  V30 4704 C 446.154 -1.31426 -1.54451 0
M  V30 4705 C 446.487 0.10476 -1.93917 0
M  V30 4706 O 445.762 1.05934 -1.6312 0
M  V30 4707 C 446.045 -2.24189 -2.818 0
M  V30 4708 C 445.898 -3.74813 -2.48667 0
M  V30 4709 C 447.217 -2.15626 -3.83658 0
M  V30 4710 H 444.336 -0.478739 -0.560337 0
M  V30 4711 H 446.978 -1.67305 -0.900498 0
M  V30 4712 H 445.128 -1.93722 -3.36755 0
M  V30 4713 H 446.8 -4.15823 -1.99722 0
M  V30 4714 H 445.043 -3.93989 -1.81535 0
M  V30 4715 H 445.714 -4.35138 -3.39646 0
M  V30 4716 H 448.19 -2.42456 -3.38163 0
M  V30 4717 H 447.066 -2.82694 -4.70506 0
M  V30 4718 H 447.327 -1.14522 -4.27009 0
M  V30 4719 N 446.386 1.0089 -1.21074 0
M  V30 4720 C 447.797 1.56056 -1.02486 0
M  V30 4721 C 448.148 1.91728 0.416506 0
M  V30 4722 O 447.273 1.73066 1.29912 0
M  V30 4723 C 447.868 2.83563 -1.85411 0
M  V30 4724 C 446.427 3.3523 -1.71166 0
M  V30 4725 C 445.574 2.0846 -1.82865 0
M  V30 4726 H 448.525 0.831818 -1.35154 0
M  V30 4727 H 448.546 3.55286 -1.36205 0
M  V30 4728 H 448.058 2.57569 -2.9031 0
M  V30 4729 H 446.159 3.66167 -0.689361 0
M  V30 4730 H 446.272 4.06913 -2.52901 0
M  V30 4731 H 444.636 2.21275 -1.26132 0
M  V30 4732 H 445.419 1.84883 -2.89263 0
M  V30 4733 N 447.864 1.01787 1.20321 0
M  V30 4734 C 449.092 0.727194 1.937 0
M  V30 4735 C 449.507 -0.712305 1.74848 0
M  V30 4736 O 448.864 -1.48327 1.06327 0
M  V30 4737 C 448.915 1.05497 3.45764 0
M  V30 4738 O 448.636 2.43794 3.64 0
M  V30 4739 C 450.137 0.785534 4.36285 0
M  V30 4740 H 447.357 0.266939 0.615617 0
M  V30 4741 H 449.901 1.35939 1.52777 0
M  V30 4742 H 448.056 0.468158 3.84561 0
M  V30 4743 H 448.47 2.55656 4.57974 0
M  V30 4744 H 449.944 1.06495 5.4163 0
M  V30 4745 H 450.421 -0.280273 4.38305 0
M  V30 4746 H 451.027 1.35456 4.03152 0
M  V30 4747 N 449.342 -1.36122 0.79427 0
M  V30 4748 C 450.292 -2.27373 0.169017 0
M  V30 4749 C 451.276 -1.4719 -0.649913 0
M  V30 4750 O 452.468 -1.69518 -0.50919 0
M  V30 4751 C 449.597 -3.36264 -0.691455 0
M  V30 4752 C 448.683 -4.2388 0.13653 0
M  V30 4753 N 449.074 -4.91519 1.19345 0
M  V30 4754 C 447.372 -4.45921 -0.0838499 0
M  V30 4755 C 448.073 -5.56369 1.6979 0
M  V30 4756 N 447.049 -5.34204 1.00634 0
M  V30 4757 H 450.851 -2.77154 0.977897 0
M  V30 4758 H 448.365 -1.49504 0.634208 0
M  V30 4759 H 450.362 -4.00572 -1.15534 0
M  V30 4760 H 449.022 -2.88037 -1.49883 0
M  V30 4761 H 450.033 -4.9334 1.57594 0
M  V30 4762 H 446.71 -4.08518 -0.861341 0
M  V30 4763 H 448.1 -6.20368 2.58055 0
M  V30 4764 N 450.82 -0.546701 -1.47814 0
M  V30 4765 C 452.067 -0.0187407 -2.02491 0
M  V30 4766 C 452.395 1.32685 -1.42215 0
M  V30 4767 O 451.65 1.87413 -0.563454 0
M  V30 4768 C 451.949 0.134869 -3.57145 0
M  V30 4769 C 451.615 -1.13849 -4.3629 0
M  V30 4770 C 450.277 -1.48743 -4.57634 0
M  V30 4771 C 452.629 -1.98277 -4.82012 0
M  V30 4772 C 449.957 -2.67932 -5.21948 0
M  V30 4773 C 452.309 -3.16659 -5.4764 0
M  V30 4774 C 450.973 -3.51879 -5.67219 0
M  V30 4775 H 450.243 -0.0068577 -0.740968 0
M  V30 4776 H 452.89 -0.716097 -1.77607 0
M  V30 4777 H 451.195 0.915118 -3.80963 0
M  V30 4778 H 452.892 0.558556 -3.97091 0
M  V30 4779 H 449.482 -0.856767 -4.19949 0
M  V30 4780 H 453.666 -1.72628 -4.6531 0
M  V30 4781 H 448.922 -2.95401 -5.35302 0
M  V30 4782 H 453.096 -3.82374 -5.82033 0
M  V30 4783 H 450.723 -4.44331 -6.16825 0
M  V30 4784 N 452.299 1.55045 -0.282633 0
M  V30 4785 C 453.209 2.26491 0.61147 0
M  V30 4786 C 454.225 1.29348 1.16384 0
M  V30 4787 O 455.401 1.62298 1.19253 0
M  V30 4788 C 452.466 2.97779 1.77563 0
M  V30 4789 C 451.527 4.10418 1.25919 0
M  V30 4790 C 450.76 4.78297 2.36786 0
M  V30 4791 O 450.983 4.45426 3.56303 0
M  V30 4792 O 449.917 5.66089 2.04517 0
M  V30 4793 H 453.743 3.03683 0.0324615 0
M  V30 4794 H 451.328 1.49317 -0.0497576 0
M  V30 4795 H 453.21 3.42554 2.45427 0
M  V30 4796 H 451.885 2.23498 2.34159 0
M  V30 4797 H 450.792 3.70082 0.546797 0
M  V30 4798 H 452.125 4.86622 0.738887 0
M  V30 4799 N 453.777 0.010035 1.57597 0
M  V30 4800 C 455.023 -0.668011 1.92118 0
M  V30 4801 C 455.378 -1.70821 0.885328 0
M  V30 4802 O 454.671 -1.91333 -0.101187 0
M  V30 4803 C 454.865 -1.34434 3.31153 0
M  V30 4804 C 454.694 -0.371176 4.48166 0
M  V30 4805 C 453.464 0.0220686 5.05295 0
M  V30 4806 C 455.662 0.366731 5.12991 0
M  V30 4807 N 453.644 0.9924 6.05826 0
M  V30 4808 C 455.015 1.19142 6.08445 0
M  V30 4809 C 457.07 0.429489 4.96044 0
M  V30 4810 C 455.773 2.07317 6.88776 0
M  V30 4811 C 457.799 1.2985 5.76969 0
M  V30 4812 C 457.161 2.11101 6.72023 0
M  V30 4813 H 453.26 -0.217337 0.751192 0
M  V30 4814 H 455.844 0.0727375 1.94564 0
M  V30 4815 H 454.015 -2.05533 3.29561 0
M  V30 4816 H 455.747 -1.97789 3.53075 0
M  V30 4817 H 452.502 -0.348409 4.72317 0
M  V30 4818 H 452.926 1.47324 6.60776 0
M  V30 4819 H 457.568 -0.18442 4.22398 0
M  V30 4820 H 455.286 2.69771 7.61741 0
M  V30 4821 H 458.872 1.3511 5.65894 0
M  V30 4822 H 457.752 2.77257 7.33552 0
M  V30 4823 N 455.255 -1.55392 -0.262866 0
M  V30 4824 C 456.203 -1.8977 -1.345 0
M  V30 4825 C 457.197 -0.775063 -1.50629 0
M  V30 4826 O 458.403 -0.959519 -1.52293 0
M  V30 4827 H 454.778 -0.602467 -0.450041 0
M  V30 4828 H 456.749 -2.80147 -1.02762 0
M  V30 4829 C 455.498 -2.19501 -2.69657 0
M  V30 4830 H 454.821 -3.05378 -2.5804 0
M  V30 4831 H 456.261 -2.47469 -3.44289 0
M  V30 4832 C 454.72 -1.00597 -3.21531 0
M  V30 4833 O 455.25 -0.245768 -4.00947 0
M  V30 4834 N 453.456 -0.800911 -2.79345 0
M  V30 4835 H 453.003 -1.42079 -2.14875 0
M  V30 4836 H 452.961 -0.00697996 -3.14399 0
M  V30 4837 N 456.733 0.527833 -1.48498 0
M  V30 4838 C 457.979 1.28545 -1.56857 0
M  V30 4839 C 458.312 1.92678 -0.242651 0
M  V30 4840 O 457.587 1.79394 0.751545 0
M  V30 4841 C 457.87 2.37314 -2.70839 0
M  V30 4842 C 457.723 1.77858 -4.13142 0
M  V30 4843 C 459.042 3.39068 -2.80573 0
M  V30 4844 H 456.161 0.466006 -0.570971 0
M  V30 4845 H 458.803 0.587784 -1.8068 0
M  V30 4846 H 456.953 2.96821 -2.50658 0
M  V30 4847 H 458.625 1.22385 -4.44769 0
M  V30 4848 H 456.868 1.08383 -4.20042 0
M  V30 4849 H 457.539 2.56624 -4.88721 0
M  V30 4850 H 460.015 2.89518 -2.98862 0
M  V30 4851 H 458.891 4.12566 -3.6205 0
M  V30 4852 H 459.152 3.9975 -1.88818 0
M  V30 4853 N 458.211 1.37122 0.776871 0
M  V30 4854 C 459.436 1.354 1.57104 0
M  V30 4855 C 459.861 -0.0595562 1.88006 0
M  V30 4856 O 459.219 -1.03514 1.48844 0
M  V30 4857 C 459.267 2.19472 2.8612 0
M  V30 4858 O 458.371 1.59582 3.80273 0
M  V30 4859 H 457.712 0.462869 0.476076 0
M  V30 4860 H 460.242 1.80577 0.961932 0
M  V30 4861 H 460.252 2.32502 3.35271 0
M  V30 4862 H 458.927 3.22222 2.62956 0
M  V30 4863 H 457.504 1.55564 3.38902 0
M  V30 4864 N 459.689 -1.00246 1.21608 0
M  V30 4865 C 460.621 -2.09244 0.935401 0
M  V30 4866 C 461.634 -1.62592 -0.0823594 0
M  V30 4867 O 462.823 -1.77865 0.150456 0
M  V30 4868 C 459.923 -3.36724 0.383453 0
M  V30 4869 C 459.096 -4.1245 1.45615 0
M  V30 4870 C 458.155 -5.18219 0.912991 0
M  V30 4871 O 457.181 -5.46337 1.59701 0
M  V30 4872 N 458.383 -5.7987 -0.270478 0
M  V30 4873 H 461.148 -2.33905 1.87373 0
M  V30 4874 H 458.709 -1.16748 1.12167 0
M  V30 4875 H 460.701 -4.047 0.00562157 0
M  V30 4876 H 459.271 -3.09201 -0.459758 0
M  V30 4877 H 458.491 -3.39241 2.00772 0
M  V30 4878 H 459.779 -4.59819 2.17817 0
M  V30 4879 H 459.177 -5.59381 -0.843195 0
M  V30 4880 H 457.734 -6.49126 -0.589794 0
M  V30 4881 N 461.167 -1.02423 -1.1978 0
M  V30 4882 C 462.413 -0.719051 -1.89625 0
M  V30 4883 C 462.746 0.750083 -1.7913 0
M  V30 4884 O 462.021 1.54574 -1.18056 0
M  V30 4885 C 462.304 -1.16499 -3.40735 0
M  V30 4886 C 462.157 -2.695 -3.60125 0
M  V30 4887 C 463.476 -0.742166 -4.33797 0
M  V30 4888 H 460.595 -0.26269 -0.688595 0
M  V30 4889 H 463.237 -1.27333 -1.41018 0
M  V30 4890 H 461.387 -0.69341 -3.82262 0
M  V30 4891 H 463.059 -3.24569 -3.278 0
M  V30 4892 H 461.302 -3.10113 -3.03336 0
M  V30 4893 H 461.973 -2.95757 -4.66081 0
M  V30 4894 H 464.449 -1.1477 -3.99959 0
M  V30 4895 H 463.325 -1.08213 -5.38127 0
M  V30 4896 H 463.586 0.355747 -4.40666 0
M  V30 4897 N 462.645 1.35699 -0.801477 0
M  V30 4898 C 463.575 2.32436 -0.222658 0
M  V30 4899 C 464.556 1.5723 0.649057 0
M  V30 4900 O 465.741 1.85324 0.580387 0
M  V30 4901 C 462.871 3.41469 0.633719 0
M  V30 4902 C 461.825 4.27774 -0.139083 0
M  V30 4903 C 461.151 5.28082 0.838666 0
M  V30 4904 C 462.451 5.04946 -1.33517 0
M  V30 4905 H 464.145 2.81094 -1.03086 0
M  V30 4906 H 461.691 1.35146 -0.497155 0
M  V30 4907 H 463.644 4.08143 1.04868 0
M  V30 4908 H 462.368 2.91408 1.47475 0
M  V30 4909 H 461.027 3.62673 -0.535156 0
M  V30 4910 H 460.675 4.7429 1.67506 0
M  V30 4911 H 460.375 5.86695 0.32594 0
M  V30 4912 H 461.899 5.97628 1.25194 0
M  V30 4913 H 463.313 5.64593 -0.995349 0
M  V30 4914 H 461.71 5.7303 -1.78202 0
M  V30 4915 H 462.78 4.35886 -2.12442 0
M  V30 4916 N 464.123 0.554532 1.47522 0
M  V30 4917 C 465.086 -0.184174 2.28459 0
M  V30 4918 C 466.086 -0.845195 1.36796 0
M  V30 4919 O 467.276 -0.701467 1.59452 0
M  V30 4920 C 464.408 -1.26903 3.16399 0
M  V30 4921 H 465.601 0.526751 2.95238 0
M  V30 4922 H 463.154 0.311375 1.53167 0
M  V30 4923 H 463.889 -2.01244 2.54306 0
M  V30 4924 H 463.674 -0.799883 3.83854 0
M  V30 4925 H 465.164 -1.78794 3.77389 0
M  V30 4926 N 465.601 -1.54893 0.290851 0
M  V30 4927 C 466.549 -2.24579 -0.605576 0
M  V30 4928 C 467.543 -1.24824 -1.14522 0
M  V30 4929 O 468.749 -1.42706 -1.09704 0
M  V30 4930 H 465.124 -0.720946 -0.213872 0
M  V30 4931 H 467.095 -2.984 0.0048173 0
M  V30 4932 C 465.844 -2.99224 -1.77088 0
M  V30 4933 H 465.167 -3.75782 -1.36484 0
M  V30 4934 H 466.607 -3.51281 -2.3744 0
M  V30 4935 C 465.066 -2.05602 -2.66888 0
M  V30 4936 O 465.596 -1.61745 -3.67698 0
M  V30 4937 N 463.802 -1.71771 -2.34399 0
M  V30 4938 H 463.349 -2.07633 -1.52468 0
M  V30 4939 H 463.307 -1.09403 -2.94751 0
M  V30 4940 N 467.08 -0.0183926 -1.57589 0
M  V30 4941 C 468.01 0.965596 -2.12599 0
M  V30 4942 C 468.991 1.34641 -1.0395 0
M  V30 4943 O 470.176 1.42693 -1.31729 0
M  V30 4944 C 467.306 2.25149 -2.64434 0
M  V30 4945 C 466.26 2.01175 -3.77773 0
M  V30 4946 C 465.586 3.35937 -4.15994 0
M  V30 4947 C 466.886 1.35953 -5.04296 0
M  V30 4948 H 468.58 0.507504 -2.95067 0
M  V30 4949 H 466.126 0.242671 -1.41941 0
M  V30 4950 H 468.079 2.94357 -3.01549 0
M  V30 4951 H 466.803 2.73105 -1.79112 0
M  V30 4952 H 465.462 1.34388 -3.4108 0
M  V30 4953 H 465.11 3.81631 -3.27669 0
M  V30 4954 H 464.81 3.20705 -4.92364 0
M  V30 4955 H 466.334 4.0643 -4.55683 0
M  V30 4956 H 467.748 1.95144 -5.39065 0
M  V30 4957 H 466.145 1.31152 -5.85593 0
M  V30 4958 H 467.215 0.331071 -4.83768 0
M  V30 4959 N 468.558 1.5553 0.254621 0
M  V30 4960 C 469.783 1.81383 1.00573 0
M  V30 4961 C 470.208 0.594419 1.78461 0
M  V30 4962 O 469.566 -0.456403 1.75461 0
M  V30 4963 C 469.614 3.04892 1.92545 0
M  V30 4964 O 468.718 2.81266 3.01601 0
M  V30 4965 H 468.059 0.598969 0.286587 0
M  V30 4966 H 470.589 2.02703 0.277952 0
M  V30 4967 H 470.599 3.34119 2.34155 0
M  V30 4968 H 469.274 3.93287 1.3527 0
M  V30 4969 H 467.851 2.63185 2.64174 0
M  V30 4970 N 470.036 -0.519951 1.48776 0
M  V30 4971 C 471.282 -1.27456 1.58514 0
M  V30 4972 C 471.637 -1.90634 0.260057 0
M  V30 4973 O 470.93 -1.76815 -0.738036 0
M  V30 4974 C 471.124 -2.37864 2.6675 0
M  V30 4975 C 470.953 -1.85509 4.09654 0
M  V30 4976 C 469.723 -1.67661 4.76674 0
M  V30 4977 C 471.921 -1.37783 4.955 0
M  V30 4978 N 469.903 -1.10037 6.03958 0
M  V30 4979 C 471.274 -0.921714 6.1311 0
M  V30 4980 C 473.329 -1.26179 4.81646 0
M  V30 4981 C 472.032 -0.361057 7.18393 0
M  V30 4982 C 474.058 -0.715121 5.8706 0
M  V30 4983 C 473.42 -0.269132 7.03886 0
M  V30 4984 H 469.519 -0.457049 0.634531 0
M  V30 4985 H 472.103 -0.585073 1.85701 0
M  V30 4986 H 470.274 -3.04296 2.41367 0
M  V30 4987 H 472.006 -3.04901 2.66116 0
M  V30 4988 H 468.761 -1.91478 4.33166 0
M  V30 4989 H 469.185 -0.832067 6.71867 0
M  V30 4990 H 473.827 -1.59263 3.91657 0
M  V30 4991 H 471.545 -0.0179127 8.08098 0
M  V30 4992 H 475.131 -0.628376 5.78397 0
M  V30 4993 H 474.011 0.14729 7.84062 0
M  V30 4994 N 471.514 -1.37532 -0.769588 0
M  V30 4995 C 472.791 -1.23392 -1.51768 0
M  V30 4996 C 473.171 0.17157 -2.10402 0
M  V30 4997 O 472.519 1.17943 -1.95708 0
M  V30 4998 C 472.729 -2.33163 -2.59685 0
M  V30 4999 C 474.077 -2.70809 -3.27028 0
M  V30 5000 O 475.101 -2.32355 -2.69981 0
M  V30 5001 O 473.96 -3.37066 -4.30173 0
M  V30 5002 H 471.054 -0.481617 -0.67229 0
M  V30 5003 H 473.6 -1.49318 -0.806368 0
M  V30 5004 H 472.372 -3.27273 -2.14494 0
M  V30 5005 H 471.995 -2.08713 -3.38415 0
M  V30 5006 N 472.992 0.995999 -1.22138 0
M  V30 5007 C 474.22 1.77066 -1.07029 0
M  V30 5008 C 474.635 1.8495 0.379357 0
M  V30 5009 O 473.992 1.3174 1.26297 0
M  V30 5010 C 474.043 3.20533 -1.67155 0
M  V30 5011 O 473.764 3.13082 -3.06449 0
M  V30 5012 C 475.265 4.14461 -1.5728 0
M  V30 5013 H 472.485 0.556179 -0.375374 0
M  V30 5014 H 475.029 1.25238 -1.61666 0
M  V30 5015 H 473.184 3.6944 -1.16589 0
M  V30 5016 H 473.598 4.03283 -3.35355 0
M  V30 5017 H 475.072 5.1289 -2.04078 0
M  V30 5018 H 475.549 4.36005 -0.528795 0
M  V30 5019 H 476.155 3.71449 -2.07136 0
M  V30 5020 N 474.47 1.03057 1.19235 0
M  V30 5021 C 475.4 0.633497 2.24742 0
M  V30 5022 C 476.381 -0.358335 1.66283 0
M  V30 5023 O 477.566 -0.240676 1.92703 0
M  V30 5024 C 474.696 -0.0147648 3.47297 0
M  V30 5025 C 473.65 0.899527 4.18441 0
M  V30 5026 C 472.976 0.116281 5.34574 0
M  V30 5027 C 474.276 2.21404 4.73051 0
M  V30 5028 H 475.97 1.5155 2.58211 0
M  V30 5029 H 473.516 0.73014 1.24117 0
M  V30 5030 H 475.469 -0.304202 4.20301 0
M  V30 5031 H 474.193 -0.931577 3.13032 0
M  V30 5032 H 472.852 1.17319 3.47321 0
M  V30 5033 H 472.5 -0.802619 4.96555 0
M  V30 5034 H 472.2 0.725293 5.83107 0
M  V30 5035 H 473.724 -0.166376 6.10373 0
M  V30 5036 H 475.138 1.98601 5.37802 0
M  V30 5037 H 473.535 2.77512 5.32078 0
M  V30 5038 H 474.605 2.86752 3.91026 0
M  V30 5039 N 475.948 -1.35272 0.808662 0
M  V30 5040 C 476.898 -2.27181 0.193124 0
M  V30 5041 C 477.882 -1.47871 -0.634265 0
M  V30 5042 O 479.074 -1.70048 -0.491182 0
M  V30 5043 C 476.203 -3.36979 -0.655751 0
M  V30 5044 C 475.289 -4.23712 0.181481 0
M  V30 5045 N 475.68 -4.90225 1.24551 0
M  V30 5046 C 473.978 -4.45985 -0.0365493 0
M  V30 5047 C 474.679 -5.54537 1.75682 0
M  V30 5048 N 473.655 -5.33107 1.06294 0
M  V30 5049 H 477.457 -2.76101 1.00724 0
M  V30 5050 H 474.971 -1.48823 0.650029 0
M  V30 5051 H 476.968 -4.01774 -1.11279 0
M  V30 5052 H 475.628 -2.89611 -1.46819 0
M  V30 5053 H 476.639 -4.91641 1.62818 0
M  V30 5054 H 473.316 -4.09409 -0.817964 0
M  V30 5055 H 474.706 -6.17597 2.64621 0
M  V30 5056 N 477.426 -0.562348 -1.47226 0
M  V30 5057 C 478.837 -0.130325 -1.86245 0
M  V30 5058 C 479.188 1.30128 -1.46838 0
M  V30 5059 O 478.313 1.97974 -0.873805 0
M  V30 5060 C 478.908 -0.229738 -3.3802 0
M  V30 5061 C 477.467 0.14728 -3.76112 0
M  V30 5062 C 476.614 -0.574971 -2.71274 0
M  V30 5063 H 479.565 -0.771773 -1.3867 0
M  V30 5064 H 479.586 0.550316 -3.76499 0
M  V30 5065 H 479.098 -1.27178 -3.66671 0
M  V30 5066 H 477.199 1.19023 -3.53078 0
M  V30 5067 H 477.312 -0.214858 -4.78618 0
M  V30 5068 H 475.676 -0.0174756 -2.54694 0
M  V30 5069 H 476.459 -1.61827 -3.02766 0
M  V30 5070 N 478.904 1.54736 -0.299062 0
M  V30 5071 C 480.315 1.8569 0.193971 0
M  V30 5072 C 480.666 1.22101 1.53577 0
M  V30 5073 O 479.791 0.51799 2.10109 0
M  V30 5074 C 480.386 3.36895 0.358733 0
M  V30 5075 C 478.945 3.67887 0.795986 0
M  V30 5076 C 478.092 2.77131 -0.096807 0
M  V30 5077 H 481.043 1.49934 -0.520134 0
M  V30 5078 H 481.064 3.61294 1.19361 0
M  V30 5079 H 480.576 3.83148 -0.617998 0
M  V30 5080 H 478.677 3.27151 1.78334 0
M  V30 5081 H 478.79 4.75114 0.616718 0
M  V30 5082 H 477.154 2.51153 0.423581 0
M  V30 5083 H 477.937 3.26204 -1.06986 0
M  V30 5084 N 480.382 0.0267497 1.57577 0
M  V30 5085 C 481.312 -0.954308 2.13108 0
M  V30 5086 C 482.293 -1.34088 1.04663 0
M  V30 5087 O 483.478 -1.41992 1.32484 0
M  V30 5088 C 480.608 -2.23744 2.65624 0
M  V30 5089 C 479.562 -1.99168 3.78835 0
M  V30 5090 C 478.888 -3.33726 4.17769 0
M  V30 5091 C 480.188 -1.33277 5.0501 0
M  V30 5092 H 481.882 -0.491848 2.95332 0
M  V30 5093 H 479.428 -0.23514 1.42067 0
M  V30 5094 H 481.381 -2.92754 3.03106 0
M  V30 5095 H 480.105 -2.72151 1.80558 0
M  V30 5096 H 478.764 -1.32577 3.41788 0
M  V30 5097 H 478.412 -3.79888 3.29688 0
M  V30 5098 H 478.112 -3.18089 4.94058 0
M  V30 5099 H 479.636 -4.04008 4.57832 0
M  V30 5100 H 481.05 -1.92283 5.40093 0
M  V30 5101 H 479.447 -1.28045 5.8628 0
M  V30 5102 H 480.517 -0.305411 4.83937 0
M  V30 5103 N 481.861 -1.55662 -0.24637 0
M  V30 5104 C 483.107 -1.77782 -0.975779 0
M  V30 5105 C 483.44 -0.592103 -1.84953 0
M  V30 5106 O 482.715 0.409588 -1.90138 0
M  V30 5107 C 482.998 -3.09788 -1.83584 0
M  V30 5108 C 482.851 -4.38764 -0.990241 0
M  V30 5109 C 484.17 -3.38029 -2.81823 0
M  V30 5110 H 481.289 -0.646789 -0.353317 0
M  V30 5111 H 483.931 -1.88398 -0.246248 0
M  V30 5112 H 482.081 -3.00869 -2.45784 0
M  V30 5113 H 483.753 -4.59675 -0.386897 0
M  V30 5114 H 481.996 -4.32798 -0.294626 0
M  V30 5115 H 482.667 -5.27514 -1.62584 0
M  V30 5116 H 485.143 -3.46915 -2.2976 0
M  V30 5117 H 484.019 -4.3161 -3.39122 0
M  V30 5118 H 484.28 -2.58968 -3.58313 0
M  V30 5119 N 483.339 0.512053 -1.4905 0
M  V30 5120 C 484.585 1.26613 -1.59187 0
M  V30 5121 C 484.94 1.90494 -0.270163 0
M  V30 5122 O 484.233 1.77204 0.728648 0
M  V30 5123 C 484.427 2.36446 -2.68008 0
M  V30 5124 C 484.256 1.83334 -4.10632 0
M  V30 5125 C 483.026 1.65131 -4.77556 0
M  V30 5126 C 485.224 1.35153 -4.96224 0
M  V30 5127 N 483.206 1.06833 -6.04533 0
M  V30 5128 C 484.577 0.889186 -6.13591 0
M  V30 5129 C 486.632 1.23623 -4.82309 0
M  V30 5130 C 485.335 0.322953 -7.18575 0
M  V30 5131 C 487.361 0.683978 -5.87431 0
M  V30 5132 C 486.723 0.2318 -7.04018 0
M  V30 5133 H 482.822 0.453678 -0.636946 0
M  V30 5134 H 485.406 0.575217 -1.86009 0
M  V30 5135 H 483.577 3.03012 -2.42978 0
M  V30 5136 H 485.309 3.03485 -2.67729 0
M  V30 5137 H 482.064 1.89178 -4.34176 0
M  V30 5138 H 482.488 0.796425 -6.72299 0
M  V30 5139 H 487.13 1.57184 -3.92496 0
M  V30 5140 H 484.848 -0.024943 -8.08096 0
M  V30 5141 H 488.434 0.597694 -5.78722 0
M  V30 5142 H 487.314 -0.188869 -7.83973 0
M  V30 5143 N 484.817 1.37938 0.762283 0
M  V30 5144 C 485.727 1.36681 1.90671 0
M  V30 5145 C 486.743 0.265078 1.71969 0
M  V30 5146 O 487.919 0.502055 1.95042 0
M  V30 5147 C 484.984 1.18211 3.25925 0
M  V30 5148 C 484.045 2.3811 3.57214 0
M  V30 5149 C 483.278 2.20512 4.86014 0
M  V30 5150 O 483.501 1.19429 5.57757 0
M  V30 5151 O 482.435 3.08911 5.16583 0
M  V30 5152 H 486.261 2.33091 1.94685 0
M  V30 5153 H 483.846 1.18767 0.906356 0
M  V30 5154 H 485.728 1.09937 4.06807 0
M  V30 5155 H 484.403 0.248807 3.22742 0
M  V30 5156 H 483.31 2.51958 2.76529 0
M  V30 5157 H 484.643 3.30041 3.65149 0
M  V30 5158 N 486.295 -0.989507 1.22664 0
M  V30 5159 C 487.711 -1.25395 0.987331 0
M  V30 5160 C 487.911 -1.9899 -0.317056 0
M  V30 5161 O 486.967 -2.30141 -1.03882 0
M  V30 5162 C 488.28 -2.06242 2.18826 0
M  V30 5163 C 489.828 -2.19413 2.23219 0
M  V30 5164 C 490.303 -3.03648 3.42873 0
M  V30 5165 N 491.794 -3.11234 3.43056 0
M  V30 5166 C 492.529 -3.7671 4.32293 0
M  V30 5167 N 492.025 -4.44085 5.31752 0
M  V30 5168 N 493.818 -3.73505 4.2006 0
M  V30 5169 H 485.969 -0.496212 2.06522 0
M  V30 5170 H 488.232 -0.281784 0.905153 0
M  V30 5171 H 487.938 -1.59531 3.13437 0
M  V30 5172 H 487.812 -3.06996 2.19165 0
M  V30 5173 H 490.199 -2.65336 1.29154 0
M  V30 5174 H 490.28 -1.18078 2.26917 0
M  V30 5175 H 489.924 -2.58424 4.37241 0
M  V30 5176 H 489.854 -4.05132 3.36416 0
M  V30 5177 H 492.345 -2.63287 2.71088 0
M  V30 5178 H 492.658 -4.91797 5.96117 0
M  V30 5179 H 491.003 -4.42822 5.35662 0
M  V30 5180 H 494.194 -3.20033 3.41609 0
M  V30 5181 H 494.367 -4.24253 4.8981 0
M  V30 5182 N 487.773 -1.03688 -1.18687 0
M  V30 5183 C 489.184 -0.766488 -1.70241 0
M  V30 5184 C 489.535 0.713052 -1.82784 0
M  V30 5185 O 488.66 1.55529 -1.50465 0
M  V30 5186 C 489.255 -1.38475 -3.09209 0
M  V30 5187 C 487.814 -1.16276 -3.5799 0
M  V30 5188 C 486.961 -1.4778 -2.34641 0
M  V30 5189 H 489.912 -1.20378 -1.03415 0
M  V30 5190 H 489.933 -0.785939 -3.72295 0
M  V30 5191 H 489.445 -2.46157 -3.00048 0
M  V30 5192 H 487.546 -0.104508 -3.72453 0
M  V30 5193 H 487.659 -1.8571 -4.41643 0
M  V30 5194 H 486.023 -0.897366 -2.38368 0
M  V30 5195 H 486.806 -2.56562 -2.28102 0
M  V30 5196 N 489.251 1.34841 -0.815825 0
M  V30 5197 C 490.479 2.0273 -0.413294 0
M  V30 5198 C 490.894 1.61459 0.978599 0
M  V30 5199 O 490.251 0.816584 1.63212 0
M  V30 5200 C 490.302 3.58058 -0.497676 0
M  V30 5201 O 490.023 3.97832 -1.8347 0
M  V30 5202 C 491.524 4.4321 -0.0891339 0
M  V30 5203 H 488.744 0.649956 -0.166728 0
M  V30 5204 H 491.288 1.72267 -1.10201 0
M  V30 5205 H 489.443 3.87136 0.142886 0
M  V30 5206 H 489.857 4.92501 -1.80396 0
M  V30 5207 H 491.331 5.5164 -0.199274 0
M  V30 5208 H 491.808 4.28432 0.966571 0
M  V30 5209 H 492.414 4.19446 -0.703214 0
M  V30 5210 N 490.729 0.570148 1.46925 0
M  V30 5211 C 491.676 -0.170257 2.30171 0
M  V30 5212 C 492.646 -0.896099 1.39855 0
M  V30 5213 O 493.831 -0.889248 1.68811 0
M  V30 5214 C 490.971 -1.18605 3.24079 0
M  V30 5215 C 490.084 -0.464947 4.29491 0
M  V30 5216 C 489.219 -1.46716 5.10537 0
M  V30 5217 C 488.258 -0.731758 6.0771 0
M  V30 5218 N 487.395 -1.68142 6.81669 0
M  V30 5219 H 492.235 0.545713 2.92961 0
M  V30 5220 H 489.772 0.280938 1.44392 0
M  V30 5221 H 491.73 -1.78771 3.76957 0
M  V30 5222 H 490.36 -1.86989 2.63125 0
M  V30 5223 H 489.412 0.251506 3.79568 0
M  V30 5224 H 490.724 0.110548 4.98677 0
M  V30 5225 H 489.878 -2.14199 5.6763 0
M  V30 5226 H 488.617 -2.07658 4.41282 0
M  V30 5227 H 487.622 -0.0430787 5.49783 0
M  V30 5228 H 488.847 -0.127904 6.7898 0
M  V30 5229 H 486.793 -2.27918 6.15134 0
M  V30 5230 H 486.71 -1.15841 7.47072 0
M  V30 5231 H 487.978 -2.347 7.43328 0
M  V30 5232 N 492.207 -1.54576 0.307264 0
M  V30 5233 C 493.453 -2.0056 -0.300612 0
M  V30 5234 C 493.786 -1.1953 -1.53057 0
M  V30 5235 O 493.061 -0.27337 -1.92569 0
M  V30 5236 C 493.344 -3.54167 -0.650987 0
M  V30 5237 C 493.197 -4.45933 0.588539 0
M  V30 5238 C 494.516 -4.14645 -1.47506 0
M  V30 5239 H 491.635 -0.729075 -0.107788 0
M  V30 5240 H 494.277 -1.85286 0.420606 0
M  V30 5241 H 492.427 -3.67313 -1.26544 0
M  V30 5242 H 494.099 -4.44683 1.22697 0
M  V30 5243 H 492.342 -4.16274 1.22058 0
M  V30 5244 H 493.013 -5.51189 0.299153 0
M  V30 5245 H 495.489 -4.04973 -0.955821 0
M  V30 5246 H 494.365 -5.22269 -1.68899 0
M  V30 5247 H 494.626 -3.66921 -2.4662 0
M  V30 5248 N 493.685 -0.035106 -1.57561 0
M  V30 5249 C 495.101 0.321334 -1.56332 0
M  V30 5250 C 495.301 1.72509 -1.04129 0
M  V30 5251 O 494.357 2.4287 -0.690694 0
M  V30 5252 C 495.67 0.164469 -3.0025 0
M  V30 5253 C 497.218 0.236786 -3.12103 0
M  V30 5254 C 497.693 0.10864 -4.57871 0
M  V30 5255 N 499.184 0.165433 -4.62904 0
M  V30 5256 C 499.919 0.0901506 -5.73329 0
M  V30 5257 N 499.415 -0.0365606 -6.9279 0
M  V30 5258 N 501.208 0.144572 -5.61914 0
M  V30 5259 H 493.359 -0.952976 -1.89821 0
M  V30 5260 H 495.622 -0.368537 -0.873432 0
M  V30 5261 H 495.328 -0.802746 -3.42416 0
M  V30 5262 H 495.202 0.932194 -3.655 0
M  V30 5263 H 497.589 1.19446 -2.69845 0
M  V30 5264 H 497.67 -0.561419 -2.49563 0
M  V30 5265 H 497.314 -0.845644 -5.00811 0
M  V30 5266 H 497.244 0.925786 -5.18398 0
M  V30 5267 H 499.735 0.263269 -3.76982 0
M  V30 5268 H 500.048 -0.0871487 -7.72751 0
M  V30 5269 H 498.393 -0.0714256 -6.94963 0
M  V30 5270 H 501.584 0.242006 -4.67474 0
M  V30 5271 H 501.757 0.0824413 -6.47948 0
M  V30 5272 N 495.163 1.55791 0.238111 0
M  V30 5273 C 496.093 1.94068 1.29846 0
M  V30 5274 C 497.074 0.806726 1.49753 0
M  V30 5275 O 498.259 1.06772 1.62214 0
M  V30 5276 C 495.389 2.24302 2.65153 0
M  V30 5277 C 494.343 3.40032 2.59927 0
M  V30 5278 C 493.669 3.55829 3.99111 0
M  V30 5279 C 494.969 4.75476 2.16148 0
M  V30 5280 H 496.663 2.82887 0.980563 0
M  V30 5281 H 494.209 1.36105 0.470253 0
M  V30 5282 H 496.162 2.4967 3.39475 0
M  V30 5283 H 494.886 1.32318 2.98596 0
M  V30 5284 H 493.545 3.14687 1.88063 0
M  V30 5285 H 493.193 2.6125 4.29834 0
M  V30 5286 H 492.893 4.3366 3.96501 0
M  V30 5287 H 494.417 3.83528 4.7512 0
M  V30 5288 H 495.831 5.00158 2.80205 0
M  V30 5289 H 494.228 5.56472 2.24631 0
M  V30 5290 H 495.298 4.71946 1.11333 0
M  V30 5291 N 496.642 -0.504142 1.49319 0
M  V30 5292 C 498.053 -1.08572 1.51885 0
M  V30 5293 C 498.404 -1.93842 0.303255 0
M  V30 5294 O 497.529 -2.0828 -0.58724 0
M  V30 5295 C 498.124 -1.97574 2.75227 0
M  V30 5296 C 496.683 -2.509 2.80581 0
M  V30 5297 C 495.83 -1.28447 2.45757 0
M  V30 5298 H 498.781 -0.288194 1.56061 0
M  V30 5299 H 498.802 -2.82219 2.55211 0
M  V30 5300 H 498.314 -1.35486 3.63683 0
M  V30 5301 H 496.415 -3.16636 1.96398 0
M  V30 5302 H 496.528 -2.88268 3.82673 0
M  V30 5303 H 494.892 -1.60868 1.97468 0
M  V30 5304 H 495.675 -0.68072 3.36483 0
M  V30 5305 N 498.12 -1.38341 -0.754957 0
M  V30 5306 C 499.067 -1.3546 -1.86867 0
M  V30 5307 C 500.037 -0.217369 -1.64672 0
M  V30 5308 O 501.222 -0.409383 -1.86356 0
M  V30 5309 C 498.362 -1.18413 -3.24149 0
M  V30 5310 C 497.475 -2.41511 -3.58185 0
M  V30 5311 C 496.61 -2.17205 -4.84763 0
M  V30 5312 C 495.649 -3.36081 -5.11582 0
M  V30 5313 N 494.786 -3.11219 -6.29354 0
M  V30 5314 H 499.626 -2.30672 -1.88664 0
M  V30 5315 H 497.163 -1.14607 -0.922154 0
M  V30 5316 H 499.121 -1.06545 -4.03366 0
M  V30 5317 H 497.751 -0.268397 -3.21682 0
M  V30 5318 H 496.803 -2.64056 -2.73822 0
M  V30 5319 H 498.115 -3.30115 -3.73932 0
M  V30 5320 H 497.269 -2.02465 -5.7192 0
M  V30 5321 H 496.008 -1.25964 -4.71152 0
M  V30 5322 H 495.013 -3.51341 -4.22894 0
M  V30 5323 H 496.238 -4.28196 -5.27091 0
M  V30 5324 H 494.184 -2.22624 -6.17069 0
M  V30 5325 H 494.101 -3.93373 -6.45596 0
M  V30 5326 H 495.369 -3.00132 -7.19403 0
M  V30 5327 N 499.598 0.982988 -1.23187 0
M  V30 5328 C 500.528 2.09301 -1.03515 0
M  V30 5329 C 501.509 1.70035 0.0471136 0
M  V30 5330 O 502.694 1.93847 -0.117029 0
M  V30 5331 C 499.824 3.4167 -0.622791 0
M  V30 5332 C 498.778 3.94828 -1.65211 0
M  V30 5333 C 498.104 5.23362 -1.09527 0
M  V30 5334 C 499.404 4.2439 -3.04451 0
M  V30 5335 H 501.098 2.26016 -1.96359 0
M  V30 5336 H 498.644 1.08611 -0.945501 0
M  V30 5337 H 500.597 4.18746 -0.472233 0
M  V30 5338 H 499.321 3.24811 0.341329 0
M  V30 5339 H 497.98 3.19895 -1.79061 0
M  V30 5340 H 497.628 5.02852 -0.122211 0
M  V30 5341 H 497.328 5.59895 -1.783 0
M  V30 5342 H 498.852 6.03062 -0.956511 0
M  V30 5343 H 500.266 4.92225 -2.93917 0
M  V30 5344 H 498.663 4.72118 -3.70438 0
M  V30 5345 H 499.733 3.31765 -3.53638 0
M  V30 5346 N 501.076 1.04316 1.18135 0
M  V30 5347 C 502.306 0.767003 1.91835 0
M  V30 5348 C 502.714 -0.68002 1.76557 0
M  V30 5349 O 502.057 -1.47548 1.09432 0
M  V30 5350 C 502.119 1.05674 3.43618 0
M  V30 5351 C 501.783 2.49818 3.82675 0
M  V30 5352 C 502.78 3.48003 3.86251 0
M  V30 5353 C 500.465 2.84596 4.13897 0
M  V30 5354 C 502.459 4.79016 4.20503 0
M  V30 5355 C 500.146 4.15813 4.4782 0
M  V30 5356 C 501.144 5.12834 4.51099 0
M  V30 5357 O 500.832 6.41699 4.84229 0
M  V30 5358 H 500.564 0.278948 0.615763 0
M  V30 5359 H 503.118 1.3946 1.50798 0
M  V30 5360 H 501.348 0.372029 3.84906 0
M  V30 5361 H 503.037 0.767994 3.98568 0
M  V30 5362 H 503.803 3.22475 3.62264 0
M  V30 5363 H 499.682 2.09748 4.1052 0
M  V30 5364 H 503.226 5.54739 4.22978 0
M  V30 5365 H 499.123 4.41109 4.71268 0
M  V30 5366 H 499.891 6.46387 5.02121 0
M  V30 5367 N 502.554 -1.34406 0.822964 0
M  V30 5368 C 503.484 -2.32052 0.259608 0
M  V30 5369 C 504.465 -1.58243 -0.623961 0
M  V30 5370 O 505.65 -1.86224 -0.55083 0
M  V30 5371 C 502.78 -3.42434 -0.579314 0
M  V30 5372 C 501.734 -4.27499 0.20712 0
M  V30 5373 C 501.06 -5.29349 -0.754547 0
M  V30 5374 C 502.36 -5.02758 1.41533 0
M  V30 5375 H 504.054 -2.79418 1.07545 0
M  V30 5376 H 501.6 -1.34338 0.518593 0
M  V30 5377 H 503.553 -4.0976 -0.983612 0
M  V30 5378 H 502.277 -2.93717 -1.4282 0
M  V30 5379 H 500.936 -3.61776 0.592787 0
M  V30 5380 H 500.584 -4.76895 -1.59939 0
M  V30 5381 H 500.284 -5.8714 -0.232561 0
M  V30 5382 H 501.808 -5.99544 -1.1567 0
M  V30 5383 H 503.222 -5.62938 1.08504 0
M  V30 5384 H 501.619 -5.70123 1.87296 0
M  V30 5385 H 502.689 -4.32451 2.1935 0
M  V30 5386 N 504.032 -0.577932 -1.46621 0
M  V30 5387 C 504.979 0.158048 -2.30258 0
M  V30 5388 C 505.949 0.888669 -1.40328 0
M  V30 5389 O 507.134 0.880283 -1.6928 0
M  V30 5390 C 504.274 1.16884 -3.24703 0
M  V30 5391 C 503.387 0.442163 -4.29731 0
M  V30 5392 C 502.522 1.44007 -5.11308 0
M  V30 5393 C 501.561 0.69952 -6.0809 0
M  V30 5394 N 500.698 1.64525 -6.82551 0
M  V30 5395 H 505.538 -0.561242 -2.92667 0
M  V30 5396 H 503.075 -0.288591 -1.44241 0
M  V30 5397 H 505.033 1.7677 -3.779 0
M  V30 5398 H 503.663 1.85591 -2.64113 0
M  V30 5399 H 502.715 -0.271632 -3.79429 0
M  V30 5400 H 504.027 -0.136992 -4.98612 0
M  V30 5401 H 503.181 2.11186 -5.68758 0
M  V30 5402 H 501.92 2.05315 -4.42377 0
M  V30 5403 H 500.925 0.0139217 -5.49798 0
M  V30 5404 H 502.15 0.091894 -6.79038 0
M  V30 5405 H 500.096 2.24653 -6.16334 0
M  V30 5406 H 500.013 1.11878 -7.47676 0
M  V30 5407 H 501.281 2.30754 -7.44562 0
M  V30 5408 N 505.51 1.54411 -0.315457 0
M  V30 5409 C 506.46 2.20772 0.569549 0
M  V30 5410 C 507.444 1.18551 1.08787 0
M  V30 5411 O 508.636 1.44213 1.02624 0
M  V30 5412 C 505.765 2.96293 1.73394 0
M  V30 5413 C 504.851 4.05844 1.2309 0
M  V30 5414 N 505.242 5.03822 0.446927 0
M  V30 5415 C 503.54 4.19648 1.51035 0
M  V30 5416 C 504.241 5.8143 0.17725 0
M  V30 5417 N 503.217 5.38245 0.761118 0
M  V30 5418 H 507.019 2.93877 -0.0368076 0
M  V30 5419 H 504.533 1.61949 -0.120915 0
M  V30 5420 H 506.53 3.42313 2.37965 0
M  V30 5421 H 505.19 2.24708 2.34386 0
M  V30 5422 H 506.201 5.17821 0.0905027 0
M  V30 5423 H 502.878 3.59274 2.1267 0
M  V30 5424 H 504.268 6.70369 -0.45335 0
M  V30 5425 N 506.988 0.0434614 1.5754 0
M  V30 5426 C 507.92 -0.962586 2.08007 0
M  V30 5427 C 508.933 -1.27972 1.00634 0
M  V30 5428 O 510.122 -1.24186 1.28219 0
M  V30 5429 C 507.222 -2.28621 2.50171 0
M  V30 5430 C 506.395 -2.15214 3.80791 0
M  V30 5431 C 505.454 -3.30633 4.09351 0
M  V30 5432 O 504.48 -3.0688 4.79388 0
M  V30 5433 N 505.682 -4.54873 3.60654 0
M  V30 5434 H 508.447 -0.531891 2.94942 0
M  V30 5435 H 506.008 -0.142965 1.61268 0
M  V30 5436 H 508 -3.04689 2.66359 0
M  V30 5437 H 506.57 -2.63283 1.68525 0
M  V30 5438 H 505.79 -1.23785 3.74261 0
M  V30 5439 H 507.078 -2.03475 4.66343 0
M  V30 5440 H 506.476 -4.77063 3.04019 0
M  V30 5441 H 505.033 -5.2806 3.82094 0
M  V30 5442 N 508.466 -1.55915 -0.229846 0
M  V30 5443 C 509.399 -1.86734 -1.3117 0
M  V30 5444 C 510.377 -0.723947 -1.45595 0
M  V30 5445 O 511.561 -0.971462 -1.61539 0
M  V30 5446 C 508.688 -2.06707 -2.68309 0
M  V30 5447 C 507.734 -3.2938 -2.70944 0
M  V30 5448 S 508.567 -4.85547 -2.25842 0
M  V30 5449 C 509.723 -5.08546 -3.64873 0
M  V30 5450 H 509.956 -2.78204 -1.04832 0
M  V30 5451 H 507.489 -1.48243 -0.431681 0
M  V30 5452 H 509.447 -2.18898 -3.47267 0
M  V30 5453 H 508.108 -1.16049 -2.91876 0
M  V30 5454 H 507.301 -3.40374 -3.71701 0
M  V30 5455 H 506.903 -3.16004 -2.00044 0
M  V30 5456 H 509.195 -4.96935 -4.60502 0
M  V30 5457 H 510.138 -6.10465 -3.58801 0
M  V30 5458 H 510.546 -4.36314 -3.58176 0
M  V30 5459 N 509.944 0.496216 -1.49584 0
M  V30 5460 C 511.221 1.25755 -1.49816 0
M  V30 5461 C 511.601 2.09859 -0.228572 0
M  V30 5462 O 510.949 2.14449 0.788908 0
M  V30 5463 C 511.159 2.11017 -2.7798 0
M  V30 5464 C 512.507 2.70047 -3.27658 0
M  V30 5465 O 513.531 2.21281 -2.79129 0
M  V30 5466 O 512.39 3.58834 -4.1219 0
M  V30 5467 H 509.484 0.569322 -0.599834 0
M  V30 5468 H 512.03 0.510094 -1.61852 0
M  V30 5469 H 510.802 1.48879 -3.61871 0
M  V30 5470 H 510.425 2.92947 -2.68827 0
M  V30 5471 N 511.423 1.38739 0.74761 0
M  V30 5472 C 512.353 1.39173 1.87492 0
M  V30 5473 C 513.334 0.256794 1.6815 0
M  V30 5474 O 514.519 0.460762 1.88655 0
M  V30 5475 C 511.649 1.22197 3.25093 0
M  V30 5476 C 510.603 2.32957 3.59047 0
M  V30 5477 C 509.929 2.01082 4.95449 0
M  V30 5478 C 511.229 3.75237 3.6331 0
M  V30 5479 H 512.923 2.3351 1.87386 0
M  V30 5480 H 510.469 1.12399 0.900134 0
M  V30 5481 H 512.422 1.21124 4.03617 0
M  V30 5482 H 511.146 0.243241 3.25693 0
M  V30 5483 H 509.805 2.33226 2.82845 0
M  V30 5484 H 509.453 1.01678 4.92616 0
M  V30 5485 H 509.153 2.75267 5.19136 0
M  V30 5486 H 510.677 2.01638 5.76346 0
M  V30 5487 H 512.091 3.76966 4.31937 0
M  V30 5488 H 510.488 4.48677 3.98509 0
M  V30 5489 H 511.558 4.07122 2.634 0
M  V30 5490 N 512.901 -0.976442 1.23707 0
M  V30 5491 C 514.147 -1.72081 1.07312 0
M  V30 5492 C 514.48 -1.90275 -0.388476 0
M  V30 5493 O 513.755 -1.4579 -1.28746 0
M  V30 5494 C 514.038 -3.11675 1.80363 0
M  V30 5495 C 513.891 -3.01027 3.3422 0
M  V30 5496 C 515.21 -4.1117 1.5693 0
M  V30 5497 H 512.329 -0.624583 0.391236 0
M  V30 5498 H 514.971 -1.13649 1.52263 0
M  V30 5499 H 513.121 -3.61559 1.42153 0
M  V30 5500 H 514.793 -2.58637 3.81975 0
M  V30 5501 H 513.036 -2.3744 3.63049 0
M  V30 5502 H 513.707 -3.9988 3.80525 0
M  V30 5503 H 516.183 -3.7011 1.90151 0
M  V30 5504 H 515.059 -5.06928 2.10513 0
M  V30 5505 H 515.32 -4.392 0.505548 0
M  V30 5506 N 514.379 -1.04941 -1.1758 0
M  V30 5507 C 515.342 -0.652456 -2.19717 0
M  V30 5508 C 516.342 0.294745 -1.58076 0
M  V30 5509 O 517.532 0.0789579 -1.74021 0
M  V30 5510 C 514.664 0.0420712 -3.40874 0
M  V30 5511 H 515.857 -1.55642 -2.5635 0
M  V30 5512 H 513.41 -0.842995 -1.31618 0
M  V30 5513 H 514.145 0.95943 -3.09783 0
M  V30 5514 H 513.93 -0.638844 -3.86861 0
M  V30 5515 H 515.42 0.306 -4.16477 0
M  V30 5516 N 515.857 1.33968 -0.830081 0
M  V30 5517 C 517.085 2.0228 -0.434773 0
M  V30 5518 C 517.5 1.62487 0.961419 0
M  V30 5519 O 516.857 0.833849 1.62337 0
M  V30 5520 C 516.908 3.5751 -0.535625 0
M  V30 5521 O 516.629 3.95864 -1.87679 0
M  V30 5522 C 518.13 4.43091 -0.136137 0
M  V30 5523 H 515.35 0.648151 -0.173613 0
M  V30 5524 H 517.894 1.71089 -1.12022 0
M  V30 5525 H 516.049 3.87266 0.101817 0
M  V30 5526 H 516.463 4.9056 -1.85609 0
M  V30 5527 H 517.937 5.51398 -0.257772 0
M  V30 5528 H 518.414 4.29433 0.921076 0
M  V30 5529 H 519.02 4.18677 -0.747662 0
M  V30 5530 N 517.335 0.585699 1.46312 0
M  V30 5531 C 518.265 -0.133556 2.33118 0
M  V30 5532 C 519.246 -0.880707 1.45525 0
M  V30 5533 O 520.431 -0.855579 1.74337 0
M  V30 5534 C 517.561 -1.14585 3.27853 0
M  V30 5535 C 516.515 -0.513341 4.2491 0
M  V30 5536 C 515.841 -1.63231 5.09175 0
M  V30 5537 C 517.141 0.551413 5.19381 0
M  V30 5538 H 518.835 0.59121 2.93505 0
M  V30 5539 H 516.381 0.285761 1.41136 0
M  V30 5540 H 518.334 -1.65741 3.87438 0
M  V30 5541 H 517.058 -1.90093 2.65579 0
M  V30 5542 H 515.717 -0.0228349 3.66593 0
M  V30 5543 H 515.365 -2.37713 4.43285 0
M  V30 5544 H 515.065 -1.21473 5.74907 0
M  V30 5545 H 516.589 -2.14658 5.71624 0
M  V30 5546 H 518.003 0.124804 5.73164 0
M  V30 5547 H 516.4 0.889486 5.93471 0
M  V30 5548 H 517.47 1.43655 4.63132 0
M  V30 5549 N 518.813 -1.54241 0.323641 0
M  V30 5550 C 520.038 -2.05452 -0.283605 0
M  V30 5551 C 520.463 -1.19823 -1.44997 0
M  V30 5552 O 519.821 -0.207358 -1.8011 0
M  V30 5553 C 519.869 -3.53823 -0.695795 0
M  V30 5554 O 518.973 -3.71134 -1.79815 0
M  V30 5555 H 518.314 -0.662024 -0.0511917 0
M  V30 5556 H 520.844 -1.99079 0.472073 0
M  V30 5557 H 520.854 -3.96094 -0.978434 0
M  V30 5558 H 519.529 -4.15602 0.157287 0
M  V30 5559 H 518.106 -3.40768 -1.51431 0
M  V30 5560 N 520.291 -0.0518155 -1.57515 0
M  V30 5561 C 521.223 0.951542 -2.08515 0
M  V30 5562 C 522.236 1.27436 -1.01311 0
M  V30 5563 O 523.425 1.23504 -1.28876 0
M  V30 5564 C 520.525 2.27291 -2.5138 0
M  V30 5565 C 519.698 2.13191 -3.81927 0
M  V30 5566 C 518.757 3.28458 -4.11098 0
M  V30 5567 O 517.783 3.04334 -4.81009 0
M  V30 5568 N 518.985 4.52954 -3.63061 0
M  V30 5569 H 521.75 0.516242 -2.9522 0
M  V30 5570 H 519.311 0.13441 -1.61341 0
M  V30 5571 H 521.303 3.03272 -2.67971 0
M  V30 5572 H 519.873 2.62386 -1.69919 0
M  V30 5573 H 519.093 1.21798 -3.74912 0
M  V30 5574 H 520.381 2.00999 -4.67415 0
M  V30 5575 H 519.779 4.75444 -3.06545 0
M  V30 5576 H 518.336 5.26026 -3.84889 0
M  V30 5577 N 521.769 1.56035 0.221574 0
M  V30 5578 C 522.699 1.95434 1.2778 0
M  V30 5579 C 523.68 0.822564 1.48889 0
M  V30 5580 O 524.865 1.08486 1.61072 0
M  V30 5581 C 521.995 2.27102 2.62759 0
M  V30 5582 C 520.949 3.4277 2.56306 0
M  V30 5583 C 520.275 3.60043 3.95314 0
M  V30 5584 C 521.575 4.77742 2.11093 0
M  V30 5585 H 523.269 2.83912 0.950504 0
M  V30 5586 H 520.815 1.36596 0.455791 0
M  V30 5587 H 522.768 2.53256 3.36807 0
M  V30 5588 H 521.492 1.35478 2.97176 0
M  V30 5589 H 520.151 3.16664 1.84715 0
M  V30 5590 H 519.799 2.65794 4.27039 0
M  V30 5591 H 519.499 4.37841 3.91879 0
M  V30 5592 H 521.023 3.88545 4.71025 0
M  V30 5593 H 522.437 5.03102 2.74885 0
M  V30 5594 H 520.834 5.58823 2.18716 0
M  V30 5595 H 521.904 4.731 1.06321 0
M  V30 5596 N 523.247 -0.488276 1.49845 0
M  V30 5597 C 524.495 -1.23911 1.59657 0
M  V30 5598 C 524.816 -1.92816 0.291005 0
M  V30 5599 O 524.086 -1.83328 -0.690485 0
M  V30 5600 H 522.666 -0.460357 0.588286 0
M  V30 5601 H 525.328 -0.564794 1.86537 0
M  V30 5602 H 524.424 -1.99625 2.39909 0
M  V30 5603 N 524.725 -1.39134 -0.740242 0
M  V30 5604 C 525.655 -1.40165 -1.86751 0
M  V30 5605 C 526.636 -0.265708 -1.68012 0
M  V30 5606 O 527.821 -0.47076 -1.88408 0
M  V30 5607 C 524.951 -1.2392 -3.2444 0
M  V30 5608 C 523.905 -2.34858 -3.57807 0
M  V30 5609 C 523.231 -2.03707 -4.94376 0
M  V30 5610 C 524.531 -3.77159 -3.61315 0
M  V30 5611 H 526.225 -2.345 -1.86145 0
M  V30 5612 H 523.771 -1.12875 -0.89416 0
M  V30 5613 H 525.724 -1.23263 -4.02969 0
M  V30 5614 H 524.448 -0.26051 -3.25559 0
M  V30 5615 H 523.107 -2.34723 -2.81604 0
M  V30 5616 H 522.755 -1.04289 -4.9207 0
M  V30 5617 H 522.455 -2.78016 -5.17669 0
M  V30 5618 H 523.979 -2.04691 -5.75268 0
M  V30 5619 H 525.393 -3.79252 -4.29931 0
M  V30 5620 H 523.79 -4.50784 -3.96124 0
M  V30 5621 H 524.86 -4.08513 -2.61238 0
M  V30 5622 N 526.204 0.969867 -1.24223 0
M  V30 5623 C 527.136 2.0669 -0.99055 0
M  V30 5624 C 528.149 1.62753 0.0392222 0
M  V30 5625 O 529.338 1.77403 -0.197561 0
M  V30 5626 C 526.438 3.35589 -0.472594 0
M  V30 5627 C 525.611 4.08444 -1.56499 0
M  V30 5628 C 524.67 5.15616 -1.05007 0
M  V30 5629 O 523.696 5.41911 -1.7413 0
M  V30 5630 N 524.898 5.80383 0.116641 0
M  V30 5631 H 527.663 2.28855 -1.93508 0
M  V30 5632 H 525.224 1.13733 -1.15223 0
M  V30 5633 H 527.216 4.04542 -0.112919 0
M  V30 5634 H 525.786 3.10311 0.377617 0
M  V30 5635 H 525.006 3.33798 -2.09696 0
M  V30 5636 H 526.294 4.53882 -2.29932 0
M  V30 5637 H 525.692 5.6142 0.694589 0
M  V30 5638 H 524.249 6.50462 0.417483 0
M  V30 5639 N 527.682 1.05563 1.17022 0
M  V30 5640 C 528.592 0.670758 2.24807 0
M  V30 5641 C 529.608 -0.309865 1.71219 0
M  V30 5642 O 530.784 -0.161025 2.00755 0
M  V30 5643 C 527.849 0.055337 3.46656 0
M  V30 5644 C 526.91 1.08688 4.15314 0
M  V30 5645 C 526.143 0.500736 5.31346 0
M  V30 5646 O 526.366 -0.688718 5.66227 0
M  V30 5647 O 525.3 1.23683 5.89055 0
M  V30 5648 H 529.126 1.56914 2.60023 0
M  V30 5649 H 526.711 0.827428 1.24395 0
M  V30 5650 H 528.593 -0.286492 4.20425 0
M  V30 5651 H 527.268 -0.816638 3.13229 0
M  V30 5652 H 526.175 1.48077 3.43546 0
M  V30 5653 H 527.508 1.93014 4.52777 0
M  V30 5654 N 529.16 -1.33526 0.837174 0
M  V30 5655 C 530.09 -2.31764 0.284206 0
M  V30 5656 C 531.071 -1.58896 -0.607142 0
M  V30 5657 O 532.256 -1.86798 -0.531047 0
M  V30 5658 C 529.386 -3.43029 -0.542962 0
M  V30 5659 C 528.34 -4.27255 0.252451 0
M  V30 5660 C 527.666 -5.3012 -0.69836 0
M  V30 5661 C 528.966 -5.01229 1.46858 0
M  V30 5662 H 530.66 -2.78262 1.10502 0
M  V30 5663 H 528.206 -1.3378 0.532812 0
M  V30 5664 H 530.159 -4.1078 -0.940096 0
M  V30 5665 H 528.883 -2.95216 -1.39697 0
M  V30 5666 H 527.542 -3.61127 0.631124 0
M  V30 5667 H 527.19 -4.78564 -1.54872 0
M  V30 5668 H 526.89 -5.87353 -0.170274 0
M  V30 5669 H 528.414 -6.00737 -1.09305 0
M  V30 5670 H 529.828 -5.61756 1.14469 0
M  V30 5671 H 528.225 -5.68104 1.93333 0
M  V30 5672 H 529.295 -4.301 2.23924 0
M  V30 5673 N 530.638 -0.59345 -1.46 0
M  V30 5674 C 531.885 -0.0831523 -2.02329 0
M  V30 5675 C 532.213 1.28093 -1.46364 0
M  V30 5676 O 531.468 1.85526 -0.622793 0
M  V30 5677 C 531.767 0.021178 -3.57394 0
M  V30 5678 C 531.433 -1.27671 -4.32448 0
M  V30 5679 C 530.095 -1.63227 -4.5267 0
M  V30 5680 C 532.447 -2.13511 -4.7546 0
M  V30 5681 C 529.775 -2.84401 -5.1316 0
M  V30 5682 C 532.127 -3.33922 -5.37289 0
M  V30 5683 C 530.791 -3.69747 -5.55737 0
M  V30 5684 H 530.061 -0.0304276 -0.740375 0
M  V30 5685 H 532.708 -0.772239 -1.75239 0
M  V30 5686 H 531.013 0.793454 -3.83682 0
M  V30 5687 H 532.71 0.431942 -3.98667 0
M  V30 5688 H 529.3 -0.989937 -4.17011 0
M  V30 5689 H 533.484 -1.87344 -4.59582 0
M  V30 5690 H 528.74 -3.12282 -5.25633 0
M  V30 5691 H 532.914 -4.00698 -5.69574 0
M  V30 5692 H 530.541 -4.6373 -6.02377 0
M  V30 5693 N 532.116 1.54067 -0.331816 0
M  V30 5694 C 533.048 2.22139 0.564538 0
M  V30 5695 C 534.061 1.22408 1.07332 0
M  V30 5696 O 535.25 1.4883 0.985481 0
M  V30 5697 C 532.35 2.87876 1.78831 0
M  V30 5698 C 531.523 4.13817 1.41682 0
M  V30 5699 C 530.582 4.63072 2.49901 0
M  V30 5700 O 529.608 5.27562 2.13699 0
M  V30 5701 N 530.81 4.38001 3.80967 0
M  V30 5702 H 533.575 2.99694 -0.0183736 0
M  V30 5703 H 531.136 1.61153 -0.155396 0
M  V30 5704 H 533.128 3.17747 2.50637 0
M  V30 5705 H 531.698 2.13977 2.27887 0
M  V30 5706 H 530.918 3.9062 0.530044 0
M  V30 5707 H 532.206 4.95762 1.14443 0
M  V30 5708 H 531.604 3.864 4.13173 0
M  V30 5709 H 530.161 4.72507 4.48977 0
M  V30 5710 N 533.594 0.0601682 1.57485 0
M  V30 5711 C 534.557 -0.896373 2.10945 0
M  V30 5712 C 535.557 -1.23402 1.03095 0
M  V30 5713 O 536.747 -1.16921 1.29132 0
M  V30 5714 C 533.879 -2.20346 2.60116 0
M  V30 5715 H 535.072 -0.432778 2.96761 0
M  V30 5716 H 532.625 -0.188372 1.55161 0
M  V30 5717 H 533.36 -2.71268 1.7772 0
M  V30 5718 H 533.145 -1.9714 3.38937 0
M  V30 5719 H 534.635 -2.88846 3.01592 0
M  V30 5720 N 535.072 -1.5615 -0.213296 0
M  V30 5721 C 536.483 -1.69645 -0.779582 0
M  V30 5722 C 536.834 -0.663615 -1.84636 0
M  V30 5723 O 535.959 0.183633 -2.15619 0
M  V30 5724 C 536.554 -3.07567 -1.42084 0
M  V30 5725 C 535.113 -3.22889 -1.93442 0
M  V30 5726 C 534.26 -2.65581 -0.797612 0
M  V30 5727 H 537.211 -1.58696 0.0114951 0
M  V30 5728 H 537.232 -3.03884 -2.28986 0
M  V30 5729 H 536.744 -3.82716 -0.644187 0
M  V30 5730 H 534.845 -2.52623 -2.73884 0
M  V30 5731 H 534.958 -4.30197 -2.10872 0
M  V30 5732 H 533.322 -2.24278 -1.20712 0
M  V30 5733 H 534.105 -3.43284 -0.033494 0
M  V30 5734 N 536.55 0.480323 -1.50102 0
M  V30 5735 C 537.827 1.24159 -1.51142 0
M  V30 5736 C 538.207 2.09605 -0.250818 0
M  V30 5737 O 537.555 2.15274 0.766118 0
M  V30 5738 C 537.765 2.08057 -2.80202 0
M  V30 5739 C 539.113 2.66556 -3.30504 0
M  V30 5740 O 540.137 2.18308 -2.81461 0
M  V30 5741 O 538.996 3.54442 -4.15973 0
M  V30 5742 H 536.09 0.562928 -0.605839 0
M  V30 5743 H 538.636 0.492899 -1.62384 0
M  V30 5744 H 537.408 1.45032 -3.6343 0
M  V30 5745 H 537.031 2.90079 -2.71919 0
M  V30 5746 N 538.028 1.39524 0.732853 0
M  V30 5747 C 538.958 1.41153 1.86005 0
M  V30 5748 C 539.939 0.274614 1.67869 0
M  V30 5749 O 541.124 0.480745 1.88155 0
M  V30 5750 C 538.254 1.25638 3.23778 0
M  V30 5751 C 537.208 2.36752 3.56556 0
M  V30 5752 C 536.534 2.06326 4.93289 0
M  V30 5753 C 537.834 3.79069 3.5931 0
M  V30 5754 H 539.528 2.35484 1.84899 0
M  V30 5755 H 537.074 1.13348 0.888162 0
M  V30 5756 H 539.027 1.25398 4.0231 0
M  V30 5757 H 537.751 0.277772 3.25417 0
M  V30 5758 H 536.41 2.36213 2.80355 0
M  V30 5759 H 536.058 1.06897 4.9151 0
M  V30 5760 H 535.758 2.80757 5.16187 0
M  V30 5761 H 537.282 2.07739 5.74175 0
M  V30 5762 H 538.696 3.81526 4.27914 0
M  V30 5763 H 537.093 4.52878 3.93728 0
M  V30 5764 H 538.163 4.09893 2.59068 0
M  V30 5765 N 539.506 -0.963266 1.24736 0
M  V30 5766 C 540.922 -1.23273 1.01371 0
M  V30 5767 C 541.122 -1.99618 -0.274776 0
M  V30 5768 O 540.178 -2.32293 -0.989769 0
M  V30 5769 C 541.491 -2.01554 2.23152 0
M  V30 5770 C 543.039 -2.14629 2.27823 0
M  V30 5771 C 543.514 -2.96307 3.49237 0
M  V30 5772 N 545.005 -3.03887 3.49581 0
M  V30 5773 C 545.74 -3.67456 4.40186 0
M  V30 5774 N 545.236 -4.32706 5.41052 0
M  V30 5775 N 547.029 -3.64511 4.27888 0
M  V30 5776 H 539.18 -0.452294 2.07528 0
M  V30 5777 H 541.443 -0.262521 0.910926 0
M  V30 5778 H 541.149 -1.52847 3.1675 0
M  V30 5779 H 541.023 -3.02278 2.25628 0
M  V30 5780 H 543.41 -2.62537 1.34753 0
M  V30 5781 H 543.491 -1.13238 2.2937 0
M  V30 5782 H 543.135 -2.49091 4.42624 0
M  V30 5783 H 543.065 -3.97905 3.44933 0
M  V30 5784 H 545.556 -2.57477 2.76611 0
M  V30 5785 H 545.869 -4.79042 6.06415 0
M  V30 5786 H 544.214 -4.31361 5.44934 0
M  V30 5787 H 547.405 -3.12715 3.4832 0
M  V30 5788 H 547.578 -4.13768 4.98698 0
M  V30 5789 N 540.985 -1.06182 -1.16461 0
M  V30 5790 C 542.233 -0.776326 -1.86595 0
M  V30 5791 C 542.554 0.69921 -1.82033 0
M  V30 5792 O 541.824 1.50579 -1.2531 0
M  V30 5793 H 540.404 -0.284184 -0.690832 0
M  V30 5794 H 543.066 -1.34308 -1.41235 0
M  V30 5795 H 542.162 -1.10022 -2.92064 0
M  V30 5796 N 542.463 1.3308 -0.844243 0
M  V30 5797 C 543.712 1.96868 -0.438833 0
M  V30 5798 C 544.025 1.67599 1.00846 0
M  V30 5799 O 545.231 2.25043 1.51881 0
M  V30 5800 C 543.687 3.5234 -0.73377 0
M  V30 5801 C 543.295 3.90481 -2.1961 0
M  V30 5802 C 545.039 4.22653 -0.395574 0
M  V30 5803 C 542.946 5.38954 -2.43481 0
M  V30 5804 H 541.876 0.736749 -0.160364 0
M  V30 5805 H 544.527 1.51623 -1.03358 0
M  V30 5806 H 542.909 3.95941 -0.068589 0
M  V30 5807 H 544.083 3.57922 -2.90221 0
M  V30 5808 H 542.398 3.33165 -2.4978 0
M  V30 5809 H 544.995 5.31848 -0.551477 0
M  V30 5810 H 545.338 4.11004 0.661921 0
M  V30 5811 H 545.871 3.84601 -1.01621 0
M  V30 5812 H 542.61 5.55612 -3.47816 0
M  V30 5813 H 542.13 5.72954 -1.77437 0
M  V30 5814 H 543.809 6.05907 -2.26905 0
M  V30 5815 N 543.941 0.601185 1.45683 0
M  V30 5816 C 545.166 0.0982245 2.07167 0
M  V30 5817 C 545.591 -1.20546 1.44396 0
M  V30 5818 O 544.949 -1.73247 0.534347 0
M  V30 5819 C 544.997 -0.0346976 3.60583 0
M  V30 5820 O 544.101 -1.08657 3.97828 0
M  V30 5821 H 543.442 0.0711618 0.660176 0
M  V30 5822 H 545.972 0.829376 1.87036 0
M  V30 5823 H 545.982 -0.234969 4.07323 0
M  V30 5824 H 544.657 0.917265 4.05659 0
M  V30 5825 H 543.234 -0.863275 3.6277 0
M  V30 5826 N 545.419 -1.53889 0.339982 0
M  V30 5827 C 546.329 -2.28604 -0.526988 0
M  V30 5828 C 547.345 -1.33578 -1.11503 0
M  V30 5829 O 548.521 -1.66612 -1.13148 0
M  V30 5830 C 545.586 -3.04164 -1.66389 0
M  V30 5831 C 544.647 -4.14809 -1.10599 0
M  V30 5832 C 543.88 -4.86756 -2.18871 0
M  V30 5833 O 544.103 -4.58343 -3.39526 0
M  V30 5834 O 543.037 -5.73289 -1.83366 0
M  V30 5835 H 546.863 -3.03594 0.0802707 0
M  V30 5836 H 544.448 -1.4903 0.105141 0
M  V30 5837 H 546.33 -3.51427 -2.32544 0
M  V30 5838 H 545.005 -2.32035 -2.25703 0
M  V30 5839 H 543.912 -3.71857 -0.409067 0
M  V30 5840 H 545.245 -4.89029 -0.557771 0
M  V30 5841 N 546.897 -0.0685191 -1.57451 0
M  V30 5842 C 547.829 0.929372 -2.09512 0
M  V30 5843 C 548.842 1.26354 -1.02657 0
M  V30 5844 O 550.031 1.2213 -1.30179 0
M  V30 5845 C 547.131 2.24612 -2.53777 0
M  V30 5846 C 546.304 2.09128 -3.84167 0
M  V30 5847 C 545.363 3.24079 -4.14559 0
M  V30 5848 O 544.389 2.99215 -4.8421 0
M  V30 5849 N 545.591 4.49077 -3.67845 0
M  V30 5850 H 548.356 0.484901 -2.95751 0
M  V30 5851 H 545.917 0.11729 -1.61475 0
M  V30 5852 H 547.909 3.00412 -2.71172 0
M  V30 5853 H 546.479 2.60569 -1.72692 0
M  V30 5854 H 545.699 1.17815 -3.76182 0
M  V30 5855 H 546.987 1.9603 -4.69521 0
M  V30 5856 H 546.385 4.72165 -3.11571 0
M  V30 5857 H 544.942 5.21915 -3.90446 0
M  V30 5858 N 548.375 1.56261 0.205012 0
M  V30 5859 C 549.6 1.84491 0.947512 0
M  V30 5860 C 550.025 0.650894 1.76479 0
M  V30 5861 O 549.383 -0.40035 1.76824 0
M  V30 5862 C 549.431 3.10863 1.82747 0
M  V30 5863 O 548.535 2.90719 2.925 0
M  V30 5864 H 547.876 0.607783 0.267386 0
M  V30 5865 H 550.406 2.03485 0.213323 0
M  V30 5866 H 550.416 3.41399 2.23407 0
M  V30 5867 H 549.091 3.97392 1.2269 0
M  V30 5868 H 547.668 2.71457 2.55667 0
M  V30 5869 N 549.853 -0.472356 1.50355 0
M  V30 5870 C 550.783 -1.57859 1.72055 0
M  V30 5871 C 551.764 -1.60283 0.569505 0
M  V30 5872 O 552.949 -1.7657 0.808503 0
M  V30 5873 C 550.079 -2.96191 1.81351 0
M  V30 5874 C 549.033 -3.08633 2.96529 0
M  V30 5875 C 548.359 -4.486 2.90968 0
M  V30 5876 C 549.659 -2.85969 4.37057 0
M  V30 5877 H 551.353 -1.39953 2.64676 0
M  V30 5878 H 548.899 -0.671846 1.27367 0
M  V30 5879 H 550.852 -3.73507 1.95117 0
M  V30 5880 H 549.576 -3.15251 0.853502 0
M  V30 5881 H 548.235 -2.33749 2.82413 0
M  V30 5882 H 547.883 -4.64577 1.92815 0
M  V30 5883 H 547.583 -4.57861 3.68289 0
M  V30 5884 H 549.107 -5.27938 3.0678 0
M  V30 5885 H 550.521 -3.53036 4.51706 0
M  V30 5886 H 548.918 -3.06677 5.15819 0
M  V30 5887 H 549.988 -1.81838 4.49514 0
M  V30 5888 N 551.331 -1.39911 -0.725443 0
M  V30 5889 C 552.577 -1.37858 -1.48738 0
M  V30 5890 C 552.91 0.0224187 -1.94187 0
M  V30 5891 O 552.185 0.989204 -1.67466 0
M  V30 5892 C 552.468 -2.3594 -2.72038 0
M  V30 5893 C 552.321 -3.85023 -2.32546 0
M  V30 5894 C 553.64 -2.31704 -3.74167 0
M  V30 5895 H 550.759 -0.502074 -0.539528 0
M  V30 5896 H 553.401 -1.70974 -0.828728 0
M  V30 5897 H 551.551 -2.0783 -3.28236 0
M  V30 5898 H 553.223 -4.2392 -1.81905 0
M  V30 5899 H 551.466 -4.01334 -1.64661 0
M  V30 5900 H 552.137 -4.49152 -3.20884 0
M  V30 5901 H 554.613 -2.5658 -3.27576 0
M  V30 5902 H 553.489 -3.02395 -4.58092 0
M  V30 5903 H 553.75 -1.3253 -4.21768 0
M  V30 5904 N 552.809 0.956637 -1.25245 0
M  V30 5905 C 554.055 1.70352 -1.10036 0
M  V30 5906 C 554.388 1.90869 0.358156 0
M  V30 5907 O 553.663 1.47819 1.26411 0
M  V30 5908 C 553.946 3.08766 -1.85298 0
M  V30 5909 C 553.799 2.95672 -3.38966 0
M  V30 5910 C 555.118 4.08622 -1.63451 0
M  V30 5911 H 552.237 0.618279 -0.401123 0
M  V30 5912 H 554.879 1.11212 -1.54051 0
M  V30 5913 H 553.029 3.59252 -1.47887 0
M  V30 5914 H 554.701 2.52527 -3.86041 0
M  V30 5915 H 552.944 2.31634 -3.6678 0
M  V30 5916 H 553.615 3.93776 -3.86839 0
M  V30 5917 H 556.091 3.67038 -1.96015 0
M  V30 5918 H 554.967 5.03514 -2.18551 0
M  V30 5919 H 555.228 4.3834 -0.575357 0
M  V30 5920 N 554.287 1.06798 1.15896 0
M  V30 5921 C 555.512 0.808739 1.90982 0
M  V30 5922 C 555.937 -0.6316 1.77179 0
M  V30 5923 O 555.295 -1.4407 1.10061 0
M  V30 5924 C 555.343 1.21468 3.39526 0
M  V30 5925 O 554.447 0.356562 4.10856 0
M  V30 5926 H 553.788 0.29512 0.594811 0
M  V30 5927 H 556.318 1.42513 1.46804 0
M  V30 5928 H 556.328 1.18844 3.90308 0
M  V30 5929 H 555.003 2.26379 3.48891 0
M  V30 5930 H 553.58 0.444808 3.70238 0
M  V30 5931 N 555.766 -1.3263 0.851289 0
M  V30 5932 C 557.014 -1.96978 0.452128 0
M  V30 5933 C 557.335 -1.67715 -0.99482 0
M  V30 5934 O 556.605 -0.98259 -1.69476 0
M  V30 5935 H 555.185 -0.72873 0.164202 0
M  V30 5936 H 557.847 -1.61774 1.08698 0
M  V30 5937 H 556.943 -3.06387 0.594407 0
M  V30 5938 N 557.244 -0.608902 -1.45362 0
M  V30 5939 C 558.49 -0.104762 -2.02529 0
M  V30 5940 C 558.823 1.26191 -1.47613 0
M  V30 5941 O 558.098 1.8327 -0.65134 0
M  V30 5942 C 558.381 -0.0672661 -3.60037 0
M  V30 5943 C 558.234 -1.4647 -4.25284 0
M  V30 5944 C 559.553 0.619877 -4.35713 0
M  V30 5945 H 556.672 -0.0395438 -0.735938 0
M  V30 5946 H 559.314 -0.781126 -1.73201 0
M  V30 5947 H 557.464 0.50871 -3.85155 0
M  V30 5948 H 559.136 -2.08785 -4.11347 0
M  V30 5949 H 557.379 -2.02502 -3.83634 0
M  V30 5950 H 558.05 -1.39069 -5.34195 0
M  V30 5951 H 560.526 0.130297 -4.15896 0
M  V30 5952 H 559.402 0.615224 -5.45441 0
M  V30 5953 H 559.663 1.68621 -4.0868 0
M  V30 5954 N 558.722 1.53707 -0.348139 0
M  V30 5955 C 559.654 2.22725 0.540946 0
M  V30 5956 C 560.667 1.2354 1.06027 0
M  V30 5957 O 561.856 1.49867 0.96964 0
M  V30 5958 C 558.956 2.89756 1.75768 0
M  V30 5959 C 558.129 4.15297 1.37285 0
M  V30 5960 C 557.188 4.65697 2.44976 0
M  V30 5961 O 556.214 5.29798 2.08092 0
M  V30 5962 N 557.416 4.42017 3.763 0
M  V30 5963 H 560.181 2.99658 -0.0501592 0
M  V30 5964 H 557.742 1.60979 -0.17248 0
M  V30 5965 H 559.734 3.20388 2.47252 0
M  V30 5966 H 558.304 2.16382 2.25605 0
M  V30 5967 H 557.524 3.9116 0.488584 0
M  V30 5968 H 558.812 4.96948 1.09179 0
M  V30 5969 H 558.21 3.9076 4.09051 0
M  V30 5970 H 556.767 4.77242 4.4394 0
M  V30 5971 N 560.2 0.0768682 1.57412 0
M  V30 5972 C 561.15 -0.898795 2.09537 0
M  V30 5973 C 562.134 -1.25556 1.0062 0
M  V30 5974 O 563.326 -1.23369 1.26921 0
M  V30 5975 C 560.455 -2.16453 2.66464 0
M  V30 5976 C 559.541 -1.83401 3.82393 0
M  V30 5977 N 559.932 -1.20823 4.91157 0
M  V30 5978 C 558.23 -2.13121 3.91785 0
M  V30 5979 C 558.931 -1.05976 5.71965 0
M  V30 5980 N 557.907 -1.57113 5.204 0
M  V30 5981 H 561.709 -0.410718 2.91016 0
M  V30 5982 H 559.223 -0.126878 1.61904 0
M  V30 5983 H 561.22 -2.87274 3.02125 0
M  V30 5984 H 559.88 -2.65844 1.86433 0
M  V30 5985 H 560.891 -0.877249 5.10416 0
M  V30 5986 H 557.568 -2.64854 3.22736 0
M  V30 5987 H 558.958 -0.571809 6.69462 0
M  V30 5988 N 561.678 -1.56367 -0.196722 0
M  V30 5989 C 562.61 -1.90941 -1.26784 0
M  V30 5990 C 563.623 -0.799928 -1.41792 0
M  V30 5991 O 564.812 -1.07833 -1.42247 0
M  V30 5992 C 561.912 -2.12477 -2.6402 0
M  V30 5993 C 561.085 -3.43616 -2.70641 0
M  V30 5994 C 560.144 -3.54284 -3.89062 0
M  V30 5995 O 559.17 -4.2712 -3.76241 0
M  V30 5996 N 560.372 -2.87252 -5.04447 0
M  V30 5997 H 563.137 -2.83417 -0.974417 0
M  V30 5998 H 560.698 -1.57215 -0.386649 0
M  V30 5999 H 562.69 -2.16904 -3.41665 0
M  V30 6000 H 561.26 -1.26508 -2.85857 0
M  V30 6001 H 560.48 -3.51072 -1.79283 0
M  V30 6002 H 561.768 -4.29958 -2.72054 0
M  V30 6003 H 561.166 -2.27901 -5.17762 0
M  V30 6004 H 559.723 -2.97308 -5.80044 0
M  V30 6005 N 563.156 0.464375 -1.50603 0
M  V30 6006 C 564.381 1.24372 -1.65971 0
M  V30 6007 C 564.806 1.84901 -0.345453 0
M  V30 6008 O 564.164 1.67596 0.691457 0
M  V30 6009 C 564.212 2.32331 -2.7578 0
M  V30 6010 O 563.316 3.37146 -2.375 0
M  V30 6011 H 562.657 0.365604 -0.554283 0
M  V30 6012 H 565.187 0.55183 -1.97018 0
M  V30 6013 H 565.197 2.77539 -2.99059 0
M  V30 6014 H 563.872 1.87648 -3.71162 0
M  V30 6015 H 562.449 2.97602 -2.24694 0
M  V30 6016 N 564.634 1.40294 0.718013 0
M  V30 6017 C 565.862 1.4175 1.50714 0
M  V30 6018 C 566.277 0.0165366 1.88793 0
M  V30 6019 O 565.634 -0.958942 1.55276 0
M  V30 6020 C 565.685 2.30598 2.784 0
M  V30 6021 O 565.406 3.6524 2.41932 0
M  V30 6022 C 566.907 2.4062 3.72313 0
M  V30 6023 H 564.127 0.483565 0.465194 0
M  V30 6024 H 566.671 1.84316 0.885889 0
M  V30 6025 H 564.826 1.91401 3.36815 0
M  V30 6026 H 565.24 4.12402 3.24076 0
M  V30 6027 H 566.714 3.07001 4.58753 0
M  V30 6028 H 567.191 1.4305 4.15251 0
M  V30 6029 H 567.797 2.80359 3.19811 0
M  V30 6030 N 566.112 -0.949982 1.2575 0
M  V30 6031 C 567.042 -2.06483 1.09028 0
M  V30 6032 C 568.023 -1.701 -0.00201532 0
M  V30 6033 O 569.208 -1.93469 0.168383 0
M  V30 6034 C 566.338 -3.39899 0.71316 0
M  V30 6035 C 565.292 -3.90309 1.75621 0
M  V30 6036 C 564.618 -5.20274 1.23365 0
M  V30 6037 C 565.918 -4.16169 3.15596 0
M  V30 6038 H 567.612 -2.20731 2.02283 0
M  V30 6039 H 565.158 -1.06066 0.973964 0
M  V30 6040 H 567.111 -4.17346 0.58309 0
M  V30 6041 H 565.835 -3.25602 -0.255091 0
M  V30 6042 H 564.494 -3.15035 1.8748 0
M  V30 6043 H 564.142 -5.02351 0.255491 0
M  V30 6044 H 563.842 -5.54971 1.93082 0
M  V30 6045 H 565.366 -6.00314 1.11607 0
M  V30 6046 H 566.78 -4.84259 3.06864 0
M  V30 6047 H 565.177 -4.62131 3.82825 0
M  V30 6048 H 566.247 -3.22273 3.6231 0
M  V30 6049 N 567.59 -1.07411 -1.15328 0
M  V30 6050 C 568.5 -0.706438 -2.23711 0
M  V30 6051 C 569.516 0.282586 -1.7169 0
M  V30 6052 O 570.692 0.129066 -2.00986 0
M  V30 6053 C 567.757 -0.11048 -3.46524 0
M  V30 6054 C 566.818 -1.15282 -4.13532 0
M  V30 6055 C 566.051 -0.585205 -5.30482 0
M  V30 6056 O 566.274 0.598549 -5.67251 0
M  V30 6057 O 565.208 -1.33039 -5.87013 0
M  V30 6058 H 569.034 -1.61031 -2.57493 0
M  V30 6059 H 566.619 -0.847113 -1.23062 0
M  V30 6060 H 568.501 0.21957 -4.20828 0
M  V30 6061 H 567.176 0.766703 -3.14489 0
M  V30 6062 H 566.083 -1.53523 -3.41147 0
M  V30 6063 H 567.416 -2.00192 -4.49649 0
M  V30 6064 N 569.068 1.32177 -0.85831 0
M  V30 6065 C 569.998 2.31282 -0.321041 0
M  V30 6066 C 570.979 1.59841 0.581786 0
M  V30 6067 O 572.164 1.87619 0.501262 0
M  V30 6068 C 569.294 3.4385 0.48832 0
M  V30 6069 C 568.248 4.26799 -0.320391 0
M  V30 6070 C 567.574 5.31164 0.613934 0
M  V30 6071 C 568.874 4.98829 -1.54813 0
M  V30 6072 H 570.568 2.76469 -1.14915 0
M  V30 6073 H 568.114 1.32916 -0.554028 0
M  V30 6074 H 570.067 4.12224 0.874626 0
M  V30 6075 H 568.791 2.97401 1.34983 0
M  V30 6076 H 567.45 3.60077 -0.688497 0
M  V30 6077 H 567.098 4.80967 1.47239 0
M  V30 6078 H 566.798 5.8755 0.0768097 0
M  V30 6079 H 568.322 6.024 0.997336 0
M  V30 6080 H 569.736 5.59864 -1.23392 0
M  V30 6081 H 568.133 5.64957 -2.02346 0
M  V30 6082 H 569.203 4.26483 -2.30739 0
M  V30 6083 N 570.547 0.616602 1.45037 0
M  V30 6084 C 571.772 0.120192 2.07051 0
M  V30 6085 C 572.197 -1.19008 1.45666 0
M  V30 6086 O 571.555 -1.7267 0.552692 0
M  V30 6087 C 571.603 0.00354901 3.606 0
M  V30 6088 O 570.707 -1.04431 3.98958 0
M  V30 6089 H 570.048 0.0781599 0.659384 0
M  V30 6090 H 572.578 0.849167 1.86146 0
M  V30 6091 H 572.588 -0.191754 4.07549 0
M  V30 6092 H 571.263 0.960239 4.04663 0
M  V30 6093 H 569.84 -0.824749 3.63665 0
M  V30 6094 N 572.025 -1.5352 0.356285 0
M  V30 6095 C 572.935 -2.29151 -0.502712 0
M  V30 6096 C 573.951 -1.34753 -1.1008 0
M  V30 6097 O 575.127 -1.67803 -1.11374 0
M  V30 6098 C 572.192 -3.05911 -1.63154 0
M  V30 6099 C 571.253 -4.15958 -1.06194 0
M  V30 6100 C 570.486 -4.8905 -2.13696 0
M  V30 6101 O 570.709 -4.61919 -3.34645 0
M  V30 6102 O 569.643 -5.75202 -1.77275 0
M  V30 6103 H 573.469 -3.03492 0.112466 0
M  V30 6104 H 571.054 -1.4891 0.120942 0
M  V30 6105 H 572.936 -3.53874 -2.28804 0
M  V30 6106 H 571.611 -2.34415 -2.23229 0
M  V30 6107 H 570.518 -3.7227 -0.369603 0
M  V30 6108 H 571.851 -4.89593 -0.505872 0
M  V30 6109 N 573.503 -0.0852151 -1.57369 0
M  V30 6110 C 574.749 0.581666 -1.94279 0
M  V30 6111 C 575.082 1.68444 -0.966446 0
M  V30 6112 O 574.357 1.945 0.00215277 0
M  V30 6113 C 574.64 1.14609 -3.41375 0
M  V30 6114 C 574.493 0.0490414 -4.49773 0
M  V30 6115 C 575.812 2.04751 -3.8957 0
M  V30 6116 H 572.931 0.209972 -0.706456 0
M  V30 6117 H 575.573 -0.153915 -1.89376 0
M  V30 6118 H 573.723 1.77297 -3.45685 0
M  V30 6119 H 575.395 -0.584721 -4.57579 0
M  V30 6120 H 573.638 -0.618638 -4.29366 0
M  V30 6121 H 574.309 0.484601 -5.49869 0
M  V30 6122 H 576.785 1.51981 -3.87351 0
M  V30 6123 H 575.661 2.41173 -4.93079 0
M  V30 6124 H 575.922 2.96107 -3.28288 0
M  V30 6125 N 574.981 1.5647 0.188427 0
M  V30 6126 C 576.229 1.80655 0.905986 0
M  V30 6127 C 576.55 0.659391 1.83513 0
M  V30 6128 O 575.82 -0.321868 1.93238 0
M  V30 6129 H 574.4 0.666391 0.337538 0
M  V30 6130 H 577.062 1.93949 0.192339 0
M  V30 6131 H 576.158 2.74066 1.49313 0
M  V30 6132 N 576.459 -0.456382 1.50847 0
M  V30 6133 C 577.705 -1.20914 1.62811 0
M  V30 6134 C 578.038 -1.91301 0.334304 0
M  V30 6135 O 577.313 -1.82775 -0.665098 0
M  V30 6136 C 577.596 -2.24122 2.81853 0
M  V30 6137 C 577.449 -1.57944 4.21158 0
M  V30 6138 C 578.768 -3.25295 2.96431 0
M  V30 6139 H 575.887 -0.438233 0.592554 0
M  V30 6140 H 578.529 -0.50091 1.83278 0
M  V30 6141 H 576.679 -2.84524 2.64534 0
M  V30 6142 H 578.351 -1.01025 4.50102 0
M  V30 6143 H 576.594 -0.882185 4.24735 0
M  V30 6144 H 577.265 -2.33014 5.00408 0
M  V30 6145 H 579.741 -2.7493 3.12335 0
M  V30 6146 H 578.617 -3.94822 3.81322 0
M  V30 6147 H 578.878 -3.90286 2.07676 0
M  V30 6148 N 577.937 -1.40673 -0.710563 0
M  V30 6149 C 578.847 -1.43663 -1.85467 0
M  V30 6150 C 579.863 -0.328721 -1.70867 0
M  V30 6151 O 581.039 -0.574098 -1.93044 0
M  V30 6152 C 578.104 -1.30226 -3.21313 0
M  V30 6153 C 577.165 -2.51204 -3.48131 0
M  V30 6154 C 576.398 -2.38398 -4.77495 0
M  V30 6155 O 576.621 -1.40048 -5.5294 0
M  V30 6156 O 575.555 -3.2787 -5.04762 0
M  V30 6157 H 579.381 -2.40156 -1.859 0
M  V30 6158 H 576.966 -1.22049 -0.861652 0
M  V30 6159 H 578.848 -1.2496 -4.02446 0
M  V30 6160 H 577.523 -0.368419 -3.21597 0
M  V30 6161 H 576.43 -2.62048 -2.66987 0
M  V30 6162 H 577.763 -3.43366 -3.52648 0
M  V30 6163 N 579.415 0.9433 -1.26252 0
M  V30 6164 C 580.378 2.02326 -1.07689 0
M  V30 6165 C 581.378 1.60779 -0.0259174 0
M  V30 6166 O 582.568 1.72108 -0.269134 0
M  V30 6167 C 579.7 3.34886 -0.63752 0
M  V30 6168 H 580.893 2.20225 -2.0357 0
M  V30 6169 H 578.446 1.12197 -1.08819 0
M  V30 6170 H 579.181 3.22684 0.323377 0
M  V30 6171 H 578.966 3.66393 -1.39637 0
M  V30 6172 H 580.456 4.14231 -0.529418 0
M  V30 6173 N 580.893 1.08022 1.14757 0
M  V30 6174 C 581.856 0.71048 2.1791 0
M  V30 6175 C 582.856 -0.252731 1.58801 0
M  V30 6176 O 584.046 -0.0327915 1.74169 0
M  V30 6177 C 581.178 0.0483203 3.40866 0
M  V30 6178 H 582.371 1.62384 2.52134 0
M  V30 6179 H 579.924 0.877595 1.29337 0
M  V30 6180 H 580.659 -0.876959 3.12218 0
M  V30 6181 H 580.444 0.741189 3.85031 0
M  V30 6182 H 581.934 -0.195471 4.17142 0
M  V30 6183 N 582.371 -1.3172 0.865308 0
M  V30 6184 C 583.334 -2.26918 0.322627 0
M  V30 6185 C 584.334 -1.52031 -0.523751 0
M  V30 6186 O 585.524 -1.70973 -0.333727 0
M  V30 6187 C 582.656 -3.36558 -0.542338 0
M  V30 6188 H 583.849 -2.76432 1.16298 0
M  V30 6189 H 581.402 -1.42573 0.640512 0
M  V30 6190 H 582.137 -2.92329 -1.40407 0
M  V30 6191 H 581.922 -3.92048 0.0636395 0
M  V30 6192 H 583.412 -4.07465 -0.91446 0
M  V30 6193 N 583.85 -0.624285 -1.44708 0
M  V30 6194 C 584.812 0.0749638 -2.29077 0
M  V30 6195 C 585.812 0.778965 -1.40673 0
M  V30 6196 O 587.003 0.624591 -1.62618 0
M  V30 6197 C 584.135 1.11663 -3.22094 0
M  V30 6198 H 585.327 -0.667013 -2.92388 0
M  V30 6199 H 582.88 -0.384098 -1.51507 0
M  V30 6200 H 583.615 1.88881 -2.63618 0
M  V30 6201 H 583.401 0.61583 -3.87234 0
M  V30 6202 H 584.891 1.60585 -3.8549 0
M  V30 6203 N 585.328 1.53329 -0.364422 0
M  V30 6204 C 586.556 2.05657 0.226424 0
M  V30 6205 C 586.971 1.23801 1.42544 0
M  V30 6206 O 586.328 0.27839 1.80364 0
M  V30 6207 C 586.379 3.56125 0.621056 0
M  V30 6208 O 586.1 4.34879 -0.530304 0
M  V30 6209 C 587.601 4.24706 1.27041 0
M  V30 6210 H 584.821 0.669806 0.0400056 0
M  V30 6211 H 587.365 1.97714 -0.522456 0
M  V30 6212 H 585.52 3.64223 1.31985 0
M  V30 6213 H 585.934 5.24073 -0.211546 0
M  V30 6214 H 587.408 5.3131 1.49711 0
M  V30 6215 H 587.885 3.78354 2.23036 0
M  V30 6216 H 588.491 4.20858 0.613079 0
M  V30 6217 N 586.806 0.0935595 1.57322 0
M  V30 6218 C 588.031 -0.582324 1.99057 0
M  V30 6219 C 588.456 -1.61025 0.972242 0
M  V30 6220 O 587.814 -1.81202 -0.0594622 0
M  V30 6221 C 587.862 -1.20799 3.39765 0
M  V30 6222 O 586.966 -2.32382 3.40694 0
M  V30 6223 H 586.307 -0.147884 0.647323 0
M  V30 6224 H 588.837 0.174516 2.03854 0
M  V30 6225 H 588.847 -1.54966 3.77425 0
M  V30 6226 H 587.522 -0.454914 4.13405 0
M  V30 6227 H 586.099 -1.99845 3.14827 0
M  V30 6228 N 588.284 -1.56567 -0.180126 0
M  V30 6229 C 589.533 -1.80685 -0.896426 0
M  V30 6230 C 589.846 -0.669335 -1.83791 0
M  V30 6231 O 591.052 -0.795209 -2.59593 0
M  V30 6232 C 589.508 -3.20132 -1.6445 0
M  V30 6233 C 589.116 -4.41727 -0.747088 0
M  V30 6234 C 590.86 -3.53549 -2.34955 0
M  V30 6235 C 588.767 -5.72195 -1.49489 0
M  V30 6236 H 587.697 -0.673758 -0.338477 0
M  V30 6237 H 590.348 -1.8289 -0.149467 0
M  V30 6238 H 588.73 -3.12218 -2.43589 0
M  V30 6239 H 589.904 -4.608 0.00671129 0
M  V30 6240 H 588.219 -4.16122 -0.152134 0
M  V30 6241 H 590.816 -4.48267 -2.91481 0
M  V30 6242 H 591.159 -2.78006 -3.09868 0
M  V30 6243 H 591.692 -3.62976 -1.62768 0
M  V30 6244 H 588.431 -6.50743 -0.788251 0
M  V30 6245 H 587.951 -5.57115 -2.22224 0
M  V30 6246 H 589.63 -6.1384 -2.04472 0
M  V30 6247 N 589.762 0.448376 -1.51087 0
M  V30 6248 C 590.725 1.52588 -1.71025 0
M  V30 6249 C 591.725 1.49958 -0.580442 0
M  V30 6250 O 592.915 1.52176 -0.847833 0
M  V30 6251 C 590.047 2.92163 -1.75652 0
M  V30 6252 H 591.24 1.36218 -2.67179 0
M  V30 6253 H 588.793 0.676313 -1.4091 0
M  V30 6254 H 589.528 3.13951 -0.812724 0
M  V30 6255 H 589.313 2.95478 -2.57751 0
M  V30 6256 H 590.803 3.70349 -1.92953 0
M  V30 6257 N 591.24 1.41047 0.703093 0
M  V30 6258 C 592.173 1.36713 1.82715 0
M  V30 6259 C 593.151 0.235533 1.60885 0
M  V30 6260 O 594.335 0.421227 1.83733 0
M  V30 6261 C 591.462 1.13069 3.1927 0
M  V30 6262 C 590.508 2.28846 3.59905 0
M  V30 6263 S 591.341 3.91297 3.65578 0
M  V30 6264 C 592.497 3.69941 5.04871 0
M  V30 6265 H 592.73 2.31838 1.86114 0
M  V30 6266 H 590.263 1.27481 0.871083 0
M  V30 6267 H 592.221 1.00113 3.98105 0
M  V30 6268 H 590.882 0.195763 3.13489 0
M  V30 6269 H 590.075 2.07977 4.59088 0
M  V30 6270 H 589.677 2.3817 2.88359 0
M  V30 6271 H 591.969 3.29181 5.92154 0
M  V30 6272 H 592.912 4.68699 5.30779 0
M  V30 6273 H 593.32 3.03369 4.76054 0
M  V30 6274 N 592.718 -0.936591 1.26751 0
M  V30 6275 C 593.943 -1.72288 1.15462 0
M  V30 6276 C 594.368 -1.85915 -0.285887 0
M  V30 6277 O 593.726 -1.35272 -1.20711 0
M  V30 6278 C 593.774 -3.10503 1.83359 0
M  V30 6279 O 592.878 -3.96745 1.1255 0
M  V30 6280 H 592.219 -0.52843 0.402067 0
M  V30 6281 H 594.749 -1.17271 1.67656 0
M  V30 6282 H 594.759 -3.60867 1.90365 0
M  V30 6283 H 593.434 -2.99901 2.88153 0
M  V30 6284 H 592.011 -3.55191 1.13551 0
M  V30 6285 N 594.196 -1.08629 -1.14182 0
M  V30 6286 C 595.612 -0.814363 -1.3726 0
M  V30 6287 C 595.812 0.575271 -1.93114 0
M  V30 6288 O 594.868 1.33165 -2.1453 0
M  V30 6289 C 596.181 -1.8989 -2.33157 0
M  V30 6290 C 597.729 -1.92518 -2.46791 0
M  V30 6291 C 598.204 -3.00092 -3.45989 0
M  V30 6292 N 599.695 -2.99279 -3.53534 0
M  V30 6293 C 600.43 -3.79158 -4.30147 0
M  V30 6294 N 599.926 -4.68923 -5.09983 0
M  V30 6295 N 601.719 -3.67451 -4.25366 0
M  V30 6296 H 593.87 -1.98232 -0.762758 0
M  V30 6297 H 596.133 -0.860383 -0.398051 0
M  V30 6298 H 595.839 -2.89809 -1.99257 0
M  V30 6299 H 595.713 -1.77013 -3.33086 0
M  V30 6300 H 598.1 -0.932425 -2.79982 0
M  V30 6301 H 598.181 -2.09473 -1.46816 0
M  V30 6302 H 597.825 -3.99575 -3.13532 0
M  V30 6303 H 597.755 -2.80382 -4.45751 0
M  V30 6304 H 600.246 -2.3422 -2.96563 0
M  V30 6305 H 600.559 -5.26475 -5.65724 0
M  V30 6306 H 598.904 -4.72964 -5.09244 0
M  V30 6307 H 602.095 -2.9669 -3.62067 0
M  V30 6308 H 602.268 -4.29944 -4.84822 0
M  V30 6309 N 595.674 1.31259 -0.872281 0
M  V30 6310 C 596.607 2.26544 -0.274394 0
M  V30 6311 C 597.585 1.51213 0.597776 0
M  V30 6312 O 598.769 1.80277 0.550687 0
M  V30 6313 C 595.896 3.33139 0.611256 0
M  V30 6314 C 594.942 4.26077 -0.189876 0
M  V30 6315 S 595.775 5.11971 -1.56989 0
M  V30 6316 C 596.931 6.2208 -0.690427 0
M  V30 6317 H 597.164 2.76908 -1.0821 0
M  V30 6318 H 594.697 1.3906 -0.670939 0
M  V30 6319 H 596.655 3.95024 1.11654 0
M  V30 6320 H 595.316 2.81525 1.39294 0
M  V30 6321 H 594.509 5.01657 0.485433 0
M  V30 6322 H 594.111 3.68701 -0.627339 0
M  V30 6323 H 596.403 6.77429 0.098001 0
M  V30 6324 H 597.346 6.93768 -1.41742 0
M  V30 6325 H 597.754 5.63915 -0.256953 0
M  V30 6326 N 597.152 0.631951 1.44375 0
M  V30 6327 C 598.377 0.142146 2.06912 0
M  V30 6328 C 598.802 -1.17456 1.4692 0
M  V30 6329 O 598.16 -1.72074 0.570975 0
M  V30 6330 C 598.208 0.0417952 3.60576 0
M  V30 6331 O 597.312 -1.00194 4.00044 0
M  V30 6332 H 596.653 0.0851491 0.658518 0
M  V30 6333 H 599.183 0.868863 1.85235 0
M  V30 6334 H 599.193 -0.148517 4.0773 0
M  V30 6335 H 597.868 1.0031 4.03622 0
M  V30 6336 H 596.445 -0.786131 3.64519 0
M  V30 6337 N 598.631 -1.53133 0.372548 0
M  V30 6338 C 599.561 -2.28876 -0.462412 0
M  V30 6339 C 600.542 -1.31583 -1.07796 0
M  V30 6340 O 601.727 -1.60461 -1.09389 0
M  V30 6341 C 598.857 -3.08317 -1.59868 0
M  V30 6342 C 597.811 -4.13355 -1.11003 0
M  V30 6343 C 597.137 -4.8092 -2.33708 0
M  V30 6344 C 598.437 -5.21955 -0.18983 0
M  V30 6345 H 600.131 -2.9892 0.169511 0
M  V30 6346 H 597.677 -1.43761 0.0829658 0
M  V30 6347 H 599.63 -3.60055 -2.18949 0
M  V30 6348 H 598.354 -2.35976 -2.25794 0
M  V30 6349 H 597.013 -3.62573 -0.541869 0
M  V30 6350 H 596.661 -4.05144 -2.98106 0
M  V30 6351 H 596.361 -5.51904 -2.01682 0
M  V30 6352 H 597.885 -5.35455 -2.93462 0
M  V30 6353 H 599.299 -5.69153 -0.688319 0
M  V30 6354 H 597.696 -6.00087 0.0398887 0
M  V30 6355 H 598.766 -4.78811 0.766057 0
M  V30 6356 N 600.109 -0.101901 -1.5727 0
M  V30 6357 C 601.334 0.571759 -1.99363 0
M  V30 6358 C 601.759 1.60507 -0.980768 0
M  V30 6359 O 601.117 1.81231 0.0498517 0
M  V30 6360 C 601.165 1.18996 -3.404 0
M  V30 6361 O 600.269 2.30572 -3.41922 0
M  V30 6362 H 599.61 0.144449 -0.648098 0
M  V30 6363 H 602.14 -0.185325 -2.03759 0
M  V30 6364 H 602.15 1.52962 -3.78241 0
M  V30 6365 H 600.825 0.432984 -4.1364 0
M  V30 6366 H 599.402 1.98173 -3.15883 0
M  V30 6367 N 601.587 1.56661 0.17182 0
M  V30 6368 C 602.812 1.86459 0.908165 0
M  V30 6369 C 603.237 0.688181 1.75059 0
M  V30 6370 O 602.595 -0.362753 1.77634 0
M  V30 6371 C 602.643 3.14669 1.76112 0
M  V30 6372 O 601.747 2.96858 2.86268 0
M  V30 6373 H 601.088 0.613318 0.254434 0
M  V30 6374 H 603.618 2.03892 0.170113 0
M  V30 6375 H 603.628 3.46061 2.16115 0
M  V30 6376 H 602.303 3.99905 1.14233 0
M  V30 6377 H 600.88 2.76819 2.49852 0
M  V30 6378 N 603.065 -0.440357 1.51323 0
M  V30 6379 C 604.312 -1.19004 1.63842 0
M  V30 6380 C 604.64 -1.91266 0.35321 0
M  V30 6381 O 603.895 -1.84143 -0.662565 0
M  V30 6382 C 604.194 -2.2339 2.78984 0
M  V30 6383 C 603.86 -1.68162 4.18369 0
M  V30 6384 C 602.522 -1.52823 4.56288 0
M  V30 6385 C 604.874 -1.27524 5.05358 0
M  V30 6386 C 602.202 -0.953157 5.78906 0
M  V30 6387 C 604.554 -0.714474 6.28552 0
M  V30 6388 C 603.218 -0.547961 6.65247 0
M  V30 6389 H 602.488 -0.435468 0.59954 0
M  V30 6390 H 605.135 -0.481538 1.85347 0
M  V30 6391 H 603.44 -3.00267 2.51688 0
M  V30 6392 H 605.137 -2.81211 2.85869 0
M  V30 6393 H 601.727 -1.81077 3.8847 0
M  V30 6394 H 605.911 -1.38197 4.76671 0
M  V30 6395 H 601.167 -0.811882 6.05986 0
M  V30 6396 H 605.341 -0.391059 6.95301 0
M  V30 6397 H 602.968 -0.100222 7.60134 0
M  V30 6398 N 604.543 -1.41418 -0.695603 0
M  V30 6399 C 605.768 -1.44329 -1.48942 0
M  V30 6400 C 606.193 -0.0501579 -1.88033 0
M  V30 6401 O 605.551 0.946598 -1.54626 0
M  V30 6402 C 605.599 -2.3578 -2.72837 0
M  V30 6403 O 604.703 -1.81482 -3.70322 0
M  V30 6404 H 604.044 -0.489838 -0.44828 0
M  V30 6405 H 606.574 -1.85878 -0.855014 0
M  V30 6406 H 606.584 -2.51654 -3.21145 0
M  V30 6407 H 605.259 -3.37005 -2.43722 0
M  V30 6408 H 603.836 -1.75058 -3.29255 0
M  V30 6409 N 606.021 0.929856 -1.27246 0
M  V30 6410 C 607.267 1.6798 -1.13625 0
M  V30 6411 C 607.6 1.91586 0.317589 0
M  V30 6412 O 606.875 1.50467 1.23247 0
M  V30 6413 C 607.158 3.04766 -1.91806 0
M  V30 6414 C 607.011 2.88415 -3.45162 0
M  V30 6415 C 608.33 4.05063 -1.72082 0
M  V30 6416 H 605.449 0.609632 -0.414147 0
M  V30 6417 H 608.091 1.0792 -1.56376 0
M  V30 6418 H 606.241 3.56034 -1.55474 0
M  V30 6419 H 607.913 2.44282 -3.91311 0
M  V30 6420 H 606.156 2.23802 -3.71611 0
M  V30 6421 H 606.827 3.85482 -3.95105 0
M  V30 6422 H 609.303 3.62798 -2.03757 0
M  V30 6423 H 608.179 4.98765 -2.29182 0
M  V30 6424 H 608.44 4.37021 -0.668206 0
M  V30 6425 N 607.499 1.09233 1.13605 0
M  V30 6426 C 608.447 0.724572 2.21027 0
M  V30 6427 C 609.441 -0.273595 1.67176 0
M  V30 6428 O 610.647 -0.135266 1.79491 0
M  V30 6429 H 607.022 0.216319 0.720215 0
M  V30 6430 H 608.993 1.63975 2.49309 0
M  V30 6431 C 607.742 0.159126 3.47336 0
M  V30 6432 H 607.065 0.918387 3.89109 0
M  V30 6433 H 608.505 -0.0602851 4.23957 0
M  V30 6434 C 606.964 -1.10514 3.18258 0
M  V30 6435 O 607.494 -2.18869 3.36837 0
M  V30 6436 N 605.7 -1.01886 2.72154 0
M  V30 6437 H 605.247 -0.137027 2.57235 0
M  V30 6438 H 605.205 -1.8655 2.53074 0
M  V30 6439 N 608.977 -1.30795 0.87923 0
M  V30 6440 C 610.393 -1.48981 0.57243 0
M  V30 6441 C 610.593 -1.80719 -0.891236 0
M  V30 6442 O 609.649 -1.89136 -1.67283 0
M  V30 6443 C 610.962 -2.61721 1.48063 0
M  V30 6444 C 612.51 -2.75603 1.48365 0
M  V30 6445 C 612.985 -3.91449 2.37763 0
M  V30 6446 N 614.476 -3.98751 2.35695 0
M  V30 6447 C 615.211 -4.87684 3.01583 0
M  V30 6448 N 614.707 -5.81454 3.76674 0
M  V30 6449 N 616.5 -4.81005 2.90844 0
M  V30 6450 H 608.651 -1.08465 1.82617 0
M  V30 6451 H 610.914 -0.536813 0.781368 0
M  V30 6452 H 610.62 -2.45073 2.52254 0
M  V30 6453 H 610.494 -3.58071 1.18596 0
M  V30 6454 H 612.881 -2.9166 0.44927 0
M  V30 6455 H 612.962 -1.79891 1.81859 0
M  V30 6456 H 612.606 -3.76149 3.41283 0
M  V30 6457 H 612.536 -4.86487 2.01589 0
M  V30 6458 H 615.027 -3.31668 1.81121 0
M  V30 6459 H 615.34 -6.46063 4.24054 0
M  V30 6460 H 613.685 -5.81403 3.80782 0
M  V30 6461 H 616.876 -4.06728 2.31711 0
M  V30 6462 H 617.049 -5.50107 3.42471 0
M  V30 6463 N 610.455 -0.639598 -1.44038 0
M  V30 6464 C 611.866 -0.228866 -1.85292 0
M  V30 6465 C 612.217 1.22161 -1.53529 0
M  V30 6466 O 611.342 1.93064 -0.977518 0
M  V30 6467 C 611.937 -0.408592 -3.36327 0
M  V30 6468 C 610.496 -0.0522953 -3.76364 0
M  V30 6469 C 609.643 -0.717959 -2.67844 0
M  V30 6470 H 612.594 -0.844194 -1.34384 0
M  V30 6471 H 612.615 0.349968 -3.78887 0
M  V30 6472 H 612.127 -1.46435 -3.59414 0
M  V30 6473 H 610.228 1.0014 -3.58891 0
M  V30 6474 H 610.341 -0.468261 -4.76806 0
M  V30 6475 H 608.705 -0.152459 -2.54243 0
M  V30 6476 H 609.488 -1.77648 -2.93762 0
M  V30 6477 N 611.933 1.52934 -0.380664 0
M  V30 6478 C 613.18 2.01467 0.204278 0
M  V30 6479 C 613.508 1.26744 1.47533 0
M  V30 6480 O 612.763 0.353723 1.92477 0
M  V30 6481 C 613.062 3.5349 0.527199 0
M  V30 6482 C 612.728 4.46171 -0.651295 0
M  V30 6483 C 611.39 4.71227 -0.974619 0
M  V30 6484 C 613.742 5.00909 -1.44012 0
M  V30 6485 C 611.07 5.4827 -2.08847 0
M  V30 6486 C 613.422 5.7917 -2.5445 0
M  V30 6487 C 612.086 6.02507 -2.87301 0
M  V30 6488 H 611.356 0.73722 0.0747504 0
M  V30 6489 H 614.003 1.84411 -0.516234 0
M  V30 6490 H 612.308 3.68574 1.32892 0
M  V30 6491 H 614.005 3.88529 0.992283 0
M  V30 6492 H 610.595 4.26829 -0.389276 0
M  V30 6493 H 614.779 4.81485 -1.20357 0
M  V30 6494 H 610.035 5.64567 -2.34679 0
M  V30 6495 H 614.209 6.20588 -3.1598 0
M  V30 6496 H 611.836 6.61989 -3.7373 0
M  V30 6497 N 613.412 0.11024 1.57214 0
M  V30 6498 C 614.342 -0.840002 2.17867 0
M  V30 6499 C 615.323 -1.28352 1.11624 0
M  V30 6500 O 616.508 -1.3477 1.39824 0
M  V30 6501 C 613.638 -2.09349 2.77111 0
M  V30 6502 C 612.592 -1.78807 3.8886 0
M  V30 6503 C 611.918 -3.11112 4.34872 0
M  V30 6504 C 613.218 -1.0632 5.11364 0
M  V30 6505 H 614.912 -0.334608 2.97524 0
M  V30 6506 H 612.458 -0.159502 1.43114 0
M  V30 6507 H 614.411 -2.76275 3.18198 0
M  V30 6508 H 613.135 -2.62198 1.9473 0
M  V30 6509 H 611.794 -1.14273 3.48335 0
M  V30 6510 H 611.442 -3.61877 3.49362 0
M  V30 6511 H 611.142 -2.91453 5.10224 0
M  V30 6512 H 612.666 -3.79171 4.78604 0
M  V30 6513 H 614.08 -1.63383 5.49526 0
M  V30 6514 H 612.477 -0.967876 5.92243 0
M  V30 6515 H 613.547 -0.0484569 4.84876 0
M  V30 6516 N 614.89 -1.56749 -0.16351 0
M  V30 6517 C 616.137 -1.82434 -0.878866 0
M  V30 6518 C 616.465 -0.688557 -1.81904 0
M  V30 6519 O 615.72 0.323644 -1.93005 0
M  V30 6520 C 616.019 -3.14342 -1.70071 0
M  V30 6521 C 615.685 -4.41647 -0.908775 0
M  V30 6522 C 614.347 -4.76224 -0.690236 0
M  V30 6523 C 616.699 -5.19998 -0.353815 0
M  V30 6524 C 614.027 -5.86624 0.0942374 0
M  V30 6525 C 616.379 -6.3122 0.41761 0
M  V30 6526 C 615.043 -6.64358 0.646879 0
M  V30 6527 H 614.313 -0.667574 -0.3216 0
M  V30 6528 H 616.96 -1.90963 -0.14337 0
M  V30 6529 H 615.265 -3.0119 -2.50583 0
M  V30 6530 H 616.962 -3.31426 -2.25738 0
M  V30 6531 H 613.552 -4.1453 -1.08916 0
M  V30 6532 H 617.736 -4.93673 -0.509975 0
M  V30 6533 H 612.992 -6.10751 0.281529 0
M  V30 6534 H 617.166 -6.91133 0.854849 0
M  V30 6535 H 614.793 -7.49742 1.25662 0
M  V30 6536 N 616.368 0.432326 -1.51554 0
M  V30 6537 C 617.615 1.18134 -1.64471 0
M  V30 6538 C 617.943 1.91076 -0.363349 0
M  V30 6539 O 617.198 1.84492 0.65279 0
M  V30 6540 C 617.497 2.21907 -2.80164 0
M  V30 6541 C 617.163 1.65941 -4.19255 0
M  V30 6542 C 615.825 1.50401 -4.57092 0
M  V30 6543 C 618.177 1.24843 -5.06027 0
M  V30 6544 C 615.505 0.922443 -5.79403 0
M  V30 6545 C 617.857 0.68113 -6.28922 0
M  V30 6546 C 616.521 0.512673 -6.65528 0
M  V30 6547 H 615.791 0.432283 -0.601841 0
M  V30 6548 H 618.438 0.471701 -1.856 0
M  V30 6549 H 616.743 2.98928 -2.53277 0
M  V30 6550 H 618.44 2.79691 -2.87357 0
M  V30 6551 H 615.03 1.79014 -3.89425 0
M  V30 6552 H 619.214 1.35667 -4.77397 0
M  V30 6553 H 614.47 0.779733 -6.06408 0
M  V30 6554 H 618.644 0.35418 -6.95499 0
M  V30 6555 H 616.271 0.0599084 -7.60176 0
M  V30 6556 N 617.846 1.41785 0.688094 0
M  V30 6557 C 619.095 1.4084 1.44385 0
M  V30 6558 C 619.408 0.0234166 1.95586 0
M  V30 6559 O 620.614 -0.108647 2.71283 0
M  V30 6560 C 619.07 2.47675 2.61123 0
M  V30 6561 C 618.678 3.92116 2.16677 0
M  V30 6562 C 620.422 2.55877 3.38714 0
M  V30 6563 C 618.329 4.90487 3.30419 0
M  V30 6564 H 617.259 0.523787 0.542368 0
M  V30 6565 H 619.91 1.6764 0.74627 0
M  V30 6566 H 618.292 2.14018 3.33185 0
M  V30 6567 H 619.466 4.35059 1.51856 0
M  V30 6568 H 617.781 3.87642 1.5206 0
M  V30 6569 H 620.378 3.26553 4.234 0
M  V30 6570 H 620.721 1.59801 3.84408 0
M  V30 6571 H 621.254 2.88662 2.73714 0
M  V30 6572 H 617.993 5.87994 2.89729 0
M  V30 6573 H 617.513 4.52187 3.94065 0
M  V30 6574 H 619.192 5.11591 3.96085 0
M  V30 6575 N 619.324 -0.923095 1.27737 0
M  V30 6576 C 620.571 -1.67127 1.14345 0
M  V30 6577 C 620.899 -1.92017 -0.30982 0
M  V30 6578 O 620.154 -1.51185 -1.24264 0
M  V30 6579 C 620.453 -3.04125 1.8773 0
M  V30 6580 C 620.119 -2.98929 3.37568 0
M  V30 6581 C 618.781 -2.9722 3.78436 0
M  V30 6582 C 621.133 -2.89875 4.33154 0
M  V30 6583 C 618.461 -2.84244 5.13247 0
M  V30 6584 C 620.813 -2.7844 5.68026 0
M  V30 6585 C 619.477 -2.75083 6.08182 0
M  V30 6586 H 618.747 -0.611562 0.418417 0
M  V30 6587 H 621.394 -1.07618 1.584 0
M  V30 6588 H 619.699 -3.67366 1.36196 0
M  V30 6589 H 621.396 -3.609 1.74792 0
M  V30 6590 H 617.986 -3.0105 3.05069 0
M  V30 6591 H 622.17 -2.9029 4.02548 0
M  V30 6592 H 617.426 -2.80034 5.43499 0
M  V30 6593 H 621.6 -2.70401 6.4176 0
M  V30 6594 H 619.227 -2.64786 7.12596 0
M  V30 6595 N 620.802 -1.09834 -1.13024 0
M  V30 6596 C 621.712 -0.753731 -2.22162 0
M  V30 6597 C 622.728 0.246105 -1.72251 0
M  V30 6598 O 623.904 0.0864051 -2.01215 0
M  V30 6599 C 620.969 -0.183958 -3.46212 0
M  V30 6600 C 620.03 -1.24028 -4.10993 0
M  V30 6601 C 619.263 -0.697597 -5.29121 0
M  V30 6602 O 619.486 0.478092 -5.68393 0
M  V30 6603 O 618.42 -1.4546 -5.84059 0
M  V30 6604 H 622.246 -1.66456 -2.5402 0
M  V30 6605 H 619.831 -0.873026 -1.21238 0
M  V30 6606 H 621.713 0.130257 -4.21199 0
M  V30 6607 H 620.388 0.699823 -3.16045 0
M  V30 6608 H 619.295 -1.60725 -3.37814 0
M  V30 6609 H 620.628 -2.09685 -4.45301 0
M  V30 6610 N 622.28 1.30327 -0.886154 0
M  V30 6611 C 623.557 1.90922 -0.425217 0
M  V30 6612 C 623.937 1.80533 1.09413 0
M  V30 6613 O 623.285 1.2233 1.92996 0
M  V30 6614 C 623.495 3.36529 -0.924638 0
M  V30 6615 C 624.843 4.13598 -0.960305 0
M  V30 6616 O 625.867 3.45377 -0.871382 0
M  V30 6617 O 624.726 5.35482 -1.09184 0
M  V30 6618 H 621.82 0.81668 -0.130238 0
M  V30 6619 H 624.366 1.38886 -0.975132 0
M  V30 6620 H 623.138 3.38181 -1.96849 0
M  V30 6621 H 622.761 3.96021 -0.353955 0
M  V30 6622 N 623.758 0.647228 1.43697 0
M  V30 6623 C 624.986 0.16575 2.06235 0
M  V30 6624 C 625.401 -1.1662 1.48476 0
M  V30 6625 O 624.758 -1.7187 0.613762 0
M  V30 6626 C 624.809 0.0621651 3.61447 0
M  V30 6627 O 624.53 1.34146 4.17057 0
M  V30 6628 C 626.031 -0.446102 4.4105 0
M  V30 6629 H 623.251 0.0871158 0.665321 0
M  V30 6630 H 625.795 0.886183 1.84301 0
M  V30 6631 H 623.95 -0.608794 3.82587 0
M  V30 6632 H 624.364 1.19675 5.10664 0
M  V30 6633 H 625.838 -0.46755 5.50016 0
M  V30 6634 H 626.315 -1.47627 4.13646 0
M  V30 6635 H 626.921 0.192159 4.24866 0
M  V30 6636 N 625.236 -1.5273 0.388769 0
M  V30 6637 C 626.464 -2.05992 -0.193677 0
M  V30 6638 C 626.879 -1.26053 -1.40557 0
M  V30 6639 O 626.236 -0.307049 -1.79898 0
M  V30 6640 C 626.287 -3.57068 -0.564321 0
M  V30 6641 O 626.008 -4.3398 0.599422 0
M  V30 6642 C 627.509 -4.26674 -1.20269 0
M  V30 6643 H 624.729 -0.670358 -0.0293445 0
M  V30 6644 H 627.273 -1.96857 0.553844 0
M  V30 6645 H 625.428 -3.66277 -1.26174 0
M  V30 6646 H 625.842 -5.2367 0.294895 0
M  V30 6647 H 627.316 -5.33625 -1.4124 0
M  V30 6648 H 627.793 -3.81854 -2.16989 0
M  V30 6649 H 628.399 -4.2178 -0.546047 0
M  V30 6650 N 626.714 -0.118576 -1.57153 0
M  V30 6651 C 627.962 0.538461 -1.94795 0
M  V30 6652 C 628.283 1.67243 -1.00274 0
M  V30 6653 O 627.553 1.95811 -0.0589692 0
M  V30 6654 H 626.133 0.201904 -0.719197 0
M  V30 6655 H 628.795 -0.187418 -1.93997 0
M  V30 6656 H 627.891 0.933315 -2.97818 0
M  V30 6657 N 628.193 1.56834 0.155195 0
M  V30 6658 C 629.123 2.00678 1.19376 0
M  V30 6659 C 630.104 0.884973 1.45266 0
M  V30 6660 O 631.289 1.1522 1.56326 0
M  V30 6661 C 628.419 2.38042 2.5289 0
M  V30 6662 C 627.373 3.53332 2.41538 0
M  V30 6663 C 626.699 3.76485 3.79688 0
M  V30 6664 C 627.999 4.86265 1.9064 0
M  V30 6665 H 629.693 2.87688 0.829232 0
M  V30 6666 H 627.239 1.38407 0.397445 0
M  V30 6667 H 629.192 2.67314 3.25763 0
M  V30 6668 H 627.916 1.4796 2.91162 0
M  V30 6669 H 626.575 3.24213 1.71117 0
M  V30 6670 H 626.223 2.83667 4.15382 0
M  V30 6671 H 625.923 4.54068 3.72956 0
M  V30 6672 H 627.447 4.08174 4.54122 0
M  V30 6673 H 628.861 5.14308 2.53299 0
M  V30 6674 H 627.258 5.67597 1.94818 0
M  V30 6675 H 628.328 4.77184 0.861596 0
M  V30 6676 N 629.671 -0.424282 1.51781 0
M  V30 6677 C 631.082 -1.00368 1.57427 0
M  V30 6678 C 631.433 -1.91962 0.40558 0
M  V30 6679 O 630.558 -2.111 -0.47601 0
M  V30 6680 C 631.153 -1.82707 2.85313 0
M  V30 6681 C 629.712 -2.35675 2.93487 0
M  V30 6682 C 628.859 -1.1524 2.5222 0
M  V30 6683 H 631.81 -0.205064 1.5737 0
M  V30 6684 H 631.831 -2.68294 2.69812 0
M  V30 6685 H 631.343 -1.16017 3.70353 0
M  V30 6686 H 629.444 -3.05781 2.12906 0
M  V30 6687 H 629.557 -2.67578 3.97415 0
M  V30 6688 H 627.921 -1.50174 2.05718 0
M  V30 6689 H 628.704 -0.5014 3.39619 0
M  V30 6690 N 631.149 -1.42148 -0.680565 0
M  V30 6691 C 632.079 -1.4796 -1.80638 0
M  V30 6692 C 633.06 -0.336728 -1.66734 0
M  V30 6693 O 634.245 -0.550247 -1.86242 0
M  V30 6694 C 631.375 -1.37569 -3.18892 0
M  V30 6695 C 630.329 -2.49823 -3.47524 0
M  V30 6696 C 629.655 -2.24491 -4.85291 0
M  V30 6697 C 630.955 -3.92144 -3.44994 0
M  V30 6698 H 632.649 -2.42184 -1.76032 0
M  V30 6699 H 630.195 -1.16566 -0.845481 0
M  V30 6700 H 632.148 -1.40243 -3.97379 0
M  V30 6701 H 630.872 -0.398357 -3.24162 0
M  V30 6702 H 629.531 -2.46455 -2.71395 0
M  V30 6703 H 629.179 -1.25066 -4.87204 0
M  V30 6704 H 628.879 -2.99722 -5.05411 0
M  V30 6705 H 630.403 -2.28906 -5.66069 0
M  V30 6706 H 631.817 -3.97145 -4.13459 0
M  V30 6707 H 630.214 -4.67179 -3.76648 0
M  V30 6708 H 631.284 -4.19225 -2.43676 0
M  V30 6709 N 632.627 0.916307 -1.28225 0
M  V30 6710 C 633.874 1.66518 -1.1523 0
M  V30 6711 C 634.202 1.92178 0.299632 0
M  V30 6712 O 633.457 1.51842 1.2346 0
M  V30 6713 C 633.756 3.03125 -1.8934 0
M  V30 6714 C 633.422 2.97135 -3.39148 0
M  V30 6715 C 632.084 2.95208 -3.80007 0
M  V30 6716 C 634.436 2.87574 -4.34685 0
M  V30 6717 C 631.764 2.81518 -5.14747 0
M  V30 6718 C 634.116 2.75424 -5.69495 0
M  V30 6719 C 632.78 2.71854 -6.09632 0
M  V30 6720 H 632.05 0.609334 -0.421655 0
M  V30 6721 H 634.697 1.06776 -1.58969 0
M  V30 6722 H 633.002 3.66639 -1.38143 0
M  V30 6723 H 634.699 3.59968 -1.76704 0
M  V30 6724 H 631.289 2.99428 -3.06661 0
M  V30 6725 H 635.473 2.88152 -4.04082 0
M  V30 6726 H 630.729 2.77148 -5.44976 0
M  V30 6727 H 634.903 2.66993 -6.43185 0
M  V30 6728 H 632.53 2.61003 -7.1399 0
M  V30 6729 N 634.105 1.10431 1.1244 0
M  V30 6730 C 635.351 0.847972 1.84221 0
M  V30 6731 C 635.684 -0.624903 1.83871 0
M  V30 6732 O 634.959 -1.46074 1.28423 0
M  V30 6733 C 635.242 1.39695 3.319 0
M  V30 6734 C 635.095 2.93668 3.40704 0
M  V30 6735 C 636.414 1.03924 4.27654 0
M  V30 6736 H 633.533 0.309502 0.668863 0
M  V30 6737 H 636.175 1.36745 1.31912 0
M  V30 6738 H 634.325 0.955095 3.76577 0
M  V30 6739 H 635.997 3.46379 3.04662 0
M  V30 6740 H 634.24 3.30272 2.81252 0
M  V30 6741 H 634.911 3.27162 4.446 0
M  V30 6742 H 637.387 1.42049 3.91102 0
M  V30 6743 H 636.263 1.45027 5.29394 0
M  V30 6744 H 636.524 -0.051336 4.4207 0
M  V30 6745 N 635.583 -1.29855 0.893053 0
M  V30 6746 C 636.831 -1.9544 0.514566 0
M  V30 6747 C 637.152 -1.70795 -0.940959 0
M  V30 6748 O 636.422 -1.03601 -1.66264 0
M  V30 6749 H 635.002 -0.723137 0.187302 0
M  V30 6750 H 637.664 -1.58234 1.13789 0
M  V30 6751 H 636.76 -3.04341 0.691581 0
M  V30 6752 N 637.061 -0.65484 -1.43351 0
M  V30 6753 C 638.286 -0.175046 -2.0666 0
M  V30 6754 C 638.711 1.15104 -1.4877 0
M  V30 6755 O 638.069 1.71144 -0.598279 0
M  V30 6756 C 638.117 -0.0991544 -3.60464 0
M  V30 6757 O 637.221 0.938169 -4.01587 0
M  V30 6758 H 636.562 -0.0956148 -0.65708 0
M  V30 6759 H 639.092 -0.898222 -1.83829 0
M  V30 6760 H 639.102 0.083632 -4.07914 0
M  V30 6761 H 637.777 -1.06719 -4.01975 0
M  V30 6762 H 636.354 0.72804 -3.65724 0
M  V30 6763 N 638.539 1.52521 -0.396863 0
M  V30 6764 C 639.785 2.01971 0.183169 0
M  V30 6765 C 640.118 1.2825 1.45827 0
M  V30 6766 O 639.393 0.385179 1.90648 0
M  V30 6767 C 639.676 3.5736 0.443391 0
M  V30 6768 C 639.529 4.41743 -0.84753 0
M  V30 6769 C 640.848 4.22539 1.2308 0
M  V30 6770 H 637.967 0.734119 0.0650976 0
M  V30 6771 H 640.609 1.82519 -0.527918 0
M  V30 6772 H 638.759 3.74066 1.04914 0
M  V30 6773 H 640.431 4.36773 -1.48414 0
M  V30 6774 H 638.674 4.0845 -1.4612 0
M  V30 6775 H 639.345 5.48507 -0.620003 0
M  V30 6776 H 641.821 4.09857 0.718084 0
M  V30 6777 H 640.697 5.31227 1.38162 0
M  V30 6778 H 640.958 3.80675 2.24808 0
M  V30 6779 N 640.017 0.126909 1.57088 0
M  V30 6780 C 641.433 -0.229641 1.57939 0
M  V30 6781 C 641.633 -1.66145 1.1401 0
M  V30 6782 O 640.689 -2.3843 0.831119 0
M  V30 6783 C 642.002 0.0108648 3.00698 0
M  V30 6784 C 643.55 -0.054418 3.12953 0
M  V30 6785 C 644.025 0.158497 4.57726 0
M  V30 6786 N 645.516 0.104735 4.63082 0
M  V30 6787 C 646.251 0.24427 5.72879 0
M  V30 6788 N 645.747 0.440415 6.91399 0
M  V30 6789 N 647.54 0.183286 5.61801 0
M  V30 6790 H 639.691 1.06203 1.83942 0
M  V30 6791 H 641.954 0.418834 0.85046 0
M  V30 6792 H 641.66 1.00102 3.37154 0
M  V30 6793 H 641.534 -0.717512 3.70313 0
M  V30 6794 H 643.921 -1.0351 2.7635 0
M  V30 6795 H 644.002 0.705967 2.45865 0
M  V30 6796 H 643.646 1.13619 4.95028 0
M  V30 6797 H 643.576 -0.62197 5.22914 0
M  V30 6798 H 646.067 -0.0430298 3.77876 0
M  V30 6799 H 646.38 0.537536 7.70928 0
M  V30 6800 H 644.725 0.476488 6.93365 0
M  V30 6801 H 647.916 0.0309561 4.6809 0
M  V30 6802 H 648.089 0.295471 6.47326 0
M  V30 6803 N 641.495 -1.56914 -0.146875 0
M  V30 6804 C 642.443 -1.99224 -1.20053 0
M  V30 6805 C 643.437 -0.884661 -1.44465 0
M  V30 6806 O 644.643 -1.06984 -1.44756 0
M  V30 6807 H 641.018 -0.634191 -0.404112 0
M  V30 6808 H 642.989 -2.86998 -0.816987 0
M  V30 6809 C 641.738 -2.38899 -2.52632 0
M  V30 6810 H 641.061 -3.23677 -2.34677 0
M  V30 6811 H 642.501 -2.72326 -3.24984 0
M  V30 6812 C 640.96 -1.2417 -3.13183 0
M  V30 6813 O 641.49 -0.542503 -3.9802 0
M  V30 6814 N 639.696 -1.00592 -2.72635 0
M  V30 6815 H 639.243 -1.57627 -2.03744 0
M  V30 6816 H 639.201 -0.240174 -3.13481 0
M  V30 6817 N 642.974 0.416227 -1.52004 0
M  V30 6818 C 644.385 0.995319 -1.57957 0
M  V30 6819 C 644.736 1.91744 -0.415754 0
M  V30 6820 O 643.861 2.11349 0.464808 0
M  V30 6821 C 644.456 1.81191 -2.86278 0
M  V30 6822 C 643.015 2.34115 -2.94732 0
M  V30 6823 C 642.162 1.139 -2.52828 0
M  V30 6824 H 645.113 0.196716 -1.57476 0
M  V30 6825 H 645.134 2.66859 -2.71231 0
M  V30 6826 H 644.646 1.14051 -3.70963 0
M  V30 6827 H 642.747 3.04647 -2.14525 0
M  V30 6828 H 642.86 2.65466 -3.98829 0
M  V30 6829 H 641.224 1.49081 -2.06511 0
M  V30 6830 H 642.007 0.483383 -3.3988 0
M  V30 6831 N 644.452 1.42507 0.673017 0
M  V30 6832 C 645.4 1.46362 1.80779 0
M  V30 6833 C 646.394 0.339166 1.6597 0
M  V30 6834 O 647.6 0.512262 1.72557 0
M  V30 6835 H 643.975 0.458433 0.596107 0
M  V30 6836 H 645.946 2.41953 1.74646 0
M  V30 6837 C 644.695 1.38462 3.18941 0
M  V30 6838 H 644.018 2.24283 3.30964 0
M  V30 6839 H 645.458 1.45221 3.98355 0
M  V30 6840 C 643.917 0.0996354 3.36753 0
M  V30 6841 O 644.447 -0.846894 3.92671 0
M  V30 6842 N 642.653 0.016211 2.90595 0
M  V30 6843 H 642.2 0.78725 2.45276 0
M  V30 6844 H 642.158 -0.84291 3.0289 0
M  V30 6845 N 645.93 -0.909495 1.28709 0
M  V30 6846 C 647.341 -1.47419 1.14563 0
M  V30 6847 C 647.692 -1.94432 -0.262832 0
M  V30 6848 O 646.817 -1.82842 -1.15748 0
M  V30 6849 C 647.412 -2.67933 2.07358 0
M  V30 6850 C 645.971 -3.20568 1.97264 0
M  V30 6851 C 645.118 -1.93269 1.98852 0
M  V30 6852 H 648.069 -0.721787 1.41336 0
M  V30 6853 H 648.09 -3.43339 1.64007 0
M  V30 6854 H 647.602 -2.33685 3.09859 0
M  V30 6855 H 645.703 -3.59531 0.978157 0
M  V30 6856 H 645.816 -3.85529 2.84436 0
M  V30 6857 H 644.18 -2.10553 1.43317 0
M  V30 6858 H 644.963 -1.61312 3.0304 0
M  V30 6859 N 647.408 -1.11026 -1.11852 0
M  V30 6860 C 648.633 -0.879064 -1.87849 0
M  V30 6861 C 649.058 0.565406 -1.79401 0
M  V30 6862 O 648.416 1.39886 -1.15333 0
M  V30 6863 C 648.464 -1.33985 -3.34784 0
M  V30 6864 O 647.568 -0.508803 -4.09249 0
M  V30 6865 H 646.909 -0.316992 -0.583448 0
M  V30 6866 H 649.439 -1.47863 -1.41413 0
M  V30 6867 H 649.449 -1.33248 -3.85628 0
M  V30 6868 H 648.124 -2.39172 -3.40249 0
M  V30 6869 H 646.701 -0.581913 -3.68332 0
M  V30 6870 N 648.886 1.2938 -0.899927 0
M  V30 6871 C 649.849 2.25983 -0.382677 0
M  V30 6872 C 650.849 1.53366 0.483259 0
M  V30 6873 O 652.039 1.71798 0.28828 0
M  V30 6874 C 649.171 3.37878 0.452915 0
M  V30 6875 H 650.364 2.73252 -1.23586 0
M  V30 6876 H 647.917 1.40825 -0.678088 0
M  V30 6877 H 648.652 2.95949 1.32608 0
M  V30 6878 H 648.437 3.91742 -0.167562 0
M  V30 6879 H 649.927 4.09746 0.806107 0
M  V30 6880 N 650.364 0.662433 1.43002 0
M  V30 6881 C 651.775 0.258315 1.84904 0
M  V30 6882 C 652.126 -1.19703 1.55453 0
M  V30 6883 O 651.251 -1.91484 1.00811 0
M  V30 6884 C 651.846 0.462047 3.35635 0
M  V30 6885 C 650.405 0.112165 3.76233 0
M  V30 6886 C 649.552 0.760479 2.66668 0
M  V30 6887 H 652.503 0.865467 1.33024 0
M  V30 6888 H 652.524 -0.289646 3.79396 0
M  V30 6889 H 652.036 1.52135 3.57039 0
M  V30 6890 H 650.137 -0.944179 3.60439 0
M  V30 6891 H 650.25 0.544058 4.76001 0
M  V30 6892 H 648.614 0.192887 2.53969 0
M  V30 6893 H 649.397 1.82299 2.90898 0
M  V30 6894 N 651.842 -1.52309 0.404946 0
M  V30 6895 C 653.258 -1.59503 0.0556255 0
M  V30 6896 C 653.458 -1.41805 -1.43156 0
M  V30 6897 O 652.514 -1.2429 -2.19792 0
M  V30 6898 C 653.827 -2.95687 0.546801 0
M  V30 6899 C 655.375 -3.08909 0.504413 0
M  V30 6900 C 655.85 -4.47566 0.97203 0
M  V30 6901 N 657.341 -4.53795 0.928679 0
M  V30 6902 C 658.076 -5.59346 1.26174 0
M  V30 6903 N 657.572 -6.72469 1.66604 0
M  V30 6904 N 659.365 -5.49532 1.18198 0
M  V30 6905 H 651.516 -1.6206 1.37296 0
M  V30 6906 H 653.779 -0.762161 0.563751 0
M  V30 6907 H 653.485 -3.13905 1.58609 0
M  V30 6908 H 653.359 -3.77172 -0.0457905 0
M  V30 6909 H 655.746 -2.90378 -0.525819 0
M  V30 6910 H 655.827 -2.2934 1.13301 0
M  V30 6911 H 655.471 -4.6684 2.00057 0
M  V30 6912 H 655.401 -5.25625 0.320292 0
M  V30 6913 H 657.892 -3.72588 0.631369 0
M  V30 6914 H 658.205 -7.48993 1.9034 0
M  V30 6915 H 656.55 -6.73761 1.70504 0
M  V30 6916 H 659.741 -4.60038 0.865011 0
M  V30 6917 H 659.914 -6.31687 1.44485 0
M  V30 6918 N 653.32 -0.135238 -1.57019 0
M  V30 6919 C 654.23 0.822226 -2.19719 0
M  V30 6920 C 655.246 1.28057 -1.17802 0
M  V30 6921 O 656.422 1.3402 -1.50335 0
M  V30 6922 C 653.487 2.0484 -2.79717 0
M  V30 6923 C 652.548 1.64042 -3.96723 0
M  V30 6924 C 651.781 2.80814 -4.53849 0
M  V30 6925 O 652.004 3.967 -4.0986 0
M  V30 6926 O 650.938 2.56963 -5.44292 0
M  V30 6927 H 654.764 0.318552 -3.02025 0
M  V30 6928 H 652.349 0.0912021 -1.49121 0
M  V30 6929 H 654.231 2.76622 -3.17897 0
M  V30 6930 H 652.906 2.54182 -2.00432 0
M  V30 6931 H 651.813 0.893182 -3.63281 0
M  V30 6932 H 653.146 1.19426 -4.77492 0
M  V30 6933 N 654.798 1.5699 0.138552 0
M  V30 6934 C 655.728 2.01933 1.17241 0
M  V30 6935 C 656.709 0.90033 1.44319 0
M  V30 6936 O 657.894 1.16872 1.55095 0
M  V30 6937 C 655.024 2.40711 2.50351 0
M  V30 6938 C 653.978 3.55874 2.37776 0
M  V30 6939 C 653.304 3.80491 3.75674 0
M  V30 6940 C 654.604 4.8826 1.85472 0
M  V30 6941 H 656.298 2.88551 0.798672 0
M  V30 6942 H 653.844 1.3882 0.382743 0
M  V30 6943 H 655.797 2.70754 3.22909 0
M  V30 6944 H 654.521 1.5104 2.89576 0
M  V30 6945 H 653.18 3.2601 1.67669 0
M  V30 6946 H 652.828 2.88057 4.12349 0
M  V30 6947 H 652.528 4.57998 3.68119 0
M  V30 6948 H 654.052 4.12967 4.49767 0
M  V30 6949 H 655.466 5.16965 2.4783 0
M  V30 6950 H 653.863 5.69631 1.88787 0
M  V30 6951 H 654.933 4.78071 0.810935 0
M  V30 6952 N 656.276 -0.40816 1.52223 0
M  V30 6953 C 657.223 -1.49737 1.75635 0
M  V30 6954 C 658.193 -1.5493 0.598824 0
M  V30 6955 O 659.378 -1.71487 0.83648 0
M  V30 6956 C 656.518 -2.87174 1.91376 0
M  V30 6957 C 655.631 -2.91283 3.19027 0
M  V30 6958 C 654.766 -4.20026 3.25195 0
M  V30 6959 C 653.805 -4.18113 4.47044 0
M  V30 6960 N 652.942 -5.38429 4.50598 0
M  V30 6961 H 657.782 -1.29075 2.68596 0
M  V30 6962 H 655.319 -0.626518 1.33091 0
M  V30 6963 H 657.277 -3.66959 1.98486 0
M  V30 6964 H 655.907 -3.06329 1.01795 0
M  V30 6965 H 654.959 -2.03984 3.21084 0
M  V30 6966 H 656.271 -2.85734 4.08849 0
M  V30 6967 H 655.425 -5.08204 3.31382 0
M  V30 6968 H 654.164 -4.28271 2.33313 0
M  V30 6969 H 653.169 -3.28325 4.41002 0
M  V30 6970 H 654.394 -4.11507 5.40221 0
M  V30 6971 H 652.34 -5.4734 3.616 0
M  V30 6972 H 652.257 -5.34879 5.34266 0
M  V30 6973 H 653.525 -6.28557 4.61016 0
M  V30 6974 N 657.755 -1.42862 -0.66545 0
M  V30 6975 C 658.665 -1.49491 -1.80803 0
M  V30 6976 C 659.681 -0.382914 -1.69734 0
M  V30 6977 O 660.857 -0.635223 -1.9112 0
M  V30 6978 C 657.922 -1.40383 -3.17007 0
M  V30 6979 C 656.983 -2.62152 -3.39963 0
M  V30 6980 C 656.216 -2.53469 -4.69669 0
M  V30 6981 O 656.439 -1.57568 -5.48205 0
M  V30 6982 O 655.373 -3.43763 -4.94075 0
M  V30 6983 H 659.199 -2.45949 -1.78165 0
M  V30 6984 H 656.784 -1.24728 -0.822387 0
M  V30 6985 H 658.666 -1.377 -3.98267 0
M  V30 6986 H 657.341 -0.470546 -3.20262 0
M  V30 6987 H 656.248 -2.70409 -2.58515 0
M  V30 6988 H 657.581 -3.54411 -3.41546 0
M  V30 6989 N 659.233 0.902656 -1.29189 0
M  V30 6990 C 660.165 2.01149 -1.09872 0
M  V30 6991 C 661.178 1.62732 -0.0471046 0
M  V30 6992 O 662.367 1.76107 -0.29132 0
M  V30 6993 C 659.467 3.32612 -0.649818 0
M  V30 6994 C 658.64 3.99574 -1.7793 0
M  V30 6995 C 657.699 5.09325 -1.32191 0
M  V30 6996 O 656.725 5.31919 -2.02611 0
M  V30 6997 N 657.927 5.80185 -0.191171 0
M  V30 6998 H 660.692 2.18276 -2.05368 0
M  V30 6999 H 658.253 1.07466 -1.2109 0
M  V30 7000 H 660.245 4.03375 -0.327199 0
M  V30 7001 H 658.815 3.11876 0.212597 0
M  V30 7002 H 658.035 3.22213 -2.27095 0
M  V30 7003 H 659.323 4.41056 -2.53668 0
M  V30 7004 H 658.721 5.64312 0.396016 0
M  V30 7005 H 657.278 6.5176 0.0721001 0
M  V30 7006 N 660.711 1.11618 1.11262 0
M  V30 7007 C 661.643 0.734015 2.17129 0
M  V30 7008 C 662.656 -0.235243 1.61091 0
M  V30 7009 O 663.845 -0.0178597 1.78491 0
M  V30 7010 C 660.945 0.0643682 3.38839 0
M  V30 7011 C 660.118 1.06092 4.24339 0
M  V30 7012 C 659.177 0.420482 5.24517 0
M  V30 7013 O 658.203 1.07495 5.58957 0
M  V30 7014 N 659.405 -0.815828 5.74739 0
M  V30 7015 H 662.17 1.64492 2.50524 0
M  V30 7016 H 659.731 1.00664 1.26801 0
M  V30 7017 H 661.723 -0.375851 4.02951 0
M  V30 7018 H 660.293 -0.749147 3.03491 0
M  V30 7019 H 659.513 1.67903 3.56654 0
M  V30 7020 H 660.801 1.73507 4.78302 0
M  V30 7021 H 660.199 -1.36668 5.48943 0
M  V30 7022 H 658.756 -1.199 6.40677 0
M  V30 7023 N 662.189 -1.289 0.906776 0
M  V30 7024 C 663.466 -1.90221 0.455537 0
M  V30 7025 C 663.846 -1.82251 -1.06527 0
M  V30 7026 O 663.194 -1.25385 -1.91026 0
M  V30 7027 C 663.404 -3.35015 0.97806 0
M  V30 7028 C 664.752 -4.12018 1.02598 0
M  V30 7029 O 665.776 -3.43947 0.926218 0
M  V30 7030 O 664.635 -5.33677 1.17689 0
M  V30 7031 H 661.729 -0.814505 0.143214 0
M  V30 7032 H 664.275 -1.37317 0.997104 0
M  V30 7033 H 663.047 -3.35006 2.02204 0
M  V30 7034 H 662.67 -3.95408 0.416914 0
M  V30 7035 N 663.667 -0.670007 -1.42649 0
M  V30 7036 C 664.892 -0.196955 -2.06463 0
M  V30 7037 C 665.317 1.1352 -1.49983 0
M  V30 7038 O 664.675 1.705 -0.616397 0
M  V30 7039 C 664.723 -0.137381 -3.60338 0
M  V30 7040 O 663.827 0.895523 -4.02559 0
M  V30 7041 H 663.168 -0.102579 -0.656029 0
M  V30 7042 H 665.698 -0.917669 -1.82866 0
M  V30 7043 H 665.708 0.0403625 -4.0798 0
M  V30 7044 H 664.383 -1.10977 -4.0082 0
M  V30 7045 H 662.96 0.689209 -3.66476 0
M  V30 7046 N 665.145 1.52092 -0.413018 0
M  V30 7047 C 666.556 1.86617 0.0556967 0
M  V30 7048 C 666.907 1.33156 1.44097 0
M  V30 7049 O 666.032 0.672417 2.05688 0
M  V30 7050 C 666.627 3.38628 0.107844 0
M  V30 7051 C 665.186 3.72778 0.520904 0
M  V30 7052 C 664.333 2.75649 -0.302109 0
M  V30 7053 H 667.284 1.45663 -0.629919 0
M  V30 7054 H 667.305 3.69152 0.922324 0
M  V30 7055 H 666.817 3.77508 -0.900506 0
M  V30 7056 H 664.918 3.39478 1.53575 0
M  V30 7057 H 665.031 4.7838 0.262591 0
M  V30 7058 H 663.395 2.53603 0.236115 0
M  V30 7059 H 664.178 3.17369 -1.30888 0
M  V30 7060 N 666.623 0.143563 1.56945 0
M  V30 7061 C 667.871 -0.507402 1.95627 0
M  V30 7062 C 668.192 -1.65626 1.02922 0
M  V30 7063 O 667.462 -1.95693 0.0901136 0
M  V30 7064 H 666.042 -0.190436 0.722318 0
M  V30 7065 H 668.704 0.218257 1.93674 0
M  V30 7066 H 667.8 -0.885816 2.99265 0
M  V30 7067 N 668.101 -1.57061 -0.130224 0
M  V30 7068 C 669.049 -2.00486 -1.17933 0
M  V30 7069 C 670.043 -0.899933 -1.43519 0
M  V30 7070 O 671.249 -1.08514 -1.43613 0
M  V30 7071 H 667.624 -0.638441 -0.397363 0
M  V30 7072 H 669.595 -2.87848 -0.786501 0
M  V30 7073 C 668.344 -2.41565 -2.50084 0
M  V30 7074 H 667.667 -3.26148 -2.31231 0
M  V30 7075 H 669.107 -2.75757 -3.22078 0
M  V30 7076 C 667.566 -1.27485 -3.11848 0
M  V30 7077 O 668.096 -0.584688 -3.97422 0
M  V30 7078 N 666.302 -1.03478 -2.71552 0
M  V30 7079 H 665.849 -1.59779 -2.02061 0
M  V30 7080 H 665.807 -0.27341 -3.13209 0
M  V30 7081 N 669.579 0.400081 -1.52437 0
M  V30 7082 C 670.526 1.48803 -1.76426 0
M  V30 7083 C 671.496 1.5461 -0.607032 0
M  V30 7084 O 672.681 1.71041 -0.845563 0
M  V30 7085 C 669.821 2.86156 -1.92896 0
M  V30 7086 C 668.934 2.89587 -3.20567 0
M  V30 7087 C 668.069 4.18296 -3.27417 0
M  V30 7088 C 667.108 4.15736 -4.49255 0
M  V30 7089 N 666.245 5.36032 -4.53447 0
M  V30 7090 H 671.085 1.27649 -2.69276 0
M  V30 7091 H 668.622 0.619451 -1.33421 0
M  V30 7092 H 670.58 3.65901 -2.00429 0
M  V30 7093 H 669.21 3.05785 -1.03418 0
M  V30 7094 H 668.262 2.02278 -3.22161 0
M  V30 7095 H 669.574 2.83562 -4.10358 0
M  V30 7096 H 668.728 5.06439 -3.34072 0
M  V30 7097 H 667.467 4.27028 -2.35581 0
M  V30 7098 H 666.472 3.25982 -4.42737 0
M  V30 7099 H 667.697 4.08636 -5.42396 0
M  V30 7100 H 665.643 5.45415 -3.64498 0
M  V30 7101 H 665.56 5.32038 -5.37096 0
M  V30 7102 H 666.828 6.26104 -4.64343 0
M  V30 7103 N 671.057 1.43213 0.657864 0
M  V30 7104 C 672.334 1.35063 1.41483 0
M  V30 7105 C 672.714 -0.0038314 2.111 0
M  V30 7106 O 672.062 -1.02018 2.04462 0
M  V30 7107 C 672.272 2.53061 2.40335 0
M  V30 7108 C 673.62 2.9594 3.04474 0
M  V30 7109 O 674.644 2.53074 2.50663 0
M  V30 7110 O 673.503 3.70184 4.02027 0
M  V30 7111 H 670.597 0.533517 0.631893 0
M  V30 7112 H 673.143 1.55253 0.685162 0
M  V30 7113 H 671.915 3.43283 1.87809 0
M  V30 7114 H 671.538 2.34945 3.20759 0
M  V30 7115 N 672.536 -0.895792 1.29666 0
M  V30 7116 C 673.783 -1.64664 1.17864 0
M  V30 7117 C 674.111 -1.92631 -0.26902 0
M  V30 7118 O 673.366 -1.53787 -1.21029 0
M  V30 7119 C 673.665 -3.00075 1.94139 0
M  V30 7120 C 673.331 -2.91702 3.43833 0
M  V30 7121 C 671.993 -2.89126 3.84656 0
M  V30 7122 C 674.345 -2.80622 4.39205 0
M  V30 7123 C 671.673 -2.73293 5.1916 0
M  V30 7124 C 674.025 -2.66329 5.73805 0
M  V30 7125 C 672.689 -2.62121 6.1388 0
M  V30 7126 H 671.959 -0.602549 0.431295 0
M  V30 7127 H 674.606 -1.04234 1.60648 0
M  V30 7128 H 672.911 -3.64394 1.43958 0
M  V30 7129 H 674.608 -3.57111 1.82408 0
M  V30 7130 H 671.198 -2.94511 3.11386 0
M  V30 7131 H 675.382 -2.81686 4.08615 0
M  V30 7132 H 670.638 -2.68443 5.49316 0
M  V30 7133 H 674.812 -2.56727 6.47352 0
M  V30 7134 H 672.439 -2.49611 7.18052 0
M  V30 7135 N 674.014 -1.12206 -1.10668 0
M  V30 7136 C 674.944 -0.810086 -2.18997 0
M  V30 7137 C 675.925 0.225065 -1.68604 0
M  V30 7138 O 677.11 0.086783 -1.94006 0
M  V30 7139 C 674.24 -0.261262 -3.46316 0
M  V30 7140 C 673.194 -1.2292 -4.09969 0
M  V30 7141 C 672.52 -0.540713 -5.31959 0
M  V30 7142 C 673.82 -2.58295 -4.53962 0
M  V30 7143 H 675.514 -1.7159 -2.45352 0
M  V30 7144 H 673.06 -0.82646 -1.17922 0
M  V30 7145 H 675.013 -0.0307522 -4.21389 0
M  V30 7146 H 673.737 0.679879 -3.19445 0
M  V30 7147 H 672.396 -1.44548 -3.369 0
M  V30 7148 H 672.044 0.405492 -5.01363 0
M  V30 7149 H 671.744 -1.18637 -5.75499 0
M  V30 7150 H 673.268 -0.319184 -6.09765 0
M  V30 7151 H 674.682 -2.40709 -5.20319 0
M  V30 7152 H 673.079 -3.18916 -5.08343 0
M  V30 7153 H 674.149 -3.16918 -3.67002 0
M  V30 7154 N 675.492 1.28418 -0.913599 0
M  V30 7155 C 676.424 2.26368 -0.359169 0
M  V30 7156 C 677.437 1.54858 0.502285 0
M  V30 7157 O 678.626 1.75659 0.31719 0
M  V30 7158 C 675.726 3.35112 0.50526 0
M  V30 7159 C 674.899 4.36126 -0.333648 0
M  V30 7160 C 673.958 5.24134 0.465845 0
M  V30 7161 O 672.984 5.6907 -0.121538 0
M  V30 7162 N 674.186 5.52892 1.76891 0
M  V30 7163 H 676.951 2.74579 -1.2011 0
M  V30 7164 H 674.512 1.41898 -0.779532 0
M  V30 7165 H 676.504 3.90926 1.04684 0
M  V30 7166 H 675.074 2.86611 1.2479 0
M  V30 7167 H 674.294 3.79776 -1.0566 0
M  V30 7168 H 675.582 5.00638 -0.907669 0
M  V30 7169 H 674.98 5.18217 2.26865 0
M  V30 7170 H 673.537 6.11464 2.25732 0
M  V30 7171 N 676.97 0.677563 1.42291 0
M  V30 7172 C 678.195 0.207901 2.06355 0
M  V30 7173 C 678.62 -1.12723 1.50583 0
M  V30 7174 O 677.978 -1.70171 0.62543 0
M  V30 7175 C 678.026 0.156489 3.6026 0
M  V30 7176 O 677.13 -0.874162 4.03029 0
M  V30 7177 H 676.471 0.106056 0.655475 0
M  V30 7178 H 679.001 0.927354 1.82377 0
M  V30 7179 H 679.011 -0.0187258 4.07996 0
M  V30 7180 H 677.686 1.13101 4.00226 0
M  V30 7181 H 676.263 -0.669764 3.66836 0
M  V30 7182 N 678.448 -1.51871 0.421078 0
M  V30 7183 C 679.378 -2.30231 -0.389363 0
M  V30 7184 C 680.359 -1.34946 -1.03555 0
M  V30 7185 O 681.544 -1.63859 -1.04229 0
M  V30 7186 C 678.674 -3.13247 -1.49979 0
M  V30 7187 C 677.628 -4.16677 -0.977966 0
M  V30 7188 C 676.954 -4.88112 -2.1829 0
M  V30 7189 C 678.254 -5.22295 -0.0236775 0
M  V30 7190 H 679.948 -2.98229 0.264524 0
M  V30 7191 H 677.494 -1.43424 0.12866 0
M  V30 7192 H 679.447 -3.66838 -2.07383 0
M  V30 7193 H 678.171 -2.4304 -2.18173 0
M  V30 7194 H 676.83 -3.64114 -0.426245 0
M  V30 7195 H 676.478 -4.14423 -2.85066 0
M  V30 7196 H 676.178 -5.58041 -1.84021 0
M  V30 7197 H 677.702 -5.44521 -2.76278 0
M  V30 7198 H 679.116 -5.71055 -0.506899 0
M  V30 7199 H 677.513 -5.99656 0.230782 0
M  V30 7200 H 678.583 -4.76131 0.917999 0
M  V30 7201 N 679.926 -0.151884 -1.56866 0
M  V30 7202 C 680.873 0.785936 -2.17006 0
M  V30 7203 C 681.843 1.2407 -1.10435 0
M  V30 7204 O 683.028 1.31235 -1.38499 0
M  V30 7205 C 680.168 2.01771 -2.79969 0
M  V30 7206 C 679.281 1.6083 -4.00946 0
M  V30 7207 C 678.416 2.79224 -4.51893 0
M  V30 7208 C 677.455 2.3468 -5.65324 0
M  V30 7209 N 676.592 3.461 -6.10867 0
M  V30 7210 H 681.432 0.266286 -2.96808 0
M  V30 7211 H 678.969 0.11972 -1.46612 0
M  V30 7212 H 680.927 2.73989 -3.14621 0
M  V30 7213 H 679.557 2.51139 -2.02803 0
M  V30 7214 H 678.609 0.783592 -3.72242 0
M  V30 7215 H 679.921 1.24119 -4.83111 0
M  V30 7216 H 679.075 3.59625 -4.88625 0
M  V30 7217 H 677.814 3.19183 -3.68746 0
M  V30 7218 H 676.819 1.52721 -5.28163 0
M  V30 7219 H 678.044 1.95801 -6.5026 0
M  V30 7220 H 675.99 3.85671 -5.30654 0
M  V30 7221 H 675.907 3.1342 -6.87971 0
M  V30 7222 H 677.175 4.26844 -6.52246 0
M  V30 7223 N 681.404 1.57128 0.121893 0
M  V30 7224 C 682.652 1.84335 0.828548 0
M  V30 7225 C 682.973 0.736632 1.80551 0
M  V30 7226 O 682.243 -0.23962 1.94429 0
M  V30 7227 H 680.823 0.680108 0.30897 0
M  V30 7228 H 683.485 1.9459 0.109906 0
M  V30 7229 H 682.581 2.80152 1.37554 0
M  V30 7230 N 682.882 -0.391992 1.52647 0
M  V30 7231 C 684.129 -1.13732 1.67545 0
M  V30 7232 C 684.457 -1.90045 0.413881 0
M  V30 7233 O 683.712 -1.86157 -0.603646 0
M  V30 7234 C 684.011 -2.14401 2.85949 0
M  V30 7235 C 683.677 -1.54767 4.23507 0
M  V30 7236 C 682.339 -1.38229 4.60919 0
M  V30 7237 C 684.691 -1.11382 5.0916 0
M  V30 7238 C 682.019 -0.7685 5.81645 0
M  V30 7239 C 684.371 -0.514143 6.30507 0
M  V30 7240 C 683.035 -0.33604 6.66654 0
M  V30 7241 H 682.305 -0.416174 0.613091 0
M  V30 7242 H 684.952 -0.422327 1.86785 0
M  V30 7243 H 683.257 -2.92108 2.61114 0
M  V30 7244 H 684.954 -2.71974 2.94671 0
M  V30 7245 H 681.544 -1.68626 3.94035 0
M  V30 7246 H 685.728 -1.22962 4.80826 0
M  V30 7247 H 680.984 -0.618681 6.08262 0
M  V30 7248 H 685.158 -0.169657 6.96193 0
M  V30 7249 H 682.785 0.14166 7.60068 0
M  V30 7250 N 684.36 -1.4356 -0.65026 0
M  V30 7251 C 685.771 -1.40324 -1.2315 0
M  V30 7252 C 686.122 -0.108812 -1.95898 0
M  V30 7253 O 685.247 0.79163 -2.01401 0
M  V30 7254 C 685.842 -2.54195 -2.23987 0
M  V30 7255 C 684.401 -2.54215 -2.77582 0
M  V30 7256 C 683.548 -2.31752 -1.5227 0
M  V30 7257 H 686.499 -1.52418 -0.442095 0
M  V30 7258 H 686.52 -2.25854 -3.0622 0
M  V30 7259 H 686.032 -3.48392 -1.71011 0
M  V30 7260 H 684.133 -1.63907 -3.34612 0
M  V30 7261 H 684.246 -3.52081 -3.24925 0
M  V30 7262 H 682.61 -1.80476 -1.79723 0
M  V30 7263 H 683.393 -3.28037 -1.01225 0
M  V30 7264 N 685.838 0.888903 -1.30139 0
M  V30 7265 C 687.254 1.17153 -1.08385 0
M  V30 7266 C 687.454 2.0088 0.157925 0
M  V30 7267 O 686.51 2.37668 0.852652 0
M  V30 7268 C 687.823 1.882 -2.34523 0
M  V30 7269 C 689.371 2.00981 -2.39949 0
M  V30 7270 C 689.846 2.75441 -3.65918 0
M  V30 7271 N 691.337 2.82989 -3.66704 0
M  V30 7272 C 692.072 3.41167 -4.60861 0
M  V30 7273 N 691.568 4.00425 -5.6536 0
M  V30 7274 N 693.361 3.38944 -4.48412 0
M  V30 7275 H 685.512 0.33053 -2.09812 0
M  V30 7276 H 687.775 0.208964 -0.924683 0
M  V30 7277 H 687.481 1.34119 -3.25123 0
M  V30 7278 H 687.355 2.88609 -2.42868 0
M  V30 7279 H 689.742 2.54234 -1.4983 0
M  V30 7280 H 689.823 0.996725 -2.35582 0
M  V30 7281 H 689.467 2.22861 -4.56394 0
M  V30 7282 H 689.397 3.77118 -3.67546 0
M  V30 7283 H 691.888 2.40912 -2.91153 0
M  V30 7284 H 692.201 4.42871 -6.33313 0
M  V30 7285 H 690.546 3.98856 -5.69157 0
M  V30 7286 H 693.737 2.91875 -3.6596 0
M  V30 7287 H 693.91 3.83989 -5.21974 0
M  V30 7288 N 687.317 1.12792 1.10072 0
M  V30 7289 C 688.565 0.883796 1.81751 0
M  V30 7290 C 688.886 -0.591891 1.858 0
M  V30 7291 O 688.156 -1.43017 1.33876 0
M  V30 7292 H 686.736 0.323978 0.673088 0
M  V30 7293 H 689.398 1.42314 1.33164 0
M  V30 7294 H 688.494 1.26863 2.85153 0
M  V30 7295 N 688.795 -1.27931 0.920396 0
M  V30 7296 C 690.072 -1.89728 0.475687 0
M  V30 7297 C 690.452 -1.8337 -1.04588 0
M  V30 7298 O 689.8 -1.27404 -1.89685 0
M  V30 7299 C 690.01 -3.33959 1.01354 0
M  V30 7300 C 691.358 -4.10907 1.06963 0
M  V30 7301 O 692.382 -3.42945 0.962646 0
M  V30 7302 O 691.241 -5.32399 1.23343 0
M  V30 7303 H 688.335 -0.81294 0.151845 0
M  V30 7304 H 690.881 -1.36252 1.01161 0
M  V30 7305 H 689.653 -3.32843 2.05746 0
M  V30 7306 H 689.276 -3.94944 0.458829 0
M  V30 7307 N 690.273 -0.685099 -1.4193 0
M  V30 7308 C 691.22 -0.0131869 -2.30796 0
M  V30 7309 C 692.19 0.782129 -1.46533 0
M  V30 7310 O 693.375 0.75229 -1.75343 0
M  V30 7311 C 690.515 0.924768 -3.32479 0
M  V30 7312 C 689.628 0.122181 -4.31827 0
M  V30 7313 C 688.763 1.05682 -5.20581 0
M  V30 7314 C 687.802 0.246526 -6.11603 0
M  V30 7315 N 686.939 1.13442 -6.92875 0
M  V30 7316 H 691.779 -0.776789 -2.87698 0
M  V30 7317 H 689.316 -0.394791 -1.41703 0
M  V30 7318 H 691.274 1.48251 -3.89971 0
M  V30 7319 H 689.904 1.65488 -2.77152 0
M  V30 7320 H 688.956 -0.552335 -3.76369 0
M  V30 7321 H 690.268 -0.506473 -4.96222 0
M  V30 7322 H 689.422 1.68415 -5.82856 0
M  V30 7323 H 688.161 1.71935 -4.56388 0
M  V30 7324 H 687.166 -0.393944 -5.48387 0
M  V30 7325 H 688.391 -0.412053 -6.77849 0
M  V30 7326 H 686.337 1.78316 -6.313 0
M  V30 7327 H 686.254 0.561089 -7.53915 0
M  V30 7328 H 687.522 1.74889 -7.59628 0
M  V30 7329 N 691.751 1.51645 -0.429126 0
M  V30 7330 C 692.681 2.30434 0.377148 0
M  V30 7331 C 693.662 1.35493 1.02838 0
M  V30 7332 O 694.847 1.6441 1.03359 0
M  V30 7333 C 691.977 3.14038 1.48315 0
M  V30 7334 C 690.931 4.1719 0.955855 0
M  V30 7335 C 690.257 4.89263 2.15698 0
M  V30 7336 C 691.557 5.223 -0.00402136 0
M  V30 7337 H 693.251 2.98085 -0.280336 0
M  V30 7338 H 690.797 1.43354 -0.136265 0
M  V30 7339 H 692.75 3.67933 2.05435 0
M  V30 7340 H 691.474 2.44193 2.16881 0
M  V30 7341 H 690.133 3.64335 0.406929 0
M  V30 7342 H 689.781 4.15929 2.82864 0
M  V30 7343 H 689.481 5.59009 1.81059 0
M  V30 7344 H 691.005 5.45978 2.73387 0
M  V30 7345 H 692.419 5.71315 0.476607 0
M  V30 7346 H 690.816 5.99525 -0.26258 0
M  V30 7347 H 691.886 4.75638 -0.943236 0
M  V30 7348 N 693.229 0.160201 1.56784 0
M  V30 7349 C 694.476 -0.487588 1.96542 0
M  V30 7350 C 694.804 -1.63999 1.04569 0
M  V30 7351 O 694.059 -1.95546 0.0775211 0
M  V30 7352 C 694.358 -1.02259 3.42459 0
M  V30 7353 C 694.024 0.0127436 4.50898 0
M  V30 7354 C 692.686 0.297318 4.80281 0
M  V30 7355 C 695.038 0.716078 5.16257 0
M  V30 7356 C 692.366 1.29081 5.72324 0
M  V30 7357 C 694.718 1.69847 6.09372 0
M  V30 7358 C 693.382 1.99061 6.37127 0
M  V30 7359 H 692.652 -0.178421 0.719199 0
M  V30 7360 H 695.299 0.249818 1.89864 0
M  V30 7361 H 693.604 -1.8376 3.46034 0
M  V30 7362 H 695.301 -1.53261 3.70556 0
M  V30 7363 H 691.891 -0.219235 4.28039 0
M  V30 7364 H 696.075 0.509428 4.93679 0
M  V30 7365 H 691.331 1.52344 5.92116 0
M  V30 7366 H 695.505 2.2489 6.59088 0
M  V30 7367 H 693.132 2.76194 7.08252 0
M  V30 7368 N 694.707 -1.5719 -0.113559 0
M  V30 7369 C 695.955 -1.84772 -0.818761 0
M  V30 7370 C 696.276 -0.746196 -1.80158 0
M  V30 7371 O 695.546 0.229305 -1.94553 0
M  V30 7372 H 694.126 -0.681737 -0.305359 0
M  V30 7373 H 696.788 -1.94645 -0.0995845 0
M  V30 7374 H 695.884 -2.80878 -1.36067 0
M  V30 7375 N 696.185 0.383891 -1.52853 0
M  V30 7376 C 697.596 0.961591 -1.60032 0
M  V30 7377 C 697.947 1.90819 -0.456333 0
M  V30 7378 O 697.072 2.12288 0.419873 0
M  V30 7379 C 697.667 1.75078 -2.90057 0
M  V30 7380 C 696.226 2.2781 -2.99632 0
M  V30 7381 C 695.373 1.08512 -2.55187 0
M  V30 7382 H 698.324 0.163269 -1.57858 0
M  V30 7383 H 698.345 2.61046 -2.7683 0
M  V30 7384 H 697.857 1.06157 -3.73299 0
M  V30 7385 H 695.958 3.00028 -2.20939 0
M  V30 7386 H 696.071 2.56947 -4.0437 0
M  V30 7387 H 694.435 1.44667 -2.09627 0
M  V30 7388 H 695.218 0.41118 -3.40829 0
M  V30 7389 N 697.663 1.43903 0.642637 0
M  V30 7390 C 698.94 1.36556 1.40043 0
M  V30 7391 C 699.32 0.0185588 2.11092 0
M  V30 7392 O 698.668 -0.998438 2.05532 0
M  V30 7393 C 698.878 2.55596 2.37638 0
M  V30 7394 C 700.226 2.99153 3.01318 0
M  V30 7395 O 701.25 2.55719 2.47965 0
M  V30 7396 O 700.109 3.74427 3.98078 0
M  V30 7397 H 697.203 0.540189 0.626198 0
M  V30 7398 H 699.749 1.55971 0.668657 0
M  V30 7399 H 698.521 3.45256 1.84158 0
M  V30 7400 H 698.144 2.38334 3.18249 0
M  V30 7401 N 699.141 -0.881989 1.30609 0
M  V30 7402 C 700.071 -2.00413 1.1982 0
M  V30 7403 C 701.052 -1.69871 0.0881538 0
M  V30 7404 O 702.237 -1.92304 0.2707 0
M  V30 7405 C 699.367 -3.35641 0.89233 0
M  V30 7406 C 698.321 -3.80451 1.96064 0
M  V30 7407 C 697.647 -5.13003 1.5077 0
M  V30 7408 C 698.947 -3.98855 3.37213 0
M  V30 7409 H 700.641 -2.09698 2.13699 0
M  V30 7410 H 698.187 -1.00754 1.02882 0
M  V30 7411 H 700.14 -4.13669 0.803497 0
M  V30 7412 H 698.864 -3.26497 -0.0821381 0
M  V30 7413 H 697.523 -3.04654 2.03916 0
M  V30 7414 H 697.171 -5.0029 0.521417 0
M  V30 7415 H 696.871 -5.43956 2.22229 0
M  V30 7416 H 698.395 -5.93554 1.43271 0
M  V30 7417 H 699.809 -4.67312 3.32103 0
M  V30 7418 H 698.206 -4.41188 4.06784 0
M  V30 7419 H 699.276 -3.02614 3.78883 0
M  V30 7420 N 700.619 -1.13374 -1.09472 0
M  V30 7421 C 701.566 -0.810682 -2.16094 0
M  V30 7422 C 702.536 0.227003 -1.64541 0
M  V30 7423 O 703.721 0.0993538 -1.90541 0
M  V30 7424 C 700.861 -0.282336 -3.43943 0
M  V30 7425 C 699.974 -1.37902 -4.09398 0
M  V30 7426 C 699.109 -0.809066 -5.25002 0
M  V30 7427 C 698.148 -1.88419 -5.82379 0
M  V30 7428 N 697.285 -1.33221 -6.89345 0
M  V30 7429 H 702.125 -1.72397 -2.43071 0
M  V30 7430 H 699.662 -0.860564 -1.19301 0
M  V30 7431 H 701.62 0.0421189 -4.17179 0
M  V30 7432 H 700.25 0.594083 -3.17286 0
M  V30 7433 H 699.302 -1.82008 -3.34032 0
M  V30 7434 H 700.614 -2.19161 -4.48074 0
M  V30 7435 H 699.768 -0.435867 -6.05132 0
M  V30 7436 H 698.507 0.0346058 -4.87688 0
M  V30 7437 H 697.512 -2.26646 -5.00911 0
M  V30 7438 H 698.737 -2.73125 -6.21755 0
M  V30 7439 H 696.683 -0.510535 -6.5401 0
M  V30 7440 H 696.6 -2.08129 -7.26786 0
M  V30 7441 H 697.868 -0.986565 -7.73232 0
M  V30 7442 N 702.098 1.27442 -0.927168 0
M  V30 7443 C 703.028 2.29256 -0.443188 0
M  V30 7444 C 704.009 1.62701 0.49624 0
M  V30 7445 O 705.194 1.90013 0.401105 0
M  V30 7446 C 702.324 3.45955 0.305366 0
M  V30 7447 C 701.278 4.24501 -0.546178 0
M  V30 7448 C 700.604 5.33671 0.331512 0
M  V30 7449 C 701.904 4.89921 -1.81037 0
M  V30 7450 H 703.598 2.69988 -1.29409 0
M  V30 7451 H 701.144 1.29792 -0.623705 0
M  V30 7452 H 703.097 4.1628 0.654885 0
M  V30 7453 H 701.821 3.04138 1.19029 0
M  V30 7454 H 700.48 3.55921 -0.878398 0
M  V30 7455 H 700.128 4.88096 1.21537 0
M  V30 7456 H 699.828 5.87131 -0.234746 0
M  V30 7457 H 701.352 6.0684 0.676614 0
M  V30 7458 H 702.766 5.52536 -1.52895 0
M  V30 7459 H 701.163 5.53436 -2.32009 0
M  V30 7460 H 702.233 4.13652 -2.53021 0
M  V30 7461 N 703.576 0.692616 1.41565 0
M  V30 7462 C 704.822 0.222664 2.01574 0
M  V30 7463 C 705.155 -1.1737 1.54719 0
M  V30 7464 O 704.43 -1.79161 0.757084 0
M  V30 7465 C 704.713 0.277064 3.59033 0
M  V30 7466 C 704.566 1.71016 4.16021 0
M  V30 7467 C 705.885 -0.36479 4.38586 0
M  V30 7468 H 703.004 0.0823839 0.732381 0
M  V30 7469 H 705.646 0.880778 1.68352 0
M  V30 7470 H 703.796 -0.283288 3.87466 0
M  V30 7471 H 705.468 2.32413 3.98475 0
M  V30 7472 H 703.711 2.24525 3.71175 0
M  V30 7473 H 704.382 1.69978 5.25178 0
M  V30 7474 H 706.858 0.112404 4.15948 0
M  V30 7475 H 705.734 -0.296169 5.481 0
M  V30 7476 H 705.995 -1.44506 4.17816 0
M  V30 7477 N 705.054 -1.51416 0.437162 0
M  V30 7478 C 706.465 -1.86682 -0.0260005 0
M  V30 7479 C 706.816 -1.35432 -1.4196 0
M  V30 7480 O 705.941 -0.705055 -2.04592 0
M  V30 7481 C 706.536 -3.38757 -0.0539577 0
M  V30 7482 C 705.095 -3.7356 -0.461532 0
M  V30 7483 C 704.242 -2.75134 0.345924 0
M  V30 7484 H 707.193 -1.44642 0.653013 0
M  V30 7485 H 707.214 -3.70573 -0.863478 0
M  V30 7486 H 706.726 -3.76028 0.96045 0
M  V30 7487 H 704.827 -3.41878 -1.48155 0
M  V30 7488 H 704.94 -4.78737 -0.186451 0
M  V30 7489 H 703.304 -2.53947 -0.195739 0
M  V30 7490 H 704.087 -3.15247 1.35921 0
M  V30 7491 N 706.532 -0.168513 -1.56696 0
M  V30 7492 C 707.943 0.348694 -1.83415 0
M  V30 7493 C 708.294 1.63257 -1.0882 0
M  V30 7494 O 707.419 2.13707 -0.340333 0
M  V30 7495 C 708.014 0.639423 -3.32711 0
M  V30 7496 C 706.573 1.10108 -3.59935 0
M  V30 7497 C 705.72 0.135464 -2.76969 0
M  V30 7498 H 708.671 -0.392829 -1.53761 0
M  V30 7499 H 708.692 1.49179 -3.50037 0
M  V30 7500 H 708.204 -0.295173 -3.86976 0
M  V30 7501 H 706.305 2.05088 -3.11079 0
M  V30 7502 H 706.418 1.01218 -4.68286 0
M  V30 7503 H 704.782 0.632286 -2.46727 0
M  V30 7504 H 705.565 -0.793104 -3.34013 0
M  V30 7505 N 708.01 1.57248 0.105221 0
M  V30 7506 C 708.943 1.96567 1.15916 0
M  V30 7507 C 709.921 0.837355 1.39381 0
M  V30 7508 O 711.105 1.09676 1.53308 0
M  V30 7509 C 708.232 2.27375 2.51035 0
M  V30 7510 C 707.278 3.49869 2.43913 0
M  V30 7511 S 708.111 5.01958 1.86543 0
M  V30 7512 C 709.267 5.35932 3.23307 0
M  V30 7513 H 709.5 2.85655 0.823931 0
M  V30 7514 H 707.033 1.51204 0.312515 0
M  V30 7515 H 708.991 2.45801 3.28774 0
M  V30 7516 H 707.652 1.38876 2.81731 0
M  V30 7517 H 706.845 3.68835 3.43477 0
M  V30 7518 H 706.447 3.30901 1.743 0
M  V30 7519 H 708.739 5.31958 4.19556 0
M  V30 7520 H 709.682 6.37047 3.09155 0
M  V30 7521 H 710.09 4.63397 3.22372 0
M  V30 7522 N 709.488 -0.375779 1.53054 0
M  V30 7523 C 710.398 -1.48381 1.81715 0
M  V30 7524 C 711.414 -1.59087 0.704795 0
M  V30 7525 O 712.59 -1.75174 0.993785 0
M  V30 7526 C 709.655 -2.83767 1.99192 0
M  V30 7527 C 708.716 -2.82673 3.23102 0
M  V30 7528 C 707.949 -4.11601 3.39736 0
M  V30 7529 O 708.172 -5.07243 2.60885 0
M  V30 7530 O 707.106 -4.18034 4.33049 0
M  V30 7531 H 710.932 -1.27089 2.7583 0
M  V30 7532 H 708.517 -0.564902 1.38308 0
M  V30 7533 H 710.399 -3.64004 2.12318 0
M  V30 7534 H 709.074 -3.05057 1.08267 0
M  V30 7535 H 707.981 -2.0117 3.15407 0
M  V30 7536 H 709.314 -2.66335 4.13916 0
M  V30 7537 N 710.966 -1.44241 -0.634997 0
M  V30 7538 C 711.876 -1.53293 -1.77591 0
M  V30 7539 C 712.892 -0.418831 -1.68884 0
M  V30 7540 O 714.068 -0.675619 -1.8973 0
M  V30 7541 C 711.133 -1.47075 -3.13958 0
M  V30 7542 C 710.194 -2.69304 -3.34326 0
M  V30 7543 C 709.427 -2.63374 -4.64187 0
M  V30 7544 O 709.65 -1.69161 -5.44739 0
M  V30 7545 O 708.584 -3.54166 -4.86673 0
M  V30 7546 H 712.41 -2.49673 -1.72908 0
M  V30 7547 H 709.995 -1.26445 -0.795745 0
M  V30 7548 H 711.877 -1.46117 -3.95257 0
M  V30 7549 H 710.552 -0.538373 -3.19192 0
M  V30 7550 H 709.459 -2.75831 -2.52721 0
M  V30 7551 H 710.792 -3.61576 -3.33951 0
M  V30 7552 N 712.444 0.87505 -1.31075 0
M  V30 7553 C 713.721 1.60976 -1.11113 0
M  V30 7554 C 714.101 2.08409 0.336006 0
M  V30 7555 O 713.449 1.85858 1.32924 0
M  V30 7556 C 713.659 2.77166 -2.12085 0
M  V30 7557 C 715.007 3.47254 -2.44335 0
M  V30 7558 O 716.031 2.87367 -2.10472 0
M  V30 7559 O 714.89 4.55276 -3.02301 0
M  V30 7560 H 711.984 0.707982 -0.427424 0
M  V30 7561 H 714.53 0.920957 -1.42536 0
M  V30 7562 H 713.302 2.39494 -3.09449 0
M  V30 7563 H 712.925 3.53737 -1.81538 0
M  V30 7564 N 713.922 1.13953 1.08869 0
M  V30 7565 C 715.152 0.926825 1.84644 0
M  V30 7566 C 715.56 -0.527941 1.81685 0
M  V30 7567 O 714.903 -1.37742 1.21543 0
M  V30 7568 C 714.965 1.34416 3.33426 0
M  V30 7569 C 714.629 2.81351 3.60126 0
M  V30 7570 C 715.626 3.79486 3.55368 0
M  V30 7571 C 713.311 3.1865 3.88288 0
M  V30 7572 C 715.305 5.1293 3.78393 0
M  V30 7573 C 712.992 4.5227 4.10968 0
M  V30 7574 C 713.99 5.4922 4.06013 0
M  V30 7575 O 713.678 6.80429 4.28102 0
M  V30 7576 H 713.41 0.33013 0.589907 0
M  V30 7577 H 715.964 1.51738 1.38436 0
M  V30 7578 H 714.194 0.696901 3.80368 0
M  V30 7579 H 715.883 1.10302 3.90626 0
M  V30 7580 H 716.649 3.52017 3.3363 0
M  V30 7581 H 712.528 2.43785 3.91267 0
M  V30 7582 H 716.072 5.88591 3.74442 0
M  V30 7583 H 711.969 4.79462 4.32188 0
M  V30 7584 H 712.737 6.86617 4.45533 0
M  V30 7585 N 715.4 -1.26948 0.933913 0
M  V30 7586 C 716.811 -1.76058 0.621324 0
M  V30 7587 C 717.162 -1.76175 -0.863522 0
M  V30 7588 O 716.287 -1.36921 -1.67576 0
M  V30 7589 C 716.882 -3.19713 1.12111 0
M  V30 7590 C 715.441 -3.66465 0.859074 0
M  V30 7591 C 714.588 -2.46186 1.27624 0
M  V30 7592 H 717.539 -1.13127 1.11301 0
M  V30 7593 H 717.56 -3.77566 0.471608 0
M  V30 7594 H 717.072 -3.19596 2.20182 0
M  V30 7595 H 715.173 -3.72021 -0.207566 0
M  V30 7596 H 715.286 -4.55636 1.48098 0
M  V30 7597 H 713.65 -2.45042 0.694727 0
M  V30 7598 H 714.433 -2.48774 2.36572 0
M  V30 7599 N 716.879 -0.700114 -1.41195 0
M  V30 7600 C 717.811 0.00155823 -2.292 0
M  V30 7601 C 718.824 0.739736 -1.45023 0
M  V30 7602 O 720.013 0.589684 -1.68478 0
M  V30 7603 C 717.113 1.02635 -3.22985 0
M  V30 7604 C 716.286 0.356871 -4.35942 0
M  V30 7605 C 715.345 1.28491 -5.10271 0
M  V30 7606 O 714.371 0.775562 -5.63892 0
M  V30 7607 N 715.573 2.61699 -5.18164 0
M  V30 7608 H 718.338 -0.754008 -2.9006 0
M  V30 7609 H 715.899 -0.546504 -1.52397 0
M  V30 7610 H 717.891 1.64902 -3.6958 0
M  V30 7611 H 716.461 1.68341 -2.63401 0
M  V30 7612 H 715.681 -0.445753 -3.91672 0
M  V30 7613 H 716.969 -0.108469 -5.08684 0
M  V30 7614 H 716.367 3.05594 -4.76056 0
M  V30 7615 H 714.924 3.19149 -5.6832 0
M  V30 7616 N 718.357 1.51182 -0.445186 0
M  V30 7617 C 719.604 2.02152 0.118645 0
M  V30 7618 C 719.932 1.32888 1.42025 0
M  V30 7619 O 719.187 0.435041 1.90803 0
M  V30 7620 C 719.486 3.55408 0.376797 0
M  V30 7621 C 719.152 4.43008 -0.839945 0
M  V30 7622 C 717.814 4.66669 -1.17361 0
M  V30 7623 C 720.166 4.9435 -1.65127 0
M  V30 7624 C 717.494 5.38919 -2.31913 0
M  V30 7625 C 719.846 5.67857 -2.78786 0
M  V30 7626 C 718.51 5.89779 -3.12597 0
M  V30 7627 H 717.78 0.739727 0.0434152 0
M  V30 7628 H 720.427 1.82055 -0.593984 0
M  V30 7629 H 718.732 3.73879 1.1714 0
M  V30 7630 H 720.429 3.92388 0.826602 0
M  V30 7631 H 717.019 4.24793 -0.569958 0
M  V30 7632 H 721.203 4.75947 -1.4067 0
M  V30 7633 H 716.459 5.54105 -2.58413 0
M  V30 7634 H 720.633 6.06628 -3.42017 0
M  V30 7635 H 718.26 6.45542 -4.01471 0
M  V30 7636 N 719.835 0.176821 1.56605 0
M  V30 7637 C 721.083 -0.465793 1.96659 0
M  V30 7638 C 721.404 -1.63406 1.06412 0
M  V30 7639 O 720.674 -1.95457 0.131603 0
M  V30 7640 H 719.254 -0.175072 0.726195 0
M  V30 7641 H 721.916 0.25929 1.93168 0
M  V30 7642 H 721.012 -0.822138 3.01077 0
M  V30 7643 N 721.313 -1.57302 -0.09688 0
M  V30 7644 C 722.538 -1.9058 -0.818169 0
M  V30 7645 C 722.963 -0.770921 -1.71576 0
M  V30 7646 O 722.321 0.277588 -1.79162 0
M  V30 7647 C 722.369 -3.22714 -1.60898 0
M  V30 7648 O 721.473 -3.10178 -2.71779 0
M  V30 7649 H 720.814 -0.624759 -0.224882 0
M  V30 7650 H 723.344 -2.04471 -0.07264 0
M  V30 7651 H 723.354 -3.55978 -1.99358 0
M  V30 7652 H 722.029 -4.04899 -0.950227 0
M  V30 7653 H 720.606 -2.88424 -2.3636 0
M  V30 7654 N 722.791 0.367657 -1.53252 0
M  V30 7655 C 724.202 0.944563 -1.61043 0
M  V30 7656 C 724.553 1.90325 -0.476546 0
M  V30 7657 O 723.678 2.12721 0.397333 0
M  V30 7658 C 724.273 1.71992 -2.91898 0
M  V30 7659 C 722.832 2.2462 -3.02031 0
M  V30 7660 C 721.979 1.05799 -2.56324 0
M  V30 7661 H 724.93 0.146516 -1.58022 0
M  V30 7662 H 724.951 2.58095 -2.79584 0
M  V30 7663 H 724.463 1.02192 -3.74404 0
M  V30 7664 H 722.564 2.97668 -2.24108 0
M  V30 7665 H 722.677 2.52644 -4.07073 0
M  V30 7666 H 721.041 1.42435 -2.1115 0
M  V30 7667 H 721.824 0.375008 -3.41246 0
M  V30 7668 N 724.269 1.44576 0.627338 0
M  V30 7669 C 725.216 1.51734 1.73912 0
M  V30 7670 C 726.186 0.364745 1.62046 0
M  V30 7671 O 727.371 0.575503 1.81914 0
M  V30 7672 C 724.511 1.47116 3.12171 0
M  V30 7673 C 723.624 2.72778 3.34986 0
M  V30 7674 C 722.759 2.59968 4.63239 0
M  V30 7675 C 721.798 3.80776 4.79245 0
M  V30 7676 N 720.935 3.66618 5.98778 0
M  V30 7677 H 725.775 2.46722 1.6713 0
M  V30 7678 H 723.312 1.22444 0.815224 0
M  V30 7679 H 725.27 1.42429 3.92135 0
M  V30 7680 H 723.9 0.556928 3.17959 0
M  V30 7681 H 722.952 2.87637 2.48936 0
M  V30 7682 H 724.264 3.62441 3.42692 0
M  V30 7683 H 723.418 2.53135 5.51369 0
M  V30 7684 H 722.157 1.67872 4.57898 0
M  V30 7685 H 721.162 3.87989 3.89544 0
M  V30 7686 H 722.387 4.73913 4.86398 0
M  V30 7687 H 720.333 2.77277 5.9452 0
M  V30 7688 H 720.25 4.499 6.07557 0
M  V30 7689 H 721.518 3.63684 6.89459 0
M  V30 7690 O 725.786 -0.770871 1.41915 0
M  V30 7691 H 726.477 -1.41834 1.31919 0
M  V30 END ATOM
M  V30 BEGIN BOND
M  V30 END BOND
M  V30 END CTAB
M  END
$$$$
