drugbank_target|P08620 Fibroblast growth factor 4 (DB00686; DB01109; DB05309)
 OpenBabel12092119293D

  0  0  0     0  0            999 V3000
M  V30 BEGIN CTAB
M  V30 COUNTS 3150 3186 0 0 0
M  V30 BEGIN ATOM
M  V30 1 H -0.908 1.98254 -0.117106 0
M  V30 2 N 0 1.576 0 0
M  V30 3 C 0.933 2.03868 1.02534 0
M  V30 4 C 1.911 0.928543 1.3348 0
M  V30 5 O 3.095 1.19667 1.45644 0
M  V30 6 C 0.222 2.43627 2.35294 0
M  V30 7 C -0.732 3.65373 2.2001 0
M  V30 8 S 0.101 5.13292 1.52614 0
M  V30 9 C 1.257 5.56322 2.86805 0
M  V30 10 H 1.49 2.90518 0.631377 0
M  V30 11 H -0.977 1.52953 0.210867 0
M  V30 12 H 0.981 2.67203 3.11629 0
M  V30 13 H -0.358 1.57376 2.7183 0
M  V30 14 H -1.165 3.90944 3.18086 0
M  V30 15 H -1.563 3.418 1.51819 0
M  V30 16 H 0.729 5.58782 3.83104 0
M  V30 17 H 1.672 6.56266 2.65933 0
M  V30 18 H 2.08 4.83886 2.90714 0
M  V30 19 N 1.4781 -0.272755 1.55222 0
M  V30 20 C 2.7031 -1.02683 1.80197 0
M  V30 21 C 3.1281 -1.79142 0.573551 0
M  V30 22 O 2.4861 -1.74917 -0.476849 0
M  V30 23 C 2.5341 -1.9609 3.02624 0
M  V30 24 O 1.6381 -3.04863 2.77727 0
M  V30 25 H 0.9791 -0.293557 0.595584 0
M  V30 26 H 3.5091 -0.30159 2.02365 0
M  V30 27 H 3.5191 -2.38039 3.31363 0
M  V30 28 H 2.1941 -1.39851 3.91682 0
M  V30 29 H 0.7711 -2.67228 2.60084 0
M  V30 30 N 2.9562 -1.48159 -0.537278 0
M  V30 31 C 4.2042 -1.55497 -1.29094 0
M  V30 32 C 4.5252 -0.227454 -1.93669 0
M  V30 33 O 3.7952 0.750386 -1.80959 0
M  V30 34 H 2.3752 -0.572832 -0.47945 0
M  V30 35 H 5.0372 -1.84579 -0.625818 0
M  V30 36 H 4.1332 -2.33216 -2.07405 0
M  V30 37 N 4.4343 0.785586 -1.36625 0
M  V30 38 C 5.8453 1.36101 -1.27803 0
M  V30 39 C 6.1963 1.96035 0.0804875 0
M  V30 40 O 5.3213 1.92834 0.982042 0
M  V30 41 C 5.9163 2.47442 -2.31426 0
M  V30 42 C 4.4753 3.00789 -2.26281 0
M  V30 43 C 3.6223 1.73896 -2.15999 0
M  V30 44 H 6.5733 0.586928 -1.47448 0
M  V30 45 H 6.5943 3.2656 -1.95291 0
M  V30 46 H 6.1063 2.03791 -3.30289 0
M  V30 47 H 4.2073 3.48851 -1.30896 0
M  V30 48 H 4.3203 3.57343 -3.19128 0
M  V30 49 H 2.6843 1.9628 -1.62316 0
M  V30 50 H 3.4673 1.32368 -3.16755 0
M  V30 51 N 5.9124 1.20967 1.01018 0
M  V30 52 C 7.1604 1.02172 1.74371 0
M  V30 53 C 7.4814 -0.446414 1.89821 0
M  V30 54 O 6.7514 -1.32234 1.44537 0
M  V30 55 H 5.3314 0.375066 0.646014 0
M  V30 56 H 7.9934 1.52187 1.21758 0
M  V30 57 H 7.0894 1.48538 2.74487 0
M  V30 58 N 7.3905 -1.2043 1.01659 0
M  V30 59 C 8.6185 -1.93777 0.725132 0
M  V30 60 C 9.0335 -1.74772 -0.714166 0
M  V30 61 O 8.3905 -1.06169 -1.4844 0
M  V30 62 C 8.4415 -3.45876 1.05129 0
M  V30 63 O 8.1625 -3.6426 2.43406 0
M  V30 64 C 9.6635 -4.36368 0.780891 0
M  V30 65 H 6.8835 -0.615901 0.266284 0
M  V30 66 H 9.4275 -1.52922 1.35776 0
M  V30 67 H 7.5825 -3.8461 0.464065 0
M  V30 68 H 7.9965 -4.58246 2.55169 0
M  V30 69 H 9.4705 -5.41743 1.05918 0
M  V30 70 H 9.9475 -4.38275 -0.284937 0
M  V30 71 H 10.5535 -4.03296 1.35027 0
M  V30 72 N 8.8686 -0.792821 -1.36206 0
M  V30 73 C 9.8316 -0.199459 -2.2833 0
M  V30 74 C 10.8316 0.605189 -1.48977 0
M  V30 75 O 12.0216 0.425685 -1.68919 0
M  V30 76 C 9.1536 0.723523 -3.33134 0
M  V30 77 H 10.3466 -1.01181 -2.82316 0
M  V30 78 H 7.8996 -0.562485 -1.45828 0
M  V30 79 H 8.6346 1.56008 -2.84309 0
M  V30 80 H 8.4196 0.148436 -3.91819 0
M  V30 81 H 9.9096 1.13344 -4.01924 0
M  V30 82 N 10.3467 1.47872 -0.545128 0
M  V30 83 C 11.3097 2.28337 0.198717 0
M  V30 84 C 12.3097 1.36255 0.853888 0
M  V30 85 O 13.4997 1.59003 0.711606 0
M  V30 86 C 10.6317 3.15585 1.28915 0
M  V30 87 H 11.8247 2.95567 -0.507941 0
M  V30 88 H 9.3777 1.53362 -0.301616 0
M  V30 89 H 10.1127 2.53019 2.02859 0
M  V30 90 H 9.8977 3.83337 0.824309 0
M  V30 91 H 11.3877 3.76243 1.81194 0
M  V30 92 N 11.8248 0.280983 1.55075 0
M  V30 93 C 13.0708 -0.33461 2.00021 0
M  V30 94 C 13.4038 -1.55063 1.16915 0
M  V30 95 O 12.6788 -1.93006 0.240646 0
M  V30 96 C 12.9618 -0.711007 3.53011 0
M  V30 97 C 12.8148 0.512766 4.46868 0
M  V30 98 C 14.1338 -1.54522 4.12081 0
M  V30 99 H 11.2528 -0.120147 0.727141 0
M  V30 100 H 13.8948 0.389097 1.85973 0
M  V30 101 H 12.0448 -1.32761 3.65112 0
M  V30 102 H 13.7168 1.15131 4.46702 0
M  V30 103 H 11.9598 1.14975 4.18286 0
M  V30 104 H 12.6308 0.205556 5.51617 0
M  V30 105 H 15.1068 -1.02442 4.03293 0
M  V30 106 H 13.9828 -1.77739 5.19327 0
M  V30 107 H 14.2438 -2.52813 3.62682 0
M  V30 108 N 13.3029 -1.57598 0.00835791 0
M  V30 109 C 14.2659 -2.07884 -0.965242 0
M  V30 110 C 15.2659 -0.989825 -1.26725 0
M  V30 111 O 16.4559 -1.25218 -1.21104 0
M  V30 112 C 13.5879 -2.52731 -2.28779 0
M  V30 113 H 14.7809 -2.95178 -0.530112 0
M  V30 114 H 12.3339 -1.54458 -0.239283 0
M  V30 115 H 13.0689 -1.68705 -2.76964 0
M  V30 116 H 12.8539 -3.32272 -2.08177 0
M  V30 117 H 14.3439 -2.91933 -2.98605 0
M  V30 118 N 14.781 0.264519 -1.55364 0
M  V30 119 C 15.711 1.33121 -1.91836 0
M  V30 120 C 16.692 1.51101 -0.781192 0
M  V30 121 O 17.877 1.64003 -1.04003 0
M  V30 122 C 15.007 2.68921 -2.19769 0
M  V30 123 C 13.961 2.65661 -3.35571 0
M  V30 124 C 13.287 4.05093 -3.49004 0
M  V30 125 C 14.587 2.24187 -4.71739 0
M  V30 126 H 16.281 1.02844 -2.81182 0
M  V30 127 H 13.827 0.493286 -1.35287 0
M  V30 128 H 15.78 3.43663 -2.43872 0
M  V30 129 H 14.504 3.00799 -1.27231 0
M  V30 130 H 13.163 1.93377 -3.1145 0
M  V30 131 H 12.811 4.34206 -2.53917 0
M  V30 132 H 12.511 4.03804 -4.26868 0
M  V30 133 H 14.035 4.81561 -3.75408 0
M  V30 134 H 15.449 2.88654 -4.9533 0
M  V30 135 H 13.846 2.34044 -5.52579 0
M  V30 136 H 14.916 1.19327 -4.69988 0
M  V30 137 N 16.2591 1.48442 0.529413 0
M  V30 138 C 17.1891 1.65902 1.64313 0
M  V30 139 C 18.1701 0.507897 1.6234 0
M  V30 140 O 19.3551 0.740503 1.79528 0
M  V30 141 C 16.4851 1.69911 3.02898 0
M  V30 142 C 15.4391 2.8453 3.19729 0
M  V30 143 C 14.7651 2.73629 4.59381 0
M  V30 144 C 16.0651 4.25821 3.02447 0
M  V30 145 H 17.7591 2.5914 1.49955 0
M  V30 146 H 15.3051 1.24709 0.719982 0
M  V30 147 H 17.2581 1.80715 3.80684 0
M  V30 148 H 15.9821 0.732524 3.18279 0
M  V30 149 H 14.6411 2.73283 2.44361 0
M  V30 150 H 14.2891 1.74938 4.71599 0
M  V30 151 H 13.9891 3.50541 4.71588 0
M  V30 152 H 15.5131 2.86401 5.39265 0
M  V30 153 H 16.9271 4.37898 3.70024 0
M  V30 154 H 15.3241 5.03735 3.26146 0
M  V30 155 H 16.3941 4.42244 1.98867 0
M  V30 156 N 17.7372 -0.778329 1.37039 0
M  V30 157 C 19.1482 -1.35421 1.28523 0
M  V30 158 C 19.4992 -1.96075 -0.0700901 0
M  V30 159 O 18.6242 -1.93352 -0.971801 0
M  V30 160 C 19.2192 -2.46211 2.32735 0
M  V30 161 C 17.7782 -2.99585 2.27873 0
M  V30 162 C 16.9252 -1.72748 2.16918 0
M  V30 163 H 19.8762 -0.5791 1.47757 0
M  V30 164 H 19.8972 -3.2552 1.9702 0
M  V30 165 H 19.4092 -2.02036 3.31365 0
M  V30 166 H 17.5102 -3.48152 1.32745 0
M  V30 167 H 17.6232 -3.55646 3.21018 0
M  V30 168 H 15.9872 -1.95416 1.63354 0
M  V30 169 H 16.7702 -1.30686 3.17452 0
M  V30 170 N 19.2153 -1.21501 -1.00376 0
M  V30 171 C 20.1783 -0.976927 -2.07337 0
M  V30 172 C 21.1783 0.0525322 -1.60714 0
M  V30 173 O 22.3683 -0.184869 -1.73216 0
M  V30 174 C 19.5003 -0.473423 -3.37597 0
M  V30 175 H 20.6933 -1.92587 -2.29892 0
M  V30 176 H 18.2463 -1.03217 -1.17371 0
M  V30 177 H 18.9813 0.480379 -3.20722 0
M  V30 178 H 18.7663 -1.216 -3.72768 0
M  V30 179 H 20.2563 -0.32675 -4.1632 0
M  V30 180 N 20.6934 1.19889 -1.02296 0
M  V30 181 C 21.9394 1.89701 -0.717033 0
M  V30 182 C 22.2724 1.7905 0.751989 0
M  V30 183 O 21.5474 1.17891 1.547 0
M  V30 184 C 21.8304 3.40858 -1.16136 0
M  V30 185 C 21.6834 3.60411 -2.69117 0
M  V30 186 C 23.0024 4.33876 -0.737549 0
M  V30 187 H 20.1214 0.688874 -0.261957 0
M  V30 188 H 22.7634 1.41154 -1.27183 0
M  V30 189 H 20.9134 3.82335 -0.689342 0
M  V30 190 H 22.5854 3.28145 -3.2422 0
M  V30 191 H 20.8284 3.03665 -3.0979 0
M  V30 192 H 21.4994 4.66396 -2.95261 0
M  V30 193 H 23.9754 4.00081 -1.14344 0
M  V30 194 H 22.8514 5.38242 -1.0764 0
M  V30 195 H 23.1124 4.40628 0.360436 0
M  V30 196 N 22.1715 0.800033 1.35784 0
M  V30 197 C 23.1015 0.220184 2.3246 0
M  V30 198 C 24.0825 -0.65073 1.57161 0
M  V30 199 O 25.2675 -0.582359 1.85263 0
M  V30 200 C 22.3975 -0.637353 3.41402 0
M  V30 201 C 21.3515 0.134531 4.27789 0
M  V30 202 C 20.6775 -0.844285 5.27992 0
M  V30 203 C 21.9775 1.32979 5.05088 0
M  V30 204 H 23.6715 1.02787 2.81203 0
M  V30 205 H 21.2175 0.495717 1.35199 0
M  V30 206 H 23.1705 -1.05302 4.08031 0
M  V30 207 H 21.8945 -1.47785 2.91251 0
M  V30 208 H 20.5535 0.531296 3.6273 0
M  V30 209 H 20.2015 -1.68011 4.74111 0
M  V30 210 H 19.9015 -0.332184 5.8666 0
M  V30 211 H 21.4255 -1.2583 5.97494 0
M  V30 212 H 22.8395 0.98934 5.64699 0
M  V30 213 H 21.2365 1.77593 5.7322 0
M  V30 214 H 22.3065 2.11978 4.36111 0
M  V30 215 N 23.6496 -1.47581 0.552962 0
M  V30 216 C 24.5796 -2.32762 -0.185451 0
M  V30 217 C 25.5606 -1.43527 -0.912905 0
M  V30 218 O 26.7456 -1.72388 -0.894201 0
M  V30 219 C 23.8756 -3.25219 -1.21859 0
M  V30 220 C 22.8296 -4.23661 -0.607864 0
M  V30 221 C 22.1556 -5.05413 -1.74533 0
M  V30 222 C 23.4556 -5.20481 0.435582 0
M  V30 223 H 25.1496 -2.94749 0.525684 0
M  V30 224 H 22.6956 -1.41738 0.254251 0
M  V30 225 H 24.6486 -3.8365 -1.7433 0
M  V30 226 H 23.3726 -2.61279 -1.95961 0
M  V30 227 H 22.0316 -3.66451 -0.104489 0
M  V30 228 H 21.6796 -4.3788 -2.47529 0
M  V30 229 H 21.3796 -5.72059 -1.34249 0
M  V30 230 H 22.9036 -5.66701 -2.27338 0
M  V30 231 H 24.3176 -5.733 -0.00290157 0
M  V30 232 H 22.7146 -5.95305 0.757067 0
M  V30 233 H 23.7846 -4.66217 1.33303 0
M  V30 234 N 25.1277 -0.289203 -1.54924 0
M  V30 235 C 26.0907 0.579144 -2.21762 0
M  V30 236 C 27.0907 1.07047 -1.1999 0
M  V30 237 O 28.2807 0.968384 -1.44803 0
M  V30 238 C 25.4127 1.80055 -2.8947 0
M  V30 239 H 26.6057 -0.00464908 -2.999 0
M  V30 240 H 24.1587 -0.0399306 -1.56249 0
M  V30 241 H 24.8937 2.42449 -2.15381 0
M  V30 242 H 24.6787 1.45602 -3.64064 0
M  V30 243 H 26.1687 2.41773 -3.40493 0
M  V30 244 N 26.6058 1.57591 -0.0167156 0
M  V30 245 C 27.5358 2.12496 0.967858 0
M  V30 246 C 28.5168 1.03807 1.34752 0
M  V30 247 O 29.7018 1.31577 1.42833 0
M  V30 248 C 26.8318 2.64194 2.25431 0
M  V30 249 C 25.7858 3.77559 2.01576 0
M  V30 250 C 25.1118 4.15636 3.36379 0
M  V30 251 C 26.4118 5.04151 1.36489 0
M  V30 252 H 28.1058 2.95013 0.510643 0
M  V30 253 H 25.6518 1.41915 0.244181 0
M  V30 254 H 27.6048 3.01236 2.94678 0
M  V30 255 H 26.3288 1.78821 2.73296 0
M  V30 256 H 24.9878 3.40937 1.34751 0
M  V30 257 H 24.6358 3.27263 3.81979 0
M  V30 258 H 24.3358 4.92022 3.21229 0
M  V30 259 H 25.8598 4.5525 4.06915 0
M  V30 260 H 27.2738 5.38857 1.95718 0
M  V30 261 H 25.6708 5.85453 1.31776 0
M  V30 262 H 26.7408 4.83733 0.336219 0
M  V30 263 N 28.0839 -0.256276 1.55502 0
M  V30 264 C 29.0139 -1.32102 1.92539 0
M  V30 265 C 29.9949 -1.50684 0.789194 0
M  V30 266 O 31.1799 -1.63449 1.04872 0
M  V30 267 C 28.3099 -2.67752 2.21192 0
M  V30 268 C 27.2639 -2.63878 3.36975 0
M  V30 269 C 26.5899 -4.03236 3.51147 0
M  V30 270 C 27.8899 -2.21682 4.72921 0
M  V30 271 H 29.5839 -1.01351 2.81724 0
M  V30 272 H 27.1299 -0.486105 1.35547 0
M  V30 273 H 29.0829 -3.42365 2.45691 0
M  V30 274 H 27.8069 -3.0012 1.28824 0
M  V30 275 H 26.4659 -1.91722 3.12471 0
M  V30 276 H 26.1139 -4.32854 2.56216 0
M  V30 277 H 25.8139 -4.01535 4.29003 0
M  V30 278 H 27.3379 -4.79563 3.77957 0
M  V30 279 H 28.7519 -2.86023 4.96854 0
M  V30 280 H 27.1489 -2.3111 5.53812 0
M  V30 281 H 28.2189 -1.16833 4.70615 0
M  V30 282 N 29.562 -1.4872 -0.521534 0
M  V30 283 C 30.525 -1.63379 -1.60748 0
M  V30 284 C 31.525 -0.50661 -1.52611 0
M  V30 285 O 32.715 -0.772601 -1.5613 0
M  V30 286 C 29.847 -1.61192 -3.00383 0
M  V30 287 H 31.04 -2.60217 -1.49087 0
M  V30 288 H 28.593 -1.37444 -0.744235 0
M  V30 289 H 29.328 -0.65863 -3.17541 0
M  V30 290 H 29.113 -2.43032 -3.07698 0
M  V30 291 H 30.603 -1.7466 -3.7932 0
M  V30 292 N 31.0401 0.771051 -1.3745 0
M  V30 293 C 32.4511 1.34737 -1.29239 0
M  V30 294 C 32.8021 1.96109 0.0596908 0
M  V30 295 O 31.9271 1.93865 0.961534 0
M  V30 296 C 32.5221 2.44973 -2.34037 0
M  V30 297 C 31.0811 2.98372 -2.29458 0
M  V30 298 C 30.2281 1.71595 -2.17831 0
M  V30 299 H 33.1791 0.571256 -1.48062 0
M  V30 300 H 33.2001 3.24471 -1.98744 0
M  V30 301 H 32.7121 2.00276 -3.32432 0
M  V30 302 H 30.8131 3.47443 -1.34589 0
M  V30 303 H 30.9261 3.53939 -3.229 0
M  V30 304 H 29.2901 1.94547 -1.64388 0
M  V30 305 H 30.0731 1.29001 -3.18141 0
M  V30 306 N 32.5182 1.22032 0.997298 0
M  V30 307 C 33.7642 1.05382 1.73972 0
M  V30 308 C 34.1192 -0.407419 1.88037 0
M  V30 309 O 33.4122 -1.29811 1.40924 0
M  V30 310 C 33.6062 1.69345 3.14733 0
M  V30 311 C 33.4352 3.21537 3.14395 0
M  V30 312 C 32.2052 3.9062 3.20537 0
M  V30 313 C 34.4032 4.18527 2.98897 0
M  V30 314 N 32.3852 5.29935 3.09906 0
M  V30 315 C 33.7562 5.44645 2.96247 0
M  V30 316 C 35.8112 4.09476 2.83255 0
M  V30 317 C 34.5142 6.62752 2.79557 0
M  V30 318 C 36.5402 5.27228 2.67926 0
M  V30 319 C 35.9022 6.52262 2.65959 0
M  V30 320 H 32.0012 0.440018 0.646458 0
M  V30 321 H 34.5852 1.54505 1.18475 0
M  V30 322 H 32.7562 1.22778 3.68484 0
M  V30 323 H 34.4882 1.45828 3.77513 0
M  V30 324 H 31.2432 3.41592 3.28043 0
M  V30 325 H 31.6672 6.02926 3.07912 0
M  V30 326 H 36.3092 3.13598 2.83577 0
M  V30 327 H 34.0272 7.58783 2.77982 0
M  V30 328 H 37.6132 5.22053 2.56812 0
M  V30 329 H 36.4932 7.41844 2.54239 0
M  V30 330 N 33.9963 -1.19345 1.0293 0
M  V30 331 C 34.9593 -2.20793 0.615069 0
M  V30 332 C 35.9593 -1.57553 -0.321533 0
M  V30 333 O 37.1493 -1.73862 -0.108483 0
M  V30 334 C 34.2813 -3.40754 -0.0999222 0
M  V30 335 H 35.4743 -2.58955 1.51269 0
M  V30 336 H 33.0273 -1.3303 0.820534 0
M  V30 337 H 33.7623 -3.0811 -1.01187 0
M  V30 338 H 33.5473 -3.87889 0.57309 0
M  V30 339 H 35.0373 -4.15898 -0.376645 0
M  V30 340 N 35.4744 -0.807222 -1.35358 0
M  V30 341 C 36.7224 -0.387122 -1.98358 0
M  V30 342 C 37.0434 1.04942 -1.64354 0
M  V30 343 O 36.3134 1.72615 -0.926339 0
M  V30 344 H 34.8934 -0.140154 -0.733734 0
M  V30 345 H 37.5554 -1.0332 -1.6526 0
M  V30 346 H 36.6514 -0.493352 -3.08176 0
M  V30 347 N 36.9525 1.47285 -0.560781 0
M  V30 348 C 38.3685 1.58065 -0.22081 0
M  V30 349 C 38.5685 1.55892 1.27671 0
M  V30 350 O 37.6245 1.46422 2.0571 0
M  V30 351 C 38.9375 2.88418 -0.850625 0
M  V30 352 C 40.4855 3.02009 -0.822184 0
M  V30 353 C 40.9605 4.35066 -1.43113 0
M  V30 354 N 42.4515 4.41711 -1.39448 0
M  V30 355 C 43.1865 5.43237 -1.83525 0
M  V30 356 N 42.6825 6.51555 -2.35474 0
M  V30 357 N 44.4755 5.34304 -1.74574 0
M  V30 358 H 36.6265 1.46941 -1.53369 0
M  V30 359 H 38.8895 0.699558 -0.639783 0
M  V30 360 H 38.5955 2.95755 -1.9032 0
M  V30 361 H 38.4695 3.75612 -0.345773 0
M  V30 362 H 40.8565 2.94266 0.221714 0
M  V30 363 H 40.9375 2.16347 -1.36483 0
M  V30 364 H 40.5815 4.43565 -2.47412 0
M  V30 365 H 40.5115 5.19465 -0.863899 0
M  V30 366 H 43.0025 3.64027 -1.01452 0
M  V30 367 H 43.3155 7.25203 -2.67021 0
M  V30 368 H 41.6605 6.52435 -2.39487 0
M  V30 369 H 44.8515 4.48581 -1.33763 0
M  V30 370 H 45.0245 6.13288 -2.09242 0
M  V30 371 N 38.4306 0.297415 1.54768 0
M  V30 372 C 39.6786 -0.312295 1.99673 0
M  V30 373 C 39.9996 -1.54686 1.18732 0
M  V30 374 O 39.2696 -1.93854 0.282382 0
M  V30 375 H 37.8496 -0.118381 0.73756 0
M  V30 376 H 40.5116 0.407915 1.90583 0
M  V30 377 H 39.6076 -0.586813 3.06534 0
M  V30 378 N 39.9087 -1.5758 0.0250728 0
M  V30 379 C 41.1567 -1.91255 -0.653151 0
M  V30 380 C 41.4777 -0.901691 -1.729 0
M  V30 381 O 40.7477 0.0573785 -1.95816 0
M  V30 382 H 39.3277 -0.705942 -0.244243 0
M  V30 383 H 41.9897 -1.94767 0.0719209 0
M  V30 384 H 41.0857 -2.91752 -1.10847 0
M  V30 385 N 41.3868 0.248026 -1.55636 0
M  V30 386 C 42.3498 1.29044 -1.89421 0
M  V30 387 C 43.3498 1.41134 -0.770581 0
M  V30 388 O 44.5398 1.39854 -1.03858 0
M  V30 389 C 41.6718 2.66831 -2.12165 0
M  V30 390 H 42.8648 1.00305 -2.82629 0
M  V30 391 H 40.4178 0.487265 -1.48511 0
M  V30 392 H 41.1528 3.00711 -1.21422 0
M  V30 393 H 40.9378 2.59438 -2.93997 0
M  V30 394 H 42.4278 3.42103 -2.3949 0
M  V30 395 N 42.8649 1.48995 0.513639 0
M  V30 396 C 43.8279 1.64229 1.59879 0
M  V30 397 C 44.8279 0.514696 1.5234 0
M  V30 398 O 46.0179 0.78087 1.55718 0
M  V30 399 C 43.1499 1.62783 2.99524 0
M  V30 400 H 44.3429 2.61004 1.47705 0
M  V30 401 H 41.8959 1.37837 0.736936 0
M  V30 402 H 42.6309 0.675461 3.17188 0
M  V30 403 H 42.4159 2.4466 3.06404 0
M  V30 404 H 43.9059 1.76669 3.78388 0
M  V30 405 N 44.343 -0.763751 1.37857 0
M  V30 406 C 45.306 -1.85889 1.34081 0
M  V30 407 C 46.306 -1.58949 0.243277 0
M  V30 408 O 47.496 -1.66882 0.499589 0
M  V30 409 C 44.628 -3.23176 1.08489 0
M  V30 410 H 45.821 -1.90648 2.31502 0
M  V30 411 H 43.374 -0.964367 1.23003 0
M  V30 412 H 44.109 -3.24091 0.116318 0
M  V30 413 H 43.894 -3.44124 1.8794 0
M  V30 414 H 45.384 -4.03254 1.08517 0
M  V30 415 N 45.8211 -1.22559 -0.990812 0
M  V30 416 C 47.2321 -1.04791 -1.54518 0
M  V30 417 C 47.5831 0.387998 -1.92325 0
M  V30 418 O 46.7081 1.27328 -1.74976 0
M  V30 419 C 47.3031 -1.896 -2.80779 0
M  V30 420 C 45.8621 -1.76124 -3.32652 0
M  V30 421 C 45.0091 -1.8594 -2.05722 0
M  V30 422 H 47.9601 -1.36374 -0.811662 0
M  V30 423 H 47.9811 -1.41464 -3.53225 0
M  V30 424 H 47.4931 -2.94101 -2.53231 0
M  V30 425 H 45.5941 -0.743643 -3.65104 0
M  V30 426 H 45.7071 -2.58913 -4.03114 0
M  V30 427 H 44.0711 -1.29403 -2.19379 0
M  V30 428 H 44.8541 -2.91976 -1.80568 0
M  V30 429 N 47.2992 1.18797 -1.03562 0
M  V30 430 C 48.5272 1.92599 -0.755869 0
M  V30 431 C 48.9422 1.75886 0.686271 0
M  V30 432 O 48.2992 1.08517 1.46732 0
M  V30 433 C 48.3502 3.44159 -1.10619 0
M  V30 434 O 48.0712 3.60341 -2.4917 0
M  V30 435 C 49.5722 4.3507 -0.850214 0
M  V30 436 H 46.7922 0.611587 -0.276048 0
M  V30 437 H 49.3362 1.50742 -1.38192 0
M  V30 438 H 47.4912 3.83823 -0.525194 0
M  V30 439 H 47.9052 4.54128 -2.62427 0
M  V30 440 H 49.3792 5.39989 -1.14523 0
M  V30 441 H 49.8562 4.38673 0.215176 0
M  V30 442 H 50.4622 4.01097 -1.41426 0
M  V30 443 N 48.7773 0.814389 1.34928 0
M  V30 444 C 49.7403 0.235759 2.27984 0
M  V30 445 C 50.7403 -0.581412 1.49921 0
M  V30 446 O 51.9303 -0.398758 1.69575 0
M  V30 447 C 49.0623 -0.670433 3.34242 0
M  V30 448 H 50.2553 1.05659 2.80671 0
M  V30 449 H 47.8083 0.585614 1.44915 0
M  V30 450 H 48.5433 -1.51466 2.86755 0
M  V30 451 H 48.3283 -0.0860822 3.92005 0
M  V30 452 H 49.8183 -1.06935 4.03676 0
M  V30 453 N 50.2554 -1.46986 0.568584 0
M  V30 454 C 51.6664 -1.86188 0.138219 0
M  V30 455 C 52.0174 -1.47388 -1.29504 0
M  V30 456 O 51.1424 -0.88219 -1.97602 0
M  V30 457 C 51.7374 -3.3792 0.244065 0
M  V30 458 C 50.2964 -3.76171 -0.131335 0
M  V30 459 C 49.4434 -2.71027 0.586465 0
M  V30 460 H 52.3944 -1.38342 0.777645 0
M  V30 461 H 52.4154 -3.76729 -0.534351 0
M  V30 462 H 51.9274 -3.66128 1.28731 0
M  V30 463 H 50.0284 -3.5358 -1.17526 0
M  V30 464 H 50.1414 -4.78523 0.235146 0
M  V30 465 H 48.5054 -2.54684 0.0282722 0
M  V30 466 H 49.2884 -3.02077 1.63109 0
M  V30 467 N 51.7335 -0.305618 -1.54608 0
M  V30 468 C 52.6815 0.584119 -2.25146 0
M  V30 469 C 53.6755 1.13326 -1.25911 0
M  V30 470 O 54.8815 1.08337 -1.43747 0
M  V30 471 H 51.2565 0.206983 -0.722954 0
M  V30 472 H 53.2275 -0.033291 -2.98381 0
M  V30 473 C 51.9765 1.74225 -3.009 0
M  V30 474 H 51.2995 1.32892 -3.77067 0
M  V30 475 H 52.7395 2.34077 -3.53531 0
M  V30 476 C 51.1985 2.64914 -2.0814 0
M  V30 477 O 51.7285 3.66137 -1.65246 0
M  V30 478 N 49.9345 2.3275 -1.74 0
M  V30 479 H 49.4815 1.50479 -2.09078 0
M  V30 480 H 49.4395 2.93694 -1.12211 0
M  V30 481 N 53.2116 1.57565 -0.0334293 0
M  V30 482 C 54.4596 1.91598 0.642999 0
M  V30 483 C 54.7806 0.910847 1.7242 0
M  V30 484 O 54.0506 -0.0469931 1.95844 0
M  V30 485 H 52.6306 0.707228 0.240496 0
M  V30 486 H 55.2926 1.94726 -0.0822488 0
M  V30 487 H 54.3886 2.92336 1.09298 0
M  V30 488 N 54.6897 -0.239769 1.55765 0
M  V30 489 C 55.9177 -0.98417 1.81994 0
M  V30 490 C 56.3327 -1.7867 0.610124 0
M  V30 491 O 55.6897 -1.77571 -0.421271 0
M  V30 492 C 55.7407 -1.91635 3.06526 0
M  V30 493 O 55.4617 -1.14629 4.22838 0
M  V30 494 C 56.9627 -2.77616 3.45607 0
M  V30 495 H 54.1827 -0.28928 0.605441 0
M  V30 496 H 56.7267 -0.260499 2.02834 0
M  V30 497 H 54.8817 -2.5942 2.87715 0
M  V30 498 H 55.2957 -1.77745 4.93464 0
M  V30 499 H 56.7697 -3.38759 4.35828 0
M  V30 500 H 57.2467 -3.4909 2.6652 0
M  V30 501 H 57.8527 -2.15271 3.66795 0
M  V30 502 N 56.1678 -1.49265 -0.50573 0
M  V30 503 C 57.0978 -1.68495 -1.61653 0
M  V30 504 C 58.0788 -0.53366 -1.61512 0
M  V30 505 O 59.2638 -0.76897 -1.78327 0
M  V30 506 C 56.3938 -1.74709 -3.00157 0
M  V30 507 C 55.3478 -2.89581 -3.15162 0
M  V30 508 C 54.6738 -2.80903 -4.5497 0
M  V30 509 C 55.9738 -4.30578 -2.95634 0
M  V30 510 H 57.6678 -2.61493 -1.45814 0
M  V30 511 H 55.2138 -1.25838 -0.70005 0
M  V30 512 H 57.1668 -1.86748 -3.77761 0
M  V30 513 H 55.8908 -0.783067 -3.17074 0
M  V30 514 H 54.5498 -2.77136 -2.39982 0
M  V30 515 H 54.1978 -1.82419 -4.68756 0
M  V30 516 H 53.8978 -3.57999 -4.65951 0
M  V30 517 H 55.4218 -2.94944 -5.34641 0
M  V30 518 H 56.8358 -4.4373 -3.63011 0
M  V30 519 H 55.2328 -5.0886 -3.18091 0
M  V30 520 H 56.3028 -4.45352 -1.91806 0
M  V30 521 N 57.6459 0.756429 -1.3826 0
M  V30 522 C 58.5559 1.9009 -1.37488 0
M  V30 523 C 59.5719 1.71855 -0.272366 0
M  V30 524 O 60.7479 1.94827 -0.510318 0
M  V30 525 C 57.8129 3.25421 -1.19592 0
M  V30 526 C 56.8739 3.56202 -2.39622 0
M  V30 527 C 56.1069 4.85075 -2.2257 0
M  V30 528 O 56.3299 5.57246 -1.21793 0
M  V30 529 O 55.2639 5.15269 -3.11098 0
M  V30 530 H 59.0899 1.93695 -2.33914 0
M  V30 531 H 56.6749 0.901313 -1.1915 0
M  V30 532 H 58.5569 4.06337 -1.11661 0
M  V30 533 H 57.2319 3.22634 -0.262486 0
M  V30 534 H 56.1389 2.75458 -2.53128 0
M  V30 535 H 57.4719 3.63747 -3.31586 0
M  V30 536 N 59.124 1.23083 0.984299 0
M  V30 537 C 60.087 1.00979 2.05757 0
M  V30 538 C 61.087 -0.0269573 1.60777 0
M  V30 539 O 62.277 0.212403 1.729 0
M  V30 540 C 59.409 0.527072 3.36801 0
M  V30 541 H 60.602 1.9622 2.26799 0
M  V30 542 H 58.155 1.05072 1.15714 0
M  V30 543 H 58.89 -0.429294 3.21446 0
M  V30 544 H 58.675 1.27515 3.70786 0
M  V30 545 H 60.165 0.392942 4.15747 0
M  V30 546 N 60.6021 -1.18246 1.0419 0
M  V30 547 C 61.5121 -2.25574 0.644476 0
M  V30 548 C 62.5281 -1.70845 -0.329826 0
M  V30 549 O 63.7041 -2.00554 -0.184443 0
M  V30 550 C 60.7691 -3.46697 0.014877 0
M  V30 551 C 59.8301 -4.16554 1.03834 0
M  V30 552 C 59.0631 -5.31894 0.438692 0
M  V30 553 O 59.2861 -5.65385 -0.754752 0
M  V30 554 O 58.2201 -5.90459 1.168 0
M  V30 555 H 62.0461 -2.61836 1.53869 0
M  V30 556 H 59.6311 -1.25352 0.812854 0
M  V30 557 H 61.5131 -4.20062 -0.335538 0
M  V30 558 H 60.1881 -3.12255 -0.853138 0
M  V30 559 H 59.0951 -3.45251 1.44057 0
M  V30 560 H 60.4281 -4.54998 1.87716 0
M  V30 561 N 62.0802 -0.821533 -1.34494 0
M  V30 562 C 63.0102 -0.257138 -2.3208 0
M  V30 563 C 63.9912 0.625645 -1.58176 0
M  V30 564 O 65.1762 0.552811 -1.86166 0
M  V30 565 C 62.3062 0.582958 -3.42372 0
M  V30 566 C 61.2602 -0.202571 -4.2752 0
M  V30 567 C 60.5862 0.760179 -5.29269 0
M  V30 568 C 61.8862 -1.40998 -5.02908 0
M  V30 569 H 63.5802 -1.07247 -2.79532 0
M  V30 570 H 61.1262 -0.517163 -1.34393 0
M  V30 571 H 63.0792 0.987972 -4.09655 0
M  V30 572 H 61.8032 1.43133 -2.93565 0
M  V30 573 H 60.4622 -0.588936 -3.61838 0
M  V30 574 H 60.1102 1.60447 -4.76724 0
M  V30 575 H 59.8102 0.238809 -5.87115 0
M  V30 576 H 61.3342 1.16308 -5.9942 0
M  V30 577 H 62.7482 -1.07905 -5.63054 0
M  V30 578 H 61.1452 -1.86689 -5.70322 0
M  V30 579 H 62.2152 -2.1889 -4.32684 0
M  V30 580 N 63.5583 1.46682 -0.576371 0
M  V30 581 C 64.4683 2.34032 0.163141 0
M  V30 582 C 65.4843 1.49367 0.892501 0
M  V30 583 O 66.6603 1.82252 0.857106 0
M  V30 584 C 63.7253 3.26435 1.16795 0
M  V30 585 C 62.7863 4.26998 0.443944 0
M  V30 586 C 62.0193 5.14986 1.40088 0
M  V30 587 O 62.2423 5.05785 2.637 0
M  V30 588 O 61.1763 5.94906 0.914917 0
M  V30 589 H 65.0023 2.98607 -0.55388 0
M  V30 590 H 62.5873 1.45554 -0.336821 0
M  V30 591 H 64.4693 3.83459 1.74748 0
M  V30 592 H 63.1443 2.64465 1.86655 0
M  V30 593 H 62.0513 3.7368 -0.177271 0
M  V30 594 H 63.3843 4.91736 -0.213566 0
M  V30 595 N 65.0364 0.313813 1.54444 0
M  V30 596 C 66.4524 -0.0391619 1.59552 0
M  V30 597 C 66.6524 -1.51322 1.33056 0
M  V30 598 O 65.7084 -2.26782 1.11022 0
M  V30 599 C 67.0214 0.370302 2.98411 0
M  V30 600 C 68.5694 0.320139 3.11358 0
M  V30 601 C 69.0444 0.704617 4.52547 0
M  V30 602 N 70.5354 0.657645 4.58508 0
M  V30 603 C 71.2704 0.927453 5.6585 0
M  V30 604 N 70.7664 1.26389 6.81174 0
M  V30 605 N 72.5594 0.853662 5.5558 0
M  V30 606 H 64.7104 1.27433 1.69925 0
M  V30 607 H 66.9734 0.517511 0.794284 0
M  V30 608 H 66.6794 1.39694 3.22767 0
M  V30 609 H 66.5534 -0.269619 3.76235 0
M  V30 610 H 68.9404 -0.697275 2.86744 0
M  V30 611 H 69.0214 0.99486 2.35661 0
M  V30 612 H 68.6654 1.7199 4.77893 0
M  V30 613 H 68.5954 0.00768843 5.26599 0
M  V30 614 H 71.0864 0.409067 3.75679 0
M  V30 615 H 71.3994 1.4554 7.58972 0
M  V30 616 H 69.7444 1.30206 6.82694 0
M  V30 617 H 72.9354 0.590383 4.64362 0
M  V30 618 H 73.1084 1.0673 6.3915 0
M  V30 619 N 66.5145 -1.57545 0.0417849 0
M  V30 620 C 67.9305 -1.56467 -0.314704 0
M  V30 621 C 68.1305 -1.04859 -1.72066 0
M  V30 622 O 67.1865 -0.700983 -2.42575 0
M  V30 623 C 68.4995 -3.00317 -0.15174 0
M  V30 624 C 70.0475 -3.12201 -0.223553 0
M  V30 625 C 70.5225 -4.57913 -0.0892295 0
M  V30 626 N 72.0135 -4.6297 -0.145808 0
M  V30 627 C 72.7485 -5.73362 -0.0658459 0
M  V30 628 N 72.2445 -6.92769 0.0659282 0
M  V30 629 N 74.0375 -5.6197 -0.12075 0
M  V30 630 H 66.1885 -1.89416 0.961014 0
M  V30 631 H 68.4515 -0.871862 0.372237 0
M  V30 632 H 68.1575 -3.42073 0.817254 0
M  V30 633 H 68.0315 -3.65892 -0.916692 0
M  V30 634 H 70.4185 -2.70349 -1.18301 0
M  V30 635 H 70.4995 -2.49323 0.571994 0
M  V30 636 H 70.1435 -5.00448 0.866867 0
M  V30 637 H 70.0735 -5.18786 -0.903802 0
M  V30 638 H 72.5645 -3.7709 -0.247286 0
M  V30 639 H 72.8775 -7.72707 0.119905 0
M  V30 640 H 71.2225 -6.94927 0.100885 0
M  V30 641 H 74.4135 -4.67572 -0.222187 0
M  V30 642 H 74.5865 -6.47977 -0.0549735 0
M  V30 643 N 67.9926 0.231505 -1.5589 0
M  V30 644 C 69.2386 0.954429 -1.79617 0
M  V30 645 C 69.5936 1.82367 -0.613199 0
M  V30 646 O 68.8866 1.87524 0.393094 0
M  V30 647 C 69.0806 1.83577 -3.0665 0
M  V30 648 C 68.9096 1.05334 -4.3719 0
M  V30 649 C 67.6796 0.75225 -4.99669 0
M  V30 650 C 69.8776 0.423444 -5.12554 0
M  V30 651 N 67.8596 -0.052627 -6.13877 0
M  V30 652 C 69.2306 -0.245287 -6.19515 0
M  V30 653 C 71.2856 0.335466 -4.96769 0
M  V30 654 C 69.9886 -0.993566 -7.12405 0
M  V30 655 C 72.0146 -0.399321 -5.9005 0
M  V30 656 C 71.3766 -1.05663 -6.9643 0
M  V30 657 H 67.4756 0.329846 -0.709031 0
M  V30 658 H 70.0596 0.226172 -1.93382 0
M  V30 659 H 68.2306 2.53592 -2.94186 0
M  V30 660 H 69.9626 2.49541 -3.18608 0
M  V30 661 H 66.7176 1.06783 -4.61405 0
M  V30 662 H 67.1416 -0.443609 -6.75545 0
M  V30 663 H 71.7836 0.829311 -4.14587 0
M  V30 664 H 69.5016 -1.49896 -7.94076 0
M  V30 665 H 73.0876 -0.468265 -5.79913 0
M  V30 666 H 71.9676 -1.61612 -7.67366 0
M  V30 667 N 69.4707 1.49531 0.497807 0
M  V30 668 C 70.3807 1.69176 1.62532 0
M  V30 669 C 71.3967 0.5744 1.64246 0
M  V30 670 O 72.5727 0.849497 1.82608 0
M  V30 671 C 69.6377 1.75695 2.98885 0
M  V30 672 C 68.6987 2.9929 3.07773 0
M  V30 673 C 67.9317 3.05488 4.37622 0
M  V30 674 O 68.1547 2.19192 5.26603 0
M  V30 675 O 67.0887 3.9798 4.51548 0
M  V30 676 H 70.9147 2.647 1.48887 0
M  V30 677 H 68.4997 1.3331 0.674441 0
M  V30 678 H 70.3817 1.82317 3.79919 0
M  V30 679 H 69.0567 0.8335 3.12785 0
M  V30 680 H 67.9637 2.98183 2.25915 0
M  V30 681 H 69.2967 3.91125 2.98801 0
M  V30 682 N 70.9488 -0.749086 1.3866 0
M  V30 683 C 72.1738 -1.54344 1.38538 0
M  V30 684 C 72.5988 -1.88088 -0.0216655 0
M  V30 685 O 71.9568 -1.50899 -1.00494 0
M  V30 686 C 72.0048 -2.8164 2.25192 0
M  V30 687 O 71.1088 -3.7698 1.67212 0
M  V30 688 H 70.4498 -0.466654 0.472367 0
M  V30 689 H 72.9798 -0.925355 1.82478 0
M  V30 690 H 72.9898 -3.30519 2.3921 0
M  V30 691 H 71.6648 -2.56411 3.27454 0
M  V30 692 H 70.2418 -3.35699 1.6236 0
M  V30 693 N 72.4269 -1.23603 -0.977757 0
M  V30 694 C 73.3569 -1.04401 -2.0886 0
M  V30 695 C 74.3379 0.0399052 -1.70053 0
M  V30 696 O 75.5229 -0.125246 -1.93796 0
M  V30 697 C 72.6529 -0.637269 -3.41403 0
M  V30 698 C 71.6069 -1.66883 -3.94124 0
M  V30 699 C 70.9329 -1.11745 -5.22893 0
M  V30 700 C 72.2329 -3.06247 -4.23096 0
M  V30 701 H 73.9269 -1.97316 -2.25182 0
M  V30 702 H 71.4729 -0.950096 -1.08209 0
M  V30 703 H 73.4259 -0.48998 -4.18542 0
M  V30 704 H 72.1499 0.327557 -3.24953 0
M  V30 705 H 70.8089 -1.80416 -3.19133 0
M  V30 706 H 70.4569 -0.143527 -5.02795 0
M  V30 707 H 70.1569 -1.80672 -5.59134 0
M  V30 708 H 71.6809 -0.982067 -6.02651 0
M  V30 709 H 73.0949 -2.96001 -4.90975 0
M  V30 710 H 71.4919 -3.72436 -4.70544 0
M  V30 711 H 72.5619 -3.55041 -3.30263 0
M  V30 712 N 73.905 1.17692 -1.04816 0
M  V30 713 C 75.151 1.88137 -0.75711 0
M  V30 714 C 75.484 1.80604 0.713841 0
M  V30 715 O 74.759 1.21146 1.52164 0
M  V30 716 C 75.042 3.38318 -1.2334 0
M  V30 717 C 74.895 3.54622 -2.76701 0
M  V30 718 C 76.214 4.32214 -0.829415 0
M  V30 719 H 73.333 0.683163 -0.27651 0
M  V30 720 H 75.975 1.38424 -1.30149 0
M  V30 721 H 74.125 3.80787 -0.770286 0
M  V30 722 H 75.797 3.21194 -3.31107 0
M  V30 723 H 74.04 2.97026 -3.16161 0
M  V30 724 H 74.711 4.60028 -3.05088 0
M  V30 725 H 77.187 3.97565 -1.22805 0
M  V30 726 H 76.063 5.35838 -1.19033 0
M  V30 727 H 76.324 4.41294 0.266891 0
M  V30 728 N 75.3831 0.828654 1.34056 0
M  V30 729 C 76.3461 0.259927 2.27721 0
M  V30 730 C 77.3461 -0.565478 1.50529 0
M  V30 731 O 78.5361 -0.38075 1.69988 0
M  V30 732 C 75.6681 -0.634944 3.34935 0
M  V30 733 H 76.8611 1.0863 2.79534 0
M  V30 734 H 74.4141 0.600951 1.44285 0
M  V30 735 H 75.1491 -1.48416 2.88346 0
M  V30 736 H 74.9341 -0.0444999 3.92075 0
M  V30 737 H 76.4241 -1.02648 4.04788 0
M  V30 738 N 76.8612 -1.46375 0.584142 0
M  V30 739 C 77.7912 -2.33103 -0.136037 0
M  V30 740 C 78.7722 -1.45431 -0.882255 0
M  V30 741 O 79.9572 -1.74246 -0.857434 0
M  V30 742 C 77.0872 -3.27731 -1.14933 0
M  V30 743 C 76.0412 -4.24855 -0.517862 0
M  V30 744 C 75.3672 -5.09001 -1.63773 0
M  V30 745 C 76.6672 -5.19439 0.545886 0
M  V30 746 H 78.3612 -2.93568 0.588086 0
M  V30 747 H 75.9072 -1.41166 0.284259 0
M  V30 748 H 77.8602 -3.87261 -1.66153 0
M  V30 749 H 76.5842 -2.65377 -1.90375 0
M  V30 750 H 75.2432 -3.6659 -0.0267361 0
M  V30 751 H 74.8912 -4.43031 -2.38185 0
M  V30 752 H 74.5912 -5.74777 -1.22085 0
M  V30 753 H 76.1152 -5.71396 -2.15266 0
M  V30 754 H 77.5292 -5.73177 0.118704 0
M  V30 755 H 75.9262 -5.93566 0.88317 0
M  V30 756 H 76.9962 -4.63285 1.43162 0
M  V30 757 N 78.3393 -0.321999 -1.54275 0
M  V30 758 C 79.5643 0.285791 -2.05422 0
M  V30 759 C 79.9893 1.45124 -1.19669 0
M  V30 760 O 79.3473 1.80132 -0.205441 0
M  V30 761 C 79.3953 0.69956 -3.53749 0
M  V30 762 O 78.4993 1.8021 -3.70942 0
M  V30 763 H 77.8403 0.0518962 -0.661969 0
M  V30 764 H 80.3703 -0.469954 -1.9913 0
M  V30 765 H 80.3803 0.982649 -3.9599 0
M  V30 766 H 79.0553 -0.152864 -4.15619 0
M  V30 767 H 77.6323 1.51794 -3.40607 0
M  V30 768 N 79.8174 1.5752 -0.0501392 0
M  V30 769 C 80.7474 2.14502 0.922566 0
M  V30 770 C 81.7284 1.06642 1.3252 0
M  V30 771 O 82.9134 1.34577 1.4001 0
M  V30 772 C 80.0434 2.68916 2.19776 0
M  V30 773 C 78.9974 3.8175 1.93523 0
M  V30 774 C 78.3234 4.22677 3.27487 0
M  V30 775 C 79.6234 5.06932 1.25765 0
M  V30 776 H 81.3174 2.9603 0.447952 0
M  V30 777 H 78.8634 1.42401 0.214024 0
M  V30 778 H 80.8164 3.07419 2.88222 0
M  V30 779 H 79.5404 1.84578 2.69441 0
M  V30 780 H 78.1994 3.43718 1.27489 0
M  V30 781 H 77.8474 3.35291 3.74952 0
M  V30 782 H 77.5474 4.98725 3.1072 0
M  V30 783 H 79.0714 4.63779 3.97166 0
M  V30 784 H 80.4854 5.42888 1.84244 0
M  V30 785 H 78.8824 5.88116 1.19328 0
M  V30 786 H 79.9524 4.84337 0.233536 0
M  V30 787 N 81.2955 -0.223234 1.56011 0
M  V30 788 C 82.2585 -1.26014 1.9145 0
M  V30 789 C 83.2585 -1.3989 0.792937 0
M  V30 790 O 84.4485 -1.38184 1.0607 0
M  V30 791 C 81.5805 -2.63422 2.16383 0
M  V30 792 H 82.7735 -0.95796 2.84189 0
M  V30 793 H 80.3265 -0.463576 1.49267 0
M  V30 794 H 81.0615 -2.98741 1.2619 0
M  V30 795 H 80.8465 -2.54728 2.98088 0
M  V30 796 H 82.3365 -3.38249 2.44903 0
M  V30 797 N 82.7736 -1.49793 -0.48987 0
M  V30 798 C 84.1896 -1.36803 -0.822022 0
M  V30 799 C 84.3896 -0.409652 -1.97292 0
M  V30 800 O 83.4456 0.154614 -2.52026 0
M  V30 801 C 84.7586 -2.77768 -1.15175 0
M  V30 802 C 86.3066 -2.86549 -1.25931 0
M  V30 803 C 86.7816 -4.28306 -1.62228 0
M  V30 804 N 88.2726 -4.31169 -1.69256 0
M  V30 805 C 89.0076 -5.37832 -1.98807 0
M  V30 806 N 88.5036 -6.54726 -2.26507 0
M  V30 807 N 90.2966 -5.25258 -2.00152 0
M  V30 808 H 82.4476 -2.10691 0.268881 0
M  V30 809 H 84.7106 -0.946241 0.057728 0
M  V30 810 H 84.4166 -3.49648 -0.379335 0
M  V30 811 H 84.2906 -3.13836 -2.09253 0
M  V30 812 H 86.6776 -2.14899 -2.02243 0
M  V30 813 H 86.7586 -2.54049 -0.298776 0
M  V30 814 H 86.4026 -5.00486 -0.864622 0
M  V30 815 H 86.3326 -4.58279 -2.594 0
M  V30 816 H 88.8236 -3.4687 -1.49965 0
M  V30 817 H 89.1366 -7.31833 -2.48276 0
M  V30 818 H 87.4816 -6.57933 -2.23939 0
M  V30 819 H 90.6726 -4.32938 -1.77996 0
M  V30 820 H 90.8456 -6.08476 -2.22848 0
M  V30 821 N 84.2517 0.741722 -1.39055 0
M  V30 822 C 85.1817 1.869 -1.39966 0
M  V30 823 C 86.1627 1.6804 -0.26392 0
M  V30 824 O 87.3477 1.88458 -0.468755 0
M  V30 825 C 84.4777 3.24572 -1.23574 0
M  V30 826 C 83.4317 3.58056 -2.34477 0
M  V30 827 C 82.7577 4.94593 -2.0318 0
M  V30 828 C 84.0577 3.61716 -3.76774 0
M  V30 829 H 85.7517 1.86395 -2.34302 0
M  V30 830 H 83.2977 0.895361 -1.1278 0
M  V30 831 H 85.2507 4.031 -1.22834 0
M  V30 832 H 83.9747 3.25587 -0.257045 0
M  V30 833 H 82.6337 2.81854 -2.34423 0
M  V30 834 H 82.2817 4.92181 -1.03765 0
M  V30 835 H 81.9817 5.17964 -2.77465 0
M  V30 836 H 83.5057 5.75486 -2.04079 0
M  V30 837 H 84.9197 4.30335 -3.78794 0
M  V30 838 H 83.3167 3.96603 -4.50362 0
M  V30 839 H 84.3867 2.61672 -4.08235 0
M  V30 840 N 85.7298 1.2412 0.971189 0
M  V30 841 C 87.1408 1.07236 1.52831 0
M  V30 842 C 87.4918 -0.357352 1.92918 0
M  V30 843 O 86.6168 -1.24528 1.76979 0
M  V30 844 C 87.2118 1.94043 2.77728 0
M  V30 845 C 85.7708 1.81394 3.29808 0
M  V30 846 C 84.9178 1.89189 2.02738 0
M  V30 847 H 87.8688 1.37648 0.789864 0
M  V30 848 H 87.8898 1.47066 3.5093 0
M  V30 849 H 87.4018 2.98093 2.4852 0
M  V30 850 H 85.5028 0.801634 3.63874 0
M  V30 851 H 85.6158 2.65294 3.98944 0
M  V30 852 H 83.9798 1.32877 2.17292 0
M  V30 853 H 84.7628 2.94812 1.759 0
M  V30 854 N 87.2079 -1.17134 1.05439 0
M  V30 855 C 88.4539 -1.87733 0.767077 0
M  V30 856 C 88.7869 -1.8098 -0.704253 0
M  V30 857 O 88.0619 -1.21951 -1.5152 0
M  V30 858 C 88.3449 -3.37659 1.25133 0
M  V30 859 C 88.1979 -3.53149 2.78578 0
M  V30 860 C 89.5169 -4.31768 0.852324 0
M  V30 861 H 86.6359 -0.681687 0.280129 0
M  V30 862 H 89.2779 -1.37732 1.30881 0
M  V30 863 H 87.4279 -3.80373 0.790469 0
M  V30 864 H 89.0999 -3.19434 3.32806 0
M  V30 865 H 87.3429 -2.95345 3.17732 0
M  V30 866 H 88.0139 -4.58403 3.07523 0
M  V30 867 H 90.4899 -3.96909 1.24911 0
M  V30 868 H 89.3659 -5.35199 1.21873 0
M  V30 869 H 89.6269 -4.41429 -0.243485 0
M  V30 870 N 88.686 -0.835752 -1.33615 0
M  V30 871 C 89.649 -0.272 -2.2758 0
M  V30 872 C 90.649 0.557487 -1.50827 0
M  V30 873 O 91.839 0.37173 -1.70188 0
M  V30 874 C 88.971 0.617173 -3.35267 0
M  V30 875 H 90.164 -1.10111 -2.78954 0
M  V30 876 H 87.717 -0.608594 -1.43965 0
M  V30 877 H 88.452 1.46884 -2.89129 0
M  V30 878 H 88.237 0.0237066 -3.92093 0
M  V30 879 H 89.727 1.005 -4.05326 0
M  V30 880 N 90.1641 1.46063 -0.591896 0
M  V30 881 C 91.1271 2.28854 0.125973 0
M  V30 882 C 92.1271 1.38903 0.810107 0
M  V30 883 O 93.3171 1.61186 0.66066 0
M  V30 884 C 90.4491 3.19526 1.1881 0
M  V30 885 H 91.6421 2.93802 -0.601717 0
M  V30 886 H 89.1951 1.52325 -0.350254 0
M  V30 887 H 89.9301 2.59345 1.94707 0
M  V30 888 H 89.7151 3.85766 0.701936 0
M  V30 889 H 91.2051 3.81817 1.69132 0
M  V30 890 N 91.6422 0.330177 1.54103 0
M  V30 891 C 92.5742 -0.566902 2.22079 0
M  V30 892 C 93.5872 -1.07462 1.22294 0
M  V30 893 O 94.7762 -0.987065 1.48726 0
M  V30 894 C 91.8762 -1.79138 2.87685 0
M  V30 895 C 91.0492 -1.42123 4.13666 0
M  V30 896 C 90.1082 -2.50394 4.62806 0
M  V30 897 O 89.1342 -2.14261 5.27334 0
M  V30 898 N 90.3362 -3.81433 4.37595 0
M  V30 899 H 93.1012 0.0151844 2.99696 0
M  V30 900 H 90.6622 0.153681 1.61169 0
M  V30 901 H 92.6542 -2.50975 3.1748 0
M  V30 902 H 91.2242 -2.28115 2.13734 0
M  V30 903 H 90.4442 -0.534201 3.90564 0
M  V30 904 H 91.7322 -1.14971 4.9564 0
M  V30 905 H 91.1302 -4.13584 3.8596 0
M  V30 906 H 89.6872 -4.4948 4.72029 0
M  V30 907 N 93.1203 -1.57491 0.0584922 0
M  V30 908 C 94.5313 -1.80526 -0.476138 0
M  V30 909 C 94.8823 -0.971334 -1.70469 0
M  V30 910 O 94.0073 -0.190012 -2.15564 0
M  V30 911 C 94.6023 -3.27424 -0.870587 0
M  V30 912 C 93.1613 -3.51351 -1.35015 0
M  V30 913 C 92.3083 -2.75343 -0.32887 0
M  V30 914 H 95.2593 -1.56133 0.284312 0
M  V30 915 H 95.2803 -3.38745 -1.73299 0
M  V30 916 H 94.7923 -3.88093 0.0237627 0
M  V30 917 H 92.8933 -2.95971 -2.26345 0
M  V30 918 H 93.0063 -4.60059 -1.33726 0
M  V30 919 H 91.3703 -2.417 -0.803321 0
M  V30 920 H 92.1533 -3.38743 0.557521 0
M  V30 921 N 94.5984 0.214957 -1.56127 0
M  V30 922 C 95.5454 1.26642 -1.92952 0
M  V30 923 C 96.5154 1.46244 -0.78753 0
M  V30 924 O 97.7004 1.59704 -1.04399 0
M  V30 925 C 94.8404 2.6104 -2.25726 0
M  V30 926 C 93.9534 2.49183 -3.52891 0
M  V30 927 C 93.0884 3.76149 -3.7508 0
M  V30 928 C 92.1274 3.59041 -4.95738 0
M  V30 929 N 91.2644 4.77972 -5.14283 0
M  V30 930 H 96.1044 0.945384 -2.82607 0
M  V30 931 H 93.6414 0.455489 -1.3987 0
M  V30 932 H 95.5994 3.39313 -2.42739 0
M  V30 933 H 94.2294 2.91227 -1.39236 0
M  V30 934 H 93.2814 1.6231 -3.44034 0
M  V30 935 H 94.5934 2.32466 -4.41318 0
M  V30 936 H 93.7474 4.62865 -3.92226 0
M  V30 937 H 92.4864 3.95799 -2.84947 0
M  V30 938 H 91.4914 2.7071 -4.78535 0
M  V30 939 H 92.7164 3.40856 -5.87362 0
M  V30 940 H 90.6624 4.97923 -4.27093 0
M  V30 941 H 90.5794 4.64006 -5.96853 0
M  V30 942 H 91.8474 5.66096 -5.35869 0
M  V30 943 N 96.0765 1.50051 0.48192 0
M  V30 944 C 96.9865 1.7089 1.60728 0
M  V30 945 C 98.0025 0.591788 1.63627 0
M  V30 946 O 99.1785 0.868817 1.81696 0
M  V30 947 C 96.2435 1.78855 2.97005 0
M  V30 948 C 95.3045 3.02537 3.04581 0
M  V30 949 C 94.5375 3.10112 4.34357 0
M  V30 950 O 94.7605 2.24765 5.24249 0
M  V30 951 O 93.6945 4.02747 4.47301 0
M  V30 952 H 97.5205 2.66264 1.46072 0
M  V30 953 H 95.1055 1.34018 0.660264 0
M  V30 954 H 96.9875 1.86336 3.77964 0
M  V30 955 H 95.6625 0.866628 3.11883 0
M  V30 956 H 94.5695 3.00563 2.22739 0
M  V30 957 H 95.9025 3.94272 2.94636 0
M  V30 958 N 97.5546 -0.734337 1.39446 0
M  V30 959 C 98.5176 -1.83004 1.37994 0
M  V30 960 C 99.5176 -1.58397 0.276938 0
M  V30 961 O 100.708 -1.65785 0.534875 0
M  V30 962 C 97.8396 -3.20802 1.1532 0
M  V30 963 H 99.0326 -1.85694 2.35494 0
M  V30 964 H 96.5856 -0.938059 1.25021 0
M  V30 965 H 97.3206 -3.23772 0.185036 0
M  V30 966 H 97.1056 -3.4006 1.95197 0
M  V30 967 H 98.5956 -4.00862 1.17046 0
M  V30 968 N 99.0327 -1.24633 -0.964593 0
M  V30 969 C 99.9957 -1.0424 -2.04124 0
M  V30 970 C 100.996 0.00137563 -1.608 0
M  V30 971 O 102.186 -0.239883 -1.7254 0
M  V30 972 C 99.3177 -0.580588 -3.3592 0
M  V30 973 H 100.511 -1.99803 -2.23649 0
M  V30 974 H 98.0637 -1.06899 -1.14027 0
M  V30 975 H 98.7987 0.3781 -3.22088 0
M  V30 976 H 98.5837 -1.33398 -3.6871 0
M  V30 977 H 100.074 -0.459034 -4.15069 0
M  V30 978 N 100.511 1.16574 -1.06058 0
M  V30 979 C 101.757 1.87324 -0.777022 0
M  V30 980 C 102.09 1.81351 0.694645 0
M  V30 981 O 101.365 1.22753 1.50871 0
M  V30 982 C 101.648 3.36991 -1.26922 0
M  V30 983 C 101.501 3.51667 -2.80447 0
M  V30 984 C 102.82 4.3131 -0.87521 0
M  V30 985 H 99.9388 0.680191 -0.28374 0
M  V30 986 H 102.581 1.37036 -1.3161 0
M  V30 987 H 100.731 3.79949 -0.81063 0
M  V30 988 H 102.403 3.17664 -3.34495 0
M  V30 989 H 100.646 2.93656 -3.19294 0
M  V30 990 H 101.317 4.56766 -3.0995 0
M  V30 991 H 103.793 3.9624 -1.27014 0
M  V30 992 H 102.669 5.34545 -1.2471 0
M  V30 993 H 102.93 4.41552 0.220071 0
M  V30 994 N 101.989 0.842826 1.3317 0
M  V30 995 C 102.921 0.236245 2.27979 0
M  V30 996 C 103.934 -0.585282 1.51915 0
M  V30 997 O 105.123 -0.411705 1.73687 0
M  V30 998 C 102.223 -0.685717 3.3189 0
M  V30 999 C 101.396 0.0973448 4.37292 0
M  V30 1000 C 100.455 -0.748565 5.20848 0
M  V30 1001 O 99.4809 -0.186339 5.68895 0
M  V30 1002 N 100.683 -2.06527 5.42519 0
M  V30 1003 H 103.448 1.05088 2.80672 0
M  V30 1004 H 101.009 0.701667 1.45905 0
M  V30 1005 H 103.001 -1.25669 3.84694 0
M  V30 1006 H 101.571 -1.40105 2.79445 0
M  V30 1007 H 100.791 0.849706 3.84933 0
M  V30 1008 H 102.079 0.635643 5.04814 0
M  V30 1009 H 101.477 -2.54554 5.05192 0
M  V30 1010 H 100.034 -2.58464 5.98364 0
M  V30 1011 N 103.467 -1.45747 0.599634 0
M  V30 1012 C 104.692 -2.07178 0.0960198 0
M  V30 1013 C 105.117 -1.44268 -1.207 0
M  V30 1014 O 104.475 -0.532503 -1.73303 0
M  V30 1015 C 104.523 -3.60579 -0.0385348 0
M  V30 1016 O 103.627 -3.97713 -1.0908 0
M  V30 1017 H 102.968 -0.660251 0.0704593 0
M  V30 1018 H 105.498 -1.87124 0.827385 0
M  V30 1019 H 105.508 -4.07298 -0.239304 0
M  V30 1020 H 104.183 -4.05756 0.912947 0
M  V30 1021 H 102.76 -3.62678 -0.867135 0
M  V30 1022 N 104.945 -0.338344 -1.53925 0
M  V30 1023 C 106.193 0.259245 -2.0043 0
M  V30 1024 C 106.514 1.51484 -1.22791 0
M  V30 1025 O 105.784 1.93037 -0.33368 0
M  V30 1026 H 104.364 0.0987845 -0.740439 0
M  V30 1027 H 107.026 -0.458302 -1.89435 0
M  V30 1028 H 106.122 0.505334 -3.07982 0
M  V30 1029 N 106.423 1.57458 -0.0668435 0
M  V30 1030 C 107.386 2.11323 0.887422 0
M  V30 1031 C 108.386 1.03618 1.22964 0
M  V30 1032 O 109.576 1.29626 1.16373 0
M  V30 1033 C 106.708 2.61048 2.19242 0
M  V30 1034 H 107.901 2.96942 0.420194 0
M  V30 1035 H 105.454 1.55239 0.181793 0
M  V30 1036 H 106.189 1.78868 2.70512 0
M  V30 1037 H 105.974 3.39769 1.95702 0
M  V30 1038 H 107.464 3.02814 2.87565 0
M  V30 1039 N 107.901 -0.206675 1.56239 0
M  V30 1040 C 109.149 -0.927007 1.79586 0
M  V30 1041 C 109.47 -1.8427 0.637929 0
M  V30 1042 O 108.74 -1.92849 -0.344398 0
M  V30 1043 H 107.32 -0.345292 0.662407 0
M  V30 1044 H 109.982 -0.21496 1.93711 0
M  V30 1045 H 109.078 -1.52501 2.72305 0
M  V30 1046 N 109.379 -1.50304 -0.473955 0
M  V30 1047 C 110.656 -1.51667 -1.23518 0
M  V30 1048 C 111.036 -0.259701 -2.09496 0
M  V30 1049 O 110.384 0.756986 -2.15597 0
M  V30 1050 C 110.594 -2.81082 -2.06868 0
M  V30 1051 C 111.942 -3.31631 -2.65153 0
M  V30 1052 O 112.966 -2.82384 -2.17113 0
M  V30 1053 O 111.825 -4.17471 -3.52675 0
M  V30 1054 H 108.919 -0.60822 -0.560355 0
M  V30 1055 H 111.465 -1.62592 -0.486011 0
M  V30 1056 H 110.237 -3.64041 -1.4349 0
M  V30 1057 H 109.86 -2.73146 -2.88924 0
M  V30 1058 N 110.857 0.726932 -1.39834 0
M  V30 1059 C 112.087 1.51393 -1.40583 0
M  V30 1060 C 112.495 1.892 -0.000740625 0
M  V30 1061 O 111.838 1.55189 0.982951 0
M  V30 1062 C 111.9 2.82588 -2.22226 0
M  V30 1063 C 111.564 2.67169 -3.70769 0
M  V30 1064 C 112.561 2.3518 -4.63666 0
M  V30 1065 C 110.246 2.83788 -4.14451 0
M  V30 1066 C 112.24 2.20002 -5.98229 0
M  V30 1067 C 109.927 2.68229 -5.49087 0
M  V30 1068 C 110.925 2.36382 -6.4079 0
M  V30 1069 O 110.613 2.2093 -7.72946 0
M  V30 1070 H 110.345 0.474168 -0.48181 0
M  V30 1071 H 112.899 0.905247 -1.84376 0
M  V30 1072 H 111.129 3.45746 -1.73195 0
M  V30 1073 H 112.818 3.44247 -2.15055 0
M  V30 1074 H 113.584 2.21984 -4.31217 0
M  V30 1075 H 109.463 3.07566 -3.43401 0
M  V30 1076 H 113.007 1.95067 -6.69772 0
M  V30 1077 H 108.904 2.81006 -5.81125 0
M  V30 1078 H 109.672 2.35937 -7.83757 0
M  V30 1079 N 112.336 1.25143 0.95797 0
M  V30 1080 C 113.266 1.07711 2.07173 0
M  V30 1081 C 114.247 -0.0128462 1.70095 0
M  V30 1082 O 115.432 0.156061 1.93572 0
M  V30 1083 C 112.562 0.691503 3.40346 0
M  V30 1084 C 111.516 1.73132 3.9142 0
M  V30 1085 C 110.842 1.20049 5.21049 0
M  V30 1086 C 112.142 3.1294 4.1817 0
M  V30 1087 H 113.836 2.00873 2.22014 0
M  V30 1088 H 111.382 0.967191 1.06684 0
M  V30 1089 H 113.335 0.556505 4.17709 0
M  V30 1090 H 112.059 -0.275819 3.25433 0
M  V30 1091 H 110.718 1.8547 3.16222 0
M  V30 1092 H 110.366 0.223499 5.02503 0
M  V30 1093 H 110.066 1.89545 5.56189 0
M  V30 1094 H 111.59 1.07782 6.01012 0
M  V30 1095 H 113.004 3.03775 4.86203 0
M  V30 1096 H 111.401 3.79875 4.64559 0
M  V30 1097 H 112.471 3.6025 3.24573 0
M  V30 1098 N 113.814 -1.1601 1.06675 0
M  V30 1099 C 114.744 -2.22688 0.702307 0
M  V30 1100 C 115.725 -1.67306 -0.307032 0
M  V30 1101 O 116.91 -1.93352 -0.181305 0
M  V30 1102 C 114.04 -3.47178 0.092038 0
M  V30 1103 C 112.994 -4.15477 1.02777 0
M  V30 1104 C 112.32 -5.33963 0.28061 0
M  V30 1105 C 113.62 -4.66019 2.35846 0
M  V30 1106 H 115.314 -2.53429 1.59419 0
M  V30 1107 H 112.86 -1.21813 0.767961 0
M  V30 1108 H 114.813 -4.21037 -0.174814 0
M  V30 1109 H 113.537 -3.15749 -0.834877 0
M  V30 1110 H 112.196 -3.43549 1.27944 0
M  V30 1111 H 111.844 -4.98788 -0.649545 0
M  V30 1112 H 111.544 -5.806 0.904258 0
M  V30 1113 H 113.068 -6.10596 0.021396 0
M  V30 1114 H 114.482 -5.3144 2.15045 0
M  V30 1115 H 112.879 -5.23293 2.93743 0
M  V30 1116 H 113.949 -3.82023 2.98641 0
M  V30 1117 N 115.292 -0.849877 -1.32721 0
M  V30 1118 C 116.54 -0.450032 -1.97026 0
M  V30 1119 C 116.861 0.996604 -1.67609 0
M  V30 1120 O 116.131 1.6958 -0.980786 0
M  V30 1121 H 114.711 -0.163426 -0.728904 0
M  V30 1122 H 117.373 -1.08526 -1.6189 0
M  V30 1123 H 116.469 -0.591146 -3.0645 0
M  V30 1124 N 116.77 1.45427 -0.607355 0
M  V30 1125 C 118.019 2.01452 -0.100036 0
M  V30 1126 C 118.332 1.48159 1.27704 0
M  V30 1127 O 119.538 1.96159 1.87707 0
M  V30 1128 C 117.994 3.59672 -0.128158 0
M  V30 1129 C 117.602 4.21962 -1.50507 0
M  V30 1130 C 119.346 4.23262 0.323932 0
M  V30 1131 C 117.253 5.72333 -1.48959 0
M  V30 1132 H 116.183 0.75325 -0.0336299 0
M  V30 1133 H 118.834 1.66901 -0.76265 0
M  V30 1134 H 117.216 3.91411 0.601105 0
M  V30 1135 H 118.39 4.01796 -2.25602 0
M  V30 1136 H 116.705 3.70565 -1.89923 0
M  V30 1137 H 119.302 5.33522 0.354691 0
M  V30 1138 H 119.645 3.93921 1.34656 0
M  V30 1139 H 120.178 3.96239 -0.352056 0
M  V30 1140 H 116.917 6.06373 -2.48981 0
M  V30 1141 H 116.437 5.94691 -0.781214 0
M  V30 1142 H 118.116 6.35525 -1.21313 0
M  V30 1143 N 118.248 0.346503 1.53744 0
M  V30 1144 C 119.195 -0.508914 2.25119 0
M  V30 1145 C 120.165 -1.09315 1.25058 0
M  V30 1146 O 121.35 -1.12921 1.53797 0
M  V30 1147 C 118.49 -1.65246 3.02965 0
M  V30 1148 C 117.603 -1.09525 4.17886 0
M  V30 1149 C 116.738 -2.20634 4.83212 0
M  V30 1150 C 115.777 -1.62279 5.90196 0
M  V30 1151 N 114.914 -2.67143 6.49291 0
M  V30 1152 H 119.754 0.106283 2.9781 0
M  V30 1153 H 117.291 0.0642227 1.4696 0
M  V30 1154 H 119.249 -2.32574 3.4636 0
M  V30 1155 H 117.879 -2.2386 2.32565 0
M  V30 1156 H 116.931 -0.312818 3.79112 0
M  V30 1157 H 118.243 -0.628444 4.94825 0
M  V30 1158 H 117.397 -2.95821 5.29693 0
M  V30 1159 H 116.136 -2.70659 4.05703 0
M  V30 1160 H 115.141 -0.855989 5.43096 0
M  V30 1161 H 116.366 -1.13102 6.69615 0
M  V30 1162 H 114.312 -3.16417 5.74645 0
M  V30 1163 H 114.229 -2.25093 7.21713 0
M  V30 1164 H 115.497 -3.4209 7.00425 0
M  V30 1165 N 119.726 -1.57421 0.075193 0
M  V30 1166 C 121.142 -1.57099 -0.281444 0
M  V30 1167 C 121.342 -1.08486 -1.69803 0
M  V30 1168 O 120.398 -0.752279 -2.41033 0
M  V30 1169 C 121.711 -3.00571 -0.0880041 0
M  V30 1170 C 123.259 -3.12605 -0.157281 0
M  V30 1171 C 123.734 -4.57999 0.0079207 0
M  V30 1172 N 125.225 -4.63176 -0.0475725 0
M  V30 1173 C 125.96 -5.73373 0.0557876 0
M  V30 1174 N 125.456 -6.92473 0.21286 0
M  V30 1175 N 127.249 -5.621 -0.00152098 0
M  V30 1176 H 119.4 -1.87335 1.00098 0
M  V30 1177 H 121.663 -0.86377 0.390646 0
M  V30 1178 H 121.369 -3.40262 0.889629 0
M  V30 1179 H 121.243 -3.67754 -0.838875 0
M  V30 1180 H 123.63 -2.72798 -1.1254 0
M  V30 1181 H 123.711 -2.48053 0.62475 0
M  V30 1182 H 123.355 -4.98496 0.972824 0
M  V30 1183 H 123.285 -5.20586 -0.793556 0
M  V30 1184 H 125.776 -3.7753 -0.167244 0
M  V30 1185 H 126.089 -7.72279 0.283781 0
M  V30 1186 H 124.434 -6.94556 0.248267 0
M  V30 1187 H 127.625 -4.67938 -0.122958 0
M  V30 1188 H 127.798 -6.47948 0.0824844 0
M  V30 1189 N 121.204 0.198386 -1.56346 0
M  V30 1190 C 122.134 1.24865 -1.9731 0
M  V30 1191 C 123.115 1.47651 -0.844576 0
M  V30 1192 O 124.3 1.59444 -1.10866 0
M  V30 1193 C 121.43 2.59358 -2.30977 0
M  V30 1194 C 120.384 2.5119 -3.46537 0
M  V30 1195 C 119.71 3.89926 -3.65871 0
M  V30 1196 C 121.01 2.03977 -4.80823 0
M  V30 1197 H 122.704 0.908252 -2.85291 0
M  V30 1198 H 120.25 0.435462 -1.37258 0
M  V30 1199 H 122.203 3.33011 -2.58228 0
M  V30 1200 H 120.927 2.95132 -1.39874 0
M  V30 1201 H 119.586 1.79993 -3.19371 0
M  V30 1202 H 119.234 4.23046 -2.72105 0
M  V30 1203 H 118.934 3.85336 -4.4361 0
M  V30 1204 H 120.458 4.65205 -3.95495 0
M  V30 1205 H 121.872 2.67386 -5.07127 0
M  V30 1206 H 120.269 2.10397 -5.62008 0
M  V30 1207 H 121.339 0.992861 -4.74626 0
M  V30 1208 N 122.682 1.50554 0.465978 0
M  V30 1209 C 124.098 1.38093 0.800154 0
M  V30 1210 C 124.298 0.440988 1.96615 0
M  V30 1211 O 123.354 -0.114499 2.5224 0
M  V30 1212 C 124.667 2.79565 1.10742 0
M  V30 1213 C 126.215 2.88516 1.21357 0
M  V30 1214 C 126.69 4.30833 1.55393 0
M  V30 1215 N 128.181 4.33807 1.62375 0
M  V30 1216 C 128.916 5.40927 1.90225 0
M  V30 1217 N 128.412 6.58247 2.16062 0
M  V30 1218 N 130.205 5.28376 1.9177 0
M  V30 1219 H 122.356 2.10237 -0.302366 0
M  V30 1220 H 124.619 0.945203 -0.0727746 0
M  V30 1221 H 124.325 3.50208 0.323661 0
M  V30 1222 H 124.199 3.17125 2.04234 0
M  V30 1223 H 126.586 2.1809 1.98799 0
M  V30 1224 H 126.667 2.54492 0.258321 0
M  V30 1225 H 126.311 5.01799 0.784889 0
M  V30 1226 H 126.241 4.62347 2.52076 0
M  V30 1227 H 128.732 3.49212 1.44427 0
M  V30 1228 H 129.045 7.3569 2.36601 0
M  V30 1229 H 127.39 6.61413 2.13444 0
M  V30 1230 H 130.581 4.35715 1.71085 0
M  V30 1231 H 130.754 6.11944 2.13139 0
M  V30 1232 N 124.16 -0.719506 1.40217 0
M  V30 1233 C 125.576 -1.02707 1.22161 0
M  V30 1234 C 125.776 -2.0128 0.0940557 0
M  V30 1235 O 124.832 -2.46452 -0.549318 0
M  V30 1236 C 126.145 -1.57454 2.56181 0
M  V30 1237 C 127.693 -1.69458 2.63159 0
M  V30 1238 C 128.168 -2.27611 3.97438 0
M  V30 1239 N 129.659 -2.35002 3.99159 0
M  V30 1240 C 130.394 -2.80972 4.99842 0
M  V30 1241 N 129.89 -3.26723 6.10921 0
M  V30 1242 N 131.683 -2.80321 4.87213 0
M  V30 1243 H 123.834 -0.0660492 2.12297 0
M  V30 1244 H 126.097 -0.0919077 0.943534 0
M  V30 1245 H 125.803 -0.924873 3.39321 0
M  V30 1246 H 125.677 -2.56036 2.76993 0
M  V30 1247 H 128.064 -2.33543 1.80393 0
M  V30 1248 H 128.145 -0.694867 2.46181 0
M  V30 1249 H 127.789 -1.6415 4.80643 0
M  V30 1250 H 127.719 -3.2829 4.11744 0
M  V30 1251 H 130.21 -2.02685 3.18947 0
M  V30 1252 H 130.523 -3.60355 6.8364 0
M  V30 1253 H 128.868 -3.24692 6.14492 0
M  V30 1254 H 132.059 -2.43912 3.9953 0
M  V30 1255 H 132.232 -3.15831 5.65822 0
M  V30 1256 N 125.638 -1.25649 -0.95132 0
M  V30 1257 C 126.568 -1.08808 -2.06599 0
M  V30 1258 C 127.549 0.00382547 -1.701 0
M  V30 1259 O 128.734 -0.166325 -1.93486 0
M  V30 1260 C 125.864 -0.709542 -3.39975 0
M  V30 1261 C 124.818 -1.75206 -3.90496 0
M  V30 1262 C 124.144 -1.22811 -5.20405 0
M  V30 1263 C 125.444 -3.15153 -4.16504 0
M  V30 1264 H 127.138 -2.02048 -2.20946 0
M  V30 1265 H 124.684 -0.972835 -1.06169 0
M  V30 1266 H 126.637 -0.578649 -4.17408 0
M  V30 1267 H 125.361 0.258556 -3.25575 0
M  V30 1268 H 124.02 -1.87145 -3.15234 0
M  V30 1269 H 123.668 -0.250145 -5.02378 0
M  V30 1270 H 123.368 -1.92492 -5.55176 0
M  V30 1271 H 124.892 -1.10968 -6.00432 0
M  V30 1272 H 126.306 -3.06349 -4.84586 0
M  V30 1273 H 124.703 -3.82333 -4.62538 0
M  V30 1274 H 125.773 -3.61966 -3.22658 0
M  V30 1275 N 127.117 1.15442 -1.07289 0
M  V30 1276 C 128.347 1.89821 -0.815576 0
M  V30 1277 C 128.755 1.7823 0.634867 0
M  V30 1278 O 128.098 1.13152 1.44715 0
M  V30 1279 C 128.16 3.40817 -1.14385 0
M  V30 1280 C 127.824 3.76193 -2.59476 0
M  V30 1281 C 128.821 3.77269 -3.57721 0
M  V30 1282 C 126.506 4.0652 -2.95037 0
M  V30 1283 C 128.5 4.08176 -4.89562 0
M  V30 1284 C 126.187 4.37092 -4.27076 0
M  V30 1285 C 127.185 4.37902 -5.24148 0
M  V30 1286 O 126.873 4.67741 -6.53815 0
M  V30 1287 H 126.605 0.608465 -0.294528 0
M  V30 1288 H 129.159 1.472 -1.43252 0
M  V30 1289 H 127.389 3.83835 -0.469865 0
M  V30 1290 H 129.078 3.96485 -0.869179 0
M  V30 1291 H 129.844 3.5394 -3.3159 0
M  V30 1292 H 125.723 4.05049 -2.20128 0
M  V30 1293 H 129.267 4.08723 -5.65324 0
M  V30 1294 H 125.164 4.59889 -4.5296 0
M  V30 1295 H 125.932 4.85509 -6.58957 0
M  V30 1296 N 128.595 0.856903 1.32268 0
M  V30 1297 C 129.835 0.467705 1.98977 0
M  V30 1298 C 130.199 -0.959231 1.66321 0
M  V30 1299 O 131.4 -1.4531 2.26138 0
M  V30 1300 C 129.671 0.70256 3.50427 0
M  V30 1301 S 131.23 0.411269 4.36868 0
M  V30 1302 H 128.048 0.175121 0.689096 0
M  V30 1303 H 130.65 1.1101 1.60925 0
M  V30 1304 H 129.354 1.74012 3.71683 0
M  V30 1305 H 128.885 0.0466707 3.93372 0
M  V30 1306 H 130.9 -0.761799 4.90317 0
M  V30 1307 N 130.073 -1.45103 0.615059 0
M  V30 1308 C 131.021 -2.32331 -0.111791 0
M  V30 1309 C 132.015 -1.46409 -0.852102 0
M  V30 1310 O 133.221 -1.62849 -0.766821 0
M  V30 1311 H 129.596 -0.749993 -0.0549072 0
M  V30 1312 H 131.567 -2.91407 0.642225 0
M  V30 1313 C 130.316 -3.3015 -1.09071 0
M  V30 1314 H 129.639 -3.96265 -0.530485 0
M  V30 1315 H 131.079 -3.93898 -1.56908 0
M  V30 1316 C 129.538 -2.57875 -2.168 0
M  V30 1317 O 130.068 -2.36567 -3.24652 0
M  V30 1318 N 128.274 -2.17884 -1.92289 0
M  V30 1319 H 127.821 -2.35413 -1.04587 0
M  V30 1320 H 127.779 -1.6985 -2.64572 0
M  V30 1321 N 131.551 -0.354651 -1.53558 0
M  V30 1322 C 132.797 0.238797 -2.01389 0
M  V30 1323 C 133.13 1.49309 -1.2418 0
M  V30 1324 O 132.405 1.91638 -0.332457 0
M  V30 1325 C 132.688 0.541771 -3.56001 0
M  V30 1326 C 132.541 -0.725388 -4.43912 0
M  V30 1327 C 133.86 1.34685 -4.18984 0
M  V30 1328 H 130.979 0.0853177 -0.732045 0
M  V30 1329 H 133.621 -0.477384 -1.83905 0
M  V30 1330 H 131.771 1.15189 -3.71031 0
M  V30 1331 H 133.443 -1.36313 -4.407 0
M  V30 1332 H 131.686 -1.34801 -4.12324 0
M  V30 1333 H 132.357 -0.468505 -5.50008 0
M  V30 1334 H 134.833 0.830837 -4.07721 0
M  V30 1335 H 133.709 1.52759 -5.27215 0
M  V30 1336 H 133.97 2.35221 -3.74331 0
M  V30 1337 N 133.029 1.57378 -0.0835403 0
M  V30 1338 C 134.277 1.93547 0.581718 0
M  V30 1339 C 134.598 0.96524 1.69435 0
M  V30 1340 O 133.868 0.0153369 1.95894 0
M  V30 1341 H 132.448 0.714521 0.217874 0
M  V30 1342 H 135.11 1.94366 -0.144158 0
M  V30 1343 H 134.206 2.95665 0.999423 0
M  V30 1344 N 134.507 -0.190092 1.56449 0
M  V30 1345 C 135.756 -0.907912 1.80111 0
M  V30 1346 C 136.069 -1.84214 0.657619 0
M  V30 1347 O 137.275 -2.60094 0.778663 0
M  V30 1348 C 135.731 -1.66485 3.19078 0
M  V30 1349 C 135.339 -0.7752 4.41242 0
M  V30 1350 C 137.083 -2.37201 3.52045 0
M  V30 1351 C 134.99 -1.53129 5.71231 0
M  V30 1352 H 133.92 -0.34276 0.671589 0
M  V30 1353 H 136.571 -0.161109 1.82791 0
M  V30 1354 H 134.953 -2.45572 3.10661 0
M  V30 1355 H 136.127 -0.0226298 4.60794 0
M  V30 1356 H 134.442 -0.178627 4.16017 0
M  V30 1357 H 137.039 -2.94329 4.46402 0
M  V30 1358 H 137.382 -3.11632 2.76028 0
M  V30 1359 H 137.915 -1.65075 3.61932 0
M  V30 1360 H 134.654 -0.82967 6.50228 0
M  V30 1361 H 134.174 -2.25767 5.55688 0
M  V30 1362 H 135.853 -2.08377 6.12526 0
M  V30 1363 N 135.985 -1.50799 -0.457987 0
M  V30 1364 C 137.233 -1.62121 -1.2067 0
M  V30 1365 C 137.554 -0.329793 -1.92191 0
M  V30 1366 O 136.824 0.653409 -1.84682 0
M  V30 1367 H 135.404 -0.597441 -0.448411 0
M  V30 1368 H 138.066 -1.87637 -0.527096 0
M  V30 1369 H 137.162 -2.43882 -1.94751 0
M  V30 1370 N 137.463 0.71206 -1.40597 0
M  V30 1371 C 138.71 1.47197 -1.39065 0
M  V30 1372 C 139.038 1.94499 0.00583891 0
M  V30 1373 O 138.293 1.68752 0.99102 0
M  V30 1374 C 138.592 2.71039 -2.32965 0
M  V30 1375 C 138.258 2.42484 -3.80148 0
M  V30 1376 C 136.92 2.34406 -4.20247 0
M  V30 1377 C 139.272 2.18598 -4.73143 0
M  V30 1378 C 136.6 2.00516 -5.51371 0
M  V30 1379 C 138.952 1.8622 -6.0457 0
M  V30 1380 C 137.616 1.76626 -6.43708 0
M  V30 1381 H 136.886 0.538634 -0.508876 0
M  V30 1382 H 139.533 0.815325 -1.73276 0
M  V30 1383 H 137.838 3.41558 -1.91951 0
M  V30 1384 H 139.535 3.29138 -2.29061 0
M  V30 1385 H 136.125 2.49659 -3.4838 0
M  V30 1386 H 140.309 2.23793 -4.42979 0
M  V30 1387 H 135.565 1.91628 -5.80593 0
M  V30 1388 H 139.739 1.66752 -6.76141 0
M  V30 1389 H 137.366 1.50133 -7.45228 0
M  V30 1390 N 138.941 1.26152 0.944643 0
M  V30 1391 C 139.891 1.04081 2.02857 0
M  V30 1392 C 140.875 -0.0256555 1.6088 0
M  V30 1393 O 142.067 0.190884 1.75968 0
M  V30 1394 C 139.196 0.672118 3.36656 0
M  V30 1395 C 138.282 1.77586 3.85128 0
M  V30 1396 N 138.673 3.01272 4.06287 0
M  V30 1397 C 136.971 1.65867 4.1401 0
M  V30 1398 C 137.672 3.72983 4.46384 0
M  V30 1399 N 136.648 3.00653 4.52889 0
M  V30 1400 H 140.45 1.97968 2.17223 0
M  V30 1401 H 137.964 1.16618 1.13022 0
M  V30 1402 H 139.961 0.495166 4.13949 0
M  V30 1403 H 138.621 -0.259307 3.23663 0
M  V30 1404 H 139.632 3.37213 3.93075 0
M  V30 1405 H 136.309 0.796907 4.09824 0
M  V30 1406 H 137.699 4.792 4.70975 0
M  V30 1407 N 140.419 -1.14872 1.07899 0
M  V30 1408 C 141.349 -2.2193 0.725887 0
M  V30 1409 C 142.33 -1.67622 -0.28927 0
M  V30 1410 O 143.515 -1.93533 -0.160787 0
M  V30 1411 C 140.645 -3.47061 0.128856 0
M  V30 1412 C 139.599 -4.14363 1.07178 0
M  V30 1413 C 138.925 -5.33636 0.337229 0
M  V30 1414 C 140.225 -4.63492 2.40775 0
M  V30 1415 H 141.919 -2.51724 1.62097 0
M  V30 1416 H 139.465 -1.20991 0.780838 0
M  V30 1417 H 141.418 -4.21199 -0.130147 0
M  V30 1418 H 140.142 -3.16617 -0.80134 0
M  V30 1419 H 138.801 -3.42173 1.3158 0
M  V30 1420 H 138.449 -4.99449 -0.596606 0
M  V30 1421 H 138.149 -5.79609 0.965788 0
M  V30 1422 H 139.673 -6.10539 0.0861567 0
M  V30 1423 H 141.087 -5.2913 2.20669 0
M  V30 1424 H 139.484 -5.20148 2.99276 0
M  V30 1425 H 140.554 -3.78834 3.02676 0
M  V30 1426 N 141.898 -0.863906 -1.31812 0
M  V30 1427 C 142.83 -0.272485 -2.27575 0
M  V30 1428 C 143.843 0.56104 -1.52827 0
M  V30 1429 O 145.032 0.384021 -1.7432 0
M  V30 1430 C 142.132 0.63283 -3.32939 0
M  V30 1431 C 141.305 -0.166902 -4.37081 0
M  V30 1432 C 140.364 0.665608 -5.21973 0
M  V30 1433 O 139.39 0.0958091 -5.69119 0
M  V30 1434 N 140.592 1.9787 -5.45736 0
M  V30 1435 H 143.357 -1.0954 -2.78964 0
M  V30 1436 H 140.918 -0.724791 -1.4477 0
M  V30 1437 H 142.91 1.19532 -3.86645 0
M  V30 1438 H 141.48 1.35642 -2.81638 0
M  V30 1439 H 140.7 -0.910838 -3.83533 0
M  V30 1440 H 141.988 -0.715874 -5.03739 0
M  V30 1441 H 141.386 2.46484 -5.09178 0
M  V30 1442 H 139.943 2.48911 -6.024 0
M  V30 1443 N 143.376 1.44774 -0.622745 0
M  V30 1444 C 144.339 2.29069 0.0774015 0
M  V30 1445 C 145.339 1.4059 0.780461 0
M  V30 1446 O 146.529 1.62551 0.626322 0
M  V30 1447 C 143.661 3.21974 1.12006 0
M  V30 1448 H 144.854 2.92459 -0.663901 0
M  V30 1449 H 142.407 1.51548 -0.382486 0
M  V30 1450 H 143.142 2.63417 1.89162 0
M  V30 1451 H 142.927 3.87168 0.619951 0
M  V30 1452 H 144.417 3.85318 1.60995 0
M  V30 1453 N 144.854 0.36279 1.53368 0
M  V30 1454 C 145.784 -0.476976 2.28576 0
M  V30 1455 C 146.765 -1.08631 1.30894 0
M  V30 1456 O 147.95 -1.10409 1.59761 0
M  V30 1457 C 145.08 -1.61828 3.07293 0
M  V30 1458 C 144.034 -1.13633 4.1264 0
M  V30 1459 C 143.36 -2.36766 4.79423 0
M  V30 1460 C 144.66 -0.223061 5.21823 0
M  V30 1461 H 146.354 0.150474 2.99022 0
M  V30 1462 H 143.9 0.0738103 1.43811 0
M  V30 1463 H 145.853 -2.21237 3.58653 0
M  V30 1464 H 144.577 -2.27292 2.34533 0
M  V30 1465 H 143.236 -0.564945 3.62221 0
M  V30 1466 H 142.884 -3.0068 4.03238 0
M  V30 1467 H 142.584 -2.05192 5.50609 0
M  V30 1468 H 144.108 -2.96865 5.33576 0
M  V30 1469 H 145.522 -0.724545 5.68703 0
M  V30 1470 H 143.919 0.001678 6.001 0
M  V30 1471 H 144.989 0.735553 4.79289 0
M  V30 1472 N 146.332 -1.57332 0.0918853 0
M  V30 1473 C 147.743 -1.81496 -0.437739 0
M  V30 1474 C 148.094 -1.00727 -1.6837 0
M  V30 1475 O 147.219 -0.235694 -2.15113 0
M  V30 1476 C 147.814 -3.29197 -0.800939 0
M  V30 1477 C 146.373 -3.54136 -1.27532 0
M  V30 1478 C 145.52 -2.75979 -0.270392 0
M  V30 1479 H 148.471 -1.55494 0.317366 0
M  V30 1480 H 148.492 -3.42344 -1.66074 0
M  V30 1481 H 148.004 -3.87955 0.106078 0
M  V30 1482 H 146.105 -3.00705 -2.20016 0
M  V30 1483 H 146.218 -4.62792 -1.23938 0
M  V30 1484 H 144.582 -2.43349 -0.751872 0
M  V30 1485 H 145.365 -3.37484 0.629248 0
M  V30 1486 N 147.81 0.181792 -1.56548 0
M  V30 1487 C 149.087 0.926765 -1.72251 0
M  V30 1488 C 149.467 2.00831 -0.650386 0
M  V30 1489 O 148.815 2.26008 0.336521 0
M  V30 1490 C 149.025 1.50106 -3.1507 0
M  V30 1491 C 150.373 1.97805 -3.75711 0
M  V30 1492 O 151.397 1.59922 -3.18282 0
M  V30 1493 O 150.256 2.67555 -4.76525 0
M  V30 1494 H 147.35 0.435506 -0.703039 0
M  V30 1495 H 149.896 0.170443 -1.68842 0
M  V30 1496 H 148.668 0.72212 -3.84579 0
M  V30 1497 H 148.291 2.32186 -3.22763 0
M  V30 1498 N 149.288 1.51039 0.449983 0
M  V30 1499 C 150.536 1.62759 1.19808 0
M  V30 1500 C 150.857 0.339981 1.92013 0
M  V30 1501 O 150.127 -0.643606 1.85026 0
M  V30 1502 H 148.707 0.599811 0.445237 0
M  V30 1503 H 151.369 1.87914 0.517138 0
M  V30 1504 H 150.465 2.44911 1.93455 0
M  V30 1505 N 150.766 -0.704594 1.40972 0
M  V30 1506 C 152.182 -1.01406 1.23244 0
M  V30 1507 C 152.382 -2.01169 0.115399 0
M  V30 1508 O 151.438 -2.47021 -0.523147 0
M  V30 1509 C 152.751 -1.54728 2.57836 0
M  V30 1510 C 154.299 -1.66658 2.64942 0
M  V30 1511 C 154.774 -2.23383 3.9983 0
M  V30 1512 N 156.265 -2.30756 4.01629 0
M  V30 1513 C 157 -2.75655 5.02794 0
M  V30 1514 N 156.496 -3.20225 6.14352 0
M  V30 1515 N 158.289 -2.75138 4.90159 0
M  V30 1516 H 150.44 -0.0435285 2.12355 0
M  V30 1517 H 152.703 -0.0818951 0.944456 0
M  V30 1518 H 152.409 -0.888832 3.40283 0
M  V30 1519 H 152.283 -2.53084 2.79693 0
M  V30 1520 H 154.67 -2.31617 1.8286 0
M  V30 1521 H 154.751 -0.668717 2.46904 0
M  V30 1522 H 154.395 -1.59043 4.82357 0
M  V30 1523 H 154.325 -3.23904 4.15203 0
M  V30 1524 H 156.816 -1.99291 3.21079 0
M  V30 1525 H 157.129 -3.53084 6.87424 0
M  V30 1526 H 155.474 -3.18156 6.17901 0
M  V30 1527 H 158.665 -2.39661 4.02095 0
M  V30 1528 H 158.838 -3.09812 5.6914 0
M  V30 1529 N 152.244 -1.26651 -0.937939 0
M  V30 1530 C 153.493 -1.11775 -1.67897 0
M  V30 1531 C 153.806 0.33794 -1.92659 0
M  V30 1532 O 155.012 0.607434 -2.64618 0
M  V30 1533 C 153.468 -1.9523 -3.02346 0
M  V30 1534 C 153.076 -3.45393 -2.8532 0
M  V30 1535 C 154.82 -1.88972 -3.80118 0
M  V30 1536 C 152.727 -4.21083 -4.15263 0
M  V30 1537 H 151.657 -0.414696 -0.629717 0
M  V30 1538 H 154.308 -1.50988 -1.04283 0
M  V30 1539 H 152.69 -1.48853 -3.66959 0
M  V30 1540 H 153.864 -3.99561 -2.29537 0
M  V30 1541 H 152.179 -3.52921 -2.20988 0
M  V30 1542 H 154.776 -2.42805 -4.76392 0
M  V30 1543 H 155.119 -0.86113 -4.07296 0
M  V30 1544 H 155.652 -2.33189 -3.22285 0
M  V30 1545 H 152.391 -5.24425 -3.93267 0
M  V30 1546 H 151.911 -3.71695 -4.70747 0
M  V30 1547 H 153.59 -4.29706 -4.83696 0
M  V30 1548 N 153.722 1.14298 -1.08507 0
M  V30 1549 C 154.97 1.84993 -0.813763 0
M  V30 1550 C 155.291 1.83405 0.662393 0
M  V30 1551 O 154.561 1.28319 1.48024 0
M  V30 1552 H 153.141 0.684966 -0.298045 0
M  V30 1553 H 155.803 1.385 -1.37126 0
M  V30 1554 H 154.899 2.89788 -1.15884 0
M  V30 1555 N 155.201 0.870884 1.31352 0
M  V30 1556 C 156.449 0.48132 1.96285 0
M  V30 1557 C 156.77 -0.969813 1.69173 0
M  V30 1558 O 156.04 -1.67998 1.00764 0
M  V30 1559 H 154.62 0.175002 0.726212 0
M  V30 1560 H 157.282 1.11087 1.60143 0
M  V30 1561 H 156.378 0.639825 3.05471 0
M  V30 1562 N 156.679 -1.44442 0.630414 0
M  V30 1563 C 157.642 -2.29107 -0.0652523 0
M  V30 1564 C 158.642 -1.41002 -0.772995 0
M  V30 1565 O 159.832 -1.62881 -0.617692 0
M  V30 1566 C 156.964 -3.22564 -1.10296 0
M  V30 1567 H 158.157 -2.92103 0.679401 0
M  V30 1568 H 155.71 -1.51343 0.390517 0
M  V30 1569 H 156.445 -2.64416 -1.87762 0
M  V30 1570 H 156.23 -3.87491 -0.59941 0
M  V30 1571 H 157.72 -3.86167 -1.5895 0
M  V30 1572 N 158.157 -0.370918 -1.53173 0
M  V30 1573 C 159.107 0.489588 -2.22681 0
M  V30 1574 C 160.091 1.04442 -1.22395 0
M  V30 1575 O 161.283 0.973578 -1.47819 0
M  V30 1576 C 158.412 1.626 -3.02351 0
M  V30 1577 C 157.498 1.08379 -4.10018 0
M  V30 1578 N 157.889 0.265004 -5.05105 0
M  V30 1579 C 156.187 1.35809 -4.2482 0
M  V30 1580 C 156.888 -0.0324755 -5.81691 0
M  V30 1581 N 155.864 0.566581 -5.40639 0
M  V30 1582 H 159.666 -0.142729 -2.93553 0
M  V30 1583 H 157.18 -0.179221 -1.61408 0
M  V30 1584 H 159.177 2.2547 -3.50669 0
M  V30 1585 H 157.837 2.26132 -2.33011 0
M  V30 1586 H 158.848 -0.0962352 -5.17811 0
M  V30 1587 H 155.525 1.9958 -3.66707 0
M  V30 1588 H 156.915 -0.69473 -6.68299 0
M  V30 1589 N 159.635 1.57281 -0.100228 0
M  V30 1590 C 160.598 2.13158 0.842398 0
M  V30 1591 C 161.598 1.06202 1.20738 0
M  V30 1592 O 162.788 1.32066 1.13597 0
M  V30 1593 C 159.92 2.65639 2.13655 0
M  V30 1594 H 161.113 2.97766 0.357114 0
M  V30 1595 H 158.666 1.5559 0.148823 0
M  V30 1596 H 159.401 1.84566 2.66657 0
M  V30 1597 H 159.186 3.43844 1.88451 0
M  V30 1598 H 160.676 3.08846 2.81077 0
M  V30 1599 N 161.113 -0.173488 1.56642 0
M  V30 1600 C 162.39 -0.917617 1.7274 0
M  V30 1601 C 162.77 -2.00484 0.661027 0
M  V30 1602 O 162.118 -2.26184 -0.32453 0
M  V30 1603 C 162.328 -1.48433 3.15862 0
M  V30 1604 C 163.676 -1.95809 3.76754 0
M  V30 1605 O 164.7 -1.58231 3.19126 0
M  V30 1606 O 163.559 -2.65024 4.77938 0
M  V30 1607 H 160.653 -0.431772 0.705338 0
M  V30 1608 H 163.199 -0.161487 1.6893 0
M  V30 1609 H 161.971 -0.701715 3.84957 0
M  V30 1610 H 161.594 -2.30471 3.23989 0
M  V30 1611 N 162.591 -1.51276 -0.441967 0
M  V30 1612 C 163.819 -1.67516 -1.21434 0
M  V30 1613 C 164.234 -0.37055 -1.85128 0
M  V30 1614 O 163.591 0.650498 -1.70513 0
M  V30 1615 C 163.642 -2.78748 -2.30177 0
M  V30 1616 O 163.363 -4.04154 -1.69089 0
M  V30 1617 C 164.864 -3.06217 -3.20541 0
M  V30 1618 H 162.084 -0.562276 -0.366178 0
M  V30 1619 H 164.628 -1.97666 -0.524244 0
M  V30 1620 H 162.783 -2.5121 -2.94911 0
M  V30 1621 H 163.197 -4.65894 -2.40922 0
M  V30 1622 H 164.671 -3.8764 -3.92987 0
M  V30 1623 H 165.148 -2.18439 -3.81026 0
M  V30 1624 H 165.754 -3.35397 -2.61513 0
M  V30 1625 N 164.069 0.697108 -1.41344 0
M  V30 1626 C 165.485 1.00751 -1.2378 0
M  V30 1627 C 165.685 2.01105 -0.126066 0
M  V30 1628 O 164.741 2.47295 0.51004 0
M  V30 1629 C 166.054 1.53359 -2.58653 0
M  V30 1630 C 167.602 1.6525 -2.65822 0
M  V30 1631 C 168.077 2.2126 -4.01009 0
M  V30 1632 N 169.568 2.28622 -4.02847 0
M  V30 1633 C 170.303 2.72984 -5.04249 0
M  V30 1634 N 169.799 3.16962 -6.16041 0
M  V30 1635 N 171.592 2.72534 -4.91611 0
M  V30 1636 H 163.743 0.0322662 -2.12375 0
M  V30 1637 H 166.006 0.0768853 -0.944877 0
M  V30 1638 H 165.712 0.870773 -3.4075 0
M  V30 1639 H 165.586 2.51597 -2.81032 0
M  V30 1640 H 167.973 2.30644 -1.84086 0
M  V30 1641 H 168.054 0.655614 -2.47256 0
M  V30 1642 H 167.698 1.56482 -4.83193 0
M  V30 1643 H 167.628 3.21698 -4.16915 0
M  V30 1644 H 170.119 1.97585 -3.22131 0
M  V30 1645 H 170.432 3.49434 -6.89287 0
M  V30 1646 H 168.777 3.14875 -6.1958 0
M  V30 1647 H 171.968 2.37525 -4.0336 0
M  V30 1648 H 172.141 3.06789 -5.70775 0
M  V30 1649 N 165.547 1.27147 0.931209 0
M  V30 1650 C 166.824 1.0401 1.65654 0
M  V30 1651 C 167.204 -0.426297 2.06751 0
M  V30 1652 O 166.552 -1.40879 1.79904 0
M  V30 1653 C 166.762 1.99834 2.86125 0
M  V30 1654 C 168.11 2.29007 3.57549 0
M  V30 1655 O 169.134 1.97779 2.96246 0
M  V30 1656 O 167.993 2.82222 4.67989 0
M  V30 1657 H 165.087 0.396239 0.725895 0
M  V30 1658 H 167.633 1.38397 0.982056 0
M  V30 1659 H 166.405 2.98744 2.52721 0
M  V30 1660 H 166.028 1.65987 3.61295 0
M  V30 1661 N 167.025 -1.13721 1.09112 0
M  V30 1662 C 168.25 -1.89314 0.847053 0
M  V30 1663 C 168.675 -1.78416 -0.595774 0
M  V30 1664 O 168.033 -1.12942 -1.41823 0
M  V30 1665 C 168.081 -3.3701 1.28284 0
M  V30 1666 O 167.185 -4.10054 0.439267 0
M  V30 1667 H 166.526 -0.588745 0.307044 0
M  V30 1668 H 169.056 -1.43902 1.45442 0
M  V30 1669 H 169.066 -3.87834 1.26683 0
M  V30 1670 H 167.741 -3.4426 2.33363 0
M  V30 1671 H 166.318 -3.69266 0.519312 0
M  V30 1672 N 168.503 -0.877838 -1.30888 0
M  V30 1673 C 169.433 -0.35534 -2.3078 0
M  V30 1674 C 170.414 0.557994 -1.60687 0
M  V30 1675 O 171.599 0.473355 -1.88343 0
M  V30 1676 C 168.729 0.437221 -3.44537 0
M  V30 1677 C 167.683 -0.383715 -4.26276 0
M  V30 1678 C 167.009 0.535014 -5.32017 0
M  V30 1679 C 168.309 -1.62201 -4.96476 0
M  V30 1680 H 170.003 -1.19007 -2.74732 0
M  V30 1681 H 167.549 -0.573698 -1.32078 0
M  V30 1682 H 169.502 0.813334 -4.13477 0
M  V30 1683 H 168.226 1.30553 -2.99372 0
M  V30 1684 H 166.885 -0.741874 -3.59015 0
M  V30 1685 H 166.533 1.40083 -4.831 0
M  V30 1686 H 166.233 -0.0104211 -5.87599 0
M  V30 1687 H 167.757 0.907799 -6.03814 0
M  V30 1688 H 169.171 -1.31689 -5.5797 0
M  V30 1689 H 167.568 -2.10711 -5.61891 0
M  V30 1690 H 168.638 -2.37044 -4.23011 0
M  V30 1691 N 169.982 1.44106 -0.638065 0
M  V30 1692 C 170.912 2.33448 0.0494287 0
M  V30 1693 C 171.893 1.48606 0.827672 0
M  V30 1694 O 173.078 1.77308 0.792173 0
M  V30 1695 C 170.208 3.31771 1.02691 0
M  V30 1696 C 169.162 4.26485 0.359823 0
M  V30 1697 C 168.488 5.14729 1.44769 0
M  V30 1698 C 169.788 5.17056 -0.738296 0
M  V30 1699 H 171.482 2.91183 -0.696636 0
M  V30 1700 H 169.028 1.40014 -0.336456 0
M  V30 1701 H 170.981 3.93161 1.51666 0
M  V30 1702 H 169.705 2.7226 1.80395 0
M  V30 1703 H 168.364 3.66437 -0.10934 0
M  V30 1704 H 168.012 4.51566 2.21578 0
M  V30 1705 H 167.712 5.78913 1.00668 0
M  V30 1706 H 169.236 5.78991 1.93911 0
M  V30 1707 H 170.65 5.72342 -0.331354 0
M  V30 1708 H 169.047 5.89879 -1.10286 0
M  V30 1709 H 170.117 4.57652 -1.60258 0
M  V30 1710 N 171.46 0.379036 1.52974 0
M  V30 1711 C 172.37 -0.468639 2.29872 0
M  V30 1712 C 173.386 -1.08067 1.36373 0
M  V30 1713 O 174.562 -1.08871 1.69438 0
M  V30 1714 C 171.627 -1.58594 3.083 0
M  V30 1715 C 170.688 -1.00007 4.17489 0
M  V30 1716 C 169.921 -2.06413 4.92168 0
M  V30 1717 O 170.144 -3.27751 4.66835 0
M  V30 1718 O 169.078 -1.68717 5.7777 0
M  V30 1719 H 172.904 0.157508 3.03291 0
M  V30 1720 H 170.489 0.143035 1.48714 0
M  V30 1721 H 172.371 -2.23525 3.57232 0
M  V30 1722 H 171.046 -2.19724 2.37703 0
M  V30 1723 H 169.953 -0.314299 3.72777 0
M  V30 1724 H 171.286 -0.433135 4.90291 0
M  V30 1725 N 172.938 -1.57226 0.108567 0
M  V30 1726 C 173.868 -2.17778 -0.84232 0
M  V30 1727 C 174.849 -1.11487 -1.2847 0
M  V30 1728 O 176.034 -1.39681 -1.34918 0
M  V30 1729 C 173.164 -2.76888 -2.09644 0
M  V30 1730 C 172.118 -3.88669 -1.79221 0
M  V30 1731 C 171.444 -4.34541 -3.11574 0
M  V30 1732 C 172.744 -5.11251 -1.06864 0
M  V30 1733 H 174.438 -2.97489 -0.337774 0
M  V30 1734 H 171.984 -1.43097 -0.161025 0
M  V30 1735 H 173.937 -3.17904 -2.76614 0
M  V30 1736 H 172.661 -1.94451 -2.62405 0
M  V30 1737 H 171.32 -3.48213 -1.14644 0
M  V30 1738 H 170.968 -3.48977 -3.62249 0
M  V30 1739 H 170.668 -5.09914 -2.91996 0
M  V30 1740 H 172.192 -4.782 -3.7968 0
M  V30 1741 H 173.606 -5.49352 -1.63968 0
M  V30 1742 H 172.003 -5.9214 -0.974178 0
M  V30 1743 H 173.073 -4.8487 -0.0536168 0
M  V30 1744 N 174.416 0.165178 -1.56732 0
M  V30 1745 C 175.641 0.900253 -1.86843 0
M  V30 1746 C 176.066 1.74766 -0.695596 0
M  V30 1747 O 175.424 1.77786 0.35522 0
M  V30 1748 C 175.472 1.74777 -3.15413 0
M  V30 1749 O 174.576 2.85007 -2.98068 0
M  V30 1750 H 173.917 0.251832 -0.614391 0
M  V30 1751 H 176.447 0.161468 -2.03962 0
M  V30 1752 H 176.457 2.14646 -3.46974 0
M  V30 1753 H 175.132 1.12537 -4.00385 0
M  V30 1754 H 173.709 2.48676 -2.77875 0
M  V30 1755 N 175.894 1.51508 0.433938 0
M  V30 1756 C 177.305 1.56784 1.01369 0
M  V30 1757 C 177.656 0.393349 1.92217 0
M  V30 1758 O 176.781 -0.489441 2.10792 0
M  V30 1759 C 177.376 2.84144 1.8452 0
M  V30 1760 C 175.935 2.9198 2.37539 0
M  V30 1761 C 175.082 2.51482 1.16843 0
M  V30 1762 H 178.033 1.57236 0.215081 0
M  V30 1763 H 178.054 2.68098 2.70007 0
M  V30 1764 H 177.566 3.69607 1.18373 0
M  V30 1765 H 175.667 2.10955 3.0713 0
M  V30 1766 H 175.78 3.95704 2.70103 0
M  V30 1767 H 174.144 2.04758 1.51481 0
M  V30 1768 H 174.927 3.39293 0.523015 0
M  V30 1769 N 177.372 -0.689602 1.41712 0
M  V30 1770 C 178.618 -1.45181 1.41599 0
M  V30 1771 C 178.951 -1.94181 0.0270081 0
M  V30 1772 O 178.226 -1.6993 -0.946265 0
M  V30 1773 C 178.509 -2.65945 2.42787 0
M  V30 1774 C 178.362 -2.22672 3.90816 0
M  V30 1775 C 179.681 -3.68149 2.41151 0
M  V30 1776 H 176.8 -0.526576 0.515642 0
M  V30 1777 H 179.442 -0.784947 1.73028 0
M  V30 1778 H 177.592 -3.2284 2.16116 0
M  V30 1779 H 179.264 -1.71058 4.28412 0
M  V30 1780 H 177.507 -1.54394 4.05395 0
M  V30 1781 H 178.178 -3.0935 4.57172 0
M  V30 1782 H 180.654 -3.2094 2.64834 0
M  V30 1783 H 179.53 -4.50248 3.13955 0
M  V30 1784 H 179.791 -4.18259 1.43221 0
M  V30 1785 N 178.85 -1.27639 -0.924453 0
M  V30 1786 C 179.76 -1.12466 -2.05885 0
M  V30 1787 C 180.776 -0.053869 -1.73917 0
M  V30 1788 O 181.952 -0.261012 -1.99702 0
M  V30 1789 C 179.017 -0.776768 -3.37886 0
M  V30 1790 C 178.078 -1.92878 -3.83532 0
M  V30 1791 C 177.311 -1.59739 -5.09234 0
M  V30 1792 O 177.534 -0.506782 -5.68144 0
M  V30 1793 O 176.468 -2.43761 -5.50331 0
M  V30 1794 H 180.294 -2.07671 -2.21599 0
M  V30 1795 H 177.879 -1.06857 -1.04413 0
M  V30 1796 H 179.761 -0.596229 -4.17161 0
M  V30 1797 H 178.436 0.145732 -3.23372 0
M  V30 1798 H 177.343 -2.1644 -3.0513 0
M  V30 1799 H 178.676 -2.8316 -4.02593 0
M  V30 1800 N 180.328 1.1314 -1.09713 0
M  V30 1801 C 181.744 1.36477 -0.827423 0
M  V30 1802 C 181.944 1.93654 0.556817 0
M  V30 1803 O 181 2.15791 1.31112 0
M  V30 1804 C 182.313 2.31334 -1.92106 0
M  V30 1805 C 183.861 2.44943 -1.94864 0
M  V30 1806 C 184.336 3.4311 -3.0338 0
M  V30 1807 N 185.827 3.50662 -3.02639 0
M  V30 1808 C 186.562 4.2651 -3.83246 0
M  V30 1809 N 186.058 5.05485 -4.73768 0
M  V30 1810 N 187.851 4.2184 -3.71493 0
M  V30 1811 H 180.002 0.743807 -1.9895 0
M  V30 1812 H 182.265 0.389823 -0.864143 0
M  V30 1813 H 181.971 1.96483 -2.91698 0
M  V30 1814 H 181.845 3.31381 -1.80184 0
M  V30 1815 H 184.232 2.79079 -0.959099 0
M  V30 1816 H 184.313 1.4481 -2.10864 0
M  V30 1817 H 183.957 3.09704 -4.02549 0
M  V30 1818 H 183.887 4.43055 -2.84622 0
M  V30 1819 H 186.378 2.94315 -2.37039 0
M  V30 1820 H 186.691 5.60675 -5.3185 0
M  V30 1821 H 185.036 5.04708 -4.77802 0
M  V30 1822 H 188.227 3.5922 -3.00131 0
M  V30 1823 H 188.4 4.80697 -4.3455 0
M  V30 1824 N 181.806 0.884767 1.30421 0
M  V30 1825 C 183.054 0.502112 1.95763 0
M  V30 1826 C 183.375 -0.951815 1.70192 0
M  V30 1827 O 182.645 -1.6692 1.0254 0
M  V30 1828 H 181.225 0.182694 0.724315 0
M  V30 1829 H 183.887 1.1278 1.58955 0
M  V30 1830 H 182.983 0.672188 3.04775 0
M  V30 1831 N 183.284 -1.43765 0.645699 0
M  V30 1832 C 184.53 -2.02197 0.156271 0
M  V30 1833 C 184.863 -1.50776 -1.22393 0
M  V30 1834 O 184.138 -0.697771 -1.81553 0
M  V30 1835 C 184.421 -3.59749 0.158872 0
M  V30 1836 C 184.274 -4.21419 1.57245 0
M  V30 1837 C 185.593 -4.37149 -0.50879 0
M  V30 1838 H 182.712 -0.734694 0.0582602 0
M  V30 1839 H 185.354 -1.71157 0.824951 0
M  V30 1840 H 183.504 -3.86325 -0.410525 0
M  V30 1841 H 185.176 -4.059 2.19186 0
M  V30 1842 H 183.419 -3.78356 2.122 0
M  V30 1843 H 184.09 -5.30482 1.52619 0
M  V30 1844 H 186.566 -4.16093 -0.024412 0
M  V30 1845 H 185.442 -5.4683 -0.476213 0
M  V30 1846 H 185.703 -4.12839 -1.58165 0
M  V30 1847 N 184.763 -0.387143 -1.52771 0
M  V30 1848 C 186.009 0.196025 -2.0185 0
M  V30 1849 C 186.342 1.46641 -1.27319 0
M  V30 1850 O 185.617 1.90889 -0.373032 0
M  V30 1851 C 185.9 0.466136 -3.5707 0
M  V30 1852 C 185.753 -0.819385 -4.42274 0
M  V30 1853 C 187.072 1.25768 -4.21747 0
M  V30 1854 H 184.191 0.0697708 -0.73369 0
M  V30 1855 H 186.833 -0.516286 -1.82851 0
M  V30 1856 H 184.983 1.07293 -3.7339 0
M  V30 1857 H 186.655 -1.4563 -4.37709 0
M  V30 1858 H 184.898 -1.43517 -4.09372 0
M  V30 1859 H 185.569 -0.585065 -5.48891 0
M  V30 1860 H 188.045 0.744167 -4.09391 0
M  V30 1861 H 186.921 1.41541 -5.30337 0
M  V30 1862 H 187.182 2.27228 -3.79236 0
M  V30 1863 N 186.241 1.57166 -0.116904 0
M  V30 1864 C 187.466 1.999 0.55271 0
M  V30 1865 C 187.891 0.996039 1.59564 0
M  V30 1866 O 187.249 -0.032556 1.81271 0
M  V30 1867 C 187.297 3.4152 1.15742 0
M  V30 1868 O 186.401 3.44106 2.27299 0
M  V30 1869 H 185.742 0.649447 0.138258 0
M  V30 1870 H 188.272 2.03573 -0.204759 0
M  V30 1871 H 188.282 3.79684 1.49346 0
M  V30 1872 H 186.957 4.14034 0.393493 0
M  V30 1873 H 185.534 3.17759 1.9515 0
M  V30 1874 N 187.719 -0.156864 1.56817 0
M  V30 1875 C 188.968 -0.869504 1.81996 0
M  V30 1876 C 189.281 -1.82777 0.696545 0
M  V30 1877 O 190.487 -2.58384 0.833658 0
M  V30 1878 C 188.943 -1.59679 3.22538 0
M  V30 1879 C 188.551 -0.681431 4.42787 0
M  V30 1880 C 190.295 -2.2968 3.56997 0
M  V30 1881 C 188.202 -1.40978 5.74351 0
M  V30 1882 H 187.132 -0.328438 0.678708 0
M  V30 1883 H 189.783 -0.1223 1.83092 0
M  V30 1884 H 188.165 -2.38927 3.158 0
M  V30 1885 H 189.339 0.0751166 4.60739 0
M  V30 1886 H 187.654 -0.0903431 4.16302 0
M  V30 1887 H 190.251 -2.84794 4.52544 0
M  V30 1888 H 190.594 -3.05707 2.82576 0
M  V30 1889 H 191.127 -1.57361 3.65352 0
M  V30 1890 H 187.866 -0.691561 6.51842 0
M  V30 1891 H 187.386 -2.13929 5.60352 0
M  V30 1892 H 189.065 -1.95337 6.16808 0
M  V30 1893 N 189.197 -1.51736 -0.425897 0
M  V30 1894 C 190.444 -1.6497 -1.17436 0
M  V30 1895 C 190.772 -0.371445 -1.9092 0
M  V30 1896 O 190.027 0.644963 -1.84767 0
M  V30 1897 C 190.326 -2.81103 -2.20717 0
M  V30 1898 C 189.992 -4.19954 -1.64162 0
M  V30 1899 C 188.654 -4.57725 -1.48462 0
M  V30 1900 C 191.006 -5.06552 -1.22696 0
M  V30 1901 C 188.334 -5.79789 -0.897873 0
M  V30 1902 C 190.686 -6.29205 -0.654464 0
M  V30 1903 C 189.35 -6.6574 -0.484456 0
M  V30 1904 H 188.62 -0.603668 -0.429727 0
M  V30 1905 H 191.267 -1.85798 -0.463829 0
M  V30 1906 H 189.572 -2.54542 -2.97852 0
M  V30 1907 H 191.269 -2.8854 -2.78471 0
M  V30 1908 H 187.859 -3.90181 -1.77361 0
M  V30 1909 H 192.043 -4.77968 -1.33642 0
M  V30 1910 H 187.299 -6.06733 -0.75402 0
M  V30 1911 H 191.473 -6.95643 -0.324694 0
M  V30 1912 H 189.1 -7.60195 -0.0276833 0
M  V30 1913 N 190.675 0.682077 -1.42076 0
M  V30 1914 C 191.923 1.4393 -1.41876 0
M  V30 1915 C 192.244 1.94971 -0.0335599 0
M  V30 1916 O 191.514 1.72591 0.926773 0
M  V30 1917 H 190.094 0.534085 -0.522267 0
M  V30 1918 H 192.756 0.806427 -1.77434 0
M  V30 1919 H 191.852 2.29588 -2.11414 0
M  V30 1920 N 192.153 1.28127 0.917671 0
M  V30 1921 C 193.399 1.15223 1.66888 0
M  V30 1922 C 193.732 -0.299293 1.9188 0
M  V30 1923 O 193.007 -1.21805 1.51637 0
M  V30 1924 C 193.29 1.94706 3.02922 0
M  V30 1925 C 193.143 3.47898 2.85109 0
M  V30 1926 C 194.462 1.75939 4.03402 0
M  V30 1927 H 191.581 0.419946 0.605652 0
M  V30 1928 H 194.223 1.57398 1.06423 0
M  V30 1929 H 192.373 1.58864 3.54534 0
M  V30 1930 H 194.045 3.93624 2.40537 0
M  V30 1931 H 192.288 3.7373 2.20246 0
M  V30 1932 H 192.959 3.98765 3.81694 0
M  V30 1933 H 195.435 2.07209 3.60837 0
M  V30 1934 H 194.311 2.33931 4.96556 0
M  V30 1935 H 194.572 0.709877 4.36364 0
M  V30 1936 N 193.631 -1.12557 1.10312 0
M  V30 1937 C 194.594 -2.16434 0.75424 0
M  V30 1938 C 195.594 -1.59278 -0.220685 0
M  V30 1939 O 196.784 -1.742 0.00230591 0
M  V30 1940 C 193.916 -3.40699 0.116987 0
M  V30 1941 H 195.109 -2.48811 1.67431 0
M  V30 1942 H 192.662 -1.27542 0.903475 0
M  V30 1943 H 193.397 -3.13921 -0.813877 0
M  V30 1944 H 193.182 -3.83459 0.818613 0
M  V30 1945 H 194.672 -4.17451 -0.111387 0
M  V30 1946 N 195.109 -0.891671 -1.2995 0
M  V30 1947 C 196.334 -0.527932 -2.00568 0
M  V30 1948 C 196.759 0.877969 -1.66353 0
M  V30 1949 O 196.117 1.58301 -0.883762 0
M  V30 1950 C 196.165 -0.717745 -3.53385 0
M  V30 1951 O 195.269 0.233376 -4.11739 0
M  V30 1952 H 194.61 -0.20722 -0.630837 0
M  V30 1953 H 197.14 -1.20105 -1.65638 0
M  V30 1954 H 197.15 -0.619307 -4.03272 0
M  V30 1955 H 195.825 -1.74276 -3.77625 0
M  V30 1956 H 194.402 0.0880706 -3.72796 0
M  V30 1957 N 196.587 1.43421 -0.653314 0
M  V30 1958 C 198.003 1.56341 -0.320886 0
M  V30 1959 C 198.203 1.63696 1.17499 0
M  V30 1960 O 197.259 1.59208 1.95982 0
M  V30 1961 C 198.572 2.82424 -1.03233 0
M  V30 1962 C 200.12 2.96168 -1.01259 0
M  V30 1963 C 200.595 4.25084 -1.70492 0
M  V30 1964 N 202.086 4.31948 -1.67257 0
M  V30 1965 C 202.821 5.30466 -2.17701 0
M  V30 1966 N 202.317 6.35261 -2.76434 0
M  V30 1967 N 204.11 5.2212 -2.082 0
M  V30 1968 H 196.261 1.3689 -1.62403 0
M  V30 1969 H 198.524 0.657455 -0.682977 0
M  V30 1970 H 198.23 2.83053 -2.08744 0
M  V30 1971 H 198.104 3.72653 -0.583948 0
M  V30 1972 H 200.491 2.9508 0.0341235 0
M  V30 1973 H 200.572 2.07229 -1.49966 0
M  V30 1974 H 200.216 4.26932 -2.7512 0
M  V30 1975 H 200.146 5.1292 -1.19251 0
M  V30 1976 H 202.637 3.56838 -1.24398 0
M  V30 1977 H 202.95 7.06754 -3.12601 0
M  V30 1978 H 201.295 6.35884 -2.80495 0
M  V30 1979 H 204.486 4.39166 -1.62021 0
M  V30 1980 H 204.659 5.98739 -2.47822 0
M  V30 1981 N 198.065 0.39524 1.52563 0
M  V30 1982 C 199.312 -0.185044 2.01653 0
M  V30 1983 C 199.64 -1.46317 1.28146 0
M  V30 1984 O 198.895 -1.9213 0.372074 0
M  V30 1985 C 199.194 -0.493444 3.53977 0
M  V30 1986 C 198.86 0.69384 4.4553 0
M  V30 1987 C 197.522 1.01954 4.70275 0
M  V30 1988 C 199.874 1.48785 4.99512 0
M  V30 1989 C 197.202 2.14069 5.46252 0
M  V30 1990 C 199.554 2.59965 5.76716 0
M  V30 1991 C 198.218 2.93037 5.99738 0
M  V30 1992 H 197.488 -0.0677123 0.7379 0
M  V30 1993 H 200.135 0.533807 1.8391 0
M  V30 1994 H 198.44 -1.29369 3.69825 0
M  V30 1995 H 200.137 -0.955163 3.89458 0
M  V30 1996 H 196.727 0.429987 4.26438 0
M  V30 1997 H 200.911 1.24946 4.80315 0
M  V30 1998 H 196.167 2.40056 5.62302 0
M  V30 1999 H 200.341 3.21887 6.17545 0
M  V30 2000 H 197.968 3.8003 6.58393 0
M  V30 2001 N 199.544 -1.57102 0.125237 0
M  V30 2002 C 200.791 -1.95407 -0.531248 0
M  V30 2003 C 201.119 -1.0089 -1.66287 0
M  V30 2004 O 200.374 -0.0339431 -1.95671 0
M  V30 2005 C 200.673 -3.40096 -1.09862 0
M  V30 2006 C 200.339 -4.50815 -0.0876989 0
M  V30 2007 C 199.001 -4.80824 0.19026 0
M  V30 2008 C 201.353 -5.17724 0.600902 0
M  V30 2009 C 198.681 -5.75058 1.163 0
M  V30 2010 C 201.033 -6.13005 1.56231 0
M  V30 2011 C 199.697 -6.41403 1.8482 0
M  V30 2012 H 198.967 -0.715046 -0.194397 0
M  V30 2013 H 201.614 -1.90373 0.207463 0
M  V30 2014 H 199.919 -3.41855 -1.91422 0
M  V30 2015 H 201.616 -3.6705 -1.61478 0
M  V30 2016 H 198.206 -4.27444 -0.314528 0
M  V30 2017 H 202.39 -4.94691 0.399333 0
M  V30 2018 H 197.646 -5.95362 1.39117 0
M  V30 2019 H 201.82 -6.63934 2.10153 0
M  V30 2020 H 199.447 -7.14229 2.60349 0
M  V30 2021 N 201.022 0.148545 -1.56898 0
M  V30 2022 C 202.268 0.862694 -1.83536 0
M  V30 2023 C 202.601 1.80889 -0.706604 0
M  V30 2024 O 201.876 1.92328 0.289885 0
M  V30 2025 C 202.159 1.63853 -3.20662 0
M  V30 2026 C 202.012 0.713925 -4.44098 0
M  V30 2027 C 203.331 2.60133 -3.54991 0
M  V30 2028 H 200.45 0.312179 -0.667618 0
M  V30 2029 H 203.092 0.127953 -1.89569 0
M  V30 2030 H 201.242 2.26489 -3.1565 0
M  V30 2031 H 202.914 0.098686 -4.61194 0
M  V30 2032 H 201.157 0.0234019 -4.33794 0
M  V30 2033 H 201.828 1.29278 -5.36648 0
M  V30 2034 H 204.304 2.07616 -3.60603 0
M  V30 2035 H 203.18 3.11468 -4.51972 0
M  V30 2036 H 203.441 3.41417 -2.80868 0
M  V30 2037 N 202.5 1.5196 0.417844 0
M  V30 2038 C 203.463 1.74065 1.49111 0
M  V30 2039 C 204.463 0.610537 1.48758 0
M  V30 2040 O 205.653 0.87832 1.50437 0
M  V30 2041 C 202.785 1.81502 2.88565 0
M  V30 2042 H 203.978 2.69869 1.30807 0
M  V30 2043 H 201.531 1.42244 0.647785 0
M  V30 2044 H 202.266 0.875813 3.1225 0
M  V30 2045 H 202.051 2.63651 2.90225 0
M  V30 2046 H 203.541 2.00376 3.66387 0
M  V30 2047 N 203.978 -0.674533 1.42435 0
M  V30 2048 C 204.911 -1.79924 1.40366 0
M  V30 2049 C 205.889 -1.60378 0.267899 0
M  V30 2050 O 207.073 -1.82847 0.458159 0
M  V30 2051 C 204.2 -3.16927 1.19478 0
M  V30 2052 C 203.246 -3.55221 2.36051 0
M  V30 2053 S 204.079 -3.5762 3.98583 0
M  V30 2054 C 205.235 -4.97315 3.80038 0
M  V30 2055 H 205.468 -1.81405 2.35541 0
M  V30 2056 H 203.001 -0.845221 1.29211 0
M  V30 2057 H 204.959 -3.96007 1.08114 0
M  V30 2058 H 203.62 -3.13031 0.258883 0
M  V30 2059 H 202.813 -4.54804 2.17185 0
M  V30 2060 H 202.415 -2.83502 2.43932 0
M  V30 2061 H 204.707 -5.85401 3.41045 0
M  V30 2062 H 205.65 -5.21228 4.79298 0
M  V30 2063 H 206.058 -4.69845 3.12899 0
M  V30 2064 N 205.456 -1.28612 -0.910864 0
M  V30 2065 C 206.681 -1.1891 -1.69927 0
M  V30 2066 C 207.106 0.248372 -1.86453 0
M  V30 2067 O 206.464 1.17961 -1.37676 0
M  V30 2068 C 206.512 -1.89578 -3.06745 0
M  V30 2069 O 205.616 -1.20521 -3.94396 0
M  V30 2070 H 204.957 -0.412632 -0.520222 0
M  V30 2071 H 207.487 -1.69985 -1.1387 0
M  V30 2072 H 207.497 -1.97597 -3.56958 0
M  V30 2073 H 206.172 -2.94136 -2.94035 0
M  V30 2074 H 204.749 -1.20684 -3.52831 0
M  V30 2075 N 206.934 1.1197 -1.10907 0
M  V30 2076 C 208.159 1.87942 -0.877064 0
M  V30 2077 C 208.584 1.79341 0.567314 0
M  V30 2078 O 207.942 1.15184 1.40009 0
M  V30 2079 C 207.99 3.34926 -1.33629 0
M  V30 2080 O 207.094 4.09303 -0.504447 0
M  V30 2081 H 206.435 0.583785 -0.316371 0
M  V30 2082 H 208.965 1.4157 -1.47712 0
M  V30 2083 H 208.975 3.8577 -1.32837 0
M  V30 2084 H 207.65 3.40504 -2.3881 0
M  V30 2085 H 206.227 3.68393 -0.577993 0
M  V30 2086 N 208.412 0.89855 1.29475 0
M  V30 2087 C 209.359 0.373819 2.27753 0
M  V30 2088 C 210.329 -0.543444 1.56958 0
M  V30 2089 O 211.514 -0.468934 1.84948 0
M  V30 2090 C 208.654 -0.393648 3.42848 0
M  V30 2091 C 207.767 0.554379 4.28428 0
M  V30 2092 C 206.902 -0.230026 5.30702 0
M  V30 2093 C 205.941 0.712599 6.07938 0
M  V30 2094 N 205.078 -0.0373283 7.0209 0
M  V30 2095 H 209.918 1.21699 2.72017 0
M  V30 2096 H 207.455 0.611456 1.33789 0
M  V30 2097 H 209.413 -0.85466 4.08352 0
M  V30 2098 H 208.043 -1.20128 2.99615 0
M  V30 2099 H 207.095 1.13391 3.63107 0
M  V30 2100 H 208.407 1.27597 4.82204 0
M  V30 2101 H 207.561 -0.752288 6.02018 0
M  V30 2102 H 206.3 -0.984758 4.77654 0
M  V30 2103 H 205.305 1.24637 5.35486 0
M  V30 2104 H 206.53 1.46664 6.63074 0
M  V30 2105 H 204.476 -0.774348 6.51414 0
M  V30 2106 H 204.393 0.624374 7.53417 0
M  V30 2107 H 205.661 -0.539891 7.77628 0
M  V30 2108 N 209.89 -1.43072 0.660911 0
M  V30 2109 C 211.138 -2.01323 0.177094 0
M  V30 2110 C 211.459 -1.5245 -1.2159 0
M  V30 2111 O 210.729 -0.740322 -1.81373 0
M  V30 2112 H 209.309 -0.744382 0.0624804 0
M  V30 2113 H 211.971 -1.75179 0.854305 0
M  V30 2114 H 211.067 -3.11649 0.167641 0
M  V30 2115 N 211.368 -0.403325 -1.52352 0
M  V30 2116 C 212.315 0.425011 -2.26853 0
M  V30 2117 C 213.285 1.04598 -1.29029 0
M  V30 2118 O 214.47 1.07135 -1.57882 0
M  V30 2119 C 211.61 1.53888 -3.08889 0
M  V30 2120 C 210.723 0.939396 -4.21663 0
M  V30 2121 C 209.858 2.02547 -4.91068 0
M  V30 2122 C 208.897 1.40263 -5.95813 0
M  V30 2123 N 208.034 2.4286 -6.58759 0
M  V30 2124 H 212.874 -0.21674 -2.97211 0
M  V30 2125 H 210.411 -0.118722 -1.4662 0
M  V30 2126 H 212.369 2.19558 -3.54753 0
M  V30 2127 H 210.999 2.15074 -2.40714 0
M  V30 2128 H 210.051 0.171898 -3.80011 0
M  V30 2129 H 211.363 0.44436 -4.96817 0
M  V30 2130 H 210.517 2.75958 -5.40308 0
M  V30 2131 H 209.256 2.55415 -4.15469 0
M  V30 2132 H 208.261 0.653833 -5.45898 0
M  V30 2133 H 209.486 0.881719 -6.73352 0
M  V30 2134 H 207.432 2.94871 -5.85992 0
M  V30 2135 H 207.349 1.98152 -7.2957 0
M  V30 2136 H 208.617 3.15858 -7.12639 0
M  V30 2137 N 212.846 1.57033 -0.133567 0
M  V30 2138 C 213.776 2.1909 0.807567 0
M  V30 2139 C 214.757 1.13517 1.26681 0
M  V30 2140 O 215.942 1.41809 1.32679 0
M  V30 2141 C 213.072 2.80188 2.05212 0
M  V30 2142 C 212.026 3.91471 1.73015 0
M  V30 2143 C 211.352 4.39443 3.04622 0
M  V30 2144 C 212.652 5.12886 0.987168 0
M  V30 2145 H 214.346 2.97988 0.290403 0
M  V30 2146 H 211.892 1.43335 0.138239 0
M  V30 2147 H 213.845 3.22264 2.71521 0
M  V30 2148 H 212.569 1.98601 2.59278 0
M  V30 2149 H 211.228 3.49993 1.0909 0
M  V30 2150 H 210.876 3.54695 3.56651 0
M  V30 2151 H 210.576 5.14495 2.83847 0
M  V30 2152 H 212.1 4.8418 3.72024 0
M  V30 2153 H 213.514 5.51891 1.55208 0
M  V30 2154 H 211.911 5.93615 0.87985 0
M  V30 2155 H 212.981 4.84894 -0.0235286 0
M  V30 2156 N 214.325 -0.140222 1.56975 0
M  V30 2157 C 215.555 -0.865181 1.87612 0
M  V30 2158 C 215.963 -1.74942 0.72055 0
M  V30 2159 O 215.306 -1.80917 -0.318561 0
M  V30 2160 C 215.368 -1.76782 3.13031 0
M  V30 2161 C 215.032 -1.06005 4.44536 0
M  V30 2162 C 216.029 -0.410768 5.18275 0
M  V30 2163 C 213.714 -1.04754 4.91255 0
M  V30 2164 C 215.708 0.241572 6.36942 0
M  V30 2165 C 213.395 -0.391394 6.09845 0
M  V30 2166 C 214.393 0.252029 6.82535 0
M  V30 2167 O 214.081 0.897757 7.98871 0
M  V30 2168 H 213.813 -0.255188 0.625983 0
M  V30 2169 H 216.367 -0.135653 2.04952 0
M  V30 2170 H 214.597 -2.53846 2.91718 0
M  V30 2171 H 216.286 -2.36533 3.29859 0
M  V30 2172 H 217.052 -0.412195 4.83245 0
M  V30 2173 H 212.931 -1.53777 4.34596 0
M  V30 2174 H 216.475 0.744375 6.93617 0
M  V30 2175 H 212.372 -0.387656 6.44335 0
M  V30 2176 H 213.14 0.800102 8.1458 0
M  V30 2177 N 215.803 -1.52179 -0.40978 0
M  V30 2178 C 217.051 -1.65878 -1.15451 0
M  V30 2179 C 217.372 -0.390771 -1.91044 0
M  V30 2180 O 216.642 0.594323 -1.86667 0
M  V30 2181 H 215.222 -0.611405 -0.429177 0
M  V30 2182 H 217.884 -1.89219 -0.467134 0
M  V30 2183 H 216.98 -2.49954 -1.86894 0
M  V30 2184 N 217.281 0.66697 -1.42791 0
M  V30 2185 C 218.506 1.46004 -1.47301 0
M  V30 2186 C 218.931 1.87894 -0.0880317 0
M  V30 2187 O 218.289 1.56502 0.915253 0
M  V30 2188 C 218.337 2.68031 -2.41229 0
M  V30 2189 O 217.441 3.6659 -1.88906 0
M  V30 2190 H 216.782 0.43832 -0.49877 0
M  V30 2191 H 219.312 0.817391 -1.87563 0
M  V30 2192 H 219.322 3.1601 -2.58073 0
M  V30 2193 H 217.997 2.36883 -3.41847 0
M  V30 2194 H 216.574 3.25661 -1.81656 0
M  V30 2195 N 218.759 1.29093 0.90403 0
M  V30 2196 C 220.17 1.15186 1.46932 0
M  V30 2197 C 220.521 -0.254587 1.94541 0
M  V30 2198 O 219.646 -1.14972 1.83332 0
M  V30 2199 C 220.241 2.08492 2.67051 0
M  V30 2200 C 218.8 1.98621 3.19729 0
M  V30 2201 C 217.947 1.9967 1.92425 0
M  V30 2202 H 220.898 1.41641 0.715789 0
M  V30 2203 H 220.919 1.65461 3.42641 0
M  V30 2204 H 220.431 3.10847 2.3237 0
M  V30 2205 H 218.532 0.993389 3.59114 0
M  V30 2206 H 218.645 2.86068 3.8432 0
M  V30 2207 H 217.009 1.44208 2.09943 0
M  V30 2208 H 217.792 3.03721 1.60026 0
M  V30 2209 N 220.237 -1.11381 1.11499 0
M  V30 2210 C 221.484 -1.83132 0.864231 0
M  V30 2211 C 221.812 -1.84683 -0.610114 0
M  V30 2212 O 221.067 -1.29589 -1.46646 0
M  V30 2213 C 221.366 -3.30026 1.37177 0
M  V30 2214 C 221.032 -3.48634 2.85946 0
M  V30 2215 C 219.694 -3.53421 3.26569 0
M  V30 2216 C 222.046 -3.54837 3.81759 0
M  V30 2217 C 219.374 -3.61967 4.61733 0
M  V30 2218 C 221.726 -3.64915 5.1674 0
M  V30 2219 C 220.39 -3.67962 5.5692 0
M  V30 2220 H 219.66 -0.670127 0.316245 0
M  V30 2221 H 222.307 -1.31354 1.3935 0
M  V30 2222 H 220.612 -3.84304 0.762753 0
M  V30 2223 H 222.309 -3.84034 1.15408 0
M  V30 2224 H 218.899 -3.45579 2.53521 0
M  V30 2225 H 223.083 -3.50399 3.51474 0
M  V30 2226 H 218.339 -3.62603 4.92269 0
M  V30 2227 H 222.513 -3.68658 5.90816 0
M  V30 2228 H 220.14 -3.74336 6.61647 0
M  V30 2229 N 221.715 -0.905404 -1.28997 0
M  V30 2230 C 222.962 -0.534248 -1.95325 0
M  V30 2231 C 223.29 0.920535 -1.71337 0
M  V30 2232 O 222.545 1.66861 -1.02254 0
M  V30 2233 C 222.844 -0.779906 -3.48787 0
M  V30 2234 C 222.51 -2.21293 -3.92861 0
M  V30 2235 C 221.172 -2.60475 -4.04606 0
M  V30 2236 C 223.524 -3.14587 -4.15553 0
M  V30 2237 C 220.852 -3.9212 -4.36416 0
M  V30 2238 C 223.204 -4.45787 -4.48839 0
M  V30 2239 C 221.868 -4.84834 -4.58794 0
M  V30 2240 H 221.138 -0.195495 -0.714747 0
M  V30 2241 H 223.785 -1.14514 -1.53488 0
M  V30 2242 H 222.09 -0.0861365 -3.91705 0
M  V30 2243 H 223.787 -0.472029 -3.98212 0
M  V30 2244 H 220.377 -1.89887 -3.84241 0
M  V30 2245 H 224.561 -2.85528 -4.0594 0
M  V30 2246 H 219.817 -4.22086 -4.42327 0
M  V30 2247 H 223.991 -5.18098 -4.65346 0
M  V30 2248 H 221.618 -5.86877 -4.83197 0
M  V30 2249 N 223.193 1.4272 -0.668489 0
M  V30 2250 C 224.421 2.05966 -0.196348 0
M  V30 2251 C 224.836 1.50191 1.14403 0
M  V30 2252 O 224.193 0.639208 1.7094 0
M  V30 2253 C 224.244 3.61314 -0.115815 0
M  V30 2254 O 223.965 4.1502 -1.40322 0
M  V30 2255 C 225.466 4.41663 0.380579 0
M  V30 2256 H 222.686 0.663954 -0.0969829 0
M  V30 2257 H 225.23 1.82966 -0.913446 0
M  V30 2258 H 223.385 3.83448 0.551931 0
M  V30 2259 H 223.799 5.08832 -1.27243 0
M  V30 2260 H 225.273 5.5065 0.385848 0
M  V30 2261 H 225.75 4.15792 1.41471 0
M  V30 2262 H 226.356 4.24534 -0.255209 0
M  V30 2263 N 224.671 0.411399 1.52136 0
M  V30 2264 C 225.948 -0.222308 1.94333 0
M  V30 2265 C 226.328 -1.6242 1.34844 0
M  V30 2266 O 225.676 -2.22384 0.525145 0
M  V30 2267 C 225.886 -0.226345 3.48265 0
M  V30 2268 C 227.234 -0.444592 4.22266 0
M  V30 2269 O 228.258 -0.305602 3.54887 0
M  V30 2270 O 227.117 -0.718749 5.41753 0
M  V30 2271 H 224.211 -0.143907 0.814383 0
M  V30 2272 H 226.757 0.467506 1.63133 0
M  V30 2273 H 225.529 0.75475 3.83952 0
M  V30 2274 H 225.152 -0.960163 3.85832 0
M  V30 2275 N 226.149 -1.5696 0.141893 0
M  V30 2276 C 227.059 -2.20066 -0.812905 0
M  V30 2277 C 228.075 -1.18344 -1.27557 0
M  V30 2278 O 229.251 -1.50902 -1.33381 0
M  V30 2279 C 226.316 -2.80583 -2.03652 0
M  V30 2280 C 225.377 -3.97414 -1.62359 0
M  V30 2281 C 224.61 -4.55036 -2.78887 0
M  V30 2282 O 224.833 -4.11538 -3.94959 0
M  V30 2283 O 223.767 -5.45376 -2.54653 0
M  V30 2284 H 227.593 -3.02157 -0.305746 0
M  V30 2285 H 225.178 -1.49159 -0.0848799 0
M  V30 2286 H 227.06 -3.19067 -2.75272 0
M  V30 2287 H 225.735 -2.01508 -2.5333 0
M  V30 2288 H 224.642 -3.63656 -0.877775 0
M  V30 2289 H 225.975 -4.77994 -1.17401 0
M  V30 2290 N 227.627 0.131896 -1.57047 0
M  V30 2291 C 228.867 0.847972 -1.85981 0
M  V30 2292 C 229.231 1.77655 -0.7282 0
M  V30 2293 O 230.432 2.53322 -0.898968 0
M  V30 2294 C 228.703 1.58919 -3.20124 0
M  V30 2295 S 230.262 2.34862 -3.70655 0
M  V30 2296 H 227.08 0.283273 -0.652133 0
M  V30 2297 H 229.682 0.107057 -1.95207 0
M  V30 2298 H 228.386 0.898771 -4.00438 0
M  V30 2299 H 227.917 2.37073 -3.13942 0
M  V30 2300 H 229.932 3.60344 -3.41126 0
M  V30 2301 N 229.106 1.52395 0.401703 0
M  V30 2302 C 230.334 1.70676 1.16949 0
M  V30 2303 C 230.749 0.419503 1.8408 0
M  V30 2304 O 230.106 -0.605061 1.72178 0
M  V30 2305 C 230.157 2.84753 2.22706 0
M  V30 2306 O 229.878 4.08495 1.58314 0
M  V30 2307 C 231.379 3.14608 3.12309 0
M  V30 2308 H 228.599 0.571787 0.351142 0
M  V30 2309 H 231.143 1.98987 0.471652 0
M  V30 2310 H 229.298 2.58941 2.88147 0
M  V30 2311 H 229.712 4.72117 2.28485 0
M  V30 2312 H 231.186 3.97923 3.82572 0
M  V30 2313 H 231.663 2.28464 3.75101 0
M  V30 2314 H 232.269 3.42212 2.52529 0
M  V30 2315 N 230.584 -0.659388 1.43143 0
M  V30 2316 C 231.831 -1.41935 1.44433 0
M  V30 2317 C 232.159 -1.94387 0.0663522 0
M  V30 2318 O 231.414 -1.72314 -0.927706 0
M  V30 2319 C 231.713 -2.62206 2.42864 0
M  V30 2320 C 231.379 -2.28208 3.88886 0
M  V30 2321 C 230.041 -2.18647 4.28657 0
M  V30 2322 C 232.393 -2.00887 4.8093 0
M  V30 2323 C 229.721 -1.79914 5.58433 0
M  V30 2324 C 232.073 -1.63653 6.11065 0
M  V30 2325 C 230.737 -1.52614 6.49819 0
M  V30 2326 H 230.007 -0.519376 0.528517 0
M  V30 2327 H 232.654 -0.750453 1.76183 0
M  V30 2328 H 230.959 -3.34199 2.04495 0
M  V30 2329 H 232.656 -3.2041 2.41119 0
M  V30 2330 H 229.246 -2.36557 3.57406 0
M  V30 2331 H 233.43 -2.07198 4.5098 0
M  V30 2332 H 228.686 -1.69948 5.87305 0
M  V30 2333 H 232.86 -1.41543 6.81864 0
M  V30 2334 H 230.487 -1.22371 7.50286 0
M  V30 2335 N 232.062 -1.29571 -0.897171 0
M  V30 2336 C 233.009 -1.14916 -2.00158 0
M  V30 2337 C 233.979 -0.0418149 -1.66047 0
M  V30 2338 O 235.164 -0.209793 -1.89643 0
M  V30 2339 C 232.304 -0.834307 -3.34863 0
M  V30 2340 C 231.417 -2.02234 -3.8174 0
M  V30 2341 C 230.552 -1.64664 -5.05034 0
M  V30 2342 C 229.591 -2.80033 -5.44286 0
M  V30 2343 N 228.728 -2.42843 -6.58765 0
M  V30 2344 H 233.568 -2.09403 -2.12025 0
M  V30 2345 H 231.105 -1.042 -1.0383 0
M  V30 2346 H 233.063 -0.632436 -4.12379 0
M  V30 2347 H 231.693 0.0736656 -3.22716 0
M  V30 2348 H 230.745 -2.33583 -3.00238 0
M  V30 2349 H 232.057 -2.88673 -4.06779 0
M  V30 2350 H 231.211 -1.4078 -5.9014 0
M  V30 2351 H 229.95 -0.753766 -4.8184 0
M  V30 2352 H 228.955 -3.04596 -4.57713 0
M  V30 2353 H 230.18 -3.69989 -5.6946 0
M  V30 2354 H 228.126 -1.56046 -6.3717 0
M  V30 2355 H 228.043 -3.22815 -6.83613 0
M  V30 2356 H 229.311 -2.22285 -7.47134 0
M  V30 2357 N 233.54 1.10788 -1.12088 0
M  V30 2358 C 234.45 2.20599 -0.798338 0
M  V30 2359 C 235.466 1.72712 0.21135 0
M  V30 2360 O 236.642 2.01348 0.0458477 0
M  V30 2361 C 233.707 3.45771 -0.253674 0
M  V30 2362 C 232.768 4.08411 -1.32283 0
M  V30 2363 C 232.001 5.27608 -0.80406 0
M  V30 2364 O 232.224 5.69241 0.363478 0
M  V30 2365 O 231.158 5.8101 -1.57198 0
M  V30 2366 H 234.984 2.50614 -1.7154 0
M  V30 2367 H 232.569 1.19454 -0.897275 0
M  V30 2368 H 234.451 4.21376 0.0453691 0
M  V30 2369 H 233.126 3.1739 0.636005 0
M  V30 2370 H 232.033 3.34507 -1.67499 0
M  V30 2371 H 233.366 4.40986 -2.18614 0
M  V30 2372 N 235.018 0.912232 1.28515 0
M  V30 2373 C 236.267 0.540504 1.94323 0
M  V30 2374 C 236.58 -0.920044 1.72611 0
M  V30 2375 O 237.786 -1.39986 2.32629 0
M  V30 2376 C 236.242 0.915803 3.48053 0
M  V30 2377 C 235.85 2.39598 3.78546 0
M  V30 2378 C 237.594 0.614588 4.20027 0
M  V30 2379 C 235.501 2.71148 5.25578 0
M  V30 2380 H 234.431 0.198418 0.727424 0
M  V30 2381 H 237.082 1.11094 1.46049 0
M  V30 2382 H 235.464 0.274168 3.9505 0
M  V30 2383 H 236.638 3.08422 3.42364 0
M  V30 2384 H 234.953 2.66749 3.1974 0
M  V30 2385 H 237.55 0.827002 5.28266 0
M  V30 2386 H 237.893 -0.447531 4.13887 0
M  V30 2387 H 238.426 1.21462 3.78803 0
M  V30 2388 H 235.165 3.76207 5.36794 0
M  V30 2389 H 234.685 2.0696 5.62963 0
M  V30 2390 H 236.364 2.58072 5.93302 0
M  V30 2391 N 236.496 -1.42363 0.676048 0
M  V30 2392 C 237.426 -2.33497 0.0124832 0
M  V30 2393 C 238.407 -1.50748 -0.787981 0
M  V30 2394 O 239.592 -1.79346 -0.744884 0
M  V30 2395 C 236.722 -3.34377 -0.938582 0
M  V30 2396 C 235.676 -4.27289 -0.246622 0
M  V30 2397 C 235.002 -5.18386 -1.31071 0
M  V30 2398 C 236.302 -5.14916 0.875125 0
M  V30 2399 H 237.996 -2.89233 0.773593 0
M  V30 2400 H 235.542 -1.39073 0.37346 0
M  V30 2401 H 237.495 -3.97044 -1.41188 0
M  V30 2402 H 236.219 -2.76947 -1.73113 0
M  V30 2403 H 234.878 -3.66018 0.206456 0
M  V30 2404 H 234.526 -4.57282 -2.09528 0
M  V30 2405 H 234.226 -5.81378 -0.852839 0
M  V30 2406 H 235.75 -5.83929 -1.78492 0
M  V30 2407 H 237.164 -5.71262 0.482983 0
M  V30 2408 H 235.561 -5.86747 1.25887 0
M  V30 2409 H 236.631 -4.53242 1.72335 0
M  V30 2410 N 237.974 -0.419461 -1.51915 0
M  V30 2411 C 238.904 0.391813 -2.30189 0
M  V30 2412 C 239.885 1.03699 -1.34836 0
M  V30 2413 O 241.07 1.04403 -1.63748 0
M  V30 2414 C 238.2 1.50312 -3.13087 0
M  V30 2415 C 237.154 0.9824 -4.16573 0
M  V30 2416 C 236.48 2.18809 -4.8788 0
M  V30 2417 C 237.78 0.0292356 -5.22292 0
M  V30 2418 H 239.474 -0.26135 -2.98257 0
M  V30 2419 H 237.02 -0.127134 -1.43438 0
M  V30 2420 H 238.973 2.07773 -3.66617 0
M  V30 2421 H 237.697 2.18431 -2.42807 0
M  V30 2422 H 236.356 0.430119 -3.64068 0
M  V30 2423 H 236.004 2.85507 -4.14119 0
M  V30 2424 H 235.704 1.84615 -5.57845 0
M  V30 2425 H 237.228 2.76858 -5.44226 0
M  V30 2426 H 238.642 0.512976 -5.71 0
M  V30 2427 H 237.039 -0.2244 -5.9968 0
M  V30 2428 H 238.109 -0.912931 -4.76228 0
M  V30 2429 N 239.452 1.56882 -0.150215 0
M  V30 2430 C 240.863 1.82995 0.370076 0
M  V30 2431 C 241.214 1.06907 1.64515 0
M  V30 2432 O 240.339 0.315369 2.1409 0
M  V30 2433 C 240.934 3.31942 0.678208 0
M  V30 2434 C 239.493 3.58625 1.14301 0
M  V30 2435 C 238.64 2.76792 0.167778 0
M  V30 2436 H 241.591 1.54209 -0.374858 0
M  V30 2437 H 241.612 3.48272 1.53254 0
M  V30 2438 H 241.124 3.87294 -0.249991 0
M  V30 2439 H 239.225 3.08664 2.08704 0
M  V30 2440 H 239.338 4.67073 1.06676 0
M  V30 2441 H 237.702 2.45972 0.661037 0
M  V30 2442 H 238.485 3.34916 -0.754069 0
M  V30 2443 N 240.93 -0.123565 1.57115 0
M  V30 2444 C 241.878 -1.17082 2.00984 0
M  V30 2445 C 242.872 -1.43136 0.906009 0
M  V30 2446 O 244.078 -1.43152 1.09121 0
M  V30 2447 H 240.453 -0.394653 0.64012 0
M  V30 2448 H 242.424 -0.774292 2.88179 0
M  V30 2449 C 241.173 -2.49057 2.42623 0
M  V30 2450 H 240.496 -2.29846 3.27125 0
M  V30 2451 H 241.936 -3.20906 2.7712 0
M  V30 2452 C 240.395 -3.11305 1.28805 0
M  V30 2453 O 240.925 -3.97171 0.60153 0
M  V30 2454 N 239.131 -2.71111 1.04628 0
M  V30 2455 H 238.678 -2.01382 1.60634 0
M  V30 2456 H 238.636 -3.1309 0.286685 0
M  V30 2457 N 242.408 -1.52605 -0.393616 0
M  V30 2458 C 243.356 -1.77688 -1.50099 0
M  V30 2459 C 244.35 -0.644615 -1.56656 0
M  V30 2460 O 245.556 -0.826997 -1.59877 0
M  V30 2461 H 241.931 -0.562159 -0.499481 0
M  V30 2462 H 243.902 -2.7043 -1.26135 0
M  V30 2463 C 242.651 -1.95858 -2.87289 0
M  V30 2464 H 241.974 -2.8241 -2.82992 0
M  V30 2465 H 243.414 -2.174 -3.64024 0
M  V30 2466 C 241.873 -0.729848 -3.28899 0
M  V30 2467 O 242.403 0.0949217 -4.01588 0
M  V30 2468 N 240.609 -0.561283 -2.85128 0
M  V30 2469 H 240.156 -1.23357 -2.26143 0
M  V30 2470 H 240.114 0.2595 -3.13327 0
M  V30 2471 N 243.887 0.651787 -1.4349 0
M  V30 2472 C 245.117 1.43728 -1.48411 0
M  V30 2473 C 245.525 1.8893 -0.10103 0
M  V30 2474 O 244.868 1.60182 0.899307 0
M  V30 2475 C 244.93 2.70411 -2.36893 0
M  V30 2476 C 244.594 2.4714 -3.8441 0
M  V30 2477 C 245.591 2.10271 -4.75481 0
M  V30 2478 C 243.276 2.6142 -4.28912 0
M  V30 2479 C 245.27 1.87982 -6.0905 0
M  V30 2480 C 242.957 2.38746 -5.62533 0
M  V30 2481 C 243.955 2.02083 -6.5242 0
M  V30 2482 O 243.643 1.79647 -7.8357 0
M  V30 2483 H 243.375 0.447962 -0.506267 0
M  V30 2484 H 245.929 0.80624 -1.88915 0
M  V30 2485 H 244.159 3.36079 -1.91278 0
M  V30 2486 H 245.848 3.32364 -2.33 0
M  V30 2487 H 246.614 1.98814 -4.42378 0
M  V30 2488 H 242.493 2.88931 -3.59222 0
M  V30 2489 H 246.037 1.5929 -6.7917 0
M  V30 2490 H 241.934 2.49806 -5.95203 0
M  V30 2491 H 242.702 1.9406 -7.95162 0
M  V30 2492 N 245.365 1.30045 0.890287 0
M  V30 2493 C 246.313 1.15873 2.01683 0
M  V30 2494 C 247.307 0.0719403 1.69247 0
M  V30 2495 O 248.513 0.232414 1.78493 0
M  V30 2496 H 244.888 0.358203 0.661207 0
M  V30 2497 H 246.859 2.11229 2.10772 0
M  V30 2498 C 245.608 0.861842 3.36849 0
M  V30 2499 H 244.931 1.69016 3.62317 0
M  V30 2500 H 246.371 0.802762 4.16331 0
M  V30 2501 C 244.83 -0.435132 3.34078 0
M  V30 2502 O 245.36 -1.4583 3.74295 0
M  V30 2503 N 243.566 -0.444377 2.87182 0
M  V30 2504 H 243.113 0.388723 2.5465 0
M  V30 2505 H 243.071 -1.31213 2.85711 0
M  V30 2506 N 246.843 -1.10192 1.12674 0
M  V30 2507 C 247.806 -2.14786 0.799979 0
M  V30 2508 C 248.806 -1.59711 -0.18685 0
M  V30 2509 O 249.996 -1.74156 0.0392558 0
M  V30 2510 C 247.128 -3.40374 0.189228 0
M  V30 2511 H 248.321 -2.45203 1.72671 0
M  V30 2512 H 245.874 -1.25597 0.930326 0
M  V30 2513 H 246.609 -3.15577 -0.747107 0
M  V30 2514 H 246.394 -3.81637 0.899766 0
M  V30 2515 H 247.884 -4.17594 -0.0228143 0
M  V30 2516 N 248.321 -0.919034 -1.28029 0
M  V30 2517 C 249.551 -0.570143 -1.98577 0
M  V30 2518 C 249.959 0.854172 -1.68821 0
M  V30 2519 O 249.302 1.57807 -0.940351 0
M  V30 2520 C 249.364 -0.705734 -3.52505 0
M  V30 2521 C 249.028 -2.10057 -4.05863 0
M  V30 2522 C 250.025 -3.07385 -4.19298 0
M  V30 2523 C 247.71 -2.41517 -4.40426 0
M  V30 2524 C 249.704 -4.34287 -4.66555 0
M  V30 2525 C 247.391 -3.68657 -4.87376 0
M  V30 2526 C 248.389 -4.64856 -5.00398 0
M  V30 2527 O 248.077 -5.89735 -5.46322 0
M  V30 2528 H 247.809 -0.215592 -0.6407 0
M  V30 2529 H 250.363 -1.23583 -1.64062 0
M  V30 2530 H 248.593 0.0170414 -3.86696 0
M  V30 2531 H 250.282 -0.363172 -4.04272 0
M  V30 2532 H 251.048 -2.84398 -3.92865 0
M  V30 2533 H 246.927 -1.67389 -4.29537 0
M  V30 2534 H 250.471 -5.09377 -4.76635 0
M  V30 2535 H 246.368 -3.91466 -5.13249 0
M  V30 2536 H 247.136 -5.92599 -5.64596 0
M  V30 2537 N 249.799 1.42003 -0.683588 0
M  V30 2538 C 250.709 2.34597 -0.0109075 0
M  V30 2539 C 251.725 1.55576 0.779245 0
M  V30 2540 O 252.901 1.88107 0.719555 0
M  V30 2541 C 249.966 3.34199 0.922588 0
M  V30 2542 C 249.027 4.29115 0.125984 0
M  V30 2543 C 248.26 5.23959 1.01502 0
M  V30 2544 O 248.483 5.23952 2.25456 0
M  V30 2545 O 247.417 6.00053 0.47111 0
M  V30 2546 H 251.243 2.93675 -0.773853 0
M  V30 2547 H 248.828 1.42654 -0.443861 0
M  V30 2548 H 250.71 3.95365 1.45823 0
M  V30 2549 H 249.385 2.77582 1.66523 0
M  V30 2550 H 248.292 3.71335 -0.453969 0
M  V30 2551 H 249.625 4.88798 -0.577736 0
M  V30 2552 N 251.277 0.427512 1.51691 0
M  V30 2553 C 252.502 -0.143601 2.06902 0
M  V30 2554 C 252.927 -1.36536 1.29382 0
M  V30 2555 O 252.285 -1.78289 0.329043 0
M  V30 2556 C 252.333 -0.454207 3.57728 0
M  V30 2557 O 251.437 -1.54228 3.82475 0
M  V30 2558 H 250.778 -0.00617128 0.663971 0
M  V30 2559 H 253.308 0.606014 1.95419 0
M  V30 2560 H 253.318 -0.707525 4.01818 0
M  V30 2561 H 251.993 0.438812 4.13579 0
M  V30 2562 H 250.57 -1.2797 3.50254 0
M  V30 2563 N 252.755 -1.56801 0.158532 0
M  V30 2564 C 253.985 -2.00568 -0.495583 0
M  V30 2565 C 254.393 -1.03774 -1.58201 0
M  V30 2566 O 253.736 -0.0285797 -1.83678 0
M  V30 2567 C 253.798 -3.40768 -1.14532 0
M  V30 2568 C 253.462 -4.56553 -0.202101 0
M  V30 2569 C 254.459 -5.16714 0.574675 0
M  V30 2570 C 252.144 -5.02197 -0.101648 0
M  V30 2571 C 254.138 -6.20939 1.43924 0
M  V30 2572 C 251.825 -6.06274 0.766508 0
M  V30 2573 C 252.823 -6.65515 1.53555 0
M  V30 2574 O 252.511 -7.67575 2.38922 0
M  V30 2575 H 252.243 -0.662893 -0.13247 0
M  V30 2576 H 254.797 -2.03829 0.253559 0
M  V30 2577 H 253.027 -3.34381 -1.94233 0
M  V30 2578 H 254.716 -3.6857 -1.70033 0
M  V30 2579 H 255.482 -4.82341 0.507167 0
M  V30 2580 H 251.361 -4.55807 -0.689994 0
M  V30 2581 H 254.905 -6.67107 2.03996 0
M  V30 2582 H 250.802 -6.40073 0.835266 0
M  V30 2583 H 251.57 -7.84844 2.32296 0
M  V30 2584 N 254.233 0.115231 -1.57178 0
M  V30 2585 C 255.18 1.14115 -2.00615 0
M  V30 2586 C 256.15 1.40939 -0.878941 0
M  V30 2587 O 257.335 1.52741 -1.14345 0
M  V30 2588 C 254.475 2.46156 -2.4187 0
M  V30 2589 C 253.588 2.26236 -3.68024 0
M  V30 2590 C 252.723 3.51534 -3.98243 0
M  V30 2591 C 251.762 3.26787 -5.17568 0
M  V30 2592 N 250.899 4.44298 -5.43639 0
M  V30 2593 H 255.739 0.763743 -2.88047 0
M  V30 2594 H 253.276 0.365615 -1.42484 0
M  V30 2595 H 255.234 3.23189 -2.63827 0
M  V30 2596 H 253.864 2.81783 -1.57475 0
M  V30 2597 H 252.916 1.40102 -3.5366 0
M  V30 2598 H 254.228 2.03929 -4.55208 0
M  V30 2599 H 253.382 4.36984 -4.20868 0
M  V30 2600 H 252.121 3.76876 -3.09541 0
M  V30 2601 H 251.126 2.39729 -4.94783 0
M  V30 2602 H 252.351 3.02812 -6.0785 0
M  V30 2603 H 250.297 4.69754 -4.57895 0
M  V30 2604 H 250.214 4.25109 -6.25154 0
M  V30 2605 H 251.482 5.3087 -5.70786 0
M  V30 2606 N 255.711 1.52812 0.385517 0
M  V30 2607 C 256.941 1.71658 1.14966 0
M  V30 2608 C 257.349 0.436253 1.84102 0
M  V30 2609 O 256.692 -0.599313 1.73649 0
M  V30 2610 C 256.754 2.81309 2.23843 0
M  V30 2611 C 256.418 4.22313 1.74644 0
M  V30 2612 C 257.415 5.05352 1.22129 0
M  V30 2613 C 255.1 4.68648 1.80761 0
M  V30 2614 C 257.094 6.32807 0.763838 0
M  V30 2615 C 254.781 5.96086 1.34627 0
M  V30 2616 C 255.779 6.77996 0.825264 0
M  V30 2617 O 255.467 8.03045 0.370669 0
M  V30 2618 H 255.199 0.578022 0.350523 0
M  V30 2619 H 257.753 2.00263 0.456509 0
M  V30 2620 H 255.983 2.48133 2.96592 0
M  V30 2621 H 257.672 2.88524 2.85497 0
M  V30 2622 H 258.438 4.70736 1.16758 0
M  V30 2623 H 254.317 4.04979 2.20256 0
M  V30 2624 H 257.861 6.96689 0.356494 0
M  V30 2625 H 253.758 6.30205 1.39686 0
M  V30 2626 H 254.526 8.17021 0.491829 0
M  V30 2627 N 257.189 -0.644168 1.43834 0
M  V30 2628 C 258.6 -1.22554 1.40845 0
M  V30 2629 C 258.951 -1.9585 0.117115 0
M  V30 2630 O 258.076 -2.01734 -0.783086 0
M  V30 2631 C 258.671 -2.22907 2.55143 0
M  V30 2632 C 257.23 -2.76501 2.5539 0
M  V30 2633 C 256.377 -1.51287 2.32396 0
M  V30 2634 H 259.328 -0.43563 1.52604 0
M  V30 2635 H 259.349 -3.05259 2.2715 0
M  V30 2636 H 258.861 -1.69533 3.49114 0
M  V30 2637 H 256.962 -3.33914 1.65324 0
M  V30 2638 H 257.075 -3.23429 3.53455 0
M  V30 2639 H 255.439 -1.78957 1.81236 0
M  V30 2640 H 256.222 -0.998336 3.28463 0
M  V30 2641 N 258.668 -1.30515 -0.883378 0
M  V30 2642 C 259.916 -1.19194 -1.63209 0
M  V30 2643 C 260.237 0.253205 -1.93349 0
M  V30 2644 O 259.507 1.17025 -1.57105 0
M  V30 2645 H 258.087 -0.438148 -0.605009 0
M  V30 2646 H 260.749 -1.63663 -1.05832 0
M  V30 2647 H 259.845 -1.75396 -2.58153 0
M  V30 2648 N 260.146 1.09593 -1.13257 0
M  V30 2649 C 261.079 2.15451 -0.752061 0
M  V30 2650 C 262.057 1.60493 0.260913 0
M  V30 2651 O 263.241 1.8788 0.152819 0
M  V30 2652 C 260.368 3.38506 -0.114594 0
M  V30 2653 C 259.414 4.12183 -1.09579 0
M  V30 2654 S 260.247 4.6661 -2.62745 0
M  V30 2655 C 261.403 5.92966 -2.00354 0
M  V30 2656 H 261.636 2.47395 -1.64872 0
M  V30 2657 H 259.169 1.21515 -0.952545 0
M  V30 2658 H 261.127 4.09757 0.246808 0
M  V30 2659 H 259.788 3.04784 0.759309 0
M  V30 2660 H 258.981 5.00445 -0.597545 0
M  V30 2661 H 258.583 3.46785 -1.40057 0
M  V30 2662 H 260.875 6.63882 -1.35156 0
M  V30 2663 H 261.818 6.47467 -2.86691 0
M  V30 2664 H 262.226 5.45405 -1.4558 0
M  V30 2665 N 261.624 0.925811 1.2754 0
M  V30 2666 C 262.871 0.565255 1.94451 0
M  V30 2667 C 263.199 -0.89316 1.7278 0
M  V30 2668 O 262.454 -1.65213 1.04895 0
M  V30 2669 C 262.753 0.835296 3.47502 0
M  V30 2670 C 262.419 2.27515 3.89291 0
M  V30 2671 C 261.081 2.66879 4.00411 0
M  V30 2672 C 263.433 3.21158 4.10496 0
M  V30 2673 C 260.761 3.99014 4.30122 0
M  V30 2674 C 263.113 4.52871 4.4169 0
M  V30 2675 C 261.777 4.92072 4.51023 0
M  V30 2676 H 261.047 0.206841 0.711546 0
M  V30 2677 H 263.694 1.16942 1.51647 0
M  V30 2678 H 261.999 0.148442 3.91519 0
M  V30 2679 H 263.696 0.535322 3.97411 0
M  V30 2680 H 260.286 1.95976 3.81171 0
M  V30 2681 H 264.47 2.9195 4.01346 0
M  V30 2682 H 259.726 4.2907 4.35556 0
M  V30 2683 H 263.9 5.25436 4.57045 0
M  V30 2684 H 261.527 5.9449 4.738 0
M  V30 2685 N 263.102 -1.41638 0.69111 0
M  V30 2686 C 264.351 -2.00526 0.217318 0
M  V30 2687 C 264.664 -1.55353 -1.18848 0
M  V30 2688 O 265.87 -2.06769 -1.75951 0
M  V30 2689 C 264.326 -3.58313 0.337639 0
M  V30 2690 C 263.934 -4.12469 1.74852 0
M  V30 2691 C 265.678 -4.24431 -0.0766066 0
M  V30 2692 C 263.585 -5.62675 1.82074 0
M  V30 2693 H 262.515 -0.750008 0.0774893 0
M  V30 2694 H 265.166 -1.6217 0.858661 0
M  V30 2695 H 263.548 -3.9425 -0.371879 0
M  V30 2696 H 264.722 -3.8796 2.48644 0
M  V30 2697 H 263.037 -3.58861 2.11205 0
M  V30 2698 H 265.634 -5.34683 -0.0430284 0
M  V30 2699 H 265.977 -4.01101 -1.1146 0
M  V30 2700 H 266.51 -3.93512 0.582476 0
M  V30 2701 H 263.249 -5.90826 2.83911 0
M  V30 2702 H 262.769 -5.89124 1.12661 0
M  V30 2703 H 264.448 -6.27371 1.58159 0
M  V30 2704 N 264.58 -0.43555 -1.51462 0
M  V30 2705 C 265.543 0.365137 -2.26273 0
M  V30 2706 C 266.543 0.951227 -1.29647 0
M  V30 2707 O 267.733 0.825958 -1.53374 0
M  V30 2708 C 264.865 1.51645 -3.05314 0
M  V30 2709 H 266.058 -0.290474 -2.9849 0
M  V30 2710 H 263.611 -0.188676 -1.55157 0
M  V30 2711 H 264.346 2.20816 -2.3751 0
M  V30 2712 H 264.131 1.10238 -3.76284 0
M  V30 2713 H 265.621 2.08218 -3.61987 0
M  V30 2714 N 266.058 1.56714 -0.166846 0
M  V30 2715 C 266.988 2.20754 0.760913 0
M  V30 2716 C 267.969 1.16178 1.24244 0
M  V30 2717 O 269.154 1.44592 1.29641 0
M  V30 2718 C 266.284 2.84478 1.99223 0
M  V30 2719 C 265.238 3.95053 1.64672 0
M  V30 2720 C 264.564 4.45805 2.95232 0
M  V30 2721 C 265.864 5.14865 0.878155 0
M  V30 2722 H 267.558 2.98537 0.22713 0
M  V30 2723 H 265.104 1.43596 0.107805 0
M  V30 2724 H 267.057 3.27951 2.64624 0
M  V30 2725 H 265.781 2.04056 2.55007 0
M  V30 2726 H 264.44 3.52228 1.01641 0
M  V30 2727 H 264.088 3.62181 3.49047 0
M  V30 2728 H 263.788 5.204 2.7287 0
M  V30 2729 H 265.312 4.91962 3.6167 0
M  V30 2730 H 266.726 5.55059 1.43466 0
M  V30 2731 H 265.123 5.95348 0.753738 0
M  V30 2732 H 266.193 4.84735 -0.126377 0
M  V30 2733 N 267.536 -0.106894 1.57237 0
M  V30 2734 C 268.761 -0.830287 1.90055 0
M  V30 2735 C 269.186 -1.72064 0.75998 0
M  V30 2736 O 268.544 -1.78982 -0.288991 0
M  V30 2737 C 268.592 -1.6295 3.21683 0
M  V30 2738 O 267.696 -2.73748 3.08441 0
M  V30 2739 H 267.037 -0.228855 0.623315 0
M  V30 2740 H 269.567 -0.085658 2.04421 0
M  V30 2741 H 269.577 -2.01621 3.54701 0
M  V30 2742 H 268.252 -0.975989 4.04286 0
M  V30 2743 H 266.829 -2.38192 2.86913 0
M  V30 2744 N 269.014 -1.53014 -0.377408 0
M  V30 2745 C 269.961 -1.78616 -1.46168 0
M  V30 2746 C 270.931 -0.629917 -1.53692 0
M  V30 2747 O 272.116 -0.870861 -1.69766 0
M  V30 2748 C 269.256 -1.97123 -2.8326 0
M  V30 2749 C 268.369 -3.24831 -2.84796 0
M  V30 2750 C 267.504 -3.33591 -4.13389 0
M  V30 2751 C 266.543 -4.55377 -4.09021 0
M  V30 2752 N 265.68 -4.61355 -5.29241 0
M  V30 2753 H 270.52 -2.71142 -1.23637 0
M  V30 2754 H 268.057 -1.34326 -0.599577 0
M  V30 2755 H 270.015 -2.05839 -3.62886 0
M  V30 2756 H 268.645 -1.07946 -3.04216 0
M  V30 2757 H 267.697 -3.25128 -1.97474 0
M  V30 2758 H 269.009 -4.14523 -2.77439 0
M  V30 2759 H 268.163 -3.41554 -5.01424 0
M  V30 2760 H 266.902 -2.41894 -4.23484 0
M  V30 2761 H 265.907 -4.47527 -3.19373 0
M  V30 2762 H 267.132 -5.48402 -4.00539 0
M  V30 2763 H 265.078 -3.72554 -5.39944 0
M  V30 2764 H 264.995 -5.44935 -5.24006 0
M  V30 2765 H 266.263 -4.73586 -6.19141 0
M  V30 2766 N 270.492 0.636531 -1.44174 0
M  V30 2767 C 271.44 1.76995 -1.50915 0
M  V30 2768 C 272.434 1.65053 -0.381295 0
M  V30 2769 O 273.64 1.71197 -0.55601 0
M  V30 2770 H 270.015 0.584247 -0.473455 0
M  V30 2771 H 271.986 1.68432 -2.4632 0
M  V30 2772 C 270.735 3.15314 -1.46534 0
M  V30 2773 H 270.058 3.25149 -2.32633 0
M  V30 2774 H 271.498 3.9453 -1.55312 0
M  V30 2775 C 269.957 3.3639 -0.185305 0
M  V30 2776 O 270.487 3.94699 0.746688 0
M  V30 2777 N 268.693 2.9046 -0.0901606 0
M  V30 2778 H 268.24 2.43193 -0.849416 0
M  V30 2779 H 268.198 3.04937 0.765553 0
M  V30 2780 N 271.97 1.30982 0.876444 0
M  V30 2781 C 273.218 1.20058 1.62575 0
M  V30 2782 C 273.539 -0.242947 1.93481 0
M  V30 2783 O 272.809 -1.1619 1.57724 0
M  V30 2784 H 271.389 0.44135 0.602677 0
M  V30 2785 H 274.051 1.64222 1.04962 0
M  V30 2786 H 273.147 1.76762 2.57219 0
M  V30 2787 N 273.449 -1.08991 1.13837 0
M  V30 2788 C 274.396 -2.15748 0.819835 0
M  V30 2789 C 275.366 -1.64636 -0.220026 0
M  V30 2790 O 276.551 -1.90582 -0.0912757 0
M  V30 2791 C 273.691 -3.4382 0.296913 0
M  V30 2792 C 272.804 -4.0881 1.39636 0
M  V30 2793 C 271.939 -5.24655 0.831314 0
M  V30 2794 C 270.978 -5.81575 1.90886 0
M  V30 2795 N 270.115 -6.88774 1.36142 0
M  V30 2796 H 274.955 -2.42338 1.73426 0
M  V30 2797 H 272.492 -1.18935 0.865613 0
M  V30 2798 H 274.45 -4.17193 -0.0244339 0
M  V30 2799 H 273.08 -3.17535 -0.580628 0
M  V30 2800 H 272.132 -3.33258 1.83422 0
M  V30 2801 H 273.444 -4.47141 2.21058 0
M  V30 2802 H 272.598 -6.04942 0.461515 0
M  V30 2803 H 271.337 -4.87698 -0.013932 0
M  V30 2804 H 270.342 -4.99946 2.28767 0
M  V30 2805 H 271.567 -6.20592 2.75758 0
M  V30 2806 H 269.513 -6.53788 0.538254 0
M  V30 2807 H 269.43 -7.25898 2.11208 0
M  V30 2808 H 270.698 -7.72806 1.01933 0
M  V30 2809 N 274.927 -0.932562 -1.27047 0
M  V30 2810 C 276.155 -0.592031 -1.98249 0
M  V30 2811 C 276.57 0.831062 -1.69525 0
M  V30 2812 O 275.927 1.55299 -0.958561 0
M  V30 2813 C 275.978 -0.814279 -3.5221 0
M  V30 2814 O 275.699 -2.18139 -3.7993 0
M  V30 2815 C 277.2 -0.483121 -4.4066 0
M  V30 2816 H 274.42 -0.223896 -0.632544 0
M  V30 2817 H 276.964 -1.25091 -1.61779 0
M  V30 2818 H 275.119 -0.20213 -3.86872 0
M  V30 2819 H 275.533 -2.235 -4.74498 0
M  V30 2820 H 277.007 -0.689298 -5.47679 0
M  V30 2821 H 277.484 0.581546 -4.35333 0
M  V30 2822 H 278.09 -1.07362 -4.11526 0
M  V30 2823 N 276.405 1.4127 -0.698611 0
M  V30 2824 C 277.352 2.30773 -0.0352094 0
M  V30 2825 C 278.322 1.47273 0.768111 0
M  V30 2826 O 279.507 1.76053 0.735524 0
M  V30 2827 C 276.647 3.33346 0.893 0
M  V30 2828 C 275.76 4.31924 0.0809695 0
M  V30 2829 C 274.895 5.21566 1.0071 0
M  V30 2830 C 273.934 6.11811 0.188155 0
M  V30 2831 N 273.071 6.93926 1.06825 0
M  V30 2832 H 277.911 2.86943 -0.804207 0
M  V30 2833 H 275.448 1.4132 -0.408294 0
M  V30 2834 H 277.406 3.91368 1.44523 0
M  V30 2835 H 276.036 2.78719 1.62836 0
M  V30 2836 H 275.088 3.75825 -0.588224 0
M  V30 2837 H 276.4 4.95716 -0.553801 0
M  V30 2838 H 275.554 5.84437 1.62845 0
M  V30 2839 H 274.293 4.58008 1.67572 0
M  V30 2840 H 273.298 5.47986 -0.446254 0
M  V30 2841 H 274.523 6.77425 -0.476716 0
M  V30 2842 H 272.469 6.32973 1.72283 0
M  V30 2843 H 272.386 7.54416 0.489123 0
M  V30 2844 H 273.654 7.61262 1.67632 0
M  V30 2845 N 277.883 0.443576 1.51229 0
M  V30 2846 C 278.83 -0.364716 2.279 0
M  V30 2847 C 279.8 -1.0114 1.31757 0
M  V30 2848 O 280.985 -1.02912 1.60667 0
M  V30 2849 C 278.125 -1.45644 3.12861 0
M  V30 2850 C 277.238 -0.827269 4.24005 0
M  V30 2851 C 276.373 -1.89456 4.96266 0
M  V30 2852 C 275.412 -1.24416 5.99322 0
M  V30 2853 N 274.549 -2.25309 6.64966 0
M  V30 2854 H 279.389 0.295464 2.96532 0
M  V30 2855 H 276.926 0.157554 1.46254 0
M  V30 2856 H 278.884 -2.10076 3.6045 0
M  V30 2857 H 277.514 -2.08616 2.46331 0
M  V30 2858 H 276.566 -0.0710839 3.80334 0
M  V30 2859 H 277.878 -0.312481 4.9782 0
M  V30 2860 H 277.032 -2.61535 5.47434 0
M  V30 2861 H 275.771 -2.4431 4.22095 0
M  V30 2862 H 274.776 -0.508868 5.4744 0
M  V30 2863 H 276.001 -0.702882 6.75453 0
M  V30 2864 H 273.947 -2.79231 5.93604 0
M  V30 2865 H 273.864 -1.78739 7.34567 0
M  V30 2866 H 275.132 -2.96853 7.20763 0
M  V30 2867 N 279.361 -1.56624 0.175154 0
M  V30 2868 C 280.609 -1.96609 -0.467885 0
M  V30 2869 C 280.93 -1.06238 -1.63519 0
M  V30 2870 O 280.2 -0.129523 -1.95471 0
M  V30 2871 H 278.78 -0.726008 -0.175845 0
M  V30 2872 H 281.442 -1.93195 0.257234 0
M  V30 2873 H 280.538 -3.00989 -0.825342 0
M  V30 2874 N 280.839 0.0985539 -1.57292 0
M  V30 2875 C 281.787 1.1387 -2.02821 0
M  V30 2876 C 282.781 1.41676 -0.928666 0
M  V30 2877 O 283.987 1.41398 -1.11385 0
M  V30 2878 H 280.362 0.384419 -0.646317 0
M  V30 2879 H 282.333 0.728347 -2.89375 0
M  V30 2880 C 281.082 2.45166 -2.46554 0
M  V30 2881 H 280.405 2.24613 -3.3074 0
M  V30 2882 H 281.845 3.16456 -2.8219 0
M  V30 2883 C 280.304 3.09216 -1.33742 0
M  V30 2884 O 280.834 3.96163 -0.66464 0
M  V30 2885 N 279.04 2.69413 -1.08928 0
M  V30 2886 H 278.587 1.98801 -1.63817 0
M  V30 2887 H 278.545 3.12594 -0.336458 0
M  V30 2888 N 282.317 1.53212 0.369288 0
M  V30 2889 C 283.733 1.42902 0.710712 0
M  V30 2890 C 283.933 0.565135 1.93413 0
M  V30 2891 O 282.989 0.0461484 2.52458 0
M  V30 2892 C 284.302 2.86042 0.927382 0
M  V30 2893 C 285.85 2.9565 1.02762 0
M  V30 2894 C 286.325 4.39843 1.27679 0
M  V30 2895 N 287.816 4.43256 1.34457 0
M  V30 2896 C 288.551 5.51929 1.55439 0
M  V30 2897 N 288.047 6.70655 1.73762 0
M  V30 2898 N 289.84 5.39502 1.57779 0
M  V30 2899 H 281.991 2.07888 -0.435457 0
M  V30 2900 H 284.254 0.938661 -0.132739 0
M  V30 2901 H 283.96 3.51557 0.100287 0
M  V30 2902 H 283.834 3.29472 1.83653 0
M  V30 2903 H 286.221 2.30291 1.84527 0
M  V30 2904 H 286.302 2.5562 0.0959504 0
M  V30 2905 H 285.946 5.05774 0.464175 0
M  V30 2906 H 285.876 4.77443 2.22162 0
M  V30 2907 H 288.367 3.5769 1.21926 0
M  V30 2908 H 288.68 7.49248 1.89335 0
M  V30 2909 H 287.025 6.73648 1.70948 0
M  V30 2910 H 290.216 4.45713 1.43029 0
M  V30 2911 H 290.389 6.2426 1.7379 0
M  V30 2912 N 283.795 -0.628877 1.44509 0
M  V30 2913 C 285.041 -1.39045 1.47629 0
M  V30 2914 C 285.374 -1.93892 0.109343 0
M  V30 2915 O 284.649 -1.7379 -0.87334 0
M  V30 2916 C 284.932 -2.55408 2.53848 0
M  V30 2917 C 284.785 -2.05896 3.99909 0
M  V30 2918 C 286.104 -3.5759 2.56549 0
M  V30 2919 H 283.223 -0.504232 0.537512 0
M  V30 2920 H 285.865 -0.710854 1.76201 0
M  V30 2921 H 284.015 -3.13384 2.29615 0
M  V30 2922 H 285.687 -1.52734 4.35282 0
M  V30 2923 H 283.93 -1.37061 4.11578 0
M  V30 2924 H 284.601 -2.89681 4.69882 0
M  V30 2925 H 287.077 -3.09419 2.78207 0
M  V30 2926 H 285.953 -4.36527 3.32769 0
M  V30 2927 H 286.214 -4.11808 1.60832 0
M  V30 2928 N 285.273 -1.31445 -0.869486 0
M  V30 2929 C 286.498 -1.24256 -1.66058 0
M  V30 2930 C 286.923 0.188928 -1.87149 0
M  V30 2931 O 286.281 1.13522 -1.4136 0
M  V30 2932 C 286.329 -1.9924 -3.00559 0
M  V30 2933 O 285.433 -1.33007 -3.90362 0
M  V30 2934 H 284.774 -0.428973 -0.506831 0
M  V30 2935 H 287.304 -1.73521 -1.08404 0
M  V30 2936 H 287.314 -2.08854 -3.50491 0
M  V30 2937 H 285.989 -3.03342 -2.84528 0
M  V30 2938 H 284.566 -1.31848 -3.48813 0
M  V30 2939 N 286.751 1.08385 -1.14413 0
M  V30 2940 C 288.162 1.62258 -0.923535 0
M  V30 2941 C 288.513 1.88691 0.537595 0
M  V30 2942 O 287.638 1.64454 1.40655 0
M  V30 2943 C 288.233 2.94781 -1.67002 0
M  V30 2944 C 286.792 3.45437 -1.495 0
M  V30 2945 C 285.939 2.19668 -1.69238 0
M  V30 2946 H 288.89 0.916086 -1.2959 0
M  V30 2947 H 288.911 3.63229 -1.13334 0
M  V30 2948 H 288.423 2.7551 -2.73342 0
M  V30 2949 H 286.524 3.6981 -0.455097 0
M  V30 2950 H 286.637 4.22173 -2.2651 0
M  V30 2951 H 285.001 2.28849 -1.11804 0
M  V30 2952 H 285.784 2.02905 -2.7692 0
M  V30 2953 N 288.23 0.939286 1.26551 0
M  V30 2954 C 289.458 0.602536 1.97932 0
M  V30 2955 C 289.873 -0.82206 1.69964 0
M  V30 2956 O 289.23 -1.54789 0.966784 0
M  V30 2957 C 289.281 0.832946 3.51773 0
M  V30 2958 O 289.002 2.20151 3.78768 0
M  V30 2959 C 290.503 0.506483 4.40397 0
M  V30 2960 H 287.723 0.227248 0.631347 0
M  V30 2961 H 290.267 1.25948 1.61113 0
M  V30 2962 H 288.422 0.222644 3.8676 0
M  V30 2963 H 288.836 2.26013 4.73306 0
M  V30 2964 H 290.31 0.718333 5.47306 0
M  V30 2965 H 290.787 -0.558451 4.35635 0
M  V30 2966 H 291.393 1.09543 4.10951 0
M  V30 2967 N 289.708 -1.40897 0.706093 0
M  V30 2968 C 290.641 -2.282 -0.00328781 0
M  V30 2969 C 291.619 -1.42816 -0.77732 0
M  V30 2970 O 292.803 -1.72237 -0.765944 0
M  V30 2971 C 289.93 -3.23226 -1.01205 0
M  V30 2972 C 288.976 -4.25222 -0.329955 0
M  V30 2973 S 289.809 -5.27269 0.935298 0
M  V30 2974 C 290.965 -6.25859 -0.0716061 0
M  V30 2975 H 291.198 -2.88016 0.737143 0
M  V30 2976 H 288.731 -1.46191 0.496756 0
M  V30 2977 H 290.689 -3.78503 -1.58888 0
M  V30 2978 H 289.35 -2.62485 -1.72513 0
M  V30 2979 H 288.543 -4.92023 -1.09221 0
M  V30 2980 H 288.145 -3.73595 0.174069 0
M  V30 2981 H 290.437 -6.71204 -0.921521 0
M  V30 2982 H 291.38 -7.0586 0.562765 0
M  V30 2983 H 291.788 -5.62852 -0.431088 0
M  V30 2984 N 291.186 -0.45159 -1.50991 0
M  V30 2985 C 292.133 0.352625 -2.2809 0
M  V30 2986 C 293.103 1.0044 -1.32291 0
M  V30 2987 O 294.288 1.02058 -1.6121 0
M  V30 2988 C 291.428 1.43983 -3.13629 0
M  V30 2989 C 290.541 0.804772 -4.24438 0
M  V30 2990 C 289.676 1.86822 -4.97263 0
M  V30 2991 C 288.715 1.21236 -5.99973 0
M  V30 2992 N 287.852 2.2178 -6.66152 0
M  V30 2993 H 292.692 -0.311186 -2.96371 0
M  V30 2994 H 290.229 -0.165308 -1.46168 0
M  V30 2995 H 292.187 2.08161 -3.61559 0
M  V30 2996 H 290.817 2.07307 -2.47434 0
M  V30 2997 H 289.869 0.0509129 -3.80366 0
M  V30 2998 H 291.181 0.286076 -4.97979 0
M  V30 2999 H 290.335 2.58628 -5.48813 0
M  V30 3000 H 289.074 2.42068 -4.23385 0
M  V30 3001 H 288.079 0.479828 -5.47702 0
M  V30 3002 H 289.304 0.667051 -6.75816 0
M  V30 3003 H 287.25 2.76079 -5.95077 0
M  V30 3004 H 287.167 1.74841 -7.35504 0
M  V30 3005 H 288.435 2.93026 -7.22327 0
M  V30 3006 N 292.664 1.56529 -0.183458 0
M  V30 3007 C 293.91 1.97537 0.459036 0
M  V30 3008 C 294.243 1.06989 1.62071 0
M  V30 3009 O 293.518 0.11948 1.94133 0
M  V30 3010 C 293.801 3.47874 0.930368 0
M  V30 3011 C 293.654 4.492 -0.232317 0
M  V30 3012 C 294.973 4.01612 1.79989 0
M  V30 3013 H 292.092 0.718204 0.165383 0
M  V30 3014 H 294.734 1.88042 -0.272038 0
M  V30 3015 H 292.884 3.56095 1.55333 0
M  V30 3016 H 294.556 4.53027 -0.86972 0
M  V30 3017 H 292.799 4.24657 -0.885928 0
M  V30 3018 H 293.47 5.51823 0.139796 0
M  V30 3019 H 295.946 3.96097 1.27461 0
M  V30 3020 H 294.822 5.07195 2.09867 0
M  V30 3021 H 295.083 3.46163 2.74998 0
M  V30 3022 N 294.142 -0.090211 1.57342 0
M  V30 3023 C 295.37 -0.806224 1.90546 0
M  V30 3024 C 295.785 -1.72041 0.777644 0
M  V30 3025 O 295.142 -1.80778 -0.250103 0
M  V30 3026 C 295.193 -1.61546 3.23396 0
M  V30 3027 O 294.914 -0.738043 4.31839 0
M  V30 3028 C 296.415 -2.4341 3.70495 0
M  V30 3029 H 293.635 -0.230256 0.630257 0
M  V30 3030 H 296.179 -0.0659843 2.04394 0
M  V30 3031 H 294.334 -2.30816 3.11131 0
M  V30 3032 H 294.748 -1.29901 5.08159 0
M  V30 3033 H 296.222 -2.95676 4.66133 0
M  V30 3034 H 296.699 -3.22098 2.98579 0
M  V30 3035 H 297.305 -1.79331 3.85643 0
M  V30 3036 N 295.62 -1.53406 -0.361157 0
M  V30 3037 C 296.57 -1.76536 -1.44287 0
M  V30 3038 C 297.554 -0.620019 -1.48474 0
M  V30 3039 O 298.746 -0.878834 -1.53641 0
M  V30 3040 C 295.875 -1.96266 -2.81664 0
M  V30 3041 C 294.961 -3.16815 -2.81938 0
M  V30 3042 N 295.352 -4.38637 -2.51855 0
M  V30 3043 C 293.65 -3.17627 -3.13096 0
M  V30 3044 C 294.351 -5.20401 -2.59919 0
M  V30 3045 N 293.327 -4.56712 -2.94814 0
M  V30 3046 H 297.129 -2.68331 -1.19899 0
M  V30 3047 H 294.643 -1.52091 -0.56938 0
M  V30 3048 H 296.64 -2.10966 -3.59582 0
M  V30 3049 H 295.3 -1.05702 -3.07013 0
M  V30 3050 H 296.311 -4.66293 -2.25369 0
M  V30 3051 H 292.988 -2.36971 -3.43731 0
M  V30 3052 H 294.378 -6.27586 -2.39969 0
M  V30 3053 N 297.098 0.621204 -1.44841 0
M  V30 3054 C 298.345 1.38055 -1.48145 0
M  V30 3055 C 298.673 1.94143 -0.117867 0
M  V30 3056 O 297.928 1.74713 0.881694 0
M  V30 3057 C 298.227 2.55675 -2.4973 0
M  V30 3058 C 297.893 2.17817 -3.94799 0
M  V30 3059 C 296.555 2.07205 -4.34303 0
M  V30 3060 C 298.907 1.88065 -4.86087 0
M  V30 3061 C 296.235 1.65045 -5.63007 0
M  V30 3062 C 298.587 1.47394 -6.15189 0
M  V30 3063 C 297.251 1.35331 -6.53637 0
M  V30 3064 H 296.521 0.505181 -0.542101 0
M  V30 3065 H 299.168 0.703477 -1.78111 0
M  V30 3066 H 297.473 3.2866 -2.13284 0
M  V30 3067 H 299.17 3.13904 -2.4953 0
M  V30 3068 H 295.76 2.26998 -3.63552 0
M  V30 3069 H 299.944 1.95168 -4.56315 0
M  V30 3070 H 295.2 1.54317 -5.91605 0
M  V30 3071 H 299.374 1.23415 -6.85377 0
M  V30 3072 H 297.001 1.02435 -7.53267 0
M  V30 3073 N 298.576 1.31904 0.862503 0
M  V30 3074 C 299.506 1.22782 1.98612 0
M  V30 3075 C 300.487 0.113362 1.69722 0
M  V30 3076 O 301.672 0.299218 1.91881 0
M  V30 3077 C 298.802 0.942058 3.34279 0
M  V30 3078 C 297.756 2.0169 3.77499 0
M  V30 3079 C 297.082 1.58369 5.10709 0
M  V30 3080 C 298.382 3.43096 3.93805 0
M  V30 3081 H 300.076 2.16788 2.06502 0
M  V30 3082 H 297.622 1.04366 0.992154 0
M  V30 3083 H 299.575 0.864818 4.1243 0
M  V30 3084 H 298.299 -0.0336603 3.26583 0
M  V30 3085 H 296.958 2.08416 3.01593 0
M  V30 3086 H 296.606 0.595628 4.99461 0
M  V30 3087 H 296.306 2.30279 5.40597 0
M  V30 3088 H 297.83 1.52067 5.91361 0
M  V30 3089 H 299.244 3.39003 4.62331 0
M  V30 3090 H 297.641 4.13288 4.35101 0
M  V30 3091 H 298.711 3.83334 2.96957 0
M  V30 3092 N 300.054 -1.07777 1.14986 0
M  V30 3093 C 301.465 -1.61766 0.932127 0
M  V30 3094 C 301.816 -1.88974 -0.527581 0
M  V30 3095 O 300.941 -1.65198 -1.39781 0
M  V30 3096 C 301.536 -2.93891 1.68563 0
M  V30 3097 C 300.095 -3.44639 1.5133 0
M  V30 3098 C 299.242 -2.18767 1.704 0
M  V30 3099 H 302.193 -0.909201 1.30074 0
M  V30 3100 H 302.214 -3.62623 1.15259 0
M  V30 3101 H 301.726 -2.74057 2.74799 0
M  V30 3102 H 299.827 -3.69564 0.474702 0
M  V30 3103 H 299.94 -4.20966 2.28746 0
M  V30 3104 H 298.304 -2.28253 1.13016 0
M  V30 3105 H 299.087 -2.01433 2.77992 0
M  V30 3106 N 301.532 -0.945985 -1.26051 0
M  V30 3107 C 302.948 -0.649045 -1.45807 0
M  V30 3108 C 303.148 0.796158 -1.85104 0
M  V30 3109 O 302.204 1.57233 -1.97571 0
M  V30 3110 C 303.517 -1.61458 -2.53677 0
M  V30 3111 C 305.065 -1.62481 -2.67524 0
M  V30 3112 C 305.54 -2.57776 -3.7857 0
M  V30 3113 N 307.031 -2.5609 -3.85969 0
M  V30 3114 C 307.766 -3.26508 -4.7136 0
M  V30 3115 N 307.262 -4.0637 -5.61102 0
M  V30 3116 N 309.055 -3.15437 -4.65248 0
M  V30 3117 H 301.206 -1.88005 -0.988328 0
M  V30 3118 H 303.469 -0.808198 -0.4955 0
M  V30 3119 H 303.175 -2.64644 -2.31638 0
M  V30 3120 H 303.049 -1.37036 -3.51427 0
M  V30 3121 H 305.436 -0.600167 -2.88933 0
M  V30 3122 H 305.517 -1.90958 -1.70202 0
M  V30 3123 H 305.161 -3.60361 -3.57913 0
M  V30 3124 H 305.091 -2.26587 -4.75359 0
M  V30 3125 H 307.582 -1.98105 -3.21812 0
M  V30 3126 H 307.895 -4.57042 -6.23164 0
M  V30 3127 H 306.24 -4.10469 -5.60839 0
M  V30 3128 H 309.431 -2.52525 -3.94143 0
M  V30 3129 H 309.604 -3.70584 -5.31575 0
M  V30 3130 N 303.011 1.40521 -0.713556 0
M  V30 3131 C 303.941 2.33381 -0.0743864 0
M  V30 3132 C 304.922 1.52784 0.747735 0
M  V30 3133 O 306.107 1.81258 0.697071 0
M  V30 3134 C 303.237 3.36748 0.849598 0
M  V30 3135 C 302.191 4.27793 0.133247 0
M  V30 3136 C 301.517 5.21679 1.17281 0
M  V30 3137 C 302.817 5.12415 -1.01134 0
M  V30 3138 H 304.511 2.87081 -0.850007 0
M  V30 3139 H 302.057 1.38034 -0.410201 0
M  V30 3140 H 304.01 4.00648 1.30612 0
M  V30 3141 H 302.734 2.81439 1.65709 0
M  V30 3142 H 301.393 3.65342 -0.303426 0
M  V30 3143 H 301.041 4.62677 1.9733 0
M  V30 3144 H 300.741 5.83435 0.698397 0
M  V30 3145 H 302.265 5.88456 1.62947 0
M  V30 3146 H 303.679 5.69781 -0.634274 0
M  V30 3147 H 302.076 5.83203 -1.41399 0
M  V30 3148 H 303.146 4.48514 -1.84292 0
M  V30 3149 O 304.528 0.601524 1.4988 0
M  V30 3150 H 305.219 0.111623 1.93378 0
M  V30 END ATOM
M  V30 BEGIN BOND
M  V30 END BOND
M  V30 END CTAB
M  END
$$$$
