drugbank_target|P08692 Arsenate reductase (DB01808; DB03289; DB03352; DB04456)
 OpenBabel12092119523D

  0  0  0     0  0            999 V3000
M  V30 BEGIN CTAB
M  V30 COUNTS 2249 2265 0 0 0
M  V30 BEGIN ATOM
M  V30 1 H -0.908 1.98254 -0.117106 0
M  V30 2 N 0 1.576 0 0
M  V30 3 C 0.933 2.03868 1.02534 0
M  V30 4 C 1.911 0.928543 1.3348 0
M  V30 5 O 3.095 1.19667 1.45644 0
M  V30 6 C 0.222 2.43627 2.35294 0
M  V30 7 C -0.732 3.65373 2.2001 0
M  V30 8 S 0.101 5.13292 1.52614 0
M  V30 9 C 1.257 5.56322 2.86805 0
M  V30 10 H 1.49 2.90518 0.631377 0
M  V30 11 H -0.977 1.52953 0.210867 0
M  V30 12 H 0.981 2.67203 3.11629 0
M  V30 13 H -0.358 1.57376 2.7183 0
M  V30 14 H -1.165 3.90944 3.18086 0
M  V30 15 H -1.563 3.418 1.51819 0
M  V30 16 H 0.729 5.58782 3.83104 0
M  V30 17 H 1.672 6.56266 2.65933 0
M  V30 18 H 2.08 4.83886 2.90714 0
M  V30 19 N 1.4781 -0.272755 1.55222 0
M  V30 20 C 2.7031 -1.02683 1.80197 0
M  V30 21 C 3.1281 -1.79142 0.573551 0
M  V30 22 O 2.4861 -1.74917 -0.476849 0
M  V30 23 C 2.5341 -1.9609 3.02624 0
M  V30 24 O 1.6381 -3.04863 2.77727 0
M  V30 25 H 0.9791 -0.293557 0.595584 0
M  V30 26 H 3.5091 -0.30159 2.02365 0
M  V30 27 H 3.5191 -2.38039 3.31363 0
M  V30 28 H 2.1941 -1.39851 3.91682 0
M  V30 29 H 0.7711 -2.67228 2.60084 0
M  V30 30 N 2.9562 -1.48159 -0.537278 0
M  V30 31 C 3.9042 -1.62573 -1.66352 0
M  V30 32 C 4.8982 -0.492366 -1.62087 0
M  V30 33 O 6.1042 -0.670847 -1.67032 0
M  V30 34 H 2.4792 -0.511992 -0.550789 0
M  V30 35 H 4.4502 -2.57176 -1.51337 0
M  V30 36 C 3.1992 -1.67583 -3.04649 0
M  V30 37 H 2.5222 -2.54151 -3.08622 0
M  V30 38 H 3.9622 -1.81713 -3.83088 0
M  V30 39 C 2.4212 -0.413039 -3.34358 0
M  V30 40 O 2.9512 0.477259 -3.98855 0
M  V30 41 N 1.1572 -0.286961 -2.8918 0
M  V30 42 H 0.7042 -1.01241 -2.36871 0
M  V30 43 H 0.6622 0.556963 -3.09427 0
M  V30 44 N 4.4343 0.785586 -1.36625 0
M  V30 45 C 5.6833 1.53883 -1.30396 0
M  V30 46 C 5.9963 1.95271 0.113452 0
M  V30 47 O 7.2023 2.69858 0.298142 0
M  V30 48 C 5.6583 2.77808 -2.28802 0
M  V30 49 C 5.2663 2.43574 -3.75999 0
M  V30 50 C 7.0103 3.55783 -2.31558 0
M  V30 51 C 4.9173 3.63919 -4.66173 0
M  V30 52 H 3.8473 0.577678 -0.484566 0
M  V30 53 H 6.4983 0.861705 -1.62009 0
M  V30 54 H 4.8803 3.47339 -1.90188 0
M  V30 55 H 6.0543 1.81916 -4.23371 0
M  V30 56 H 4.3693 1.78803 -3.76056 0
M  V30 57 H 6.9663 4.45205 -2.96137 0
M  V30 58 H 7.3093 3.94644 -1.3252 0
M  V30 59 H 7.8423 2.93235 -2.68809 0
M  V30 60 H 4.5813 3.3015 -5.66287 0
M  V30 61 H 4.1013 4.2473 -4.23515 0
M  V30 62 H 5.7803 4.30901 -4.82632 0
M  V30 63 N 5.9124 1.20967 1.01018 0
M  V30 64 C 7.1404 1.04956 1.78303 0
M  V30 65 C 7.5554 -0.400915 1.84494 0
M  V30 66 O 6.9124 -1.27826 1.30257 0
M  V30 67 C 6.9634 1.63403 3.22462 0
M  V30 68 O 6.6844 3.02775 3.16637 0
M  V30 69 C 8.1854 1.52432 4.16268 0
M  V30 70 H 5.4054 0.368858 0.560522 0
M  V30 71 H 7.9494 1.60193 1.27116 0
M  V30 72 H 6.1044 1.1227 3.70775 0
M  V30 73 H 6.5184 3.30626 4.07169 0
M  V30 74 H 7.9924 1.98078 5.15237 0
M  V30 75 H 8.4694 0.477875 4.36592 0
M  V30 76 H 9.0754 2.02787 3.73841 0
M  V30 77 N 7.3905 -1.2043 1.01659 0
M  V30 78 C 8.6395 -1.89118 0.701237 0
M  V30 79 C 8.9525 -1.79705 -0.772358 0
M  V30 80 O 10.1585 -2.43528 -1.20026 0
M  V30 81 C 8.6145 -3.39168 1.20388 0
M  V30 82 C 8.2225 -3.57166 2.70438 0
M  V30 83 C 9.9665 -4.1341 0.963953 0
M  V30 84 C 7.8735 -5.01042 3.14183 0
M  V30 85 H 6.8035 -0.708267 0.2586 0
M  V30 86 H 9.4545 -1.36239 1.22927 0
M  V30 87 H 7.8365 -3.91369 0.603824 0
M  V30 88 H 9.0105 -3.15351 3.35992 0
M  V30 89 H 7.3255 -2.96294 2.92572 0
M  V30 90 H 9.9225 -5.19491 1.26621 0
M  V30 91 H 10.2655 -4.16181 -0.099578 0
M  V30 92 H 10.7985 -3.67309 1.52738 0
M  V30 93 H 7.5375 -5.03426 4.19812 0
M  V30 94 H 7.0575 -5.43668 2.53348 0
M  V30 95 H 8.7365 -5.69623 3.0682 0
M  V30 96 N 8.8686 -0.792821 -1.36206 0
M  V30 97 C 10.0986 -0.378275 -2.03107 0
M  V30 98 C 10.5066 1.01119 -1.59911 0
M  V30 99 O 9.8496 1.66052 -0.785658 0
M  V30 100 C 9.9116 -0.366535 -3.57627 0
M  V30 101 C 9.5756 -1.70416 -4.24037 0
M  V30 102 C 10.5726 -2.6602 -4.46687 0
M  V30 103 C 8.2576 -1.98439 -4.6144 0
M  V30 104 C 10.2516 -3.8784 -5.05825 0
M  V30 105 C 7.9386 -3.20525 -5.20295 0
M  V30 106 C 8.9366 -4.15044 -5.42427 0
M  V30 107 O 8.6246 -5.34978 -6.00045 0
M  V30 108 H 8.3566 -0.153543 -0.658332 0
M  V30 109 H 10.9106 -1.07383 -1.75094 0
M  V30 110 H 9.1406 0.385539 -3.84773 0
M  V30 111 H 10.8296 0.0238088 -4.05893 0
M  V30 112 H 11.5956 -2.45658 -4.18183 0
M  V30 113 H 7.4746 -1.25686 -4.43536 0
M  V30 114 H 11.0186 -4.61628 -5.23015 0
M  V30 115 H 6.9156 -3.40764 -5.48225 0
M  V30 116 H 7.6836 -5.36088 -6.18508 0
M  V30 117 N 10.3467 1.47872 -0.545128 0
M  V30 118 C 11.2967 2.26842 0.229456 0
M  V30 119 C 12.2807 1.33626 0.896267 0
M  V30 120 O 13.4727 1.58063 0.79657 0
M  V30 121 C 10.6017 3.19089 1.26638 0
M  V30 122 C 9.6877 4.19783 0.603598 0
M  V30 123 N 10.0787 5.0479 -0.319405 0
M  V30 124 C 8.3767 4.3765 0.858989 0
M  V30 125 C 9.0777 5.77433 -0.703241 0
M  V30 126 N 8.0537 5.43566 -0.0608309 0
M  V30 127 H 11.8557 2.89947 -0.480391 0
M  V30 128 H 9.3697 1.58263 -0.364209 0
M  V30 129 H 11.3667 3.74337 1.83515 0
M  V30 130 H 10.0267 2.5754 1.97745 0
M  V30 131 H 11.0377 5.13244 -0.692889 0
M  V30 132 H 7.7147 3.87281 1.55948 0
M  V30 133 H 9.1047 6.55824 -1.46098 0
M  V30 134 N 11.8248 0.280983 1.55075 0
M  V30 135 C 12.7728 -0.619864 2.24188 0
M  V30 136 C 13.7668 -1.15315 1.24092 0
M  V30 137 O 14.9728 -1.1061 1.42005 0
M  V30 138 H 11.3478 -0.218459 0.719569 0
M  V30 139 H 13.3188 -0.0141831 2.98397 0
M  V30 140 C 12.0678 -1.7899 2.98091 0
M  V30 141 H 11.3908 -1.38874 3.74905 0
M  V30 142 H 12.8308 -2.39672 3.49762 0
M  V30 143 C 11.2898 -2.68192 2.03899 0
M  V30 144 O 11.8198 -3.6872 1.594 0
M  V30 145 N 10.0258 -2.35488 1.70275 0
M  V30 146 H 9.5728 -1.53787 2.06658 0
M  V30 147 H 9.5308 -2.95442 1.07524 0
M  V30 148 N 13.3029 -1.57598 0.00835791 0
M  V30 149 C 14.7139 -1.7892 -0.53333 0
M  V30 150 C 15.0649 -0.916609 -1.73473 0
M  V30 151 O 14.1899 -0.121336 -2.1606 0
M  V30 152 C 14.7849 -3.24488 -0.974313 0
M  V30 153 C 13.3439 -3.46878 -1.46125 0
M  V30 154 C 12.4909 -2.74157 -0.416302 0
M  V30 155 H 15.4419 -1.56958 0.234495 0
M  V30 156 H 15.4629 -3.3306 -1.83988 0
M  V30 157 H 14.9749 -3.87972 -0.099718 0
M  V30 158 H 13.0759 -2.8862 -2.35646 0
M  V30 159 H 13.1889 -4.55572 -1.48295 0
M  V30 160 H 11.5529 -2.39022 -0.87981 0
M  V30 161 H 12.3359 -3.40345 0.44947 0
M  V30 162 N 14.781 0.264519 -1.55364 0
M  V30 163 C 15.744 1.31046 -1.88042 0
M  V30 164 C 16.744 1.41943 -0.755569 0
M  V30 165 O 17.934 1.40947 -1.02369 0
M  V30 166 C 15.066 2.69067 -2.09323 0
M  V30 167 H 16.259 1.03297 -2.81549 0
M  V30 168 H 13.812 0.502989 -1.47986 0
M  V30 169 H 14.547 3.01982 -1.18226 0
M  V30 170 H 14.332 2.62542 -2.91229 0
M  V30 171 H 15.822 3.44623 -2.35848 0
M  V30 172 N 16.2591 1.48442 0.529413 0
M  V30 173 C 17.4991 1.58086 1.29569 0
M  V30 174 C 17.8631 0.249302 1.90375 0
M  V30 175 O 19.0641 0.220738 2.67892 0
M  V30 176 C 17.3351 2.68793 2.35552 0
M  V30 177 S 18.8941 2.98207 3.21898 0
M  V30 178 H 15.7121 0.557922 0.440732 0
M  V30 179 H 18.3141 1.85966 0.603059 0
M  V30 180 H 17.0181 3.64102 1.89363 0
M  V30 181 H 16.5491 2.42817 3.09522 0
M  V30 182 H 18.5641 2.37548 4.35644 0
M  V30 183 N 17.7372 -0.778329 1.37039 0
M  V30 184 C 18.9852 -1.53361 1.31623 0
M  V30 185 C 19.3062 -1.94739 -0.100831 0
M  V30 186 O 18.5762 -1.65797 -1.04347 0
M  V30 187 H 17.1562 -0.568794 0.484234 0
M  V30 188 H 19.8182 -0.926742 1.71457 0
M  V30 189 H 18.9142 -2.43606 1.95096 0
M  V30 190 N 19.2153 -1.21501 -1.00376 0
M  V30 191 C 20.4433 -1.059 -1.77744 0
M  V30 192 C 20.8583 0.391125 -1.84704 0
M  V30 193 O 20.2153 1.27133 -1.30933 0
M  V30 194 C 20.2663 -1.65111 -3.21591 0
M  V30 195 O 19.9873 -3.0445 -3.15027 0
M  V30 196 C 21.4883 -1.54637 -4.15454 0
M  V30 197 H 18.7083 -0.371825 -0.558558 0
M  V30 198 H 21.2523 -1.60865 -1.26264 0
M  V30 199 H 19.4073 -1.14235 -3.70175 0
M  V30 200 H 19.8213 -3.3278 -4.0541 0
M  V30 201 H 21.2953 -2.00808 -5.14179 0
M  V30 202 H 21.7723 -0.501022 -4.36333 0
M  V30 203 H 22.3783 -2.04767 -3.72761 0
M  V30 204 N 20.6934 1.19889 -1.02296 0
M  V30 205 C 21.9184 1.9393 -0.735237 0
M  V30 206 C 22.3434 1.74639 0.698782 0
M  V30 207 O 21.7014 1.04481 1.48167 0
M  V30 208 C 21.7494 3.43916 -1.08417 0
M  V30 209 O 20.8534 4.11917 -0.199446 0
M  V30 210 H 20.1944 0.605645 -0.272196 0
M  V30 211 H 22.7244 1.52137 -1.36804 0
M  V30 212 H 22.7344 3.9456 -1.03856 0
M  V30 213 H 21.4094 3.5728 -2.12894 0
M  V30 214 H 19.9864 3.71666 -0.303136 0
M  V30 215 N 22.1715 0.800033 1.35784 0
M  V30 216 C 23.5875 0.482977 1.52117 0
M  V30 217 C 23.7875 -0.996948 1.75109 0
M  V30 218 O 22.8435 -1.78216 1.78872 0
M  V30 219 C 24.1565 1.32264 2.70049 0
M  V30 220 C 25.7045 1.31742 2.83924 0
M  V30 221 C 26.1795 2.14106 4.04874 0
M  V30 222 N 27.6705 2.11607 4.12039 0
M  V30 223 C 28.4055 2.72099 5.04727 0
M  V30 224 N 27.9015 3.41492 6.02789 0
M  V30 225 N 29.6945 2.61776 4.97423 0
M  V30 226 H 21.8455 1.75856 1.19115 0
M  V30 227 H 24.1085 0.748122 0.582252 0
M  V30 228 H 23.8145 2.37261 2.59616 0
M  V30 229 H 23.6885 0.971303 3.6448 0
M  V30 230 H 26.0755 0.275333 2.93813 0
M  V30 231 H 26.1565 1.70859 1.9037 0
M  V30 232 H 25.8005 3.18351 3.95746 0
M  V30 233 H 25.7305 1.72353 4.97596 0
M  V30 234 H 28.2215 1.61112 3.41835 0
M  V30 235 H 28.5345 3.84953 6.70098 0
M  V30 236 H 26.8795 3.45596 6.02983 0
M  V30 237 H 30.0705 2.07157 4.19766 0
M  V30 238 H 30.2435 3.0921 5.69468 0
M  V30 239 N 23.6496 -1.47581 0.552962 0
M  V30 240 C 24.5976 -2.31648 -0.21023 0
M  V30 241 C 25.5916 -1.42663 -0.913432 0
M  V30 242 O 26.7976 -1.5945 -0.835201 0
M  V30 243 H 23.1726 -0.746989 -0.0866676 0
M  V30 244 H 25.1436 -2.93869 0.518051 0
M  V30 245 C 23.8926 -3.25226 -1.22976 0
M  V30 246 H 23.2156 -3.93658 -0.698077 0
M  V30 247 H 24.6556 -3.86889 -1.73473 0
M  V30 248 C 23.1146 -2.48448 -2.27542 0
M  V30 249 O 23.6446 -2.22585 -3.34393 0
M  V30 250 N 21.8506 -2.09532 -2.01357 0
M  V30 251 H 21.3976 -2.30765 -1.14478 0
M  V30 252 H 21.3556 -1.58476 -2.71538 0
M  V30 253 N 25.1277 -0.289203 -1.54924 0
M  V30 254 C 26.3557 0.326463 -2.04308 0
M  V30 255 C 26.7707 1.48413 -1.16701 0
M  V30 256 O 26.1277 1.81507 -0.190087 0
M  V30 257 C 26.1787 0.794014 -3.52672 0
M  V30 258 O 25.8997 -0.317564 -4.36948 0
M  V30 259 C 27.4007 1.47605 -4.18004 0
M  V30 260 H 24.6207 0.0726272 -0.667058 0
M  V30 261 H 27.1647 -0.425401 -2.00026 0
M  V30 262 H 25.3197 1.49593 -3.57352 0
M  V30 263 H 25.7337 0.0443186 -5.24481 0
M  V30 264 H 27.2077 1.75447 -5.23376 0
M  V30 265 H 27.6847 2.41224 -3.67025 0
M  V30 266 H 28.2907 0.81762 -4.17367 0
M  V30 267 N 26.6058 1.57591 -0.0167156 0
M  V30 268 C 27.5358 2.12496 0.967858 0
M  V30 269 C 28.5168 1.03807 1.34752 0
M  V30 270 O 29.7018 1.31577 1.42833 0
M  V30 271 C 26.8318 2.64194 2.25431 0
M  V30 272 C 25.7858 3.77559 2.01576 0
M  V30 273 C 25.1118 4.15636 3.36379 0
M  V30 274 C 26.4118 5.04151 1.36489 0
M  V30 275 H 28.1058 2.95013 0.510643 0
M  V30 276 H 25.6518 1.41915 0.244181 0
M  V30 277 H 27.6048 3.01236 2.94678 0
M  V30 278 H 26.3288 1.78821 2.73296 0
M  V30 279 H 24.9878 3.40937 1.34751 0
M  V30 280 H 24.6358 3.27263 3.81979 0
M  V30 281 H 24.3358 4.92022 3.21229 0
M  V30 282 H 25.8598 4.5525 4.06915 0
M  V30 283 H 27.2738 5.38857 1.95718 0
M  V30 284 H 25.6708 5.85453 1.31776 0
M  V30 285 H 26.7408 4.83733 0.336219 0
M  V30 286 N 28.0839 -0.256276 1.55502 0
M  V30 287 C 28.9939 -1.33882 1.92647 0
M  V30 288 C 30.0099 -1.53159 0.825727 0
M  V30 289 O 31.1859 -1.66963 1.12629 0
M  V30 290 C 28.2509 -2.6751 2.20543 0
M  V30 291 C 27.3119 -2.56836 3.43997 0
M  V30 292 C 26.5449 -3.84092 3.70553 0
M  V30 293 O 26.7679 -4.85545 2.99336 0
M  V30 294 O 25.7019 -3.83288 4.64084 0
M  V30 295 H 29.5279 -1.05374 2.84833 0
M  V30 296 H 27.1129 -0.456237 1.42263 0
M  V30 297 H 28.9949 -3.46492 2.39835 0
M  V30 298 H 27.6699 -2.9577 1.31536 0
M  V30 299 H 26.5769 -1.76172 3.30021 0
M  V30 300 H 27.9099 -2.33523 4.33275 0
M  V30 301 N 29.562 -1.4872 -0.521534 0
M  V30 302 C 30.495 -1.58451 -1.64221 0
M  V30 303 C 31.473 -0.434513 -1.56687 0
M  V30 304 O 32.657 -0.647275 -1.77038 0
M  V30 305 C 29.784 -1.52037 -3.02659 0
M  V30 306 C 28.83 -2.71981 -3.28525 0
M  V30 307 S 29.663 -4.33869 -3.13876 0
M  V30 308 C 30.819 -4.30067 -4.54745 0
M  V30 309 H 31.052 -2.53256 -1.55719 0
M  V30 310 H 28.585 -1.37358 -0.705143 0
M  V30 311 H 30.543 -1.49023 -3.82495 0
M  V30 312 H 29.204 -0.585541 -3.08594 0
M  V30 313 H 28.397 -2.63656 -4.29536 0
M  V30 314 H 27.999 -2.72302 -2.56374 0
M  V30 315 H 30.291 -4.00521 -5.46433 0
M  V30 316 H 31.234 -5.31287 -4.68123 0
M  V30 317 H 31.642 -3.60419 -4.34463 0
M  V30 318 N 31.0401 0.771051 -1.3745 0
M  V30 319 C 32.2891 1.52491 -1.3202 0
M  V30 320 C 32.6021 1.9538 0.0927347 0
M  V30 321 O 33.8081 2.70159 0.269503 0
M  V30 322 C 32.2641 2.75366 -2.31736 0
M  V30 323 C 31.8721 2.39573 -3.78562 0
M  V30 324 C 33.6161 3.53307 -2.35318 0
M  V30 325 C 31.5231 3.58954 -4.70007 0
M  V30 326 H 30.4531 0.572506 -0.490666 0
M  V30 327 H 33.1041 0.844474 -1.62914 0
M  V30 328 H 31.4861 3.45303 -1.93861 0
M  V30 329 H 32.6601 1.77415 -4.25277 0
M  V30 330 H 30.9751 1.74805 -3.77932 0
M  V30 331 H 33.5721 4.42039 -3.00842 0
M  V30 332 H 33.9151 3.93217 -1.36698 0
M  V30 333 H 34.4481 2.90367 -2.71904 0
M  V30 334 H 31.1871 3.24125 -5.69757 0
M  V30 335 H 30.7071 4.20214 -4.27996 0
M  V30 336 H 32.3861 4.25758 -4.87175 0
M  V30 337 N 32.5182 1.22032 0.997298 0
M  V30 338 C 33.9342 0.979326 1.26021 0
M  V30 339 C 34.1342 -0.32972 1.98784 0
M  V30 340 O 33.1902 -1.05345 2.29475 0
M  V30 341 C 34.5032 2.17509 2.07631 0
M  V30 342 C 36.0512 2.21817 2.2083 0
M  V30 343 C 36.5262 3.40933 3.05825 0
M  V30 344 N 38.0172 3.41067 3.13412 0
M  V30 345 C 38.7522 4.29885 3.79455 0
M  V30 346 N 38.2482 5.28914 4.47462 0
M  V30 347 N 40.0412 4.17673 3.76173 0
M  V30 348 H 32.1922 2.06202 0.509352 0
M  V30 349 H 34.4552 0.90334 0.287541 0
M  V30 350 H 34.1612 3.12415 1.61524 0
M  V30 351 H 34.0352 2.17206 3.08385 0
M  V30 352 H 36.4222 1.27462 2.66153 0
M  V30 353 H 36.5032 2.2616 1.1952 0
M  V30 354 H 36.1472 4.35586 2.61203 0
M  V30 355 H 36.0772 3.33829 4.07266 0
M  V30 356 H 38.5682 2.69406 2.65007 0
M  V30 357 H 38.8812 5.92973 4.95583 0
M  V30 358 H 37.2262 5.32831 4.46224 0
M  V30 359 H 40.4172 3.39564 3.22202 0
M  V30 360 H 40.5902 4.87098 4.27363 0
M  V30 361 N 33.9963 -1.19345 1.0293 0
M  V30 362 C 34.9443 -2.24621 0.604001 0
M  V30 363 C 35.9383 -1.65452 -0.363587 0
M  V30 364 O 37.1443 -1.78497 -0.23212 0
M  V30 365 H 33.5193 -0.730858 0.177061 0
M  V30 366 H 35.4903 -2.5781 1.50255 0
M  V30 367 C 34.2393 -3.47688 -0.0289127 0
M  V30 368 H 33.5623 -3.93505 0.706651 0
M  V30 369 H 35.0023 -4.23011 -0.289432 0
M  V30 370 C 33.4613 -3.11817 -1.2756 0
M  V30 371 O 33.9913 -3.2451 -2.36762 0
M  V30 372 N 32.1973 -2.66246 -1.16453 0
M  V30 373 H 31.7443 -2.56118 -0.275914 0
M  V30 374 H 31.7023 -2.42617 -1.99961 0
M  V30 375 N 35.4744 -0.807222 -1.35358 0
M  V30 376 C 36.6994 -0.399309 -2.0352 0
M  V30 377 C 37.1244 0.981986 -1.60433 0
M  V30 378 O 36.4824 1.63601 -0.781299 0
M  V30 379 C 36.5304 -0.491552 -3.57234 0
M  V30 380 O 35.6344 0.494754 -4.09421 0
M  V30 381 H 34.9754 -0.166682 -0.642739 0
M  V30 382 H 37.5054 -1.09328 -1.72941 0
M  V30 383 H 37.5154 -0.361588 -4.06395 0
M  V30 384 H 36.1904 -1.49907 -3.87944 0
M  V30 385 H 34.7674 0.324977 -3.71481 0
M  V30 386 N 36.9525 1.47285 -0.560781 0
M  V30 387 C 38.2005 2.02064 -0.0379868 0
M  V30 388 C 38.5215 1.43711 1.31803 0
M  V30 389 O 37.7915 0.61362 1.86042 0
M  V30 390 H 36.3715 0.746918 -0.0110531 0
M  V30 391 H 39.0335 1.80648 -0.731598 0
M  V30 392 H 38.1295 3.12064 0.0474463 0
M  V30 393 N 38.4306 0.297415 1.54768 0
M  V30 394 C 39.6586 -0.315623 2.04478 0
M  V30 395 C 40.0736 -1.47792 1.17486 0
M  V30 396 O 39.4306 -1.81404 0.19971 0
M  V30 397 C 39.4816 -0.7753 3.53088 0
M  V30 398 O 39.2026 0.340732 4.36773 0
M  V30 399 C 40.7036 -1.45386 4.18781 0
M  V30 400 H 37.9236 -0.0690887 0.667434 0
M  V30 401 H 40.4676 0.436003 1.99798 0
M  V30 402 H 38.6226 -1.47696 3.58141 0
M  V30 403 H 39.0366 -0.0165035 5.24497 0
M  V30 404 H 40.5106 -1.72669 5.24299 0
M  V30 405 H 40.9876 -2.39275 3.68299 0
M  V30 406 H 41.5936 -0.795475 4.17795 0
M  V30 407 N 39.9087 -1.5758 0.0250728 0
M  V30 408 C 40.8187 -2.1343 -0.973905 0
M  V30 409 C 41.8347 -1.08556 -1.35984 0
M  V30 410 O 43.0107 -1.40592 -1.44207 0
M  V30 411 C 40.0757 -2.64703 -2.23904 0
M  V30 412 C 39.1367 -3.84276 -1.91391 0
M  V30 413 C 38.3697 -4.33095 -3.11873 0
M  V30 414 O 38.5927 -3.81107 -4.24398 0
M  V30 415 O 37.5267 -5.24984 -2.94406 0
M  V30 416 H 41.3527 -2.99057 -0.529036 0
M  V30 417 H 38.9377 -1.48118 -0.195288 0
M  V30 418 H 40.8197 -2.97769 -2.98181 0
M  V30 419 H 39.4947 -1.82161 -2.6758 0
M  V30 420 H 38.4017 -3.56143 -1.14511 0
M  V30 421 H 39.7347 -4.67968 -1.52534 0
M  V30 422 N 41.3868 0.248026 -1.55636 0
M  V30 423 C 42.7978 0.817177 -1.67866 0
M  V30 424 C 43.1488 1.86069 -0.622322 0
M  V30 425 O 42.2738 2.15157 0.231618 0
M  V30 426 C 42.8688 1.489 -3.04326 0
M  V30 427 C 41.4278 2.00587 -3.185 0
M  V30 428 C 40.5748 0.856573 -2.63739 0
M  V30 429 H 43.5258 0.0238579 -1.58682 0
M  V30 430 H 43.5468 2.35698 -2.98708 0
M  V30 431 H 43.0588 0.729279 -3.81186 0
M  V30 432 H 41.1598 2.79443 -2.4646 0
M  V30 433 H 41.2728 2.20402 -4.25393 0
M  V30 434 H 39.6368 1.25678 -2.21534 0
M  V30 435 H 40.4198 0.109953 -3.43124 0
M  V30 436 N 42.8649 1.48995 0.513639 0
M  V30 437 C 44.0929 1.61531 1.29288 0
M  V30 438 C 44.5079 0.281801 1.86685 0
M  V30 439 O 43.8649 -0.731111 1.67215 0
M  V30 440 C 43.9159 2.67449 2.43215 0
M  V30 441 O 43.6369 3.95626 1.88179 0
M  V30 442 C 45.1379 2.90575 3.34785 0
M  V30 443 H 42.3579 0.544165 0.392588 0
M  V30 444 H 44.9019 1.9494 0.617956 0
M  V30 445 H 43.0569 2.36853 3.0656 0
M  V30 446 H 43.4709 4.53868 2.62876 0
M  V30 447 H 44.9449 3.68449 4.11035 0
M  V30 448 H 45.4219 2.00011 3.91015 0
M  V30 449 H 46.0279 3.22538 2.77218 0
M  V30 450 N 44.343 -0.763751 1.37857 0
M  V30 451 C 45.592 -1.51789 1.32827 0
M  V30 452 C 45.905 -1.95426 -0.0823719 0
M  V30 453 O 47.111 -2.70298 -0.255172 0
M  V30 454 C 45.567 -2.74133 2.33193 0
M  V30 455 C 45.175 -2.37562 3.79827 0
M  V30 456 C 46.919 -3.52054 2.37188 0
M  V30 457 C 44.826 -3.56456 4.71904 0
M  V30 458 H 43.756 -0.569896 0.493695 0
M  V30 459 H 46.407 -0.835822 1.63359 0
M  V30 460 H 44.789 -3.4427 1.9569 0
M  V30 461 H 45.963 -1.75157 4.26212 0
M  V30 462 H 44.278 -1.72798 3.78853 0
M  V30 463 H 46.875 -4.40437 3.03182 0
M  V30 464 H 47.218 -3.92486 1.38782 0
M  V30 465 H 47.751 -2.88921 2.7344 0
M  V30 466 H 44.49 -3.21099 5.71468 0
M  V30 467 H 44.01 -4.17938 4.30218 0
M  V30 468 H 45.689 -4.23168 4.89426 0
M  V30 469 N 45.8211 -1.22559 -0.990812 0
M  V30 470 C 47.0701 -1.04553 -1.72486 0
M  V30 471 C 47.3831 0.419349 -1.91052 0
M  V30 472 O 48.5891 0.719121 -2.61803 0
M  V30 473 C 47.0451 -1.82231 -3.10355 0
M  V30 474 C 46.6531 -3.32981 -2.99713 0
M  V30 475 C 48.3971 -1.7268 -3.87791 0
M  V30 476 C 46.3041 -4.03091 -4.32748 0
M  V30 477 H 45.2341 -0.387614 -0.646739 0
M  V30 478 H 47.8851 -1.46429 -1.10593 0
M  V30 479 H 46.2671 -1.33155 -3.72942 0
M  V30 480 H 47.4411 -3.89466 -2.46278 0
M  V30 481 H 45.7561 -3.43231 -2.35758 0
M  V30 482 H 48.3531 -2.22381 -4.86262 0
M  V30 483 H 48.6961 -0.687607 -4.10582 0
M  V30 484 H 49.2291 -2.1931 -3.31885 0
M  V30 485 H 45.9681 -5.07273 -4.15156 0
M  V30 486 H 45.4881 -3.51394 -4.86089 0
M  V30 487 H 47.1671 -4.08804 -5.01486 0
M  V30 488 N 47.2992 1.18797 -1.03562 0
M  V30 489 C 48.2292 2.24472 -0.643019 0
M  V30 490 C 49.2102 1.66433 0.351283 0
M  V30 491 O 50.3952 1.92803 0.232505 0
M  V30 492 C 47.5252 3.473 4.24935e-05 0
M  V30 493 C 46.4792 4.18055 -0.917257 0
M  V30 494 C 45.8052 5.34519 -0.138941 0
M  V30 495 C 47.1052 4.72109 -2.23407 0
M  V30 496 H 48.7992 2.57566 -1.52643 0
M  V30 497 H 46.3452 1.23806 -0.735394 0
M  V30 498 H 48.2982 4.20426 0.286383 0
M  V30 499 H 47.0222 3.13424 0.918299 0
M  V30 500 H 45.6812 3.46821 -1.1879 0
M  V30 501 H 45.3292 4.96891 0.781562 0
M  V30 502 H 45.0292 5.82794 -0.750005 0
M  V30 503 H 46.5532 6.10438 0.1405 0
M  V30 504 H 47.9672 5.36955 -2.00879 0
M  V30 505 H 46.3642 5.30897 -2.79765 0
M  V30 506 H 47.4342 3.89807 -2.88407 0
M  V30 507 N 48.7773 0.814389 1.34928 0
M  V30 508 C 50.0073 0.41054 2.0248 0
M  V30 509 C 50.4153 -0.985625 1.61499 0
M  V30 510 O 49.7583 -1.64781 0.811976 0
M  V30 511 C 49.8203 0.423384 3.56998 0
M  V30 512 C 49.4843 1.77141 4.21272 0
M  V30 513 C 50.4813 2.73093 4.42398 0
M  V30 514 C 48.1663 2.05755 4.58225 0
M  V30 515 C 50.1603 3.95838 4.9959 0
M  V30 516 C 47.8473 3.28762 5.1513 0
M  V30 517 C 48.8453 4.23621 5.35755 0
M  V30 518 O 48.5333 5.44456 5.91458 0
M  V30 519 H 48.2653 0.163997 0.655806 0
M  V30 520 H 50.8193 1.10155 1.73364 0
M  V30 521 H 49.0493 -0.324276 3.85338 0
M  V30 522 H 50.7383 0.0407683 4.0588 0
M  V30 523 H 51.5043 2.5228 4.14222 0
M  V30 524 H 47.3833 1.32727 4.4148 0
M  V30 525 H 50.9273 4.69891 5.15605 0
M  V30 526 H 46.8243 3.49443 5.42734 0
M  V30 527 H 47.5923 5.4586 6.09901 0
M  V30 528 N 50.2554 -1.46986 0.568584 0
M  V30 529 C 51.1854 -2.32946 -0.160753 0
M  V30 530 C 52.1664 -1.44487 -0.897631 0
M  V30 531 O 53.3514 -1.73327 -0.875867 0
M  V30 532 C 50.4814 -3.26494 -1.18403 0
M  V30 533 C 49.4354 -4.24282 -0.562895 0
M  V30 534 C 48.7614 -5.07236 -1.69163 0
M  V30 535 C 50.0614 -5.19989 0.490761 0
M  V30 536 H 51.7554 -2.94175 0.556916 0
M  V30 537 H 49.3014 -1.4146 0.26927 0
M  V30 538 H 51.2544 -3.85477 -1.70251 0
M  V30 539 H 49.9784 -2.63343 -1.93179 0
M  V30 540 H 48.6374 -3.66541 -0.0656164 0
M  V30 541 H 48.2854 -4.4048 -2.42871 0
M  V30 542 H 47.9854 -5.7345 -1.28174 0
M  V30 543 H 49.5094 -5.6908 -2.21314 0
M  V30 544 H 50.9234 -5.73271 0.0579047 0
M  V30 545 H 49.3204 -5.94469 0.820165 0
M  V30 546 H 50.3904 -4.64777 1.3824 0
M  V30 547 N 51.7335 -0.305618 -1.54608 0
M  V30 548 C 52.6435 0.57778 -2.27374 0
M  V30 549 C 53.6595 1.14451 -1.31061 0
M  V30 550 O 54.8355 1.16831 -1.6405 0
M  V30 551 C 51.9005 1.73123 -3.00382 0
M  V30 552 C 50.9615 1.19812 -4.12242 0
M  V30 553 C 50.1945 2.2966 -4.81759 0
M  V30 554 O 50.4175 3.49651 -4.50666 0
M  V30 555 O 49.3515 1.96091 -5.69062 0
M  V30 556 H 53.1775 -0.012624 -3.03697 0
M  V30 557 H 50.7625 -0.0719184 -1.49227 0
M  V30 558 H 52.6445 2.40315 -3.4616 0
M  V30 559 H 51.3195 2.30815 -2.26949 0
M  V30 560 H 50.2265 0.491798 -3.70853 0
M  V30 561 H 51.5595 0.666566 -4.87666 0
M  V30 562 N 53.2116 1.57565 -0.0334293 0
M  V30 563 C 54.1596 2.1164 0.96496 0
M  V30 564 C 55.1536 1.04398 1.33407 0
M  V30 565 O 56.3596 1.22828 1.3158 0
M  V30 566 H 52.7346 0.676222 0.32898 0
M  V30 567 H 54.7056 2.94455 0.483614 0
M  V30 568 C 53.4546 2.66207 2.23672 0
M  V30 569 H 52.7776 3.48378 1.96145 0
M  V30 570 H 54.2176 3.07685 2.9173 0
M  V30 571 C 52.6766 1.59151 2.96939 0
M  V30 572 O 53.2066 0.993858 3.89211 0
M  V30 573 N 51.4126 1.31093 2.59351 0
M  V30 574 H 50.9596 1.7988 1.84393 0
M  V30 575 H 50.9176 0.596889 3.08682 0
M  V30 576 N 54.6897 -0.239769 1.55765 0
M  V30 577 C 56.1007 -0.808263 1.68297 0
M  V30 578 C 56.4517 -1.85736 0.632181 0
M  V30 579 O 55.5767 -2.15277 -0.220204 0
M  V30 580 C 56.1717 -1.47284 3.05111 0
M  V30 581 C 54.7307 -1.98895 3.19559 0
M  V30 582 C 53.8777 -0.842575 2.64189 0
M  V30 583 H 56.8287 -0.0154422 1.58692 0
M  V30 584 H 56.8497 -2.34111 2.99954 0
M  V30 585 H 56.3617 -0.709053 3.81568 0
M  V30 586 H 54.4627 -2.78132 2.47938 0
M  V30 587 H 54.5757 -2.18143 4.26556 0
M  V30 588 H 52.9397 -1.24501 2.22197 0
M  V30 589 H 53.7227 -0.0917552 3.43177 0
M  V30 590 N 56.1678 -1.49265 -0.50573 0
M  V30 591 C 57.5788 -1.51769 -1.08734 0
M  V30 592 C 57.9298 -0.301192 -1.93874 0
M  V30 593 O 57.0548 0.589456 -2.08217 0
M  V30 594 C 57.6498 -2.75017 -1.97867 0
M  V30 595 C 56.2088 -2.80314 -2.51199 0
M  V30 596 C 55.3558 -2.4562 -1.28709 0
M  V30 597 H 58.3068 -1.56031 -0.289855 0
M  V30 598 H 58.3278 -2.5491 -2.82491 0
M  V30 599 H 57.8398 -3.63539 -1.35873 0
M  V30 600 H 55.9408 -1.96061 -3.16845 0
M  V30 601 H 56.0538 -3.82366 -2.88675 0
M  V30 602 H 54.4178 -1.97297 -1.61078 0
M  V30 603 H 55.2008 -3.36411 -0.6843 0
M  V30 604 N 57.6459 0.756429 -1.3826 0
M  V30 605 C 58.8709 1.55077 -1.37717 0
M  V30 606 C 59.2959 1.88073 0.03164 0
M  V30 607 O 58.6539 1.50364 1.01293 0
M  V30 608 C 58.7019 2.8283 -2.23695 0
M  V30 609 O 57.8059 3.77862 -1.6521 0
M  V30 610 H 57.1469 0.469152 -0.469885 0
M  V30 611 H 59.6769 0.935019 -1.81985 0
M  V30 612 H 59.6869 3.31783 -2.37453 0
M  V30 613 H 58.3619 2.58144 -3.2609 0
M  V30 614 H 56.9389 3.36555 -1.60578 0
M  V30 615 N 59.124 1.23083 0.984299 0
M  V30 616 C 60.54 0.992637 1.24975 0
M  V30 617 C 60.74 -0.308618 1.99123 0
M  V30 618 O 59.796 -1.02905 2.30579 0
M  V30 619 C 61.109 2.19698 2.05312 0
M  V30 620 C 62.657 2.24147 2.18465 0
M  V30 621 C 63.132 3.44157 3.02192 0
M  V30 622 N 64.623 3.44372 3.09777 0
M  V30 623 C 65.358 4.33886 3.74874 0
M  V30 624 N 64.854 5.3363 4.41827 0
M  V30 625 N 66.647 4.21639 3.71721 0
M  V30 626 H 58.798 2.06731 0.487453 0
M  V30 627 H 61.061 0.906339 0.277944 0
M  V30 628 H 60.767 3.1411 1.58201 0
M  V30 629 H 60.641 2.20465 3.06064 0
M  V30 630 H 63.028 1.30277 2.64786 0
M  V30 631 H 63.109 2.27415 1.17115 0
M  V30 632 H 62.753 4.38332 2.56568 0
M  V30 633 H 62.683 3.3813 4.03702 0
M  V30 634 H 65.174 2.72201 2.62135 0
M  V30 635 H 65.487 5.98196 4.89266 0
M  V30 636 H 63.832 5.37534 4.40548 0
M  V30 637 H 67.023 3.42962 3.18582 0
M  V30 638 H 67.196 4.91604 4.22173 0
M  V30 639 N 60.6021 -1.18246 1.0419 0
M  V30 640 C 61.8791 -1.84121 0.660208 0
M  V30 641 C 62.2591 -1.92778 -0.860221 0
M  V30 642 O 61.6071 -1.45464 -1.76217 0
M  V30 643 C 61.8171 -3.22355 1.33747 0
M  V30 644 C 63.1651 -3.98376 1.46906 0
M  V30 645 O 64.1891 -3.31799 1.29568 0
M  V30 646 O 63.0481 -5.17665 1.75171 0
M  V30 647 H 60.1421 -0.794036 0.231161 0
M  V30 648 H 62.6881 -1.25628 1.14087 0
M  V30 649 H 61.4601 -3.10964 2.37522 0
M  V30 650 H 61.0831 -3.88506 0.845515 0
M  V30 651 N 62.0802 -0.821533 -1.34494 0
M  V30 652 C 62.9902 -0.244355 -2.33324 0
M  V30 653 C 64.0062 0.620527 -1.62559 0
M  V30 654 O 65.1822 0.528754 -1.94335 0
M  V30 655 C 62.2472 0.585368 -3.41723 0
M  V30 656 C 61.3082 -0.301752 -4.28238 0
M  V30 657 C 60.5412 0.488466 -5.3146 0
M  V30 658 O 60.7642 1.72186 -5.4379 0
M  V30 659 O 59.6982 -0.12848 -6.01763 0
M  V30 660 H 63.5242 -1.06231 -2.84515 0
M  V30 661 H 61.1092 -0.583645 -1.37528 0
M  V30 662 H 62.9912 1.05747 -4.07916 0
M  V30 663 H 61.6662 1.38068 -2.92778 0
M  V30 664 H 60.5732 -0.821315 -3.64973 0
M  V30 665 H 61.9062 -1.06138 -4.8062 0
M  V30 666 N 63.5583 1.46682 -0.576371 0
M  V30 667 C 64.4883 2.33028 0.148397 0
M  V30 668 C 65.4693 1.44961 0.889956 0
M  V30 669 O 66.6543 1.73789 0.866662 0
M  V30 670 C 63.7843 3.27117 1.1667 0
M  V30 671 C 62.7383 4.24575 0.540386 0
M  V30 672 C 62.0643 5.08126 1.6647 0
M  V30 673 C 63.3643 5.19722 -0.518331 0
M  V30 674 H 65.0583 2.93875 -0.572509 0
M  V30 675 H 62.6043 1.41315 -0.276768 0
M  V30 676 H 64.5573 3.86374 1.68204 0
M  V30 677 H 63.2813 2.64364 1.9178 0
M  V30 678 H 61.9403 3.66571 0.0461769 0
M  V30 679 H 61.5883 4.41762 2.40531 0
M  V30 680 H 61.2883 5.74122 1.25131 0
M  V30 681 H 62.8123 5.70246 2.18293 0
M  V30 682 H 64.2263 5.73232 -0.0883058 0
M  V30 683 H 62.6233 5.94026 -0.851679 0
M  V30 684 H 63.6933 4.64037 -1.40703 0
M  V30 685 N 65.0364 0.313813 1.54444 0
M  V30 686 C 66.2824 -0.292108 2.00685 0
M  V30 687 C 66.6154 -1.52548 1.20177 0
M  V30 688 O 65.8904 -1.92452 0.281531 0
M  V30 689 C 66.1734 -0.635968 3.5444 0
M  V30 690 C 66.0264 0.607437 4.4568 0
M  V30 691 C 67.3454 -1.45747 4.15266 0
M  V30 692 H 64.4644 -0.104697 0.729526 0
M  V30 693 H 67.1064 0.428457 1.85106 0
M  V30 694 H 65.2564 -1.24986 3.67846 0
M  V30 695 H 66.9284 1.24581 4.44159 0
M  V30 696 H 65.1714 1.23822 4.15753 0
M  V30 697 H 65.8424 0.322515 5.51057 0
M  V30 698 H 68.3184 -0.938645 4.05375 0
M  V30 699 H 67.1944 -1.66683 5.2298 0
M  V30 700 H 67.4554 -2.45063 3.67963 0
M  V30 701 N 66.5145 -1.57545 0.0417849 0
M  V30 702 C 67.4615 -2.10977 -0.935805 0
M  V30 703 C 68.4315 -1.01486 -1.31491 0
M  V30 704 O 69.6165 -1.2898 -1.40602 0
M  V30 705 C 66.7565 -2.65169 -2.2086 0
M  V30 706 C 65.8695 -3.88714 -1.88482 0
M  V30 707 C 65.0045 -4.31254 -3.1015 0
M  V30 708 C 64.0435 -5.47524 -2.7365 0
M  V30 709 N 63.1805 -5.85162 -3.87982 0
M  V30 710 H 68.0205 -2.94218 -0.473249 0
M  V30 711 H 65.5575 -1.45415 -0.221981 0
M  V30 712 H 67.5155 -2.94685 -2.95325 0
M  V30 713 H 66.1455 -1.8474 -2.64709 0
M  V30 714 H 65.1975 -3.65849 -1.04205 0
M  V30 715 H 66.5095 -4.73245 -1.57608 0
M  V30 716 H 65.6635 -4.62273 -3.92923 0
M  V30 717 H 64.4025 -3.45516 -3.44195 0
M  V30 718 H 63.4075 -5.16187 -1.89291 0
M  V30 719 H 64.6325 -6.34971 -2.40807 0
M  V30 720 H 62.5785 -5.02377 -4.21846 0
M  V30 721 H 62.4955 -6.64362 -3.60775 0
M  V30 722 H 63.7635 -6.20791 -4.71422 0
M  V30 723 N 67.9926 0.231505 -1.5589 0
M  V30 724 C 68.9226 1.29022 -1.94617 0
M  V30 725 C 69.9036 1.4941 -0.813067 0
M  V30 726 O 71.0886 1.6176 -1.07459 0
M  V30 727 C 68.2186 2.64199 -2.25424 0
M  V30 728 C 67.1726 2.58484 -3.41131 0
M  V30 729 C 66.4986 3.97599 -3.57518 0
M  V30 730 C 67.7986 2.1413 -4.76388 0
M  V30 731 H 69.4926 0.968563 -2.83301 0
M  V30 732 H 67.0386 0.464479 -1.36303 0
M  V30 733 H 68.9916 3.38413 -2.51107 0
M  V30 734 H 67.7156 2.98032 -1.33583 0
M  V30 735 H 66.3746 1.86727 -3.15481 0
M  V30 736 H 66.0226 4.28723 -2.6307 0
M  V30 737 H 65.7226 3.94659 -4.35337 0
M  V30 738 H 67.2466 4.7349 -3.85538 0
M  V30 739 H 68.6606 2.78083 -5.01341 0
M  V30 740 H 67.0576 2.2227 -5.57419 0
M  V30 741 H 68.1276 1.09331 -4.72414 0
M  V30 742 N 69.4707 1.49531 0.497807 0
M  V30 743 C 70.7197 1.58426 1.24837 0
M  V30 744 C 71.0327 0.277643 1.93619 0
M  V30 745 O 72.2387 0.24517 2.70391 0
M  V30 746 C 70.6947 2.79538 2.26686 0
M  V30 747 C 70.3027 4.16971 1.63828 0
M  V30 748 C 72.0467 2.97764 3.0255 0
M  V30 749 C 69.9537 5.29301 2.63807 0
M  V30 750 H 68.8837 0.58989 0.469623 0
M  V30 751 H 71.5347 1.75923 0.521857 0
M  V30 752 H 69.9167 2.55542 3.02514 0
M  V30 753 H 71.0907 4.51116 0.939711 0
M  V30 754 H 69.4057 4.04129 1.00342 0
M  V30 755 H 72.0027 3.78856 3.77323 0
M  V30 756 H 72.3457 2.08448 3.60354 0
M  V30 757 H 72.8787 3.21815 2.33838 0
M  V30 758 H 69.6177 6.20687 2.10779 0
M  V30 759 H 69.1377 4.99606 3.31894 0
M  V30 760 H 70.8167 5.58768 3.2617 0
M  V30 761 N 70.9488 -0.749086 1.3866 0
M  V30 762 C 71.9118 -1.84457 1.36045 0
M  V30 763 C 72.9118 -1.58682 0.260122 0
M  V30 764 O 74.1018 -1.66343 0.517261 0
M  V30 765 C 71.2338 -3.22008 1.11911 0
M  V30 766 H 72.4268 -1.88182 2.33512 0
M  V30 767 H 69.9798 -0.951266 1.24019 0
M  V30 768 H 70.7148 -3.2395 0.150686 0
M  V30 769 H 70.4998 -3.42111 1.91579 0
M  V30 770 H 71.9898 -4.0208 1.12788 0
M  V30 771 N 72.4269 -1.23603 -0.977757 0
M  V30 772 C 73.7039 -0.977897 -1.69401 0
M  V30 773 C 74.0839 0.502738 -2.05026 0
M  V30 774 O 73.4319 1.47459 -1.74551 0
M  V30 775 C 73.6419 -1.89077 -2.93345 0
M  V30 776 C 74.9899 -2.15579 -3.65802 0
M  V30 777 O 76.0139 -1.86648 -3.03383 0
M  V30 778 O 74.8729 -2.64658 -4.78141 0
M  V30 779 H 71.9669 -0.369025 -0.740101 0
M  V30 780 H 74.5129 -1.34657 -1.03274 0
M  V30 781 H 73.2849 -2.89158 -2.63634 0
M  V30 782 H 72.9079 -1.52463 -3.67207 0
M  V30 783 N 73.905 1.17692 -1.04816 0
M  V30 784 C 74.838 2.20436 -0.590173 0
M  V30 785 C 75.816 1.58115 0.379244 0
M  V30 786 O 77 1.86228 0.291762 0
M  V30 787 C 74.127 3.38424 0.136817 0
M  V30 788 C 73.173 4.19176 -0.787023 0
M  V30 789 S 74.006 4.84815 -2.27409 0
M  V30 790 C 75.162 6.06195 -1.55817 0
M  V30 791 H 75.395 2.58944 -1.46067 0
M  V30 792 H 72.928 1.28246 -0.859784 0
M  V30 793 H 74.886 4.06798 0.550076 0
M  V30 794 H 73.547 2.98312 0.983299 0
M  V30 795 H 72.74 5.03499 -0.224681 0
M  V30 796 H 72.342 3.56219 -1.13947 0
M  V30 797 H 74.634 6.72078 -0.855387 0
M  V30 798 H 75.577 6.6695 -2.37873 0
M  V30 799 H 75.985 5.54701 -1.04722 0
M  V30 800 N 75.3831 0.828654 1.34056 0
M  V30 801 C 76.6311 0.41863 1.97717 0
M  V30 802 C 76.9521 -1.02314 1.66002 0
M  V30 803 O 76.2221 -1.71119 0.953683 0
M  V30 804 H 74.8021 0.151809 0.731412 0
M  V30 805 H 77.4641 1.05936 1.63596 0
M  V30 806 H 76.5601 0.542318 3.07352 0
M  V30 807 N 76.8612 -1.46375 0.584142 0
M  V30 808 C 78.1102 -2.01585 0.0679741 0
M  V30 809 C 78.4232 -1.46109 -1.30045 0
M  V30 810 O 79.6292 -1.93148 -1.90804 0
M  V30 811 C 78.0852 -3.5983 0.0709207 0
M  V30 812 C 77.6932 -4.24303 1.43775 0
M  V30 813 C 79.4372 -4.22693 -0.391228 0
M  V30 814 C 77.3442 -5.74631 1.39834 0
M  V30 815 H 76.2742 -0.753689 0.0216421 0
M  V30 816 H 78.9252 -1.68093 0.736001 0
M  V30 817 H 77.3072 -3.90405 -0.663299 0
M  V30 818 H 78.4812 -4.05335 2.19181 0
M  V30 819 H 76.7962 -3.73539 1.84004 0
M  V30 820 H 79.3932 -5.3289 -0.439524 0
M  V30 821 H 79.7362 -3.91728 -1.40906 0
M  V30 822 H 80.2692 -3.96749 0.288974 0
M  V30 823 H 77.0082 -6.10258 2.39303 0
M  V30 824 H 76.5282 -5.95858 0.686505 0
M  V30 825 H 78.2072 -6.37375 1.11187 0
M  V30 826 N 78.3393 -0.321999 -1.54275 0
M  V30 827 C 79.5643 0.285791 -2.05422 0
M  V30 828 C 79.9893 1.45124 -1.19669 0
M  V30 829 O 79.3473 1.80132 -0.205441 0
M  V30 830 C 79.3953 0.69956 -3.53749 0
M  V30 831 O 78.4993 1.8021 -3.70942 0
M  V30 832 H 77.8403 0.0518962 -0.661969 0
M  V30 833 H 80.3703 -0.469954 -1.9913 0
M  V30 834 H 80.3803 0.982649 -3.9599 0
M  V30 835 H 79.0553 -0.152864 -4.15619 0
M  V30 836 H 77.6323 1.51794 -3.40607 0
M  V30 837 N 79.8174 1.5752 -0.0501392 0
M  V30 838 C 81.0634 1.92936 0.624798 0
M  V30 839 C 81.3964 0.928685 1.70555 0
M  V30 840 O 80.6714 -0.0454779 1.94447 0
M  V30 841 C 80.9544 3.38737 1.22185 0
M  V30 842 C 80.8074 4.49552 0.149218 0
M  V30 843 C 82.1264 3.84913 2.13378 0
M  V30 844 H 79.2454 0.701604 0.225657 0
M  V30 845 H 81.8874 1.89671 -0.111693 0
M  V30 846 H 80.0374 3.4165 1.84953 0
M  V30 847 H 81.7094 4.58768 -0.482648 0
M  V30 848 H 79.9524 4.30638 -0.522841 0
M  V30 849 H 80.6234 5.48653 0.606966 0
M  V30 850 H 83.0994 3.8387 1.60572 0
M  V30 851 H 81.9754 4.87584 2.52097 0
M  V30 852 H 82.2364 3.21611 3.03346 0
M  V30 853 N 81.2955 -0.223234 1.56011 0
M  V30 854 C 82.7115 -0.572856 1.48965 0
M  V30 855 C 82.9115 -1.87225 0.74492 0
M  V30 856 O 81.9675 -2.50899 0.283896 0
M  V30 857 C 83.2805 -0.653646 2.9351 0
M  V30 858 C 84.8285 -0.744386 3.0402 0
M  V30 859 C 85.3035 -0.856535 4.49919 0
M  V30 860 N 86.7945 -0.9208 4.53955 0
M  V30 861 C 87.5295 -1.02726 5.64123 0
M  V30 862 N 87.0255 -1.09777 6.84047 0
M  V30 863 N 88.8185 -1.06226 5.51971 0
M  V30 864 H 80.9695 0.629462 2.02858 0
M  V30 865 H 83.2325 0.220621 0.921971 0
M  V30 866 H 82.9385 0.231518 3.50937 0
M  V30 867 H 82.8125 -1.51781 3.45315 0
M  V30 868 H 85.1995 -1.61999 2.46658 0
M  V30 869 H 85.2805 0.14541 2.55386 0
M  V30 870 H 84.9245 0.0146069 5.07898 0
M  V30 871 H 84.8545 -1.76172 4.96257 0
M  V30 872 H 87.3455 -0.876694 3.6759 0
M  V30 873 H 87.6585 -1.17872 7.63758 0
M  V30 874 H 86.0035 -1.06693 6.86762 0
M  V30 875 H 89.1945 -1.00382 4.5721 0
M  V30 876 H 89.3675 -1.14177 6.37862 0
M  V30 877 N 82.7736 -1.49793 -0.48987 0
M  V30 878 C 83.7366 -1.66752 -1.57246 0
M  V30 879 C 84.7366 -0.538867 -1.51502 0
M  V30 880 O 85.9266 -0.805545 -1.54456 0
M  V30 881 C 83.0586 -1.67528 -2.96896 0
M  V30 882 H 84.2516 -2.63321 -1.43534 0
M  V30 883 H 81.8046 -1.38992 -0.714914 0
M  V30 884 H 82.5396 -0.725837 -3.16073 0
M  V30 885 H 82.3246 -2.49504 -3.02473 0
M  V30 886 H 83.8146 -1.82667 -3.7553 0
M  V30 887 N 84.2517 0.741722 -1.39055 0
M  V30 888 C 85.1817 1.869 -1.39966 0
M  V30 889 C 86.1627 1.6804 -0.26392 0
M  V30 890 O 87.3477 1.88458 -0.468755 0
M  V30 891 C 84.4777 3.24572 -1.23574 0
M  V30 892 C 83.4317 3.58056 -2.34477 0
M  V30 893 C 82.7577 4.94593 -2.0318 0
M  V30 894 C 84.0577 3.61716 -3.76774 0
M  V30 895 H 85.7517 1.86395 -2.34302 0
M  V30 896 H 83.2977 0.895361 -1.1278 0
M  V30 897 H 85.2507 4.031 -1.22834 0
M  V30 898 H 83.9747 3.25587 -0.257045 0
M  V30 899 H 82.6337 2.81854 -2.34423 0
M  V30 900 H 82.2817 4.92181 -1.03765 0
M  V30 901 H 81.9817 5.17964 -2.77465 0
M  V30 902 H 83.5057 5.75486 -2.04079 0
M  V30 903 H 84.9197 4.30335 -3.78794 0
M  V30 904 H 83.3167 3.96603 -4.50362 0
M  V30 905 H 84.3867 2.61672 -4.08235 0
M  V30 906 N 85.7298 1.2412 0.971189 0
M  V30 907 C 86.6598 1.05508 2.08304 0
M  V30 908 C 87.6408 -0.0308864 1.70072 0
M  V30 909 O 88.8258 0.135521 1.93727 0
M  V30 910 C 85.9558 0.655365 3.4106 0
M  V30 911 C 84.9098 1.68971 3.93234 0
M  V30 912 C 84.2358 1.14516 5.22293 0
M  V30 913 C 85.5358 3.08487 4.21465 0
M  V30 914 H 87.2298 1.98507 2.24132 0
M  V30 915 H 84.7758 0.955821 1.07704 0
M  V30 916 H 86.7288 0.51217 4.18276 0
M  V30 917 H 85.4528 -0.31032 3.25122 0
M  V30 918 H 84.1118 1.82106 3.18171 0
M  V30 919 H 83.7598 0.170189 5.02712 0
M  V30 920 H 83.4598 1.83635 5.58168 0
M  V30 921 H 84.9838 1.01401 6.02121 0
M  V30 922 H 86.3978 2.98601 4.89398 0
M  V30 923 H 84.7948 3.74926 4.68562 0
M  V30 924 H 85.8648 3.56787 3.28376 0
M  V30 925 N 87.2079 -1.17134 1.05439 0
M  V30 926 C 88.6239 -1.39454 0.776201 0
M  V30 927 C 88.8239 -1.91454 -0.628307 0
M  V30 928 O 87.8799 -2.10777 -1.39031 0
M  V30 929 C 89.1929 -2.38305 1.83388 0
M  V30 930 C 90.7409 -2.52006 1.85639 0
M  V30 931 C 91.2159 -3.54133 2.90437 0
M  V30 932 N 92.7069 -3.61653 2.89415 0
M  V30 933 C 93.4419 -4.4044 3.67152 0
M  V30 934 N 92.9379 -5.22721 4.54681 0
M  V30 935 N 94.7309 -4.35337 3.55581 0
M  V30 936 H 86.8819 -0.817134 1.96053 0
M  V30 937 H 89.1449 -0.421626 0.849079 0
M  V30 938 H 88.8509 -2.07173 2.84204 0
M  V30 939 H 88.7249 -3.37841 1.67761 0
M  V30 940 H 91.1119 -2.82447 0.85486 0
M  V30 941 H 91.1929 -1.52537 2.05344 0
M  V30 942 H 90.8369 -3.24431 3.90777 0
M  V30 943 H 90.7669 -4.53313 2.67983 0
M  V30 944 H 93.2579 -3.02909 2.25952 0
M  V30 945 H 93.5709 -5.80027 5.10674 0
M  V30 946 H 91.9159 -5.22093 4.58741 0
M  V30 947 H 95.1069 -3.70112 2.86592 0
M  V30 948 H 95.2799 -4.96494 4.1641 0
M  V30 949 N 88.686 -0.835752 -1.33615 0
M  V30 950 C 89.633 -0.26473 -2.29277 0
M  V30 951 C 90.603 0.617712 -1.54187 0
M  V30 952 O 91.788 0.556641 -1.825 0
M  V30 953 C 88.928 0.556777 -3.40579 0
M  V30 954 C 88.041 -0.349339 -4.30585 0
M  V30 955 C 87.176 0.482969 -5.29 0
M  V30 956 C 86.215 -0.421732 -6.10645 0
M  V30 957 N 85.352 0.372262 -7.01112 0
M  V30 958 H 90.192 -1.08582 -2.77514 0
M  V30 959 H 87.729 -0.546927 -1.36554 0
M  V30 960 H 89.687 1.04852 -4.03809 0
M  V30 961 H 88.317 1.34286 -2.93542 0
M  V30 962 H 87.369 -0.959372 -3.68104 0
M  V30 963 H 88.681 -1.04445 -4.87742 0
M  V30 964 H 87.835 1.03866 -5.97743 0
M  V30 965 H 86.574 1.21153 -4.72412 0
M  V30 966 H 85.579 -0.989464 -5.40823 0
M  V30 967 H 86.804 -1.14861 -6.69316 0
M  V30 968 H 84.75 1.08426 -6.46977 0
M  V30 969 H 84.667 -0.264198 -7.55538 0
M  V30 970 H 85.935 0.910293 -7.74167 0
M  V30 971 N 90.1641 1.46063 -0.591896 0
M  V30 972 C 91.1121 2.32124 0.148739 0
M  V30 973 C 92.1061 1.45035 0.875286 0
M  V30 974 O 93.3121 1.61609 0.792632 0
M  V30 975 H 89.6871 0.749024 0.066832 0
M  V30 976 H 91.6581 2.92392 -0.595783 0
M  V30 977 C 90.4071 3.28373 1.1431 0
M  V30 978 H 89.7301 3.95371 0.59346 0
M  V30 979 H 91.1701 3.91352 1.63155 0
M  V30 980 C 89.6291 2.54393 2.20875 0
M  V30 981 O 90.1591 2.31373 3.28374 0
M  V30 982 N 88.3651 2.14797 1.95731 0
M  V30 983 H 87.9121 2.33719 1.08319 0
M  V30 984 H 87.8701 1.65619 2.67241 0
M  V30 985 N 91.6422 0.330177 1.54103 0
M  V30 986 C 92.8882 -0.270806 2.00984 0
M  V30 987 C 93.2212 -1.51265 1.21789 0
M  V30 988 O 92.4962 -1.92142 0.301927 0
M  V30 989 C 92.7792 -0.598339 3.55094 0
M  V30 990 C 92.6322 0.654674 4.4501 0
M  V30 991 C 93.9512 -1.41334 4.16789 0
M  V30 992 H 91.0702 -0.0969531 0.730595 0
M  V30 993 H 93.7122 0.448066 1.84641 0
M  V30 994 H 91.8622 -1.21078 3.69151 0
M  V30 995 H 93.5342 1.29285 4.42813 0
M  V30 996 H 91.7772 1.28224 4.14416 0
M  V30 997 H 92.4482 0.380944 5.50684 0
M  V30 998 H 94.9242 -0.895597 4.06347 0
M  V30 999 H 93.8002 -1.61127 5.24718 0
M  V30 1000 H 94.0612 -2.41146 3.70541 0
M  V30 1001 N 93.1203 -1.57491 0.0584922 0
M  V30 1002 C 94.0303 -2.15448 -0.928414 0
M  V30 1003 C 95.0463 -1.11416 -1.3365 0
M  V30 1004 O 96.2223 -1.4362 -1.41193 0
M  V30 1005 C 93.2873 -2.69393 -2.18239 0
M  V30 1006 C 92.3483 -3.88249 -1.83196 0
M  V30 1007 C 91.5813 -4.39613 -3.02616 0
M  V30 1008 O 91.8043 -3.90023 -4.16219 0
M  V30 1009 O 90.7383 -5.31111 -2.83204 0
M  V30 1010 H 94.5643 -3.00112 -0.465483 0
M  V30 1011 H 92.1493 -1.48499 -0.163826 0
M  V30 1012 H 94.0313 -3.04026 -2.91798 0
M  V30 1013 H 92.7063 -1.87796 -2.63656 0
M  V30 1014 H 91.6133 -3.58492 -1.06931 0
M  V30 1015 H 92.9463 -4.71098 -1.42573 0
M  V30 1016 N 94.5984 0.214957 -1.56127 0
M  V30 1017 C 96.0094 0.781386 -1.69562 0
M  V30 1018 C 96.3604 1.84707 -0.66165 0
M  V30 1019 O 95.4854 2.156 0.185927 0
M  V30 1020 C 96.0804 1.42411 -3.07416 0
M  V30 1021 C 94.6394 1.93786 -3.22683 0
M  V30 1022 C 93.7864 0.800438 -2.65496 0
M  V30 1023 H 96.7374 -0.00980633 -1.58697 0
M  V30 1024 H 96.7584 2.29309 -3.0364 0
M  V30 1025 H 96.2704 0.64826 -3.82648 0
M  V30 1026 H 94.3714 2.74152 -2.52332 0
M  V30 1027 H 94.4844 2.1133 -4.29973 0
M  V30 1028 H 92.8484 1.2095 -2.2415 0
M  V30 1029 H 93.6314 0.0371471 -3.4328 0
M  V30 1030 N 96.0765 1.50051 0.48192 0
M  V30 1031 C 97.3065 1.63999 1.2565 0
M  V30 1032 C 97.7145 0.318288 1.86504 0
M  V30 1033 O 97.0575 -0.708534 1.69486 0
M  V30 1034 C 97.1195 2.66504 2.4128 0
M  V30 1035 C 96.7835 4.10352 2.01148 0
M  V30 1036 C 97.7805 4.96562 1.54021 0
M  V30 1037 C 95.4655 4.56203 2.10199 0
M  V30 1038 C 97.4595 6.26668 1.16473 0
M  V30 1039 C 95.1465 5.86318 1.72264 0
M  V30 1040 C 96.1445 6.71375 1.25477 0
M  V30 1041 O 95.8325 7.99062 0.880626 0
M  V30 1042 H 95.5645 0.55456 0.386574 0
M  V30 1043 H 98.1185 1.96954 0.582944 0
M  V30 1044 H 96.3485 2.28769 3.11772 0
M  V30 1045 H 98.0375 2.69783 3.03268 0
M  V30 1046 H 98.8035 4.62358 1.46458 0
M  V30 1047 H 94.6825 3.90152 2.45566 0
M  V30 1048 H 98.2265 6.93011 0.798841 0
M  V30 1049 H 94.1235 6.20046 1.79482 0
M  V30 1050 H 94.8915 8.12239 1.01043 0
M  V30 1051 N 97.5546 -0.734337 1.39446 0
M  V30 1052 C 98.4646 -1.87879 1.40495 0
M  V30 1053 C 99.4806 -1.714 0.299672 0
M  V30 1054 O 100.657 -1.93991 0.541249 0
M  V30 1055 C 97.7216 -3.23477 1.24754 0
M  V30 1056 C 96.7826 -3.52344 2.45259 0
M  V30 1057 C 96.0156 -4.81473 2.30259 0
M  V30 1058 O 96.2386 -5.55237 1.30643 0
M  V30 1059 O 95.1726 -5.10254 3.19256 0
M  V30 1060 H 98.9986 -1.89949 2.36966 0
M  V30 1061 H 96.5836 -0.882243 1.20569 0
M  V30 1062 H 98.4656 -4.04509 1.18111 0
M  V30 1063 H 97.1406 -3.22176 0.313781 0
M  V30 1064 H 96.0476 -2.71396 2.57478 0
M  V30 1065 H 97.3806 -3.58426 3.37331 0
M  V30 1066 N 99.0327 -1.24633 -0.964593 0
M  V30 1067 C 99.9647 -0.999302 -2.06268 0
M  V30 1068 C 100.978 0.0323226 -1.62768 0
M  V30 1069 O 102.167 -0.205079 -1.77318 0
M  V30 1070 C 99.2667 -0.486816 -3.35385 0
M  V30 1071 C 98.4397 -1.5823 -4.07777 0
M  V30 1072 C 97.4987 -1.07191 -5.15166 0
M  V30 1073 O 96.5247 -1.76426 -5.41168 0
M  V30 1074 N 97.7267 0.0920373 -5.80427 0
M  V30 1075 H 100.492 -1.94477 -2.28033 0
M  V30 1076 H 98.0527 -1.15704 -1.13244 0
M  V30 1077 H 100.045 -0.130066 -4.04491 0
M  V30 1078 H 98.6147 0.364459 -3.10468 0
M  V30 1079 H 97.8347 -2.11109 -3.32906 0
M  V30 1080 H 99.1227 -2.31854 -4.52903 0
M  V30 1081 H 98.5207 0.670784 -5.61709 0
M  V30 1082 H 97.0777 0.389905 -6.50633 0
M  V30 1083 N 100.511 1.16574 -1.06058 0
M  V30 1084 C 101.441 2.23057 -0.690488 0
M  V30 1085 C 102.422 1.67141 0.315901 0
M  V30 1086 O 103.607 1.93253 0.191556 0
M  V30 1087 C 100.737 3.47222 -0.073625 0
M  V30 1088 C 99.6908 4.16016 -1.00573 0
M  V30 1089 C 99.0168 5.34104 -0.252289 0
M  V30 1090 C 100.317 4.67264 -2.33371 0
M  V30 1091 H 102.011 2.54271 -1.58072 0
M  V30 1092 H 99.5568 1.22218 -0.76149 0
M  V30 1093 H 101.51 4.20939 0.19714 0
M  V30 1094 H 100.234 3.15302 0.85161 0
M  V30 1095 H 98.8928 3.44223 -1.2612 0
M  V30 1096 H 98.5408 4.98437 0.675988 0
M  V30 1097 H 98.2408 5.81072 -0.873455 0
M  V30 1098 H 99.7648 6.10599 0.0109857 0
M  V30 1099 H 101.179 5.32573 -2.12223 0
M  V30 1100 H 99.5758 5.24843 -2.90963 0
M  V30 1101 H 100.646 3.83602 -2.96611 0
M  V30 1102 N 101.989 0.842826 1.3317 0
M  V30 1103 C 103.237 0.439577 1.97262 0
M  V30 1104 C 103.558 -1.00548 1.67078 0
M  V30 1105 O 102.828 -1.70098 0.971779 0
M  V30 1106 H 101.408 0.159558 0.72976 0
M  V30 1107 H 104.07 1.07665 1.62463 0
M  V30 1108 H 103.166 0.574886 3.0676 0
M  V30 1109 N 103.467 -1.45747 0.599634 0
M  V30 1110 C 104.397 -2.33235 -0.111306 0
M  V30 1111 C 105.378 -1.46359 -0.866781 0
M  V30 1112 O 106.563 -1.75146 -0.838904 0
M  V30 1113 C 103.693 -3.28932 -1.11451 0
M  V30 1114 C 102.647 -4.25381 -0.472772 0
M  V30 1115 C 101.973 -5.1071 -1.58365 0
M  V30 1116 C 103.273 -5.18831 0.600948 0
M  V30 1117 H 104.967 -2.92927 0.61919 0
M  V30 1118 H 102.513 -1.40857 0.299215 0
M  V30 1119 H 104.466 -3.89002 -1.62036 0
M  V30 1120 H 103.19 -2.67381 -1.8755 0
M  V30 1121 H 101.849 -3.66598 0.0121472 0
M  V30 1122 H 101.497 -4.45533 -2.33473 0
M  V30 1123 H 101.197 -5.7604 -1.15982 0
M  V30 1124 H 102.721 -5.73647 -2.09194 0
M  V30 1125 H 104.135 -5.73019 0.179491 0
M  V30 1126 H 102.532 -5.92595 0.946076 0
M  V30 1127 H 103.602 -4.6174 1.48068 0
M  V30 1128 N 104.945 -0.338344 -1.53925 0
M  V30 1129 C 105.908 0.508299 -2.23493 0
M  V30 1130 C 106.908 1.03175 -1.23335 0
M  V30 1131 O 108.098 0.921826 -1.47811 0
M  V30 1132 C 105.23 1.70754 -2.95052 0
M  V30 1133 H 106.423 -0.100058 -2.99733 0
M  V30 1134 H 103.976 -0.0896198 -1.56043 0
M  V30 1135 H 104.711 2.35474 -2.22986 0
M  V30 1136 H 104.496 1.33946 -3.68512 0
M  V30 1137 H 105.986 2.30818 -3.48013 0
M  V30 1138 N 106.423 1.57458 -0.0668435 0
M  V30 1139 C 107.333 2.15937 0.916975 0
M  V30 1140 C 108.349 1.12123 1.33058 0
M  V30 1141 O 109.525 1.44366 1.40429 0
M  V30 1142 C 106.59 2.70547 2.16807 0
M  V30 1143 C 105.651 3.89215 1.81135 0
M  V30 1144 C 104.884 4.41211 3.0028 0
M  V30 1145 O 105.107 3.92225 4.14144 0
M  V30 1146 O 104.041 5.32605 2.80384 0
M  V30 1147 H 107.867 3.00354 0.449561 0
M  V30 1148 H 105.452 1.48584 0.155949 0
M  V30 1149 H 107.334 3.0557 2.90181 0
M  V30 1150 H 106.009 1.89192 2.62656 0
M  V30 1151 H 104.916 3.59054 1.05028 0
M  V30 1152 H 106.249 4.71848 1.40073 0
M  V30 1153 N 107.901 -0.206675 1.56239 0
M  V30 1154 C 109.178 -0.954051 1.70755 0
M  V30 1155 C 109.558 -2.01841 0.618353 0
M  V30 1156 O 108.906 -2.25444 -0.372434 0
M  V30 1157 C 109.116 -1.551 3.12642 0
M  V30 1158 C 110.464 -2.03757 3.72516 0
M  V30 1159 O 111.488 -1.64965 3.15698 0
M  V30 1160 O 110.347 -2.75103 4.72208 0
M  V30 1161 H 107.441 -0.446636 0.696021 0
M  V30 1162 H 109.987 -0.197283 1.68549 0
M  V30 1163 H 108.759 -0.783212 3.83382 0
M  V30 1164 H 108.382 -2.37291 3.19028 0
M  V30 1165 N 109.379 -1.50304 -0.473955 0
M  V30 1166 C 110.326 -1.68959 -1.57231 0
M  V30 1167 C 111.296 -0.530899 -1.57387 0
M  V30 1168 O 112.481 -0.761133 -1.74961 0
M  V30 1169 C 109.621 -1.7871 -2.95223 0
M  V30 1170 C 108.734 -3.06061 -3.04878 0
M  V30 1171 C 107.869 -3.06626 -4.33767 0
M  V30 1172 C 106.908 -4.28443 -4.37154 0
M  V30 1173 N 106.045 -4.26763 -5.5751 0
M  V30 1174 H 110.885 -2.6273 -1.40631 0
M  V30 1175 H 108.422 -1.30241 -0.683789 0
M  V30 1176 H 110.38 -1.82344 -3.75242 0
M  V30 1177 H 109.01 -0.883806 -3.10465 0
M  V30 1178 H 108.062 -3.11911 -2.17751 0
M  V30 1179 H 109.374 -3.96039 -3.0324 0
M  V30 1180 H 108.528 -3.08973 -5.22131 0
M  V30 1181 H 107.267 -2.14473 -4.3801 0
M  V30 1182 H 106.272 -4.2631 -3.47188 0
M  V30 1183 H 107.497 -5.2182 -4.34605 0
M  V30 1184 H 105.443 -3.37462 -5.62544 0
M  V30 1185 H 105.36 -5.10507 -5.57601 0
M  V30 1186 H 106.628 -4.33253 -6.48006 0
M  V30 1187 N 110.857 0.726932 -1.39834 0
M  V30 1188 C 112.104 1.48664 -1.37496 0
M  V30 1189 C 112.432 1.94482 0.0264678 0
M  V30 1190 O 111.687 1.67692 1.00886 0
M  V30 1191 C 111.986 2.73495 -2.30077 0
M  V30 1192 C 111.652 2.46502 -3.77555 0
M  V30 1193 C 110.314 2.3885 -4.17737 0
M  V30 1194 C 112.666 2.23604 -4.70798 0
M  V30 1195 C 109.994 2.06352 -5.49214 0
M  V30 1196 C 112.346 1.92622 -6.02561 0
M  V30 1197 C 111.01 1.83444 -6.41798 0
M  V30 1198 H 110.28 0.544001 -0.503135 0
M  V30 1199 H 112.927 0.833657 -1.72402 0
M  V30 1200 H 111.232 3.43575 -1.88317 0
M  V30 1201 H 112.929 3.31549 -2.25558 0
M  V30 1202 H 109.519 2.5334 -3.45712 0
M  V30 1203 H 113.703 2.28479 -4.40581 0
M  V30 1204 H 108.959 1.97776 -5.78528 0
M  V30 1205 H 113.133 1.73914 -6.74334 0
M  V30 1206 H 110.76 1.58029 -7.43593 0
M  V30 1207 N 112.336 1.25143 0.95797 0
M  V30 1208 C 113.564 1.12424 1.73691 0
M  V30 1209 C 113.979 -0.322304 1.86029 0
M  V30 1210 O 113.336 -1.22186 1.35561 0
M  V30 1211 C 113.387 1.76933 3.15241 0
M  V30 1212 O 113.108 3.15932 3.03511 0
M  V30 1213 C 114.609 1.6995 4.09429 0
M  V30 1214 H 111.829 0.3923 0.544373 0
M  V30 1215 H 114.373 1.6544 1.20207 0
M  V30 1216 H 112.528 1.27895 3.6568 0
M  V30 1217 H 112.942 3.47598 3.9278 0
M  V30 1218 H 114.416 2.19753 5.06372 0
M  V30 1219 H 114.893 0.662619 4.34173 0
M  V30 1220 H 115.499 2.18461 3.64904 0
M  V30 1221 N 113.814 -1.1601 1.06675 0
M  V30 1222 C 115.091 -1.82679 0.699114 0
M  V30 1223 C 115.471 -1.94559 -0.819137 0
M  V30 1224 O 114.819 -1.49169 -1.73092 0
M  V30 1225 C 115.029 -3.19445 1.40555 0
M  V30 1226 C 116.377 -3.95171 1.55323 0
M  V30 1227 O 117.401 -3.28976 1.36577 0
M  V30 1228 O 116.26 -5.13833 1.86112 0
M  V30 1229 H 113.354 -0.788954 0.247951 0
M  V30 1230 H 115.9 -1.23179 1.16726 0
M  V30 1231 H 114.672 -3.05856 2.44065 0
M  V30 1232 H 114.295 -3.86625 0.927733 0
M  V30 1233 N 115.292 -0.849877 -1.32721 0
M  V30 1234 C 116.569 -0.372405 -1.92022 0
M  V30 1235 C 116.949 1.1435 -1.77447 0
M  V30 1236 O 116.297 1.96296 -1.16962 0
M  V30 1237 C 116.507 -0.831482 -3.3895 0
M  V30 1238 C 117.855 -0.845882 -4.16089 0
M  V30 1239 O 118.879 -0.775806 -3.47649 0
M  V30 1240 O 117.738 -0.943753 -5.38289 0
M  V30 1241 H 114.832 -0.107667 -0.819961 0
M  V30 1242 H 117.378 -0.93646 -1.41522 0
M  V30 1243 H 116.15 -1.87448 -3.4348 0
M  V30 1244 H 115.773 -0.24461 -3.96847 0
M  V30 1245 N 116.77 1.45427 -0.607355 0
M  V30 1246 C 117.702 2.2871 0.149752 0
M  V30 1247 C 118.715 1.39937 0.831958 0
M  V30 1248 O 119.904 1.64313 0.697385 0
M  V30 1249 C 117.004 3.15673 1.23304 0
M  V30 1250 C 116.177 4.32722 0.637996 0
M  V30 1251 C 115.236 5.00895 1.61215 0
M  V30 1252 O 114.262 5.57697 1.13854 0
M  V30 1253 N 115.464 5.00159 2.94655 0
M  V30 1254 H 118.229 2.94328 -0.564882 0
M  V30 1255 H 115.79 1.55612 -0.446823 0
M  V30 1256 H 117.782 3.58144 1.88454 0
M  V30 1257 H 116.352 2.51965 1.8502 0
M  V30 1258 H 115.572 3.93734 -0.191572 0
M  V30 1259 H 116.86 5.08321 0.220665 0
M  V30 1260 H 116.258 4.553 3.35735 0
M  V30 1261 H 114.815 5.46495 3.55228 0
M  V30 1262 N 118.248 0.346503 1.53744 0
M  V30 1263 C 119.178 -0.501193 2.28058 0
M  V30 1264 C 120.159 -1.10014 1.29734 0
M  V30 1265 O 121.344 -1.12097 1.58581 0
M  V30 1266 C 118.474 -1.65078 3.05559 0
M  V30 1267 C 117.428 -1.18003 4.11411 0
M  V30 1268 C 116.754 -2.41837 4.76884 0
M  V30 1269 C 118.054 -0.278394 5.21558 0
M  V30 1270 H 119.748 0.11875 2.99164 0
M  V30 1271 H 117.294 0.0585531 1.43881 0
M  V30 1272 H 119.247 -2.25028 3.56287 0
M  V30 1273 H 117.971 -2.29767 2.32109 0
M  V30 1274 H 116.63 -0.603331 3.61601 0
M  V30 1275 H 116.278 -3.0494 4.00026 0
M  V30 1276 H 115.978 -2.1102 5.48402 0
M  V30 1277 H 117.502 -3.02508 5.30397 0
M  V30 1278 H 118.916 -0.784823 5.67903 0
M  V30 1279 H 117.313 -0.0619707 6.00068 0
M  V30 1280 H 118.383 0.684677 4.80042 0
M  V30 1281 N 119.726 -1.57421 0.075193 0
M  V30 1282 C 120.975 -1.92794 -0.592731 0
M  V30 1283 C 121.288 -0.957478 -1.70563 0
M  V30 1284 O 122.494 -1.20417 -2.43335 0
M  V30 1285 C 120.95 -3.42495 -1.10569 0
M  V30 1286 C 120.558 -4.47994 -0.0236121 0
M  V30 1287 C 122.302 -3.86864 -1.74748 0
M  V30 1288 C 120.209 -5.88829 -0.550803 0
M  V30 1289 H 119.139 -0.719591 -0.225177 0
M  V30 1290 H 121.79 -1.82902 0.147978 0
M  V30 1291 H 120.172 -3.47471 -1.89947 0
M  V30 1292 H 121.346 -4.54637 0.751099 0
M  V30 1293 H 119.661 -4.13113 0.522159 0
M  V30 1294 H 122.258 -4.8947 -2.15229 0
M  V30 1295 H 122.601 -3.24417 -2.60882 0
M  V30 1296 H 123.134 -3.84504 -1.01986 0
M  V30 1297 H 119.873 -6.54929 0.273457 0
M  V30 1298 H 119.393 -5.85698 -1.29296 0
M  V30 1299 H 121.072 -6.38811 -1.02613 0
M  V30 1300 N 121.204 0.198386 -1.56346 0
M  V30 1301 C 122.481 0.944982 -1.71258 0
M  V30 1302 C 122.861 2.0151 -0.629048 0
M  V30 1303 O 122.209 2.25639 0.360473 0
M  V30 1304 C 122.419 1.5344 -3.1346 0
M  V30 1305 C 123.767 2.01778 -3.73591 0
M  V30 1306 O 124.791 1.63288 -3.16568 0
M  V30 1307 O 123.65 2.72594 -4.73661 0
M  V30 1308 H 120.744 0.442939 -0.69838 0
M  V30 1309 H 123.29 0.188342 -1.68652 0
M  V30 1310 H 122.062 0.762869 -3.83792 0
M  V30 1311 H 121.685 2.35596 -3.20282 0
M  V30 1312 N 122.682 1.50554 0.465978 0
M  V30 1313 C 123.929 1.61798 1.21768 0
M  V30 1314 C 124.257 0.320696 1.91838 0
M  V30 1315 O 123.512 -0.693724 1.82992 0
M  V30 1316 C 123.811 2.75152 2.28093 0
M  V30 1317 C 123.477 4.15454 1.75239 0
M  V30 1318 C 122.139 4.53628 1.60546 0
M  V30 1319 C 124.491 5.03121 1.36083 0
M  V30 1320 C 121.819 5.77204 1.05128 0
M  V30 1321 C 124.171 6.27249 0.821056 0
M  V30 1322 C 122.835 6.64221 0.660795 0
M  V30 1323 H 122.105 0.592063 0.445582 0
M  V30 1324 H 124.752 1.84503 0.512927 0
M  V30 1325 H 123.057 2.46556 3.04496 0
M  V30 1326 H 124.754 2.81055 2.86023 0
M  V30 1327 H 121.344 3.85341 1.87644 0
M  V30 1328 H 125.528 4.74257 1.46267 0
M  V30 1329 H 120.784 6.0452 0.91462 0
M  V30 1330 H 124.958 6.94537 0.509018 0
M  V30 1331 H 122.585 7.59854 0.229226 0
M  V30 1332 N 124.16 -0.719506 1.40217 0
M  V30 1333 C 125.093 -1.84298 1.34571 0
M  V30 1334 C 126.071 -1.61149 0.216741 0
M  V30 1335 O 127.255 -1.84212 0.399756 0
M  V30 1336 C 124.382 -3.20568 1.09335 0
M  V30 1337 C 123.428 -3.62551 2.24631 0
M  V30 1338 S 124.261 -3.7012 3.87004 0
M  V30 1339 C 125.417 -5.09154 3.64024 0
M  V30 1340 H 125.65 -1.88807 2.2965 0
M  V30 1341 H 123.183 -0.885901 1.26456 0
M  V30 1342 H 125.141 -3.99246 0.954602 0
M  V30 1343 H 123.802 -3.13696 0.159164 0
M  V30 1344 H 122.995 -4.61483 2.02606 0
M  V30 1345 H 122.597 -2.91119 2.34789 0
M  V30 1346 H 124.889 -5.95955 3.22248 0
M  V30 1347 H 125.832 -5.36213 4.62473 0
M  V30 1348 H 126.24 -4.79562 2.97793 0
M  V30 1349 N 125.638 -1.25649 -0.95132 0
M  V30 1350 C 126.568 -1.08808 -2.06599 0
M  V30 1351 C 127.549 0.00382547 -1.701 0
M  V30 1352 O 128.734 -0.166325 -1.93486 0
M  V30 1353 C 125.864 -0.709542 -3.39975 0
M  V30 1354 C 124.818 -1.75206 -3.90496 0
M  V30 1355 C 124.144 -1.22811 -5.20405 0
M  V30 1356 C 125.444 -3.15153 -4.16504 0
M  V30 1357 H 127.138 -2.02048 -2.20946 0
M  V30 1358 H 124.684 -0.972835 -1.06169 0
M  V30 1359 H 126.637 -0.578649 -4.17408 0
M  V30 1360 H 125.361 0.258556 -3.25575 0
M  V30 1361 H 124.02 -1.87145 -3.15234 0
M  V30 1362 H 123.668 -0.250145 -5.02378 0
M  V30 1363 H 123.368 -1.92492 -5.55176 0
M  V30 1364 H 124.892 -1.10968 -6.00432 0
M  V30 1365 H 126.306 -3.06349 -4.84586 0
M  V30 1366 H 124.703 -3.82333 -4.62538 0
M  V30 1367 H 125.773 -3.61966 -3.22658 0
M  V30 1368 N 127.117 1.15442 -1.07289 0
M  V30 1369 C 128.049 2.19773 -0.650585 0
M  V30 1370 C 129.062 1.60076 0.296572 0
M  V30 1371 O 130.251 1.78293 0.0859905 0
M  V30 1372 C 127.351 3.38838 0.0650398 0
M  V30 1373 C 126.524 4.2808 -0.898141 0
M  V30 1374 C 125.583 5.2574 -0.219926 0
M  V30 1375 O 124.609 5.62654 -0.860773 0
M  V30 1376 N 125.811 5.71205 1.03466 0
M  V30 1377 H 128.576 2.56622 -1.54808 0
M  V30 1378 H 126.137 1.30551 -0.957494 0
M  V30 1379 H 128.129 4.01222 0.529415 0
M  V30 1380 H 126.699 3.00409 0.864466 0
M  V30 1381 H 125.919 3.62804 -1.54165 0
M  V30 1382 H 127.207 4.84577 -1.5512 0
M  V30 1383 H 126.605 5.43325 1.57526 0
M  V30 1384 H 125.162 6.35633 1.44272 0
M  V30 1385 N 128.595 0.856903 1.32268 0
M  V30 1386 C 129.545 0.274899 2.26337 0
M  V30 1387 C 130.529 -0.580543 1.50062 0
M  V30 1388 O 131.721 -0.429559 1.71708 0
M  V30 1389 C 128.85 -0.533841 3.39124 0
M  V30 1390 C 127.936 0.334114 4.22782 0
M  V30 1391 N 128.327 1.42143 4.85416 0
M  V30 1392 C 126.625 0.124256 4.45827 0
M  V30 1393 C 127.326 1.95559 5.47843 0
M  V30 1394 N 126.302 1.25444 5.28928 0
M  V30 1395 H 130.104 1.10612 2.72291 0
M  V30 1396 H 127.618 0.703258 1.46383 0
M  V30 1397 H 129.615 -0.96722 4.05525 0
M  V30 1398 H 128.275 -1.36283 2.94715 0
M  V30 1399 H 129.286 1.80436 4.85451 0
M  V30 1400 H 125.963 -0.669837 4.12092 0
M  V30 1401 H 127.353 2.86714 6.07655 0
M  V30 1402 N 130.073 -1.45103 0.615059 0
M  V30 1403 C 131.484 -1.85654 0.197383 0
M  V30 1404 C 131.835 -1.51433 -1.24749 0
M  V30 1405 O 130.96 -0.944608 -1.94695 0
M  V30 1406 C 131.555 -3.36972 0.351448 0
M  V30 1407 C 130.114 -3.76398 -0.011593 0
M  V30 1408 C 129.261 -2.69024 0.672394 0
M  V30 1409 H 132.212 -1.35797 0.821263 0
M  V30 1410 H 132.233 -3.78239 -0.414227 0
M  V30 1411 H 131.745 -3.61847 1.40314 0
M  V30 1412 H 129.846 -3.5714 -1.06217 0
M  V30 1413 H 129.959 -4.77532 0.387265 0
M  V30 1414 H 128.323 -2.54465 0.109284 0
M  V30 1415 H 129.106 -2.96735 1.72636 0
M  V30 1416 N 131.551 -0.354651 -1.53558 0
M  V30 1417 C 132.8 0.239504 -2.00273 0
M  V30 1418 C 133.113 1.50759 -1.24623 0
M  V30 1419 O 134.319 2.17968 -1.61871 0
M  V30 1420 C 132.775 0.477341 -3.5672 0
M  V30 1421 C 132.383 -0.775488 -4.41237 0
M  V30 1422 C 134.127 1.02975 -4.11821 0
M  V30 1423 C 132.034 -0.507838 -5.89216 0
M  V30 1424 H 130.964 0.0932743 -0.748208 0
M  V30 1425 H 133.615 -0.471701 -1.77334 0
M  V30 1426 H 131.997 1.24953 -3.7577 0
M  V30 1427 H 133.171 -1.54963 -4.33962 0
M  V30 1428 H 131.486 -1.25033 -3.97185 0
M  V30 1429 H 134.083 1.24513 -5.2 0
M  V30 1430 H 134.426 1.98862 -3.65731 0
M  V30 1431 H 134.959 0.317994 -3.96527 0
M  V30 1432 H 131.698 -1.43674 -6.39561 0
M  V30 1433 H 131.218 0.228011 -5.99366 0
M  V30 1434 H 132.897 -0.129238 -6.46871 0
M  V30 1435 N 133.029 1.57378 -0.0835403 0
M  V30 1436 C 133.959 2.1641 0.87686 0
M  V30 1437 C 134.94 1.09429 1.30228 0
M  V30 1438 O 136.125 1.37516 1.37124 0
M  V30 1439 C 133.255 2.73517 2.14022 0
M  V30 1440 C 132.209 3.85769 1.85381 0
M  V30 1441 C 131.535 4.29529 3.18448 0
M  V30 1442 C 132.835 5.09486 1.14984 0
M  V30 1443 H 134.529 2.96914 0.385059 0
M  V30 1444 H 132.075 1.42823 0.18377 0
M  V30 1445 H 134.028 3.13463 2.81636 0
M  V30 1446 H 132.752 1.90252 2.65465 0
M  V30 1447 H 131.411 3.46345 1.20169 0
M  V30 1448 H 131.059 3.43169 3.67755 0
M  V30 1449 H 130.759 5.05204 3.00071 0
M  V30 1450 H 132.283 4.72099 3.8724 0
M  V30 1451 H 133.697 5.46674 1.72687 0
M  V30 1452 H 132.094 5.90515 1.06826 0
M  V30 1453 H 133.164 4.84724 0.130749 0
M  V30 1454 N 134.507 -0.190092 1.56449 0
M  V30 1455 C 135.756 -0.907912 1.80111 0
M  V30 1456 C 136.069 -1.84214 0.657619 0
M  V30 1457 O 137.275 -2.60094 0.778663 0
M  V30 1458 C 135.731 -1.66485 3.19078 0
M  V30 1459 C 135.339 -0.7752 4.41242 0
M  V30 1460 C 137.083 -2.37201 3.52045 0
M  V30 1461 C 134.99 -1.53129 5.71231 0
M  V30 1462 H 133.92 -0.34276 0.671589 0
M  V30 1463 H 136.571 -0.161109 1.82791 0
M  V30 1464 H 134.953 -2.45572 3.10661 0
M  V30 1465 H 136.127 -0.0226298 4.60794 0
M  V30 1466 H 134.442 -0.178627 4.16017 0
M  V30 1467 H 137.039 -2.94329 4.46402 0
M  V30 1468 H 137.382 -3.11632 2.76028 0
M  V30 1469 H 137.915 -1.65075 3.61932 0
M  V30 1470 H 134.654 -0.82967 6.50228 0
M  V30 1471 H 134.174 -2.25767 5.55688 0
M  V30 1472 H 135.853 -2.08377 6.12526 0
M  V30 1473 N 135.985 -1.50799 -0.457987 0
M  V30 1474 C 136.933 -1.71162 -1.575 0
M  V30 1475 C 137.927 -0.577592 -1.59249 0
M  V30 1476 O 139.133 -0.758443 -1.63241 0
M  V30 1477 H 135.508 -0.540468 -0.522875 0
M  V30 1478 H 137.479 -2.64837 -1.37492 0
M  V30 1479 C 136.228 -1.83496 -2.95338 0
M  V30 1480 H 135.551 -2.70153 -2.94716 0
M  V30 1481 H 136.991 -2.01765 -3.72917 0
M  V30 1482 C 135.45 -0.589694 -3.31699 0
M  V30 1483 O 135.98 0.265163 -4.00824 0
M  V30 1484 N 134.186 -0.439845 -2.87252 0
M  V30 1485 H 133.733 -1.13655 -2.31172 0
M  V30 1486 H 133.691 0.392159 -3.11945 0
M  V30 1487 N 137.463 0.71206 -1.40597 0
M  V30 1488 C 138.879 1.02058 -1.22704 0
M  V30 1489 C 139.079 2.01228 -0.104729 0
M  V30 1490 O 138.135 2.4674 0.53624 0
M  V30 1491 C 139.448 1.56094 -2.57012 0
M  V30 1492 C 140.996 1.6806 -2.64054 0
M  V30 1493 C 141.471 2.25501 -3.9864 0
M  V30 1494 N 142.962 2.32882 -4.004 0
M  V30 1495 C 143.697 2.78317 -5.01325 0
M  V30 1496 N 143.193 3.23478 -6.12645 0
M  V30 1497 N 144.986 2.77733 -4.88693 0
M  V30 1498 H 137.137 0.0547896 -2.12329 0
M  V30 1499 H 139.4 0.0869027 -0.944008 0
M  V30 1500 H 139.106 0.906865 -3.39807 0
M  V30 1501 H 138.98 2.54564 -2.78347 0
M  V30 1502 H 141.367 2.32583 -1.81629 0
M  V30 1503 H 141.448 0.681802 -2.46546 0
M  V30 1504 H 141.092 1.61598 -4.81506 0
M  V30 1505 H 141.022 3.26102 -4.13479 0
M  V30 1506 H 143.513 2.00991 -3.20017 0
M  V30 1507 H 143.826 3.56725 -6.85542 0
M  V30 1508 H 142.171 3.21429 -6.16205 0
M  V30 1509 H 145.362 2.4179 -4.00818 0
M  V30 1510 H 145.535 3.12826 -5.67489 0
M  V30 1511 N 138.941 1.26152 0.944643 0
M  V30 1512 C 140.352 1.10454 1.50522 0
M  V30 1513 C 140.703 -0.31635 1.93633 0
M  V30 1514 O 139.828 -1.20746 1.79581 0
M  V30 1515 C 140.423 1.99891 2.73549 0
M  V30 1516 C 138.982 1.88348 3.25886 0
M  V30 1517 C 138.129 1.93447 1.9868 0
M  V30 1518 H 141.08 1.39292 0.760489 0
M  V30 1519 H 141.101 1.54477 3.47732 0
M  V30 1520 H 140.613 3.03297 2.42141 0
M  V30 1521 H 138.714 0.878636 3.62092 0
M  V30 1522 H 138.827 2.73696 3.93227 0
M  V30 1523 H 137.191 1.37456 2.14425 0
M  V30 1524 H 137.974 2.98476 1.69607 0
M  V30 1525 N 140.419 -1.14872 1.07899 0
M  V30 1526 C 141.668 -1.85135 0.800499 0
M  V30 1527 C 141.981 -1.83547 -0.676014 0
M  V30 1528 O 143.187 -2.49548 -1.06948 0
M  V30 1529 C 141.643 -3.3231 1.38197 0
M  V30 1530 C 141.251 -3.42329 2.8899 0
M  V30 1531 C 142.995 -4.0772 1.18174 0
M  V30 1532 C 140.902 -4.83684 3.403 0
M  V30 1533 H 139.832 -0.693563 0.29578 0
M  V30 1534 H 142.483 -1.29532 1.29976 0
M  V30 1535 H 140.865 -3.87618 0.810431 0
M  V30 1536 H 142.039 -2.97097 3.52236 0
M  V30 1537 H 140.354 -2.80369 3.07867 0
M  V30 1538 H 142.951 -5.12049 1.5398 0
M  V30 1539 H 143.294 -4.16124 0.12117 0
M  V30 1540 H 143.827 -3.58696 1.71994 0
M  V30 1541 H 140.566 -4.80465 4.45907 0
M  V30 1542 H 140.086 -5.29474 2.81811 0
M  V30 1543 H 141.765 -5.52558 3.36584 0
M  V30 1544 N 141.898 -0.863906 -1.31812 0
M  V30 1545 C 143.144 -0.472535 -1.97218 0
M  V30 1546 C 143.477 0.971394 -1.68159 0
M  V30 1547 O 142.752 1.68309 -0.974798 0
M  V30 1548 C 143.035 -0.723054 -3.52766 0
M  V30 1549 C 142.888 -2.21608 -3.91421 0
M  V30 1550 C 144.207 -0.185522 -4.39709 0
M  V30 1551 H 141.326 -0.173158 -0.71637 0
M  V30 1552 H 143.968 -1.08403 -1.56041 0
M  V30 1553 H 142.118 -0.202577 -3.87971 0
M  V30 1554 H 143.79 -2.80334 -3.66347 0
M  V30 1555 H 142.033 -2.691 -3.40246 0
M  V30 1556 H 142.704 -2.34203 -4.99853 0
M  V30 1557 H 145.18 -0.630726 -4.11292 0
M  V30 1558 H 144.056 -0.390306 -5.47511 0
M  V30 1559 H 144.317 0.912229 -4.32586 0
M  V30 1560 N 143.376 1.44774 -0.622745 0
M  V30 1561 C 144.622 2.0242 -0.124083 0
M  V30 1562 C 144.955 1.4881 1.24777 0
M  V30 1563 O 144.23 0.668799 1.8264 0
M  V30 1564 C 144.513 3.59957 -0.101619 0
M  V30 1565 C 144.366 4.23867 -1.50521 0
M  V30 1566 C 145.685 4.36284 0.578272 0
M  V30 1567 H 142.804 0.735528 -0.0465645 0
M  V30 1568 H 145.446 1.72447 -0.797617 0
M  V30 1569 H 143.596 3.85623 0.471934 0
M  V30 1570 H 145.268 4.09336 -2.12701 0
M  V30 1571 H 143.511 3.81684 -2.06154 0
M  V30 1572 H 144.182 5.32843 -1.4416 0
M  V30 1573 H 146.658 4.16001 0.0906057 0
M  V30 1574 H 145.534 5.46004 0.563149 0
M  V30 1575 H 145.795 4.10271 1.64713 0
M  V30 1576 N 144.854 0.36279 1.53368 0
M  V30 1577 C 146.082 -0.228613 2.05633 0
M  V30 1578 C 146.497 -1.42676 1.23649 0
M  V30 1579 O 145.854 -1.80394 0.27647 0
M  V30 1580 C 145.905 -0.624845 3.56059 0
M  V30 1581 O 145.626 0.525675 4.34935 0
M  V30 1582 C 147.127 -1.27493 4.24571 0
M  V30 1583 H 144.347 -0.0407183 0.669763 0
M  V30 1584 H 146.891 0.520352 1.97769 0
M  V30 1585 H 145.046 -1.32373 3.64083 0
M  V30 1586 H 145.46 0.205969 5.24095 0
M  V30 1587 H 146.934 -1.50277 5.31151 0
M  V30 1588 H 147.411 -2.23439 3.78116 0
M  V30 1589 H 148.017 -0.617558 4.20792 0
M  V30 1590 N 146.332 -1.57332 0.0918853 0
M  V30 1591 C 147.743 -1.81496 -0.437739 0
M  V30 1592 C 148.094 -1.00727 -1.6837 0
M  V30 1593 O 147.219 -0.235694 -2.15113 0
M  V30 1594 C 147.814 -3.29197 -0.800939 0
M  V30 1595 C 146.373 -3.54136 -1.27532 0
M  V30 1596 C 145.52 -2.75979 -0.270392 0
M  V30 1597 H 148.471 -1.55494 0.317366 0
M  V30 1598 H 148.492 -3.42344 -1.66074 0
M  V30 1599 H 148.004 -3.87955 0.106078 0
M  V30 1600 H 146.105 -3.00705 -2.20016 0
M  V30 1601 H 146.218 -4.62792 -1.23938 0
M  V30 1602 H 144.582 -2.43349 -0.751872 0
M  V30 1603 H 145.365 -3.37484 0.629248 0
M  V30 1604 N 147.81 0.181792 -1.56548 0
M  V30 1605 C 148.74 1.22765 -1.98623 0
M  V30 1606 C 149.721 1.46747 -0.860189 0
M  V30 1607 O 150.906 1.58259 -1.12551 0
M  V30 1608 C 148.036 2.56894 -2.33715 0
M  V30 1609 C 146.99 2.475 -3.49182 0
M  V30 1610 C 146.316 3.86023 -3.69986 0
M  V30 1611 C 147.616 1.98866 -4.82959 0
M  V30 1612 H 149.31 0.877942 -2.86239 0
M  V30 1613 H 146.856 0.42088 -1.37712 0
M  V30 1614 H 148.809 3.30253 -2.61746 0
M  V30 1615 H 147.533 2.93632 -1.42997 0
M  V30 1616 H 146.192 1.76596 -3.21262 0
M  V30 1617 H 145.84 4.20136 -2.76576 0
M  V30 1618 H 145.54 3.80609 -4.47672 0
M  V30 1619 H 147.064 4.60984 -4.00407 0
M  V30 1620 H 148.478 2.61992 -5.09934 0
M  V30 1621 H 146.875 2.04424 -5.64208 0
M  V30 1622 H 147.945 0.942465 -4.75653 0
M  V30 1623 N 149.288 1.51039 0.449983 0
M  V30 1624 C 150.536 1.62759 1.19808 0
M  V30 1625 C 150.857 0.339981 1.92013 0
M  V30 1626 O 150.127 -0.643606 1.85026 0
M  V30 1627 H 148.707 0.599811 0.445237 0
M  V30 1628 H 151.369 1.87914 0.517138 0
M  V30 1629 H 150.465 2.44911 1.93455 0
M  V30 1630 N 150.766 -0.704594 1.40972 0
M  V30 1631 C 151.994 -1.49354 1.43182 0
M  V30 1632 C 152.409 -1.88768 0.0345508 0
M  V30 1633 O 151.766 -1.56184 -0.944081 0
M  V30 1634 C 151.817 -2.76187 2.33244 0
M  V30 1635 O 151.538 -2.38436 3.67532 0
M  V30 1636 C 153.039 -3.7 2.44162 0
M  V30 1637 H 150.259 -0.460559 0.487982 0
M  V30 1638 H 152.803 -0.868261 1.85153 0
M  V30 1639 H 150.958 -3.34974 1.94606 0
M  V30 1640 H 151.372 -3.20126 4.15475 0
M  V30 1641 H 152.846 -4.55803 3.11364 0
M  V30 1642 H 153.323 -4.13867 1.47006 0
M  V30 1643 H 153.929 -3.17121 2.83398 0
M  V30 1644 N 152.244 -1.26651 -0.937939 0
M  V30 1645 C 153.66 -1.03834 -1.21205 0
M  V30 1646 C 153.86 0.234502 -2.00131 0
M  V30 1647 O 152.916 0.942767 -2.3424 0
M  V30 1648 C 154.229 -2.27167 -1.97017 0
M  V30 1649 C 155.777 -2.32101 -2.09996 0
M  V30 1650 C 156.252 -3.55136 -2.8921 0
M  V30 1651 N 157.743 -3.55632 -2.96783 0
M  V30 1652 C 158.478 -4.475 -3.58512 0
M  V30 1653 N 157.974 -5.4966 -4.21717 0
M  V30 1654 N 159.767 -4.35145 -3.55816 0
M  V30 1655 H 151.918 -2.08398 -0.410391 0
M  V30 1656 H 154.181 -0.916031 -0.244114 0
M  V30 1657 H 153.887 -3.19765 -1.46434 0
M  V30 1658 H 153.761 -2.31672 -2.97671 0
M  V30 1659 H 156.148 -1.40015 -2.59769 0
M  V30 1660 H 156.229 -2.31605 -1.08594 0
M  V30 1661 H 155.873 -4.47553 -2.40123 0
M  V30 1662 H 155.803 -3.5288 -3.90875 0
M  V30 1663 H 158.294 -2.81743 -2.51852 0
M  V30 1664 H 158.607 -6.15943 -4.66727 0
M  V30 1665 H 156.952 -5.53514 -4.20294 0
M  V30 1666 H 160.143 -3.5455 -3.05634 0
M  V30 1667 H 160.316 -5.06934 -4.03636 0
M  V30 1668 N 153.722 1.14298 -1.08507 0
M  V30 1669 C 154.652 2.21542 -0.737646 0
M  V30 1670 C 155.633 1.67773 0.280377 0
M  V30 1671 O 156.818 1.93616 0.150521 0
M  V30 1672 C 153.948 3.46988 -0.147259 0
M  V30 1673 C 152.902 4.13789 -1.09374 0
M  V30 1674 C 152.228 5.33449 -0.365524 0
M  V30 1675 C 153.528 4.62208 -2.4323 0
M  V30 1676 H 155.222 2.5086 -1.6343 0
M  V30 1677 H 152.768 1.20576 -0.787243 0
M  V30 1678 H 154.721 4.21262 0.107808 0
M  V30 1679 H 153.445 3.17037 0.784538 0
M  V30 1680 H 152.104 3.4147 -1.33393 0
M  V30 1681 H 151.752 4.99759 0.57011 0
M  V30 1682 H 151.452 5.79088 -0.996512 0
M  V30 1683 H 152.976 6.10485 -0.118534 0
M  V30 1684 H 154.39 5.27952 -2.23472 0
M  V30 1685 H 152.787 5.18553 -3.02031 0
M  V30 1686 H 153.857 3.77224 -3.04681 0
M  V30 1687 N 155.201 0.870884 1.31352 0
M  V30 1688 C 156.441 0.488783 1.9847 0
M  V30 1689 C 156.805 -0.941536 1.67329 0
M  V30 1690 O 158.006 -1.42903 2.27667 0
M  V30 1691 C 156.277 0.739688 3.49662 0
M  V30 1692 S 157.836 0.457582 4.36408 0
M  V30 1693 H 154.654 0.18242 0.6872 0
M  V30 1694 H 157.256 1.12711 1.59739 0
M  V30 1695 H 155.96 1.77944 3.69816 0
M  V30 1696 H 155.491 0.0883905 3.93301 0
M  V30 1697 H 157.506 -0.709752 4.91098 0
M  V30 1698 N 156.679 -1.44442 0.630414 0
M  V30 1699 C 158.095 -1.56832 0.295973 0
M  V30 1700 C 158.295 -1.61806 -1.20088 0
M  V30 1701 O 157.351 -1.5607 -1.9849 0
M  V30 1702 C 158.664 -2.84031 0.987264 0
M  V30 1703 C 160.212 -2.97742 0.96534 0
M  V30 1704 C 160.687 -4.27743 1.63708 0
M  V30 1705 N 162.178 -4.34555 1.60364 0
M  V30 1706 C 162.913 -5.33862 2.09234 0
M  V30 1707 N 162.409 -6.39578 2.66292 0
M  V30 1708 N 164.202 -5.25366 1.99867 0
M  V30 1709 H 156.353 -1.39457 1.60205 0
M  V30 1710 H 158.616 -0.668237 0.672431 0
M  V30 1711 H 158.322 -2.86338 2.04215 0
M  V30 1712 H 158.196 -3.73534 0.524588 0
M  V30 1713 H 160.583 -2.94989 -0.0810639 0
M  V30 1714 H 160.664 -2.09589 1.4665 0
M  V30 1715 H 160.308 -4.31255 2.68293 0
M  V30 1716 H 160.238 -5.14752 1.11076 0
M  V30 1717 H 162.729 -3.58772 1.18705 0
M  V30 1718 H 163.042 -7.11637 3.01317 0
M  V30 1719 H 161.387 -6.40265 2.70343 0
M  V30 1720 H 164.578 -4.41688 1.55013 0
M  V30 1721 H 164.751 -6.02606 2.38265 0
M  V30 1722 N 158.157 -0.370918 -1.53173 0
M  V30 1723 C 159.568 0.107139 -1.86392 0
M  V30 1724 C 159.919 1.47714 -1.29132 0
M  V30 1725 O 159.044 2.07464 -0.615439 0
M  V30 1726 C 159.639 0.201187 -3.38202 0
M  V30 1727 C 158.198 0.623507 -3.712 0
M  V30 1728 C 157.345 -0.225978 -2.76378 0
M  V30 1729 H 160.296 -0.58951 -1.47345 0
M  V30 1730 H 160.317 1.02377 -3.66468 0
M  V30 1731 H 159.829 -0.796058 -3.79848 0
M  V30 1732 H 157.93 1.62879 -3.35114 0
M  V30 1733 H 158.043 0.394414 -4.77474 0
M  V30 1734 H 156.407 0.305962 -2.52856 0
M  V30 1735 H 157.19 -1.22086 -3.20858 0
M  V30 1736 N 159.635 1.57281 -0.100228 0
M  V30 1737 C 160.86 1.99302 0.573881 0
M  V30 1738 C 161.285 0.979059 1.60611 0
M  V30 1739 O 160.643 -0.0517803 1.81226 0
M  V30 1740 C 160.691 3.40274 1.19358 0
M  V30 1741 O 159.795 3.41676 2.30935 0
M  V30 1742 H 159.136 0.647944 0.145138 0
M  V30 1743 H 161.666 2.03779 -0.183156 0
M  V30 1744 H 161.676 3.78078 1.53365 0
M  V30 1745 H 160.351 4.13594 0.437385 0
M  V30 1746 H 158.928 3.15672 1.98509 0
M  V30 1747 N 161.113 -0.173488 1.56642 0
M  V30 1748 C 162.023 -1.23482 1.99473 0
M  V30 1749 C 163.039 -1.48567 0.905752 0
M  V30 1750 O 164.215 -1.60758 1.21321 0
M  V30 1751 C 161.28 -2.55444 2.34413 0
M  V30 1752 C 160.341 -2.38241 3.57127 0
M  V30 1753 C 159.574 -3.63909 3.90392 0
M  V30 1754 O 159.797 -4.68996 3.24653 0
M  V30 1755 O 158.731 -3.58149 4.83749 0
M  V30 1756 H 162.557 -0.901279 2.90018 0
M  V30 1757 H 160.142 -0.380185 1.44482 0
M  V30 1758 H 162.024 -3.33292 2.57865 0
M  V30 1759 H 160.699 -2.88382 1.4703 0
M  V30 1760 H 159.606 -1.58431 3.38896 0
M  V30 1761 H 160.939 -2.10228 4.45045 0
M  V30 1762 N 162.591 -1.51276 -0.441967 0
M  V30 1763 C 163.837 -1.63958 -1.19355 0
M  V30 1764 C 164.17 -0.352543 -1.90973 0
M  V30 1765 O 163.445 0.647627 -1.83401 0
M  V30 1766 C 163.728 -2.83979 -2.21422 0
M  V30 1767 C 163.581 -4.22646 -1.53918 0
M  V30 1768 C 164.9 -2.99521 -3.22451 0
M  V30 1769 H 162.019 -0.596709 -0.432559 0
M  V30 1770 H 164.661 -1.83748 -0.483398 0
M  V30 1771 H 162.811 -2.67237 -2.81987 0
M  V30 1772 H 164.483 -4.51045 -0.967256 0
M  V30 1773 H 162.726 -4.25558 -0.841615 0
M  V30 1774 H 163.397 -5.02609 -2.28229 0
M  V30 1775 H 165.873 -3.14944 -2.71937 0
M  V30 1776 H 164.749 -3.85072 -3.91166 0
M  V30 1777 H 165.01 -2.11391 -3.88287 0
M  V30 1778 N 164.069 0.697108 -1.41344 0
M  V30 1779 C 165.315 1.4593 -1.40827 0
M  V30 1780 C 165.648 1.94193 -0.0167098 0
M  V30 1781 O 164.923 1.69425 0.955263 0
M  V30 1782 C 165.206 2.67229 -2.41373 0
M  V30 1783 C 165.059 2.24741 -3.8963 0
M  V30 1784 C 166.378 3.69423 -2.39196 0
M  V30 1785 H 163.497 0.529303 -0.512842 0
M  V30 1786 H 166.139 0.794112 -1.72609 0
M  V30 1787 H 164.289 3.23982 -2.14401 0
M  V30 1788 H 165.961 1.73327 -4.27499 0
M  V30 1789 H 164.204 1.56542 -4.0457 0
M  V30 1790 H 164.875 3.1177 -4.55525 0
M  V30 1791 H 167.351 3.2234 -2.63128 0
M  V30 1792 H 166.227 4.51907 -3.11563 0
M  V30 1793 H 166.488 4.19012 -1.41001 0
M  V30 1794 N 165.547 1.27147 0.931209 0
M  V30 1795 C 166.477 1.12081 2.04842 0
M  V30 1796 C 167.458 0.0232364 1.70084 0
M  V30 1797 O 168.643 0.197085 1.93197 0
M  V30 1798 C 165.773 0.76354 3.38803 0
M  V30 1799 C 164.727 1.81396 3.87659 0
M  V30 1800 C 164.053 1.31075 5.18385 0
M  V30 1801 C 165.353 3.21739 4.11438 0
M  V30 1802 H 167.047 2.05537 2.17703 0
M  V30 1803 H 164.593 0.989603 1.04608 0
M  V30 1804 H 166.546 0.644982 4.16435 0
M  V30 1805 H 165.27 -0.206727 3.25945 0
M  V30 1806 H 163.929 1.92136 3.12217 0
M  V30 1807 H 163.577 0.330037 5.01916 0
M  V30 1808 H 163.277 2.013 5.52044 0
M  V30 1809 H 164.801 1.20506 5.98591 0
M  V30 1810 H 166.215 3.14019 4.79651 0
M  V30 1811 H 164.612 3.89644 4.56397 0
M  V30 1812 H 165.682 3.67054 3.16859 0
M  V30 1813 N 167.025 -1.13721 1.09112 0
M  V30 1814 C 168.302 -1.81155 0.737706 0
M  V30 1815 C 168.682 -1.96253 -0.777683 0
M  V30 1816 O 168.03 -1.52807 -1.69889 0
M  V30 1817 C 168.24 -3.16392 1.47299 0
M  V30 1818 C 169.588 -3.91787 1.63671 0
M  V30 1819 O 170.612 -3.26005 1.43524 0
M  V30 1820 O 169.471 -5.0977 1.96969 0
M  V30 1821 H 166.565 -0.783518 0.26463 0
M  V30 1822 H 169.111 -1.20676 1.19312 0
M  V30 1823 H 167.883 -3.0061 2.50498 0
M  V30 1824 H 167.506 -3.8457 1.00953 0
M  V30 1825 N 168.503 -0.877838 -1.30888 0
M  V30 1826 C 169.752 -0.488793 -1.95688 0
M  V30 1827 C 170.065 0.965485 -1.70111 0
M  V30 1828 O 171.271 1.46104 -2.28836 0
M  V30 1829 C 169.727 -0.823201 -3.50359 0
M  V30 1830 C 169.335 -2.29477 -3.84765 0
M  V30 1831 C 171.079 -0.503009 -4.21509 0
M  V30 1832 C 168.986 -2.57118 -5.32583 0
M  V30 1833 H 167.916 -0.179062 -0.732429 0
M  V30 1834 H 170.567 -1.07183 -1.48943 0
M  V30 1835 H 168.949 -0.169331 -3.95638 0
M  V30 1836 H 170.123 -2.99236 -3.5042 0
M  V30 1837 H 168.438 -2.58178 -3.267 0
M  V30 1838 H 171.035 -0.68665 -5.30273 0
M  V30 1839 H 171.378 0.557109 -4.12555 0
M  V30 1840 H 171.911 -1.11376 -3.8189 0
M  V30 1841 H 168.65 -3.61843 -5.4658 0
M  V30 1842 H 168.17 -1.91961 -5.68253 0
M  V30 1843 H 169.849 -2.42251 -5.99936 0
M  V30 1844 N 169.982 1.44106 -0.638065 0
M  V30 1845 C 170.912 2.33448 0.0494287 0
M  V30 1846 C 171.893 1.48606 0.827672 0
M  V30 1847 O 173.078 1.77308 0.792173 0
M  V30 1848 C 170.208 3.31771 1.02691 0
M  V30 1849 C 169.162 4.26485 0.359823 0
M  V30 1850 C 168.488 5.14729 1.44769 0
M  V30 1851 C 169.788 5.17056 -0.738296 0
M  V30 1852 H 171.482 2.91183 -0.696636 0
M  V30 1853 H 169.028 1.40014 -0.336456 0
M  V30 1854 H 170.981 3.93161 1.51666 0
M  V30 1855 H 169.705 2.7226 1.80395 0
M  V30 1856 H 168.364 3.66437 -0.10934 0
M  V30 1857 H 168.012 4.51566 2.21578 0
M  V30 1858 H 167.712 5.78913 1.00668 0
M  V30 1859 H 169.236 5.78991 1.93911 0
M  V30 1860 H 170.65 5.72342 -0.331354 0
M  V30 1861 H 169.047 5.89879 -1.10286 0
M  V30 1862 H 170.117 4.57652 -1.60258 0
M  V30 1863 N 171.46 0.379036 1.52974 0
M  V30 1864 C 172.392 -0.495963 2.2377 0
M  V30 1865 C 173.405 -1.03517 1.25651 0
M  V30 1866 O 174.594 -0.939249 1.51791 0
M  V30 1867 C 171.694 -1.69894 2.93239 0
M  V30 1868 C 170.867 -1.2889 4.17979 0
M  V30 1869 C 169.926 -2.35543 4.70538 0
M  V30 1870 O 168.952 -1.97375 5.33883 0
M  V30 1871 N 170.154 -3.67318 4.49508 0
M  V30 1872 H 172.919 0.110523 2.99496 0
M  V30 1873 H 170.48 0.204878 1.60598 0
M  V30 1874 H 172.472 -2.40747 3.25304 0
M  V30 1875 H 171.042 -2.212 2.20883 0
M  V30 1876 H 170.262 -0.409676 3.92065 0
M  V30 1877 H 171.55 -0.991443 4.99047 0
M  V30 1878 H 170.948 -4.01095 3.98923 0
M  V30 1879 H 169.505 -4.34235 4.8609 0
M  V30 1880 N 172.938 -1.57226 0.108567 0
M  V30 1881 C 174.215 -1.86333 -0.594939 0
M  V30 1882 C 174.595 -1.00788 -1.85486 0
M  V30 1883 O 173.943 -0.0839293 -2.28346 0
M  V30 1884 C 174.153 -3.37265 -0.897405 0
M  V30 1885 C 175.501 -4.05629 -1.25501 0
M  V30 1886 O 176.525 -3.42224 -0.987998 0
M  V30 1887 O 175.384 -5.17531 -1.75567 0
M  V30 1888 H 172.478 -0.771018 -0.2991 0
M  V30 1889 H 175.024 -1.69102 0.142283 0
M  V30 1890 H 173.796 -3.913 -0.00413806 0
M  V30 1891 H 173.419 -3.59889 -1.69014 0
M  V30 1892 N 174.416 0.165178 -1.56732 0
M  V30 1893 C 175.379 1.18822 -1.95995 0
M  V30 1894 C 176.379 1.3685 -0.84431 0
M  V30 1895 O 177.569 1.34152 -1.11126 0
M  V30 1896 C 174.701 2.5521 -2.26011 0
M  V30 1897 H 175.894 0.851825 -2.87548 0
M  V30 1898 H 173.447 0.407857 -1.50885 0
M  V30 1899 H 174.182 2.93852 -1.37191 0
M  V30 1900 H 173.967 2.43489 -3.07336 0
M  V30 1901 H 175.457 3.28927 -2.57288 0
M  V30 1902 N 175.894 1.51508 0.433938 0
M  V30 1903 C 176.826 1.69266 1.54537 0
M  V30 1904 C 177.839 0.573276 1.52373 0
M  V30 1905 O 179.028 0.847698 1.57087 0
M  V30 1906 C 176.128 1.69524 2.93453 0
M  V30 1907 C 175.301 2.98101 3.20085 0
M  V30 1908 C 174.36 2.90502 4.38742 0
M  V30 1909 O 173.386 3.64442 4.3723 0
M  V30 1910 N 174.588 2.06586 5.42496 0
M  V30 1911 H 177.353 2.65145 1.39708 0
M  V30 1912 H 174.914 1.49437 0.622922 0
M  V30 1913 H 176.906 1.62004 3.70859 0
M  V30 1914 H 175.476 0.812245 3.01863 0
M  V30 1915 H 174.696 3.19464 2.30947 0
M  V30 1916 H 175.984 3.83207 3.34708 0
M  V30 1917 H 175.382 1.45896 5.46563 0
M  V30 1918 H 173.939 2.04943 6.18742 0
M  V30 1919 N 177.372 -0.689602 1.41712 0
M  V30 1920 C 178.319 -1.80345 1.44029 0
M  V30 1921 C 179.289 -1.63478 0.293948 0
M  V30 1922 O 180.474 -1.84244 0.495869 0
M  V30 1923 C 177.614 -3.18272 1.33405 0
M  V30 1924 C 176.727 -3.46529 2.57956 0
M  V30 1925 C 175.862 -4.74103 2.39582 0
M  V30 1926 C 174.901 -4.95347 3.5958 0
M  V30 1927 N 174.038 -6.14151 3.40239 0
M  V30 1928 H 178.878 -1.77698 2.39222 0
M  V30 1929 H 176.415 -0.867688 1.18784 0
M  V30 1930 H 178.373 -3.97956 1.25246 0
M  V30 1931 H 177.003 -3.2008 0.418164 0
M  V30 1932 H 176.055 -2.61207 2.76542 0
M  V30 1933 H 177.367 -3.58126 3.47199 0
M  V30 1934 H 176.521 -5.61853 2.28924 0
M  V30 1935 H 175.26 -4.64763 1.47805 0
M  V30 1936 H 174.265 -4.06044 3.70686 0
M  V30 1937 H 175.49 -5.06542 4.52318 0
M  V30 1938 H 173.436 -6.06013 2.51167 0
M  V30 1939 H 173.353 -6.26543 4.23061 0
M  V30 1940 H 174.621 -7.04619 3.33365 0
M  V30 1941 N 178.85 -1.27639 -0.924453 0
M  V30 1942 C 180.098 -1.13941 -1.66918 0
M  V30 1943 C 180.419 0.314589 -1.92446 0
M  V30 1944 O 179.689 1.21964 -1.53303 0
M  V30 1945 H 178.269 -0.418678 -0.618642 0
M  V30 1946 H 180.931 -1.60213 -1.10985 0
M  V30 1947 H 180.027 -1.67094 -2.63602 0
M  V30 1948 N 180.328 1.1314 -1.09713 0
M  V30 1949 C 181.291 2.16831 -0.742751 0
M  V30 1950 C 182.291 1.59159 0.229129 0
M  V30 1951 O 183.481 1.74199 0.00693237 0
M  V30 1952 C 180.613 3.40756 -0.0989168 0
M  V30 1953 H 181.806 2.49695 -1.66109 0
M  V30 1954 H 179.359 1.2802 -0.896699 0
M  V30 1955 H 180.094 3.13485 0.830514 0
M  V30 1956 H 179.879 3.83888 -0.798265 0
M  V30 1957 H 181.369 4.17386 0.133524 0
M  V30 1958 N 181.806 0.884767 1.30421 0
M  V30 1959 C 183.053 0.503105 1.96151 0
M  V30 1960 C 183.381 -0.947676 1.69851 0
M  V30 1961 O 182.636 -1.68467 0.995861 0
M  V30 1962 C 182.935 0.724318 3.49983 0
M  V30 1963 C 182.601 2.15015 3.96332 0
M  V30 1964 C 181.263 2.54005 4.08699 0
M  V30 1965 C 183.615 3.07936 4.20505 0
M  V30 1966 C 180.943 3.85128 4.42599 0
M  V30 1967 C 183.295 4.3859 4.55874 0
M  V30 1968 C 181.959 4.77474 4.66449 0
M  V30 1969 H 181.229 0.184099 0.717766 0
M  V30 1970 H 183.876 1.12058 1.55291 0
M  V30 1971 H 182.181 0.0238086 3.91793 0
M  V30 1972 H 183.878 0.408617 3.98913 0
M  V30 1973 H 180.468 1.8375 3.87213 0
M  V30 1974 H 184.652 2.79033 4.10431 0
M  V30 1975 H 179.908 4.14996 4.48986 0
M  V30 1976 H 184.082 5.10629 4.7353 0
M  V30 1977 H 181.709 5.79115 4.92473 0
M  V30 1978 N 183.284 -1.43765 0.645699 0
M  V30 1979 C 184.512 -2.06253 0.163556 0
M  V30 1980 C 184.927 -1.48352 -1.16778 0
M  V30 1981 O 184.284 -0.611932 -1.71935 0
M  V30 1982 C 184.335 -3.61453 0.0583186 0
M  V30 1983 O 184.056 -4.172 1.33702 0
M  V30 1984 C 185.557 -4.41002 -0.450795 0
M  V30 1985 H 182.777 -0.665413 0.0864077 0
M  V30 1986 H 185.321 -1.84396 0.884222 0
M  V30 1987 H 183.476 -3.82522 -0.612865 0
M  V30 1988 H 183.89 -5.10791 1.19131 0
M  V30 1989 H 185.364 -5.49966 -0.473403 0
M  V30 1990 H 185.841 -4.13488 -1.48068 0
M  V30 1991 H 186.447 -4.24886 0.187637 0
M  V30 1992 N 184.763 -0.387143 -1.52771 0
M  V30 1993 C 185.71 0.449048 -2.26389 0
M  V30 1994 C 186.68 1.05961 -1.27912 0
M  V30 1995 O 187.865 1.08804 -1.56737 0
M  V30 1996 C 185.005 1.57155 -3.0724 0
M  V30 1997 C 184.118 0.984066 -4.20643 0
M  V30 1998 C 183.253 2.07745 -4.88892 0
M  V30 1999 C 182.292 1.46574 -5.94292 0
M  V30 2000 N 181.429 2.49834 -6.56146 0
M  V30 2001 H 186.269 -0.185205 -2.97424 0
M  V30 2002 H 183.806 -0.103164 -1.46738 0
M  V30 2003 H 185.764 2.23309 -3.52405 0
M  V30 2004 H 184.394 2.17615 -2.38419 0
M  V30 2005 H 183.446 0.212193 -3.79808 0
M  V30 2006 H 184.758 0.497029 -4.96318 0
M  V30 2007 H 183.912 2.81673 -5.3735 0
M  V30 2008 H 182.651 2.59807 -4.12737 0
M  V30 2009 H 181.656 0.711696 -5.45174 0
M  V30 2010 H 182.881 0.953088 -6.72379 0
M  V30 2011 H 180.827 3.0107 -5.82832 0
M  V30 2012 H 180.744 2.05879 -7.27427 0
M  V30 2013 H 182.012 3.23399 -7.09249 0
M  V30 2014 N 186.241 1.57166 -0.116904 0
M  V30 2015 C 187.151 2.18745 0.847812 0
M  V30 2016 C 188.167 1.163 1.29423 0
M  V30 2017 O 189.343 1.48761 1.35765 0
M  V30 2018 C 186.408 2.77307 2.0809 0
M  V30 2019 C 185.469 3.94781 1.68661 0
M  V30 2020 C 184.702 4.50541 2.86091 0
M  V30 2021 O 184.925 4.05202 4.01456 0
M  V30 2022 O 183.859 5.41256 2.63298 0
M  V30 2023 H 187.685 3.01632 0.353778 0
M  V30 2024 H 185.27 1.49005 0.108599 0
M  V30 2025 H 187.152 3.14647 2.80313 0
M  V30 2026 H 185.827 1.97452 2.56504 0
M  V30 2027 H 184.734 3.62214 0.935518 0
M  V30 2028 H 186.067 4.76065 1.24991 0
M  V30 2029 N 187.719 -0.156864 1.56817 0
M  V30 2030 C 188.996 -0.899244 1.73704 0
M  V30 2031 C 189.376 -1.99771 0.682254 0
M  V30 2032 O 188.724 -2.26515 -0.300522 0
M  V30 2033 C 188.934 -1.45075 3.17418 0
M  V30 2034 C 190.282 -1.91802 3.7881 0
M  V30 2035 O 191.306 -1.54838 3.20786 0
M  V30 2036 O 190.165 -2.5994 4.80722 0
M  V30 2037 H 187.259 -0.424267 0.709878 0
M  V30 2038 H 189.805 -0.143561 1.69092 0
M  V30 2039 H 188.577 -0.660846 3.85679 0
M  V30 2040 H 188.2 -2.27021 3.26416 0
M  V30 2041 N 189.197 -1.51736 -0.425897 0
M  V30 2042 C 190.445 -1.64644 -1.17204 0
M  V30 2043 C 190.766 -0.370486 -1.91448 0
M  V30 2044 O 190.036 0.614088 -1.86026 0
M  V30 2045 H 188.616 -0.606819 -0.435638 0
M  V30 2046 H 191.278 -1.88713 -0.487177 0
M  V30 2047 H 190.374 -2.47958 -1.89534 0
M  V30 2048 N 190.675 0.682077 -1.42076 0
M  V30 2049 C 191.585 1.82535 -1.47371 0
M  V30 2050 C 192.601 1.7017 -0.363079 0
M  V30 2051 O 193.777 1.91848 -0.612875 0
M  V30 2052 C 190.842 3.18624 -1.36674 0
M  V30 2053 C 189.903 3.42999 -2.58167 0
M  V30 2054 C 189.136 4.72595 -2.4797 0
M  V30 2055 O 189.359 5.50006 -1.5116 0
M  V30 2056 O 188.293 4.98054 -3.37974 0
M  V30 2057 H 192.119 1.81023 -2.43853 0
M  V30 2058 H 189.704 0.836887 -1.2376 0
M  V30 2059 H 191.586 3.99847 -1.33043 0
M  V30 2060 H 190.261 3.20789 -0.433138 0
M  V30 2061 H 189.168 2.61653 -2.67373 0
M  V30 2062 H 190.501 3.45659 -3.50401 0
M  V30 2063 N 192.153 1.28127 0.917671 0
M  V30 2064 C 193.1 1.11717 2.0196 0
M  V30 2065 C 194.07 0.0153929 1.66093 0
M  V30 2066 O 195.255 0.179596 1.89953 0
M  V30 2067 C 192.395 0.780927 3.36148 0
M  V30 2068 C 191.508 1.96135 3.84909 0
M  V30 2069 C 190.643 1.56609 5.0759 0
M  V30 2070 C 189.682 2.71339 5.48673 0
M  V30 2071 N 188.819 2.32332 6.62545 0
M  V30 2072 H 193.659 2.06003 2.15329 0
M  V30 2073 H 191.196 1.02535 1.05475 0
M  V30 2074 H 193.154 0.56675 4.13333 0
M  V30 2075 H 191.784 -0.124998 3.22558 0
M  V30 2076 H 190.836 2.28777 3.03916 0
M  V30 2077 H 192.148 2.82165 4.1132 0
M  V30 2078 H 191.302 1.31374 5.92305 0
M  V30 2079 H 190.041 0.677014 4.82978 0
M  V30 2080 H 189.046 2.97276 4.62501 0
M  V30 2081 H 190.271 3.60882 5.75274 0
M  V30 2082 H 188.217 1.45889 6.39572 0
M  V30 2083 H 188.134 3.11899 6.88662 0
M  V30 2084 H 189.402 2.10371 7.50576 0
M  V30 2085 N 193.631 -1.12557 1.10312 0
M  V30 2086 C 194.877 -1.84311 0.846011 0
M  V30 2087 C 195.21 -1.83805 -0.626859 0
M  V30 2088 O 194.485 -1.28268 -1.46211 0
M  V30 2089 C 194.768 -3.32048 1.39341 0
M  V30 2090 C 194.621 -3.41016 2.93305 0
M  V30 2091 C 195.94 -4.27764 1.03468 0
M  V30 2092 H 193.059 -0.669192 0.30879 0
M  V30 2093 H 195.701 -1.32057 1.36605 0
M  V30 2094 H 193.851 -3.76678 0.951087 0
M  V30 2095 H 195.523 -3.05031 3.46055 0
M  V30 2096 H 193.766 -2.81603 3.29973 0
M  V30 2097 H 194.437 -4.44948 3.26689 0
M  V30 2098 H 196.913 -3.91253 1.41633 0
M  V30 2099 H 195.789 -5.29549 1.44463 0
M  V30 2100 H 196.05 -4.42064 -0.0560404 0
M  V30 2101 N 195.109 -0.891671 -1.2995 0
M  V30 2102 C 196.355 -0.514261 -1.96171 0
M  V30 2103 C 196.688 0.935506 -1.70182 0
M  V30 2104 O 195.963 1.66204 -1.01028 0
M  V30 2105 C 196.246 -0.797719 -3.51153 0
M  V30 2106 C 196.099 -2.2986 -3.86632 0
M  V30 2107 C 197.418 -0.278749 -4.39216 0
M  V30 2108 H 194.537 -0.188314 -0.712535 0
M  V30 2109 H 197.179 -1.11689 -1.53706 0
M  V30 2110 H 195.329 -0.284826 -3.87455 0
M  V30 2111 H 197.001 -2.88042 -3.60319 0
M  V30 2112 H 195.244 -2.76257 -3.34462 0
M  V30 2113 H 195.915 -2.44753 -4.94773 0
M  V30 2114 H 198.391 -0.717825 -4.09862 0
M  V30 2115 H 197.267 -0.506353 -5.46559 0
M  V30 2116 H 197.528 0.820266 -4.34424 0
M  V30 2117 N 196.587 1.43421 -0.653314 0
M  V30 2118 C 197.864 1.95361 -0.0966581 0
M  V30 2119 C 198.244 1.59461 1.38331 0
M  V30 2120 O 197.592 0.879777 2.10884 0
M  V30 2121 C 197.802 3.47311 -0.342988 0
M  V30 2122 C 199.15 4.23875 -0.24798 0
M  V30 2123 O 200.174 3.55133 -0.275553 0
M  V30 2124 O 199.033 5.4623 -0.171771 0
M  V30 2125 H 196.127 0.826945 0.00956291 0
M  V30 2126 H 198.673 1.5336 -0.726558 0
M  V30 2127 H 197.445 3.66569 -1.36906 0
M  V30 2128 H 197.068 3.9631 0.319975 0
M  V30 2129 N 198.065 0.39524 1.52563 0
M  V30 2130 C 198.975 -0.444232 2.30356 0
M  V30 2131 C 199.991 -1.06615 1.37511 0
M  V30 2132 O 201.167 -1.07067 1.70583 0
M  V30 2133 C 198.232 -1.55315 3.09964 0
M  V30 2134 C 197.293 -0.955734 4.18526 0
M  V30 2135 C 196.526 -2.01181 4.9433 0
M  V30 2136 O 196.749 -3.22781 4.70285 0
M  V30 2137 O 195.683 -1.62579 5.79527 0
M  V30 2138 H 199.509 0.189667 3.03107 0
M  V30 2139 H 197.094 0.1588 1.48554 0
M  V30 2140 H 198.976 -2.19724 3.59582 0
M  V30 2141 H 197.651 -2.17191 2.4002 0
M  V30 2142 H 196.558 -0.274743 3.7309 0
M  V30 2143 H 197.891 -0.381109 4.90722 0
M  V30 2144 N 199.544 -1.57102 0.125237 0
M  V30 2145 C 200.507 -2.14471 -0.80838 0
M  V30 2146 C 201.507 -1.0811 -1.19033 0
M  V30 2147 O 202.697 -1.33856 -1.11482 0
M  V30 2148 C 199.829 -2.69005 -2.09402 0
M  V30 2149 H 201.022 -2.98297 -0.309696 0
M  V30 2150 H 198.575 -1.55807 -0.124051 0
M  V30 2151 H 199.31 -1.88785 -2.63687 0
M  V30 2152 H 199.095 -3.46799 -1.82957 0
M  V30 2153 H 200.585 -3.13278 -2.76128 0
M  V30 2154 N 201.022 0.148545 -1.56898 0
M  V30 2155 C 202.27 0.859717 -1.82902 0
M  V30 2156 C 202.591 1.81775 -0.70588 0
M  V30 2157 O 201.861 1.93994 0.272586 0
M  V30 2158 H 200.441 0.320469 -0.674766 0
M  V30 2159 H 203.103 0.142918 -1.94375 0
M  V30 2160 H 202.199 1.4229 -2.77777 0
M  V30 2161 N 202.5 1.5196 0.417844 0
M  V30 2162 C 203.447 1.74678 1.50852 0
M  V30 2163 C 204.417 0.588947 1.55308 0
M  V30 2164 O 205.602 0.825544 1.72016 0
M  V30 2165 C 202.742 1.89544 2.88387 0
M  V30 2166 C 201.855 3.17166 2.93309 0
M  V30 2167 C 200.99 3.22513 4.22088 0
M  V30 2168 C 200.029 4.44372 4.20951 0
M  V30 2169 N 199.166 4.47161 5.41287 0
M  V30 2170 H 204.006 2.67768 1.30783 0
M  V30 2171 H 201.543 1.32689 0.63498 0
M  V30 2172 H 203.501 1.96146 3.68216 0
M  V30 2173 H 202.131 0.998424 3.06971 0
M  V30 2174 H 201.183 3.19778 2.06024 0
M  V30 2175 H 202.495 4.07021 2.88332 0
M  V30 2176 H 201.649 3.28139 5.10303 0
M  V30 2177 H 200.388 2.30581 4.29748 0
M  V30 2178 H 199.393 4.38902 3.31127 0
M  V30 2179 H 200.618 5.3759 4.14938 0
M  V30 2180 H 198.564 3.58108 5.49632 0
M  V30 2181 H 198.481 5.3085 5.3827 0
M  V30 2182 H 199.749 4.57005 6.3148 0
M  V30 2183 N 203.978 -0.674533 1.42435 0
M  V30 2184 C 205.394 -0.98769 1.25367 0
M  V30 2185 C 205.594 -2.00879 0.158044 0
M  V30 2186 O 204.65 -2.48075 -0.470633 0
M  V30 2187 C 205.963 -1.49224 2.6106 0
M  V30 2188 C 207.511 -1.61 2.68417 0
M  V30 2189 C 207.986 -2.14852 4.04478 0
M  V30 2190 N 209.477 -2.22185 4.06434 0
M  V30 2191 C 210.212 -2.64928 5.08528 0
M  V30 2192 N 209.708 -3.07121 6.21006 0
M  V30 2193 N 211.501 -2.64679 4.95885 0
M  V30 2194 H 203.652 0.00152503 2.124 0
M  V30 2195 H 205.915 -0.0618434 0.945981 0
M  V30 2196 H 205.621 -0.816453 3.42092 0
M  V30 2197 H 205.495 -2.47094 2.84999 0
M  V30 2198 H 207.882 -2.27686 1.87732 0
M  V30 2199 H 207.963 -0.616195 2.48267 0
M  V30 2200 H 207.607 -1.48775 4.85622 0
M  V30 2201 H 207.537 -3.15024 4.2198 0
M  V30 2202 H 210.028 -1.92435 3.25234 0
M  V30 2203 H 210.341 -3.38423 6.94759 0
M  V30 2204 H 208.686 -3.04978 6.24511 0
M  V30 2205 H 211.877 -2.31078 4.07088 0
M  V30 2206 H 212.05 -2.9767 5.75584 0
M  V30 2207 N 205.456 -1.28612 -0.910864 0
M  V30 2208 C 206.386 -1.15326 -2.03032 0
M  V30 2209 C 207.367 -0.0502924 -1.70026 0
M  V30 2210 O 208.552 -0.227797 -1.92859 0
M  V30 2211 C 205.682 -0.817343 -3.37545 0
M  V30 2212 C 204.636 -1.8754 -3.84724 0
M  V30 2213 C 203.962 -1.39305 -5.16235 0
M  V30 2214 C 205.262 -3.28244 -4.06267 0
M  V30 2215 H 206.956 -2.08975 -2.14406 0
M  V30 2216 H 204.502 -1.00612 -1.03021 0
M  V30 2217 H 206.455 -0.711151 -4.15356 0
M  V30 2218 H 205.179 0.154846 -3.26233 0
M  V30 2219 H 203.838 -1.97079 -3.09121 0
M  V30 2220 H 203.486 -0.409846 -5.01328 0
M  V30 2221 H 203.186 -2.10057 -5.48771 0
M  V30 2222 H 204.71 -1.30014 -5.96598 0
M  V30 2223 H 206.124 -3.21611 -4.74594 0
M  V30 2224 H 204.521 -3.96855 -4.5014 0
M  V30 2225 H 205.591 -3.72048 -3.10979 0
M  V30 2226 N 206.934 1.1197 -1.10907 0
M  V30 2227 C 207.881 2.17846 -0.762345 0
M  V30 2228 C 208.851 1.63995 0.263599 0
M  V30 2229 O 210.036 1.90273 0.141773 0
M  V30 2230 C 207.176 3.44487 -0.205651 0
M  V30 2231 C 206.289 4.12369 -1.28748 0
M  V30 2232 C 205.424 5.26674 -0.691919 0
M  V30 2233 C 204.463 5.86431 -1.75399 0
M  V30 2234 N 203.6 6.92142 -1.17833 0
M  V30 2235 H 208.44 2.46851 -1.6694 0
M  V30 2236 H 205.977 1.21188 -0.833776 0
M  V30 2237 H 207.935 4.16981 0.135037 0
M  V30 2238 H 206.565 3.15884 0.664613 0
M  V30 2239 H 205.617 3.38003 -1.74522 0
M  V30 2240 H 206.929 4.52844 -2.09125 0
M  V30 2241 H 206.083 6.05953 -0.300963 0
M  V30 2242 H 204.822 4.8749 0.143232 0
M  V30 2243 H 203.827 5.05835 -2.15432 0
M  V30 2244 H 205.052 6.27685 -2.59208 0
M  V30 2245 H 202.998 6.54985 -0.364725 0
M  V30 2246 H 202.915 7.31242 -1.91887 0
M  V30 2247 H 204.183 7.75237 -0.81408 0
M  V30 2248 O 208.451 1.03102 1.24307 0
M  V30 2249 H 209.142 0.697601 1.80702 0
M  V30 END ATOM
M  V30 BEGIN BOND
M  V30 END BOND
M  V30 END CTAB
M  END
$$$$
