drugbank_target|P08603 Complement factor H (DB01593; DB09130; DB14487; DB14533; DB14548)
 OpenBabel12092121073D

  0  0  0     0  0            999 V3000
M  V30 BEGIN CTAB
M  V30 COUNTS 19043 19313 0 0 0
M  V30 BEGIN ATOM
M  V30 1 H -0.908 1.98254 -0.117106 0
M  V30 2 N 0 1.576 0 0
M  V30 3 C 0.933 2.03868 1.02534 0
M  V30 4 C 1.911 0.928543 1.3348 0
M  V30 5 O 3.095 1.19667 1.45644 0
M  V30 6 C 0.222 2.43627 2.35294 0
M  V30 7 C -0.732 3.65373 2.2001 0
M  V30 8 S 0.101 5.13292 1.52614 0
M  V30 9 C 1.257 5.56322 2.86805 0
M  V30 10 H 1.49 2.90518 0.631377 0
M  V30 11 H -0.977 1.52953 0.210867 0
M  V30 12 H 0.981 2.67203 3.11629 0
M  V30 13 H -0.358 1.57376 2.7183 0
M  V30 14 H -1.165 3.90944 3.18086 0
M  V30 15 H -1.563 3.418 1.51819 0
M  V30 16 H 0.729 5.58782 3.83104 0
M  V30 17 H 1.672 6.56266 2.65933 0
M  V30 18 H 2.08 4.83886 2.90714 0
M  V30 19 N 1.4781 -0.272755 1.55222 0
M  V30 20 C 2.8941 -0.619959 1.47067 0
M  V30 21 C 3.0941 -1.895 0.684978 0
M  V30 22 O 2.1501 -2.51675 0.203931 0
M  V30 23 C 3.4631 -0.746693 2.91282 0
M  V30 24 C 5.0111 -0.840731 3.01497 0
M  V30 25 C 5.4861 -0.99924 4.46967 0
M  V30 26 N 6.9771 -1.06476 4.50796 0
M  V30 27 C 7.7121 -1.20621 5.6057 0
M  V30 28 N 7.2081 -1.31483 6.80209 0
M  V30 29 N 9.0011 -1.23733 5.48312 0
M  V30 30 H 1.1521 0.564606 2.04758 0
M  V30 31 H 3.4151 0.191177 0.928523 0
M  V30 32 H 3.1211 0.119753 3.51496 0
M  V30 33 H 2.9951 -1.6269 3.40311 0
M  V30 34 H 5.3821 -1.69764 2.41379 0
M  V30 35 H 5.4631 0.0640874 2.5572 0
M  V30 36 H 5.1071 -0.146984 5.07687 0
M  V30 37 H 5.0371 -1.91871 4.90401 0
M  V30 38 H 7.5281 -0.993196 3.64615 0
M  V30 39 H 7.8411 -1.42111 7.59621 0
M  V30 40 H 6.1861 -1.28487 6.8302 0
M  V30 41 H 9.3771 -1.14877 4.53785 0
M  V30 42 H 9.5501 -1.34412 6.33906 0
M  V30 43 N 2.9562 -1.48159 -0.537278 0
M  V30 44 C 3.8862 -1.65029 -1.6519 0
M  V30 45 C 4.8672 -0.499281 -1.62607 0
M  V30 46 O 6.0522 -0.730972 -1.79918 0
M  V30 47 C 3.1822 -1.68303 -3.03795 0
M  V30 48 C 2.1362 -2.8283 -3.21234 0
M  V30 49 C 1.4622 -2.71189 -4.60826 0
M  V30 50 C 2.7622 -4.24211 -3.04701 0
M  V30 51 H 4.4562 -2.58341 -1.51328 0
M  V30 52 H 2.0022 -1.24325 -0.726585 0
M  V30 53 H 3.9552 -1.78693 -3.81637 0
M  V30 54 H 2.6792 -0.715635 -3.18663 0
M  V30 55 H 1.3382 -2.71983 -2.45807 0
M  V30 56 H 0.9862 -1.72435 -4.7252 0
M  V30 57 H 0.6862 -3.48035 -4.7344 0
M  V30 58 H 2.2102 -2.83537 -5.40777 0
M  V30 59 H 3.6242 -4.3593 -3.72341 0
M  V30 60 H 2.0212 -5.01998 -3.28813 0
M  V30 61 H 3.0912 -4.41184 -2.01209 0
M  V30 62 N 4.4343 0.785586 -1.36625 0
M  V30 63 C 5.3643 1.91259 -1.33949 0
M  V30 64 C 6.3453 1.68795 -0.210325 0
M  V30 65 O 7.5303 1.89854 -0.408561 0
M  V30 66 C 4.6603 3.28339 -1.13186 0
M  V30 67 C 3.6143 3.65335 -2.22967 0
M  V30 68 C 2.9403 5.00806 -1.87342 0
M  V30 69 C 4.2403 3.7352 -3.65075 0
M  V30 70 H 5.9343 1.93755 -2.28253 0
M  V30 71 H 3.4803 0.930788 -1.09874 0
M  V30 72 H 5.4333 4.06804 -1.09948 0
M  V30 73 H 4.1573 3.2624 -0.153332 0
M  V30 74 H 2.8163 2.89169 -2.25337 0
M  V30 75 H 2.4643 4.95233 -0.880545 0
M  V30 76 H 2.1643 5.26529 -2.60846 0
M  V30 77 H 3.6883 5.81687 -1.85667 0
M  V30 78 H 5.1023 4.42168 -3.64911 0
M  V30 79 H 3.4993 4.10731 -4.37516 0
M  V30 80 H 4.5693 2.74527 -3.99703 0
M  V30 81 N 5.9124 1.20967 1.01018 0
M  V30 82 C 6.8754 0.965918 2.07853 0
M  V30 83 C 7.8754 -0.0610545 1.60684 0
M  V30 84 O 9.0654 0.175681 1.73312 0
M  V30 85 C 6.1974 0.455513 3.37843 0
M  V30 86 H 7.3904 1.91365 2.3091 0
M  V30 87 H 4.9434 1.02594 1.17916 0
M  V30 88 H 5.6784 -0.497381 3.20463 0
M  V30 89 H 5.4634 1.19622 3.73407 0
M  V30 90 H 6.9534 0.304667 4.16487 0
M  V30 91 N 7.3905 -1.2043 1.01659 0
M  V30 92 C 8.3375 -2.23215 0.586822 0
M  V30 93 C 9.3075 -1.61382 -0.393085 0
M  V30 94 O 10.4925 -1.88544 -0.292525 0
M  V30 95 C 7.6325 -3.45032 -0.0687464 0
M  V30 96 C 6.7455 -4.21296 0.955724 0
M  V30 97 C 5.8805 -5.30507 0.271208 0
M  V30 98 C 4.9195 -5.98515 1.28244 0
M  V30 99 N 4.0565 -6.99316 0.62459 0
M  V30 100 H 8.8965 -2.59336 1.46796 0
M  V30 101 H 6.4335 -1.27431 0.734836 0
M  V30 102 H 8.3915 -4.1459 -0.465965 0
M  V30 103 H 7.0215 -3.09604 -0.913529 0
M  V30 104 H 6.0735 -3.50803 1.4711 0
M  V30 105 H 7.3855 -4.6803 1.72479 0
M  V30 106 H 6.5395 -6.06428 -0.18151 0
M  V30 107 H 5.2785 -4.8481 -0.530163 0
M  V30 108 H 4.2835 -5.21355 1.74554 0
M  V30 109 H 5.5085 -6.46298 2.08509 0
M  V30 110 H 3.4545 -6.55812 -0.156914 0
M  V30 111 H 3.3715 -7.44178 1.33172 0
M  V30 112 H 4.6395 -7.79255 0.195462 0
M  V30 113 N 8.8686 -0.792821 -1.36206 0
M  V30 114 C 10.1176 -0.363353 -1.984 0
M  V30 115 C 10.4306 1.07172 -1.63626 0
M  V30 116 O 11.6366 1.60362 -2.19081 0
M  V30 117 C 10.0926 -0.59872 -3.54885 0
M  V30 118 C 9.7006 -2.04543 -3.9858 0
M  V30 119 C 11.4446 -0.233926 -4.23855 0
M  V30 120 C 9.3516 -2.22727 -5.47856 0
M  V30 121 H 8.2816 -0.13212 -0.742334 0
M  V30 122 H 10.9326 -0.974935 -1.55458 0
M  V30 123 H 9.3146 0.0826222 -3.95914 0
M  V30 124 H 10.4886 -2.76345 -3.68741 0
M  V30 125 H 8.8036 -2.36879 -3.42458 0
M  V30 126 H 11.4006 -0.348027 -5.33566 0
M  V30 127 H 11.7436 0.818351 -4.08177 0
M  V30 128 H 12.2766 -0.868639 -3.882 0
M  V30 129 H 9.0156 -3.2635 -5.68486 0
M  V30 130 H 8.5356 -1.55434 -5.7931 0
M  V30 131 H 10.2146 -2.03607 -6.14128 0
M  V30 132 N 10.3467 1.47872 -0.545128 0
M  V30 133 C 11.5957 2.01695 -0.0145033 0
M  V30 134 C 11.9087 1.42609 1.33873 0
M  V30 135 O 13.1147 1.88021 1.95858 0
M  V30 136 C 11.5707 3.59892 0.0245068 0
M  V30 137 C 11.1787 4.27966 -1.32475 0
M  V30 138 C 12.9227 4.21507 0.50316 0
M  V30 139 C 10.8297 5.78136 -1.2455 0
M  V30 140 H 9.7597 0.753998 -0.00165172 0
M  V30 141 H 12.4107 1.69985 -0.691175 0
M  V30 142 H 10.7927 3.88509 0.766575 0
M  V30 143 H 11.9667 4.11003 -2.08357 0
M  V30 144 H 10.2817 3.78286 -1.74036 0
M  V30 145 H 12.8787 5.31538 0.580656 0
M  V30 146 H 13.2217 3.87855 1.51243 0
M  V30 147 H 13.7547 3.97376 -0.183681 0
M  V30 148 H 10.4937 6.16388 -2.23039 0
M  V30 149 H 10.0137 5.97469 -0.528282 0
M  V30 150 H 11.6927 6.40099 -0.942488 0
M  V30 151 N 11.8248 0.280983 1.55075 0
M  V30 152 C 13.0648 -0.335234 2.01632 0
M  V30 153 C 13.4288 -1.5261 1.16508 0
M  V30 154 O 14.6298 -2.21235 1.52672 0
M  V30 155 C 12.9008 -0.702172 3.50434 0
M  V30 156 S 14.4598 -1.30409 4.18974 0
M  V30 157 H 11.2778 -0.103967 0.703358 0
M  V30 158 H 13.8798 0.404187 1.91276 0
M  V30 159 H 12.5838 0.17333 4.10034 0
M  V30 160 H 12.1148 -1.4729 3.64786 0
M  V30 161 H 14.1298 -2.59253 4.23087 0
M  V30 162 N 13.3029 -1.57598 0.00835791 0
M  V30 163 C 14.2329 -2.1198 -0.979113 0
M  V30 164 C 15.2139 -1.03091 -1.35301 0
M  V30 165 O 16.3989 -1.30818 -1.43528 0
M  V30 166 C 13.5289 -2.62995 -2.26828 0
M  V30 167 C 12.4829 -3.76485 -2.03576 0
M  V30 168 C 11.8089 -4.13846 -3.38579 0
M  V30 169 C 13.1089 -5.0342 -1.39161 0
M  V30 170 H 14.8029 -2.94738 -0.526281 0
M  V30 171 H 12.3489 -1.41783 -0.251704 0
M  V30 172 H 14.3019 -2.99669 -2.96271 0
M  V30 173 H 13.0259 -1.7737 -2.7424 0
M  V30 174 H 11.6849 -3.40217 -1.36557 0
M  V30 175 H 11.3329 -3.25232 -3.83709 0
M  V30 176 H 11.0329 -4.90312 -3.23834 0
M  V30 177 H 12.5569 -4.53086 -4.09323 0
M  V30 178 H 13.9709 -5.37812 -1.98573 0
M  V30 179 H 12.3679 -5.84746 -1.34878 0
M  V30 180 H 13.4379 -4.83548 -0.361868 0
M  V30 181 N 14.781 0.264519 -1.55364 0
M  V30 182 C 15.714 1.35297 -1.83766 0
M  V30 183 C 16.692 1.47171 -0.691336 0
M  V30 184 O 17.876 1.63663 -0.935238 0
M  V30 185 C 15.003 2.72847 -2.00679 0
M  V30 186 C 14.049 2.78214 -3.23263 0
M  V30 187 S 14.882 2.36601 -4.80396 0
M  V30 188 C 16.038 3.7611 -5.00292 0
M  V30 189 H 16.271 1.11003 -2.758 0
M  V30 190 H 13.804 0.464596 -1.47244 0
M  V30 191 H 15.762 3.52057 -2.11108 0
M  V30 192 H 14.423 2.94388 -1.09518 0
M  V30 193 H 13.616 3.7919 -3.3201 0
M  V30 194 H 13.218 2.07034 -3.11469 0
M  V30 195 H 15.51 4.71457 -4.86554 0
M  V30 196 H 16.453 3.7231 -6.02321 0
M  V30 197 H 16.861 3.67806 -4.28228 0
M  V30 198 N 16.2591 1.48442 0.529413 0
M  V30 199 C 17.1891 1.65902 1.64313 0
M  V30 200 C 18.1701 0.507897 1.6234 0
M  V30 201 O 19.3551 0.740503 1.79528 0
M  V30 202 C 16.4851 1.69911 3.02898 0
M  V30 203 C 15.4391 2.8453 3.19729 0
M  V30 204 C 14.7651 2.73629 4.59381 0
M  V30 205 C 16.0651 4.25821 3.02447 0
M  V30 206 H 17.7591 2.5914 1.49955 0
M  V30 207 H 15.3051 1.24709 0.719982 0
M  V30 208 H 17.2581 1.80715 3.80684 0
M  V30 209 H 15.9821 0.732524 3.18279 0
M  V30 210 H 14.6411 2.73283 2.44361 0
M  V30 211 H 14.2891 1.74938 4.71599 0
M  V30 212 H 13.9891 3.50541 4.71588 0
M  V30 213 H 15.5131 2.86401 5.39265 0
M  V30 214 H 16.9271 4.37898 3.70024 0
M  V30 215 H 15.3241 5.03735 3.26146 0
M  V30 216 H 16.3941 4.42244 1.98867 0
M  V30 217 N 17.7372 -0.778329 1.37039 0
M  V30 218 C 18.9832 -1.53817 1.33086 0
M  V30 219 C 19.3382 -1.92208 -0.0860346 0
M  V30 220 O 18.6312 -1.60713 -1.04316 0
M  V30 221 C 18.8252 -2.81845 2.19768 0
M  V30 222 C 18.6542 -2.55967 3.69744 0
M  V30 223 C 17.4242 -2.50428 4.38878 0
M  V30 224 C 19.6222 -2.2441 4.62758 0
M  V30 225 N 17.6042 -2.16564 5.74433 0
M  V30 226 C 18.9752 -2.0063 5.86641 0
M  V30 227 C 21.0302 -2.1051 4.5121 0
M  V30 228 C 19.7332 -1.64354 7.00272 0
M  V30 229 C 21.7592 -1.75634 5.64718 0
M  V30 230 C 21.1212 -1.52709 6.87648 0
M  V30 231 H 17.2202 -0.563434 0.542279 0
M  V30 232 H 19.8042 -0.908617 1.72198 0
M  V30 233 H 17.9752 -3.42649 1.82883 0
M  V30 234 H 19.7072 -3.47682 2.07122 0
M  V30 235 H 16.4622 -2.66056 3.91805 0
M  V30 236 H 16.8862 -2.02348 6.46053 0
M  V30 237 H 21.5282 -2.26919 3.56746 0
M  V30 238 H 19.2462 -1.46683 7.94676 0
M  V30 239 H 22.8322 -1.65546 5.57751 0
M  V30 240 H 21.7122 -1.2612 7.73992 0
M  V30 241 N 19.2153 -1.21501 -1.00376 0
M  V30 242 C 20.1783 -0.976927 -2.07337 0
M  V30 243 C 21.1783 0.0525322 -1.60714 0
M  V30 244 O 22.3683 -0.184869 -1.73216 0
M  V30 245 C 19.5003 -0.473423 -3.37597 0
M  V30 246 H 20.6933 -1.92587 -2.29892 0
M  V30 247 H 18.2463 -1.03217 -1.17371 0
M  V30 248 H 18.9813 0.480379 -3.20722 0
M  V30 249 H 18.7663 -1.216 -3.72768 0
M  V30 250 H 20.2563 -0.32675 -4.1632 0
M  V30 251 N 20.6934 1.19889 -1.02296 0
M  V30 252 C 21.9424 1.88743 -0.711257 0
M  V30 253 C 22.2554 1.80112 0.762817 0
M  V30 254 O 23.4614 2.44161 1.18733 0
M  V30 255 C 21.9174 3.38525 -1.22185 0
M  V30 256 C 21.5254 3.55727 -2.72328 0
M  V30 257 C 23.2694 4.12893 -0.985864 0
M  V30 258 C 21.1764 4.99369 -3.16835 0
M  V30 259 H 20.1064 0.706885 -0.262353 0
M  V30 260 H 22.7574 1.35586 -1.23648 0
M  V30 261 H 21.1394 3.91044 -0.624571 0
M  V30 262 H 22.3134 3.13564 -3.3766 0
M  V30 263 H 20.6284 2.94739 -2.9414 0
M  V30 264 H 23.2254 5.18813 -1.29374 0
M  V30 265 H 23.5684 4.16228 0.0775055 0
M  V30 266 H 24.1014 3.66494 -1.54684 0
M  V30 267 H 20.8404 5.01193 -4.22476 0
M  V30 268 H 20.3604 5.42317 -2.56228 0
M  V30 269 H 22.0394 5.67988 -3.09837 0
M  V30 270 N 22.1715 0.800033 1.35784 0
M  V30 271 C 23.4115 0.382891 2.00782 0
M  V30 272 C 23.7755 -1.02891 1.62103 0
M  V30 273 O 24.9765 -1.54771 2.19771 0
M  V30 274 C 23.2475 0.553299 3.53091 0
M  V30 275 S 24.8065 0.225608 4.3822 0
M  V30 276 H 21.6245 0.145737 0.695904 0
M  V30 277 H 24.2265 1.04085 1.65489 0
M  V30 278 H 22.9305 1.58091 3.78729 0
M  V30 279 H 22.4615 -0.120214 3.93216 0
M  V30 280 H 24.4765 -0.969074 4.86645 0
M  V30 281 N 23.6496 -1.47581 0.552962 0
M  V30 282 C 24.8956 -2.02782 0.0273648 0
M  V30 283 C 25.2286 -1.42687 -1.31734 0
M  V30 284 O 24.5036 -0.580897 -1.85623 0
M  V30 285 C 24.7866 -3.60031 -0.0702371 0
M  V30 286 C 24.6396 -4.30566 1.30126 0
M  V30 287 C 25.9586 -4.33028 -0.785771 0
M  V30 288 H 23.0776 -0.736912 0.0114185 0
M  V30 289 H 25.7196 -1.76056 0.714432 0
M  V30 290 H 23.8696 -3.82932 -0.655382 0
M  V30 291 H 25.5416 -4.19018 1.92929 0
M  V30 292 H 23.7846 -3.91086 1.87709 0
M  V30 293 H 24.4556 -5.39114 1.18573 0
M  V30 294 H 26.9316 -4.15095 -0.288982 0
M  V30 295 H 25.8076 -5.42695 -0.823013 0
M  V30 296 H 26.0686 -4.01945 -1.841 0
M  V30 297 N 25.1277 -0.289203 -1.54924 0
M  V30 298 C 26.0907 0.579144 -2.21762 0
M  V30 299 C 27.0907 1.07047 -1.1999 0
M  V30 300 O 28.2807 0.968384 -1.44803 0
M  V30 301 C 25.4127 1.80055 -2.8947 0
M  V30 302 H 26.6057 -0.00464908 -2.999 0
M  V30 303 H 24.1587 -0.0399306 -1.56249 0
M  V30 304 H 24.8937 2.42449 -2.15381 0
M  V30 305 H 24.6787 1.45602 -3.64064 0
M  V30 306 H 26.1687 2.41773 -3.40493 0
M  V30 307 N 26.6058 1.57591 -0.0167156 0
M  V30 308 C 27.5158 2.1291 0.98521 0
M  V30 309 C 28.5318 1.07834 1.36557 0
M  V30 310 O 29.7078 1.39826 1.44951 0
M  V30 311 C 26.7728 2.63512 2.25305 0
M  V30 312 C 25.8338 3.83256 1.93426 0
M  V30 313 C 25.0668 4.31435 3.14165 0
M  V30 314 O 25.2898 3.78851 4.26413 0
M  V30 315 O 24.2238 5.23416 2.97186 0
M  V30 316 H 28.0498 2.98772 0.544888 0
M  V30 317 H 25.6348 1.48012 0.203141 0
M  V30 318 H 27.5168 2.96183 2.99756 0
M  V30 319 H 26.1918 1.8074 2.68542 0
M  V30 320 H 25.0988 3.55531 1.16398 0
M  V30 321 H 26.4318 4.67153 1.55013 0
M  V30 322 N 28.0839 -0.256276 1.55502 0
M  V30 323 C 29.3609 -1.00789 1.67633 0
M  V30 324 C 29.7409 -2.03706 0.553826 0
M  V30 325 O 29.0889 -2.24145 -0.443969 0
M  V30 326 C 29.2989 -1.64968 3.07549 0
M  V30 327 C 30.6469 -2.15505 3.65845 0
M  V30 328 O 31.6709 -1.74925 3.1029 0
M  V30 329 O 30.5299 -2.89986 4.63217 0
M  V30 330 H 27.6239 -0.468553 0.681459 0
M  V30 331 H 30.1699 -0.250806 1.67836 0
M  V30 332 H 28.9419 -0.904785 3.80696 0
M  V30 333 H 28.5649 -2.47321 3.11317 0
M  V30 334 N 29.562 -1.4872 -0.521534 0
M  V30 335 C 30.802 -1.58771 -1.28729 0
M  V30 336 C 31.166 -0.259394 -1.9024 0
M  V30 337 O 32.367 -0.234942 -2.67771 0
M  V30 338 C 30.638 -2.70039 -2.34124 0
M  V30 339 S 32.197 -2.9991 -3.20312 0
M  V30 340 H 29.015 -0.560251 -0.437767 0
M  V30 341 H 31.617 -1.86283 -0.593188 0
M  V30 342 H 30.321 -3.65101 -1.87429 0
M  V30 343 H 29.852 -2.44455 -3.08229 0
M  V30 344 H 31.867 -2.39855 -4.34378 0
M  V30 345 N 31.0401 0.771051 -1.3745 0
M  V30 346 C 31.9881 1.90574 -1.33358 0
M  V30 347 C 32.9821 1.67936 -0.22224 0
M  V30 348 O 34.1881 1.75717 -0.390304 0
M  V30 349 H 30.5631 0.626714 -0.415612 0
M  V30 350 H 32.5341 1.91142 -2.29144 0
M  V30 351 C 31.2831 3.27845 -1.15813 0
M  V30 352 H 30.6061 3.45842 -2.00583 0
M  V30 353 H 32.0461 4.07538 -1.17 0
M  V30 354 C 30.5051 3.36625 0.136165 0
M  V30 355 O 31.0351 3.85785 1.11949 0
M  V30 356 N 29.2411 2.89997 0.187099 0
M  V30 357 H 28.7881 2.50182 -0.613753 0
M  V30 358 H 28.7461 2.96252 1.05272 0
M  V30 359 N 32.5182 1.22032 0.997298 0
M  V30 360 C 33.4282 1.00271 2.12092 0
M  V30 361 C 34.4442 -0.047621 1.73935 0
M  V30 362 O 35.6202 0.144136 2.00884 0
M  V30 363 C 32.6852 0.578449 3.4184 0
M  V30 364 C 31.7462 1.70189 3.94125 0
M  V30 365 C 30.9792 1.29778 5.17681 0
M  V30 366 O 31.2022 0.174676 5.70132 0
M  V30 367 O 30.1362 2.11261 5.63607 0
M  V30 368 H 33.9622 1.94398 2.3333 0
M  V30 369 H 31.5472 1.00587 1.10465 0
M  V30 370 H 33.4292 0.351998 4.19927 0
M  V30 371 H 32.1042 -0.334019 3.21972 0
M  V30 372 H 31.0112 1.98282 3.1723 0
M  V30 373 H 32.3442 2.59206 4.18417 0
M  V30 374 N 33.9963 -1.19345 1.0293 0
M  V30 375 C 34.9263 -2.2481 0.631105 0
M  V30 376 C 35.9073 -1.66245 -0.360104 0
M  V30 377 O 37.0923 -1.92677 -0.242726 0
M  V30 378 C 34.2223 -3.47295 -0.0184607 0
M  V30 379 C 33.1763 -4.18536 0.895073 0
M  V30 380 C 32.5023 -5.34586 0.110592 0
M  V30 381 C 33.8023 -4.73287 2.209 0
M  V30 382 H 35.4963 -2.58372 1.51275 0
M  V30 383 H 33.0423 -1.24194 0.728818 0
M  V30 384 H 34.9953 -4.20268 -0.308675 0
M  V30 385 H 33.7193 -3.12933 -0.934907 0
M  V30 386 H 32.3783 -3.47446 1.16949 0
M  V30 387 H 32.0263 -4.96469 -0.807902 0
M  V30 388 H 31.7263 -5.83183 0.719087 0
M  V30 389 H 33.2503 -6.10355 -0.172871 0
M  V30 390 H 34.6643 -5.38013 1.98028 0
M  V30 391 H 33.0613 -5.32373 2.76946 0
M  V30 392 H 34.1313 -3.91331 2.86336 0
M  V30 393 N 35.4744 -0.807222 -1.35358 0
M  V30 394 C 36.8854 -0.44876 -1.81226 0
M  V30 395 C 37.2364 1.02929 -1.67033 0
M  V30 396 O 36.3614 1.79991 -1.20133 0
M  V30 397 C 36.9564 -0.807774 -3.2903 0
M  V30 398 C 35.5154 -0.501901 -3.73039 0
M  V30 399 C 34.6624 -1.03304 -2.57339 0
M  V30 400 H 37.6134 -0.998808 -1.23327 0
M  V30 401 H 37.6344 -0.10554 -3.80354 0
M  V30 402 H 37.1464 -1.88357 -3.39328 0
M  V30 403 H 35.2474 0.565128 -3.68289 0
M  V30 404 H 35.3604 -1.03497 -4.67787 0
M  V30 405 H 33.7244 -0.455339 -2.50597 0
M  V30 406 H 34.5074 -2.11496 -2.70415 0
M  V30 407 N 36.9525 1.47285 -0.560781 0
M  V30 408 C 38.3635 1.86258 -0.128343 0
M  V30 409 C 38.7145 1.46699 1.30284 0
M  V30 410 O 37.8395 0.871698 1.98067 0
M  V30 411 C 38.4345 3.38044 -0.22614 0
M  V30 412 C 36.9935 3.76096 0.151283 0
M  V30 413 C 36.1405 2.71335 -0.572084 0
M  V30 414 H 39.0915 1.38752 -0.770297 0
M  V30 415 H 39.1125 3.76441 0.554322 0
M  V30 416 H 38.6245 3.66806 -1.26788 0
M  V30 417 H 36.7255 3.52951 1.19399 0
M  V30 418 H 36.8385 4.78641 -0.209765 0
M  V30 419 H 35.2025 2.54696 -0.0147653 0
M  V30 420 H 35.9855 3.02938 -1.61504 0
M  V30 421 N 38.4306 0.297415 1.54768 0
M  V30 422 C 39.8466 -0.0560823 1.59501 0
M  V30 423 C 40.0466 -1.52725 1.31444 0
M  V30 424 O 39.1026 -2.27947 1.08611 0
M  V30 425 C 40.4156 0.338631 2.98787 0
M  V30 426 C 41.9636 0.287097 3.11681 0
M  V30 427 C 42.4386 0.656579 4.53269 0
M  V30 428 N 43.9296 0.608977 4.59179 0
M  V30 429 C 44.6646 0.867385 5.66802 0
M  V30 430 N 44.1606 1.19157 6.82476 0
M  V30 431 N 45.9536 0.794687 5.56454 0
M  V30 432 H 38.1046 1.25624 1.71267 0
M  V30 433 H 40.3676 0.509057 0.799728 0
M  V30 434 H 40.0736 1.36263 3.2423 0
M  V30 435 H 39.9476 -0.309508 3.75928 0
M  V30 436 H 42.3346 -0.727649 2.85988 0
M  V30 437 H 42.4156 0.969809 2.36703 0
M  V30 438 H 42.0596 1.66912 4.7969 0
M  V30 439 H 41.9896 -0.0481649 5.26578 0
M  V30 440 H 44.4806 0.369198 3.76092 0
M  V30 441 H 44.7936 1.37482 7.60473 0
M  V30 442 H 43.1386 1.22958 6.84037 0
M  V30 443 H 46.3296 0.541098 4.64962 0
M  V30 444 H 46.5026 0.999445 6.40246 0
M  V30 445 N 39.9087 -1.5758 0.0250728 0
M  V30 446 C 41.3247 -1.56124 -0.331282 0
M  V30 447 C 41.5247 -1.03029 -1.73169 0
M  V30 448 O 40.5807 -0.675215 -2.43305 0
M  V30 449 C 41.8937 -3.00139 -0.183584 0
M  V30 450 C 43.4417 -3.11946 -0.256654 0
M  V30 451 C 43.9167 -4.57793 -0.137792 0
M  V30 452 N 45.4077 -4.6279 -0.194904 0
M  V30 453 C 46.1427 -5.7326 -0.126655 0
M  V30 454 N 45.6387 -6.928 -0.00755288 0
M  V30 455 N 47.4317 -5.61811 -0.180348 0
M  V30 456 H 39.5827 -1.90424 0.94087 0
M  V30 457 H 41.8457 -0.875761 0.362968 0
M  V30 458 H 41.5517 -3.4292 0.780927 0
M  V30 459 H 41.4257 -3.64899 -0.955448 0
M  V30 460 H 43.8127 -2.69079 -1.21162 0
M  V30 461 H 43.8937 -2.49915 0.545517 0
M  V30 462 H 43.5377 -5.01339 0.813739 0
M  V30 463 H 43.4677 -5.17798 -0.958775 0
M  V30 464 H 45.9587 -3.76807 -0.287267 0
M  V30 465 H 46.2717 -7.72791 0.0379428 0
M  V30 466 H 44.6167 -6.94995 0.0271731 0
M  V30 467 H 47.8077 -4.6731 -0.271767 0
M  V30 468 H 47.9807 -6.47882 -0.123697 0
M  V30 469 N 41.3868 0.248026 -1.55636 0
M  V30 470 C 42.3348 1.32683 -1.91045 0
M  V30 471 C 43.3288 1.49883 -0.789401 0
M  V30 472 O 44.5348 1.51371 -0.974007 0
M  V30 473 H 40.9098 0.444272 -0.606734 0
M  V30 474 H 42.8808 1.00085 -2.81115 0
M  V30 475 C 41.6298 2.6755 -2.22064 0
M  V30 476 H 40.9528 2.55114 -3.07826 0
M  V30 477 H 42.3928 3.41912 -2.50743 0
M  V30 478 C 40.8518 3.20556 -1.0366 0
M  V30 479 O 41.3818 4.00695 -0.284016 0
M  V30 480 N 39.5878 2.78568 -0.82753 0
M  V30 481 H 39.1348 2.1351 -1.44123 0
M  V30 482 H 39.0928 3.14378 -0.0369803 0
M  V30 483 N 42.8649 1.48995 0.513639 0
M  V30 484 C 44.0929 1.61531 1.29288 0
M  V30 485 C 44.5079 0.281801 1.86685 0
M  V30 486 O 43.8649 -0.731111 1.67215 0
M  V30 487 C 43.9159 2.67449 2.43215 0
M  V30 488 O 43.6369 3.95626 1.88179 0
M  V30 489 C 45.1379 2.90575 3.34785 0
M  V30 490 H 42.3579 0.544165 0.392588 0
M  V30 491 H 44.9019 1.9494 0.617956 0
M  V30 492 H 43.0569 2.36853 3.0656 0
M  V30 493 H 43.4709 4.53868 2.62876 0
M  V30 494 H 44.9449 3.68449 4.11035 0
M  V30 495 H 45.4219 2.00011 3.91015 0
M  V30 496 H 46.0279 3.22538 2.77218 0
M  V30 497 N 44.343 -0.763751 1.37857 0
M  V30 498 C 45.253 -1.90817 1.36478 0
M  V30 499 C 46.269 -1.71997 0.263248 0
M  V30 500 O 47.445 -1.95095 0.499979 0
M  V30 501 C 44.51 -3.2605 1.17864 0
M  V30 502 C 43.571 -3.57467 2.3773 0
M  V30 503 C 42.804 -4.86249 2.19995 0
M  V30 504 O 43.027 -5.57884 1.18836 0
M  V30 505 O 41.961 -5.16911 3.08361 0
M  V30 506 H 45.787 -1.94933 2.32884 0
M  V30 507 H 43.372 -0.907619 1.1867 0
M  V30 508 H 45.254 -4.06924 1.09504 0
M  V30 509 H 43.929 -3.22769 0.245372 0
M  V30 510 H 42.836 -2.76796 2.51664 0
M  V30 511 H 44.169 -3.655 3.29652 0
M  V30 512 N 45.8211 -1.22559 -0.990812 0
M  V30 513 C 47.0701 -1.04553 -1.72486 0
M  V30 514 C 47.3831 0.419349 -1.91052 0
M  V30 515 O 48.5891 0.719121 -2.61803 0
M  V30 516 C 47.0451 -1.82231 -3.10355 0
M  V30 517 C 46.6531 -3.32981 -2.99713 0
M  V30 518 C 48.3971 -1.7268 -3.87791 0
M  V30 519 C 46.3041 -4.03091 -4.32748 0
M  V30 520 H 45.2341 -0.387614 -0.646739 0
M  V30 521 H 47.8851 -1.46429 -1.10593 0
M  V30 522 H 46.2671 -1.33155 -3.72942 0
M  V30 523 H 47.4411 -3.89466 -2.46278 0
M  V30 524 H 45.7561 -3.43231 -2.35758 0
M  V30 525 H 48.3531 -2.22381 -4.86262 0
M  V30 526 H 48.6961 -0.687607 -4.10582 0
M  V30 527 H 49.2291 -2.1931 -3.31885 0
M  V30 528 H 45.9681 -5.07273 -4.15156 0
M  V30 529 H 45.4881 -3.51394 -4.86089 0
M  V30 530 H 47.1671 -4.08804 -5.01486 0
M  V30 531 N 47.2992 1.18797 -1.03562 0
M  V30 532 C 48.2292 2.24472 -0.643019 0
M  V30 533 C 49.2102 1.66433 0.351283 0
M  V30 534 O 50.3952 1.92803 0.232505 0
M  V30 535 C 47.5252 3.473 4.24935e-05 0
M  V30 536 C 46.4792 4.18055 -0.917257 0
M  V30 537 C 45.8052 5.34519 -0.138941 0
M  V30 538 C 47.1052 4.72109 -2.23407 0
M  V30 539 H 48.7992 2.57566 -1.52643 0
M  V30 540 H 46.3452 1.23806 -0.735394 0
M  V30 541 H 48.2982 4.20426 0.286383 0
M  V30 542 H 47.0222 3.13424 0.918299 0
M  V30 543 H 45.6812 3.46821 -1.1879 0
M  V30 544 H 45.3292 4.96891 0.781562 0
M  V30 545 H 45.0292 5.82794 -0.750005 0
M  V30 546 H 46.5532 6.10438 0.1405 0
M  V30 547 H 47.9672 5.36955 -2.00879 0
M  V30 548 H 46.3642 5.30897 -2.79765 0
M  V30 549 H 47.4342 3.89807 -2.88407 0
M  V30 550 N 48.7773 0.814389 1.34928 0
M  V30 551 C 50.0053 0.411136 2.02774 0
M  V30 552 C 50.4203 -0.980316 1.61354 0
M  V30 553 O 49.7773 -1.63299 0.814847 0
M  V30 554 C 49.8283 0.493865 3.58111 0
M  V30 555 O 49.5493 1.83047 3.98027 0
M  V30 556 C 51.0503 0.0844174 4.4322 0
M  V30 557 H 48.2703 0.166037 0.650133 0
M  V30 558 H 50.8143 1.10018 1.72384 0
M  V30 559 H 48.9693 -0.147006 3.87121 0
M  V30 560 H 49.3833 1.79872 4.92693 0
M  V30 561 H 50.8573 0.193404 5.51661 0
M  V30 562 H 51.3343 -0.97113 4.28329 0
M  V30 563 H 51.9403 0.69875 4.19521 0
M  V30 564 N 50.2554 -1.46986 0.568584 0
M  V30 565 C 51.5034 -2.02041 0.0487022 0
M  V30 566 C 51.8244 -1.44408 -1.31039 0
M  V30 567 O 51.0944 -0.623477 -1.85714 0
M  V30 568 H 49.6744 -0.746849 0.015014 0
M  V30 569 H 52.3364 -1.80257 0.741168 0
M  V30 570 H 51.4324 -3.12085 -0.0308961 0
M  V30 571 N 51.7335 -0.305618 -1.54608 0
M  V30 572 C 52.9585 0.307562 -2.05107 0
M  V30 573 C 53.3835 1.46385 -1.18123 0
M  V30 574 O 52.7415 1.8034 -0.186324 0
M  V30 575 C 52.7895 0.73704 -3.52987 0
M  V30 576 O 51.8935 1.84134 -3.6901 0
M  V30 577 H 51.2345 0.0589143 -0.661381 0
M  V30 578 H 53.7645 -0.448807 -1.99617 0
M  V30 579 H 53.7745 1.02459 -3.94925 0
M  V30 580 H 52.4495 -0.108773 -4.15758 0
M  V30 581 H 51.0265 1.55398 -3.38978 0
M  V30 582 N 53.2116 1.57565 -0.0334293 0
M  V30 583 C 54.4576 1.93088 0.639417 0
M  V30 584 C 54.8126 0.910589 1.69488 0
M  V30 585 O 54.1056 -0.0727725 1.91462 0
M  V30 586 C 54.2996 3.33112 1.29504 0
M  V30 587 C 54.1286 4.48667 0.304604 0
M  V30 588 C 52.8986 5.05207 -0.0970777 0
M  V30 589 C 55.0966 5.1239 -0.442845 0
M  V30 590 N 53.0786 6.04286 -1.08223 0
M  V30 591 C 54.4496 6.06609 -1.28161 0
M  V30 592 C 56.5046 4.95352 -0.50308 0
M  V30 593 C 55.2076 6.85622 -2.17519 0
M  V30 594 C 57.2336 5.74978 -1.38401 0
M  V30 595 C 56.5956 6.68816 -2.21054 0
M  V30 596 H 52.6946 0.754335 0.206161 0
M  V30 597 H 55.2786 1.94435 -0.101613 0
M  V30 598 H 53.4496 3.32576 2.00618 0
M  V30 599 H 55.1816 3.55972 1.92525 0
M  V30 600 H 51.9366 4.72782 0.278255 0
M  V30 601 H 52.3606 6.58516 -1.57117 0
M  V30 602 H 57.0026 4.22625 0.121694 0
M  V30 603 H 54.7206 7.57652 -2.81049 0
M  V30 604 H 58.3066 5.63826 -1.43496 0
M  V30 605 H 57.1866 7.29355 -2.88116 0
M  V30 606 N 54.6897 -0.239769 1.55765 0
M  V30 607 C 55.9147 -0.988373 1.82335 0
M  V30 608 C 56.3397 -1.77886 0.611421 0
M  V30 609 O 55.6977 -1.75889 -0.439639 0
M  V30 610 C 55.7457 -1.89627 3.06715 0
M  V30 611 O 54.8497 -2.98904 2.84131 0
M  V30 612 H 54.1907 -0.280858 0.601677 0
M  V30 613 H 56.7207 -0.258597 2.02959 0
M  V30 614 H 56.7307 -2.30957 3.36338 0
M  V30 615 H 55.4057 -1.31511 3.9456 0
M  V30 616 H 53.9827 -2.61651 2.65694 0
M  V30 617 N 56.1678 -1.49265 -0.50573 0
M  V30 618 C 57.4448 -1.49012 -1.26707 0
M  V30 619 C 57.8248 -0.215205 -2.1 0
M  V30 620 O 57.1728 0.802547 -2.13943 0
M  V30 621 C 57.3828 -2.7663 -2.12783 0
M  V30 622 C 58.7308 -3.25932 -2.72127 0
M  V30 623 O 59.7548 -2.77715 -2.23054 0
M  V30 624 O 58.6138 -4.09897 -3.61451 0
M  V30 625 H 55.7078 -0.596197 -0.57313 0
M  V30 626 H 58.2538 -1.61524 -0.52039 0
M  V30 627 H 57.0258 -3.60916 -1.5118 0
M  V30 628 H 56.6488 -2.66956 -2.94653 0
M  V30 629 N 57.6459 0.756429 -1.3826 0
M  V30 630 C 58.5779 1.87971 -1.31147 0
M  V30 631 C 59.5909 1.61248 -0.224239 0
M  V30 632 O 60.7799 1.71881 -0.481581 0
M  V30 633 C 57.8799 3.23545 -1.00857 0
M  V30 634 C 57.0529 3.77794 -2.20432 0
M  V30 635 C 56.1119 4.91877 -1.86931 0
M  V30 636 O 55.1379 5.06659 -2.59395 0
M  V30 637 N 56.3399 5.74643 -0.822568 0
M  V30 638 H 59.1049 1.94585 -2.2794 0
M  V30 639 H 56.6659 0.936234 -1.32084 0
M  V30 640 H 58.6579 3.97403 -0.765021 0
M  V30 641 H 57.2279 3.12335 -0.128687 0
M  V30 642 H 56.4479 2.95534 -2.6087 0
M  V30 643 H 57.7359 4.10771 -3.00241 0
M  V30 644 H 57.1339 5.65266 -0.221575 0
M  V30 645 H 55.6909 6.48661 -0.638899 0
M  V30 646 N 59.124 1.23083 0.984299 0
M  V30 647 C 60.352 1.08714 1.76037 0
M  V30 648 C 60.767 -0.361691 1.85303 0
M  V30 649 O 60.124 -1.25034 1.32939 0
M  V30 650 C 60.175 1.70206 3.18923 0
M  V30 651 O 59.896 3.09423 3.10144 0
M  V30 652 C 61.397 1.61227 4.12941 0
M  V30 653 H 58.617 0.380664 0.552572 0
M  V30 654 H 61.161 1.62853 1.23689 0
M  V30 655 H 59.316 1.20109 3.6831 0
M  V30 656 H 59.73 3.39188 4.00065 0
M  V30 657 H 61.204 2.08962 5.10919 0
M  V30 658 H 61.681 0.570375 4.35481 0
M  V30 659 H 62.287 2.10671 3.69456 0
M  V30 660 N 60.6021 -1.18246 1.0419 0
M  V30 661 C 61.8321 -1.91916 0.764961 0
M  V30 662 C 62.2401 -1.76485 -0.681898 0
M  V30 663 O 61.5831 -1.09275 -1.47664 0
M  V30 664 C 61.6451 -3.4373 1.05309 0
M  V30 665 C 61.3091 -3.8294 2.4941 0
M  V30 666 C 62.3061 -3.86621 3.47592 0
M  V30 667 C 59.9911 -4.142 2.84155 0
M  V30 668 C 61.9851 -4.21013 4.78568 0
M  V30 669 C 59.6721 -4.48262 4.15337 0
M  V30 670 C 60.6701 -4.51645 5.12353 0
M  V30 671 O 60.3581 -4.84911 6.41183 0
M  V30 672 H 60.0901 -0.61606 0.278292 0
M  V30 673 H 62.6441 -1.50947 1.39299 0
M  V30 674 H 60.8741 -3.84946 0.367933 0
M  V30 675 H 62.5631 -3.9865 0.763752 0
M  V30 676 H 63.3291 -3.62607 3.22089 0
M  V30 677 H 59.2081 -4.10743 2.09311 0
M  V30 678 H 62.7521 -4.23568 5.54289 0
M  V30 679 H 58.6491 -4.71737 4.40607 0
M  V30 680 H 59.4171 -5.02809 6.45852 0
M  V30 681 N 62.0802 -0.821533 -1.34494 0
M  V30 682 C 63.4912 -0.467956 -1.8074 0
M  V30 683 C 63.8422 1.01151 -1.68116 0
M  V30 684 O 62.9672 1.78707 -1.22036 0
M  V30 685 C 63.5622 -0.842627 -3.28154 0
M  V30 686 C 62.1212 -0.541439 -3.72485 0
M  V30 687 C 61.2682 -1.06028 -2.56229 0
M  V30 688 H 64.2192 -1.01183 -1.22261 0
M  V30 689 H 64.2402 -0.145876 -3.8022 0
M  V30 690 H 63.7522 -1.91945 -3.37311 0
M  V30 691 H 61.8532 0.526034 -3.68868 0
M  V30 692 H 61.9662 -1.08453 -4.66663 0
M  V30 693 H 60.3302 -0.481892 -2.501 0
M  V30 694 H 61.1132 -2.14352 -2.68157 0
M  V30 695 N 63.5583 1.46682 -0.576371 0
M  V30 696 C 64.4683 2.34032 0.163141 0
M  V30 697 C 65.4843 1.49367 0.892501 0
M  V30 698 O 66.6603 1.82252 0.857106 0
M  V30 699 C 63.7253 3.26435 1.16795 0
M  V30 700 C 62.7863 4.26998 0.443944 0
M  V30 701 C 62.0193 5.14986 1.40088 0
M  V30 702 O 62.2423 5.05785 2.637 0
M  V30 703 O 61.1763 5.94906 0.914917 0
M  V30 704 H 65.0023 2.98607 -0.55388 0
M  V30 705 H 62.5873 1.45554 -0.336821 0
M  V30 706 H 64.4693 3.83459 1.74748 0
M  V30 707 H 63.1443 2.64465 1.86655 0
M  V30 708 H 62.0513 3.7368 -0.177271 0
M  V30 709 H 63.3843 4.91736 -0.213566 0
M  V30 710 N 65.0364 0.313813 1.54444 0
M  V30 711 C 66.2844 -0.291099 1.99993 0
M  V30 712 C 66.6054 -1.53418 1.20366 0
M  V30 713 O 65.8754 -1.93544 0.302927 0
M  V30 714 H 64.4554 -0.110552 0.738774 0
M  V30 715 H 67.1174 0.428106 1.9014 0
M  V30 716 H 66.2134 -0.554268 3.07139 0
M  V30 717 N 66.5145 -1.57545 0.0417849 0
M  V30 718 C 67.7425 -1.96624 -0.643928 0
M  V30 719 C 68.1575 -0.918897 -1.64929 0
M  V30 720 O 67.5145 0.0979323 -1.82237 0
M  V30 721 C 67.5655 -3.35781 -1.33914 0
M  V30 722 O 67.2865 -4.365 -0.374048 0
M  V30 723 C 68.7875 -3.89566 -2.1155 0
M  V30 724 H 66.0075 -0.647316 -0.176702 0
M  V30 725 H 68.5515 -2.04229 0.105304 0
M  V30 726 H 66.7065 -3.29357 -2.03968 0
M  V30 727 H 67.1205 -5.17248 -0.869179 0
M  V30 728 H 68.5945 -4.89242 -2.55628 0
M  V30 729 H 69.0715 -3.24488 -2.9598 0
M  V30 730 H 69.6775 -3.99298 -1.46427 0
M  V30 731 N 67.9926 0.231505 -1.5589 0
M  V30 732 C 68.9246 1.31006 -1.8807 0
M  V30 733 C 69.9376 1.43539 -0.768145 0
M  V30 734 O 71.1266 1.44614 -1.04638 0
M  V30 735 C 68.2266 2.68688 -2.06543 0
M  V30 736 C 67.3996 2.78228 -3.37502 0
M  V30 737 C 66.4586 3.96857 -3.4553 0
M  V30 738 O 65.4846 3.85662 -4.18633 0
M  V30 739 N 66.6866 5.1072 -2.75944 0
M  V30 740 H 69.4516 1.03731 -2.81176 0
M  V30 741 H 67.0126 0.421573 -1.56315 0
M  V30 742 H 69.0046 3.46412 -2.09239 0
M  V30 743 H 67.5746 2.88605 -1.20109 0
M  V30 744 H 66.7946 1.87059 -3.46991 0
M  V30 745 H 68.0826 2.81564 -4.23791 0
M  V30 746 H 67.4806 5.2271 -2.16311 0
M  V30 747 H 66.0376 5.86523 -2.84314 0
M  V30 748 N 69.4707 1.49531 0.497807 0
M  V30 749 C 70.4337 1.65916 1.58128 0
M  V30 750 C 71.4337 0.530825 1.51786 0
M  V30 751 O 72.6237 0.797342 1.54881 0
M  V30 752 C 69.7557 1.65951 2.9778 0
M  V30 753 H 70.9487 2.62556 1.44929 0
M  V30 754 H 68.5017 1.38611 0.722275 0
M  V30 755 H 69.2367 0.709065 3.16453 0
M  V30 756 H 69.0217 2.47897 3.03792 0
M  V30 757 H 70.5117 1.80673 3.76493 0
M  V30 758 N 70.9488 -0.749086 1.3866 0
M  V30 759 C 72.1978 -1.50371 1.3443 0
M  V30 760 C 72.5108 -1.95503 -0.0616397 0
M  V30 761 O 73.7168 -2.70554 -0.226489 0
M  V30 762 C 72.1728 -2.71644 2.36088 0
M  V30 763 C 71.7808 -2.3352 3.82325 0
M  V30 764 C 73.5248 -3.49518 2.40909 0
M  V30 765 C 71.4318 -3.51431 4.75658 0
M  V30 766 H 70.3618 -0.564628 0.499712 0
M  V30 767 H 73.0128 -0.818449 1.64237 0
M  V30 768 H 71.3948 -3.42175 1.9933 0
M  V30 769 H 72.5688 -1.70627 4.28046 0
M  V30 770 H 70.8838 -1.6877 3.80665 0
M  V30 771 H 73.4808 -4.37197 3.07836 0
M  V30 772 H 73.8238 -3.90992 1.42937 0
M  V30 773 H 74.3568 -2.86005 2.76489 0
M  V30 774 H 71.0958 -3.15019 5.74842 0
M  V30 775 H 70.6158 -4.13352 4.34627 0
M  V30 776 H 72.2948 -4.17953 4.93887 0
M  V30 777 N 72.4269 -1.23603 -0.977757 0
M  V30 778 C 73.6569 -1.09487 -1.75203 0
M  V30 779 C 74.0649 0.356321 -1.85814 0
M  V30 780 O 73.4079 1.25816 -1.33851 0
M  V30 781 C 73.4699 -1.64905 -3.19447 0
M  V30 782 C 73.1339 -3.13688 -3.32338 0
M  V30 783 C 74.1309 -4.10953 -3.18455 0
M  V30 784 C 71.8159 -3.53449 -3.56902 0
M  V30 785 C 73.8099 -5.45962 -3.28944 0
M  V30 786 C 71.4969 -4.88602 -3.6703 0
M  V30 787 C 72.4949 -5.84668 -3.53062 0
M  V30 788 O 72.1829 -7.17365 -3.62826 0
M  V30 789 H 71.9149 -0.38367 -0.556573 0
M  V30 790 H 74.4689 -1.6398 -1.23693 0
M  V30 791 H 72.6989 -1.04835 -3.72218 0
M  V30 792 H 74.3879 -1.46226 -3.78646 0
M  V30 793 H 75.1539 -3.81577 -2.99372 0
M  V30 794 H 71.0329 -2.79188 -3.66844 0
M  V30 795 H 74.5769 -6.20925 -3.17958 0
M  V30 796 H 70.4739 -5.17653 -3.85623 0
M  V30 797 H 71.2419 -7.2515 -3.79605 0
M  V30 798 N 73.905 1.17692 -1.04816 0
M  V30 799 C 74.852 2.21581 -0.645797 0
M  V30 800 C 75.822 1.62367 0.350159 0
M  V30 801 O 77.007 1.89254 0.242433 0
M  V30 802 C 74.147 3.45092 -0.0227568 0
M  V30 803 C 73.26 4.18613 -1.06709 0
M  V30 804 C 72.395 5.29602 -0.411767 0
M  V30 805 C 71.434 5.94904 -1.44067 0
M  V30 806 N 70.571 6.97414 -0.809781 0
M  V30 807 H 75.411 2.55353 -1.5362 0
M  V30 808 H 72.948 1.25438 -0.768364 0
M  V30 809 H 74.906 4.15679 0.35588 0
M  V30 810 H 73.536 3.11917 0.831122 0
M  V30 811 H 72.588 3.46779 -1.5636 0
M  V30 812 H 73.9 4.63293 -1.84827 0
M  V30 813 H 73.054 6.06696 0.0206623 0
M  V30 814 H 71.793 4.86045 0.401438 0
M  V30 815 H 70.798 5.16544 -1.88316 0
M  V30 816 H 72.023 6.40542 -2.25571 0
M  V30 817 H 69.969 6.55998 -0.0170186 0
M  V30 818 H 69.886 7.40386 -1.52856 0
M  V30 819 H 71.154 7.78463 -0.401999 0
M  V30 820 N 75.3831 0.828654 1.34056 0
M  V30 821 C 76.6231 0.425394 1.99924 0
M  V30 822 C 76.9871 -0.994294 1.64249 0
M  V30 823 O 78.1881 -1.50074 2.23005 0
M  V30 824 C 76.4591 0.628071 3.51838 0
M  V30 825 S 78.0181 0.318511 4.37642 0
M  V30 826 H 74.8361 0.160465 0.692656 0
M  V30 827 H 77.4381 1.07572 1.63244 0
M  V30 828 H 76.1421 1.66089 3.7529 0
M  V30 829 H 75.6731 -0.0367799 3.93383 0
M  V30 830 H 77.6881 -0.865632 4.88591 0
M  V30 831 N 76.8612 -1.46375 0.584142 0
M  V30 832 C 78.2772 -1.57694 0.245929 0
M  V30 833 C 78.4772 -1.57903 -1.25175 0
M  V30 834 O 77.5332 -1.49676 -2.03355 0
M  V30 835 C 78.8462 -2.87028 0.896402 0
M  V30 836 C 80.3942 -3.00662 0.870127 0
M  V30 837 C 80.8692 -4.32734 1.50017 0
M  V30 838 N 82.3602 -4.39436 1.46458 0
M  V30 839 C 83.0952 -5.40248 1.92144 0
M  V30 840 N 82.5912 -6.47726 2.4581 0
M  V30 841 N 84.3842 -5.31459 1.83052 0
M  V30 842 H 76.5352 -1.44483 1.55687 0
M  V30 843 H 78.7982 -0.689291 0.650831 0
M  V30 844 H 78.5042 -2.9269 1.95002 0
M  V30 845 H 78.3782 -3.75014 0.405486 0
M  V30 846 H 80.7652 -2.94581 -0.174871 0
M  V30 847 H 80.8462 -2.14148 1.39908 0
M  V30 848 H 80.4902 -4.39573 2.54437 0
M  V30 849 H 80.4202 -5.18025 0.946432 0
M  V30 850 H 82.9112 -3.62367 1.07231 0
M  V30 851 H 83.2242 -7.20863 2.78525 0
M  V30 852 H 81.5692 -6.48542 2.49836 0
M  V30 853 H 84.7602 -4.46396 1.40883 0
M  V30 854 H 84.9332 -6.09881 2.18973 0
M  V30 855 N 78.3393 -0.321999 -1.54275 0
M  V30 856 C 79.7503 0.166384 -1.85957 0
M  V30 857 C 80.1013 1.51747 -1.24367 0
M  V30 858 O 79.2263 2.09317 -0.549124 0
M  V30 859 C 79.8213 0.308681 -3.37391 0
M  V30 860 C 78.3803 0.741286 -3.69028 0
M  V30 861 C 77.5273 -0.137937 -2.76957 0
M  V30 862 H 80.4783 -0.542335 -1.49146 0
M  V30 863 H 80.4993 1.13984 -3.63026 0
M  V30 864 H 80.0113 -0.674809 -3.82188 0
M  V30 865 H 78.1123 1.73458 -3.29762 0
M  V30 866 H 78.2253 0.546118 -4.75977 0
M  V30 867 H 76.5893 0.386251 -2.51754 0
M  V30 868 H 77.3723 -1.11816 -3.2458 0
M  V30 869 N 79.8174 1.5752 -0.0501392 0
M  V30 870 C 81.0654 1.9227 0.622642 0
M  V30 871 C 81.3864 0.929083 1.71444 0
M  V30 872 O 80.6564 -0.0262186 1.95882 0
M  V30 873 H 79.2364 0.709739 0.232981 0
M  V30 874 H 81.8984 1.94628 -0.102898 0
M  V30 875 H 80.9944 2.93479 1.06191 0
M  V30 876 N 81.2955 -0.223234 1.56011 0
M  V30 877 C 82.5255 -0.963413 1.82762 0
M  V30 878 C 82.9335 -1.78516 0.626804 0
M  V30 879 O 82.2765 -1.78974 -0.414014 0
M  V30 880 C 82.3385 -1.93126 3.0322 0
M  V30 881 C 82.0025 -1.2942 4.38291 0
M  V30 882 C 82.9995 -0.684916 5.15369 0
M  V30 883 C 80.6845 -1.30647 4.85012 0
M  V30 884 C 82.6785 -0.0963971 6.37327 0
M  V30 885 C 80.3655 -0.71411 6.06913 0
M  V30 886 C 81.3635 -0.110123 6.82911 0
M  V30 887 O 81.0515 0.47303 8.02507 0
M  V30 888 H 80.7835 -0.288011 0.611576 0
M  V30 889 H 83.3375 -0.244103 2.03944 0
M  V30 890 H 81.5675 -2.68952 2.77852 0
M  V30 891 H 83.2565 -2.53685 3.16857 0
M  V30 892 H 84.0225 -0.667774 4.80381 0
M  V30 893 H 79.9015 -1.76598 4.25833 0
M  V30 894 H 83.4455 0.375657 6.96588 0
M  V30 895 H 79.3425 -0.728659 6.41374 0
M  V30 896 H 80.1105 0.367186 8.17676 0
M  V30 897 N 82.7736 -1.49793 -0.48987 0
M  V30 898 C 84.1896 -1.36803 -0.822022 0
M  V30 899 C 84.3896 -0.409652 -1.97292 0
M  V30 900 O 83.4456 0.154614 -2.52026 0
M  V30 901 C 84.7586 -2.77768 -1.15175 0
M  V30 902 C 86.3066 -2.86549 -1.25931 0
M  V30 903 C 86.7816 -4.28306 -1.62228 0
M  V30 904 N 88.2726 -4.31169 -1.69256 0
M  V30 905 C 89.0076 -5.37832 -1.98807 0
M  V30 906 N 88.5036 -6.54726 -2.26507 0
M  V30 907 N 90.2966 -5.25258 -2.00152 0
M  V30 908 H 82.4476 -2.10691 0.268881 0
M  V30 909 H 84.7106 -0.946241 0.057728 0
M  V30 910 H 84.4166 -3.49648 -0.379335 0
M  V30 911 H 84.2906 -3.13836 -2.09253 0
M  V30 912 H 86.6776 -2.14899 -2.02243 0
M  V30 913 H 86.7586 -2.54049 -0.298776 0
M  V30 914 H 86.4026 -5.00486 -0.864622 0
M  V30 915 H 86.3326 -4.58279 -2.594 0
M  V30 916 H 88.8236 -3.4687 -1.49965 0
M  V30 917 H 89.1366 -7.31833 -2.48276 0
M  V30 918 H 87.4816 -6.57933 -2.23939 0
M  V30 919 H 90.6726 -4.32938 -1.77996 0
M  V30 920 H 90.8456 -6.08476 -2.22848 0
M  V30 921 N 84.2517 0.741722 -1.39055 0
M  V30 922 C 85.4767 1.53607 -1.39354 0
M  V30 923 C 85.9017 1.88096 0.0116905 0
M  V30 924 O 85.2597 1.5143 0.996924 0
M  V30 925 C 85.3077 2.80441 -2.26682 0
M  V30 926 O 84.4117 3.76088 -1.69208 0
M  V30 927 H 83.7527 0.464142 -0.474835 0
M  V30 928 H 86.2827 0.915665 -1.82967 0
M  V30 929 H 86.2927 3.29246 -2.40959 0
M  V30 930 H 84.9677 2.5467 -3.2881 0
M  V30 931 H 83.5447 3.34833 -1.64138 0
M  V30 932 N 85.7298 1.2412 0.971189 0
M  V30 933 C 86.6598 1.05508 2.08304 0
M  V30 934 C 87.6408 -0.0308864 1.70072 0
M  V30 935 O 88.8258 0.135521 1.93727 0
M  V30 936 C 85.9558 0.655365 3.4106 0
M  V30 937 C 84.9098 1.68971 3.93234 0
M  V30 938 C 84.2358 1.14516 5.22293 0
M  V30 939 C 85.5358 3.08487 4.21465 0
M  V30 940 H 87.2298 1.98507 2.24132 0
M  V30 941 H 84.7758 0.955821 1.07704 0
M  V30 942 H 86.7288 0.51217 4.18276 0
M  V30 943 H 85.4528 -0.31032 3.25122 0
M  V30 944 H 84.1118 1.82106 3.18171 0
M  V30 945 H 83.7598 0.170189 5.02712 0
M  V30 946 H 83.4598 1.83635 5.58168 0
M  V30 947 H 84.9838 1.01401 6.02121 0
M  V30 948 H 86.3978 2.98601 4.89398 0
M  V30 949 H 84.7948 3.74926 4.68562 0
M  V30 950 H 85.8648 3.56787 3.28376 0
M  V30 951 N 87.2079 -1.17134 1.05439 0
M  V30 952 C 88.4559 -1.87085 0.764429 0
M  V30 953 C 88.7769 -1.81584 -0.710787 0
M  V30 954 O 88.0469 -1.24349 -1.51374 0
M  V30 955 H 86.6269 -0.692627 0.279779 0
M  V30 956 H 89.2889 -1.42087 1.33406 0
M  V30 957 H 88.3849 -2.92759 1.0816 0
M  V30 958 N 88.686 -0.835752 -1.33615 0
M  V30 959 C 89.634 -0.255238 -2.31195 0
M  V30 960 C 90.628 0.61107 -1.57995 0
M  V30 961 O 91.834 0.500979 -1.72888 0
M  V30 962 H 88.209 -0.0638085 -0.749288 0
M  V30 963 H 90.18 -1.09283 -2.77669 0
M  V30 964 C 88.929 0.55754 -3.43201 0
M  V30 965 H 88.252 -0.0997553 -3.99676 0
M  V30 966 H 89.692 0.929622 -4.13683 0
M  V30 967 C 88.151 1.73515 -2.88781 0
M  V30 968 O 88.681 2.83376 -2.84712 0
M  V30 969 N 86.887 1.55603 -2.4543 0
M  V30 970 H 86.434 0.662354 -2.48939 0
M  V30 971 H 86.392 2.34545 -2.09371 0
M  V30 972 N 90.1641 1.46063 -0.591896 0
M  V30 973 C 91.4101 2.02638 -0.0811191 0
M  V30 974 C 91.7431 1.4613 1.27905 0
M  V30 975 O 91.0181 0.629908 1.84017 0
M  V30 976 C 91.3011 3.60091 -0.0252436 0
M  V30 977 C 91.1541 4.26965 -1.41496 0
M  V30 978 C 92.4731 4.3496 0.670685 0
M  V30 979 H 89.5921 0.73635 -0.0309524 0
M  V30 980 H 92.2341 1.741 -0.760859 0
M  V30 981 H 90.3841 3.84535 0.553624 0
M  V30 982 H 92.0561 4.13756 -2.0397 0
M  V30 983 H 90.2991 3.85971 -1.98011 0
M  V30 984 H 90.9701 5.35781 -1.32825 0
M  V30 985 H 93.4461 4.15716 0.178825 0
M  V30 986 H 92.3221 5.44686 0.678837 0
M  V30 987 H 92.5831 4.06685 1.73379 0
M  V30 988 N 91.6422 0.330177 1.54103 0
M  V30 989 C 92.8912 -0.271336 1.99867 0
M  V30 990 C 93.2042 -1.52723 1.22209 0
M  V30 991 O 94.4102 -2.20515 1.58383 0
M  V30 992 C 92.8662 -0.534032 3.55916 0
M  V30 993 C 92.4742 0.705193 4.42415 0
M  V30 994 C 94.2182 -1.09514 4.1013 0
M  V30 995 C 92.1252 0.414035 5.89949 0
M  V30 996 H 91.0552 -0.105166 0.74663 0
M  V30 997 H 93.7062 0.443429 1.78062 0
M  V30 998 H 92.0882 -1.30915 3.73734 0
M  V30 999 H 93.2622 1.4804 4.36372 0
M  V30 1000 H 91.5772 1.18698 3.99124 0
M  V30 1001 H 94.1742 -1.3277 5.17954 0
M  V30 1002 H 94.5172 -2.04656 3.62521 0
M  V30 1003 H 95.0502 -0.381038 3.95971 0
M  V30 1004 H 91.7892 1.33481 6.41766 0
M  V30 1005 H 91.3092 -0.323336 5.98928 0
M  V30 1006 H 92.9882 0.0263105 6.46995 0
M  V30 1007 N 93.1203 -1.57491 0.0584922 0
M  V30 1008 C 94.0533 -2.07533 -0.948969 0
M  V30 1009 C 95.0313 -0.977444 -1.29942 0
M  V30 1010 O 96.2153 -1.2499 -1.41102 0
M  V30 1011 C 93.3423 -2.52192 -2.2609 0
M  V30 1012 C 92.3883 -3.73287 -2.06298 0
M  V30 1013 S 93.2213 -5.18603 -1.33459 0
M  V30 1014 C 94.3773 -5.66583 -2.65959 0
M  V30 1015 H 94.6103 -2.92662 -0.523118 0
M  V30 1016 H 92.1433 -1.53631 -0.153954 0
M  V30 1017 H 94.1013 -2.78585 -3.01498 0
M  V30 1018 H 92.7623 -1.67356 -2.65802 0
M  V30 1019 H 91.9553 -4.0248 -3.03357 0
M  V30 1020 H 91.5573 -3.47199 -1.39029 0
M  V30 1021 H 93.8493 -5.72616 -3.62101 0
M  V30 1022 H 94.7923 -6.65684 -2.41393 0
M  V30 1023 H 95.2003 -4.94342 -2.72554 0
M  V30 1024 N 94.5984 0.214957 -1.56127 0
M  V30 1025 C 95.8444 0.939762 -1.79712 0
M  V30 1026 C 96.1774 1.83723 -0.629247 0
M  V30 1027 O 95.4524 1.90925 0.371197 0
M  V30 1028 C 95.7354 1.77306 -3.13424 0
M  V30 1029 C 95.5884 0.90164 -4.40671 0
M  V30 1030 C 96.9074 2.74956 -3.43638 0
M  V30 1031 H 94.0264 0.340214 -0.653776 0
M  V30 1032 H 96.6684 0.20824 -1.88855 0
M  V30 1033 H 94.8184 2.39673 -3.0576 0
M  V30 1034 H 96.4904 0.294206 -4.60361 0
M  V30 1035 H 94.7334 0.207368 -4.33304 0
M  V30 1036 H 95.4044 1.51923 -5.30682 0
M  V30 1037 H 97.8804 2.22724 -3.51473 0
M  V30 1038 H 96.7564 3.30358 -4.38355 0
M  V30 1039 H 97.0174 3.53023 -2.66134 0
M  V30 1040 N 96.0765 1.50051 0.48192 0
M  V30 1041 C 97.3165 1.62128 1.24474 0
M  V30 1042 C 97.6805 0.309742 1.89485 0
M  V30 1043 O 98.8815 0.305854 2.67054 0
M  V30 1044 C 97.1525 2.76151 2.26882 0
M  V30 1045 S 98.7115 3.08297 3.12247 0
M  V30 1046 H 95.5295 0.571661 0.422759 0
M  V30 1047 H 98.1315 1.87791 0.54359 0
M  V30 1048 H 96.8355 3.69942 1.77683 0
M  V30 1049 H 96.3665 2.52541 3.0164 0
M  V30 1050 H 98.3815 2.51287 4.27866 0
M  V30 1051 N 97.5546 -0.734337 1.39446 0
M  V30 1052 C 98.9706 -1.03997 1.21065 0
M  V30 1053 C 99.1706 -2.01369 0.0727019 0
M  V30 1054 O 98.2266 -2.45856 -0.575426 0
M  V30 1055 C 99.5396 -1.60163 2.54496 0
M  V30 1056 C 101.088 -1.7224 2.61347 0
M  V30 1057 C 101.563 -2.31814 3.95002 0
M  V30 1058 N 103.054 -2.39223 3.96644 0
M  V30 1059 C 103.789 -2.86258 4.96834 0
M  V30 1060 N 103.285 -3.33184 6.07421 0
M  V30 1061 N 105.078 -2.85473 4.84213 0
M  V30 1062 H 97.2286 -0.0885624 2.12215 0
M  V30 1063 H 99.4916 -0.10191 0.942506 0
M  V30 1064 H 99.1976 -0.960811 3.38321 0
M  V30 1065 H 99.0716 -2.5896 2.74262 0
M  V30 1066 H 101.459 -2.35443 1.77906 0
M  V30 1067 H 101.54 -0.720939 2.4543 0
M  V30 1068 H 101.184 -1.69238 4.78875 0
M  V30 1069 H 101.114 -3.32638 4.08239 0
M  V30 1070 H 103.605 -2.06057 3.16779 0
M  V30 1071 H 103.918 -3.67586 6.7978 0
M  V30 1072 H 102.263 -3.31191 6.11013 0
M  V30 1073 H 105.454 -2.48136 3.96921 0
M  V30 1074 H 105.627 -3.21814 5.62441 0
M  V30 1075 N 99.0327 -1.24633 -0.964593 0
M  V30 1076 C 99.9797 -1.04144 -2.05968 0
M  V30 1077 C 100.95 0.046262 -1.66036 0
M  V30 1078 O 102.135 -0.108972 -1.90489 0
M  V30 1079 C 99.2747 -0.65563 -3.38815 0
M  V30 1080 C 98.3877 -1.81714 -3.91923 0
M  V30 1081 C 97.5227 -1.37662 -5.13052 0
M  V30 1082 C 96.5617 -2.50788 -5.58365 0
M  V30 1083 N 95.6987 -2.07582 -6.70712 0
M  V30 1084 H 100.539 -1.9787 -2.22827 0
M  V30 1085 H 98.0757 -0.9855 -1.09208 0
M  V30 1086 H 100.034 -0.412954 -4.15151 0
M  V30 1087 H 98.6637 0.244627 -3.21872 0
M  V30 1088 H 97.7157 -2.1734 -3.12198 0
M  V30 1089 H 99.0277 -2.66705 -4.21509 0
M  V30 1090 H 98.1817 -1.093 -5.96773 0
M  V30 1091 H 96.9207 -0.497293 -4.85158 0
M  V30 1092 H 95.9257 -2.79906 -4.73215 0
M  V30 1093 H 97.1507 -3.39283 -5.88272 0
M  V30 1094 H 95.0967 -1.22051 -6.44546 0
M  V30 1095 H 95.0137 -2.86125 -6.99763 0
M  V30 1096 H 96.2817 -1.82369 -7.57867 0
M  V30 1097 N 100.511 1.16574 -1.06058 0
M  V30 1098 C 101.759 1.86677 -0.77434 0
M  V30 1099 C 102.08 1.81959 0.701147 0
M  V30 1100 O 101.35 1.2515 1.50713 0
M  V30 1101 H 99.9298 0.691134 -0.283449 0
M  V30 1102 H 102.592 1.41378 -1.34158 0
M  V30 1103 H 101.688 2.92181 -1.09711 0
M  V30 1104 N 101.989 0.842826 1.3317 0
M  V30 1105 C 102.899 0.281444 2.32906 0
M  V30 1106 C 103.915 -0.594587 1.63526 0
M  V30 1107 O 105.091 -0.49777 1.95152 0
M  V30 1108 C 102.156 -0.530929 3.42611 0
M  V30 1109 C 101.217 0.369843 4.27704 0
M  V30 1110 C 100.45 -0.403853 5.3217 0
M  V30 1111 O 100.673 -1.63513 5.46461 0
M  V30 1112 O 99.6069 0.224199 6.01482 0
M  V30 1113 H 103.433 1.10744 2.82789 0
M  V30 1114 H 101.018 0.60545 1.36582 0
M  V30 1115 H 102.9 -0.992437 4.09547 0
M  V30 1116 H 101.575 -1.33392 2.94938 0
M  V30 1117 H 100.482 0.879275 3.6362 0
M  V30 1118 H 101.815 1.13771 4.78871 0
M  V30 1119 N 103.467 -1.45747 0.599634 0
M  V30 1120 C 104.713 -2.03153 0.100263 0
M  V30 1121 C 105.068 -1.46073 -1.25221 0
M  V30 1122 O 104.361 -0.622878 -1.81193 0
M  V30 1123 C 104.555 -3.57399 -0.00602758 0
M  V30 1124 C 104.384 -4.2944 1.3346 0
M  V30 1125 C 103.154 -4.6768 1.91321 0
M  V30 1126 C 105.352 -4.61905 2.2616 0
M  V30 1127 N 103.334 -5.24544 3.18946 0
M  V30 1128 C 104.705 -5.19518 3.3838 0
M  V30 1129 C 106.76 -4.43841 2.25631 0
M  V30 1130 C 105.463 -5.60972 4.50226 0
M  V30 1131 C 107.489 -4.86322 3.36518 0
M  V30 1132 C 106.851 -5.44021 4.4746 0
M  V30 1133 H 102.95 -0.777911 0.0798696 0
M  V30 1134 H 105.534 -1.77674 0.796244 0
M  V30 1135 H 103.705 -3.82556 -0.671212 0
M  V30 1136 H 105.437 -4.01457 -0.51133 0
M  V30 1137 H 102.192 -4.5098 1.44617 0
M  V30 1138 H 102.616 -5.57483 3.84112 0
M  V30 1139 H 107.258 -3.98552 1.41123 0
M  V30 1140 H 104.976 -6.0523 5.35464 0
M  V30 1141 H 108.562 -4.74084 3.37247 0
M  V30 1142 H 107.442 -5.76289 5.31846 0
M  V30 1143 N 104.945 -0.338344 -1.53925 0
M  V30 1144 C 106.191 0.260143 -2.01125 0
M  V30 1145 C 106.524 1.50617 -1.22589 0
M  V30 1146 O 105.799 1.91979 -0.312113 0
M  V30 1147 C 106.082 0.579499 -3.55407 0
M  V30 1148 C 105.935 -0.678264 -4.44657 0
M  V30 1149 C 107.254 1.39122 -4.17532 0
M  V30 1150 H 104.373 0.0930772 -0.731099 0
M  V30 1151 H 107.015 -0.457852 -1.84401 0
M  V30 1152 H 105.165 1.19118 -3.69788 0
M  V30 1153 H 106.837 -1.31631 -4.42121 0
M  V30 1154 H 105.08 -1.3042 -4.13731 0
M  V30 1155 H 105.751 -0.410143 -5.50474 0
M  V30 1156 H 108.227 0.874035 -4.06817 0
M  V30 1157 H 107.103 1.58342 -5.25565 0
M  V30 1158 H 107.364 2.39178 -3.71815 0
M  V30 1159 N 106.423 1.57458 -0.0668435 0
M  V30 1160 C 107.386 2.11323 0.887422 0
M  V30 1161 C 108.386 1.03618 1.22964 0
M  V30 1162 O 109.576 1.29626 1.16373 0
M  V30 1163 C 106.708 2.61048 2.19242 0
M  V30 1164 H 107.901 2.96942 0.420194 0
M  V30 1165 H 105.454 1.55239 0.181793 0
M  V30 1166 H 106.189 1.78868 2.70512 0
M  V30 1167 H 105.974 3.39769 1.95702 0
M  V30 1168 H 107.464 3.02814 2.87565 0
M  V30 1169 N 107.901 -0.206675 1.56239 0
M  V30 1170 C 108.831 -1.25909 1.96645 0
M  V30 1171 C 109.812 -1.48097 0.836734 0
M  V30 1172 O 110.997 -1.6003 1.10019 0
M  V30 1173 C 108.127 -2.6058 2.29599 0
M  V30 1174 C 107.081 -2.53024 3.452 0
M  V30 1175 C 106.407 -3.91861 3.63798 0
M  V30 1176 C 107.707 -2.06524 4.79734 0
M  V30 1177 H 109.401 -0.923369 2.84806 0
M  V30 1178 H 106.947 -0.442735 1.37025 0
M  V30 1179 H 108.9 -3.34375 2.56459 0
M  V30 1180 H 107.624 -2.95869 1.38307 0
M  V30 1181 H 106.283 -1.81684 3.18412 0
M  V30 1182 H 105.931 -4.24483 2.69857 0
M  V30 1183 H 105.631 -3.87683 4.4156 0
M  V30 1184 H 107.155 -4.67296 3.93022 0
M  V30 1185 H 108.569 -2.70072 5.05702 0
M  V30 1186 H 106.966 -2.13374 5.60885 0
M  V30 1187 H 108.036 -1.01802 4.74093 0
M  V30 1188 N 109.379 -1.50304 -0.473955 0
M  V30 1189 C 110.327 -1.69482 -1.59307 0
M  V30 1190 C 111.321 -0.560669 -1.59853 0
M  V30 1191 O 112.527 -0.741087 -1.64036 0
M  V30 1192 H 108.902 -0.534892 -0.528578 0
M  V30 1193 H 110.873 -2.63364 -1.40293 0
M  V30 1194 C 109.622 -1.80354 -2.97267 0
M  V30 1195 H 108.945 -2.67012 -2.97564 0
M  V30 1196 H 110.385 -1.97798 -3.75036 0
M  V30 1197 C 108.844 -0.55448 -3.32306 0
M  V30 1198 O 109.374 0.307661 -4.0052 0
M  V30 1199 N 107.58 -0.409354 -2.87702 0
M  V30 1200 H 107.127 -1.11196 -2.32364 0
M  V30 1201 H 107.085 0.425223 -3.11511 0
M  V30 1202 N 110.857 0.726932 -1.39834 0
M  V30 1203 C 112.268 1.30558 -1.3346 0
M  V30 1204 C 112.619 1.962 -0.00273003 0
M  V30 1205 O 111.744 1.96826 0.899371 0
M  V30 1206 C 112.339 2.37404 -2.41713 0
M  V30 1207 C 110.898 2.90921 -2.38835 0
M  V30 1208 C 110.045 1.64578 -2.2318 0
M  V30 1209 H 112.996 0.523862 -1.49804 0
M  V30 1210 H 113.017 3.17984 -2.08966 0
M  V30 1211 H 112.529 1.89599 -3.38635 0
M  V30 1212 H 110.63 3.42985 -1.45575 0
M  V30 1213 H 110.743 3.43487 -3.33997 0
M  V30 1214 H 109.107 1.89219 -1.70494 0
M  V30 1215 H 109.89 1.18814 -3.22084 0
M  V30 1216 N 112.336 1.25143 0.95797 0
M  V30 1217 C 113.266 1.07711 2.07173 0
M  V30 1218 C 114.247 -0.0128462 1.70095 0
M  V30 1219 O 115.432 0.156061 1.93572 0
M  V30 1220 C 112.562 0.691503 3.40346 0
M  V30 1221 C 111.516 1.73132 3.9142 0
M  V30 1222 C 110.842 1.20049 5.21049 0
M  V30 1223 C 112.142 3.1294 4.1817 0
M  V30 1224 H 113.836 2.00873 2.22014 0
M  V30 1225 H 111.382 0.967191 1.06684 0
M  V30 1226 H 113.335 0.556505 4.17709 0
M  V30 1227 H 112.059 -0.275819 3.25433 0
M  V30 1228 H 110.718 1.8547 3.16222 0
M  V30 1229 H 110.366 0.223499 5.02503 0
M  V30 1230 H 110.066 1.89545 5.56189 0
M  V30 1231 H 111.59 1.07782 6.01012 0
M  V30 1232 H 113.004 3.03775 4.86203 0
M  V30 1233 H 111.401 3.79875 4.64559 0
M  V30 1234 H 112.471 3.6025 3.24573 0
M  V30 1235 N 113.814 -1.1601 1.06675 0
M  V30 1236 C 115.23 -1.38622 0.790948 0
M  V30 1237 C 115.43 -1.92109 -0.607965 0
M  V30 1238 O 114.486 -2.12239 -1.36787 0
M  V30 1239 C 115.799 -2.36347 1.85905 0
M  V30 1240 C 117.347 -2.50023 1.88301 0
M  V30 1241 C 117.822 -3.51033 2.94176 0
M  V30 1242 N 119.313 -3.58563 2.93235 0
M  V30 1243 C 120.048 -4.36521 3.71803 0
M  V30 1244 N 119.544 -5.17869 4.602 0
M  V30 1245 N 121.337 -4.31541 3.60178 0
M  V30 1246 H 113.488 -0.796294 1.96908 0
M  V30 1247 H 115.751 -0.412597 0.853503 0
M  V30 1248 H 115.457 -2.04147 2.86386 0
M  V30 1249 H 115.331 -3.36042 1.71334 0
M  V30 1250 H 117.718 -2.81524 0.884769 0
M  V30 1251 H 117.799 -1.5035 2.06951 0
M  V30 1252 H 117.443 -3.20268 3.94196 0
M  V30 1253 H 117.373 -4.50445 2.72776 0
M  V30 1254 H 119.864 -3.00496 2.29152 0
M  V30 1255 H 120.177 -5.74578 5.16797 0
M  V30 1256 H 118.522 -5.17199 4.64253 0
M  V30 1257 H 121.713 -3.67051 2.90502 0
M  V30 1258 H 121.886 -4.9205 4.21653 0
M  V30 1259 N 115.292 -0.849877 -1.32721 0
M  V30 1260 C 116.239 -0.289033 -2.28983 0
M  V30 1261 C 117.209 0.601324 -1.54833 0
M  V30 1262 O 118.394 0.537253 -1.8308 0
M  V30 1263 C 115.534 0.520623 -3.4115 0
M  V30 1264 C 114.647 -0.394989 -4.3019 0
M  V30 1265 C 113.782 0.426834 -5.29482 0
M  V30 1266 C 112.821 -0.486476 -6.10164 0
M  V30 1267 N 111.958 0.297879 -7.01468 0
M  V30 1268 H 116.798 -1.11519 -2.76347 0
M  V30 1269 H 114.335 -0.56138 -1.35967 0
M  V30 1270 H 116.293 1.00563 -4.04899 0
M  V30 1271 H 114.923 1.31165 -2.9495 0
M  V30 1272 H 113.975 -0.99836 -3.67065 0
M  V30 1273 H 115.287 -1.09612 -4.86607 0
M  V30 1274 H 114.441 0.975205 -5.98811 0
M  V30 1275 H 113.18 1.16136 -4.73671 0
M  V30 1276 H 112.185 -1.04677 -5.39743 0
M  V30 1277 H 113.41 -1.21953 -6.6806 0
M  V30 1278 H 111.356 1.01558 -6.48091 0
M  V30 1279 H 111.273 -0.344318 -7.55216 0
M  V30 1280 H 112.541 0.828131 -7.75089 0
M  V30 1281 N 116.77 1.45427 -0.607355 0
M  V30 1282 C 118.01 2.04128 -0.105458 0
M  V30 1283 C 118.374 1.46555 1.24039 0
M  V30 1284 O 119.575 1.96608 1.833 0
M  V30 1285 C 117.846 3.57338 -0.0665324 0
M  V30 1286 S 119.405 4.37201 0.374207 0
M  V30 1287 H 116.223 0.709278 -0.0494575 0
M  V30 1288 H 118.825 1.78139 -0.805404 0
M  V30 1289 H 117.529 3.96752 -1.04957 0
M  V30 1290 H 117.06 3.87902 0.655415 0
M  V30 1291 H 119.075 4.6888 1.62377 0
M  V30 1292 N 118.248 0.346503 1.53744 0
M  V30 1293 C 119.18 -0.543316 2.22667 0
M  V30 1294 C 120.193 -1.06159 1.23427 0
M  V30 1295 O 121.382 -0.971235 1.49764 0
M  V30 1296 C 118.482 -1.76076 2.89569 0
M  V30 1297 C 117.655 -1.37727 4.15151 0
M  V30 1298 C 116.714 -2.45471 4.65436 0
M  V30 1299 O 115.74 -2.08655 5.29577 0
M  V30 1300 N 116.942 -3.7677 4.41616 0
M  V30 1301 H 119.707 0.0469703 2.99663 0
M  V30 1302 H 117.268 0.170766 1.60997 0
M  V30 1303 H 119.26 -2.47593 3.20125 0
M  V30 1304 H 117.83 -2.25835 2.16142 0
M  V30 1305 H 117.05 -0.492746 3.91108 0
M  V30 1306 H 118.338 -1.09708 4.96832 0
M  V30 1307 H 117.736 -4.09467 3.90325 0
M  V30 1308 H 116.293 -4.44448 4.7677 0
M  V30 1309 N 119.726 -1.57421 0.075193 0
M  V30 1310 C 120.673 -2.12915 -0.890843 0
M  V30 1311 C 121.643 -1.04252 -1.29309 0
M  V30 1312 O 122.828 -1.31933 -1.37834 0
M  V30 1313 C 119.968 -2.69795 -2.15186 0
M  V30 1314 C 119.081 -3.92624 -1.80194 0
M  V30 1315 C 118.216 -4.37736 -3.00933 0
M  V30 1316 C 117.255 -5.53205 -2.61974 0
M  V30 1317 N 116.392 -5.9326 -3.75483 0
M  V30 1318 H 121.232 -2.95156 -0.410735 0
M  V30 1319 H 118.769 -1.45854 -0.191086 0
M  V30 1320 H 120.727 -3.00883 -2.89008 0
M  V30 1321 H 119.357 -1.90313 -2.60731 0
M  V30 1322 H 118.409 -3.67977 -0.964218 0
M  V30 1323 H 119.721 -4.76482 -1.47534 0
M  V30 1324 H 118.875 -4.70503 -3.8303 0
M  V30 1325 H 117.614 -3.52739 -3.36789 0
M  V30 1326 H 116.619 -5.20086 -1.783 0
M  V30 1327 H 117.844 -6.39936 -2.27284 0
M  V30 1328 H 115.79 -5.11212 -4.11094 0
M  V30 1329 H 115.707 -6.71865 -3.46602 0
M  V30 1330 H 116.975 -6.30651 -4.58148 0
M  V30 1331 N 121.204 0.198386 -1.56346 0
M  V30 1332 C 122.62 0.549085 -1.49857 0
M  V30 1333 C 122.82 1.86016 -0.774611 0
M  V30 1334 O 121.876 2.50416 -0.323776 0
M  V30 1335 C 123.189 0.606868 -2.94512 0
M  V30 1336 C 124.737 0.695925 -3.05165 0
M  V30 1337 C 125.212 0.784848 -4.51225 0
M  V30 1338 N 126.703 0.848463 -4.55363 0
M  V30 1339 C 127.438 0.937378 -5.65686 0
M  V30 1340 N 126.934 0.9888 -6.85707 0
M  V30 1341 N 128.727 0.974312 -5.53592 0
M  V30 1342 H 120.878 -0.661655 -2.01831 0
M  V30 1343 H 123.141 -0.235261 -0.918344 0
M  V30 1344 H 122.847 -0.28732 -3.50524 0
M  V30 1345 H 122.721 1.46268 -3.47686 0
M  V30 1346 H 125.108 1.58055 -2.49204 0
M  V30 1347 H 125.189 -0.186022 -2.55123 0
M  V30 1348 H 124.833 -0.0954072 -5.0781 0
M  V30 1349 H 124.763 1.68255 -4.98997 0
M  V30 1350 H 127.254 0.818103 -3.68938 0
M  V30 1351 H 127.567 1.05707 -7.65536 0
M  V30 1352 H 125.912 0.957534 -6.88372 0
M  V30 1353 H 129.103 0.930954 -4.58749 0
M  V30 1354 H 129.276 1.04015 -6.39597 0
M  V30 1355 N 122.682 1.50554 0.465978 0
M  V30 1356 C 124.093 1.54599 1.04671 0
M  V30 1357 C 124.444 0.352488 1.93008 0
M  V30 1358 O 123.569 -0.534044 2.09707 0
M  V30 1359 C 124.164 2.80166 1.90505 0
M  V30 1360 C 122.723 2.86876 2.43678 0
M  V30 1361 C 121.87 2.48947 1.22151 0
M  V30 1362 H 124.821 1.56744 0.248384 0
M  V30 1363 H 124.842 2.62311 2.75633 0
M  V30 1364 H 124.354 3.67013 1.26186 0
M  V30 1365 H 122.455 2.04393 3.11536 0
M  V30 1366 H 122.568 3.89885 2.78436 0
M  V30 1367 H 120.932 2.01498 1.5579 0
M  V30 1368 H 121.715 3.38107 0.594866 0
M  V30 1369 N 124.16 -0.719506 1.40217 0
M  V30 1370 C 125.4 -1.49181 1.39729 0
M  V30 1371 C 125.764 -1.92 -0.00250614 0
M  V30 1372 O 126.965 -2.68473 -0.132479 0
M  V30 1373 C 125.236 -2.68767 2.35582 0
M  V30 1374 S 126.795 -3.58224 2.53418 0
M  V30 1375 H 123.613 -0.510091 0.495307 0
M  V30 1376 H 126.215 -0.841724 1.76452 0
M  V30 1377 H 124.919 -2.35475 3.36124 0
M  V30 1378 H 124.45 -3.38691 2.0013 0
M  V30 1379 H 126.465 -4.63033 1.78367 0
M  V30 1380 N 125.638 -1.25649 -0.95132 0
M  V30 1381 C 126.886 -1.10375 -1.69298 0
M  V30 1382 C 127.207 0.355339 -1.91735 0
M  V30 1383 O 126.477 1.25188 -1.50681 0
M  V30 1384 H 125.057 -0.405461 -0.627384 0
M  V30 1385 H 127.719 -1.57823 -1.14358 0
M  V30 1386 H 126.815 -1.61465 -2.67087 0
M  V30 1387 N 127.117 1.15442 -1.07289 0
M  V30 1388 C 128.067 2.18164 -0.662467 0
M  V30 1389 C 129.051 1.57845 0.312074 0
M  V30 1390 O 130.243 1.76552 0.125905 0
M  V30 1391 C 127.372 3.43246 -0.0611295 0
M  V30 1392 C 126.458 4.1062 -1.06077 0
M  V30 1393 N 126.849 4.53491 -2.24008 0
M  V30 1394 C 125.147 4.36949 -0.893964 0
M  V30 1395 C 125.848 5.05731 -2.87422 0
M  V30 1396 N 124.824 4.99236 -2.15091 0
M  V30 1397 H 128.626 2.49038 -1.56068 0
M  V30 1398 H 126.14 1.32003 -0.945988 0
M  V30 1399 H 128.137 4.16145 0.250792 0
M  V30 1400 H 126.797 3.13854 0.832207 0
M  V30 1401 H 127.808 4.46898 -2.6173 0
M  V30 1402 H 124.485 4.17466 -0.0534693 0
M  V30 1403 H 125.875 5.48865 -3.87553 0
M  V30 1404 N 128.595 0.856903 1.32268 0
M  V30 1405 C 130.006 0.515711 1.79436 0
M  V30 1406 C 130.357 -0.966586 1.70738 0
M  V30 1407 O 129.482 -1.75409 1.26731 0
M  V30 1408 C 130.077 0.929335 3.25805 0
M  V30 1409 C 128.636 0.640006 3.70919 0
M  V30 1410 C 127.783 1.12784 2.53328 0
M  V30 1411 H 130.734 1.04389 1.19535 0
M  V30 1412 H 130.755 0.246633 3.797 0
M  V30 1413 H 130.267 2.00821 3.32103 0
M  V30 1414 H 128.368 -0.428051 3.70133 0
M  V30 1415 H 128.481 1.20788 4.63624 0
M  V30 1416 H 126.845 0.548033 2.48734 0
M  V30 1417 H 127.628 2.21387 2.62379 0
M  V30 1418 N 130.073 -1.45103 0.615059 0
M  V30 1419 C 131.321 -2.01784 0.112955 0
M  V30 1420 C 131.642 -1.48504 -1.26378 0
M  V30 1421 O 130.912 -0.682245 -1.83636 0
M  V30 1422 H 129.492 -0.745993 0.0387668 0
M  V30 1423 H 132.154 -1.77808 0.798141 0
M  V30 1424 H 131.25 -3.12025 0.0684069 0
M  V30 1425 N 131.551 -0.354651 -1.53558 0
M  V30 1426 C 132.828 0.294281 -1.93374 0
M  V30 1427 C 133.208 1.67313 -1.28723 0
M  V30 1428 O 132.556 2.24179 -0.442247 0
M  V30 1429 C 132.766 0.355445 -3.47185 0
M  V30 1430 C 134.114 0.601007 -4.20325 0
M  V30 1431 O 135.138 0.437106 -3.53508 0
M  V30 1432 O 133.997 0.919322 -5.38712 0
M  V30 1433 H 131.091 0.174033 -0.808481 0
M  V30 1434 H 133.637 -0.406638 -1.64756 0
M  V30 1435 H 132.409 -0.611729 -3.86489 0
M  V30 1436 H 132.032 1.1027 -3.82003 0
M  V30 1437 N 133.029 1.57378 -0.0835403 0
M  V30 1438 C 134.257 1.98263 0.59157 0
M  V30 1439 C 134.672 0.962302 1.62435 0
M  V30 1440 O 134.029 -0.049581 1.82433 0
M  V30 1441 C 134.08 3.39214 1.24965 0
M  V30 1442 O 133.801 4.37339 0.258186 0
M  V30 1443 C 135.302 3.95038 2.01147 0
M  V30 1444 H 132.522 0.651773 0.159477 0
M  V30 1445 H 135.066 2.03878 -0.159415 0
M  V30 1446 H 133.221 3.34649 1.95164 0
M  V30 1447 H 133.635 5.19371 0.731734 0
M  V30 1448 H 135.109 4.95848 2.42567 0
M  V30 1449 H 135.586 3.32222 2.87272 0
M  V30 1450 H 136.192 4.0304 1.35789 0
M  V30 1451 N 134.507 -0.190092 1.56449 0
M  V30 1452 C 135.918 -0.754312 1.70784 0
M  V30 1453 C 136.269 -1.83631 0.690951 0
M  V30 1454 O 135.394 -2.15868 -0.151604 0
M  V30 1455 C 135.989 -1.37503 3.09642 0
M  V30 1456 C 134.548 -1.88628 3.25725 0
M  V30 1457 C 133.695 -0.758098 2.66736 0
M  V30 1458 H 136.646 0.0350524 1.58661 0
M  V30 1459 H 136.667 -2.2445 3.0725 0
M  V30 1460 H 136.179 -0.587302 3.83631 0
M  V30 1461 H 134.28 -2.70103 2.56661 0
M  V30 1462 H 134.393 -2.04462 4.3328 0
M  V30 1463 H 132.757 -1.17369 2.26046 0
M  V30 1464 H 133.54 0.0174705 3.43296 0
M  V30 1465 N 135.985 -1.50799 -0.457987 0
M  V30 1466 C 137.232 -1.62442 -1.20908 0
M  V30 1467 C 137.56 -0.330865 -1.91665 0
M  V30 1468 O 136.815 0.68401 -1.83357 0
M  V30 1469 C 137.114 -2.76358 -2.2663 0
M  V30 1470 C 136.78 -4.16378 -1.73033 0
M  V30 1471 C 135.442 -4.54473 -1.58138 0
M  V30 1472 C 137.794 -5.03836 -1.33413 0
M  V30 1473 C 135.122 -5.77754 -1.02065 0
M  V30 1474 C 137.474 -6.27676 -0.78778 0
M  V30 1475 C 136.138 -6.64562 -0.625561 0
M  V30 1476 H 135.408 -0.594417 -0.442435 0
M  V30 1477 H 138.055 -1.84772 -0.503136 0
M  V30 1478 H 136.36 -2.48167 -3.03184 0
M  V30 1479 H 138.057 -2.82568 -2.84528 0
M  V30 1480 H 134.647 -3.86331 -1.85598 0
M  V30 1481 H 138.831 -4.75026 -1.4375 0
M  V30 1482 H 134.087 -6.04997 -0.882547 0
M  V30 1483 H 138.261 -6.94797 -0.472177 0
M  V30 1484 H 135.888 -7.59965 -0.188926 0
M  V30 1485 N 137.463 0.71206 -1.40597 0
M  V30 1486 C 138.711 1.46907 -1.38791 0
M  V30 1487 C 139.032 1.94998 0.00780391 0
M  V30 1488 O 138.302 1.70587 0.963174 0
M  V30 1489 H 136.882 0.545043 -0.51082 0
M  V30 1490 H 139.544 0.843882 -1.75683 0
M  V30 1491 H 138.64 2.34021 -2.06496 0
M  V30 1492 N 138.941 1.26152 0.944643 0
M  V30 1493 C 140.169 1.14259 1.72489 0
M  V30 1494 C 140.584 -0.302555 1.8636 0
M  V30 1495 O 139.941 -1.20741 1.36849 0
M  V30 1496 C 139.992 1.80266 3.13347 0
M  V30 1497 O 139.713 3.19133 3.00143 0
M  V30 1498 C 141.214 1.74283 4.07603 0
M  V30 1499 H 138.434 0.398051 0.540181 0
M  V30 1500 H 140.978 1.66706 1.18446 0
M  V30 1501 H 139.133 1.31766 3.64303 0
M  V30 1502 H 139.547 3.51744 3.89071 0
M  V30 1503 H 141.021 2.25111 5.04013 0
M  V30 1504 H 141.498 0.708631 4.33446 0
M  V30 1505 H 142.104 2.22319 3.62567 0
M  V30 1506 N 140.419 -1.14872 1.07899 0
M  V30 1507 C 141.666 -1.85789 0.805532 0
M  V30 1508 C 141.994 -1.82649 -0.668561 0
M  V30 1509 O 141.249 -1.24858 -1.50695 0
M  V30 1510 C 141.548 -3.34223 1.26609 0
M  V30 1511 C 141.214 -3.57555 2.74709 0
M  V30 1512 C 139.876 -3.63631 3.1516 0
M  V30 1513 C 142.228 -3.66803 3.70277 0
M  V30 1514 C 139.556 -3.76473 4.49983 0
M  V30 1515 C 141.908 -3.8117 5.04869 0
M  V30 1516 C 140.572 -3.85494 5.44932 0
M  V30 1517 H 139.842 -0.679849 0.294765 0
M  V30 1518 H 142.489 -1.3572 1.35101 0
M  V30 1519 H 140.794 -3.86536 0.640103 0
M  V30 1520 H 142.491 -3.87511 1.03132 0
M  V30 1521 H 139.081 -3.5347 2.42398 0
M  V30 1522 H 143.265 -3.61404 3.40149 0
M  V30 1523 H 138.521 -3.7808 4.80484 0
M  V30 1524 H 142.695 -3.87268 5.78789 0
M  V30 1525 H 140.322 -3.95197 6.49403 0
M  V30 1526 N 141.898 -0.863906 -1.31812 0
M  V30 1527 C 143.126 -0.486111 -2.01108 0
M  V30 1528 C 143.541 0.919755 -1.64882 0
M  V30 1529 O 142.898 1.60162 -0.874893 0
M  V30 1530 C 142.949 -0.626435 -3.56031 0
M  V30 1531 O 142.67 -1.97693 -3.90959 0
M  V30 1532 C 144.171 -0.248857 -4.42601 0
M  V30 1533 H 141.391 -0.190052 -0.643523 0
M  V30 1534 H 143.935 -1.1634 -1.68182 0
M  V30 1535 H 142.09 0.00322717 -3.874 0
M  V30 1536 H 142.504 -1.98034 -4.85678 0
M  V30 1537 H 143.978 -0.398016 -5.50563 0
M  V30 1538 H 144.455 0.811489 -4.31638 0
M  V30 1539 H 145.061 -0.853971 -4.16638 0
M  V30 1540 N 143.376 1.44774 -0.622745 0
M  V30 1541 C 144.306 2.33382 0.0741861 0
M  V30 1542 C 145.287 1.47719 0.843387 0
M  V30 1543 O 146.472 1.76458 0.810934 0
M  V30 1544 C 143.602 3.30663 1.06204 0
M  V30 1545 C 142.556 4.26079 0.405037 0
M  V30 1546 C 141.882 5.13165 1.5022 0
M  V30 1547 C 143.182 5.1781 -0.683414 0
M  V30 1548 H 144.876 2.91905 -0.665713 0
M  V30 1549 H 142.422 1.40363 -0.321587 0
M  V30 1550 H 144.375 3.9153 1.55827 0
M  V30 1551 H 143.099 2.70331 1.83272 0
M  V30 1552 H 141.758 3.66532 -0.0704683 0
M  V30 1553 H 141.406 4.49191 2.26355 0
M  V30 1554 H 141.106 5.77812 1.06803 0
M  V30 1555 H 142.63 5.76902 2.00041 0
M  V30 1556 H 144.044 5.72661 -0.270631 0
M  V30 1557 H 142.441 5.91015 -1.04023 0
M  V30 1558 H 143.511 4.59326 -1.55395 0
M  V30 1559 N 144.854 0.36279 1.53368 0
M  V30 1560 C 146.082 -0.228613 2.05633 0
M  V30 1561 C 146.497 -1.42676 1.23649 0
M  V30 1562 O 145.854 -1.80394 0.27647 0
M  V30 1563 C 145.905 -0.624845 3.56059 0
M  V30 1564 O 145.626 0.525675 4.34935 0
M  V30 1565 C 147.127 -1.27493 4.24571 0
M  V30 1566 H 144.347 -0.0407183 0.669763 0
M  V30 1567 H 146.891 0.520352 1.97769 0
M  V30 1568 H 145.046 -1.32373 3.64083 0
M  V30 1569 H 145.46 0.205969 5.24095 0
M  V30 1570 H 146.934 -1.50277 5.31151 0
M  V30 1571 H 147.411 -2.23439 3.78116 0
M  V30 1572 H 148.017 -0.617558 4.20792 0
M  V30 1573 N 146.332 -1.57332 0.0918853 0
M  V30 1574 C 147.58 -1.93853 -0.571446 0
M  V30 1575 C 147.901 -0.974212 -1.6892 0
M  V30 1576 O 147.171 -0.0257254 -1.95883 0
M  V30 1577 H 145.751 -0.715666 -0.214082 0
M  V30 1578 H 148.413 -1.94287 0.154464 0
M  V30 1579 H 147.509 -2.96191 -0.983729 0
M  V30 1580 N 147.81 0.181792 -1.56548 0
M  V30 1581 C 149.058 0.89832 -1.81038 0
M  V30 1582 C 149.379 1.83232 -0.667164 0
M  V30 1583 O 148.649 1.93372 0.313673 0
M  V30 1584 H 147.229 0.33471 -0.667816 0
M  V30 1585 H 149.891 0.184116 -1.94028 0
M  V30 1586 H 148.987 1.4815 -2.74696 0
M  V30 1587 N 149.288 1.51039 0.449983 0
M  V30 1588 C 150.236 1.71995 1.5659 0
M  V30 1589 C 151.23 0.586029 1.5894 0
M  V30 1590 O 152.436 0.76709 1.62837 0
M  V30 1591 H 148.811 0.543233 0.520001 0
M  V30 1592 H 150.782 2.65562 1.36085 0
M  V30 1593 C 149.531 1.8506 2.9436 0
M  V30 1594 H 148.854 2.71712 2.93279 0
M  V30 1595 H 150.294 2.0374 3.71842 0
M  V30 1596 C 148.753 0.607277 3.31382 0
M  V30 1597 O 149.283 -0.243903 4.00959 0
M  V30 1598 N 147.489 0.455073 2.87015 0
M  V30 1599 H 147.036 1.14879 2.30566 0
M  V30 1600 H 146.994 -0.375611 3.12148 0
M  V30 1601 N 150.766 -0.704594 1.40972 0
M  V30 1602 C 152.012 -1.46675 1.40051 0
M  V30 1603 C 152.345 -1.94199 0.00641102 0
M  V30 1604 O 151.62 -1.68916 -0.964235 0
M  V30 1605 C 151.903 -2.68505 2.39952 0
M  V30 1606 C 151.756 -2.26805 3.88432 0
M  V30 1607 C 153.075 -3.70686 2.37233 0
M  V30 1608 H 150.194 -0.532015 0.510028 0
M  V30 1609 H 152.836 -0.803255 1.72185 0
M  V30 1610 H 150.986 -3.25114 2.1268 0
M  V30 1611 H 152.658 -1.75592 4.26574 0
M  V30 1612 H 150.901 -1.58685 4.03734 0
M  V30 1613 H 151.572 -3.14181 4.53866 0
M  V30 1614 H 154.048 -3.23731 2.61415 0
M  V30 1615 H 152.924 -4.53553 3.09162 0
M  V30 1616 H 153.185 -4.19754 1.38777 0
M  V30 1617 N 152.244 -1.26651 -0.937939 0
M  V30 1618 C 153.491 -1.12387 -1.6845 0
M  V30 1619 C 153.819 0.332208 -1.91642 0
M  V30 1620 O 153.074 1.2602 -1.49725 0
M  V30 1621 C 153.373 -1.84168 -3.06295 0
M  V30 1622 C 153.039 -3.34056 -3.02849 0
M  V30 1623 C 151.701 -3.74942 -3.01616 0
M  V30 1624 C 154.053 -4.29741 -2.9491 0
M  V30 1625 C 151.381 -5.09894 -2.90215 0
M  V30 1626 C 153.733 -5.64738 -2.8505 0
M  V30 1627 C 152.397 -6.0493 -2.82162 0
M  V30 1628 H 151.667 -0.411252 -0.616403 0
M  V30 1629 H 154.314 -1.57134 -1.09459 0
M  V30 1630 H 152.619 -1.319 -3.6893 0
M  V30 1631 H 154.316 -1.70569 -3.62915 0
M  V30 1632 H 150.906 -3.01534 -3.0459 0
M  V30 1633 H 155.09 -3.99133 -2.94969 0
M  V30 1634 H 150.346 -5.40194 -2.86358 0
M  V30 1635 H 154.52 -6.38561 -2.77872 0
M  V30 1636 H 152.147 -7.09457 -2.73084 0
M  V30 1637 N 153.722 1.14298 -1.08507 0
M  V30 1638 C 154.632 2.23027 -0.727753 0
M  V30 1639 C 155.648 1.71952 0.26619 0
M  V30 1640 O 156.824 2.011 0.109882 0
M  V30 1641 C 153.889 3.46403 -0.143541 0
M  V30 1642 C 152.95 4.12413 -1.19223 0
M  V30 1643 C 152.183 5.29899 -0.635798 0
M  V30 1644 O 152.406 5.67796 0.544393 0
M  V30 1645 O 151.34 5.85717 -1.38634 0
M  V30 1646 H 155.166 2.55945 -1.63481 0
M  V30 1647 H 152.751 1.22248 -0.858817 0
M  V30 1648 H 154.633 4.21018 0.179404 0
M  V30 1649 H 153.308 3.15206 0.736659 0
M  V30 1650 H 152.215 3.39667 -1.56772 0
M  V30 1651 H 153.548 4.47718 -2.04474 0
M  V30 1652 N 155.201 0.870884 1.31352 0
M  V30 1653 C 156.431 0.496049 2.00557 0
M  V30 1654 C 156.839 -0.916241 1.65534 0
M  V30 1655 O 156.182 -1.61188 0.881134 0
M  V30 1656 C 156.244 0.574418 3.54881 0
M  V30 1657 C 155.908 1.94849 4.1338 0
M  V30 1658 C 156.905 2.91611 4.30417 0
M  V30 1659 C 154.59 2.25005 4.49086 0
M  V30 1660 C 156.584 4.16672 4.82352 0
M  V30 1661 C 154.271 3.50315 5.00722 0
M  V30 1662 C 155.269 4.45964 5.17306 0
M  V30 1663 O 154.957 5.69052 5.67833 0
M  V30 1664 H 154.689 0.191664 0.64826 0
M  V30 1665 H 157.243 1.17409 1.68536 0
M  V30 1666 H 155.473 -0.160549 3.86367 0
M  V30 1667 H 157.162 0.212879 4.05341 0
M  V30 1668 H 157.928 2.69622 4.03149 0
M  V30 1669 H 153.807 1.51332 4.35453 0
M  V30 1670 H 157.351 4.91336 4.95211 0
M  V30 1671 H 153.248 3.72147 5.27424 0
M  V30 1672 H 154.016 5.71236 5.86201 0
M  V30 1673 N 156.679 -1.44442 0.630414 0
M  V30 1674 C 157.927 -2.01653 0.134351 0
M  V30 1675 C 158.248 -1.49836 -1.24796 0
M  V30 1676 O 157.518 -0.701684 -1.82902 0
M  V30 1677 H 156.098 -0.74554 0.0466769 0
M  V30 1678 H 158.76 -1.76952 0.816955 0
M  V30 1679 H 157.856 -3.11935 0.101498 0
M  V30 1680 N 158.157 -0.370918 -1.53173 0
M  V30 1681 C 159.403 0.217423 -2.01631 0
M  V30 1682 C 159.736 1.47983 -1.25756 0
M  V30 1683 O 159.011 1.91274 -0.352764 0
M  V30 1684 C 159.294 0.503982 -3.56556 0
M  V30 1685 C 159.147 -0.77243 -4.43118 0
M  V30 1686 C 160.466 1.30234 -4.20389 0
M  V30 1687 H 157.585 0.0775486 -0.732909 0
M  V30 1688 H 160.227 -0.496863 -1.83388 0
M  V30 1689 H 158.377 1.11248 -3.72231 0
M  V30 1690 H 160.049 -1.4098 -4.39229 0
M  V30 1691 H 158.292 -1.39167 -4.10871 0
M  V30 1692 H 158.963 -0.526815 -5.4948 0
M  V30 1693 H 161.439 0.787546 -4.08579 0
M  V30 1694 H 160.315 1.47158 -5.28806 0
M  V30 1695 H 160.576 2.31237 -3.76805 0
M  V30 1696 N 159.635 1.57281 -0.100228 0
M  V30 1697 C 160.582 2.14305 0.856858 0
M  V30 1698 C 161.552 1.06296 1.27634 0
M  V30 1699 O 162.737 1.34109 1.35718 0
M  V30 1700 C 159.877 2.73184 2.10866 0
M  V30 1701 C 158.99 3.95442 1.73925 0
M  V30 1702 C 158.125 4.42468 2.93931 0
M  V30 1703 C 157.164 5.57303 2.5314 0
M  V30 1704 N 156.301 5.99158 3.65997 0
M  V30 1705 H 161.141 2.95772 0.363726 0
M  V30 1706 H 158.678 1.46139 0.167858 0
M  V30 1707 H 160.636 3.05442 2.84185 0
M  V30 1708 H 159.266 1.94437 2.57671 0
M  V30 1709 H 158.318 3.69464 0.905554 0
M  V30 1710 H 159.63 4.78769 1.39935 0
M  V30 1711 H 158.784 4.76537 3.75496 0
M  V30 1712 H 157.523 3.58052 3.31134 0
M  V30 1713 H 156.528 5.22857 1.70003 0
M  V30 1714 H 157.753 6.43471 2.17075 0
M  V30 1715 H 155.699 5.17687 4.02909 0
M  V30 1716 H 155.616 6.77295 3.35869 0
M  V30 1717 H 156.884 6.3786 4.48057 0
M  V30 1718 N 161.113 -0.173488 1.56642 0
M  V30 1719 C 162.076 -1.19859 1.95362 0
M  V30 1720 C 163.076 -1.37296 0.83704 0
M  V30 1721 O 164.266 -1.34739 1.10413 0
M  V30 1722 C 161.398 -2.56405 2.24654 0
M  V30 1723 H 162.591 -0.867062 2.87092 0
M  V30 1724 H 160.144 -0.415853 1.50666 0
M  V30 1725 H 160.879 -2.94576 1.35631 0
M  V30 1726 H 160.664 -2.45115 3.06041 0
M  V30 1727 H 162.154 -3.30287 2.5554 0
M  V30 1728 N 162.591 -1.51276 -0.441967 0
M  V30 1729 C 163.837 -1.63958 -1.19355 0
M  V30 1730 C 164.17 -0.352543 -1.90973 0
M  V30 1731 O 163.445 0.647627 -1.83401 0
M  V30 1732 C 163.728 -2.83979 -2.21422 0
M  V30 1733 C 163.581 -4.22646 -1.53918 0
M  V30 1734 C 164.9 -2.99521 -3.22451 0
M  V30 1735 H 162.019 -0.596709 -0.432559 0
M  V30 1736 H 164.661 -1.83748 -0.483398 0
M  V30 1737 H 162.811 -2.67237 -2.81987 0
M  V30 1738 H 164.483 -4.51045 -0.967256 0
M  V30 1739 H 162.726 -4.25558 -0.841615 0
M  V30 1740 H 163.397 -5.02609 -2.28229 0
M  V30 1741 H 165.873 -3.14944 -2.71937 0
M  V30 1742 H 164.749 -3.85072 -3.91166 0
M  V30 1743 H 165.01 -2.11391 -3.88287 0
M  V30 1744 N 164.069 0.697108 -1.41344 0
M  V30 1745 C 165.299 1.48377 -1.43763 0
M  V30 1746 C 165.707 1.89156 -0.0408726 0
M  V30 1747 O 165.05 1.57239 0.949812 0
M  V30 1748 C 165.112 2.7781 -2.2817 0
M  V30 1749 C 164.776 2.59244 -3.76353 0
M  V30 1750 C 165.773 2.25292 -4.68551 0
M  V30 1751 C 163.458 2.74933 -4.20378 0
M  V30 1752 C 165.452 2.07264 -6.02761 0
M  V30 1753 C 163.139 2.56521 -5.54653 0
M  V30 1754 C 164.137 2.22737 -6.4566 0
M  V30 1755 O 163.825 2.04485 -7.77458 0
M  V30 1756 H 163.557 0.463842 -0.491759 0
M  V30 1757 H 166.111 0.865934 -1.86255 0
M  V30 1758 H 164.341 3.41995 -1.8049 0
M  V30 1759 H 166.03 3.39608 -2.22309 0
M  V30 1760 H 166.796 2.12787 -4.35829 0
M  V30 1761 H 162.675 3.00213 -3.49848 0
M  V30 1762 H 166.219 1.80817 -6.73759 0
M  V30 1763 H 162.116 2.68616 -5.86955 0
M  V30 1764 H 162.884 2.1926 -7.88586 0
M  V30 1765 N 165.547 1.27147 0.931209 0
M  V30 1766 C 166.775 1.16082 1.71267 0
M  V30 1767 C 167.19 -0.282772 1.8667 0
M  V30 1768 O 166.547 -1.19283 1.38122 0
M  V30 1769 C 166.598 1.8358 3.11417 0
M  V30 1770 O 166.319 3.22299 2.96741 0
M  V30 1771 C 167.82 1.78597 4.05732 0
M  V30 1772 H 165.04 0.403758 0.535929 0
M  V30 1773 H 167.584 1.67953 1.16671 0
M  V30 1774 H 165.739 1.35623 3.62885 0
M  V30 1775 H 166.153 3.55851 3.85319 0
M  V30 1776 H 167.627 2.30444 5.01597 0
M  V30 1777 H 168.104 0.754564 4.3267 0
M  V30 1778 H 168.71 2.26152 3.60188 0
M  V30 1779 N 167.025 -1.13721 1.09112 0
M  V30 1780 C 168.265 -1.86576 0.834801 0
M  V30 1781 C 168.629 -1.81435 -0.628122 0
M  V30 1782 O 169.83 -2.49497 -1.00024 0
M  V30 1783 C 168.101 -3.30872 1.35124 0
M  V30 1784 S 169.66 -4.21257 1.22832 0
M  V30 1785 H 166.478 -0.643666 0.302017 0
M  V30 1786 H 169.08 -1.37085 1.39385 0
M  V30 1787 H 167.784 -3.32166 2.41027 0
M  V30 1788 H 167.315 -3.85423 0.788185 0
M  V30 1789 H 169.33 -4.95884 0.177191 0
M  V30 1790 N 168.503 -0.877838 -1.30888 0
M  V30 1791 C 169.451 -0.328662 -2.30266 0
M  V30 1792 C 170.445 0.560496 -1.59859 0
M  V30 1793 O 171.651 0.445722 -1.74394 0
M  V30 1794 H 168.026 -0.0876142 -0.746879 0
M  V30 1795 H 169.997 -1.18061 -2.74051 0
M  V30 1796 C 168.746 0.448071 -3.44801 0
M  V30 1797 H 168.069 -0.226859 -3.99156 0
M  V30 1798 H 169.509 0.797541 -4.16432 0
M  V30 1799 C 167.968 1.64239 -2.94155 0
M  V30 1800 O 168.498 2.74175 -2.93583 0
M  V30 1801 N 166.704 1.47716 -2.50256 0
M  V30 1802 H 166.251 0.582821 -2.5092 0
M  V30 1803 H 166.209 2.27765 -2.16727 0
M  V30 1804 N 169.982 1.44106 -0.638065 0
M  V30 1805 C 170.892 2.34513 0.0637334 0
M  V30 1806 C 171.908 1.53018 0.828346 0
M  V30 1807 O 173.084 1.85723 0.779036 0
M  V30 1808 C 170.149 3.31095 1.02844 0
M  V30 1809 C 169.21 4.28497 0.26244 0
M  V30 1810 C 168.443 5.20465 1.1812 0
M  V30 1811 O 168.666 5.16514 2.42011 0
M  V30 1812 O 167.6 5.98251 0.661774 0
M  V30 1813 H 171.426 2.95989 -0.68003 0
M  V30 1814 H 169.011 1.43994 -0.398252 0
M  V30 1815 H 170.893 3.90526 1.58327 0
M  V30 1816 H 169.568 2.72144 1.7527 0
M  V30 1817 H 168.475 3.72592 -0.335602 0
M  V30 1818 H 169.808 4.90388 -0.421936 0
M  V30 1819 N 171.46 0.379036 1.52974 0
M  V30 1820 C 172.708 -0.206014 2.01047 0
M  V30 1821 C 173.029 -1.48175 1.26765 0
M  V30 1822 O 172.299 -1.92085 0.384743 0
M  V30 1823 H 170.879 -0.0791184 0.742798 0
M  V30 1824 H 173.541 0.508366 1.88153 0
M  V30 1825 H 172.637 -0.423501 3.09213 0
M  V30 1826 N 172.938 -1.57226 0.108567 0
M  V30 1827 C 174.168 -1.9889 -0.559142 0
M  V30 1828 C 174.576 -0.986889 -1.61422 0
M  V30 1829 O 173.919 0.0298705 -1.83676 0
M  V30 1830 C 173.981 -3.36952 -1.25315 0
M  V30 1831 C 173.645 -4.55679 -0.347248 0
M  V30 1832 C 174.642 -5.18281 0.409996 0
M  V30 1833 C 172.327 -5.0162 -0.261367 0
M  V30 1834 C 174.321 -6.25203 1.24096 0
M  V30 1835 C 172.008 -6.08405 0.573238 0
M  V30 1836 C 173.006 -6.70063 1.32304 0
M  V30 1837 O 172.694 -7.74788 2.14381 0
M  V30 1838 H 172.426 -0.658343 -0.153492 0
M  V30 1839 H 174.98 -2.04532 0.188584 0
M  V30 1840 H 173.21 -3.28032 -2.04773 0
M  V30 1841 H 174.899 -3.62974 -1.81673 0
M  V30 1842 H 175.665 -4.8371 0.353457 0
M  V30 1843 H 171.544 -4.53381 -0.834656 0
M  V30 1844 H 175.088 -6.73259 1.82669 0
M  V30 1845 H 170.985 -6.42406 0.631208 0
M  V30 1846 H 171.753 -7.91837 2.07209 0
M  V30 1847 N 174.416 0.165178 -1.56732 0
M  V30 1848 C 175.348 1.22911 -1.93457 0
M  V30 1849 C 176.361 1.40152 -0.828333 0
M  V30 1850 O 177.55 1.40046 -1.10677 0
M  V30 1851 C 174.65 2.59686 -2.17753 0
M  V30 1852 C 173.823 2.63663 -3.48999 0
M  V30 1853 C 172.882 3.81845 -3.62051 0
M  V30 1854 O 171.908 3.67559 -4.34613 0
M  V30 1855 N 173.11 4.98557 -2.97357 0
M  V30 1856 H 175.875 0.917118 -2.85323 0
M  V30 1857 H 173.436 0.354895 -1.57962 0
M  V30 1858 H 175.428 3.37225 -2.23743 0
M  V30 1859 H 173.998 2.83251 -1.32242 0
M  V30 1860 H 173.218 1.72173 -3.54612 0
M  V30 1861 H 174.506 2.63336 -4.35352 0
M  V30 1862 H 173.904 5.13065 -2.38287 0
M  V30 1863 H 172.461 5.73936 -3.08934 0
M  V30 1864 N 175.894 1.51508 0.433938 0
M  V30 1865 C 176.824 1.76016 1.53429 0
M  V30 1866 C 177.805 0.610112 1.58782 0
M  V30 1867 O 178.99 0.853177 1.74455 0
M  V30 1868 C 176.12 1.88831 2.9148 0
M  V30 1869 C 175.074 3.04288 3.00987 0
M  V30 1870 C 174.4 3.0229 4.4105 0
M  V30 1871 C 175.7 4.44193 2.74754 0
M  V30 1872 H 177.394 2.68152 1.33171 0
M  V30 1873 H 174.94 1.29035 0.639214 0
M  V30 1874 H 176.893 2.04559 3.6842 0
M  V30 1875 H 175.617 0.933455 3.12976 0
M  V30 1876 H 174.276 2.8827 2.26486 0
M  V30 1877 H 173.924 2.04576 4.59519 0
M  V30 1878 H 173.624 3.79822 4.4834 0
M  V30 1879 H 175.148 3.20116 5.1996 0
M  V30 1880 H 176.562 4.60544 3.41426 0
M  V30 1881 H 174.959 5.23457 2.9345 0
M  V30 1882 H 176.029 4.53996 1.70339 0
M  V30 1883 N 177.372 -0.689602 1.41712 0
M  V30 1884 C 178.302 -1.81577 1.46806 0
M  V30 1885 C 179.283 -1.66945 0.326105 0
M  V30 1886 O 180.468 -1.86588 0.538377 0
M  V30 1887 C 177.598 -3.19762 1.35535 0
M  V30 1888 C 176.552 -3.49107 2.47605 0
M  V30 1889 C 175.878 -4.86711 2.21397 0
M  V30 1890 C 177.178 -3.47483 3.89939 0
M  V30 1891 H 178.872 -1.7757 2.41058 0
M  V30 1892 H 176.418 -0.852887 1.16025 0
M  V30 1893 H 178.371 -3.98263 1.3771 0
M  V30 1894 H 177.095 -3.24409 0.377708 0
M  V30 1895 H 175.754 -2.72959 2.44722 0
M  V30 1896 H 175.402 -4.8799 1.21961 0
M  V30 1897 H 175.102 -5.0731 2.96497 0
M  V30 1898 H 176.626 -5.67515 2.25297 0
M  V30 1899 H 178.04 -4.1598 3.94505 0
M  V30 1900 H 176.437 -3.79615 4.64771 0
M  V30 1901 H 177.507 -2.46341 4.17665 0
M  V30 1902 N 178.85 -1.27639 -0.924453 0
M  V30 1903 C 180.098 -1.13941 -1.66918 0
M  V30 1904 C 180.419 0.314589 -1.92446 0
M  V30 1905 O 179.689 1.21964 -1.53303 0
M  V30 1906 H 178.269 -0.418678 -0.618642 0
M  V30 1907 H 180.931 -1.60213 -1.10985 0
M  V30 1908 H 180.027 -1.67094 -2.63602 0
M  V30 1909 N 180.328 1.1314 -1.09713 0
M  V30 1910 C 181.238 2.22242 -0.751367 0
M  V30 1911 C 182.254 1.72224 0.247938 0
M  V30 1912 O 183.43 2.01205 0.0885463 0
M  V30 1913 C 180.495 3.46231 -0.180274 0
M  V30 1914 C 179.556 4.11125 -1.2359 0
M  V30 1915 C 178.789 5.29195 -0.691966 0
M  V30 1916 O 179.012 5.68342 0.48414 0
M  V30 1917 O 177.946 5.84214 -1.44838 0
M  V30 1918 H 181.772 2.54197 -1.66186 0
M  V30 1919 H 179.357 1.21331 -0.871735 0
M  V30 1920 H 181.239 4.21185 0.134739 0
M  V30 1921 H 179.914 3.1597 0.703185 0
M  V30 1922 H 178.821 3.37985 -1.60366 0
M  V30 1923 H 180.154 4.45524 -2.09211 0
M  V30 1924 N 181.806 0.884767 1.30421 0
M  V30 1925 C 183.055 0.499164 1.95426 0
M  V30 1926 C 183.368 -0.95645 1.70621 0
M  V30 1927 O 184.574 -1.44889 2.29607 0
M  V30 1928 C 183.03 0.84177 3.49917 0
M  V30 1929 C 182.638 2.31514 3.83543 0
M  V30 1930 C 184.382 0.525355 4.21237 0
M  V30 1931 C 182.289 2.59939 5.31212 0
M  V30 1932 H 181.219 0.182944 0.73147 0
M  V30 1933 H 183.87 1.07971 1.48373 0
M  V30 1934 H 182.252 0.190311 3.95542 0
M  V30 1935 H 183.426 3.0109 3.48829 0
M  V30 1936 H 181.741 2.59907 3.25326 0
M  V30 1937 H 184.338 0.714762 5.29901 0
M  V30 1938 H 184.681 -0.535222 4.12845 0
M  V30 1939 H 185.214 1.134 3.81294 0
M  V30 1940 H 181.953 3.64736 5.44654 0
M  V30 1941 H 181.473 1.94972 5.67227 0
M  V30 1942 H 183.152 2.45429 5.98643 0
M  V30 1943 N 183.284 -1.43765 0.645699 0
M  V30 1944 C 184.232 -2.32516 -0.0624849 0
M  V30 1945 C 185.226 -1.48183 -0.820855 0
M  V30 1946 O 186.432 -1.64439 -0.732106 0
M  V30 1947 H 182.807 -0.750989 -0.0389864 0
M  V30 1948 H 184.778 -2.89979 0.703892 0
M  V30 1949 C 183.527 -3.32389 -1.02044 0
M  V30 1950 H 182.85 -3.97301 -0.446312 0
M  V30 1951 H 184.29 -3.97138 -1.48517 0
M  V30 1952 C 182.749 -2.62416 -2.11281 0
M  V30 1953 O 183.279 -2.434 -3.19561 0
M  V30 1954 N 181.485 -2.21913 -1.87624 0
M  V30 1955 H 181.032 -2.37578 -0.995703 0
M  V30 1956 H 180.99 -1.75424 -2.6091 0
M  V30 1957 N 184.763 -0.387143 -1.52771 0
M  V30 1958 C 185.993 0.195585 -2.05672 0
M  V30 1959 C 186.401 1.41241 -1.25887 0
M  V30 1960 O 185.744 1.81265 -0.298081 0
M  V30 1961 C 185.806 0.632327 -3.53895 0
M  V30 1962 C 185.47 -0.470739 -4.54569 0
M  V30 1963 C 186.467 -1.32746 -5.02667 0
M  V30 1964 C 184.152 -0.637151 -4.98243 0
M  V30 1965 C 186.146 -2.33574 -5.93061 0
M  V30 1966 C 183.833 -1.64877 -5.88438 0
M  V30 1967 C 184.831 -2.49649 -6.35739 0
M  V30 1968 O 184.519 -3.49082 -7.24153 0
M  V30 1969 H 184.251 0.033658 -0.675162 0
M  V30 1970 H 186.805 -0.550221 -1.97893 0
M  V30 1971 H 185.035 1.43008 -3.59285 0
M  V30 1972 H 186.724 1.14048 -3.89548 0
M  V30 1973 H 187.49 -1.21019 -4.69659 0
M  V30 1974 H 183.369 0.0129567 -4.60998 0
M  V30 1975 H 186.913 -2.99777 -6.29904 0
M  V30 1976 H 182.81 -1.76643 -6.2086 0
M  V30 1977 H 183.578 -3.45065 -7.42208 0
M  V30 1978 N 186.241 1.57166 -0.116904 0
M  V30 1979 C 187.657 1.5779 0.239693 0
M  V30 1980 C 187.857 1.1295 1.66867 0
M  V30 1981 O 186.913 0.81592 2.38954 0
M  V30 1982 C 188.226 3.00699 0.00828202 0
M  V30 1983 C 189.774 3.12912 0.0743438 0
M  V30 1984 C 190.249 4.57817 -0.129348 0
M  V30 1985 N 191.74 4.63139 -0.075247 0
M  V30 1986 C 192.475 5.73023 -0.207788 0
M  V30 1987 N 191.971 6.91665 -0.396382 0
M  V30 1988 N 193.764 5.61906 -0.14751 0
M  V30 1989 H 185.915 1.84615 -1.05029 0
M  V30 1990 H 188.178 0.85311 -0.41341 0
M  V30 1991 H 187.884 3.37784 -0.979531 0
M  V30 1992 H 187.758 3.69848 0.741077 0
M  V30 1993 H 190.145 2.75686 1.05268 0
M  V30 1994 H 190.226 2.4631 -0.690297 0
M  V30 1995 H 189.87 4.95742 -1.10465 0
M  V30 1996 H 189.8 5.22507 0.655253 0
M  V30 1997 H 192.291 3.7784 0.0670898 0
M  V30 1998 H 192.604 7.71255 -0.488437 0
M  V30 1999 H 190.949 6.93654 -0.432329 0
M  V30 2000 H 194.14 4.681 -0.00115036 0
M  V30 2001 H 194.313 6.47501 -0.254247 0
M  V30 2002 N 187.719 -0.156864 1.56817 0
M  V30 2003 C 188.629 -1.2136 2.00771 0
M  V30 2004 C 189.645 -1.47598 0.921459 0
M  V30 2005 O 190.821 -1.59462 1.2302 0
M  V30 2006 C 187.886 -2.52943 2.37109 0
M  V30 2007 C 186.947 -2.34439 3.59634 0
M  V30 2008 C 186.18 -3.59748 3.94229 0
M  V30 2009 O 186.403 -4.65526 3.29609 0
M  V30 2010 O 185.337 -3.52998 4.8752 0
M  V30 2011 H 189.163 -0.870468 2.90958 0
M  V30 2012 H 186.748 -0.36484 1.44877 0
M  V30 2013 H 188.63 -3.30538 2.61386 0
M  V30 2014 H 187.305 -2.86806 1.5008 0
M  V30 2015 H 186.212 -1.54828 3.40557 0
M  V30 2016 H 187.545 -2.05496 4.4725 0
M  V30 2017 N 189.197 -1.51736 -0.425897 0
M  V30 2018 C 190.437 -1.66636 -1.18371 0
M  V30 2019 C 190.801 -0.379854 -1.88205 0
M  V30 2020 O 192.002 -0.404758 -2.65735 0
M  V30 2021 C 190.273 -2.84382 -2.16476 0
M  V30 2022 S 191.832 -3.19673 -3.0059 0
M  V30 2023 H 188.65 -0.586957 -0.40125 0
M  V30 2024 H 191.252 -1.89679 -0.473518 0
M  V30 2025 H 189.956 -3.76281 -1.63831 0
M  V30 2026 H 189.487 -2.63562 -2.92059 0
M  V30 2027 H 191.502 -2.66994 -4.18245 0
M  V30 2028 N 190.675 0.682077 -1.42076 0
M  V30 2029 C 191.952 1.43755 -1.32642 0
M  V30 2030 C 192.332 2.11063 0.0396611 0
M  V30 2031 O 191.68 2.02701 1.05474 0
M  V30 2032 C 191.89 2.44596 -2.48946 0
M  V30 2033 C 193.238 3.09454 -2.9073 0
M  V30 2034 O 194.262 2.54922 -2.48783 0
M  V30 2035 O 193.121 4.08253 -3.63307 0
M  V30 2036 H 190.215 0.640857 -0.522715 0
M  V30 2037 H 192.761 0.711415 -1.54068 0
M  V30 2038 H 191.533 1.93609 -3.40046 0
M  V30 2039 H 191.156 3.24701 -2.29467 0
M  V30 2040 N 192.153 1.28127 0.917671 0
M  V30 2041 C 193.381 1.17892 1.70026 0
M  V30 2042 C 193.796 -0.262958 1.8696 0
M  V30 2043 O 193.153 -1.17811 1.3938 0
M  V30 2044 C 193.204 1.86872 3.09453 0
M  V30 2045 O 192.925 3.25428 2.93306 0
M  V30 2046 C 194.426 1.8289 4.03815 0
M  V30 2047 H 191.646 0.40942 0.531617 0
M  V30 2048 H 194.19 1.69181 1.14883 0
M  V30 2049 H 192.345 1.39464 3.61426 0
M  V30 2050 H 192.759 3.59918 3.81523 0
M  V30 2051 H 194.233 2.35751 4.99125 0
M  V30 2052 H 194.71 0.800412 4.31845 0
M  V30 2053 H 195.316 2.29959 3.57769 0
M  V30 2054 N 193.631 -1.12557 1.10312 0
M  V30 2055 C 194.908 -1.80363 0.756878 0
M  V30 2056 C 195.288 -1.97067 -0.756824 0
M  V30 2057 O 194.636 -1.54601 -1.68259 0
M  V30 2058 C 194.846 -3.14812 1.50647 0
M  V30 2059 C 196.194 -3.90029 1.67817 0
M  V30 2060 O 197.218 -3.24464 1.46974 0
M  V30 2061 O 196.077 -5.07652 2.02365 0
M  V30 2062 H 193.171 -0.780667 0.272926 0
M  V30 2063 H 195.717 -1.19404 1.20586 0
M  V30 2064 H 194.489 -2.97936 2.53672 0
M  V30 2065 H 194.112 -3.83478 1.05026 0
M  V30 2066 N 195.109 -0.891671 -1.2995 0
M  V30 2067 C 196.357 -0.512486 -1.95494 0
M  V30 2068 C 196.678 0.942776 -1.70695 0
M  V30 2069 O 195.948 1.66374 -1.03424 0
M  V30 2070 H 194.528 -0.186533 -0.723336 0
M  V30 2071 H 197.19 -1.13621 -1.58355 0
M  V30 2072 H 196.286 -0.688342 -3.04415 0
M  V30 2073 N 196.587 1.43421 -0.653314 0
M  V30 2074 C 197.833 2.02641 -0.175593 0
M  V30 2075 C 198.188 1.5062 1.19713 0
M  V30 2076 O 197.481 0.689697 1.78756 0
M  V30 2077 C 197.675 3.57176 -0.126623 0
M  V30 2078 C 197.504 4.24191 -1.49306 0
M  V30 2079 C 196.274 4.60257 -2.08547 0
M  V30 2080 C 198.472 4.53193 -2.43148 0
M  V30 2081 N 196.454 5.12345 -3.38194 0
M  V30 2082 C 197.825 5.06601 -3.57429 0
M  V30 2083 C 199.88 4.35161 -2.41949 0
M  V30 2084 C 198.583 5.43875 -4.70736 0
M  V30 2085 C 200.609 4.73498 -3.54336 0
M  V30 2086 C 199.971 5.27039 -4.67343 0
M  V30 2087 H 196.07 0.77441 -0.108686 0
M  V30 2088 H 198.654 1.74596 -0.861638 0
M  V30 2089 H 196.825 3.84784 0.528766 0
M  V30 2090 H 198.557 4.03078 0.36198 0
M  V30 2091 H 195.312 4.45302 -1.61255 0
M  V30 2092 H 195.736 5.42842 -4.04538 0
M  V30 2093 H 200.378 3.9304 -1.55818 0
M  V30 2094 H 198.096 5.8494 -5.57558 0
M  V30 2095 H 201.682 4.61241 -3.5461 0
M  V30 2096 H 200.562 5.56153 -5.52868 0
M  V30 2097 N 198.065 0.39524 1.52563 0
M  V30 2098 C 199.293 -0.184943 2.06072 0
M  V30 2099 C 199.708 -1.40021 1.26647 0
M  V30 2100 O 199.065 -1.79767 0.314672 0
M  V30 2101 C 199.116 -0.549179 3.57304 0
M  V30 2102 O 198.837 0.617813 4.33722 0
M  V30 2103 C 200.338 -1.18459 4.2718 0
M  V30 2104 H 197.558 -0.0265025 0.670476 0
M  V30 2105 H 200.102 0.562184 1.96621 0
M  V30 2106 H 198.257 -1.2462 3.66809 0
M  V30 2107 H 198.671 0.317091 5.23541 0
M  V30 2108 H 200.145 -1.38976 5.34219 0
M  V30 2109 H 200.622 -2.15368 3.82771 0
M  V30 2110 H 201.228 -0.528163 4.22008 0
M  V30 2111 N 199.544 -1.57102 0.125237 0
M  V30 2112 C 200.492 -2.16905 -0.839927 0
M  V30 2113 C 201.486 -1.11998 -1.27094 0
M  V30 2114 O 202.692 -1.3029 -1.24195 0
M  V30 2115 H 199.067 -0.694252 -0.288995 0
M  V30 2116 H 201.038 -2.96774 -0.311115 0
M  V30 2117 C 199.787 -2.78795 -2.07771 0
M  V30 2118 H 199.11 -3.59221 -1.755 0
M  V30 2119 H 200.55 -3.2417 -2.73295 0
M  V30 2120 C 199.009 -1.76193 -2.87155 0
M  V30 2121 O 199.539 -1.21909 -3.82755 0
M  V30 2122 N 197.745 -1.45991 -2.51267 0
M  V30 2123 H 197.292 -1.90325 -1.73592 0
M  V30 2124 H 197.25 -0.775844 -3.04677 0
M  V30 2125 N 201.022 0.148545 -1.56898 0
M  V30 2126 C 202.299 0.890019 -1.74178 0
M  V30 2127 C 202.679 1.99407 -0.692839 0
M  V30 2128 O 202.027 2.26671 0.288505 0
M  V30 2129 C 202.237 1.43389 -3.18183 0
M  V30 2130 C 203.585 1.89791 -3.79822 0
M  V30 2131 O 204.609 1.53134 -3.21603 0
M  V30 2132 O 203.468 2.57387 -4.82093 0
M  V30 2133 H 200.562 0.420496 -0.712118 0
M  V30 2134 H 203.108 0.134591 -1.69165 0
M  V30 2135 H 201.88 0.640383 -3.86024 0
M  V30 2136 H 201.503 2.25287 -3.27615 0
M  V30 2137 N 202.5 1.5196 0.417844 0
M  V30 2138 C 203.749 1.6482 1.16264 0
M  V30 2139 C 204.062 0.379886 1.91876 0
M  V30 2140 O 205.268 0.388154 2.68711 0
M  V30 2141 C 203.724 2.91161 2.1155 0
M  V30 2142 C 203.332 4.25068 1.41495 0
M  V30 2143 C 205.076 3.13383 2.86341 0
M  V30 2144 C 202.983 5.42541 2.35379 0
M  V30 2145 H 201.913 0.613954 0.437694 0
M  V30 2146 H 204.564 1.78442 0.427871 0
M  V30 2147 H 202.946 2.71218 2.88543 0
M  V30 2148 H 204.12 4.55463 0.699263 0
M  V30 2149 H 202.435 4.0888 0.787792 0
M  V30 2150 H 205.032 3.98324 3.5671 0
M  V30 2151 H 205.375 2.27256 3.48798 0
M  V30 2152 H 205.908 3.33757 2.1645 0
M  V30 2153 H 202.647 6.30987 1.77582 0
M  V30 2154 H 202.167 5.16497 3.04945 0
M  V30 2155 H 203.846 5.75272 2.96093 0
M  V30 2156 N 203.978 -0.674533 1.42435 0
M  V30 2157 C 205.389 -1.25514 1.38214 0
M  V30 2158 C 205.74 -1.96055 0.0755464 0
M  V30 2159 O 204.865 -2.00028 -0.8257 0
M  V30 2160 C 205.46 -2.28269 2.50357 0
M  V30 2161 C 204.019 -2.81856 2.49467 0
M  V30 2162 C 203.166 -1.56182 2.29134 0
M  V30 2163 H 206.117 -0.467902 1.51646 0
M  V30 2164 H 206.138 -3.10009 2.20624 0
M  V30 2165 H 205.65 -1.769 3.45439 0
M  V30 2166 H 203.751 -3.37346 1.58204 0
M  V30 2167 H 203.864 -3.30854 3.46515 0
M  V30 2168 H 202.228 -1.82761 1.774 0
M  V30 2169 H 203.011 -1.06778 3.26272 0
M  V30 2170 N 205.456 -1.28612 -0.910864 0
M  V30 2171 C 206.705 -1.15311 -1.65488 0
M  V30 2172 C 207.018 0.296999 -1.93332 0
M  V30 2173 O 208.224 0.551168 -2.65847 0
M  V30 2174 C 206.68 -2.01599 -2.98137 0
M  V30 2175 C 206.288 -3.51367 -2.7793 0
M  V30 2176 C 208.032 -1.96993 -3.76024 0
M  V30 2177 C 205.939 -4.29797 -4.06237 0
M  V30 2178 H 204.869 -0.42796 -0.620779 0
M  V30 2179 H 207.52 -1.53166 -1.01057 0
M  V30 2180 H 205.902 -1.56603 -3.63719 0
M  V30 2181 H 207.076 -4.0434 -2.21011 0
M  V30 2182 H 205.391 -3.57529 -2.13452 0
M  V30 2183 H 207.988 -2.52856 -4.71135 0
M  V30 2184 H 208.331 -0.94733 -4.05378 0
M  V30 2185 H 208.864 -2.39973 -3.17266 0
M  V30 2186 H 205.603 -5.32648 -3.82055 0
M  V30 2187 H 205.123 -3.81596 -4.62757 0
M  V30 2188 H 206.802 -4.39869 -4.74473 0
M  V30 2189 N 206.934 1.1197 -1.10907 0
M  V30 2190 C 208.174 1.85224 -0.864378 0
M  V30 2191 C 208.538 1.82411 0.599178 0
M  V30 2192 O 209.739 2.51057 0.960416 0
M  V30 2193 C 208.01 3.2868 -1.40371 0
M  V30 2194 S 209.569 4.1925 -1.29518 0
M  V30 2195 H 206.387 0.63878 -0.312219 0
M  V30 2196 H 208.989 1.3485 -1.41548 0
M  V30 2197 H 207.693 3.28289 -2.46281 0
M  V30 2198 H 207.224 3.84121 -0.849402 0
M  V30 2199 H 209.239 4.95539 -0.256059 0
M  V30 2200 N 208.412 0.89855 1.29475 0
M  V30 2201 C 209.322 0.379974 2.31502 0
M  V30 2202 C 210.338 -0.524695 1.659 0
M  V30 2203 O 211.514 -0.414551 1.97087 0
M  V30 2204 C 208.579 -0.385138 3.44554 0
M  V30 2205 C 207.64 0.550914 4.2575 0
M  V30 2206 C 206.873 -0.177778 5.33404 0
M  V30 2207 O 207.096 -1.40189 5.52904 0
M  V30 2208 O 206.03 0.479106 5.9999 0
M  V30 2209 H 209.856 1.22639 2.77837 0
M  V30 2210 H 207.441 0.662834 1.33891 0
M  V30 2211 H 209.323 -0.817841 4.13388 0
M  V30 2212 H 207.998 -1.20763 3.0033 0
M  V30 2213 H 206.905 1.03271 3.59564 0
M  V30 2214 H 208.238 1.33979 4.73614 0
M  V30 2215 N 209.89 -1.43072 0.660911 0
M  V30 2216 C 211.136 -2.0202 0.177708 0
M  V30 2217 C 211.469 -1.52066 -1.20787 0
M  V30 2218 O 210.744 -0.716987 -1.80802 0
M  V30 2219 C 211.027 -3.59561 0.197019 0
M  V30 2220 C 210.88 -4.19727 1.61706 0
M  V30 2221 C 212.199 -4.37664 -0.462396 0
M  V30 2222 H 209.318 -0.734034 0.0660494 0
M  V30 2223 H 211.96 -1.70272 0.843058 0
M  V30 2224 H 210.11 -3.86739 -0.369527 0
M  V30 2225 H 211.782 -4.03553 2.23479 0
M  V30 2226 H 210.025 -3.76084 2.16201 0
M  V30 2227 H 210.696 -5.28834 1.58237 0
M  V30 2228 H 213.172 -4.16095 0.0197215 0
M  V30 2229 H 212.048 -5.47305 -0.418188 0
M  V30 2230 H 212.309 -4.14493 -1.53778 0
M  V30 2231 N 211.368 -0.403325 -1.52352 0
M  V30 2232 C 212.614 0.174605 -2.02047 0
M  V30 2233 C 212.947 1.45282 -1.28867 0
M  V30 2234 O 212.222 1.90483 -0.393257 0
M  V30 2235 C 212.505 0.428238 -3.57545 0
M  V30 2236 C 212.358 -0.866248 -4.4138 0
M  V30 2237 C 213.677 1.21287 -4.23057 0
M  V30 2238 H 210.796 0.0619851 -0.734389 0
M  V30 2239 H 213.438 -0.53565 -1.82293 0
M  V30 2240 H 211.588 1.03327 -3.74507 0
M  V30 2241 H 213.26 -1.50265 -4.3614 0
M  V30 2242 H 211.503 -1.47851 -4.07827 0
M  V30 2243 H 212.174 -0.643249 -5.48239 0
M  V30 2244 H 214.65 0.700703 -4.10158 0
M  V30 2245 H 213.526 1.35909 -5.31808 0
M  V30 2246 H 213.787 2.23193 -3.81625 0
M  V30 2247 N 212.846 1.57033 -0.133567 0
M  V30 2248 C 213.793 2.16074 0.811208 0
M  V30 2249 C 214.763 1.08979 1.2535 0
M  V30 2250 O 215.948 1.36958 1.32843 0
M  V30 2251 C 213.088 2.77595 2.05024 0
M  V30 2252 C 212.201 3.99042 1.65498 0
M  V30 2253 C 211.336 4.48603 2.84479 0
M  V30 2254 C 210.375 5.62547 2.41262 0
M  V30 2255 N 209.512 6.06787 3.53206 0
M  V30 2256 H 214.352 2.96477 0.300906 0
M  V30 2257 H 211.889 1.46462 0.136822 0
M  V30 2258 H 213.847 3.11402 2.77642 0
M  V30 2259 H 212.477 1.99859 2.53488 0
M  V30 2260 H 211.529 3.71302 0.826981 0
M  V30 2261 H 212.841 4.81629 1.29748 0
M  V30 2262 H 211.995 4.84395 3.65303 0
M  V30 2263 H 210.734 3.64995 3.23465 0
M  V30 2264 H 209.739 5.26345 1.58874 0
M  V30 2265 H 210.964 6.47931 2.03377 0
M  V30 2266 H 208.91 5.26117 3.91838 0
M  V30 2267 H 208.827 6.84266 3.21427 0
M  V30 2268 H 210.095 6.4722 4.34427 0
M  V30 2269 N 214.325 -0.140222 1.56975 0
M  V30 2270 C 215.565 -0.857823 1.85528 0
M  V30 2271 C 215.929 -1.78039 0.718768 0
M  V30 2272 O 217.13 -2.53795 0.885521 0
M  V30 2273 C 215.401 -1.60615 3.19277 0
M  V30 2274 S 216.96 -2.36824 3.69405 0
M  V30 2275 H 213.778 -0.286727 0.650622 0
M  V30 2276 H 216.38 -0.117408 1.95147 0
M  V30 2277 H 215.084 -0.919994 3.99955 0
M  V30 2278 H 214.615 -2.38735 3.12681 0
M  V30 2279 H 216.63 -3.62148 3.3921 0
M  V30 2280 N 215.803 -1.52179 -0.40978 0
M  V30 2281 C 216.733 -1.78435 -1.5061 0
M  V30 2282 C 217.714 -0.635295 -1.57791 0
M  V30 2283 O 218.899 -0.880823 -1.73076 0
M  V30 2284 C 216.029 -1.93444 -2.88439 0
M  V30 2285 C 214.983 -3.09038 -2.96108 0
M  V30 2286 C 214.309 -3.09268 -4.36185 0
M  V30 2287 C 215.609 -4.48508 -2.67652 0
M  V30 2288 H 217.303 -2.70237 -1.28889 0
M  V30 2289 H 214.849 -1.30036 -0.618605 0
M  V30 2290 H 216.802 -2.10394 -3.65119 0
M  V30 2291 H 215.526 -0.983129 -3.11452 0
M  V30 2292 H 214.185 -2.91837 -2.21872 0
M  V30 2293 H 213.833 -2.11861 -4.56206 0
M  V30 2294 H 213.533 -3.86907 -4.42241 0
M  V30 2295 H 215.057 -3.28348 -5.14801 0
M  V30 2296 H 216.471 -4.65918 -3.34056 0
M  V30 2297 H 214.868 -5.28059 -2.85085 0
M  V30 2298 H 215.938 -4.56649 -1.63095 0
M  V30 2299 N 217.281 0.66697 -1.42791 0
M  V30 2300 C 218.692 1.2478 -1.38877 0
M  V30 2301 C 219.043 1.96012 -0.0859426 0
M  V30 2302 O 218.168 2.00463 0.815081 0
M  V30 2303 C 218.763 2.26938 -2.51564 0
M  V30 2304 C 217.322 2.80529 -2.50959 0
M  V30 2305 C 216.469 1.54965 -2.29959 0
M  V30 2306 H 219.42 0.459853 -1.51892 0
M  V30 2307 H 219.441 3.08834 -2.22265 0
M  V30 2308 H 218.953 1.75065 -3.46372 0
M  V30 2309 H 217.054 3.36502 -1.59991 0
M  V30 2310 H 217.167 3.29012 -3.48265 0
M  V30 2311 H 215.531 1.81817 -1.78366 0
M  V30 2312 H 216.314 1.05047 -3.26833 0
M  V30 2313 N 218.759 1.29093 0.90403 0
M  V30 2314 C 220.005 1.16986 1.65656 0
M  V30 2315 C 220.338 -0.278925 1.92186 0
M  V30 2316 O 219.613 -1.2019 1.5292 0
M  V30 2317 C 219.896 1.97908 3.0084 0
M  V30 2318 C 219.749 3.50903 2.81403 0
M  V30 2319 C 221.068 1.80208 4.01513 0
M  V30 2320 H 218.187 0.426346 0.601164 0
M  V30 2321 H 220.829 1.58518 1.04747 0
M  V30 2322 H 218.979 1.62616 3.52829 0
M  V30 2323 H 220.651 3.96153 2.36348 0
M  V30 2324 H 218.894 3.76045 2.1627 0
M  V30 2325 H 219.565 4.02791 3.77443 0
M  V30 2326 H 222.041 2.11025 3.58619 0
M  V30 2327 H 220.917 2.39184 4.94047 0
M  V30 2328 H 221.178 0.756119 4.35586 0
M  V30 2329 N 220.237 -1.11381 1.11499 0
M  V30 2330 C 221.465 -1.86934 0.88675 0
M  V30 2331 C 221.88 -1.80195 -0.563476 0
M  V30 2332 O 221.237 -1.18367 -1.38908 0
M  V30 2333 C 221.288 -3.35722 1.34064 0
M  V30 2334 O 221.009 -3.4232 2.73401 0
M  V30 2335 C 222.51 -4.2818 1.14791 0
M  V30 2336 H 219.73 -0.591117 0.317523 0
M  V30 2337 H 222.274 -1.40865 1.48248 0
M  V30 2338 H 220.429 -3.79294 0.788355 0
M  V30 2339 H 220.843 -4.34971 2.93087 0
M  V30 2340 H 222.317 -5.30817 1.5145 0
M  V30 2341 H 222.794 -4.39113 0.0875279 0
M  V30 2342 H 223.4 -3.90402 1.68721 0
M  V30 2343 N 221.715 -0.905404 -1.28997 0
M  V30 2344 C 222.678 -0.392253 -2.25819 0
M  V30 2345 C 223.678 0.476753 -1.5357 0
M  V30 2346 O 224.868 0.280994 -1.71919 0
M  V30 2347 C 222 0.438588 -3.38067 0
M  V30 2348 H 223.193 -1.24743 -2.72725 0
M  V30 2349 H 220.746 -0.684051 -1.40536 0
M  V30 2350 H 221.481 1.31352 -2.96508 0
M  V30 2351 H 221.266 -0.184167 -3.91667 0
M  V30 2352 H 222.756 0.78873 -4.10084 0
M  V30 2353 N 223.193 1.4272 -0.668489 0
M  V30 2354 C 224.604 1.84793 -0.266151 0
M  V30 2355 C 224.955 1.55959 1.19043 0
M  V30 2356 O 224.08 1.01622 1.91055 0
M  V30 2357 C 224.675 3.35436 -0.476271 0
M  V30 2358 C 223.234 3.76182 -0.128113 0
M  V30 2359 C 222.381 2.66344 -0.771777 0
M  V30 2360 H 225.332 1.32656 -0.871098 0
M  V30 2361 H 225.353 3.79515 0.273561 0
M  V30 2362 H 224.865 3.5639 -1.53647 0
M  V30 2363 H 222.966 3.60836 0.928891 0
M  V30 2364 H 223.079 4.75766 -0.564231 0
M  V30 2365 H 221.443 2.53885 -0.203652 0
M  V30 2366 H 222.226 2.90123 -1.83531 0
M  V30 2367 N 224.671 0.411399 1.52136 0
M  V30 2368 C 225.581 -0.419774 2.30814 0
M  V30 2369 C 226.597 -1.0515 1.38634 0
M  V30 2370 O 227.773 -1.05252 1.71709 0
M  V30 2371 C 224.838 -1.52019 3.11594 0
M  V30 2372 C 223.899 -0.91129 4.19516 0
M  V30 2373 C 223.132 -1.95927 4.96436 0
M  V30 2374 O 223.355 -3.17775 4.73683 0
M  V30 2375 O 222.289 -1.56423 5.81219 0
M  V30 2376 H 226.115 0.221805 3.02889 0
M  V30 2377 H 223.7 0.174547 1.48377 0
M  V30 2378 H 225.582 -2.15898 3.61892 0
M  V30 2379 H 224.257 -2.14633 2.42311 0
M  V30 2380 H 223.164 -0.235157 3.7336 0
M  V30 2381 H 224.497 -0.32904 4.91099 0
M  V30 2382 N 226.149 -1.5696 0.141893 0
M  V30 2383 C 227.097 -2.17784 -0.816874 0
M  V30 2384 C 228.091 -1.1334 -1.25899 0
M  V30 2385 O 229.297 -1.316 -1.22806 0
M  V30 2386 H 225.672 -0.697278 -0.281615 0
M  V30 2387 H 227.643 -2.97087 -0.279621 0
M  V30 2388 C 226.392 -2.80983 -2.04802 0
M  V30 2389 H 225.715 -3.61062 -1.7168 0
M  V30 2390 H 227.155 -3.2705 -2.69841 0
M  V30 2391 C 225.614 -1.79228 -2.8527 0
M  V30 2392 O 226.144 -1.25962 -3.8144 0
M  V30 2393 N 224.35 -1.48647 -2.49704 0
M  V30 2394 H 223.897 -1.92155 -1.71564 0
M  V30 2395 H 223.855 -0.808115 -3.03837 0
M  V30 2396 N 227.627 0.131896 -1.57047 0
M  V30 2397 C 228.875 0.840269 -1.83804 0
M  V30 2398 C 229.196 1.81017 -0.72512 0
M  V30 2399 O 228.466 1.94272 0.251995 0
M  V30 2400 H 227.046 0.313294 -0.678127 0
M  V30 2401 H 229.708 0.122294 -1.94516 0
M  V30 2402 H 228.804 1.39335 -2.79271 0
M  V30 2403 N 229.106 1.52395 0.401703 0
M  V30 2404 C 230.053 1.76268 1.48991 0
M  V30 2405 C 231.023 0.605386 1.54675 0
M  V30 2406 O 232.208 0.843742 1.7113 0
M  V30 2407 C 229.348 1.92592 2.86361 0
M  V30 2408 C 228.461 3.20259 2.89928 0
M  V30 2409 C 227.596 3.26972 4.18644 0
M  V30 2410 C 226.635 4.48812 4.16214 0
M  V30 2411 N 225.772 4.52877 5.36514 0
M  V30 2412 H 230.612 2.6914 1.27935 0
M  V30 2413 H 228.149 1.33355 0.620871 0
M  V30 2414 H 230.107 2.0004 3.66115 0
M  V30 2415 H 228.737 1.03093 3.05895 0
M  V30 2416 H 227.789 3.21945 2.02621 0
M  V30 2417 H 229.101 4.10056 2.83999 0
M  V30 2418 H 228.255 3.33533 5.06794 0
M  V30 2419 H 226.994 2.35126 4.27278 0
M  V30 2420 H 225.999 4.4239 3.26453 0
M  V30 2421 H 227.224 5.41961 4.09213 0
M  V30 2422 H 225.17 3.63917 5.45802 0
M  V30 2423 H 225.087 5.36529 5.32609 0
M  V30 2424 H 226.355 4.63676 6.26597 0
M  V30 2425 N 230.584 -0.659388 1.43143 0
M  V30 2426 C 231.833 -1.41518 1.43721 0
M  V30 2427 C 232.146 -1.95499 0.0628176 0
M  V30 2428 O 233.352 -2.71446 -0.0539683 0
M  V30 2429 C 231.808 -2.5608 2.52885 0
M  V30 2430 C 231.416 -2.08733 3.96402 0
M  V30 2431 C 233.16 -3.3349 2.62649 0
M  V30 2432 C 231.067 -3.20469 4.97045 0
M  V30 2433 H 229.997 -0.531705 0.534608 0
M  V30 2434 H 232.648 -0.712343 1.69109 0
M  V30 2435 H 231.03 -3.28805 2.20688 0
M  V30 2436 H 232.204 -1.43059 4.3803 0
M  V30 2437 H 230.519 -1.44219 3.90627 0
M  V30 2438 H 233.116 -4.16734 3.35017 0
M  V30 2439 H 233.459 -3.8111 1.67513 0
M  V30 2440 H 233.992 -2.67842 2.94118 0
M  V30 2441 H 230.731 -2.77824 5.93712 0
M  V30 2442 H 230.251 -3.84874 4.60034 0
M  V30 2443 H 231.93 -3.85698 5.19467 0
M  V30 2444 N 232.062 -1.29571 -0.897171 0
M  V30 2445 C 233.308 -1.17863 -1.65034 0
M  V30 2446 C 233.641 0.268729 -1.92332 0
M  V30 2447 O 232.916 1.19378 -1.53555 0
M  V30 2448 C 233.199 -1.995 -2.99786 0
M  V30 2449 C 233.052 -3.5239 -2.79538 0
M  V30 2450 C 234.371 -1.82335 -4.00552 0
M  V30 2451 H 231.49 -0.429528 -0.598895 0
M  V30 2452 H 234.132 -1.59072 -1.03905 0
M  V30 2453 H 232.282 -1.64485 -3.51962 0
M  V30 2454 H 233.954 -3.97401 -2.34244 0
M  V30 2455 H 232.197 -3.77187 -2.14273 0
M  V30 2456 H 232.868 -4.04787 -3.75302 0
M  V30 2457 H 235.344 -2.12924 -3.57495 0
M  V30 2458 H 234.22 -2.41801 -4.92771 0
M  V30 2459 H 234.481 -0.779209 -4.35179 0
M  V30 2460 N 233.54 1.10788 -1.12088 0
M  V30 2461 C 234.765 1.87002 -0.896949 0
M  V30 2462 C 235.19 1.79933 0.548261 0
M  V30 2463 O 234.548 1.16662 1.38779 0
M  V30 2464 C 234.596 3.3349 -1.37174 0
M  V30 2465 O 233.7 4.08745 -0.547831 0
M  V30 2466 H 233.041 0.580397 -0.322545 0
M  V30 2467 H 235.571 1.39996 -1.49206 0
M  V30 2468 H 235.581 3.84339 -1.36922 0
M  V30 2469 H 234.256 3.37951 -2.42408 0
M  V30 2470 H 232.833 3.6776 -0.617034 0
M  V30 2471 N 235.018 0.912232 1.28515 0
M  V30 2472 C 236.243 0.559774 1.99703 0
M  V30 2473 C 236.668 -0.851393 1.67729 0
M  V30 2474 O 236.026 -1.56875 0.908834 0
M  V30 2475 C 236.074 0.773874 3.52198 0
M  V30 2476 O 235.178 -0.167842 4.12058 0
M  V30 2477 H 234.519 0.21723 0.627461 0
M  V30 2478 H 237.049 1.22725 1.63706 0
M  V30 2479 H 237.059 0.683386 4.02236 0
M  V30 2480 H 235.734 1.80261 3.74805 0
M  V30 2481 H 234.311 -0.0287509 3.72889 0
M  V30 2482 N 236.496 -1.42363 0.676048 0
M  V30 2483 C 237.459 -2.29199 0.00766941 0
M  V30 2484 C 238.459 -1.43389 -0.727745 0
M  V30 2485 O 239.649 -1.64764 -0.56556 0
M  V30 2486 C 236.781 -3.2591 -0.999785 0
M  V30 2487 H 237.974 -2.89794 0.771988 0
M  V30 2488 H 235.527 -1.50024 0.438468 0
M  V30 2489 H 236.262 -2.70256 -1.79255 0
M  V30 2490 H 236.047 -3.89202 -0.475829 0
M  V30 2491 H 237.537 -3.91028 -1.46583 0
M  V30 2492 N 237.974 -0.419461 -1.51915 0
M  V30 2493 C 238.907 0.445751 -2.23804 0
M  V30 2494 C 239.885 1.03951 -1.25031 0
M  V30 2495 O 241.069 1.08541 -1.54114 0
M  V30 2496 C 238.196 1.61964 -2.97465 0
M  V30 2497 C 237.242 1.14828 -4.10751 0
M  V30 2498 S 238.075 0.104938 -5.35397 0
M  V30 2499 C 239.231 1.28391 -6.1259 0
M  V30 2500 H 239.464 -0.164627 -2.96844 0
M  V30 2501 H 236.997 -0.203833 -1.53049 0
M  V30 2502 H 238.955 2.29271 -3.40507 0
M  V30 2503 H 237.616 2.20139 -2.24048 0
M  V30 2504 H 236.809 2.02561 -4.61503 0
M  V30 2505 H 236.411 0.553712 -3.69878 0
M  V30 2506 H 238.703 2.20563 -6.40592 0
M  V30 2507 H 239.646 0.816724 -7.03374 0
M  V30 2508 H 240.054 1.51439 -5.43807 0
M  V30 2509 N 239.452 1.56882 -0.150215 0
M  V30 2510 C 240.362 2.20494 0.801222 0
M  V30 2511 C 241.378 1.19019 1.26927 0
M  V30 2512 O 242.554 1.51607 1.32579 0
M  V30 2513 C 239.619 2.81659 2.02161 0
M  V30 2514 C 238.68 3.9827 1.60249 0
M  V30 2515 C 237.913 4.56508 2.7647 0
M  V30 2516 O 238.136 4.13627 3.92771 0
M  V30 2517 O 237.07 5.46719 2.51757 0
M  V30 2518 H 240.896 3.02315 0.289717 0
M  V30 2519 H 238.481 1.49202 0.0769684 0
M  V30 2520 H 240.363 3.20522 2.73576 0
M  V30 2521 H 239.038 2.02849 2.52258 0
M  V30 2522 H 237.945 3.64117 0.858477 0
M  V30 2523 H 239.278 4.78609 1.14864 0
M  V30 2524 N 240.93 -0.123565 1.57115 0
M  V30 2525 C 242.341 -0.681198 1.73829 0
M  V30 2526 C 242.692 -1.80535 0.768214 0
M  V30 2527 O 241.817 -2.16317 -0.0599103 0
M  V30 2528 C 242.412 -1.24246 3.15196 0
M  V30 2529 C 240.971 -1.74643 3.33432 0
M  V30 2530 C 240.118 -0.644284 2.69711 0
M  V30 2531 H 243.069 0.102315 1.5837 0
M  V30 2532 H 243.09 -2.11216 3.16493 0
M  V30 2533 H 242.602 -0.424062 3.85776 0
M  V30 2534 H 240.703 -2.58974 2.67886 0
M  V30 2535 H 240.816 -1.85902 4.41562 0
M  V30 2536 H 239.18 -1.07676 2.3082 0
M  V30 2537 H 239.963 0.163058 3.42913 0
M  V30 2538 N 242.408 -1.52605 -0.393616 0
M  V30 2539 C 243.685 -1.58001 -1.15304 0
M  V30 2540 C 244.065 -0.370385 -2.07825 0
M  V30 2541 O 243.413 0.641638 -2.19306 0
M  V30 2542 C 243.623 -2.91652 -1.91677 0
M  V30 2543 C 244.971 -3.4522 -2.47201 0
M  V30 2544 O 245.995 -2.93495 -2.01839 0
M  V30 2545 O 244.854 -4.35579 -3.3005 0
M  V30 2546 H 241.948 -0.637068 -0.527327 0
M  V30 2547 H 244.494 -1.64939 -0.399141 0
M  V30 2548 H 243.266 -3.71136 -1.23992 0
M  V30 2549 H 242.889 -2.88077 -2.74039 0
M  V30 2550 N 243.887 0.651787 -1.4349 0
M  V30 2551 C 245.303 0.96762 -1.26922 0
M  V30 2552 C 245.503 2.00602 -0.189982 0
M  V30 2553 O 244.559 2.48793 0.431107 0
M  V30 2554 C 245.872 1.45052 -2.63401 0
M  V30 2555 C 247.42 1.5671 -2.70945 0
M  V30 2556 C 247.895 2.0839 -4.07845 0
M  V30 2557 N 249.386 2.1569 -4.09917 0
M  V30 2558 C 250.121 2.56804 -5.12679 0
M  V30 2559 N 249.617 2.97203 -6.25813 0
M  V30 2560 N 251.41 2.56756 -5.00033 0
M  V30 2561 H 243.561 -0.0353158 -2.12371 0
M  V30 2562 H 245.824 0.0467858 -0.946845 0
M  V30 2563 H 245.53 0.761926 -3.43348 0
M  V30 2564 H 245.404 2.42529 -2.88894 0
M  V30 2565 H 247.791 2.2467 -1.9133 0
M  V30 2566 H 247.872 0.57662 -2.49216 0
M  V30 2567 H 247.516 1.41031 -4.87927 0
M  V30 2568 H 247.446 3.08271 -4.26938 0
M  V30 2569 H 249.937 1.87237 -3.28254 0
M  V30 2570 H 250.25 3.27328 -7.00055 0
M  V30 2571 H 248.595 2.95004 -6.29283 0
M  V30 2572 H 251.786 2.24572 -4.10713 0
M  V30 2573 H 251.959 2.88475 -5.80247 0
M  V30 2574 N 245.365 1.30045 0.890287 0
M  V30 2575 C 246.275 1.17885 2.02831 0
M  V30 2576 C 247.291 0.0999609 1.73713 0
M  V30 2577 O 248.467 0.313867 1.98939 0
M  V30 2578 C 245.532 0.866079 3.35708 0
M  V30 2579 C 244.593 2.02979 3.78283 0
M  V30 2580 C 243.826 1.73184 5.0482 0
M  V30 2581 O 244.049 0.657237 5.66601 0
M  V30 2582 O 242.983 2.58267 5.43674 0
M  V30 2583 H 246.809 2.13474 2.16015 0
M  V30 2584 H 244.394 1.09587 1.01543 0
M  V30 2585 H 246.276 0.706623 4.15433 0
M  V30 2586 H 244.951 -0.0599443 3.23644 0
M  V30 2587 H 243.858 2.24454 2.99285 0
M  V30 2588 H 245.191 2.93734 3.94944 0
M  V30 2589 N 246.843 -1.10192 1.12674 0
M  V30 2590 C 248.073 -1.85713 0.905213 0
M  V30 2591 C 248.481 -1.81056 -0.549108 0
M  V30 2592 O 247.824 -1.19927 -1.39151 0
M  V30 2593 C 247.886 -3.34972 1.30516 0
M  V30 2594 C 247.55 -3.63385 2.77129 0
M  V30 2595 C 248.547 -3.59772 3.75313 0
M  V30 2596 C 246.232 -3.91981 3.14096 0
M  V30 2597 C 248.226 -3.84354 5.08479 0
M  V30 2598 C 245.913 -4.16218 4.47443 0
M  V30 2599 C 246.911 -4.12395 5.44444 0
M  V30 2600 O 246.599 -4.36014 6.75387 0
M  V30 2601 H 246.331 -0.593719 0.323223 0
M  V30 2602 H 248.885 -1.40198 1.50112 0
M  V30 2603 H 247.115 -3.81156 0.652463 0
M  V30 2604 H 248.804 -3.91886 1.05736 0
M  V30 2605 H 249.57 -3.37716 3.48099 0
M  V30 2606 H 245.449 -3.94085 2.39202 0
M  V30 2607 H 248.993 -3.81285 5.84181 0
M  V30 2608 H 244.89 -4.37754 4.74386 0
M  V30 2609 H 245.658 -4.53516 6.8137 0
M  V30 2610 N 248.321 -0.919034 -1.28029 0
M  V30 2611 C 249.271 -0.382574 -2.24767 0
M  V30 2612 C 250.255 0.508286 -1.52661 0
M  V30 2613 O 251.447 0.347145 -1.73562 0
M  V30 2614 C 248.576 0.371432 -3.41285 0
M  V30 2615 C 247.662 -0.535449 -4.20706 0
M  V30 2616 N 248.053 -1.65141 -4.78082 0
M  V30 2617 C 246.351 -0.336824 -4.44726 0
M  V30 2618 C 247.052 -2.21475 -5.37888 0
M  V30 2619 N 246.028 -1.50537 -5.22341 0
M  V30 2620 H 249.83 -1.23477 -2.66703 0
M  V30 2621 H 247.344 -0.772299 -1.42861 0
M  V30 2622 H 249.341 0.772638 -4.09678 0
M  V30 2623 H 248.001 1.22066 -3.00882 0
M  V30 2624 H 249.012 -2.03392 -4.7629 0
M  V30 2625 H 245.689 0.47246 -4.14818 0
M  V30 2626 H 247.079 -3.15379 -5.93284 0
M  V30 2627 N 249.799 1.42003 -0.683588 0
M  V30 2628 C 251.046 2.01413 -0.209514 0
M  V30 2629 C 251.374 1.54088 1.1869 0
M  V30 2630 O 250.629 0.737591 1.81268 0
M  V30 2631 C 250.928 3.56827 -0.202357 0
M  V30 2632 C 250.594 4.23617 -1.54464 0
M  V30 2633 C 249.256 4.41577 -1.91215 0
M  V30 2634 C 251.608 4.61178 -2.42826 0
M  V30 2635 C 248.936 4.9437 -3.15935 0
M  V30 2636 C 251.288 5.15355 -3.66867 0
M  V30 2637 C 249.952 5.31528 -4.03776 0
M  V30 2638 H 249.222 0.737023 -0.0766668 0
M  V30 2639 H 251.869 1.70067 -0.880312 0
M  V30 2640 H 250.174 3.87892 0.551969 0
M  V30 2641 H 251.871 4.00588 0.181793 0
M  V30 2642 H 248.461 4.10004 -1.24877 0
M  V30 2643 H 252.645 4.46968 -2.15717 0
M  V30 2644 H 247.901 5.05076 -3.44541 0
M  V30 2645 H 252.075 5.43402 -4.35531 0
M  V30 2646 H 249.702 5.72199 -5.00492 0
M  V30 2647 N 251.277 0.427512 1.51691 0
M  V30 2648 C 252.525 -0.141948 2.01601 0
M  V30 2649 C 252.846 -1.44067 1.31414 0
M  V30 2650 O 252.116 -1.90763 0.445658 0
M  V30 2651 H 250.696 -0.0554468 0.744939 0
M  V30 2652 H 253.358 0.567968 1.86441 0
M  V30 2653 H 252.454 -0.324913 3.10404 0
M  V30 2654 N 252.755 -1.56801 0.158532 0
M  V30 2655 C 253.687 -2.14488 -0.807923 0
M  V30 2656 C 254.7 -1.09721 -1.20271 0
M  V30 2657 O 255.889 -1.36956 -1.14478 0
M  V30 2658 C 252.989 -2.66217 -2.09718 0
M  V30 2659 C 252.162 -3.95507 -1.86796 0
M  V30 2660 C 251.221 -4.3243 -2.99818 0
M  V30 2661 O 250.247 -5.00543 -2.71008 0
M  V30 2662 N 251.449 -3.92947 -4.27285 0
M  V30 2663 H 254.214 -2.98042 -0.314816 0
M  V30 2664 H 251.775 -1.61881 -0.0246692 0
M  V30 2665 H 253.767 -2.87924 -2.84398 0
M  V30 2666 H 252.337 -1.87324 -2.50257 0
M  V30 2667 H 251.557 -3.82309 -0.96089 0
M  V30 2668 H 252.845 -4.79972 -1.68833 0
M  V30 2669 H 252.243 -3.38087 -4.53557 0
M  V30 2670 H 250.8 -4.19681 -4.9871 0
M  V30 2671 N 254.233 0.115231 -1.57178 0
M  V30 2672 C 255.196 1.12526 -1.99676 0
M  V30 2673 C 256.196 1.34095 -0.88742 0
M  V30 2674 O 257.386 1.30548 -1.15337 0
M  V30 2675 C 254.518 2.4789 -2.34015 0
M  V30 2676 H 255.711 0.759912 -2.90113 0
M  V30 2677 H 253.264 0.359648 -1.52106 0
M  V30 2678 H 253.999 2.89339 -1.4647 0
M  V30 2679 H 253.784 2.33588 -3.14927 0
M  V30 2680 H 255.274 3.20575 -2.67622 0
M  V30 2681 N 255.711 1.52812 0.385517 0
M  V30 2682 C 256.957 1.68275 1.13188 0
M  V30 2683 C 257.29 0.423179 1.89533 0
M  V30 2684 O 256.565 -0.579113 1.85679 0
M  V30 2685 C 256.848 2.92001 2.1073 0
M  V30 2686 C 256.701 4.28067 1.38125 0
M  V30 2687 C 258.02 3.11283 3.11113 0
M  V30 2688 H 255.139 0.612352 0.410115 0
M  V30 2689 H 257.781 1.85415 0.414869 0
M  V30 2690 H 255.931 2.77519 2.71874 0
M  V30 2691 H 257.603 4.54324 0.799187 0
M  V30 2692 H 255.846 4.28388 0.683092 0
M  V30 2693 H 256.517 5.10733 2.09417 0
M  V30 2694 H 258.993 3.2482 2.6006 0
M  V30 2695 H 257.869 3.99325 3.76605 0
M  V30 2696 H 258.13 2.25656 3.80173 0
M  V30 2697 N 257.189 -0.644168 1.43834 0
M  V30 2698 C 258.605 -0.960875 1.27434 0
M  V30 2699 C 258.805 -2.00499 0.200618 0
M  V30 2700 O 257.861 -2.49018 -0.417906 0
M  V30 2701 C 259.174 -1.43653 2.64167 0
M  V30 2702 C 260.722 -1.55271 2.71772 0
M  V30 2703 C 261.197 -2.06224 4.08944 0
M  V30 2704 N 262.688 -2.13513 4.11055 0
M  V30 2705 C 263.423 -2.54081 5.14033 0
M  V30 2706 N 262.919 -2.9388 6.27381 0
M  V30 2707 N 264.712 -2.54101 5.01387 0
M  V30 2708 H 256.863 0.0465779 2.12349 0
M  V30 2709 H 259.126 -0.0417638 0.94708 0
M  V30 2710 H 258.832 -0.743706 3.43747 0
M  V30 2711 H 258.706 -2.40993 2.90176 0
M  V30 2712 H 261.093 -2.23653 1.92519 0
M  V30 2713 H 261.174 -0.563395 2.49519 0
M  V30 2714 H 260.818 -1.38441 4.88668 0
M  V30 2715 H 260.748 -3.06003 4.28567 0
M  V30 2716 H 263.239 -1.85493 3.29242 0
M  V30 2717 H 263.552 -3.2361 7.01781 0
M  V30 2718 H 261.897 -2.91663 6.30839 0
M  V30 2719 H 265.088 -2.22391 4.11898 0
M  V30 2720 H 265.261 -2.85394 5.81768 0
M  V30 2721 N 258.668 -1.30515 -0.883378 0
M  V30 2722 C 259.915 -1.1943 -1.63532 0
M  V30 2723 C 260.243 0.250627 -1.92878 0
M  V30 2724 O 259.498 1.19556 -1.54935 0
M  V30 2725 C 259.797 -1.96994 -2.98209 0
M  V30 2726 C 259.463 -3.466 -2.88408 0
M  V30 2727 C 258.125 -3.87397 -2.85442 0
M  V30 2728 C 260.477 -4.41863 -2.76418 0
M  V30 2729 C 257.805 -5.21745 -2.68327 0
M  V30 2730 C 260.157 -5.7632 -2.60841 0
M  V30 2731 C 258.821 -6.16354 -2.56251 0
M  V30 2732 H 258.091 -0.437025 -0.598406 0
M  V30 2733 H 260.738 -1.61635 -1.02696 0
M  V30 2734 H 259.043 -1.47429 -3.63004 0
M  V30 2735 H 260.74 -1.85808 -3.55354 0
M  V30 2736 H 257.33 -3.14182 -2.91527 0
M  V30 2737 H 261.514 -4.11285 -2.77775 0
M  V30 2738 H 256.77 -5.51853 -2.63189 0
M  V30 2739 H 260.944 -6.49772 -2.50538 0
M  V30 2740 H 258.571 -7.20401 -2.42748 0
M  V30 2741 N 260.146 1.09593 -1.13257 0
M  V30 2742 C 261.392 1.82003 -0.89458 0
M  V30 2743 C 261.725 1.85402 0.577906 0
M  V30 2744 O 261 1.32099 1.42759 0
M  V30 2745 C 261.283 3.28237 -1.48096 0
M  V30 2746 C 261.136 3.3312 -3.02244 0
M  V30 2747 C 262.455 4.24871 -1.14774 0
M  V30 2748 H 259.574 0.66077 -0.326424 0
M  V30 2749 H 262.216 1.28389 -1.40058 0
M  V30 2750 H 260.366 3.74024 -1.05062 0
M  V30 2751 H 262.038 2.95748 -3.54021 0
M  V30 2752 H 260.281 2.72756 -3.37323 0
M  V30 2753 H 260.952 4.3613 -3.38371 0
M  V30 2754 H 263.428 3.87361 -1.51957 0
M  V30 2755 H 262.304 5.25532 -1.58452 0
M  V30 2756 H 262.565 4.42058 -0.0611849 0
M  V30 2757 N 261.624 0.925811 1.2754 0
M  V30 2758 C 262.864 0.572521 1.96218 0
M  V30 2759 C 263.228 -0.869719 1.71172 0
M  V30 2760 O 264.429 -1.33119 2.33523 0
M  V30 2761 C 262.7 0.887325 3.4621 0
M  V30 2762 S 264.259 0.642266 4.34074 0
M  V30 2763 H 261.077 0.211403 0.678845 0
M  V30 2764 H 263.679 1.19384 1.54815 0
M  V30 2765 H 262.383 1.93469 3.61936 0
M  V30 2766 H 261.914 0.255123 3.92572 0
M  V30 2767 H 263.929 -0.500822 4.93666 0
M  V30 2768 N 263.102 -1.41638 0.69111 0
M  V30 2769 C 264.05 -2.32597 0.0115199 0
M  V30 2770 C 265.044 -1.5072 -0.773296 0
M  V30 2771 O 266.25 -1.66685 -0.67942 0
M  V30 2772 H 262.625 -0.751849 -0.0150746 0
M  V30 2773 H 264.596 -2.87593 0.795791 0
M  V30 2774 C 263.345 -3.35467 -0.914172 0
M  V30 2775 H 262.668 -3.9852 -0.319687 0
M  V30 2776 H 264.108 -4.01662 -1.35808 0
M  V30 2777 C 262.567 -2.69004 -2.02826 0
M  V30 2778 O 263.097 -2.53444 -3.11655 0
M  V30 2779 N 261.303 -2.2777 -1.80469 0
M  V30 2780 H 260.85 -2.40626 -0.919615 0
M  V30 2781 H 260.808 -1.83635 -2.55197 0
M  V30 2782 N 264.58 -0.43555 -1.51462 0
M  V30 2783 C 265.805 0.132627 -2.06976 0
M  V30 2784 C 266.23 1.35848 -1.30104 0
M  V30 2785 O 265.588 1.78112 -0.338493 0
M  V30 2786 C 265.636 0.43523 -3.57964 0
M  V30 2787 O 264.74 1.52198 -3.83288 0
M  V30 2788 H 264.081 0.00265 -0.663995 0
M  V30 2789 H 266.611 -0.616369 -1.95095 0
M  V30 2790 H 266.621 0.686206 -4.02188 0
M  V30 2791 H 265.296 -0.460739 -4.1334 0
M  V30 2792 H 263.873 1.2611 -3.50928 0
M  V30 2793 N 266.058 1.56714 -0.166846 0
M  V30 2794 C 267.306 1.96358 0.478305 0
M  V30 2795 C 267.627 1.0537 1.6408 0
M  V30 2796 O 266.897 0.119154 1.95537 0
M  V30 2797 H 265.477 0.725065 0.179692 0
M  V30 2798 H 268.139 1.93329 -0.246985 0
M  V30 2799 H 267.235 3.00547 0.841292 0
M  V30 2800 N 267.536 -0.106894 1.57237 0
M  V30 2801 C 268.766 -0.825191 1.89405 0
M  V30 2802 C 269.174 -1.73374 0.757496 0
M  V30 2803 O 268.517 -1.81552 -0.280115 0
M  V30 2804 C 268.579 -1.70102 3.1671 0
M  V30 2805 C 268.243 -0.965523 4.46684 0
M  V30 2806 C 269.24 -0.300741 5.19029 0
M  V30 2807 C 266.925 -0.943105 4.93367 0
M  V30 2808 C 268.919 0.376622 6.36286 0
M  V30 2809 C 266.606 -0.261949 6.10538 0
M  V30 2810 C 267.604 0.396748 6.81847 0
M  V30 2811 O 267.292 1.06701 7.96787 0
M  V30 2812 H 267.024 -0.241852 0.631255 0
M  V30 2813 H 269.578 -0.0921491 2.05193 0
M  V30 2814 H 267.808 -2.47601 2.97036 0
M  V30 2815 H 269.497 -2.29483 3.34802 0
M  V30 2816 H 270.263 -0.309599 4.84011 0
M  V30 2817 H 266.142 -1.44524 4.3776 0
M  V30 2818 H 269.686 0.891334 6.91882 0
M  V30 2819 H 265.583 -0.250896 6.45012 0
M  V30 2820 H 266.351 0.972707 8.127 0
M  V30 2821 N 269.014 -1.53014 -0.377408 0
M  V30 2822 C 269.961 -1.78616 -1.46168 0
M  V30 2823 C 270.931 -0.629917 -1.53692 0
M  V30 2824 O 272.116 -0.870861 -1.69766 0
M  V30 2825 C 269.256 -1.97123 -2.8326 0
M  V30 2826 C 268.369 -3.24831 -2.84796 0
M  V30 2827 C 267.504 -3.33591 -4.13389 0
M  V30 2828 C 266.543 -4.55377 -4.09021 0
M  V30 2829 N 265.68 -4.61355 -5.29241 0
M  V30 2830 H 270.52 -2.71142 -1.23637 0
M  V30 2831 H 268.057 -1.34326 -0.599577 0
M  V30 2832 H 270.015 -2.05839 -3.62886 0
M  V30 2833 H 268.645 -1.07946 -3.04216 0
M  V30 2834 H 267.697 -3.25128 -1.97474 0
M  V30 2835 H 269.009 -4.14523 -2.77439 0
M  V30 2836 H 268.163 -3.41554 -5.01424 0
M  V30 2837 H 266.902 -2.41894 -4.23484 0
M  V30 2838 H 265.907 -4.47527 -3.19373 0
M  V30 2839 H 267.132 -5.48402 -4.00539 0
M  V30 2840 H 265.078 -3.72554 -5.39944 0
M  V30 2841 H 264.995 -5.44935 -5.24006 0
M  V30 2842 H 266.263 -4.73586 -6.19141 0
M  V30 2843 N 270.492 0.636531 -1.44174 0
M  V30 2844 C 271.741 1.39213 -1.45954 0
M  V30 2845 C 272.054 1.95374 -0.0939119 0
M  V30 2846 O 273.26 2.71498 0.0107767 0
M  V30 2847 C 271.716 2.52025 -2.56927 0
M  V30 2848 C 271.324 2.024 -3.99673 0
M  V30 2849 C 273.068 3.29269 -2.67922 0
M  V30 2850 C 270.975 3.12521 -5.0208 0
M  V30 2851 H 269.905 0.523132 -0.542999 0
M  V30 2852 H 272.556 0.685349 -1.70221 0
M  V30 2853 H 270.938 3.25253 -2.25891 0
M  V30 2854 H 272.112 1.36073 -4.40251 0
M  V30 2855 H 270.427 1.37987 -3.92872 0
M  V30 2856 H 273.024 4.11352 -3.41605 0
M  V30 2857 H 273.367 3.78397 -1.73555 0
M  V30 2858 H 273.9 2.63129 -2.98342 0
M  V30 2859 H 270.639 2.68343 -5.98057 0
M  V30 2860 H 270.159 3.77507 -4.66099 0
M  V30 2861 H 271.838 3.77385 -5.25538 0
M  V30 2862 N 271.97 1.30982 0.876444 0
M  V30 2863 C 272.88 1.2003 2.01569 0
M  V30 2864 C 273.896 0.11838 1.73597 0
M  V30 2865 O 275.072 0.33495 1.98595 0
M  V30 2866 C 272.137 0.901637 3.34771 0
M  V30 2867 C 271.198 2.06979 3.76109 0
M  V30 2868 C 270.431 1.78529 5.02954 0
M  V30 2869 O 270.654 0.717296 5.65872 0
M  V30 2870 O 269.588 2.64019 5.40905 0
M  V30 2871 H 273.414 2.15753 2.13739 0
M  V30 2872 H 270.999 1.10658 1.00375 0
M  V30 2873 H 272.881 0.750645 4.1466 0
M  V30 2874 H 271.556 -0.0256141 3.2369 0
M  V30 2875 H 270.463 2.27616 2.96887 0
M  V30 2876 H 271.796 2.97907 3.91807 0
M  V30 2877 N 273.449 -1.08991 1.13837 0
M  V30 2878 C 274.697 -1.80899 0.901098 0
M  V30 2879 C 275.018 -1.86356 -0.574134 0
M  V30 2880 O 274.288 -1.35235 -1.41733 0
M  V30 2881 H 272.868 -0.669966 0.330386 0
M  V30 2882 H 275.53 -1.318 1.43578 0
M  V30 2883 H 274.626 -2.83929 1.29578 0
M  V30 2884 N 274.927 -0.932562 -1.27047 0
M  V30 2885 C 276.204 -0.49377 -1.89265 0
M  V30 2886 C 276.584 1.02833 -1.8436 0
M  V30 2887 O 275.932 1.88461 -1.29209 0
M  V30 2888 C 276.142 -1.04536 -3.32976 0
M  V30 2889 C 277.49 -1.10879 -4.09867 0
M  V30 2890 O 278.514 -0.995327 -3.42011 0
M  V30 2891 O 277.373 -1.28417 -5.31198 0
M  V30 2892 H 274.467 -0.159596 -0.811454 0
M  V30 2893 H 277.013 -1.02457 -1.3528 0
M  V30 2894 H 275.785 -2.08913 -3.30864 0
M  V30 2895 H 275.408 -0.496494 -3.94488 0
M  V30 2896 N 276.405 1.4127 -0.698611 0
M  V30 2897 C 277.315 2.34573 -0.0357891 0
M  V30 2898 C 278.331 1.56393 0.762701 0
M  V30 2899 O 279.507 1.8886 0.699564 0
M  V30 2900 C 276.572 3.35159 0.887089 0
M  V30 2901 C 275.633 4.29225 0.0804634 0
M  V30 2902 C 274.866 5.25006 0.959387 0
M  V30 2903 O 275.089 5.26314 2.19886 0
M  V30 2904 O 274.023 6.00519 0.407439 0
M  V30 2905 H 277.849 2.92838 -0.804957 0
M  V30 2906 H 275.434 1.42175 -0.458966 0
M  V30 2907 H 277.316 3.9689 1.41621 0
M  V30 2908 H 275.991 2.79333 1.6357 0
M  V30 2909 H 274.898 3.70833 -0.493328 0
M  V30 2910 H 276.231 4.88157 -0.629547 0
M  V30 2911 N 277.883 0.443576 1.51229 0
M  V30 2912 C 278.793 -0.370721 2.31652 0
M  V30 2913 C 279.809 -1.02186 1.40833 0
M  V30 2914 O 280.985 -1.01586 1.73903 0
M  V30 2915 C 278.05 -1.45376 3.14749 0
M  V30 2916 C 277.111 -0.822099 4.21355 0
M  V30 2917 C 276.344 -1.85353 5.0048 0
M  V30 2918 O 276.567 -3.07656 4.80316 0
M  V30 2919 O 275.501 -1.4406 5.84406 0
M  V30 2920 H 279.327 0.286002 3.0235 0
M  V30 2921 H 276.912 0.20598 1.47973 0
M  V30 2922 H 278.794 -2.08173 3.66391 0
M  V30 2923 H 277.469 -2.09445 2.46809 0
M  V30 2924 H 276.376 -0.155909 3.73775 0
M  V30 2925 H 277.709 -0.224797 4.91686 0
M  V30 2926 N 279.361 -1.56624 0.175154 0
M  V30 2927 C 280.294 -2.14 -0.792412 0
M  V30 2928 C 281.272 -1.07114 -1.22333 0
M  V30 2929 O 282.456 -1.35112 -1.31442 0
M  V30 2930 C 279.583 -2.68268 -2.0676 0
M  V30 2931 C 278.629 -3.87562 -1.7804 0
M  V30 2932 S 279.462 -5.27074 -0.946222 0
M  V30 2933 C 280.618 -5.8475 -2.23199 0
M  V30 2934 H 280.851 -2.95736 -0.304588 0
M  V30 2935 H 278.384 -1.54349 -0.0395705 0
M  V30 2936 H 280.342 -3.00182 -2.80002 0
M  V30 2937 H 279.003 -1.86612 -2.52656 0
M  V30 2938 H 278.196 -4.23874 -2.72666 0
M  V30 2939 H 277.798 -3.56555 -1.12891 0
M  V30 2940 H 280.09 -5.97898 -3.18629 0
M  V30 2941 H 281.033 -6.81756 -1.91349 0
M  V30 2942 H 281.441 -5.13198 -2.35134 0
M  V30 2943 N 280.839 0.0985539 -1.57292 0
M  V30 2944 C 281.789 1.1261 -1.9825 0
M  V30 2945 C 282.773 1.35961 -0.860426 0
M  V30 2946 O 283.965 1.36711 -1.12424 0
M  V30 2947 C 281.094 2.44727 -2.40757 0
M  V30 2948 C 280.18 2.24764 -3.59642 0
M  V30 2949 N 280.571 1.74661 -4.74687 0
M  V30 2950 C 278.869 2.55344 -3.65672 0
M  V30 2951 C 279.57 1.68887 -5.56644 0
M  V30 2952 N 278.546 2.13976 -4.99715 0
M  V30 2953 H 282.348 0.731604 -2.84648 0
M  V30 2954 H 279.862 0.306029 -1.59491 0
M  V30 2955 H 281.859 3.19072 -2.68326 0
M  V30 2956 H 280.519 2.84917 -1.55733 0
M  V30 2957 H 281.53 1.43908 -4.97505 0
M  V30 2958 H 278.207 2.99081 -2.91302 0
M  V30 2959 H 279.597 1.3123 -6.5896 0
M  V30 2960 N 282.317 1.53212 0.369288 0
M  V30 2961 C 283.557 1.70915 1.12105 0
M  V30 2962 C 283.921 0.449444 1.86665 0
M  V30 2963 O 285.122 0.503105 2.6405 0
M  V30 2964 C 283.393 2.9222 2.05772 0
M  V30 2965 S 284.952 3.30609 2.88519 0
M  V30 2966 H 281.77 0.601445 0.379189 0
M  V30 2967 H 284.372 1.91306 0.402794 0
M  V30 2968 H 283.076 3.82103 1.49752 0
M  V30 2969 H 282.607 2.7422 2.82076 0
M  V30 2970 H 284.622 2.82333 4.08047 0
M  V30 2971 N 283.795 -0.628877 1.44509 0
M  V30 2972 C 285.02 -1.42048 1.5112 0
M  V30 2973 C 285.445 -1.87594 0.137818 0
M  V30 2974 O 284.803 -1.58873 -0.873437 0
M  V30 2975 C 284.851 -2.61541 2.48251 0
M  V30 2976 O 283.955 -3.61453 1.98559 0
M  V30 2977 H 283.296 -0.424942 0.510216 0
M  V30 2978 H 285.826 -0.767374 1.89664 0
M  V30 2979 H 285.836 -3.09057 2.66361 0
M  V30 2980 H 284.511 -2.27736 3.48007 0
M  V30 2981 H 283.088 -3.20731 1.90227 0
M  V30 2982 N 285.273 -1.31445 -0.869486 0
M  V30 2983 C 286.55 -1.11795 -1.60503 0
M  V30 2984 C 286.93 0.327168 -2.08549 0
M  V30 2985 O 286.278 1.32135 -1.8642 0
M  V30 2986 C 286.488 -2.13258 -2.76265 0
M  V30 2987 C 287.836 -2.45805 -3.46215 0
M  V30 2988 O 288.86 -2.11688 -2.86473 0
M  V30 2989 O 287.719 -3.04228 -4.5399 0
M  V30 2990 H 284.813 -0.430421 -0.706163 0
M  V30 2991 H 287.359 -1.42925 -0.914907 0
M  V30 2992 H 286.131 -3.10461 -2.3818 0
M  V30 2993 H 285.754 -1.83035 -3.52964 0
M  V30 2994 N 286.751 1.08385 -1.14413 0
M  V30 2995 C 288.028 1.77429 -0.823297 0
M  V30 2996 C 288.408 1.9974 0.683163 0
M  V30 2997 O 287.756 1.60739 1.62405 0
M  V30 2998 C 287.966 3.09004 -1.62227 0
M  V30 2999 C 289.314 3.83532 -1.82177 0
M  V30 3000 O 290.338 3.18786 -1.58915 0
M  V30 3001 O 289.197 4.99792 -2.21067 0
M  V30 3002 H 286.291 0.769999 -0.301712 0
M  V30 3003 H 288.837 1.14846 -1.24934 0
M  V30 3004 H 287.609 2.88316 -2.64555 0
M  V30 3005 H 287.232 3.79316 -1.19187 0
M  V30 3006 N 288.23 0.939286 1.26551 0
M  V30 3007 C 289.478 0.58469 1.93457 0
M  V30 3008 C 289.799 -0.878774 1.74076 0
M  V30 3009 O 289.069 -1.62421 1.09528 0
M  V30 3010 H 287.649 0.21325 0.715914 0
M  V30 3011 H 290.311 1.1942 1.54029 0
M  V30 3012 H 289.407 0.800849 3.0165 0
M  V30 3013 N 289.708 -1.40897 0.706093 0
M  V30 3014 C 290.955 -2.01054 0.241531 0
M  V30 3015 C 291.283 -1.55956 -1.16223 0
M  V30 3016 O 290.538 -0.766336 -1.80072 0
M  V30 3017 C 290.837 -3.5646 0.259099 0
M  V30 3018 C 290.503 -4.21106 1.61184 0
M  V30 3019 C 289.165 -4.38479 1.98216 0
M  V30 3020 C 291.517 -4.57256 2.50132 0
M  V30 3021 C 288.845 -4.89282 3.2376 0
M  V30 3022 C 291.197 -5.09454 3.7502 0
M  V30 3023 C 289.861 -5.25037 4.12181 0
M  V30 3024 H 289.131 -0.73571 0.0883825 0
M  V30 3025 H 291.778 -1.68645 0.907257 0
M  V30 3026 H 290.083 -3.88721 -0.490189 0
M  V30 3027 H 291.78 -4.00826 -0.11804 0
M  V30 3028 H 288.37 -4.07966 1.31384 0
M  V30 3029 H 292.554 -4.43479 2.228 0
M  V30 3030 H 287.81 -4.99531 3.52532 0
M  V30 3031 H 291.984 -5.36404 4.44121 0
M  V30 3032 H 289.611 -5.64164 5.09532 0
M  V30 3033 N 291.186 -0.45159 -1.50991 0
M  V30 3034 C 292.432 0.102439 -2.03142 0
M  V30 3035 C 292.787 1.39138 -1.32884 0
M  V30 3036 O 292.08 1.86493 -0.439438 0
M  V30 3037 C 292.274 0.361728 -3.55565 0
M  V30 3038 C 292.103 -0.900535 -4.40591 0
M  V30 3039 C 290.873 -1.43821 -4.844 0
M  V30 3040 C 293.071 -1.79063 -4.82121 0
M  V30 3041 N 291.053 -2.65153 -5.53685 0
M  V30 3042 C 292.424 -2.84991 -5.50618 0
M  V30 3043 C 294.479 -1.80334 -4.64095 0
M  V30 3044 C 293.182 -3.92155 -6.02998 0
M  V30 3045 C 295.208 -2.86442 -5.17402 0
M  V30 3046 C 294.57 -3.9109 -5.85857 0
M  V30 3047 H 290.669 -0.00204537 -0.781997 0
M  V30 3048 H 293.253 -0.615446 -1.84717 0
M  V30 3049 H 291.424 1.04865 -3.73976 0
M  V30 3050 H 293.156 0.908372 -3.94374 0
M  V30 3051 H 289.911 -0.990117 -4.63135 0
M  V30 3052 H 290.335 -3.26717 -5.92946 0
M  V30 3053 H 294.977 -1.00753 -4.1062 0
M  V30 3054 H 292.695 -4.72565 -6.55521 0
M  V30 3055 H 296.281 -2.88386 -5.05297 0
M  V30 3056 H 295.161 -4.71845 -6.26364 0
M  V30 3057 N 292.664 1.56529 -0.183458 0
M  V30 3058 C 293.889 2.02064 0.467428 0
M  V30 3059 C 294.314 1.06282 1.55196 0
M  V30 3060 O 293.672 0.0443565 1.81246 0
M  V30 3061 C 293.72 3.46122 1.01153 0
M  V30 3062 O 292.824 3.53437 2.12499 0
M  V30 3063 H 292.165 0.654726 0.110588 0
M  V30 3064 H 294.695 2.02521 -0.290917 0
M  V30 3065 H 294.705 3.85676 1.33108 0
M  V30 3066 H 293.38 4.15331 0.217533 0
M  V30 3067 H 291.957 3.2575 1.81497 0
M  V30 3068 N 294.142 -0.090211 1.57342 0
M  V30 3069 C 295.089 -1.10909 2.02405 0
M  V30 3070 C 296.059 -1.39523 0.901252 0
M  V30 3071 O 297.244 -1.50903 1.1676 0
M  V30 3072 C 294.384 -2.42277 2.45755 0
M  V30 3073 C 293.497 -2.20352 3.71576 0
M  V30 3074 C 292.632 -3.45154 4.03785 0
M  V30 3075 C 291.671 -3.18512 5.22701 0
M  V30 3076 N 290.808 -4.35593 5.50639 0
M  V30 3077 H 295.648 -0.71782 2.89225 0
M  V30 3078 H 293.185 -0.342901 1.43048 0
M  V30 3079 H 295.143 -3.18951 2.68935 0
M  V30 3080 H 293.773 -2.79242 1.61938 0
M  V30 3081 H 292.825 -1.34458 3.55844 0
M  V30 3082 H 294.137 -1.96661 4.58395 0
M  V30 3083 H 293.291 -4.30233 4.27767 0
M  V30 3084 H 292.03 -3.71904 3.15498 0
M  V30 3085 H 291.035 -2.31827 4.98534 0
M  V30 3086 H 292.26 -2.93103 6.12591 0
M  V30 3087 H 290.206 -4.6241 4.6531 0
M  V30 3088 H 290.123 -4.1511 6.31838 0
M  V30 3089 H 291.391 -5.21723 5.7916 0
M  V30 3090 N 295.62 -1.53406 -0.361157 0
M  V30 3091 C 296.53 -1.83122 -1.4664 0
M  V30 3092 C 297.546 -0.719943 -1.58407 0
M  V30 3093 O 298.722 -1.01046 -1.74218 0
M  V30 3094 C 295.787 -2.01891 -2.81853 0
M  V30 3095 C 294.848 -3.25784 -2.79577 0
M  V30 3096 C 294.081 -3.43648 -4.0834 0
M  V30 3097 O 294.304 -2.65714 -5.0473 0
M  V30 3098 O 293.238 -4.37018 -4.13883 0
M  V30 3099 H 297.064 -2.7703 -1.24451 0
M  V30 3100 H 294.649 -1.38841 -0.551678 0
M  V30 3101 H 296.531 -2.15782 -3.61962 0
M  V30 3102 H 295.206 -1.11173 -3.0401 0
M  V30 3103 H 294.113 -3.17312 -1.98151 0
M  V30 3104 H 295.446 -4.16439 -2.62373 0
M  V30 3105 N 297.098 0.621204 -1.44841 0
M  V30 3106 C 298.045 1.73267 -1.5247 0
M  V30 3107 C 299.015 1.6189 -0.371611 0
M  V30 3108 O 300.2 1.81668 -0.58321 0
M  V30 3109 C 297.34 3.11545 -1.48438 0
M  V30 3110 C 296.453 3.33827 -2.74196 0
M  V30 3111 C 295.588 4.62133 -2.61929 0
M  V30 3112 C 294.627 4.77627 -3.82804 0
M  V30 3113 N 293.764 5.97219 -3.69153 0
M  V30 3114 H 298.604 1.66082 -2.47428 0
M  V30 3115 H 296.141 0.810026 -1.22788 0
M  V30 3116 H 298.099 3.91528 -1.4409 0
M  V30 3117 H 296.729 3.1772 -0.570402 0
M  V30 3118 H 295.781 2.47715 -2.88689 0
M  V30 3119 H 297.093 3.41153 -3.6389 0
M  V30 3120 H 296.247 5.50291 -2.5547 0
M  V30 3121 H 294.986 4.57182 -1.69811 0
M  V30 3122 H 293.991 3.87896 -3.89637 0
M  V30 3123 H 295.216 4.84385 -4.75971 0
M  V30 3124 H 293.162 5.93339 -2.79794 0
M  V30 3125 H 293.079 6.05644 -4.52472 0
M  V30 3126 H 294.347 6.87912 -3.66603 0
M  V30 3127 N 298.576 1.31904 0.862503 0
M  V30 3128 C 299.987 1.19803 1.43193 0
M  V30 3129 C 300.338 -0.192567 1.95253 0
M  V30 3130 O 299.463 -1.09081 1.86896 0
M  V30 3131 C 300.058 2.16883 2.60283 0
M  V30 3132 C 298.617 2.08692 3.13248 0
M  V30 3133 C 297.764 2.05691 1.85975 0
M  V30 3134 H 300.715 1.43846 0.670365 0
M  V30 3135 H 300.736 1.76278 3.37204 0
M  V30 3136 H 300.248 3.18083 2.22363 0
M  V30 3137 H 298.349 1.10713 3.55771 0
M  V30 3138 H 298.462 2.9815 3.75025 0
M  V30 3139 H 296.826 1.50814 2.05249 0
M  V30 3140 H 297.609 3.08659 1.50282 0
M  V30 3141 N 300.054 -1.07777 1.14986 0
M  V30 3142 C 301.001 -2.14867 0.842672 0
M  V30 3143 C 301.971 -1.6486 -0.202552 0
M  V30 3144 O 303.156 -1.90668 -0.0710568 0
M  V30 3145 C 300.296 -3.43486 0.333363 0
M  V30 3146 C 299.409 -4.07306 1.43965 0
M  V30 3147 C 298.544 -5.23744 0.886914 0
M  V30 3148 C 297.583 -5.79517 1.97043 0
M  V30 3149 N 296.72 -6.87291 1.4344 0
M  V30 3150 H 301.56 -2.40485 1.75986 0
M  V30 3151 H 299.097 -1.1801 0.878179 0
M  V30 3152 H 301.055 -4.17195 0.0198163 0
M  V30 3153 H 299.685 -3.18133 -0.546916 0
M  V30 3154 H 298.737 -3.31293 1.86946 0
M  V30 3155 H 300.049 -4.44771 2.25788 0
M  V30 3156 H 299.203 -6.04419 0.525651 0
M  V30 3157 H 297.942 -4.87685 0.0377957 0
M  V30 3158 H 296.947 -4.97491 2.34057 0
M  V30 3159 H 298.172 -6.17632 2.82325 0
M  V30 3160 H 296.118 -6.5318 0.607567 0
M  V30 3161 H 296.035 -7.23617 2.18895 0
M  V30 3162 H 297.303 -7.71682 1.10124 0
M  V30 3163 N 301.532 -0.945985 -1.26051 0
M  V30 3164 C 302.772 -0.603665 -1.95282 0
M  V30 3165 C 303.136 0.842377 -1.72534 0
M  V30 3166 O 304.337 1.29387 -2.35611 0
M  V30 3167 C 302.608 -0.942292 -3.44754 0
M  V30 3168 S 304.167 -0.711242 -4.32997 0
M  V30 3169 H 300.985 -0.222176 -0.675395 0
M  V30 3170 H 303.587 -1.21832 -1.52896 0
M  V30 3171 H 302.291 -1.99203 -3.58812 0
M  V30 3172 H 301.822 -0.317546 -3.92116 0
M  V30 3173 H 303.837 0.422221 -4.944 0
M  V30 3174 N 303.011 1.40521 -0.713556 0
M  V30 3175 C 304.257 2.01221 -0.252564 0
M  V30 3176 C 304.59 1.56444 1.1506 0
M  V30 3177 O 303.865 0.783597 1.78017 0
M  V30 3178 C 304.148 3.58582 -0.330332 0
M  V30 3179 C 304.001 4.13437 -1.77173 0
M  V30 3180 C 305.32 4.39079 0.299641 0
M  V30 3181 H 302.439 0.731077 -0.0932471 0
M  V30 3182 H 305.081 1.67026 -0.905673 0
M  V30 3183 H 303.231 3.87844 0.225737 0
M  V30 3184 H 304.903 3.9498 -2.38303 0
M  V30 3185 H 303.146 3.67801 -2.3001 0
M  V30 3186 H 303.817 5.22597 -1.77755 0
M  V30 3187 H 306.293 4.15735 -0.174139 0
M  V30 3188 H 305.169 5.4848 0.214771 0
M  V30 3189 H 305.43 4.19915 1.38288 0
M  V30 3190 N 304.489 0.459591 1.5075 0
M  V30 3191 C 305.399 -0.34613 2.32033 0
M  V30 3192 C 306.415 -1.00686 1.41909 0
M  V30 3193 O 307.591 -0.997361 1.7497 0
M  V30 3194 C 304.656 -1.42029 3.16273 0
M  V30 3195 C 303.717 -0.777362 4.22203 0
M  V30 3196 C 302.95 -1.80034 5.02418 0
M  V30 3197 O 303.173 -3.02544 4.83553 0
M  V30 3198 O 302.107 -1.37853 5.85901 0
M  V30 3199 H 305.933 0.318054 3.0203 0
M  V30 3200 H 303.518 0.221663 1.47746 0
M  V30 3201 H 305.4 -2.04275 3.68578 0
M  V30 3202 H 304.075 -2.06815 2.49016 0
M  V30 3203 H 302.982 -0.116256 3.73919 0
M  V30 3204 H 304.315 -0.172634 4.91897 0
M  V30 3205 N 305.967 -1.56429 0.191757 0
M  V30 3206 C 307.216 -1.9666 -0.448088 0
M  V30 3207 C 307.529 -1.08136 -1.62991 0
M  V30 3208 O 308.735 -1.38135 -2.33733 0
M  V30 3209 C 307.191 -3.49753 -0.848585 0
M  V30 3210 C 306.799 -4.46935 0.308764 0
M  V30 3211 C 308.543 -3.9876 -1.4557 0
M  V30 3212 C 306.45 -5.91293 -0.112506 0
M  V30 3213 H 305.38 -0.734312 -0.171179 0
M  V30 3214 H 308.031 -1.81301 0.283242 0
M  V30 3215 H 306.413 -3.60604 -1.63649 0
M  V30 3216 H 307.587 -4.47813 1.08627 0
M  V30 3217 H 305.902 -4.08102 0.827158 0
M  V30 3218 H 308.499 -5.04086 -1.78328 0
M  V30 3219 H 308.842 -3.42875 -2.36099 0
M  V30 3220 H 309.375 -3.9101 -0.731836 0
M  V30 3221 H 306.114 -6.51097 0.758514 0
M  V30 3222 H 305.634 -5.93676 -0.854941 0
M  V30 3223 H 307.313 -6.44663 -0.549448 0
M  V30 3224 N 307.445 0.0818655 -1.57387 0
M  V30 3225 C 308.67 0.799946 -1.91352 0
M  V30 3226 C 309.095 1.70833 -0.787258 0
M  V30 3227 O 308.453 1.79419 0.26048 0
M  V30 3228 C 308.501 1.57812 -3.24234 0
M  V30 3229 O 307.605 2.68806 -3.12757 0
M  V30 3230 H 306.946 0.21891 -0.626877 0
M  V30 3231 H 309.476 0.0531256 -2.04531 0
M  V30 3232 H 309.486 1.95952 -3.57864 0
M  V30 3233 H 308.161 0.911548 -4.05788 0
M  V30 3234 H 306.738 2.33597 -2.90666 0
M  V30 3235 N 308.923 1.53595 0.353017 0
M  V30 3236 C 310.163 1.72094 1.10286 0
M  V30 3237 C 310.527 0.469217 1.86178 0
M  V30 3238 O 311.728 0.531083 2.63501 0
M  V30 3239 C 309.999 2.94386 2.02661 0
M  V30 3240 S 311.558 3.33651 2.84996 0
M  V30 3241 H 308.376 0.605433 0.372789 0
M  V30 3242 H 310.978 1.91722 0.38248 0
M  V30 3243 H 309.682 3.83669 1.45691 0
M  V30 3244 H 309.213 2.77197 2.79152 0
M  V30 3245 H 311.228 2.86645 4.0503 0
M  V30 3246 N 310.401 -0.613514 1.45168 0
M  V30 3247 C 311.348 -1.72456 1.53387 0
M  V30 3248 C 312.318 -1.6169 0.380191 0
M  V30 3249 O 313.503 -1.81356 0.592836 0
M  V30 3250 C 310.643 -3.10753 1.50088 0
M  V30 3251 C 309.756 -3.32368 2.75963 0
M  V30 3252 C 308.891 -4.60737 2.64376 0
M  V30 3253 C 307.93 -4.7559 3.85332 0
M  V30 3254 N 307.067 -5.95253 3.72315 0
M  V30 3255 H 311.907 -1.64768 2.48305 0
M  V30 3256 H 309.444 -0.803503 1.23216 0
M  V30 3257 H 311.402 -3.90758 1.46164 0
M  V30 3258 H 310.032 -3.17413 0.587243 0
M  V30 3259 H 309.084 -2.4618 2.89999 0
M  V30 3260 H 310.396 -3.39218 3.65695 0
M  V30 3261 H 309.55 -5.48928 2.58385 0
M  V30 3262 H 308.289 -4.56275 1.72233 0
M  V30 3263 H 307.294 -3.85824 3.91688 0
M  V30 3264 H 308.519 -4.81854 4.78533 0
M  V30 3265 H 306.465 -5.91847 2.82937 0
M  V30 3266 H 306.382 -6.03236 4.55677 0
M  V30 3267 H 307.65 -6.85958 3.70246 0
M  V30 3268 N 311.879 -1.3236 -0.855495 0
M  V30 3269 C 313.104 -1.2601 -1.64731 0
M  V30 3270 C 313.529 0.169068 -1.87339 0
M  V30 3271 O 312.887 1.12016 -1.42556 0
M  V30 3272 C 312.935 -2.02417 -2.98429 0
M  V30 3273 O 312.039 -1.3714 -3.8893 0
M  V30 3274 H 311.38 -0.434325 -0.502253 0
M  V30 3275 H 313.91 -1.74661 -1.06558 0
M  V30 3276 H 313.92 -2.12559 -3.48257 0
M  V30 3277 H 312.595 -3.06343 -2.81295 0
M  V30 3278 H 311.172 -1.3554 -3.47395 0
M  V30 3279 N 313.357 1.07166 -1.15556 0
M  V30 3280 C 314.768 1.6127 -0.940693 0
M  V30 3281 C 315.119 1.89251 0.517551 0
M  V30 3282 O 314.244 1.65937 1.38903 0
M  V30 3283 C 314.839 2.92993 -1.7012 0
M  V30 3284 C 313.398 3.43832 -1.53156 0
M  V30 3285 C 312.545 2.1786 -1.71558 0
M  V30 3286 H 315.496 0.90229 -1.30554 0
M  V30 3287 H 315.517 3.62007 -1.17181 0
M  V30 3288 H 315.029 2.72596 -2.76248 0
M  V30 3289 H 313.13 3.69307 -0.494294 0
M  V30 3290 H 313.243 4.19747 -2.30975 0
M  V30 3291 H 311.607 2.2765 -1.14225 0
M  V30 3292 H 312.39 1.99956 -2.79056 0
M  V30 3293 N 314.835 0.952656 1.25548 0
M  V30 3294 C 316.112 0.523818 1.88456 0
M  V30 3295 C 316.492 -0.998871 1.85973 0
M  V30 3296 O 315.84 -1.86381 1.3219 0
M  V30 3297 C 316.05 1.0982 3.31271 0
M  V30 3298 C 317.398 1.17385 4.08051 0
M  V30 3299 O 318.422 1.04961 3.40384 0
M  V30 3300 O 317.281 1.36852 5.29088 0
M  V30 3301 H 314.375 0.172485 0.808813 0
M  V30 3302 H 316.921 1.04596 1.33633 0
M  V30 3303 H 315.693 2.1415 3.27499 0
M  V30 3304 H 315.316 0.559191 3.93648 0
M  V30 3305 N 316.313 -1.40141 0.720998 0
M  V30 3306 C 317.559 -2.01084 0.263231 0
M  V30 3307 C 317.892 -1.57052 -1.14229 0
M  V30 3308 O 317.167 -0.793027 -1.77599 0
M  V30 3309 C 317.45 -3.58401 0.349344 0
M  V30 3310 C 317.303 -4.12491 1.79363 0
M  V30 3311 C 318.622 -4.39231 -0.276351 0
M  V30 3312 H 315.741 -0.730572 0.0971228 0
M  V30 3313 H 318.383 -1.66543 0.914518 0
M  V30 3314 H 316.533 -3.87958 -0.205165 0
M  V30 3315 H 318.205 -3.93711 2.40394 0
M  V30 3316 H 316.448 -3.66576 2.31958 0
M  V30 3317 H 317.119 -5.21646 1.80524 0
M  V30 3318 H 319.595 -4.15637 0.196184 0
M  V30 3319 H 318.471 -5.48586 -0.185681 0
M  V30 3320 H 318.732 -4.20643 -1.36059 0
M  V30 3321 N 317.792 -0.46758 -1.50504 0
M  V30 3322 C 319.041 0.0902868 -2.01498 0
M  V30 3323 C 319.354 1.411 -1.35463 0
M  V30 3324 O 320.56 2.0536 -1.77594 0
M  V30 3325 C 319.016 0.21142 -3.59278 0
M  V30 3326 C 318.624 -1.10065 -4.34269 0
M  V30 3327 C 320.368 0.721433 -4.18325 0
M  V30 3328 C 318.275 -0.943505 -5.83825 0
M  V30 3329 H 317.205 0.037517 -0.753066 0
M  V30 3330 H 319.856 -0.601943 -1.73346 0
M  V30 3331 H 318.238 0.967352 -3.84003 0
M  V30 3332 H 319.412 -1.86726 -4.21272 0
M  V30 3333 H 317.727 -1.5415 -3.86816 0
M  V30 3334 H 320.324 0.85598 -5.27804 0
M  V30 3335 H 320.667 1.71186 -3.79475 0
M  V30 3336 H 321.2 0.0229843 -3.97793 0
M  V30 3337 H 317.939 -1.90719 -6.27141 0
M  V30 3338 H 317.459 -0.217213 -5.99407 0
M  V30 3339 H 319.138 -0.608715 -6.4413 0
M  V30 3340 N 319.27 1.56325 -0.20005 0
M  V30 3341 C 320.218 2.20666 0.735482 0
M  V30 3342 C 321.212 1.17934 1.21605 0
M  V30 3343 O 322.418 1.36068 1.17837 0
M  V30 3344 H 318.793 0.70725 0.255542 0
M  V30 3345 H 320.764 2.9792 0.169166 0
M  V30 3346 C 319.513 2.88391 1.94232 0
M  V30 3347 H 318.836 3.67185 1.58161 0
M  V30 3348 H 320.276 3.3684 2.57517 0
M  V30 3349 C 318.735 1.89692 2.78421 0
M  V30 3350 O 319.265 1.40032 3.76502 0
M  V30 3351 N 317.471 1.57813 2.44015 0
M  V30 3352 H 317.018 1.9839 1.64314 0
M  V30 3353 H 316.976 0.920325 3.00628 0
M  V30 3354 N 320.748 -0.0735177 1.57428 0
M  V30 3355 C 321.996 -0.771472 1.86796 0
M  V30 3356 C 322.317 -1.78201 0.791804 0
M  V30 3357 O 321.587 -1.95074 -0.179718 0
M  V30 3358 H 320.167 -0.28791 0.689287 0
M  V30 3359 H 322.829 -0.0500161 1.94836 0
M  V30 3360 H 321.925 -1.28874 2.8425 0
M  V30 3361 N 322.226 -1.5378 -0.344866 0
M  V30 3362 C 323.451 -1.75211 -1.10977 0
M  V30 3363 C 323.876 -0.48936 -1.81623 0
M  V30 3364 O 323.234 0.557925 -1.72502 0
M  V30 3365 C 323.282 -2.93147 -2.09993 0
M  V30 3366 O 322.386 -2.63203 -3.17487 0
M  V30 3367 H 321.727 -0.581241 -0.321021 0
M  V30 3368 H 324.257 -2.00738 -0.395661 0
M  V30 3369 H 324.267 -3.19898 -2.53237 0
M  V30 3370 H 322.942 -3.84731 -1.5797 0
M  V30 3371 H 321.519 -2.47336 -2.79069 0
M  V30 3372 N 323.704 0.605807 -1.45491 0
M  V30 3373 C 325.115 1.18777 -1.44045 0
M  V30 3374 C 325.466 1.95471 -0.169001 0
M  V30 3375 O 324.591 2.0374 0.729324 0
M  V30 3376 C 325.186 2.16064 -2.60963 0
M  V30 3377 C 323.745 2.69633 -2.62631 0
M  V30 3378 C 322.892 1.45072 -2.36325 0
M  V30 3379 H 325.843 0.395017 -1.53705 0
M  V30 3380 H 325.864 2.9913 -2.35163 0
M  V30 3381 H 325.376 1.60217 -3.53486 0
M  V30 3382 H 323.477 3.29414 -1.74119 0
M  V30 3383 H 323.59 3.13944 -3.61906 0
M  V30 3384 H 321.954 1.74089 -1.85917 0
M  V30 3385 H 322.737 0.910899 -3.30995 0
M  V30 3386 N 325.182 1.32811 0.848464 0
M  V30 3387 C 326.431 1.23075 1.59798 0
M  V30 3388 C 326.744 -0.204419 1.94529 0
M  V30 3389 O 327.95 -0.423701 2.68173 0
M  V30 3390 C 326.406 2.15594 2.88179 0
M  V30 3391 C 326.014 3.64228 2.60849 0
M  V30 3392 C 327.758 2.14709 3.66197 0
M  V30 3393 C 325.665 4.48689 3.85269 0
M  V30 3394 H 324.595 0.457091 0.599653 0
M  V30 3395 H 327.246 1.57813 0.936342 0
M  V30 3396 H 325.628 1.73778 3.55833 0
M  V30 3397 H 326.802 4.14424 2.01467 0
M  V30 3398 H 325.117 3.67306 1.96151 0
M  V30 3399 H 327.714 2.75046 4.58534 0
M  V30 3400 H 328.057 1.13966 4.00397 0
M  V30 3401 H 328.59 2.54837 3.05455 0
M  V30 3402 H 325.329 5.5027 3.56207 0
M  V30 3403 H 324.849 4.03241 4.44024 0
M  V30 3404 H 326.528 4.62006 4.52946 0
M  V30 3405 N 326.66 -1.06551 1.16123 0
M  V30 3406 C 327.885 -1.83544 0.965735 0
M  V30 3407 C 328.31 -1.81843 -0.481102 0
M  V30 3408 O 327.668 -1.21732 -1.34354 0
M  V30 3409 C 327.716 -3.28169 1.49457 0
M  V30 3410 O 326.82 -4.0643 0.699157 0
M  V30 3411 H 326.161 -0.568026 0.343864 0
M  V30 3412 H 328.691 -1.34362 1.54299 0
M  V30 3413 H 328.701 -3.78992 1.51092 0
M  V30 3414 H 327.376 -3.28722 2.54784 0
M  V30 3415 H 325.953 -3.65216 0.7531 0
M  V30 3416 N 328.138 -0.959301 -1.25041 0
M  V30 3417 C 329.07 -0.440543 -2.24926 0
M  V30 3418 C 330.083 0.446131 -1.56568 0
M  V30 3419 O 331.272 0.253657 -1.76689 0
M  V30 3420 C 328.372 0.38412 -3.36716 0
M  V30 3421 C 327.545 -0.490658 -4.34639 0
M  V30 3422 C 326.604 0.276587 -5.25473 0
M  V30 3423 O 325.63 -0.326614 -5.68262 0
M  V30 3424 N 326.832 1.56844 -5.5891 0
M  V30 3425 H 329.597 -1.29931 -2.70071 0
M  V30 3426 H 327.158 -0.830181 -1.38995 0
M  V30 3427 H 329.15 0.905228 -3.94446 0
M  V30 3428 H 327.72 1.14377 -2.90924 0
M  V30 3429 H 326.94 -1.19282 -3.7572 0
M  V30 3430 H 328.228 -1.08756 -4.97041 0
M  V30 3431 H 327.626 2.08036 -5.26059 0
M  V30 3432 H 326.183 2.03541 -6.19205 0
M  V30 3433 N 329.616 1.39756 -0.72842 0
M  V30 3434 C 330.563 2.30647 -0.0841519 0
M  V30 3435 C 331.533 1.48869 0.7367 0
M  V30 3436 O 332.718 1.77574 0.698015 0
M  V30 3437 C 329.858 3.35165 0.822091 0
M  V30 3438 C 328.971 4.31999 -0.0106663 0
M  V30 3439 C 328.106 5.23585 0.896241 0
M  V30 3440 C 327.145 6.12072 0.0583381 0
M  V30 3441 N 326.282 6.96035 0.920818 0
M  V30 3442 H 331.122 2.85173 -0.864891 0
M  V30 3443 H 328.659 1.40422 -0.438179 0
M  V30 3444 H 330.617 3.94345 1.36189 0
M  V30 3445 H 329.247 2.8211 1.56888 0
M  V30 3446 H 328.299 3.74492 -0.66781 0
M  V30 3447 H 329.611 4.9443 -0.658825 0
M  V30 3448 H 328.765 5.87759 1.50412 0
M  V30 3449 H 327.504 4.61459 1.57819 0
M  V30 3450 H 326.509 5.46916 -0.562389 0
M  V30 3451 H 327.734 6.76261 -0.6203 0
M  V30 3452 H 325.68 6.36485 1.58818 0
M  V30 3453 H 325.597 7.55284 0.32899 0
M  V30 3454 H 326.865 7.64646 1.51447 0
M  V30 3455 N 331.094 0.475555 1.50254 0
M  V30 3456 C 332.343 -0.0795996 2.01543 0
M  V30 3457 C 332.656 -1.4038 1.36209 0
M  V30 3458 O 333.862 -2.04415 1.7868 0
M  V30 3459 C 332.318 -0.192363 3.59386 0
M  V30 3460 C 331.926 1.12367 4.33679 0
M  V30 3461 C 333.67 -0.699238 4.18701 0
M  V30 3462 C 331.577 0.974453 5.83317 0
M  V30 3463 H 330.507 -0.0335228 0.753254 0
M  V30 3464 H 333.158 0.611128 1.73025 0
M  V30 3465 H 331.54 -0.946974 3.84511 0
M  V30 3466 H 332.714 1.88958 4.20276 0
M  V30 3467 H 331.029 1.562 3.85993 0
M  V30 3468 H 333.626 -0.827978 5.28251 0
M  V30 3469 H 333.969 -1.69171 3.80377 0
M  V30 3470 H 334.502 -0.00188807 3.978 0
M  V30 3471 H 331.241 1.94042 6.26121 0
M  V30 3472 H 330.761 0.248998 5.99283 0
M  V30 3473 H 332.44 0.642867 6.43798 0
M  V30 3474 N 332.573 -1.56217 0.208337 0
M  V30 3475 C 333.822 -1.97124 -0.427204 0
M  V30 3476 C 334.135 -1.09859 -1.61835 0
M  V30 3477 O 335.341 -1.40606 -2.32255 0
M  V30 3478 C 333.797 -3.50633 -0.811442 0
M  V30 3479 C 333.405 -4.46582 0.35615 0
M  V30 3480 C 335.149 -4.00282 -1.41332 0
M  V30 3481 C 333.056 -5.91379 -0.0497852 0
M  V30 3482 H 331.986 -0.736086 -0.163381 0
M  V30 3483 H 334.637 -1.8099 0.302456 0
M  V30 3484 H 333.019 -3.62319 -1.59815 0
M  V30 3485 H 334.193 -4.46636 1.1337 0
M  V30 3486 H 332.508 -4.07202 0.870396 0
M  V30 3487 H 335.105 -5.0595 -1.72972 0
M  V30 3488 H 335.448 -3.45359 -2.32449 0
M  V30 3489 H 335.981 -3.91764 -0.690323 0
M  V30 3490 H 332.72 -6.50255 0.827529 0
M  V30 3491 H 332.24 -5.94549 -0.791926 0
M  V30 3492 H 333.919 -6.45209 -0.481042 0
M  V30 3493 N 334.051 0.0651679 -1.57465 0
M  V30 3494 C 335.281 0.774683 -1.91526 0
M  V30 3495 C 335.689 1.71305 -0.803196 0
M  V30 3496 O 335.032 1.82231 0.231881 0
M  V30 3497 C 335.094 1.61645 -3.21109 0
M  V30 3498 C 334.758 0.846753 -4.49087 0
M  V30 3499 C 335.755 0.163024 -5.19644 0
M  V30 3500 C 333.44 0.811966 -4.95694 0
M  V30 3501 C 335.434 -0.54519 -6.35064 0
M  V30 3502 C 333.121 0.0999836 -6.11018 0
M  V30 3503 C 334.119 -0.577388 -6.80555 0
M  V30 3504 O 333.807 -1.27789 -7.93678 0
M  V30 3505 H 333.539 0.225031 -0.637446 0
M  V30 3506 H 336.093 0.0377134 -2.05365 0
M  V30 3507 H 334.323 2.39638 -3.03497 0
M  V30 3508 H 336.012 2.20525 -3.40769 0
M  V30 3509 H 336.778 0.181163 -4.84662 0
M  V30 3510 H 332.657 1.32867 -4.41438 0
M  V30 3511 H 336.201 -1.07446 -6.89276 0
M  V30 3512 H 332.098 0.0797945 -6.45451 0
M  V30 3513 H 332.866 -1.18784 -8.09835 0
M  V30 3514 N 335.529 1.53961 0.336706 0
M  V30 3515 C 336.476 1.82428 1.41381 0
M  V30 3516 C 337.446 0.670444 1.51968 0
M  V30 3517 O 338.631 0.915565 1.67398 0
M  V30 3518 C 335.771 2.04564 2.77934 0
M  V30 3519 C 334.884 3.32267 2.76084 0
M  V30 3520 C 334.019 3.44434 4.04399 0
M  V30 3521 C 333.058 4.66061 3.96804 0
M  V30 3522 N 332.195 4.75224 5.16823 0
M  V30 3523 H 337.035 2.74324 1.16405 0
M  V30 3524 H 334.572 1.35869 0.563752 0
M  V30 3525 H 336.53 2.15388 3.57301 0
M  V30 3526 H 335.16 1.15974 3.01247 0
M  V30 3527 H 334.212 3.3025 1.88784 0
M  V30 3528 H 335.524 4.21733 2.66351 0
M  V30 3529 H 334.678 3.54728 4.92192 0
M  V30 3530 H 333.417 2.53037 4.16921 0
M  V30 3531 H 332.422 4.55838 3.07396 0
M  V30 3532 H 333.647 5.58829 3.85858 0
M  V30 3533 H 331.593 3.86739 5.29876 0
M  V30 3534 H 331.51 5.58636 5.09374 0
M  V30 3535 H 332.778 4.89835 6.06367 0
M  V30 3536 N 337.007 -0.598083 1.45811 0
M  V30 3537 C 337.917 -1.73632 1.57763 0
M  V30 3538 C 338.933 -1.67763 0.461676 0
M  V30 3539 O 340.109 -1.87949 0.723685 0
M  V30 3540 C 337.174 -3.10114 1.55018 0
M  V30 3541 C 336.235 -3.27364 2.77726 0
M  V30 3542 C 335.468 -4.57334 2.75102 0
M  V30 3543 O 335.691 -5.40258 1.8297 0
M  V30 3544 O 334.625 -4.77502 3.66437 0
M  V30 3545 H 338.451 -1.66498 2.53992 0
M  V30 3546 H 336.036 -0.763308 1.28429 0
M  V30 3547 H 337.918 -3.9141 1.56129 0
M  V30 3548 H 336.593 -3.17718 0.619431 0
M  V30 3549 H 335.5 -2.45619 2.82174 0
M  V30 3550 H 336.833 -3.24641 3.69958 0
M  V30 3551 N 338.485 -1.33259 -0.841409 0
M  V30 3552 C 339.433 -1.23279 -1.97244 0
M  V30 3553 C 340.427 -0.134706 -1.68864 0
M  V30 3554 O 341.633 -0.298501 -1.77508 0
M  V30 3555 H 338.008 -0.382497 -0.647457 0
M  V30 3556 H 339.979 -2.18906 -2.02787 0
M  V30 3557 C 338.728 -0.986268 -3.33419 0
M  V30 3558 H 338.051 -1.82347 -3.55794 0
M  V30 3559 H 339.491 -0.956728 -4.13065 0
M  V30 3560 C 337.95 0.310842 -3.35463 0
M  V30 3561 O 338.48 1.31838 -3.79449 0
M  V30 3562 N 336.686 0.337485 -2.88634 0
M  V30 3563 H 336.233 -0.482967 -2.53032 0
M  V30 3564 H 336.191 1.20518 -2.90384 0
M  V30 3565 N 339.963 1.05934 -1.16686 0
M  V30 3566 C 340.873 2.17014 -0.891183 0
M  V30 3567 C 341.889 1.73453 0.137907 0
M  V30 3568 O 343.065 2.01361 -0.039592 0
M  V30 3569 C 340.13 3.44384 -0.400099 0
M  V30 3570 C 339.191 4.02433 -1.49486 0
M  V30 3571 C 338.424 5.23723 -1.02711 0
M  V30 3572 O 338.647 5.7027 0.121716 0
M  V30 3573 O 337.581 5.7382 -1.81699 0
M  V30 3574 H 341.407 2.43113 -1.82015 0
M  V30 3575 H 338.992 1.15541 -0.947132 0
M  V30 3576 H 340.874 4.21189 -0.133392 0
M  V30 3577 H 339.549 3.19802 0.500817 0
M  V30 3578 H 338.456 3.27102 -1.81535 0
M  V30 3579 H 339.789 4.31317 -2.37121 0
M  V30 3580 N 341.441 0.965919 1.2453 0
M  V30 3581 C 342.857 0.67216 1.44756 0
M  V30 3582 C 343.057 -0.766609 1.86347 0
M  V30 3583 O 342.113 -1.5407 2.00047 0
M  V30 3584 C 343.426 1.65473 2.51076 0
M  V30 3585 C 344.974 1.66716 2.64905 0
M  V30 3586 C 345.449 2.63766 3.74421 0
M  V30 3587 N 346.94 2.62198 3.81846 0
M  V30 3588 C 347.675 3.33966 4.66106 0
M  V30 3589 N 347.171 4.15245 5.54566 0
M  V30 3590 N 348.964 3.22799 4.60171 0
M  V30 3591 H 341.115 1.89553 0.958293 0
M  V30 3592 H 343.378 0.815979 0.482579 0
M  V30 3593 H 343.084 2.68296 2.27399 0
M  V30 3594 H 342.958 1.4261 3.49202 0
M  V30 3595 H 345.345 0.646057 2.87941 0
M  V30 3596 H 345.426 1.93642 1.67142 0
M  V30 3597 H 345.07 3.6601 3.52135 0
M  V30 3598 H 345 2.34121 4.71694 0
M  V30 3599 H 347.491 2.032 3.18619 0
M  V30 3600 H 347.804 4.66898 6.15814 0
M  V30 3601 H 346.149 4.1934 5.54237 0
M  V30 3602 H 349.34 2.58764 3.90075 0
M  V30 3603 H 349.513 3.78994 5.25612 0
M  V30 3604 N 342.919 -1.39368 0.735821 0
M  V30 3605 C 344.166 -2.00497 0.284123 0
M  V30 3606 C 344.494 -1.58387 -1.12889 0
M  V30 3607 O 343.749 -0.804359 -1.78406 0
M  V30 3608 C 344.048 -3.5583 0.334651 0
M  V30 3609 C 343.714 -4.17593 1.7008 0
M  V30 3610 C 342.376 -4.34176 2.07472 0
M  V30 3611 C 344.728 -4.51848 2.59775 0
M  V30 3612 C 342.056 -4.82304 3.34065 0
M  V30 3613 C 344.408 -5.01384 3.85741 0
M  V30 3614 C 343.072 -5.16175 4.23225 0
M  V30 3615 H 342.342 -0.73367 0.103968 0
M  V30 3616 H 344.989 -1.66683 0.942825 0
M  V30 3617 H 343.294 -3.89674 -0.407625 0
M  V30 3618 H 344.991 -4.00986 -0.0329927 0
M  V30 3619 H 341.581 -4.05087 1.40008 0
M  V30 3620 H 345.765 -4.38653 2.32157 0
M  V30 3621 H 341.021 -4.91941 3.63049 0
M  V30 3622 H 345.195 -5.26863 4.55399 0
M  V30 3623 H 342.822 -5.5323 5.21384 0
M  V30 3624 N 344.397 -0.483516 -1.5 0
M  V30 3625 C 345.329 0.340634 -2.26655 0
M  V30 3626 C 346.342 0.946152 -1.32483 0
M  V30 3627 O 347.531 0.832453 -1.579 0
M  V30 3628 C 344.631 1.4929 -3.04246 0
M  V30 3629 C 343.804 0.997903 -4.25865 0
M  V30 3630 C 342.863 2.02569 -4.85646 0
M  V30 3631 O 341.889 1.60128 -5.46212 0
M  V30 3632 N 343.091 3.3548 -4.73744 0
M  V30 3633 H 345.856 -0.316577 -2.98023 0
M  V30 3634 H 343.417 -0.315024 -1.58806 0
M  V30 3635 H 345.409 2.17766 -3.41116 0
M  V30 3636 H 343.979 2.05458 -2.35597 0
M  V30 3637 H 343.199 0.138617 -3.93956 0
M  V30 3638 H 344.487 0.645305 -5.04691 0
M  V30 3639 H 343.885 3.72661 -4.25605 0
M  V30 3640 H 342.442 3.99718 -5.14848 0
M  V30 3641 N 345.875 1.56104 -0.216619 0
M  V30 3642 C 347.105 2.02269 0.420802 0
M  V30 3643 C 347.513 1.09575 1.5424 0
M  V30 3644 O 346.856 0.0967308 1.83445 0
M  V30 3645 C 346.918 3.44784 1.01806 0
M  V30 3646 C 346.582 4.56988 0.0325154 0
M  V30 3647 C 347.579 5.14225 -0.766055 0
M  V30 3648 C 345.264 5.02228 -0.0848092 0
M  V30 3649 C 347.258 6.15169 -1.6687 0
M  V30 3650 C 344.945 6.03011 -0.990994 0
M  V30 3651 C 345.943 6.59357 -1.78149 0
M  V30 3652 O 345.631 7.58179 -2.67245 0
M  V30 3653 H 345.363 0.667353 0.107776 0
M  V30 3654 H 347.917 2.02747 -0.329034 0
M  V30 3655 H 346.147 3.41359 1.81689 0
M  V30 3656 H 347.836 3.74626 1.56237 0
M  V30 3657 H 348.602 4.80126 -0.685836 0
M  V30 3658 H 344.481 4.58054 0.520349 0
M  V30 3659 H 348.025 6.59076 -2.28615 0
M  V30 3660 H 343.922 6.36532 -1.07225 0
M  V30 3661 H 344.69 7.75682 -2.61265 0
M  V30 3662 N 347.353 -0.0568162 1.57498 0
M  V30 3663 C 348.3 -1.06591 2.04712 0
M  V30 3664 C 349.27 -1.3758 0.930644 0
M  V30 3665 O 350.455 -1.48392 1.19935 0
M  V30 3666 C 347.595 -2.3701 2.50839 0
M  V30 3667 C 346.708 -2.12421 3.76167 0
M  V30 3668 C 345.843 -3.36511 4.11015 0
M  V30 3669 C 344.882 -3.07353 5.2934 0
M  V30 3670 N 344.019 -4.23816 5.59754 0
M  V30 3671 H 348.859 -0.65631 2.90683 0
M  V30 3672 H 346.396 -0.312481 1.43743 0
M  V30 3673 H 348.354 -3.13175 2.7564 0
M  V30 3674 H 346.984 -2.75744 1.67825 0
M  V30 3675 H 346.036 -1.2688 3.58616 0
M  V30 3676 H 347.348 -1.86894 4.62463 0
M  V30 3677 H 346.502 -4.21062 4.36797 0
M  V30 3678 H 345.241 -3.65128 3.23315 0
M  V30 3679 H 344.246 -2.212 5.03339 0
M  V30 3680 H 345.471 -2.80043 6.1867 0
M  V30 3681 H 343.417 -4.52436 4.75014 0
M  V30 3682 H 343.334 -4.01614 6.40501 0
M  V30 3683 H 344.602 -5.0932 5.90096 0
M  V30 3684 N 348.832 -1.54138 -0.328536 0
M  V30 3685 C 350.072 -1.73827 -1.07534 0
M  V30 3686 C 350.436 -0.498777 -1.85408 0
M  V30 3687 O 351.637 -0.572937 -2.62623 0
M  V30 3688 C 349.908 -2.97573 -1.97952 0
M  V30 3689 S 351.467 -3.38143 -2.79652 0
M  V30 3690 H 348.285 -0.611287 -0.36311 0
M  V30 3691 H 350.887 -1.92306 -0.351931 0
M  V30 3692 H 349.591 -3.85939 -1.39569 0
M  V30 3693 H 349.122 -2.81603 -2.74706 0
M  V30 3694 H 351.137 -2.93052 -4.00418 0
M  V30 3695 N 350.31 0.590341 -1.46126 0
M  V30 3696 C 351.258 1.72105 -1.5647 0
M  V30 3697 C 352.252 1.63756 -0.433612 0
M  V30 3698 O 353.458 1.69342 -0.610194 0
M  V30 3699 H 349.833 0.568889 -0.491802 0
M  V30 3700 H 351.804 1.6051 -2.51553 0
M  V30 3701 C 350.553 3.10493 -1.56491 0
M  V30 3702 H 349.876 3.17583 -2.4286 0
M  V30 3703 H 351.316 3.8939 -1.67785 0
M  V30 3704 C 349.775 3.3563 -0.292231 0
M  V30 3705 O 350.305 3.96875 0.620739 0
M  V30 3706 N 348.511 2.90026 -0.182523 0
M  V30 3707 H 348.058 2.40367 -0.926356 0
M  V30 3708 H 348.016 3.07218 0.668152 0
M  V30 3709 N 351.788 1.33704 0.83433 0
M  V30 3710 C 352.721 1.18675 1.94914 0
M  V30 3711 C 353.699 0.0811145 1.62398 0
M  V30 3712 O 354.883 0.244186 1.86912 0
M  V30 3713 C 352.01 0.821231 3.28593 0
M  V30 3714 C 351.056 1.93501 3.80079 0
M  V30 3715 S 351.889 3.54671 4.01209 0
M  V30 3716 C 353.045 3.20136 5.37833 0
M  V30 3717 H 353.278 2.13043 2.07364 0
M  V30 3718 H 350.811 1.18598 0.988624 0
M  V30 3719 H 352.769 0.617123 4.05835 0
M  V30 3720 H 351.43 -0.103927 3.13928 0
M  V30 3721 H 350.623 1.63273 4.76821 0
M  V30 3722 H 350.225 2.09601 3.09747 0
M  V30 3723 H 352.517 2.71242 6.20833 0
M  V30 3724 H 353.46 4.15975 5.73036 0
M  V30 3725 H 353.868 2.56613 5.02802 0
M  V30 3726 N 353.266 -1.05314 1.17247 0
M  V30 3727 C 354.514 -1.77941 0.958194 0
M  V30 3728 C 354.835 -1.88089 -0.514556 0
M  V30 3729 O 354.105 -1.39676 -1.37359 0
M  V30 3730 H 352.685 -0.659116 0.351533 0
M  V30 3731 H 355.347 -1.27166 1.47699 0
M  V30 3732 H 354.443 -2.79663 1.38546 0
M  V30 3733 N 354.744 -0.972509 -1.24016 0
M  V30 3734 C 355.974 -0.653853 -1.9598 0
M  V30 3735 C 356.382 0.781801 -1.72292 0
M  V30 3736 O 355.725 1.53677 -1.00644 0
M  V30 3737 C 355.787 -0.854608 -3.49194 0
M  V30 3738 C 355.451 -2.27082 -3.96589 0
M  V30 3739 C 356.448 -3.24892 -4.05883 0
M  V30 3740 C 354.133 -2.5998 -4.29786 0
M  V30 3741 C 356.127 -4.53684 -4.47716 0
M  V30 3742 C 353.814 -3.88997 -4.71301 0
M  V30 3743 C 354.812 -4.85661 -4.80232 0
M  V30 3744 O 354.5 -6.12376 -5.20818 0
M  V30 3745 H 354.232 -0.242572 -0.630979 0
M  V30 3746 H 356.786 -1.30431 -1.58673 0
M  V30 3747 H 355.016 -0.146985 -3.86421 0
M  V30 3748 H 356.705 -0.534311 -4.02368 0
M  V30 3749 H 357.471 -3.00805 -3.80449 0
M  V30 3750 H 353.35 -1.85457 -4.22051 0
M  V30 3751 H 356.894 -5.29135 -4.54601 0
M  V30 3752 H 352.791 -4.12882 -4.96184 0
M  V30 3753 H 353.559 -6.16013 -5.38953 0
M  V30 3754 N 356.222 1.38976 -0.743202 0
M  V30 3755 C 357.132 2.3434 -0.110399 0
M  V30 3756 C 358.148 1.58741 0.712559 0
M  V30 3757 O 359.324 1.9099 0.639125 0
M  V30 3758 C 356.389 3.37812 0.780012 0
M  V30 3759 C 355.45 4.29263 -0.0561319 0
M  V30 3760 C 354.683 5.27793 0.791875 0
M  V30 3761 O 354.906 5.33043 2.03031 0
M  V30 3762 O 353.84 6.01512 0.216183 0
M  V30 3763 H 357.666 2.90129 -0.897714 0
M  V30 3764 H 355.251 1.40643 -0.503966 0
M  V30 3765 H 357.133 4.01194 1.28923 0
M  V30 3766 H 355.808 2.84395 1.546 0
M  V30 3767 H 354.715 3.69076 -0.611056 0
M  V30 3768 H 356.048 4.85907 -0.784531 0
M  V30 3769 N 357.7 0.491464 1.49741 0
M  V30 3770 C 358.93 -0.0534375 2.06531 0
M  V30 3771 C 359.338 -1.32233 1.35318 0
M  V30 3772 O 358.681 -1.78781 0.422243 0
M  V30 3773 C 358.743 -0.387034 3.57411 0
M  V30 3774 C 358.407 0.782764 4.50246 0
M  V30 3775 C 359.404 1.67059 4.92329 0
M  V30 3776 C 357.089 0.978866 4.9267 0
M  V30 3777 C 359.083 2.73874 5.75562 0
M  V30 3778 C 356.77 2.05022 5.75682 0
M  V30 3779 C 357.768 2.92851 6.17031 0
M  V30 3780 O 357.456 3.98138 6.98385 0
M  V30 3781 H 357.188 0.0129324 0.675876 0
M  V30 3782 H 359.742 0.685238 1.93633 0
M  V30 3783 H 357.972 -1.17918 3.68283 0
M  V30 3784 H 359.661 -0.869419 3.96479 0
M  V30 3785 H 360.427 1.53086 4.60206 0
M  V30 3786 H 356.306 0.304646 4.59992 0
M  V30 3787 H 359.85 3.42458 6.07757 0
M  V30 3788 H 355.747 2.18993 6.07217 0
M  V30 3789 H 356.515 3.95374 7.16674 0
M  V30 3790 N 359.178 -1.55987 0.224894 0
M  V30 3791 C 360.403 -2.03232 -0.41369 0
M  V30 3792 C 360.828 -1.10359 -1.52323 0
M  V30 3793 O 360.186 -0.092395 -1.81064 0
M  V30 3794 C 360.234 -3.48682 -0.919405 0
M  V30 3795 O 359.338 -3.58947 -2.03054 0
M  V30 3796 H 358.679 -0.657428 -0.0931903 0
M  V30 3797 H 361.209 -2.01679 0.34451 0
M  V30 3798 H 361.219 -3.8907 -1.22835 0
M  V30 3799 H 359.894 -4.15761 -0.107339 0
M  V30 3800 H 358.471 -3.30448 -1.72796 0
M  V30 3801 N 360.656 0.0484629 -1.57525 0
M  V30 3802 C 361.566 1.07241 -2.08654 0
M  V30 3803 C 362.582 1.409 -1.02095 0
M  V30 3804 O 363.758 1.50609 -1.33712 0
M  V30 3805 C 360.823 2.36008 -2.5397 0
M  V30 3806 C 359.884 2.09108 -3.7493 0
M  V30 3807 C 359.117 3.31736 -4.18075 0
M  V30 3808 O 359.34 4.41714 -3.60895 0
M  V30 3809 O 358.274 3.18576 -5.10679 0
M  V30 3810 H 362.1 0.667965 -2.96263 0
M  V30 3811 H 359.685 0.26417 -1.47046 0
M  V30 3812 H 361.567 3.11747 -2.83535 0
M  V30 3813 H 360.242 2.75786 -1.69481 0
M  V30 3814 H 359.149 1.31 -3.50414 0
M  V30 3815 H 360.482 1.74198 -4.60343 0
M  V30 3816 N 362.134 1.5431 0.320358 0
M  V30 3817 C 363.55 1.45091 0.664889 0
M  V30 3818 C 363.75 0.626382 1.91517 0
M  V30 3819 O 362.806 0.126443 2.52183 0
M  V30 3820 C 364.119 2.88848 0.83591 0
M  V30 3821 C 365.667 2.9877 0.933046 0
M  V30 3822 C 366.142 4.43683 1.13621 0
M  V30 3823 N 367.633 4.47309 1.20287 0
M  V30 3824 C 368.368 5.56595 1.37801 0
M  V30 3825 N 367.864 6.75844 1.52338 0
M  V30 3826 N 369.657 5.44248 1.40535 0
M  V30 3827 H 361.808 2.06398 -0.501374 0
M  V30 3828 H 364.071 0.933963 -0.162534 0
M  V30 3829 H 363.777 3.51698 -0.0116092 0
M  V30 3830 H 363.651 3.35148 1.73078 0
M  V30 3831 H 366.038 2.36045 1.77107 0
M  V30 3832 H 366.119 2.55796 0.0145782 0
M  V30 3833 H 365.763 5.06995 0.303032 0
M  V30 3834 H 365.693 4.84269 2.0686 0
M  V30 3835 H 368.184 3.61388 1.10485 0
M  V30 3836 H 368.497 7.54892 1.65403 0
M  V30 3837 H 366.842 6.78746 1.4943 0
M  V30 3838 H 370.033 4.50038 1.28777 0
M  V30 3839 H 370.206 6.29473 1.53842 0
M  V30 3840 N 363.613 -0.582584 1.46437 0
M  V30 3841 C 364.861 -1.33814 1.51453 0
M  V30 3842 C 365.182 -1.94277 0.167792 0
M  V30 3843 O 364.452 -1.78566 -0.805677 0
M  V30 3844 H 363.032 -0.496838 0.557818 0
M  V30 3845 H 365.694 -0.682281 1.82568 0
M  V30 3846 H 364.79 -2.14479 2.26728 0
M  V30 3847 N 365.091 -1.34144 -0.827227 0
M  V30 3848 C 366.368 -1.16844 -1.56865 0
M  V30 3849 C 366.748 0.260654 -2.09485 0
M  V30 3850 O 366.096 1.26138 -1.9053 0
M  V30 3851 C 366.306 -2.21939 -2.6934 0
M  V30 3852 C 367.654 -2.56695 -3.3822 0
M  V30 3853 O 368.678 -2.20695 -2.79593 0
M  V30 3854 O 367.537 -3.18518 -4.44082 0
M  V30 3855 H 364.631 -0.452669 -0.692112 0
M  V30 3856 H 367.177 -1.45763 -0.868973 0
M  V30 3857 H 365.949 -3.17882 -2.28182 0
M  V30 3858 H 365.572 -1.94172 -3.46962 0
M  V30 3859 N 366.569 1.04691 -1.17803 0
M  V30 3860 C 367.532 2.10724 -0.901545 0
M  V30 3861 C 368.532 1.6042 0.110437 0
M  V30 3862 O 369.722 1.7377 -0.122303 0
M  V30 3863 C 366.854 3.39084 -0.351409 0
M  V30 3864 H 368.047 2.36686 -1.84174 0
M  V30 3865 H 365.6 1.21015 -0.98919 0
M  V30 3866 H 366.335 3.18782 0.59569 0
M  V30 3867 H 366.12 3.76909 -1.08083 0
M  V30 3868 H 367.61 4.17227 -0.176451 0
M  V30 3869 N 368.047 0.979072 1.23499 0
M  V30 3870 C 369.293 0.648178 1.92163 0
M  V30 3871 C 369.626 -0.816049 1.76222 0
M  V30 3872 O 368.901 -1.58849 1.12237 0
M  V30 3873 C 369.184 1.03773 3.44824 0
M  V30 3874 C 369.037 2.55948 3.69879 0
M  V30 3875 C 370.356 0.580653 4.36253 0
M  V30 3876 H 367.475 0.236952 0.69787 0
M  V30 3877 H 370.117 1.22012 1.45647 0
M  V30 3878 H 368.267 0.551058 3.84572 0
M  V30 3879 H 369.939 3.12179 3.3962 0
M  V30 3880 H 368.182 2.98641 3.14636 0
M  V30 3881 H 368.853 2.78255 4.76737 0
M  V30 3882 H 371.329 0.998465 4.03943 0
M  V30 3883 H 370.205 0.881663 5.41773 0
M  V30 3884 H 370.466 -0.519052 4.39042 0
M  V30 3885 N 369.525 -1.3858 0.750561 0
M  V30 3886 C 370.765 -2.02032 0.310258 0
M  V30 3887 C 371.129 -1.58288 -1.08668 0
M  V30 3888 O 372.33 -2.14049 -1.62593 0
M  V30 3889 C 370.601 -3.54856 0.425647 0
M  V30 3890 S 372.16 -4.38748 0.0674797 0
M  V30 3891 H 368.978 -0.700705 0.120554 0
M  V30 3892 H 371.58 -1.69134 0.980512 0
M  V30 3893 H 370.284 -3.84182 1.44335 0
M  V30 3894 H 369.815 -3.92527 -0.261894 0
M  V30 3895 H 371.83 -4.82835 -1.14388 0
M  V30 3896 N 371.003 -0.499398 -1.49478 0
M  V30 3897 C 372.231 0.0425456 -2.06856 0
M  V30 3898 C 372.646 1.30964 -1.35992 0
M  V30 3899 O 372.003 1.77172 -0.437762 0
M  V30 3900 C 372.054 0.301735 -3.60239 0
M  V30 3901 O 371.775 -0.915127 -4.28436 0
M  V30 3902 C 373.276 0.887499 -4.34325 0
M  V30 3903 H 370.496 -0.0197482 -0.670709 0
M  V30 3904 H 373.04 -0.696297 -1.92281 0
M  V30 3905 H 371.195 0.990556 -3.74522 0
M  V30 3906 H 371.609 -0.676993 -5.20113 0
M  V30 3907 H 373.083 1.01845 -5.42523 0
M  V30 3908 H 373.56 1.88488 -3.96698 0
M  V30 3909 H 374.166 0.236196 -4.24644 0
M  V30 3910 N 372.481 1.55866 -0.233164 0
M  V30 3911 C 373.391 2.24431 0.683217 0
M  V30 3912 C 374.407 1.2558 1.2044 0
M  V30 3913 O 375.583 1.58422 1.24356 0
M  V30 3914 C 372.648 2.91979 1.86947 0
M  V30 3915 C 371.709 4.06204 1.38912 0
M  V30 3916 C 370.942 4.70522 2.51883 0
M  V30 3917 O 371.165 4.33865 3.70293 0
M  V30 3918 O 370.099 5.59296 2.22423 0
M  V30 3919 H 373.925 3.03426 0.129059 0
M  V30 3920 H 371.51 1.494 -0.0022283 0
M  V30 3921 H 373.392 3.34573 2.56201 0
M  V30 3922 H 372.067 2.15935 2.41151 0
M  V30 3923 H 370.974 3.68155 0.664259 0
M  V30 3924 H 372.307 4.84025 0.893328 0
M  V30 3925 N 373.959 -0.0401083 1.57549 0
M  V30 3926 C 375.184 -0.748931 1.93406 0
M  V30 3927 C 375.609 -1.68686 0.832274 0
M  V30 3928 O 374.967 -1.80047 -0.212818 0
M  V30 3929 C 375.015 -1.4916 3.28304 0
M  V30 3930 O 374.119 -2.6042 3.19774 0
M  V30 3931 H 373.46 -0.202212 0.63246 0
M  V30 3932 H 375.99 0.00112086 2.046 0
M  V30 3933 H 376 -1.86395 3.62934 0
M  V30 3934 H 374.675 -0.80364 4.08062 0
M  V30 3935 H 373.252 -2.25808 2.96758 0
M  V30 3936 N 375.437 -1.54477 -0.31217 0
M  V30 3937 C 376.685 -1.72884 -1.04668 0
M  V30 3938 C 377.006 -0.511477 -1.88173 0
M  V30 3939 O 376.276 0.474407 -1.90069 0
M  V30 3940 H 374.856 -0.637461 -0.389425 0
M  V30 3941 H 377.518 -1.91807 -0.345852 0
M  V30 3942 H 376.614 -2.61334 -1.70619 0
M  V30 3943 N 376.915 0.57481 -1.46744 0
M  V30 3944 C 378.161 1.33251 -1.53674 0
M  V30 3945 C 378.516 1.91468 -0.189125 0
M  V30 3946 O 377.809 1.73954 0.803151 0
M  V30 3947 C 378.003 2.476 -2.57738 0
M  V30 3948 C 377.832 2.00586 -4.02487 0
M  V30 3949 C 376.602 1.85237 -4.70123 0
M  V30 3950 C 378.8 1.56078 -4.90045 0
M  V30 3951 N 376.782 1.32377 -5.99458 0
M  V30 3952 C 378.153 1.14863 -6.09267 0
M  V30 3953 C 380.208 1.43968 -4.76632 0
M  V30 3954 C 378.911 0.627435 -7.16558 0
M  V30 3955 C 380.937 0.932512 -5.84002 0
M  V30 3956 C 380.299 0.53019 -7.02402 0
M  V30 3957 H 376.398 0.480284 -0.617131 0
M  V30 3958 H 378.982 0.653592 -1.83402 0
M  V30 3959 H 377.153 3.13045 -2.29907 0
M  V30 3960 H 378.885 3.14567 -2.54616 0
M  V30 3961 H 375.64 2.07423 -4.25761 0
M  V30 3962 H 376.064 1.08085 -6.68316 0
M  V30 3963 H 380.706 1.73689 -3.85476 0
M  V30 3964 H 378.424 0.317821 -8.07475 0
M  V30 3965 H 382.01 0.842611 -5.75666 0
M  V30 3966 H 380.89 0.14381 -7.84068 0
M  V30 3967 N 378.394 1.34581 0.820102 0
M  V30 3968 C 379.81 1.14325 1.11364 0
M  V30 3969 C 380.01 -0.0533648 2.01429 0
M  V30 3970 O 379.066 -0.728044 2.41776 0
M  V30 3971 C 380.379 2.43983 1.75764 0
M  V30 3972 C 381.927 2.50065 1.88246 0
M  V30 3973 C 382.402 3.79732 2.56061 0
M  V30 3974 N 383.893 3.80908 2.63558 0
M  V30 3975 C 384.628 4.77961 3.16766 0
M  V30 3976 N 384.124 5.85397 3.70517 0
M  V30 3977 N 385.917 4.65413 3.15194 0
M  V30 3978 H 378.068 2.11246 0.221096 0
M  V30 3979 H 380.331 0.934289 0.160649 0
M  V30 3980 H 380.037 3.31651 1.1705 0
M  V30 3981 H 379.911 2.57531 2.75604 0
M  V30 3982 H 382.298 1.62834 2.46108 0
M  V30 3983 H 382.379 2.40442 0.873006 0
M  V30 3984 H 382.023 4.67354 1.98853 0
M  V30 3985 H 381.953 3.86639 3.57516 0
M  V30 3986 H 384.444 3.03274 2.25463 0
M  V30 3987 H 384.757 6.55463 4.09376 0
M  V30 3988 H 383.102 5.89107 3.68752 0
M  V30 3989 H 386.293 3.80627 2.72471 0
M  V30 3990 H 386.466 5.41216 3.56356 0
M  V30 3991 N 379.872 -1.04064 1.18357 0
M  V30 3992 C 381.283 -1.58719 0.98312 0
M  V30 3993 C 381.634 -1.90556 -0.467193 0
M  V30 3994 O 380.759 -1.69561 -1.34454 0
M  V30 3995 C 381.354 -2.88379 1.77828 0
M  V30 3996 C 379.913 -3.3965 1.62218 0
M  V30 3997 C 379.06 -2.13235 1.77274 0
M  V30 3998 H 382.011 -0.867359 1.32901 0
M  V30 3999 H 382.032 -3.58773 1.26737 0
M  V30 4000 H 381.544 -2.65176 2.83379 0
M  V30 4001 H 379.645 -3.67866 0.592036 0
M  V30 4002 H 379.758 -4.13475 2.42023 0
M  V30 4003 H 378.122 -2.24542 1.20221 0
M  V30 4004 H 378.905 -1.92487 2.8426 0
M  V30 4005 N 381.35 -0.985608 -1.22978 0
M  V30 4006 C 382.28 -0.549649 -2.26939 0
M  V30 4007 C 383.261 0.419803 -1.64838 0
M  V30 4008 O 384.446 0.31203 -1.91677 0
M  V30 4009 C 381.576 0.143652 -3.47003 0
M  V30 4010 C 380.53 -0.743606 -4.21491 0
M  V30 4011 C 379.856 0.0822027 -5.34637 0
M  V30 4012 C 381.156 -2.03694 -4.80943 0
M  V30 4013 H 382.85 -1.41862 -2.63658 0
M  V30 4014 H 380.396 -0.683571 -1.26741 0
M  V30 4015 H 382.349 0.459985 -4.18882 0
M  V30 4016 H 381.073 1.04711 -3.09359 0
M  V30 4017 H 379.732 -1.04347 -3.51436 0
M  V30 4018 H 379.38 0.986359 -4.93234 0
M  V30 4019 H 379.08 -0.508377 -5.85397 0
M  V30 4020 H 380.604 0.392797 -6.09335 0
M  V30 4021 H 382.018 -1.78504 -5.44802 0
M  V30 4022 H 380.415 -2.57573 -5.42011 0
M  V30 4023 H 381.485 -2.72042 -4.01399 0
M  V30 4024 N 382.828 1.3818 -0.7579 0
M  V30 4025 C 384.239 1.82726 -0.383134 0
M  V30 4026 C 384.59 1.63214 1.08884 0
M  V30 4027 O 383.715 1.13566 1.84205 0
M  V30 4028 C 384.31 3.31728 -0.688631 0
M  V30 4029 C 382.869 3.74606 -0.367091 0
M  V30 4030 C 382.016 2.60896 -0.939599 0
M  V30 4031 H 384.967 1.26847 -0.953699 0
M  V30 4032 H 384.988 3.80487 0.0316492 0
M  V30 4033 H 384.5 3.45898 -1.76001 0
M  V30 4034 H 382.601 3.66013 0.697532 0
M  V30 4035 H 382.714 4.71215 -0.865658 0
M  V30 4036 H 381.078 2.52075 -0.3647 0
M  V30 4037 H 381.861 2.77864 -2.0161 0
M  V30 4038 N 384.306 0.507319 1.49211 0
M  V30 4039 C 385.531 -0.033725 2.07373 0
M  V30 4040 C 385.956 -1.29485 1.36437 0
M  V30 4041 O 385.314 -1.76294 0.423087 0
M  V30 4042 C 385.362 -0.263945 3.59633 0
M  V30 4043 O 384.466 -1.33737 3.90113 0
M  V30 4044 H 383.807 0.0290331 0.663365 0
M  V30 4045 H 386.337 0.708749 1.91932 0
M  V30 4046 H 386.347 -0.493536 4.05004 0
M  V30 4047 H 385.022 0.657424 4.10671 0
M  V30 4048 H 383.599 -1.09224 3.56545 0
M  V30 4049 N 385.784 -1.5574 0.241426 0
M  V30 4050 C 387.024 -2.00714 -0.38644 0
M  V30 4051 C 387.388 -1.12586 -1.55526 0
M  V30 4052 O 388.589 -1.46992 -2.25048 0
M  V30 4053 C 386.86 -3.48534 -0.791128 0
M  V30 4054 S 388.419 -4.15519 -1.41029 0
M  V30 4055 H 385.237 -0.700484 -0.121834 0
M  V30 4056 H 387.839 -1.92243 0.355377 0
M  V30 4057 H 386.543 -4.10342 0.0689225 0
M  V30 4058 H 386.074 -3.6092 -1.56526 0
M  V30 4059 H 388.089 -4.16352 -2.69936 0
M  V30 4060 N 387.262 0.0317525 -1.57568 0
M  V30 4061 C 388.172 1.05021 -2.0978 0
M  V30 4062 C 389.188 1.39809 -1.03583 0
M  V30 4063 O 390.364 1.49182 -1.35302 0
M  V30 4064 C 387.429 2.33301 -2.56459 0
M  V30 4065 C 386.49 2.0512 -3.77127 0
M  V30 4066 C 385.723 3.27283 -4.2157 0
M  V30 4067 O 385.946 4.37861 -3.65559 0
M  V30 4068 O 384.88 3.13141 -5.14029 0
M  V30 4069 H 388.706 0.636505 -2.96955 0
M  V30 4070 H 386.291 0.248559 -1.47318 0
M  V30 4071 H 388.173 3.08722 -2.86825 0
M  V30 4072 H 386.848 2.73973 -1.72397 0
M  V30 4073 H 385.755 1.27276 -3.51784 0
M  V30 4074 H 387.088 1.69305 -4.62165 0
M  V30 4075 N 388.74 1.54641 0.303973 0
M  V30 4076 C 389.65 1.88439 1.39743 0
M  V30 4077 C 390.666 0.778239 1.55626 0
M  V30 4078 O 391.842 1.07442 1.70347 0
M  V30 4079 C 388.907 2.12212 2.74166 0
M  V30 4080 C 387.968 3.35936 2.67293 0
M  V30 4081 C 387.201 3.58566 3.95305 0
M  V30 4082 O 387.424 2.84263 4.9452 0
M  V30 4083 O 386.358 4.52078 3.97378 0
M  V30 4084 H 390.184 2.81458 1.14083 0
M  V30 4085 H 387.769 1.40793 0.499768 0
M  V30 4086 H 389.651 2.29067 3.53704 0
M  V30 4087 H 388.326 1.22379 2.99675 0
M  V30 4088 H 387.233 3.24448 1.86237 0
M  V30 4089 H 388.566 4.2589 2.46736 0
M  V30 4090 N 390.218 -0.567019 1.47046 0
M  V30 4091 C 391.165 -1.67489 1.58796 0
M  V30 4092 C 392.135 -1.60399 0.43144 0
M  V30 4093 O 393.32 -1.79378 0.650233 0
M  V30 4094 C 390.46 -3.05821 1.59899 0
M  V30 4095 C 389.573 -3.2342 2.86397 0
M  V30 4096 C 388.708 -4.52093 2.789 0
M  V30 4097 C 387.747 -4.6309 4.00267 0
M  V30 4098 N 386.884 -5.83106 3.91064 0
M  V30 4099 H 391.724 -1.56785 2.53422 0
M  V30 4100 H 389.261 -0.763896 1.2571 0
M  V30 4101 H 391.219 -3.8591 1.58522 0
M  V30 4102 H 389.849 -3.15384 0.687929 0
M  V30 4103 H 388.901 -2.3683 2.97684 0
M  V30 4104 H 390.213 -3.27412 3.76301 0
M  V30 4105 H 389.367 -5.4043 2.75718 0
M  V30 4106 H 388.106 -4.50565 1.86662 0
M  V30 4107 H 387.111 -3.73168 4.03765 0
M  V30 4108 H 388.336 -4.66386 4.93621 0
M  V30 4109 H 386.282 -5.82546 3.01623 0
M  V30 4110 H 386.199 -5.88434 4.74638 0
M  V30 4111 H 387.467 -6.73831 3.91882 0
M  V30 4112 N 391.696 -1.35014 -0.812953 0
M  V30 4113 C 392.921 -1.31187 -1.60639 0
M  V30 4114 C 393.346 0.109382 -1.87782 0
M  V30 4115 O 392.704 1.07424 -1.46047 0
M  V30 4116 C 392.752 -2.11809 -2.91838 0
M  V30 4117 O 391.856 -1.49444 -3.8437 0
M  V30 4118 H 391.197 -0.450084 -0.488181 0
M  V30 4119 H 393.727 -1.77963 -1.00947 0
M  V30 4120 H 393.737 -2.23531 -3.41318 0
M  V30 4121 H 392.412 -3.15137 -2.71407 0
M  V30 4122 H 390.989 -1.46524 -3.42907 0
M  V30 4123 N 393.175 1.03435 -1.18907 0
M  V30 4124 C 394.415 1.78302 -0.999391 0
M  V30 4125 C 394.779 1.86353 0.462219 0
M  V30 4126 O 395.98 2.57489 0.771543 0
M  V30 4127 C 394.251 3.17362 -1.64365 0
M  V30 4128 S 395.81 4.08488 -1.6026 0
M  V30 4129 H 392.628 0.613861 -0.358742 0
M  V30 4130 H 395.23 1.23979 -1.51161 0
M  V30 4131 H 393.934 3.09116 -2.69955 0
M  V30 4132 H 393.465 3.76762 -1.13199 0
M  V30 4133 H 395.48 4.92274 -0.622932 0
M  V30 4134 N 394.653 0.992116 1.22453 0
M  V30 4135 C 395.93 0.583508 1.86694 0
M  V30 4136 C 396.31 -0.9392 1.89056 0
M  V30 4137 O 395.658 -1.82081 1.38053 0
M  V30 4138 C 395.868 1.20304 3.2761 0
M  V30 4139 C 397.216 1.30308 4.0411 0
M  V30 4140 O 398.24 1.15737 3.36873 0
M  V30 4141 O 397.099 1.53615 5.24466 0
M  V30 4142 H 394.193 0.198129 0.802916 0
M  V30 4143 H 396.739 1.08794 1.30238 0
M  V30 4144 H 395.511 2.24461 3.2052 0
M  V30 4145 H 395.134 0.684144 3.9167 0
M  V30 4146 N 396.131 -1.37776 0.765217 0
M  V30 4147 C 397.079 -2.32209 0.134798 0
M  V30 4148 C 398.073 -1.54607 -0.692315 0
M  V30 4149 O 399.279 -1.70052 -0.590109 0
M  V30 4150 H 395.654 -0.751591 0.0248005 0
M  V30 4151 H 397.625 -2.8297 0.947119 0
M  V30 4152 C 396.374 -3.39841 -0.735063 0
M  V30 4153 H 395.697 -3.99654 -0.107991 0
M  V30 4154 H 397.137 -4.08296 -1.14326 0
M  V30 4155 C 395.596 -2.79378 -1.88281 0
M  V30 4156 O 396.126 -2.69608 -2.97783 0
M  V30 4157 N 394.332 -2.37016 -1.68142 0
M  V30 4158 H 393.879 -2.45162 -0.790772 0
M  V30 4159 H 393.837 -1.96905 -2.45104 0
M  V30 4160 N 397.609 -0.515225 -1.4894 0
M  V30 4161 C 399.02 -0.0710067 -1.86565 0
M  V30 4162 C 399.371 1.34733 -1.42623 0
M  V30 4163 O 398.496 2.00653 -0.810379 0
M  V30 4164 C 399.091 -0.122083 -3.3858 0
M  V30 4165 C 397.65 0.266863 -3.75453 0
M  V30 4166 C 396.797 -0.488376 -2.72966 0
M  V30 4167 H 399.748 -0.727266 -1.41055 0
M  V30 4168 H 399.769 0.669818 -3.74558 0
M  V30 4169 H 399.281 -1.15448 -3.70531 0
M  V30 4170 H 397.382 1.30196 -3.49113 0
M  V30 4171 H 397.495 -0.0624811 -4.79059 0
M  V30 4172 H 395.859 0.0635622 -2.54621 0
M  V30 4173 H 396.642 -1.52113 -3.07761 0
M  V30 4174 N 399.087 1.5561 -0.249682 0
M  V30 4175 C 400.317 2.03116 0.377803 0
M  V30 4176 C 400.725 1.12822 1.51881 0
M  V30 4177 O 400.068 0.13562 1.83199 0
M  V30 4178 C 400.13 3.46866 0.944693 0
M  V30 4179 C 399.794 4.56955 -0.0644259 0
M  V30 4180 C 400.791 5.12485 -0.874957 0
M  V30 4181 C 398.476 5.01936 -0.19132 0
M  V30 4182 C 400.47 6.11491 -1.79881 0
M  V30 4183 C 398.157 6.00773 -1.11868 0
M  V30 4184 C 399.155 6.5543 -1.92095 0
M  V30 4185 O 398.843 7.5234 -2.83267 0
M  V30 4186 H 398.575 0.669489 0.0935961 0
M  V30 4187 H 401.129 2.02004 -0.371966 0
M  V30 4188 H 399.359 3.45136 1.74407 0
M  V30 4189 H 401.048 3.77856 1.48255 0
M  V30 4190 H 401.814 4.78564 -0.787523 0
M  V30 4191 H 397.693 4.59055 0.423072 0
M  V30 4192 H 401.237 6.54078 -2.42543 0
M  V30 4193 H 397.134 6.34114 -1.20703 0
M  V30 4194 H 397.902 7.69966 -2.7766 0
M  V30 4195 N 400.565 -0.0233959 1.57583 0
M  V30 4196 C 401.814 -0.712133 1.8871 0
M  V30 4197 C 402.127 -1.76217 0.848944 0
M  V30 4198 O 403.333 -2.50389 1.04964 0
M  V30 4199 C 401.789 -1.3177 3.3491 0
M  V30 4200 C 401.397 -0.303715 4.46969 0
M  V30 4201 C 403.141 -1.98598 3.75179 0
M  V30 4202 C 401.048 -0.917945 5.84233 0
M  V30 4203 H 399.978 -0.269735 0.704101 0
M  V30 4204 H 402.629 0.0333114 1.8347 0
M  V30 4205 H 401.011 -2.11304 3.34913 0
M  V30 4206 H 402.185 0.465325 4.58445 0
M  V30 4207 H 400.5 0.2628 4.1557 0
M  V30 4208 H 403.097 -2.45416 4.75053 0
M  V30 4209 H 403.44 -2.80659 3.07468 0
M  V30 4210 H 403.973 -1.25831 3.77374 0
M  V30 4211 H 400.712 -0.136633 6.55358 0
M  V30 4212 H 400.232 -1.65669 5.76467 0
M  V30 4213 H 401.911 -1.4236 6.31144 0
M  V30 4214 N 402.043 -1.548 -0.295768 0
M  V30 4215 C 403.454 -1.65274 -0.868411 0
M  V30 4216 C 403.805 -0.56481 -1.87894 0
M  V30 4217 O 402.93 0.29767 -2.14343 0
M  V30 4218 C 403.525 -2.99603 -1.58188 0
M  V30 4219 C 402.084 -3.12181 -2.10286 0
M  V30 4220 C 401.231 -2.6098 -0.93727 0
M  V30 4221 H 404.182 -1.58534 -0.0726422 0
M  V30 4222 H 404.203 -2.91319 -2.44772 0
M  V30 4223 H 403.715 -3.78764 -0.846151 0
M  V30 4224 H 401.816 -2.3775 -2.8689 0
M  V30 4225 H 401.929 -4.18415 -2.33379 0
M  V30 4226 H 400.293 -2.17564 -1.32431 0
M  V30 4227 H 401.076 -3.42623 -0.215414 0
M  V30 4228 N 403.521 0.559213 -1.47345 0
M  V30 4229 C 404.469 1.68747 -1.60085 0
M  V30 4230 C 405.463 1.628 -0.46825 0
M  V30 4231 O 406.669 1.68009 -0.645977 0
M  V30 4232 H 403.044 0.558329 -0.503759 0
M  V30 4233 H 405.015 1.55138 -2.54902 0
M  V30 4234 C 403.764 3.07103 -1.63042 0
M  V30 4235 H 403.087 3.12361 -2.49541 0
M  V30 4236 H 404.527 3.85743 -1.76006 0
M  V30 4237 C 402.986 3.34935 -0.363357 0
M  V30 4238 O 403.516 3.98102 0.536416 0
M  V30 4239 N 401.722 2.89574 -0.244 0
M  V30 4240 H 401.269 2.38348 -0.977133 0
M  V30 4241 H 401.227 3.08566 0.602836 0
M  V30 4242 N 404.999 1.35443 0.805782 0
M  V30 4243 C 406.247 1.28507 1.55982 0
M  V30 4244 C 406.568 -0.140046 1.94496 0
M  V30 4245 O 405.838 -1.07666 1.63661 0
M  V30 4246 H 404.418 0.472676 0.578434 0
M  V30 4247 H 407.08 1.69555 0.961098 0
M  V30 4248 H 406.176 1.90148 2.47488 0
M  V30 4249 N 406.477 -1.02803 1.19454 0
M  V30 4250 C 407.754 -1.73299 0.907013 0
M  V30 4251 C 408.134 -2.02772 -0.587086 0
M  V30 4252 O 407.482 -1.68304 -1.54551 0
M  V30 4253 C 407.692 -3.00912 1.76785 0
M  V30 4254 C 409.04 -3.74403 2.00268 0
M  V30 4255 O 410.064 -3.10841 1.73943 0
M  V30 4256 O 408.923 -4.88675 2.4466 0
M  V30 4257 H 406.017 -0.754727 0.338106 0
M  V30 4258 H 408.563 -1.08754 1.30271 0
M  V30 4259 H 407.335 -2.75366 2.7801 0
M  V30 4260 H 406.958 -3.73197 1.37149 0
M  V30 4261 N 407.956 -0.998596 -1.21925 0
M  V30 4262 C 409.186 -0.695276 -1.94549 0
M  V30 4263 C 409.594 0.745079 -1.73911 0
M  V30 4264 O 408.937 1.51507 -1.03881 0
M  V30 4265 C 408.999 -0.928485 -3.47303 0
M  V30 4266 C 408.663 -2.35443 -3.91683 0
M  V30 4267 C 409.66 -3.33428 -3.98901 0
M  V30 4268 C 407.345 -2.69038 -4.24174 0
M  V30 4269 C 409.339 -4.63079 -4.37992 0
M  V30 4270 C 407.026 -3.98906 -4.62944 0
M  V30 4271 C 408.024 -4.95738 -4.69822 0
M  V30 4272 O 407.712 -6.23285 -5.07711 0
M  V30 4273 H 407.444 -0.255902 -0.625692 0
M  V30 4274 H 409.998 -1.33767 -1.5587 0
M  V30 4275 H 408.228 -0.228917 -3.86022 0
M  V30 4276 H 409.917 -0.619539 -4.01144 0
M  V30 4277 H 410.683 -3.08807 -3.73983 0
M  V30 4278 H 406.562 -1.94367 -4.18022 0
M  V30 4279 H 410.106 -5.38658 -4.43275 0
M  V30 4280 H 406.003 -4.23314 -4.87314 0
M  V30 4281 H 406.771 -6.27306 -5.25766 0
M  V30 4282 N 409.434 1.37368 -0.772513 0
M  V30 4283 C 410.659 2.0447 -0.347386 0
M  V30 4284 C 411.084 1.57882 1.0225 0
M  V30 4285 O 410.442 0.73941 1.65537 0
M  V30 4286 C 410.49 3.58369 -0.400479 0
M  V30 4287 O 409.594 4.0803 0.598789 0
M  V30 4288 H 408.935 0.646773 -0.15027 0
M  V30 4289 H 411.465 1.75667 -1.04892 0
M  V30 4290 H 411.475 4.07183 -0.258045 0
M  V30 4291 H 410.15 3.91633 -1.39986 0
M  V30 4292 H 408.727 3.70534 0.419411 0
M  V30 4293 N 410.912 0.523116 1.48665 0
M  V30 4294 C 412.323 0.0808997 1.86525 0
M  V30 4295 C 412.674 -1.33975 1.43336 0
M  V30 4296 O 411.799 -2.00221 0.821009 0
M  V30 4297 C 412.394 0.140037 3.3851 0
M  V30 4298 C 410.953 -0.246948 3.75589 0
M  V30 4299 C 410.1 0.502845 2.72703 0
M  V30 4300 H 413.051 0.734736 1.40667 0
M  V30 4301 H 413.072 -0.649945 3.74908 0
M  V30 4302 H 412.584 1.17412 3.69914 0
M  V30 4303 H 410.685 -1.28343 3.49798 0
M  V30 4304 H 410.798 0.0878859 4.79019 0
M  V30 4305 H 409.162 -0.0500581 2.54651 0
M  V30 4306 H 409.945 1.53743 3.0695 0
M  V30 4307 N 412.39 -1.55475 0.257931 0
M  V30 4308 C 413.32 -2.24815 -0.630912 0
M  V30 4309 C 414.301 -1.23224 -1.17259 0
M  V30 4310 O 415.486 -1.51904 -1.20991 0
M  V30 4311 C 412.616 -2.95609 -1.82298 0
M  V30 4312 C 411.57 -4.03982 -1.41359 0
M  V30 4313 C 410.896 -4.6226 -2.68738 0
M  V30 4314 C 412.196 -5.19109 -0.57648 0
M  V30 4315 H 413.89 -2.99354 -0.0526878 0
M  V30 4316 H 411.436 -1.4398 -0.023901 0
M  V30 4317 H 413.389 -3.42822 -2.45054 0
M  V30 4318 H 412.113 -2.18577 -2.42676 0
M  V30 4319 H 410.772 -3.57555 -0.809324 0
M  V30 4320 H 410.42 -3.81915 -3.27338 0
M  V30 4321 H 410.12 -5.35424 -2.42065 0
M  V30 4322 H 411.644 -5.12212 -3.32372 0
M  V30 4323 H 413.058 -5.62479 -1.10861 0
M  V30 4324 H 411.455 -5.98729 -0.405351 0
M  V30 4325 H 412.525 -4.83174 0.408776 0
M  V30 4326 N 413.868 0.0150385 -1.57593 0
M  V30 4327 C 415.284 0.370907 -1.5523 0
M  V30 4328 C 415.484 1.75735 -0.985882 0
M  V30 4329 O 414.54 2.44944 -0.613077 0
M  V30 4330 C 415.853 0.259908 -2.99575 0
M  V30 4331 C 417.401 0.335959 -3.11192 0
M  V30 4332 C 417.876 0.254253 -4.57294 0
M  V30 4333 N 419.367 0.312618 -4.62144 0
M  V30 4334 C 420.102 0.272505 -5.72752 0
M  V30 4335 N 419.598 0.183864 -6.92556 0
M  V30 4336 N 421.391 0.323267 -5.6117 0
M  V30 4337 H 413.542 -0.892104 -1.92757 0
M  V30 4338 H 415.805 -0.340563 -0.884715 0
M  V30 4339 H 415.511 -0.693403 -3.44797 0
M  V30 4340 H 415.385 1.048 -3.62349 0
M  V30 4341 H 417.772 1.27971 -2.65909 0
M  V30 4342 H 417.853 -0.481739 -2.51223 0
M  V30 4343 H 417.497 -0.685887 -5.03247 0
M  V30 4344 H 417.427 1.09024 -5.15191 0
M  V30 4345 H 419.918 0.38307 -3.75953 0
M  V30 4346 H 420.231 0.15874 -7.72637 0
M  V30 4347 H 418.576 0.149708 -6.94839 0
M  V30 4348 H 421.767 0.390607 -4.66467 0
M  V30 4349 H 421.94 0.288539 -6.47357 0
M  V30 4350 N 415.346 1.54954 0.287554 0
M  V30 4351 C 416.595 1.74081 1.01877 0
M  V30 4352 C 416.908 0.541135 1.87966 0
M  V30 4353 O 418.114 0.614491 2.64455 0
M  V30 4354 C 416.57 3.08042 1.86113 0
M  V30 4355 C 416.178 4.35531 1.04961 0
M  V30 4356 C 417.922 3.36523 2.58752 0
M  V30 4357 C 415.829 5.60538 1.88551 0
M  V30 4358 H 414.759 0.64884 0.384087 0
M  V30 4359 H 417.41 1.81426 0.275101 0
M  V30 4360 H 415.792 2.94696 2.64519 0
M  V30 4361 H 416.966 4.59751 0.31074 0
M  V30 4362 H 415.281 4.14085 0.43843 0
M  V30 4363 H 417.878 4.27122 3.21668 0
M  V30 4364 H 418.221 2.56 3.28283 0
M  V30 4365 H 418.754 3.50901 1.87386 0
M  V30 4366 H 415.493 6.43767 1.23466 0
M  V30 4367 H 415.013 5.40483 2.60074 0
M  V30 4368 H 416.692 5.98297 2.46273 0
M  V30 4369 N 416.824 -0.551391 1.4764 0
M  V30 4370 C 417.771 -1.65796 1.60563 0
M  V30 4371 C 418.741 -1.59932 0.448428 0
M  V30 4372 O 419.926 -1.78679 0.669222 0
M  V30 4373 C 417.066 -3.04108 1.63133 0
M  V30 4374 C 416.179 -3.20365 2.89811 0
M  V30 4375 C 415.314 -4.49109 2.8368 0
M  V30 4376 C 414.353 -4.58819 4.05156 0
M  V30 4377 N 413.49 -5.78926 3.97227 0
M  V30 4378 H 418.33 -1.54088 2.5507 0
M  V30 4379 H 415.867 -0.75052 1.26513 0
M  V30 4380 H 417.825 -3.84207 1.62606 0
M  V30 4381 H 416.455 -3.14637 0.721341 0
M  V30 4382 H 415.507 -2.33659 3.00179 0
M  V30 4383 H 416.819 -3.23402 3.79753 0
M  V30 4384 H 415.973 -5.37475 2.81434 0
M  V30 4385 H 414.712 -4.4856 1.91431 0
M  V30 4386 H 413.717 -3.68864 4.077 0
M  V30 4387 H 414.942 -4.61124 4.98539 0
M  V30 4388 H 412.888 -5.79314 3.07785 0
M  V30 4389 H 412.805 -5.83367 4.80853 0
M  V30 4390 H 414.073 -6.69637 3.99007 0
M  V30 4391 N 418.302 -1.35869 -0.798587 0
M  V30 4392 C 419.252 -1.25982 -1.90033 0
M  V30 4393 C 420.236 -0.153303 -1.60168 0
M  V30 4394 O 421.428 -0.38527 -1.72756 0
M  V30 4395 C 418.557 -1.04211 -3.27101 0
M  V30 4396 C 417.643 -2.19289 -3.63006 0
M  V30 4397 N 418.034 -3.44559 -3.70287 0
M  V30 4398 C 416.332 -2.10852 -3.93011 0
M  V30 4399 C 417.033 -4.20283 -4.02166 0
M  V30 4400 N 416.009 -3.49124 -4.16669 0
M  V30 4401 H 419.811 -2.20883 -1.93876 0
M  V30 4402 H 417.325 -1.28457 -0.993614 0
M  V30 4403 H 419.322 -0.952155 -4.05881 0
M  V30 4404 H 417.982 -0.102013 -3.2454 0
M  V30 4405 H 418.993 -3.7881 -3.53162 0
M  V30 4406 H 415.67 -1.24744 -3.98428 0
M  V30 4407 H 417.06 -5.28575 -4.14799 0
M  V30 4408 N 419.78 1.02168 -1.19998 0
M  V30 4409 C 421.196 1.27969 -0.953737 0
M  V30 4410 C 421.396 1.98079 0.369703 0
M  V30 4411 O 420.452 2.27306 1.09947 0
M  V30 4412 C 421.765 2.11971 -2.13281 0
M  V30 4413 C 423.313 2.25255 -2.17323 0
M  V30 4414 C 423.788 3.12632 -3.34702 0
M  V30 4415 N 425.279 3.2022 -3.34684 0
M  V30 4416 C 426.014 3.88039 -4.22153 0
M  V30 4417 N 425.51 4.58027 -5.19791 0
M  V30 4418 N 427.303 3.84511 -4.10009 0
M  V30 4419 H 419.454 0.550794 -2.05134 0
M  V30 4420 H 421.717 0.305683 -0.897364 0
M  V30 4421 H 421.423 1.67785 -3.09097 0
M  V30 4422 H 421.297 3.12699 -2.10949 0
M  V30 4423 H 423.684 2.68667 -1.22073 0
M  V30 4424 H 423.765 1.24053 -2.23706 0
M  V30 4425 H 423.409 2.69926 -4.30235 0
M  V30 4426 H 423.339 4.13909 -3.25556 0
M  V30 4427 H 425.83 2.70382 -2.64012 0
M  V30 4428 H 426.143 5.07429 -5.82868 0
M  V30 4429 H 424.488 4.56869 -5.23733 0
M  V30 4430 H 427.679 3.28978 -3.33003 0
M  V30 4431 H 427.852 4.3709 -4.78389 0
M  V30 4432 N 421.258 1.00505 1.21394 0
M  V30 4433 C 422.486 0.706609 1.9446 0
M  V30 4434 C 422.901 -0.73081 1.74082 0
M  V30 4435 O 422.258 -1.49446 1.04747 0
M  V30 4436 C 422.309 1.01824 3.46863 0
M  V30 4437 O 422.03 2.39919 3.66566 0
M  V30 4438 C 423.531 0.739216 4.37093 0
M  V30 4439 H 420.751 0.260394 0.618414 0
M  V30 4440 H 423.295 1.34311 1.54211 0
M  V30 4441 H 421.45 0.427343 3.85036 0
M  V30 4442 H 421.864 2.50784 4.6066 0
M  V30 4443 H 423.338 1.00744 5.42729 0
M  V30 4444 H 423.815 -0.326746 4.37983 0
M  V30 4445 H 424.421 1.31173 4.04566 0
M  V30 4446 N 422.737 -1.36956 0.779787 0
M  V30 4447 C 423.985 -1.99097 0.347079 0
M  V30 4448 C 424.306 -1.62206 -1.08232 0
M  V30 4449 O 423.576 -0.891373 -1.74446 0
M  V30 4450 H 422.156 -0.736409 0.125342 0
M  V30 4451 H 424.818 -1.67308 0.999696 0
M  V30 4452 H 423.914 -3.09107 0.431162 0
M  V30 4453 N 424.215 -0.530993 -1.48385 0
M  V30 4454 C 425.492 0.0671788 -1.95485 0
M  V30 4455 C 425.872 1.51191 -1.47324 0
M  V30 4456 O 425.22 2.17507 -0.700202 0
M  V30 4457 C 425.43 -0.0511206 -3.48963 0
M  V30 4458 C 426.778 0.107632 -4.24464 0
M  V30 4459 O 427.802 0.0226248 -3.56193 0
M  V30 4460 O 426.661 0.285972 -5.45751 0
M  V30 4461 H 423.755 0.0787365 -0.823243 0
M  V30 4462 H 426.301 -0.595662 -1.58902 0
M  V30 4463 H 425.073 -1.05747 -3.7674 0
M  V30 4464 H 424.696 0.650525 -3.92242 0
M  V30 4465 N 425.693 1.55336 -0.266172 0
M  V30 4466 C 426.603 2.2583 0.635458 0
M  V30 4467 C 427.619 1.28106 1.17749 0
M  V30 4468 O 428.795 1.61024 1.20968 0
M  V30 4469 C 425.86 2.95879 1.80712 0
M  V30 4470 C 424.921 4.09059 1.30265 0
M  V30 4471 C 424.154 4.75759 2.41846 0
M  V30 4472 O 424.377 4.41622 3.61007 0
M  V30 4473 O 423.311 5.63888 2.1051 0
M  V30 4474 H 427.137 3.03631 0.0646693 0
M  V30 4475 H 424.722 1.49361 -0.0339177 0
M  V30 4476 H 426.604 3.39932 2.49047 0
M  V30 4477 H 425.279 2.21002 2.36516 0
M  V30 4478 H 424.186 3.69482 0.586019 0
M  V30 4479 H 425.519 4.85811 0.790458 0
M  V30 4480 N 427.171 -0.0066808 1.57599 0
M  V30 4481 C 428.42 -0.692078 1.89455 0
M  V30 4482 C 428.733 -1.75306 0.867586 0
M  V30 4483 O 429.939 -2.49262 1.07614 0
M  V30 4484 C 428.395 -1.2821 3.36289 0
M  V30 4485 C 428.003 -0.256291 4.47266 0
M  V30 4486 C 429.747 -1.94608 3.77264 0
M  V30 4487 C 427.654 -0.855927 5.85173 0
M  V30 4488 H 426.584 -0.262252 0.706923 0
M  V30 4489 H 429.235 0.052769 1.83424 0
M  V30 4490 H 427.617 -2.0774 3.37135 0
M  V30 4491 H 428.791 0.513923 4.57925 0
M  V30 4492 H 427.106 0.306862 4.15268 0
M  V30 4493 H 429.703 -2.40364 4.77629 0
M  V30 4494 H 430.046 -2.77382 3.10427 0
M  V30 4495 H 430.579 -1.21822 3.78688 0
M  V30 4496 H 427.318 -0.0671161 6.55466 0
M  V30 4497 H 426.838 -1.59546 5.78191 0
M  V30 4498 H 428.517 -1.35658 6.32618 0
M  V30 4499 N 428.649 -1.55105 -0.279332 0
M  V30 4500 C 429.877 -1.7943 -1.03017 0
M  V30 4501 C 430.292 -0.564456 -1.80165 0
M  V30 4502 O 429.649 0.466326 -1.76442 0
M  V30 4503 C 429.7 -3.0155 -1.99374 0
M  V30 4504 O 429.421 -4.19784 -1.25352 0
M  V30 4505 C 430.922 -3.3843 -2.86321 0
M  V30 4506 H 428.142 -0.597882 -0.304594 0
M  V30 4507 H 430.686 -2.02105 -0.312035 0
M  V30 4508 H 428.841 -2.81019 -2.66659 0
M  V30 4509 H 429.255 -4.88781 -1.90246 0
M  V30 4510 H 430.729 -4.27066 -3.49741 0
M  V30 4511 H 431.206 -2.57549 -3.5576 0
M  V30 4512 H 431.812 -3.61197 -2.24536 0
M  V30 4513 N 430.127 0.543554 -1.4793 0
M  V30 4514 C 431.357 1.32324 -1.58663 0
M  V30 4515 C 431.765 1.8766 -0.240896 0
M  V30 4516 O 431.108 1.66411 0.778011 0
M  V30 4517 C 431.17 2.52094 -2.56299 0
M  V30 4518 C 430.834 2.17944 -4.01683 0
M  V30 4519 C 431.831 1.74422 -4.89768 0
M  V30 4520 C 429.516 2.28884 -4.47121 0
M  V30 4521 C 431.51 1.42287 -6.21316 0
M  V30 4522 C 429.197 1.96361 -5.78693 0
M  V30 4523 C 430.195 1.53132 -6.65612 0
M  V30 4524 O 429.883 1.21029 -7.94737 0
M  V30 4525 H 429.615 0.409174 -0.538101 0
M  V30 4526 H 432.169 0.663887 -1.94375 0
M  V30 4527 H 430.399 3.20965 -2.15681 0
M  V30 4528 H 432.088 3.14165 -2.57012 0
M  V30 4529 H 432.854 1.65452 -4.55907 0
M  V30 4530 H 428.733 2.61488 -3.79664 0
M  V30 4531 H 432.277 1.08472 -6.89115 0
M  V30 4532 H 428.174 2.04967 -6.12094 0
M  V30 4533 H 428.942 1.34543 -8.07366 0
M  V30 4534 N 431.605 1.3629 0.791371 0
M  V30 4535 C 432.537 1.26321 1.91248 0
M  V30 4536 C 433.55 0.18313 1.61767 0
M  V30 4537 O 434.739 0.437682 1.73051 0
M  V30 4538 C 431.839 0.925901 3.26007 0
M  V30 4539 C 431.012 2.10746 3.83281 0
M  V30 4540 C 430.071 1.74352 4.96475 0
M  V30 4541 O 429.097 2.46416 5.13096 0
M  V30 4542 N 430.299 0.676058 5.7655 0
M  V30 4543 H 433.064 2.22915 2.00323 0
M  V30 4544 H 430.625 1.29659 0.969546 0
M  V30 4545 H 432.617 0.663636 3.99222 0
M  V30 4546 H 431.187 0.0491581 3.12561 0
M  V30 4547 H 430.407 2.53264 3.02077 0
M  V30 4548 H 431.695 2.8969 4.18279 0
M  V30 4549 H 431.093 0.0776467 5.65647 0
M  V30 4550 H 429.65 0.473612 6.50077 0
M  V30 4551 N 433.083 -1.0153 1.20538 0
M  V30 4552 C 434.323 -1.76689 1.02763 0
M  V30 4553 C 434.687 -1.87065 -0.432513 0
M  V30 4554 O 435.888 -2.58684 -0.730481 0
M  V30 4555 C 434.159 -3.14707 1.69393 0
M  V30 4556 S 435.718 -4.05886 1.66738 0
M  V30 4557 H 432.536 -0.608076 0.368463 0
M  V30 4558 H 435.138 -1.21558 1.53114 0
M  V30 4559 H 433.842 -3.04782 2.74838 0
M  V30 4560 H 433.373 -3.74913 1.19179 0
M  V30 4561 H 435.388 -4.91221 0.70117 0
M  V30 4562 N 434.561 -1.01147 -1.20859 0
M  V30 4563 C 435.977 -0.725422 -1.42161 0
M  V30 4564 C 436.177 0.696919 -1.89064 0
M  V30 4565 O 435.233 1.46539 -2.05627 0
M  V30 4566 C 436.546 -1.74678 -2.44761 0
M  V30 4567 C 438.094 -1.76433 -2.58535 0
M  V30 4568 C 438.569 -2.77481 -3.64374 0
M  V30 4569 N 440.06 -2.76189 -3.71852 0
M  V30 4570 C 440.795 -3.51035 -4.53389 0
M  V30 4571 N 440.291 -4.35541 -5.38773 0
M  V30 4572 N 442.084 -3.39655 -4.47873 0
M  V30 4573 H 434.235 -1.92979 -0.887282 0
M  V30 4574 H 436.498 -0.833327 -0.451962 0
M  V30 4575 H 436.204 -2.76551 -2.17285 0
M  V30 4576 H 436.078 -1.55472 -3.43669 0
M  V30 4577 H 438.465 -0.75248 -2.85345 0
M  V30 4578 H 438.546 -1.99712 -1.5984 0
M  V30 4579 H 438.19 -3.78827 -3.38308 0
M  V30 4580 H 438.12 -2.51466 -4.6268 0
M  V30 4581 H 440.611 -2.14885 -3.10858 0
M  V30 4582 H 440.924 -4.89432 -5.98061 0
M  V30 4583 H 439.269 -4.39621 -5.38292 0
M  V30 4584 H 442.46 -2.73063 -3.80203 0
M  V30 4585 H 442.633 -3.9824 -5.11184 0
M  V30 4586 N 436.039 1.36541 -0.78704 0
M  V30 4587 C 436.987 2.31965 -0.171724 0
M  V30 4588 C 437.981 1.55689 0.667631 0
M  V30 4589 O 439.187 1.70969 0.562981 0
M  V30 4590 H 435.562 0.751101 -0.0367545 0
M  V30 4591 H 437.533 2.81428 -0.992017 0
M  V30 4592 C 436.282 3.40968 0.680904 0
M  V30 4593 H 435.605 3.99775 0.0443961 0
M  V30 4594 H 437.045 4.10063 1.07815 0
M  V30 4595 C 435.504 2.82338 1.83813 0
M  V30 4596 O 436.034 2.74311 2.93456 0
M  V30 4597 N 434.24 2.39661 1.6435 0
M  V30 4598 H 433.787 2.46389 0.751668 0
M  V30 4599 H 433.745 2.00779 2.4194 0
M  V30 4600 N 437.518 0.538854 1.48102 0
M  V30 4601 C 438.766 0.00798599 2.02098 0
M  V30 4602 C 439.087 -1.33922 1.41739 0
M  V30 4603 O 438.357 -1.86932 0.585934 0
M  V30 4604 H 436.937 -3.62179e-05 0.747 0
M  V30 4605 H 439.599 0.7047 1.81714 0
M  V30 4606 H 438.695 -0.0937672 3.11959 0
M  V30 4607 N 438.996 -1.55193 0.274407 0
M  V30 4608 C 440.243 -1.99581 -0.342579 0
M  V30 4609 C 440.571 -1.1628 -1.55914 0
M  V30 4610 O 439.826 -0.22029 -1.94456 0
M  V30 4611 C 440.125 -3.49019 -0.769458 0
M  V30 4612 C 439.791 -4.49598 0.342389 0
M  V30 4613 C 438.453 -4.76821 0.647686 0
M  V30 4614 C 440.805 -5.0964 1.09163 0
M  V30 4615 C 438.133 -5.61354 1.70581 0
M  V30 4616 C 440.485 -5.95323 2.13948 0
M  V30 4617 C 439.149 -6.20867 2.45113 0
M  V30 4618 H 438.419 -0.730319 -0.125358 0
M  V30 4619 H 441.066 -1.87529 0.387971 0
M  V30 4620 H 439.371 -3.58544 -1.57967 0
M  V30 4621 H 441.068 -3.8077 -1.25757 0
M  V30 4622 H 437.658 -4.28496 0.094318 0
M  V30 4623 H 441.842 -4.88632 0.869024 0
M  V30 4624 H 437.098 -5.79392 1.9523 0
M  V30 4625 H 441.272 -6.40881 2.72478 0
M  V30 4626 H 438.899 -6.86162 3.27239 0
M  V30 4627 N 440.474 -0.00167713 -1.576 0
M  V30 4628 C 441.704 0.692754 -1.94639 0
M  V30 4629 C 442.112 1.67744 -0.87513 0
M  V30 4630 O 441.455 1.8305 0.154382 0
M  V30 4631 C 441.517 1.47881 -3.27676 0
M  V30 4632 C 441.181 0.655518 -4.52274 0
M  V30 4633 C 442.178 -0.0575214 -5.19868 0
M  V30 4634 C 439.863 0.600994 -4.98692 0
M  V30 4635 C 441.857 -0.814052 -6.3218 0
M  V30 4636 C 439.544 -0.15926 -6.10892 0
M  V30 4637 C 440.542 -0.865515 -6.77494 0
M  V30 4638 O 440.23 -1.61336 -7.87544 0
M  V30 4639 H 439.962 0.197792 -0.646417 0
M  V30 4640 H 442.516 -0.049423 -2.05341 0
M  V30 4641 H 440.746 2.2655 -3.13388 0
M  V30 4642 H 442.435 2.05874 -3.49816 0
M  V30 4643 H 443.201 -0.0245611 -4.84994 0
M  V30 4644 H 439.08 1.14025 -4.46676 0
M  V30 4645 H 442.624 -1.36584 -6.84098 0
M  V30 4646 H 438.521 -0.194035 -6.45208 0
M  V30 4647 H 439.289 -1.53025 -8.04068 0
M  V30 4648 N 441.952 1.55251 0.271103 0
M  V30 4649 C 443.363 1.66635 0.842007 0
M  V30 4650 C 443.714 0.594631 1.86972 0
M  V30 4651 O 442.839 -0.263532 2.14789 0
M  V30 4652 C 443.434 3.02082 1.53401 0
M  V30 4653 C 441.993 3.15487 2.05293 0
M  V30 4654 C 441.14 2.62438 0.895631 0
M  V30 4655 H 444.091 1.58629 0.0474117 0
M  V30 4656 H 444.112 2.95176 2.40107 0
M  V30 4657 H 443.624 3.80062 0.785786 0
M  V30 4658 H 441.725 2.42284 2.83071 0
M  V30 4659 H 441.838 4.22075 2.26693 0
M  V30 4660 H 440.202 2.19644 1.28953 0
M  V30 4661 H 440.985 3.42923 0.160878 0
M  V30 4662 N 443.43 -0.535701 1.48216 0
M  V30 4663 C 444.393 -1.623 1.61838 0
M  V30 4664 C 445.393 -1.53087 0.492024 0
M  V30 4665 O 446.583 -1.5686 0.757668 0
M  V30 4666 C 443.715 -3.01907 1.58319 0
M  V30 4667 H 444.908 -1.51564 2.58783 0
M  V30 4668 H 442.461 -0.757317 1.36727 0
M  V30 4669 H 443.196 -3.18155 0.628299 0
M  V30 4670 H 442.981 -3.10003 2.40085 0
M  V30 4671 H 444.471 -3.80969 1.71033 0
M  V30 4672 N 444.908 -1.36708 -0.784132 0
M  V30 4673 C 446.136 -1.34398 -1.57305 0
M  V30 4674 C 446.551 0.0735577 -1.88657 0
M  V30 4675 O 445.908 1.03193 -1.50524 0
M  V30 4676 C 445.959 -2.17053 -2.89085 0
M  V30 4677 O 445.68 -3.53281 -2.59083 0
M  V30 4678 C 447.181 -2.22583 -3.83369 0
M  V30 4679 H 444.401 -0.460819 -0.487736 0
M  V30 4680 H 446.945 -1.79879 -0.972819 0
M  V30 4681 H 445.1 -1.75113 -3.45564 0
M  V30 4682 H 445.514 -3.9647 -3.43383 0
M  V30 4683 H 446.988 -2.84763 -4.72878 0
M  V30 4684 H 447.465 -1.23075 -4.21603 0
M  V30 4685 H 448.071 -2.64781 -3.32823 0
M  V30 4686 N 446.386 1.0089 -1.21074 0
M  V30 4687 C 447.802 1.2695 -0.967257 0
M  V30 4688 C 448.002 1.9846 0.348673 0
M  V30 4689 O 447.058 2.28459 1.0753 0
M  V30 4690 C 448.371 2.09697 -2.15517 0
M  V30 4691 C 449.919 2.22937 -2.197 0
M  V30 4692 C 450.394 3.09064 -3.37999 0
M  V30 4693 N 451.885 3.16653 -3.38061 0
M  V30 4694 C 452.62 3.8354 -4.26245 0
M  V30 4695 N 452.116 4.52488 -5.2462 0
M  V30 4696 N 453.909 3.80141 -4.14064 0
M  V30 4697 H 446.06 0.529005 -2.05707 0
M  V30 4698 H 448.323 0.296148 -0.900556 0
M  V30 4699 H 448.029 1.64497 -3.10859 0
M  V30 4700 H 447.903 3.10444 -2.14253 0
M  V30 4701 H 450.29 2.67357 -1.24916 0
M  V30 4702 H 450.371 1.21673 -2.2501 0
M  V30 4703 H 450.015 2.65347 -4.33074 0
M  V30 4704 H 449.945 4.10433 -3.29928 0
M  V30 4705 H 452.436 2.67566 -2.66865 0
M  V30 4706 H 452.749 5.01219 -5.88217 0
M  V30 4707 H 451.094 4.51288 -5.28549 0
M  V30 4708 H 454.285 3.25427 -3.36474 0
M  V30 4709 H 454.458 4.31992 -4.82998 0
M  V30 4710 N 447.864 1.01787 1.20321 0
M  V30 4711 C 449.112 0.706538 1.89347 0
M  V30 4712 C 449.433 -0.766289 1.79313 0
M  V30 4713 O 448.703 -1.55126 1.19635 0
M  V30 4714 H 447.283 0.258348 0.700903 0
M  V30 4715 H 449.945 1.28974 1.46122 0
M  V30 4716 H 449.041 0.991066 2.95946 0
M  V30 4717 N 449.342 -1.36122 0.79427 0
M  V30 4718 C 450.29 -2.31871 0.184023 0
M  V30 4719 C 451.284 -1.56041 -0.659365 0
M  V30 4720 O 452.49 -1.71266 -0.553906 0
M  V30 4721 H 448.865 -0.750896 0.0407373 0
M  V30 4722 H 450.836 -2.80898 1.00693 0
M  V30 4723 C 449.585 -3.41324 -0.662813 0
M  V30 4724 H 448.908 -3.99793 -0.0231944 0
M  V30 4725 H 450.348 -4.10629 -1.05639 0
M  V30 4726 C 448.807 -2.83308 -1.82313 0
M  V30 4727 O 449.337 -2.75863 -2.91997 0
M  V30 4728 N 447.543 -2.40529 -1.63077 0
M  V30 4729 H 447.09 -2.46785 -0.738591 0
M  V30 4730 H 447.048 -2.02059 -2.40872 0
M  V30 4731 N 450.82 -0.546701 -1.47814 0
M  V30 4732 C 452.048 -0.0232857 -2.06887 0
M  V30 4733 C 452.463 1.26571 -1.4009 0
M  V30 4734 O 451.82 1.7569 -0.493906 0
M  V30 4735 C 451.871 0.186975 -3.61016 0
M  V30 4736 O 451.592 -1.05097 -4.25307 0
M  V30 4737 C 453.093 0.748872 -4.36929 0
M  V30 4738 H 450.313 -0.0410763 -0.669742 0
M  V30 4739 H 452.857 -0.757117 -1.89968 0
M  V30 4740 H 451.012 0.870903 -3.77484 0
M  V30 4741 H 451.426 -0.842121 -5.17695 0
M  V30 4742 H 452.9 0.845334 -5.45489 0
M  V30 4743 H 453.377 1.75772 -4.02493 0
M  V30 4744 H 453.983 0.100979 -4.2518 0
M  V30 4745 N 452.299 1.55045 -0.282633 0
M  V30 4746 C 453.262 2.21515 0.588539 0
M  V30 4747 C 454.262 1.19535 1.07554 0
M  V30 4748 O 455.452 1.44391 0.974514 0
M  V30 4749 C 452.584 2.88704 1.8128 0
M  V30 4750 H 453.777 2.99899 0.00806397 0
M  V30 4751 H 451.33 1.56265 -0.0333067 0
M  V30 4752 H 452.065 2.14352 2.43359 0
M  V30 4753 H 451.85 3.63443 1.47144 0
M  V30 4754 H 453.34 3.39465 2.43214 0
M  V30 4755 N 453.777 0.010035 1.57597 0
M  V30 4756 C 454.724 -0.978122 2.09049 0
M  V30 4757 C 455.694 -1.33509 0.988159 0
M  V30 4758 O 456.879 -1.43172 1.26121 0
M  V30 4759 C 454.019 -2.26158 2.60666 0
M  V30 4760 C 453.132 -1.96275 3.84838 0
M  V30 4761 C 452.267 -3.18776 4.24918 0
M  V30 4762 C 451.306 -2.84625 5.41899 0
M  V30 4763 N 450.443 -3.99693 5.77226 0
M  V30 4764 H 455.283 -0.532431 2.93205 0
M  V30 4765 H 452.82 -0.251234 1.44939 0
M  V30 4766 H 454.778 -3.01202 2.88675 0
M  V30 4767 H 453.408 -2.68378 1.79369 0
M  V30 4768 H 452.46 -1.11555 3.63675 0
M  V30 4769 H 453.772 -1.67111 4.69974 0
M  V30 4770 H 452.926 -4.02157 4.54262 0
M  V30 4771 H 451.665 -3.51087 3.38511 0
M  V30 4772 H 450.67 -1.99653 5.12268 0
M  V30 4773 H 451.895 -2.53551 6.29991 0
M  V30 4774 H 449.841 -4.31882 4.93776 0
M  V30 4775 H 449.758 -3.74087 6.56959 0
M  V30 4776 H 451.026 -4.83834 6.11167 0
M  V30 4777 N 455.255 -1.55392 -0.262866 0
M  V30 4778 C 456.495 -1.78231 -1.00064 0
M  V30 4779 C 456.859 -0.576966 -1.83126 0
M  V30 4780 O 458.06 -0.683809 -2.59957 0
M  V30 4781 C 456.331 -3.05701 -1.85153 0
M  V30 4782 S 457.89 -3.49699 -2.65058 0
M  V30 4783 H 454.708 -0.626138 -0.336856 0
M  V30 4784 H 457.31 -1.93626 -0.27005 0
M  V30 4785 H 456.014 -3.91511 -1.23074 0
M  V30 4786 H 455.545 -2.93 -2.62515 0
M  V30 4787 H 457.56 -3.09772 -3.87629 0
M  V30 4788 N 456.733 0.527833 -1.48498 0
M  V30 4789 C 457.961 1.30823 -1.6029 0
M  V30 4790 C 458.376 1.86945 -0.263974 0
M  V30 4791 O 457.733 1.6651 0.747034 0
M  V30 4792 C 457.784 2.45756 -2.65116 0
M  V30 4793 O 457.505 1.91946 -3.93813 0
M  V30 4794 C 459.006 3.37543 -2.87367 0
M  V30 4795 H 456.226 0.397763 -0.540394 0
M  V30 4796 H 458.77 0.636529 -1.94341 0
M  V30 4797 H 456.925 3.08806 -2.33917 0
M  V30 4798 H 457.339 2.67195 -4.51339 0
M  V30 4799 H 458.813 4.14532 -3.6451 0
M  V30 4800 H 459.29 3.92905 -1.9627 0
M  V30 4801 H 459.896 2.80283 -3.19878 0
M  V30 4802 N 458.211 1.37122 0.776871 0
M  V30 4803 C 459.436 1.354 1.57104 0
M  V30 4804 C 459.861 -0.0595562 1.88006 0
M  V30 4805 O 459.219 -1.03514 1.48844 0
M  V30 4806 C 459.267 2.19472 2.8612 0
M  V30 4807 O 458.371 1.59582 3.80273 0
M  V30 4808 H 457.712 0.462869 0.476076 0
M  V30 4809 H 460.242 1.80577 0.961932 0
M  V30 4810 H 460.252 2.32502 3.35271 0
M  V30 4811 H 458.927 3.22222 2.62956 0
M  V30 4812 H 457.504 1.55564 3.38902 0
M  V30 4813 N 459.689 -1.00246 1.21608 0
M  V30 4814 C 460.917 -1.77631 1.06089 0
M  V30 4815 C 461.332 -1.84746 -0.38916 0
M  V30 4816 O 460.689 -1.31068 -1.26994 0
M  V30 4817 C 460.74 -3.21415 1.65453 0
M  V30 4818 O 460.461 -3.14703 3.04785 0
M  V30 4819 C 461.962 -4.15289 1.55079 0
M  V30 4820 H 459.182 -0.558162 0.37242 0
M  V30 4821 H 461.726 -1.26093 1.60999 0
M  V30 4822 H 459.881 -3.70053 1.14629 0
M  V30 4823 H 460.295 -4.05056 3.33212 0
M  V30 4824 H 461.769 -5.13965 2.01355 0
M  V30 4825 H 462.246 -4.36279 0.505665 0
M  V30 4826 H 462.852 -3.72543 2.05163 0
M  V30 4827 N 461.167 -1.02423 -1.1978 0
M  V30 4828 C 462.415 -0.716569 -1.8897 0
M  V30 4829 C 462.736 0.756769 -1.79716 0
M  V30 4830 O 462.006 1.5449 -1.20456 0
M  V30 4831 H 460.586 -0.262062 -0.699523 0
M  V30 4832 H 463.248 -1.29747 -1.45436 0
M  V30 4833 H 462.344 -1.00675 -2.95417 0
M  V30 4834 N 462.645 1.35699 -0.801477 0
M  V30 4835 C 463.891 1.99643 -0.389135 0
M  V30 4836 C 464.246 1.62447 1.03095 0
M  V30 4837 O 463.539 0.875064 1.7045 0
M  V30 4838 C 463.733 3.53828 -0.504041 0
M  V30 4839 C 463.562 4.06 -1.93375 0
M  V30 4840 C 462.332 4.35592 -2.561 0
M  V30 4841 C 464.53 4.24905 -2.89759 0
M  V30 4842 N 462.512 4.73663 -3.90534 0
M  V30 4843 C 463.883 4.65914 -4.09052 0
M  V30 4844 C 465.938 4.07101 -2.86658 0
M  V30 4845 C 464.641 4.90984 -5.25669 0
M  V30 4846 C 466.667 4.33324 -4.02472 0
M  V30 4847 C 466.029 4.74601 -5.20512 0
M  V30 4848 H 462.128 0.758552 -0.19006 0
M  V30 4849 H 464.712 1.64493 -1.04164 0
M  V30 4850 H 462.883 3.88219 0.118437 0
M  V30 4851 H 464.615 4.04645 -0.0667794 0
M  V30 4852 H 461.37 4.25728 -2.07492 0
M  V30 4853 H 461.794 4.96965 -4.59734 0
M  V30 4854 H 466.436 3.74335 -1.96552 0
M  V30 4855 H 464.154 5.22626 -6.1635 0
M  V30 4856 H 467.74 4.21107 -4.01447 0
M  V30 4857 H 466.62 4.94497 -6.08639 0
M  V30 4858 N 464.123 0.554532 1.47522 0
M  V30 4859 C 465.372 0.0273458 2.01681 0
M  V30 4860 C 465.685 -1.32962 1.43459 0
M  V30 4861 O 466.891 -1.94657 1.89265 0
M  V30 4862 C 465.347 -0.00159057 3.599 0
M  V30 4863 C 464.955 1.35197 4.27113 0
M  V30 4864 C 466.699 -0.476311 4.21819 0
M  V30 4865 C 464.606 1.28229 5.77331 0
M  V30 4866 H 463.536 0.00645269 0.753972 0
M  V30 4867 H 466.187 0.701985 1.69542 0
M  V30 4868 H 464.569 -0.741821 3.8899 0
M  V30 4869 H 465.743 2.1097 4.09668 0
M  V30 4870 H 464.058 1.76441 3.77171 0
M  V30 4871 H 466.655 -0.5468 5.31897 0
M  V30 4872 H 466.998 -1.4877 3.8881 0
M  V30 4873 H 467.531 0.20898 3.97251 0
M  V30 4874 H 464.27 2.26959 6.14955 0
M  V30 4875 H 463.79 0.566314 5.97121 0
M  V30 4876 H 465.469 0.983226 6.39485 0
M  V30 4877 N 465.601 -1.54893 0.290851 0
M  V30 4878 C 467.012 -1.85584 -0.203816 0
M  V30 4879 C 467.363 -1.21285 -1.54222 0
M  V30 4880 O 466.488 -0.506841 -2.10381 0
M  V30 4881 C 467.083 -3.367 -0.376595 0
M  V30 4882 C 465.642 -3.6746 -0.815485 0
M  V30 4883 C 464.789 -2.77178 0.0821087 0
M  V30 4884 H 467.74 -1.50208 0.512175 0
M  V30 4885 H 467.761 -3.60656 -1.21275 0
M  V30 4886 H 467.273 -3.8347 0.59767 0
M  V30 4887 H 465.374 -3.26201 -1.80066 0
M  V30 4888 H 465.487 -4.7478 -0.641905 0
M  V30 4889 H 463.851 -2.50925 -0.436895 0
M  V30 4890 H 464.634 -3.26767 1.05254 0
M  V30 4891 N 467.08 -0.0183926 -1.57589 0
M  V30 4892 C 468.043 0.951986 -2.08494 0
M  V30 4893 C 469.043 1.26092 -0.997874 0
M  V30 4894 O 470.233 1.20304 -1.25987 0
M  V30 4895 C 467.365 2.27165 -2.54182 0
M  V30 4896 H 468.558 0.511307 -2.95509 0
M  V30 4897 H 466.111 0.229444 -1.54607 0
M  V30 4898 H 466.846 2.75884 -1.70465 0
M  V30 4899 H 466.631 2.06057 -3.33591 0
M  V30 4900 H 468.121 2.9674 -2.93828 0
M  V30 4901 N 468.558 1.5553 0.254621 0
M  V30 4902 C 469.969 1.67518 0.824286 0
M  V30 4903 C 470.32 0.614429 1.86331 0
M  V30 4904 O 469.445 -0.240736 2.15057 0
M  V30 4905 C 470.04 3.03692 1.50189 0
M  V30 4906 C 468.599 3.17646 2.01935 0
M  V30 4907 C 467.746 2.63373 0.867746 0
M  V30 4908 H 470.697 1.58671 0.0305843 0
M  V30 4909 H 470.718 2.97706 2.36962 0
M  V30 4910 H 470.23 3.80874 0.745431 0
M  V30 4911 H 468.331 2.45273 2.80485 0
M  V30 4912 H 468.444 4.24455 2.22204 0
M  V30 4913 H 466.808 2.20999 1.26616 0
M  V30 4914 H 467.591 3.43074 0.124498 0
M  V30 4915 N 470.036 -0.519951 1.48776 0
M  V30 4916 C 471.452 -0.849418 1.35119 0
M  V30 4917 C 471.652 -1.98077 0.36982 0
M  V30 4918 O 470.708 -2.51664 -0.205359 0
M  V30 4919 C 472.021 -1.20748 2.75391 0
M  V30 4920 C 473.569 -1.31679 2.83954 0
M  V30 4921 C 474.044 -1.70824 4.24951 0
M  V30 4922 N 475.535 -1.77908 4.27672 0
M  V30 4923 C 476.27 -2.09603 5.33717 0
M  V30 4924 N 475.766 -2.39652 6.5003 0
M  V30 4925 N 477.559 -2.10694 5.21119 0
M  V30 4926 H 469.71 0.226377 2.1119 0
M  V30 4927 H 471.973 0.0386519 0.947212 0
M  V30 4928 H 471.679 -0.449703 3.48813 0
M  V30 4929 H 471.553 -2.15534 3.09556 0
M  V30 4930 H 473.94 -2.06532 2.10781 0
M  V30 4931 H 474.021 -0.3499 2.53396 0
M  V30 4932 H 473.665 -0.965282 4.98643 0
M  V30 4933 H 473.595 -2.6858 4.52959 0
M  V30 4934 H 476.086 -1.56923 3.43779 0
M  V30 4935 H 476.399 -2.6297 7.26682 0
M  V30 4936 H 474.744 -2.37149 6.53288 0
M  V30 4937 H 477.935 -1.86682 4.29264 0
M  V30 4938 H 478.108 -2.35062 6.03863 0
M  V30 4939 N 471.514 -1.37532 -0.769588 0
M  V30 4940 C 472.754 -1.34261 -1.54122 0
M  V30 4941 C 473.118 0.0717222 -1.91866 0
M  V30 4942 O 474.319 0.22918 -2.67821 0
M  V30 4943 C 472.59 -2.2574 -2.77086 0
M  V30 4944 S 474.149 -2.40339 -3.67127 0
M  V30 4945 H 470.967 -0.476595 -0.527615 0
M  V30 4946 H 473.569 -1.73303 -0.90479 0
M  V30 4947 H 472.273 -3.27417 -2.4744 0
M  V30 4948 H 471.804 -1.87789 -3.45686 0
M  V30 4949 H 473.819 -1.61558 -4.69163 0
M  V30 4950 N 472.992 0.995999 -1.22138 0
M  V30 4951 C 474.22 1.77066 -1.07029 0
M  V30 4952 C 474.635 1.8495 0.379357 0
M  V30 4953 O 473.992 1.3174 1.26297 0
M  V30 4954 C 474.043 3.20533 -1.67155 0
M  V30 4955 O 473.764 3.13082 -3.06449 0
M  V30 4956 C 475.265 4.14461 -1.5728 0
M  V30 4957 H 472.485 0.556179 -0.375374 0
M  V30 4958 H 475.029 1.25238 -1.61666 0
M  V30 4959 H 473.184 3.6944 -1.16589 0
M  V30 4960 H 473.598 4.03283 -3.35355 0
M  V30 4961 H 475.072 5.1289 -2.04078 0
M  V30 4962 H 475.549 4.36005 -0.528795 0
M  V30 4963 H 476.155 3.71449 -2.07136 0
M  V30 4964 N 474.47 1.03057 1.19235 0
M  V30 4965 C 475.4 0.633497 2.24742 0
M  V30 4966 C 476.381 -0.358335 1.66283 0
M  V30 4967 O 477.566 -0.240676 1.92703 0
M  V30 4968 C 474.696 -0.0147648 3.47297 0
M  V30 4969 C 473.65 0.899527 4.18441 0
M  V30 4970 C 472.976 0.116281 5.34574 0
M  V30 4971 C 474.276 2.21404 4.73051 0
M  V30 4972 H 475.97 1.5155 2.58211 0
M  V30 4973 H 473.516 0.73014 1.24117 0
M  V30 4974 H 475.469 -0.304202 4.20301 0
M  V30 4975 H 474.193 -0.931577 3.13032 0
M  V30 4976 H 472.852 1.17319 3.47321 0
M  V30 4977 H 472.5 -0.802619 4.96555 0
M  V30 4978 H 472.2 0.725293 5.83107 0
M  V30 4979 H 473.724 -0.166376 6.10373 0
M  V30 4980 H 475.138 1.98601 5.37802 0
M  V30 4981 H 473.535 2.77512 5.32078 0
M  V30 4982 H 474.605 2.86752 3.91026 0
M  V30 4983 N 475.948 -1.35272 0.808662 0
M  V30 4984 C 476.895 -2.29764 0.218482 0
M  V30 4985 C 477.865 -1.52911 -0.648652 0
M  V30 4986 O 479.05 -1.81341 -0.593297 0
M  V30 4987 C 476.19 -3.39388 -0.625282 0
M  V30 4988 C 475.303 -4.31202 0.262516 0
M  V30 4989 C 474.438 -5.27919 -0.589451 0
M  V30 4990 C 473.477 -6.11371 0.298617 0
M  V30 4991 N 472.614 -7.0022 -0.513443 0
M  V30 4992 H 477.454 -2.79645 1.02968 0
M  V30 4993 H 474.991 -1.37629 0.519303 0
M  V30 4994 H 476.949 -4.01615 -1.12966 0
M  V30 4995 H 475.579 -2.90777 -1.40173 0
M  V30 4996 H 474.631 -3.69962 0.885013 0
M  V30 4997 H 475.943 -4.89748 0.945971 0
M  V30 4998 H 475.097 -5.95529 -1.15888 0
M  V30 4999 H 473.836 -4.69875 -1.30647 0
M  V30 5000 H 472.841 -5.42707 0.880301 0
M  V30 5001 H 474.066 -6.71494 1.01352 0
M  V30 5002 H 472.012 -6.44662 -1.21439 0
M  V30 5003 H 471.929 -7.55917 0.111922 0
M  V30 5004 H 473.197 -7.72175 -1.06608 0
M  V30 5005 N 477.426 -0.562348 -1.47226 0
M  V30 5006 C 478.837 -0.130325 -1.86245 0
M  V30 5007 C 479.188 1.30128 -1.46838 0
M  V30 5008 O 478.313 1.97974 -0.873805 0
M  V30 5009 C 478.908 -0.229738 -3.3802 0
M  V30 5010 C 477.467 0.14728 -3.76112 0
M  V30 5011 C 476.614 -0.574971 -2.71274 0
M  V30 5012 H 479.565 -0.771773 -1.3867 0
M  V30 5013 H 479.586 0.550316 -3.76499 0
M  V30 5014 H 479.098 -1.27178 -3.66671 0
M  V30 5015 H 477.199 1.19023 -3.53078 0
M  V30 5016 H 477.312 -0.214858 -4.78618 0
M  V30 5017 H 475.676 -0.0174756 -2.54694 0
M  V30 5018 H 476.459 -1.61827 -3.02766 0
M  V30 5019 N 478.904 1.54736 -0.299062 0
M  V30 5020 C 480.144 2.0201 0.31168 0
M  V30 5021 C 480.508 1.18281 1.5124 0
M  V30 5022 O 481.709 1.55243 2.19438 0
M  V30 5023 C 479.98 3.5123 0.661227 0
M  V30 5024 S 481.539 4.20467 1.2551 0
M  V30 5025 H 478.357 0.704523 0.0957517 0
M  V30 5026 H 480.959 1.90791 -0.426482 0
M  V30 5027 H 479.663 4.09804 -0.221171 0
M  V30 5028 H 479.194 3.66481 1.43023 0
M  V30 5029 H 481.209 4.26083 2.54298 0
M  V30 5030 N 480.382 0.0267497 1.57577 0
M  V30 5031 C 481.659 -0.690926 1.82991 0
M  V30 5032 C 482.039 -1.90471 0.910164 0
M  V30 5033 O 481.387 -2.28474 -0.0347985 0
M  V30 5034 C 481.597 -1.07139 3.32148 0
M  V30 5035 C 482.945 -1.46402 3.98562 0
M  V30 5036 O 483.969 -1.16443 3.36629 0
M  V30 5037 O 482.828 -2.02214 5.07712 0
M  V30 5038 H 479.922 -0.338747 0.75444 0
M  V30 5039 H 482.468 0.0542506 1.69613 0
M  V30 5040 H 481.24 -0.207394 3.9075 0
M  V30 5041 H 480.863 -1.87481 3.50623 0
M  V30 5042 N 481.861 -1.55662 -0.24637 0
M  V30 5043 C 483.091 -1.81312 -0.990438 0
M  V30 5044 C 483.499 -0.600234 -1.79426 0
M  V30 5045 O 482.842 0.440537 -1.78339 0
M  V30 5046 C 482.904 -3.0032 -1.97607 0
M  V30 5047 C 482.568 -4.36322 -1.35912 0
M  V30 5048 C 483.565 -5.14295 -0.761348 0
M  V30 5049 C 481.25 -4.83019 -1.37833 0
M  V30 5050 C 483.244 -6.37114 -0.190998 0
M  V30 5051 C 480.931 -6.05786 -0.804128 0
M  V30 5052 C 481.929 -6.82672 -0.211489 0
M  V30 5053 O 481.617 -8.03121 0.353845 0
M  V30 5054 H 481.349 -0.607233 -0.297058 0
M  V30 5055 H 483.903 -2.0356 -0.274351 0
M  V30 5056 H 482.133 -2.73829 -2.73047 0
M  V30 5057 H 483.822 -3.13057 -2.58361 0
M  V30 5058 H 484.588 -4.79337 -0.739013 0
M  V30 5059 H 480.467 -4.23165 -1.829 0
M  V30 5060 H 484.011 -6.97069 0.272206 0
M  V30 5061 H 479.908 -6.40222 -0.823792 0
M  V30 5062 H 480.676 -8.18131 0.245761 0
M  V30 5063 N 483.339 0.512053 -1.4905 0
M  V30 5064 C 484.75 1.09376 -1.51307 0
M  V30 5065 C 485.101 1.94 -0.292971 0
M  V30 5066 O 484.226 2.07965 0.598277 0
M  V30 5067 C 484.821 1.99031 -2.74176 0
M  V30 5068 C 483.38 2.52385 -2.79247 0
M  V30 5069 C 482.527 1.29749 -2.45073 0
M  V30 5070 H 485.478 0.296467 -1.55906 0
M  V30 5071 H 485.499 2.83569 -2.53711 0
M  V30 5072 H 485.011 1.37412 -3.62959 0
M  V30 5073 H 483.112 3.17673 -1.94716 0
M  V30 5074 H 483.225 2.90293 -3.81139 0
M  V30 5075 H 481.589 1.61912 -1.96612 0
M  V30 5076 H 482.372 0.698555 -3.36118 0
M  V30 5077 N 484.817 1.37938 0.762283 0
M  V30 5078 C 486.094 1.24196 1.51112 0
M  V30 5079 C 486.474 -0.160409 2.1049 0
M  V30 5080 O 485.822 -1.16904 1.96331 0
M  V30 5081 C 486.032 2.34537 2.58445 0
M  V30 5082 C 487.38 2.7254 3.25588 0
M  V30 5083 O 488.404 2.33783 2.68745 0
M  V30 5084 O 487.263 3.39343 4.28379 0
M  V30 5085 H 484.357 0.485175 0.669727 0
M  V30 5086 H 486.903 1.49743 0.798438 0
M  V30 5087 H 485.675 3.28406 2.12756 0
M  V30 5088 H 485.298 2.10505 3.37303 0
M  V30 5089 N 486.295 -0.989507 1.22664 0
M  V30 5090 C 487.544 -1.72375 1.04737 0
M  V30 5091 C 487.857 -1.91096 -0.417316 0
M  V30 5092 O 489.063 -2.6188 -0.716334 0
M  V30 5093 C 487.519 -3.10161 1.82561 0
M  V30 5094 C 487.127 -2.99358 3.333 0
M  V30 5095 C 488.871 -3.87607 1.73093 0
M  V30 5096 C 486.778 -4.32319 4.03552 0
M  V30 5097 H 485.708 -0.646326 0.388302 0
M  V30 5098 H 488.359 -1.10437 1.46546 0
M  V30 5099 H 486.741 -3.728 1.33552 0
M  V30 5100 H 487.915 -2.45863 3.89728 0
M  V30 5101 H 486.23 -2.35392 3.43481 0
M  V30 5102 H 488.827 -4.86025 2.22899 0
M  V30 5103 H 489.17 -4.10509 0.691976 0
M  V30 5104 H 489.703 -3.31652 2.19663 0
M  V30 5105 H 486.442 -4.14616 5.07714 0
M  V30 5106 H 485.962 -4.85714 3.51911 0
M  V30 5107 H 487.641 -5.01051 4.09337 0
M  V30 5108 N 487.773 -1.03688 -1.18687 0
M  V30 5109 C 488.72 -0.624624 -2.22187 0
M  V30 5110 C 489.69 0.365636 -1.62026 0
M  V30 5111 O 490.875 0.260481 -1.89014 0
M  V30 5112 C 488.015 0.0101738 -3.45099 0
M  V30 5113 C 487.128 -1.02709 -4.19613 0
M  V30 5114 C 486.263 -0.361213 -5.2997 0
M  V30 5115 C 485.302 -1.38384 -5.96252 0
M  V30 5116 N 484.439 -0.743196 -6.98155 0
M  V30 5117 H 489.279 -1.51176 -2.56807 0
M  V30 5118 H 486.816 -0.75636 -1.26165 0
M  V30 5119 H 488.774 0.395528 -4.15321 0
M  V30 5120 H 487.404 0.860848 -3.1111 0
M  V30 5121 H 486.456 -1.53043 -3.48256 0
M  V30 5122 H 487.768 -1.80398 -4.65036 0
M  V30 5123 H 486.922 0.0785537 -6.06649 0
M  V30 5124 H 485.661 0.447799 -4.8564 0
M  V30 5125 H 484.666 -1.83378 -5.18317 0
M  V30 5126 H 485.891 -2.19448 -6.42666 0
M  V30 5127 H 483.837 0.0455789 -6.55984 0
M  V30 5128 H 483.754 -1.45784 -7.41811 0
M  V30 5129 H 485.022 -0.327698 -7.78811 0
M  V30 5130 N 489.251 1.34841 -0.815825 0
M  V30 5131 C 490.201 2.27075 -0.205169 0
M  V30 5132 C 491.185 1.48205 0.626414 0
M  V30 5133 O 492.377 1.70306 0.482157 0
M  V30 5134 C 489.506 3.37322 0.637871 0
M  V30 5135 C 488.592 4.23609 -0.203948 0
M  V30 5136 N 488.983 4.89558 -1.27149 0
M  V30 5137 C 487.281 4.45998 0.0128971 0
M  V30 5138 C 487.982 5.53597 -1.7862 0
M  V30 5139 N 486.958 5.32535 -1.0912 0
M  V30 5140 H 490.76 2.75563 -1.02187 0
M  V30 5141 H 488.274 1.48477 -0.657912 0
M  V30 5142 H 490.271 4.02359 1.09146 0
M  V30 5143 H 488.931 2.90385 1.45281 0
M  V30 5144 H 489.942 4.9077 -1.65423 0
M  V30 5145 H 486.619 4.09837 0.79624 0
M  V30 5146 H 488.009 6.16184 -2.67892 0
M  V30 5147 N 490.729 0.570148 1.46925 0
M  V30 5148 C 491.977 0.0508523 2.02036 0
M  V30 5149 C 492.298 -1.30885 1.44548 0
M  V30 5150 O 491.568 -1.85647 0.625453 0
M  V30 5151 H 490.148 0.0158088 0.746833 0
M  V30 5152 H 492.81 0.743086 1.80178 0
M  V30 5153 H 491.906 -0.027575 3.12088 0
M  V30 5154 N 492.207 -1.54576 0.307264 0
M  V30 5155 C 493.455 -1.99867 -0.299574 0
M  V30 5156 C 493.776 -1.19714 -1.53927 0
M  V30 5157 O 493.046 -0.29472 -1.9367 0
M  V30 5158 H 491.626 -0.738299 -0.113683 0
M  V30 5159 H 494.288 -1.9032 0.420042 0
M  V30 5160 H 493.384 -3.06901 -0.567283 0
M  V30 5161 N 493.685 -0.035106 -1.57561 0
M  V30 5162 C 494.615 0.942993 -2.13612 0
M  V30 5163 C 495.596 1.33531 -1.05373 0
M  V30 5164 O 496.781 1.41287 -1.33235 0
M  V30 5165 C 493.911 2.22332 -2.66807 0
M  V30 5166 C 492.865 1.97156 -3.79886 0
M  V30 5167 C 492.191 3.31506 -4.19533 0
M  V30 5168 C 493.491 1.30596 -5.05709 0
M  V30 5169 H 495.185 0.476179 -2.95589 0
M  V30 5170 H 492.731 0.227602 -1.4219 0
M  V30 5171 H 494.684 2.91142 -3.04654 0
M  V30 5172 H 493.408 2.7119 -1.81999 0
M  V30 5173 H 492.067 1.30763 -3.42486 0
M  V30 5174 H 491.715 3.78134 -3.31698 0
M  V30 5175 H 491.415 3.15465 -4.95738 0
M  V30 5176 H 492.939 4.01574 -4.59968 0
M  V30 5177 H 494.353 1.89416 -5.41105 0
M  V30 5178 H 492.75 1.24934 -5.86951 0
M  V30 5179 H 493.82 0.279742 -4.84092 0
M  V30 5180 N 495.163 1.55791 0.238111 0
M  V30 5181 C 496.393 1.81834 0.980809 0
M  V30 5182 C 496.801 0.609741 1.79106 0
M  V30 5183 O 496.144 -0.431073 1.78571 0
M  V30 5184 C 496.206 3.01363 1.96011 0
M  V30 5185 C 495.87 4.37037 1.33597 0
M  V30 5186 C 496.867 5.14692 0.734063 0
M  V30 5187 C 494.552 4.83743 1.3527 0
M  V30 5188 C 496.546 6.37206 0.157208 0
M  V30 5189 C 494.233 6.06204 0.77199 0
M  V30 5190 C 495.231 6.82775 0.175282 0
M  V30 5191 O 494.919 8.02922 -0.396432 0
M  V30 5192 H 494.651 0.6088 0.293834 0
M  V30 5193 H 497.205 2.03702 0.263552 0
M  V30 5194 H 495.435 2.75273 2.71591 0
M  V30 5195 H 497.124 3.14422 2.56697 0
M  V30 5196 H 497.89 4.79722 0.713582 0
M  V30 5197 H 493.769 4.24129 1.80653 0
M  V30 5198 H 497.313 6.96915 -0.30917 0
M  V30 5199 H 493.21 6.4065 0.789828 0
M  V30 5200 H 493.978 8.17989 -0.289145 0
M  V30 5201 N 496.642 -0.504142 1.49319 0
M  V30 5202 C 497.592 -1.60284 1.62151 0
M  V30 5203 C 498.576 -1.53657 0.477315 0
M  V30 5204 O 499.768 -1.6124 0.730108 0
M  V30 5205 C 496.897 -2.98909 1.68844 0
M  V30 5206 C 495.983 -3.10544 2.8883 0
M  V30 5207 N 496.374 -2.92078 4.12946 0
M  V30 5208 C 494.672 -3.4164 2.86702 0
M  V30 5209 C 495.373 -3.07812 4.93585 0
M  V30 5210 N 494.349 -3.36549 4.26891 0
M  V30 5211 H 498.151 -1.44656 2.55835 0
M  V30 5212 H 495.665 -0.710198 1.46048 0
M  V30 5213 H 497.662 -3.77865 1.76134 0
M  V30 5214 H 496.322 -3.15609 0.762943 0
M  V30 5215 H 497.333 -2.68316 4.42975 0
M  V30 5216 H 494.01 -3.64537 2.03517 0
M  V30 5217 H 495.4 -2.98054 6.02174 0
M  V30 5218 N 498.12 -1.38341 -0.754957 0
M  V30 5219 C 499.03 -1.3769 -1.89944 0
M  V30 5220 C 500.046 -0.274194 -1.71826 0
M  V30 5221 O 501.222 -0.512391 -1.94773 0
M  V30 5222 C 498.287 -1.19938 -3.25293 0
M  V30 5223 C 497.348 -2.40001 -3.55946 0
M  V30 5224 C 496.581 -2.23087 -4.84838 0
M  V30 5225 O 496.804 -1.22386 -5.57116 0
M  V30 5226 O 495.738 -3.11646 -5.14937 0
M  V30 5227 H 499.564 -2.3412 -1.93446 0
M  V30 5228 H 497.149 -1.19246 -0.900044 0
M  V30 5229 H 499.031 -1.12093 -4.06218 0
M  V30 5230 H 497.706 -0.265919 -3.22606 0
M  V30 5231 H 496.613 -2.53421 -2.75188 0
M  V30 5232 H 497.946 -3.31973 -3.63394 0
M  V30 5233 N 499.598 0.982988 -1.23187 0
M  V30 5234 C 500.546 2.09616 -1.00817 0
M  V30 5235 C 501.54 1.6932 0.0519995 0
M  V30 5236 O 502.746 1.79715 -0.101284 0
M  V30 5237 H 499.121 0.685628 -0.308899 0
M  V30 5238 H 501.092 2.25652 -1.95253 0
M  V30 5239 C 499.841 3.42249 -0.613243 0
M  V30 5240 H 499.164 3.73705 -1.42073 0
M  V30 5241 H 500.604 4.21086 -0.496208 0
M  V30 5242 C 499.063 3.30002 0.678233 0
M  V30 5243 O 499.593 3.6263 1.72807 0
M  V30 5244 N 497.799 2.83164 0.653165 0
M  V30 5245 H 497.346 2.56811 -0.201492 0
M  V30 5246 H 497.304 2.75352 1.51752 0
M  V30 5247 N 501.076 1.04316 1.18135 0
M  V30 5248 C 502.009 0.580823 2.20685 0
M  V30 5249 C 502.987 -0.385943 1.57953 0
M  V30 5250 O 504.171 -0.299654 1.86103 0
M  V30 5251 C 501.298 -0.151162 3.38363 0
M  V30 5252 C 500.344 0.769247 4.19505 0
M  V30 5253 S 501.177 2.25352 4.85774 0
M  V30 5254 C 502.333 1.53246 6.0685 0
M  V30 5255 H 502.566 1.44968 2.5956 0
M  V30 5256 H 500.099 0.85434 1.28609 0
M  V30 5257 H 502.057 -0.567315 4.06561 0
M  V30 5258 H 500.718 -0.995936 2.97892 0
M  V30 5259 H 499.911 0.203335 5.0359 0
M  V30 5260 H 499.513 1.12436 3.56699 0
M  V30 5261 H 501.805 0.82689 6.72435 0
M  V30 5262 H 502.748 2.35044 6.67952 0
M  V30 5263 H 503.156 1.0237 5.5514 0
M  V30 5264 N 502.554 -1.34406 0.822964 0
M  V30 5265 C 503.97 -1.51275 0.508727 0
M  V30 5266 C 504.17 -1.76776 -0.967083 0
M  V30 5267 O 503.226 -1.81871 -1.75155 0
M  V30 5268 C 504.539 -2.67765 1.36829 0
M  V30 5269 C 506.087 -2.81647 1.36542 0
M  V30 5270 C 506.562 -4.01181 2.20947 0
M  V30 5271 N 508.053 -4.08388 2.18571 0
M  V30 5272 C 508.788 -5.00036 2.80627 0
M  V30 5273 N 508.284 -5.96906 3.51674 0
M  V30 5274 N 510.077 -4.92908 2.70181 0
M  V30 5275 H 502.228 -1.16113 1.77852 0
M  V30 5276 H 504.491 -0.56947 0.757897 0
M  V30 5277 H 504.197 -2.55551 2.41633 0
M  V30 5278 H 504.071 -3.62779 1.03303 0
M  V30 5279 H 506.458 -2.93303 0.325163 0
M  V30 5280 H 506.539 -1.87443 1.74066 0
M  V30 5281 H 506.183 -3.90286 3.25022 0
M  V30 5282 H 506.113 -4.94599 1.80774 0
M  V30 5283 H 508.604 -3.39051 1.66891 0
M  V30 5284 H 508.917 -6.63468 3.96271 0
M  V30 5285 H 507.262 -5.9703 3.5578 0
M  V30 5286 H 510.453 -4.1619 2.14251 0
M  V30 5287 H 510.626 -5.64137 3.18831 0
M  V30 5288 N 504.032 -0.577932 -1.46621 0
M  V30 5289 C 505.448 -0.239242 -1.57797 0
M  V30 5290 C 505.648 1.25843 -1.57371 0
M  V30 5291 O 504.704 2.03988 -1.48813 0
M  V30 5292 C 506.017 -0.884227 -2.87405 0
M  V30 5293 C 507.565 -0.857373 -3.01028 0
M  V30 5294 C 508.04 -1.48181 -4.33366 0
M  V30 5295 N 509.531 -1.44593 -4.40053 0
M  V30 5296 C 510.266 -1.89852 -5.41058 0
M  V30 5297 N 509.762 -2.43062 -6.48762 0
M  V30 5298 N 511.555 -1.80797 -5.3223 0
M  V30 5299 H 503.706 -1.55073 -1.45142 0
M  V30 5300 H 505.969 -0.647903 -0.692044 0
M  V30 5301 H 505.675 -1.93759 -2.93514 0
M  V30 5302 H 505.549 -0.389585 -3.75183 0
M  V30 5303 H 507.936 0.187357 -2.94505 0
M  V30 5304 H 508.017 -1.38999 -2.14739 0
M  V30 5305 H 507.661 -2.52572 -4.40647 0
M  V30 5306 H 507.591 -0.924464 -5.18422 0
M  V30 5307 H 510.082 -1.05694 -3.62819 0
M  V30 5308 H 510.395 -2.75466 -7.22038 0
M  V30 5309 H 508.74 -2.47085 -6.49595 0
M  V30 5310 H 511.931 -1.38989 -4.46989 0
M  V30 5311 H 512.104 -2.16385 -6.10804 0
M  V30 5312 N 505.51 1.54411 -0.315457 0
M  V30 5313 C 506.921 1.85885 0.174265 0
M  V30 5314 C 507.272 1.23723 1.52273 0
M  V30 5315 O 506.397 0.540246 2.09548 0
M  V30 5316 C 506.992 3.37257 0.322981 0
M  V30 5317 C 505.551 3.68711 0.756922 0
M  V30 5318 C 504.698 2.77013 -0.126195 0
M  V30 5319 H 507.649 1.49374 -0.536007 0
M  V30 5320 H 507.67 3.62539 1.15522 0
M  V30 5321 H 507.182 3.82471 -0.658602 0
M  V30 5322 H 505.283 3.29024 1.74854 0
M  V30 5323 H 505.396 4.75741 0.566291 0
M  V30 5324 H 503.76 2.51588 0.39692 0
M  V30 5325 H 504.543 3.25051 -1.1044 0
M  V30 5326 N 506.988 0.0434614 1.5754 0
M  V30 5327 C 508.218 -0.640905 1.96408 0
M  V30 5328 C 508.626 -1.65365 0.919297 0
M  V30 5329 O 507.969 -1.83395 -0.105795 0
M  V30 5330 C 508.031 -1.39141 3.31482 0
M  V30 5331 C 507.695 -0.535375 4.53853 0
M  V30 5332 C 508.692 0.195335 5.19533 0
M  V30 5333 C 506.377 -0.468564 5.0011 0
M  V30 5334 C 508.371 0.981377 6.298 0
M  V30 5335 C 506.058 0.321171 6.10255 0
M  V30 5336 C 507.056 1.04484 6.74961 0
M  V30 5337 O 506.744 1.8216 7.8299 0
M  V30 5338 H 506.476 -0.180584 0.651433 0
M  V30 5339 H 509.03 0.103848 2.05137 0
M  V30 5340 H 507.26 -2.18162 3.19284 0
M  V30 5341 H 508.949 -1.96526 3.55151 0
M  V30 5342 H 509.715 0.15314 4.84758 0
M  V30 5343 H 505.594 -1.02142 4.49542 0
M  V30 5344 H 509.138 1.54674 6.80237 0
M  V30 5345 H 505.035 0.365032 6.44467 0
M  V30 5346 H 505.803 1.74289 7.99728 0
M  V30 5347 N 508.466 -1.55915 -0.229846 0
M  V30 5348 C 509.713 -1.78542 -0.955452 0
M  V30 5349 C 510.041 -0.610785 -1.84661 0
M  V30 5350 O 509.296 0.405213 -1.91459 0
M  V30 5351 C 509.595 -3.06845 -1.8325 0
M  V30 5352 C 509.261 -4.37395 -1.09528 0
M  V30 5353 C 507.923 -4.72868 -0.891598 0
M  V30 5354 C 510.275 -5.18029 -0.574046 0
M  V30 5355 C 507.603 -5.86496 -0.154655 0
M  V30 5356 C 509.955 -6.32423 0.149513 0
M  V30 5357 C 508.619 -6.66504 0.364519 0
M  V30 5358 H 507.889 -0.653333 -0.349625 0
M  V30 5359 H 510.536 -1.90183 -0.224235 0
M  V30 5360 H 508.841 -2.90291 -2.63132 0
M  V30 5361 H 510.538 -3.21553 -2.39592 0
M  V30 5362 H 507.128 -4.09538 -1.26399 0
M  V30 5363 H 511.312 -4.91066 -0.718899 0
M  V30 5364 H 506.568 -6.11396 0.0222356 0
M  V30 5365 H 510.742 -6.94137 0.560947 0
M  V30 5366 H 508.369 -7.54397 0.937495 0
M  V30 5367 N 509.944 0.496216 -1.49584 0
M  V30 5368 C 511.355 1.07765 -1.52459 0
M  V30 5369 C 511.706 1.93679 -0.31353 0
M  V30 5370 O 510.831 2.08588 0.576186 0
M  V30 5371 C 511.426 1.96111 -2.76271 0
M  V30 5372 C 509.985 2.49409 -2.81908 0
M  V30 5373 C 509.132 1.27142 -2.46435 0
M  V30 5374 H 512.083 0.279914 -1.56212 0
M  V30 5375 H 512.104 2.80862 -2.56704 0
M  V30 5376 H 511.616 1.33555 -3.64396 0
M  V30 5377 H 509.717 3.1559 -1.98074 0
M  V30 5378 H 509.83 2.86234 -3.84196 0
M  V30 5379 H 508.194 1.59818 -1.98319 0
M  V30 5380 H 508.977 0.662866 -3.3684 0
M  V30 5381 N 511.423 1.38739 0.74761 0
M  V30 5382 C 512.669 1.35475 1.50912 0
M  V30 5383 C 513.002 -0.0533093 1.94127 0
M  V30 5384 O 512.277 -1.01572 1.65871 0
M  V30 5385 C 512.56 2.31582 2.75757 0
M  V30 5386 C 512.413 3.81274 2.38642 0
M  V30 5387 C 513.732 2.25722 3.77806 0
M  V30 5388 H 510.851 0.493427 0.547447 0
M  V30 5389 H 513.493 1.69634 0.855823 0
M  V30 5390 H 511.643 2.02582 3.31501 0
M  V30 5391 H 513.315 4.20972 1.88626 0
M  V30 5392 H 511.558 3.98664 1.71025 0
M  V30 5393 H 512.229 4.4399 3.27989 0
M  V30 5394 H 514.705 2.51336 3.31616 0
M  V30 5395 H 513.581 2.95069 4.62845 0
M  V30 5396 H 513.842 1.25803 4.23823 0
M  V30 5397 N 512.901 -0.976442 1.23707 0
M  V30 5398 C 513.864 -2.0511 1.02287 0
M  V30 5399 C 514.864 -1.60791 -0.0167195 0
M  V30 5400 O 516.054 -1.72761 0.223408 0
M  V30 5401 C 513.186 -3.36458 0.548507 0
M  V30 5402 H 514.379 -2.25545 1.9766 0
M  V30 5403 H 511.932 -1.15042 1.05806 0
M  V30 5404 H 512.667 -3.21713 -0.408818 0
M  V30 5405 H 512.452 -3.69967 1.29874 0
M  V30 5406 H 513.942 -4.15489 0.419406 0
M  V30 5407 N 514.379 -1.04941 -1.1758 0
M  V30 5408 C 515.625 -0.759112 -1.88057 0
M  V30 5409 C 515.958 0.711918 -1.8068 0
M  V30 5410 O 515.233 1.52035 -1.21308 0
M  V30 5411 C 515.516 -1.237 -3.38187 0
M  V30 5412 C 515.369 -2.77078 -3.54327 0
M  V30 5413 C 516.688 -0.834014 -4.32125 0
M  V30 5414 H 513.807 -0.277237 -0.682868 0
M  V30 5415 H 516.449 -1.30296 -1.38286 0
M  V30 5416 H 514.599 -0.774337 -3.80705 0
M  V30 5417 H 516.271 -3.31449 -3.20842 0
M  V30 5418 H 514.514 -3.16477 -2.96689 0
M  V30 5419 H 515.185 -3.05577 -4.59703 0
M  V30 5420 H 517.661 -1.23228 -3.97434 0
M  V30 5421 H 516.537 -1.19603 -5.35711 0
M  V30 5422 H 516.798 0.262195 -4.41322 0
M  V30 5423 N 515.857 1.33968 -0.830081 0
M  V30 5424 C 517.105 1.97672 -0.420734 0
M  V30 5425 C 517.426 1.66111 1.02138 0
M  V30 5426 O 516.696 0.955503 1.71017 0
M  V30 5427 H 515.276 0.73125 -0.152587 0
M  V30 5428 H 517.938 1.63483 -1.0611 0
M  V30 5429 H 517.034 3.07294 -0.545588 0
M  V30 5430 N 517.335 0.585699 1.46312 0
M  V30 5431 C 518.282 -0.145835 2.30339 0
M  V30 5432 C 519.252 -0.881215 1.40797 0
M  V30 5433 O 520.437 -0.871293 1.69744 0
M  V30 5434 C 517.577 -1.15161 3.25318 0
M  V30 5435 C 516.69 -0.419367 4.2996 0
M  V30 5436 C 515.825 -1.41293 5.12064 0
M  V30 5437 C 514.864 -0.667261 6.08452 0
M  V30 5438 N 514.001 -1.60903 6.83414 0
M  V30 5439 H 518.841 0.576755 2.92365 0
M  V30 5440 H 516.378 0.296237 1.44086 0
M  V30 5441 H 518.336 -1.74763 3.78832 0
M  V30 5442 H 516.966 -1.84188 2.65094 0
M  V30 5443 H 516.018 0.291751 3.7928 0
M  V30 5444 H 517.33 0.163433 4.98532 0
M  V30 5445 H 516.484 -2.08167 5.6987 0
M  V30 5446 H 515.223 -2.02966 4.43459 0
M  V30 5447 H 514.228 0.0152356 5.49798 0
M  V30 5448 H 515.453 -0.0558817 6.79077 0
M  V30 5449 H 513.399 -2.21381 6.17516 0
M  V30 5450 H 513.316 -1.07911 7.48259 0
M  V30 5451 H 514.584 -2.26802 7.45775 0
M  V30 5452 N 518.813 -1.54241 0.323641 0
M  V30 5453 C 520.043 -2.04687 -0.280464 0
M  V30 5454 C 520.451 -1.19939 -1.46326 0
M  V30 5455 O 519.794 -0.222872 -1.82343 0
M  V30 5456 C 519.856 -3.50978 -0.778123 0
M  V30 5457 C 519.52 -4.56127 0.282371 0
M  V30 5458 C 520.517 -5.07726 1.11847 0
M  V30 5459 C 518.202 -5.00451 0.430582 0
M  V30 5460 C 520.196 -6.02212 2.08851 0
M  V30 5461 C 517.883 -5.94752 1.40404 0
M  V30 5462 C 518.881 -6.45519 2.23147 0
M  V30 5463 O 518.569 -7.37968 3.1884 0
M  V30 5464 H 518.301 -0.673192 -0.0615473 0
M  V30 5465 H 520.855 -1.99999 0.467921 0
M  V30 5466 H 519.085 -3.53064 -1.57742 0
M  V30 5467 H 520.774 -3.84499 -1.30058 0
M  V30 5468 H 521.54 -4.74261 1.01496 0
M  V30 5469 H 517.419 -4.6055 -0.203569 0
M  V30 5470 H 520.963 -6.41761 2.73474 0
M  V30 5471 H 516.86 -6.27633 1.5082 0
M  V30 5472 H 517.628 -7.55841 3.14079 0
M  V30 5473 N 520.291 -0.0518155 -1.57515 0
M  V30 5474 C 521.521 0.63048 -1.96745 0
M  V30 5475 C 521.929 1.64875 -0.928054 0
M  V30 5476 O 521.272 1.83449 0.0960678 0
M  V30 5477 C 521.334 1.37381 -3.32215 0
M  V30 5478 C 520.998 0.511298 -4.54131 0
M  V30 5479 C 521.995 -0.222884 -5.19422 0
M  V30 5480 C 519.68 0.442035 -5.00351 0
M  V30 5481 C 521.674 -1.01476 -6.2927 0
M  V30 5482 C 519.361 -0.35353 -6.10077 0
M  V30 5483 C 520.359 -1.08062 -6.74397 0
M  V30 5484 O 520.047 -1.8631 -7.82013 0
M  V30 5485 H 519.779 0.177126 -0.652382 0
M  V30 5486 H 522.333 -0.114726 -2.05079 0
M  V30 5487 H 520.563 2.16466 -3.20436 0
M  V30 5488 H 522.252 1.9464 -3.56188 0
M  V30 5489 H 523.018 -0.178846 -4.8467 0
M  V30 5490 H 518.897 0.997562 -4.50077 0
M  V30 5491 H 522.441 -1.58279 -6.79407 0
M  V30 5492 H 518.338 -0.399205 -6.44264 0
M  V30 5493 H 519.106 -1.78528 -7.98793 0
M  V30 5494 N 521.769 1.56035 0.221574 0
M  V30 5495 C 522.994 1.83476 0.967026 0
M  V30 5496 C 523.419 0.632139 1.7716 0
M  V30 5497 O 522.777 -0.419082 1.7639 0
M  V30 5498 C 522.825 3.08907 1.86034 0
M  V30 5499 O 521.929 2.876 2.95567 0
M  V30 5500 H 521.27 0.604913 0.273817 0
M  V30 5501 H 523.8 2.03247 0.234893 0
M  V30 5502 H 523.81 3.3901 2.27016 0
M  V30 5503 H 522.485 3.96068 1.26898 0
M  V30 5504 H 521.062 2.6873 2.58532 0
M  V30 5505 N 523.247 -0.488276 1.49845 0
M  V30 5506 C 524.477 -1.26344 1.63465 0
M  V30 5507 C 524.885 -1.86637 0.310379 0
M  V30 5508 O 524.228 -1.69184 -0.715712 0
M  V30 5509 C 524.29 -2.42407 2.65479 0
M  V30 5510 C 523.954 -2.02886 4.09495 0
M  V30 5511 C 524.951 -1.56124 4.95904 0
M  V30 5512 C 522.636 -2.12131 4.55308 0
M  V30 5513 C 524.63 -1.19129 6.26169 0
M  V30 5514 C 522.317 -1.74747 5.85582 0
M  V30 5515 C 523.315 -1.28322 6.70837 0
M  V30 5516 O 523.003 -0.914491 7.98682 0
M  V30 5517 H 522.735 -0.388921 0.552916 0
M  V30 5518 H 525.289 -0.591288 1.96705 0
M  V30 5519 H 523.519 -3.12739 2.27445 0
M  V30 5520 H 525.208 -3.04409 2.68495 0
M  V30 5521 H 525.974 -1.48417 4.61733 0
M  V30 5522 H 521.853 -2.47217 3.89107 0
M  V30 5523 H 525.397 -0.828211 6.92666 0
M  V30 5524 H 521.294 -1.82109 6.19279 0
M  V30 5525 H 522.062 -1.04485 8.11804 0
M  V30 5526 N 524.725 -1.39134 -0.740242 0
M  V30 5527 C 525.955 -1.39132 -1.52728 0
M  V30 5528 C 526.363 0.0173133 -1.89192 0
M  V30 5529 O 525.706 0.997715 -1.54244 0
M  V30 5530 C 525.768 -2.1952 -2.84695 0
M  V30 5531 C 525.432 -3.68203 -2.70695 0
M  V30 5532 C 526.429 -4.61401 -2.39593 0
M  V30 5533 C 524.114 -4.11724 -2.8773 0
M  V30 5534 C 526.108 -5.96102 -2.25701 0
M  V30 5535 C 523.795 -5.46503 -2.73456 0
M  V30 5536 C 524.793 -6.38506 -2.42486 0
M  V30 5537 O 524.481 -7.70803 -2.28295 0
M  V30 5538 H 524.213 -0.477263 -0.478744 0
M  V30 5539 H 526.767 -1.83504 -0.922799 0
M  V30 5540 H 524.997 -1.69888 -3.47383 0
M  V30 5541 H 526.686 -2.1176 -3.46284 0
M  V30 5542 H 527.452 -4.29079 -2.26088 0
M  V30 5543 H 523.331 -3.4045 -3.10829 0
M  V30 5544 H 526.875 -6.6788 -2.0145 0
M  V30 5545 H 522.772 -5.78417 -2.86538 0
M  V30 5546 H 523.54 -7.8147 -2.43405 0
M  V30 5547 N 526.204 0.969867 -1.24223 0
M  V30 5548 C 527.444 1.72754 -1.0925 0
M  V30 5549 C 527.808 1.88541 0.362787 0
M  V30 5550 O 529.009 2.61217 0.633969 0
M  V30 5551 C 527.28 3.08204 -1.80957 0
M  V30 5552 S 528.839 3.99418 -1.81688 0
M  V30 5553 H 525.657 0.593981 -0.390778 0
M  V30 5554 H 528.259 1.15792 -1.5752 0
M  V30 5555 H 526.963 2.94372 -2.85961 0
M  V30 5556 H 526.494 3.70232 -1.33012 0
M  V30 5557 H 528.509 4.8828 -0.883001 0
M  V30 5558 N 527.682 1.05563 1.17022 0
M  V30 5559 C 528.959 0.68165 1.83338 0
M  V30 5560 C 529.339 -0.837665 1.93769 0
M  V30 5561 O 528.687 -1.74507 1.47511 0
M  V30 5562 C 528.897 1.375 3.20772 0
M  V30 5563 C 530.245 1.51545 3.96635 0
M  V30 5564 O 531.269 1.33431 3.30264 0
M  V30 5565 O 530.128 1.812 5.15586 0
M  V30 5566 H 527.222 0.240412 0.791285 0
M  V30 5567 H 529.768 1.15545 1.24288 0
M  V30 5568 H 528.54 2.41135 3.08171 0
M  V30 5569 H 528.163 0.890798 3.87493 0
M  V30 5570 N 529.16 -1.33526 0.837174 0
M  V30 5571 C 530.07 -2.33023 0.271568 0
M  V30 5572 C 531.086 -1.63272 -0.601514 0
M  V30 5573 O 532.262 -1.94939 -0.506038 0
M  V30 5574 C 529.327 -3.42382 -0.545448 0
M  V30 5575 C 528.388 -4.27857 0.351709 0
M  V30 5576 C 527.621 -5.31994 -0.426409 0
M  V30 5577 O 527.844 -5.45763 -1.65828 0
M  V30 5578 O 526.778 -6.01572 0.1987 0
M  V30 5579 H 530.604 -2.83256 1.09545 0
M  V30 5580 H 528.189 -1.36837 0.599655 0
M  V30 5581 H 530.071 -4.09122 -1.00979 0
M  V30 5582 H 528.746 -2.94369 -1.34641 0
M  V30 5583 H 527.653 -3.6399 0.863853 0
M  V30 5584 H 528.986 -4.79349 1.1174 0
M  V30 5585 N 530.638 -0.59345 -1.46 0
M  V30 5586 C 531.588 0.154751 -2.27474 0
M  V30 5587 C 532.572 0.851849 -1.365 0
M  V30 5588 O 533.764 0.744171 -1.60596 0
M  V30 5589 C 530.893 1.16079 -3.2308 0
M  V30 5590 C 529.979 0.465256 -4.2154 0
M  V30 5591 N 530.37 -0.485197 -5.03467 0
M  V30 5592 C 528.668 0.714634 -4.40237 0
M  V30 5593 C 529.369 -0.892709 -5.74809 0
M  V30 5594 N 528.345 -0.239511 -5.43072 0
M  V30 5595 H 532.147 -0.57546 -2.88211 0
M  V30 5596 H 529.661 -0.416046 -1.5698 0
M  V30 5597 H 531.658 1.71108 -3.80168 0
M  V30 5598 H 530.318 1.89171 -2.63903 0
M  V30 5599 H 531.329 -0.861258 -5.10689 0
M  V30 5600 H 528.006 1.43131 -3.92199 0
M  V30 5601 H 529.396 -1.67581 -6.50666 0
M  V30 5602 N 532.116 1.54067 -0.331816 0
M  V30 5603 C 533.363 2.00715 0.268269 0
M  V30 5604 C 533.691 1.21986 1.51491 0
M  V30 5605 O 532.946 0.292309 1.93505 0
M  V30 5606 C 533.245 3.51634 0.639392 0
M  V30 5607 C 532.911 4.48018 -0.509019 0
M  V30 5608 C 531.573 4.74089 -0.824209 0
M  V30 5609 C 533.925 5.05237 -1.28003 0
M  V30 5610 C 531.253 5.54637 -1.91298 0
M  V30 5611 C 533.605 5.86972 -2.35895 0
M  V30 5612 C 532.269 6.11342 -2.67987 0
M  V30 5613 H 531.539 0.734469 0.0981667 0
M  V30 5614 H 534.186 1.8596 -0.457304 0
M  V30 5615 H 532.491 3.6416 1.44551 0
M  V30 5616 H 534.188 3.85175 1.11539 0
M  V30 5617 H 530.778 4.27851 -0.253287 0
M  V30 5618 H 534.962 4.8507 -1.04978 0
M  V30 5619 H 530.218 5.71747 -2.16599 0
M  V30 5620 H 534.392 6.30327 -2.96076 0
M  V30 5621 H 532.019 6.73544 -3.5248 0
M  V30 5622 N 533.594 0.0601682 1.57485 0
M  V30 5623 C 534.504 -0.926121 2.15546 0
M  V30 5624 C 535.52 -1.33532 1.11558 0
M  V30 5625 O 536.696 -1.4104 1.4377 0
M  V30 5626 C 533.761 -2.17952 2.69625 0
M  V30 5627 C 532.822 -1.82783 3.88444 0
M  V30 5628 C 532.055 -3.02148 4.39935 0
M  V30 5629 O 532.278 -4.15803 3.90466 0
M  V30 5630 O 531.212 -2.82639 5.31412 0
M  V30 5631 H 535.038 -0.462289 3.00161 0
M  V30 5632 H 532.623 -0.162246 1.48516 0
M  V30 5633 H 534.505 -2.91474 3.04337 0
M  V30 5634 H 533.18 -2.63456 1.88077 0
M  V30 5635 H 532.087 -1.06549 3.58606 0
M  V30 5636 H 533.42 -1.42072 4.7125 0
M  V30 5637 N 535.072 -1.5615 -0.213296 0
M  V30 5638 C 536.3 -1.83638 -0.953139 0
M  V30 5639 C 536.715 -0.640362 -1.77609 0
M  V30 5640 O 536.072 0.391071 -1.78261 0
M  V30 5641 C 536.123 -3.09735 -1.86405 0
M  V30 5642 O 535.844 -4.24723 -1.07435 0
M  V30 5643 C 537.345 -3.5027 -2.71709 0
M  V30 5644 H 534.565 -0.610263 -0.278962 0
M  V30 5645 H 537.109 -2.03247 -0.226035 0
M  V30 5646 H 535.264 -2.92077 -2.545 0
M  V30 5647 H 535.678 -4.9641 -1.69343 0
M  V30 5648 H 537.152 -4.41515 -3.31313 0
M  V30 5649 H 537.629 -2.72406 -3.44516 0
M  V30 5650 H 538.235 -3.70396 -2.09015 0
M  V30 5651 N 536.55 0.480323 -1.50102 0
M  V30 5652 C 537.961 1.06142 -1.53593 0
M  V30 5653 C 538.312 1.93335 -0.334055 0
M  V30 5654 O 537.437 2.09188 0.55403 0
M  V30 5655 C 538.032 1.9317 -2.78336 0
M  V30 5656 C 536.591 2.46405 -2.84538 0
M  V30 5657 C 535.738 1.24521 -2.4777 0
M  V30 5658 H 538.689 0.26333 -1.565 0
M  V30 5659 H 538.71 2.78123 -2.59669 0
M  V30 5660 H 538.222 1.29683 -3.65792 0
M  V30 5661 H 536.323 3.13472 -2.01411 0
M  V30 5662 H 536.436 2.82143 -3.87211 0
M  V30 5663 H 534.8 1.57706 -2.00003 0
M  V30 5664 H 535.583 0.627102 -3.37524 0
M  V30 5665 N 538.028 1.39524 0.732853 0
M  V30 5666 C 539.253 1.40329 1.52717 0
M  V30 5667 C 539.678 0.000286574 1.881 0
M  V30 5668 O 539.036 -0.987262 1.52062 0
M  V30 5669 C 539.084 2.28464 2.78992 0
M  V30 5670 O 538.188 1.716 3.75003 0
M  V30 5671 H 537.529 0.47778 0.461109 0
M  V30 5672 H 540.059 1.83546 0.903996 0
M  V30 5673 H 540.069 2.43051 3.27705 0
M  V30 5674 H 538.744 3.30425 2.52572 0
M  V30 5675 H 537.321 1.66267 3.33781 0
M  V30 5676 N 539.506 -0.963266 1.24736 0
M  V30 5677 C 540.754 -1.70343 1.08755 0
M  V30 5678 C 541.075 -1.91387 -0.373619 0
M  V30 5679 O 540.345 -1.4948 -1.2662 0
M  V30 5680 H 538.925 -0.631224 0.399456 0
M  V30 5681 H 541.587 -1.15859 1.56725 0
M  V30 5682 H 540.683 -2.68616 1.58909 0
M  V30 5683 N 540.985 -1.06182 -1.16461 0
M  V30 5684 C 542.21 -0.798599 -1.91408 0
M  V30 5685 C 542.635 0.640987 -1.76842 0
M  V30 5686 O 541.993 1.44652 -1.09296 0
M  V30 5687 C 542.041 -1.19665 -3.40165 0
M  V30 5688 O 541.145 -0.334768 -4.11039 0
M  V30 5689 H 540.486 -0.291961 -0.596368 0
M  V30 5690 H 543.016 -1.41732 -1.47557 0
M  V30 5691 H 543.026 -1.16772 -3.90933 0
M  V30 5692 H 541.701 -2.24526 -3.50087 0
M  V30 5693 H 540.278 -0.425168 -3.70468 0
M  V30 5694 N 542.463 1.3308 -0.844243 0
M  V30 5695 C 543.693 2.01515 -0.455541 0
M  V30 5696 C 544.101 1.63655 0.949406 0
M  V30 5697 O 543.444 0.84848 1.62931 0
M  V30 5698 C 543.506 3.55967 -0.502801 0
M  V30 5699 C 543.17 4.17222 -1.86481 0
M  V30 5700 C 544.167 4.36205 -2.8288 0
M  V30 5701 C 541.852 4.53528 -2.15911 0
M  V30 5702 C 543.846 4.90649 -4.06869 0
M  V30 5703 C 541.533 5.07679 -3.40155 0
M  V30 5704 C 542.531 5.26186 -4.35451 0
M  V30 5705 O 542.219 5.79183 -5.57496 0
M  V30 5706 H 541.951 0.65199 -0.178565 0
M  V30 5707 H 544.505 1.70867 -1.1399 0
M  V30 5708 H 542.735 3.85965 0.23836 0
M  V30 5709 H 544.424 4.05688 -0.131169 0
M  V30 5710 H 545.19 4.085 -2.61444 0
M  V30 5711 H 541.069 4.38414 -1.42528 0
M  V30 5712 H 544.613 5.0501 -4.81259 0
M  V30 5713 H 540.51 5.34815 -3.61446 0
M  V30 5714 H 541.278 5.97591 -5.5931 0
M  V30 5715 N 543.941 0.601185 1.45683 0
M  V30 5716 C 545.187 0.102425 2.03142 0
M  V30 5717 C 545.542 -1.25066 1.46207 0
M  V30 5718 O 544.835 -1.81126 0.624806 0
M  V30 5719 C 545.029 -0.00222425 3.574 0
M  V30 5720 C 544.858 1.33917 4.29298 0
M  V30 5721 C 543.628 1.91818 4.67476 0
M  V30 5722 C 545.826 2.26652 4.61664 0
M  V30 5723 N 543.808 3.19504 5.24204 0
M  V30 5724 C 545.179 3.38933 5.19157 0
M  V30 5725 C 547.234 2.26103 4.43601 0
M  V30 5726 C 545.937 4.50823 5.60492 0
M  V30 5727 C 547.963 3.37036 4.85964 0
M  V30 5728 C 547.325 4.48039 5.43545 0
M  V30 5729 H 543.424 0.0806974 0.777825 0
M  V30 5730 H 546.008 0.798134 1.77589 0
M  V30 5731 H 544.179 -0.66714 3.82627 0
M  V30 5732 H 545.911 -0.507058 4.01511 0
M  V30 5733 H 542.666 1.45097 4.50826 0
M  V30 5734 H 543.09 3.84705 5.57073 0
M  V30 5735 H 547.732 1.41547 3.98402 0
M  V30 5736 H 545.45 5.36108 6.0466 0
M  V30 5737 H 549.036 3.37752 4.73725 0
M  V30 5738 H 547.916 5.32459 5.75723 0
M  V30 5739 N 545.419 -1.53889 0.339982 0
M  V30 5740 C 546.696 -1.93084 -0.312719 0
M  V30 5741 C 547.076 -1.2712 -1.68534 0
M  V30 5742 O 546.424 -0.420835 -2.24591 0
M  V30 5743 C 546.634 -3.4683 -0.388558 0
M  V30 5744 C 547.982 -4.19732 -0.641088 0
M  V30 5745 O 549.006 -3.53075 -0.470818 0
M  V30 5746 O 547.865 -5.3781 -0.970685 0
M  V30 5747 H 544.959 -0.806784 -0.18174 0
M  V30 5748 H 547.505 -1.65137 0.390898 0
M  V30 5749 H 546.277 -3.87055 0.574821 0
M  V30 5750 H 545.9 -3.80933 -1.1391 0
M  V30 5751 N 546.897 -0.0685191 -1.57451 0
M  V30 5752 C 547.847 0.909895 -2.09057 0
M  V30 5753 C 548.831 1.26088 -0.999528 0
M  V30 5754 O 550.023 1.24041 -1.26265 0
M  V30 5755 C 547.152 2.17863 -2.65312 0
M  V30 5756 C 546.238 1.85427 -3.81415 0
M  V30 5757 N 546.629 1.23426 -4.9051 0
M  V30 5758 C 544.927 2.15196 -3.90649 0
M  V30 5759 C 545.628 1.09008 -5.71395 0
M  V30 5760 N 544.604 1.59871 -5.1956 0
M  V30 5761 H 548.406 0.426145 -2.90794 0
M  V30 5762 H 545.92 0.135462 -1.61834 0
M  V30 5763 H 547.917 2.88872 -3.00597 0
M  V30 5764 H 546.577 2.66829 -1.85021 0
M  V30 5765 H 547.588 0.904305 -5.09944 0
M  V30 5766 H 544.265 2.66562 -3.21327 0
M  V30 5767 H 545.655 0.607305 -6.6915 0
M  V30 5768 N 548.375 1.56261 0.205012 0
M  V30 5769 C 549.624 1.79236 0.925058 0
M  V30 5770 C 549.937 0.640011 1.84833 0
M  V30 5771 O 551.143 0.753809 2.60826 0
M  V30 5772 C 549.599 3.17475 1.69522 0
M  V30 5773 C 549.207 4.40482 0.817269 0
M  V30 5774 C 550.951 3.49766 2.4055 0
M  V30 5775 C 548.858 5.69744 1.58573 0
M  V30 5776 H 547.788 0.668287 0.349153 0
M  V30 5777 H 550.439 1.82629 0.178544 0
M  V30 5778 H 548.821 3.08304 2.48526 0
M  V30 5779 H 549.995 4.60752 0.0665988 0
M  V30 5780 H 548.31 4.15827 0.218316 0
M  V30 5781 H 550.907 4.43573 2.98575 0
M  V30 5782 H 551.25 2.73041 3.14252 0
M  V30 5783 H 551.783 3.60341 1.68522 0
M  V30 5784 H 548.522 6.49407 0.891679 0
M  V30 5785 H 548.042 5.53509 2.31059 0
M  V30 5786 H 549.721 6.1051 2.14212 0
M  V30 5787 N 549.853 -0.472356 1.50355 0
M  V30 5788 C 550.803 -1.56809 1.65514 0
M  V30 5789 C 551.787 -1.5261 0.509801 0
M  V30 5790 O 552.979 -1.59655 0.764145 0
M  V30 5791 C 550.108 -2.9526 1.75146 0
M  V30 5792 C 549.194 -3.04348 2.95353 0
M  V30 5793 N 549.585 -2.83253 4.19048 0
M  V30 5794 C 547.883 -3.35482 2.93884 0
M  V30 5795 C 548.584 -2.97273 5.00003 0
M  V30 5796 N 547.56 -3.27418 4.33934 0
M  V30 5797 H 551.362 -1.39197 2.58846 0
M  V30 5798 H 548.876 -0.67906 1.47521 0
M  V30 5799 H 550.873 -3.74044 1.8411 0
M  V30 5800 H 549.533 -3.1392 0.829717 0
M  V30 5801 H 550.544 -2.5886 4.48567 0
M  V30 5802 H 547.221 -3.60138 2.11204 0
M  V30 5803 H 548.611 -2.85214 6.08361 0
M  V30 5804 N 551.331 -1.39911 -0.725443 0
M  V30 5805 C 552.571 -1.39096 -1.49772 0
M  V30 5806 C 552.935 0.0106452 -1.91997 0
M  V30 5807 O 554.136 0.143859 -2.68415 0
M  V30 5808 C 552.407 -2.34441 -2.69764 0
M  V30 5809 S 553.966 -2.51898 -3.59295 0
M  V30 5810 H 550.784 -0.49314 -0.512186 0
M  V30 5811 H 553.386 -1.76093 -0.849197 0
M  V30 5812 H 552.09 -3.35123 -2.36898 0
M  V30 5813 H 551.621 -1.98692 -3.39537 0
M  V30 5814 H 553.636 -1.76402 -4.63785 0
M  V30 5815 N 552.809 0.956637 -1.25245 0
M  V30 5816 C 554.037 1.73571 -1.12608 0
M  V30 5817 C 554.452 1.86063 0.320324 0
M  V30 5818 O 553.809 1.35691 1.22042 0
M  V30 5819 C 553.86 3.15053 -1.77268 0
M  V30 5820 O 553.581 3.03174 -3.16255 0
M  V30 5821 C 555.082 4.09248 -1.70386 0
M  V30 5822 H 552.302 0.543955 -0.392879 0
M  V30 5823 H 554.846 1.20031 -1.65568 0
M  V30 5824 H 553.001 3.65543 -1.28284 0
M  V30 5825 H 553.415 3.9241 -3.48015 0
M  V30 5826 H 554.889 5.06138 -2.20291 0
M  V30 5827 H 555.366 4.34102 -0.667239 0
M  V30 5828 H 555.972 3.64672 -2.18849 0
M  V30 5829 N 554.287 1.06798 1.15896 0
M  V30 5830 C 555.219 0.641263 2.20046 0
M  V30 5831 C 556.232 -0.303355 1.59949 0
M  V30 5832 O 557.421 -0.0935478 1.78255 0
M  V30 5833 C 554.521 -0.0794029 3.38807 0
M  V30 5834 C 553.694 0.879986 4.28457 0
M  V30 5835 C 552.753 0.197638 5.25829 0
M  V30 5836 O 551.779 0.836913 5.63014 0
M  V30 5837 N 552.981 -1.05886 5.70761 0
M  V30 5838 H 555.746 1.53718 2.57276 0
M  V30 5839 H 553.307 0.951951 1.30956 0
M  V30 5840 H 555.299 -0.546418 4.00994 0
M  V30 5841 H 553.869 -0.877193 3.0004 0
M  V30 5842 H 553.089 1.52625 3.63454 0
M  V30 5843 H 554.377 1.53065 4.8523 0
M  V30 5844 H 553.775 -1.59828 5.42652 0
M  V30 5845 H 552.332 -1.46965 6.35015 0
M  V30 5846 N 555.766 -1.3263 0.851289 0
M  V30 5847 C 557.043 -1.91982 0.374448 0
M  V30 5848 C 557.423 -1.77568 -1.14161 0
M  V30 5849 O 556.771 -1.1717 -1.96172 0
M  V30 5850 C 556.981 -3.38862 0.835088 0
M  V30 5851 C 558.329 -4.15999 0.850309 0
M  V30 5852 O 559.353 -3.47566 0.779505 0
M  V30 5853 O 558.212 -5.38189 0.949481 0
M  V30 5854 H 555.306 -0.819846 0.10854 0
M  V30 5855 H 557.852 -1.41422 0.937966 0
M  V30 5856 H 556.624 -3.43281 1.87814 0
M  V30 5857 H 556.247 -3.96821 0.248833 0
M  V30 5858 N 557.244 -0.608902 -1.45362 0
M  V30 5859 C 558.492 -0.104401 -2.0183 0
M  V30 5860 C 558.813 1.27007 -1.47967 0
M  V30 5861 O 558.083 1.83924 -0.674455 0
M  V30 5862 H 556.663 -0.0356042 -0.746151 0
M  V30 5863 H 559.325 -0.790596 -1.78145 0
M  V30 5864 H 558.421 -0.0551793 -3.12051 0
M  V30 5865 N 558.722 1.53707 -0.348139 0
M  V30 5866 C 559.968 2.01979 0.239986 0
M  V30 5867 C 560.323 1.23141 1.47831 0
M  V30 5868 O 559.616 0.311936 1.89044 0
M  V30 5869 C 559.81 3.52292 0.602061 0
M  V30 5870 C 559.639 4.45684 -0.599625 0
M  V30 5871 C 558.409 4.9304 -1.10635 0
M  V30 5872 C 560.607 4.93156 -1.4595 0
M  V30 5873 N 558.589 5.70394 -2.26988 0
M  V30 5874 C 559.96 5.6868 -2.46988 0
M  V30 5875 C 562.015 4.75257 -1.48441 0
M  V30 5876 C 560.718 6.28208 -3.50353 0
M  V30 5877 C 562.744 5.35639 -2.50689 0
M  V30 5878 C 562.106 6.11034 -3.50453 0
M  V30 5879 H 558.205 0.780335 0.0509992 0
M  V30 5880 H 560.789 1.88466 -0.488742 0
M  V30 5881 H 558.96 3.66002 1.29989 0
M  V30 5882 H 560.692 3.87304 1.17377 0
M  V30 5883 H 557.447 4.68784 -0.67371 0
M  V30 5884 H 557.871 6.13741 -2.85747 0
M  V30 5885 H 562.513 4.16508 -0.726707 0
M  V30 5886 H 560.231 6.86064 -4.27015 0
M  V30 5887 H 563.817 5.23693 -2.53449 0
M  V30 5888 H 562.697 6.56925 -4.28275 0
M  V30 5889 N 560.2 0.0768682 1.57412 0
M  V30 5890 C 561.425 -0.603404 1.98428 0
M  V30 5891 C 561.85 -1.62047 0.955108 0
M  V30 5892 O 561.208 -1.81129 -0.0786778 0
M  V30 5893 C 561.256 -1.24396 3.38464 0
M  V30 5894 O 560.36 -2.35982 3.3821 0
M  V30 5895 H 559.701 -0.154741 0.645718 0
M  V30 5896 H 562.231 0.152885 2.04028 0
M  V30 5897 H 562.241 -1.5896 3.7576 0
M  V30 5898 H 560.916 -0.498735 4.12899 0
M  V30 5899 H 559.493 -2.03173 3.1269 0
M  V30 5900 N 561.678 -1.56367 -0.196722 0
M  V30 5901 C 563.089 -1.70462 -0.761545 0
M  V30 5902 C 563.44 -0.683161 -1.83922 0
M  V30 5903 O 562.565 0.160753 -2.15802 0
M  V30 5904 C 563.16 -3.09057 -1.38814 0
M  V30 5905 C 561.719 -3.24922 -1.90007 0
M  V30 5906 C 560.866 -2.66412 -0.769399 0
M  V30 5907 H 563.817 -1.58675 0.0283263 0
M  V30 5908 H 563.838 -3.06296 -2.2575 0
M  V30 5909 H 563.35 -3.83378 -0.603559 0
M  V30 5910 H 561.451 -2.55514 -2.71189 0
M  V30 5911 H 561.564 -4.3241 -2.06297 0
M  V30 5912 H 559.928 -2.25546 -1.18326 0
M  V30 5913 H 560.711 -3.433 0.00291773 0
M  V30 5914 N 563.156 0.464375 -1.50603 0
M  V30 5915 C 564.119 1.54393 -1.69397 0
M  V30 5916 C 565.119 1.50566 -0.564504 0
M  V30 5917 O 566.309 1.53066 -0.831645 0
M  V30 5918 C 563.441 2.9401 -1.72543 0
M  V30 5919 H 564.634 1.39044 -2.65719 0
M  V30 5920 H 562.187 0.69122 -1.40185 0
M  V30 5921 H 562.922 3.14795 -0.77938 0
M  V30 5922 H 562.707 2.98195 -2.54602 0
M  V30 5923 H 564.197 3.72375 -1.89015 0
M  V30 5924 N 564.634 1.40294 0.718013 0
M  V30 5925 C 565.88 1.38645 1.48005 0
M  V30 5926 C 566.213 -0.0121202 1.94196 0
M  V30 5927 O 565.488 -0.980309 1.67989 0
M  V30 5928 C 565.771 2.37379 2.70782 0
M  V30 5929 C 565.624 3.8625 2.30501 0
M  V30 5930 C 566.943 2.33685 3.72933 0
M  V30 5931 H 564.062 0.504928 0.536858 0
M  V30 5932 H 566.704 1.71411 0.819649 0
M  V30 5933 H 564.854 2.09568 3.27129 0
M  V30 5934 H 566.526 4.24879 1.79655 0
M  V30 5935 H 564.769 4.02202 1.6253 0
M  V30 5936 H 565.44 4.50847 3.18498 0
M  V30 5937 H 567.916 2.58314 3.2621 0
M  V30 5938 H 566.792 3.0482 4.56482 0
M  V30 5939 H 567.053 1.34765 4.21059 0
M  V30 5940 N 566.112 -0.949982 1.2575 0
M  V30 5941 C 567.523 -1.50989 1.09815 0
M  V30 5942 C 567.874 -1.93497 -0.324556 0
M  V30 5943 O 566.999 -1.79068 -1.21506 0
M  V30 5944 C 567.594 -2.74394 1.98729 0
M  V30 5945 C 566.153 -3.26682 1.86965 0
M  V30 5946 C 565.3 -1.99498 1.92603 0
M  V30 5947 H 568.251 -0.766387 1.38968 0
M  V30 5948 H 568.272 -3.48383 1.53001 0
M  V30 5949 H 567.784 -2.43425 3.02268 0
M  V30 5950 H 565.885 -3.62461 0.863279 0
M  V30 5951 H 565.998 -3.94383 2.72027 0
M  V30 5952 H 564.362 -2.15005 1.36546 0
M  V30 5953 H 565.145 -1.70871 2.97755 0
M  V30 5954 N 567.59 -1.07411 -1.15328 0
M  V30 5955 C 568.83 -0.807011 -1.87794 0
M  V30 5956 C 569.194 0.654987 -1.80482 0
M  V30 5957 O 570.395 1.03716 -2.47985 0
M  V30 5958 C 568.666 -1.30198 -3.32841 0
M  V30 5959 S 570.225 -1.16564 -4.23034 0
M  V30 5960 H 567.043 -0.292429 -0.648079 0
M  V30 5961 H 569.645 -1.37334 -1.39139 0
M  V30 5962 H 568.349 -2.3607 -3.35707 0
M  V30 5963 H 567.88 -0.730881 -3.86551 0
M  V30 5964 H 569.895 -0.103557 -4.96092 0
M  V30 5965 N 569.068 1.32177 -0.85831 0
M  V30 5966 C 569.998 2.31282 -0.321041 0
M  V30 5967 C 570.979 1.59841 0.581786 0
M  V30 5968 O 572.164 1.87619 0.501262 0
M  V30 5969 C 569.294 3.4385 0.48832 0
M  V30 5970 C 568.248 4.26799 -0.320391 0
M  V30 5971 C 567.574 5.31164 0.613934 0
M  V30 5972 C 568.874 4.98829 -1.54813 0
M  V30 5973 H 570.568 2.76469 -1.14915 0
M  V30 5974 H 568.114 1.32916 -0.554028 0
M  V30 5975 H 570.067 4.12224 0.874626 0
M  V30 5976 H 568.791 2.97401 1.34983 0
M  V30 5977 H 567.45 3.60077 -0.688497 0
M  V30 5978 H 567.098 4.80967 1.47239 0
M  V30 5979 H 566.798 5.8755 0.0768097 0
M  V30 5980 H 568.322 6.024 0.997336 0
M  V30 5981 H 569.736 5.59864 -1.23392 0
M  V30 5982 H 568.133 5.64957 -2.02346 0
M  V30 5983 H 569.203 4.26483 -2.30739 0
M  V30 5984 N 570.547 0.616602 1.45037 0
M  V30 5985 C 571.963 0.280994 1.57107 0
M  V30 5986 C 572.163 -1.21627 1.60653 0
M  V30 5987 O 571.219 -1.9997 1.54169 0
M  V30 5988 C 572.532 0.960116 2.8496 0
M  V30 5989 C 574.08 0.936884 2.98649 0
M  V30 5990 C 574.555 1.59619 4.29285 0
M  V30 5991 N 576.046 1.5621 4.36065 0
M  V30 5992 C 576.781 2.04131 5.35834 0
M  V30 5993 N 576.277 2.60177 6.4209 0
M  V30 5994 N 578.07 1.94845 5.27249 0
M  V30 5995 H 570.221 1.58867 1.40979 0
M  V30 5996 H 572.484 0.666024 0.674623 0
M  V30 5997 H 572.19 2.01473 2.88273 0
M  V30 5998 H 572.064 0.488921 3.74018 0
M  V30 5999 H 574.451 -0.109209 2.94898 0
M  V30 6000 H 574.532 1.44643 2.10979 0
M  V30 6001 H 574.176 2.64166 4.33796 0
M  V30 6002 H 574.106 1.06159 5.15789 0
M  V30 6003 H 576.597 1.15276 3.59889 0
M  V30 6004 H 576.91 2.94513 7.1448 0
M  V30 6005 H 575.255 2.64221 6.42816 0
M  V30 6006 H 578.446 1.50792 4.43147 0
M  V30 6007 H 578.619 2.32504 6.04852 0
M  V30 6008 N 572.025 -1.5352 0.356285 0
M  V30 6009 C 572.972 -2.25439 -0.494569 0
M  V30 6010 C 573.942 -1.25752 -1.08516 0
M  V30 6011 O 575.127 -1.54513 -1.1194 0
M  V30 6012 C 572.267 -3.04011 -1.63313 0
M  V30 6013 C 571.38 -4.18574 -1.06862 0
M  V30 6014 C 570.515 -4.84607 -2.17552 0
M  V30 6015 C 569.554 -5.91218 -1.58518 0
M  V30 6016 N 568.691 -6.50979 -2.63003 0
M  V30 6017 H 573.531 -2.97737 0.125244 0
M  V30 6018 H 571.068 -1.46916 0.0735789 0
M  V30 6019 H 573.026 -3.47834 -2.30363 0
M  V30 6020 H 571.656 -2.33986 -2.22374 0
M  V30 6021 H 570.708 -3.79303 -0.288672 0
M  V30 6022 H 572.02 -4.95215 -0.596924 0
M  V30 6023 H 571.174 -5.31566 -2.92442 0
M  V30 6024 H 569.913 -4.07418 -2.6807 0
M  V30 6025 H 568.918 -5.4363 -0.821391 0
M  V30 6026 H 570.143 -6.70322 -1.08836 0
M  V30 6027 H 568.089 -5.76648 -3.12751 0
M  V30 6028 H 568.006 -7.23131 -2.20493 0
M  V30 6029 H 569.274 -7.02589 -3.37623 0
M  V30 6030 N 573.503 -0.0852151 -1.57369 0
M  V30 6031 C 574.743 0.584297 -1.95871 0
M  V30 6032 C 575.107 1.6596 -0.965473 0
M  V30 6033 O 576.308 2.38561 -1.23862 0
M  V30 6034 C 574.579 1.13411 -3.38929 0
M  V30 6035 S 576.138 1.81687 -3.99419 0
M  V30 6036 H 572.956 0.19095 -0.684879 0
M  V30 6037 H 575.558 -0.162267 -1.94825 0
M  V30 6038 H 574.262 0.339845 -4.0899 0
M  V30 6039 H 573.793 1.91672 -3.43548 0
M  V30 6040 H 575.808 3.10037 -3.87417 0
M  V30 6041 N 574.981 1.5647 0.188427 0
M  V30 6042 C 576.211 1.84863 0.922463 0
M  V30 6043 C 576.619 0.666413 1.77075 0
M  V30 6044 O 575.962 -0.374044 1.79852 0
M  V30 6045 C 576.024 3.07447 1.86324 0
M  V30 6046 C 575.688 4.41066 1.19625 0
M  V30 6047 C 576.685 5.16767 0.569946 0
M  V30 6048 C 574.37 4.87802 1.19811 0
M  V30 6049 C 576.364 6.37384 -0.045594 0
M  V30 6050 C 574.051 6.08353 0.57874 0
M  V30 6051 C 575.049 6.82987 -0.0420259 0
M  V30 6052 O 574.737 8.01254 -0.651675 0
M  V30 6053 H 574.469 0.61784 0.274316 0
M  V30 6054 H 577.023 2.04437 0.198613 0
M  V30 6055 H 575.253 2.83774 2.62696 0
M  V30 6056 H 576.942 3.2243 2.46564 0
M  V30 6057 H 577.708 4.81749 0.560601 0
M  V30 6058 H 573.587 4.29662 1.67069 0
M  V30 6059 H 577.131 6.95578 -0.530731 0
M  V30 6060 H 573.028 6.42838 0.58561 0
M  V30 6061 H 573.796 8.16655 -0.549236 0
M  V30 6062 N 576.459 -0.456382 1.50847 0
M  V30 6063 C 577.706 -1.20736 1.62571 0
M  V30 6064 C 578.034 -1.9163 0.332904 0
M  V30 6065 O 577.289 -1.8343 -0.682058 0
M  V30 6066 C 577.588 -2.26336 2.76599 0
M  V30 6067 C 577.254 -1.7259 4.16562 0
M  V30 6068 C 575.916 -1.57654 4.54641 0
M  V30 6069 C 578.268 -1.32877 5.03977 0
M  V30 6070 C 575.596 -1.0145 5.77862 0
M  V30 6071 C 577.948 -0.7811 6.27759 0
M  V30 6072 C 576.612 -0.618488 6.64628 0
M  V30 6073 H 575.882 -0.441803 0.594888 0
M  V30 6074 H 578.529 -0.501169 1.84826 0
M  V30 6075 H 576.834 -3.0292 2.48489 0
M  V30 6076 H 578.531 -2.84227 2.82871 0
M  V30 6077 H 575.121 -1.85187 3.86528 0
M  V30 6078 H 579.305 -1.43245 4.75179 0
M  V30 6079 H 574.561 -0.876109 6.0509 0
M  V30 6080 H 578.735 -0.464783 6.94847 0
M  V30 6081 H 576.362 -0.180838 7.59985 0
M  V30 6082 N 577.937 -1.40673 -0.710563 0
M  V30 6083 C 579.348 -1.34975 -1.28991 0
M  V30 6084 C 579.699 -0.0256272 -1.96183 0
M  V30 6085 O 578.824 0.876339 -1.97862 0
M  V30 6086 C 579.419 -2.44467 -2.34567 0
M  V30 6087 C 577.978 -2.42213 -2.88114 0
M  V30 6088 C 577.125 -2.25085 -1.61963 0
M  V30 6089 H 580.076 -1.50406 -0.506343 0
M  V30 6090 H 580.097 -2.12663 -3.15523 0
M  V30 6091 H 579.609 -3.40825 -1.85634 0
M  V30 6092 H 577.71 -1.49568 -3.41263 0
M  V30 6093 H 577.823 -3.37983 -3.39565 0
M  V30 6094 H 576.187 -1.72691 -1.87216 0
M  V30 6095 H 576.97 -3.23449 -1.15047 0
M  V30 6096 N 579.415 0.9433 -1.26252 0
M  V30 6097 C 580.645 1.72117 -1.14277 0
M  V30 6098 C 581.053 1.86726 0.304944 0
M  V30 6099 O 580.396 1.3727 1.22076 0
M  V30 6100 C 580.458 3.14778 -1.73651 0
M  V30 6101 C 580.122 3.23561 -3.22734 0
M  V30 6102 C 581.119 3.07001 -4.19579 0
M  V30 6103 C 578.804 3.47019 -3.63157 0
M  V30 6104 C 580.798 3.13763 -5.54826 0
M  V30 6105 C 578.485 3.53416 -4.98538 0
M  V30 6106 C 579.483 3.36804 -5.94182 0
M  V30 6107 O 579.171 3.42906 -7.27098 0
M  V30 6108 H 578.903 0.545781 -0.398873 0
M  V30 6109 H 581.457 1.19123 -1.67328 0
M  V30 6110 H 579.687 3.69186 -1.1506 0
M  V30 6111 H 581.376 3.74469 -1.56613 0
M  V30 6112 H 582.142 2.88736 -3.89688 0
M  V30 6113 H 578.021 3.59006 -2.89199 0
M  V30 6114 H 581.565 3.00714 -6.29458 0
M  V30 6115 H 577.462 3.71201 -5.28091 0
M  V30 6116 H 578.23 3.59463 -7.35342 0
M  V30 6117 N 580.893 1.08022 1.14757 0
M  V30 6118 C 581.823 0.728248 2.21853 0
M  V30 6119 C 582.804 -0.287486 1.67653 0
M  V30 6120 O 583.989 -0.158727 1.9355 0
M  V30 6121 C 581.119 0.132549 3.47047 0
M  V30 6122 C 580.073 1.07619 4.14249 0
M  V30 6123 C 579.399 0.342907 5.33599 0
M  V30 6124 C 580.699 2.41268 4.63235 0
M  V30 6125 H 582.393 1.62365 2.51551 0
M  V30 6126 H 579.939 0.782125 1.20908 0
M  V30 6127 H 581.892 -0.125665 4.21213 0
M  V30 6128 H 580.616 -0.797971 3.16702 0
M  V30 6129 H 579.275 1.31944 3.42033 0
M  V30 6130 H 578.923 -0.59129 4.99513 0
M  V30 6131 H 578.623 0.971955 5.79506 0
M  V30 6132 H 580.147 0.0926538 6.1053 0
M  V30 6133 H 581.561 2.21232 5.28894 0
M  V30 6134 H 579.958 2.9983 5.19829 0
M  V30 6135 H 581.028 3.03079 3.78512 0
M  V30 6136 N 582.371 -1.3172 0.865308 0
M  V30 6137 C 583.281 -2.32394 0.320935 0
M  V30 6138 C 584.297 -1.64511 -0.566746 0
M  V30 6139 O 585.473 -1.95969 -0.464575 0
M  V30 6140 C 582.538 -3.43462 -0.472701 0
M  V30 6141 C 581.599 -4.27015 0.442385 0
M  V30 6142 C 580.832 -5.32779 -0.313469 0
M  V30 6143 O 581.055 -5.49158 -1.54214 0
M  V30 6144 O 579.989 -6.01015 0.326257 0
M  V30 6145 H 583.815 -2.80868 1.15528 0
M  V30 6146 H 581.4 -1.35535 0.628545 0
M  V30 6147 H 583.282 -4.11172 -0.922781 0
M  V30 6148 H 581.957 -2.97159 -1.28367 0
M  V30 6149 H 580.864 -3.62075 0.940866 0
M  V30 6150 H 582.197 -4.76871 1.21882 0
M  V30 6151 N 583.85 -0.624285 -1.44708 0
M  V30 6152 C 584.798 0.0969952 -2.32398 0
M  V30 6153 C 585.792 0.842762 -1.46949 0
M  V30 6154 O 586.998 0.756436 -1.63334 0
M  V30 6155 H 583.373 0.0501306 -0.750327 0
M  V30 6156 H 585.344 -0.660767 -2.90992 0
M  V30 6157 C 584.093 1.06967 -3.30837 0
M  V30 6158 H 583.416 0.505242 -3.96595 0
M  V30 6159 H 584.856 1.54397 -3.94889 0
M  V30 6160 C 583.315 2.15153 -2.5925 0
M  V30 6161 O 583.845 3.23139 -2.3863 0
M  V30 6162 N 582.051 1.90898 -2.19103 0
M  V30 6163 H 581.598 1.03086 -2.36074 0
M  V30 6164 H 581.556 2.63485 -1.71531 0
M  V30 6165 N 585.328 1.53329 -0.364422 0
M  V30 6166 C 586.576 2.00842 0.225189 0
M  V30 6167 C 586.897 1.25345 1.49378 0
M  V30 6168 O 586.167 0.366396 1.92443 0
M  V30 6169 H 584.747 0.742009 0.0862027 0
M  V30 6170 H 587.409 1.8863 -0.490389 0
M  V30 6171 H 586.505 3.08795 0.452987 0
M  V30 6172 N 586.806 0.0935595 1.57322 0
M  V30 6173 C 588.036 -0.578095 1.98347 0
M  V30 6174 C 588.444 -1.62357 0.971441 0
M  V30 6175 O 587.787 -1.83639 -0.0473959 0
M  V30 6176 C 587.849 -1.28525 3.3574 0
M  V30 6177 C 587.513 -0.390714 4.55327 0
M  V30 6178 C 588.51 0.360522 5.18648 0
M  V30 6179 C 586.195 -0.309221 5.01347 0
M  V30 6180 C 588.189 1.18125 6.26359 0
M  V30 6181 C 585.876 0.515157 6.08925 0
M  V30 6182 C 586.874 1.25904 6.71295 0
M  V30 6183 O 586.562 2.06978 7.76798 0
M  V30 6184 H 586.294 -0.159767 0.656849 0
M  V30 6185 H 588.848 0.169058 2.04703 0
M  V30 6186 H 587.078 -2.07894 3.26063 0
M  V30 6187 H 588.767 -1.85128 3.61223 0
M  V30 6188 H 589.533 0.307285 4.84026 0
M  V30 6189 H 585.412 -0.877881 4.52564 0
M  V30 6190 H 588.956 1.76236 6.74971 0
M  V30 6191 H 584.853 0.56988 6.42979 0
M  V30 6192 H 585.621 1.99644 7.93779 0
M  V30 6193 N 588.284 -1.56567 -0.180126 0
M  V30 6194 C 589.232 -1.96632 -1.24251 0
M  V30 6195 C 590.226 -0.853818 -1.46309 0
M  V30 6196 O 591.432 -1.0389 -1.46993 0
M  V30 6197 H 587.807 -0.625476 -0.417473 0
M  V30 6198 H 589.778 -2.85201 -0.877679 0
M  V30 6199 C 588.527 -2.33486 -2.57642 0
M  V30 6200 H 587.85 -3.18626 -2.4149 0
M  V30 6201 H 589.29 -2.65371 -3.30688 0
M  V30 6202 C 587.749 -1.17499 -3.15746 0
M  V30 6203 O 588.279 -0.457956 -3.99081 0
M  V30 6204 N 586.485 -0.94786 -2.74707 0
M  V30 6205 H 586.032 -1.53269 -2.07042 0
M  V30 6206 H 585.99 -0.173626 -3.1392 0
M  V30 6207 N 589.762 0.448376 -1.51087 0
M  V30 6208 C 590.694 1.56146 -1.67783 0
M  V30 6209 C 591.707 1.52913 -0.55871 0
M  V30 6210 O 592.896 1.57889 -0.83267 0
M  V30 6211 C 589.996 2.95057 -1.66716 0
M  V30 6212 C 589.169 3.22915 -2.95033 0
M  V30 6213 C 588.228 4.41495 -2.86302 0
M  V30 6214 O 587.254 4.40688 -3.60254 0
M  V30 6215 N 588.456 5.44443 -2.014 0
M  V30 6216 H 591.221 1.42232 -2.638 0
M  V30 6217 H 588.782 0.637153 -1.48835 0
M  V30 6218 H 590.774 3.72388 -1.58458 0
M  V30 6219 H 589.344 3.02624 -0.783403 0
M  V30 6220 H 588.564 2.33985 -3.17245 0
M  V30 6221 H 589.852 3.38349 -3.79996 0
M  V30 6222 H 589.25 5.4793 -1.40674 0
M  V30 6223 H 587.807 6.2067 -1.99029 0
M  V30 6224 N 591.24 1.41047 0.703093 0
M  V30 6225 C 592.188 1.42494 1.83843 0
M  V30 6226 C 593.182 0.303885 1.66652 0
M  V30 6227 O 594.388 0.475544 1.73605 0
M  V30 6228 H 590.763 0.445685 0.605697 0
M  V30 6229 H 592.734 2.38194 1.79739 0
M  V30 6230 C 591.483 1.31666 3.21807 0
M  V30 6231 H 590.806 2.17212 3.35647 0
M  V30 6232 H 592.246 1.36738 4.01346 0
M  V30 6233 C 590.705 0.0281828 3.36888 0
M  V30 6234 O 591.235 -0.929995 3.90786 0
M  V30 6235 N 589.441 -0.0454322 2.90564 0
M  V30 6236 H 588.988 0.735046 2.4689 0
M  V30 6237 H 588.946 -0.906968 3.01034 0
M  V30 6238 N 592.718 -0.936591 1.26751 0
M  V30 6239 C 593.948 -1.71509 1.15188 0
M  V30 6240 C 594.356 -1.86885 -0.295037 0
M  V30 6241 O 593.699 -1.37915 -1.21347 0
M  V30 6242 C 593.761 -3.13853 1.75318 0
M  V30 6243 C 593.425 -3.21845 3.24445 0
M  V30 6244 C 594.422 -3.04771 4.21201 0
M  V30 6245 C 592.107 -3.45088 3.64992 0
M  V30 6246 C 594.101 -3.10816 5.56482 0
M  V30 6247 C 591.788 -3.50767 5.00405 0
M  V30 6248 C 592.786 -3.33648 5.9596 0
M  V30 6249 O 592.474 -3.39045 7.28906 0
M  V30 6250 H 592.206 -0.543658 0.401761 0
M  V30 6251 H 594.76 -1.18234 1.67958 0
M  V30 6252 H 592.99 -3.6857 1.17016 0
M  V30 6253 H 594.679 -3.73634 1.58596 0
M  V30 6254 H 595.445 -2.86665 3.91214 0
M  V30 6255 H 591.324 -3.57467 2.91098 0
M  V30 6256 H 594.868 -2.97372 6.31043 0
M  V30 6257 H 590.765 -3.68396 5.30052 0
M  V30 6258 H 591.533 -3.55558 7.37238 0
M  V30 6259 N 594.196 -1.08629 -1.14182 0
M  V30 6260 C 595.444 -0.815731 -1.84906 0
M  V30 6261 C 595.765 0.660441 -1.83475 0
M  V30 6262 O 595.035 1.47888 -1.28476 0
M  V30 6263 H 593.615 -0.298773 -0.684648 0
M  V30 6264 H 596.277 -1.37274 -1.38354 0
M  V30 6265 H 595.373 -1.16193 -2.89665 0
M  V30 6266 N 595.674 1.31259 -0.872281 0
M  V30 6267 C 597.09 1.49283 -0.564521 0
M  V30 6268 C 597.29 1.80243 0.900807 0
M  V30 6269 O 596.346 1.88246 1.68284 0
M  V30 6270 C 597.659 2.62503 -1.46673 0
M  V30 6271 C 599.207 2.76386 -1.46901 0
M  V30 6272 C 599.682 3.92705 -2.35684 0
M  V30 6273 N 601.173 3.99995 -2.33577 0
M  V30 6274 C 601.908 4.89276 -2.98992 0
M  V30 6275 N 601.404 5.83443 -3.73585 0
M  V30 6276 N 603.197 4.82541 -2.88289 0
M  V30 6277 H 595.348 1.09432 -1.82039 0
M  V30 6278 H 597.611 0.540949 -0.77851 0
M  V30 6279 H 597.317 2.46407 -2.50951 0
M  V30 6280 H 597.191 3.58695 -1.16696 0
M  V30 6281 H 599.578 2.91894 -0.433796 0
M  V30 6282 H 599.659 1.80853 -1.80903 0
M  V30 6283 H 599.303 3.77954 -3.39283 0
M  V30 6284 H 599.233 4.87549 -1.99006 0
M  V30 6285 H 601.724 3.32624 -1.7936 0
M  V30 6286 H 602.037 6.48303 -4.20622 0
M  V30 6287 H 600.382 5.83415 -3.77694 0
M  V30 6288 H 603.573 4.07951 -2.2955 0
M  V30 6289 H 603.746 5.51916 -3.39549 0
M  V30 6290 N 597.152 0.631951 1.44375 0
M  V30 6291 C 598.099 -0.0724807 2.30686 0
M  V30 6292 C 599.069 -0.835975 1.43529 0
M  V30 6293 O 600.254 -0.816849 1.7243 0
M  V30 6294 C 597.394 -1.04753 3.28817 0
M  V30 6295 C 596.507 -0.282367 4.31076 0
M  V30 6296 C 595.642 -1.2493 5.163 0
M  V30 6297 C 594.681 -0.473349 6.10267 0
M  V30 6298 N 593.818 -1.39079 6.88187 0
M  V30 6299 H 598.658 0.669477 2.90383 0
M  V30 6300 H 596.195 0.341927 1.43071 0
M  V30 6301 H 598.153 -1.62623 3.842 0
M  V30 6302 H 596.783 -1.75661 2.70819 0
M  V30 6303 H 595.835 0.412268 3.78159 0
M  V30 6304 H 597.147 0.321955 4.9776 0
M  V30 6305 H 596.301 -1.89931 5.76204 0
M  V30 6306 H 595.04 -1.88755 4.49692 0
M  V30 6307 H 594.045 0.190142 5.49471 0
M  V30 6308 H 595.27 0.16019 6.78911 0
M  V30 6309 H 593.216 -2.01623 6.24247 0
M  V30 6310 H 593.133 -0.840513 7.51313 0
M  V30 6311 H 594.401 -2.02961 7.52613 0
M  V30 6312 N 598.631 -1.53133 0.372548 0
M  V30 6313 C 599.878 -2.01356 -0.214959 0
M  V30 6314 C 600.206 -1.2596 -1.48204 0
M  V30 6315 O 599.461 -0.343511 -1.92662 0
M  V30 6316 C 599.76 -3.53206 -0.545938 0
M  V30 6317 C 599.426 -4.46511 0.627624 0
M  V30 6318 C 598.088 -4.71737 0.949615 0
M  V30 6319 C 600.44 -5.01666 1.41353 0
M  V30 6320 C 597.768 -5.4937 2.05936 0
M  V30 6321 C 600.12 -5.80511 2.51375 0
M  V30 6322 C 598.784 -6.04022 2.84101 0
M  V30 6323 H 598.054 -0.736813 -0.078659 0
M  V30 6324 H 600.701 -1.84682 0.506447 0
M  V30 6325 H 599.006 -3.67864 -1.34845 0
M  V30 6326 H 600.703 -3.87997 -1.01287 0
M  V30 6327 H 597.293 -4.27029 0.366635 0
M  V30 6328 H 601.477 -4.82117 1.17802 0
M  V30 6329 H 596.733 -5.65803 2.31682 0
M  V30 6330 H 600.907 -6.22255 3.12684 0
M  V30 6331 H 598.534 -6.63962 3.70214 0
M  V30 6332 N 600.109 -0.101901 -1.5727 0
M  V30 6333 C 601.355 0.561027 -1.94885 0
M  V30 6334 C 601.688 1.6741 -0.984258 0
M  V30 6335 O 600.963 1.94491 -0.0184767 0
M  V30 6336 C 601.246 1.10982 -3.42571 0
M  V30 6337 C 601.099 0.00133418 -4.498 0
M  V30 6338 C 602.418 2.00608 -3.9172 0
M  V30 6339 H 599.537 0.202467 -0.708644 0
M  V30 6340 H 602.179 -0.173992 -1.89202 0
M  V30 6341 H 600.329 1.73621 -3.47546 0
M  V30 6342 H 602.001 -0.63322 -4.56933 0
M  V30 6343 H 600.244 -0.664143 -4.28686 0
M  V30 6344 H 600.915 0.426253 -5.50352 0
M  V30 6345 H 603.391 1.47864 -3.88941 0
M  V30 6346 H 602.267 2.3593 -4.95609 0
M  V30 6347 H 602.528 2.92608 -3.3141 0
M  V30 6348 N 601.587 1.56661 0.17182 0
M  V30 6349 C 602.519 1.92934 1.2373 0
M  V30 6350 C 603.532 0.822385 1.40502 0
M  V30 6351 O 604.721 1.10083 1.40514 0
M  V30 6352 C 601.821 2.16651 2.60607 0
M  V30 6353 C 600.994 3.47878 2.6514 0
M  V30 6354 C 600.053 3.60429 3.83377 0
M  V30 6355 O 599.079 4.33051 3.69398 0
M  V30 6356 N 600.281 2.95241 4.99813 0
M  V30 6357 H 603.046 2.84931 0.929205 0
M  V30 6358 H 600.607 1.5781 0.361588 0
M  V30 6359 H 602.599 2.22312 3.38171 0
M  V30 6360 H 601.169 1.3104 2.83809 0
M  V30 6361 H 600.389 3.53879 1.73675 0
M  V30 6362 H 601.677 4.34232 2.6518 0
M  V30 6363 H 601.075 2.3611 5.14071 0
M  V30 6364 H 599.632 3.06499 5.75241 0
M  V30 6365 N 603.065 -0.440357 1.51323 0
M  V30 6366 C 604.313 -1.18769 1.63518 0
M  V30 6367 C 604.634 -1.91793 0.352201 0
M  V30 6368 O 603.904 -1.85432 -0.631811 0
M  V30 6369 H 602.484 -0.441408 0.602634 0
M  V30 6370 H 605.146 -0.505162 1.8824 0
M  V30 6371 H 604.242 -1.91892 2.46138 0
M  V30 6372 N 604.543 -1.41418 -0.695603 0
M  V30 6373 C 605.49 -1.43264 -1.80954 0
M  V30 6374 C 606.46 -0.287016 -1.63601 0
M  V30 6375 O 607.645 -0.488054 -1.84452 0
M  V30 6376 C 604.785 -1.32054 -3.18835 0
M  V30 6377 C 603.898 -2.56485 -3.4762 0
M  V30 6378 C 603.033 -2.3757 -4.75115 0
M  V30 6379 C 602.072 -3.57477 -4.96867 0
M  V30 6380 N 601.209 -3.37632 -6.15588 0
M  V30 6381 H 606.049 -2.38467 -1.78711 0
M  V30 6382 H 603.586 -1.18415 -0.872715 0
M  V30 6383 H 605.544 -1.23558 -3.98484 0
M  V30 6384 H 604.174 -0.404592 -3.20254 0
M  V30 6385 H 603.226 -2.75432 -2.62376 0
M  V30 6386 H 604.538 -3.45678 -3.59594 0
M  V30 6387 H 603.692 -2.2654 -5.62818 0
M  V30 6388 H 602.431 -1.45834 -4.65386 0
M  V30 6389 H 601.436 -3.68961 -4.07612 0
M  V30 6390 H 602.661 -4.50167 -5.08455 0
M  V30 6391 H 600.607 -2.48596 -6.07072 0
M  V30 6392 H 600.524 -4.20401 -6.2833 0
M  V30 6393 H 601.792 -3.30375 -7.06026 0
M  V30 6394 N 606.021 0.929856 -1.27246 0
M  V30 6395 C 607.246 1.71674 -1.16374 0
M  V30 6396 C 607.671 1.86064 0.276024 0
M  V30 6397 O 607.029 1.3591 1.19992 0
M  V30 6398 C 607.077 3.09526 -1.85003 0
M  V30 6399 O 606.181 3.96142 -1.14653 0
M  V30 6400 H 605.522 0.52629 -0.404863 0
M  V30 6401 H 608.052 1.16381 -1.68276 0
M  V30 6402 H 608.062 3.59852 -1.92276 0
M  V30 6403 H 606.737 2.98369 -2.89739 0
M  V30 6404 H 605.314 3.54584 -1.15433 0
M  V30 6405 N 607.499 1.09233 1.13605 0
M  V30 6406 C 608.748 0.82205 1.84188 0
M  V30 6407 C 609.061 -0.654548 1.84323 0
M  V30 6408 O 610.267 -1.04029 2.50779 0
M  V30 6409 C 608.723 1.42066 3.30674 0
M  V30 6410 C 608.331 2.92965 3.38933 0
M  V30 6411 C 610.075 1.22924 4.06313 0
M  V30 6412 C 607.982 3.45922 4.79679 0
M  V30 6413 H 606.912 0.303854 0.690064 0
M  V30 6414 H 609.563 1.31479 1.28006 0
M  V30 6415 H 607.945 0.855613 3.86646 0
M  V30 6416 H 609.119 3.55679 2.92966 0
M  V30 6417 H 607.434 3.11118 2.76757 0
M  V30 6418 H 610.031 1.59945 5.10217 0
M  V30 6419 H 610.374 0.169726 4.15954 0
M  V30 6420 H 610.907 1.76168 3.56665 0
M  V30 6421 H 607.646 4.51484 4.75229 0
M  V30 6422 H 607.166 2.87971 5.26149 0
M  V30 6423 H 608.845 3.43009 5.48592 0
M  V30 6424 N 608.977 -1.30795 0.87923 0
M  V30 6425 C 610.254 -1.91145 0.415086 0
M  V30 6426 C 610.634 -1.7995 -1.10368 0
M  V30 6427 O 609.982 -1.21305 -1.93642 0
M  V30 6428 C 610.192 -3.37014 0.906778 0
M  V30 6429 C 611.54 -4.14101 0.938358 0
M  V30 6430 O 612.564 -3.45834 0.853053 0
M  V30 6431 O 611.423 -5.36054 1.06342 0
M  V30 6432 H 608.517 -0.81736 0.125905 0
M  V30 6433 H 611.063 -1.39401 0.967753 0
M  V30 6434 H 609.835 -3.3922 1.95053 0
M  V30 6435 H 609.458 -3.96204 0.332948 0
M  V30 6436 N 610.455 -0.639598 -1.44038 0
M  V30 6437 C 611.701 -0.147698 -2.02261 0
M  V30 6438 C 612.034 1.23031 -1.50256 0
M  V30 6439 O 611.309 1.81847 -0.690068 0
M  V30 6440 C 611.592 -0.14362 -3.59813 0
M  V30 6441 C 611.445 -1.55458 -4.22082 0
M  V30 6442 C 612.764 0.527317 -4.36929 0
M  V30 6443 H 609.883 -0.0551453 -0.734934 0
M  V30 6444 H 612.525 -0.817688 -1.71505 0
M  V30 6445 H 610.675 0.426898 -3.86147 0
M  V30 6446 H 612.347 -2.17464 -4.06826 0
M  V30 6447 H 610.59 -2.10594 -3.79253 0
M  V30 6448 H 611.261 -1.50369 -5.31124 0
M  V30 6449 H 613.737 0.0420504 -4.16079 0
M  V30 6450 H 612.613 0.499389 -5.46624 0
M  V30 6451 H 612.874 1.59914 -4.12165 0
M  V30 6452 N 611.933 1.52934 -0.380664 0
M  V30 6453 C 612.896 2.24809 0.446473 0
M  V30 6454 C 613.896 1.26133 0.997347 0
M  V30 6455 O 615.086 1.50297 0.880714 0
M  V30 6456 C 612.218 2.99649 1.62553 0
M  V30 6457 H 613.411 2.99343 -0.182677 0
M  V30 6458 H 610.964 1.55736 -0.132618 0
M  V30 6459 H 611.699 2.29395 2.29235 0
M  V30 6460 H 611.484 3.72066 1.23732 0
M  V30 6461 H 612.974 3.54246 2.21133 0
M  V30 6462 N 613.412 0.11024 1.57214 0
M  V30 6463 C 614.652 -0.553061 1.96775 0
M  V30 6464 C 615.016 -1.64403 0.991753 0
M  V30 6465 O 616.217 -2.36561 1.27642 0
M  V30 6466 C 614.488 -1.08004 3.4069 0
M  V30 6467 S 616.047 -1.75309 4.02259 0
M  V30 6468 H 612.865 -0.18003 0.68783 0
M  V30 6469 H 615.467 0.193242 1.94543 0
M  V30 6470 H 614.171 -0.274735 4.09479 0
M  V30 6471 H 613.702 -1.86182 3.46554 0
M  V30 6472 H 615.717 -3.03834 3.923 0
M  V30 6473 N 614.89 -1.56749 -0.16351 0
M  V30 6474 C 615.84 -1.93424 -1.20712 0
M  V30 6475 C 616.824 -0.803469 -1.39403 0
M  V30 6476 O 618.016 -1.06675 -1.41243 0
M  V30 6477 C 615.145 -2.30431 -2.54473 0
M  V30 6478 C 614.231 -3.5004 -2.39443 0
M  V30 6479 N 614.622 -4.67058 -1.9414 0
M  V30 6480 C 612.92 -3.548 -2.70246 0
M  V30 6481 C 613.621 -5.49184 -1.9176 0
M  V30 6482 N 612.597 -4.9044 -2.34457 0
M  V30 6483 H 616.399 -2.8138 -0.848681 0
M  V30 6484 H 613.913 -1.58089 -0.371717 0
M  V30 6485 H 615.91 -2.54903 -3.29894 0
M  V30 6486 H 614.57 -1.43818 -2.91112 0
M  V30 6487 H 615.581 -4.91128 -1.64357 0
M  V30 6488 H 612.258 -2.78685 -3.10871 0
M  V30 6489 H 613.648 -6.5297 -1.58366 0
M  V30 6490 N 616.368 0.432326 -1.51554 0
M  V30 6491 C 617.779 1.01202 -1.56892 0
M  V30 6492 C 618.13 1.92175 -0.395394 0
M  V30 6493 O 617.255 2.10844 0.487198 0
M  V30 6494 C 617.85 1.84217 -2.8434 0
M  V30 6495 C 616.409 2.37228 -2.92233 0
M  V30 6496 C 615.556 1.16576 -2.51606 0
M  V30 6497 H 618.507 0.213407 -1.57259 0
M  V30 6498 H 618.528 2.69721 -2.68385 0
M  V30 6499 H 618.04 1.17979 -3.69733 0
M  V30 6500 H 616.141 3.06905 -2.11282 0
M  V30 6501 H 616.254 2.69682 -3.95991 0
M  V30 6502 H 614.618 1.51263 -2.04919 0
M  V30 6503 H 615.401 0.519404 -3.39348 0
M  V30 6504 N 617.846 1.41785 0.688094 0
M  V30 6505 C 619.094 1.41264 1.4453 0
M  V30 6506 C 619.415 0.0252946 1.94984 0
M  V30 6507 O 618.685 -0.934081 1.72197 0
M  V30 6508 H 617.265 0.519998 0.536294 0
M  V30 6509 H 619.927 1.7709 0.813941 0
M  V30 6510 H 619.023 2.10439 2.30482 0
M  V30 6511 N 619.324 -0.923095 1.27737 0
M  V30 6512 C 620.554 -1.70277 1.17001 0
M  V30 6513 C 620.962 -1.87188 -0.275199 0
M  V30 6514 O 620.305 -1.39195 -1.19877 0
M  V30 6515 C 620.367 -3.11976 1.78637 0
M  V30 6516 C 620.031 -3.18386 3.27841 0
M  V30 6517 C 621.028 -3.00287 4.2441 0
M  V30 6518 C 618.713 -3.41198 3.68632 0
M  V30 6519 C 620.707 -3.04896 5.59747 0
M  V30 6520 C 618.394 -3.4544 5.04097 0
M  V30 6521 C 619.392 -3.27309 5.99465 0
M  V30 6522 O 619.08 -3.31295 7.32461 0
M  V30 6523 H 618.812 -0.539366 0.407505 0
M  V30 6524 H 621.366 -1.16446 1.69202 0
M  V30 6525 H 619.596 -3.67308 1.20919 0
M  V30 6526 H 621.285 -3.7193 1.6255 0
M  V30 6527 H 622.051 -2.825 3.94232 0
M  V30 6528 H 617.93 -3.54359 2.94873 0
M  V30 6529 H 621.474 -2.90662 6.34162 0
M  V30 6530 H 617.371 -3.62753 5.33929 0
M  V30 6531 H 618.139 -3.47719 7.40968 0
M  V30 6532 N 620.802 -1.09834 -1.13024 0
M  V30 6533 C 621.765 -0.745058 -2.16752 0
M  V30 6534 C 622.765 0.227435 -1.59183 0
M  V30 6535 O 623.955 0.0050786 -1.74199 0
M  V30 6536 C 621.087 -0.102543 -3.40746 0
M  V30 6537 H 622.28 -1.66375 -2.49518 0
M  V30 6538 H 619.833 -0.898061 -1.27924 0
M  V30 6539 H 620.568 0.827177 -3.13573 0
M  V30 6540 H 620.353 -0.80235 -3.83803 0
M  V30 6541 H 621.843 0.129082 -4.174 0
M  V30 6542 N 622.28 1.30327 -0.886154 0
M  V30 6543 C 623.21 2.30549 -0.370028 0
M  V30 6544 C 624.191 1.61039 0.547751 0
M  V30 6545 O 625.376 1.8864 0.461353 0
M  V30 6546 C 622.506 3.44808 0.415275 0
M  V30 6547 C 621.46 4.26024 -0.41085 0
M  V30 6548 C 620.786 5.32347 0.501128 0
M  V30 6549 C 622.086 4.95433 -1.65359 0
M  V30 6550 H 623.78 2.73969 -1.20754 0
M  V30 6551 H 621.326 1.3171 -0.582097 0
M  V30 6552 H 623.279 4.13986 0.78699 0
M  V30 6553 H 622.003 3.00197 1.28644 0
M  V30 6554 H 620.662 3.58535 -0.764719 0
M  V30 6555 H 620.31 4.83982 1.37004 0
M  V30 6556 H 620.01 5.87581 -0.0478356 0
M  V30 6557 H 621.534 6.0438 0.869333 0
M  V30 6558 H 622.948 5.5712 -1.35239 0
M  V30 6559 H 621.345 5.60537 -2.14284 0
M  V30 6560 H 622.415 4.21493 -2.39733 0
M  V30 6561 N 623.758 0.647228 1.43697 0
M  V30 6562 C 625.169 0.238689 1.85168 0
M  V30 6563 C 625.52 -1.21345 1.54175 0
M  V30 6564 O 624.645 -1.92542 0.987743 0
M  V30 6565 C 625.24 0.426422 3.36106 0
M  V30 6566 C 623.799 0.0722541 3.76331 0
M  V30 6567 C 622.946 0.732153 2.6746 0
M  V30 6568 H 625.897 0.851309 1.33934 0
M  V30 6569 H 625.918 -0.32987 3.79067 0
M  V30 6570 H 625.43 1.48339 3.58632 0
M  V30 6571 H 623.531 -0.982355 3.59417 0
M  V30 6572 H 623.644 0.493541 4.76551 0
M  V30 6573 H 622.008 0.16594 2.54159 0
M  V30 6574 H 622.791 1.79204 2.92816 0
M  V30 6575 N 625.236 -1.5273 0.388769 0
M  V30 6576 C 626.183 -2.26437 -0.446639 0
M  V30 6577 C 627.153 -1.28025 -1.05824 0
M  V30 6578 O 628.338 -1.56852 -1.08637 0
M  V30 6579 C 625.478 -3.07407 -1.56828 0
M  V30 6580 C 624.591 -4.20747 -0.979589 0
M  V30 6581 C 623.726 -4.89113 -2.07224 0
M  V30 6582 C 622.765 -5.94447 -1.45942 0
M  V30 6583 N 621.902 -6.56411 -2.49135 0
M  V30 6584 H 626.742 -2.97404 0.18837 0
M  V30 6585 H 624.279 -1.46727 0.104725 0
M  V30 6586 H 626.237 -3.52642 -2.22934 0
M  V30 6587 H 624.867 -2.3865 -2.17361 0
M  V30 6588 H 623.919 -3.7983 -0.208151 0
M  V30 6589 H 625.231 -4.9637 -0.491747 0
M  V30 6590 H 624.385 -5.3765 -2.81101 0
M  V30 6591 H 623.124 -4.13013 -2.59368 0
M  V30 6592 H 622.129 -5.4525 -0.705894 0
M  V30 6593 H 623.354 -6.7248 -0.945932 0
M  V30 6594 H 621.3 -5.83152 -3.00449 0
M  V30 6595 H 621.217 -7.27645 -2.05105 0
M  V30 6596 H 622.485 -7.09592 -3.22644 0
M  V30 6597 N 626.714 -0.118576 -1.57153 0
M  V30 6598 C 627.677 0.817464 -2.14127 0
M  V30 6599 C 628.677 1.1949 -1.07604 0
M  V30 6600 O 629.867 1.12048 -1.33382 0
M  V30 6601 C 626.999 2.10541 -2.68115 0
M  V30 6602 H 628.192 0.322339 -2.98163 0
M  V30 6603 H 625.745 0.130655 -1.55753 0
M  V30 6604 H 626.48 2.64485 -1.87665 0
M  V30 6605 H 626.265 1.84425 -3.4602 0
M  V30 6606 H 627.755 2.77453 -3.12105 0
M  V30 6607 N 628.193 1.56834 0.155195 0
M  V30 6608 C 629.125 1.94235 1.21677 0
M  V30 6609 C 630.138 0.83724 1.39621 0
M  V30 6610 O 631.327 1.11567 1.39338 0
M  V30 6611 C 628.427 2.19402 2.58294 0
M  V30 6612 C 627.6 3.50671 2.61436 0
M  V30 6613 C 626.659 3.64475 3.79532 0
M  V30 6614 O 625.685 4.36945 3.64784 0
M  V30 6615 N 626.887 3.00526 4.96653 0
M  V30 6616 H 629.652 2.85901 0.898932 0
M  V30 6617 H 627.213 1.58185 0.34483 0
M  V30 6618 H 629.205 2.25886 3.35794 0
M  V30 6619 H 627.775 1.34042 2.82403 0
M  V30 6620 H 626.995 3.55702 1.69912 0
M  V30 6621 H 628.283 4.3702 2.60559 0
M  V30 6622 H 627.681 2.41549 5.11538 0
M  V30 6623 H 626.238 3.12583 5.71958 0
M  V30 6624 N 629.671 -0.424282 1.51781 0
M  V30 6625 C 630.899 -1.1947 1.68921 0
M  V30 6626 C 631.314 -1.84683 0.39213 0
M  V30 6627 O 630.671 -1.71261 -0.630554 0
M  V30 6628 C 630.722 -2.26909 2.81416 0
M  V30 6629 O 630.443 -1.64361 4.061 0
M  V30 6630 C 631.944 -3.16945 3.09937 0
M  V30 6631 H 629.164 -0.359591 0.566511 0
M  V30 6632 H 631.708 -0.501139 1.98265 0
M  V30 6633 H 629.863 -2.91959 2.54635 0
M  V30 6634 H 630.277 -2.35468 4.68674 0
M  V30 6635 H 631.751 -3.88437 3.922 0
M  V30 6636 H 632.228 -3.78451 2.22871 0
M  V30 6637 H 632.834 -2.57581 3.38426 0
M  V30 6638 N 631.149 -1.42148 -0.680565 0
M  V30 6639 C 632.377 -1.45696 -1.46902 0
M  V30 6640 C 632.792 -0.0665858 -1.88683 0
M  V30 6641 O 632.149 0.917436 -1.57764 0
M  V30 6642 C 632.2 -2.37898 -2.72188 0
M  V30 6643 O 631.921 -3.71526 -2.32163 0
M  V30 6644 C 633.422 -2.50407 -3.65802 0
M  V30 6645 H 630.642 -0.495729 -0.45221 0
M  V30 6646 H 633.186 -1.866 -0.836709 0
M  V30 6647 H 631.341 -2.00263 -3.31622 0
M  V30 6648 H 631.755 -4.20849 -3.13027 0
M  V30 6649 H 633.229 -3.19056 -4.50452 0
M  V30 6650 H 633.706 -1.5401 -4.11312 0
M  V30 6651 H 634.312 -2.8874 -3.12265 0
M  V30 6652 N 632.627 0.916307 -1.28225 0
M  V30 6653 C 633.873 1.66765 -1.154 0
M  V30 6654 C 634.206 1.91912 0.297251 0
M  V30 6655 O 633.481 1.51766 1.21644 0
M  V30 6656 C 633.764 3.02715 -1.95028 0
M  V30 6657 C 633.617 2.84738 -3.48201 0
M  V30 6658 C 634.936 4.03215 -1.76369 0
M  V30 6659 H 632.055 0.605205 -0.42059 0
M  V30 6660 H 634.697 1.06255 -1.57512 0
M  V30 6661 H 632.847 3.54365 -1.59242 0
M  V30 6662 H 634.519 2.40118 -3.9388 0
M  V30 6663 H 632.762 2.19848 -3.73964 0
M  V30 6664 H 633.433 3.8127 -3.99171 0
M  V30 6665 H 635.909 3.60617 -2.07593 0
M  V30 6666 H 634.785 4.96306 -2.34459 0
M  V30 6667 H 635.046 4.36288 -0.71452 0
M  V30 6668 N 634.105 1.10431 1.1244 0
M  V30 6669 C 635.333 0.868872 1.87772 0
M  V30 6670 C 635.748 -0.580645 1.7965 0
M  V30 6671 O 635.105 -1.40031 1.17036 0
M  V30 6672 C 635.156 1.30855 3.36986 0
M  V30 6673 O 634.877 2.70123 3.44914 0
M  V30 6674 C 636.378 1.107 4.29256 0
M  V30 6675 H 633.598 0.311868 0.59412 0
M  V30 6676 H 636.142 1.46897 1.42273 0
M  V30 6677 H 634.297 0.752126 3.80029 0
M  V30 6678 H 634.711 2.88923 4.37748 0
M  V30 6679 H 636.185 1.46378 5.32238 0
M  V30 6680 H 636.662 0.0456228 4.39176 0
M  V30 6681 H 637.268 1.64988 3.91994 0
M  V30 6682 N 635.583 -1.29855 0.893053 0
M  V30 6683 C 636.823 -1.97612 0.522399 0
M  V30 6684 C 637.187 -1.68903 -0.913 0
M  V30 6685 O 638.388 -2.30059 -1.39019 0
M  V30 6686 C 636.659 -3.48356 0.79893 0
M  V30 6687 S 638.218 -4.35568 0.531588 0
M  V30 6688 H 635.036 -0.684005 0.194058 0
M  V30 6689 H 637.638 -1.57803 1.15406 0
M  V30 6690 H 636.342 -3.66743 1.84196 0
M  V30 6691 H 635.873 -3.93094 0.155133 0
M  V30 6692 H 637.888 -4.92232 -0.626295 0
M  V30 6693 N 637.061 -0.65484 -1.43351 0
M  V30 6694 C 637.994 0.0855537 -2.2804 0
M  V30 6695 C 638.972 0.828301 -1.39921 0
M  V30 6696 O 640.156 0.827539 -1.69364 0
M  V30 6697 C 637.283 1.12792 -3.19368 0
M  V30 6698 C 636.329 0.483037 -4.23756 0
M  V30 6699 S 637.162 -0.744605 -5.30298 0
M  V30 6700 C 638.318 0.297187 -6.25194 0
M  V30 6701 H 638.551 -0.632831 -2.90487 0
M  V30 6702 H 636.084 -0.44373 -1.47886 0
M  V30 6703 H 638.042 1.7243 -3.72529 0
M  V30 6704 H 636.703 1.81863 -2.56095 0
M  V30 6705 H 635.896 1.26888 -4.87766 0
M  V30 6706 H 635.498 -0.0392713 -3.73979 0
M  V30 6707 H 637.79 1.1629 -6.67445 0
M  V30 6708 H 638.733 -0.30793 -7.0743 0
M  V30 6709 H 639.141 0.633721 -5.60932 0
M  V30 6710 N 638.539 1.52521 -0.396863 0
M  V30 6711 C 639.449 2.30403 0.44178 0
M  V30 6712 C 640.465 1.37625 1.06468 0
M  V30 6713 O 641.641 1.70697 1.06886 0
M  V30 6714 C 638.706 3.1013 1.54986 0
M  V30 6715 C 637.767 4.18628 0.951279 0
M  V30 6716 C 637 4.94543 2.00655 0
M  V30 6717 O 637.223 4.70629 3.22281 0
M  V30 6718 O 636.157 5.797 1.61962 0
M  V30 6719 H 639.983 3.03087 -0.192892 0
M  V30 6720 H 637.568 1.48537 -0.16038 0
M  V30 6721 H 639.45 3.59816 2.19341 0
M  V30 6722 H 638.125 2.40251 2.16935 0
M  V30 6723 H 637.032 3.73119 0.270773 0
M  V30 6724 H 638.365 4.90763 0.375887 0
M  V30 6725 N 640.017 0.126909 1.57088 0
M  V30 6726 C 640.965 -0.837618 2.16995 0
M  V30 6727 C 641.959 -1.26974 1.12133 0
M  V30 6728 O 643.165 -1.24056 1.30423 0
M  V30 6729 H 639.54 -0.288256 0.694559 0
M  V30 6730 H 641.511 -0.307957 2.96807 0
M  V30 6731 C 640.26 -2.07474 2.79016 0
M  V30 6732 H 639.583 -1.75117 3.59408 0
M  V30 6733 H 641.023 -2.72949 3.24461 0
M  V30 6734 C 639.482 -2.86967 1.76498 0
M  V30 6735 O 640.012 -3.82625 1.22316 0
M  V30 6736 N 638.218 -2.51111 1.46258 0
M  V30 6737 H 637.765 -1.73389 1.90509 0
M  V30 6738 H 637.723 -3.04594 0.779085 0
M  V30 6739 N 641.495 -1.56914 -0.146875 0
M  V30 6740 C 642.743 -1.82994 -0.85777 0
M  V30 6741 C 643.064 -0.707814 -1.817 0
M  V30 6742 O 642.334 0.270521 -1.94023 0
M  V30 6743 H 640.914 -0.675106 -0.319751 0
M  V30 6744 H 643.576 -1.9439 -0.140849 0
M  V30 6745 H 642.672 -2.77928 -1.41994 0
M  V30 6746 N 642.974 0.416227 -1.52004 0
M  V30 6747 C 644.22 1.16233 -1.66917 0
M  V30 6748 C 644.575 1.8839 -0.390763 0
M  V30 6749 O 643.868 1.81479 0.614478 0
M  V30 6750 C 644.062 2.18923 -2.82502 0
M  V30 6751 C 643.891 1.56849 -4.2146 0
M  V30 6752 C 642.661 1.34426 -4.87091 0
M  V30 6753 C 644.859 1.03322 -5.03815 0
M  V30 6754 N 642.841 0.681703 -6.10103 0
M  V30 6755 C 644.212 0.497165 -6.18003 0
M  V30 6756 C 646.267 0.926997 -4.89194 0
M  V30 6757 C 644.97 -0.134687 -7.19174 0
M  V30 6758 C 646.996 0.309009 -5.90592 0
M  V30 6759 C 646.358 -0.216399 -7.04068 0
M  V30 6760 H 642.457 0.412252 -0.664509 0
M  V30 6761 H 645.041 0.455758 -1.89291 0
M  V30 6762 H 643.212 2.86946 -2.61756 0
M  V30 6763 H 644.944 2.85844 -2.86488 0
M  V30 6764 H 641.699 1.61183 -4.45328 0
M  V30 6765 H 642.123 0.367256 -6.76003 0
M  V30 6766 H 646.765 1.31904 -4.01698 0
M  V30 6767 H 644.483 -0.538811 -8.06302 0
M  V30 6768 H 648.069 0.228438 -5.81351 0
M  V30 6769 H 646.949 -0.687064 -7.81184 0
M  V30 6770 N 644.452 1.42507 0.673017 0
M  V30 6771 C 645.677 1.4668 1.46627 0
M  V30 6772 C 646.102 0.080066 1.8793 0
M  V30 6773 O 645.46 -0.921879 1.56112 0
M  V30 6774 C 645.508 2.40091 2.69051 0
M  V30 6775 O 644.612 1.8735 3.67387 0
M  V30 6776 H 643.953 0.496908 0.44043 0
M  V30 6777 H 646.483 1.87215 0.825334 0
M  V30 6778 H 646.493 2.56731 3.17101 0
M  V30 6779 H 645.168 3.4084 2.3833 0
M  V30 6780 H 643.745 1.80274 3.26429 0
M  V30 6781 N 645.93 -0.909495 1.28709 0
M  V30 6782 C 647.341 -1.47419 1.14563 0
M  V30 6783 C 647.692 -1.94432 -0.262832 0
M  V30 6784 O 646.817 -1.82842 -1.15748 0
M  V30 6785 C 647.412 -2.67933 2.07358 0
M  V30 6786 C 645.971 -3.20568 1.97264 0
M  V30 6787 C 645.118 -1.93269 1.98852 0
M  V30 6788 H 648.069 -0.721787 1.41336 0
M  V30 6789 H 648.09 -3.43339 1.64007 0
M  V30 6790 H 647.602 -2.33685 3.09859 0
M  V30 6791 H 645.703 -3.59531 0.978157 0
M  V30 6792 H 645.816 -3.85529 2.84436 0
M  V30 6793 H 644.18 -2.10553 1.43317 0
M  V30 6794 H 644.963 -1.61312 3.0304 0
M  V30 6795 N 647.408 -1.11026 -1.11852 0
M  V30 6796 C 648.636 -0.878818 -1.87308 0
M  V30 6797 C 649.051 0.57111 -1.79955 0
M  V30 6798 O 648.408 1.39409 -1.17777 0
M  V30 6799 C 648.459 -1.3264 -3.36287 0
M  V30 6800 O 648.18 -2.71948 -3.43476 0
M  V30 6801 C 649.681 -1.12974 -4.28663 0
M  V30 6802 H 646.901 -0.315015 -0.592458 0
M  V30 6803 H 649.445 -1.47649 -1.41492 0
M  V30 6804 H 647.6 -0.772269 -3.79625 0
M  V30 6805 H 648.014 -2.91241 -4.3621 0
M  V30 6806 H 649.488 -1.49198 -5.31454 0
M  V30 6807 H 649.965 -0.0689127 -4.39146 0
M  V30 6808 H 650.571 -1.67064 -3.91113 0
M  V30 6809 N 648.886 1.2938 -0.899927 0
M  V30 6810 C 650.297 1.77644 -0.574427 0
M  V30 6811 C 650.648 1.73824 0.909928 0
M  V30 6812 O 649.773 1.32429 1.71147 0
M  V30 6813 C 650.368 3.22573 -1.03595 0
M  V30 6814 C 648.927 3.68614 -0.76161 0
M  V30 6815 C 648.074 2.49483 -1.21052 0
M  V30 6816 H 651.025 1.16038 -1.08263 0
M  V30 6817 H 651.046 3.78684 -0.371337 0
M  V30 6818 H 650.558 3.25321 -2.11631 0
M  V30 6819 H 648.659 3.7134 0.306127 0
M  V30 6820 H 648.772 4.59402 -1.35965 0
M  V30 6821 H 647.136 2.46798 -0.629515 0
M  V30 6822 H 647.919 2.54959 -2.29893 0
M  V30 6823 N 650.364 0.662433 1.43002 0
M  V30 6824 C 651.78 0.330835 1.56133 0
M  V30 6825 C 651.98 -1.16454 1.64441 0
M  V30 6826 O 651.036 -1.94964 1.60453 0
M  V30 6827 C 652.349 1.05029 2.81761 0
M  V30 6828 C 653.897 1.03142 2.95518 0
M  V30 6829 C 654.372 1.73196 4.2399 0
M  V30 6830 N 655.863 1.70004 4.30875 0
M  V30 6831 C 656.598 2.21074 5.29069 0
M  V30 6832 N 656.094 2.80473 6.33488 0
M  V30 6833 N 657.887 2.1152 5.20784 0
M  V30 6834 H 650.038 1.63272 1.35853 0
M  V30 6835 H 652.301 0.687149 0.653092 0
M  V30 6836 H 652.007 2.10542 2.81718 0
M  V30 6837 H 651.881 0.607664 3.72273 0
M  V30 6838 H 654.268 -0.0153339 2.95096 0
M  V30 6839 H 654.349 1.51282 2.0627 0
M  V30 6840 H 653.993 2.77833 4.25172 0
M  V30 6841 H 653.923 1.22515 5.1215 0
M  V30 6842 H 656.414 1.26667 3.56039 0
M  V30 6843 H 656.727 3.17094 7.04749 0
M  V30 6844 H 655.072 2.84538 6.34085 0
M  V30 6845 H 658.263 1.64814 4.38126 0
M  V30 6846 H 658.436 2.51629 5.97149 0
M  V30 6847 N 651.842 -1.52309 0.404946 0
M  V30 6848 C 653.082 -2.03677 -0.171779 0
M  V30 6849 C 653.446 -1.28419 -1.42733 0
M  V30 6850 O 654.647 -1.69991 -2.08222 0
M  V30 6851 C 652.918 -3.54951 -0.417701 0
M  V30 6852 S 654.477 -4.28114 -0.962472 0
M  V30 6853 H 651.295 -0.709445 -0.0469912 0
M  V30 6854 H 653.897 -1.874 0.556901 0
M  V30 6855 H 652.601 -4.07306 0.50295 0
M  V30 6856 H 652.132 -3.75462 -1.17437 0
M  V30 6857 H 654.147 -4.42589 -2.24342 0
M  V30 6858 N 653.32 -0.135238 -1.57019 0
M  V30 6859 C 654.569 0.518694 -1.94917 0
M  V30 6860 C 654.882 1.66783 -1.0219 0
M  V30 6861 O 656.088 2.38561 -1.29619 0
M  V30 6862 C 654.544 0.974123 -3.46466 0
M  V30 6863 C 654.152 -0.147439 -4.47757 0
M  V30 6864 C 655.896 1.59851 -3.93253 0
M  V30 6865 C 653.803 0.325599 -5.90503 0
M  V30 6866 H 652.733 0.19754 -0.727663 0
M  V30 6867 H 655.384 -0.217698 -1.82204 0
M  V30 6868 H 653.766 1.76542 -3.5447 0
M  V30 6869 H 654.94 -0.924122 -4.51438 0
M  V30 6870 H 653.255 -0.679496 -4.10818 0
M  V30 6871 H 655.852 1.96385 -4.9733 0
M  V30 6872 H 656.195 2.48306 -3.3414 0
M  V30 6873 H 656.728 0.872323 -3.88118 0
M  V30 6874 H 653.467 -0.523295 -6.53408 0
M  V30 6875 H 652.987 1.06841 -5.90208 0
M  V30 6876 H 654.666 0.781498 -6.42263 0
M  V30 6877 N 654.798 1.5699 0.138552 0
M  V30 6878 C 656.214 1.51844 0.491472 0
M  V30 6879 C 656.414 0.845063 1.82923 0
M  V30 6880 O 655.47 0.419143 2.48997 0
M  V30 6881 C 656.783 2.96615 0.493987 0
M  V30 6882 C 658.331 3.076 0.578913 0
M  V30 6883 C 658.806 4.53893 0.612009 0
M  V30 6884 N 660.297 4.5827 0.673997 0
M  V30 6885 C 661.032 5.68852 0.720729 0
M  V30 6886 N 660.528 6.88982 0.726292 0
M  V30 6887 N 662.321 5.56908 0.762253 0
M  V30 6888 H 654.472 1.99158 -0.738228 0
M  V30 6889 H 656.735 0.908693 -0.270149 0
M  V30 6890 H 656.441 3.49172 -0.420933 0
M  V30 6891 H 656.315 3.53017 1.32887 0
M  V30 6892 H 658.702 2.55057 1.48425 0
M  V30 6893 H 658.783 2.54227 -0.283286 0
M  V30 6894 H 658.427 5.07076 -0.289208 0
M  V30 6895 H 658.357 5.05057 1.49082 0
M  V30 6896 H 660.848 3.71793 0.676654 0
M  V30 6897 H 661.161 7.69014 0.764032 0
M  V30 6898 H 659.506 6.91526 0.69403 0
M  V30 6899 H 662.697 4.61969 0.755135 0
M  V30 6900 H 662.87 6.43102 0.795207 0
M  V30 6901 N 656.276 -0.40816 1.52223 0
M  V30 6902 C 657.522 -1.15673 1.66576 0
M  V30 6903 C 657.855 -1.90141 0.394996 0
M  V30 6904 O 657.13 -1.84798 -0.606613 0
M  V30 6905 C 657.413 -2.15042 2.88841 0
M  V30 6906 C 657.266 -1.44465 4.25969 0
M  V30 6907 C 658.585 -3.15699 3.0663 0
M  V30 6908 H 655.704 -0.41916 0.606196 0
M  V30 6909 H 658.346 -0.442348 1.84779 0
M  V30 6910 H 656.496 -2.75964 2.73452 0
M  V30 6911 H 658.168 -0.866544 4.53088 0
M  V30 6912 H 656.411 -0.746612 4.27327 0
M  V30 6913 H 657.082 -2.16976 5.07568 0
M  V30 6914 H 659.558 -2.64854 3.20923 0
M  V30 6915 H 658.434 -3.82491 3.9369 0
M  V30 6916 H 658.695 -3.83481 2.19987 0
M  V30 6917 N 657.755 -1.42862 -0.66545 0
M  V30 6918 C 658.702 -1.4707 -1.77874 0
M  V30 6919 C 659.672 -0.321654 -1.62956 0
M  V30 6920 O 660.857 -0.52707 -1.83376 0
M  V30 6921 C 657.997 -1.38788 -3.15962 0
M  V30 6922 C 657.11 -2.63801 -3.42101 0
M  V30 6923 C 656.245 -2.47594 -4.69969 0
M  V30 6924 C 655.284 -3.67936 -4.89172 0
M  V30 6925 N 654.421 -3.50614 -6.08288 0
M  V30 6926 H 659.261 -2.42204 -1.73613 0
M  V30 6927 H 656.798 -1.20239 -0.847401 0
M  V30 6928 H 658.756 -1.31982 -3.95773 0
M  V30 6929 H 657.386 -0.472431 -3.19324 0
M  V30 6930 H 656.438 -2.80935 -2.56475 0
M  V30 6931 H 657.75 -3.53228 -3.52181 0
M  V30 6932 H 656.904 -2.38427 -5.57886 0
M  V30 6933 H 655.643 -1.55672 -4.62188 0
M  V30 6934 H 654.648 -3.77525 -3.99694 0
M  V30 6935 H 655.873 -4.60851 -4.98792 0
M  V30 6936 H 653.819 -2.61417 -6.01662 0
M  V30 6937 H 653.736 -4.33634 -6.19272 0
M  V30 6938 H 655.004 -3.45276 -6.98859 0
M  V30 6939 N 659.233 0.902656 -1.29189 0
M  V30 6940 C 660.461 1.68639 -1.19869 0
M  V30 6941 C 660.876 1.87254 0.241121 0
M  V30 6942 O 660.233 1.40745 1.16177 0
M  V30 6943 C 660.284 3.07251 -1.90471 0
M  V30 6944 O 660.005 2.89488 -3.28829 0
M  V30 6945 C 661.506 4.01653 -1.8759 0
M  V30 6946 H 658.726 0.526802 -0.415596 0
M  V30 6947 H 661.27 1.12901 -1.7051 0
M  V30 6948 H 659.425 3.59774 -1.43672 0
M  V30 6949 H 659.839 3.77296 -3.64346 0
M  V30 6950 H 661.313 4.96339 -2.4156 0
M  V30 6951 H 661.79 4.30881 -0.850756 0
M  V30 6952 H 662.396 3.55061 -2.34119 0
M  V30 6953 N 660.711 1.11618 1.11262 0
M  V30 6954 C 661.951 0.876154 1.8467 0
M  V30 6955 C 662.315 -0.587551 1.82789 0
M  V30 6956 O 663.516 -0.944411 2.51663 0
M  V30 6957 C 661.787 1.42461 3.2778 0
M  V30 6958 S 663.346 1.32185 4.18417 0
M  V30 6959 H 660.164 0.31628 0.636779 0
M  V30 6960 H 662.766 1.42404 1.33946 0
M  V30 6961 H 661.47 2.48367 3.26714 0
M  V30 6962 H 661.001 0.873844 3.83572 0
M  V30 6963 H 663.016 0.287607 4.95366 0
M  V30 6964 N 662.189 -1.289 0.906776 0
M  V30 6965 C 663.414 -1.99939 0.551303 0
M  V30 6966 C 663.839 -1.67366 -0.858496 0
M  V30 6967 O 663.197 -0.902176 -1.57259 0
M  V30 6968 C 663.245 -3.52523 0.758937 0
M  V30 6969 O 662.349 -4.11983 -0.185308 0
M  V30 6970 H 661.69 -0.628376 0.214568 0
M  V30 6971 H 664.22 -1.64225 1.2203 0
M  V30 6972 H 664.23 -4.02522 0.666329 0
M  V30 6973 H 662.905 -3.75566 1.78671 0
M  V30 6974 H 661.482 -3.72873 -0.0445577 0
M  V30 6975 N 663.667 -0.670007 -1.42649 0
M  V30 6976 C 664.614 0.0112928 -2.30797 0
M  V30 6977 C 665.584 0.797627 -1.45695 0
M  V30 6978 O 666.769 0.770845 -1.74535 0
M  V30 6979 C 663.909 0.95998 -3.31479 0
M  V30 6980 C 663.022 0.167975 -4.31673 0
M  V30 6981 C 662.157 1.11198 -5.19431 0
M  V30 6982 C 661.196 0.311381 -6.11307 0
M  V30 6983 N 660.333 1.20784 -6.91633 0
M  V30 6984 H 665.173 -0.746231 -2.88505 0
M  V30 6985 H 662.71 -0.379739 -1.42114 0
M  V30 6986 H 664.668 1.52379 -3.88377 0
M  V30 6987 H 663.298 1.68419 -2.75382 0
M  V30 6988 H 662.35 -0.512385 -3.76933 0
M  V30 6989 H 663.662 -0.453814 -4.96731 0
M  V30 6990 H 662.816 1.74587 -5.81037 0
M  V30 6991 H 661.555 1.76766 -4.54538 0
M  V30 6992 H 660.56 -0.335758 -5.48774 0
M  V30 6993 H 661.785 -0.340135 -6.78248 0
M  V30 6994 H 659.731 1.85001 -6.29373 0
M  V30 6995 H 659.648 0.64102 -7.53277 0
M  V30 6996 H 660.916 1.82936 -7.5773 0
M  V30 6997 N 665.145 1.52092 -0.413018 0
M  V30 6998 C 666.37 2.06756 0.163338 0
M  V30 6999 C 666.795 1.28073 1.37764 0
M  V30 7000 O 666.153 0.312015 1.78595 0
M  V30 7001 C 666.201 3.57278 0.488322 0
M  V30 7002 O 665.305 3.80986 1.57871 0
M  V30 7003 H 664.646 0.663882 0.0125068 0
M  V30 7004 H 667.176 1.95988 -0.587339 0
M  V30 7005 H 667.186 4.01125 0.745836 0
M  V30 7006 H 665.861 4.13978 -0.399327 0
M  V30 7007 H 664.438 3.49017 1.31306 0
M  V30 7008 N 666.623 0.143563 1.56945 0
M  V30 7009 C 667.848 -0.518701 2.00809 0
M  V30 7010 C 668.273 -1.5785 1.02298 0
M  V30 7011 O 667.631 -1.813 -0.0017839 0
M  V30 7012 C 667.679 -1.09929 3.43436 0
M  V30 7013 O 666.783 -2.21425 3.47915 0
M  V30 7014 H 666.124 -0.127215 0.6517 0
M  V30 7015 H 668.654 0.239283 2.03196 0
M  V30 7016 H 668.664 -1.4288 3.82164 0
M  V30 7017 H 667.339 -0.323162 4.14643 0
M  V30 7018 H 665.916 -1.89728 3.21026 0
M  V30 7019 N 668.101 -1.57061 -0.130224 0
M  V30 7020 C 669.35 -1.83446 -0.838488 0
M  V30 7021 C 669.663 -0.727468 -1.81569 0
M  V30 7022 O 670.869 -0.877394 -2.56932 0
M  V30 7023 C 669.325 -3.25201 -1.54182 0
M  V30 7024 C 668.933 -4.4388 -0.606178 0
M  V30 7025 C 670.677 -3.60844 -2.23588 0
M  V30 7026 C 668.584 -5.76661 -1.31209 0
M  V30 7027 H 667.514 -0.684185 -0.316871 0
M  V30 7028 H 670.165 -1.83273 -0.0912059 0
M  V30 7029 H 668.547 -3.1981 -2.33533 0
M  V30 7030 H 669.721 -4.60545 0.153308 0
M  V30 7031 H 668.036 -4.16395 -0.0196705 0
M  V30 7032 H 670.633 -4.57313 -2.77072 0
M  V30 7033 H 670.976 -2.87724 -3.00867 0
M  V30 7034 H 671.509 -3.67971 -1.51137 0
M  V30 7035 H 668.248 -6.52922 -0.580823 0
M  V30 7036 H 667.768 -5.63902 -2.04387 0
M  V30 7037 H 669.447 -6.20035 -1.8484 0
M  V30 7038 N 669.579 0.400081 -1.52437 0
M  V30 7039 C 670.856 1.15973 -1.57511 0
M  V30 7040 C 671.236 2.0798 -0.361572 0
M  V30 7041 O 670.584 2.19032 0.650929 0
M  V30 7042 C 670.794 1.92912 -2.90837 0
M  V30 7043 C 672.142 2.48662 -3.44169 0
M  V30 7044 O 673.166 2.03081 -2.92637 0
M  V30 7045 O 672.025 3.31894 -4.34176 0
M  V30 7046 H 669.119 0.530023 -0.634827 0
M  V30 7047 H 671.665 0.40613 -1.64769 0
M  V30 7048 H 670.437 1.25564 -3.70607 0
M  V30 7049 H 670.06 2.75257 -2.86913 0
M  V30 7050 N 671.057 1.43213 0.657864 0
M  V30 7051 C 672.306 1.43871 1.41365 0
M  V30 7052 C 672.619 0.064898 1.95492 0
M  V30 7053 O 673.825 -0.0510796 2.71452 0
M  V30 7054 C 672.281 2.53158 2.55811 0
M  V30 7055 C 671.889 3.96624 2.08311 0
M  V30 7056 C 673.633 2.63004 3.3321 0
M  V30 7057 C 671.54 4.97385 3.1994 0
M  V30 7058 H 670.47 0.535174 0.531136 0
M  V30 7059 H 673.121 1.69185 0.710543 0
M  V30 7060 H 671.503 2.21037 3.2857 0
M  V30 7061 H 672.677 4.38182 1.42593 0
M  V30 7062 H 670.992 3.90781 1.43804 0
M  V30 7063 H 673.589 3.3546 4.16378 0
M  V30 7064 H 673.932 1.67918 3.80932 0
M  V30 7065 H 674.465 2.94403 2.67529 0
M  V30 7066 H 671.204 5.94007 2.77192 0
M  V30 7067 H 670.724 4.60444 3.84385 0
M  V30 7068 H 672.403 5.19877 3.85145 0
M  V30 7069 N 672.536 -0.895792 1.29666 0
M  V30 7070 C 673.446 -2.03329 1.17024 0
M  V30 7071 C 674.462 -1.73753 0.0925962 0
M  V30 7072 O 675.638 -1.99071 0.305431 0
M  V30 7073 C 672.703 -3.36072 0.851841 0
M  V30 7074 C 671.764 -3.7914 2.01373 0
M  V30 7075 C 670.997 -5.05549 1.71043 0
M  V30 7076 O 671.22 -5.66874 0.633213 0
M  V30 7077 O 670.154 -5.44764 2.5596 0
M  V30 7078 H 673.98 -2.16918 2.12556 0
M  V30 7079 H 671.565 -1.02007 1.09156 0
M  V30 7080 H 673.447 -4.15729 0.689006 0
M  V30 7081 H 672.122 -3.23616 -0.0736634 0
M  V30 7082 H 671.029 -3.00233 2.23183 0
M  V30 7083 H 672.362 -3.96186 2.92058 0
M  V30 7084 N 674.014 -1.12206 -1.10668 0
M  V30 7085 C 674.962 -0.782918 -2.19028 0
M  V30 7086 C 675.956 0.229175 -1.67843 0
M  V30 7087 O 677.162 0.0876295 -1.79787 0
M  V30 7088 H 673.537 -0.235339 -0.714227 0
M  V30 7089 H 675.508 -1.70527 -2.44874 0
M  V30 7090 C 674.257 -0.25116 -3.46792 0
M  V30 7091 H 673.58 -1.02123 -3.86537 0
M  V30 7092 H 675.02 -0.0521409 -4.23968 0
M  V30 7093 C 673.479 1.02037 -3.21076 0
M  V30 7094 O 674.009 2.09862 -3.42522 0
M  V30 7095 N 672.215 0.946348 -2.74759 0
M  V30 7096 H 671.762 0.068777 -2.57508 0
M  V30 7097 H 671.72 1.79775 -2.57931 0
M  V30 7098 N 675.492 1.28418 -0.913599 0
M  V30 7099 C 676.74 1.94596 -0.545594 0
M  V30 7100 C 677.061 1.7227 0.913668 0
M  V30 7101 O 676.331 1.06233 1.64595 0
M  V30 7102 H 674.911 0.720065 -0.198783 0
M  V30 7103 H 677.573 1.56404 -1.16292 0
M  V30 7104 H 676.669 3.03202 -0.739911 0
M  V30 7105 N 676.97 0.677563 1.42291 0
M  V30 7106 C 678.217 0.200975 2.015 0
M  V30 7107 C 678.545 -1.19342 1.53583 0
M  V30 7108 O 677.8 -1.81579 0.7299 0
M  V30 7109 C 678.099 0.187229 3.56909 0
M  V30 7110 C 677.765 1.52667 4.24268 0
M  V30 7111 C 676.427 1.89341 4.42384 0
M  V30 7112 C 678.779 2.40869 4.62203 0
M  V30 7113 C 676.107 3.13836 4.95705 0
M  V30 7114 C 678.459 3.64679 5.16906 0
M  V30 7115 C 677.123 4.01519 5.33234 0
M  V30 7116 H 676.393 0.0735418 0.737342 0
M  V30 7117 H 679.04 0.873095 1.70439 0
M  V30 7118 H 677.345 -0.568407 3.87655 0
M  V30 7119 H 679.042 -0.198773 4.00507 0
M  V30 7120 H 675.632 1.23138 4.1053 0
M  V30 7121 H 679.816 2.1382 4.47878 0
M  V30 7122 H 675.072 3.42396 5.06532 0
M  V30 7123 H 679.246 4.33224 5.45243 0
M  V30 7124 H 676.873 4.98062 5.74316 0
M  V30 7125 N 678.448 -1.51871 0.421078 0
M  V30 7126 C 679.697 -2.01125 -0.152206 0
M  V30 7127 C 680.01 -1.3106 -1.45199 0
M  V30 7128 O 681.216 -1.71195 -2.10724 0
M  V30 7129 C 679.672 -3.58458 -0.3218 0
M  V30 7130 C 679.28 -4.37448 0.96659 0
M  V30 7131 C 681.024 -4.15908 -0.84973 0
M  V30 7132 C 678.931 -5.86451 0.763529 0
M  V30 7133 H 677.861 -0.751556 -0.0606565 0
M  V30 7134 H 680.512 -1.75115 0.548354 0
M  V30 7135 H 678.894 -3.80847 -1.08498 0
M  V30 7136 H 680.068 -4.26814 1.73684 0
M  V30 7137 H 678.383 -3.91373 1.42183 0
M  V30 7138 H 680.98 -5.24922 -1.01788 0
M  V30 7139 H 681.323 -3.74031 -1.82774 0
M  V30 7140 H 681.856 -3.97535 -0.145297 0
M  V30 7141 H 678.595 -6.3271 1.71344 0
M  V30 7142 H 678.115 -5.99791 0.0327889 0
M  V30 7143 H 679.794 -6.45697 0.410354 0
M  V30 7144 N 679.926 -0.151884 -1.56866 0
M  V30 7145 C 681.151 0.508044 -2.01081 0
M  V30 7146 C 681.576 1.57306 -1.03134 0
M  V30 7147 O 680.934 1.81298 -0.0078309 0
M  V30 7148 C 680.982 1.08106 -3.44014 0
M  V30 7149 O 680.086 2.19577 -3.49084 0
M  V30 7150 H 679.427 0.123757 -0.652365 0
M  V30 7151 H 681.957 -0.250055 -2.03066 0
M  V30 7152 H 681.967 1.40851 -3.82916 0
M  V30 7153 H 680.642 0.301168 -4.14808 0
M  V30 7154 H 679.219 1.88023 -3.22027 0
M  V30 7155 N 681.404 1.57128 0.121893 0
M  V30 7156 C 682.314 2.03425 1.16857 0
M  V30 7157 C 683.33 0.954108 1.45509 0
M  V30 7158 O 684.506 1.26541 1.56682 0
M  V30 7159 C 681.571 2.42685 2.47599 0
M  V30 7160 C 680.632 3.64767 2.2637 0
M  V30 7161 C 679.865 4.02145 3.50878 0
M  V30 7162 O 680.088 3.39897 4.58068 0
M  V30 7163 O 679.022 4.95262 3.42051 0
M  V30 7164 H 682.848 2.92825 0.80544 0
M  V30 7165 H 680.433 1.45654 0.332477 0
M  V30 7166 H 682.315 2.68684 3.24634 0
M  V30 7167 H 680.99 1.56432 2.83392 0
M  V30 7168 H 679.897 3.43922 1.47203 0
M  V30 7169 H 681.23 4.51716 1.95482 0
M  V30 7170 N 682.882 -0.391992 1.52647 0
M  V30 7171 C 684.107 -1.16312 1.71716 0
M  V30 7172 C 684.532 -1.83042 0.433279 0
M  V30 7173 O 683.89 -1.70705 -0.610707 0
M  V30 7174 C 683.938 -2.18908 2.86551 0
M  V30 7175 O 683.042 -3.2543 2.53316 0
M  V30 7176 H 682.383 -0.338743 0.571095 0
M  V30 7177 H 684.913 -0.457202 1.99426 0
M  V30 7178 H 684.923 -2.62954 3.1196 0
M  V30 7179 H 683.598 -1.69726 3.79692 0
M  V30 7180 H 682.175 -2.86543 2.38637 0
M  V30 7181 N 684.36 -1.4356 -0.65026 0
M  V30 7182 C 685.292 -1.44918 -1.77571 0
M  V30 7183 C 686.305 -0.344925 -1.59104 0
M  V30 7184 O 687.494 -0.609537 -1.6777 0
M  V30 7185 C 684.594 -1.24914 -3.15039 0
M  V30 7186 C 683.767 -2.48232 -3.60138 0
M  V30 7187 C 682.826 -2.23409 -4.76419 0
M  V30 7188 O 681.852 -2.9678 -4.85706 0
M  V30 7189 N 683.054 -1.25259 -5.66825 0
M  V30 7190 H 685.819 -2.41935 -1.76883 0
M  V30 7191 H 683.38 -1.38754 -0.834202 0
M  V30 7192 H 685.372 -1.06185 -3.90521 0
M  V30 7193 H 683.942 -0.363319 -3.10481 0
M  V30 7194 H 683.162 -2.82366 -2.75069 0
M  V30 7195 H 684.45 -3.30296 -3.87017 0
M  V30 7196 H 683.848 -0.646246 -5.61997 0
M  V30 7197 H 682.405 -1.12513 -6.42016 0
M  V30 7198 N 685.838 0.888903 -1.30139 0
M  V30 7199 C 687.068 1.67115 -1.21474 0
M  V30 7200 C 687.476 1.87852 0.225472 0
M  V30 7201 O 686.819 1.42324 1.16145 0
M  V30 7202 C 686.881 3.0713 -1.86846 0
M  V30 7203 C 686.545 3.09582 -3.36167 0
M  V30 7204 C 687.542 2.88929 -4.32222 0
M  V30 7205 C 685.227 3.31304 -3.77549 0
M  V30 7206 C 687.221 2.89949 -5.67634 0
M  V30 7207 C 684.908 3.31954 -5.13079 0
M  V30 7208 C 685.906 3.113 -6.07932 0
M  V30 7209 O 685.594 3.11758 -7.40987 0
M  V30 7210 H 685.326 0.528372 -0.421662 0
M  V30 7211 H 687.88 1.11919 -1.7223 0
M  V30 7212 H 686.11 3.63973 -1.30615 0
M  V30 7213 H 687.799 3.6749 -1.72354 0
M  V30 7214 H 688.565 2.71948 -4.01584 0
M  V30 7215 H 684.444 3.46417 -3.04165 0
M  V30 7216 H 687.988 2.73746 -6.41645 0
M  V30 7217 H 683.885 3.48469 -5.43359 0
M  V30 7218 H 684.653 3.27951 -7.49927 0
M  V30 7219 N 687.317 1.12792 1.10072 0
M  V30 7220 C 688.545 0.908506 1.85886 0
M  V30 7221 C 688.96 -0.542408 1.80841 0
M  V30 7222 O 688.317 -1.37517 1.1998 0
M  V30 7223 C 688.368 1.37973 3.34134 0
M  V30 7224 O 688.089 2.77378 3.39106 0
M  V30 7225 C 689.59 1.1978 4.26811 0
M  V30 7226 H 686.81 0.3244 0.587372 0
M  V30 7227 H 689.354 1.49882 1.39125 0
M  V30 7228 H 687.509 0.832566 3.78348 0
M  V30 7229 H 687.923 2.98144 4.31521 0
M  V30 7230 H 689.397 1.57635 5.29014 0
M  V30 7231 H 689.874 0.138768 4.38981 0
M  V30 7232 H 690.48 1.73266 3.88406 0
M  V30 7233 N 688.795 -1.27931 0.920396 0
M  V30 7234 C 690.025 -1.98516 0.572256 0
M  V30 7235 C 690.433 -1.68912 -0.852375 0
M  V30 7236 O 689.776 -0.94203 -1.57707 0
M  V30 7237 C 689.838 -3.5243 0.709485 0
M  V30 7238 C 689.502 -4.0564 2.10489 0
M  V30 7239 C 690.499 -4.1897 3.07831 0
M  V30 7240 C 688.184 -4.40168 2.41986 0
M  V30 7241 C 690.178 -4.66093 4.34783 0
M  V30 7242 C 687.865 -4.86983 3.69176 0
M  V30 7243 C 688.863 -4.99903 4.65388 0
M  V30 7244 O 688.551 -5.45694 5.90316 0
M  V30 7245 H 688.283 -0.64047 0.216274 0
M  V30 7246 H 690.837 -1.6393 1.23758 0
M  V30 7247 H 689.067 -3.86698 -0.0129263 0
M  V30 7248 H 690.756 -4.04233 0.367474 0
M  V30 7249 H 691.522 -3.92562 2.84816 0
M  V30 7250 H 687.401 -4.29358 1.67846 0
M  V30 7251 H 690.945 -4.76092 5.09884 0
M  V30 7252 H 686.842 -5.12832 3.92012 0
M  V30 7253 H 687.61 -5.63965 5.932 0
M  V30 7254 N 690.273 -0.685099 -1.4193 0
M  V30 7255 C 691.236 -0.0222632 -2.29189 0
M  V30 7256 C 692.236 0.7186 -1.4385 0
M  V30 7257 O 693.426 0.555058 -1.6512 0
M  V30 7258 C 690.558 0.979013 -3.2654 0
M  V30 7259 H 691.751 -0.790424 -2.89296 0
M  V30 7260 H 689.304 -0.448012 -1.49742 0
M  V30 7261 H 690.039 1.77531 -2.71392 0
M  V30 7262 H 689.824 0.451037 -3.89497 0
M  V30 7263 H 691.314 1.44091 -3.91954 0
M  V30 7264 N 691.751 1.51645 -0.429126 0
M  V30 7265 C 692.681 2.30434 0.377148 0
M  V30 7266 C 693.662 1.35493 1.02838 0
M  V30 7267 O 694.847 1.6441 1.03359 0
M  V30 7268 C 691.977 3.14038 1.48315 0
M  V30 7269 C 690.931 4.1719 0.955855 0
M  V30 7270 C 690.257 4.89263 2.15698 0
M  V30 7271 C 691.557 5.223 -0.00402136 0
M  V30 7272 H 693.251 2.98085 -0.280336 0
M  V30 7273 H 690.797 1.43354 -0.136265 0
M  V30 7274 H 692.75 3.67933 2.05435 0
M  V30 7275 H 691.474 2.44193 2.16881 0
M  V30 7276 H 690.133 3.64335 0.406929 0
M  V30 7277 H 689.781 4.15929 2.82864 0
M  V30 7278 H 689.481 5.59009 1.81059 0
M  V30 7279 H 691.005 5.45978 2.73387 0
M  V30 7280 H 692.419 5.71315 0.476607 0
M  V30 7281 H 690.816 5.99525 -0.26258 0
M  V30 7282 H 691.886 4.75638 -0.943236 0
M  V30 7283 N 693.229 0.160201 1.56784 0
M  V30 7284 C 694.176 -0.774416 2.1742 0
M  V30 7285 C 695.146 -1.23483 1.11091 0
M  V30 7286 O 696.331 -1.30499 1.39193 0
M  V30 7287 C 693.471 -2.00283 2.81035 0
M  V30 7288 C 692.584 -1.58701 4.01793 0
M  V30 7289 C 691.719 -2.76824 4.53367 0
M  V30 7290 C 690.758 -2.31679 5.66561 0
M  V30 7291 N 689.895 -3.42856 6.12694 0
M  V30 7292 H 694.735 -0.250542 2.96945 0
M  V30 7293 H 692.272 -0.111943 1.46673 0
M  V30 7294 H 694.23 -2.72316 3.16069 0
M  V30 7295 H 692.86 -2.5006 2.04132 0
M  V30 7296 H 691.912 -0.76384 3.72652 0
M  V30 7297 H 693.224 -1.21555 4.83762 0
M  V30 7298 H 692.378 -3.57029 4.90525 0
M  V30 7299 H 691.117 -3.17223 3.70433 0
M  V30 7300 H 690.122 -1.49917 5.28966 0
M  V30 7301 H 691.347 -1.9235 6.5129 0
M  V30 7302 H 689.293 -3.82852 5.32692 0
M  V30 7303 H 689.21 -3.09767 6.89624 0
M  V30 7304 H 690.478 -4.23379 6.545 0
M  V30 7305 N 694.707 -1.5719 -0.113559 0
M  V30 7306 C 695.617 -2.04041 -1.15777 0
M  V30 7307 C 696.633 -0.961812 -1.45001 0
M  V30 7308 O 697.809 -1.2737 -1.56009 0
M  V30 7309 C 694.874 -2.43994 -2.46308 0
M  V30 7310 C 693.935 -3.65962 -2.24433 0
M  V30 7311 C 693.168 -4.04 -3.4874 0
M  V30 7312 O 693.391 -3.42321 -4.56259 0
M  V30 7313 O 692.325 -4.97069 -3.3942 0
M  V30 7314 H 696.151 -2.93248 -0.789899 0
M  V30 7315 H 693.736 -1.45828 -0.324748 0
M  V30 7316 H 695.618 -2.70401 -3.23204 0
M  V30 7317 H 694.293 -1.57932 -2.82558 0
M  V30 7318 H 693.2 -3.44697 -1.45377 0
M  V30 7319 H 694.533 -4.52746 -1.93084 0
M  V30 7320 N 696.185 0.383891 -1.52853 0
M  V30 7321 C 697.132 1.46924 -1.77995 0
M  V30 7322 C 698.102 1.53958 -0.623396 0
M  V30 7323 O 699.287 1.70134 -0.863657 0
M  V30 7324 C 696.427 2.84093 -1.95921 0
M  V30 7325 C 695.54 2.86171 -3.23621 0
M  V30 7326 C 694.675 4.14799 -3.31836 0
M  V30 7327 C 693.714 4.10948 -4.53639 0
M  V30 7328 N 692.851 5.31192 -4.59107 0
M  V30 7329 H 697.691 1.24786 -2.70615 0
M  V30 7330 H 695.228 0.605265 -1.34071 0
M  V30 7331 H 697.186 3.63755 -2.04299 0
M  V30 7332 H 695.816 3.04671 -1.06656 0
M  V30 7333 H 694.868 1.9885 -3.24288 0
M  V30 7334 H 696.18 2.79194 -4.13343 0
M  V30 7335 H 695.334 5.02867 -3.39425 0
M  V30 7336 H 694.073 4.24505 -2.40097 0
M  V30 7337 H 693.078 3.21268 -4.46169 0
M  V30 7338 H 694.303 4.0286 -5.467 0
M  V30 7339 H 692.249 5.41518 -3.70262 0
M  V30 7340 H 692.166 5.26311 -5.42708 0
M  V30 7341 H 693.434 6.21143 -4.70958 0
M  V30 7342 N 697.663 1.43903 0.642637 0
M  V30 7343 C 698.626 1.49538 1.73698 0
M  V30 7344 C 699.626 0.378776 1.56275 0
M  V30 7345 O 700.816 0.64095 1.6198 0
M  V30 7346 C 697.948 1.35821 3.12675 0
M  V30 7347 H 699.141 2.47008 1.70079 0
M  V30 7348 H 696.694 1.30824 0.85526 0
M  V30 7349 H 697.429 0.393994 3.21898 0
M  V30 7350 H 697.214 2.16776 3.26727 0
M  V30 7351 H 698.704 1.4272 3.92455 0
M  V30 7352 N 699.141 -0.881989 1.30609 0
M  V30 7353 C 700.088 -1.98803 1.17244 0
M  V30 7354 C 701.058 -1.65987 0.0611905 0
M  V30 7355 O 702.243 -1.89385 0.231911 0
M  V30 7356 C 699.383 -3.33867 0.87333 0
M  V30 7357 C 698.496 -3.79354 2.06675 0
M  V30 7358 C 697.631 -5.03078 1.70547 0
M  V30 7359 C 696.67 -5.40981 2.86366 0
M  V30 7360 N 695.807 -6.55886 2.50514 0
M  V30 7361 H 700.647 -2.09566 2.11863 0
M  V30 7362 H 698.184 -1.02607 1.05405 0
M  V30 7363 H 700.142 -4.11612 0.680519 0
M  V30 7364 H 698.772 -3.2278 -0.0359983 0
M  V30 7365 H 697.824 -2.97492 2.37071 0
M  V30 7366 H 699.136 -4.03382 2.93401 0
M  V30 7367 H 698.29 -5.88457 1.47658 0
M  V30 7368 H 697.029 -4.80927 0.809947 0
M  V30 7369 H 696.034 -4.54127 3.09917 0
M  V30 7370 H 697.259 -5.65104 3.76609 0
M  V30 7371 H 695.205 -6.35306 1.63471 0
M  V30 7372 H 695.122 -6.79799 3.30771 0
M  V30 7373 H 696.39 -7.44489 2.30989 0
M  V30 7374 N 700.619 -1.13374 -1.09472 0
M  V30 7375 C 701.849 -0.917019 -1.85133 0
M  V30 7376 C 702.257 0.537568 -1.81402 0
M  V30 7377 O 701.6 1.38385 -1.20811 0
M  V30 7378 C 701.662 -1.32646 -3.34134 0
M  V30 7379 C 701.326 -2.79437 -3.61613 0
M  V30 7380 C 702.323 -3.77596 -3.57375 0
M  V30 7381 C 700.008 -3.16586 -3.89973 0
M  V30 7382 C 702.002 -5.10916 -3.81108 0
M  V30 7383 C 699.689 -4.50085 -4.13361 0
M  V30 7384 C 700.687 -5.47059 -4.0892 0
M  V30 7385 O 700.375 -6.78149 -4.31705 0
M  V30 7386 H 700.107 -0.326997 -0.591649 0
M  V30 7387 H 702.661 -1.51002 -1.39239 0
M  V30 7388 H 700.891 -0.676719 -3.80733 0
M  V30 7389 H 702.58 -1.08229 -3.91205 0
M  V30 7390 H 703.346 -3.50242 -3.35493 0
M  V30 7391 H 699.225 -2.41707 -3.92554 0
M  V30 7392 H 702.769 -5.86597 -3.77558 0
M  V30 7393 H 698.666 -4.77163 -4.34724 0
M  V30 7394 H 699.434 -6.84244 -4.49168 0
M  V30 7395 N 702.098 1.27442 -0.927168 0
M  V30 7396 C 703.03 2.25975 -0.383158 0
M  V30 7397 C 704.043 1.55382 0.485832 0
M  V30 7398 O 705.232 1.75986 0.298541 0
M  V30 7399 C 702.332 3.35629 0.469688 0
M  V30 7400 C 701.505 4.35747 -0.379886 0
M  V30 7401 C 700.564 5.24598 0.410227 0
M  V30 7402 O 699.59 5.68909 -0.181888 0
M  V30 7403 N 700.792 5.54737 1.71017 0
M  V30 7404 H 703.557 2.7329 -1.23015 0
M  V30 7405 H 701.118 1.41063 -0.794539 0
M  V30 7406 H 703.11 3.92015 1.00532 0
M  V30 7407 H 701.68 2.87919 1.21744 0
M  V30 7408 H 700.9 3.78634 -1.09682 0
M  V30 7409 H 702.188 4.99648 -0.960717 0
M  V30 7410 H 701.586 5.20594 2.21356 0
M  V30 7411 H 700.143 6.13824 2.19234 0
M  V30 7412 N 703.576 0.692616 1.41565 0
M  V30 7413 C 704.816 0.226453 2.03142 0
M  V30 7414 C 705.18 -1.1512 1.5366 0
M  V30 7415 O 706.381 -1.71305 2.07143 0
M  V30 7416 C 704.652 0.27855 3.56313 0
M  V30 7417 S 706.211 -0.114001 4.38652 0
M  V30 7418 H 703.029 0.0914767 0.705091 0
M  V30 7419 H 705.631 0.909737 1.73043 0
M  V30 7420 H 704.335 1.28325 3.89821 0
M  V30 7421 H 703.866 -0.423981 3.91109 0
M  V30 7422 H 705.881 -1.34256 4.77692 0
M  V30 7423 N 705.054 -1.51416 0.437162 0
M  V30 7424 C 706.001 -2.27743 -0.374374 0
M  V30 7425 C 706.971 -1.31327 -1.01698 0
M  V30 7426 O 708.156 -1.60229 -1.03592 0
M  V30 7427 C 705.296 -3.12241 -1.46969 0
M  V30 7428 C 704.409 -4.23651 -0.845236 0
M  V30 7429 C 703.544 -4.95458 -1.91559 0
M  V30 7430 C 702.583 -5.98789 -1.26956 0
M  V30 7431 N 701.72 -6.64005 -2.28126 0
M  V30 7432 H 706.56 -2.96654 0.282892 0
M  V30 7433 H 704.097 -1.46319 0.151352 0
M  V30 7434 H 706.055 -3.59556 -2.11602 0
M  V30 7435 H 704.685 -2.45445 -2.09659 0
M  V30 7436 H 703.737 -3.803 -0.0872059 0
M  V30 7437 H 705.049 -4.97683 -0.333582 0
M  V30 7438 H 704.203 -5.46321 -2.63854 0
M  V30 7439 H 702.942 -4.21055 -2.46097 0
M  V30 7440 H 701.947 -5.47219 -0.53207 0
M  V30 7441 H 703.172 -6.75149 -0.731509 0
M  V30 7442 H 701.118 -5.92415 -2.81745 0
M  V30 7443 H 701.035 -7.33802 -1.81852 0
M  V30 7444 H 702.303 -7.19498 -2.99905 0
M  V30 7445 N 706.532 -0.168513 -1.56696 0
M  V30 7446 C 707.462 0.758563 -2.20835 0
M  V30 7447 C 708.443 1.24121 -1.1631 0
M  V30 7448 O 709.628 1.29487 -1.4473 0
M  V30 7449 C 706.758 1.9892 -2.8469 0
M  V30 7450 C 705.712 1.64252 -3.95228 0
M  V30 7451 C 705.038 2.94757 -4.46119 0
M  V30 7452 C 706.338 0.872675 -5.14958 0
M  V30 7453 H 708.032 0.223953 -2.98561 0
M  V30 7454 H 705.578 0.106277 -1.43607 0
M  V30 7455 H 707.531 2.64275 -3.28233 0
M  V30 7456 H 706.255 2.5479 -2.04327 0
M  V30 7457 H 704.914 1.01266 -3.52336 0
M  V30 7458 H 704.562 3.48662 -3.62552 0
M  V30 7459 H 704.262 2.72316 -5.2069 0
M  V30 7460 H 705.786 3.61147 -4.92347 0
M  V30 7461 H 707.2 1.42875 -5.55211 0
M  V30 7462 H 705.597 0.747402 -5.95428 0
M  V30 7463 H 706.667 -0.131535 -4.84722 0
M  V30 7464 N 708.01 1.57248 0.105221 0
M  V30 7465 C 709.258 1.85204 0.808951 0
M  V30 7466 C 709.579 0.75574 1.7976 0
M  V30 7467 O 708.849 -0.218984 1.94672 0
M  V30 7468 H 707.429 0.683346 0.301739 0
M  V30 7469 H 710.091 1.94695 0.0892605 0
M  V30 7470 H 709.187 2.81595 1.34575 0
M  V30 7471 N 709.488 -0.375779 1.53054 0
M  V30 7472 C 710.718 -1.1387 1.72386 0
M  V30 7473 C 711.126 -1.8382 0.447966 0
M  V30 7474 O 710.469 -1.74027 -0.588244 0
M  V30 7475 C 710.531 -2.22047 2.82728 0
M  V30 7476 C 710.195 -1.71951 4.23417 0
M  V30 7477 C 711.192 -1.18909 5.06119 0
M  V30 7478 C 708.877 -1.77773 4.69789 0
M  V30 7479 C 710.871 -0.723529 6.3328 0
M  V30 7480 C 708.558 -1.30829 5.96931 0
M  V30 7481 C 709.556 -0.782077 6.78508 0
M  V30 7482 O 709.244 -0.319529 8.03265 0
M  V30 7483 H 708.976 -0.346835 0.580242 0
M  V30 7484 H 711.53 -0.443748 2.00549 0
M  V30 7485 H 709.76 -2.95006 2.50017 0
M  V30 7486 H 711.449 -2.83654 2.90336 0
M  V30 7487 H 712.215 -1.13758 4.7147 0
M  V30 7488 H 708.094 -2.17673 4.06373 0
M  V30 7489 H 711.638 -0.312126 6.96901 0
M  V30 7490 H 707.535 -1.3567 6.31081 0
M  V30 7491 H 708.303 -0.439796 8.17318 0
M  V30 7492 N 710.966 -1.44241 -0.634997 0
M  V30 7493 C 712.212 -1.47038 -1.39669 0
M  V30 7494 C 712.545 -0.101122 -1.93937 0
M  V30 7495 O 711.82 0.880699 -1.73418 0
M  V30 7496 C 712.103 -2.52763 -2.56482 0
M  V30 7497 C 711.956 -3.99032 -2.07589 0
M  V30 7498 C 713.275 -2.55031 -3.58674 0
M  V30 7499 H 710.394 -0.53537 -0.506506 0
M  V30 7500 H 713.036 -1.75898 -0.718317 0
M  V30 7501 H 711.186 -2.28284 -3.14354 0
M  V30 7502 H 712.858 -4.3463 -1.54577 0
M  V30 7503 H 711.101 -4.10994 -1.38804 0
M  V30 7504 H 711.772 -4.68649 -2.91671 0
M  V30 7505 H 714.248 -2.76893 -3.10595 0
M  V30 7506 H 713.124 -3.30916 -4.37934 0
M  V30 7507 H 713.385 -1.59085 -4.12486 0
M  V30 7508 N 712.444 0.87505 -1.31075 0
M  V30 7509 C 713.672 1.66058 -1.23419 0
M  V30 7510 C 714.087 1.87723 0.201347 0
M  V30 7511 O 713.444 1.43178 1.13165 0
M  V30 7512 C 713.495 3.03142 -1.96945 0
M  V30 7513 O 713.216 2.82448 -3.34895 0
M  V30 7514 C 714.717 3.97583 -1.96067 0
M  V30 7515 H 711.937 0.517868 -0.426677 0
M  V30 7516 H 714.481 1.09258 -1.72867 0
M  V30 7517 H 712.636 3.56645 -1.51271 0
M  V30 7518 H 713.05 3.69483 -3.72267 0
M  V30 7519 H 714.524 4.91104 -2.52034 0
M  V30 7520 H 715.001 4.2898 -0.941961 0
M  V30 7521 H 715.607 3.50015 -2.41597 0
M  V30 7522 N 713.922 1.13953 1.08869 0
M  V30 7523 C 714.885 0.824991 2.13838 0
M  V30 7524 C 715.885 -0.168198 1.59918 0
M  V30 7525 O 717.075 0.0595778 1.74098 0
M  V30 7526 C 714.207 0.228938 3.4013 0
M  V30 7527 H 715.4 1.75521 2.43171 0
M  V30 7528 H 712.953 0.94492 1.24503 0
M  V30 7529 H 713.688 -0.710227 3.16427 0
M  V30 7530 H 713.473 0.944243 3.80561 0
M  V30 7531 H 714.963 0.0259223 4.17592 0
M  V30 7532 N 715.4 -1.26948 0.933913 0
M  V30 7533 C 716.677 -1.89212 0.495784 0
M  V30 7534 C 717.057 -1.84469 -1.02637 0
M  V30 7535 O 716.405 -1.29409 -1.88323 0
M  V30 7536 C 716.615 -3.32865 1.0489 0
M  V30 7537 C 717.963 -4.09749 1.11315 0
M  V30 7538 O 718.987 -3.41905 0.998966 0
M  V30 7539 O 717.846 -5.31061 1.28983 0
M  V30 7540 H 714.94 -0.811284 0.160459 0
M  V30 7541 H 717.486 -1.35171 1.02601 0
M  V30 7542 H 716.258 -3.30642 2.09265 0
M  V30 7543 H 715.881 -3.94435 0.500692 0
M  V30 7544 N 716.879 -0.700114 -1.41195 0
M  V30 7545 C 718.127 -0.232546 -2.00758 0
M  V30 7546 C 718.448 1.1734 -1.55745 0
M  V30 7547 O 717.718 1.79262 -0.790058 0
M  V30 7548 H 716.298 -0.0829845 -0.742376 0
M  V30 7549 H 718.96 -0.902289 -1.72756 0
M  V30 7550 H 718.056 -0.253521 -3.11069 0
M  V30 7551 N 718.357 1.51182 -0.445186 0
M  V30 7552 C 719.267 2.31692 0.368255 0
M  V30 7553 C 720.283 1.40942 1.02036 0
M  V30 7554 O 721.459 1.74011 1.01401 0
M  V30 7555 C 718.524 3.14903 1.45041 0
M  V30 7556 C 717.585 4.21442 0.817615 0
M  V30 7557 C 716.818 5.00677 1.8482 0
M  V30 7558 O 717.041 4.80644 3.07145 0
M  V30 7559 O 715.975 5.84559 1.43438 0
M  V30 7560 H 719.801 3.0232 -0.289219 0
M  V30 7561 H 717.386 1.47951 -0.207555 0
M  V30 7562 H 719.268 3.66612 2.07783 0
M  V30 7563 H 717.943 2.47031 2.09182 0
M  V30 7564 H 716.85 3.73791 0.151931 0
M  V30 7565 H 718.183 4.9171 0.219564 0
M  V30 7566 N 719.835 0.176821 1.56605 0
M  V30 7567 C 721.063 -0.472828 2.01425 0
M  V30 7568 C 721.478 -1.56436 1.05703 0
M  V30 7569 O 720.835 -1.82405 0.058808 0
M  V30 7570 C 720.886 -1.04607 3.46034 0
M  V30 7571 O 720.607 0.00189608 4.381 0
M  V30 7572 C 722.108 -1.7734 4.06282 0
M  V30 7573 H 719.328 -0.120503 0.660091 0
M  V30 7574 H 721.872 0.280166 2.02572 0
M  V30 7575 H 720.027 -1.74953 3.45645 0
M  V30 7576 H 720.441 -0.422118 5.22799 0
M  V30 7577 H 721.915 -2.12703 5.09374 0
M  V30 7578 H 722.392 -2.67043 3.4869 0
M  V30 7579 H 722.998 -1.11623 4.10391 0
M  V30 7580 N 721.313 -1.57302 -0.09688 0
M  V30 7581 C 722.538 -1.9058 -0.818169 0
M  V30 7582 C 722.963 -0.770921 -1.71576 0
M  V30 7583 O 722.321 0.277588 -1.79162 0
M  V30 7584 C 722.369 -3.22714 -1.60898 0
M  V30 7585 O 721.473 -3.10178 -2.71779 0
M  V30 7586 H 720.814 -0.624759 -0.224882 0
M  V30 7587 H 723.344 -2.04471 -0.07264 0
M  V30 7588 H 723.354 -3.55978 -1.99358 0
M  V30 7589 H 722.029 -4.04899 -0.950227 0
M  V30 7590 H 720.606 -2.88424 -2.3636 0
M  V30 7591 N 722.791 0.367657 -1.53252 0
M  V30 7592 C 724.039 1.10832 -1.68999 0
M  V30 7593 C 724.36 1.89894 -0.443306 0
M  V30 7594 O 723.63 1.88235 0.54262 0
M  V30 7595 H 722.21 0.412153 -0.623008 0
M  V30 7596 H 724.872 0.414775 -1.90435 0
M  V30 7597 H 723.968 1.7993 -2.55013 0
M  V30 7598 N 724.269 1.44576 0.627338 0
M  V30 7599 C 725.494 1.51271 1.41887 0
M  V30 7600 C 725.919 0.139814 1.8758 0
M  V30 7601 O 725.277 -0.871746 1.58966 0
M  V30 7602 C 725.325 2.48529 2.61277 0
M  V30 7603 O 724.429 1.98944 3.61241 0
M  V30 7604 H 723.77 0.510668 0.424399 0
M  V30 7605 H 726.3 1.89746 0.765356 0
M  V30 7606 H 726.31 2.66689 3.08773 0
M  V30 7607 H 724.985 3.48249 2.27366 0
M  V30 7608 H 723.562 1.90568 3.20528 0
M  V30 7609 N 725.747 -0.868086 1.31537 0
M  V30 7610 C 726.996 -1.61607 1.20689 0
M  V30 7611 C 727.309 -1.94204 -0.233275 0
M  V30 7612 O 728.515 -2.67515 -0.463465 0
M  V30 7613 C 726.971 -2.91348 2.11292 0
M  V30 7614 C 726.579 -2.66227 3.60315 0
M  V30 7615 C 728.323 -3.69344 2.09249 0
M  V30 7616 C 726.23 -3.91887 4.42921 0
M  V30 7617 H 725.16 -0.606373 0.448138 0
M  V30 7618 H 727.811 -0.959666 1.56405 0
M  V30 7619 H 726.193 -3.58374 1.68477 0
M  V30 7620 H 727.367 -2.07597 4.11388 0
M  V30 7621 H 725.682 -2.01582 3.64354 0
M  V30 7622 H 728.279 -4.62567 2.68209 0
M  V30 7623 H 728.622 -4.02044 1.0801 0
M  V30 7624 H 729.155 -3.09205 2.50274 0
M  V30 7625 H 725.894 -3.64336 5.44922 0
M  V30 7626 H 725.414 -4.49961 3.96605 0
M  V30 7627 H 727.093 -4.59754 4.55231 0
M  V30 7628 N 727.225 -1.14528 -1.08264 0
M  V30 7629 C 728.453 -0.937964 -1.84418 0
M  V30 7630 C 728.868 0.51357 -1.81681 0
M  V30 7631 O 728.225 1.35591 -1.22153 0
M  V30 7632 C 728.276 -1.43272 -3.31897 0
M  V30 7633 O 727.997 -2.82738 -3.34651 0
M  V30 7634 C 729.498 -1.26555 -4.24851 0
M  V30 7635 H 726.718 -0.333704 -0.582136 0
M  V30 7636 H 729.262 -1.52076 -1.36723 0
M  V30 7637 H 727.417 -0.892653 -3.76975 0
M  V30 7638 H 727.831 -3.04971 -4.26724 0
M  V30 7639 H 729.305 -1.66031 -5.26439 0
M  V30 7640 H 729.782 -0.208589 -4.38704 0
M  V30 7641 H 730.388 -1.79423 -3.856 0
M  V30 7642 N 728.703 1.26451 -0.940633 0
M  V30 7643 C 729.943 1.95537 -0.595381 0
M  V30 7644 C 730.307 1.72175 0.849683 0
M  V30 7645 O 731.508 2.3506 1.30384 0
M  V30 7646 C 729.779 3.45151 -0.927669 0
M  V30 7647 S 731.338 4.33295 -0.69288 0
M  V30 7648 H 728.156 0.676331 -0.219311 0
M  V30 7649 H 730.758 1.53411 -1.21183 0
M  V30 7650 H 729.462 3.59654 -1.9768 0
M  V30 7651 H 728.993 3.92247 -0.300921 0
M  V30 7652 H 731.008 4.94217 0.443175 0
M  V30 7653 N 730.181 0.707592 1.40822 0
M  V30 7654 C 731.429 0.243189 2.00632 0
M  V30 7655 C 731.75 -1.16512 1.56365 0
M  V30 7656 O 731.02 -1.78841 0.799553 0
M  V30 7657 H 729.6 0.0869203 0.741926 0
M  V30 7658 H 732.262 0.911438 1.72275 0
M  V30 7659 H 731.358 0.270014 3.1093 0
M  V30 7660 N 731.66 -1.50943 0.453197 0
M  V30 7661 C 732.607 -2.28128 -0.350197 0
M  V30 7662 C 733.577 -1.32398 -1.00299 0
M  V30 7663 O 734.762 -1.61319 -1.01887 0
M  V30 7664 C 731.902 -3.13782 -1.43649 0
M  V30 7665 C 731.015 -4.24523 -0.800255 0
M  V30 7666 C 730.15 -4.97462 -1.86293 0
M  V30 7667 C 729.189 -6.00102 -1.20598 0
M  V30 7668 N 728.326 -6.66387 -2.21071 0
M  V30 7669 H 733.166 -2.96337 0.31434 0
M  V30 7670 H 730.703 -1.46151 0.166863 0
M  V30 7671 H 732.661 -3.6178 -2.07776 0
M  V30 7672 H 731.291 -2.47655 -2.07044 0
M  V30 7673 H 730.343 -3.80371 -0.0468651 0
M  V30 7674 H 731.655 -4.98009 -0.280777 0
M  V30 7675 H 730.809 -5.49088 -2.58044 0
M  V30 7676 H 729.548 -4.23642 -2.41617 0
M  V30 7677 H 728.553 -5.47753 -0.474 0
M  V30 7678 H 729.778 -6.75887 -0.659859 0
M  V30 7679 H 727.724 -5.9537 -2.75446 0
M  V30 7680 H 727.641 -7.3569 -1.74058 0
M  V30 7681 H 728.909 -7.22638 -2.92257 0
M  V30 7682 N 733.138 -0.185124 -1.56509 0
M  V30 7683 C 734.415 0.503348 -1.89013 0
M  V30 7684 C 734.795 1.80349 -1.09715 0
M  V30 7685 O 734.143 2.27665 -0.195203 0
M  V30 7686 C 734.353 0.731839 -3.41241 0
M  V30 7687 C 735.701 1.05568 -4.11267 0
M  V30 7688 O 736.725 0.819906 -3.46635 0
M  V30 7689 O 735.584 1.50116 -5.25478 0
M  V30 7690 H 732.678 0.261139 -0.784688 0
M  V30 7691 H 735.224 -0.224592 -1.68207 0
M  V30 7692 H 733.996 -0.18672 -3.90854 0
M  V30 7693 H 733.619 1.5126 -3.67704 0
M  V30 7694 N 734.616 1.57351 0.0885366 0
M  V30 7695 C 735.864 1.86051 0.789262 0
M  V30 7696 C 736.185 0.774763 1.78948 0
M  V30 7697 O 735.455 -0.198324 1.94894 0
M  V30 7698 H 734.035 0.686508 0.294475 0
M  V30 7699 H 736.697 1.94779 0.0686055 0
M  V30 7700 H 735.793 2.83007 1.31581 0
M  V30 7701 N 736.094 -0.359525 1.53444 0
M  V30 7702 C 737.34 -1.09958 1.71116 0
M  V30 7703 C 737.695 -1.8681 0.460414 0
M  V30 7704 O 736.988 -1.83635 -0.5467 0
M  V30 7705 C 737.182 -2.08287 2.90433 0
M  V30 7706 C 737.011 -1.41098 4.26991 0
M  V30 7707 C 735.781 -1.16255 4.91745 0
M  V30 7708 C 737.979 -0.845517 5.07302 0
M  V30 7709 N 735.961 -0.454798 6.12213 0
M  V30 7710 C 737.332 -0.267455 6.19423 0
M  V30 7711 C 739.387 -0.744797 4.92298 0
M  V30 7712 C 738.09 0.401511 7.18179 0
M  V30 7713 C 740.116 -0.0896013 5.91332 0
M  V30 7714 C 739.478 0.47756 7.02779 0
M  V30 7715 H 735.577 -0.387305 0.679352 0
M  V30 7716 H 738.161 -0.38519 1.90852 0
M  V30 7717 H 736.332 -2.77034 2.72226 0
M  V30 7718 H 738.064 -2.75015 2.96899 0
M  V30 7719 H 734.819 -1.44544 4.51003 0
M  V30 7720 H 735.243 -0.116108 6.769 0
M  V30 7721 H 739.885 -1.16905 4.06317 0
M  V30 7722 H 737.603 0.837694 8.03746 0
M  V30 7723 H 741.189 -0.0125162 5.81799 0
M  V30 7724 H 740.069 0.976522 7.78096 0
M  V30 7725 N 737.572 -1.44907 -0.619662 0
M  V30 7726 C 738.797 -1.52021 -1.41083 0
M  V30 7727 C 739.222 -0.14976 -1.87503 0
M  V30 7728 O 738.58 0.863303 -1.59426 0
M  V30 7729 C 738.628 -2.49911 -2.59955 0
M  V30 7730 O 737.732 -2.00857 -3.60181 0
M  V30 7731 H 737.073 -0.512912 -0.421684 0
M  V30 7732 H 739.603 -1.90149 -0.755282 0
M  V30 7733 H 739.613 -2.68323 -3.07354 0
M  V30 7734 H 738.288 -3.4945 -2.25516 0
M  V30 7735 H 736.865 -1.92265 -3.19513 0
M  V30 7736 N 739.05 0.861098 -1.31996 0
M  V30 7737 C 740.013 1.95068 -1.20338 0
M  V30 7738 C 741.013 1.60289 -0.128114 0
M  V30 7739 O 742.203 1.70048 -0.378044 0
M  V30 7740 C 739.335 3.30153 -0.849205 0
M  V30 7741 H 740.528 2.06833 -2.17164 0
M  V30 7742 H 738.081 1.05049 -1.15734 0
M  V30 7743 H 738.816 3.24087 0.117508 0
M  V30 7744 H 738.601 3.56771 -1.62655 0
M  V30 7745 H 740.091 4.10025 -0.791782 0
M  V30 7746 N 740.528 1.15101 1.07655 0
M  V30 7747 C 741.46 0.802722 2.14684 0
M  V30 7748 C 742.473 -0.183874 1.61758 0
M  V30 7749 O 743.662 0.0389349 1.78458 0
M  V30 7750 C 740.762 0.172135 3.38463 0
M  V30 7751 C 739.935 1.19538 4.20749 0
M  V30 7752 C 738.994 0.58714 5.22914 0
M  V30 7753 O 738.02 1.25224 5.55255 0
M  V30 7754 N 739.222 -0.632566 5.77043 0
M  V30 7755 H 741.987 1.72379 2.45164 0
M  V30 7756 H 739.548 1.04647 1.23534 0
M  V30 7757 H 741.54 -0.247465 4.03943 0
M  V30 7758 H 740.11 -0.652214 3.0572 0
M  V30 7759 H 739.33 1.79165 3.51132 0
M  V30 7760 H 740.618 1.88636 4.7254 0
M  V30 7761 H 740.016 -1.19135 5.53013 0
M  V30 7762 H 738.573 -0.994566 6.44167 0
M  V30 7763 N 742.006 -1.2595 0.947325 0
M  V30 7764 C 743.417 -1.75389 0.639963 0
M  V30 7765 C 743.768 -1.77081 -0.844788 0
M  V30 7766 O 742.893 -1.3869 -1.66114 0
M  V30 7767 C 743.488 -3.18506 1.15496 0
M  V30 7768 C 742.047 -3.65534 0.897894 0
M  V30 7769 C 741.194 -2.44818 1.30228 0
M  V30 7770 H 744.145 -1.1194 1.12495 0
M  V30 7771 H 744.166 -3.77045 0.511627 0
M  V30 7772 H 743.678 -3.17243 2.23559 0
M  V30 7773 H 741.779 -3.72221 -0.168096 0
M  V30 7774 H 741.892 -4.54039 1.52922 0
M  V30 7775 H 740.256 -2.44291 0.720678 0
M  V30 7776 H 741.039 -2.46251 2.39198 0
M  V30 7777 N 743.484 -0.715051 -1.40445 0
M  V30 7778 C 744.712 -0.263959 -2.05209 0
M  V30 7779 C 745.127 1.09403 -1.53871 0
M  V30 7780 O 744.484 1.68746 -0.695064 0
M  V30 7781 C 744.535 -0.234545 -3.60738 0
M  V30 7782 O 744.256 -1.53891 -4.10182 0
M  V30 7783 C 745.757 0.235164 -4.42676 0
M  V30 7784 H 742.977 -0.11876 -0.660407 0
M  V30 7785 H 745.521 -0.973107 -1.79864 0
M  V30 7786 H 743.676 0.425563 -3.85055 0
M  V30 7787 H 744.09 -1.43903 -5.04373 0
M  V30 7788 H 745.564 0.204598 -5.51621 0
M  V30 7789 H 746.041 1.27724 -4.20218 0
M  V30 7790 H 746.647 -0.394649 -4.23465 0
M  V30 7791 N 744.962 1.50701 -0.461195 0
M  V30 7792 C 746.202 2.04174 0.0960673 0
M  V30 7793 C 746.566 1.33628 1.37868 0
M  V30 7794 O 747.767 1.77602 2.0177 0
M  V30 7795 C 746.038 3.56256 0.285676 0
M  V30 7796 S 747.597 4.31392 0.802917 0
M  V30 7797 H 744.415 0.710701 0.0206282 0
M  V30 7798 H 747.017 1.85204 -0.62607 0
M  V30 7799 H 745.721 4.05159 -0.653773 0
M  V30 7800 H 745.252 3.79562 1.03421 0
M  V30 7801 H 747.267 4.50611 2.07761 0
M  V30 7802 N 746.441 0.193421 1.56409 0
M  V30 7803 C 747.69 -0.445995 1.96707 0
M  V30 7804 C 748.003 -1.62876 1.08309 0
M  V30 7805 O 749.209 -2.33586 1.38383 0
M  V30 7806 C 747.665 -0.844863 3.49843 0
M  V30 7807 C 747.273 0.31352 4.46902 0
M  V30 7808 C 749.017 -1.45146 3.98915 0
M  V30 7809 C 746.924 -0.106214 5.91305 0
M  V30 7810 H 745.854 -0.170398 0.734493 0
M  V30 7811 H 748.505 0.285172 1.81271 0
M  V30 7812 H 746.887 -1.63265 3.60778 0
M  V30 7813 H 748.061 1.09103 4.47698 0
M  V30 7814 H 746.376 0.8315 4.08014 0
M  V30 7815 H 748.973 -1.77792 5.04276 0
M  V30 7816 H 749.316 -2.35734 3.43126 0
M  V30 7817 H 749.849 -0.727675 3.91088 0
M  V30 7818 H 746.588 0.765442 6.51016 0
M  V30 7819 H 746.108 -0.848623 5.93766 0
M  V30 7820 H 747.787 -0.542588 6.44721 0
M  V30 7821 N 747.919 -1.57396 -0.0801906 0
M  V30 7822 C 748.866 -2.03107 -1.09618 0
M  V30 7823 C 749.836 -0.910118 -1.38946 0
M  V30 7824 O 751.021 -1.17719 -1.50156 0
M  V30 7825 C 748.161 -2.47293 -2.40708 0
M  V30 7826 C 747.274 -3.72972 -2.17982 0
M  V30 7827 C 746.409 -4.05975 -3.42576 0
M  V30 7828 C 745.448 -5.24719 -3.15177 0
M  V30 7829 N 744.585 -5.53401 -4.32078 0
M  V30 7830 H 749.425 -2.89677 -0.69939 0
M  V30 7831 H 746.962 -1.43263 -0.333785 0
M  V30 7832 H 748.92 -2.7096 -3.17232 0
M  V30 7833 H 747.55 -1.63713 -2.78205 0
M  V30 7834 H 746.602 -3.56693 -1.32189 0
M  V30 7835 H 747.914 -4.59638 -1.93738 0
M  V30 7836 H 747.068 -4.30498 -4.275 0
M  V30 7837 H 745.807 -3.17859 -3.69887 0
M  V30 7838 H 744.812 -5 -2.28648 0
M  V30 7839 H 746.037 -6.14445 -2.89197 0
M  V30 7840 H 743.983 -4.68245 -4.59437 0
M  V30 7841 H 743.9 -6.34469 -4.11078 0
M  V30 7842 H 745.168 -5.8247 -5.18024 0
M  V30 7843 N 749.397 0.351382 -1.53633 0
M  V30 7844 C 750.622 1.11718 -1.74739 0
M  V30 7845 C 751.047 1.81829 -0.481657 0
M  V30 7846 O 750.405 1.72264 0.565233 0
M  V30 7847 C 750.453 2.11234 -2.92254 0
M  V30 7848 O 749.557 3.186 -2.61855 0
M  V30 7849 H 748.898 0.323482 -0.579875 0
M  V30 7850 H 751.428 0.404167 -2.00568 0
M  V30 7851 H 751.438 2.54591 -3.18822 0
M  V30 7852 H 750.113 1.59599 -3.84058 0
M  V30 7853 H 748.69 2.80115 -2.4615 0
M  V30 7854 N 750.875 1.45233 0.611969 0
M  V30 7855 C 752.115 1.50558 1.38245 0
M  V30 7856 C 752.479 0.141959 1.91474 0
M  V30 7857 O 753.68 0.0698926 2.68709 0
M  V30 7858 C 751.951 2.55136 2.50281 0
M  V30 7859 S 753.51 2.79652 3.38142 0
M  V30 7860 H 750.328 0.532281 0.471378 0
M  V30 7861 H 752.93 1.82285 0.706578 0
M  V30 7862 H 751.634 3.52888 2.09518 0
M  V30 7863 H 751.165 2.25045 3.22674 0
M  V30 7864 H 753.18 2.12699 4.48301 0
M  V30 7865 N 752.353 -0.854086 1.3245 0
M  V30 7866 C 753.63 -1.59188 1.1366 0
M  V30 7867 C 754.01 -2.08917 -0.302807 0
M  V30 7868 O 753.358 -1.8795 -1.29951 0
M  V30 7869 C 753.568 -2.73757 2.16467 0
M  V30 7870 C 754.916 -3.43323 2.49829 0
M  V30 7871 O 755.94 -2.83983 2.15017 0
M  V30 7872 O 754.799 -4.50409 3.09506 0
M  V30 7873 H 751.893 -0.701092 0.438633 0
M  V30 7874 H 754.439 -0.898165 1.43983 0
M  V30 7875 H 753.211 -2.3454 3.1322 0
M  V30 7876 H 752.834 -3.50804 1.87142 0
M  V30 7877 N 753.831 -1.1567 -1.07043 0
M  V30 7878 C 755.08 -0.928039 -1.79082 0
M  V30 7879 C 755.393 0.545968 -1.87826 0
M  V30 7880 O 756.599 0.892308 -2.56418 0
M  V30 7881 C 755.055 -1.61103 -3.21829 0
M  V30 7882 C 754.663 -3.12228 -3.21275 0
M  V30 7883 C 756.407 -1.46404 -3.98455 0
M  V30 7884 C 754.314 -3.733 -4.58695 0
M  V30 7885 H 753.244 -0.34357 -0.671175 0
M  V30 7886 H 755.895 -1.38718 -1.20123 0
M  V30 7887 H 754.277 -1.07958 -3.81 0
M  V30 7888 H 755.451 -3.72155 -2.71731 0
M  V30 7889 H 753.766 -3.26725 -2.58147 0
M  V30 7890 H 756.363 -1.8942 -5.00024 0
M  V30 7891 H 756.706 -0.41195 -4.14257 0
M  V30 7892 H 757.239 -1.96663 -3.45787 0
M  V30 7893 H 753.978 -4.78423 -4.48098 0
M  V30 7894 H 753.498 -3.18157 -5.08465 0
M  V30 7895 H 755.177 -3.7441 -5.27661 0
M  V30 7896 N 755.309 1.25446 -0.953992 0
M  V30 7897 C 756.72 1.75047 -0.649255 0
M  V30 7898 C 757.071 1.77527 0.835385 0
M  V30 7899 O 756.196 1.39569 1.65377 0
M  V30 7900 C 756.791 3.17889 -1.17183 0
M  V30 7901 C 755.35 3.65052 -0.917267 0
M  V30 7902 C 754.497 2.44124 -1.31525 0
M  V30 7903 H 757.448 1.11342 -1.13087 0
M  V30 7904 H 757.469 3.76768 -0.531616 0
M  V30 7905 H 756.981 3.16052 -2.25239 0
M  V30 7906 H 755.082 3.72305 0.148354 0
M  V30 7907 H 755.195 4.53222 -1.55328 0
M  V30 7908 H 753.559 2.43906 -0.733624 0
M  V30 7909 H 754.342 2.44979 -2.405 0
M  V30 7910 N 756.787 0.722489 1.40064 0
M  V30 7911 C 758.033 0.265371 2.01056 0
M  V30 7912 C 758.366 -1.14062 1.57174 0
M  V30 7913 O 757.641 -1.77514 0.794916 0
M  V30 7914 C 757.924 0.353157 3.58364 0
M  V30 7915 C 757.777 1.79802 4.123 0
M  V30 7916 C 759.096 -0.271677 4.39261 0
M  V30 7917 H 756.215 0.0979002 0.730469 0
M  V30 7918 H 758.857 0.916289 1.66446 0
M  V30 7919 H 757.007 -0.201037 3.87979 0
M  V30 7920 H 758.679 2.40813 3.93455 0
M  V30 7921 H 756.922 2.32348 3.66329 0
M  V30 7922 H 757.593 1.81079 5.21454 0
M  V30 7923 H 760.069 0.200607 4.15616 0
M  V30 7924 H 758.945 -0.179843 5.48605 0
M  V30 7925 H 759.206 -1.35611 4.20787 0
M  V30 7926 N 758.265 -1.50454 0.469181 0
M  V30 7927 C 759.512 -2.02315 -0.086469 0
M  V30 7928 C 759.84 -1.3513 -1.39893 0
M  V30 7929 O 759.095 -0.465341 -1.90087 0
M  V30 7930 C 759.394 -3.55963 -0.320207 0
M  V30 7931 C 759.06 -4.41615 0.910318 0
M  V30 7932 C 757.722 -4.64743 1.2477 0
M  V30 7933 C 760.074 -4.91661 1.72971 0
M  V30 7934 C 757.402 -5.35161 2.40457 0
M  V30 7935 C 759.754 -5.6335 2.87785 0
M  V30 7936 C 758.418 -5.84732 3.2194 0
M  V30 7937 H 757.688 -0.740324 -0.0316412 0
M  V30 7938 H 760.335 -1.81087 0.622872 0
M  V30 7939 H 758.64 -3.75695 -1.11177 0
M  V30 7940 H 760.337 -3.93653 -0.764071 0
M  V30 7941 H 756.927 -4.23833 0.637467 0
M  V30 7942 H 761.111 -4.73649 1.48224 0
M  V30 7943 H 756.367 -5.49924 2.67196 0
M  V30 7944 H 760.541 -6.0111 3.51624 0
M  V30 7945 H 758.168 -6.39074 4.1169 0
M  V30 7946 N 759.743 -0.201713 -1.56304 0
M  V30 7947 C 760.676 0.755976 -2.15314 0
M  V30 7948 C 761.654 1.20497 -1.09175 0
M  V30 7949 O 762.838 1.2913 -1.37323 0
M  V30 7950 C 759.965 2.02177 -2.71739 0
M  V30 7951 C 759.011 1.71436 -3.90528 0
M  V30 7952 S 759.844 0.856624 -5.28604 0
M  V30 7953 C 761 2.13242 -5.88455 0
M  V30 7954 H 761.233 0.254348 -2.9621 0
M  V30 7955 H 758.766 0.0133669 -1.54394 0
M  V30 7956 H 760.724 2.74867 -3.04891 0
M  V30 7957 H 759.385 2.49452 -1.90873 0
M  V30 7958 H 758.578 2.65433 -4.28441 0
M  V30 7959 H 758.18 1.06823 -3.5842 0
M  V30 7960 H 760.472 3.08435 -6.0322 0
M  V30 7961 H 761.415 1.7975 -6.84905 0
M  V30 7962 H 761.823 2.2639 -5.17115 0
M  V30 7963 N 761.222 1.57436 0.0718424 0
M  V30 7964 C 762.17 2.04725 1.10411 0
M  V30 7965 C 763.164 0.952579 1.4008 0
M  V30 7966 O 764.37 1.13769 1.39487 0
M  V30 7967 H 760.745 0.652749 0.373393 0
M  V30 7968 H 762.716 2.90569 0.679126 0
M  V30 7969 C 761.465 2.5068 2.40946 0
M  V30 7970 H 760.788 3.34505 2.18967 0
M  V30 7971 H 762.228 2.87521 3.11621 0
M  V30 7972 C 760.687 1.38971 3.06902 0
M  V30 7973 O 761.217 0.731786 3.94978 0
M  V30 7974 N 759.423 1.13485 2.67525 0
M  V30 7975 H 758.97 1.67168 1.95991 0
M  V30 7976 H 758.928 0.389467 3.11978 0
M  V30 7977 N 762.7 -0.34323 1.53817 0
M  V30 7978 C 763.663 -1.40444 1.8113 0
M  V30 7979 C 764.663 -1.45604 0.682366 0
M  V30 7980 O 765.853 -1.45974 0.950649 0
M  V30 7981 C 762.985 -2.79369 1.95361 0
M  V30 7982 H 764.178 -1.17489 2.75928 0
M  V30 7983 H 761.731 -0.577636 1.45234 0
M  V30 7984 H 762.466 -3.07607 1.02707 0
M  V30 7985 H 762.251 -2.7702 2.77493 0
M  V30 7986 H 763.741 -3.56178 2.18008 0
M  V30 7987 N 764.178 -1.45556 -0.604258 0
M  V30 7988 C 765.594 -1.30035 -0.925368 0
M  V30 7989 C 765.794 -0.255833 -1.99869 0
M  V30 7990 O 764.85 0.349076 -2.50075 0
M  V30 7991 C 766.163 -2.68028 -1.36314 0
M  V30 7992 C 767.711 -2.75951 -1.47717 0
M  V30 7993 C 768.186 -4.14476 -1.94868 0
M  V30 7994 N 769.677 -4.16787 -2.02097 0
M  V30 7995 C 770.412 -5.20845 -2.39809 0
M  V30 7996 N 769.908 -6.35246 -2.76467 0
M  V30 7997 N 771.701 -5.08204 -2.40177 0
M  V30 7998 H 763.852 -2.1214 0.10512 0
M  V30 7999 H 766.115 -0.947871 -0.0156303 0
M  V30 8000 H 765.821 -3.45667 -0.648628 0
M  V30 8001 H 765.695 -2.96711 -2.329 0
M  V30 8002 H 768.082 -1.98613 -2.18258 0
M  V30 8003 H 768.163 -2.50977 -0.494371 0
M  V30 8004 H 767.807 -4.923 -1.24912 0
M  V30 8005 H 767.737 -4.36843 -2.94068 0
M  V30 8006 H 770.228 -3.34233 -1.76343 0
M  V30 8007 H 770.541 -7.10438 -3.04134 0
M  V30 8008 H 768.886 -6.38642 -2.74155 0
M  V30 8009 H 772.077 -4.17874 -2.10947 0
M  V30 8010 H 772.25 -5.89417 -2.69242 0
M  V30 8011 N 765.656 0.84705 -1.32902 0
M  V30 8012 C 766.884 1.63403 -1.26913 0
M  V30 8013 C 767.299 1.88108 0.161483 0
M  V30 8014 O 766.656 1.45546 1.10103 0
M  V30 8015 C 766.707 2.98896 -2.03331 0
M  V30 8016 O 766.428 2.75281 -3.40811 0
M  V30 8017 C 767.929 3.93335 -2.04457 0
M  V30 8018 H 765.149 0.508701 -0.437566 0
M  V30 8019 H 767.693 1.05567 -1.75145 0
M  V30 8020 H 765.848 3.53356 -1.58802 0
M  V30 8021 H 766.262 3.61504 -3.8002 0
M  V30 8022 H 767.736 4.85647 -2.62394 0
M  V30 8023 H 768.213 4.26885 -1.03274 0
M  V30 8024 H 768.819 3.44812 -2.48967 0
M  V30 8025 N 767.134 1.16236 1.06428 0
M  V30 8026 C 768.081 0.86769 2.13869 0
M  V30 8027 C 769.051 -0.183298 1.65086 0
M  V30 8028 O 770.236 -0.0488002 1.90738 0
M  V30 8029 C 767.376 0.373427 3.43074 0
M  V30 8030 C 766.489 1.48708 4.05598 0
M  V30 8031 C 765.624 0.947977 5.22673 0
M  V30 8032 C 764.663 2.03793 5.77178 0
M  V30 8033 N 763.8 1.51451 6.85571 0
M  V30 8034 H 768.64 1.78781 2.38414 0
M  V30 8035 H 766.177 0.891892 1.16977 0
M  V30 8036 H 768.135 0.0685035 4.17144 0
M  V30 8037 H 766.765 -0.509752 3.1875 0
M  V30 8038 H 765.817 1.908 3.29089 0
M  V30 8039 H 767.129 2.30964 4.42105 0
M  V30 8040 H 766.283 0.596154 6.03764 0
M  V30 8041 H 765.022 0.0947081 4.87608 0
M  V30 8042 H 764.027 2.39847 4.94726 0
M  V30 8043 H 765.252 2.89514 6.14295 0
M  V30 8044 H 763.198 0.683755 6.52427 0
M  V30 8045 H 763.115 2.27325 7.21013 0
M  V30 8046 H 764.383 1.19123 7.70344 0
M  V30 8047 N 768.612 -1.24939 0.960631 0
M  V30 8048 C 769.56 -2.27659 0.47686 0
M  V30 8049 C 770.554 -1.63148 -0.455961 0
M  V30 8050 O 771.76 -1.76911 -0.332029 0
M  V30 8051 H 768.135 -0.739651 0.135723 0
M  V30 8052 H 770.106 -2.65844 1.35534 0
M  V30 8053 C 768.855 -3.46976 -0.224191 0
M  V30 8054 H 768.178 -3.96854 0.484471 0
M  V30 8055 H 769.618 -4.20717 -0.526615 0
M  V30 8056 C 768.077 -3.04159 -1.44876 0
M  V30 8057 O 768.607 -3.10697 -2.54618 0
M  V30 8058 N 766.813 -2.59284 -1.31226 0
M  V30 8059 H 766.36 -2.54164 -0.419361 0
M  V30 8060 H 766.318 -2.31 -2.13275 0
M  V30 8061 N 770.09 -0.729906 -1.39679 0
M  V30 8062 C 771.367 -0.202149 -1.94553 0
M  V30 8063 C 771.747 1.29507 -1.66707 0
M  V30 8064 O 771.095 2.05819 -0.992517 0
M  V30 8065 C 771.305 -0.530279 -3.44948 0
M  V30 8066 C 772.653 -0.476808 -4.21914 0
M  V30 8067 O 773.677 -0.467171 -3.53123 0
M  V30 8068 O 772.536 -0.466869 -5.44502 0
M  V30 8069 H 769.63 -0.0351644 -0.826252 0
M  V30 8070 H 772.176 -0.808417 -1.49207 0
M  V30 8071 H 770.948 -1.56526 -3.5863 0
M  V30 8072 H 770.571 0.10522 -3.97461 0
M  V30 8073 N 771.568 1.50203 -0.477153 0
M  V30 8074 C 772.815 2.02358 0.0757385 0
M  V30 8075 C 773.143 1.3587 1.39174 0
M  V30 8076 O 772.398 0.475415 1.89838 0
M  V30 8077 C 772.697 3.56127 0.301325 0
M  V30 8078 C 772.363 4.41126 -0.933725 0
M  V30 8079 C 771.025 4.64075 -1.27233 0
M  V30 8080 C 773.377 4.90737 -1.75576 0
M  V30 8081 C 770.705 5.33878 -2.43292 0
M  V30 8082 C 773.057 5.61816 -2.90768 0
M  V30 8083 C 771.721 5.83016 -3.25036 0
M  V30 8084 H 770.991 0.740482 0.0277147 0
M  V30 8085 H 773.638 1.80754 -0.632467 0
M  V30 8086 H 771.943 3.76279 1.09183 0
M  V30 8087 H 773.64 3.94053 0.743184 0
M  V30 8088 H 770.23 4.23489 -0.659935 0
M  V30 8089 H 774.414 4.72856 -1.50734 0
M  V30 8090 H 769.67 5.48499 -2.70109 0
M  V30 8091 H 773.844 5.99237 -3.54807 0
M  V30 8092 H 771.471 6.36881 -4.15074 0
M  V30 8093 N 773.046 0.209999 1.56195 0
M  V30 8094 C 774.274 -0.429996 2.02382 0
M  V30 8095 C 774.689 -1.54159 1.08998 0
M  V30 8096 O 774.046 -1.82239 0.0974856 0
M  V30 8097 C 774.097 -0.972433 3.48175 0
M  V30 8098 O 773.818 0.0948231 4.37997 0
M  V30 8099 C 775.319 -1.68683 4.09952 0
M  V30 8100 H 772.539 -0.106475 0.662498 0
M  V30 8101 H 775.083 0.323072 2.01932 0
M  V30 8102 H 773.238 -1.67582 3.49278 0
M  V30 8103 H 773.652 -0.31113 5.23576 0
M  V30 8104 H 775.126 -2.01851 5.13771 0
M  V30 8105 H 775.603 -2.59587 3.54276 0
M  V30 8106 H 776.209 -1.02893 4.12666 0
M  V30 8107 N 774.524 -1.57472 -0.0634922 0
M  V30 8108 C 775.77 -1.88792 -0.756903 0
M  V30 8109 C 776.125 -0.804679 -1.74765 0
M  V30 8110 O 775.418 0.19033 -1.90652 0
M  V30 8111 C 775.612 -3.24521 -1.49736 0
M  V30 8112 C 775.441 -4.45946 -0.579833 0
M  V30 8113 C 774.211 -5.04848 -0.213667 0
M  V30 8114 C 776.409 -5.14143 0.12703 0
M  V30 8115 N 774.391 -6.09795 0.708712 0
M  V30 8116 C 775.762 -6.1334 0.906295 0
M  V30 8117 C 777.817 -4.97508 0.197625 0
M  V30 8118 C 776.52 -6.97697 1.74961 0
M  V30 8119 C 778.546 -5.82398 1.02794 0
M  V30 8120 C 777.908 -6.81139 1.79523 0
M  V30 8121 H 774.007 -0.740235 -0.252142 0
M  V30 8122 H 776.591 -1.94692 -0.0181026 0
M  V30 8123 H 774.762 -3.19615 -2.20683 0
M  V30 8124 H 776.494 -3.43464 -2.14044 0
M  V30 8125 H 773.249 -4.70177 -0.568357 0
M  V30 8126 H 773.673 -6.66929 1.16339 0
M  V30 8127 H 778.315 -4.21077 -0.381261 0
M  V30 8128 H 776.033 -7.73496 2.33943 0
M  V30 8129 H 779.619 -5.71581 1.08565 0
M  V30 8130 H 778.499 -7.45687 2.42736 0
M  V30 8131 N 776.003 0.335068 -1.53997 0
M  V30 8132 C 777.25 1.07435 -1.71651 0
M  V30 8133 C 777.578 1.88378 -0.48413 0
M  V30 8134 O 776.833 1.8827 0.534139 0
M  V30 8135 C 777.132 2.0364 -2.9371 0
M  V30 8136 C 776.798 1.38942 -4.28959 0
M  V30 8137 C 775.46 1.21027 -4.65732 0
M  V30 8138 C 777.812 0.924083 -5.12943 0
M  V30 8139 C 775.14 0.552097 -5.84097 0
M  V30 8140 C 777.492 0.27978 -6.31981 0
M  V30 8141 C 776.156 0.0883843 -6.67441 0
M  V30 8142 H 775.426 0.393133 -0.628114 0
M  V30 8143 H 778.073 0.352712 -1.88224 0
M  V30 8144 H 776.378 2.82215 -2.71775 0
M  V30 8145 H 778.075 2.6085 -3.04562 0
M  V30 8146 H 774.665 1.53885 -4.00022 0
M  V30 8147 H 778.849 1.05032 -4.85059 0
M  V30 8148 H 774.105 0.392502 -6.10139 0
M  V30 8149 H 778.279 -0.0888479 -6.96343 0
M  V30 8150 H 775.906 -0.423657 -7.59019 0
M  V30 8151 N 777.481 1.45874 0.596531 0
M  V30 8152 C 778.428 1.55389 1.70655 0
M  V30 8153 C 779.398 0.399036 1.61236 0
M  V30 8154 O 780.583 0.61396 1.80652 0
M  V30 8155 C 777.723 1.53705 3.0898 0
M  V30 8156 C 776.836 2.79823 3.29125 0
M  V30 8157 C 775.971 2.69735 4.5762 0
M  V30 8158 C 775.01 3.90856 4.71061 0
M  V30 8159 N 774.147 3.79237 5.90867 0
M  V30 8160 H 778.987 2.50211 1.61859 0
M  V30 8161 H 776.524 1.24146 0.789069 0
M  V30 8162 H 778.482 1.50715 3.89026 0
M  V30 8163 H 777.112 0.624247 3.16706 0
M  V30 8164 H 776.164 2.92852 2.42779 0
M  V30 8165 H 777.476 3.69628 3.34927 0
M  V30 8166 H 776.63 2.64773 5.45875 0
M  V30 8167 H 775.369 1.77547 4.54234 0
M  V30 8168 H 774.374 3.96164 3.81227 0
M  V30 8169 H 775.599 4.84124 4.76236 0
M  V30 8170 H 773.545 2.89825 5.88504 0
M  V30 8171 H 773.462 4.62686 5.97877 0
M  V30 8172 H 774.73 3.78227 6.8159 0
M  V30 8173 N 778.959 -0.83999 1.33349 0
M  V30 8174 C 779.889 -1.965 1.26135 0
M  V30 8175 C 780.87 -1.69505 0.142152 0
M  V30 8176 O 782.055 -1.91346 0.331743 0
M  V30 8177 C 779.185 -3.32632 0.99866 0
M  V30 8178 C 778.139 -3.74021 2.08068 0
M  V30 8179 C 777.465 -5.07947 1.67014 0
M  V30 8180 C 778.765 -3.87925 3.49731 0
M  V30 8181 H 780.459 -2.02793 2.20262 0
M  V30 8182 H 778.005 -0.974297 1.06035 0
M  V30 8183 H 779.958 -4.10903 0.934696 0
M  V30 8184 H 778.682 -3.26593 0.0217759 0
M  V30 8185 H 777.341 -2.98012 2.13505 0
M  V30 8186 H 776.989 -4.98378 0.680316 0
M  V30 8187 H 776.689 -5.36611 2.39422 0
M  V30 8188 H 778.213 -5.88695 1.62082 0
M  V30 8189 H 779.627 -4.5651 3.46802 0
M  V30 8190 H 778.024 -4.28023 4.20614 0
M  V30 8191 H 779.094 -2.90407 3.88319 0
M  V30 8192 N 780.437 -1.16799 -1.0581 0
M  V30 8193 C 781.385 -0.875111 -2.1551 0
M  V30 8194 C 782.379 0.157781 -1.68664 0
M  V30 8195 O 783.585 0.011297 -1.79996 0
M  V30 8196 H 779.96 -0.26542 -0.703602 0
M  V30 8197 H 781.931 -1.8076 -2.37421 0
M  V30 8198 C 780.68 -0.39802 -3.45414 0
M  V30 8199 H 780.003 -1.18425 -3.81858 0
M  V30 8200 H 781.443 -0.231913 -4.23365 0
M  V30 8201 C 779.902 0.88327 -3.25115 0
M  V30 8202 O 780.432 1.95145 -3.51114 0
M  V30 8203 N 778.638 0.828961 -2.78526 0
M  V30 8204 H 778.185 -0.0405029 -2.57568 0
M  V30 8205 H 778.143 1.68673 -2.65324 0
M  V30 8206 N 781.915 1.24427 -0.967243 0
M  V30 8207 C 783.192 1.87831 -0.545776 0
M  V30 8208 C 783.572 1.87126 0.977099 0
M  V30 8209 O 782.92 1.34357 1.84826 0
M  V30 8210 C 783.13 3.29967 -1.13679 0
M  V30 8211 C 784.478 4.06654 -1.22139 0
M  V30 8212 O 785.502 3.39136 -1.08926 0
M  V30 8213 O 784.361 5.27455 -1.43017 0
M  V30 8214 H 781.455 0.806745 -0.181912 0
M  V30 8215 H 784.001 1.32403 -1.06148 0
M  V30 8216 H 782.773 3.24977 -2.17958 0
M  V30 8217 H 782.396 3.92969 -0.605093 0
M  V30 8218 N 783.393 0.737304 1.3929 0
M  V30 8219 C 784.621 0.296573 2.04763 0
M  V30 8220 C 785.036 -1.06941 1.55592 0
M  V30 8221 O 784.393 -1.67619 0.721822 0
M  V30 8222 C 784.444 0.291906 3.6032 0
M  V30 8223 O 784.165 1.60397 4.07682 0
M  V30 8224 C 785.666 -0.164708 4.42994 0
M  V30 8225 H 782.886 0.129251 0.658434 0
M  V30 8226 H 785.43 1.0016 1.78293 0
M  V30 8227 H 783.585 -0.364251 3.85684 0
M  V30 8228 H 783.999 1.51909 5.0202 0
M  V30 8229 H 785.473 -0.116814 5.51876 0
M  V30 8230 H 785.95 -1.21022 4.22197 0
M  V30 8231 H 786.556 0.461968 4.22784 0
M  V30 8232 N 784.871 -1.49948 0.485112 0
M  V30 8233 C 785.801 -2.31675 -0.291364 0
M  V30 8234 C 786.782 -1.39216 -0.977383 0
M  V30 8235 O 787.967 -1.68133 -0.971855 0
M  V30 8236 C 785.097 -3.19326 -1.36558 0
M  V30 8237 C 784.051 -4.2045 -0.800359 0
M  V30 8238 C 783.377 -4.96931 -1.97391 0
M  V30 8239 C 784.677 -5.21925 0.197867 0
M  V30 8240 H 786.371 -2.96839 0.390775 0
M  V30 8241 H 783.917 -1.42749 0.189375 0
M  V30 8242 H 785.87 -3.75304 -1.91638 0
M  V30 8243 H 784.594 -2.52074 -2.07668 0
M  V30 8244 H 783.253 -3.65594 -0.271428 0
M  V30 8245 H 782.901 -4.26141 -2.67232 0
M  V30 8246 H 782.601 -5.65344 -1.60187 0
M  V30 8247 H 784.125 -5.55749 -2.52935 0
M  V30 8248 H 785.539 -5.72691 -0.264239 0
M  V30 8249 H 783.936 -5.98138 0.484908 0
M  V30 8250 H 785.006 -4.71809 1.11912 0
M  V30 8251 N 786.349 -0.21828 -1.56081 0
M  V30 8252 C 787.626 0.463143 -1.90038 0
M  V30 8253 C 788.006 1.77982 -1.13515 0
M  V30 8254 O 787.354 2.27199 -0.24345 0
M  V30 8255 C 787.564 0.659292 -3.42716 0
M  V30 8256 C 788.912 0.968203 -4.13414 0
M  V30 8257 O 789.936 0.746195 -3.48296 0
M  V30 8258 O 788.795 1.38936 -5.28544 0
M  V30 8259 H 785.889 0.244435 -0.790051 0
M  V30 8260 H 788.435 -0.260221 -1.67693 0
M  V30 8261 H 787.207 -0.269584 -3.9037 0
M  V30 8262 H 786.83 1.43426 -3.7083 0
M  V30 8263 N 787.827 1.57504 0.0551401 0
M  V30 8264 C 789.057 1.92015 0.762472 0
M  V30 8265 C 789.465 0.814088 1.7079 0
M  V30 8266 O 788.808 -0.220273 1.82375 0
M  V30 8267 C 788.87 3.22132 1.59598 0
M  V30 8268 C 788.534 4.49617 0.818141 0
M  V30 8269 C 789.531 5.19738 0.129933 0
M  V30 8270 C 787.216 4.96201 0.780387 0
M  V30 8271 C 789.21 6.34704 -0.585616 0
M  V30 8272 C 786.897 6.11069 0.0610756 0
M  V30 8273 C 787.895 6.80174 -0.62071 0
M  V30 8274 O 787.583 7.92849 -1.3284 0
M  V30 8275 H 787.315 0.638866 0.220967 0
M  V30 8276 H 789.869 2.05385 0.0246362 0
M  V30 8277 H 788.099 3.05016 2.37701 0
M  V30 8278 H 789.788 3.42166 2.18351 0
M  V30 8279 H 790.554 4.84767 0.150299 0
M  V30 8280 H 786.433 4.42275 1.30054 0
M  V30 8281 H 789.977 6.88578 -1.11833 0
M  V30 8282 H 785.874 6.45488 0.0386945 0
M  V30 8283 H 786.642 8.09062 -1.23938 0
M  V30 8284 N 789.305 -0.326896 1.54172 0
M  V30 8285 C 790.215 -1.42525 1.86343 0
M  V30 8286 C 791.231 -1.56764 0.75505 0
M  V30 8287 O 792.407 -1.71924 1.04901 0
M  V30 8288 C 789.472 -2.77286 2.08119 0
M  V30 8289 C 788.533 -2.7225 3.31931 0
M  V30 8290 C 787.766 -4.00584 3.52659 0
M  V30 8291 O 787.989 -4.98686 2.76891 0
M  V30 8292 O 786.923 -4.04045 4.46129 0
M  V30 8293 H 790.749 -1.18249 2.79734 0
M  V30 8294 H 788.334 -0.520614 1.40036 0
M  V30 8295 H 790.216 -3.57065 2.23791 0
M  V30 8296 H 788.891 -3.01459 1.17917 0
M  V30 8297 H 787.798 -1.91033 3.21647 0
M  V30 8298 H 789.131 -2.53032 4.2218 0
M  V30 8299 N 790.784 -1.46188 -0.588786 0
M  V30 8300 C 792.024 -1.52738 -1.35833 0
M  V30 8301 C 792.388 -0.172403 -1.91224 0
M  V30 8302 O 793.589 -0.112633 -2.68564 0
M  V30 8303 C 791.86 -2.59085 -2.4619 0
M  V30 8304 S 793.419 -2.84997 -3.3365 0
M  V30 8305 H 790.237 -0.539713 -0.462851 0
M  V30 8306 H 792.839 -1.83386 -0.677489 0
M  V30 8307 H 791.543 -3.56177 -2.03878 0
M  V30 8308 H 791.074 -2.3015 -3.19053 0
M  V30 8309 H 793.089 -2.19804 -4.4486 0
M  V30 8310 N 792.262 0.832906 -1.33792 0
M  V30 8311 C 793.212 1.93178 -1.21105 0
M  V30 8312 C 794.196 1.60506 -0.112491 0
M  V30 8313 O 795.388 1.73681 -0.341179 0
M  V30 8314 C 792.517 3.29647 -0.958526 0
M  V30 8315 C 791.603 3.68469 -2.0998 0
M  V30 8316 N 791.994 3.78936 -3.35024 0
M  V30 8317 C 790.292 3.98249 -2.00782 0
M  V30 8318 C 790.993 4.12731 -4.09912 0
M  V30 8319 N 789.969 4.25419 -3.38407 0
M  V30 8320 H 793.771 1.99434 -2.15878 0
M  V30 8321 H 791.285 1.02598 -1.25886 0
M  V30 8322 H 793.282 4.08173 -0.848552 0
M  V30 8323 H 791.942 3.24694 -0.019387 0
M  V30 8324 H 792.953 3.62688 -3.69699 0
M  V30 8325 H 789.63 4.01474 -1.14564 0
M  V30 8326 H 791.02 4.28117 -5.17847 0
M  V30 8327 N 793.74 1.17359 1.05189 0
M  V30 8328 C 795.017 0.871914 1.75091 0
M  V30 8329 C 795.397 -0.627821 2.01548 0
M  V30 8330 O 794.745 -1.5791 1.65156 0
M  V30 8331 C 794.955 1.70687 3.04413 0
M  V30 8332 C 796.303 1.92684 3.78362 0
M  V30 8333 O 797.327 1.67645 3.14282 0
M  V30 8334 O 796.186 2.34765 4.93505 0
M  V30 8335 H 793.28 0.322831 0.761386 0
M  V30 8336 H 795.826 1.28054 1.11357 0
M  V30 8337 H 794.598 2.72405 2.80911 0
M  V30 8338 H 794.221 1.29602 3.75884 0
M  V30 8339 N 795.218 -1.23913 0.973828 0
M  V30 8340 C 796.466 -1.91771 0.637817 0
M  V30 8341 C 796.787 -1.76434 -0.830435 0
M  V30 8342 O 796.057 -1.13965 -1.59339 0
M  V30 8343 H 794.637 -0.709761 0.232912 0
M  V30 8344 H 797.299 -1.50677 1.23622 0
M  V30 8345 H 796.395 -2.99327 0.883731 0
M  V30 8346 N 796.696 -0.74468 -1.38897 0
M  V30 8347 C 797.926 -0.306982 -2.04307 0
M  V30 8348 C 798.334 1.06652 -1.56275 0
M  V30 8349 O 797.677 1.68699 -0.72708 0
M  V30 8350 C 797.739 -0.241186 -3.5869 0
M  V30 8351 C 797.403 -1.55476 -4.2974 0
M  V30 8352 C 798.4 -2.50229 -4.55721 0
M  V30 8353 C 796.085 -1.82173 -4.68101 0
M  V30 8354 C 798.079 -3.69905 -5.19085 0
M  V30 8355 C 795.766 -3.02125 -5.31191 0
M  V30 8356 C 796.764 -3.95812 -5.56616 0
M  V30 8357 O 796.452 -5.13656 -6.18395 0
M  V30 8358 H 796.184 -0.130416 -0.663301 0
M  V30 8359 H 798.738 -1.01192 -1.78744 0
M  V30 8360 H 796.968 0.519925 -3.83189 0
M  V30 8361 H 798.657 0.165806 -4.05561 0
M  V30 8362 H 799.423 -2.30877 -4.26522 0
M  V30 8363 H 795.302 -1.10091 -4.47662 0
M  V30 8364 H 798.846 -4.43047 -5.38846 0
M  V30 8365 H 794.743 -3.21374 -5.59811 0
M  V30 8366 H 795.511 -5.14119 -6.36886 0
M  V30 8367 N 798.174 1.49689 -0.493057 0
M  V30 8368 C 799.084 2.32746 0.294358 0
M  V30 8369 C 800.1 1.44117 0.975003 0
M  V30 8370 O 801.276 1.77149 0.958138 0
M  V30 8371 C 798.341 3.19358 1.34949 0
M  V30 8372 C 797.402 4.2383 0.683122 0
M  V30 8373 C 796.635 5.06303 1.68798 0
M  V30 8374 O 796.858 4.90172 2.91698 0
M  V30 8375 O 795.792 5.88826 1.24768 0
M  V30 8376 H 799.618 3.01247 -0.385254 0
M  V30 8377 H 797.203 1.47216 -0.254519 0
M  V30 8378 H 799.085 3.73037 1.96014 0
M  V30 8379 H 797.76 2.53561 2.01217 0
M  V30 8380 H 796.667 3.74086 0.0329351 0
M  V30 8381 H 798 4.9216 0.0630192 0
M  V30 8382 N 799.652 0.226554 1.55963 0
M  V30 8383 C 800.877 -0.411527 2.03276 0
M  V30 8384 C 801.302 -1.52206 1.10521 0
M  V30 8385 O 800.66 -1.81054 0.0943217 0
M  V30 8386 C 800.708 -0.915694 3.4878 0
M  V30 8387 O 799.812 -2.02672 3.59163 0
M  V30 8388 H 799.153 -0.0924907 0.657527 0
M  V30 8389 H 801.683 0.346656 2.01642 0
M  V30 8390 H 801.693 -1.22421 3.892 0
M  V30 8391 H 800.368 -0.102915 4.15773 0
M  V30 8392 H 798.945 -1.72445 3.30632 0
M  V30 8393 N 801.13 -1.57531 -0.0467866 0
M  V30 8394 C 802.078 -2.06455 -1.0714 0
M  V30 8395 C 803.072 -0.974744 -1.38546 0
M  V30 8396 O 804.278 -1.15974 -1.37659 0
M  V30 8397 H 800.653 -0.658607 -0.362962 0
M  V30 8398 H 802.624 -2.91613 -0.632813 0
M  V30 8399 C 801.373 -2.54481 -2.36927 0
M  V30 8400 H 800.696 -3.37946 -2.13617 0
M  V30 8401 H 802.136 -2.92442 -3.07007 0
M  V30 8402 C 800.595 -1.43836 -3.04652 0
M  V30 8403 O 801.125 -0.794531 -3.93764 0
M  V30 8404 N 799.331 -1.17727 -2.65686 0
M  V30 8405 H 798.878 -1.70265 -1.93307 0
M  V30 8406 H 798.836 -0.439051 -3.11319 0
M  V30 8407 N 802.608 0.318715 -1.54344 0
M  V30 8408 C 803.836 1.0755 -1.7675 0
M  V30 8409 C 804.251 1.81543 -0.518422 0
M  V30 8410 O 803.608 1.75198 0.511078 0
M  V30 8411 C 803.659 2.06983 -2.96378 0
M  V30 8412 O 803.38 1.35995 -4.16458 0
M  V30 8413 C 804.881 2.94841 -3.31034 0
M  V30 8414 H 802.101 0.319711 -0.589937 0
M  V30 8415 H 804.645 0.363369 -2.01246 0
M  V30 8416 H 802.8 2.73724 -2.74142 0
M  V30 8417 H 803.214 2.02623 -4.83781 0
M  V30 8418 H 804.688 3.60496 -4.18027 0
M  V30 8419 H 805.165 3.62199 -2.48412 0
M  V30 8420 H 805.771 2.33656 -3.55366 0
M  V30 8421 N 804.086 1.46499 0.581025 0
M  V30 8422 C 805.334 1.51596 1.33653 0
M  V30 8423 C 805.655 0.169859 1.94259 0
M  V30 8424 O 804.925 -0.803776 1.78651 0
M  V30 8425 H 803.505 0.558346 0.496244 0
M  V30 8426 H 806.167 1.8264 0.680338 0
M  V30 8427 H 805.263 2.26956 2.14237 0
M  V30 8428 N 805.565 -0.825799 1.34232 0
M  V30 8429 C 806.79 -1.61883 1.29648 0
M  V30 8430 C 807.215 -1.87669 -0.127295 0
M  V30 8431 O 806.573 -1.45016 -1.08813 0
M  V30 8432 C 806.621 -2.93846 2.09014 0
M  V30 8433 O 805.725 -3.85778 1.4577 0
M  V30 8434 H 805.066 -0.492454 0.445405 0
M  V30 8435 H 807.596 -1.02641 1.76992 0
M  V30 8436 H 807.606 -3.43435 2.20264 0
M  V30 8437 H 806.281 -2.74401 3.12533 0
M  V30 8438 H 804.858 -3.4429 1.43245 0
M  V30 8439 N 807.043 -1.17915 -1.04565 0
M  V30 8440 C 808.271 -0.99616 -1.8134 0
M  V30 8441 C 808.686 0.455509 -1.83223 0
M  V30 8442 O 808.043 1.31636 -1.26405 0
M  V30 8443 C 808.094 -1.53758 -3.27171 0
M  V30 8444 O 807.815 -2.93241 -3.25486 0
M  V30 8445 C 809.316 -1.40007 -4.2061 0
M  V30 8446 H 806.536 -0.352055 -0.571225 0
M  V30 8447 H 809.08 -1.56349 -1.31815 0
M  V30 8448 H 807.235 -1.01213 -3.73945 0
M  V30 8449 H 807.649 -3.18392 -4.16805 0
M  V30 8450 H 809.123 -1.82695 -5.2089 0
M  V30 8451 H 809.6 -0.348054 -4.37819 0
M  V30 8452 H 810.206 -1.916 -3.79697 0
M  V30 8453 N 808.521 1.23394 -0.980386 0
M  V30 8454 C 809.749 1.95844 -0.667286 0
M  V30 8455 C 810.164 1.72574 0.765735 0
M  V30 8456 O 809.521 1.01715 1.51526 0
M  V30 8457 C 809.572 3.48844 -0.948151 0
M  V30 8458 O 809.293 3.71325 -2.32485 0
M  V30 8459 C 810.794 4.38494 -0.651002 0
M  V30 8460 H 808.014 0.623535 -0.247882 0
M  V30 8461 H 810.558 1.56885 -1.31176 0
M  V30 8462 H 808.713 3.85819 -0.349681 0
M  V30 8463 H 809.127 4.65619 -2.41452 0
M  V30 8464 H 810.601 5.44648 -0.897887 0
M  V30 8465 H 811.078 4.37236 0.414922 0
M  V30 8466 H 811.684 4.07127 -1.22995 0
M  V30 8467 N 809.999 0.752036 1.385 0
M  V30 8468 C 811.247 0.306895 1.99756 0
M  V30 8469 C 811.568 -1.11478 1.59992 0
M  V30 8470 O 810.838 -1.76206 0.856045 0
M  V30 8471 H 809.418 0.11048 0.738785 0
M  V30 8472 H 812.08 0.965785 1.69289 0
M  V30 8473 H 811.176 0.368797 3.09913 0
M  V30 8474 N 811.477 -1.49425 0.500989 0
M  V30 8475 C 812.702 -2.07356 -0.0425154 0
M  V30 8476 C 813.127 -1.35887 -1.30063 0
M  V30 8477 O 812.485 -0.41561 -1.76472 0
M  V30 8478 C 812.533 -3.59518 -0.279188 0
M  V30 8479 O 811.637 -3.89542 -1.3539 0
M  V30 8480 H 810.978 -0.663482 0.0262207 0
M  V30 8481 H 813.508 -1.92231 0.700607 0
M  V30 8482 H 813.518 -4.04791 -0.5107 0
M  V30 8483 H 812.193 -4.10946 0.640009 0
M  V30 8484 H 810.77 -3.56079 -1.10734 0
M  V30 8485 N 812.955 -0.234822 -1.55841 0
M  V30 8486 C 814.204 0.393685 -1.97821 0
M  V30 8487 C 814.517 1.59947 -1.1259 0
M  V30 8488 O 815.723 2.29835 -1.44528 0
M  V30 8489 C 814.179 0.751811 -3.5196 0
M  V30 8490 C 813.787 -0.431898 -4.45913 0
M  V30 8491 C 815.531 1.34518 -4.02623 0
M  V30 8492 C 813.438 -0.0505976 -5.91378 0
M  V30 8493 H 812.368 0.150864 -0.738753 0
M  V30 8494 H 815.019 -0.333132 -1.80451 0
M  V30 8495 H 813.401 1.53642 -3.6498 0
M  V30 8496 H 814.575 -1.20935 -4.44647 0
M  V30 8497 H 812.89 -0.939385 -4.05666 0
M  V30 8498 H 815.487 1.64359 -5.08813 0
M  V30 8499 H 815.83 2.26554 -3.49255 0
M  V30 8500 H 816.363 0.623729 -3.9288 0
M  V30 8501 H 813.102 -0.937779 -6.48757 0
M  V30 8502 H 812.622 0.690898 -5.95808 0
M  V30 8503 H 814.301 0.37146 -6.45933 0
M  V30 8504 N 814.433 1.57553 0.0384317 0
M  V30 8505 C 815.679 1.89121 0.732199 0
M  V30 8506 C 816.012 0.831404 1.75503 0
M  V30 8507 O 815.287 -0.154642 1.93884 0
M  V30 8508 C 815.57 3.31338 1.41021 0
M  V30 8509 C 815.423 4.48004 0.401532 0
M  V30 8510 C 816.742 3.72318 2.34665 0
M  V30 8511 H 813.861 0.687819 0.264715 0
M  V30 8512 H 816.503 1.89999 -0.00496279 0
M  V30 8513 H 814.653 3.3072 2.03854 0
M  V30 8514 H 816.325 4.60755 -0.224159 0
M  V30 8515 H 814.568 4.32895 -0.280092 0
M  V30 8516 H 815.239 5.44377 0.91423 0
M  V30 8517 H 817.715 3.74243 1.81883 0
M  V30 8518 H 816.591 4.72652 2.7909 0
M  V30 8519 H 816.852 3.04062 3.20934 0
M  V30 8520 N 815.911 -0.310526 1.54511 0
M  V30 8521 C 817.151 -1.05498 1.7507 0
M  V30 8522 C 817.515 -1.84814 0.520381 0
M  V30 8523 O 818.716 -2.61937 0.603547 0
M  V30 8524 C 816.987 -1.94466 2.99863 0
M  V30 8525 S 818.546 -2.75686 3.41383 0
M  V30 8526 H 815.364 -0.355951 0.615483 0
M  V30 8527 H 817.966 -0.329464 1.92704 0
M  V30 8528 H 816.67 -1.35055 3.87541 0
M  V30 8529 H 816.201 -2.71401 2.84789 0
M  V30 8530 H 818.216 -3.96971 2.97706 0
M  V30 8531 N 817.389 -1.46805 -0.573248 0
M  V30 8532 C 818.637 -1.52302 -1.32847 0
M  V30 8533 C 818.958 -0.180159 -1.94166 0
M  V30 8534 O 818.228 0.794291 -1.79075 0
M  V30 8535 H 816.808 -0.56097 -0.493276 0
M  V30 8536 H 819.47 -1.82998 -0.670642 0
M  V30 8537 H 818.566 -2.28089 -2.13031 0
M  V30 8538 N 818.867 0.818669 -1.34668 0
M  V30 8539 C 820.097 1.60441 -1.30162 0
M  V30 8540 C 820.505 1.88783 0.125579 0
M  V30 8541 O 819.848 1.48281 1.08437 0
M  V30 8542 C 819.91 2.96794 -2.02864 0
M  V30 8543 C 819.574 2.91327 -3.52105 0
M  V30 8544 C 820.571 2.65611 -4.4693 0
M  V30 8545 C 818.256 3.10825 -3.9458 0
M  V30 8546 C 820.25 2.59452 -5.82206 0
M  V30 8547 C 817.937 3.0429 -5.29954 0
M  V30 8548 C 818.935 2.78637 -6.23579 0
M  V30 8549 O 818.623 2.72042 -7.56471 0
M  V30 8550 H 818.355 0.505278 -0.449077 0
M  V30 8551 H 820.909 1.02632 -1.77921 0
M  V30 8552 H 819.139 3.56538 -1.49725 0
M  V30 8553 H 820.828 3.57837 -1.91592 0
M  V30 8554 H 821.594 2.50278 -4.15434 0
M  V30 8555 H 817.473 3.29807 -3.221 0
M  V30 8556 H 821.017 2.39349 -6.55254 0
M  V30 8557 H 816.914 3.19177 -5.61067 0
M  V30 8558 H 817.682 2.87738 -7.66257 0
M  V30 8559 N 820.346 1.18468 1.03938 0
M  V30 8560 C 821.294 0.909286 2.14091 0
M  V30 8561 C 822.288 -0.130928 1.68893 0
M  V30 8562 O 823.494 0.0173403 1.79992 0
M  V30 8563 H 819.869 0.27658 0.699291 0
M  V30 8564 H 821.84 1.84514 2.34515 0
M  V30 8565 C 820.589 0.452922 3.44737 0
M  V30 8566 H 819.912 1.24485 3.79926 0
M  V30 8567 H 821.352 0.299238 4.22943 0
M  V30 8568 C 819.811 -0.831435 3.26479 0
M  V30 8569 O 820.341 -1.89535 3.54174 0
M  V30 8570 N 818.547 -0.784545 2.79809 0
M  V30 8571 H 818.094 0.0814746 2.57471 0
M  V30 8572 H 818.052 -1.64431 2.67973 0
M  V30 8573 N 821.824 -1.22873 0.986916 0
M  V30 8574 C 823.072 -1.91084 0.658121 0
M  V30 8575 C 823.393 -1.77304 -0.811675 0
M  V30 8576 O 822.663 -1.15649 -1.58121 0
M  V30 8577 H 821.243 -0.707251 0.240427 0
M  V30 8578 H 823.905 -1.49357 1.25213 0
M  V30 8579 H 823.001 -2.98373 0.915428 0
M  V30 8580 N 823.302 -0.75937 -1.38099 0
M  V30 8581 C 824.548 -0.327559 -2.00745 0
M  V30 8582 C 824.903 1.08042 -1.592 0
M  V30 8583 O 824.196 1.7306 -0.822236 0
M  V30 8584 C 824.39 -0.394999 -3.55211 0
M  V30 8585 C 824.219 -1.80798 -4.11755 0
M  V30 8586 C 822.989 -2.42585 -4.43262 0
M  V30 8587 C 825.187 -2.76556 -4.33614 0
M  V30 8588 N 823.169 -3.75784 -4.85448 0
M  V30 8589 C 824.54 -3.94532 -4.78273 0
M  V30 8590 C 826.595 -2.74004 -4.15724 0
M  V30 8591 C 825.298 -5.10322 -5.06916 0
M  V30 8592 C 827.324 -3.88957 -4.45496 0
M  V30 8593 C 826.686 -5.05672 -4.90383 0
M  V30 8594 H 822.785 -0.166644 -0.764038 0
M  V30 8595 H 825.369 -0.99056 -1.67619 0
M  V30 8596 H 823.54 0.237761 -3.87672 0
M  V30 8597 H 825.272 0.0576828 -4.04659 0
M  V30 8598 H 822.027 -1.94302 -4.31907 0
M  V30 8599 H 822.451 -4.44234 -5.10867 0
M  V30 8600 H 827.093 -1.84948 -3.80203 0
M  V30 8601 H 824.811 -5.99988 -5.41332 0
M  V30 8602 H 828.397 -3.88308 -4.33253 0
M  V30 8603 H 827.277 -5.93146 -5.1298 0
M  V30 8604 N 824.78 1.49157 -0.508906 0
M  V30 8605 C 826.005 2.07376 0.0315182 0
M  V30 8606 C 826.43 1.36575 1.2934 0
M  V30 8607 O 825.788 0.424963 1.76249 0
M  V30 8608 C 825.836 3.59661 0.260118 0
M  V30 8609 O 824.94 3.90255 1.33322 0
M  V30 8610 H 824.281 0.663334 -0.029739 0
M  V30 8611 H 826.811 1.91857 -0.710791 0
M  V30 8612 H 826.821 4.05056 0.489225 0
M  V30 8613 H 825.496 4.10601 -0.661794 0
M  V30 8614 H 824.073 3.56661 1.08844 0
M  V30 8615 N 826.258 0.243083 1.55714 0
M  V30 8616 C 827.535 -0.432851 1.90751 0
M  V30 8617 C 827.915 -1.76153 1.16333 0
M  V30 8618 O 827.263 -2.26783 0.279565 0
M  V30 8619 C 827.473 -0.604685 3.43722 0
M  V30 8620 C 828.821 -0.90231 4.14902 0
M  V30 8621 O 829.845 -0.690689 3.49439 0
M  V30 8622 O 828.704 -1.3051 5.30688 0
M  V30 8623 H 825.798 -0.231835 0.79384 0
M  V30 8624 H 828.344 0.286867 1.67258 0
M  V30 8625 H 827.116 0.331655 3.89892 0
M  V30 8626 H 826.739 -1.37509 3.73065 0
M  V30 8627 N 827.736 -1.57571 -0.0300757 0
M  V30 8628 C 828.666 -2.0953 -1.03051 0
M  V30 8629 C 829.647 -0.99761 -1.37774 0
M  V30 8630 O 830.832 -1.27279 -1.46676 0
M  V30 8631 C 827.962 -2.57385 -2.33174 0
M  V30 8632 C 826.916 -3.71409 -2.12696 0
M  V30 8633 C 826.242 -4.05467 -3.4857 0
M  V30 8634 C 827.542 -4.99877 -1.51396 0
M  V30 8635 H 829.236 -2.93367 -0.597999 0
M  V30 8636 H 826.782 -1.41127 -0.286203 0
M  V30 8637 H 828.735 -2.92355 -3.03491 0
M  V30 8638 H 827.459 -1.70629 -2.78484 0
M  V30 8639 H 826.118 -3.36786 -1.44813 0
M  V30 8640 H 825.766 -3.15779 -3.91526 0
M  V30 8641 H 825.466 -4.82269 -3.35694 0
M  V30 8642 H 826.99 -4.4297 -4.2025 0
M  V30 8643 H 828.404 -5.3281 -2.11629 0
M  V30 8644 H 826.801 -5.81283 -1.49098 0
M  V30 8645 H 827.871 -4.82522 -0.479676 0
M  V30 8646 N 829.214 0.302327 -1.54673 0
M  V30 8647 C 830.625 0.875409 -1.64904 0
M  V30 8648 C 830.976 1.88132 -0.55684 0
M  V30 8649 O 830.101 2.14215 0.306754 0
M  V30 8650 C 830.696 1.59457 -2.9893 0
M  V30 8651 C 829.255 2.11607 -3.11287 0
M  V30 8652 C 828.402 0.948324 -2.6058 0
M  V30 8653 H 831.353 0.079362 -1.58501 0
M  V30 8654 H 831.374 2.46005 -2.90279 0
M  V30 8655 H 830.886 0.8622 -3.78402 0
M  V30 8656 H 828.987 2.87895 -2.36532 0
M  V30 8657 H 829.1 2.35151 -4.17422 0
M  V30 8658 H 827.464 1.33352 -2.17001 0
M  V30 8659 H 828.247 0.229936 -3.42529 0
M  V30 8660 N 830.692 1.47107 0.565454 0
M  V30 8661 C 831.941 1.5257 1.31929 0
M  V30 8662 C 832.254 0.189092 1.94684 0
M  V30 8663 O 833.46 0.121657 2.71227 0
M  V30 8664 C 831.916 2.68914 2.39193 0
M  V30 8665 C 831.524 4.09069 1.82665 0
M  V30 8666 C 833.268 2.83663 3.1581 0
M  V30 8667 C 831.175 5.16726 2.87661 0
M  V30 8668 H 830.105 0.567869 0.496025 0
M  V30 8669 H 832.756 1.73361 0.60151 0
M  V30 8670 H 831.138 2.41486 3.13848 0
M  V30 8671 H 832.312 4.46364 1.14438 0
M  V30 8672 H 830.627 3.99135 1.1866 0
M  V30 8673 H 833.224 3.61261 3.94201 0
M  V30 8674 H 833.567 1.91804 3.69482 0
M  V30 8675 H 834.1 3.10821 2.48265 0
M  V30 8676 H 830.839 6.10433 2.38854 0
M  V30 8677 H 830.359 4.83957 3.54324 0
M  V30 8678 H 832.038 5.43319 3.51303 0
M  V30 8679 N 832.17 -0.811516 1.35101 0
M  V30 8680 C 833.41 -1.58177 1.29458 0
M  V30 8681 C 833.774 -1.91555 -0.130688 0
M  V30 8682 O 834.975 -2.6699 -0.311428 0
M  V30 8683 C 833.246 -2.83896 2.17112 0
M  V30 8684 S 834.805 -3.74344 2.28936 0
M  V30 8685 H 831.623 -0.542021 0.460146 0
M  V30 8686 H 834.225 -0.957653 1.70438 0
M  V30 8687 H 832.929 -2.57391 3.19653 0
M  V30 8688 H 832.46 -3.51297 1.7707 0
M  V30 8689 H 834.475 -4.73909 1.47054 0
M  V30 8690 N 833.648 -1.19017 -1.03309 0
M  V30 8691 C 834.878 -1.01387 -1.80012 0
M  V30 8692 C 835.286 0.440655 -1.83997 0
M  V30 8693 O 834.629 1.31786 -1.27977 0
M  V30 8694 C 834.691 -1.50171 -3.26633 0
M  V30 8695 C 834.355 -2.98213 -3.46292 0
M  V30 8696 C 835.352 -3.96009 -3.36857 0
M  V30 8697 C 833.037 -3.36812 -3.72643 0
M  V30 8698 C 835.031 -5.30399 -3.5349 0
M  V30 8699 C 832.718 -4.71363 -3.88922 0
M  V30 8700 C 833.716 -5.67966 -3.79347 0
M  V30 8701 O 833.404 -7.00079 -3.95151 0
M  V30 8702 H 833.136 -0.357899 -0.573484 0
M  V30 8703 H 835.69 -1.58171 -1.31039 0
M  V30 8704 H 833.92 -0.877586 -3.7661 0
M  V30 8705 H 835.609 -1.28814 -3.84918 0
M  V30 8706 H 836.375 -3.67534 -3.16455 0
M  V30 8707 H 832.254 -2.62175 -3.7919 0
M  V30 8708 H 835.798 -6.05786 -3.45933 0
M  V30 8709 H 831.695 -4.99536 -4.0882 0
M  V30 8710 H 832.463 -7.07092 -4.12266 0
M  V30 8711 N 835.127 1.22348 -0.993418 0
M  V30 8712 C 836.037 2.27987 -0.553076 0
M  V30 8713 C 837.053 1.69378 0.398386 0
M  V30 8714 O 838.229 1.99648 0.26509 0
M  V30 8715 C 835.294 3.46475 0.124809 0
M  V30 8716 C 834.355 4.20399 -0.869682 0
M  V30 8717 C 833.588 5.33229 -0.224052 0
M  V30 8718 O 833.811 5.61885 0.981915 0
M  V30 8719 O 832.745 5.94685 -0.929174 0
M  V30 8720 H 836.571 2.67822 -1.43195 0
M  V30 8721 H 834.156 1.28525 -0.761694 0
M  V30 8722 H 836.038 4.18369 0.504496 0
M  V30 8723 H 834.713 3.08565 0.978243 0
M  V30 8724 H 833.62 3.50774 -1.30031 0
M  V30 8725 H 834.953 4.62191 -1.69233 0
M  V30 8726 N 836.605 0.766683 1.37694 0
M  V30 8727 C 838.021 0.445739 1.53249 0
M  V30 8728 C 838.221 -1.03935 1.72626 0
M  V30 8729 O 837.277 -1.82525 1.74473 0
M  V30 8730 C 838.59 1.2564 2.73194 0
M  V30 8731 C 840.138 1.24779 2.87053 0
M  V30 8732 C 840.613 2.04169 4.09974 0
M  V30 8733 N 842.104 2.01497 4.17077 0
M  V30 8734 C 842.839 2.5971 5.11212 0
M  V30 8735 N 842.335 3.26691 6.10938 0
M  V30 8736 N 844.128 2.49568 5.03659 0
M  V30 8737 H 836.279 1.72899 1.23368 0
M  V30 8738 H 838.542 0.733701 0.600322 0
M  V30 8739 H 838.248 2.30859 2.65324 0
M  V30 8740 H 838.122 0.882133 3.6674 0
M  V30 8741 H 840.509 0.203603 2.94397 0
M  V30 8742 H 840.59 1.66166 1.9448 0
M  V30 8743 H 840.234 3.08606 4.03392 0
M  V30 8744 H 840.164 1.60167 5.01651 0
M  V30 8745 H 842.655 1.52728 3.45662 0
M  V30 8746 H 842.968 3.68497 6.79286 0
M  V30 8747 H 841.313 3.30789 6.11231 0
M  V30 8748 H 844.504 1.96859 4.24693 0
M  V30 8749 H 844.677 2.95231 5.76839 0
M  V30 8750 N 838.083 -1.48885 0.516809 0
M  V30 8751 C 838.993 -2.33185 -0.257293 0
M  V30 8752 C 840.009 -1.4565 -0.951952 0
M  V30 8753 O 841.185 -1.78651 -0.929834 0
M  V30 8754 C 838.25 -3.21465 -1.29851 0
M  V30 8755 C 837.311 -4.24863 -0.615608 0
M  V30 8756 C 836.544 -5.08925 -1.60722 0
M  V30 8757 O 836.767 -4.9475 -2.83863 0
M  V30 8758 O 835.701 -5.90737 -1.15384 0
M  V30 8759 H 839.527 -3.00596 0.433131 0
M  V30 8760 H 837.112 -1.46792 0.277908 0
M  V30 8761 H 838.994 -3.76108 -1.90055 0
M  V30 8762 H 837.669 -2.5673 -1.97158 0
M  V30 8763 H 836.576 -3.74091 0.0265829 0
M  V30 8764 H 837.909 -4.92198 0.0152871 0
M  V30 8765 N 839.561 -0.251338 -1.55583 0
M  V30 8766 C 840.801 0.373651 -2.00956 0
M  V30 8767 C 841.165 1.54806 -1.13574 0
M  V30 8768 O 842.366 2.24108 -1.48422 0
M  V30 8769 C 840.637 0.768919 -3.49031 0
M  V30 8770 S 842.196 1.38381 -4.16409 0
M  V30 8771 H 839.014 0.117371 -0.701245 0
M  V30 8772 H 841.616 -0.367611 -1.92013 0
M  V30 8773 H 840.32 -0.0950492 -4.1029 0
M  V30 8774 H 839.851 1.54225 -3.61909 0
M  V30 8775 H 841.866 2.6728 -4.18062 0
M  V30 8776 N 841.039 1.57585 0.0217189 0
M  V30 8777 C 841.949 2.10444 1.03684 0
M  V30 8778 C 842.965 1.04472 1.39146 0
M  V30 8779 O 844.141 1.36249 1.48317 0
M  V30 8780 C 841.206 2.5794 2.31664 0
M  V30 8781 C 840.267 3.78425 2.02714 0
M  V30 8782 C 839.5 4.23646 3.24592 0
M  V30 8783 O 839.723 3.6834 4.35525 0
M  V30 8784 O 838.657 5.16013 3.09862 0
M  V30 8785 H 842.483 2.97354 0.617584 0
M  V30 8786 H 840.068 1.47473 0.239174 0
M  V30 8787 H 841.95 2.88785 3.06889 0
M  V30 8788 H 840.625 1.74138 2.7287 0
M  V30 8789 H 839.532 3.52587 1.25033 0
M  V30 8790 H 840.865 4.63234 1.66359 0
M  V30 8791 N 842.517 -0.29412 1.54831 0
M  V30 8792 C 843.447 -1.36757 1.89261 0
M  V30 8793 C 844.428 -1.52564 0.752214 0
M  V30 8794 O 845.613 -1.65958 1.00855 0
M  V30 8795 C 842.743 -2.73066 2.14597 0
M  V30 8796 C 841.697 -2.72017 3.3044 0
M  V30 8797 C 841.023 -4.11679 3.4121 0
M  V30 8798 C 842.323 -2.33149 4.67375 0
M  V30 8799 H 844.017 -1.08191 2.79169 0
M  V30 8800 H 841.563 -0.519014 1.34321 0
M  V30 8801 H 843.516 -3.48255 2.37269 0
M  V30 8802 H 842.24 -3.03172 1.21467 0
M  V30 8803 H 840.899 -1.99285 3.07703 0
M  V30 8804 H 840.547 -4.38973 2.45584 0
M  V30 8805 H 840.247 -4.11877 4.19084 0
M  V30 8806 H 841.771 -4.88637 3.6615 0
M  V30 8807 H 843.185 -2.98054 4.89731 0
M  V30 8808 H 841.582 -2.44546 5.48012 0
M  V30 8809 H 842.652 -1.28275 4.67626 0
M  V30 8810 N 843.995 -1.47404 -0.557645 0
M  V30 8811 C 845.406 -1.47872 -1.13977 0
M  V30 8812 C 845.757 -0.233176 -1.94809 0
M  V30 8813 O 844.882 0.661945 -2.06027 0
M  V30 8814 C 845.477 -2.67926 -2.07368 0
M  V30 8815 C 844.036 -2.71354 -2.60852 0
M  V30 8816 C 843.183 -2.40967 -1.37223 0
M  V30 8817 H 846.134 -1.54921 -0.344268 0
M  V30 8818 H 846.155 -2.44871 -2.91236 0
M  V30 8819 H 845.667 -3.58562 -1.48509 0
M  V30 8820 H 843.768 -1.84855 -3.23511 0
M  V30 8821 H 843.881 -3.72032 -3.01876 0
M  V30 8822 H 842.245 -1.91541 -1.67882 0
M  V30 8823 H 843.028 -3.33811 -0.801583 0
M  V30 8824 N 845.473 0.80434 -1.35529 0
M  V30 8825 C 846.42 1.91629 -1.28635 0
M  V30 8826 C 847.39 1.65348 -0.157862 0
M  V30 8827 O 848.575 1.87711 -0.341934 0
M  V30 8828 C 845.715 3.28207 -1.0665 0
M  V30 8829 C 844.828 3.66659 -2.28441 0
M  V30 8830 C 843.963 4.92279 -1.99588 0
M  V30 8831 C 843.002 5.23365 -3.1742 0
M  V30 8832 N 842.139 6.40165 -2.88328 0
M  V30 8833 H 846.979 1.96858 -2.23721 0
M  V30 8834 H 844.516 0.962871 -1.11208 0
M  V30 8835 H 846.474 4.06945 -0.919343 0
M  V30 8836 H 845.104 3.22441 -0.152253 0
M  V30 8837 H 844.156 2.83164 -2.54013 0
M  V30 8838 H 845.468 3.8559 -3.1642 0
M  V30 8839 H 844.622 5.78847 -1.81715 0
M  V30 8840 H 843.361 4.75387 -1.08896 0
M  V30 8841 H 842.366 4.35285 -3.35867 0
M  V30 8842 H 843.591 5.42185 -4.08916 0
M  V30 8843 H 841.537 6.24694 -2.00233 0
M  V30 8844 H 841.454 6.59357 -3.69843 0
M  V30 8845 H 842.722 7.29755 -2.74002 0
M  V30 8846 N 846.951 1.19563 1.02676 0
M  V30 8847 C 848.2 0.993864 1.75514 0
M  V30 8848 C 848.513 -0.475882 1.89723 0
M  V30 8849 O 849.719 -0.796525 2.59553 0
M  V30 8850 C 848.175 1.72937 3.15628 0
M  V30 8851 C 847.783 3.23937 3.09466 0
M  V30 8852 C 849.527 1.61092 3.92746 0
M  V30 8853 C 847.434 3.90067 4.44524 0
M  V30 8854 H 846.364 0.368244 0.657961 0
M  V30 8855 H 849.015 1.43081 1.14891 0
M  V30 8856 H 847.397 1.22025 3.76731 0
M  V30 8857 H 848.571 3.81983 2.57731 0
M  V30 8858 H 846.886 3.3608 2.45843 0
M  V30 8859 H 849.483 2.07848 4.92649 0
M  V30 8860 H 849.826 0.565415 4.12442 0
M  V30 8861 H 850.359 2.09361 3.3825 0
M  V30 8862 H 847.098 4.94725 4.30032 0
M  V30 8863 H 846.618 3.36809 4.96306 0
M  V30 8864 H 848.297 3.93736 5.13401 0
M  V30 8865 N 848.429 -1.21819 0.999893 0
M  V30 8866 C 849.706 -1.86318 0.595384 0
M  V30 8867 C 850.086 -1.8965 -0.927143 0
M  V30 8868 O 849.434 -1.3921 -1.81199 0
M  V30 8869 C 849.644 -3.26837 1.22387 0
M  V30 8870 C 850.992 -4.03272 1.32878 0
M  V30 8871 O 852.016 -3.36129 1.1788 0
M  V30 8872 O 850.875 -5.23477 1.56952 0
M  V30 8873 H 847.969 -0.801638 0.203238 0
M  V30 8874 H 850.515 -1.29542 1.09622 0
M  V30 8875 H 849.287 -3.19084 2.26497 0
M  V30 8876 H 848.91 -3.91226 0.709069 0
M  V30 8877 N 849.908 -0.773975 -1.37286 0
M  V30 8878 C 851.154 -0.339809 -1.99933 0
M  V30 8879 C 851.487 1.0815 -1.61299 0
M  V30 8880 O 850.762 1.74442 -0.860252 0
M  V30 8881 C 851.045 -0.485919 -3.56806 0
M  V30 8882 C 850.898 -1.9498 -4.05343 0
M  V30 8883 C 852.217 0.108461 -4.39966 0
M  V30 8884 H 849.336 -0.124944 -0.726332 0
M  V30 8885 H 851.978 -0.977433 -1.6293 0
M  V30 8886 H 850.128 0.0569023 -3.88458 0
M  V30 8887 H 851.8 -2.5525 -3.84246 0
M  V30 8888 H 850.043 -2.45784 -3.57453 0
M  V30 8889 H 850.714 -2.00308 -5.14374 0
M  V30 8890 H 853.19 -0.354722 -4.14585 0
M  V30 8891 H 852.066 -0.0238926 -5.48895 0
M  V30 8892 H 852.327 1.19901 -4.25531 0
M  V30 8893 N 851.386 1.48609 -0.524698 0
M  V30 8894 C 852.336 2.26505 0.260696 0
M  V30 8895 C 853.32 1.32378 0.914597 0
M  V30 8896 O 854.512 1.5695 0.818277 0
M  V30 8897 C 851.641 3.17313 1.31024 0
M  V30 8898 C 850.727 4.18911 0.661391 0
M  V30 8899 N 851.118 5.05183 -0.24981 0
M  V30 8900 C 849.416 4.36425 0.91922 0
M  V30 8901 C 850.117 5.78348 -0.623598 0
M  V30 8902 N 849.093 5.43598 0.0140839 0
M  V30 8903 H 852.895 2.90582 -0.440388 0
M  V30 8904 H 850.409 1.5875 -0.342364 0
M  V30 8905 H 852.406 3.71772 1.88656 0
M  V30 8906 H 851.066 2.54791 2.01275 0
M  V30 8907 H 852.077 5.1415 -0.622093 0
M  V30 8908 H 848.754 3.85095 1.6127 0
M  V30 8909 H 850.144 6.57775 -1.37046 0
M  V30 8910 N 852.864 0.259585 1.55447 0
M  V30 8911 C 853.794 -0.62852 2.24882 0
M  V30 8912 C 854.775 -1.17128 1.23349 0
M  V30 8913 O 855.96 -1.20829 1.52033 0
M  V30 8914 C 853.09 -1.81983 2.95803 0
M  V30 8915 C 852.044 -1.40929 4.04132 0
M  V30 8916 C 851.37 -2.68246 4.62545 0
M  V30 8917 C 852.67 -0.570956 5.1917 0
M  V30 8918 H 854.364 -0.0495021 2.99359 0
M  V30 8919 H 851.91 -0.0223688 1.43983 0
M  V30 8920 H 853.863 -2.44689 3.43082 0
M  V30 8921 H 852.587 -2.42444 2.18835 0
M  V30 8922 H 851.246 -0.805519 3.57641 0
M  V30 8923 H 850.894 -3.26931 3.82263 0
M  V30 8924 H 850.594 -2.41495 5.35681 0
M  V30 8925 H 852.118 -3.31827 5.12565 0
M  V30 8926 H 853.532 -1.10262 5.62597 0
M  V30 8927 H 851.929 -0.398979 5.98772 0
M  V30 8928 H 852.999 0.413918 4.8313 0
M  V30 8929 N 854.342 -1.57594 -0.0133615 0
M  V30 8930 C 855.588 -1.90262 -0.702019 0
M  V30 8931 C 855.921 -0.859219 -1.74158 0
M  V30 8932 O 855.196 0.123778 -1.94106 0
M  V30 8933 C 855.479 -3.3354 -1.35732 0
M  V30 8934 C 855.332 -4.48586 -0.330208 0
M  V30 8935 C 856.651 -3.76004 -2.28712 0
M  V30 8936 H 853.77 -0.691943 -0.253739 0
M  V30 8937 H 856.412 -1.89967 0.0351894 0
M  V30 8938 H 854.562 -3.33921 -1.98567 0
M  V30 8939 H 856.234 -4.6034 0.297433 0
M  V30 8940 H 854.477 -4.32394 0.348926 0
M  V30 8941 H 855.148 -5.45762 -0.827508 0
M  V30 8942 H 857.624 -3.77089 -1.75906 0
M  V30 8943 H 856.5 -4.77032 -2.71535 0
M  V30 8944 H 856.761 -3.09129 -3.16056 0
M  V30 8945 N 855.82 0.285905 -1.54985 0
M  V30 8946 C 857.231 0.857869 -1.65824 0
M  V30 8947 C 857.582 1.87531 -0.576763 0
M  V30 8948 O 856.707 2.14528 0.284016 0
M  V30 8949 C 857.302 1.56277 -3.00604 0
M  V30 8950 C 855.861 2.08294 -3.13513 0
M  V30 8951 C 855.008 0.920633 -2.61571 0
M  V30 8952 H 857.959 0.0625463 -1.58577 0
M  V30 8953 H 857.98 2.42912 -2.92872 0
M  V30 8954 H 857.492 0.822017 -3.79295 0
M  V30 8955 H 855.593 2.8537 -2.39572 0
M  V30 8956 H 855.706 2.3071 -4.19892 0
M  V30 8957 H 854.07 1.31043 -2.18403 0
M  V30 8958 H 854.853 0.193594 -3.42754 0
M  V30 8959 N 857.298 1.47698 0.54982 0
M  V30 8960 C 858.575 1.45185 1.31075 0
M  V30 8961 C 858.955 0.152768 2.10547 0
M  V30 8962 O 858.303 -0.865706 2.11466 0
M  V30 8963 C 858.513 2.70192 2.20902 0
M  V30 8964 C 859.861 3.1771 2.81683 0
M  V30 8965 O 860.885 2.70971 2.312 0
M  V30 8966 O 859.744 3.98986 3.7346 0
M  V30 8967 H 856.838 0.57892 0.590577 0
M  V30 8968 H 859.384 1.59908 0.568112 0
M  V30 8969 H 858.156 3.56269 1.61828 0
M  V30 8970 H 857.779 2.58091 3.02448 0
M  V30 8971 N 858.776 -0.797141 1.35954 0
M  V30 8972 C 860.192 -1.09408 1.16198 0
M  V30 8973 C 860.392 -2.01491 -0.0191682 0
M  V30 8974 O 859.448 -2.42977 -0.686902 0
M  V30 8975 C 860.761 -1.71597 2.46931 0
M  V30 8976 C 862.309 -1.83974 2.53224 0
M  V30 8977 C 862.784 -2.49579 3.84024 0
M  V30 8978 N 864.275 -2.57055 3.85327 0
M  V30 8979 C 865.01 -3.08608 4.83268 0
M  V30 8980 N 864.506 -3.60527 5.91601 0
M  V30 8981 N 866.299 -3.07249 4.70696 0
M  V30 8982 H 858.45 -0.185209 2.11591 0
M  V30 8983 H 860.713 -0.144768 0.936881 0
M  V30 8984 H 860.419 -1.11404 3.3359 0
M  V30 8985 H 860.293 -2.71193 2.62172 0
M  V30 8986 H 862.68 -2.43308 1.66988 0
M  V30 8987 H 862.761 -0.83207 2.41889 0
M  V30 8988 H 862.405 -1.90892 4.70662 0
M  V30 8989 H 862.335 -3.50902 3.92651 0
M  V30 8990 H 864.826 -2.20283 3.07057 0
M  V30 8991 H 865.139 -3.98192 6.62317 0
M  V30 8992 H 863.484 -3.587 5.95281 0
M  V30 8993 H 866.675 -2.65972 3.85197 0
M  V30 8994 H 866.848 -3.47119 5.47186 0
M  V30 8995 N 860.254 -1.20106 -1.0204 0
M  V30 8996 C 861.201 -0.946468 -2.10501 0
M  V30 8997 C 862.171 0.121902 -1.65652 0
M  V30 8998 O 863.356 -0.0220244 -1.90787 0
M  V30 8999 C 860.496 -0.500499 -3.41451 0
M  V30 9000 C 859.609 -1.63659 -3.998 0
M  V30 9001 C 858.744 -1.14131 -5.18794 0
M  V30 9002 C 857.783 -2.25074 -5.69217 0
M  V30 9003 N 856.92 -1.76791 -6.79477 0
M  V30 9004 H 861.76 -1.87506 -2.31615 0
M  V30 9005 H 859.297 -0.934693 -1.13587 0
M  V30 9006 H 861.255 -0.223276 -4.16602 0
M  V30 9007 H 859.885 0.391099 -3.20422 0
M  V30 9008 H 858.937 -2.02882 -3.21781 0
M  V30 9009 H 860.249 -2.47213 -4.33229 0
M  V30 9010 H 859.403 -0.819826 -6.01135 0
M  V30 9011 H 858.142 -0.275615 -4.86921 0
M  V30 9012 H 857.147 -2.58043 -4.85483 0
M  V30 9013 H 858.372 -3.12114 -6.03127 0
M  V30 9014 H 856.318 -0.925428 -6.4944 0
M  V30 9015 H 856.235 -2.53928 -7.12079 0
M  V30 9016 H 857.503 -1.47631 -7.65392 0
M  V30 9017 N 861.732 1.21287 -1.00634 0
M  V30 9018 C 862.679 2.23705 -0.567876 0
M  V30 9019 C 863.649 1.61043 0.406753 0
M  V30 9020 O 864.834 1.88289 0.308499 0
M  V30 9021 C 861.974 3.44961 0.097996 0
M  V30 9022 C 861.087 4.22091 -0.919972 0
M  V30 9023 C 860.222 5.30718 -0.226222 0
M  V30 9024 C 859.261 5.99581 -1.23165 0
M  V30 9025 N 858.398 6.99821 -0.565278 0
M  V30 9026 H 863.238 2.60571 -1.44592 0
M  V30 9027 H 860.775 1.28049 -0.724006 0
M  V30 9028 H 862.733 4.1418 0.501097 0
M  V30 9029 H 861.363 3.08818 0.939744 0
M  V30 9030 H 860.415 3.52038 -1.44131 0
M  V30 9031 H 861.727 4.69476 -1.68505 0
M  V30 9032 H 860.881 6.06253 0.232917 0
M  V30 9033 H 859.62 4.84343 0.571247 0
M  V30 9034 H 858.625 5.22816 -1.70128 0
M  V30 9035 H 859.85 6.48042 -2.03022 0
M  V30 9036 H 857.796 6.55656 0.212508 0
M  V30 9037 H 857.713 7.4528 -1.26858 0
M  V30 9038 H 858.981 7.79393 -0.129389 0
M  V30 9039 N 863.21 0.781244 1.36873 0
M  V30 9040 C 864.487 0.274217 1.93668 0
M  V30 9041 C 864.867 -1.2323 1.71399 0
M  V30 9042 O 864.215 -2.01993 1.06822 0
M  V30 9043 C 864.425 0.657939 3.42742 0
M  V30 9044 C 865.773 0.63307 4.19854 0
M  V30 9045 O 866.797 0.597909 3.51146 0
M  V30 9046 O 865.656 0.668636 5.42394 0
M  V30 9047 H 862.75 0.0658059 0.824378 0
M  V30 9048 H 865.296 0.863238 1.46104 0
M  V30 9049 H 864.068 1.69728 3.52573 0
M  V30 9050 H 863.691 0.0423678 3.97577 0
M  V30 9051 N 864.689 -1.48329 0.532571 0
M  V30 9052 C 865.621 -2.27652 -0.265931 0
M  V30 9053 C 866.634 -1.35522 -0.902083 0
M  V30 9054 O 867.823 -1.60552 -0.780088 0
M  V30 9055 C 864.923 -3.0899 -1.39207 0
M  V30 9056 C 864.096 -4.28915 -0.857349 0
M  V30 9057 C 863.155 -4.92044 -1.86493 0
M  V30 9058 O 862.181 -5.51181 -1.42084 0
M  V30 9059 N 863.383 -4.84518 -3.19723 0
M  V30 9060 H 866.148 -2.96821 0.414389 0
M  V30 9061 H 863.709 -1.57684 0.367066 0
M  V30 9062 H 865.701 -3.48091 -2.06433 0
M  V30 9063 H 864.271 -2.42224 -1.97601 0
M  V30 9064 H 863.491 -3.94199 -0.00901765 0
M  V30 9065 H 864.779 -5.0654 -0.479025 0
M  V30 9066 H 864.177 -4.37628 -3.58467 0
M  V30 9067 H 862.734 -5.27712 -3.82575 0
M  V30 9068 N 866.167 -0.267825 -1.55308 0
M  V30 9069 C 867.397 0.354073 -2.03543 0
M  V30 9070 C 867.805 1.50554 -1.14586 0
M  V30 9071 O 867.148 1.83028 -0.156991 0
M  V30 9072 C 867.21 0.904148 -3.47945 0
M  V30 9073 C 866.874 -0.11775 -4.56848 0
M  V30 9074 C 867.871 -0.934707 -5.11429 0
M  V30 9075 C 865.556 -0.249885 -5.01678 0
M  V30 9076 C 867.55 -1.87005 -6.0935 0
M  V30 9077 C 865.237 -1.18872 -5.99427 0
M  V30 9078 C 866.235 -1.99731 -6.53144 0
M  V30 9079 O 865.923 -2.92028 -7.48983 0
M  V30 9080 H 865.655 0.0857765 -0.670536 0
M  V30 9081 H 868.209 -0.395515 -2.01556 0
M  V30 9082 H 866.439 1.70368 -3.47148 0
M  V30 9083 H 868.128 1.43835 -3.79561 0
M  V30 9084 H 868.894 -0.84332 -4.77612 0
M  V30 9085 H 864.773 0.369469 -4.59517 0
M  V30 9086 H 868.317 -2.5016 -6.51203 0
M  V30 9087 H 864.214 -1.28095 -6.32663 0
M  V30 9088 H 864.982 -2.86627 -7.66673 0
M  V30 9089 N 867.645 1.57599 0.00500368 0
M  V30 9090 C 868.592 2.08106 0.998025 0
M  V30 9091 C 869.562 0.975374 1.34446 0
M  V30 9092 O 870.747 1.24749 1.44369 0
M  V30 9093 C 867.887 2.58496 2.28635 0
M  V30 9094 C 867 3.82947 1.99939 0
M  V30 9095 C 866.135 4.21857 3.22816 0
M  V30 9096 C 865.174 5.39159 2.89783 0
M  V30 9097 N 864.311 5.73386 4.05183 0
M  V30 9098 H 869.151 2.92684 0.560385 0
M  V30 9099 H 866.688 1.44692 0.265053 0
M  V30 9100 H 868.646 2.85787 3.03943 0
M  V30 9101 H 867.276 1.768 2.70077 0
M  V30 9102 H 866.328 3.62594 1.1502 0
M  V30 9103 H 867.64 4.68358 1.71588 0
M  V30 9104 H 866.794 4.50404 4.06474 0
M  V30 9105 H 865.533 3.35145 3.54301 0
M  V30 9106 H 864.538 5.1034 2.04532 0
M  V30 9107 H 865.763 6.27543 2.59551 0
M  V30 9108 H 863.709 4.89632 4.36574 0
M  V30 9109 H 863.626 6.53359 3.80339 0
M  V30 9110 H 864.894 6.06522 4.89644 0
M  V30 9111 N 869.123 -0.277682 1.55134 0
M  V30 9112 C 870.369 -1.0114 1.7578 0
M  V30 9113 C 870.702 -1.86109 0.554719 0
M  V30 9114 O 869.977 -1.89275 -0.447813 0
M  V30 9115 C 870.26 -1.89789 3.06027 0
M  V30 9116 C 870.113 -1.07844 4.3668 0
M  V30 9117 C 871.432 -2.88577 3.32282 0
M  V30 9118 H 868.551 -0.366277 0.639539 0
M  V30 9119 H 871.193 -0.284155 1.87863 0
M  V30 9120 H 869.343 -2.51796 2.95856 0
M  V30 9121 H 871.015 -0.479432 4.58802 0
M  V30 9122 H 869.258 -0.381764 4.32117 0
M  V30 9123 H 869.929 -1.73179 5.24131 0
M  V30 9124 H 872.405 -2.36702 3.42215 0
M  V30 9125 H 871.281 -3.47749 4.2469 0
M  V30 9126 H 871.542 -3.63458 2.51696 0
M  V30 9127 N 870.601 -1.47988 -0.541979 0
M  V30 9128 C 871.849 -1.55086 -1.29587 0
M  V30 9129 C 872.17 -0.221304 -1.9374 0
M  V30 9130 O 871.44 0.756128 -1.80719 0
M  V30 9131 H 870.02 -0.571307 -0.481266 0
M  V30 9132 H 872.682 -1.8438 -0.631675 0
M  V30 9133 H 871.778 -2.32556 -2.08144 0
M  V30 9134 N 872.079 0.78992 -1.36375 0
M  V30 9135 C 872.989 1.93386 -1.32812 0
M  V30 9136 C 874.005 1.72468 -0.230377 0
M  V30 9137 O 875.181 1.96014 -0.462657 0
M  V30 9138 C 872.246 3.2824 -1.11621 0
M  V30 9139 C 871.307 3.61939 -2.30865 0
M  V30 9140 C 870.54 4.90359 -2.10675 0
M  V30 9141 O 870.763 5.6005 -1.08168 0
M  V30 9142 O 869.697 5.22702 -2.9844 0
M  V30 9143 H 873.523 1.99342 -2.29121 0
M  V30 9144 H 871.108 0.9301 -1.16917 0
M  V30 9145 H 872.99 4.08939 -1.01719 0
M  V30 9146 H 871.665 3.23178 -0.183732 0
M  V30 9147 H 870.572 2.81549 -2.46335 0
M  V30 9148 H 871.905 3.71725 -3.22617 0
M  V30 9149 N 873.557 1.20646 1.01402 0
M  V30 9150 C 874.803 1.0197 1.753 0
M  V30 9151 C 875.136 -0.446803 1.8899 0
M  V30 9152 O 874.411 -1.33169 1.41762 0
M  V30 9153 C 874.694 1.70693 3.17074 0
M  V30 9154 C 874.547 3.24805 3.11162 0
M  V30 9155 C 875.866 1.44212 4.15802 0
M  V30 9156 H 872.985 0.371844 0.636318 0
M  V30 9157 H 875.627 1.48696 1.18277 0
M  V30 9158 H 873.777 1.30968 3.65759 0
M  V30 9159 H 875.449 3.73841 2.70261 0
M  V30 9160 H 873.692 3.55576 2.48492 0
M  V30 9161 H 874.363 3.68049 4.11393 0
M  V30 9162 H 876.839 1.7868 3.75783 0
M  V30 9163 H 875.715 1.94825 5.13161 0
M  V30 9164 H 875.976 0.370252 4.40547 0
M  V30 9165 N 875.035 -1.20752 1.01276 0
M  V30 9166 C 875.965 -2.25658 0.600064 0
M  V30 9167 C 876.946 -1.65733 -0.38298 0
M  V30 9168 O 878.131 -1.92324 -0.269256 0
M  V30 9169 C 875.261 -3.47237 -0.0663197 0
M  V30 9170 C 874.215 -4.1973 0.83731 0
M  V30 9171 C 873.541 -5.34687 0.0369102 0
M  V30 9172 C 874.841 -4.76286 2.14357 0
M  V30 9173 H 876.535 -2.60432 1.477 0
M  V30 9174 H 874.081 -1.25187 0.711634 0
M  V30 9175 H 876.034 -4.19803 -0.366563 0
M  V30 9176 H 874.758 -3.11615 -0.977944 0
M  V30 9177 H 873.417 -3.49024 1.1215 0
M  V30 9178 H 873.065 -4.95309 -0.876244 0
M  V30 9179 H 872.765 -5.84119 0.63865 0
M  V30 9180 H 874.289 -6.10059 -0.256968 0
M  V30 9181 H 875.703 -5.40691 1.90595 0
M  V30 9182 H 874.1 -5.36139 2.69583 0
M  V30 9183 H 875.17 -3.9524 2.80916 0
M  V30 9184 N 876.513 -0.788492 -1.36457 0
M  V30 9185 C 877.46 -0.18435 -2.30063 0
M  V30 9186 C 878.43 0.67128 -1.51931 0
M  V30 9187 O 879.615 0.620152 -1.8044 0
M  V30 9188 C 876.755 0.675596 -3.38422 0
M  V30 9189 C 875.868 -0.198475 -4.31544 0
M  V30 9190 C 875.003 0.667757 -5.26986 0
M  V30 9191 C 874.042 -0.207825 -6.11747 0
M  V30 9192 N 873.179 0.617335 -6.99381 0
M  V30 9193 H 878.019 -0.988056 -2.81143 0
M  V30 9194 H 875.556 -0.498815 -1.38384 0
M  V30 9195 H 877.514 1.18916 -3.99894 0
M  V30 9196 H 876.144 1.44474 -2.88664 0
M  V30 9197 H 875.196 -0.829995 -3.71235 0
M  V30 9198 H 876.508 -0.873163 -4.91098 0
M  V30 9199 H 875.662 1.24716 -5.93743 0
M  V30 9200 H 874.401 1.37607 -4.67884 0
M  V30 9201 H 873.406 -0.799638 -5.43954 0
M  V30 9202 H 874.631 -0.913729 -6.72925 0
M  V30 9203 H 872.577 1.30996 -6.42788 0
M  V30 9204 H 872.494 0.000307255 -7.56 0
M  V30 9205 H 873.762 1.1806 -7.70508 0
M  V30 9206 N 877.991 1.48044 -0.54043 0
M  V30 9207 C 879.238 2.02497 -0.0101567 0
M  V30 9208 C 879.566 1.41651 1.33286 0
M  V30 9209 O 878.821 0.555504 1.8765 0
M  V30 9210 C 879.12 3.57085 0.150008 0
M  V30 9211 C 878.786 4.36769 -1.11998 0
M  V30 9212 C 877.448 4.58261 -1.46801 0
M  V30 9213 C 879.8 4.82848 -1.96232 0
M  V30 9214 C 877.128 5.23079 -2.65717 0
M  V30 9215 C 879.48 5.48977 -3.14335 0
M  V30 9216 C 878.144 5.68705 -3.49472 0
M  V30 9217 H 877.414 0.740991 -0.00371661 0
M  V30 9218 H 880.061 1.77909 -0.708562 0
M  V30 9219 H 878.366 3.80572 0.931259 0
M  V30 9220 H 880.063 3.96851 0.575384 0
M  V30 9221 H 876.653 4.20309 -0.838957 0
M  V30 9222 H 880.837 4.66038 -1.70654 0
M  V30 9223 H 876.093 5.36549 -2.93129 0
M  V30 9224 H 880.267 5.83649 -3.79904 0
M  V30 9225 H 877.894 6.18703 -4.41713 0
M  V30 9226 N 879.47 0.276058 1.55163 0
M  V30 9227 C 880.695 -0.346648 2.04483 0
M  V30 9228 C 881.12 -1.48613 1.15308 0
M  V30 9229 O 880.478 -1.80663 0.151875 0
M  V30 9230 C 880.526 -0.804268 3.51517 0
M  V30 9231 O 879.63 -1.91143 3.65429 0
M  V30 9232 H 878.971 -0.0715251 0.660136 0
M  V30 9233 H 881.501 0.410631 2.00437 0
M  V30 9234 H 881.511 -1.09977 3.92898 0
M  V30 9235 H 880.186 0.0294123 4.1589 0
M  V30 9236 H 878.763 -1.61839 3.3595 0
M  V30 9237 N 880.948 -1.576 0.00335426 0
M  V30 9238 C 882.188 -1.92571 -0.685253 0
M  V30 9239 C 882.552 -0.877961 -1.70751 0
M  V30 9240 O 883.753 -1.11303 -2.44673 0
M  V30 9241 C 882.024 -3.3258 -1.30863 0
M  V30 9242 S 883.583 -3.89442 -2.02189 0
M  V30 9243 H 880.401 -0.674035 -0.226268 0
M  V30 9244 H 883.003 -1.95405 0.0608461 0
M  V30 9245 H 881.707 -4.06673 -0.551837 0
M  V30 9246 H 881.238 -3.33128 -2.09259 0
M  V30 9247 H 883.253 -3.70789 -3.29742 0
M  V30 9248 N 882.426 0.269451 -1.5528 0
M  V30 9249 C 883.373 1.33316 -1.88403 0
M  V30 9250 C 884.343 1.48909 -0.735881 0
M  V30 9251 O 885.528 1.63259 -0.987479 0
M  V30 9252 C 882.668 2.68778 -2.16454 0
M  V30 9253 C 881.781 2.61377 -3.43956 0
M  V30 9254 C 880.916 3.89042 -3.6169 0
M  V30 9255 C 879.955 3.76166 -4.82872 0
M  V30 9256 N 879.092 4.95673 -4.97245 0
M  V30 9257 H 883.932 1.04368 -2.79126 0
M  V30 9258 H 881.469 0.504147 -1.38191 0
M  V30 9259 H 883.427 3.47599 -2.30719 0
M  V30 9260 H 882.057 2.9592 -1.28961 0
M  V30 9261 H 881.109 1.74247 -3.38145 0
M  V30 9262 H 882.421 2.47764 -4.32914 0
M  V30 9263 H 881.575 4.76304 -3.75791 0
M  V30 9264 H 880.314 4.05526 -2.70924 0
M  V30 9265 H 879.319 2.87287 -4.68771 0
M  V30 9266 H 880.544 3.61198 -5.75077 0
M  V30 9267 H 878.49 5.12561 -4.09411 0
M  V30 9268 H 878.407 4.84605 -5.80254 0
M  V30 9269 H 879.675 5.84498 -5.15735 0
M  V30 9270 N 883.904 1.48273 0.534124 0
M  V30 9271 C 885.315 1.49667 1.1161 0
M  V30 9272 C 885.666 0.264139 1.94414 0
M  V30 9273 O 884.791 -0.629084 2.07054 0
M  V30 9274 C 885.386 2.71191 2.03079 0
M  V30 9275 C 883.945 2.7547 2.56502 0
M  V30 9276 C 883.092 2.43119 1.33373 0
M  V30 9277 H 886.043 1.55449 0.319578 0
M  V30 9278 H 886.064 2.49473 2.87304 0
M  V30 9279 H 885.576 3.60879 1.42785 0
M  V30 9280 H 883.677 1.89979 3.20529 0
M  V30 9281 H 883.79 3.76787 2.95919 0
M  V30 9282 H 882.154 1.94187 1.64813 0
M  V30 9283 H 882.937 3.35044 0.748375 0
M  V30 9284 N 885.382 -0.782676 1.36792 0
M  V30 9285 C 886.63 -1.53778 1.31136 0
M  V30 9286 C 886.951 -1.94706 -0.107014 0
M  V30 9287 O 886.221 -1.65465 -1.04872 0
M  V30 9288 H 884.801 -0.570328 0.482426 0
M  V30 9289 H 887.463 -0.932181 1.71162 0
M  V30 9290 H 886.559 -2.44224 1.94321 0
M  V30 9291 N 886.86 -1.21182 -1.00761 0
M  V30 9292 C 888.107 -1.02746 -1.74498 0
M  V30 9293 C 888.435 0.439344 -1.89473 0
M  V30 9294 O 887.69 1.34232 -1.42409 0
M  V30 9295 C 887.989 -1.6667 -3.16158 0
M  V30 9296 C 887.655 -3.16515 -3.21137 0
M  V30 9297 C 886.317 -3.57405 -3.22203 0
M  V30 9298 C 888.669 -4.12495 -3.18587 0
M  V30 9299 C 885.997 -4.92786 -3.18401 0
M  V30 9300 C 888.349 -5.47833 -3.16326 0
M  V30 9301 C 887.013 -5.88124 -3.157 0
M  V30 9302 H 886.283 -0.375974 -0.638533 0
M  V30 9303 H 888.93 -1.50736 -1.18114 0
M  V30 9304 H 887.235 -1.10966 -3.75758 0
M  V30 9305 H 888.932 -1.49911 -3.71924 0
M  V30 9306 H 885.522 -2.83947 -3.21048 0
M  V30 9307 H 889.706 -3.81932 -3.16925 0
M  V30 9308 H 884.962 -5.23253 -3.16253 0
M  V30 9309 H 889.136 -6.21942 -3.13306 0
M  V30 9310 H 886.763 -6.92995 -3.12508 0
M  V30 9311 N 888.338 1.20213 -1.01915 0
M  V30 9312 C 889.566 1.93622 -0.729255 0
M  V30 9313 C 889.981 1.74923 0.710444 0
M  V30 9314 O 889.338 1.06484 1.48214 0
M  V30 9315 C 889.389 3.45651 -1.05865 0
M  V30 9316 O 889.11 3.63741 -2.44181 0
M  V30 9317 C 890.611 4.36201 -0.790176 0
M  V30 9318 H 887.831 0.615333 -0.267594 0
M  V30 9319 H 890.375 1.52633 -1.36101 0
M  V30 9320 H 888.53 3.84511 -0.47225 0
M  V30 9321 H 888.944 4.57702 -2.56143 0
M  V30 9322 H 890.418 5.41516 -1.07071 0
M  V30 9323 H 890.895 4.38334 0.275609 0
M  V30 9324 H 891.501 4.03008 -1.35885 0
M  V30 9325 N 889.816 0.795718 1.36037 0
M  V30 9326 C 891.065 0.367575 1.98322 0
M  V30 9327 C 891.378 -1.06823 1.63854 0
M  V30 9328 O 892.584 -1.59895 2.19421 0
M  V30 9329 C 891.04 0.606272 3.54757 0
M  V30 9330 C 890.648 2.0539 3.98144 0
M  V30 9331 C 892.392 0.242947 4.23804 0
M  V30 9332 C 890.299 2.23893 5.47381 0
M  V30 9333 H 889.229 0.133699 0.742052 0
M  V30 9334 H 891.88 0.978242 1.5525 0
M  V30 9335 H 890.262 -0.0741957 3.9593 0
M  V30 9336 H 891.436 2.77129 3.68152 0
M  V30 9337 H 889.751 2.37607 3.41953 0
M  V30 9338 H 892.348 0.359382 5.33491 0
M  V30 9339 H 892.691 -0.809661 4.08351 0
M  V30 9340 H 893.224 0.876899 3.88015 0
M  V30 9341 H 889.963 3.27559 5.6779 0
M  V30 9342 H 889.483 1.56666 5.78978 0
M  V30 9343 H 891.162 2.04914 6.13693 0
M  V30 9344 N 891.294 -1.47756 0.548274 0
M  V30 9345 C 892.54 -2.02789 0.0209265 0
M  V30 9346 C 892.873 -1.42268 -1.32187 0
M  V30 9347 O 892.148 -0.575001 -1.85806 0
M  V30 9348 C 892.431 -3.60007 -0.0816674 0
M  V30 9349 C 892.284 -4.30977 1.28759 0
M  V30 9350 C 893.603 -4.32777 -0.799515 0
M  V30 9351 H 890.722 -0.736944 0.00907884 0
M  V30 9352 H 893.364 -1.76282 0.708839 0
M  V30 9353 H 891.514 -3.82722 -0.667537 0
M  V30 9354 H 893.186 -4.19629 1.91597 0
M  V30 9355 H 891.429 -3.9168 1.86466 0
M  V30 9356 H 892.1 -5.39488 1.16861 0
M  V30 9357 H 894.576 -4.15001 -0.30216 0
M  V30 9358 H 893.452 -5.42431 -0.840239 0
M  V30 9359 H 893.713 -4.01358 -1.85375 0
M  V30 9360 N 892.772 -0.284283 -1.55015 0
M  V30 9361 C 894.02 0.329212 -1.99401 0
M  V30 9362 C 894.341 1.55687 -1.17416 0
M  V30 9363 O 893.611 1.94087 -0.265937 0
M  V30 9364 H 892.191 0.12463 -0.73653 0
M  V30 9365 H 894.853 -0.391743 -1.90922 0
M  V30 9366 H 893.949 0.61278 -3.06025 0
M  V30 9367 N 894.251 1.57596 -0.0117121 0
M  V30 9368 C 895.662 1.79033 0.529521 0
M  V30 9369 C 896.013 0.920299 1.73277 0
M  V30 9370 O 895.138 0.125934 2.16033 0
M  V30 9371 C 895.733 3.24695 0.967405 0
M  V30 9372 C 894.292 3.47188 1.45387 0
M  V30 9373 C 893.439 2.74245 0.410466 0
M  V30 9374 H 896.39 1.56908 -0.237836 0
M  V30 9375 H 896.411 3.33451 1.83278 0
M  V30 9376 H 895.923 3.87992 0.0914605 0
M  V30 9377 H 894.024 2.89121 2.35032 0
M  V30 9378 H 894.137 4.55886 1.47325 0
M  V30 9379 H 892.501 2.39209 0.874721 0
M  V30 9380 H 893.284 3.40248 -0.456713 0
M  V30 9381 N 895.729 -0.261212 1.5542 0
M  V30 9382 C 896.677 -1.34298 1.89913 0
M  V30 9383 C 897.671 -1.50547 0.776665 0
M  V30 9384 O 898.877 -1.52191 0.961139 0
M  V30 9385 H 895.252 -0.4494 0.602946 0
M  V30 9386 H 897.223 -1.02464 2.80256 0
M  V30 9387 C 895.972 -2.69423 2.19788 0
M  V30 9388 H 895.295 -2.57715 3.05652 0
M  V30 9389 H 896.735 -3.44026 2.47835 0
M  V30 9390 C 895.194 -3.21423 1.00939 0
M  V30 9391 O 895.724 -4.00921 0.250034 0
M  V30 9392 N 893.93 -2.7926 0.803883 0
M  V30 9393 H 893.477 -2.14724 1.42308 0
M  V30 9394 H 893.435 -3.14398 0.0103257 0
M  V30 9395 N 897.207 -1.48554 -0.526253 0
M  V30 9396 C 898.432 -1.60686 -1.31129 0
M  V30 9397 C 898.857 -0.268701 -1.86171 0
M  V30 9398 O 898.215 0.760167 -1.64594 0
M  V30 9399 C 898.263 -2.65938 -2.43536 0
M  V30 9400 O 897.367 -2.23356 -3.46678 0
M  V30 9401 H 896.708 -0.538691 -0.388211 0
M  V30 9402 H 899.238 -1.94567 -0.632826 0
M  V30 9403 H 899.248 -2.87327 -2.89668 0
M  V30 9404 H 897.923 -3.63085 -2.02835 0
M  V30 9405 H 896.5 -2.12196 -3.06639 0
M  V30 9406 N 898.685 0.775411 -1.37205 0
M  V30 9407 C 899.931 1.53611 -1.32407 0
M  V30 9408 C 900.264 1.9398 0.0924103 0
M  V30 9409 O 899.539 1.63791 1.04893 0
M  V30 9410 C 899.822 2.80367 -2.25979 0
M  V30 9411 C 899.675 2.46275 -3.76389 0
M  V30 9412 C 900.994 3.82277 -2.18064 0
M  V30 9413 H 898.113 0.557278 -0.482297 0
M  V30 9414 H 900.755 0.889826 -1.67875 0
M  V30 9415 H 898.905 3.35515 -1.95862 0
M  V30 9416 H 900.577 1.9707 -4.17087 0
M  V30 9417 H 898.82 1.79023 -3.95137 0
M  V30 9418 H 899.491 3.36868 -4.37291 0
M  V30 9419 H 901.967 3.36613 -2.44604 0
M  V30 9420 H 900.843 4.68696 -2.85684 0
M  V30 9421 H 901.104 4.26272 -1.17239 0
M  V30 9422 N 900.163 1.21714 1.00117 0
M  V30 9423 C 901.095 0.937627 2.09144 0
M  V30 9424 C 902.108 -0.0806291 1.626 0
M  V30 9425 O 903.297 0.152348 1.77849 0
M  V30 9426 C 900.397 0.387036 3.36683 0
M  V30 9427 C 899.57 1.46054 4.12295 0
M  V30 9428 C 898.629 0.918505 5.18122 0
M  V30 9429 O 897.655 1.60282 5.46167 0
M  V30 9430 N 898.857 -0.264308 5.79898 0
M  V30 9431 H 901.622 1.87622 2.33705 0
M  V30 9432 H 899.183 1.12291 1.16629 0
M  V30 9433 H 901.175 0.00992825 4.04699 0
M  V30 9434 H 899.745 -0.456467 3.09249 0
M  V30 9435 H 898.965 2.01133 3.39027 0
M  V30 9436 H 900.253 2.18306 4.59587 0
M  V30 9437 H 899.651 -0.837242 5.5947 0
M  V30 9438 H 898.208 -0.582886 6.49188 0
M  V30 9439 N 901.641 -1.19671 1.02551 0
M  V30 9440 C 902.881 -1.90971 0.728668 0
M  V30 9441 C 903.245 -1.7762 -0.729057 0
M  V30 9442 O 904.446 -2.43484 -1.13882 0
M  V30 9443 C 902.717 -3.3794 1.16323 0
M  V30 9444 S 904.276 -4.27493 0.989722 0
M  V30 9445 H 901.094 -0.659617 0.265381 0
M  V30 9446 H 903.696 -1.44698 1.31463 0
M  V30 9447 H 902.4 -3.45181 2.21986 0
M  V30 9448 H 901.931 -3.89243 0.570417 0
M  V30 9449 H 903.946 -4.96096 -0.101666 0
M  V30 9450 N 903.119 -0.802921 -1.35613 0
M  V30 9451 C 904.349 -0.393359 -2.02821 0
M  V30 9452 C 904.757 0.999282 -1.60658 0
M  V30 9453 O 904.1 1.65463 -0.797977 0
M  V30 9454 C 904.162 -0.393102 -3.57344 0
M  V30 9455 C 903.826 -1.73563 -4.22759 0
M  V30 9456 C 904.823 -2.69333 -4.44698 0
M  V30 9457 C 902.508 -2.01863 -4.59953 0
M  V30 9458 C 904.502 -3.91589 -5.02928 0
M  V30 9459 C 902.189 -3.24383 -5.17898 0
M  V30 9460 C 903.187 -4.19064 -5.39328 0
M  V30 9461 O 902.875 -5.39422 -5.96053 0
M  V30 9462 H 902.607 -0.158431 -0.657172 0
M  V30 9463 H 905.161 -1.08682 -1.74291 0
M  V30 9464 H 903.391 0.356934 -3.85049 0
M  V30 9465 H 905.08 -0.00635596 -4.059 0
M  V30 9466 H 905.846 -2.48759 -4.16346 0
M  V30 9467 H 901.725 -1.28979 -4.42589 0
M  V30 9468 H 905.269 -4.65502 -5.1957 0
M  V30 9469 H 901.166 -3.44829 -5.45677 0
M  V30 9470 H 901.934 -5.40669 -6.14507 0
M  V30 9471 N 904.597 1.47463 -0.556102 0
M  V30 9472 C 905.547 2.27007 0.212592 0
M  V30 9473 C 906.531 1.34288 0.886312 0
M  V30 9474 O 907.723 1.5865 0.784801 0
M  V30 9475 C 904.852 3.20021 1.24263 0
M  V30 9476 C 903.938 4.2022 0.572385 0
M  V30 9477 N 904.329 5.04539 -0.35691 0
M  V30 9478 C 902.627 4.38276 0.826441 0
M  V30 9479 C 903.328 5.76895 -0.746134 0
M  V30 9480 N 902.304 5.43506 -0.101225 0
M  V30 9481 H 906.106 2.89582 -0.501925 0
M  V30 9482 H 903.62 1.57988 -0.375961 0
M  V30 9483 H 905.617 3.7569 1.80728 0
M  V30 9484 H 904.277 2.59003 1.95826 0
M  V30 9485 H 905.288 5.12715 -0.731012 0
M  V30 9486 H 901.965 3.88429 1.53066 0
M  V30 9487 H 903.355 6.5472 -1.50967 0
M  V30 9488 N 906.075 0.2925 1.54862 0
M  V30 9489 C 907.322 -0.319263 1.99967 0
M  V30 9490 C 907.65 -1.54547 1.18092 0
M  V30 9491 O 906.905 -1.94186 0.242969 0
M  V30 9492 C 907.204 -0.728674 3.49893 0
M  V30 9493 C 906.87 0.394836 4.49168 0
M  V30 9494 C 905.532 0.703289 4.76033 0
M  V30 9495 C 907.884 1.15103 5.08331 0
M  V30 9496 C 905.212 1.77121 5.59325 0
M  V30 9497 C 907.564 2.20881 5.92785 0
M  V30 9498 C 906.228 2.52342 6.17964 0
M  V30 9499 H 905.498 -0.116827 0.731733 0
M  V30 9500 H 908.145 0.40983 1.87063 0
M  V30 9501 H 906.45 -1.53772 3.60363 0
M  V30 9502 H 908.147 -1.21305 3.82212 0
M  V30 9503 H 904.737 0.144319 4.28357 0
M  V30 9504 H 908.921 0.92599 4.87585 0
M  V30 9505 H 904.177 2.01978 5.77074 0
M  V30 9506 H 908.351 2.79939 6.37657 0
M  V30 9507 H 905.978 3.35225 6.82296 0
M  V30 9508 N 907.553 -1.57587 0.0200696 0
M  V30 9509 C 908.801 -1.91046 -0.65922 0
M  V30 9510 C 909.122 -0.896197 -1.73186 0
M  V30 9511 O 908.392 0.0635952 -1.95797 0
M  V30 9512 H 906.972 -0.705163 -0.246483 0
M  V30 9513 H 909.634 -1.94789 0.0657368 0
M  V30 9514 H 908.73 -2.91399 -1.11773 0
M  V30 9515 N 909.032 0.252966 -1.55557 0
M  V30 9516 C 909.962 1.31691 -1.9282 0
M  V30 9517 C 910.943 1.50516 -0.7924 0
M  V30 9518 O 912.128 1.63225 -1.05219 0
M  V30 9519 C 909.258 2.67281 -2.21762 0
M  V30 9520 C 908.212 2.6316 -3.37536 0
M  V30 9521 C 907.538 4.02488 -3.52005 0
M  V30 9522 C 908.838 2.20675 -4.73392 0
M  V30 9523 H 910.532 1.00751 -2.81939 0
M  V30 9524 H 908.078 0.483219 -1.3565 0
M  V30 9525 H 910.031 3.41842 -2.46419 0
M  V30 9526 H 908.755 2.99845 -1.29463 0
M  V30 9527 H 907.414 1.91057 -3.12878 0
M  V30 9528 H 907.062 4.32307 -2.57137 0
M  V30 9529 H 906.762 4.00621 -4.29857 0
M  V30 9530 H 908.286 4.78758 -3.78977 0
M  V30 9531 H 909.7 2.84965 -4.97461 0
M  V30 9532 H 908.097 2.29931 -5.54303 0
M  V30 9533 H 909.167 1.15831 -4.70862 0
M  V30 9534 N 910.51 1.48831 0.518367 0
M  V30 9535 C 911.735 1.61379 1.30275 0
M  V30 9536 C 912.16 0.278571 1.86026 0
M  V30 9537 O 911.518 -0.751427 1.64995 0
M  V30 9538 C 911.566 2.67225 2.42122 0
M  V30 9539 O 910.67 2.25192 3.45489 0
M  V30 9540 H 910.011 0.540742 0.385349 0
M  V30 9541 H 912.541 1.949 0.622498 0
M  V30 9542 H 912.551 2.88859 2.8814 0
M  V30 9543 H 911.226 3.64155 2.00907 0
M  V30 9544 H 909.803 2.13819 3.05509 0
M  V30 9545 N 911.988 -0.768124 1.37614 0
M  V30 9546 C 913.399 -1.34462 1.29525 0
M  V30 9547 C 913.75 -1.96121 -0.0555168 0
M  V30 9548 O 912.875 -1.94069 -0.957406 0
M  V30 9549 C 913.47 -2.44475 2.34558 0
M  V30 9550 C 912.029 -2.97883 2.30093 0
M  V30 9551 C 911.176 -1.71131 2.18196 0
M  V30 9552 H 914.127 -0.568103 1.48183 0
M  V30 9553 H 914.148 -3.24047 1.99434 0
M  V30 9554 H 913.66 -1.99568 3.32858 0
M  V30 9555 H 911.761 -3.47156 1.35328 0
M  V30 9556 H 911.874 -3.53251 3.23652 0
M  V30 9557 H 910.238 -1.94197 1.64802 0
M  V30 9558 H 911.021 -1.28323 3.18415 0
M  V30 9559 N 913.466 -1.22244 -0.994698 0
M  V30 9560 C 914.743 -0.954459 -1.70732 0
M  V30 9561 C 915.123 0.530945 -2.04314 0
M  V30 9562 O 914.471 1.49851 -1.72502 0
M  V30 9563 C 914.681 -1.85016 -2.95922 0
M  V30 9564 C 916.029 -2.10517 -3.68738 0
M  V30 9565 O 917.053 -1.82449 -3.05926 0
M  V30 9566 O 915.912 -2.58044 -4.81742 0
M  V30 9567 H 913.006 -0.35879 -0.745116 0
M  V30 9568 H 915.552 -1.33221 -1.0512 0
M  V30 9569 H 914.324 -2.85498 -2.67594 0
M  V30 9570 H 913.947 -1.47388 -3.69273 0
M  V30 9571 N 914.944 1.19125 -1.03184 0
M  V30 9572 C 915.874 2.24675 -0.635889 0
M  V30 9573 C 916.855 1.66321 0.356565 0
M  V30 9574 O 918.04 1.92728 0.238625 0
M  V30 9575 C 915.17 3.47298 0.011069 0
M  V30 9576 C 914.124 4.18345 -0.903979 0
M  V30 9577 C 913.45 5.34561 -0.12197 0
M  V30 9578 C 914.75 4.72816 -2.21907 0
M  V30 9579 H 916.444 2.5805 -1.51825 0
M  V30 9580 H 913.99 1.24039 -0.73146 0
M  V30 9581 H 915.943 4.20333 0.299729 0
M  V30 9582 H 914.667 3.13131 0.928245 0
M  V30 9583 H 913.326 3.47196 -1.17688 0
M  V30 9584 H 912.974 4.9664 0.797334 0
M  V30 9585 H 912.674 5.83029 -0.731498 0
M  V30 9586 H 914.198 6.10391 0.159881 0
M  V30 9587 H 915.612 5.3759 -1.99173 0
M  V30 9588 H 914.009 5.31782 -2.78078 0
M  V30 9589 H 915.079 3.9072 -2.87168 0
M  V30 9590 N 916.422 0.810101 1.35185 0
M  V30 9591 C 917.833 0.452616 1.81131 0
M  V30 9592 C 918.184 -1.02573 1.67252 0
M  V30 9593 O 917.309 -1.79735 1.20516 0
M  V30 9594 C 917.904 0.814775 3.28857 0
M  V30 9595 C 916.463 0.509839 3.72931 0
M  V30 9596 C 915.61 1.03852 2.57119 0
M  V30 9597 H 918.561 1.00143 1.23114 0
M  V30 9598 H 918.582 0.113635 3.8033 0
M  V30 9599 H 918.094 1.89078 3.38926 0
M  V30 9600 H 916.195 -0.557289 3.68409 0
M  V30 9601 H 916.308 1.04493 4.67566 0
M  V30 9602 H 914.672 0.460671 2.50499 0
M  V30 9603 H 915.455 2.12071 2.69964 0
M  V30 9604 N 917.9 -1.47166 0.563914 0
M  V30 9605 C 919.149 -2.0166 0.0401871 0
M  V30 9606 C 919.462 -1.44303 -1.32046 0
M  V30 9607 O 920.668 -1.905 -1.93448 0
M  V30 9608 C 919.124 -3.59894 0.0213257 0
M  V30 9609 C 918.732 -4.26244 1.37914 0
M  V30 9610 C 920.476 -4.22114 -0.449442 0
M  V30 9611 C 918.383 -5.76503 1.31902 0
M  V30 9612 H 917.313 -0.753916 0.0112534 0
M  V30 9613 H 919.964 -1.69091 0.712766 0
M  V30 9614 H 918.346 -3.89454 -0.717038 0
M  V30 9615 H 919.52 -4.08317 2.13574 0
M  V30 9616 H 917.835 -3.76039 1.78839 0
M  V30 9617 H 920.432 -5.32234 -0.51292 0
M  V30 9618 H 920.775 -3.89749 -1.46291 0
M  V30 9619 H 921.308 -3.9711 0.23427 0
M  V30 9620 H 918.047 -6.13498 2.3087 0
M  V30 9621 H 917.567 -5.96748 0.604324 0
M  V30 9622 H 919.246 -6.38846 1.02392 0
M  V30 9623 N 919.378 -0.300708 -1.54705 0
M  V30 9624 C 920.618 0.30953 -2.02043 0
M  V30 9625 C 920.982 1.51114 -1.18442 0
M  V30 9626 O 922.183 2.19273 -1.55477 0
M  V30 9627 C 920.454 0.657489 -3.513 0
M  V30 9628 S 922.013 1.25063 -4.206 0
M  V30 9629 H 918.831 0.0950019 -0.704624 0
M  V30 9630 H 921.433 -0.428512 -1.90746 0
M  V30 9631 H 920.137 -0.225532 -4.0978 0
M  V30 9632 H 919.668 1.42633 -3.66633 0
M  V30 9633 H 921.683 2.53844 -4.26354 0
M  V30 9634 N 920.856 1.57574 -0.0284266 0
M  V30 9635 C 921.803 2.10176 0.953658 0
M  V30 9636 C 922.773 1.00367 1.32347 0
M  V30 9637 O 923.958 1.27783 1.4169 0
M  V30 9638 C 921.098 2.63287 2.231 0
M  V30 9639 C 920.211 3.87102 1.91771 0
M  V30 9640 C 919.346 4.28609 3.13795 0
M  V30 9641 C 918.385 5.45184 2.78282 0
M  V30 9642 N 917.522 5.81851 3.92929 0
M  V30 9643 H 922.362 2.93806 0.498176 0
M  V30 9644 H 919.899 1.45222 0.234302 0
M  V30 9645 H 921.857 2.9217 2.97813 0
M  V30 9646 H 920.487 1.82489 2.66266 0
M  V30 9647 H 919.539 3.64952 1.07303 0
M  V30 9648 H 920.851 4.71892 1.61615 0
M  V30 9649 H 920.005 4.58925 3.96829 0
M  V30 9650 H 918.744 3.42585 3.47112 0
M  V30 9651 H 917.749 5.14563 1.93661 0
M  V30 9652 H 918.974 6.32907 2.46182 0
M  V30 9653 H 916.92 4.98782 4.2609 0
M  V30 9654 H 916.837 6.6128 3.66395 0
M  V30 9655 H 918.105 6.16772 4.76669 0
M  V30 9656 N 922.334 -0.244713 1.55689 0
M  V30 9657 C 923.244 -1.32447 1.93636 0
M  V30 9658 C 924.26 -1.52541 0.837086 0
M  V30 9659 O 925.436 -1.66121 1.13867 0
M  V30 9660 C 922.501 -2.65864 2.22525 0
M  V30 9661 C 921.562 -2.54273 3.45896 0
M  V30 9662 C 920.795 -3.81327 3.73397 0
M  V30 9663 O 921.018 -4.83307 3.02936 0
M  V30 9664 O 919.952 -3.79829 4.66919 0
M  V30 9665 H 923.778 -1.03255 2.85608 0
M  V30 9666 H 921.363 -0.445652 1.42598 0
M  V30 9667 H 923.245 -3.447 2.42404 0
M  V30 9668 H 921.92 -2.94784 1.33731 0
M  V30 9669 H 920.827 -1.73715 3.31321 0
M  V30 9670 H 922.16 -2.30297 4.34999 0
M  V30 9671 N 923.813 -1.49104 -0.510467 0
M  V30 9672 C 924.745 -1.61183 -1.6295 0
M  V30 9673 C 925.758 -0.495003 -1.55092 0
M  V30 9674 O 926.947 -0.766671 -1.61197 0
M  V30 9675 C 924.047 -1.54373 -3.01699 0
M  V30 9676 C 923.22 -2.81428 -3.34838 0
M  V30 9677 C 922.279 -2.67802 -4.52956 0
M  V30 9678 O 921.305 -3.41723 -4.55208 0
M  V30 9679 N 922.507 -1.78715 -5.52305 0
M  V30 9680 H 925.272 -2.57693 -1.53018 0
M  V30 9681 H 922.833 -1.46073 -0.698152 0
M  V30 9682 H 924.825 -1.42924 -3.78622 0
M  V30 9683 H 923.395 -0.657597 -3.05605 0
M  V30 9684 H 922.615 -3.07299 -2.46903 0
M  V30 9685 H 923.903 -3.6568 -3.53773 0
M  V30 9686 H 923.301 -1.17897 -5.53278 0
M  V30 9687 H 921.858 -1.73194 -6.28369 0
M  V30 9688 N 925.291 0.760815 -1.38019 0
M  V30 9689 C 926.537 1.52198 -1.34028 0
M  V30 9690 C 926.87 1.94067 0.0718309 0
M  V30 9691 O 926.145 1.64895 1.0315 0
M  V30 9692 C 926.428 2.77954 -2.2894 0
M  V30 9693 C 926.281 2.42269 -3.7898 0
M  V30 9694 C 927.6 3.79943 -2.22107 0
M  V30 9695 H 924.719 0.552131 -0.488181 0
M  V30 9696 H 927.361 0.871971 -1.6881 0
M  V30 9697 H 925.511 3.33419 -1.9941 0
M  V30 9698 H 927.183 1.92635 -4.19153 0
M  V30 9699 H 925.426 1.74822 -3.97014 0
M  V30 9700 H 926.097 3.32211 -4.4084 0
M  V30 9701 H 928.573 3.34 -2.4816 0
M  V30 9702 H 927.449 4.6564 -2.90639 0
M  V30 9703 H 927.71 4.25004 -1.21753 0
M  V30 9704 N 926.769 1.22769 0.988202 0
M  V30 9705 C 927.701 0.959757 2.08138 0
M  V30 9706 C 928.714 -0.0633787 1.62677 0
M  V30 9707 O 929.903 0.171203 1.77677 0
M  V30 9708 C 927.003 0.422724 3.36253 0
M  V30 9709 C 926.176 1.50419 4.10722 0
M  V30 9710 C 925.235 0.973407 5.17118 0
M  V30 9711 O 924.261 1.66066 5.44436 0
M  V30 9712 N 925.463 -0.202787 5.80146 0
M  V30 9713 H 928.228 1.9009 2.31702 0
M  V30 9714 H 925.789 1.13522 1.15431 0
M  V30 9715 H 927.781 0.0528514 4.04665 0
M  V30 9716 H 926.351 -0.423642 3.09716 0
M  V30 9717 H 925.571 2.04718 3.36874 0
M  V30 9718 H 926.859 2.23169 4.57245 0
M  V30 9719 H 926.257 -0.777856 5.60327 0
M  V30 9720 H 924.814 -0.513998 6.4977 0
M  V30 9721 N 928.247 -1.18576 1.03814 0
M  V30 9722 C 929.472 -1.92978 0.759873 0
M  V30 9723 C 929.897 -1.75514 -0.676486 0
M  V30 9724 O 929.255 -1.06359 -1.46824 0
M  V30 9725 C 929.303 -3.42507 1.12788 0
M  V30 9726 O 928.407 -4.1163 0.251886 0
M  V30 9727 H 927.748 -0.602129 0.279886 0
M  V30 9728 H 930.278 -1.50383 1.3873 0
M  V30 9729 H 930.288 -3.93206 1.08872 0
M  V30 9730 H 928.963 -3.5454 2.17427 0
M  V30 9731 H 927.54 -3.7125 0.350441 0
M  V30 9732 N 929.725 -0.817259 -1.34754 0
M  V30 9733 C 930.965 -0.408429 -2.00278 0
M  V30 9734 C 931.329 1.00818 -1.634 0
M  V30 9735 O 932.53 1.51959 -2.21725 0
M  V30 9736 C 930.801 -0.598219 -3.52358 0
M  V30 9737 S 932.36 -0.281395 -4.37897 0
M  V30 9738 H 929.178 -0.154587 -0.693991 0
M  V30 9739 H 931.78 -1.06184 -1.6415 0
M  V30 9740 H 930.484 -1.62901 -3.76685 0
M  V30 9741 H 930.015 0.0701299 -3.93337 0
M  V30 9742 H 932.03 0.907024 -4.8784 0
M  V30 9743 N 931.203 1.46865 -0.571711 0
M  V30 9744 C 932.451 2.0203 -0.0530022 0
M  V30 9745 C 932.772 1.44687 1.30731 0
M  V30 9746 O 932.042 0.627429 1.85581 0
M  V30 9747 H 930.622 0.746815 -0.0166035 0
M  V30 9748 H 933.284 1.80099 -0.745003 0
M  V30 9749 H 932.38 3.12091 0.0242538 0
M  V30 9750 N 932.681 0.308908 1.54543 0
M  V30 9751 C 934.092 -0.182144 1.85809 0
M  V30 9752 C 934.443 -1.52796 1.23076 0
M  V30 9753 O 933.568 -2.09775 0.531358 0
M  V30 9754 C 934.163 -0.337275 3.37117 0
M  V30 9755 C 932.722 -0.772545 3.68387 0
M  V30 9756 C 931.869 0.114451 2.77064 0
M  V30 9757 H 934.82 0.529671 1.496 0
M  V30 9758 H 934.841 -1.17058 3.62046 0
M  V30 9759 H 934.353 0.642382 3.82747 0
M  V30 9760 H 932.454 -1.76247 3.2828 0
M  V30 9761 H 932.567 -0.586453 4.75497 0
M  V30 9762 H 930.931 -0.407581 2.51418 0
M  V30 9763 H 931.714 1.09061 3.25516 0
M  V30 9764 N 934.159 -1.57557 0.0367827 0
M  V30 9765 C 935.57 -1.79853 -0.500971 0
M  V30 9766 C 935.921 -0.947749 -1.71791 0
M  V30 9767 O 935.046 -0.160287 -2.15806 0
M  V30 9768 C 935.641 -3.26193 -0.915626 0
M  V30 9769 C 934.2 -3.49457 -1.39845 0
M  V30 9770 C 933.347 -2.74864 -0.366784 0
M  V30 9771 H 936.298 -1.56509 0.262768 0
M  V30 9772 H 936.319 -3.36324 -1.7795 0
M  V30 9773 H 935.831 -3.88089 -0.0297227 0
M  V30 9774 H 933.932 -2.92823 -2.30402 0
M  V30 9775 H 934.045 -4.58172 -1.40054 0
M  V30 9776 H 932.409 -2.4057 -0.836554 0
M  V30 9777 H 933.192 -3.39479 0.510785 0
M  V30 9778 N 935.637 0.236453 -1.55816 0
M  V30 9779 C 937.048 0.80468 -1.68469 0
M  V30 9780 C 937.399 1.85601 -0.636133 0
M  V30 9781 O 936.524 2.15323 0.215622 0
M  V30 9782 C 937.119 1.46634 -3.05424 0
M  V30 9783 C 935.678 1.98214 -3.19981 0
M  V30 9784 C 934.825 0.83695 -2.64368 0
M  V30 9785 H 937.776 0.0120647 -1.58695 0
M  V30 9786 H 937.797 2.33472 -3.00451 0
M  V30 9787 H 937.309 0.700931 -3.81718 0
M  V30 9788 H 935.41 2.77604 -2.4853 0
M  V30 9789 H 935.523 2.17235 -4.2702 0
M  V30 9790 H 933.887 1.24028 -2.22462 0
M  V30 9791 H 934.67 0.084451 -3.43196 0
M  V30 9792 N 937.115 1.49373 0.502552 0
M  V30 9793 C 938.025 1.68659 1.63068 0
M  V30 9794 C 939.041 0.569182 1.64427 0
M  V30 9795 O 940.217 0.843695 1.82876 0
M  V30 9796 C 937.282 1.74745 2.99441 0
M  V30 9797 C 936.343 2.98311 3.08721 0
M  V30 9798 C 935.576 3.04097 4.38589 0
M  V30 9799 O 935.799 2.17519 5.27297 0
M  V30 9800 O 934.733 3.96544 4.52809 0
M  V30 9801 H 938.559 2.64226 1.49727 0
M  V30 9802 H 936.144 1.33096 0.67867 0
M  V30 9803 H 938.026 1.8111 3.80496 0
M  V30 9804 H 936.701 0.823565 3.13048 0
M  V30 9805 H 935.608 2.97465 2.2686 0
M  V30 9806 H 936.941 3.90174 3.00041 0
M  V30 9807 N 938.594 -0.753485 1.38421 0
M  V30 9808 C 939.524 -1.8808 1.38377 0
M  V30 9809 C 940.505 -1.68258 0.249664 0
M  V30 9810 O 941.69 -1.88848 0.45276 0
M  V30 9811 C 938.82 -3.25608 1.20818 0
M  V30 9812 C 937.774 -3.60032 2.31433 0
M  V30 9813 C 937.1 -4.96297 1.9898 0
M  V30 9814 C 938.4 -3.64898 3.73694 0
M  V30 9815 H 940.094 -1.88375 2.32713 0
M  V30 9816 H 937.64 -0.90489 1.12017 0
M  V30 9817 H 939.593 -4.04127 1.19412 0
M  V30 9818 H 938.317 -3.25793 0.229433 0
M  V30 9819 H 936.976 -2.83831 2.32025 0
M  V30 9820 H 936.624 -4.93043 0.995889 0
M  V30 9821 H 936.324 -5.20298 2.73063 0
M  V30 9822 H 937.848 -5.77196 1.99193 0
M  V30 9823 H 939.262 -4.33531 3.75132 0
M  V30 9824 H 937.659 -4.00407 4.46983 0
M  V30 9825 H 938.729 -2.65124 4.06002 0
M  V30 9826 N 940.072 -1.23292 -0.981677 0
M  V30 9827 C 941.002 -1.03738 -2.09191 0
M  V30 9828 C 941.983 0.0453041 -1.7004 0
M  V30 9829 O 943.168 -0.119092 -1.93834 0
M  V30 9830 C 940.298 -0.626426 -3.41604 0
M  V30 9831 C 939.252 -1.65631 -3.94652 0
M  V30 9832 C 938.578 -1.10084 -5.23245 0
M  V30 9833 C 939.878 -3.04903 -4.24066 0
M  V30 9834 H 941.572 -1.966 -2.25807 0
M  V30 9835 H 939.118 -0.946656 -1.0851 0
M  V30 9836 H 941.071 -0.476689 -4.18695 0
M  V30 9837 H 939.795 0.337873 -3.24848 0
M  V30 9838 H 938.454 -1.79402 -3.19704 0
M  V30 9839 H 938.102 -0.127562 -5.02838 0
M  V30 9840 H 937.802 -1.78896 -5.59705 0
M  V30 9841 H 939.326 -0.962928 -6.02959 0
M  V30 9842 H 940.74 -2.94441 -4.91912 0
M  V30 9843 H 939.137 -3.70941 -4.71724 0
M  V30 9844 H 940.207 -3.53991 -3.31389 0
M  V30 9845 N 941.55 1.18024 -1.04442 0
M  V30 9846 C 942.498 2.23834 -0.632557 0
M  V30 9847 C 943.492 1.65902 0.342488 0
M  V30 9848 O 944.698 1.78778 0.20937 0
M  V30 9849 H 941.073 0.728544 -0.186353 0
M  V30 9850 H 943.044 2.55876 -1.53526 0
M  V30 9851 C 941.793 3.47697 -0.0153661 0
M  V30 9852 H 941.116 3.92574 -0.756704 0
M  V30 9853 H 942.556 4.23345 0.235541 0
M  V30 9854 C 941.015 3.13416 1.23579 0
M  V30 9855 O 941.545 3.27499 2.3261 0
M  V30 9856 N 939.751 2.67708 1.13053 0
M  V30 9857 H 939.298 2.56449 0.243277 0
M  V30 9858 H 939.256 2.45143 1.96855 0
M  V30 9859 N 943.028 0.824394 1.34319 0
M  V30 9860 C 944.276 0.41235 1.97849 0
M  V30 9861 C 944.597 -1.02841 1.65677 0
M  V30 9862 O 943.867 -1.71421 0.948245 0
M  V30 9863 H 942.447 0.149486 0.73189 0
M  V30 9864 H 945.109 1.05416 1.63931 0
M  V30 9865 H 944.205 0.532557 3.07523 0
M  V30 9866 N 944.506 -1.46559 0.579492 0
M  V30 9867 C 945.454 -2.3199 -0.168413 0
M  V30 9868 C 946.448 -1.44288 -0.887551 0
M  V30 9869 O 947.654 -1.60931 -0.806305 0
M  V30 9870 H 944.029 -0.748431 -0.0731799 0
M  V30 9871 H 946 -2.92886 0.570973 0
M  V30 9872 C 944.749 -3.27392 -1.1709 0
M  V30 9873 H 944.072 -3.94853 -0.626958 0
M  V30 9874 H 945.512 -3.89955 -1.66467 0
M  V30 9875 C 943.971 -2.52511 -2.23024 0
M  V30 9876 O 944.501 -2.2858 -3.30324 0
M  V30 9877 N 942.707 -2.1313 -1.97545 0
M  V30 9878 H 942.254 -2.32793 -1.10297 0
M  V30 9879 H 942.212 -1.63348 -2.68635 0
M  V30 9880 N 945.984 -0.3171 -1.54377 0
M  V30 9881 C 947.23 0.287836 -2.00747 0
M  V30 9882 C 947.563 1.52292 -1.20502 0
M  V30 9883 O 946.838 1.92391 -0.285626 0
M  V30 9884 C 947.121 0.628423 -3.54574 0
M  V30 9885 C 946.974 -0.616922 -4.45549 0
M  V30 9886 C 948.293 1.44862 -4.15575 0
M  V30 9887 H 945.412 0.103144 -0.729747 0
M  V30 9888 H 948.054 -0.432396 -1.85014 0
M  V30 9889 H 946.204 1.24203 -3.68111 0
M  V30 9890 H 947.876 -1.25526 -4.43893 0
M  V30 9891 H 946.119 -1.24706 -4.15489 0
M  V30 9892 H 946.79 -0.334243 -5.50987 0
M  V30 9893 H 949.266 0.930015 -4.05574 0
M  V30 9894 H 948.142 1.6557 -5.23333 0
M  V30 9895 H 948.403 2.44279 -3.68484 0
M  V30 9896 N 947.462 1.57535 -0.0451378 0
M  V30 9897 C 948.409 2.11176 0.931313 0
M  V30 9898 C 949.379 1.01765 1.31275 0
M  V30 9899 O 950.564 1.29279 1.40327 0
M  V30 9900 C 947.704 2.65639 2.20295 0
M  V30 9901 C 946.817 3.89114 1.87654 0
M  V30 9902 C 945.952 4.31914 3.09232 0
M  V30 9903 C 944.991 5.48105 2.72484 0
M  V30 9904 N 944.128 5.85986 3.86736 0
M  V30 9905 H 948.968 2.94318 0.466986 0
M  V30 9906 H 946.505 1.45462 0.218886 0
M  V30 9907 H 948.463 2.95312 2.94697 0
M  V30 9908 H 947.093 1.85303 2.64316 0
M  V30 9909 H 946.145 3.6607 1.03427 0
M  V30 9910 H 947.457 4.7358 1.56601 0
M  V30 9911 H 946.611 4.63108 3.91939 0
M  V30 9912 H 945.35 3.46247 3.43459 0
M  V30 9913 H 944.355 5.16589 1.88192 0
M  V30 9914 H 945.58 6.35482 2.39455 0
M  V30 9915 H 943.526 5.03273 4.20775 0
M  V30 9916 H 943.443 6.65129 3.5936 0
M  V30 9917 H 944.711 6.21793 4.701 0
M  V30 9918 N 948.94 -0.228186 1.55939 0
M  V30 9919 C 949.85 -1.30386 1.9503 0
M  V30 9920 C 950.866 -1.51645 0.853218 0
M  V30 9921 O 952.042 -1.64904 1.15623 0
M  V30 9922 C 949.107 -2.63489 2.25332 0
M  V30 9923 C 948.168 -2.5059 3.48573 0
M  V30 9924 C 947.401 -3.77345 3.7742 0
M  V30 9925 O 947.624 -4.80067 3.08045 0
M  V30 9926 O 946.558 -3.74855 4.70922 0
M  V30 9927 H 950.384 -1.0022 2.86687 0
M  V30 9928 H 947.969 -0.430503 1.43063 0
M  V30 9929 H 949.851 -3.4211 2.46046 0
M  V30 9930 H 948.526 -2.93349 1.3685 0
M  V30 9931 H 947.433 -1.70191 3.33145 0
M  V30 9932 H 948.766 -2.2567 4.37417 0
M  V30 9933 N 950.418 -1.49637 -0.494624 0
M  V30 9934 C 951.365 -1.66776 -1.59545 0
M  V30 9935 C 952.335 -0.509159 -1.58104 0
M  V30 9936 O 953.52 -0.736949 -1.75993 0
M  V30 9937 C 950.66 -1.74624 -2.97658 0
M  V30 9938 C 949.773 -3.01831 -3.09067 0
M  V30 9939 C 948.908 -3.00619 -4.37952 0
M  V30 9940 C 947.947 -4.22378 -4.43016 0
M  V30 9941 N 947.084 -4.1904 -5.63339 0
M  V30 9942 H 951.924 -2.60767 -1.44238 0
M  V30 9943 H 949.461 -1.29286 -0.701673 0
M  V30 9944 H 951.419 -1.77156 -3.77719 0
M  V30 9945 H 950.049 -0.840936 -3.11654 0
M  V30 9946 H 949.101 -3.08881 -2.22029 0
M  V30 9947 H 950.413 -3.91823 -3.08669 0
M  V30 9948 H 949.567 -3.01749 -5.26339 0
M  V30 9949 H 948.306 -2.08416 -4.40924 0
M  V30 9950 H 947.311 -4.21485 -3.5303 0
M  V30 9951 H 948.536 -5.15781 -4.41755 0
M  V30 9952 H 946.482 -3.29677 -5.67141 0
M  V30 9953 H 946.399 -5.02774 -5.64583 0
M  V30 9954 H 947.667 -4.24281 -6.53916 0
M  V30 9955 N 951.896 0.746133 -1.38819 0
M  V30 9956 C 953.124 1.53539 -1.38685 0
M  V30 9957 C 953.539 1.88788 0.0215039 0
M  V30 9958 O 952.896 1.53312 0.990031 0
M  V30 9959 C 952.947 2.8299 -2.24942 0
M  V30 9960 O 952.668 2.49242 -3.60292 0
M  V30 9961 C 954.169 3.77085 -2.3307 0
M  V30 9962 H 951.389 0.474842 -0.474095 0
M  V30 9963 H 953.933 0.922844 -1.82493 0
M  V30 9964 H 952.088 3.40603 -1.84576 0
M  V30 9965 H 952.502 3.32319 -4.05789 0
M  V30 9966 H 953.976 4.64845 -2.97696 0
M  V30 9967 H 954.453 4.18049 -1.34655 0
M  V30 9968 H 955.059 3.25394 -2.73859 0
M  V30 9969 N 953.375 1.23811 0.975125 0
M  V30 9970 C 954.322 1.02394 2.06843 0
M  V30 9971 C 955.292 -0.060337 1.6599 0
M  V30 9972 O 956.477 0.0928187 1.90574 0
M  V30 9973 C 953.617 0.626882 3.39359 0
M  V30 9974 C 952.73 1.78385 3.9345 0
M  V30 9975 C 951.865 1.33307 5.14201 0
M  V30 9976 C 950.904 2.46045 5.60471 0
M  V30 9977 N 950.041 2.01888 6.72448 0
M  V30 9978 H 954.881 1.95973 2.24496 0
M  V30 9979 H 952.418 0.976206 1.10039 0
M  V30 9980 H 954.376 0.377742 4.15486 0
M  V30 9981 H 953.006 -0.271907 3.21653 0
M  V30 9982 H 952.058 2.14685 3.14029 0
M  V30 9983 H 953.37 2.63122 4.23755 0
M  V30 9984 H 952.524 1.04237 5.97678 0
M  V30 9985 H 951.263 0.456143 4.85562 0
M  V30 9986 H 950.268 2.75884 4.75571 0
M  V30 9987 H 951.493 3.34283 5.91127 0
M  V30 9988 H 949.439 1.16583 6.45558 0
M  V30 9989 H 949.356 2.80182 7.02164 0
M  V30 9990 H 950.624 1.75937 7.59386 0
M  V30 9991 N 954.853 -1.17469 1.05066 0
M  V30 9992 C 955.763 -2.25089 0.661222 0
M  V30 9993 C 956.779 -1.71086 -0.31712 0
M  V30 9994 O 957.955 -2.00685 -0.169534 0
M  V30 9995 C 955.02 -3.46676 0.0406415 0
M  V30 9996 C 954.081 -4.15771 1.06927 0
M  V30 9997 C 953.314 -5.31553 0.478208 0
M  V30 9998 O 953.537 -5.6593 -0.712714 0
M  V30 9999 O 952.471 -5.89574 1.21185 0
M  V30 10000 H 956.297 -2.60685 1.5581 0
M  V30 10001 H 953.882 -1.24744 0.822147 0
M  V30 10002 H 955.764 -4.203 -0.304312 0
M  V30 10003 H 954.439 -3.1288 -0.829909 0
M  V30 10004 H 953.346 -3.44171 1.46619 0
M  V30 10005 H 954.679 -4.53591 1.91092 0
M  V30 10006 N 956.331 -0.831506 -1.3388 0
M  V30 10007 C 957.241 -0.261688 -2.33136 0
M  V30 10008 C 958.257 0.608429 -1.63016 0
M  V30 10009 O 959.433 0.514297 -1.94723 0
M  V30 10010 C 956.498 0.559957 -3.42148 0
M  V30 10011 C 955.559 -0.333569 -4.28002 0
M  V30 10012 C 954.792 0.448956 -5.31808 0
M  V30 10013 O 955.015 1.6814 -5.45055 0
M  V30 10014 O 953.949 -0.173197 -6.01651 0
M  V30 10015 H 957.775 -1.08343 -2.83717 0
M  V30 10016 H 955.36 -0.593849 -1.3709 0
M  V30 10017 H 957.242 1.02712 -4.08691 0
M  V30 10018 H 955.917 1.35888 -2.93796 0
M  V30 10019 H 954.824 -0.848416 -3.64352 0
M  V30 10020 H 956.157 -1.09707 -4.79818 0
M  V30 10021 N 957.809 1.4625 -0.587256 0
M  V30 10022 C 959.039 2.06444 -0.0802135 0
M  V30 10023 C 959.447 1.43585 1.23207 0
M  V30 10024 O 958.79 0.536956 1.75677 0
M  V30 10025 C 958.852 3.59165 0.155129 0
M  V30 10026 C 958.516 4.44243 -1.07225 0
M  V30 10027 C 959.513 4.80497 -1.98542 0
M  V30 10028 C 957.198 4.8531 -1.29537 0
M  V30 10029 C 959.192 5.56649 -3.10516 0
M  V30 10030 C 956.879 5.61221 -2.41815 0
M  V30 10031 C 957.877 5.96805 -3.32134 0
M  V30 10032 O 957.565 6.71181 -4.42461 0
M  V30 10033 H 957.297 0.673626 -0.0566063 0
M  V30 10034 H 959.851 1.88797 -0.809004 0
M  V30 10035 H 958.081 3.75137 0.938583 0
M  V30 10036 H 959.77 4.01271 0.611243 0
M  V30 10037 H 960.536 4.49345 -1.82522 0
M  V30 10038 H 956.415 4.5706 -0.601431 0
M  V30 10039 H 959.959 5.84343 -3.81037 0
M  V30 10040 H 955.856 5.91786 -2.57797 0
M  V30 10041 H 956.624 6.8961 -4.40886 0
M  V30 10042 N 959.287 0.325282 1.54207 0
M  V30 10043 C 960.535 -0.276229 2.00203 0
M  V30 10044 C 960.856 -1.52519 1.21503 0
M  V30 10045 O 960.126 -1.93313 0.317302 0
M  V30 10046 H 958.706 -0.105059 0.739575 0
M  V30 10047 H 961.368 0.442225 1.89817 0
M  V30 10048 H 960.464 -0.531427 3.07542 0
M  V30 10049 N 960.765 -1.57509 0.0534917 0
M  V30 10050 C 961.715 -2.08179 -0.929802 0
M  V30 10051 C 962.699 -0.987451 -1.27036 0
M  V30 10052 O 963.891 -1.25076 -1.2524 0
M  V30 10053 C 961.02 -2.63221 -2.20385 0
M  V30 10054 C 960.106 -3.79629 -1.89058 0
M  V30 10055 N 960.497 -4.8931 -1.28101 0
M  V30 10056 C 958.795 -3.88578 -2.18914 0
M  V30 10057 C 959.496 -5.70329 -1.14455 0
M  V30 10058 N 958.472 -5.18011 -1.64821 0
M  V30 10059 H 962.274 -2.90374 -0.453874 0
M  V30 10060 H 959.788 -1.61697 -0.150899 0
M  V30 10061 H 961.785 -2.97827 -2.91727 0
M  V30 10062 H 960.445 -1.82466 -2.68582 0
M  V30 10063 H 961.456 -5.09058 -0.952924 0
M  V30 10064 H 958.133 -3.18769 -2.69616 0
M  V30 10065 H 959.523 -6.6854 -0.671129 0
M  V30 10066 N 962.243 0.219913 -1.56058 0
M  V30 10067 C 963.468 0.965073 -1.83579 0
M  V30 10068 C 963.893 1.77092 -0.634024 0
M  V30 10069 O 963.251 1.76434 0.417205 0
M  V30 10070 C 963.299 1.85705 -3.09105 0
M  V30 10071 O 962.403 2.95261 -2.87914 0
M  V30 10072 H 961.744 0.273173 -0.605204 0
M  V30 10073 H 964.274 0.23273 -2.03272 0
M  V30 10074 H 964.284 2.26655 -3.39252 0
M  V30 10075 H 962.959 1.26476 -3.96203 0
M  V30 10076 H 961.536 2.58246 -2.69005 0
M  V30 10077 N 963.721 1.49897 0.486681 0
M  V30 10078 C 964.631 1.70379 1.6127 0
M  V30 10079 C 965.647 0.58659 1.63814 0
M  V30 10080 O 966.823 0.863044 1.81971 0
M  V30 10081 C 963.888 1.77911 2.97571 0
M  V30 10082 C 962.949 3.01569 3.0554 0
M  V30 10083 C 962.182 3.08732 4.35339 0
M  V30 10084 O 962.405 2.23099 5.2496 0
M  V30 10085 O 961.339 4.01325 4.48578 0
M  V30 10086 H 965.165 2.65799 1.46916 0
M  V30 10087 H 962.75 1.33808 0.664516 0
M  V30 10088 H 964.632 1.85135 3.78554 0
M  V30 10089 H 963.307 0.856722 3.12157 0
M  V30 10090 H 962.214 2.99854 2.23693 0
M  V30 10091 H 963.547 3.93335 2.95886 0
M  V30 10092 N 965.199 -0.738761 1.39212 0
M  V30 10093 C 966.445 -1.50046 1.36433 0
M  V30 10094 C 966.778 -1.94157 -0.0409474 0
M  V30 10095 O 966.053 -1.66515 -1.00514 0
M  V30 10096 C 966.336 -2.74277 2.33333 0
M  V30 10097 C 966.189 -2.36209 3.82786 0
M  V30 10098 C 967.508 -3.76361 2.28123 0
M  V30 10099 H 964.627 -0.544294 0.496903 0
M  V30 10100 H 967.269 -0.845005 1.70175 0
M  V30 10101 H 965.419 -3.30204 2.04689 0
M  V30 10102 H 967.091 -1.85942 4.22165 0
M  V30 10103 H 965.334 -1.68483 3.99745 0
M  V30 10104 H 966.005 -3.25156 4.46069 0
M  V30 10105 H 968.481 -3.30009 2.53443 0
M  V30 10106 H 967.357 -4.60957 2.9801 0
M  V30 10107 H 967.618 -4.23013 1.28499 0
M  V30 10108 N 966.677 -1.24326 -0.968545 0
M  V30 10109 C 967.923 -1.08406 -1.71394 0
M  V30 10110 C 968.256 0.376353 -1.90518 0
M  V30 10111 O 967.531 1.27816 -1.46606 0
M  V30 10112 C 967.814 -1.82344 -3.1052 0
M  V30 10113 C 967.667 -3.3613 -2.98893 0
M  V30 10114 C 968.986 -1.59545 -4.10163 0
M  V30 10115 H 966.105 -0.395205 -0.622079 0
M  V30 10116 H 968.747 -1.52983 -1.12677 0
M  V30 10117 H 966.897 -1.44452 -3.60646 0
M  V30 10118 H 968.569 -3.83614 -2.56199 0
M  V30 10119 H 966.812 -3.64553 -2.35124 0
M  V30 10120 H 967.483 -3.83064 -3.97449 0
M  V30 10121 H 969.959 -1.92504 -3.68892 0
M  V30 10122 H 968.835 -2.13736 -5.05577 0
M  V30 10123 H 969.096 -0.533503 -4.38869 0
M  V30 10124 N 968.156 1.1691 -1.05688 0
M  V30 10125 C 969.066 2.24735 -0.67315 0
M  V30 10126 C 970.082 1.71252 0.308043 0
M  V30 10127 O 971.258 2.00772 0.158889 0
M  V30 10128 C 968.323 3.4665 -0.059026 0
M  V30 10129 C 967.384 4.15198 -1.0913 0
M  V30 10130 C 966.617 5.31292 -0.50639 0
M  V30 10131 O 966.84 5.663 0.682692 0
M  V30 10132 O 965.774 5.88923 -1.2431 0
M  V30 10133 H 969.6 2.59855 -1.57191 0
M  V30 10134 H 967.185 1.24306 -0.828751 0
M  V30 10135 H 969.067 4.20455 0.282018 0
M  V30 10136 H 967.742 3.13316 0.813304 0
M  V30 10137 H 966.649 3.43389 -1.48442 0
M  V30 10138 H 967.982 4.52571 -1.93495 0
M  V30 10139 N 969.634 0.838594 1.33437 0
M  V30 10140 C 970.864 0.446995 2.01707 0
M  V30 10141 C 971.272 -0.956335 1.63251 0
M  V30 10142 O 970.615 -1.63289 0.841566 0
M  V30 10143 C 970.677 0.487707 3.56176 0
M  V30 10144 C 970.341 1.8471 4.18009 0
M  V30 10145 C 971.338 2.81028 4.374 0
M  V30 10146 C 969.023 2.13987 4.54439 0
M  V30 10147 C 971.017 4.04785 4.92369 0
M  V30 10148 C 968.704 3.38 5.09116 0
M  V30 10149 C 969.702 4.33216 5.28027 0
M  V30 10150 O 969.39 5.55036 5.81541 0
M  V30 10151 H 969.122 0.175799 0.652741 0
M  V30 10152 H 971.676 1.13265 1.71348 0
M  V30 10153 H 969.906 -0.254719 3.8586 0
M  V30 10154 H 971.595 0.113971 4.0574 0
M  V30 10155 H 972.361 2.5971 4.09604 0
M  V30 10156 H 968.24 1.40668 4.39014 0
M  V30 10157 H 971.784 4.79114 5.07046 0
M  V30 10158 H 967.681 3.59175 5.36343 0
M  V30 10159 H 968.449 5.56772 5.99956 0
M  V30 10160 N 971.112 -1.45937 0.595003 0
M  V30 10161 C 972.342 -2.06399 0.0911607 0
M  V30 10162 C 972.75 -1.44236 -1.22444 0
M  V30 10163 O 972.093 -0.546265 -1.7539 0
M  V30 10164 C 972.155 -3.59242 -0.136079 0
M  V30 10165 C 971.819 -4.43668 1.09579 0
M  V30 10166 C 972.816 -4.79437 2.01088 0
M  V30 10167 C 970.501 -4.84616 1.32109 0
M  V30 10168 C 972.495 -5.54995 3.13464 0
M  V30 10169 C 970.182 -5.5993 2.44788 0
M  V30 10170 C 971.18 -5.95035 3.35294 0
M  V30 10171 O 970.868 -6.68825 4.46014 0
M  V30 10172 H 970.6 -0.673316 0.0601779 0
M  V30 10173 H 973.154 -1.88365 0.819005 0
M  V30 10174 H 971.384 -3.75629 -0.918676 0
M  V30 10175 H 973.073 -4.0159 -0.589954 0
M  V30 10176 H 973.839 -4.48371 1.84902 0
M  V30 10177 H 969.718 -4.56735 0.625662 0
M  V30 10178 H 973.262 -5.82314 3.84131 0
M  V30 10179 H 969.159 -5.90411 2.60931 0
M  V30 10180 H 969.927 -6.87262 4.44537 0
M  V30 10181 N 972.59 -0.333456 -1.54032 0
M  V30 10182 C 973.83 0.266604 -2.02654 0
M  V30 10183 C 974.194 1.48568 -1.21621 0
M  V30 10184 O 975.395 2.15925 -1.60093 0
M  V30 10185 C 973.666 0.582825 -3.52616 0
M  V30 10186 S 975.225 1.16113 -4.23159 0
M  V30 10187 H 972.043 0.0800344 -0.706481 0
M  V30 10188 H 974.645 -0.468876 -1.89794 0
M  V30 10189 H 973.349 -0.312401 -4.09209 0
M  V30 10190 H 972.88 1.34824 -3.69576 0
M  V30 10191 H 974.895 2.44743 -4.31642 0
M  V30 10192 N 974.068 1.57479 -0.061844 0
M  V30 10193 C 975.016 2.13346 0.926629 0
M  V30 10194 C 976.01 1.06787 1.31502 0
M  V30 10195 O 977.216 1.25181 1.29343 0
M  V30 10196 H 973.591 0.682046 0.316729 0
M  V30 10197 H 975.562 2.95279 0.430424 0
M  V30 10198 C 974.311 2.70198 2.18834 0
M  V30 10199 H 973.634 3.51859 1.89829 0
M  V30 10200 H 975.074 3.12897 2.86132 0
M  V30 10201 C 973.533 1.64481 2.9402 0
M  V30 10202 O 974.063 1.0639 3.87355 0
M  V30 10203 N 972.269 1.35749 2.56944 0
M  V30 10204 H 971.816 1.83177 1.81119 0
M  V30 10205 H 971.774 0.652469 3.07555 0
M  V30 10206 N 975.546 -0.211634 1.56173 0
M  V30 10207 C 976.957 -0.777776 1.69728 0
M  V30 10208 C 977.308 -1.84566 0.66558 0
M  V30 10209 O 976.433 -2.15639 -0.181338 0
M  V30 10210 C 977.028 -1.41757 3.07718 0
M  V30 10211 C 975.587 -1.93098 3.23094 0
M  V30 10212 C 974.734 -0.794785 2.65666 0
M  V30 10213 H 977.685 0.0131839 1.58695 0
M  V30 10214 H 977.706 -2.28662 3.04128 0
M  V30 10215 H 977.218 -0.640114 3.82785 0
M  V30 10216 H 975.319 -2.73615 2.52914 0
M  V30 10217 H 975.432 -2.10414 4.30422 0
M  V30 10218 H 973.796 -1.20473 2.24407 0
M  V30 10219 H 974.579 -0.0298408 3.43287 0
M  V30 10220 N 977.024 -1.50153 -0.478725 0
M  V30 10221 C 978.44 -1.3741 -0.811833 0
M  V30 10222 C 978.64 -0.424303 -1.96982 0
M  V30 10223 O 977.696 0.13588 -2.52134 0
M  V30 10224 C 979.009 -2.78616 -1.13108 0
M  V30 10225 C 980.557 -2.87477 -1.23798 0
M  V30 10226 C 981.032 -4.295 -1.5904 0
M  V30 10227 N 982.523 -4.32415 -1.66047 0
M  V30 10228 C 983.258 -5.39295 -1.94805 0
M  V30 10229 N 982.754 -6.56392 -2.21635 0
M  V30 10230 N 984.547 -5.26731 -1.96243 0
M  V30 10231 H 976.698 -2.10486 0.284531 0
M  V30 10232 H 978.961 -0.945786 0.0647585 0
M  V30 10233 H 978.667 -3.49921 -0.35334 0
M  V30 10234 H 978.541 -3.15382 -2.06915 0
M  V30 10235 H 980.928 -2.16396 -2.00641 0
M  V30 10236 H 981.009 -2.54264 -0.279888 0
M  V30 10237 H 980.653 -5.01115 -0.827404 0
M  V30 10238 H 980.583 -4.60194 -2.55987 0
M  V30 10239 H 983.074 -3.47975 -1.47383 0
M  V30 10240 H 983.387 -7.33658 -2.4283 0
M  V30 10241 H 981.732 -6.59579 -2.19043 0
M  V30 10242 H 984.923 -4.34249 -1.74773 0
M  V30 10243 H 985.096 -6.10115 -2.1832 0
M  V30 10244 N 978.502 0.731368 -1.39602 0
M  V30 10245 C 979.749 1.491 -1.37024 0
M  V30 10246 C 980.077 1.94473 0.0326423 0
M  V30 10247 O 979.332 1.6737 1.01418 0
M  V30 10248 C 979.631 2.74224 -2.29208 0
M  V30 10249 C 979.297 2.477 -3.7677 0
M  V30 10250 C 977.959 2.40175 -4.16976 0
M  V30 10251 C 980.311 2.25098 -4.70086 0
M  V30 10252 C 977.639 2.08095 -5.48556 0
M  V30 10253 C 979.991 1.94534 -6.01946 0
M  V30 10254 C 978.655 1.85481 -6.41212 0
M  V30 10255 H 977.925 0.545595 -0.501405 0
M  V30 10256 H 980.572 0.839127 -1.72136 0
M  V30 10257 H 978.877 3.44171 -1.87225 0
M  V30 10258 H 980.574 3.32264 -2.24504 0
M  V30 10259 H 977.164 2.54436 -3.44906 0
M  V30 10260 H 981.348 2.29876 -4.39853 0
M  V30 10261 H 976.604 1.99611 -5.77897 0
M  V30 10262 H 980.778 1.76054 -6.73779 0
M  V30 10263 H 978.405 1.60389 -7.43088 0
M  V30 10264 N 979.98 1.24838 0.961938 0
M  V30 10265 C 980.91 1.07053 2.07514 0
M  V30 10266 C 981.891 -0.0182465 1.7009 0
M  V30 10267 O 983.076 0.149915 1.9362 0
M  V30 10268 C 980.206 0.680693 3.40564 0
M  V30 10269 C 979.16 1.71889 3.91967 0
M  V30 10270 C 978.486 1.18395 5.21428 0
M  V30 10271 C 979.786 3.1161 4.19161 0
M  V30 10272 H 981.48 2.00167 2.22651 0
M  V30 10273 H 979.026 0.963799 1.0699 0
M  V30 10274 H 980.979 0.54324 4.17884 0
M  V30 10275 H 979.703 -0.28615 3.25344 0
M  V30 10276 H 978.362 1.84465 3.16809 0
M  V30 10277 H 978.01 0.207543 5.02572 0
M  V30 10278 H 977.71 1.87778 5.56788 0
M  V30 10279 H 979.234 1.05873 6.01351 0
M  V30 10280 H 980.648 3.0223 4.87165 0
M  V30 10281 H 979.045 3.78398 4.65763 0
M  V30 10282 H 980.115 3.59218 3.25715 0
M  V30 10283 N 981.458 -1.16348 1.06306 0
M  V30 10284 C 982.391 -2.19667 0.618197 0
M  V30 10285 C 983.369 -1.58586 -0.359078 0
M  V30 10286 O 984.553 -1.86585 -0.268023 0
M  V30 10287 C 981.68 -3.3857 -0.0937091 0
M  V30 10288 C 980.726 -4.18139 0.840339 0
M  V30 10289 S 981.559 -4.81879 2.33565 0
M  V30 10290 C 982.715 -6.04161 1.63524 0
M  V30 10291 H 982.948 -2.57063 1.49352 0
M  V30 10292 H 980.481 -1.27141 0.876046 0
M  V30 10293 H 982.439 -4.07465 -0.498227 0
M  V30 10294 H 981.1 -2.9954 -0.94523 0
M  V30 10295 H 980.293 -5.03172 0.288781 0
M  V30 10296 H 979.895 -3.54739 1.18474 0
M  V30 10297 H 982.187 -6.70935 0.940904 0
M  V30 10298 H 983.13 -6.63866 2.46347 0
M  V30 10299 H 983.538 -5.53323 1.11778 0
M  V30 10300 N 982.937 -0.845659 -1.3299 0
M  V30 10301 C 983.884 -0.281761 -2.29074 0
M  V30 10302 C 984.854 0.606237 -1.54641 0
M  V30 10303 O 986.039 0.543063 -1.82908 0
M  V30 10304 C 983.179 0.531451 -3.40983 0
M  V30 10305 C 982.292 -0.381328 -4.30314 0
M  V30 10306 C 981.427 0.443643 -5.29344 0
M  V30 10307 C 980.466 -0.467101 -6.10315 0
M  V30 10308 N 979.603 0.320148 -7.0137 0
M  V30 10309 H 984.443 -1.10641 -2.76699 0
M  V30 10310 H 981.98 -0.55706 -1.36144 0
M  V30 10311 H 983.938 1.01848 -4.04577 0
M  V30 10312 H 982.568 1.32101 -2.94532 0
M  V30 10313 H 981.62 -0.986701 -3.6738 0
M  V30 10314 H 982.932 -1.08067 -4.86953 0
M  V30 10315 H 982.086 0.994212 -5.98498 0
M  V30 10316 H 980.825 1.17639 -4.73299 0
M  V30 10317 H 979.83 -1.02963 -5.40073 0
M  V30 10318 H 981.055 -1.19832 -6.68444 0
M  V30 10319 H 979.001 1.03615 -6.47765 0
M  V30 10320 H 978.918 -0.320338 -7.55321 0
M  V30 10321 H 980.186 0.852735 -7.74822 0
M  V30 10322 N 984.415 1.45619 -0.602734 0
M  V30 10323 C 985.663 2.01873 -0.095844 0
M  V30 10324 C 985.984 1.47427 1.27633 0
M  V30 10325 O 985.254 0.666652 1.84208 0
M  V30 10326 H 983.834 0.746295 -0.0324408 0
M  V30 10327 H 986.496 1.78478 -0.783037 0
M  V30 10328 H 985.592 3.12072 -0.0419507 0
M  V30 10329 N 985.893 0.34162 1.53853 0
M  V30 10330 C 987.304 -0.14269 1.86154 0
M  V30 10331 C 987.655 -1.50151 1.2629 0
M  V30 10332 O 986.78 -2.08601 0.575735 0
M  V30 10333 C 987.375 -0.265691 3.37757 0
M  V30 10334 C 985.934 -0.694231 3.69942 0
M  V30 10335 C 985.081 0.173195 2.76759 0
M  V30 10336 H 988.032 0.561284 1.48443 0
M  V30 10337 H 988.053 -1.09352 3.64448 0
M  V30 10338 H 987.565 0.723424 3.81298 0
M  V30 10339 H 985.666 -1.69244 3.31945 0
M  V30 10340 H 985.779 -0.485461 4.76634 0
M  V30 10341 H 984.143 -0.35416 2.52226 0
M  V30 10342 H 984.926 1.15941 3.23129 0
M  V30 10343 N 987.371 -1.57444 0.0701946 0
M  V30 10344 C 988.319 -2.13834 -0.915302 0
M  V30 10345 C 989.313 -1.07483 -1.30934 0
M  V30 10346 O 990.519 -1.25865 -1.28678 0
M  V30 10347 H 986.894 -0.683716 -0.313108 0
M  V30 10348 H 988.865 -2.95503 -0.414758 0
M  V30 10349 C 987.614 -2.71355 -2.17398 0
M  V30 10350 H 986.937 -3.52861 -1.87961 0
M  V30 10351 H 988.377 -3.1441 -2.84469 0
M  V30 10352 C 986.836 -1.66038 -2.93143 0
M  V30 10353 O 987.366 -1.08443 -3.86786 0
M  V30 10354 N 985.572 -1.3711 -2.56221 0
M  V30 10355 H 985.119 -1.84135 -1.80145 0
M  V30 10356 H 985.077 -0.66877 -3.07205 0
M  V30 10357 N 988.849 0.203349 -1.56283 0
M  V30 10358 C 989.796 1.25205 -1.93888 0
M  V30 10359 C 990.766 1.45654 -0.798376 0
M  V30 10360 O 991.951 1.58924 -1.05583 0
M  V30 10361 C 989.091 2.59355 -2.27659 0
M  V30 10362 C 988.204 2.46553 -3.54733 0
M  V30 10363 C 987.339 3.73351 -3.77865 0
M  V30 10364 C 986.378 3.55347 -4.98392 0
M  V30 10365 N 985.515 4.74137 -5.17821 0
M  V30 10366 H 990.355 0.924356 -2.83301 0
M  V30 10367 H 987.892 0.445082 -1.40205 0
M  V30 10368 H 989.85 3.375 -2.45254 0
M  V30 10369 H 988.48 2.90184 -1.41396 0
M  V30 10370 H 987.532 1.59749 -3.45231 0
M  V30 10371 H 988.844 2.2918 -4.43033 0
M  V30 10372 H 987.998 4.59937 -3.95655 0
M  V30 10373 H 986.737 3.9367 -2.8788 0
M  V30 10374 H 985.742 2.67146 -4.80534 0
M  V30 10375 H 986.967 3.36482 -5.89879 0
M  V30 10376 H 984.913 4.94735 -4.30782 0
M  V30 10377 H 984.83 4.59558 -6.00285 0
M  V30 10378 H 986.098 5.62098 -5.40061 0
M  V30 10379 N 990.327 1.50405 0.470755 0
M  V30 10380 C 991.576 1.60652 1.21959 0
M  V30 10381 C 991.889 0.312521 1.93087 0
M  V30 10382 O 993.095 0.293901 2.69905 0
M  V30 10383 C 991.551 2.83581 2.21607 0
M  V30 10384 C 991.159 4.19858 1.5628 0
M  V30 10385 C 992.903 3.03173 2.9713 0
M  V30 10386 C 990.81 5.33974 2.54217 0
M  V30 10387 H 989.74 0.598264 0.458907 0
M  V30 10388 H 992.391 1.76836 0.490041 0
M  V30 10389 H 990.773 2.60957 2.97855 0
M  V30 10390 H 991.947 4.52738 0.85819 0
M  V30 10391 H 990.262 4.05873 0.930366 0
M  V30 10392 H 992.859 3.856 3.70428 0
M  V30 10393 H 993.202 2.14914 3.56536 0
M  V30 10394 H 993.735 3.2598 2.27995 0
M  V30 10395 H 990.474 6.24388 1.99549 0
M  V30 10396 H 989.994 5.05511 3.22829 0
M  V30 10397 H 991.673 5.64561 3.16039 0
M  V30 10398 N 991.805 -0.723954 1.39988 0
M  V30 10399 C 992.737 -1.84859 1.35498 0
M  V30 10400 C 993.75 -1.60681 0.261812 0
M  V30 10401 O 994.939 -1.7071 0.521566 0
M  V30 10402 C 992.039 -3.21103 1.08381 0
M  V30 10403 C 991.212 -3.72546 2.2919 0
M  V30 10404 C 990.271 -4.8738 1.9836 0
M  V30 10405 O 989.297 -5.00467 2.71149 0
M  V30 10406 N 990.499 -5.72566 0.956461 0
M  V30 10407 H 993.264 -1.89212 2.3242 0
M  V30 10408 H 990.825 -0.905152 1.34233 0
M  V30 10409 H 992.817 -3.9551 0.857564 0
M  V30 10410 H 991.387 -3.1195 0.201549 0
M  V30 10411 H 990.607 -2.89365 2.67697 0
M  V30 10412 H 991.895 -4.03652 3.09746 0
M  V30 10413 H 991.293 -5.64595 0.353444 0
M  V30 10414 H 989.85 -6.46993 0.790118 0
M  V30 10415 N 993.283 -1.25346 -0.955304 0
M  V30 10416 C 994.523 -1.11259 -1.71467 0
M  V30 10417 C 994.887 0.340759 -1.88952 0
M  V30 10418 O 996.088 0.60344 -2.61939 0
M  V30 10419 C 994.359 -1.84541 -3.06071 0
M  V30 10420 S 995.918 -1.86337 -3.97271 0
M  V30 10421 H 992.736 -0.397683 -0.58938 0
M  V30 10422 H 995.338 -1.58861 -1.13945 0
M  V30 10423 H 994.042 -2.89377 -2.91014 0
M  V30 10424 H 993.573 -1.37323 -3.68654 0
M  V30 10425 H 995.588 -0.939925 -4.87216 0
M  V30 10426 N 994.761 1.15782 -1.06922 0
M  V30 10427 C 996.007 1.86741 -0.790922 0
M  V30 10428 C 996.34 1.81863 0.681149 0
M  V30 10429 O 995.615 1.23871 1.49954 0
M  V30 10430 C 995.898 3.36038 -1.29422 0
M  V30 10431 C 995.751 3.49573 -2.83052 0
M  V30 10432 C 997.07 4.30647 -0.907239 0
M  V30 10433 H 994.189 0.678064 -0.288787 0
M  V30 10434 H 996.831 1.36054 -1.32624 0
M  V30 10435 H 994.981 3.79336 -0.838843 0
M  V30 10436 H 996.653 3.1517 -3.36847 0
M  V30 10437 H 994.896 2.91275 -3.21467 0
M  V30 10438 H 995.567 4.5445 -3.13335 0
M  V30 10439 H 998.043 3.95286 -1.29956 0
M  V30 10440 H 996.919 5.33604 -1.28679 0
M  V30 10441 H 997.18 4.41703 0.187251 0
M  V30 10442 N 996.239 0.8527 1.3254 0
M  V30 10443 C 997.516 0.376491 1.91942 0
M  V30 10444 C 997.896 -1.13972 1.7769 0
M  V30 10445 O 997.244 -1.96047 1.17379 0
M  V30 10446 C 997.454 0.838694 3.38773 0
M  V30 10447 C 998.802 0.854736 4.15908 0
M  V30 10448 O 999.826 0.783203 3.47483 0
M  V30 10449 O 998.685 0.955207 5.38087 0
M  V30 10450 H 995.779 0.109412 0.81973 0
M  V30 10451 H 998.325 0.93947 1.41322 0
M  V30 10452 H 997.097 1.88179 3.43081 0
M  V30 10453 H 996.72 0.253055 3.96794 0
M  V30 10454 N 997.718 -1.45297 0.610449 0
M  V30 10455 C 998.966 -2.01819 0.106548 0
M  V30 10456 C 999.287 -1.48102 -1.26849 0
M  V30 10457 O 998.557 -0.676411 -1.83852 0
M  V30 10458 H 997.137 -0.746113 0.0363982 0
M  V30 10459 H 999.799 -1.78061 0.792491 0
M  V30 10460 H 998.895 -3.12045 0.0585 0
M  V30 10461 N 999.196 -0.349774 -1.5367 0
M  V30 10462 C 1000.11 0.512421 -2.28935 0
M  V30 10463 C 1001.12 1.1065 -1.34286 0
M  V30 10464 O 1002.3 1.12084 -1.67329 0
M  V30 10465 C 999.363 1.64449 -3.05217 0
M  V30 10466 C 998.424 1.07956 -4.15505 0
M  V30 10467 C 997.657 2.15768 -4.88139 0
M  V30 10468 O 997.88 3.366 -4.60496 0
M  V30 10469 O 996.814 1.79712 -5.74445 0
M  V30 10470 H 1000.64 -0.0996001 -3.03537 0
M  V30 10471 H 998.225 -0.114629 -1.4896 0
M  V30 10472 H 1000.11 2.30302 -3.52901 0
M  V30 10473 H 998.782 2.24221 -2.33467 0
M  V30 10474 H 997.689 0.385381 -3.7211 0
M  V30 10475 H 999.022 0.526621 -4.89375 0
M  V30 10476 N 1000.67 1.57404 -0.0785433 0
M  V30 10477 C 1001.92 1.9484 0.583853 0
M  V30 10478 C 1002.27 0.958758 1.6681 0
M  V30 10479 O 1001.57 -0.0179065 1.91592 0
M  V30 10480 C 1001.76 3.36684 1.1991 0
M  V30 10481 C 1001.59 4.49356 0.175978 0
M  V30 10482 C 1000.36 5.04721 -0.241733 0
M  V30 10483 C 1002.56 5.10911 -0.589415 0
M  V30 10484 N 1000.54 6.00938 -1.25485 0
M  V30 10485 C 1001.91 6.0269 -1.45483 0
M  V30 10486 C 1003.97 4.93708 -0.644746 0
M  V30 10487 C 1002.67 6.79111 -2.37066 0
M  V30 10488 C 1004.7 5.70778 -1.54812 0
M  V30 10489 C 1004.06 6.6221 -2.40119 0
M  V30 10490 H 1000.16 0.75993 0.184472 0
M  V30 10491 H 1002.74 1.94064 -0.157259 0
M  V30 10492 H 1000.91 3.38186 1.91011 0
M  V30 10493 H 1002.64 3.6134 1.82251 0
M  V30 10494 H 999.399 4.73385 0.142732 0
M  V30 10495 H 999.823 6.53746 -1.75912 0
M  V30 10496 H 1004.46 4.228 0.000601434 0
M  V30 10497 H 1002.18 7.49292 -3.02634 0
M  V30 10498 H 1005.77 5.59485 -1.59586 0
M  V30 10499 H 1004.65 7.20804 -3.08887 0
M  V30 10500 N 1002.15 -0.195058 1.56388 0
M  V30 10501 C 1003.38 -0.931642 1.84738 0
M  V30 10502 C 1003.79 -1.76849 0.661046 0
M  V30 10503 O 1003.15 -1.78705 -0.370241 0
M  V30 10504 C 1003.2 -1.82777 3.11889 0
M  V30 10505 O 1002.92 -1.02471 4.25948 0
M  V30 10506 C 1004.42 -2.67603 3.53417 0
M  V30 10507 H 1001.64 -0.271821 0.613477 0
M  V30 10508 H 1004.19 -0.202299 2.03497 0
M  V30 10509 H 1002.34 -2.51074 2.95027 0
M  V30 10510 H 1002.76 -1.63539 4.98353 0
M  V30 10511 H 1004.23 -3.26138 4.45352 0
M  V30 10512 H 1004.71 -3.41314 2.76408 0
M  V30 10513 H 1005.31 -2.04678 3.7281 0
M  V30 10514 N 1003.63 -1.50653 -0.462772 0
M  V30 10515 C 1004.86 -1.65826 -1.23731 0
M  V30 10516 C 1005.27 -0.345002 -1.85621 0
M  V30 10517 O 1004.63 0.673935 -1.69601 0
M  V30 10518 C 1004.68 -2.7555 -2.33997 0
M  V30 10519 O 1004.4 -4.01785 -1.74643 0
M  V30 10520 C 1005.9 -3.0177 -3.2473 0
M  V30 10521 H 1003.12 -0.557177 -0.373892 0
M  V30 10522 H 1005.67 -1.96925 -0.551434 0
M  V30 10523 H 1003.82 -2.47122 -2.98345 0
M  V30 10524 H 1004.24 -4.62529 -2.4732 0
M  V30 10525 H 1005.71 -3.82188 -3.98292 0
M  V30 10526 H 1006.19 -2.13167 -3.84001 0
M  V30 10527 H 1006.79 -3.31761 -2.66111 0
M  V30 10528 N 1005.11 0.71652 -1.4037 0
M  V30 10529 C 1006.04 1.84345 -1.43315 0
M  V30 10530 C 1007.02 1.67537 -0.294186 0
M  V30 10531 O 1008.2 1.87582 -0.502671 0
M  V30 10532 C 1005.33 3.2229 -1.29408 0
M  V30 10533 C 1004.29 3.53769 -2.40897 0
M  V30 10534 C 1003.61 4.90847 -2.12068 0
M  V30 10535 C 1004.91 3.54862 -3.83237 0
M  V30 10536 H 1006.61 1.82138 -2.37626 0
M  V30 10537 H 1004.15 0.874873 -1.14376 0
M  V30 10538 H 1006.11 4.00819 -1.30085 0
M  V30 10539 H 1004.83 3.2507 -0.31573 0
M  V30 10540 H 1003.49 2.77579 -2.39469 0
M  V30 10541 H 1003.14 4.90229 -1.12626 0
M  V30 10542 H 1002.84 5.12875 -2.86762 0
M  V30 10543 H 1004.36 5.71711 -2.14426 0
M  V30 10544 H 1005.78 4.23432 -3.86494 0
M  V30 10545 H 1004.17 3.88416 -4.57442 0
M  V30 10546 H 1005.24 2.54266 -4.12888 0
M  V30 10547 N 1006.59 1.25851 0.948643 0
M  V30 10548 C 1008 1.09975 1.50872 0
M  V30 10549 C 1008.35 -0.322497 1.93531 0
M  V30 10550 O 1007.47 -1.21316 1.79197 0
M  V30 10551 C 1008.07 1.99021 2.74182 0
M  V30 10552 C 1006.63 1.87313 3.26483 0
M  V30 10553 C 1005.77 1.92815 1.99293 0
M  V30 10554 H 1008.73 1.3905 0.764908 0
M  V30 10555 H 1008.75 1.53372 3.4822 0
M  V30 10556 H 1008.26 3.02527 2.43103 0
M  V30 10557 H 1006.36 0.867136 3.62369 0
M  V30 10558 H 1006.47 2.72446 3.94094 0
M  V30 10559 H 1004.84 1.36774 2.1486 0
M  V30 10560 H 1005.62 2.97936 1.70554 0
M  V30 10561 N 1008.06 -1.15214 1.07534 0
M  V30 10562 C 1009.31 -1.86319 0.800814 0
M  V30 10563 C 1009.64 -1.82221 -0.671494 0
M  V30 10564 O 1008.92 -1.24664 -1.49295 0
M  V30 10565 C 1009.2 -3.35347 1.31203 0
M  V30 10566 C 1009.05 -3.48067 2.84902 0
M  V30 10567 C 1010.37 -4.3016 0.930064 0
M  V30 10568 H 1007.49 -0.676523 0.292379 0
M  V30 10569 H 1010.13 -1.35349 1.33344 0
M  V30 10570 H 1008.28 -3.78886 0.858949 0
M  V30 10571 H 1009.96 -3.13379 3.38514 0
M  V30 10572 H 1008.2 -2.89566 3.23008 0
M  V30 10573 H 1008.87 -4.52782 3.15741 0
M  V30 10574 H 1011.35 -3.94591 1.3205 0
M  V30 10575 H 1010.22 -5.32914 1.31507 0
M  V30 10576 H 1010.48 -4.41796 -0.163824 0
M  V30 10577 N 1009.54 -0.859717 -1.32086 0
M  V30 10578 C 1010.78 -0.471939 -1.98877 0
M  V30 10579 C 1011.15 0.955689 -1.66525 0
M  V30 10580 O 1012.35 1.44829 -2.26447 0
M  V30 10581 C 1010.62 -0.710016 -3.50276 0
M  V30 10582 S 1012.18 -0.420566 -4.3678 0
M  V30 10583 H 1009 -0.176588 -0.688722 0
M  V30 10584 H 1011.6 -1.11352 -1.60689 0
M  V30 10585 H 1010.3 -1.74803 -3.71311 0
M  V30 10586 H 1009.83 -0.0550429 -3.93361 0
M  V30 10587 H 1011.85 0.751362 -4.90478 0
M  V30 10588 N 1011.02 1.44971 -0.618145 0
M  V30 10589 C 1012.27 2.01372 -0.115004 0
M  V30 10590 C 1012.58 1.49104 1.26599 0
M  V30 10591 O 1013.79 1.97549 1.86244 0
M  V30 10592 C 1012.24 3.59567 -0.154883 0
M  V30 10593 C 1011.85 4.20832 -1.53639 0
M  V30 10594 C 1013.6 4.23491 0.292468 0
M  V30 10595 C 1011.5 5.7121 -1.53208 0
M  V30 10596 H 1010.43 0.752979 -0.0392267 0
M  V30 10597 H 1013.08 1.66329 -0.775032 0
M  V30 10598 H 1011.47 3.91847 0.572001 0
M  V30 10599 H 1012.64 4.00109 -2.28582 0
M  V30 10600 H 1010.96 3.69143 -1.92672 0
M  V30 10601 H 1013.55 5.33771 0.315032 0
M  V30 10602 H 1013.9 3.9491 1.31725 0
M  V30 10603 H 1014.43 3.95967 -0.381493 0
M  V30 10604 H 1011.17 6.04506 -2.53481 0
M  V30 10605 H 1010.69 5.94094 -0.825387 0
M  V30 10606 H 1012.37 6.34606 -1.26032 0
M  V30 10607 N 1012.5 0.357919 1.53482 0
M  V30 10608 C 1013.74 -0.23451 2.0144 0
M  V30 10609 C 1014.08 -1.49044 1.24497 0
M  V30 10610 O 1013.35 -1.91566 0.336535 0
M  V30 10611 C 1013.64 -0.534193 3.56116 0
M  V30 10612 C 1013.49 0.734834 4.43757 0
M  V30 10613 C 1014.81 -1.33793 4.1927 0
M  V30 10614 H 1011.93 -0.0837595 0.732225 0
M  V30 10615 H 1014.57 0.481297 1.83803 0
M  V30 10616 H 1012.72 -1.144 3.71275 0
M  V30 10617 H 1014.39 1.37251 4.40409 0
M  V30 10618 H 1012.63 1.35678 4.12036 0
M  V30 10619 H 1013.3 0.48021 5.49907 0
M  V30 10620 H 1015.78 -0.822158 4.07897 0
M  V30 10621 H 1014.66 -1.51636 5.27539 0
M  V30 10622 H 1014.92 -2.34423 3.74831 0
M  V30 10623 N 1013.98 -1.5736 0.0868897 0
M  V30 10624 C 1014.89 -2.17087 -0.889402 0
M  V30 10625 C 1015.9 -1.13809 -1.31619 0
M  V30 10626 O 1017.08 -1.46143 -1.38579 0
M  V30 10627 C 1014.14 -2.73286 -2.13344 0
M  V30 10628 C 1013.2 -3.91491 -1.76164 0
M  V30 10629 C 1012.44 -4.45 -2.94637 0
M  V30 10630 O 1012.66 -3.97467 -4.09116 0
M  V30 10631 O 1011.59 -5.36133 -2.73579 0
M  V30 10632 H 1015.42 -3.00902 -0.411275 0
M  V30 10633 H 1013.01 -1.4877 -0.137015 0
M  V30 10634 H 1014.89 -3.0924 -2.86266 0
M  V30 10635 H 1013.56 -1.92521 -2.60225 0
M  V30 10636 H 1012.47 -3.60363 -1.00447 0
M  V30 10637 H 1013.8 -4.73593 -1.34053 0
M  V30 10638 N 1015.45 0.186762 -1.56489 0
M  V30 10639 C 1016.36 1.25169 -1.98419 0
M  V30 10640 C 1017.38 1.49329 -0.893124 0
M  V30 10641 O 1018.56 1.61781 -1.19954 0
M  V30 10642 C 1015.62 2.57422 -2.32239 0
M  V30 10643 C 1014.68 2.4126 -3.55095 0
M  V30 10644 C 1013.92 3.67206 -3.87292 0
M  V30 10645 O 1014.14 4.71731 -3.20665 0
M  V30 10646 O 1013.07 3.62238 -4.80695 0
M  V30 10647 H 1016.9 0.925834 -2.89244 0
M  V30 10648 H 1014.48 0.392421 -1.44154 0
M  V30 10649 H 1016.37 3.35466 -2.5503 0
M  V30 10650 H 1015.04 2.89618 -1.44579 0
M  V30 10651 H 1013.95 1.61299 -3.37541 0
M  V30 10652 H 1015.28 2.13994 -4.43247 0
M  V30 10653 N 1016.93 1.50896 0.454776 0
M  V30 10654 C 1018.16 1.66759 1.23313 0
M  V30 10655 C 1018.58 0.35722 1.84677 0
M  V30 10656 O 1017.94 -0.680771 1.68033 0
M  V30 10657 C 1017.99 2.77254 2.3057 0
M  V30 10658 O 1017.09 2.39642 3.35627 0
M  V30 10659 H 1016.43 0.556599 0.362068 0
M  V30 10660 H 1018.96 1.97365 0.539274 0
M  V30 10661 H 1018.97 3.0082 2.75629 0
M  V30 10662 H 1017.65 3.72349 1.85281 0
M  V30 10663 H 1016.23 2.26584 2.96165 0
M  V30 10664 N 1018.41 -0.709066 1.40748 0
M  V30 10665 C 1019.64 -1.49808 1.42707 0
M  V30 10666 C 1020.05 -1.88778 0.0285574 0
M  V30 10667 O 1019.41 -1.55883 -0.949035 0
M  V30 10668 C 1019.46 -2.76926 2.32366 0
M  V30 10669 O 1019.18 -2.39602 3.66773 0
M  V30 10670 C 1020.68 -3.70773 2.42986 0
M  V30 10671 H 1017.9 -0.462106 0.486517 0
M  V30 10672 H 1020.45 -0.874135 1.84876 0
M  V30 10673 H 1018.6 -3.3559 1.93541 0
M  V30 10674 H 1019.02 -3.21443 4.14457 0
M  V30 10675 H 1020.49 -4.56789 3.09916 0
M  V30 10676 H 1020.97 -4.14332 1.45691 0
M  V30 10677 H 1021.57 -3.18019 2.8239 0
M  V30 10678 N 1019.89 -1.26353 -0.941956 0
M  V30 10679 C 1021.13 -1.13071 -1.70277 0
M  V30 10680 C 1021.49 0.320699 -1.89303 0
M  V30 10681 O 1022.69 0.575624 -2.62564 0
M  V30 10682 C 1020.97 -1.87777 -3.04096 0
M  V30 10683 S 1022.52 -1.9054 -3.95272 0
M  V30 10684 H 1019.34 -0.403912 -0.585129 0
M  V30 10685 H 1021.94 -1.6006 -1.12254 0
M  V30 10686 H 1020.65 -2.92447 -2.87929 0
M  V30 10687 H 1020.18 -1.41226 -3.67177 0
M  V30 10688 H 1022.19 -0.991548 -4.86192 0
M  V30 10689 N 1021.37 1.14642 -1.08144 0
M  V30 10690 C 1022.62 1.8525 -0.807885 0
M  V30 10691 C 1022.94 1.83194 0.668213 0
M  V30 10692 O 1022.21 1.27848 1.48431 0
M  V30 10693 H 1020.79 0.685909 -0.295868 0
M  V30 10694 H 1023.45 1.38935 -1.36686 0
M  V30 10695 H 1022.54 2.90155 -1.14964 0
M  V30 10696 N 1022.85 0.866709 1.31628 0
M  V30 10697 C 1024.12 0.396828 1.91532 0
M  V30 10698 C 1024.5 -1.12081 1.78889 0
M  V30 10699 O 1023.85 -1.94791 1.19452 0
M  V30 10700 C 1024.06 0.874578 3.37864 0
M  V30 10701 C 1025.41 0.8988 4.14978 0
M  V30 10702 O 1026.43 0.820014 3.46633 0
M  V30 10703 O 1025.29 1.01223 5.37044 0
M  V30 10704 H 1022.39 0.1181 0.818524 0
M  V30 10705 H 1024.93 0.954407 1.40318 0
M  V30 10706 H 1023.7 1.91807 3.41066 0
M  V30 10707 H 1023.33 0.295126 3.96503 0
M  V30 10708 N 1024.32 -1.44642 0.625825 0
M  V30 10709 C 1025.57 -2.01308 0.125682 0
M  V30 10710 C 1025.89 -1.49773 -1.25807 0
M  V30 10711 O 1027.09 -1.98533 -1.85194 0
M  V30 10712 C 1025.55 -3.59479 0.17395 0
M  V30 10713 C 1025.16 -4.20011 1.55868 0
M  V30 10714 C 1026.9 -4.2364 -0.270005 0
M  V30 10715 C 1024.81 -5.7039 1.56235 0
M  V30 10716 H 1023.74 -0.75276 0.0432194 0
M  V30 10717 H 1026.39 -1.65916 0.783842 0
M  V30 10718 H 1024.77 -3.92145 -0.551212 0
M  V30 10719 H 1025.94 -3.98891 2.307 0
M  V30 10720 H 1024.26 -3.68116 1.94627 0
M  V30 10721 H 1026.86 -5.33931 -0.28672 0
M  V30 10722 H 1027.2 -3.95603 -1.29629 0
M  V30 10723 H 1027.73 -3.95759 0.402487 0
M  V30 10724 H 1024.47 -6.03154 2.56683 0
M  V30 10725 H 1023.99 -5.93648 0.856881 0
M  V30 10726 H 1025.67 -6.33929 1.29396 0
M  V30 10727 N 1025.8 -0.366053 -1.5329 0
M  V30 10728 C 1027.21 0.113056 -1.86357 0
M  V30 10729 C 1027.56 1.48123 -1.28662 0
M  V30 10730 O 1026.69 2.07658 -0.608849 0
M  V30 10731 C 1027.28 0.211923 -3.38137 0
M  V30 10732 C 1025.84 0.635289 -3.71 0
M  V30 10733 C 1024.99 -0.217203 -2.76448 0
M  V30 10734 H 1027.94 -0.584829 -1.47531 0
M  V30 10735 H 1027.96 1.0354 -3.66142 0
M  V30 10736 H 1027.47 -0.783994 -3.80099 0
M  V30 10737 H 1025.57 1.63942 -3.34595 0
M  V30 10738 H 1025.69 0.409571 -4.77346 0
M  V30 10739 H 1024.05 0.313988 -2.52757 0
M  V30 10740 H 1024.83 -1.21067 -3.21244 0
M  V30 10741 N 1027.28 1.57312 -0.0952337 0
M  V30 10742 C 1028.19 2.17556 0.877877 0
M  V30 10743 C 1029.21 1.14505 1.31014 0
M  V30 10744 O 1030.38 1.46876 1.37802 0
M  V30 10745 C 1027.45 2.74413 2.11892 0
M  V30 10746 C 1026.51 3.92419 1.74085 0
M  V30 10747 C 1025.74 4.46556 2.92273 0
M  V30 10748 O 1025.96 3.99631 4.07002 0
M  V30 10749 O 1024.9 5.37576 2.70732 0
M  V30 10750 H 1028.72 3.01116 0.395312 0
M  V30 10751 H 1026.31 1.48841 0.129123 0
M  V30 10752 H 1028.19 3.10754 2.84622 0
M  V30 10753 H 1026.87 1.93899 2.59201 0
M  V30 10754 H 1025.77 3.6089 0.985346 0
M  V30 10755 H 1027.11 4.74298 1.31539 0
M  V30 10756 N 1028.76 -0.17846 1.56586 0
M  V30 10757 C 1029.69 -1.22342 1.98884 0
M  V30 10758 C 1030.67 -1.46564 0.86331 0
M  V30 10759 O 1031.85 -1.58019 1.12887 0
M  V30 10760 C 1028.98 -2.56396 2.34261 0
M  V30 10761 C 1027.94 -2.46756 3.49708 0
M  V30 10762 C 1027.26 -3.85235 3.70807 0
M  V30 10763 C 1028.56 -1.97838 4.83381 0
M  V30 10764 H 1030.26 -0.871848 2.86425 0
M  V30 10765 H 1027.8 -0.417948 1.37801 0
M  V30 10766 H 1029.76 -3.29695 2.62448 0
M  V30 10767 H 1028.48 -2.93327 1.43621 0
M  V30 10768 H 1027.14 -1.75912 3.21637 0
M  V30 10769 H 1026.79 -4.19547 2.7747 0
M  V30 10770 H 1026.49 -3.79655 4.48481 0
M  V30 10771 H 1028.01 -4.60131 4.01387 0
M  V30 10772 H 1029.43 -2.60906 5.10491 0
M  V30 10773 H 1027.82 -2.03223 5.64642 0
M  V30 10774 H 1028.89 -0.932339 4.75852 0
M  V30 10775 N 1030.24 -1.51135 -0.446768 0
M  V30 10776 C 1031.15 -1.74595 -1.56696 0
M  V30 10777 C 1032.16 -0.629816 -1.62201 0
M  V30 10778 O 1033.34 -0.910987 -1.79619 0
M  V30 10779 C 1030.4 -1.85738 -2.9275 0
M  V30 10780 C 1029.46 -3.09564 -2.97437 0
M  V30 10781 C 1028.7 -3.20165 -4.27001 0
M  V30 10782 O 1028.92 -2.36939 -5.1886 0
M  V30 10783 O 1027.85 -4.13077 -4.3778 0
M  V30 10784 H 1031.68 -2.69601 -1.39817 0
M  V30 10785 H 1029.26 -1.35523 -0.628805 0
M  V30 10786 H 1031.15 -1.95107 -3.73512 0
M  V30 10787 H 1029.82 -0.939184 -3.09776 0
M  V30 10788 H 1028.73 -3.05679 -2.15664 0
M  V30 10789 H 1030.06 -4.01041 -2.85353 0
M  V30 10790 N 1031.71 0.701592 -1.41122 0
M  V30 10791 C 1032.66 1.80755 -1.38966 0
M  V30 10792 C 1033.65 1.58703 -0.264964 0
M  V30 10793 O 1034.84 1.69638 -0.505168 0
M  V30 10794 C 1031.97 3.1901 -1.26836 0
M  V30 10795 C 1031.05 3.46777 -2.44144 0
M  V30 10796 N 1031.45 3.45278 -3.69617 0
M  V30 10797 C 1029.74 3.77299 -2.37826 0
M  V30 10798 C 1030.44 3.71782 -4.47385 0
M  V30 10799 N 1029.42 3.91228 -3.77415 0
M  V30 10800 H 1033.22 1.7795 -2.33904 0
M  V30 10801 H 1030.74 0.901325 -1.35092 0
M  V30 10802 H 1032.73 3.98227 -1.23373 0
M  V30 10803 H 1031.39 3.23031 -0.328777 0
M  V30 10804 H 1032.4 3.258 -4.02585 0
M  V30 10805 H 1029.08 3.88727 -1.52309 0
M  V30 10806 H 1030.47 3.7681 -5.56295 0
M  V30 10807 N 1033.19 1.2685 0.935242 0
M  V30 10808 C 1034.44 1.12522 1.67878 0
M  V30 10809 C 1034.76 -0.330894 1.92172 0
M  V30 10810 O 1034.03 -1.23259 1.52263 0
M  V30 10811 H 1032.61 0.413418 0.622169 0
M  V30 10812 H 1035.27 1.59267 1.12339 0
M  V30 10813 H 1034.37 1.64853 2.65009 0
M  V30 10814 N 1034.67 -1.14067 1.0875 0
M  V30 10815 C 1035.92 -1.85677 0.830392 0
M  V30 10816 C 1036.27 -1.81549 -0.637016 0
M  V30 10817 O 1035.56 -1.23774 -1.46255 0
M  V30 10818 C 1035.76 -3.33273 1.29089 0
M  V30 10819 C 1035.59 -3.51774 2.80153 0
M  V30 10820 C 1034.36 -3.66419 3.47944 0
M  V30 10821 C 1036.56 -3.48399 3.78316 0
M  V30 10822 N 1034.54 -3.73112 4.87504 0
M  V30 10823 C 1035.91 -3.61378 5.03791 0
M  V30 10824 C 1037.96 -3.31758 3.7127 0
M  V30 10825 C 1036.67 -3.59435 6.23056 0
M  V30 10826 C 1038.69 -3.31119 4.90014 0
M  V30 10827 C 1038.05 -3.44643 6.1433 0
M  V30 10828 H 1034.15 -0.695948 0.356625 0
M  V30 10829 H 1036.74 -1.36687 1.38654 0
M  V30 10830 H 1034.91 -3.80846 0.762274 0
M  V30 10831 H 1036.64 -3.92659 0.979828 0
M  V30 10832 H 1033.4 -3.67799 2.98364 0
M  V30 10833 H 1033.82 -3.80167 5.6018 0
M  V30 10834 H 1038.46 -3.2021 2.76089 0
M  V30 10835 H 1036.18 -3.69758 7.18544 0
M  V30 10836 H 1039.77 -3.1945 4.86254 0
M  V30 10837 H 1038.65 -3.44101 7.04673 0
M  V30 10838 N 1036.15 -0.873678 -1.31166 0
M  V30 10839 C 1037.11 -0.337069 -2.26708 0
M  V30 10840 C 1038.11 0.51406 -1.52362 0
M  V30 10841 O 1039.3 0.322834 -1.71182 0
M  V30 10842 C 1036.43 0.520897 -3.36897 0
M  V30 10843 H 1037.63 -1.18056 -2.75686 0
M  V30 10844 H 1035.18 -0.649577 -1.42163 0
M  V30 10845 H 1035.91 1.38543 -2.93217 0
M  V30 10846 H 1035.7 -0.0886015 -3.92 0
M  V30 10847 H 1037.19 0.888497 -4.08039 0
M  V30 10848 N 1037.63 1.44308 -0.633487 0
M  V30 10849 C 1038.56 2.28943 0.108474 0
M  V30 10850 C 1039.57 1.41415 0.806582 0
M  V30 10851 O 1040.76 1.65544 0.667634 0
M  V30 10852 C 1037.86 3.17845 1.1759 0
M  V30 10853 C 1037.03 4.33802 0.559842 0
M  V30 10854 C 1036.09 5.03722 1.52154 0
M  V30 10855 O 1035.12 5.5966 1.03776 0
M  V30 10856 N 1036.32 5.05392 2.85586 0
M  V30 10857 H 1039.09 2.93262 -0.617879 0
M  V30 10858 H 1036.65 1.54781 -0.474819 0
M  V30 10859 H 1038.64 3.61485 1.81963 0
M  V30 10860 H 1037.21 2.55261 1.80445 0
M  V30 10861 H 1036.43 3.93325 -0.262559 0
M  V30 10862 H 1037.72 5.08637 0.128942 0
M  V30 10863 H 1037.11 4.61282 3.27468 0
M  V30 10864 H 1035.67 5.52813 3.45313 0
M  V30 10865 N 1039.1 0.374177 1.53094 0
M  V30 10866 C 1040.03 -0.459976 2.28925 0
M  V30 10867 C 1041.02 -1.07656 1.31698 0
M  V30 10868 O 1042.2 -1.09219 1.60577 0
M  V30 10869 C 1039.33 -1.5954 3.08487 0
M  V30 10870 C 1038.28 -1.10563 4.13473 0
M  V30 10871 C 1037.61 -2.33196 4.81169 0
M  V30 10872 C 1038.91 -0.184275 5.21975 0
M  V30 10873 H 1040.6 0.172692 2.98902 0
M  V30 10874 H 1038.15 0.0844956 1.43752 0
M  V30 10875 H 1040.1 -2.18565 3.60288 0
M  V30 10876 H 1038.83 -2.25543 2.36216 0
M  V30 10877 H 1037.49 -0.53801 3.62631 0
M  V30 10878 H 1037.13 -2.97675 4.05461 0
M  V30 10879 H 1036.83 -2.01094 5.52119 0
M  V30 10880 H 1038.36 -2.92892 5.35767 0
M  V30 10881 H 1039.77 -0.682262 5.69226 0
M  V30 10882 H 1038.17 0.0462746 6.00082 0
M  V30 10883 H 1039.24 0.771152 4.78729 0
M  V30 10884 N 1040.58 -1.57259 0.103575 0
M  V30 10885 C 1041.81 -1.99424 -0.569638 0
M  V30 10886 C 1042.23 -0.982475 -1.60403 0
M  V30 10887 O 1041.59 0.0479231 -1.81237 0
M  V30 10888 C 1041.64 -3.40527 -1.18633 0
M  V30 10889 O 1040.74 -3.42167 -2.30208 0
M  V30 10890 H 1040.08 -0.648251 -0.143759 0
M  V30 10891 H 1042.61 -2.03739 0.187493 0
M  V30 10892 H 1042.62 -3.78404 -1.5256 0
M  V30 10893 H 1041.3 -4.13686 -0.428582 0
M  V30 10894 H 1039.88 -3.16093 -1.97837 0
M  V30 10895 N 1042.06 0.170153 -1.56679 0
M  V30 10896 C 1043.29 0.90618 -1.86556 0
M  V30 10897 C 1043.71 1.74986 -0.690044 0
M  V30 10898 O 1043.07 1.77672 0.360862 0
M  V30 10899 C 1043.12 1.75777 -3.14857 0
M  V30 10900 O 1042.22 2.85952 -2.97162 0
M  V30 10901 H 1041.56 0.253781 -0.613589 0
M  V30 10902 H 1044.09 0.167943 -2.0391 0
M  V30 10903 H 1044.1 2.15747 -3.46291 0
M  V30 10904 H 1042.78 1.13807 -4.00026 0
M  V30 10905 H 1041.35 2.49557 -2.77084 0
M  V30 10906 N 1043.54 1.5137 0.438746 0
M  V30 10907 C 1044.95 1.56462 1.01866 0
M  V30 10908 C 1045.3 0.387244 1.9234 0
M  V30 10909 O 1044.43 -0.496131 2.10636 0
M  V30 10910 C 1045.02 2.83557 1.85421 0
M  V30 10911 C 1043.58 2.91224 2.38464 0
M  V30 10912 C 1042.73 2.51109 1.17641 0
M  V30 10913 H 1045.68 1.57167 0.220072 0
M  V30 10914 H 1045.7 2.6724 2.70857 0
M  V30 10915 H 1045.21 3.69229 1.19546 0
M  V30 10916 H 1043.31 2.09979 3.07798 0
M  V30 10917 H 1043.42 3.94844 2.71358 0
M  V30 10918 H 1041.79 2.04276 1.5213 0
M  V30 10919 H 1042.57 3.39125 0.533785 0
M  V30 10920 N 1045.02 -0.694098 1.41492 0
M  V30 10921 C 1046.43 -1.27407 1.36471 0
M  V30 10922 C 1046.78 -1.9614 0.0485209 0
M  V30 10923 O 1045.9 -1.98871 -0.853188 0
M  V30 10924 C 1046.5 -2.31698 2.47188 0
M  V30 10925 C 1045.06 -2.85268 2.45559 0
M  V30 10926 C 1044.2 -1.59325 2.2696 0
M  V30 10927 H 1047.16 -0.488756 1.50986 0
M  V30 10928 H 1047.18 -3.1302 2.1633 0
M  V30 10929 H 1046.69 -1.81644 3.42968 0
M  V30 10930 H 1044.79 -3.39494 1.5354 0
M  V30 10931 H 1044.9 -3.35598 3.41922 0
M  V30 10932 H 1043.27 -1.85188 1.74864 0
M  V30 10933 H 1044.05 -1.11265 3.24769 0
M  V30 10934 N 1046.49 -1.27344 -0.928501 0
M  V30 10935 C 1047.72 -1.16278 -1.70772 0
M  V30 10936 C 1048.13 0.283131 -1.8707 0
M  V30 10937 O 1047.48 1.20466 -1.38685 0
M  V30 10938 C 1047.54 -1.77313 -3.1273 0
M  V30 10939 C 1047.2 -3.26488 -3.19773 0
M  V30 10940 C 1048.2 -4.23133 -3.02083 0
M  V30 10941 C 1045.88 -3.67182 -3.42757 0
M  V30 10942 C 1047.88 -5.5845 -3.07267 0
M  V30 10943 C 1045.56 -5.02629 -3.47574 0
M  V30 10944 C 1046.56 -5.98072 -3.29847 0
M  V30 10945 O 1046.25 -7.3105 -3.34397 0
M  V30 10946 H 1045.98 -0.405215 -0.541089 0
M  V30 10947 H 1048.54 -1.68707 -1.17163 0
M  V30 10948 H 1046.77 -1.19361 -3.67818 0
M  V30 10949 H 1048.46 -1.60972 -3.72616 0
M  V30 10950 H 1049.22 -3.93031 -2.84168 0
M  V30 10951 H 1045.1 -2.93369 -3.55606 0
M  V30 10952 H 1048.64 -6.32924 -2.93348 0
M  V30 10953 H 1044.54 -5.32387 -3.65013 0
M  V30 10954 H 1045.31 -7.39488 -3.50857 0
M  V30 10955 N 1047.97 1.13488 -1.09353 0
M  V30 10956 C 1049.2 1.88319 -0.849681 0
M  V30 10957 C 1049.61 1.79347 0.602616 0
M  V30 10958 O 1048.95 1.15744 1.4265 0
M  V30 10959 C 1049.02 3.38698 -1.20514 0
M  V30 10960 C 1048.68 3.71452 -2.66219 0
M  V30 10961 C 1049.68 3.70755 -3.64467 0
M  V30 10962 C 1047.36 4.01132 -3.02321 0
M  V30 10963 C 1049.36 3.9928 -4.96845 0
M  V30 10964 C 1047.04 4.29318 -4.3489 0
M  V30 10965 C 1048.04 4.28376 -5.31961 0
M  V30 10966 O 1047.73 4.55872 -6.62145 0
M  V30 10967 H 1047.46 0.603053 -0.305455 0
M  V30 10968 H 1050.01 1.44592 -1.45884 0
M  V30 10969 H 1048.24 3.82925 -0.539022 0
M  V30 10970 H 1049.93 3.94852 -0.940552 0
M  V30 10971 H 1050.7 3.47901 -3.3792 0
M  V30 10972 H 1046.58 4.01013 -2.27398 0
M  V30 10973 H 1050.12 3.9846 -5.72604 0
M  V30 10974 H 1046.02 4.51644 -4.61181 0
M  V30 10975 H 1046.79 4.73544 -6.67607 0
M  V30 10976 N 1049.45 0.880621 1.30701 0
M  V30 10977 C 1050.68 0.51094 2.00182 0
M  V30 10978 C 1051.09 -0.903914 1.66211 0
M  V30 10979 O 1050.43 -1.60529 0.893089 0
M  V30 10980 C 1050.49 0.600775 3.54445 0
M  V30 10981 C 1050.16 1.97915 4.1192 0
M  V30 10982 C 1051.16 2.94802 4.28238 0
M  V30 10983 C 1048.84 2.28336 4.47401 0
M  V30 10984 C 1050.83 4.20245 4.79242 0
M  V30 10985 C 1048.52 3.54026 4.98105 0
M  V30 10986 C 1049.52 4.49796 5.13978 0
M  V30 10987 O 1049.21 5.73256 5.63589 0
M  V30 10988 H 1048.94 0.196477 0.646818 0
M  V30 10989 H 1051.49 1.18659 1.67658 0
M  V30 10990 H 1049.72 -0.131832 3.86475 0
M  V30 10991 H 1051.41 0.242996 4.05172 0
M  V30 10992 H 1052.18 2.7261 4.01134 0
M  V30 10993 H 1048.06 1.54564 4.34317 0
M  V30 10994 H 1051.6 4.95003 4.91546 0
M  V30 10995 H 1047.5 3.76057 5.24644 0
M  V30 10996 H 1048.27 5.75577 5.81939 0
M  V30 10997 N 1050.93 -1.4397 0.641131 0
M  V30 10998 C 1052.18 -2.01548 0.149333 0
M  V30 10999 C 1052.5 -1.50759 -1.23679 0
M  V30 11000 O 1051.77 -0.715257 -1.82376 0
M  V30 11001 H 1050.35 -0.745173 0.0522161 0
M  V30 11002 H 1053.01 -1.7634 0.830082 0
M  V30 11003 H 1052.11 -3.11851 0.124676 0
M  V30 11004 N 1052.41 -0.382291 -1.52893 0
M  V30 11005 C 1053.68 0.259354 -1.93873 0
M  V30 11006 C 1054.06 1.64964 -1.3172 0
M  V30 11007 O 1053.41 2.23345 -0.482611 0
M  V30 11008 C 1053.62 0.292765 -3.4777 0
M  V30 11009 C 1054.97 0.525095 -4.21341 0
M  V30 11010 O 1055.99 0.373272 -3.54239 0
M  V30 11011 O 1054.85 0.822004 -5.40283 0
M  V30 11012 H 1051.95 0.159422 -0.811489 0
M  V30 11013 H 1054.49 -0.436289 -1.63996 0
M  V30 11014 H 1053.27 -0.681341 -3.85323 0
M  V30 11015 H 1052.89 1.03362 -3.8393 0
M  V30 11016 N 1053.89 1.57202 -0.111913 0
M  V30 11017 C 1055.11 1.99723 0.559054 0
M  V30 11018 C 1055.54 0.990968 1.59879 0
M  V30 11019 O 1054.89 -0.038311 1.8126 0
M  V30 11020 C 1054.94 3.41151 1.16826 0
M  V30 11021 O 1054.05 3.43383 2.2839 0
M  V30 11022 H 1053.39 0.649004 0.140319 0
M  V30 11023 H 1055.92 2.03637 -0.198295 0
M  V30 11024 H 1055.93 3.79208 1.50551 0
M  V30 11025 H 1054.6 4.13907 0.406637 0
M  V30 11026 H 1053.18 3.17138 1.96158 0
M  V30 11027 N 1055.36 -0.161842 1.56767 0
M  V30 11028 C 1056.61 -0.878224 1.82798 0
M  V30 11029 C 1056.94 -1.81481 0.691242 0
M  V30 11030 O 1056.22 -1.92075 -0.30618 0
M  V30 11031 C 1056.5 -1.66565 3.19262 0
M  V30 11032 C 1056.35 -0.751551 4.43477 0
M  V30 11033 C 1057.67 -2.63134 3.52773 0
M  V30 11034 H 1054.79 -0.317828 0.664947 0
M  V30 11035 H 1057.43 -0.14402 1.89453 0
M  V30 11036 H 1055.58 -2.29157 3.13719 0
M  V30 11037 H 1057.26 -0.137783 4.61094 0
M  V30 11038 H 1055.5 -0.0601785 4.33758 0
M  V30 11039 H 1056.17 -1.33823 5.35533 0
M  V30 11040 H 1058.65 -2.10666 3.5883 0
M  V30 11041 H 1057.52 -3.15289 4.49315 0
M  V30 11042 H 1057.78 -3.43786 2.77963 0
M  V30 11043 N 1056.84 -1.516 -0.430713 0
M  V30 11044 C 1057.75 -1.76247 -1.54836 0
M  V30 11045 C 1058.77 -0.646985 -1.61524 0
M  V30 11046 O 1059.94 -0.929987 -1.78643 0
M  V30 11047 C 1057.01 -1.88833 -2.90763 0
M  V30 11048 C 1056.07 -3.12701 -2.94137 0
M  V30 11049 C 1055.3 -3.24676 -4.23581 0
M  V30 11050 O 1055.53 -2.42429 -5.16318 0
M  V30 11051 O 1054.46 -4.17697 -4.33374 0
M  V30 11052 H 1058.29 -2.71069 -1.3695 0
M  V30 11053 H 1055.87 -1.36182 -0.614396 0
M  V30 11054 H 1057.75 -1.99057 -3.71422 0
M  V30 11055 H 1056.43 -0.971987 -3.08762 0
M  V30 11056 H 1055.33 -3.0795 -2.1241 0
M  V30 11057 H 1056.67 -4.04045 -2.81084 0
M  V30 11058 N 1058.32 0.686584 -1.41858 0
M  V30 11059 C 1059.57 1.44665 -1.41698 0
M  V30 11060 C 1059.89 1.94478 -0.0292442 0
M  V30 11061 O 1059.15 1.70512 0.960421 0
M  V30 11062 C 1059.45 2.66793 -2.37816 0
M  V30 11063 C 1059.11 2.35587 -3.8446 0
M  V30 11064 C 1057.78 2.26788 -4.24406 0
M  V30 11065 C 1060.13 2.10028 -4.77009 0
M  V30 11066 C 1057.46 1.90538 -5.54898 0
M  V30 11067 C 1059.81 1.75285 -6.07831 0
M  V30 11068 C 1058.47 1.64987 -6.46789 0
M  V30 11069 H 1057.74 0.529367 -0.518509 0
M  V30 11070 H 1060.39 0.783938 -1.74719 0
M  V30 11071 H 1058.69 3.38041 -1.9808 0
M  V30 11072 H 1060.39 3.24953 -2.34961 0
M  V30 11073 H 1056.98 2.43334 -3.52826 0
M  V30 11074 H 1061.17 2.15766 -4.46944 0
M  V30 11075 H 1056.42 1.81125 -5.83955 0
M  V30 11076 H 1060.6 1.5453 -6.79039 0
M  V30 11077 H 1058.22 1.36667 -7.47814 0
M  V30 11078 N 1059.8 1.27835 0.921735 0
M  V30 11079 C 1060.75 1.1092 2.04449 0
M  V30 11080 C 1061.74 0.0306469 1.69372 0
M  V30 11081 O 1062.95 0.188818 1.79007 0
M  V30 11082 H 1059.32 0.341973 0.669745 0
M  V30 11083 H 1061.29 2.06026 2.1586 0
M  V30 11084 C 1060.04 0.779443 3.38851 0
M  V30 11085 H 1059.36 1.60131 3.66331 0
M  V30 11086 H 1060.8 0.700999 4.18165 0
M  V30 11087 C 1059.26 -0.51647 3.32918 0
M  V30 11088 O 1059.79 -1.54914 3.70627 0
M  V30 11089 N 1058 -0.514276 2.86013 0
M  V30 11090 H 1057.55 0.32651 2.55522 0
M  V30 11091 H 1057.5 -1.38141 2.82426 0
M  V30 11092 N 1061.28 -1.12907 1.09954 0
M  V30 11093 C 1062.52 -1.8595 0.848643 0
M  V30 11094 C 1062.88 -1.81897 -0.614621 0
M  V30 11095 O 1064.08 -2.50233 -0.981667 0
M  V30 11096 C 1062.35 -3.29859 1.3758 0
M  V30 11097 S 1063.91 -4.20333 1.25959 0
M  V30 11098 H 1060.73 -0.641404 0.306793 0
M  V30 11099 H 1063.33 -1.36045 1.40399 0
M  V30 11100 H 1062.03 -3.30365 2.43489 0
M  V30 11101 H 1061.57 -3.84827 0.816806 0
M  V30 11102 H 1063.58 -4.95738 0.214038 0
M  V30 11103 N 1062.75 -0.88754 -1.30232 0
M  V30 11104 C 1063.98 -0.521562 -2.00735 0
M  V30 11105 C 1064.4 0.883247 -1.66073 0
M  V30 11106 O 1063.76 1.58581 -0.878731 0
M  V30 11107 C 1063.81 -0.706521 -3.53611 0
M  V30 11108 O 1062.91 0.246447 -4.11663 0
M  V30 11109 H 1062.25 -0.205216 -0.631492 0
M  V30 11110 H 1064.78 -1.19579 -1.66018 0
M  V30 11111 H 1064.79 -0.606501 -4.03467 0
M  V30 11112 H 1063.47 -1.73076 -3.78177 0
M  V30 11113 H 1062.05 0.0999062 -3.72766 0
M  V30 11114 N 1064.23 1.43628 -0.648757 0
M  V30 11115 C 1065.14 2.34554 0.0463037 0
M  V30 11116 C 1066.16 1.53629 0.816952 0
M  V30 11117 O 1067.33 1.86297 0.765212 0
M  V30 11118 C 1064.4 3.3185 1.00381 0
M  V30 11119 C 1063.46 4.2868 0.230589 0
M  V30 11120 C 1062.69 5.21328 1.14249 0
M  V30 11121 O 1062.92 5.18298 2.38166 0
M  V30 11122 O 1061.85 5.98726 0.617296 0
M  V30 11123 H 1065.68 2.95475 -0.702008 0
M  V30 11124 H 1063.26 1.43694 -0.408942 0
M  V30 11125 H 1065.14 3.91692 1.5542 0
M  V30 11126 H 1063.82 2.73439 1.73243 0
M  V30 11127 H 1062.73 3.72332 -0.363282 0
M  V30 11128 H 1064.06 4.90061 -0.458368 0
M  V30 11129 N 1065.71 0.390394 1.52688 0
M  V30 11130 C 1066.94 -0.194013 2.06491 0
M  V30 11131 C 1067.36 -1.3965 1.26014 0
M  V30 11132 O 1066.72 -1.79038 0.285468 0
M  V30 11133 C 1066.77 -0.541306 3.56514 0
M  V30 11134 O 1065.87 -1.63509 3.78601 0
M  V30 11135 H 1065.21 -0.0223608 0.663623 0
M  V30 11136 H 1067.74 0.558179 1.96839 0
M  V30 11137 H 1067.75 -0.805301 3.99974 0
M  V30 11138 H 1066.43 0.337828 4.14526 0
M  V30 11139 H 1065 -1.36473 3.4703 0
M  V30 11140 N 1067.19 -1.57141 0.120249 0
M  V30 11141 C 1068.44 -1.95238 -0.537449 0
M  V30 11142 C 1068.76 -1.00361 -1.66607 0
M  V30 11143 O 1068.02 -0.0277306 -1.9568 0
M  V30 11144 C 1068.32 -3.39745 -1.10941 0
M  V30 11145 C 1067.98 -4.50785 -0.102012 0
M  V30 11146 C 1066.65 -4.80882 0.174994 0
M  V30 11147 C 1069 -5.17913 0.584462 0
M  V30 11148 C 1066.33 -5.75424 1.14474 0
M  V30 11149 C 1068.68 -6.13497 1.54284 0
M  V30 11150 C 1067.34 -6.41987 1.82782 0
M  V30 11151 H 1066.61 -0.714425 -0.196666 0
M  V30 11152 H 1069.26 -1.90438 0.201418 0
M  V30 11153 H 1067.56 -3.41246 -1.92506 0
M  V30 11154 H 1069.26 -3.66536 -1.62642 0
M  V30 11155 H 1065.85 -4.27342 -0.328097 0
M  V30 11156 H 1070.03 -4.94815 0.383625 0
M  V30 11157 H 1065.29 -5.95801 1.37226 0
M  V30 11158 H 1069.46 -6.64598 2.08044 0
M  V30 11159 H 1067.09 -7.15052 2.5808 0
M  V30 11160 N 1068.67 0.153526 -1.5685 0
M  V30 11161 C 1069.89 0.882335 -1.87143 0
M  V30 11162 C 1070.31 1.75034 -0.707702 0
M  V30 11163 O 1069.67 1.79624 0.32273 0
M  V30 11164 C 1069.72 1.74444 -3.16625 0
M  V30 11165 O 1069.44 0.911419 -4.28515 0
M  V30 11166 C 1070.94 2.58139 -3.60388 0
M  V30 11167 H 1068.16 0.25546 -0.620469 0
M  V30 11168 H 1070.7 0.148275 -2.03962 0
M  V30 11169 H 1068.86 2.43163 -3.0158 0
M  V30 11170 H 1069.27 1.50268 -5.02513 0
M  V30 11171 H 1070.75 3.14215 -4.53842 0
M  V30 11172 H 1071.22 3.33865 -2.85361 0
M  V30 11173 H 1071.83 1.94721 -3.78105 0
M  V30 11174 N 1070.14 1.51827 0.422667 0
M  V30 11175 C 1071.08 1.68901 1.53453 0
M  V30 11176 C 1072.06 0.536549 1.53492 0
M  V30 11177 O 1073.24 0.762226 1.72402 0
M  V30 11178 C 1070.37 1.71599 2.92013 0
M  V30 11179 C 1069.41 2.92984 3.0994 0
M  V30 11180 S 1070.25 4.53559 2.84683 0
M  V30 11181 C 1071.4 4.59024 4.25498 0
M  V30 11182 H 1071.63 2.62943 1.38739 0
M  V30 11183 H 1069.17 1.41695 0.613347 0
M  V30 11184 H 1071.13 1.73838 3.71874 0
M  V30 11185 H 1069.79 0.787083 3.04079 0
M  V30 11186 H 1068.98 2.91315 4.1128 0
M  V30 11187 H 1068.58 2.88562 2.37924 0
M  V30 11188 H 1070.87 4.35567 5.18929 0
M  V30 11189 H 1071.82 5.60904 4.32195 0
M  V30 11190 H 1072.22 3.88193 4.09837 0
M  V30 11191 N 1071.62 -0.679052 1.4222 0
M  V30 11192 C 1072.87 -1.43485 1.41757 0
M  V30 11193 C 1073.18 -1.95567 0.0358698 0
M  V30 11194 O 1074.39 -2.71346 -0.0913713 0
M  V30 11195 C 1072.85 -2.59541 2.49332 0
M  V30 11196 C 1072.45 -2.14176 3.93488 0
M  V30 11197 C 1074.2 -3.37078 2.58029 0
M  V30 11198 C 1072.11 -3.27289 4.92581 0
M  V30 11199 H 1071.04 -0.539022 0.52723 0
M  V30 11200 H 1073.69 -0.735581 1.68111 0
M  V30 11201 H 1072.07 -3.31815 2.16135 0
M  V30 11202 H 1073.24 -1.49082 4.36017 0
M  V30 11203 H 1071.56 -1.49589 3.88603 0
M  V30 11204 H 1074.15 -4.21312 3.29242 0
M  V30 11205 H 1074.5 -3.83383 1.62245 0
M  V30 11206 H 1075.03 -2.7187 2.90399 0
M  V30 11207 H 1071.77 -2.8598 5.89827 0
M  V30 11208 H 1071.29 -3.91178 4.54687 0
M  V30 11209 H 1072.97 -3.9282 5.14103 0
M  V30 11210 N 1073.1 -1.28322 -0.914942 0
M  V30 11211 C 1074.35 -1.15179 -1.66067 0
M  V30 11212 C 1074.67 0.300279 -1.92674 0
M  V30 11213 O 1073.94 1.20821 -1.54205 0
M  V30 11214 H 1072.52 -0.423264 -0.615513 0
M  V30 11215 H 1075.18 -1.61034 -1.09791 0
M  V30 11216 H 1074.28 -1.69048 -2.62353 0
M  V30 11217 N 1074.58 1.12322 -1.10551 0
M  V30 11218 C 1075.53 2.16177 -0.724679 0
M  V30 11219 C 1076.51 1.58674 0.266739 0
M  V30 11220 O 1077.7 1.7684 0.0752872 0
M  V30 11221 C 1074.83 3.4293 -0.159413 0
M  V30 11222 C 1073.92 4.07413 -1.17794 0
M  V30 11223 N 1074.31 4.46889 -2.36905 0
M  V30 11224 C 1072.61 4.34209 -1.01874 0
M  V30 11225 C 1073.31 4.97291 -3.01789 0
M  V30 11226 N 1072.29 4.92871 -2.29302 0
M  V30 11227 H 1076.09 2.44466 -1.63136 0
M  V30 11228 H 1073.6 1.2924 -0.983407 0
M  V30 11229 H 1075.6 4.16693 0.131502 0
M  V30 11230 H 1074.26 3.16109 0.741975 0
M  V30 11231 H 1075.27 4.39219 -2.74422 0
M  V30 11232 H 1071.95 4.17141 -0.173013 0
M  V30 11233 H 1073.34 5.3754 -4.03114 0
M  V30 11234 N 1076.06 0.894434 1.2976 0
M  V30 11235 C 1077.47 0.589778 1.48303 0
M  V30 11236 C 1077.67 -0.870085 1.81746 0
M  V30 11237 O 1076.73 -1.65065 1.91076 0
M  V30 11238 C 1078.04 1.51107 2.59975 0
M  V30 11239 C 1079.59 1.51571 2.73853 0
M  V30 11240 C 1080.06 2.42316 3.88648 0
M  V30 11241 N 1081.56 2.40333 3.95973 0
M  V30 11242 C 1082.29 3.07254 4.84131 0
M  V30 11243 N 1081.79 3.83435 5.77018 0
M  V30 11244 N 1083.58 2.96438 4.77578 0
M  V30 11245 H 1075.73 1.83871 1.06327 0
M  V30 11246 H 1077.99 0.78758 0.527657 0
M  V30 11247 H 1077.7 2.55097 2.42112 0
M  V30 11248 H 1077.57 1.22767 3.56662 0
M  V30 11249 H 1079.96 0.483277 2.91116 0
M  V30 11250 H 1080.04 1.83946 1.77757 0
M  V30 11251 H 1079.69 3.4565 3.72141 0
M  V30 11252 H 1079.62 2.07252 4.84101 0
M  V30 11253 H 1082.11 1.84979 3.29532 0
M  V30 11254 H 1082.42 4.31565 6.4107 0
M  V30 11255 H 1080.76 3.87542 5.7692 0
M  V30 11256 H 1083.96 2.36442 4.03996 0
M  V30 11257 H 1084.13 3.48867 5.46073 0
M  V30 11258 N 1077.53 -1.43282 0.656365 0
M  V30 11259 C 1078.76 -2.06641 0.177245 0
M  V30 11260 C 1079.18 -1.48893 -1.14946 0
M  V30 11261 O 1078.54 -0.600099 -1.7108 0
M  V30 11262 C 1078.59 -3.60453 0.10299 0
M  V30 11263 O 1077.69 -4.01687 -0.933895 0
M  V30 11264 H 1077.04 -0.656978 0.096314 0
M  V30 11265 H 1079.57 -1.83733 0.900178 0
M  V30 11266 H 1079.58 -4.07923 -0.079291 0
M  V30 11267 H 1078.25 -4.01861 1.07147 0
M  V30 11268 H 1076.83 -3.65801 -0.724148 0
M  V30 11269 N 1079.01 -0.398486 -1.52479 0
M  V30 11270 C 1080.26 0.182046 -2.00877 0
M  V30 11271 C 1080.58 1.47128 -1.2889 0
M  V30 11272 O 1081.78 2.13242 -1.68048 0
M  V30 11273 C 1080.24 0.374978 -3.57941 0
M  V30 11274 C 1079.85 -0.901544 -4.38835 0
M  V30 11275 C 1081.59 0.911378 -4.14601 0
M  V30 11276 C 1079.5 -0.676385 -5.87519 0
M  V30 11277 H 1078.43 0.0718068 -0.750573 0
M  V30 11278 H 1081.08 -0.522297 -1.7591 0
M  V30 11279 H 1079.46 1.14139 -3.79194 0
M  V30 11280 H 1080.63 -1.67329 -4.29346 0
M  V30 11281 H 1078.95 -1.36357 -3.93441 0
M  V30 11282 H 1081.55 1.09569 -5.23353 0
M  V30 11283 H 1081.89 1.88306 -3.71277 0
M  V30 11284 H 1082.42 0.204296 -3.97275 0
M  V30 11285 H 1079.16 -1.61933 -6.35184 0
M  V30 11286 H 1078.68 0.0562542 -5.99774 0
M  V30 11287 H 1080.36 -0.314454 -6.46235 0
M  V30 11288 N 1080.49 1.57075 -0.12858 0
M  V30 11289 C 1081.72 1.99876 0.534544 0
M  V30 11290 C 1082.13 1.00843 1.59612 0
M  V30 11291 O 1081.49 0.00268947 1.825 0
M  V30 11292 C 1081.54 3.42654 1.15198 0
M  V30 11293 O 1081.26 4.37899 0.132823 0
M  V30 11294 C 1082.76 4.00637 1.8975 0
M  V30 11295 H 1079.98 0.656073 0.140744 0
M  V30 11296 H 1082.53 2.03337 -0.217742 0
M  V30 11297 H 1080.68 3.40101 1.85499 0
M  V30 11298 H 1081.1 5.21253 0.582682 0
M  V30 11299 H 1082.57 5.02592 2.28266 0
M  V30 11300 H 1083.05 3.40313 2.7764 0
M  V30 11301 H 1083.65 4.06764 1.2419 0
M  V30 11302 N 1081.97 -0.145205 1.5693 0
M  V30 11303 C 1083.21 -0.863709 1.85255 0
M  V30 11304 C 1083.57 -1.78266 0.713112 0
M  V30 11305 O 1084.77 -2.54075 0.877459 0
M  V30 11306 C 1083.05 -1.61628 3.18765 0
M  V30 11307 S 1084.6 -2.37996 3.68651 0
M  V30 11308 H 1081.42 -0.288792 0.649708 0
M  V30 11309 H 1084.02 -0.123603 1.95109 0
M  V30 11310 H 1082.73 -0.932688 3.99661 0
M  V30 11311 H 1082.26 -2.39726 3.11921 0
M  V30 11312 H 1084.27 -3.63223 3.38058 0
M  V30 11313 N 1083.45 -1.52049 -0.414609 0
M  V30 11314 C 1084.7 -1.65067 -1.15912 0
M  V30 11315 C 1085.01 -0.383969 -1.91794 0
M  V30 11316 O 1086.22 -0.393872 -2.68628 0
M  V30 11317 C 1084.67 -2.91611 -2.1093 0
M  V30 11318 C 1084.28 -4.25369 -1.4059 0
M  V30 11319 C 1086.02 -3.13992 -2.85674 0
M  V30 11320 C 1083.93 -5.43041 -2.34223 0
M  V30 11321 H 1082.86 -0.614884 -0.436387 0
M  V30 11322 H 1085.51 -1.78533 -0.424072 0
M  V30 11323 H 1083.89 -2.71831 -2.87965 0
M  V30 11324 H 1085.07 -4.55611 -0.689568 0
M  V30 11325 H 1083.38 -4.09047 -0.779088 0
M  V30 11326 H 1085.98 -3.99082 -3.55861 0
M  V30 11327 H 1086.32 -2.27998 -3.48314 0
M  V30 11328 H 1086.86 -3.34217 -2.1574 0
M  V30 11329 H 1083.59 -6.31364 -1.76238 0
M  V30 11330 H 1083.11 -5.17144 -3.03845 0
M  V30 11331 H 1084.79 -5.75901 -2.94868 0
M  V30 11332 N 1084.93 0.6715 -1.42579 0
M  V30 11333 C 1085.88 1.77767 -1.42769 0
M  V30 11334 C 1086.86 1.58106 -0.298568 0
M  V30 11335 O 1088.05 1.68528 -0.541037 0
M  V30 11336 C 1085.18 3.16248 -1.33574 0
M  V30 11337 C 1084.27 3.41521 -2.51445 0
M  V30 11338 N 1084.66 3.37361 -3.76857 0
M  V30 11339 C 1082.96 3.7217 -2.45776 0
M  V30 11340 C 1083.66 3.62209 -4.5517 0
M  V30 11341 N 1082.63 3.83134 -3.85628 0
M  V30 11342 H 1086.43 1.72949 -2.37626 0
M  V30 11343 H 1083.95 0.872467 -1.36974 0
M  V30 11344 H 1085.95 3.9552 -1.31793 0
M  V30 11345 H 1084.61 3.22261 -0.397223 0
M  V30 11346 H 1085.62 3.17187 -4.09406 0
M  V30 11347 H 1082.29 3.85408 -1.6052 0
M  V30 11348 H 1083.68 3.64925 -5.64162 0
M  V30 11349 N 1086.4 1.28806 0.908124 0
M  V30 11350 C 1087.65 1.16058 1.65454 0
M  V30 11351 C 1087.97 -0.290057 1.92831 0
M  V30 11352 O 1087.24 -1.20001 1.54843 0
M  V30 11353 H 1085.82 0.426522 0.61326 0
M  V30 11354 H 1088.48 1.61614 1.08936 0
M  V30 11355 H 1087.58 1.70437 2.61453 0
M  V30 11356 N 1087.88 -1.11734 1.11145 0
M  V30 11357 C 1089.13 -1.83677 0.859684 0
M  V30 11358 C 1089.46 -1.84265 -0.613182 0
M  V30 11359 O 1088.74 -1.29351 -1.45254 0
M  V30 11360 C 1089.02 -3.31003 1.41805 0
M  V30 11361 C 1088.87 -3.38827 2.95831 0
M  V30 11362 C 1090.19 -4.26984 1.06645 0
M  V30 11363 H 1087.31 -0.666879 0.313754 0
M  V30 11364 H 1089.95 -1.31038 1.37583 0
M  V30 11365 H 1088.1 -3.75961 0.979054 0
M  V30 11366 H 1089.77 -3.02451 3.48312 0
M  V30 11367 H 1088.02 -2.79143 3.32056 0
M  V30 11368 H 1088.69 -4.42508 3.29986 0
M  V30 11369 H 1091.16 -3.9019 1.44537 0
M  V30 11370 H 1090.04 -5.2846 1.48394 0
M  V30 11371 H 1090.3 -4.42094 -0.0231866 0
M  V30 11372 N 1089.36 -0.901303 -1.29284 0
M  V30 11373 C 1090.61 -0.538241 -1.96149 0
M  V30 11374 C 1090.96 0.905804 -1.69744 0
M  V30 11375 O 1090.25 1.63383 -1.00083 0
M  V30 11376 C 1090.45 -0.768828 -3.49033 0
M  V30 11377 C 1090.28 -2.23373 -3.903 0
M  V30 11378 C 1089.05 -2.88148 -4.15089 0
M  V30 11379 C 1091.24 -3.20907 -4.01899 0
M  V30 11380 N 1089.23 -4.25065 -4.42937 0
M  V30 11381 C 1090.6 -4.42948 -4.33817 0
M  V30 11382 C 1092.65 -3.16475 -3.8438 0
M  V30 11383 C 1091.36 -5.6112 -4.50041 0
M  V30 11384 C 1093.38 -4.33934 -4.01815 0
M  V30 11385 C 1092.74 -5.54745 -4.34093 0
M  V30 11386 H 1088.84 -0.246593 -0.742102 0
M  V30 11387 H 1091.43 -1.16245 -1.5619 0
M  V30 11388 H 1089.6 -0.17399 -3.8801 0
M  V30 11389 H 1091.33 -0.37104 -4.02996 0
M  V30 11390 H 1088.08 -2.38935 -4.0891 0
M  V30 11391 H 1088.51 -4.95822 -4.60966 0
M  V30 11392 H 1093.15 -2.2416 -3.58486 0
M  V30 11393 H 1090.87 -6.53925 -4.74771 0
M  V30 11394 H 1094.45 -4.31993 -3.89709 0
M  V30 11395 H 1093.33 -6.4412 -4.47302 0
M  V30 11396 N 1090.84 1.42931 -0.663954 0
M  V30 11397 C 1092.07 2.06028 -0.189808 0
M  V30 11398 C 1092.48 1.49827 1.14879 0
M  V30 11399 O 1091.84 0.633778 1.71142 0
M  V30 11400 C 1091.89 3.61349 -0.104343 0
M  V30 11401 O 1091.61 4.15463 -1.39004 0
M  V30 11402 C 1093.11 4.4154 0.394599 0
M  V30 11403 H 1090.33 0.664259 -0.0948744 0
M  V30 11404 H 1092.87 1.83255 -0.907632 0
M  V30 11405 H 1091.03 3.83271 0.564103 0
M  V30 11406 H 1091.44 5.09233 -1.25626 0
M  V30 11407 H 1092.92 5.50525 0.403329 0
M  V30 11408 H 1093.39 4.1534 1.4279 0
M  V30 11409 H 1094 4.24612 -0.241729 0
M  V30 11410 N 1092.32 0.406567 1.52266 0
M  V30 11411 C 1093.25 -0.45552 2.24628 0
M  V30 11412 C 1094.26 -1.01234 1.27497 0
M  V30 11413 O 1095.45 -0.911718 1.5346 0
M  V30 11414 C 1092.55 -1.64578 2.96256 0
M  V30 11415 C 1091.72 -1.2133 4.20235 0
M  V30 11416 C 1090.78 -2.27018 4.7471 0
M  V30 11417 O 1089.81 -1.87714 5.37357 0
M  V30 11418 N 1091.01 -3.5915 4.56061 0
M  V30 11419 H 1093.77 0.164525 2.99248 0
M  V30 11420 H 1091.34 0.233812 1.60203 0
M  V30 11421 H 1093.33 -2.3484 3.29594 0
M  V30 11422 H 1091.9 -2.1718 2.24837 0
M  V30 11423 H 1091.12 -0.338892 3.92741 0
M  V30 11424 H 1092.41 -0.901268 5.00754 0
M  V30 11425 H 1091.8 -3.93834 4.06092 0
M  V30 11426 H 1090.36 -4.25397 4.93843 0
M  V30 11427 N 1093.79 -1.57004 0.136909 0
M  V30 11428 C 1094.72 -2.19262 -0.802902 0
M  V30 11429 C 1095.71 -1.13786 -1.26439 0
M  V30 11430 O 1096.89 -1.42091 -1.32377 0
M  V30 11431 C 1094.02 -2.80624 -2.04615 0
M  V30 11432 C 1092.97 -3.91839 -1.72181 0
M  V30 11433 C 1092.3 -4.4009 -3.03686 0
M  V30 11434 C 1093.6 -5.13095 -0.976249 0
M  V30 11435 H 1095.29 -2.98049 -0.28406 0
M  V30 11436 H 1092.84 -1.43364 -0.135189 0
M  V30 11437 H 1094.79 -3.22842 -2.70834 0
M  V30 11438 H 1093.52 -1.99153 -2.58855 0
M  V30 11439 H 1092.18 -3.50224 -1.08344 0
M  V30 11440 H 1091.82 -3.55454 -3.55896 0
M  V30 11441 H 1091.52 -5.15098 -2.82751 0
M  V30 11442 H 1093.05 -4.84971 -3.70993 0
M  V30 11443 H 1094.46 -5.5222 -1.54033 0
M  V30 11444 H 1092.86 -5.93801 -0.867214 0
M  V30 11445 H 1093.93 -4.84888 0.0338488 0
M  V30 11446 N 1095.27 0.136881 -1.57004 0
M  V30 11447 C 1096.68 0.695911 -1.73245 0
M  V30 11448 C 1097.03 1.8118 -0.75288 0
M  V30 11449 O 1096.16 2.16258 0.0782477 0
M  V30 11450 C 1096.75 1.26914 -3.14131 0
M  V30 11451 C 1095.31 1.77463 -3.31939 0
M  V30 11452 C 1094.46 0.667128 -2.69156 0
M  V30 11453 H 1097.41 -0.0888841 -1.58451 0
M  V30 11454 H 1097.43 2.13892 -3.14691 0
M  V30 11455 H 1096.94 0.456754 -3.85403 0
M  V30 11456 H 1095.05 2.61236 -2.65681 0
M  V30 11457 H 1095.16 1.89638 -4.39971 0
M  V30 11458 H 1093.52 1.09629 -2.29899 0
M  V30 11459 H 1094.31 -0.13398 -3.43038 0
M  V30 11460 N 1096.75 1.52266 0.40654 0
M  V30 11461 C 1097.68 1.72025 1.51459 0
M  V30 11462 C 1098.7 0.600667 1.51314 0
M  V30 11463 O 1099.88 0.875894 1.55532 0
M  V30 11464 C 1096.98 1.7479 2.90348 0
M  V30 11465 C 1096.16 3.03826 3.14656 0
M  V30 11466 C 1095.22 2.98369 4.33431 0
M  V30 11467 O 1094.24 3.7227 4.30586 0
M  V30 11468 N 1095.44 2.16338 5.38682 0
M  V30 11469 H 1098.21 2.67622 1.34903 0
M  V30 11470 H 1095.77 1.50536 0.595867 0
M  V30 11471 H 1097.76 1.68667 3.67877 0
M  V30 11472 H 1096.33 0.86656 3.00349 0
M  V30 11473 H 1095.55 3.23577 2.25148 0
M  V30 11474 H 1096.84 3.89182 3.27742 0
M  V30 11475 H 1096.24 1.55731 5.43842 0
M  V30 11476 H 1094.8 2.1607 6.14945 0
M  V30 11477 N 1098.23 -0.663929 1.42933 0
M  V30 11478 C 1099.47 -1.43583 1.45476 0
M  V30 11479 C 1099.83 -1.91862 0.0728387 0
M  V30 11480 O 1101.03 -2.68786 -0.0270249 0
M  V30 11481 C 1099.3 -2.59316 2.45947 0
M  V30 11482 S 1100.86 -3.48004 2.6728 0
M  V30 11483 H 1097.68 -0.490261 0.514942 0
M  V30 11484 H 1100.28 -0.771834 1.79619 0
M  V30 11485 H 1098.99 -2.22104 3.45106 0
M  V30 11486 H 1098.52 -3.30577 2.13266 0
M  V30 11487 H 1100.53 -4.55677 1.96399 0
M  V30 11488 N 1099.71 -1.29285 -0.901281 0
M  V30 11489 C 1100.95 -1.17339 -1.65407 0
M  V30 11490 C 1101.29 0.274834 -1.92245 0
M  V30 11491 O 1100.56 1.19865 -1.53176 0
M  V30 11492 C 1100.84 -1.98547 -3.00418 0
M  V30 11493 C 1100.7 -3.51501 -2.80655 0
M  V30 11494 C 1102.02 -1.81062 -4.01129 0
M  V30 11495 H 1099.13 -0.427624 -0.600255 0
M  V30 11496 H 1101.78 -1.58741 -1.0441 0
M  V30 11497 H 1099.93 -1.63366 -3.52482 0
M  V30 11498 H 1101.6 -3.96655 -2.35505 0
M  V30 11499 H 1099.84 -3.76504 -2.15469 0
M  V30 11500 H 1100.51 -4.03593 -3.76585 0
M  V30 11501 H 1102.99 -2.11788 -3.58169 0
M  V30 11502 H 1101.86 -2.40235 -4.93536 0
M  V30 11503 H 1102.13 -0.765388 -4.35424 0
M  V30 11504 N 1101.18 1.11143 -1.11736 0
M  V30 11505 C 1102.15 2.15456 -0.78174 0
M  V30 11506 C 1103.15 1.59547 0.200383 0
M  V30 11507 O 1104.34 1.74183 -0.0244893 0
M  V30 11508 C 1101.47 3.40523 -0.160364 0
M  V30 11509 H 1102.66 2.46658 -1.70586 0
M  V30 11510 H 1100.22 1.26381 -0.919644 0
M  V30 11511 H 1100.95 3.14932 0.773835 0
M  V30 11512 H 1100.74 3.82386 -0.867378 0
M  V30 11513 H 1102.23 4.17559 0.0582175 0
M  V30 11514 N 1102.66 0.908147 1.28804 0
M  V30 11515 C 1103.91 0.534332 1.94494 0
M  V30 11516 C 1104.22 -0.92552 1.72318 0
M  V30 11517 O 1105.43 -1.40724 2.32183 0
M  V30 11518 C 1103.89 0.904748 3.48342 0
M  V30 11519 C 1103.49 2.38394 3.79305 0
M  V30 11520 C 1105.24 0.601249 4.2022 0
M  V30 11521 C 1103.15 2.69478 5.26437 0
M  V30 11522 H 1102.08 0.196107 0.728051 0
M  V30 11523 H 1104.73 1.1063 1.46401 0
M  V30 11524 H 1103.11 0.261624 3.95135 0
M  V30 11525 H 1104.28 3.07333 3.43341 0
M  V30 11526 H 1102.6 2.65733 3.20586 0
M  V30 11527 H 1105.19 0.810225 5.28526 0
M  V30 11528 H 1105.54 -0.460669 4.13743 0
M  V30 11529 H 1106.07 1.20259 3.79187 0
M  V30 11530 H 1102.81 3.74501 5.37986 0
M  V30 11531 H 1102.33 2.05171 5.63618 0
M  V30 11532 H 1104.01 2.56187 5.94119 0
M  V30 11533 N 1104.14 -1.42577 0.671525 0
M  V30 11534 C 1105.42 -1.95222 0.121529 0
M  V30 11535 C 1105.8 -1.61209 -1.36289 0
M  V30 11536 O 1105.15 -0.906561 -2.09747 0
M  V30 11537 C 1105.36 -3.46846 0.387189 0
M  V30 11538 C 1106.7 -4.23525 0.301938 0
M  V30 11539 O 1107.73 -3.54753 0.320755 0
M  V30 11540 O 1106.59 -5.45967 0.241317 0
M  V30 11541 H 1103.68 -0.826999 0.000968615 0
M  V30 11542 H 1106.23 -1.52422 0.746029 0
M  V30 11543 H 1105 -3.64795 1.41563 0
M  V30 11544 H 1104.62 -3.96686 -0.26948 0
M  V30 11545 N 1105.62 -0.414636 -1.52048 0
M  V30 11546 C 1106.57 0.408141 -2.27163 0
M  V30 11547 C 1107.54 1.03636 -1.29803 0
M  V30 11548 O 1108.72 1.05959 -1.58674 0
M  V30 11549 C 1105.86 1.51588 -3.10024 0
M  V30 11550 C 1104.97 0.908034 -4.22349 0
M  V30 11551 C 1104.11 1.98893 -4.9256 0
M  V30 11552 C 1103.15 1.35831 -5.96839 0
M  V30 11553 N 1102.28 2.37958 -6.60545 0
M  V30 11554 H 1107.12 -0.238822 -2.97041 0
M  V30 11555 H 1104.66 -0.129614 -1.46528 0
M  V30 11556 H 1106.62 2.16916 -3.56375 0
M  V30 11557 H 1105.25 2.13279 -2.42305 0
M  V30 11558 H 1104.3 0.143652 -3.80129 0
M  V30 11559 H 1105.61 0.407426 -4.97133 0
M  V30 11560 H 1104.77 2.71935 -5.42343 0
M  V30 11561 H 1103.51 2.5232 -4.17356 0
M  V30 11562 H 1102.51 0.613246 -5.46369 0
M  V30 11563 H 1103.74 0.831655 -6.73988 0
M  V30 11564 H 1101.68 2.90508 -5.88167 0
M  V30 11565 H 1101.6 1.92725 -7.31022 0
M  V30 11566 H 1102.87 3.10553 -7.14966 0
M  V30 11567 N 1107.1 1.56929 -0.145233 0
M  V30 11568 C 1108.03 2.19685 0.791263 0
M  V30 11569 C 1109.01 1.14455 1.25833 0
M  V30 11570 O 1110.19 1.42791 1.31622 0
M  V30 11571 C 1107.32 2.81705 2.03124 0
M  V30 11572 C 1106.28 3.92746 1.70101 0
M  V30 11573 C 1105.6 4.41694 3.01347 0
M  V30 11574 C 1106.9 5.13606 0.949025 0
M  V30 11575 H 1108.6 2.98196 0.26825 0
M  V30 11576 H 1106.14 1.43434 0.127584 0
M  V30 11577 H 1108.1 3.24273 2.69119 0
M  V30 11578 H 1106.82 2.00523 2.57795 0
M  V30 11579 H 1105.48 3.50794 1.06486 0
M  V30 11580 H 1105.13 3.57336 3.54006 0
M  V30 11581 H 1104.83 5.1659 2.80016 0
M  V30 11582 H 1106.35 4.86931 3.68416 0
M  V30 11583 H 1107.76 5.53029 1.51102 0
M  V30 11584 H 1106.16 5.94252 0.835711 0
M  V30 11585 H 1107.23 4.84863 -0.0595631 0
M  V30 11586 N 1108.58 -0.128553 1.57075 0
M  V30 11587 C 1109.52 -1.15812 1.9964 0
M  V30 11588 C 1110.49 -1.41679 0.86696 0
M  V30 11589 O 1111.68 -1.53705 1.13046 0
M  V30 11590 C 1108.82 -2.48198 2.39774 0
M  V30 11591 C 1107.93 -2.29348 3.66092 0
M  V30 11592 C 1107.07 -3.54898 3.95248 0
M  V30 11593 C 1106.1 -3.31164 5.14779 0
M  V30 11594 N 1105.24 -4.48891 5.39853 0
M  V30 11595 H 1110.08 -0.788136 2.87389 0
M  V30 11596 H 1107.62 -0.377682 1.42169 0
M  V30 11597 H 1109.58 -3.25414 2.61077 0
M  V30 11598 H 1108.21 -2.83108 1.5508 0
M  V30 11599 H 1107.26 -1.43095 3.5246 0
M  V30 11600 H 1108.57 -2.07781 4.53463 0
M  V30 11601 H 1107.72 -4.40536 4.17148 0
M  V30 11602 H 1106.46 -3.79487 3.06335 0
M  V30 11603 H 1105.47 -2.43915 4.92733 0
M  V30 11604 H 1106.69 -3.07954 6.05261 0
M  V30 11605 H 1104.64 -4.73619 4.53895 0
M  V30 11606 H 1104.56 -4.30394 6.21528 0
M  V30 11607 H 1105.82 -5.35691 5.66265 0
M  V30 11608 N 1110.05 -1.5248 -0.398459 0
M  V30 11609 C 1111 -1.76585 -1.48615 0
M  V30 11610 C 1111.97 -0.608677 -1.54546 0
M  V30 11611 O 1113.16 -0.847383 -1.7095 0
M  V30 11612 C 1110.3 -1.93201 -2.8595 0
M  V30 11613 C 1109.41 -3.20875 -2.89246 0
M  V30 11614 C 1108.54 -3.27862 -4.17947 0
M  V30 11615 C 1107.58 -4.49697 -4.15258 0
M  V30 11616 N 1106.72 -4.54017 -5.35549 0
M  V30 11617 H 1111.56 -2.69412 -1.27362 0
M  V30 11618 H 1109.1 -1.33487 -0.618031 0
M  V30 11619 H 1111.05 -2.00819 -3.65688 0
M  V30 11620 H 1109.68 -1.03743 -3.05675 0
M  V30 11621 H 1108.74 -3.22376 -2.01935 0
M  V30 11622 H 1110.05 -4.1066 -2.83125 0
M  V30 11623 H 1109.2 -3.34611 -5.06083 0
M  V30 11624 H 1107.94 -2.36035 -4.26777 0
M  V30 11625 H 1106.95 -4.43083 -3.25511 0
M  V30 11626 H 1108.17 -5.42831 -4.08059 0
M  V30 11627 H 1106.12 -3.65078 -5.45027 0
M  V30 11628 H 1106.03 -5.37661 -5.31466 0
M  V30 11629 H 1107.3 -4.65009 -6.25609 0
M  V30 11630 N 1111.53 0.65634 -1.43283 0
M  V30 11631 C 1112.77 1.4281 -1.46235 0
M  V30 11632 C 1113.14 1.9182 -0.0830126 0
M  V30 11633 O 1114.34 2.68797 0.0127701 0
M  V30 11634 C 1112.61 2.58008 -2.47319 0
M  V30 11635 S 1114.17 3.46582 -2.69122 0
M  V30 11636 H 1110.98 0.487523 -0.517534 0
M  V30 11637 H 1113.59 0.762298 -1.80026 0
M  V30 11638 H 1112.29 2.20271 -3.46279 0
M  V30 11639 H 1111.82 3.29441 -2.15016 0
M  V30 11640 H 1113.84 4.54629 -1.98813 0
M  V30 11641 N 1113.01 1.29761 0.894412 0
M  V30 11642 C 1113.96 1.15341 1.99912 0
M  V30 11643 C 1114.93 0.0453488 1.66038 0
M  V30 11644 O 1116.11 0.213829 1.89598 0
M  V30 11645 C 1113.25 0.841432 3.34685 0
M  V30 11646 C 1112.36 2.03046 3.81309 0
M  V30 11647 C 1111.5 1.65739 5.04682 0
M  V30 11648 C 1110.54 2.81191 5.43689 0
M  V30 11649 N 1109.68 2.44244 6.58247 0
M  V30 11650 H 1114.52 2.09854 2.11578 0
M  V30 11651 H 1112.05 1.04421 1.03608 0
M  V30 11652 H 1114.01 0.641211 4.12243 0
M  V30 11653 H 1112.64 -0.066797 3.22731 0
M  V30 11654 H 1111.69 2.34222 2.9974 0
M  V30 11655 H 1113 2.89538 4.06164 0
M  V30 11656 H 1112.16 1.42036 5.8984 0
M  V30 11657 H 1110.9 0.764019 4.81678 0
M  V30 11658 H 1109.9 3.0557 4.57064 0
M  V30 11659 H 1111.13 3.712 5.68672 0
M  V30 11660 H 1109.07 1.57402 6.36837 0
M  V30 11661 H 1108.99 3.24269 6.82924 0
M  V30 11662 H 1110.26 2.23875 7.46659 0
M  V30 11663 N 1114.49 -1.10549 1.12324 0
M  V30 11664 C 1115.71 -1.8681 0.900927 0
M  V30 11665 C 1116.14 -1.80049 -0.54443 0
M  V30 11666 O 1115.5 -1.16957 -1.38531 0
M  V30 11667 C 1115.54 -3.33197 1.37883 0
M  V30 11668 O 1114.65 -4.08628 0.556529 0
M  V30 11669 H 1113.99 -0.579709 0.32378 0
M  V30 11670 H 1116.52 -1.39678 1.49503 0
M  V30 11671 H 1116.53 -3.84047 1.37739 0
M  V30 11672 H 1115.2 -3.37435 2.43127 0
M  V30 11673 H 1113.78 -3.67627 0.62486 0
M  V30 11674 N 1115.97 -0.914965 -1.28321 0
M  V30 11675 C 1117.19 -0.564023 -1.99583 0
M  V30 11676 C 1117.62 0.847821 -1.6791 0
M  V30 11677 O 1116.97 1.56682 -0.912171 0
M  V30 11678 C 1117.02 -0.781368 -3.52033 0
M  V30 11679 O 1116.13 0.159072 -4.12093 0
M  V30 11680 H 1115.47 -0.218565 -0.626997 0
M  V30 11681 H 1118 -1.23074 -1.63444 0
M  V30 11682 H 1118.01 -0.691946 -4.0209 0
M  V30 11683 H 1116.68 -1.81059 -3.7442 0
M  V30 11684 H 1115.26 0.0208145 -3.72894 0
M  V30 11685 N 1117.44 1.42219 -0.679077 0
M  V30 11686 C 1118.39 2.32599 0.00820028 0
M  V30 11687 C 1119.39 1.50059 0.786046 0
M  V30 11688 O 1120.59 1.66103 0.693528 0
M  V30 11689 H 1116.97 0.751694 0.0214483 0
M  V30 11690 H 1118.94 2.88257 -0.77138 0
M  V30 11691 C 1117.69 3.3468 0.942581 0
M  V30 11692 H 1117.01 3.98234 0.353463 0
M  V30 11693 H 1118.45 4.00496 1.39208 0
M  V30 11694 C 1116.91 2.67275 2.05099 0
M  V30 11695 O 1117.44 2.50793 3.13793 0
M  V30 11696 N 1115.64 2.26232 1.82394 0
M  V30 11697 H 1115.19 2.39838 0.939983 0
M  V30 11698 H 1115.15 1.81465 2.56744 0
M  V30 11699 N 1118.92 0.422693 1.51826 0
M  V30 11700 C 1119.85 -0.386913 2.30272 0
M  V30 11701 C 1120.83 -1.03411 1.35056 0
M  V30 11702 O 1122.02 -1.04055 1.6397 0
M  V30 11703 C 1119.15 -1.49645 3.13407 0
M  V30 11704 C 1118.1 -0.973532 4.16781 0
M  V30 11705 C 1117.43 -2.1777 4.88344 0
M  V30 11706 C 1118.73 -0.0181194 5.22297 0
M  V30 11707 H 1120.42 0.267697 2.98201 0
M  V30 11708 H 1117.97 0.130186 1.4341 0
M  V30 11709 H 1119.92 -2.06993 3.67059 0
M  V30 11710 H 1118.64 -2.17914 2.43272 0
M  V30 11711 H 1117.3 -0.42237 3.64159 0
M  V30 11712 H 1116.95 -2.84625 4.14726 0
M  V30 11713 H 1116.65 -1.83427 5.58237 0
M  V30 11714 H 1118.18 -2.75699 5.44814 0
M  V30 11715 H 1119.59 -0.500822 5.71108 0
M  V30 11716 H 1117.99 0.237163 5.99631 0
M  V30 11717 H 1119.06 0.923065 4.76033 0
M  V30 11718 N 1120.4 -1.5685 0.153553 0
M  V30 11719 C 1121.65 -1.95509 -0.495911 0
M  V30 11720 C 1121.96 -1.04129 -1.65579 0
M  V30 11721 O 1123.17 -1.32394 -2.37032 0
M  V30 11722 C 1121.62 -3.47579 -0.933622 0
M  V30 11723 C 1121.23 -4.47555 0.199684 0
M  V30 11724 C 1122.98 -3.95092 -1.55251 0
M  V30 11725 C 1120.88 -5.90843 -0.256663 0
M  V30 11726 H 1119.81 -0.729919 -0.189035 0
M  V30 11727 H 1122.46 -1.81938 0.238947 0
M  V30 11728 H 1120.85 -3.56506 -1.72394 0
M  V30 11729 H 1122.02 -4.50329 0.976744 0
M  V30 11730 H 1120.33 -4.09997 0.727394 0
M  V30 11731 H 1122.93 -4.99588 -1.90567 0
M  V30 11732 H 1123.27 -3.37015 -2.4439 0
M  V30 11733 H 1123.81 -3.89109 -0.826969 0
M  V30 11734 H 1120.55 -6.52753 0.599515 0
M  V30 11735 H 1120.07 -5.91414 -0.999458 0
M  V30 11736 H 1121.75 -6.43131 -0.70649 0
M  V30 11737 N 1121.88 0.120221 -1.57141 0
M  V30 11738 C 1123.13 0.826791 -1.83976 0
M  V30 11739 C 1123.44 1.81102 -0.739014 0
M  V30 11740 O 1124.65 2.56368 -0.893736 0
M  V30 11741 C 1123.1 1.52108 -3.26176 0
M  V30 11742 C 1122.71 0.577902 -4.44257 0
M  V30 11743 C 1124.45 2.21286 -3.62261 0
M  V30 11744 C 1122.36 1.27535 -5.77485 0
M  V30 11745 H 1121.29 0.312508 -0.686189 0
M  V30 11746 H 1123.94 0.0795343 -1.83328 0
M  V30 11747 H 1122.32 2.31492 -3.2129 0
M  V30 11748 H 1123.5 -0.182629 -4.60438 0
M  V30 11749 H 1121.81 -0.00684348 -4.16399 0
M  V30 11750 H 1124.41 2.74154 -4.59068 0
M  V30 11751 H 1124.75 2.99029 -2.89634 0
M  V30 11752 H 1125.29 1.48791 -3.68925 0
M  V30 11753 H 1122.02 0.539237 -6.53278 0
M  V30 11754 H 1121.54 2.00792 -5.65192 0
M  V30 11755 H 1123.22 1.80888 -6.21199 0
M  V30 11756 N 1123.36 1.52689 0.390367 0
M  V30 11757 C 1124.29 1.80338 1.48325 0
M  V30 11758 C 1125.27 0.655338 1.56969 0
M  V30 11759 O 1126.45 0.902792 1.7194 0
M  V30 11760 C 1123.58 1.97101 2.85952 0
M  V30 11761 C 1122.54 3.12783 2.92148 0
M  V30 11762 C 1121.86 3.14798 4.32211 0
M  V30 11763 C 1123.16 4.5188 2.61919 0
M  V30 11764 H 1124.86 2.71857 1.25437 0
M  V30 11765 H 1122.4 1.30813 0.601995 0
M  V30 11766 H 1124.36 2.15027 3.62411 0
M  V30 11767 H 1123.08 1.02271 3.10174 0
M  V30 11768 H 1121.74 2.94638 2.18137 0
M  V30 11769 H 1121.39 2.17653 4.53471 0
M  V30 11770 H 1121.09 3.92507 4.37278 0
M  V30 11771 H 1122.61 3.34877 5.10578 0
M  V30 11772 H 1124.02 4.70134 3.28096 0
M  V30 11773 H 1122.42 5.31647 2.78337 0
M  V30 11774 H 1123.49 4.58689 1.57266 0
M  V30 11775 N 1124.83 -0.648732 1.43629 0
M  V30 11776 C 1125.74 -1.79046 1.51591 0
M  V30 11777 C 1126.76 -1.69276 0.402697 0
M  V30 11778 O 1127.94 -1.90366 0.657484 0
M  V30 11779 C 1125 -3.15347 1.44073 0
M  V30 11780 C 1124.06 -3.3688 2.66102 0
M  V30 11781 C 1123.3 -4.66679 2.58933 0
M  V30 11782 O 1123.52 -5.46328 1.63956 0
M  V30 11783 O 1122.45 -4.9003 3.49506 0
M  V30 11784 H 1126.28 -1.75283 2.48011 0
M  V30 11785 H 1123.86 -0.807774 1.2568 0
M  V30 11786 H 1125.75 -3.96633 1.42339 0
M  V30 11787 H 1124.42 -3.19691 0.50789 0
M  V30 11788 H 1123.33 -2.55341 2.73407 0
M  V30 11789 H 1124.66 -3.37386 3.58373 0
M  V30 11790 N 1126.31 -1.30234 -0.887518 0
M  V30 11791 C 1127.22 -1.18316 -2.02579 0
M  V30 11792 C 1128.24 -0.103658 -1.73691 0
M  V30 11793 O 1129.41 -0.3181 -1.98872 0
M  V30 11794 C 1126.48 -0.873222 -3.35523 0
M  V30 11795 C 1125.54 -2.03783 -3.7785 0
M  V30 11796 C 1124.77 -1.74258 -5.0445 0
M  V30 11797 O 1125 -0.669295 -5.6646 0
M  V30 11798 O 1123.93 -2.59423 -5.43124 0
M  V30 11799 H 1127.76 -2.13933 -2.15561 0
M  V30 11800 H 1125.34 -1.09803 -1.0131 0
M  V30 11801 H 1127.22 -0.715463 -4.15282 0
M  V30 11802 H 1125.9 0.053056 -3.23657 0
M  V30 11803 H 1124.81 -2.2509 -2.98806 0
M  V30 11804 H 1126.14 -2.94574 -3.94318 0
M  V30 11805 N 1127.79 1.09952 -1.12909 0
M  V30 11806 C 1128.74 2.14591 -0.77037 0
M  V30 11807 C 1129.72 1.59204 0.233021 0
M  V30 11808 O 1130.92 1.7696 0.0377599 0
M  V30 11809 C 1128.05 3.42514 -0.232117 0
M  V30 11810 C 1127.13 4.04823 -1.26409 0
M  V30 11811 N 1127.52 4.41763 -2.46331 0
M  V30 11812 C 1125.82 4.31951 -1.11062 0
M  V30 11813 C 1126.52 4.90778 -3.12269 0
M  V30 11814 N 1125.5 4.87896 -2.39704 0
M  V30 11815 H 1129.3 2.40951 -1.68285 0
M  V30 11816 H 1126.81 1.27125 -1.0106 0
M  V30 11817 H 1128.81 4.16878 0.0430853 0
M  V30 11818 H 1127.47 3.17612 0.674757 0
M  V30 11819 H 1128.48 4.33299 -2.83677 0
M  V30 11820 H 1125.16 4.16681 -0.261456 0
M  V30 11821 H 1126.55 5.28868 -4.14425 0
M  V30 11822 N 1129.27 0.921757 1.27833 0
M  V30 11823 C 1130.2 0.433466 2.29441 0
M  V30 11824 C 1131.18 -0.503133 1.62489 0
M  V30 11825 O 1132.36 -0.409156 1.89841 0
M  V30 11826 C 1129.49 -0.320029 3.45822 0
M  V30 11827 C 1128.45 0.528178 4.24728 0
M  V30 11828 C 1127.77 -0.354132 5.33526 0
M  V30 11829 C 1129.07 1.78959 4.90684 0
M  V30 11830 H 1130.77 1.28263 2.70535 0
M  V30 11831 H 1128.31 0.618197 1.30055 0
M  V30 11832 H 1130.27 -0.672526 4.15999 0
M  V30 11833 H 1128.99 -1.20317 3.0363 0
M  V30 11834 H 1127.65 0.863302 3.5629 0
M  V30 11835 H 1127.3 -1.23605 4.87576 0
M  V30 11836 H 1127 0.209855 5.87225 0
M  V30 11837 H 1128.52 -0.702333 6.06547 0
M  V30 11838 H 1129.94 1.50552 5.53179 0
M  V30 11839 H 1128.33 2.29661 5.54415 0
M  V30 11840 H 1129.4 2.51265 4.14721 0
M  V30 11841 N 1130.75 -1.41857 0.686609 0
M  V30 11842 C 1131.69 -2.30795 0.015643 0
M  V30 11843 C 1132.66 -1.46616 -0.780569 0
M  V30 11844 O 1133.85 -1.75423 -0.750424 0
M  V30 11845 C 1130.99 -3.32577 -0.921229 0
M  V30 11846 C 1130.1 -4.3184 -0.117585 0
M  V30 11847 C 1129.24 -5.20693 -1.05128 0
M  V30 11848 C 1128.28 -6.11629 -0.240018 0
M  V30 11849 N 1127.41 -6.92995 -1.12704 0
M  V30 11850 H 1132.25 -2.87615 0.77985 0
M  V30 11851 H 1129.79 -1.41661 0.396298 0
M  V30 11852 H 1131.75 -3.90129 -1.47836 0
M  V30 11853 H 1130.38 -2.77328 -1.65193 0
M  V30 11854 H 1129.43 -3.7631 0.55634 0
M  V30 11855 H 1130.74 -4.96168 0.511753 0
M  V30 11856 H 1129.9 -5.83035 -1.67795 0
M  V30 11857 H 1128.63 -4.5657 -1.71449 0
M  V30 11858 H 1127.64 -5.48345 0.399779 0
M  V30 11859 H 1128.86 -6.77805 0.419266 0
M  V30 11860 H 1126.81 -6.31489 -1.77644 0
M  V30 11861 H 1126.73 -7.53974 -0.553065 0
M  V30 11862 H 1128 -7.59813 -1.7408 0
M  V30 11863 N 1132.22 -0.430739 -1.51599 0
M  V30 11864 C 1133.17 0.398482 -2.29161 0
M  V30 11865 C 1134.17 1.02676 -1.34737 0
M  V30 11866 O 1135.37 0.96248 -1.52106 0
M  V30 11867 H 1131.75 0.14731 -0.737431 0
M  V30 11868 H 1133.72 -0.276619 -2.97115 0
M  V30 11869 C 1132.47 1.49094 -3.14112 0
M  V30 11870 H 1131.79 1.01685 -3.86652 0
M  V30 11871 H 1133.23 2.04453 -3.7145 0
M  V30 11872 C 1131.69 2.47049 -2.29059 0
M  V30 11873 O 1132.22 3.51435 -1.94567 0
M  V30 11874 N 1130.43 2.17778 -1.92409 0
M  V30 11875 H 1129.97 1.3292 -2.20658 0
M  V30 11876 H 1129.93 2.8356 -1.35798 0
M  V30 11877 N 1133.7 1.56767 -0.161869 0
M  V30 11878 C 1134.65 2.17502 0.772102 0
M  V30 11879 C 1135.62 1.11223 1.23364 0
M  V30 11880 O 1136.8 1.39332 1.30351 0
M  V30 11881 C 1133.94 2.81248 1.99984 0
M  V30 11882 C 1133.06 4.01962 1.58274 0
M  V30 11883 C 1132.19 4.53662 2.76341 0
M  V30 11884 C 1131.23 5.66807 2.31076 0
M  V30 11885 N 1130.37 6.13059 3.42203 0
M  V30 11886 H 1135.21 2.96971 0.247382 0
M  V30 11887 H 1132.75 1.46685 0.110382 0
M  V30 11888 H 1134.7 3.16359 2.7198 0
M  V30 11889 H 1133.33 2.04398 2.49842 0
M  V30 11890 H 1132.39 3.72733 0.759874 0
M  V30 11891 H 1133.7 4.83891 1.2104 0
M  V30 11892 H 1132.85 4.90905 3.56507 0
M  V30 11893 H 1131.59 3.7077 3.16829 0
M  V30 11894 H 1130.6 5.29125 1.49354 0
M  V30 11895 H 1131.82 6.51494 1.91657 0
M  V30 11896 H 1129.77 5.33099 3.82285 0
M  V30 11897 H 1129.68 6.89953 3.09033 0
M  V30 11898 H 1130.95 6.54951 4.22682 0
M  V30 11899 N 1135.18 -0.111886 1.57202 0
M  V30 11900 C 1136.13 -1.13688 2.00858 0
M  V30 11901 C 1137.1 -1.40752 0.881939 0
M  V30 11902 O 1138.28 -1.52498 1.14669 0
M  V30 11903 C 1135.42 -2.45641 2.42393 0
M  V30 11904 C 1134.54 -2.25452 3.68504 0
M  V30 11905 C 1133.67 -3.50686 3.9899 0
M  V30 11906 C 1132.71 -3.25685 5.18262 0
M  V30 11907 N 1131.85 -4.4314 5.44583 0
M  V30 11908 H 1136.69 -0.757611 2.88209 0
M  V30 11909 H 1134.22 -0.362582 1.42561 0
M  V30 11910 H 1136.18 -3.22627 2.64514 0
M  V30 11911 H 1134.81 -2.81447 1.58074 0
M  V30 11912 H 1133.86 -1.39349 3.53958 0
M  V30 11913 H 1135.18 -2.0296 4.55641 0
M  V30 11914 H 1134.33 -4.36087 4.21797 0
M  V30 11915 H 1133.07 -3.76216 3.10343 0
M  V30 11916 H 1132.07 -2.38675 4.95292 0
M  V30 11917 H 1133.3 -3.01518 6.08493 0
M  V30 11918 H 1131.24 -4.68778 4.58893 0
M  V30 11919 H 1131.16 -4.23778 6.26058 0
M  V30 11920 H 1132.43 -5.29654 5.71915 0
M  V30 11921 N 1136.66 -1.52894 -0.382264 0
M  V30 11922 C 1137.57 -1.81084 -1.4915 0
M  V30 11923 C 1138.58 -0.698045 -1.59384 0
M  V30 11924 O 1139.76 -0.98635 -1.75594 0
M  V30 11925 C 1136.83 -1.97987 -2.84608 0
M  V30 11926 C 1135.89 -3.219 -2.8404 0
M  V30 11927 C 1135.12 -3.37988 -4.13037 0
M  V30 11928 O 1135.34 -2.58733 -5.08344 0
M  V30 11929 O 1134.28 -4.31273 -4.19866 0
M  V30 11930 H 1138.1 -2.75289 -1.28257 0
M  V30 11931 H 1135.69 -1.38068 -0.57076 0
M  V30 11932 H 1137.57 -2.10773 -3.64901 0
M  V30 11933 H 1136.24 -1.06972 -3.05514 0
M  V30 11934 H 1135.15 -3.14551 -2.02505 0
M  V30 11935 H 1136.48 -4.12783 -2.68087 0
M  V30 11936 N 1138.14 0.641106 -1.43971 0
M  V30 11937 C 1139.38 1.40084 -1.46228 0
M  V30 11938 C 1139.71 1.94287 -0.0911011 0
M  V30 11939 O 1138.97 1.73481 0.905688 0
M  V30 11940 C 1139.27 2.59092 -2.46183 0
M  V30 11941 C 1138.93 2.23237 -3.9176 0
M  V30 11942 C 1137.59 2.13171 -4.31407 0
M  V30 11943 C 1139.95 1.94746 -4.83449 0
M  V30 11944 C 1137.27 1.72788 -5.60679 0
M  V30 11945 C 1139.63 1.55858 -6.13099 0
M  V30 11946 C 1138.29 1.44326 -6.5171 0
M  V30 11947 H 1137.56 0.512603 -0.535088 0
M  V30 11948 H 1140.21 0.727956 -1.77124 0
M  V30 11949 H 1138.51 3.31568 -2.08734 0
M  V30 11950 H 1140.21 3.17313 -2.4518 0
M  V30 11951 H 1136.8 2.31986 -3.60389 0
M  V30 11952 H 1140.98 2.01438 -4.53582 0
M  V30 11953 H 1136.24 1.62455 -5.89422 0
M  V30 11954 H 1140.41 1.32848 -6.83611 0
M  V30 11955 H 1138.04 1.12806 -7.51784 0
M  V30 11956 N 1139.62 1.30703 0.880598 0
M  V30 11957 C 1140.89 1.1043 1.61445 0
M  V30 11958 C 1141.27 -0.344837 2.08264 0
M  V30 11959 O 1140.62 -1.33711 1.85293 0
M  V30 11960 C 1140.83 2.10908 2.78063 0
M  V30 11961 C 1142.18 2.42861 3.48287 0
M  V30 11962 O 1143.2 2.09252 2.88257 0
M  V30 11963 O 1142.06 3.00369 4.56553 0
M  V30 11964 H 1139.16 0.424419 0.709787 0
M  V30 11965 H 1141.7 1.42144 0.926991 0
M  V30 11966 H 1140.47 3.08431 2.40803 0
M  V30 11967 H 1140.1 1.80036 3.54503 0
M  V30 11968 N 1141.09 -1.09351 1.1349 0
M  V30 11969 C 1142.04 -2.14179 0.781739 0
M  V30 11970 C 1143.03 -1.59325 -0.224575 0
M  V30 11971 O 1144.22 -1.76977 -0.0283747 0
M  V30 11972 C 1141.35 -3.42386 0.250278 0
M  V30 11973 C 1140.43 -4.04147 1.28555 0
M  V30 11974 N 1140.83 -4.40451 2.4867 0
M  V30 11975 C 1139.12 -4.31356 1.13351 0
M  V30 11976 C 1139.82 -4.89115 3.14867 0
M  V30 11977 N 1138.8 -4.86618 2.42289 0
M  V30 11978 H 1142.6 -2.40055 1.69561 0
M  V30 11979 H 1140.12 -1.26587 1.01733 0
M  V30 11980 H 1142.11 -4.16895 -0.0209767 0
M  V30 11981 H 1140.77 -3.17965 -0.657904 0
M  V30 11982 H 1141.78 -4.31789 2.8597 0
M  V30 11983 H 1138.46 -4.16536 0.28355 0
M  V30 11984 H 1139.85 -5.26663 4.17224 0
M  V30 11985 N 1142.57 -0.928524 -1.27343 0
M  V30 11986 C 1143.52 -0.418768 -2.28799 0
M  V30 11987 C 1144.51 0.497334 -1.61935 0
M  V30 11988 O 1145.72 0.376945 -1.76009 0
M  V30 11989 H 1142.09 -0.116855 -0.742865 0
M  V30 11990 H 1144.07 -1.28725 -2.69207 0
M  V30 11991 C 1142.81 0.312422 -3.46294 0
M  V30 11992 H 1142.14 -0.383317 -3.97958 0
M  V30 11993 H 1143.58 0.633514 -4.19241 0
M  V30 11994 C 1142.04 1.5257 -3.00373 0
M  V30 11995 O 1142.57 2.62443 -3.04116 0
M  V30 11996 N 1140.77 1.37782 -2.5586 0
M  V30 11997 H 1140.32 0.483908 -2.53014 0
M  V30 11998 H 1140.28 2.19085 -2.25498 0
M  V30 11999 N 1144.05 1.41491 -0.694123 0
M  V30 12000 C 1145.27 2.06099 -0.23197 0
M  V30 12001 C 1145.7 1.51888 1.10958 0
M  V30 12002 O 1145.06 0.645247 1.69429 0
M  V30 12003 C 1145.11 3.60053 -0.198522 0
M  V30 12004 O 1144.21 4.04021 0.827067 0
M  V30 12005 H 1143.55 0.654193 -0.113699 0
M  V30 12006 H 1146.08 1.81282 -0.948575 0
M  V30 12007 H 1146.09 4.0799 -0.0288904 0
M  V30 12008 H 1144.77 3.98879 -1.17764 0
M  V30 12009 H 1143.34 3.67593 0.626908 0
M  V30 12010 N 1145.53 0.438773 1.51369 0
M  V30 12011 C 1146.48 -0.386324 2.29369 0
M  V30 12012 C 1147.47 -1.0196 1.3528 0
M  V30 12013 O 1148.68 -0.9544 1.52615 0
M  V30 12014 H 1145.05 -0.143397 0.738201 0
M  V30 12015 H 1147.02 0.292372 2.96964 0
M  V30 12016 C 1145.77 -1.47426 3.14898 0
M  V30 12017 H 1145.09 -0.996335 3.87186 0
M  V30 12018 H 1146.53 -2.02481 3.72529 0
M  V30 12019 C 1144.99 -2.45831 2.30366 0
M  V30 12020 O 1145.52 -3.50398 1.96428 0
M  V30 12021 N 1143.73 -2.16754 1.93561 0
M  V30 12022 H 1143.28 -1.31748 2.2136 0
M  V30 12023 H 1143.23 -2.82836 1.373 0
M  V30 12024 N 1147.01 -1.56678 0.170181 0
M  V30 12025 C 1148.25 -1.96024 -0.475147 0
M  V30 12026 C 1148.57 -1.0588 -1.64465 0
M  V30 12027 O 1149.77 -1.34901 -2.35614 0
M  V30 12028 C 1148.23 -3.4855 -0.896704 0
M  V30 12029 C 1147.84 -4.47318 0.247142 0
M  V30 12030 C 1149.58 -3.96716 -1.51052 0
M  V30 12031 C 1147.49 -5.91082 -0.193982 0
M  V30 12032 H 1146.42 -0.731883 -0.181282 0
M  V30 12033 H 1149.07 -1.81674 0.25823 0
M  V30 12034 H 1147.45 -3.58314 -1.68603 0
M  V30 12035 H 1148.63 -4.49268 1.02445 0
M  V30 12036 H 1146.94 -4.09203 0.770839 0
M  V30 12037 H 1149.54 -5.01581 -1.85258 0
M  V30 12038 H 1149.88 -3.39588 -2.40802 0
M  V30 12039 H 1150.41 -3.89965 -0.785652 0
M  V30 12040 H 1147.15 -6.5208 0.668714 0
M  V30 12041 H 1146.67 -5.92441 -0.936675 0
M  V30 12042 H 1148.35 -6.43844 -0.638237 0
M  V30 12043 N 1148.48 0.103547 -1.57259 0
M  V30 12044 C 1149.9 0.457527 -1.52901 0
M  V30 12045 C 1150.1 1.80995 -0.8856 0
M  V30 12046 O 1149.16 2.48001 -0.474504 0
M  V30 12047 C 1150.47 0.427793 -2.97641 0
M  V30 12048 C 1152.02 0.51025 -3.08813 0
M  V30 12049 C 1152.49 0.51075 -4.55143 0
M  V30 12050 N 1153.98 0.571748 -4.59658 0
M  V30 12051 C 1154.72 0.593836 -5.70317 0
M  V30 12052 N 1154.21 0.572638 -6.90429 0
M  V30 12053 N 1156.01 0.638011 -5.58467 0
M  V30 12054 H 1148.16 -0.782408 -1.97464 0
M  V30 12055 H 1150.42 -0.290324 -0.90245 0
M  V30 12056 H 1150.13 -0.498608 -3.48148 0
M  V30 12057 H 1150 1.24991 -3.55889 0
M  V30 12058 H 1152.39 1.42707 -2.583 0
M  V30 12059 H 1152.47 -0.339846 -2.53532 0
M  V30 12060 H 1152.11 -0.40209 -5.06306 0
M  V30 12061 H 1152.04 1.37794 -5.08252 0
M  V30 12062 H 1154.53 0.593668 -3.73208 0
M  V30 12063 H 1154.85 0.592542 -7.70525 0
M  V30 12064 H 1153.19 0.539818 -6.929 0
M  V30 12065 H 1156.38 0.652042 -4.63536 0
M  V30 12066 H 1156.56 0.651756 -6.44714 0
M  V30 12067 N 1149.96 1.53094 0.37415 0
M  V30 12068 C 1151.19 1.72508 1.13687 0
M  V30 12069 C 1151.6 0.449922 1.83773 0
M  V30 12070 O 1150.94 -0.586391 1.74089 0
M  V30 12071 C 1151 2.82965 2.21746 0
M  V30 12072 C 1150.67 4.23599 1.71501 0
M  V30 12073 C 1151.67 5.06245 1.1837 0
M  V30 12074 C 1149.35 4.69978 1.77273 0
M  V30 12075 C 1151.34 6.33357 0.71679 0
M  V30 12076 C 1149.03 5.9707 1.30194 0
M  V30 12077 C 1150.03 6.7859 0.774856 0
M  V30 12078 O 1149.72 8.03298 0.310981 0
M  V30 12079 H 1149.45 0.580611 0.346218 0
M  V30 12080 H 1152 2.00596 0.441614 0
M  V30 12081 H 1150.23 2.5033 2.9474 0
M  V30 12082 H 1151.92 2.90638 2.83345 0
M  V30 12083 H 1152.69 4.71591 1.13256 0
M  V30 12084 H 1148.57 4.06605 2.17241 0
M  V30 12085 H 1152.11 6.96934 0.30471 0
M  V30 12086 H 1148.01 6.31225 1.34999 0
M  V30 12087 H 1148.78 8.17364 0.431098 0
M  V30 12088 N 1151.44 -0.633461 1.44309 0
M  V30 12089 C 1152.86 -0.951379 1.28144 0
M  V30 12090 C 1153.06 -2.00344 0.215512 0
M  V30 12091 O 1152.11 -2.49321 -0.399389 0
M  V30 12092 C 1153.42 -1.41686 2.65227 0
M  V30 12093 C 1154.97 -1.53247 2.72918 0
M  V30 12094 C 1155.45 -2.03179 4.10466 0
M  V30 12095 N 1156.94 -2.10453 4.1263 0
M  V30 12096 C 1157.67 -2.50254 5.15907 0
M  V30 12097 N 1157.17 -2.89209 6.29547 0
M  V30 12098 N 1158.96 -2.50368 5.03262 0
M  V30 12099 H 1151.11 0.0623574 2.12308 0
M  V30 12100 H 1153.38 -0.0347244 0.947364 0
M  V30 12101 H 1153.08 -0.71814 3.4429 0
M  V30 12102 H 1152.96 -2.3883 2.91959 0
M  V30 12103 H 1155.34 -2.22216 1.94176 0
M  V30 12104 H 1155.42 -0.544836 2.4993 0
M  V30 12105 H 1155.07 -1.34806 4.89683 0
M  V30 12106 H 1155 -3.02809 4.3083 0
M  V30 12107 H 1157.49 -1.83042 3.30612 0
M  V30 12108 H 1157.8 -3.18386 7.04166 0
M  V30 12109 H 1156.15 -2.86966 6.32989 0
M  V30 12110 H 1159.34 -2.19324 4.13539 0
M  V30 12111 H 1159.51 -2.81062 5.83873 0
M  V30 12112 N 1152.92 -1.31168 -0.873655 0
M  V30 12113 C 1154.16 -1.21938 -1.64044 0
M  V30 12114 C 1154.52 0.219903 -1.90737 0
M  V30 12115 O 1155.72 0.435635 -2.65246 0
M  V30 12116 C 1153.99 -2.03633 -2.93715 0
M  V30 12117 S 1155.55 -2.11224 -3.84616 0
M  V30 12118 H 1152.37 -0.43436 -0.562896 0
M  V30 12119 H 1154.97 -1.65786 -1.03612 0
M  V30 12120 H 1153.68 -3.07298 -2.72022 0
M  V30 12121 H 1153.21 -1.6049 -3.59175 0
M  V30 12122 H 1155.22 -1.24787 -4.80253 0
M  V30 12123 N 1154.4 1.08748 -1.14068 0
M  V30 12124 C 1155.81 1.33125 -0.880341 0
M  V30 12125 C 1156.01 1.9569 0.480396 0
M  V30 12126 O 1155.07 2.2077 1.22543 0
M  V30 12127 C 1156.38 2.23618 -2.01036 0
M  V30 12128 C 1157.93 2.37108 -2.04326 0
M  V30 12129 C 1158.4 3.30941 -3.1661 0
M  V30 12130 N 1159.9 3.38517 -3.16166 0
M  V30 12131 C 1160.63 4.11142 -3.99687 0
M  V30 12132 N 1160.13 4.86505 -4.93239 0
M  V30 12133 N 1161.92 4.06938 -3.87761 0
M  V30 12134 H 1154.07 0.665164 -2.01716 0
M  V30 12135 H 1156.33 0.355612 -0.878774 0
M  V30 12136 H 1156.04 1.84885 -2.99183 0
M  V30 12137 H 1155.91 3.24056 -1.93049 0
M  V30 12138 H 1158.3 2.75101 -1.06787 0
M  V30 12139 H 1158.38 1.36424 -2.16384 0
M  V30 12140 H 1158.03 2.93669 -4.14392 0
M  V30 12141 H 1157.96 4.31545 -3.01789 0
M  V30 12142 H 1160.45 2.84786 -2.48405 0
M  V30 12143 H 1160.76 5.39372 -5.53441 0
M  V30 12144 H 1159.1 4.8557 -4.9724 0
M  V30 12145 H 1162.3 3.47166 -3.13996 0
M  V30 12146 H 1162.47 4.63275 -4.53079 0
M  V30 12147 N 1155.87 0.935264 1.26849 0
M  V30 12148 C 1157.12 0.578545 1.93642 0
M  V30 12149 C 1157.44 -0.884296 1.73796 0
M  V30 12150 O 1156.71 -1.62768 1.09011 0
M  V30 12151 H 1155.29 0.210976 0.716588 0
M  V30 12152 H 1157.96 1.1893 1.54407 0
M  V30 12153 H 1157.05 0.791268 3.01903 0
M  V30 12154 N 1157.35 -1.41121 0.701616 0
M  V30 12155 C 1158.3 -2.30765 0.040121 0
M  V30 12156 C 1159.27 -1.47436 -0.764975 0
M  V30 12157 O 1160.45 -1.76209 -0.731775 0
M  V30 12158 C 1157.59 -3.33535 -0.885903 0
M  V30 12159 C 1156.71 -4.3194 -0.0717765 0
M  V30 12160 C 1155.84 -5.21779 -0.995996 0
M  V30 12161 C 1154.88 -6.11849 -0.175133 0
M  V30 12162 N 1154.02 -6.94151 -1.05348 0
M  V30 12163 H 1158.86 -2.86772 0.810312 0
M  V30 12164 H 1156.4 -1.41233 0.411301 0
M  V30 12165 H 1158.35 -3.91675 -1.4369 0
M  V30 12166 H 1156.98 -2.79065 -1.62243 0
M  V30 12167 H 1156.04 -3.75698 0.596221 0
M  V30 12168 H 1157.35 -4.95597 0.56435 0
M  V30 12169 H 1156.5 -5.84782 -1.61601 0
M  V30 12170 H 1155.24 -4.58363 -1.66597 0
M  V30 12171 H 1154.25 -5.4789 0.457916 0
M  V30 12172 H 1155.47 -6.77322 0.491133 0
M  V30 12173 H 1153.42 -6.33338 -1.70936 0
M  V30 12174 H 1153.33 -7.54518 -0.473065 0
M  V30 12175 H 1154.6 -7.61617 -1.66012 0
M  V30 12176 N 1158.83 -0.446794 -1.51134 0
M  V30 12177 C 1159.74 0.36579 -2.31731 0
M  V30 12178 C 1160.76 1.01886 -1.41051 0
M  V30 12179 O 1161.93 1.01216 -1.74119 0
M  V30 12180 C 1159 1.44705 -3.15058 0
M  V30 12181 C 1158.06 0.813129 -4.21529 0
M  V30 12182 C 1157.29 1.84287 -5.00873 0
M  V30 12183 O 1157.51 3.06633 -4.8097 0
M  V30 12184 O 1156.45 1.42816 -5.84711 0
M  V30 12185 H 1160.27 -0.292436 -3.02289 0
M  V30 12186 H 1157.86 -0.209129 -1.47929 0
M  V30 12187 H 1159.74 2.07393 -3.66833 0
M  V30 12188 H 1158.42 2.08919 -2.47254 0
M  V30 12189 H 1157.32 0.147953 -3.73807 0
M  V30 12190 H 1158.66 0.214331 -4.91733 0
M  V30 12191 N 1160.31 1.56586 -0.178487 0
M  V30 12192 C 1161.56 1.96709 0.4637 0
M  V30 12193 C 1161.88 1.06586 1.63292 0
M  V30 12194 O 1161.15 0.133683 1.95443 0
M  V30 12195 H 1159.73 0.726381 0.174299 0
M  V30 12196 H 1162.39 1.9314 -0.261345 0
M  V30 12197 H 1161.49 3.01164 0.818934 0
M  V30 12198 N 1161.79 -0.095206 1.57312 0
M  V30 12199 C 1163.03 -0.794786 1.87229 0
M  V30 12200 C 1163.39 -1.7635 0.769305 0
M  V30 12201 O 1162.68 -1.9023 -0.228704 0
M  V30 12202 C 1162.87 -1.56244 3.21438 0
M  V30 12203 C 1162.7 -0.669563 4.44687 0
M  V30 12204 C 1161.47 -0.315338 5.04315 0
M  V30 12205 C 1163.67 0.0234175 5.14295 0
M  V30 12206 N 1161.65 0.585709 6.111 0
M  V30 12207 C 1163.02 0.782538 6.15042 0
M  V30 12208 C 1165.08 0.0973496 4.97805 0
M  V30 12209 C 1163.78 1.60868 7.01081 0
M  V30 12210 C 1165.81 0.910394 5.84351 0
M  V30 12211 C 1165.17 1.65763 6.84618 0
M  V30 12212 H 1161.27 -0.267005 0.735005 0
M  V30 12213 H 1163.85 -0.0573245 1.94616 0
M  V30 12214 H 1162.02 -2.27077 3.15104 0
M  V30 12215 H 1163.76 -2.2092 3.39082 0
M  V30 12216 H 1160.51 -0.662971 4.68937 0
M  V30 12217 H 1160.94 1.02878 6.69138 0
M  V30 12218 H 1165.58 -0.46602 4.20224 0
M  V30 12219 H 1163.3 2.18312 7.78052 0
M  V30 12220 H 1166.88 0.97027 5.73652 0
M  V30 12221 H 1165.76 2.27663 7.50426 0
M  V30 12222 N 1163.26 -1.53291 -0.366026 0
M  V30 12223 C 1164.51 -1.68671 -1.10602 0
M  V30 12224 C 1164.83 -0.444793 -1.90476 0
M  V30 12225 O 1166.03 -0.479135 -2.67239 0
M  V30 12226 C 1164.49 -2.98174 -2.01545 0
M  V30 12227 C 1164.1 -4.29626 -1.26986 0
M  V30 12228 C 1165.84 -3.22921 -2.7554 0
M  V30 12229 C 1163.75 -5.50218 -2.16828 0
M  V30 12230 H 1162.68 -0.628456 -0.416604 0
M  V30 12231 H 1165.33 -1.79791 -0.367058 0
M  V30 12232 H 1163.71 -2.80855 -2.79171 0
M  V30 12233 H 1164.88 -4.57574 -0.544269 0
M  V30 12234 H 1163.2 -4.11318 -0.648558 0
M  V30 12235 H 1165.8 -4.10202 -3.42985 0
M  V30 12236 H 1166.14 -2.38964 -3.40884 0
M  V30 12237 H 1166.67 -3.40912 -2.04997 0
M  V30 12238 H 1163.41 -6.36651 -1.56063 0
M  V30 12239 H 1162.93 -5.26549 -2.87238 0
M  V30 12240 H 1164.61 -5.84991 -2.76396 0
M  V30 12241 N 1164.74 0.6258 -1.44643 0
M  V30 12242 C 1165.69 1.73135 -1.48352 0
M  V30 12243 C 1166.68 1.57076 -0.348716 0
M  V30 12244 O 1167.87 1.66722 -0.594379 0
M  V30 12245 C 1165 3.11838 -1.43568 0
M  V30 12246 C 1164.08 3.33348 -2.62183 0
M  V30 12247 N 1164.47 3.252 -3.87399 0
M  V30 12248 C 1162.77 3.64162 -2.57492 0
M  V30 12249 C 1163.47 3.47544 -4.66463 0
M  V30 12250 N 1162.45 3.70672 -3.97622 0
M  V30 12251 H 1166.25 1.65301 -2.43008 0
M  V30 12252 H 1163.77 0.828449 -1.3968 0
M  V30 12253 H 1165.76 3.91127 -1.44309 0
M  V30 12254 H 1164.42 3.20834 -0.499547 0
M  V30 12255 H 1165.43 3.04001 -4.19289 0
M  V30 12256 H 1162.11 3.80107 -1.727 0
M  V30 12257 H 1163.5 3.46792 -5.75487 0
M  V30 12258 N 1166.22 1.31629 0.866686 0
M  V30 12259 C 1167.45 1.24474 1.65269 0
M  V30 12260 C 1167.86 -0.18939 1.87848 0
M  V30 12261 O 1167.22 -1.12251 1.43895 0
M  V30 12262 C 1167.27 1.98872 3.01881 0
M  V30 12263 O 1166.99 3.36687 2.8031 0
M  V30 12264 C 1168.49 1.98595 3.96327 0
M  V30 12265 H 1165.71 0.429966 0.515141 0
M  V30 12266 H 1168.26 1.73559 1.08156 0
M  V30 12267 H 1166.41 1.53539 3.55675 0
M  V30 12268 H 1166.83 3.74612 3.67105 0
M  V30 12269 H 1168.3 2.55156 4.89489 0
M  V30 12270 H 1168.78 0.969257 4.28371 0
M  V30 12271 H 1169.38 2.43821 3.4847 0
M  V30 12272 N 1167.7 -1.08142 1.14644 0
M  V30 12273 C 1168.95 -1.80849 0.917685 0
M  V30 12274 C 1169.28 -1.86123 -0.554249 0
M  V30 12275 O 1168.55 -1.33907 -1.41065 0
M  V30 12276 C 1168.84 -3.26325 1.52264 0
M  V30 12277 C 1168.69 -3.29244 3.06461 0
M  V30 12278 C 1170.01 -4.23375 1.20175 0
M  V30 12279 H 1167.13 -0.656559 0.334812 0
M  V30 12280 H 1169.77 -1.26595 1.41682 0
M  V30 12281 H 1167.92 -3.72656 1.09817 0
M  V30 12282 H 1169.59 -2.91216 3.57758 0
M  V30 12283 H 1167.83 -2.68438 3.40769 0
M  V30 12284 H 1168.51 -4.31785 3.43897 0
M  V30 12285 H 1170.98 -3.85394 1.56877 0
M  V30 12286 H 1169.86 -5.23472 1.65132 0
M  V30 12287 H 1170.12 -4.41944 0.117474 0
M  V30 12288 N 1169.18 -0.941978 -1.26351 0
M  V30 12289 C 1170.42 -0.597462 -1.95473 0
M  V30 12290 C 1170.78 0.847851 -1.72266 0
M  V30 12291 O 1171.98 1.30134 -2.35199 0
M  V30 12292 C 1170.25 -0.931342 -3.45052 0
M  V30 12293 S 1171.81 -0.697491 -4.33221 0
M  V30 12294 H 1168.63 -0.22003 -0.676097 0
M  V30 12295 H 1171.23 -1.21346 -1.53282 0
M  V30 12296 H 1169.94 -1.98063 -3.59443 0
M  V30 12297 H 1169.47 -0.305095 -3.92215 0
M  V30 12298 H 1171.48 0.437915 -4.94264 0
M  V30 12299 N 1170.66 1.40747 -0.709091 0
M  V30 12300 C 1171.9 2.00233 -0.242836 0
M  V30 12301 C 1172.22 1.56853 1.1686 0
M  V30 12302 O 1173.42 2.08993 1.73304 0
M  V30 12303 C 1171.88 3.57854 -0.383241 0
M  V30 12304 C 1171.49 4.10209 -1.80091 0
M  V30 12305 C 1173.23 4.24494 0.0225511 0
M  V30 12306 C 1171.14 5.60311 -1.89225 0
M  V30 12307 H 1170.07 0.74896 -0.087034 0
M  V30 12308 H 1172.72 1.61064 -0.879243 0
M  V30 12309 H 1171.1 3.94692 0.321642 0
M  V30 12310 H 1172.28 3.84762 -2.53564 0
M  V30 12311 H 1170.59 3.56142 -2.15758 0
M  V30 12312 H 1173.19 5.34694 -0.0250644 0
M  V30 12313 H 1173.53 4.02488 1.06344 0
M  V30 12314 H 1174.06 3.92739 -0.632541 0
M  V30 12315 H 1170.8 5.87162 -2.91412 0
M  V30 12316 H 1170.32 5.87642 -1.20154 0
M  V30 12317 H 1172 6.25306 -1.66136 0
M  V30 12318 N 1172.13 0.454803 1.50895 0
M  V30 12319 C 1173.08 -0.361974 2.29766 0
M  V30 12320 C 1174.08 -1.00519 1.36353 0
M  V30 12321 O 1175.28 -0.938159 1.53618 0
M  V30 12322 H 1171.66 -0.135559 0.739681 0
M  V30 12323 H 1173.63 0.323853 2.96637 0
M  V30 12324 C 1172.38 -1.44078 3.16444 0
M  V30 12325 H 1171.7 -0.955212 3.88221 0
M  V30 12326 H 1173.14 -1.98518 3.74655 0
M  V30 12327 C 1171.6 -2.43374 2.32961 0
M  V30 12328 O 1172.13 -3.48295 2.00133 0
M  V30 12329 N 1170.33 -2.14689 1.95849 0
M  V30 12330 H 1169.88 -1.29392 2.22745 0
M  V30 12331 H 1169.84 -2.81363 1.40292 0
M  V30 12332 N 1173.61 -1.56489 0.186789 0
M  V30 12333 C 1174.86 -1.96952 -0.453261 0
M  V30 12334 C 1175.18 -1.07451 -1.62725 0
M  V30 12335 O 1174.45 -0.144046 -1.9537 0
M  V30 12336 H 1173.03 -0.727295 -0.170445 0
M  V30 12337 H 1175.69 -1.92999 0.271584 0
M  V30 12338 H 1174.79 -3.01594 -0.802951 0
M  V30 12339 N 1175.09 0.086862 -1.5736 0
M  V30 12340 C 1176.51 0.441284 -1.53378 0
M  V30 12341 C 1176.71 1.80046 -0.904748 0
M  V30 12342 O 1175.76 2.47484 -0.500781 0
M  V30 12343 C 1177.07 0.3962 -2.98078 0
M  V30 12344 C 1178.62 0.477468 -3.09337 0
M  V30 12345 C 1179.1 0.462448 -4.55659 0
M  V30 12346 N 1180.59 0.522963 -4.60238 0
M  V30 12347 C 1181.32 0.533313 -5.70914 0
M  V30 12348 N 1180.82 0.499376 -6.90998 0
M  V30 12349 N 1182.61 0.578742 -5.59113 0
M  V30 12350 H 1174.76 -0.803308 -1.96623 0
M  V30 12351 H 1177.03 -0.299879 -0.89932 0
M  V30 12352 H 1176.73 -0.535505 -3.47599 0
M  V30 12353 H 1176.61 1.21209 -3.57195 0
M  V30 12354 H 1178.99 1.39959 -2.59799 0
M  V30 12355 H 1179.07 -0.366717 -2.53158 0
M  V30 12356 H 1178.72 -0.455768 -5.05851 0
M  V30 12357 H 1178.65 1.32396 -5.09685 0
M  V30 12358 H 1181.14 0.554051 -3.73816 0
M  V30 12359 H 1181.45 0.510784 -7.7111 0
M  V30 12360 H 1179.8 0.466296 -6.93434 0
M  V30 12361 H 1182.99 0.602841 -4.64202 0
M  V30 12362 H 1183.16 0.583339 -6.45369 0
M  V30 12363 N 1176.57 1.53483 0.357892 0
M  V30 12364 C 1177.81 1.71233 1.09776 0
M  V30 12365 C 1178.17 0.462401 1.86761 0
M  V30 12366 O 1177.46 -0.544746 1.83693 0
M  V30 12367 C 1177.66 2.90654 2.07978 0
M  V30 12368 C 1177.48 4.27141 1.40644 0
M  V30 12369 C 1176.25 4.91868 1.15732 0
M  V30 12370 C 1178.45 5.07392 0.840118 0
M  V30 12371 N 1176.43 6.12261 0.448282 0
M  V30 12372 C 1177.81 6.19451 0.260863 0
M  V30 12373 C 1179.86 4.92377 0.739558 0
M  V30 12374 C 1178.56 7.18135 -0.409153 0
M  V30 12375 C 1180.59 5.91341 0.0833084 0
M  V30 12376 C 1179.95 7.02728 -0.485038 0
M  V30 12377 H 1176.05 0.679764 0.386582 0
M  V30 12378 H 1178.63 1.90893 0.383158 0
M  V30 12379 H 1176.81 2.7252 2.76744 0
M  V30 12380 H 1178.54 2.97192 2.74698 0
M  V30 12381 H 1175.29 4.51157 1.44064 0
M  V30 12382 H 1175.72 6.76912 0.108905 0
M  V30 12383 H 1180.36 4.06441 1.16472 0
M  V30 12384 H 1178.08 8.03657 -0.846247 0
M  V30 12385 H 1181.66 5.818 0.00632482 0
M  V30 12386 H 1180.54 7.77992 -0.984802 0
M  V30 12387 N 1178.05 -0.61812 1.44973 0
M  V30 12388 C 1179.32 -1.37705 1.38913 0
M  V30 12389 C 1179.7 -2.1103 0.054385 0
M  V30 12390 O 1179.05 -2.07197 -0.963409 0
M  V30 12391 C 1179.26 -2.33265 2.59593 0
M  V30 12392 C 1180.61 -2.96197 3.04224 0
M  V30 12393 O 1181.63 -2.43589 2.59891 0
M  V30 12394 O 1180.49 -3.91666 3.8113 0
M  V30 12395 H 1177.59 -0.61694 0.55074 0
M  V30 12396 H 1180.13 -0.642088 1.57084 0
M  V30 12397 H 1178.9 -1.78271 3.48332 0
M  V30 12398 H 1178.53 -3.14158 2.43702 0
M  V30 12399 N 1179.52 -1.32087 -0.859693 0
M  V30 12400 C 1180.93 -1.20107 -1.42938 0
M  V30 12401 C 1181.29 0.188411 -1.95293 0
M  V30 12402 O 1180.41 1.08683 -1.87128 0
M  V30 12403 C 1181.01 -2.17436 -2.59821 0
M  V30 12404 C 1179.56 -2.09359 -3.12803 0
M  V30 12405 C 1178.71 -2.06086 -1.85537 0
M  V30 12406 H 1181.66 -1.43989 -0.667302 0
M  V30 12407 H 1181.68 -1.76996 -3.36828 0
M  V30 12408 H 1181.2 -3.18555 -2.21685 0
M  V30 12409 H 1179.3 -1.1147 -3.55535 0
M  V30 12410 H 1179.41 -2.98947 -3.74389 0
M  V30 12411 H 1177.77 -1.51251 -2.04928 0
M  V30 12412 H 1178.56 -3.08978 -1.49625 0
M  V30 12413 N 1181 1.07532 -1.15215 0
M  V30 12414 C 1181.91 2.18222 -0.861192 0
M  V30 12415 C 1182.93 1.73246 0.161798 0
M  V30 12416 O 1184.1 2.01397 -0.0118386 0
M  V30 12417 C 1181.17 3.44902 -0.352601 0
M  V30 12418 C 1180.23 4.04455 -1.43926 0
M  V30 12419 C 1179.46 5.25089 -0.954841 0
M  V30 12420 O 1179.69 5.70048 0.200294 0
M  V30 12421 O 1178.62 5.76269 -1.73774 0
M  V30 12422 H 1182.45 2.45599 -1.78648 0
M  V30 12423 H 1180.03 1.16835 -0.93112 0
M  V30 12424 H 1181.91 4.21333 -0.0753347 0
M  V30 12425 H 1180.59 3.19082 0.544841 0
M  V30 12426 H 1179.49 3.29573 -1.7701 0
M  V30 12427 H 1180.83 4.34544 -2.31155 0
M  V30 12428 N 1182.48 0.948665 1.2585 0
M  V30 12429 C 1183.73 0.601125 1.93686 0
M  V30 12430 C 1184.06 -0.858779 1.7418 0
M  V30 12431 O 1183.33 -1.61539 1.0833 0
M  V30 12432 C 1183.62 0.95333 3.47252 0
M  V30 12433 C 1183.47 2.46853 3.7601 0
M  V30 12434 C 1184.79 0.474098 4.37539 0
M  V30 12435 H 1181.91 0.219864 0.703441 0
M  V30 12436 H 1184.55 1.18424 1.48579 0
M  V30 12437 H 1182.7 0.457114 3.85801 0
M  V30 12438 H 1184.37 3.03804 3.47132 0
M  V30 12439 H 1182.62 2.9088 3.21825 0
M  V30 12440 H 1183.29 2.66547 4.83381 0
M  V30 12441 H 1185.76 0.899664 4.06258 0
M  V30 12442 H 1184.64 0.749287 5.43762 0
M  V30 12443 H 1184.9 -0.625961 4.37646 0
M  V30 12444 N 1183.96 -1.40369 0.716545 0
M  V30 12445 C 1184.91 -2.32539 0.053472 0
M  V30 12446 C 1185.9 -1.5209 -0.745984 0
M  V30 12447 O 1187.11 -1.67883 -0.649245 0
M  V30 12448 H 1183.48 -0.751998 -0.00151088 0
M  V30 12449 H 1185.45 -2.86111 0.847535 0
M  V30 12450 C 1184.2 -3.37061 -0.853515 0
M  V30 12451 H 1183.52 -3.99032 -0.247754 0
M  V30 12452 H 1184.96 -4.04046 -1.28541 0
M  V30 12453 C 1183.42 -2.72619 -1.97941 0
M  V30 12454 O 1183.95 -2.59024 -3.07033 0
M  V30 12455 N 1182.16 -2.30988 -1.76332 0
M  V30 12456 H 1181.71 -2.42246 -0.876063 0
M  V30 12457 H 1181.66 -1.88209 -2.51843 0
M  V30 12458 N 1185.44 -0.462799 -1.50652 0
M  V30 12459 C 1186.68 0.0938945 -2.04184 0
M  V30 12460 C 1187.04 1.37726 -1.33774 0
M  V30 12461 O 1188.24 2.01581 -1.77817 0
M  V30 12462 C 1186.51 0.281884 -3.56287 0
M  V30 12463 S 1188.07 0.798326 -4.31477 0
M  V30 12464 H 1184.89 0.0198719 -0.710722 0
M  V30 12465 H 1187.49 -0.62804 -1.85138 0
M  V30 12466 H 1186.2 -0.658084 -4.05089 0
M  V30 12467 H 1185.73 1.03017 -3.79672 0
M  V30 12468 H 1187.74 2.07281 -4.50832 0
M  V30 12469 N 1186.91 1.56388 -0.195085 0
M  V30 12470 C 1188.14 2.02406 0.452399 0
M  V30 12471 C 1188.56 1.07432 1.54402 0
M  V30 12472 O 1187.92 0.0578246 1.81208 0
M  V30 12473 C 1187.97 3.46864 0.985778 0
M  V30 12474 O 1187.07 3.55007 2.09867 0
M  V30 12475 H 1186.42 0.65553 0.105719 0
M  V30 12476 H 1188.95 2.02299 -0.30596 0
M  V30 12477 H 1188.96 3.86655 1.30238 0
M  V30 12478 H 1187.63 4.15481 0.186662 0
M  V30 12479 H 1186.21 3.2709 1.79071 0
M  V30 12480 N 1188.39 -0.0785156 1.57404 0
M  V30 12481 C 1189.33 -1.12563 1.98506 0
M  V30 12482 C 1190.3 -1.3794 0.860891 0
M  V30 12483 O 1191.49 -1.51425 1.12262 0
M  V30 12484 C 1188.61 -2.47139 2.31603 0
M  V30 12485 C 1187.66 -2.3794 3.53959 0
M  V30 12486 S 1188.49 -1.77997 5.05052 0
M  V30 12487 C 1189.65 -3.14164 5.41342 0
M  V30 12488 H 1189.88 -0.775328 2.87012 0
M  V30 12489 H 1187.42 -0.286806 1.51713 0
M  V30 12490 H 1189.37 -3.24554 2.51346 0
M  V30 12491 H 1188.03 -2.79333 1.43638 0
M  V30 12492 H 1187.23 -3.37168 3.74612 0
M  V30 12493 H 1186.83 -1.68659 3.33812 0
M  V30 12494 H 1189.12 -4.10467 5.39002 0
M  V30 12495 H 1190.06 -2.98298 6.42202 0
M  V30 12496 H 1190.47 -3.1446 4.68802 0
M  V30 12497 N 1189.87 -1.5367 -0.349747 0
M  V30 12498 C 1190.83 -1.80533 -1.41211 0
M  V30 12499 C 1191.83 -0.676188 -1.45892 0
M  V30 12500 O 1193.02 -0.944453 -1.46375 0
M  V30 12501 C 1190.16 -1.94175 -2.80195 0
M  V30 12502 H 1191.35 -2.75428 -1.18658 0
M  V30 12503 H 1188.9 -1.44988 -0.583787 0
M  V30 12504 H 1189.64 -1.01402 -3.08039 0
M  V30 12505 H 1189.42 -2.76316 -2.78194 0
M  V30 12506 H 1190.91 -2.16496 -3.57098 0
M  V30 12507 N 1191.35 0.610423 -1.45298 0
M  V30 12508 C 1192.28 1.73507 -1.4976 0
M  V30 12509 C 1193.29 1.58092 -0.38867 0
M  V30 12510 O 1194.48 1.66026 -0.655571 0
M  V30 12511 C 1191.58 3.11475 -1.33554 0
M  V30 12512 C 1190.76 3.53156 -2.5807 0
M  V30 12513 C 1189.81 4.70076 -2.36463 0
M  V30 12514 O 1188.84 4.77337 -3.10061 0
M  V30 12515 N 1190.04 5.63155 -1.40843 0
M  V30 12516 H 1192.81 1.70144 -2.46721 0
M  V30 12517 H 1190.37 0.79562 -1.41002 0
M  V30 12518 H 1192.36 3.87444 -1.16914 0
M  V30 12519 H 1190.93 3.09361 -0.448803 0
M  V30 12520 H 1190.15 2.67178 -2.89844 0
M  V30 12521 H 1191.44 3.77761 -3.40843 0
M  V30 12522 H 1190.84 5.60001 -0.800982 0
M  V30 12523 H 1189.39 6.38669 -1.30175 0
M  V30 12524 N 1192.83 1.32541 0.852676 0
M  V30 12525 C 1194.08 1.22567 1.60188 0
M  V30 12526 C 1194.39 -0.210594 1.94463 0
M  V30 12527 O 1195.59 -0.432214 2.68038 0
M  V30 12528 C 1194.05 2.14678 2.88862 0
M  V30 12529 C 1193.66 3.63398 2.62004 0
M  V30 12530 C 1195.4 2.13545 3.66877 0
M  V30 12531 C 1193.31 4.47464 3.86691 0
M  V30 12532 H 1192.24 0.455184 0.601102 0
M  V30 12533 H 1194.89 1.57515 0.941347 0
M  V30 12534 H 1193.27 1.72647 3.56383 0
M  V30 12535 H 1194.45 4.13783 2.02782 0
M  V30 12536 H 1192.76 3.66681 1.97316 0
M  V30 12537 H 1195.36 2.73589 4.59405 0
M  V30 12538 H 1195.7 1.12694 4.00756 0
M  V30 12539 H 1196.23 2.53866 3.06263 0
M  V30 12540 H 1192.97 5.49136 3.57952 0
M  V30 12541 H 1192.49 4.01829 4.45302 0
M  V30 12542 H 1194.17 4.60565 4.5441 0
M  V30 12543 N 1194.3 -1.0692 1.15784 0
M  V30 12544 C 1195.24 -2.14168 0.816375 0
M  V30 12545 C 1196.25 -1.61872 -0.17357 0
M  V30 12546 O 1197.44 -1.78429 0.0502973 0
M  V30 12547 C 1194.54 -3.38346 0.193682 0
M  V30 12548 C 1193.71 -4.19979 1.22215 0
M  V30 12549 C 1192.77 -5.2253 0.620424 0
M  V30 12550 O 1191.8 -5.54446 1.28757 0
M  V30 12551 N 1193 -5.77434 -0.595811 0
M  V30 12552 H 1195.76 -2.44062 1.73937 0
M  V30 12553 H 1193.32 -1.22865 1.05431 0
M  V30 12554 H 1195.32 -4.04092 -0.22174 0
M  V30 12555 H 1193.89 -3.06129 -0.632735 0
M  V30 12556 H 1193.11 -3.49984 1.81397 0
M  V30 12557 H 1194.39 -4.71329 1.91641 0
M  V30 12558 H 1193.79 -5.5376 -1.15611 0
M  V30 12559 H 1192.35 -6.44788 -0.953529 0
M  V30 12560 N 1195.78 -0.955326 -1.25345 0
M  V30 12561 C 1196.71 -0.494145 -2.28211 0
M  V30 12562 C 1197.69 0.459875 -1.63766 0
M  V30 12563 O 1198.88 0.358679 -1.90859 0
M  V30 12564 C 1196.01 0.228228 -3.46549 0
M  V30 12565 C 1194.96 -0.640601 -4.23179 0
M  V30 12566 C 1194.29 0.212553 -5.34277 0
M  V30 12567 C 1195.59 -1.91906 -4.85767 0
M  V30 12568 H 1197.28 -1.35391 -2.67039 0
M  V30 12569 H 1194.83 -0.652462 -1.2837 0
M  V30 12570 H 1196.78 0.561995 -4.17636 0
M  V30 12571 H 1195.51 1.12224 -3.06714 0
M  V30 12572 H 1194.16 -0.957462 -3.53876 0
M  V30 12573 H 1193.81 1.10634 -4.90682 0
M  V30 12574 H 1193.51 -0.365473 -5.86462 0
M  V30 12575 H 1195.04 0.541271 -6.08196 0
M  V30 12576 H 1196.45 -1.65165 -5.48993 0
M  V30 12577 H 1194.85 -2.44279 -5.48131 0
M  V30 12578 H 1195.92 -2.62173 -4.07914 0
M  V30 12579 N 1197.26 1.39987 -0.723979 0
M  V30 12580 C 1198.5 2.02587 -0.271647 0
M  V30 12581 C 1198.87 1.56186 1.11669 0
M  V30 12582 O 1200.07 2.10907 1.66648 0
M  V30 12583 C 1198.34 3.55604 -0.357851 0
M  V30 12584 S 1199.9 4.38797 0.0162614 0
M  V30 12585 H 1196.71 0.702878 -0.10716 0
M  V30 12586 H 1199.32 1.70974 -0.948057 0
M  V30 12587 H 1198.02 3.86866 -1.36977 0
M  V30 12588 H 1197.55 3.91956 0.336754 0
M  V30 12589 H 1199.57 4.80564 1.23582 0
M  V30 12590 N 1198.74 0.470782 1.50404 0
M  V30 12591 C 1200.15 0.0155901 1.86693 0
M  V30 12592 C 1200.5 -1.38908 1.38561 0
M  V30 12593 O 1199.63 -2.02971 0.750454 0
M  V30 12594 C 1200.22 0.0215152 3.38793 0
M  V30 12595 C 1198.78 -0.378206 3.74495 0
M  V30 12596 C 1197.93 0.407126 2.74295 0
M  V30 12597 H 1200.88 0.68507 1.43152 0
M  V30 12598 H 1200.9 -0.780717 3.72404 0
M  V30 12599 H 1200.41 1.04397 3.73795 0
M  V30 12600 H 1198.51 -1.40503 3.45094 0
M  V30 12601 H 1198.63 -0.0797643 4.79034 0
M  V30 12602 H 1196.99 -0.139123 2.5432 0
M  V30 12603 H 1197.77 1.42909 3.12141 0
M  V30 12604 N 1200.22 -1.56282 0.203376 0
M  V30 12605 C 1201.63 -1.84146 -0.307752 0
M  V30 12606 C 1201.98 -1.12429 -1.60792 0
M  V30 12607 O 1201.1 -0.387852 -2.12896 0
M  V30 12608 C 1201.7 -3.34053 -0.565152 0
M  V30 12609 C 1200.26 -3.62298 -1.02063 0
M  V30 12610 C 1199.41 -2.77202 -0.0737343 0
M  V30 12611 H 1202.36 -1.52848 0.426983 0
M  V30 12612 H 1202.38 -3.53273 -1.41345 0
M  V30 12613 H 1201.89 -3.86222 0.381301 0
M  V30 12614 H 1199.99 -3.1557 -1.98107 0
M  V30 12615 H 1200.1 -4.70424 -0.907614 0
M  V30 12616 H 1198.47 -2.48074 -0.577169 0
M  V30 12617 H 1199.25 -3.32164 0.86731 0
M  V30 12618 N 1201.7 0.070167 -1.57444 0
M  V30 12619 C 1203.11 0.621805 -1.76041 0
M  V30 12620 C 1203.46 1.77824 -0.829047 0
M  V30 12621 O 1202.58 2.16396 -0.0135453 0
M  V30 12622 C 1203.18 1.13476 -3.19231 0
M  V30 12623 C 1201.74 1.63225 -3.39167 0
M  V30 12624 C 1200.88 0.552369 -2.71743 0
M  V30 12625 H 1203.83 -0.156009 -1.57931 0
M  V30 12626 H 1203.86 2.00352 -3.2348 0
M  V30 12627 H 1203.37 0.29288 -3.86993 0
M  V30 12628 H 1201.47 2.49733 -2.76522 0
M  V30 12629 H 1201.58 1.70807 -4.47618 0
M  V30 12630 H 1199.95 0.997797 -2.34342 0
M  V30 12631 H 1200.73 -0.279354 -3.42162 0
M  V30 12632 N 1203.17 1.53854 0.341593 0
M  V30 12633 C 1204.58 1.62623 0.917093 0
M  V30 12634 C 1204.94 0.508781 1.89488 0
M  V30 12635 O 1204.06 -0.361171 2.13365 0
M  V30 12636 C 1204.66 2.94775 1.67012 0
M  V30 12637 C 1203.21 3.058 2.19461 0
M  V30 12638 C 1202.36 2.58082 1.01433 0
M  V30 12639 H 1205.31 1.58248 0.119674 0
M  V30 12640 H 1205.33 2.83924 2.53313 0
M  V30 12641 H 1204.85 3.76085 0.958221 0
M  V30 12642 H 1202.95 2.29128 2.93821 0
M  V30 12643 H 1203.06 4.11302 2.45698 0
M  V30 12644 H 1201.42 2.13537 1.38831 0
M  V30 12645 H 1202.21 3.41833 0.317033 0
M  V30 12646 N 1204.65 -0.602709 1.4562 0
M  V30 12647 C 1205.58 -1.7271 1.50678 0
M  V30 12648 C 1206.6 -1.57884 0.397048 0
M  V30 12649 O 1207.79 -1.65676 0.664367 0
M  V30 12650 C 1204.89 -3.10762 1.35204 0
M  V30 12651 C 1204.06 -3.51782 2.59939 0
M  V30 12652 C 1203.12 -4.68816 2.38952 0
M  V30 12653 O 1202.14 -4.75686 3.12588 0
M  V30 12654 N 1203.35 -5.624 1.43827 0
M  V30 12655 H 1206.11 -1.68833 2.47619 0
M  V30 12656 H 1203.67 -0.788131 1.41422 0
M  V30 12657 H 1205.66 -3.86819 1.18967 0
M  V30 12658 H 1204.23 -3.09119 0.465203 0
M  V30 12659 H 1203.45 -2.65637 2.91257 0
M  V30 12660 H 1204.74 -3.75948 3.42842 0
M  V30 12661 H 1204.14 -5.59568 0.830669 0
M  V30 12662 H 1202.7 -6.37969 1.33561 0
M  V30 12663 N 1206.13 -1.32992 -0.845635 0
M  V30 12664 C 1207.38 -1.23415 -1.59536 0
M  V30 12665 C 1207.69 0.200278 -1.94572 0
M  V30 12666 O 1208.9 0.417993 -2.68263 0
M  V30 12667 C 1207.35 -2.16207 -2.8772 0
M  V30 12668 C 1206.96 -3.64782 -2.60073 0
M  V30 12669 C 1208.71 -2.15488 -3.65739 0
M  V30 12670 C 1206.61 -4.49508 -3.84313 0
M  V30 12671 H 1205.54 -0.458366 -0.598679 0
M  V30 12672 H 1208.19 -1.58012 -0.932981 0
M  V30 12673 H 1206.58 -1.74535 -3.55462 0
M  V30 12674 H 1207.75 -4.14852 -2.00585 0
M  V30 12675 H 1206.06 -3.67723 -1.95369 0
M  V30 12676 H 1208.66 -2.76021 -4.57948 0
M  V30 12677 H 1209 -1.14818 -4.00153 0
M  V30 12678 H 1209.54 -2.55487 -3.04912 0
M  V30 12679 H 1206.28 -5.51027 -3.55035 0
M  V30 12680 H 1205.8 -4.04185 -4.43165 0
M  V30 12681 H 1207.48 -4.62969 -4.51961 0
M  V30 12682 N 1207.61 1.06304 -1.1635 0
M  V30 12683 C 1209.02 1.60566 -0.952652 0
M  V30 12684 C 1209.37 1.8963 0.503473 0
M  V30 12685 O 1208.49 1.66964 1.37666 0
M  V30 12686 C 1209.09 2.9172 -1.72292 0
M  V30 12687 C 1207.65 3.42684 -1.55707 0
M  V30 12688 C 1206.8 2.16579 -1.73172 0
M  V30 12689 H 1209.75 0.892563 -1.31221 0
M  V30 12690 H 1209.77 3.61126 -1.19868 0
M  V30 12691 H 1209.28 2.70535 -2.78267 0
M  V30 12692 H 1207.38 3.68929 -0.521726 0
M  V30 12693 H 1207.49 4.18018 -2.34088 0
M  V30 12694 H 1205.86 2.26795 -1.15914 0
M  V30 12695 H 1206.64 1.97877 -2.80535 0
M  V30 12696 N 1209.09 0.96196 1.24836 0
M  V30 12697 C 1210.03 0.479282 2.27609 0
M  V30 12698 C 1211.03 -0.454224 1.63197 0
M  V30 12699 O 1212.23 -0.330146 1.76946 0
M  V30 12700 H 1208.61 0.13651 0.739506 0
M  V30 12701 H 1210.58 1.35817 2.657 0
M  V30 12702 C 1209.33 -0.220499 3.47 0
M  V30 12703 H 1208.65 0.488694 3.96802 0
M  V30 12704 H 1210.09 -0.522137 4.20773 0
M  V30 12705 C 1208.55 -1.44552 3.04313 0
M  V30 12706 O 1209.08 -2.54287 3.10967 0
M  V30 12707 N 1207.29 -1.3095 2.59423 0
M  V30 12708 H 1206.83 -0.416656 2.54208 0
M  V30 12709 H 1206.79 -2.13029 2.31227 0
M  V30 12710 N 1210.56 -1.39601 0.731392 0
M  V30 12711 C 1211.79 -2.05411 0.286532 0
M  V30 12712 C 1212.21 -1.54777 -1.06892 0
M  V30 12713 O 1211.57 -0.689942 -1.67659 0
M  V30 12714 C 1211.62 -3.594 0.293914 0
M  V30 12715 O 1210.72 -4.06072 -0.719657 0
M  V30 12716 H 1210.06 -0.650949 0.131004 0
M  V30 12717 H 1212.59 -1.78703 0.996305 0
M  V30 12718 H 1212.6 -4.0777 0.137052 0
M  V30 12719 H 1211.28 -3.95617 1.28298 0
M  V30 12720 H 1209.86 -3.69125 -0.529226 0
M  V30 12721 N 1212.04 -0.478751 -1.50152 0
M  V30 12722 C 1212.99 0.330224 -2.25596 0
M  V30 12723 C 1213.98 0.954871 -1.29503 0
M  V30 12724 O 1215.17 0.866153 -1.54359 0
M  V30 12725 C 1212.3 1.40719 -3.13134 0
M  V30 12726 C 1211.38 0.789896 -4.16679 0
M  V30 12727 N 1211.77 -0.094345 -5.05712 0
M  V30 12728 C 1210.07 1.05299 -4.33391 0
M  V30 12729 C 1210.77 -0.445458 -5.79992 0
M  V30 12730 N 1209.75 0.181237 -5.43298 0
M  V30 12731 H 1213.55 -0.350824 -2.91799 0
M  V30 12732 H 1211.07 -0.293386 -1.59728 0
M  V30 12733 H 1213.06 1.99999 -3.65795 0
M  V30 12734 H 1211.72 2.09015 -2.48481 0
M  V30 12735 H 1212.73 -0.463695 -5.1582 0
M  V30 12736 H 1209.41 1.73036 -3.79954 0
M  V30 12737 H 1210.8 -1.16754 -6.61678 0
M  V30 12738 N 1213.52 1.56172 -0.211661 0
M  V30 12739 C 1214.47 2.21206 0.719063 0
M  V30 12740 C 1215.46 1.18835 1.20725 0
M  V30 12741 O 1216.67 1.36939 1.16823 0
M  V30 12742 H 1213.04 0.709129 0.250279 0
M  V30 12743 H 1215.01 2.98038 0.147022 0
M  V30 12744 C 1213.76 2.89826 1.92084 0
M  V30 12745 H 1213.09 3.68351 1.55428 0
M  V30 12746 H 1214.53 3.38744 2.55006 0
M  V30 12747 C 1212.99 1.91756 2.77004 0
M  V30 12748 O 1213.52 1.42826 3.75451 0
M  V30 12749 N 1211.72 1.59622 2.42836 0
M  V30 12750 H 1211.27 1.99606 1.62835 0
M  V30 12751 H 1211.23 0.942641 2.99936 0
M  V30 12752 N 1215 -0.0618163 1.57479 0
M  V30 12753 C 1215.93 -1.10452 1.99689 0
M  V30 12754 C 1216.91 -1.37019 0.875473 0
M  V30 12755 O 1218.09 -1.50226 1.13862 0
M  V30 12756 C 1215.22 -2.44669 2.34211 0
M  V30 12757 C 1214.27 -2.34172 3.56463 0
M  V30 12758 S 1215.1 -1.7263 5.06911 0
M  V30 12759 C 1216.26 -3.08405 5.44644 0
M  V30 12760 H 1216.49 -0.744843 2.87818 0
M  V30 12761 H 1214.02 -0.270698 1.52008 0
M  V30 12762 H 1215.98 -3.2187 2.54774 0
M  V30 12763 H 1214.64 -2.77794 1.46592 0
M  V30 12764 H 1213.83 -3.33175 3.78167 0
M  V30 12765 H 1213.44 -1.65109 3.35582 0
M  V30 12766 H 1215.73 -4.04727 5.43325 0
M  V30 12767 H 1216.67 -2.9147 6.4533 0
M  V30 12768 H 1217.08 -3.0947 4.72111 0
M  V30 12769 N 1216.48 -1.54033 -0.333429 0
M  V30 12770 C 1217.7 -1.75716 -1.09232 0
M  V30 12771 C 1218.12 -0.501076 -1.82029 0
M  V30 12772 O 1217.48 0.527772 -1.74702 0
M  V30 12773 C 1217.53 -2.9439 -2.09802 0
M  V30 12774 O 1217.25 -4.15141 -1.39963 0
M  V30 12775 C 1218.75 -3.28206 -2.97987 0
M  V30 12776 H 1215.97 -0.586859 -0.325326 0
M  V30 12777 H 1218.51 -2.0089 -0.382555 0
M  V30 12778 H 1216.67 -2.71518 -2.76327 0
M  V30 12779 H 1217.08 -4.81826 -2.0723 0
M  V30 12780 H 1218.56 -4.14568 -3.64469 0
M  V30 12781 H 1219.03 -2.44944 -3.64553 0
M  V30 12782 H 1219.64 -3.5312 -2.37036 0
M  V30 12783 N 1217.95 0.594978 -1.45938 0
M  V30 12784 C 1219.18 1.37994 -1.5416 0
M  V30 12785 C 1219.6 1.87954 -0.17848 0
M  V30 12786 O 1218.95 1.62932 0.822161 0
M  V30 12787 C 1219.01 2.57586 -2.53637 0
M  V30 12788 O 1218.73 2.09698 -3.84653 0
M  V30 12789 C 1220.23 3.50292 -2.71681 0
M  V30 12790 H 1217.45 0.421983 -0.5217 0
M  V30 12791 H 1219.99 0.724459 -1.91238 0
M  V30 12792 H 1218.15 3.19149 -2.19597 0
M  V30 12793 H 1218.56 2.87492 -4.3869 0
M  V30 12794 H 1220.03 4.30717 -3.45234 0
M  V30 12795 H 1220.51 4.01444 -1.78156 0
M  V30 12796 H 1221.12 2.94573 -3.06768 0
M  V30 12797 N 1219.43 1.33438 0.838571 0
M  V30 12798 C 1220.66 1.27951 1.62592 0
M  V30 12799 C 1221.08 -0.149502 1.88207 0
M  V30 12800 O 1220.43 -1.09174 1.46244 0
M  V30 12801 C 1220.48 2.0523 2.97595 0
M  V30 12802 O 1220.2 3.42557 2.73105 0
M  V30 12803 C 1221.71 2.06957 3.92025 0
M  V30 12804 H 1218.93 0.440796 0.505905 0
M  V30 12805 H 1221.47 1.75814 1.0445 0
M  V30 12806 H 1219.62 1.61049 3.52338 0
M  V30 12807 H 1220.04 3.82314 3.59076 0
M  V30 12808 H 1221.51 2.65481 4.83967 0
M  V30 12809 H 1221.99 1.0599 4.26219 0
M  V30 12810 H 1222.6 2.51158 3.4322 0
M  V30 12811 N 1220.91 -1.05686 1.16912 0
M  V30 12812 C 1221.84 -2.15268 0.904532 0
M  V30 12813 C 1222.82 -1.69424 -0.151548 0
M  V30 12814 O 1224.01 -1.942 -0.00235371 0
M  V30 12815 C 1221.14 -3.44853 0.411581 0
M  V30 12816 C 1220.09 -4.04237 1.40628 0
M  V30 12817 C 1219.42 -5.29105 0.771479 0
M  V30 12818 C 1220.72 -4.42303 2.77787 0
M  V30 12819 H 1222.41 -2.37659 1.82094 0
M  V30 12820 H 1219.96 -1.14217 0.876947 0
M  V30 12821 H 1221.91 -4.20857 0.213929 0
M  V30 12822 H 1220.63 -3.22099 -0.540352 0
M  V30 12823 H 1219.29 -3.30297 1.59058 0
M  V30 12824 H 1218.94 -5.02652 -0.187133 0
M  V30 12825 H 1218.64 -5.69797 1.43545 0
M  V30 12826 H 1220.16 -6.07801 0.583988 0
M  V30 12827 H 1221.58 -5.09362 2.63103 0
M  V30 12828 H 1219.98 -4.93997 3.40716 0
M  V30 12829 H 1221.05 -3.52877 3.32575 0
M  V30 12830 N 1222.39 -0.968567 -1.24324 0
M  V30 12831 C 1223.34 -0.491346 -2.27351 0
M  V30 12832 C 1224.33 0.445563 -1.63435 0
M  V30 12833 O 1225.54 0.320758 -1.77119 0
M  V30 12834 H 1221.91 -0.14043 -0.738772 0
M  V30 12835 H 1223.88 -1.37224 -2.64976 0
M  V30 12836 C 1222.63 0.202093 -3.47112 0
M  V30 12837 H 1221.95 -0.50973 -3.96537 0
M  V30 12838 H 1223.39 0.499815 -4.21044 0
M  V30 12839 C 1221.85 1.42937 -3.05075 0
M  V30 12840 O 1222.38 2.52635 -3.12312 0
M  V30 12841 N 1220.59 1.29572 -2.60114 0
M  V30 12842 H 1220.14 0.403169 -2.54425 0
M  V30 12843 H 1220.09 2.118 -2.32353 0
M  V30 12844 N 1223.87 1.39211 -0.738786 0
M  V30 12845 C 1225.1 2.04435 -0.298318 0
M  V30 12846 C 1225.5 1.55822 1.07314 0
M  V30 12847 O 1224.85 0.719922 1.69005 0
M  V30 12848 C 1224.91 3.58789 -0.225979 0
M  V30 12849 C 1224.57 4.30395 -1.53653 0
M  V30 12850 C 1225.57 4.56777 -2.48295 0
M  V30 12851 C 1223.26 4.68869 -1.80187 0
M  V30 12852 C 1225.25 5.20648 -3.67702 0
M  V30 12853 C 1222.94 5.32467 -2.99871 0
M  V30 12854 C 1223.93 5.58289 -3.93449 0
M  V30 12855 O 1223.62 6.20567 -5.1103 0
M  V30 12856 H 1223.35 0.663848 -0.127603 0
M  V30 12857 H 1225.91 1.79171 -1.00433 0
M  V30 12858 H 1224.14 3.82965 0.536164 0
M  V30 12859 H 1225.83 4.05487 0.182996 0
M  V30 12860 H 1226.59 4.27497 -2.29066 0
M  V30 12861 H 1222.47 4.48124 -1.08193 0
M  V30 12862 H 1226.02 5.4072 -4.40759 0
M  V30 12863 H 1221.91 5.61169 -3.18998 0
M  V30 12864 H 1222.68 6.39059 -5.11415 0
M  V30 12865 N 1225.34 0.486708 1.49896 0
M  V30 12866 C 1226.76 0.141788 1.58969 0
M  V30 12867 C 1226.96 -1.35279 1.49338 0
M  V30 12868 O 1226.02 -2.1275 1.35992 0
M  V30 12869 C 1227.33 0.70588 2.92297 0
M  V30 12870 C 1228.88 0.670704 3.0573 0
M  V30 12871 C 1229.35 1.21261 4.41656 0
M  V30 12872 N 1230.84 1.17269 4.4811 0
M  V30 12873 C 1231.58 1.56233 5.51705 0
M  V30 12874 N 1231.07 2.02721 6.62477 0
M  V30 12875 N 1232.87 1.47738 5.42337 0
M  V30 12876 H 1225.02 1.45858 1.544 0
M  V30 12877 H 1227.28 0.604137 0.730563 0
M  V30 12878 H 1226.99 1.7535 3.04869 0
M  V30 12879 H 1226.86 0.158215 3.76868 0
M  V30 12880 H 1229.25 -0.368041 2.92796 0
M  V30 12881 H 1229.33 1.25535 2.22878 0
M  V30 12882 H 1228.97 2.25006 4.5534 0
M  V30 12883 H 1228.9 0.604031 5.23124 0
M  V30 12884 H 1231.39 0.831905 3.6863 0
M  V30 12885 H 1231.71 2.3056 7.37606 0
M  V30 12886 H 1230.05 2.06686 6.63556 0
M  V30 12887 H 1233.24 1.11249 4.54688 0
M  V30 12888 H 1233.42 1.78429 6.2295 0
M  V30 12889 N 1226.82 -1.56058 0.219941 0
M  V30 12890 C 1228.1 -1.90087 -0.46112 0
M  V30 12891 C 1228.48 -1.13705 -1.77861 0
M  V30 12892 O 1227.83 -0.245868 -2.27173 0
M  V30 12893 C 1228.04 -3.42786 -0.655644 0
M  V30 12894 C 1229.39 -4.13517 -0.963803 0
M  V30 12895 O 1230.41 -3.48376 -0.742488 0
M  V30 12896 O 1229.27 -5.28692 -1.38374 0
M  V30 12897 H 1226.36 -0.790311 -0.243595 0
M  V30 12898 H 1228.91 -1.67665 0.262005 0
M  V30 12899 H 1227.68 -3.90341 0.273738 0
M  V30 12900 H 1227.3 -3.70982 -1.43032 0
M  V30 12901 N 1228.3 0.053464 -1.57509 0
M  V30 12902 C 1229.55 0.747622 -1.87763 0
M  V30 12903 C 1229.87 1.77178 -0.814433 0
M  V30 12904 O 1229.14 1.95287 0.154862 0
M  V30 12905 H 1227.72 0.279109 -0.692898 0
M  V30 12906 H 1230.38 0.0252006 -1.94884 0
M  V30 12907 H 1229.48 1.25244 -2.85868 0
M  V30 12908 N 1229.78 1.54207 0.325255 0
M  V30 12909 C 1230.69 1.86495 1.42326 0
M  V30 12910 C 1231.71 0.756718 1.56684 0
M  V30 12911 O 1232.88 1.05084 1.71812 0
M  V30 12912 C 1229.95 2.08414 2.77064 0
M  V30 12913 C 1229.01 3.32221 2.71897 0
M  V30 12914 C 1228.24 3.53085 4.00209 0
M  V30 12915 O 1228.46 2.77421 4.98391 0
M  V30 12916 O 1227.4 4.46559 4.0357 0
M  V30 12917 H 1231.22 2.79859 1.17951 0
M  V30 12918 H 1228.81 1.40091 0.519124 0
M  V30 12919 H 1230.69 2.24171 3.56827 0
M  V30 12920 H 1229.37 1.18238 3.01333 0
M  V30 12921 H 1228.27 3.21851 1.90691 0
M  V30 12922 H 1229.61 4.22449 2.52582 0
M  V30 12923 N 1231.26 -0.58723 1.46251 0
M  V30 12924 C 1232.2 -1.69662 1.56472 0
M  V30 12925 C 1233.17 -1.60978 0.409294 0
M  V30 12926 O 1234.36 -1.80257 0.625451 0
M  V30 12927 C 1231.5 -3.07996 1.55669 0
M  V30 12928 C 1230.61 -3.27337 2.81913 0
M  V30 12929 C 1229.75 -4.55894 2.72644 0
M  V30 12930 C 1228.79 -4.68562 3.93847 0
M  V30 12931 N 1227.92 -5.8844 3.82991 0
M  V30 12932 H 1232.76 -1.60262 2.51237 0
M  V30 12933 H 1230.3 -0.781148 1.24645 0
M  V30 12934 H 1232.26 -3.88058 1.53189 0
M  V30 12935 H 1230.89 -3.16303 0.6444 0
M  V30 12936 H 1229.94 -2.4091 2.94392 0
M  V30 12937 H 1231.25 -3.32567 3.71754 0
M  V30 12938 H 1230.41 -5.44178 2.68244 0
M  V30 12939 H 1229.15 -4.53094 1.80435 0
M  V30 12940 H 1228.15 -3.78696 3.98584 0
M  V30 12941 H 1229.38 -4.73144 4.87146 0
M  V30 12942 H 1227.32 -5.86647 2.93566 0
M  V30 12943 H 1227.24 -5.94919 4.66484 0
M  V30 12944 H 1228.51 -6.79168 3.82559 0
M  V30 12945 N 1232.74 -1.33881 -0.831482 0
M  V30 12946 C 1233.98 -1.25942 -1.58955 0
M  V30 12947 C 1234.31 0.172542 -1.93432 0
M  V30 12948 O 1233.59 1.11577 -1.59314 0
M  V30 12949 C 1233.87 -2.14193 -2.89471 0
M  V30 12950 C 1233.73 -3.65883 -2.61628 0
M  V30 12951 C 1235.04 -2.02071 -3.90967 0
M  V30 12952 H 1232.16 -0.458841 -0.576744 0
M  V30 12953 H 1234.81 -1.64052 -0.958482 0
M  V30 12954 H 1232.96 -1.81821 -3.43327 0
M  V30 12955 H 1234.63 -4.08581 -2.14148 0
M  V30 12956 H 1232.87 -3.87397 -1.95208 0
M  V30 12957 H 1233.54 -4.22988 -3.54662 0
M  V30 12958 H 1236.02 -2.30476 -3.46439 0
M  V30 12959 H 1234.89 -2.66059 -4.80108 0
M  V30 12960 H 1235.15 -0.995121 -4.30755 0
M  V30 12961 N 1234.21 1.05064 -1.1747 0
M  V30 12962 C 1235.44 1.82299 -0.98903 0
M  V30 12963 C 1235.86 1.82441 0.457907 0
M  V30 12964 O 1235.22 1.23433 1.32793 0
M  V30 12965 C 1235.27 3.26239 -1.53624 0
M  V30 12966 O 1234.37 4.05507 -0.750857 0
M  V30 12967 H 1233.71 0.563601 -0.35107 0
M  V30 12968 H 1236.24 1.32386 -1.55997 0
M  V30 12969 H 1236.25 3.77038 -1.55906 0
M  V30 12970 H 1234.93 3.25451 -2.58949 0
M  V30 12971 H 1233.51 3.64227 -0.799548 0
M  V30 12972 N 1235.69 0.975146 1.23809 0
M  V30 12973 C 1236.94 0.642074 1.92367 0
M  V30 12974 C 1237.27 -0.82164 1.75962 0
M  V30 12975 O 1236.55 -1.59205 1.11732 0
M  V30 12976 C 1236.83 1.02677 3.45151 0
M  V30 12977 C 1236.68 2.54773 3.7069 0
M  V30 12978 C 1238 0.5668 4.36435 0
M  V30 12979 H 1235.12 0.234735 0.698619 0
M  V30 12980 H 1237.76 1.21549 1.46034 0
M  V30 12981 H 1235.91 0.538846 3.84745 0
M  V30 12982 H 1237.58 3.11099 3.4061 0
M  V30 12983 H 1235.83 2.97641 3.15583 0
M  V30 12984 H 1236.5 2.7674 4.77618 0
M  V30 12985 H 1238.97 0.985635 4.04258 0
M  V30 12986 H 1237.85 0.864458 5.4205 0
M  V30 12987 H 1238.11 -0.532989 4.38875 0
M  V30 12988 N 1237.17 -1.38817 0.746158 0
M  V30 12989 C 1238.1 -2.33144 0.128836 0
M  V30 12990 C 1239.08 -1.54487 -0.711873 0
M  V30 12991 O 1240.27 -1.82836 -0.654577 0
M  V30 12992 C 1237.4 -3.38639 -0.770772 0
M  V30 12993 C 1236.35 -4.27987 -0.0333669 0
M  V30 12994 C 1235.68 -5.24274 -1.05073 0
M  V30 12995 C 1236.98 -5.09915 1.13066 0
M  V30 12996 H 1238.67 -2.85019 0.916778 0
M  V30 12997 H 1236.22 -1.37039 0.442306 0
M  V30 12998 H 1238.17 -4.03587 -1.21225 0
M  V30 12999 H 1236.89 -2.8523 -1.59095 0
M  V30 13000 H 1235.55 -3.64534 0.388612 0
M  V30 13001 H 1235.2 -4.67156 -1.86478 0
M  V30 13002 H 1234.9 -5.84906 -0.562037 0
M  V30 13003 H 1236.42 -5.92099 -1.49169 0
M  V30 13004 H 1237.84 -5.68145 0.767084 0
M  V30 13005 H 1236.23 -5.79744 1.54972 0
M  V30 13006 H 1237.3 -4.4409 1.94709 0
M  V30 13007 N 1238.65 -0.49465 -1.49636 0
M  V30 13008 C 1239.89 0.0505629 -2.04337 0
M  V30 13009 C 1240.25 1.34858 -1.36665 0
M  V30 13010 O 1241.45 1.97763 -1.82052 0
M  V30 13011 C 1239.72 0.206247 -3.56804 0
M  V30 13012 S 1241.28 0.706624 -4.33073 0
M  V30 13013 H 1238.1 0.00479193 -0.710984 0
M  V30 13014 H 1240.7 -0.667169 -1.83764 0
M  V30 13015 H 1239.41 -0.743862 -4.03602 0
M  V30 13016 H 1238.94 0.949406 -3.81772 0
M  V30 13017 H 1240.95 1.97672 -4.55127 0
M  V30 13018 N 1240.13 1.55939 -0.228214 0
M  V30 13019 C 1241.06 2.17874 0.711589 0
M  V30 13020 C 1242.07 1.14969 1.15265 0
M  V30 13021 O 1243.26 1.41919 1.08265 0
M  V30 13022 C 1240.36 2.75294 1.97652 0
M  V30 13023 C 1239.53 4.03435 1.68994 0
M  V30 13024 C 1238.59 4.45354 2.8026 0
M  V30 13025 O 1237.62 5.12117 2.48445 0
M  V30 13026 N 1238.82 4.11588 4.0936 0
M  V30 13027 H 1241.58 2.99148 0.181757 0
M  V30 13028 H 1239.15 1.6183 -0.0474567 0
M  V30 13029 H 1241.14 3.00305 2.71292 0
M  V30 13030 H 1239.71 1.98285 2.41665 0
M  V30 13031 H 1238.93 3.8621 0.789657 0
M  V30 13032 H 1240.22 4.87015 1.47287 0
M  V30 13033 H 1239.61 3.57953 4.38048 0
M  V30 13034 H 1238.17 4.41477 4.79522 0
M  V30 13035 N 1241.6 -0.0451101 1.57535 0
M  V30 13036 C 1242.51 -1.06796 2.08882 0
M  V30 13037 C 1243.53 -1.40682 1.02394 0
M  V30 13038 O 1244.71 -1.50324 1.34033 0
M  V30 13039 C 1241.77 -2.35467 2.54472 0
M  V30 13040 C 1240.83 -2.0831 3.75374 0
M  V30 13041 C 1240.07 -3.30846 4.1878 0
M  V30 13042 O 1240.29 -4.40945 3.61834 0
M  V30 13043 O 1239.22 -3.17488 5.11356 0
M  V30 13044 H 1243.05 -0.661658 2.96405 0
M  V30 13045 H 1240.63 -0.26104 1.47102 0
M  V30 13046 H 1242.52 -3.11143 2.84198 0
M  V30 13047 H 1241.19 -2.75425 1.70068 0
M  V30 13048 H 1240.1 -1.30254 3.50692 0
M  V30 13049 H 1241.43 -1.73218 4.60713 0
M  V30 13050 N 1243.08 -1.54377 -0.317073 0
M  V30 13051 C 1244.03 -1.84948 -1.41057 0
M  V30 13052 C 1245.02 -0.721887 -1.53249 0
M  V30 13053 O 1246.23 -0.905648 -1.55557 0
M  V30 13054 H 1242.61 -0.586353 -0.470844 0
M  V30 13055 H 1244.58 -2.7638 -1.12501 0
M  V30 13056 C 1243.33 -2.09932 -2.77171 0
M  V30 13057 H 1242.65 -2.96162 -2.68566 0
M  V30 13058 H 1244.09 -2.35272 -3.52737 0
M  V30 13059 C 1242.55 -0.892855 -3.24853 0
M  V30 13060 O 1243.08 -0.105336 -4.01562 0
M  V30 13061 N 1241.28 -0.702685 -2.81976 0
M  V30 13062 H 1240.83 -1.34474 -2.19715 0
M  V30 13063 H 1240.79 0.103024 -3.14231 0
M  V30 13064 N 1244.56 0.579466 -1.4656 0
M  V30 13065 C 1245.79 1.36153 -1.55389 0
M  V30 13066 C 1246.2 1.88192 -0.195062 0
M  V30 13067 O 1245.54 1.64464 0.81836 0
M  V30 13068 C 1245.6 2.58269 -2.50075 0
M  V30 13069 C 1245.27 2.27675 -3.96249 0
M  V30 13070 C 1246.26 1.86313 -4.85369 0
M  V30 13071 C 1243.95 2.39719 -4.41407 0
M  V30 13072 C 1245.94 1.57395 -6.17661 0
M  V30 13073 C 1243.63 2.10414 -5.73733 0
M  V30 13074 C 1244.63 1.69317 -6.6168 0
M  V30 13075 O 1244.32 1.40373 -7.9155 0
M  V30 13076 H 1244.05 0.422174 -0.527963 0
M  V30 13077 H 1246.6 0.711089 -1.92698 0
M  V30 13078 H 1244.83 3.26129 -2.0779 0
M  V30 13079 H 1246.52 3.20339 -2.49275 0
M  V30 13080 H 1247.29 1.7652 -4.51736 0
M  V30 13081 H 1243.17 2.70669 -3.73175 0
M  V30 13082 H 1246.71 1.25244 -6.86265 0
M  V30 13083 H 1242.61 2.19833 -6.06913 0
M  V30 13084 H 1243.38 1.54191 -8.03845 0
M  V30 13085 N 1246.04 1.3432 0.824371 0
M  V30 13086 C 1246.97 1.2842 1.95014 0
M  V30 13087 C 1247.95 0.161925 1.69328 0
M  V30 13088 O 1249.13 0.354052 1.90945 0
M  V30 13089 C 1246.26 1.03741 3.31444 0
M  V30 13090 C 1245.22 2.12419 3.71567 0
M  V30 13091 C 1244.54 1.72931 5.05963 0
M  V30 13092 C 1245.84 3.54235 3.83817 0
M  V30 13093 H 1247.54 2.22614 2.00209 0
M  V30 13094 H 1245.08 1.07165 0.961856 0
M  V30 13095 H 1247.04 0.982586 4.09784 0
M  V30 13096 H 1245.76 0.0598892 3.26545 0
M  V30 13097 H 1244.42 2.16968 2.955 0
M  V30 13098 H 1244.07 0.738433 4.9755 0
M  V30 13099 H 1243.77 2.45668 5.3378 0
M  V30 13100 H 1245.29 1.68941 5.86763 0
M  V30 13101 H 1246.71 3.52106 4.52432 0
M  V30 13102 H 1245.1 4.25581 4.23085 0
M  V30 13103 H 1246.17 3.91682 2.85856 0
M  V30 13104 N 1247.52 -1.0444 1.18026 0
M  V30 13105 C 1248.77 -1.7697 0.9677 0
M  V30 13106 C 1249.08 -1.88995 -0.503994 0
M  V30 13107 O 1250.28 -2.58342 -0.834968 0
M  V30 13108 C 1248.74 -3.1816 1.68232 0
M  V30 13109 C 1248.35 -3.14241 3.19307 0
M  V30 13110 C 1250.09 -3.95095 1.55244 0
M  V30 13111 C 1248 -4.50266 3.83425 0
M  V30 13112 H 1246.93 -0.663355 0.358436 0
M  V30 13113 H 1249.58 -1.17003 1.4136 0
M  V30 13114 H 1247.96 -3.78501 1.16418 0
M  V30 13115 H 1249.14 -2.63373 3.78115 0
M  V30 13116 H 1247.45 -2.50805 3.32394 0
M  V30 13117 H 1250.05 -4.95681 2.00511 0
M  V30 13118 H 1250.39 -4.13236 0.504125 0
M  V30 13119 H 1250.92 -3.4132 2.04317 0
M  V30 13120 H 1247.66 -4.37329 4.88286 0
M  V30 13121 H 1247.18 -5.01251 3.29404 0
M  V30 13122 H 1248.86 -5.1919 3.86071 0
M  V30 13123 N 1248.99 -0.981699 -1.2329 0
M  V30 13124 C 1249.93 -0.481042 -2.24095 0
M  V30 13125 C 1250.94 0.417818 -1.57347 0
M  V30 13126 O 1252.13 0.221746 -1.77117 0
M  V30 13127 C 1249.23 0.323324 -3.37354 0
M  V30 13128 C 1248.4 -0.568975 -4.33684 0
M  V30 13129 C 1247.46 0.181761 -5.25886 0
M  V30 13130 O 1246.49 -0.429059 -5.67581 0
M  V30 13131 N 1247.69 1.46737 -5.61648 0
M  V30 13132 H 1250.45 -1.34781 -2.67683 0
M  V30 13133 H 1248.01 -0.855117 -1.37475 0
M  V30 13134 H 1250.01 0.833934 -3.96015 0
M  V30 13135 H 1248.58 1.09111 -2.9294 0
M  V30 13136 H 1247.8 -1.2604 -3.73507 0
M  V30 13137 H 1249.08 -1.17704 -4.94998 0
M  V30 13138 H 1248.48 1.98513 -5.29725 0
M  V30 13139 H 1247.04 1.92339 -6.22775 0
M  V30 13140 N 1250.47 1.3842 -0.753509 0
M  V30 13141 C 1251.38 2.34252 -0.127811 0
M  V30 13142 C 1252.4 1.59266 0.700743 0
M  V30 13143 O 1253.57 1.9146 0.624914 0
M  V30 13144 C 1250.64 3.38382 0.754886 0
M  V30 13145 C 1249.7 4.2921 -0.0880312 0
M  V30 13146 C 1248.93 5.28367 0.75263 0
M  V30 13147 O 1249.16 5.34537 1.99064 0
M  V30 13148 O 1248.09 6.01656 0.171475 0
M  V30 13149 H 1251.92 2.89454 -0.91925 0
M  V30 13150 H 1249.5 1.40265 -0.514404 0
M  V30 13151 H 1251.38 4.02141 1.25938 0
M  V30 13152 H 1250.06 2.85536 1.52482 0
M  V30 13153 H 1248.97 3.68611 -0.638468 0
M  V30 13154 H 1250.3 4.85311 -0.82062 0
M  V30 13155 N 1251.95 0.502579 1.49372 0
M  V30 13156 C 1253.2 -0.0412993 2.02058 0
M  V30 13157 C 1253.52 -1.37338 1.38431 0
M  V30 13158 O 1252.79 -1.88305 0.540175 0
M  V30 13159 H 1251.37 -0.0182522 0.746777 0
M  V30 13160 H 1254.03 0.660179 1.83378 0
M  V30 13161 H 1253.13 -0.169812 3.11638 0
M  V30 13162 N 1253.43 -1.55816 0.23648 0
M  V30 13163 C 1254.34 -2.24576 -0.678439 0
M  V30 13164 C 1255.35 -1.25836 -1.20172 0
M  V30 13165 O 1256.53 -1.58686 -1.24019 0
M  V30 13166 C 1253.6 -2.92376 -1.86325 0
M  V30 13167 C 1252.66 -4.06499 -1.38047 0
M  V30 13168 C 1251.89 -4.71057 -2.50881 0
M  V30 13169 O 1252.11 -4.34652 -3.69369 0
M  V30 13170 O 1251.05 -5.59768 -2.21232 0
M  V30 13171 H 1254.87 -3.03452 -0.122601 0
M  V30 13172 H 1252.46 -1.49399 0.00540803 0
M  V30 13173 H 1254.34 -3.35117 -2.55488 0
M  V30 13174 H 1253.01 -2.16448 -2.40691 0
M  V30 13175 H 1251.92 -3.68296 -0.656422 0
M  V30 13176 H 1253.25 -4.84214 -0.883024 0
M  V30 13177 N 1254.91 0.036755 -1.57557 0
M  V30 13178 C 1255.82 1.05687 -2.09446 0
M  V30 13179 C 1256.83 1.40137 -1.03139 0
M  V30 13180 O 1258.01 1.49611 -1.34828 0
M  V30 13181 C 1255.07 2.34114 -2.55717 0
M  V30 13182 C 1254.13 2.06316 -3.76473 0
M  V30 13183 C 1253.37 3.2862 -4.20529 0
M  V30 13184 O 1253.59 4.3902 -3.64167 0
M  V30 13185 O 1252.52 3.14772 -5.13033 0
M  V30 13186 H 1256.35 0.64593 -2.96751 0
M  V30 13187 H 1253.94 0.253235 -1.47238 0
M  V30 13188 H 1255.82 3.09631 -2.85844 0
M  V30 13189 H 1254.49 2.74519 -1.71526 0
M  V30 13190 H 1253.4 1.28392 -3.51378 0
M  V30 13191 H 1254.73 1.70772 -4.61625 0
M  V30 13192 N 1256.39 1.54543 0.308881 0
M  V30 13193 C 1257.63 1.7266 1.04266 0
M  V30 13194 C 1257.95 0.51518 1.88694 0
M  V30 13195 O 1259.15 0.577988 2.65276 0
M  V30 13196 C 1257.61 3.05448 1.9034 0
M  V30 13197 C 1257.22 4.34043 1.10953 0
M  V30 13198 C 1258.96 3.32925 2.63365 0
M  V30 13199 C 1256.87 5.57886 1.96258 0
M  V30 13200 H 1255.8 0.643485 0.392992 0
M  V30 13201 H 1258.45 1.8103 0.300077 0
M  V30 13202 H 1256.83 2.91023 2.68555 0
M  V30 13203 H 1258.01 4.59279 0.374069 0
M  V30 13204 H 1256.32 4.13442 0.495453 0
M  V30 13205 H 1258.92 4.22649 3.27524 0
M  V30 13206 H 1259.26 2.51451 3.3178 0
M  V30 13207 H 1259.79 3.48285 1.92204 0
M  V30 13208 H 1256.53 6.42005 1.32326 0
M  V30 13209 H 1256.05 5.36847 2.67498 0
M  V30 13210 H 1257.73 5.94846 2.54494 0
M  V30 13211 N 1257.86 -0.571685 1.46866 0
M  V30 13212 C 1259.09 -1.35524 1.56336 0
M  V30 13213 C 1259.51 -1.87647 0.208359 0
M  V30 13214 O 1258.86 -1.64219 -0.796136 0
M  V30 13215 C 1258.91 -2.53518 2.57703 0
M  V30 13216 O 1258.64 -2.03552 3.87941 0
M  V30 13217 C 1260.14 -3.45925 2.77219 0
M  V30 13218 H 1257.36 -0.41363 0.528348 0
M  V30 13219 H 1259.9 -0.693943 1.92366 0
M  V30 13220 H 1258.06 -3.15615 2.24647 0
M  V30 13221 H 1258.47 -2.80476 4.43208 0
M  V30 13222 H 1259.94 -4.2517 3.52043 0
M  V30 13223 H 1260.42 -3.98559 1.8452 0
M  V30 13224 H 1261.03 -2.89655 3.11416 0
M  V30 13225 N 1259.34 -1.34755 -0.817236 0
M  V30 13226 C 1260.58 -1.28786 -1.58725 0
M  V30 13227 C 1260.95 0.138807 -1.91498 0
M  V30 13228 O 1262.15 0.322743 -2.66855 0
M  V30 13229 C 1260.42 -2.15907 -2.84814 0
M  V30 13230 S 1261.98 -2.27347 -3.75311 0
M  V30 13231 H 1258.79 -0.457844 -0.543967 0
M  V30 13232 H 1261.4 -1.70031 -0.96487 0
M  V30 13233 H 1260.1 -3.18559 -2.58744 0
M  V30 13234 H 1259.63 -1.7558 -3.52044 0
M  V30 13235 H 1261.65 -1.45044 -4.74528 0
M  V30 13236 N 1260.82 1.03812 -1.18578 0
M  V30 13237 C 1261.77 2.11883 -0.915115 0
M  V30 13238 C 1262.74 1.65453 0.146479 0
M  V30 13239 O 1263.92 1.90799 0.00630058 0
M  V30 13240 C 1261.06 3.42157 -0.449755 0
M  V30 13241 C 1260.17 4.02185 -1.57706 0
M  V30 13242 C 1259.31 5.20431 -1.06417 0
M  V30 13243 C 1258.35 5.72496 -2.16599 0
M  V30 13244 N 1257.49 6.82027 -1.66685 0
M  V30 13245 H 1262.33 2.34373 -1.84047 0
M  V30 13246 H 1259.86 1.14962 -0.917728 0
M  V30 13247 H 1261.82 4.16888 -0.161407 0
M  V30 13248 H 1260.45 3.19806 0.438622 0
M  V30 13249 H 1259.5 3.24757 -1.98083 0
M  V30 13250 H 1260.81 4.36851 -2.40754 0
M  V30 13251 H 1259.97 6.02286 -0.730497 0
M  V30 13252 H 1258.71 4.87276 -0.203301 0
M  V30 13253 H 1257.71 4.8926 -2.50808 0
M  V30 13254 H 1258.94 6.07694 -3.03126 0
M  V30 13255 H 1256.88 6.50742 -0.828916 0
M  V30 13256 H 1256.8 7.1577 -2.43329 0
M  V30 13257 H 1258.07 7.67499 -1.36253 0
M  V30 13258 N 1262.3 0.988223 1.22768 0
M  V30 13259 C 1263.57 0.577578 1.86878 0
M  V30 13260 C 1263.95 -0.945197 1.88757 0
M  V30 13261 O 1263.3 -1.82519 1.37474 0
M  V30 13262 C 1263.51 1.19263 3.2799 0
M  V30 13263 C 1264.86 1.29024 4.04522 0
M  V30 13264 O 1265.88 1.14667 3.37239 0
M  V30 13265 O 1264.74 1.51949 5.24951 0
M  V30 13266 H 1261.84 0.195579 0.803541 0
M  V30 13267 H 1264.38 1.0838 1.30582 0
M  V30 13268 H 1263.16 2.23442 3.21231 0
M  V30 13269 H 1262.78 0.671706 3.91885 0
M  V30 13270 N 1263.78 -1.38018 0.760839 0
M  V30 13271 C 1265.02 -1.99557 0.319609 0
M  V30 13272 C 1265.34 -1.60699 -1.10457 0
M  V30 13273 O 1264.61 -0.867248 -1.75658 0
M  V30 13274 H 1263.19 -0.738066 0.115182 0
M  V30 13275 H 1265.86 -1.6867 0.976544 0
M  V30 13276 H 1264.95 -3.09672 0.388523 0
M  V30 13277 N 1265.25 -0.510493 -1.49103 0
M  V30 13278 C 1266.67 -0.167061 -1.58723 0
M  V30 13279 C 1266.87 1.32886 -1.51471 0
M  V30 13280 O 1265.93 2.10559 -1.39359 0
M  V30 13281 C 1267.24 -0.752293 -2.91137 0
M  V30 13282 C 1268.79 -0.719258 -3.04624 0
M  V30 13283 C 1269.26 -1.28272 -4.39671 0
M  V30 13284 N 1270.75 -1.24383 -4.46187 0
M  V30 13285 C 1271.49 -1.6499 -5.4915 0
M  V30 13286 N 1270.98 -2.13235 -6.59168 0
M  V30 13287 N 1272.78 -1.56348 -5.39918 0
M  V30 13288 H 1264.93 -1.48296 -1.5206 0
M  V30 13289 H 1267.19 -0.615683 -0.72086 0
M  V30 13290 H 1266.9 -1.80178 -3.02041 0
M  V30 13291 H 1266.77 -0.218152 -3.76569 0
M  V30 13292 H 1269.16 0.321413 -2.93344 0
M  V30 13293 H 1269.24 -1.29065 -2.20852 0
M  V30 13294 H 1268.88 -2.32222 -4.51703 0
M  V30 13295 H 1268.81 -0.687179 -5.22097 0
M  V30 13296 H 1271.3 -0.890446 -3.67259 0
M  V30 13297 H 1271.62 -2.42266 -7.33844 0
M  V30 13298 H 1269.96 -2.17216 -6.60183 0
M  V30 13299 H 1273.15 -1.18469 -4.52861 0
M  V30 13300 H 1273.33 -1.88317 -6.20033 0
M  V30 13301 N 1266.73 1.55688 -0.24474 0
M  V30 13302 C 1267.98 1.99926 0.374301 0
M  V30 13303 C 1268.33 1.12997 1.55723 0
M  V30 13304 O 1267.63 0.185026 1.90705 0
M  V30 13305 C 1267.82 3.47487 0.835923 0
M  V30 13306 C 1267.65 4.48693 -0.300729 0
M  V30 13307 C 1266.42 4.99326 -0.774706 0
M  V30 13308 C 1268.62 5.018 -1.12699 0
M  V30 13309 N 1266.6 5.84276 -1.88399 0
M  V30 13310 C 1267.97 5.83901 -2.0847 0
M  V30 13311 C 1270.02 4.84108 -1.16379 0
M  V30 13312 C 1268.73 6.50197 -3.07629 0
M  V30 13313 C 1270.75 5.51181 -2.14368 0
M  V30 13314 C 1270.12 6.33068 -3.08876 0
M  V30 13315 H 1266.21 0.775189 0.102984 0
M  V30 13316 H 1268.8 1.91308 -0.361824 0
M  V30 13317 H 1266.97 3.56507 1.54135 0
M  V30 13318 H 1268.7 3.78604 1.42973 0
M  V30 13319 H 1265.46 4.72236 -0.359226 0
M  V30 13320 H 1265.88 6.31449 -2.44134 0
M  V30 13321 H 1270.52 4.2043 -0.447006 0
M  V30 13322 H 1268.24 7.13042 -3.80258 0
M  V30 13323 H 1271.83 5.39446 -2.1792 0
M  V30 13324 H 1270.71 6.84053 -3.8346 0
M  V30 13325 N 1268.21 -0.0283989 1.57574 0
M  V30 13326 C 1269.14 -1.05641 2.03403 0
M  V30 13327 C 1270.15 -1.32426 0.946953 0
M  V30 13328 O 1271.34 -1.29902 1.22425 0
M  V30 13329 C 1268.44 -2.39788 2.39489 0
M  V30 13330 C 1267.62 -2.32348 3.70585 0
M  V30 13331 C 1266.68 -3.4895 3.93853 0
M  V30 13332 O 1265.7 -3.28414 4.64901 0
M  V30 13333 N 1266.9 -4.7084 3.39543 0
M  V30 13334 H 1269.67 -0.665788 2.92211 0
M  V30 13335 H 1267.23 -0.21633 1.60448 0
M  V30 13336 H 1269.22 -3.16514 2.52193 0
M  V30 13337 H 1267.79 -2.70692 1.56348 0
M  V30 13338 H 1267.01 -1.40717 3.68229 0
M  V30 13339 H 1268.3 -2.24521 4.56582 0
M  V30 13340 H 1267.7 -4.90425 2.81956 0
M  V30 13341 H 1266.25 -5.44929 3.57625 0
M  V30 13342 N 1269.69 -1.54705 -0.300681 0
M  V30 13343 C 1270.91 -1.78318 -1.05913 0
M  V30 13344 C 1271.34 -0.541177 -1.80147 0
M  V30 13345 O 1270.7 0.508291 -1.74029 0
M  V30 13346 C 1270.74 -2.99041 -2.01511 0
M  V30 13347 O 1269.85 -2.72188 -3.09818 0
M  V30 13348 H 1269.19 -0.590197 -0.304242 0
M  V30 13349 H 1271.72 -2.01789 -0.338006 0
M  V30 13350 H 1271.73 -3.2702 -2.43971 0
M  V30 13351 H 1270.4 -3.89098 -1.46886 0
M  V30 13352 H 1268.98 -2.55227 -2.71871 0
M  V30 13353 N 1271.17 0.563888 -1.47167 0
M  V30 13354 C 1272.42 1.31766 -1.5271 0
M  V30 13355 C 1272.73 1.94664 -0.191164 0
M  V30 13356 O 1273.93 2.71214 -0.124543 0
M  V30 13357 C 1272.39 2.38907 -2.69168 0
M  V30 13358 C 1272 1.8223 -4.09263 0
M  V30 13359 C 1273.74 3.15508 -2.83999 0
M  V30 13360 C 1271.65 2.87111 -5.17031 0
M  V30 13361 H 1270.58 0.495421 -0.568396 0
M  V30 13362 H 1273.23 0.599665 -1.73425 0
M  V30 13363 H 1271.61 3.13591 -2.4182 0
M  V30 13364 H 1272.79 1.13963 -4.46485 0
M  V30 13365 H 1271.1 1.18235 -3.99261 0
M  V30 13366 H 1273.7 3.93816 -3.61681 0
M  V30 13367 H 1274.04 3.69277 -1.92197 0
M  V30 13368 H 1274.57 2.47934 -3.11085 0
M  V30 13369 H 1271.31 2.38204 -6.10687 0
M  V30 13370 H 1270.83 3.53809 -4.84334 0
M  V30 13371 H 1272.51 3.50724 -5.43692 0
M  V30 13372 N 1272.64 1.35187 0.810078 0
M  V30 13373 C 1274.06 1.25329 1.38381 0
M  V30 13374 C 1274.41 -0.115799 1.95858 0
M  V30 13375 O 1273.53 -1.01663 1.91033 0
M  V30 13376 C 1274.13 2.2693 2.51572 0
M  V30 13377 C 1272.69 2.20824 3.04818 0
M  V30 13378 C 1271.83 2.1283 1.7776 0
M  V30 13379 H 1274.78 1.46366 0.613402 0
M  V30 13380 H 1274.8 1.89375 3.30026 0
M  V30 13381 H 1274.32 3.26563 2.09709 0
M  V30 13382 H 1272.42 1.24589 3.51153 0
M  V30 13383 H 1272.53 3.12637 3.63036 0
M  V30 13384 H 1270.89 1.58752 1.99173 0
M  V30 13385 H 1271.68 3.14318 1.38054 0
M  V30 13386 N 1274.12 -1.03182 1.19127 0
M  V30 13387 C 1275.05 -2.13301 0.94999 0
M  V30 13388 C 1276.03 -1.69707 -0.115577 0
M  V30 13389 O 1277.22 -1.94161 0.0388395 0
M  V30 13390 C 1274.35 -3.43902 0.484637 0
M  V30 13391 C 1273.3 -4.01164 1.4917 0
M  V30 13392 C 1272.63 -5.2735 0.883537 0
M  V30 13393 C 1273.93 -4.36311 2.87107 0
M  V30 13394 H 1275.62 -2.33743 1.87095 0
M  V30 13395 H 1273.17 -1.12332 0.900977 0
M  V30 13396 H 1275.12 -4.20308 0.30315 0
M  V30 13397 H 1273.85 -3.23173 -0.471909 0
M  V30 13398 H 1272.5 -3.26849 1.66028 0
M  V30 13399 H 1272.15 -5.02936 -0.0804712 0
M  V30 13400 H 1271.85 -5.66624 1.55599 0
M  V30 13401 H 1273.38 -6.06425 0.71278 0
M  V30 13402 H 1274.79 -5.03666 2.73848 0
M  V30 13403 H 1273.19 -4.86659 3.51117 0
M  V30 13404 H 1274.26 -3.45743 3.39985 0
M  V30 13405 N 1275.6 -0.99472 -1.22242 0
M  V30 13406 C 1276.84 -0.679831 -1.92763 0
M  V30 13407 C 1277.2 0.774024 -1.75707 0
M  V30 13408 O 1278.41 1.20041 -2.40507 0
M  V30 13409 C 1276.68 -1.07685 -3.40791 0
M  V30 13410 S 1278.24 -0.880607 -4.29873 0
M  V30 13411 H 1275.05 -0.248508 -0.666157 0
M  V30 13412 H 1277.66 -1.27738 -1.47997 0
M  V30 13413 H 1276.36 -2.1313 -3.50719 0
M  V30 13414 H 1275.89 -0.471172 -3.90568 0
M  V30 13415 H 1277.91 0.227887 -4.95676 0
M  V30 13416 N 1277.08 1.37613 -0.768148 0
M  V30 13417 C 1278.32 2.00075 -0.331331 0
M  V30 13418 C 1278.66 1.60839 1.08833 0
M  V30 13419 O 1277.93 0.852849 1.74805 0
M  V30 13420 C 1278.22 3.57009 -0.470789 0
M  V30 13421 C 1278.07 4.06166 -1.9326 0
M  V30 13422 C 1279.39 4.39916 0.127111 0
M  V30 13423 H 1276.51 0.726855 -0.121864 0
M  V30 13424 H 1279.15 1.63343 -0.970518 0
M  V30 13425 H 1277.3 3.88431 0.0733688 0
M  V30 13426 H 1278.97 3.85325 -2.53618 0
M  V30 13427 H 1277.21 3.58492 -2.44266 0
M  V30 13428 H 1277.88 5.15219 -1.98125 0
M  V30 13429 H 1280.36 4.14732 -0.337144 0
M  V30 13430 H 1279.24 5.489 -0.000624226 0
M  V30 13431 H 1279.5 4.25018 1.21704 0
M  V30 13432 N 1278.56 0.518393 1.4883 0
M  V30 13433 C 1279.47 -0.254811 2.33212 0
M  V30 13434 C 1280.48 -0.950401 1.45751 0
M  V30 13435 O 1281.66 -0.927932 1.78749 0
M  V30 13436 C 1278.72 -1.29509 3.21603 0
M  V30 13437 C 1277.78 -0.611086 4.24928 0
M  V30 13438 C 1277.02 -1.6018 5.09095 0
M  V30 13439 O 1277.24 -2.83336 4.95052 0
M  V30 13440 O 1276.17 -1.14756 5.90859 0
M  V30 13441 H 1280 0.436329 3.00549 0
M  V30 13442 H 1277.59 0.27947 1.46763 0
M  V30 13443 H 1279.47 -1.89654 3.7631 0
M  V30 13444 H 1278.14 -1.96884 2.5694 0
M  V30 13445 H 1277.05 0.0305638 3.74088 0
M  V30 13446 H 1278.38 0.0205249 4.92196 0
M  V30 13447 N 1280.03 -1.55556 0.252993 0
M  V30 13448 C 1280.98 -2.21634 -0.643979 0
M  V30 13449 C 1281.95 -1.18226 -1.1667 0
M  V30 13450 O 1283.14 -1.46694 -1.22006 0
M  V30 13451 C 1280.28 -2.92429 -1.83246 0
M  V30 13452 C 1279.39 -4.10506 -1.34569 0
M  V30 13453 C 1278.52 -4.69001 -2.49421 0
M  V30 13454 C 1277.56 -5.79315 -1.97636 0
M  V30 13455 N 1276.7 -6.31967 -3.05878 0
M  V30 13456 H 1281.54 -2.97909 -0.0738178 0
M  V30 13457 H 1279.08 -1.47079 -0.0246728 0
M  V30 13458 H 1281.04 -3.31678 -2.53072 0
M  V30 13459 H 1279.67 -2.18617 -2.375 0
M  V30 13460 H 1278.72 -3.76529 -0.541268 0
M  V30 13461 H 1280.03 -4.90125 -0.92622 0
M  V30 13462 H 1279.18 -5.10855 -3.27279 0
M  V30 13463 H 1277.92 -3.88612 -2.94673 0
M  V30 13464 H 1276.93 -5.36933 -1.18251 0
M  V30 13465 H 1278.15 -6.6156 -1.53347 0
M  V30 13466 H 1276.1 -5.5448 -3.50553 0
M  V30 13467 H 1276.02 -7.06797 -2.68281 0
M  V30 13468 H 1277.28 -6.7848 -3.83777 0
M  V30 13469 N 1281.51 0.0200419 -1.57587 0
M  V30 13470 C 1282.76 0.708115 -1.88861 0
M  V30 13471 C 1283.07 1.76036 -0.852693 0
M  V30 13472 O 1284.28 2.50165 -1.05497 0
M  V30 13473 C 1282.74 1.31057 -3.3519 0
M  V30 13474 C 1282.34 0.294202 -4.47033 0
M  V30 13475 C 1284.09 1.97799 -3.756 0
M  V30 13476 C 1282 0.905508 -5.84427 0
M  V30 13477 H 1280.93 0.268236 -0.704674 0
M  V30 13478 H 1283.58 -0.0372162 -1.83462 0
M  V30 13479 H 1281.96 2.1059 -3.35362 0
M  V30 13480 H 1283.13 -0.475081 -4.58344 0
M  V30 13481 H 1281.45 -0.271644 -4.15513 0
M  V30 13482 H 1284.04 2.44404 -4.75574 0
M  V30 13483 H 1284.39 2.80004 -3.08064 0
M  V30 13484 H 1284.92 1.25028 -3.77641 0
M  V30 13485 H 1281.66 0.122685 -6.55385 0
M  V30 13486 H 1281.18 1.64442 -5.76818 0
M  V30 13487 H 1282.86 1.41016 -6.31446 0
M  V30 13488 N 1282.99 1.54862 0.292472 0
M  V30 13489 C 1284.4 1.65459 0.864891 0
M  V30 13490 C 1284.75 0.568808 1.87774 0
M  V30 13491 O 1283.88 -0.293107 2.14406 0
M  V30 13492 C 1284.47 2.99939 1.5755 0
M  V30 13493 C 1283.03 3.12628 2.09621 0
M  V30 13494 C 1282.18 2.61179 0.931713 0
M  V30 13495 H 1285.13 1.58549 0.0692679 0
M  V30 13496 H 1285.15 2.91839 2.44152 0
M  V30 13497 H 1284.66 3.78943 0.838088 0
M  V30 13498 H 1282.76 2.3836 2.86383 0
M  V30 13499 H 1282.88 4.18911 2.32488 0
M  V30 13500 H 1281.24 2.17846 1.31967 0
M  V30 13501 H 1282.02 3.42669 0.208121 0
M  V30 13502 N 1284.47 -0.556076 1.47464 0
M  V30 13503 C 1285.71 -1.32397 1.55726 0
M  V30 13504 C 1286.07 -1.90793 0.214956 0
M  V30 13505 O 1287.27 -2.68246 0.172429 0
M  V30 13506 C 1285.54 -2.40358 2.64505 0
M  V30 13507 S 1287.1 -3.27219 2.92358 0
M  V30 13508 H 1283.92 -0.450713 0.549889 0
M  V30 13509 H 1286.52 -0.636471 1.84849 0
M  V30 13510 H 1285.23 -1.95893 3.6063 0
M  V30 13511 H 1284.76 -3.13847 2.372 0
M  V30 13512 H 1286.77 -4.39854 2.29659 0
M  V30 13513 N 1285.95 -1.35615 -0.802897 0
M  V30 13514 C 1287.17 -1.32377 -1.59659 0
M  V30 13515 C 1287.6 0.0954235 -1.87858 0
M  V30 13516 O 1286.96 1.06336 -1.46842 0
M  V30 13517 C 1287 -2.13972 -2.90256 0
M  V30 13518 O 1286.11 -1.52296 -3.83249 0
M  V30 13519 H 1285.45 -0.453699 -0.484823 0
M  V30 13520 H 1287.98 -1.78708 -0.996217 0
M  V30 13521 H 1287.99 -2.26061 -3.39647 0
M  V30 13522 H 1286.66 -3.17145 -2.69057 0
M  V30 13523 H 1285.24 -1.49068 -3.41809 0
M  V30 13524 N 1287.43 1.02549 -1.19673 0
M  V30 13525 C 1288.36 2.10991 -0.8953 0
M  V30 13526 C 1289.37 1.62405 0.113373 0
M  V30 13527 O 1290.56 1.7812 -0.116485 0
M  V30 13528 C 1287.66 3.37394 -0.319124 0
M  V30 13529 C 1286.83 4.15154 -1.37718 0
M  V30 13530 C 1285.89 5.19867 -0.81393 0
M  V30 13531 O 1284.92 5.49285 -1.49246 0
M  V30 13532 N 1286.12 5.79248 0.381089 0
M  V30 13533 H 1288.88 2.37438 -1.82875 0
M  V30 13534 H 1286.45 1.18867 -1.09919 0
M  V30 13535 H 1288.44 4.04637 0.0716106 0
M  V30 13536 H 1287.01 3.08267 0.518681 0
M  V30 13537 H 1286.23 3.4301 -1.94262 0
M  V30 13538 H 1287.52 4.63892 -2.09003 0
M  V30 13539 H 1286.91 5.5767 0.949791 0
M  V30 13540 H 1285.47 6.47882 0.713563 0
M  V30 13541 N 1288.9 1.00119 1.21713 0
M  V30 13542 C 1290.31 0.715611 1.72441 0
M  V30 13543 C 1290.67 -0.767 1.80587 0
M  V30 13544 O 1289.79 -1.59928 1.45781 0
M  V30 13545 C 1290.39 1.29234 3.13184 0
M  V30 13546 C 1288.94 1.05597 3.61284 0
M  V30 13547 C 1288.09 1.40749 2.38925 0
M  V30 13548 H 1291.04 1.17255 1.06943 0
M  V30 13549 H 1291.06 0.67507 3.74464 0
M  V30 13550 H 1290.58 2.37141 3.07223 0
M  V30 13551 H 1288.68 -0.00610816 3.72599 0
M  V30 13552 H 1288.79 1.72517 4.46961 0
M  V30 13553 H 1287.15 0.826207 2.40927 0
M  V30 13554 H 1287.94 2.49678 2.35618 0
M  V30 13555 N 1290.38 -1.37203 0.775435 0
M  V30 13556 C 1291.79 -1.82224 0.406372 0
M  V30 13557 C 1292.14 -1.64587 -1.06796 0
M  V30 13558 O 1291.27 -1.15903 -1.82744 0
M  V30 13559 C 1291.86 -3.30824 0.730819 0
M  V30 13560 C 1290.42 -3.74108 0.414766 0
M  V30 13561 C 1289.57 -2.59679 0.972747 0
M  V30 13562 H 1292.52 -1.25623 0.969775 0
M  V30 13563 H 1292.54 -3.80496 0.0168066 0
M  V30 13564 H 1292.05 -3.43628 1.80392 0
M  V30 13565 H 1290.15 -3.66871 -0.650866 0
M  V30 13566 H 1290.27 -4.70074 0.925595 0
M  V30 13567 H 1288.63 -2.51591 0.396772 0
M  V30 13568 H 1289.41 -2.75274 2.05132 0
M  V30 13569 N 1291.86 -0.526279 -1.48553 0
M  V30 13570 C 1292.79 0.275579 -2.27537 0
M  V30 13571 C 1293.8 0.90782 -1.35139 0
M  V30 13572 O 1294.99 0.786887 -1.6022 0
M  V30 13573 C 1292.09 1.40515 -3.08397 0
M  V30 13574 C 1291.27 0.875523 -4.28548 0
M  V30 13575 C 1290.33 1.88577 -4.91249 0
M  V30 13576 O 1289.35 1.44419 -5.50574 0
M  V30 13577 N 1290.55 3.21774 -4.83158 0
M  V30 13578 H 1293.32 -0.401803 -2.96994 0
M  V30 13579 H 1290.88 -0.360378 -1.57838 0
M  V30 13580 H 1292.87 2.07907 -3.47213 0
M  V30 13581 H 1291.44 1.98626 -2.41384 0
M  V30 13582 H 1290.66 0.025728 -3.94192 0
M  V30 13583 H 1291.95 0.500493 -5.06332 0
M  V30 13584 H 1291.35 3.60319 -4.36104 0
M  V30 13585 H 1289.9 3.84808 -5.26085 0
M  V30 13586 N 1293.34 1.5542 -0.261239 0
M  V30 13587 C 1294.59 1.9846 0.360052 0
M  V30 13588 C 1294.9 1.15288 1.58013 0
M  V30 13589 O 1296.11 1.48408 2.27348 0
M  V30 13590 C 1294.56 3.53185 0.691964 0
M  V30 13591 C 1294.17 4.45116 -0.507521 0
M  V30 13592 C 1295.91 4.04848 1.27665 0
M  V30 13593 C 1293.82 5.91207 -0.150966 0
M  V30 13594 H 1292.75 0.741207 0.138303 0
M  V30 13595 H 1295.4 1.79859 -0.363712 0
M  V30 13596 H 1293.78 3.67535 1.47425 0
M  V30 13597 H 1294.96 4.42531 -1.28465 0
M  V30 13598 H 1293.27 4.04013 -1.0081 0
M  V30 13599 H 1295.87 5.11529 1.55699 0
M  V30 13600 H 1296.21 3.5305 2.20593 0
M  V30 13601 H 1296.75 3.93882 0.556955 0
M  V30 13602 H 1293.48 6.47072 -1.04776 0
M  V30 13603 H 1293 5.96894 0.589671 0
M  V30 13604 H 1294.68 6.4647 0.261772 0
M  V30 13605 N 1294.82 -0.0116844 1.57596 0
M  V30 13606 C 1295.73 -1.02342 2.111 0
M  V30 13607 C 1296.74 -1.38478 1.05355 0
M  V30 13608 O 1297.92 -1.47447 1.37191 0
M  V30 13609 C 1294.98 -2.30016 2.5941 0
M  V30 13610 C 1294.04 -2.003 3.79708 0
M  V30 13611 C 1293.28 -3.21888 4.25704 0
M  V30 13612 O 1293.5 -4.33171 3.71106 0
M  V30 13613 O 1292.43 -3.0657 5.17975 0
M  V30 13614 H 1296.26 -0.598637 2.97742 0
M  V30 13615 H 1293.84 -0.229779 1.47622 0
M  V30 13616 H 1295.73 -3.05044 2.90733 0
M  V30 13617 H 1294.4 -2.71755 1.75871 0
M  V30 13618 H 1293.31 -1.22785 3.53376 0
M  V30 13619 H 1294.64 -1.63406 4.64284 0
M  V30 13620 N 1296.29 -1.55015 -0.284256 0
M  V30 13621 C 1297.24 -1.83508 -1.3531 0
M  V30 13622 C 1298.23 -0.693244 -1.452 0
M  V30 13623 O 1299.42 -0.954312 -1.4907 0
M  V30 13624 C 1296.55 -2.10059 -2.71533 0
M  V30 13625 C 1295.63 -3.30472 -2.65799 0
M  V30 13626 N 1296.03 -4.50644 -2.29682 0
M  V30 13627 C 1294.32 -3.32836 -2.96878 0
M  V30 13628 C 1295.02 -5.32708 -2.33661 0
M  V30 13629 N 1294 -4.70837 -2.71687 0
M  V30 13630 H 1297.8 -2.73973 -1.06377 0
M  V30 13631 H 1295.32 -1.5474 -0.492875 0
M  V30 13632 H 1297.31 -2.28624 -3.48621 0
M  V30 13633 H 1295.97 -1.20872 -3.01364 0
M  V30 13634 H 1296.98 -4.76945 -2.0185 0
M  V30 13635 H 1293.66 -2.53807 -3.31494 0
M  V30 13636 H 1295.05 -6.38766 -2.08394 0
M  V30 13637 N 1297.77 0.548248 -1.47757 0
M  V30 13638 C 1299.02 1.30243 -1.54535 0
M  V30 13639 C 1299.34 1.93832 -0.213089 0
M  V30 13640 O 1298.61 1.80397 0.763782 0
M  V30 13641 H 1297.19 0.483684 -0.569262 0
M  V30 13642 H 1299.85 0.639485 -1.8411 0
M  V30 13643 H 1298.95 2.09128 -2.31672 0
M  V30 13644 N 1299.25 1.36039 0.795694 0
M  V30 13645 C 1300.48 1.33059 1.58439 0
M  V30 13646 C 1300.89 -0.0895496 1.88588 0
M  V30 13647 O 1300.25 -1.04466 1.49643 0
M  V30 13648 C 1300.3 2.14594 2.90915 0
M  V30 13649 O 1300.02 3.51072 2.62069 0
M  V30 13650 C 1301.52 2.19324 3.85242 0
M  V30 13651 H 1298.74 0.456668 0.491625 0
M  V30 13652 H 1301.29 1.79048 0.988035 0
M  V30 13653 H 1299.44 1.72177 3.47036 0
M  V30 13654 H 1299.86 3.93545 3.46732 0
M  V30 13655 H 1301.33 2.80744 4.75276 0
M  V30 13656 H 1301.81 1.19496 4.22631 0
M  V30 13657 H 1302.41 2.6195 3.35056 0
M  V30 13658 N 1300.73 -1.01913 1.20215 0
M  V30 13659 C 1301.98 -1.74878 1.00502 0
M  V30 13660 C 1302.29 -1.90022 -0.463792 0
M  V30 13661 O 1303.5 -2.60055 -0.779982 0
M  V30 13662 C 1301.95 -3.1452 1.74943 0
M  V30 13663 C 1301.56 -3.07397 3.259 0
M  V30 13664 C 1303.3 -3.91713 1.63589 0
M  V30 13665 C 1301.21 -4.42032 3.92889 0
M  V30 13666 H 1300.14 -0.655603 0.372426 0
M  V30 13667 H 1302.79 -1.13978 1.4381 0
M  V30 13668 H 1301.17 -3.75946 1.24421 0
M  V30 13669 H 1302.35 -2.55294 3.83617 0
M  V30 13670 H 1300.66 -2.43698 3.37639 0
M  V30 13671 H 1303.26 -4.91316 2.1098 0
M  V30 13672 H 1303.6 -4.12074 0.591665 0
M  V30 13673 H 1304.14 -3.3691 2.11511 0
M  V30 13674 H 1300.88 -4.26874 4.97453 0
M  V30 13675 H 1300.4 -4.94151 3.39962 0
M  V30 13676 H 1302.07 -5.10884 3.96997 0
M  V30 13677 N 1302.21 -1.00763 -1.2118 0
M  V30 13678 C 1303.15 -0.563428 -2.25673 0
M  V30 13679 C 1304.15 0.393342 -1.6477 0
M  V30 13680 O 1305.35 0.264246 -1.7805 0
M  V30 13681 H 1301.73 -0.163862 -0.73393 0
M  V30 13682 H 1303.7 -1.45585 -2.60476 0
M  V30 13683 C 1302.45 0.0915599 -3.47579 0
M  V30 13684 H 1301.77 -0.635628 -3.94715 0
M  V30 13685 H 1303.21 0.36561 -4.22421 0
M  V30 13686 C 1301.67 1.33159 -3.09468 0
M  V30 13687 O 1302.2 2.42571 -3.20191 0
M  V30 13688 N 1300.41 1.21231 -2.64105 0
M  V30 13689 H 1299.95 0.322021 -2.55579 0
M  V30 13690 H 1299.91 2.04301 -2.38974 0
M  V30 13691 N 1303.68 1.3679 -0.7827 0
M  V30 13692 C 1304.91 2.04206 -0.362571 0
M  V30 13693 C 1305.33 1.58637 1.01074 0
M  V30 13694 O 1304.69 0.751692 1.64983 0
M  V30 13695 C 1304.74 3.58062 -0.4271 0
M  V30 13696 O 1303.84 4.08463 0.56845 0
M  V30 13697 H 1303.19 0.645638 -0.155073 0
M  V30 13698 H 1305.72 1.74883 -1.06194 0
M  V30 13699 H 1305.73 4.0698 -0.288298 0
M  V30 13700 H 1304.4 3.90582 -1.42893 0
M  V30 13701 H 1302.98 3.70835 0.391863 0
M  V30 13702 N 1305.16 0.53415 1.48272 0
M  V30 13703 C 1306.39 0.00368464 2.074 0
M  V30 13704 C 1306.81 -1.27003 1.38751 0
M  V30 13705 O 1306.17 -1.75502 0.454817 0
M  V30 13706 C 1306.22 -0.199034 3.6005 0
M  V30 13707 O 1305.32 -1.26679 3.92462 0
M  V30 13708 H 1304.66 0.0409936 0.662733 0
M  V30 13709 H 1307.19 0.743253 1.90622 0
M  V30 13710 H 1307.2 -0.420404 4.05828 0
M  V30 13711 H 1305.88 0.731391 4.09418 0
M  V30 13712 H 1304.46 -1.02775 3.58457 0
M  V30 13713 N 1306.64 -1.55279 0.269478 0
M  V30 13714 C 1308.06 -1.59374 -0.0848147 0
M  V30 13715 C 1308.26 -1.2867 -1.55068 0
M  V30 13716 O 1307.31 -1.04486 -2.29867 0
M  V30 13717 C 1308.63 -2.99349 0.284735 0
M  V30 13718 C 1310.17 -3.12147 0.230887 0
M  V30 13719 C 1310.65 -4.54379 0.574795 0
M  V30 13720 N 1312.14 -4.60202 0.526136 0
M  V30 13721 C 1312.87 -5.68273 0.765109 0
M  V30 13722 N 1312.37 -6.84512 1.0684 0
M  V30 13723 N 1314.16 -5.57796 0.694287 0
M  V30 13724 H 1306.31 -1.73503 1.22517 0
M  V30 13725 H 1308.58 -0.808771 0.494564 0
M  V30 13726 H 1308.28 -3.26633 1.30398 0
M  V30 13727 H 1308.16 -3.75309 -0.377199 0
M  V30 13728 H 1310.54 -2.84631 -0.779064 0
M  V30 13729 H 1310.63 -2.38412 0.926998 0
M  V30 13730 H 1310.27 -4.8262 1.58241 0
M  V30 13731 H 1310.2 -5.26406 -0.143044 0
M  V30 13732 H 1312.69 -3.76696 0.301368 0
M  V30 13733 H 1313 -7.62826 1.23757 0
M  V30 13734 H 1311.35 -6.86141 1.10612 0
M  V30 13735 H 1314.54 -4.65862 0.457226 0
M  V30 13736 H 1314.71 -6.41943 0.883913 0
M  V30 13737 N 1308.12 0.00332656 -1.576 0
M  V30 13738 C 1309.34 0.703587 -1.95101 0
M  V30 13739 C 1309.77 1.66697 -0.871418 0
M  V30 13740 O 1309.13 1.80494 0.170739 0
M  V30 13741 C 1309.17 1.41457 -3.31696 0
M  V30 13742 O 1308.28 2.52885 -3.25765 0
M  V30 13743 H 1307.62 0.187396 -0.637008 0
M  V30 13744 H 1310.15 -0.0488727 -2.04542 0
M  V30 13745 H 1310.16 1.77874 -3.67185 0
M  V30 13746 H 1308.83 0.708182 -4.09826 0
M  V30 13747 H 1307.41 2.18821 -3.01947 0
M  V30 13748 N 1309.6 1.55164 0.276031 0
M  V30 13749 C 1310.82 1.7998 1.03063 0
M  V30 13750 C 1311.25 0.569769 1.79263 0
M  V30 13751 O 1310.6 -0.48054 1.74816 0
M  V30 13752 C 1310.65 3.02209 1.96728 0
M  V30 13753 O 1309.76 2.77083 3.05449 0
M  V30 13754 H 1309.1 0.594963 0.294814 0
M  V30 13755 H 1311.63 2.02301 0.305861 0
M  V30 13756 H 1311.64 3.3086 2.38738 0
M  V30 13757 H 1310.31 3.91386 1.40677 0
M  V30 13758 H 1308.89 2.5952 2.67776 0
M  V30 13759 N 1311.07 -0.540404 1.48045 0
M  V30 13760 C 1312.01 -1.66164 1.57867 0
M  V30 13761 C 1313.02 -1.56058 0.463655 0
M  V30 13762 O 1314.21 -1.62709 0.734038 0
M  V30 13763 C 1311.31 -3.04748 1.48263 0
M  V30 13764 C 1310.48 -3.40441 2.74625 0
M  V30 13765 C 1309.54 -4.58259 2.58621 0
M  V30 13766 O 1308.57 -4.62 3.32482 0
M  V30 13767 N 1309.77 -5.55794 1.67551 0
M  V30 13768 H 1312.53 -1.58179 2.54557 0
M  V30 13769 H 1310.09 -0.727441 1.44637 0
M  V30 13770 H 1312.09 -3.81425 1.35267 0
M  V30 13771 H 1310.66 -3.06868 0.595892 0
M  V30 13772 H 1309.88 -2.53044 3.02262 0
M  V30 13773 H 1311.16 -3.61069 3.58478 0
M  V30 13774 H 1310.56 -5.55541 1.06725 0
M  V30 13775 H 1309.12 -6.3173 1.60499 0
M  V30 13776 N 1312.55 -1.36459 -0.788468 0
M  V30 13777 C 1313.46 -1.33017 -1.93245 0
M  V30 13778 C 1314.48 -0.232212 -1.72444 0
M  V30 13779 O 1315.65 -0.464743 -1.95965 0
M  V30 13780 C 1312.72 -1.1197 -3.28121 0
M  V30 13781 C 1311.78 -2.3125 -3.61693 0
M  V30 13782 C 1311.01 -2.11197 -4.90134 0
M  V30 13783 O 1311.24 -1.08764 -5.59934 0
M  V30 13784 O 1310.17 -2.98996 -5.22384 0
M  V30 13785 H 1314 -2.29333 -1.99098 0
M  V30 13786 H 1311.58 -1.17016 -0.928856 0
M  V30 13787 H 1313.46 -1.02154 -4.08831 0
M  V30 13788 H 1312.14 -0.187171 -3.23158 0
M  V30 13789 H 1311.05 -2.46635 -2.81286 0
M  V30 13790 H 1312.38 -3.23012 -3.71381 0
M  V30 13791 N 1314.03 1.01274 -1.20754 0
M  V30 13792 C 1315.26 1.7906 -1.04653 0
M  V30 13793 C 1315.68 1.83806 0.399632 0
M  V30 13794 O 1315.04 1.27596 1.28798 0
M  V30 13795 C 1315.09 3.21187 -1.63925 0
M  V30 13796 O 1314.19 4.02913 -0.879486 0
M  V30 13797 H 1313.53 0.552147 -0.368823 0
M  V30 13798 H 1316.06 1.27356 -1.6013 0
M  V30 13799 H 1316.07 3.71887 -1.67822 0
M  V30 13800 H 1314.75 3.17048 -2.69172 0
M  V30 13801 H 1313.32 3.61499 -0.915019 0
M  V30 13802 N 1315.51 1.01404 1.20644 0
M  V30 13803 C 1316.74 0.719995 1.93648 0
M  V30 13804 C 1317.15 -0.722872 1.74846 0
M  V30 13805 O 1316.49 -1.50172 1.05802 0
M  V30 13806 C 1316.55 0.972637 3.46092 0
M  V30 13807 C 1316.22 2.40412 3.88653 0
M  V30 13808 C 1317.21 3.38481 3.94622 0
M  V30 13809 C 1314.9 2.74418 4.20714 0
M  V30 13810 C 1316.89 4.68619 4.32059 0
M  V30 13811 C 1314.58 4.04769 4.57826 0
M  V30 13812 C 1315.58 5.01681 4.63471 0
M  V30 13813 O 1315.27 6.297 4.99733 0
M  V30 13814 H 1315 0.263849 0.622382 0
M  V30 13815 H 1317.55 1.35741 1.54154 0
M  V30 13816 H 1315.78 0.278057 3.85699 0
M  V30 13817 H 1317.47 0.670572 4.00323 0
M  V30 13818 H 1318.24 3.13545 3.7002 0
M  V30 13819 H 1314.12 1.99675 4.15513 0
M  V30 13820 H 1317.66 5.4426 4.3638 0
M  V30 13821 H 1313.56 4.29486 4.81884 0
M  V30 13822 H 1314.32 6.3395 5.17735 0
M  V30 13823 N 1316.99 -1.36373 0.789944 0
M  V30 13824 C 1317.95 -2.28372 0.194639 0
M  V30 13825 C 1318.95 -1.48849 -0.608332 0
M  V30 13826 O 1320.14 -1.68829 -0.42925 0
M  V30 13827 C 1317.27 -3.3298 -0.730553 0
M  V30 13828 H 1318.47 -2.82529 1.00585 0
M  V30 13829 H 1316.02 -1.45946 0.559406 0
M  V30 13830 H 1316.75 -2.8398 -1.56608 0
M  V30 13831 H 1316.54 -3.91787 -0.156706 0
M  V30 13832 H 1318.03 -4.01684 -1.14192 0
M  V30 13833 N 1318.47 -0.542005 -1.47987 0
M  V30 13834 C 1319.42 0.234244 -2.26794 0
M  V30 13835 C 1320.4 0.899085 -1.33436 0
M  V30 13836 O 1321.59 0.799904 -1.57894 0
M  V30 13837 C 1318.72 1.27312 -3.18821 0
M  V30 13838 C 1317.81 0.612457 -4.19654 0
M  V30 13839 N 1318.2 -0.30875 -5.04857 0
M  V30 13840 C 1316.5 0.868224 -4.37468 0
M  V30 13841 C 1317.2 -0.691052 -5.77581 0
M  V30 13842 N 1316.17 -0.0493574 -5.43578 0
M  V30 13843 H 1319.97 -0.47427 -2.90048 0
M  V30 13844 H 1317.49 -0.360868 -1.5834 0
M  V30 13845 H 1319.49 1.84305 -3.73948 0
M  V30 13846 H 1318.15 1.98288 -2.57122 0
M  V30 13847 H 1319.16 -0.682054 -5.13389 0
M  V30 13848 H 1315.83 1.56765 -3.86951 0
M  V30 13849 H 1317.22 -1.44713 -6.56131 0
M  V30 13850 N 1319.94 1.55134 -0.277709 0
M  V30 13851 C 1321.19 1.99259 0.337662 0
M  V30 13852 C 1321.51 1.16755 1.56183 0
M  V30 13853 O 1320.78 0.257707 1.94198 0
M  V30 13854 H 1319.36 0.735995 0.127751 0
M  V30 13855 H 1322.02 1.91087 -0.383646 0
M  V30 13856 H 1321.12 3.05763 0.625747 0
M  V30 13857 N 1321.42 0.00503138 1.57599 0
M  V30 13858 C 1322.65 -0.689609 1.95069 0
M  V30 13859 C 1323.06 -1.67028 0.880183 0
M  V30 13860 O 1322.42 -1.81959 -0.140406 0
M  V30 13861 C 1322.47 -1.41709 3.32567 0
M  V30 13862 O 1322.19 -0.475746 4.35509 0
M  V30 13863 C 1323.69 -2.20578 3.84526 0
M  V30 13864 H 1320.91 -0.19175 0.643019 0
M  V30 13865 H 1323.46 0.057646 2.04419 0
M  V30 13866 H 1321.61 -2.11593 3.2451 0
M  V30 13867 H 1322.03 -0.989573 5.1508 0
M  V30 13868 H 1323.5 -2.66969 4.83148 0
M  V30 13869 H 1323.98 -3.03467 3.17497 0
M  V30 13870 H 1324.58 -1.557 3.95775 0
M  V30 13871 N 1322.9 -1.55308 -0.267798 0
M  V30 13872 C 1323.85 -1.88544 -1.33115 0
M  V30 13873 C 1324.82 -0.737465 -1.48831 0
M  V30 13874 O 1326 -0.989215 -1.63154 0
M  V30 13875 C 1323.14 -2.1674 -2.68547 0
M  V30 13876 C 1322.25 -3.44234 -2.61011 0
M  V30 13877 C 1321.39 -3.62104 -3.88657 0
M  V30 13878 C 1320.43 -4.83272 -3.75652 0
M  V30 13879 N 1319.57 -4.97772 -4.95144 0
M  V30 13880 H 1324.41 -2.79237 -1.04071 0
M  V30 13881 H 1321.94 -1.38245 -0.502677 0
M  V30 13882 H 1323.9 -2.31088 -3.47353 0
M  V30 13883 H 1322.53 -1.29276 -2.95783 0
M  V30 13884 H 1321.58 -3.3833 -1.73887 0
M  V30 13885 H 1322.89 -4.33177 -2.47303 0
M  V30 13886 H 1322.05 -3.76298 -4.75904 0
M  V30 13887 H 1320.79 -2.71356 -4.05238 0
M  V30 13888 H 1319.79 -4.69076 -2.86788 0
M  V30 13889 H 1321.02 -5.75461 -3.60585 0
M  V30 13890 H 1318.96 -4.09956 -5.12125 0
M  V30 13891 H 1318.88 -5.80769 -4.83987 0
M  V30 13892 H 1320.15 -5.16357 -5.83949 0
M  V30 13893 N 1324.38 0.532545 -1.4833 0
M  V30 13894 C 1325.31 1.64662 -1.65555 0
M  V30 13895 C 1326.29 1.62447 -0.50447 0
M  V30 13896 O 1327.47 1.79684 -0.736712 0
M  V30 13897 C 1324.6 3.03256 -1.69272 0
M  V30 13898 C 1323.56 3.20329 -2.83854 0
M  V30 13899 C 1322.88 4.59958 -2.72659 0
M  V30 13900 C 1324.18 3.03345 -4.25181 0
M  V30 13901 H 1325.88 1.50502 -2.58823 0
M  V30 13902 H 1323.42 0.722612 -1.24556 0
M  V30 13903 H 1325.38 3.81064 -1.79911 0
M  V30 13904 H 1324.1 3.18433 -0.725805 0
M  V30 13905 H 1322.76 2.44937 -2.72766 0
M  V30 13906 H 1322.41 4.71967 -1.73942 0
M  V30 13907 H 1322.11 4.72327 -3.49544 0
M  V30 13908 H 1323.63 5.39869 -2.85262 0
M  V30 13909 H 1325.05 3.70948 -4.37116 0
M  V30 13910 H 1323.44 3.27208 -5.03045 0
M  V30 13911 H 1324.51 1.998 -4.41824 0
M  V30 13912 N 1325.86 1.36875 0.78122 0
M  V30 13913 C 1327.08 1.349 1.57533 0
M  V30 13914 C 1327.51 -0.0655249 1.87986 0
M  V30 13915 O 1326.86 -1.03986 1.48515 0
M  V30 13916 C 1326.91 2.18562 2.86815 0
M  V30 13917 O 1326.02 1.58374 3.80777 0
M  V30 13918 H 1325.36 0.461355 0.477543 0
M  V30 13919 H 1327.89 1.80271 0.96766 0
M  V30 13920 H 1327.9 2.31436 3.36008 0
M  V30 13921 H 1326.57 3.21385 2.63978 0
M  V30 13922 H 1325.15 1.54487 3.39394 0
M  V30 13923 N 1327.33 -1.00632 1.21289 0
M  V30 13924 C 1328.56 -1.77709 1.05371 0
M  V30 13925 C 1328.97 -1.84933 -0.39956 0
M  V30 13926 O 1328.31 -1.30881 -1.28903 0
M  V30 13927 C 1328.38 -3.23206 1.5741 0
M  V30 13928 C 1328.04 -3.39563 3.05852 0
M  V30 13929 C 1329.04 -3.27952 4.03415 0
M  V30 13930 C 1326.72 -3.65048 3.4503 0
M  V30 13931 C 1328.72 -3.41587 5.38142 0
M  V30 13932 C 1326.4 -3.78325 4.7991 0
M  V30 13933 C 1327.4 -3.66601 5.76275 0
M  V30 13934 O 1327.09 -3.79458 7.08708 0
M  V30 13935 H 1326.82 -0.565369 0.370585 0
M  V30 13936 H 1329.38 -1.27483 1.6105 0
M  V30 13937 H 1327.61 -3.74562 0.96126 0
M  V30 13938 H 1329.29 -3.81953 1.37356 0
M  V30 13939 H 1330.06 -3.0819 3.74492 0
M  V30 13940 H 1325.94 -3.73256 2.70557 0
M  V30 13941 H 1329.48 -3.32353 6.13341 0
M  V30 13942 H 1325.38 -3.97591 5.08519 0
M  V30 13943 H 1326.15 -3.96413 7.161 0
M  V30 13944 N 1328.81 -1.02043 -1.20104 0
M  V30 13945 C 1330.04 -0.731315 -1.93544 0
M  V30 13946 C 1330.45 0.708582 -1.74999 0
M  V30 13947 O 1329.81 1.481 -1.06642 0
M  V30 13948 C 1329.86 -1.06233 -3.45538 0
M  V30 13949 O 1329.58 -2.44568 -3.63481 0
M  V30 13950 C 1331.08 -0.794818 -4.36116 0
M  V30 13951 H 1328.3 -0.268248 -0.615048 0
M  V30 13952 H 1330.85 -1.36264 -1.52488 0
M  V30 13953 H 1329 -0.476341 -3.8446 0
M  V30 13954 H 1329.42 -2.5663 -4.57429 0
M  V30 13955 H 1330.89 -1.07647 -5.41402 0
M  V30 13956 H 1331.37 0.270944 -4.38363 0
M  V30 13957 H 1331.97 -1.36314 -4.02863 0
M  V30 13958 N 1330.29 1.35952 -0.797165 0
M  V30 13959 C 1331.53 2.00862 -0.378652 0
M  V30 13960 C 1331.89 1.61886 1.03233 0
M  V30 13961 O 1333.1 2.19444 1.55234 0
M  V30 13962 C 1331.37 3.53207 -0.545845 0
M  V30 13963 S 1332.93 4.38266 -0.216358 0
M  V30 13964 H 1329.74 0.69621 -0.144268 0
M  V30 13965 H 1332.35 1.65708 -1.03735 0
M  V30 13966 H 1331.05 3.79062 -1.57291 0
M  V30 13967 H 1330.58 3.9319 0.128514 0
M  V30 13968 H 1332.6 4.86439 0.979344 0
M  V30 13969 N 1331.77 0.549846 1.47697 0
M  V30 13970 C 1332.68 -0.205286 2.337 0
M  V30 13971 C 1333.69 -0.919271 1.47734 0
M  V30 13972 O 1334.87 -0.889808 1.80678 0
M  V30 13973 C 1331.94 -1.22658 3.24278 0
M  V30 13974 C 1331 -0.520815 4.26129 0
M  V30 13975 C 1330.23 -1.49345 5.12378 0
M  V30 13976 O 1330.45 -2.72772 5.00951 0
M  V30 13977 O 1329.39 -1.02197 5.93161 0
M  V30 13978 H 1333.21 0.499982 2.99556 0
M  V30 13979 H 1330.8 0.310538 1.46137 0
M  V30 13980 H 1332.68 -1.8163 3.80248 0
M  V30 13981 H 1331.35 -1.9139 2.61059 0
M  V30 13982 H 1330.26 0.109906 3.73939 0
M  V30 13983 H 1331.59 0.124922 4.92041 0
M  V30 13984 N 1333.25 -1.54984 0.285932 0
M  V30 13985 C 1334.49 -1.99436 -0.32709 0
M  V30 13986 C 1334.82 -1.17582 -1.55562 0
M  V30 13987 O 1334.09 -0.268002 -1.94058 0
M  V30 13988 H 1332.67 -0.736662 -0.123846 0
M  V30 13989 H 1335.33 -1.90881 0.393774 0
M  V30 13990 H 1334.42 -3.0609 -0.609523 0
M  V30 13991 N 1334.72 -0.0133892 -1.57594 0
M  V30 13992 C 1335.97 0.667313 -1.90765 0
M  V30 13993 C 1336.29 1.73564 -0.888847 0
M  V30 13994 O 1335.56 1.95768 0.0718946 0
M  V30 13995 H 1334.14 0.24947 -0.704112 0
M  V30 13996 H 1336.81 -0.0574789 -1.94815 0
M  V30 13997 H 1335.9 1.13007 -2.90922 0
M  V30 13998 N 1336.2 1.55448 0.259558 0
M  V30 13999 C 1337.45 1.76686 0.98935 0
M  V30 14000 C 1337.78 0.575434 1.85793 0
M  V30 14001 O 1337.03 -0.441676 1.90651 0
M  V30 14002 C 1337.33 3.03292 1.89073 0
M  V30 14003 C 1337 4.35225 1.17855 0
M  V30 14004 C 1335.66 4.7108 0.981675 0
M  V30 14005 C 1338.01 5.16839 0.6728 0
M  V30 14006 C 1335.34 5.86094 0.266551 0
M  V30 14007 C 1337.69 6.32593 -0.0287965 0
M  V30 14008 C 1336.36 6.67078 -0.23726 0
M  V30 14009 H 1335.63 0.646542 0.362029 0
M  V30 14010 H 1338.27 1.8972 0.260488 0
M  V30 14011 H 1336.58 2.85217 2.68624 0
M  V30 14012 H 1338.27 3.16923 2.45685 0
M  V30 14013 H 1334.86 4.07051 1.34192 0
M  V30 14014 H 1339.05 4.89604 0.812481 0
M  V30 14015 H 1334.3 6.11327 0.0944447 0
M  V30 14016 H 1338.48 6.95081 -0.428378 0
M  V30 14017 H 1336.11 7.56049 -0.793358 0
M  V30 14018 N 1337.68 -0.524672 1.4861 0
M  V30 14019 C 1339.1 -0.853703 1.34848 0
M  V30 14020 C 1339.3 -1.98194 0.363529 0
M  V30 14021 O 1338.35 -2.51597 -0.213348 0
M  V30 14022 C 1339.67 -1.21622 2.75006 0
M  V30 14023 C 1341.21 -1.3258 2.83534 0
M  V30 14024 C 1341.69 -1.72172 4.24406 0
M  V30 14025 N 1343.18 -1.79265 4.27105 0
M  V30 14026 C 1343.91 -2.11296 5.33049 0
M  V30 14027 N 1343.41 -2.41714 6.49266 0
M  V30 14028 N 1345.2 -2.12347 5.20447 0
M  V30 14029 H 1337.35 0.219671 2.11261 0
M  V30 14030 H 1339.62 0.0356444 0.94733 0
M  V30 14031 H 1339.32 -0.460776 3.48669 0
M  V30 14032 H 1339.2 -2.16516 3.0887 0
M  V30 14033 H 1341.58 -2.072 2.10124 0
M  V30 14034 H 1341.67 -0.357943 2.53283 0
M  V30 14035 H 1341.31 -0.981108 4.98334 0
M  V30 14036 H 1341.24 -2.70017 4.52104 0
M  V30 14037 H 1343.73 -1.58013 3.43279 0
M  V30 14038 H 1344.04 -2.65276 7.25843 0
M  V30 14039 H 1342.39 -2.39222 6.52532 0
M  V30 14040 H 1345.58 -1.88044 4.28669 0
M  V30 14041 H 1345.75 -2.36978 6.03113 0
M  V30 14042 N 1339.16 -1.37287 -0.77395 0
M  V30 14043 C 1340.41 -1.31698 -1.52769 0
M  V30 14044 C 1340.72 0.0968585 -1.9536 0
M  V30 14045 O 1341.93 0.275205 -2.70102 0
M  V30 14046 C 1340.38 -2.31154 -2.75854 0
M  V30 14047 C 1339.99 -3.78055 -2.40371 0
M  V30 14048 C 1341.73 -2.34572 -3.53803 0
M  V30 14049 C 1339.64 -4.69248 -3.59945 0
M  V30 14050 H 1338.57 -0.489456 -0.573541 0
M  V30 14051 H 1341.22 -1.62735 -0.84791 0
M  V30 14052 H 1339.6 -1.93132 -3.45711 0
M  V30 14053 H 1340.78 -4.24902 -1.78312 0
M  V30 14054 H 1339.09 -3.77562 -1.75602 0
M  V30 14055 H 1341.69 -2.99908 -4.42673 0
M  V30 14056 H 1342.03 -1.35868 -3.93504 0
M  V30 14057 H 1342.57 -2.7129 -2.90941 0
M  V30 14058 H 1339.31 -5.69072 -3.25327 0
M  V30 14059 H 1338.83 -4.27108 -4.21117 0
M  V30 14060 H 1340.5 -4.86275 -4.26785 0
M  V30 14061 N 1340.64 0.999871 -1.21821 0
M  V30 14062 C 1341.86 1.7794 -1.06546 0
M  V30 14063 C 1342.29 1.84219 0.380115 0
M  V30 14064 O 1341.64 1.28955 1.27438 0
M  V30 14065 C 1341.69 3.1943 -1.67322 0
M  V30 14066 O 1340.8 4.01957 -0.922171 0
M  V30 14067 H 1340.14 0.548204 -0.374658 0
M  V30 14068 H 1342.67 1.2565 -1.61472 0
M  V30 14069 H 1342.68 3.70086 -1.71757 0
M  V30 14070 H 1341.35 3.14175 -2.7252 0
M  V30 14071 H 1339.93 3.60509 -0.95331 0
M  V30 14072 N 1342.11 1.02678 1.19562 0
M  V30 14073 C 1343.02 0.615738 2.26375 0
M  V30 14074 C 1344.04 -0.351525 1.70412 0
M  V30 14075 O 1345.22 -0.209932 2.00303 0
M  V30 14076 C 1342.28 -0.0292135 3.46688 0
M  V30 14077 C 1341.34 0.985284 4.1784 0
M  V30 14078 C 1340.58 0.371016 5.32409 0
M  V30 14079 O 1340.8 -0.826591 5.64379 0
M  V30 14080 O 1339.73 1.09282 5.91896 0
M  V30 14081 H 1343.56 1.50526 2.63772 0
M  V30 14082 H 1341.14 0.796847 1.26375 0
M  V30 14083 H 1343.03 -0.38893 4.19601 0
M  V30 14084 H 1341.7 -0.892778 3.11145 0
M  V30 14085 H 1340.61 1.39655 3.47055 0
M  V30 14086 H 1341.94 1.81915 4.57349 0
M  V30 14087 N 1343.59 -1.35528 0.804364 0
M  V30 14088 C 1344.5 -2.33616 0.214663 0
M  V30 14089 C 1345.52 -1.61757 -0.64115 0
M  V30 14090 O 1346.69 -1.93647 -0.553424 0
M  V30 14091 C 1343.76 -3.40951 -0.628778 0
M  V30 14092 C 1342.82 -4.28587 0.247269 0
M  V30 14093 C 1342.05 -5.30796 -0.556012 0
M  V30 14094 O 1342.28 -5.41557 -1.79088 0
M  V30 14095 O 1341.21 -6.01878 0.0519437 0
M  V30 14096 H 1345.04 -2.85843 1.02605 0
M  V30 14097 H 1342.62 -1.38259 0.566108 0
M  V30 14098 H 1344.5 -4.06538 -1.10926 0
M  V30 14099 H 1343.18 -2.90999 -1.4178 0
M  V30 14100 H 1342.09 -3.65988 0.774835 0
M  V30 14101 H 1343.42 -4.81931 1.00017 0
M  V30 14102 N 1345.07 -0.557671 -1.47404 0
M  V30 14103 C 1346.02 0.202834 -2.31714 0
M  V30 14104 C 1347.01 0.908873 -1.42954 0
M  V30 14105 O 1348.22 0.830106 -1.59716 0
M  V30 14106 H 1344.59 0.0842824 -0.747262 0
M  V30 14107 H 1346.57 -0.527431 -2.93702 0
M  V30 14108 C 1345.31 1.21937 -3.25617 0
M  V30 14109 H 1344.64 0.685506 -3.93879 0
M  V30 14110 H 1346.08 1.72237 -3.87441 0
M  V30 14111 C 1344.54 2.26748 -2.49173 0
M  V30 14112 O 1345.07 3.33681 -2.23651 0
M  V30 14113 N 1343.27 2.00687 -2.10174 0
M  V30 14114 H 1342.82 1.13741 -2.3113 0
M  V30 14115 H 1342.78 2.71031 -1.59342 0
M  V30 14116 N 1346.55 1.54831 -0.294147 0
M  V30 14117 C 1347.46 2.26939 0.594621 0
M  V30 14118 C 1348.48 1.30209 1.15419 0
M  V30 14119 O 1349.65 1.6318 1.18044 0
M  V30 14120 C 1346.72 2.9909 1.75345 0
M  V30 14121 C 1345.78 4.11342 1.22865 0
M  V30 14122 C 1345.01 4.80043 2.33225 0
M  V30 14123 O 1345.23 4.48062 3.52983 0
M  V30 14124 O 1344.17 5.67593 2.00304 0
M  V30 14125 H 1347.99 3.03698 0.00989235 0
M  V30 14126 H 1345.58 1.49276 -0.0608528 0
M  V30 14127 H 1347.46 3.44369 2.42875 0
M  V30 14128 H 1346.14 2.25232 2.32492 0
M  V30 14129 H 1345.04 3.70478 0.519279 0
M  V30 14130 H 1346.38 4.87158 0.702703 0
M  V30 14131 N 1348.03 0.0217466 1.57585 0
M  V30 14132 C 1349.26 -0.668881 1.9579 0
M  V30 14133 C 1349.67 -1.66085 0.897849 0
M  V30 14134 O 1349.03 -1.82098 -0.121099 0
M  V30 14135 C 1349.08 -1.38174 3.34051 0
M  V30 14136 O 1348.8 -0.429527 4.35989 0
M  V30 14137 C 1350.3 -2.16487 3.86844 0
M  V30 14138 H 1347.52 -0.184919 0.645016 0
M  V30 14139 H 1350.06 0.0793241 2.04346 0
M  V30 14140 H 1348.22 -2.0814 3.26736 0
M  V30 14141 H 1348.63 -0.934887 5.16101 0
M  V30 14142 H 1350.11 -2.61829 4.85952 0
M  V30 14143 H 1350.58 -3.00082 3.20698 0
M  V30 14144 H 1351.19 -1.51493 3.97404 0
M  V30 14145 N 1349.51 -1.55583 -0.251311 0
M  V30 14146 C 1350.73 -1.81259 -0.997636 0
M  V30 14147 C 1351.15 -0.596861 -1.79117 0
M  V30 14148 O 1350.51 0.434425 -1.77254 0
M  V30 14149 C 1350.56 -3.05097 -1.93902 0
M  V30 14150 O 1350.28 -4.21976 -1.1776 0
M  V30 14151 C 1351.78 -3.4354 -2.8017 0
M  V30 14152 H 1349 -0.603279 -0.29376 0
M  V30 14153 H 1351.54 -2.02635 -0.27553 0
M  V30 14154 H 1349.7 -2.85784 -2.61546 0
M  V30 14155 H 1350.11 -4.92133 -1.81398 0
M  V30 14156 H 1351.59 -4.33305 -3.41981 0
M  V30 14157 H 1352.06 -2.63924 -3.51057 0
M  V30 14158 H 1352.67 -3.65189 -2.17985 0
M  V30 14159 N 1350.98 0.516783 -1.48886 0
M  V30 14160 C 1352.22 1.28221 -1.59181 0
M  V30 14161 C 1352.59 1.90156 -0.265466 0
M  V30 14162 O 1353.79 2.67695 -0.243489 0
M  V30 14163 C 1352.06 2.3326 -2.70785 0
M  V30 14164 S 1353.62 3.19353 -3.00931 0
M  V30 14165 H 1350.44 0.435976 -0.561646 0
M  V30 14166 H 1353.04 0.587238 -1.86472 0
M  V30 14167 H 1351.74 1.86263 -3.65697 0
M  V30 14168 H 1351.27 3.07447 -2.45438 0
M  V30 14169 H 1353.29 4.3361 -2.4124 0
M  V30 14170 N 1352.46 1.37696 0.766659 0
M  V30 14171 C 1353.69 1.36192 1.55355 0
M  V30 14172 C 1354.1 -0.0534148 1.89125 0
M  V30 14173 O 1353.44 -1.02697 1.52312 0
M  V30 14174 C 1353.5 2.14047 2.88833 0
M  V30 14175 C 1353.17 3.6297 2.77672 0
M  V30 14176 C 1354.17 4.56745 2.48355 0
M  V30 14177 C 1351.85 4.06158 2.95534 0
M  V30 14178 C 1353.84 5.91687 2.37035 0
M  V30 14179 C 1351.53 5.41185 2.83835 0
M  V30 14180 C 1352.53 6.33762 2.54627 0
M  V30 14181 O 1352.22 7.66305 2.42963 0
M  V30 14182 H 1351.95 0.46804 0.487765 0
M  V30 14183 H 1354.5 1.81709 0.95765 0
M  V30 14184 H 1352.73 1.63227 3.50562 0
M  V30 14185 H 1354.42 2.05113 3.50262 0
M  V30 14186 H 1355.19 4.24687 2.34236 0
M  V30 14187 H 1351.07 3.34457 3.17269 0
M  V30 14188 H 1354.61 6.63914 2.14158 0
M  V30 14189 H 1350.51 5.72844 2.97524 0
M  V30 14190 H 1351.28 7.76683 2.58274 0
M  V30 14191 N 1353.94 -0.993397 1.22349 0
M  V30 14192 C 1354.87 -2.08104 0.936383 0
M  V30 14193 C 1355.85 -1.62153 -0.120505 0
M  V30 14194 O 1357.03 -1.88497 0.0109719 0
M  V30 14195 C 1354.16 -3.36231 0.408225 0
M  V30 14196 C 1353.21 -4.01105 1.44971 0
M  V30 14197 S 1354.04 -4.42021 3.02287 0
M  V30 14198 C 1355.2 -5.7332 2.51108 0
M  V30 14199 H 1355.43 -2.32137 1.8574 0
M  V30 14200 H 1352.96 -1.12781 1.05451 0
M  V30 14201 H 1354.92 -4.10352 0.110086 0
M  V30 14202 H 1353.58 -3.10228 -0.49167 0
M  V30 14203 H 1352.77 -4.93362 1.03003 0
M  V30 14204 H 1352.38 -3.33307 1.69653 0
M  V30 14205 H 1354.67 -6.49631 1.92317 0
M  V30 14206 H 1355.61 -6.20115 3.41853 0
M  V30 14207 H 1356.02 -5.30696 1.9241 0
M  V30 14208 N 1355.42 -1.03311 -1.19015 0
M  V30 14209 C 1356.67 -0.730593 -1.88432 0
M  V30 14210 C 1356.99 0.743392 -1.80274 0
M  V30 14211 O 1356.26 1.5359 -1.21601 0
M  V30 14212 H 1354.84 -0.267253 -0.697556 0
M  V30 14213 H 1357.5 -1.30824 -1.44468 0
M  V30 14214 H 1356.59 -1.02867 -2.9466 0
M  V30 14215 N 1356.9 1.35099 -0.81154 0
M  V30 14216 C 1357.84 2.29717 -0.223372 0
M  V30 14217 C 1358.81 1.53049 0.645396 0
M  V30 14218 O 1360 1.81467 0.589436 0
M  V30 14219 C 1357.14 3.3952 0.618057 0
M  V30 14220 C 1356.25 4.31145 -0.271693 0
M  V30 14221 C 1355.39 5.28044 0.578214 0
M  V30 14222 C 1354.42 6.11306 -0.311628 0
M  V30 14223 N 1353.56 7.00328 0.498539 0
M  V30 14224 H 1358.4 2.79426 -1.03563 0
M  V30 14225 H 1355.94 1.37518 -0.522231 0
M  V30 14226 H 1357.9 4.01854 1.12111 0
M  V30 14227 H 1356.53 2.91075 1.39554 0
M  V30 14228 H 1355.58 3.69773 -0.892885 0
M  V30 14229 H 1356.89 4.89545 -0.956392 0
M  V30 14230 H 1356.04 5.95774 1.1462 0
M  V30 14231 H 1354.78 4.70152 1.29646 0
M  V30 14232 H 1353.79 5.42518 -0.891849 0
M  V30 14233 H 1355.01 6.71277 -1.02781 0
M  V30 14234 H 1352.96 6.44919 1.20067 0
M  V30 14235 H 1352.88 7.55892 -0.12801 0
M  V30 14236 H 1354.14 7.72401 1.04965 0
M  V30 14237 N 1358.37 0.56548 1.47106 0
M  V30 14238 C 1359.62 0.052857 2.03331 0
M  V30 14239 C 1359.97 -1.28594 1.43113 0
M  V30 14240 O 1359.27 -1.82596 0.580451 0
M  V30 14241 C 1359.46 -0.0893776 3.57288 0
M  V30 14242 C 1359.29 1.23408 4.32436 0
M  V30 14243 C 1358.06 1.80362 4.72015 0
M  V30 14244 C 1360.26 2.15326 4.67054 0
M  V30 14245 N 1358.24 3.06626 5.3184 0
M  V30 14246 C 1359.61 3.26172 5.27268 0
M  V30 14247 C 1361.67 2.15219 4.48983 0
M  V30 14248 C 1360.37 4.37021 5.71319 0
M  V30 14249 C 1362.4 3.25085 4.94038 0
M  V30 14250 C 1361.76 4.34651 5.54309 0
M  V30 14251 H 1357.86 0.0617057 0.779562 0
M  V30 14252 H 1360.44 0.754591 1.79483 0
M  V30 14253 H 1358.61 -0.760248 3.80887 0
M  V30 14254 H 1360.34 -0.604818 4.00155 0
M  V30 14255 H 1357.1 1.3406 4.5423 0
M  V30 14256 H 1357.52 3.71006 5.66289 0
M  V30 14257 H 1362.16 1.3179 4.01735 0
M  V30 14258 H 1359.88 5.21204 6.17553 0
M  V30 14259 H 1363.47 3.26099 4.8182 0
M  V30 14260 H 1362.35 5.18261 5.88536 0
M  V30 14261 N 1359.85 -1.54672 0.302354 0
M  V30 14262 C 1361.08 -2.05041 -0.311891 0
M  V30 14263 C 1361.5 -1.17814 -1.46634 0
M  V30 14264 O 1360.86 -0.182517 -1.80379 0
M  V30 14265 C 1360.91 -3.52831 -0.744489 0
M  V30 14266 O 1360.01 -3.68621 -1.84913 0
M  V30 14267 H 1359.35 -0.661255 -0.0603102 0
M  V30 14268 H 1361.88 -1.99711 0.444593 0
M  V30 14269 H 1361.89 -3.94708 -1.03293 0
M  V30 14270 H 1360.57 -4.1578 0.0999976 0
M  V30 14271 H 1359.15 -3.38649 -1.56113 0
M  V30 14272 N 1361.33 -0.0301034 -1.57571 0
M  V30 14273 C 1362.56 0.662045 -1.9655 0
M  V30 14274 C 1362.98 1.64811 -0.906581 0
M  V30 14275 O 1362.34 1.80816 0.132415 0
M  V30 14276 C 1362.39 1.34389 -3.34622 0
M  V30 14277 O 1361.49 2.45919 -3.31056 0
M  V30 14278 H 1360.83 0.173842 -0.640839 0
M  V30 14279 H 1363.36 -0.092248 -2.04392 0
M  V30 14280 H 1363.37 1.70045 -3.70875 0
M  V30 14281 H 1362.05 0.621092 -4.11236 0
M  V30 14282 H 1360.62 2.12367 -3.06521 0
M  V30 14283 N 1362.81 1.55714 0.243056 0
M  V30 14284 C 1364.22 1.68126 0.811814 0
M  V30 14285 C 1364.57 0.628259 1.85869 0
M  V30 14286 O 1363.7 -0.224747 2.1523 0
M  V30 14287 C 1364.29 3.048 1.47928 0
M  V30 14288 C 1362.85 3.19138 1.99569 0
M  V30 14289 C 1362 2.64011 0.848149 0
M  V30 14290 H 1364.95 1.58689 0.0187918 0
M  V30 14291 H 1364.97 2.99459 2.34743 0
M  V30 14292 H 1364.48 3.81417 0.717106 0
M  V30 14293 H 1362.58 2.4735 2.78655 0
M  V30 14294 H 1362.69 4.26095 2.19043 0
M  V30 14295 H 1361.06 2.21934 1.2497 0
M  V30 14296 H 1361.84 3.43157 0.0989987 0
M  V30 14297 N 1364.29 -0.50888 1.49158 0
M  V30 14298 C 1365.7 -1.09054 1.51539 0
M  V30 14299 C 1366.05 -1.93938 0.297099 0
M  V30 14300 O 1365.17 -2.08092 -0.593849 0
M  V30 14301 C 1365.77 -1.98447 2.74599 0
M  V30 14302 C 1364.33 -2.5179 2.79783 0
M  V30 14303 C 1363.47 -1.29227 2.45348 0
M  V30 14304 H 1366.43 -0.293148 1.55969 0
M  V30 14305 H 1366.45 -2.83028 2.54314 0
M  V30 14306 H 1365.96 -1.3664 3.63251 0
M  V30 14307 H 1364.06 -3.17258 1.95392 0
M  V30 14308 H 1364.17 -2.89481 3.81756 0
M  V30 14309 H 1362.54 -1.61494 1.96957 0
M  V30 14310 H 1363.32 -0.6914 3.36266 0
M  V30 14311 N 1365.76 -1.381 -0.759346 0
M  V30 14312 C 1366.7 -1.3075 -1.88248 0
M  V30 14313 C 1367.71 -0.220835 -1.61295 0
M  V30 14314 O 1368.9 -0.477952 -1.71982 0
M  V30 14315 C 1366 -1.00174 -3.23757 0
M  V30 14316 C 1365.17 -2.19635 -3.78258 0
M  V30 14317 C 1364.23 -1.85892 -4.92271 0
M  V30 14318 O 1363.26 -2.58325 -5.07205 0
M  V30 14319 N 1364.46 -0.810436 -5.74815 0
M  V30 14320 H 1367.22 -2.27529 -1.95065 0
M  V30 14321 H 1364.78 -1.31886 -0.93902 0
M  V30 14322 H 1366.78 -0.756631 -3.97564 0
M  V30 14323 H 1365.35 -0.122094 -3.12361 0
M  V30 14324 H 1364.57 -2.60246 -2.96084 0
M  V30 14325 H 1365.85 -2.99373 -4.11404 0
M  V30 14326 H 1365.25 -0.209644 -5.65311 0
M  V30 14327 H 1363.81 -0.625206 -6.48795 0
M  V30 14328 N 1367.24 0.986894 -1.22875 0
M  V30 14329 C 1368.48 1.74243 -1.06859 0
M  V30 14330 C 1368.85 1.88024 0.388736 0
M  V30 14331 O 1370.05 2.60318 0.669907 0
M  V30 14332 C 1368.32 3.10668 -1.76692 0
M  V30 14333 S 1369.88 4.01884 -1.76166 0
M  V30 14334 H 1366.7 0.59931 -0.382555 0
M  V30 14335 H 1369.3 1.17951 -1.55909 0
M  V30 14336 H 1368 2.98285 -2.81877 0
M  V30 14337 H 1367.53 3.7203 -1.27897 0
M  V30 14338 H 1369.55 4.89451 -0.815627 0
M  V30 14339 N 1368.72 1.0394 1.18466 0
M  V30 14340 C 1369.63 0.639714 2.2571 0
M  V30 14341 C 1370.65 -0.333431 1.70775 0
M  V30 14342 O 1371.82 -0.188676 2.00514 0
M  V30 14343 C 1368.89 0.007559 3.46699 0
M  V30 14344 C 1367.95 1.02955 4.16772 0
M  V30 14345 C 1367.18 0.427464 5.31985 0
M  V30 14346 O 1367.4 -0.766684 5.65224 0
M  V30 14347 O 1366.34 1.15553 5.90704 0
M  V30 14348 H 1370.16 1.53316 2.6216 0
M  V30 14349 H 1367.75 0.810206 1.25523 0
M  V30 14350 H 1369.63 -0.344404 4.1999 0
M  V30 14351 H 1368.31 -0.859727 3.12074 0
M  V30 14352 H 1367.21 1.43328 3.45554 0
M  V30 14353 H 1368.55 1.86756 4.55393 0
M  V30 14354 N 1370.2 -1.34667 0.818693 0
M  V30 14355 C 1371.45 -1.98022 0.40396 0
M  V30 14356 C 1371.77 -1.65239 -1.03542 0
M  V30 14357 O 1371.04 -0.94097 -1.71821 0
M  V30 14358 H 1369.62 -0.732517 0.146382 0
M  V30 14359 H 1372.28 -1.64377 1.0472 0
M  V30 14360 H 1371.38 -3.07746 0.519516 0
M  V30 14361 N 1371.68 -0.573274 -1.46804 0
M  V30 14362 C 1372.61 0.153316 -2.32996 0
M  V30 14363 C 1373.59 0.893013 -1.44773 0
M  V30 14364 O 1374.77 0.870329 -1.73606 0
M  V30 14365 C 1371.9 1.1736 -3.2687 0
M  V30 14366 C 1370.86 0.549347 -4.2446 0
M  V30 14367 C 1370.18 1.67542 -5.07773 0
M  V30 14368 C 1371.48 -0.50736 -5.1983 0
M  V30 14369 H 1373.18 -0.566305 -2.93995 0
M  V30 14370 H 1370.72 -0.273785 -1.41373 0
M  V30 14371 H 1372.68 1.6902 -3.86019 0
M  V30 14372 H 1371.4 1.92337 -2.63958 0
M  V30 14373 H 1370.06 0.0539142 -3.6656 0
M  V30 14374 H 1369.71 2.41463 -4.41253 0
M  V30 14375 H 1369.41 1.26343 -5.73856 0
M  V30 14376 H 1370.93 2.19496 -5.69784 0
M  V30 14377 H 1372.34 -0.0762061 -5.73249 0
M  V30 14378 H 1370.74 -0.839139 -5.94204 0
M  V30 14379 H 1371.81 -1.39723 -4.64333 0
M  V30 14380 N 1373.15 1.5451 -0.310553 0
M  V30 14381 C 1374.57 1.85829 0.180166 0
M  V30 14382 C 1374.92 1.23239 1.52665 0
M  V30 14383 O 1374.04 0.53359 2.09718 0
M  V30 14384 C 1374.64 3.37153 0.333687 0
M  V30 14385 C 1373.2 3.68469 0.768625 0
M  V30 14386 C 1372.34 2.77051 -0.117399 0
M  V30 14387 H 1375.29 1.49544 -0.531262 0
M  V30 14388 H 1375.31 3.62171 1.16673 0
M  V30 14389 H 1374.83 3.82678 -0.646455 0
M  V30 14390 H 1372.93 3.28467 1.75898 0
M  V30 14391 H 1373.04 4.75559 0.581392 0
M  V30 14392 H 1371.4 2.51461 0.404905 0
M  V30 14393 H 1372.19 3.254 -1.09407 0
M  V30 14394 N 1374.63 0.0384594 1.57553 0
M  V30 14395 C 1375.87 -0.642187 1.9405 0
M  V30 14396 C 1376.24 -1.68753 0.915779 0
M  V30 14397 O 1377.44 -2.42133 1.16726 0
M  V30 14398 C 1375.71 -1.23422 3.35413 0
M  V30 14399 S 1377.27 -1.93464 3.93849 0
M  V30 14400 H 1374.09 -0.211198 0.678908 0
M  V30 14401 H 1376.69 0.104358 1.95221 0
M  V30 14402 H 1375.39 -0.461112 4.07801 0
M  V30 14403 H 1374.92 -2.01787 3.37707 0
M  V30 14404 H 1376.94 -3.21401 3.78042 0
M  V30 14405 N 1376.11 -1.55841 -0.234795 0
M  V30 14406 C 1377.06 -1.91326 -1.29086 0
M  V30 14407 C 1378.03 -0.768868 -1.47233 0
M  V30 14408 O 1379.21 -1.0236 -1.61019 0
M  V30 14409 C 1376.35 -2.22388 -2.6389 0
M  V30 14410 C 1375.47 -3.49693 -2.5365 0
M  V30 14411 C 1374.6 -3.70267 -3.80889 0
M  V30 14412 C 1373.64 -4.91132 -3.65317 0
M  V30 14413 N 1372.78 -5.08163 -4.84474 0
M  V30 14414 H 1377.62 -2.81382 -0.981246 0
M  V30 14415 H 1375.15 -1.3928 -0.47324 0
M  V30 14416 H 1377.11 -2.38404 -3.42373 0
M  V30 14417 H 1375.74 -1.35521 -2.92974 0
M  V30 14418 H 1374.79 -3.41943 -1.66672 0
M  V30 14419 H 1376.11 -4.38326 -2.38059 0
M  V30 14420 H 1375.26 -3.86308 -4.67815 0
M  V30 14421 H 1374 -2.7989 -3.9939 0
M  V30 14422 H 1373 -4.75054 -2.76774 0
M  V30 14423 H 1374.23 -5.8298 -3.48298 0
M  V30 14424 H 1372.18 -4.20726 -5.03314 0
M  V30 14425 H 1372.09 -5.90904 -4.71559 0
M  V30 14426 H 1373.36 -5.28627 -5.72865 0
M  V30 14427 N 1377.59 0.500963 -1.49426 0
M  V30 14428 C 1378.81 1.28383 -1.62888 0
M  V30 14429 C 1379.24 1.85688 -0.300262 0
M  V30 14430 O 1378.6 1.6586 0.73212 0
M  V30 14431 C 1378.65 2.38987 -2.70033 0
M  V30 14432 O 1377.75 3.42837 -2.29208 0
M  V30 14433 H 1377.09 0.379012 -0.545202 0
M  V30 14434 H 1379.62 0.59971 -1.95613 0
M  V30 14435 H 1379.63 2.84749 -2.92202 0
M  V30 14436 H 1378.31 1.96643 -3.66475 0
M  V30 14437 H 1376.88 3.02993 -2.1737 0
M  V30 14438 N 1379.07 1.38501 0.752011 0
M  V30 14439 C 1380.48 1.31086 1.32941 0
M  V30 14440 C 1380.83 -0.0326248 1.96173 0
M  V30 14441 O 1379.95 -0.934692 1.95173 0
M  V30 14442 C 1380.55 2.37395 2.41721 0
M  V30 14443 C 1379.11 2.33553 2.95177 0
M  V30 14444 C 1378.26 2.20178 1.68573 0
M  V30 14445 H 1381.21 1.48836 0.550771 0
M  V30 14446 H 1381.23 2.03202 3.21697 0
M  V30 14447 H 1380.74 3.35164 1.9567 0
M  V30 14448 H 1378.84 1.39371 3.45553 0
M  V30 14449 H 1378.95 3.27753 3.49449 0
M  V30 14450 H 1377.32 1.67057 1.9226 0
M  V30 14451 H 1378.1 3.19891 1.24599 0
M  V30 14452 N 1380.55 -0.980364 1.23396 0
M  V30 14453 C 1381.96 -1.53622 1.061 0
M  V30 14454 C 1382.31 -1.92648 -0.371645 0
M  V30 14455 O 1381.43 -1.76051 -1.25837 0
M  V30 14456 C 1382.03 -2.79159 1.91979 0
M  V30 14457 C 1380.59 -3.31144 1.78943 0
M  V30 14458 C 1379.73 -2.04135 1.87681 0
M  V30 14459 H 1382.68 -0.800047 1.37058 0
M  V30 14460 H 1382.71 -3.52011 1.4446 0
M  V30 14461 H 1382.22 -2.50723 2.96242 0
M  V30 14462 H 1380.32 -3.64459 0.774634 0
M  V30 14463 H 1380.43 -4.009 2.62329 0
M  V30 14464 H 1378.8 -2.18271 1.31262 0
M  V30 14465 H 1379.58 -1.78081 2.93499 0
M  V30 14466 N 1382.02 -1.04567 -1.17913 0
M  V30 14467 C 1382.93 -0.651674 -2.25367 0
M  V30 14468 C 1383.95 0.32437 -1.7095 0
M  V30 14469 O 1385.13 0.178039 -2.00612 0
M  V30 14470 C 1382.19 -0.0259452 -3.4669 0
M  V30 14471 C 1381.25 -1.05163 -4.1622 0
M  V30 14472 C 1380.48 -0.45567 -5.31751 0
M  V30 14473 O 1380.71 0.736698 -5.65623 0
M  V30 14474 O 1379.64 -1.18684 -5.90083 0
M  V30 14475 H 1383.47 -1.54704 -2.61344 0
M  V30 14476 H 1381.05 -0.816852 -1.25092 0
M  V30 14477 H 1382.93 0.322126 -4.20167 0
M  V30 14478 H 1381.61 0.843165 -3.12526 0
M  V30 14479 H 1380.52 -1.45159 -3.44789 0
M  V30 14480 H 1381.85 -1.89168 -4.54397 0
M  V30 14481 N 1383.5 1.34231 -0.825823 0
M  V30 14482 C 1384.75 1.97454 -0.411661 0
M  V30 14483 C 1385.06 1.66193 1.03147 0
M  V30 14484 O 1386.27 2.22929 1.54968 0
M  V30 14485 C 1384.73 3.53318 -0.685145 0
M  V30 14486 C 1384.33 3.9347 -2.14208 0
M  V30 14487 C 1386.08 4.23158 -0.337291 0
M  V30 14488 C 1383.98 5.42258 -2.3603 0
M  V30 14489 H 1382.91 0.738889 -0.150196 0
M  V30 14490 H 1385.57 1.53033 -1.01258 0
M  V30 14491 H 1383.95 3.95998 -0.0140178 0
M  V30 14492 H 1385.12 3.61888 -2.85261 0
M  V30 14493 H 1383.44 3.36575 -2.45165 0
M  V30 14494 H 1386.03 5.32558 -0.47813 0
M  V30 14495 H 1386.38 4.10053 0.718499 0
M  V30 14496 H 1386.91 3.85965 -0.963113 0
M  V30 14497 H 1383.65 5.60352 -3.40126 0
M  V30 14498 H 1383.17 5.75345 -1.69524 0
M  V30 14499 H 1384.85 6.08976 -2.18533 0
M  V30 14500 N 1384.98 0.581051 1.46498 0
M  V30 14501 C 1386.2 0.0696654 2.07283 0
M  V30 14502 C 1386.63 -1.22525 1.42721 0
M  V30 14503 O 1385.99 -1.73967 0.510421 0
M  V30 14504 C 1386.04 -0.0843864 3.60501 0
M  V30 14505 O 1385.14 -1.14129 3.96293 0
M  V30 14506 H 1384.48 0.0620572 0.661094 0
M  V30 14507 H 1387.01 0.803522 1.88161 0
M  V30 14508 H 1387.02 -0.29108 4.0696 0
M  V30 14509 H 1385.7 0.861274 4.06884 0
M  V30 14510 H 1384.27 -0.913186 3.61546 0
M  V30 14511 N 1386.46 -1.54343 0.318742 0
M  V30 14512 C 1387.41 -2.20892 -0.564849 0
M  V30 14513 C 1388.39 -1.18782 -1.08534 0
M  V30 14514 O 1389.58 -1.44431 -1.02316 0
M  V30 14515 C 1386.71 -2.96661 -1.72763 0
M  V30 14516 C 1385.8 -4.06105 -1.22226 0
M  V30 14517 N 1386.19 -5.03916 -0.436203 0
M  V30 14518 C 1384.49 -4.19968 -1.50142 0
M  V30 14519 C 1385.19 -5.81466 -0.164875 0
M  V30 14520 N 1384.16 -5.38406 -0.74966 0
M  V30 14521 H 1387.97 -2.93868 0.0430622 0
M  V30 14522 H 1385.48 -1.61923 0.124362 0
M  V30 14523 H 1387.48 -3.42819 -2.37236 0
M  V30 14524 H 1386.14 -2.25206 -2.33907 0
M  V30 14525 H 1387.15 -5.17839 -0.0794815 0
M  V30 14526 H 1383.83 -3.59726 -2.11905 0
M  V30 14527 H 1385.22 -6.70271 0.467617 0
M  V30 14528 N 1387.94 -0.0468143 -1.5753 0
M  V30 14529 C 1389.18 0.626699 -1.92138 0
M  V30 14530 C 1389.5 1.7164 -0.925463 0
M  V30 14531 O 1388.77 1.95876 0.0303531 0
M  V30 14532 H 1387.35 0.234479 -0.709245 0
M  V30 14533 H 1390.02 -0.0987892 -1.94649 0
M  V30 14534 H 1389.11 1.06811 -2.93254 0
M  V30 14535 N 1389.41 1.55964 0.226527 0
M  V30 14536 C 1390.66 1.7901 0.95306 0
M  V30 14537 C 1390.99 0.615608 1.84184 0
M  V30 14538 O 1390.27 -0.385341 1.90645 0
M  V30 14539 C 1390.55 3.12101 1.79624 0
M  V30 14540 C 1390.4 4.3999 0.934286 0
M  V30 14541 C 1391.72 3.4159 2.77496 0
M  V30 14542 H 1388.84 0.651236 0.345052 0
M  V30 14543 H 1391.48 1.88696 0.222236 0
M  V30 14544 H 1389.63 3.03975 2.41933 0
M  V30 14545 H 1391.31 4.6013 0.328328 0
M  V30 14546 H 1389.55 4.33138 0.239487 0
M  V30 14547 H 1390.22 5.29541 1.55853 0
M  V30 14548 H 1392.7 3.49812 2.25323 0
M  V30 14549 H 1391.57 4.35894 3.33599 0
M  V30 14550 H 1391.83 2.6351 3.54986 0
M  V30 14551 N 1390.89 -0.493031 1.4969 0
M  V30 14552 C 1392.14 -1.24849 1.59814 0
M  V30 14553 C 1392.47 -1.92059 0.287555 0
M  V30 14554 O 1391.75 -1.81099 -0.709471 0
M  V30 14555 C 1392.03 -2.30929 2.76304 0
M  V30 14556 C 1391.88 -1.68167 4.17181 0
M  V30 14557 C 1393.2 -3.32427 2.8841 0
M  V30 14558 H 1390.32 -0.452553 0.581691 0
M  V30 14559 H 1392.96 -0.545455 1.82002 0
M  V30 14560 H 1391.11 -2.9089 2.57517 0
M  V30 14561 H 1392.78 -1.11971 4.47504 0
M  V30 14562 H 1391.03 -0.985496 4.22458 0
M  V30 14563 H 1391.7 -2.45148 4.94577 0
M  V30 14564 H 1394.17 -2.82464 3.05537 0
M  V30 14565 H 1393.05 -4.04004 3.71581 0
M  V30 14566 H 1393.31 -3.95234 1.98097 0
M  V30 14567 N 1392.37 -1.38898 -0.744656 0
M  V30 14568 C 1393.33 -1.36633 -1.84022 0
M  V30 14569 C 1394.33 -0.265187 -1.58598 0
M  V30 14570 O 1395.52 -0.522569 -1.66177 0
M  V30 14571 C 1392.66 -1.12938 -3.21649 0
M  V30 14572 H 1393.85 -2.34111 -1.87435 0
M  V30 14573 H 1391.4 -1.24322 -0.947302 0
M  V30 14574 H 1392.14 -0.161027 -3.239 0
M  V30 14575 H 1391.92 -1.9267 -3.41498 0
M  V30 14576 H 1393.41 -1.14071 -4.01718 0
M  V30 14577 N 1393.85 0.973806 -1.23914 0
M  V30 14578 C 1394.8 2.05229 -0.993221 0
M  V30 14579 C 1395.78 1.60776 0.0631684 0
M  V30 14580 O 1396.97 1.76365 -0.149794 0
M  V30 14581 C 1394.1 3.38132 -0.593421 0
M  V30 14582 C 1393.19 3.89165 -1.68556 0
M  V30 14583 N 1393.58 4.13203 -2.91714 0
M  V30 14584 C 1391.88 4.17765 -1.56167 0
M  V30 14585 C 1392.58 4.54961 -3.62471 0
M  V30 14586 N 1391.56 4.59778 -2.90009 0
M  V30 14587 H 1395.36 2.21781 -1.92848 0
M  V30 14588 H 1392.87 1.15711 -1.1395 0
M  V30 14589 H 1394.87 4.14991 -0.398491 0
M  V30 14590 H 1393.53 3.2297 0.33472 0
M  V30 14591 H 1394.54 4.00832 -3.27954 0
M  V30 14592 H 1391.22 4.11571 -0.701112 0
M  V30 14593 H 1392.61 4.82022 -4.68085 0
M  V30 14594 N 1395.33 1.05191 1.17357 0
M  V30 14595 C 1396.26 0.597207 2.20247 0
M  V30 14596 C 1397.24 -0.374194 1.58236 0
M  V30 14597 O 1398.42 -0.285815 1.86321 0
M  V30 14598 C 1395.55 -0.126012 3.38466 0
M  V30 14599 C 1394.59 0.800401 4.18922 0
M  V30 14600 S 1395.43 2.28956 4.84086 0
M  V30 14601 C 1396.58 1.57751 6.05694 0
M  V30 14602 H 1396.82 1.46893 2.58476 0
M  V30 14603 H 1394.35 0.863874 1.27971 0
M  V30 14604 H 1396.31 -0.537086 4.06971 0
M  V30 14605 H 1394.97 -0.97377 2.98624 0
M  V30 14606 H 1394.16 0.240754 5.03425 0
M  V30 14607 H 1393.76 1.15084 3.55853 0
M  V30 14608 H 1396.06 0.876839 6.71802 0
M  V30 14609 H 1397 2.40001 6.66187 0
M  V30 14610 H 1397.41 1.06493 5.54364 0
M  V30 14611 N 1396.8 -1.33791 0.83293 0
M  V30 14612 C 1398.03 -2.0272 0.438111 0
M  V30 14613 C 1398.45 -1.62279 -0.951163 0
M  V30 14614 O 1397.81 -0.812406 -1.62079 0
M  V30 14615 C 1397.86 -3.5623 0.559698 0
M  V30 14616 O 1396.96 -4.10292 -0.41646 0
M  V30 14617 H 1396.31 -0.639438 0.178928 0
M  V30 14618 H 1398.84 -1.70821 1.12612 0
M  V30 14619 H 1398.85 -4.0563 0.439148 0
M  V30 14620 H 1397.52 -3.8501 1.5729 0
M  V30 14621 H 1396.1 -3.72034 -0.25396 0
M  V30 14622 N 1398.28 -0.588812 -1.46187 0
M  V30 14623 C 1399.56 -0.00958331 -1.95598 0
M  V30 14624 C 1399.94 1.45294 -1.53144 0
M  V30 14625 O 1399.29 2.14592 -0.785015 0
M  V30 14626 C 1399.5 -0.188018 -3.48493 0
M  V30 14627 C 1400.85 -0.0590152 -4.24559 0
M  V30 14628 O 1401.87 -0.117167 -3.56007 0
M  V30 14629 O 1400.73 0.0715924 -5.46453 0
M  V30 14630 H 1397.82 0.0463708 -0.825699 0
M  V30 14631 H 1400.37 -0.657558 -1.56443 0
M  V30 14632 H 1399.14 -1.20449 -3.723 0
M  V30 14633 H 1398.76 0.496103 -3.94493 0
M  V30 14634 N 1399.76 1.54172 -0.326923 0
M  V30 14635 C 1400.99 2.05512 0.279231 0
M  V30 14636 C 1401.41 1.20131 1.44741 0
M  V30 14637 O 1400.77 0.211191 1.80066 0
M  V30 14638 C 1400.82 3.53971 0.688263 0
M  V30 14639 O 1399.92 3.71516 1.79025 0
M  V30 14640 H 1399.26 0.662131 0.0497826 0
M  V30 14641 H 1401.79 1.98979 -0.476309 0
M  V30 14642 H 1401.8 3.96302 0.970002 0
M  V30 14643 H 1400.48 4.15568 -0.166132 0
M  V30 14644 H 1399.05 3.4109 1.50706 0
M  V30 14645 N 1401.24 0.0551678 1.57503 0
M  V30 14646 C 1402.47 -0.626291 1.96879 0
M  V30 14647 C 1402.88 -1.64677 0.93156 0
M  V30 14648 O 1402.22 -1.83469 -0.0921632 0
M  V30 14649 C 1402.28 -1.36674 3.32506 0
M  V30 14650 C 1401.95 -0.501632 4.54239 0
M  V30 14651 C 1402.94 0.233939 5.19373 0
M  V30 14652 C 1400.63 -0.431385 5.00444 0
M  V30 14653 C 1402.62 1.02815 6.29053 0
M  V30 14654 C 1400.31 0.366514 6.1 0
M  V30 14655 C 1401.31 1.09497 6.74166 0
M  V30 14656 O 1400.99 1.87974 7.81614 0
M  V30 14657 H 1400.73 -0.175738 0.652757 0
M  V30 14658 H 1403.28 0.11909 2.05054 0
M  V30 14659 H 1401.51 -2.15783 3.20896 0
M  V30 14660 H 1403.2 -1.93882 3.56602 0
M  V30 14661 H 1403.97 0.189161 4.84631 0
M  V30 14662 H 1399.84 -0.98798 4.50289 0
M  V30 14663 H 1403.39 1.59724 6.79068 0
M  V30 14664 H 1399.29 0.412916 6.44178 0
M  V30 14665 H 1400.05 1.80228 7.98411 0
M  V30 14666 N 1402.72 -1.56081 -0.218252 0
M  V30 14667 C 1403.65 -1.89176 -1.29403 0
M  V30 14668 C 1404.66 -0.780312 -1.42881 0
M  V30 14669 O 1405.85 -1.05863 -1.4372 0
M  V30 14670 C 1402.95 -2.08818 -2.66923 0
M  V30 14671 C 1402.12 -3.39854 -2.75351 0
M  V30 14672 C 1401.18 -3.48889 -3.93908 0
M  V30 14673 O 1400.21 -4.21894 -3.82091 0
M  V30 14674 N 1401.41 -2.80273 -5.08357 0
M  V30 14675 H 1404.18 -2.82047 -1.01338 0
M  V30 14676 H 1401.74 -1.56667 -0.408278 0
M  V30 14677 H 1403.73 -2.12175 -3.44622 0
M  V30 14678 H 1402.3 -1.22557 -2.87574 0
M  V30 14679 H 1401.52 -3.48568 -1.84104 0
M  V30 14680 H 1402.81 -4.26168 -2.77954 0
M  V30 14681 H 1402.2 -2.20744 -5.20854 0
M  V30 14682 H 1400.76 -2.89286 -5.84086 0
M  V30 14683 N 1404.2 0.485086 -1.49949 0
M  V30 14684 C 1405.43 1.25996 -1.63733 0
M  V30 14685 C 1405.83 1.8657 -0.31435 0
M  V30 14686 O 1405.18 1.69336 0.71211 0
M  V30 14687 C 1405.24 2.41842 -2.65994 0
M  V30 14688 C 1404.9 2.02014 -4.09926 0
M  V30 14689 C 1405.9 1.55068 -4.96236 0
M  V30 14690 C 1403.58 2.11162 -4.55759 0
M  V30 14691 C 1405.58 1.17796 -6.26421 0
M  V30 14692 C 1403.27 1.73501 -5.85953 0
M  V30 14693 C 1404.26 1.26894 -6.71109 0
M  V30 14694 O 1403.95 0.89749 -7.98874 0
M  V30 14695 H 1403.68 0.387743 -0.553743 0
M  V30 14696 H 1406.24 0.5871 -1.96831 0
M  V30 14697 H 1404.47 3.12254 -2.2811 0
M  V30 14698 H 1406.16 3.03837 -2.69143 0
M  V30 14699 H 1406.92 1.47434 -4.62048 0
M  V30 14700 H 1402.8 2.46389 -3.89633 0
M  V30 14701 H 1406.35 0.813467 -6.92841 0
M  V30 14702 H 1402.24 1.8079 -6.19665 0
M  V30 14703 H 1403.01 1.02757 -8.12024 0
M  V30 14704 N 1405.67 1.39291 0.737279 0
M  V30 14705 C 1406.92 1.36121 1.49384 0
M  V30 14706 C 1407.24 -0.0429406 1.94953 0
M  V30 14707 O 1406.51 -0.993756 1.68823 0
M  V30 14708 H 1405.09 0.500916 0.554159 0
M  V30 14709 H 1407.75 1.74134 0.875402 0
M  V30 14710 H 1406.85 2.02246 2.37704 0
M  V30 14711 N 1407.15 -0.967221 1.24429 0
M  V30 14712 C 1408.06 -2.09582 1.05417 0
M  V30 14713 C 1409.08 -1.73999 -0.00516127 0
M  V30 14714 O 1410.25 -2.00472 0.193115 0
M  V30 14715 C 1407.32 -3.40327 0.661697 0
M  V30 14716 C 1406.38 -3.89854 1.79756 0
M  V30 14717 C 1405.61 -5.1436 1.42372 0
M  V30 14718 O 1405.84 -5.69536 0.313754 0
M  V30 14719 O 1404.77 -5.58283 2.24952 0
M  V30 14720 H 1408.6 -2.28517 2.00034 0
M  V30 14721 H 1406.18 -1.07978 1.03253 0
M  V30 14722 H 1408.06 -4.18943 0.454369 0
M  V30 14723 H 1406.74 -3.22691 -0.255348 0
M  V30 14724 H 1405.64 -3.12297 2.05964 0
M  V30 14725 H 1406.98 -4.11967 2.69339 0
M  V30 14726 N 1408.63 -1.05812 -1.16797 0
M  V30 14727 C 1409.54 -0.675541 -2.24663 0
M  V30 14728 C 1410.56 0.30622 -1.71284 0
M  V30 14729 O 1411.73 0.156752 -2.00789 0
M  V30 14730 C 1408.8 -0.0627149 -3.46643 0
M  V30 14731 C 1407.86 -1.09572 -4.15081 0
M  V30 14732 C 1407.09 -0.512044 -5.31238 0
M  V30 14733 O 1407.31 0.676665 -5.66372 0
M  V30 14734 O 1406.25 -1.24936 -5.88791 0
M  V30 14735 H 1410.07 -1.57467 -2.59688 0
M  V30 14736 H 1407.66 -0.830073 -1.24218 0
M  V30 14737 H 1409.54 0.277543 -4.20485 0
M  V30 14738 H 1408.22 0.80997 -3.13403 0
M  V30 14739 H 1407.12 -1.48807 -3.4323 0
M  V30 14740 H 1408.46 -1.93977 -4.52365 0
M  V30 14741 N 1410.11 1.33347 -0.840014 0
M  V30 14742 C 1411.35 1.98037 -0.43692 0
M  V30 14743 C 1411.69 1.66382 1.00154 0
M  V30 14744 O 1410.96 0.944311 1.70038 0
M  V30 14745 C 1411.24 3.54012 -0.65937 0
M  V30 14746 C 1411.1 3.9535 -2.14518 0
M  V30 14747 C 1412.42 4.39972 -0.106258 0
M  V30 14748 H 1409.54 0.719373 -0.160221 0
M  V30 14749 H 1412.18 1.57969 -1.05574 0
M  V30 14750 H 1410.33 3.88274 -0.132633 0
M  V30 14751 H 1412 3.7134 -2.73687 0
M  V30 14752 H 1410.24 3.4504 -2.62926 0
M  V30 14753 H 1410.91 5.03992 -2.25158 0
M  V30 14754 H 1413.39 4.12362 -0.556511 0
M  V30 14755 H 1412.27 5.48125 -0.291583 0
M  V30 14756 H 1412.53 4.30872 0.990032 0
M  V30 14757 N 1411.59 0.596556 1.45873 0
M  V30 14758 C 1412.81 0.0934926 2.06689 0
M  V30 14759 C 1413.23 -1.21743 1.44305 0
M  V30 14760 O 1412.59 -1.73912 0.553253 0
M  V30 14761 C 1412.64 -0.0643337 3.61443 0
M  V30 14762 O 1412.36 1.19472 4.21495 0
M  V30 14763 C 1413.86 -0.600141 4.39219 0
M  V30 14764 H 1411.08 0.0637846 0.667961 0
M  V30 14765 H 1413.62 0.821159 1.87289 0
M  V30 14766 H 1411.78 -0.742278 3.80222 0
M  V30 14767 H 1412.19 1.01735 5.14539 0
M  V30 14768 H 1413.67 -0.6597 5.48044 0
M  V30 14769 H 1414.14 -1.62009 4.08227 0
M  V30 14770 H 1414.75 0.0433915 4.25278 0
M  V30 14771 N 1413.06 -1.53996 0.335095 0
M  V30 14772 C 1414.29 -2.0489 -0.265245 0
M  V30 14773 C 1414.7 -1.21024 -1.4543 0
M  V30 14774 O 1414.04 -0.236417 -1.82172 0
M  V30 14775 C 1414.11 -3.51546 -0.752018 0
M  V30 14776 C 1413.77 -4.55904 0.316261 0
M  V30 14777 C 1414.77 -5.06881 1.15617 0
M  V30 14778 C 1412.45 -5.00117 0.467762 0
M  V30 14779 C 1414.45 -6.00644 2.13321 0
M  V30 14780 C 1412.13 -5.93692 1.4482 0
M  V30 14781 C 1413.13 -6.43842 2.27938 0
M  V30 14782 O 1412.82 -7.35578 3.24315 0
M  V30 14783 H 1412.55 -0.673631 -0.0565427 0
M  V30 14784 H 1415.11 -1.99646 0.482771 0
M  V30 14785 H 1413.34 -3.54227 -1.55114 0
M  V30 14786 H 1415.02 -3.85455 -1.27197 0
M  V30 14787 H 1415.79 -4.73494 1.05017 0
M  V30 14788 H 1411.67 -4.60689 -0.169338 0
M  V30 14789 H 1415.21 -6.39711 2.78236 0
M  V30 14790 H 1411.11 -6.26495 1.5548 0
M  V30 14791 H 1411.88 -7.53487 3.19688 0
M  V30 14792 N 1414.54 -0.0635198 -1.57472 0
M  V30 14793 C 1415.49 0.906604 -2.12248 0
M  V30 14794 C 1416.46 1.30078 -1.0329 0
M  V30 14795 O 1417.64 1.38809 -1.30907 0
M  V30 14796 C 1414.78 2.1718 -2.68192 0
M  V30 14797 C 1413.9 1.831 -3.91278 0
M  V30 14798 C 1413.03 3.0417 -4.35493 0
M  V30 14799 C 1412.07 2.66069 -5.51248 0
M  V30 14800 N 1411.21 3.79871 -5.9046 0
M  V30 14801 H 1416.05 0.432606 -2.94843 0
M  V30 14802 H 1413.58 0.201895 -1.45708 0
M  V30 14803 H 1415.54 2.91231 -2.98732 0
M  V30 14804 H 1414.17 2.62135 -1.88375 0
M  V30 14805 H 1413.22 0.991473 -3.67252 0
M  V30 14806 H 1414.54 1.51063 -4.75375 0
M  V30 14807 H 1413.69 3.86507 -4.6765 0
M  V30 14808 H 1412.43 3.39395 -3.50232 0
M  V30 14809 H 1411.43 1.82151 -5.1875 0
M  V30 14810 H 1412.66 2.32023 -6.38234 0
M  V30 14811 H 1410.61 4.14873 -5.0815 0
M  V30 14812 H 1410.52 3.51573 -6.69277 0
M  V30 14813 H 1411.79 4.62811 -6.27237 0
M  V30 14814 N 1416.02 1.56195 0.209972 0
M  V30 14815 C 1417.26 1.81525 0.939574 0
M  V30 14816 C 1417.62 0.638789 1.81062 0
M  V30 14817 O 1418.82 0.771648 2.57486 0
M  V30 14818 C 1417.1 3.11809 1.7467 0
M  V30 14819 S 1418.65 3.58494 2.53036 0
M  V30 14820 H 1415.47 0.637211 0.31541 0
M  V30 14821 H 1418.07 1.94431 0.204175 0
M  V30 14822 H 1416.78 3.95463 1.09715 0
M  V30 14823 H 1416.31 3.01742 2.52419 0
M  V30 14824 H 1418.32 3.2275 3.76891 0
M  V30 14825 N 1417.5 -0.477127 1.50204 0
M  V30 14826 C 1418.74 -1.22964 1.60891 0
M  V30 14827 C 1419.07 -1.9207 0.306464 0
M  V30 14828 O 1418.33 -1.82472 -0.707272 0
M  V30 14829 C 1418.63 -2.30126 2.73453 0
M  V30 14830 C 1418.29 -1.78314 4.14143 0
M  V30 14831 C 1416.95 -1.63904 4.52425 0
M  V30 14832 C 1419.31 -1.3981 5.02098 0
M  V30 14833 C 1416.63 -1.09404 5.76409 0
M  V30 14834 C 1418.99 -0.867538 6.26623 0
M  V30 14835 C 1417.65 -0.710022 6.63713 0
M  V30 14836 H 1416.92 -0.449959 0.588743 0
M  V30 14837 H 1419.57 -0.526592 1.84118 0
M  V30 14838 H 1417.87 -3.06315 2.44291 0
M  V30 14839 H 1419.57 -2.88099 2.78927 0
M  V30 14840 H 1416.16 -1.90496 3.83939 0
M  V30 14841 H 1420.34 -1.49779 4.73159 0
M  V30 14842 H 1415.6 -0.959413 6.03825 0
M  V30 14843 H 1419.77 -0.560496 6.94141 0
M  V30 14844 H 1417.4 -0.285555 7.59663 0
M  V30 14845 N 1418.98 -1.3968 -0.729882 0
M  V30 14846 C 1419.89 -1.41094 -1.87429 0
M  V30 14847 C 1420.9 -0.305142 -1.71303 0
M  V30 14848 O 1422.08 -0.54744 -1.93817 0
M  V30 14849 C 1419.14 -1.25786 -3.23077 0
M  V30 14850 C 1418.2 -2.46382 -3.5156 0
M  V30 14851 C 1417.44 -2.31795 -4.80735 0
M  V30 14852 O 1417.66 -1.32415 -5.54818 0
M  V30 14853 O 1416.59 -3.20883 -5.09232 0
M  V30 14854 H 1420.42 -2.37571 -1.89192 0
M  V30 14855 H 1418.01 -1.2085 -0.878389 0
M  V30 14856 H 1419.89 -1.19402 -4.0413 0
M  V30 14857 H 1418.56 -0.324065 -3.22074 0
M  V30 14858 H 1417.47 -2.58343 -2.70573 0
M  V30 14859 H 1418.8 -3.38473 -3.57347 0
M  V30 14860 N 1420.45 0.960609 -1.2494 0
M  V30 14861 C 1421.7 1.70111 -1.09117 0
M  V30 14862 C 1422.02 1.91466 0.369544 0
M  V30 14863 O 1421.29 1.49749 1.26302 0
M  V30 14864 H 1419.87 0.630372 -0.400799 0
M  V30 14865 H 1422.54 1.15525 -1.56971 0
M  V30 14866 H 1421.63 2.68277 -1.5948 0
M  V30 14867 N 1421.93 1.0643 1.16234 0
M  V30 14868 C 1423.18 0.78184 1.86798 0
M  V30 14869 C 1423.51 -0.691734 1.81784 0
M  V30 14870 O 1422.76 -1.52271 1.22931 0
M  V30 14871 C 1423.06 1.22348 3.35806 0
M  V30 14872 C 1422.73 2.7014 3.61019 0
M  V30 14873 C 1421.39 3.1051 3.6761 0
M  V30 14874 C 1423.74 3.65582 3.71482 0
M  V30 14875 C 1421.07 4.45159 3.82165 0
M  V30 14876 C 1423.42 4.99981 3.87559 0
M  V30 14877 C 1422.09 5.39986 3.92392 0
M  V30 14878 H 1421.36 0.286096 0.683542 0
M  V30 14879 H 1424 1.33364 1.37427 0
M  V30 14880 H 1422.31 0.590896 3.87319 0
M  V30 14881 H 1424 0.981959 3.88791 0
M  V30 14882 H 1420.59 2.37884 3.56524 0
M  V30 14883 H 1424.78 3.35525 3.657 0
M  V30 14884 H 1420.03 4.75637 3.8416 0
M  V30 14885 H 1424.21 5.73817 3.94597 0
M  V30 14886 H 1421.84 6.44324 4.03423 0
M  V30 14887 N 1423.41 -1.329 0.847073 0
M  V30 14888 C 1424.66 -1.9712 0.445872 0
M  V30 14889 C 1424.98 -1.67398 -1.00014 0
M  V30 14890 O 1424.25 -0.977204 -1.69787 0
M  V30 14891 H 1422.83 -0.729247 0.161887 0
M  V30 14892 H 1425.49 -1.62118 1.08184 0
M  V30 14893 H 1424.59 -3.06575 0.584676 0
M  V30 14894 N 1424.89 -0.604284 -1.45555 0
M  V30 14895 C 1426.14 -0.0957836 -2.01472 0
M  V30 14896 C 1426.45 1.28016 -1.47889 0
M  V30 14897 O 1427.66 1.88121 -1.95762 0
M  V30 14898 C 1426.11 -0.120566 -3.59698 0
M  V30 14899 C 1425.72 -1.49616 -4.22278 0
M  V30 14900 C 1427.46 0.332865 -4.23193 0
M  V30 14901 C 1425.37 -1.4775 -5.72646 0
M  V30 14902 H 1424.3 -0.0320399 -0.753319 0
M  V30 14903 H 1426.95 -0.759125 -1.67061 0
M  V30 14904 H 1425.33 0.609365 -3.91283 0
M  V30 14905 H 1426.51 -2.24753 -4.02272 0
M  V30 14906 H 1424.82 -1.89141 -3.70965 0
M  V30 14907 H 1427.42 0.365951 -5.33446 0
M  V30 14908 H 1427.76 1.35487 -3.93635 0
M  V30 14909 H 1428.3 -0.343692 -3.96313 0
M  V30 14910 H 1425.04 -2.47701 -6.06898 0
M  V30 14911 H 1424.56 -0.768659 -5.94854 0
M  V30 14912 H 1426.23 -1.19971 -6.3578 0
M  V30 14913 N 1426.37 1.53816 -0.343257 0
M  V30 14914 C 1427.64 1.9315 0.308609 0
M  V30 14915 C 1428.02 1.27479 1.68263 0
M  V30 14916 O 1427.37 0.425614 2.24501 0
M  V30 14917 C 1427.58 3.46912 0.381176 0
M  V30 14918 C 1428.93 4.19868 0.632153 0
M  V30 14919 O 1429.95 3.53174 0.463303 0
M  V30 14920 O 1428.81 5.38016 0.959237 0
M  V30 14921 H 1425.91 0.807169 0.180022 0
M  V30 14922 H 1428.45 1.65053 -0.394412 0
M  V30 14923 H 1427.22 3.86932 -0.583058 0
M  V30 14924 H 1426.85 3.81175 1.13099 0
M  V30 14925 N 1427.84 0.0718701 1.57436 0
M  V30 14926 C 1429.09 -0.596052 1.9311 0
M  V30 14927 C 1429.41 -1.70146 0.952652 0
M  V30 14928 O 1428.68 -1.959 0.000812941 0
M  V30 14929 H 1427.26 -0.223165 0.712886 0
M  V30 14930 H 1429.93 0.129744 1.94468 0
M  V30 14931 H 1429.02 -1.02132 2.94916 0
M  V30 14932 N 1429.32 -1.56304 -0.201686 0
M  V30 14933 C 1430.73 -1.7022 -0.766953 0
M  V30 14934 C 1431.08 -0.677318 -1.84138 0
M  V30 14935 O 1430.21 0.167604 -2.1575 0
M  V30 14936 C 1430.8 -3.08615 -1.39795 0
M  V30 14937 C 1429.36 -3.24317 -1.91037 0
M  V30 14938 C 1428.51 -2.66167 -0.777853 0
M  V30 14939 H 1431.46 -1.58683 0.0232884 0
M  V30 14940 H 1431.48 -3.05578 -2.26721 0
M  V30 14941 H 1430.99 -3.83185 -0.615728 0
M  V30 14942 H 1429.1 -2.54652 -2.71999 0
M  V30 14943 H 1429.21 -4.31753 -2.07669 0
M  V30 14944 H 1427.57 -2.25169 -1.19042 0
M  V30 14945 H 1428.36 -3.43299 -0.00798179 0
M  V30 14946 N 1430.8 0.469154 -1.50455 0
M  V30 14947 C 1431.76 1.5493 -1.68906 0
M  V30 14948 C 1432.76 1.50744 -0.559721 0
M  V30 14949 O 1433.95 1.5333 -0.826781 0
M  V30 14950 C 1431.09 2.94556 -1.71609 0
M  V30 14951 H 1432.28 1.39887 -2.65276 0
M  V30 14952 H 1429.83 0.695667 -1.39965 0
M  V30 14953 H 1430.57 3.15041 -0.769382 0
M  V30 14954 H 1430.35 2.99002 -2.53654 0
M  V30 14955 H 1431.84 3.72973 -1.87831 0
M  V30 14956 N 1432.28 1.40065 0.722464 0
M  V30 14957 C 1433.53 1.37277 1.47776 0
M  V30 14958 C 1433.84 -0.0242852 1.95585 0
M  V30 14959 O 1435.05 -0.174769 2.70937 0
M  V30 14960 C 1433.5 2.41233 2.67085 0
M  V30 14961 C 1433.11 3.86716 2.26174 0
M  V30 14962 C 1434.85 2.47541 3.44853 0
M  V30 14963 C 1432.76 4.82284 3.42281 0
M  V30 14964 H 1431.69 0.510405 0.55498 0
M  V30 14965 H 1434.34 1.6577 0.786928 0
M  V30 14966 H 1432.72 2.0583 3.38305 0
M  V30 14967 H 1433.9 4.31227 1.6242 0
M  V30 14968 H 1432.21 3.83819 1.61468 0
M  V30 14969 H 1434.81 3.16131 4.31237 0
M  V30 14970 H 1435.15 1.50379 3.8819 0
M  V30 14971 H 1435.69 2.81901 2.80672 0
M  V30 14972 H 1432.43 5.80754 3.03982 0
M  V30 14973 H 1431.95 4.42443 4.04975 0
M  V30 14974 H 1433.62 5.0178 4.08443 0
M  V30 14975 N 1433.76 -0.95397 1.25448 0
M  V30 14976 C 1434.72 -2.03231 1.0597 0
M  V30 14977 C 1435.72 -1.60795 0.0122855 0
M  V30 14978 O 1436.91 -1.7233 0.254533 0
M  V30 14979 C 1434.04 -3.35414 0.609105 0
M  V30 14980 H 1435.24 -2.21943 2.01696 0
M  V30 14981 H 1432.79 -1.13115 1.07864 0
M  V30 14982 H 1433.52 -3.22398 -0.350723 0
M  V30 14983 H 1433.31 -3.67564 1.36526 0
M  V30 14984 H 1434.8 -4.14664 0.49428 0
M  V30 14985 N 1435.24 -1.07045 -1.15668 0
M  V30 14986 C 1436.18 -0.688004 -2.20307 0
M  V30 14987 C 1437.15 0.319081 -1.63006 0
M  V30 14988 O 1438.34 0.206239 -1.89682 0
M  V30 14989 C 1435.48 -0.0886692 -3.44986 0
M  V30 14990 C 1434.59 -1.14685 -4.16499 0
M  V30 14991 C 1433.73 -0.512852 -5.28719 0
M  V30 14992 C 1432.76 -1.55404 -5.92044 0
M  V30 14993 N 1431.9 -0.942848 -6.9574 0
M  V30 14994 H 1436.74 -1.58469 -2.52372 0
M  V30 14995 H 1434.28 -0.792184 -1.23947 0
M  V30 14996 H 1436.24 0.276415 -4.16283 0
M  V30 14997 H 1434.87 0.77139 -3.13448 0
M  V30 14998 H 1433.92 -1.62955 -3.43729 0
M  V30 14999 H 1435.23 -1.93643 -4.59678 0
M  V30 15000 H 1434.38 -0.0952274 -6.06625 0
M  V30 15001 H 1433.12 0.308524 -4.86723 0
M  V30 15002 H 1432.13 -1.98148 -5.12852 0
M  V30 15003 H 1433.35 -2.37765 -6.36117 0
M  V30 15004 H 1431.3 -0.142319 -6.55846 0
M  V30 15005 H 1431.22 -1.6697 -7.37331 0
M  V30 15006 H 1432.48 -0.550621 -7.77553 0
M  V30 15007 N 1436.71 1.32449 -0.85411 0
M  V30 15008 C 1437.95 1.99075 -0.463504 0
M  V30 15009 C 1438.32 1.66118 0.962739 0
M  V30 15010 O 1439.52 2.25831 1.45787 0
M  V30 15011 C 1437.79 3.50574 -0.695161 0
M  V30 15012 S 1439.35 4.36954 -0.402047 0
M  V30 15013 H 1436.17 0.689464 -0.173666 0
M  V30 15014 H 1438.77 1.61159 -1.1067 0
M  V30 15015 H 1437.47 3.72049 -1.73227 0
M  V30 15016 H 1437 3.93381 -0.0383675 0
M  V30 15017 H 1439.02 4.90155 0.772147 0
M  V30 15018 N 1438.19 0.611994 1.45232 0
M  V30 15019 C 1439.12 -0.0914869 2.33321 0
M  V30 15020 C 1440.1 -0.854315 1.4709 0
M  V30 15021 O 1441.29 -0.823994 1.75852 0
M  V30 15022 C 1438.42 -1.08652 3.29867 0
M  V30 15023 C 1437.37 -0.436615 4.25767 0
M  V30 15024 C 1436.7 -1.54021 5.12037 0
M  V30 15025 C 1438 0.645005 5.18302 0
M  V30 15026 H 1439.69 0.644053 2.92391 0
M  V30 15027 H 1437.24 0.311171 1.40598 0
M  V30 15028 H 1439.19 -1.58726 3.90364 0
M  V30 15029 H 1437.91 -1.85271 2.68965 0
M  V30 15030 H 1436.57 0.0432918 3.66574 0
M  V30 15031 H 1436.22 -2.29679 4.475 0
M  V30 15032 H 1435.92 -1.11084 5.77005 0
M  V30 15033 H 1437.45 -2.04313 5.75403 0
M  V30 15034 H 1438.86 0.228166 5.72846 0
M  V30 15035 H 1437.26 0.996387 5.9177 0
M  V30 15036 H 1438.33 1.51985 4.60466 0
M  V30 15037 N 1439.67 -1.53632 0.351409 0
M  V30 15038 C 1440.92 -2.00643 -0.242208 0
M  V30 15039 C 1441.24 -1.24074 -1.50435 0
M  V30 15040 O 1440.51 -0.350067 -1.92747 0
M  V30 15041 H 1439.09 -0.741252 -0.0924904 0
M  V30 15042 H 1441.75 -1.89039 0.474379 0
M  V30 15043 H 1440.85 -3.084 -0.479151 0
M  V30 15044 N 1441.15 -0.0802183 -1.57396 0
M  V30 15045 C 1442.06 0.898597 -2.16708 0
M  V30 15046 C 1443.07 1.321 -1.1325 0
M  V30 15047 O 1444.25 1.39197 -1.45554 0
M  V30 15048 C 1441.31 2.14501 -2.72379 0
M  V30 15049 C 1440.38 1.77822 -3.9074 0
M  V30 15050 C 1439.61 2.96521 -4.43747 0
M  V30 15051 O 1439.83 4.10797 -3.9573 0
M  V30 15052 O 1438.77 2.75849 -5.34968 0
M  V30 15053 H 1442.59 0.424027 -3.00725 0
M  V30 15054 H 1440.18 0.14332 -1.48711 0
M  V30 15055 H 1442.06 2.87575 -3.08024 0
M  V30 15056 H 1440.73 2.61039 -1.91416 0
M  V30 15057 H 1439.64 1.01974 -3.59934 0
M  V30 15058 H 1440.97 1.36059 -4.73021 0
M  V30 15059 N 1442.63 1.56409 0.193394 0
M  V30 15060 C 1443.57 1.94681 1.23968 0
M  V30 15061 C 1444.54 0.807634 1.45143 0
M  V30 15062 O 1445.73 1.06593 1.58248 0
M  V30 15063 C 1442.87 2.29306 2.57901 0
M  V30 15064 C 1441.98 3.56296 2.4429 0
M  V30 15065 C 1441.12 3.80235 3.70938 0
M  V30 15066 C 1440.15 5.00645 3.52167 0
M  V30 15067 N 1439.29 5.20829 4.70831 0
M  V30 15068 H 1444.13 2.83884 0.906298 0
M  V30 15069 H 1441.67 1.40486 0.436146 0
M  V30 15070 H 1443.63 2.47398 3.35932 0
M  V30 15071 H 1442.26 1.43241 2.89278 0
M  V30 15072 H 1441.31 3.46241 1.57547 0
M  V30 15073 H 1442.62 4.44483 2.26354 0
M  V30 15074 H 1441.77 3.98575 4.57408 0
M  V30 15075 H 1440.51 2.90381 3.91829 0
M  V30 15076 H 1439.52 4.82225 2.64081 0
M  V30 15077 H 1440.74 5.92009 3.32719 0
M  V30 15078 H 1438.69 4.33923 4.91983 0
M  V30 15079 H 1438.61 6.03199 4.55726 0
M  V30 15080 H 1439.87 5.4363 5.58648 0
M  V30 15081 N 1444.1 -0.461169 1.50702 0
M  V30 15082 C 1445.35 -1.21137 1.63393 0
M  V30 15083 C 1445.7 -1.89467 0.334664 0
M  V30 15084 O 1445 -1.79575 -0.668083 0
M  V30 15085 C 1445.19 -2.27213 2.75879 0
M  V30 15086 C 1445.02 -1.69291 4.16618 0
M  V30 15087 C 1443.79 -1.48827 4.82886 0
M  V30 15088 C 1445.99 -1.18233 5.00525 0
M  V30 15089 N 1443.97 -0.862524 6.07811 0
M  V30 15090 C 1445.34 -0.680412 6.16255 0
M  V30 15091 C 1447.4 -1.07182 4.86227 0
M  V30 15092 C 1446.1 -0.0788727 7.19257 0
M  V30 15093 C 1448.13 -0.484201 5.89415 0
M  V30 15094 C 1447.49 0.00728753 7.044 0
M  V30 15095 H 1443.59 -0.431797 0.651978 0
M  V30 15096 H 1446.17 -0.511751 1.87854 0
M  V30 15097 H 1444.34 -2.94591 2.53122 0
M  V30 15098 H 1446.07 -2.94223 2.77875 0
M  V30 15099 H 1442.83 -1.74332 4.40347 0
M  V30 15100 H 1443.25 -0.567778 6.74615 0
M  V30 15101 H 1447.89 -1.43771 3.97605 0
M  V30 15102 H 1445.61 0.299208 8.07546 0
M  V30 15103 H 1449.2 -0.400923 5.80417 0
M  V30 15104 H 1448.08 0.454852 7.8288 0
M  V30 15105 N 1445.58 -1.40446 -0.715026 0
M  V30 15106 C 1446.81 -1.42263 -1.50917 0
M  V30 15107 C 1447.23 -0.0242402 -1.88084 0
M  V30 15108 O 1446.59 0.967817 -1.53307 0
M  V30 15109 C 1446.64 -2.31998 -2.7606 0
M  V30 15110 O 1445.74 -1.76361 -3.72787 0
M  V30 15111 H 1445.08 -0.483614 -0.454988 0
M  V30 15112 H 1447.61 -1.84682 -0.880549 0
M  V30 15113 H 1447.62 -2.47204 -3.24583 0
M  V30 15114 H 1446.3 -3.33614 -2.48343 0
M  V30 15115 H 1444.87 -1.70504 -3.31636 0
M  V30 15116 N 1447.06 0.947303 -1.25952 0
M  V30 15117 C 1448.01 2.03076 -1.03653 0
M  V30 15118 C 1448.99 1.60874 0.0290512 0
M  V30 15119 O 1450.19 1.76008 -0.187169 0
M  V30 15120 C 1447.31 3.36797 -0.66501 0
M  V30 15121 C 1446.4 3.85502 -1.76773 0
M  V30 15122 N 1446.79 4.06922 -3.00413 0
M  V30 15123 C 1445.09 4.14359 -1.64993 0
M  V30 15124 C 1445.79 4.4717 -3.7204 0
M  V30 15125 N 1444.77 4.53523 -2.99697 0
M  V30 15126 H 1448.57 2.17641 -1.97509 0
M  V30 15127 H 1446.08 1.13268 -1.16379 0
M  V30 15128 H 1448.08 4.14053 -0.486427 0
M  V30 15129 H 1446.74 3.23607 0.266138 0
M  V30 15130 H 1447.75 3.93786 -3.36383 0
M  V30 15131 H 1444.43 4.09991 -0.788254 0
M  V30 15132 H 1445.82 4.71985 -4.78205 0
M  V30 15133 N 1448.54 1.07657 1.15099 0
M  V30 15134 C 1449.95 0.823828 1.67541 0
M  V30 15135 C 1450.3 -0.650601 1.85099 0
M  V30 15136 O 1449.43 -1.50333 1.55657 0
M  V30 15137 C 1450.02 1.4889 3.04331 0
M  V30 15138 C 1448.58 1.28359 3.53837 0
M  V30 15139 C 1447.73 1.55659 2.2949 0
M  V30 15140 H 1450.68 1.23819 0.992699 0
M  V30 15141 H 1450.7 0.911848 3.69412 0
M  V30 15142 H 1450.21 2.56199 2.9152 0
M  V30 15143 H 1448.31 0.230864 3.71884 0
M  V30 15144 H 1448.42 2.00593 4.35085 0
M  V30 15145 H 1446.79 0.977755 2.35185 0
M  V30 15146 H 1447.57 2.64157 2.19263 0
M  V30 15147 N 1450.02 -1.31994 0.861122 0
M  V30 15148 C 1451.43 -1.79271 0.521437 0
M  V30 15149 C 1451.78 -1.71046 -0.96113 0
M  V30 15150 O 1450.9 -1.2729 -1.75003 0
M  V30 15151 C 1451.5 -3.25507 0.939731 0
M  V30 15152 C 1450.06 -3.70713 0.651845 0
M  V30 15153 C 1449.2 -2.52967 1.13592 0
M  V30 15154 H 1452.16 -1.19201 1.0477 0
M  V30 15155 H 1452.18 -3.79619 0.258754 0
M  V30 15156 H 1451.69 -3.3146 2.0188 0
M  V30 15157 H 1449.79 -3.70268 -0.416232 0
M  V30 15158 H 1449.9 -4.63236 1.22267 0
M  V30 15159 H 1448.27 -2.48558 0.555971 0
M  V30 15160 H 1449.05 -2.61671 2.22223 0
M  V30 15161 N 1451.49 -0.619688 -1.44906 0
M  V30 15162 C 1452.72 -0.124598 -2.07025 0
M  V30 15163 C 1453.14 1.18698 -1.45919 0
M  V30 15164 O 1452.5 1.72552 -0.556366 0
M  V30 15165 C 1452.55 -0.0112238 -3.60598 0
M  V30 15166 O 1451.65 1.03582 -3.9918 0
M  V30 15167 H 1451 -0.0795631 -0.659216 0
M  V30 15168 H 1453.53 -0.853127 -1.85965 0
M  V30 15169 H 1453.54 0.183079 -4.07589 0
M  V30 15170 H 1452.21 -0.968849 -4.04458 0
M  V30 15171 H 1450.79 0.817008 -3.6384 0
M  V30 15172 N 1452.97 1.53444 -0.359552 0
M  V30 15173 C 1454.21 2.03077 0.232169 0
M  V30 15174 C 1454.58 1.24125 1.46482 0
M  V30 15175 O 1455.78 1.63735 2.13177 0
M  V30 15176 C 1454.05 3.53554 0.522891 0
M  V30 15177 S 1455.61 4.25068 1.08914 0
M  V30 15178 H 1452.43 0.707738 0.0680317 0
M  V30 15179 H 1455.03 1.88971 -0.501022 0
M  V30 15180 H 1453.73 4.0862 -0.381812 0
M  V30 15181 H 1453.26 3.71811 1.28532 0
M  V30 15182 H 1455.28 4.35734 2.37382 0
M  V30 15183 N 1454.45 0.0885642 1.57351 0
M  V30 15184 C 1455.7 -0.57633 1.93291 0
M  V30 15185 C 1456.01 -1.69743 0.971934 0
M  V30 15186 O 1457.22 -2.42304 1.22479 0
M  V30 15187 C 1455.67 -1.07655 3.43422 0
M  V30 15188 C 1455.28 0.0144488 4.47998 0
M  V30 15189 C 1457.03 -1.71455 3.88334 0
M  V30 15190 C 1454.93 -0.500758 5.89276 0
M  V30 15191 H 1453.86 -0.219055 0.721478 0
M  V30 15192 H 1456.51 0.163511 1.8277 0
M  V30 15193 H 1454.9 -1.86988 3.49072 0
M  V30 15194 H 1456.07 0.789696 4.53983 0
M  V30 15195 H 1454.39 0.557237 4.12655 0
M  V30 15196 H 1456.98 -2.11063 4.91281 0
M  V30 15197 H 1457.33 -2.58116 3.26621 0
M  V30 15198 H 1457.86 -0.987159 3.85357 0
M  V30 15199 H 1454.6 0.329088 6.54673 0
M  V30 15200 H 1454.12 -1.24315 5.86776 0
M  V30 15201 H 1455.8 -0.971821 6.3966 0
M  V30 15202 N 1455.93 -1.56509 -0.185096 0
M  V30 15203 C 1456.88 -1.95336 -1.22934 0
M  V30 15204 C 1457.85 -0.81532 -1.44713 0
M  V30 15205 O 1459.03 -1.07431 -1.57681 0
M  V30 15206 C 1456.17 -2.30671 -2.56681 0
M  V30 15207 C 1455.28 -3.57586 -2.42397 0
M  V30 15208 C 1454.42 -3.82197 -3.68916 0
M  V30 15209 C 1453.46 -5.02505 -3.49507 0
M  V30 15210 N 1452.59 -5.23319 -4.68062 0
M  V30 15211 H 1457.43 -2.84361 -0.89123 0
M  V30 15212 H 1454.97 -1.40715 -0.428689 0
M  V30 15213 H 1456.93 -2.49176 -3.34615 0
M  V30 15214 H 1455.56 -1.44773 -2.88514 0
M  V30 15215 H 1454.61 -3.47072 -1.55709 0
M  V30 15216 H 1455.92 -4.45677 -2.23994 0
M  V30 15217 H 1455.08 -4.00996 -4.55288 0
M  V30 15218 H 1453.82 -2.92455 -3.90284 0
M  V30 15219 H 1452.82 -4.83619 -2.6152 0
M  V30 15220 H 1454.05 -5.93765 -3.29574 0
M  V30 15221 H 1451.99 -4.36526 -4.89674 0
M  V30 15222 H 1451.91 -6.05608 -4.52521 0
M  V30 15223 H 1453.18 -5.46585 -5.55757 0
M  V30 15224 N 1457.41 0.45317 -1.50944 0
M  V30 15225 C 1458.63 1.22672 -1.66611 0
M  V30 15226 C 1459.05 1.85398 -0.356814 0
M  V30 15227 O 1458.41 1.70026 0.663122 0
M  V30 15228 C 1458.46 2.32238 -2.77034 0
M  V30 15229 O 1458.18 1.72081 -4.02889 0
M  V30 15230 C 1459.68 3.22802 -3.03832 0
M  V30 15231 H 1456.9 0.370337 -0.559546 0
M  V30 15232 H 1459.44 0.538884 -1.97272 0
M  V30 15233 H 1457.6 2.96765 -2.49017 0
M  V30 15234 H 1458.01 2.4437 -4.64095 0
M  V30 15235 H 1459.49 3.95851 -3.84716 0
M  V30 15236 H 1459.96 3.82636 -2.15608 0
M  V30 15237 H 1460.57 2.63993 -3.33449 0
M  V30 15238 N 1458.88 1.40823 0.707568 0
M  V30 15239 C 1460.16 1.3003 1.46122 0
M  V30 15240 C 1460.54 -0.0776873 2.10957 0
M  V30 15241 O 1459.89 -1.09109 2.00767 0
M  V30 15242 C 1460.1 2.44498 2.49042 0
M  V30 15243 C 1461.45 2.85106 3.14642 0
M  V30 15244 O 1462.47 2.44149 2.59364 0
M  V30 15245 O 1461.33 3.55892 4.14733 0
M  V30 15246 H 1458.42 0.511082 0.650172 0
M  V30 15247 H 1460.97 1.52761 0.739062 0
M  V30 15248 H 1459.74 3.36502 1.99705 0
M  V30 15249 H 1459.37 2.23579 3.28783 0
M  V30 15250 N 1460.36 -0.94061 1.26453 0
M  V30 15251 C 1461.6 -1.70157 1.13252 0
M  V30 15252 C 1461.97 -1.89337 -0.318684 0
M  V30 15253 O 1463.17 -2.62625 -0.57283 0
M  V30 15254 C 1461.44 -3.03896 1.88101 0
M  V30 15255 S 1463 -3.95069 1.9096 0
M  V30 15256 H 1459.82 -0.584699 0.404534 0
M  V30 15257 H 1462.42 -1.12084 1.6018 0
M  V30 15258 H 1461.12 -2.87617 2.92753 0
M  V30 15259 H 1460.65 -3.67026 1.41616 0
M  V30 15260 H 1462.67 -4.86086 0.996721 0
M  V30 15261 N 1461.84 -1.08266 -1.14527 0
M  V30 15262 C 1462.77 -0.732968 -2.21698 0
M  V30 15263 C 1463.75 0.283917 -1.67714 0
M  V30 15264 O 1464.94 0.154607 -1.93584 0
M  V30 15265 C 1462.07 -0.139935 -3.47018 0
M  V30 15266 C 1461.02 -1.08501 -4.14019 0
M  V30 15267 C 1460.35 -0.354263 -5.33525 0
M  V30 15268 C 1461.65 -2.42254 -4.62721 0
M  V30 15269 H 1463.34 -1.629 -2.51205 0
M  V30 15270 H 1460.89 -0.784696 -1.20742 0
M  V30 15271 H 1462.84 0.1167 -4.21238 0
M  V30 15272 H 1461.56 0.791228 -3.16871 0
M  V30 15273 H 1460.22 -1.32672 -3.41751 0
M  V30 15274 H 1459.87 0.580658 -4.99637 0
M  V30 15275 H 1459.57 -0.984287 -5.79297 0
M  V30 15276 H 1461.09 -0.105648 -6.10509 0
M  V30 15277 H 1462.51 -2.22357 -5.28422 0
M  V30 15278 H 1460.91 -3.00935 -5.1919 0
M  V30 15279 H 1461.98 -3.03884 -3.77866 0
M  V30 15280 N 1463.32 1.31536 -0.86811 0
M  V30 15281 C 1464.54 2.01487 -0.491705 0
M  V30 15282 C 1464.97 1.64744 0.907803 0
M  V30 15283 O 1464.33 0.855093 1.59868 0
M  V30 15284 C 1464.38 3.54621 -0.65395 0
M  V30 15285 O 1463.48 4.11252 0.307532 0
M  V30 15286 H 1462.82 0.634469 -0.195819 0
M  V30 15287 H 1465.35 1.67775 -1.17101 0
M  V30 15288 H 1465.36 4.04323 -0.546539 0
M  V30 15289 H 1464.04 3.80704 -1.67443 0
M  V30 15290 H 1462.61 3.72577 0.155233 0
M  V30 15291 N 1464.8 0.627364 1.44575 0
M  V30 15292 C 1465.73 -0.066735 2.33405 0
M  V30 15293 C 1466.71 -0.838666 1.47988 0
M  V30 15294 O 1467.89 -0.805296 1.76716 0
M  V30 15295 C 1465.02 -1.05148 3.31 0
M  V30 15296 C 1463.98 -0.391433 4.26206 0
M  V30 15297 C 1463.3 -1.48581 5.13642 0
M  V30 15298 C 1464.6 0.699942 5.17589 0
M  V30 15299 H 1466.3 0.675029 2.91691 0
M  V30 15300 H 1463.84 0.326066 1.4026 0
M  V30 15301 H 1465.8 -1.54576 3.92026 0
M  V30 15302 H 1464.52 -1.82408 2.70915 0
M  V30 15303 H 1463.18 0.0821694 3.66508 0
M  V30 15304 H 1462.83 -2.2492 4.49911 0
M  V30 15305 H 1462.53 -1.04957 5.7815 0
M  V30 15306 H 1464.05 -1.98198 5.77538 0
M  V30 15307 H 1465.47 0.288911 5.72572 0
M  V30 15308 H 1463.86 1.0591 5.9068 0
M  V30 15309 H 1464.93 1.5686 4.58828 0
M  V30 15310 N 1466.28 -1.53251 0.367684 0
M  V30 15311 C 1467.69 -1.86369 -0.111073 0
M  V30 15312 C 1468.04 -1.2882 -1.47986 0
M  V30 15313 O 1467.16 -0.611058 -2.07593 0
M  V30 15314 C 1467.76 -3.38159 -0.208325 0
M  V30 15315 C 1466.32 -3.71067 -0.63134 0
M  V30 15316 C 1465.46 -2.76425 0.220144 0
M  V30 15317 H 1468.41 -1.47469 0.586398 0
M  V30 15318 H 1468.44 -3.66252 -1.03151 0
M  V30 15319 H 1467.95 -3.80015 0.788038 0
M  V30 15320 H 1466.05 -3.34769 -1.63586 0
M  V30 15321 H 1466.16 -4.77389 -0.404491 0
M  V30 15322 H 1464.53 -2.5279 -0.311298 0
M  V30 15323 H 1465.31 -3.21115 1.21409 0
M  V30 15324 N 1467.75 -0.0969077 -1.57302 0
M  V30 15325 C 1468.98 0.578086 -1.99181 0
M  V30 15326 C 1469.4 1.60818 -0.975667 0
M  V30 15327 O 1468.76 1.81215 0.0556054 0
M  V30 15328 C 1468.81 1.20076 -3.40021 0
M  V30 15329 O 1467.91 2.31656 -3.41188 0
M  V30 15330 H 1467.25 0.146506 -0.647636 0
M  V30 15331 H 1469.78 -0.178855 -2.03817 0
M  V30 15332 H 1469.79 1.54162 -3.77754 0
M  V30 15333 H 1468.47 0.446114 -4.135 0
M  V30 15334 H 1467.05 1.99175 -3.15252 0
M  V30 15335 N 1469.23 1.56605 0.176793 0
M  V30 15336 C 1470.48 1.81682 0.894302 0
M  V30 15337 C 1470.81 0.67311 1.82481 0
M  V30 15338 O 1470.06 -0.339995 1.92724 0
M  V30 15339 C 1470.36 3.12888 1.7273 0
M  V30 15340 C 1470.03 4.40861 0.946186 0
M  V30 15341 C 1468.69 4.75622 0.730586 0
M  V30 15342 C 1471.04 5.19679 0.397889 0
M  V30 15343 C 1468.37 5.86683 -0.0444995 0
M  V30 15344 C 1470.72 6.31551 -0.36408 0
M  V30 15345 C 1469.38 6.64883 -0.59053 0
M  V30 15346 H 1468.65 0.664823 0.327248 0
M  V30 15347 H 1471.3 1.90834 0.159555 0
M  V30 15348 H 1469.61 2.99055 2.53128 0
M  V30 15349 H 1471.3 3.295 2.2854 0
M  V30 15350 H 1467.89 4.13592 1.12426 0
M  V30 15351 H 1472.08 4.93223 0.55181 0
M  V30 15352 H 1467.33 6.10968 -0.229739 0
M  V30 15353 H 1471.51 6.91833 -0.796223 0
M  V30 15354 H 1469.13 7.50781 -1.19301 0
M  V30 15355 N 1470.71 -0.445159 1.51182 0
M  V30 15356 C 1471.62 -1.5651 1.74762 0
M  V30 15357 C 1472.64 -1.62134 0.631542 0
M  V30 15358 O 1473.81 -1.79522 0.912898 0
M  V30 15359 C 1470.88 -2.92552 1.86049 0
M  V30 15360 C 1469.94 -2.97108 3.0988 0
M  V30 15361 C 1469.17 -4.2666 3.2062 0
M  V30 15362 O 1469.39 -5.18608 2.37491 0
M  V30 15363 O 1468.33 -4.3734 4.13542 0
M  V30 15364 H 1472.15 -1.3953 2.6975 0
M  V30 15365 H 1469.74 -0.627363 1.3559 0
M  V30 15366 H 1471.62 -3.73304 1.95504 0
M  V30 15367 H 1470.3 -3.09676 0.94248 0
M  V30 15368 H 1469.2 -2.15338 3.05909 0
M  V30 15369 H 1470.54 -2.84927 4.01345 0
M  V30 15370 N 1472.19 -1.41197 -0.700089 0
M  V30 15371 C 1473.14 -1.42885 -1.83539 0
M  V30 15372 C 1474.13 -0.307431 -1.66587 0
M  V30 15373 O 1475.34 -0.479238 -1.73503 0
M  V30 15374 H 1471.71 -0.446973 -0.604747 0
M  V30 15375 H 1473.68 -2.38576 -1.79231 0
M  V30 15376 C 1472.43 -1.3235 -3.21526 0
M  V30 15377 H 1471.75 -2.17926 -3.35184 0
M  V30 15378 H 1473.19 -1.37592 -4.01054 0
M  V30 15379 C 1471.65 -0.0353528 -3.36881 0
M  V30 15380 O 1472.18 0.921676 -3.90983 0
M  V30 15381 N 1470.39 0.0392479 -2.90573 0
M  V30 15382 H 1469.94 -0.740299 -2.46733 0
M  V30 15383 H 1469.89 0.900559 -3.01226 0
M  V30 15384 N 1473.67 0.933891 -1.2695 0
M  V30 15385 C 1474.63 2.0152 -1.0919 0
M  V30 15386 C 1475.63 1.60755 -0.037865 0
M  V30 15387 O 1476.82 1.71904 -0.281917 0
M  V30 15388 C 1473.95 3.34403 -0.66239 0
M  V30 15389 H 1475.14 2.18706 -2.05201 0
M  V30 15390 H 1472.7 1.11385 -1.0965 0
M  V30 15391 H 1473.43 3.22915 0.299388 0
M  V30 15392 H 1473.22 3.65345 -1.42356 0
M  V30 15393 H 1474.71 4.13826 -0.560187 0
M  V30 15394 N 1475.14 1.08871 1.13951 0
M  V30 15395 C 1476.39 0.816198 1.84448 0
M  V30 15396 C 1476.71 -0.660396 1.84114 0
M  V30 15397 O 1477.91 -1.04825 2.50448 0
M  V30 15398 C 1476.37 1.41015 3.31123 0
M  V30 15399 C 1475.98 2.91888 3.39861 0
M  V30 15400 C 1477.72 1.21633 4.06701 0
M  V30 15401 C 1475.63 3.44397 4.80775 0
M  V30 15402 H 1474.56 0.301662 0.691025 0
M  V30 15403 H 1477.21 1.31072 1.28423 0
M  V30 15404 H 1475.59 0.843333 3.86916 0
M  V30 15405 H 1476.76 3.54747 2.94094 0
M  V30 15406 H 1475.08 3.10238 2.77743 0
M  V30 15407 H 1477.68 1.58324 5.10723 0
M  V30 15408 H 1478.02 0.156519 4.16006 0
M  V30 15409 H 1478.55 1.75035 3.57222 0
M  V30 15410 H 1475.29 4.49973 4.7666 0
M  V30 15411 H 1474.81 2.86299 5.27061 0
M  V30 15412 H 1476.49 3.41266 5.49679 0
M  V30 15413 N 1476.62 -1.31073 0.875073 0
M  V30 15414 C 1478.03 -1.78707 0.540422 0
M  V30 15415 C 1478.38 -1.72056 -0.942935 0
M  V30 15416 O 1477.51 -1.29139 -1.73643 0
M  V30 15417 C 1478.1 -3.24491 0.974203 0
M  V30 15418 C 1476.66 -3.70001 0.691127 0
M  V30 15419 C 1475.81 -2.51748 1.16269 0
M  V30 15420 H 1478.76 -1.18083 1.06029 0
M  V30 15421 H 1478.78 -3.79323 0.299003 0
M  V30 15422 H 1478.29 -3.29301 2.05384 0
M  V30 15423 H 1476.39 -3.70688 -0.376937 0
M  V30 15424 H 1476.51 -4.61913 1.27173 0
M  V30 15425 H 1474.87 -2.47954 0.582302 0
M  V30 15426 H 1475.65 -2.59299 2.24986 0
M  V30 15427 N 1478.1 -0.635022 -1.4424 0
M  V30 15428 C 1479.03 0.116972 -2.279 0
M  V30 15429 C 1480.01 0.847505 -1.38766 0
M  V30 15430 O 1481.2 0.8508 -1.68207 0
M  V30 15431 C 1478.32 1.17183 -3.17783 0
M  V30 15432 C 1477.37 0.541389 -4.2305 0
M  V30 15433 S 1478.2 -0.671454 -5.31274 0
M  V30 15434 C 1479.36 0.383317 -6.24725 0
M  V30 15435 H 1479.59 -0.592739 -2.91331 0
M  V30 15436 H 1477.12 -0.423307 -1.48484 0
M  V30 15437 H 1479.08 1.77548 -3.70118 0
M  V30 15438 H 1477.74 1.85375 -2.53564 0
M  V30 15439 H 1476.94 1.33597 -4.85971 0
M  V30 15440 H 1476.54 0.0122707 -3.73998 0
M  V30 15441 H 1478.83 1.25477 -6.65779 0
M  V30 15442 H 1479.77 -0.21041 -7.07787 0
M  V30 15443 H 1480.18 0.710963 -5.60005 0
M  V30 15444 N 1479.58 1.53054 -0.375806 0
M  V30 15445 C 1480.83 2.01003 0.210257 0
M  V30 15446 C 1481.15 1.26451 1.48442 0
M  V30 15447 O 1480.42 0.380687 1.92166 0
M  V30 15448 H 1479 0.74263 0.0806861 0
M  V30 15449 H 1481.66 1.8826 -0.504393 0
M  V30 15450 H 1480.76 3.09123 0.430027 0
M  V30 15451 N 1481.06 0.105248 1.57248 0
M  V30 15452 C 1481.97 -0.864007 2.1811 0
M  V30 15453 C 1482.98 -1.30282 1.15337 0
M  V30 15454 O 1484.16 -1.36864 1.4775 0
M  V30 15455 C 1481.22 -2.1014 2.75757 0
M  V30 15456 C 1480.28 -1.71583 3.9352 0
M  V30 15457 C 1479.52 -2.89424 4.48408 0
M  V30 15458 O 1479.74 -4.04449 4.02215 0
M  V30 15459 O 1478.67 -2.67303 5.39289 0
M  V30 15460 H 1482.5 -0.376131 3.01362 0
M  V30 15461 H 1480.09 -0.119643 1.4892 0
M  V30 15462 H 1481.97 -2.82638 3.1256 0
M  V30 15463 H 1480.64 -2.57961 1.95545 0
M  V30 15464 H 1479.55 -0.962347 3.6151 0
M  V30 15465 H 1480.88 -1.28517 4.75126 0
M  V30 15466 N 1482.53 -1.56697 -0.168486 0
M  V30 15467 C 1483.48 -1.96628 -1.20855 0
M  V30 15468 C 1484.45 -0.830623 -1.4384 0
M  V30 15469 O 1485.64 -1.09097 -1.56533 0
M  V30 15470 C 1482.78 -2.3338 -2.5422 0
M  V30 15471 C 1481.89 -3.60137 -2.3859 0
M  V30 15472 C 1481.02 -3.86088 -3.64842 0
M  V30 15473 C 1480.06 -5.06184 -3.44157 0
M  V30 15474 N 1479.2 -5.28254 -4.62485 0
M  V30 15475 H 1484.04 -2.8529 -0.86102 0
M  V30 15476 H 1481.58 -1.41162 -0.413741 0
M  V30 15477 H 1483.54 -2.52711 -3.31953 0
M  V30 15478 H 1482.17 -1.47825 -2.86963 0
M  V30 15479 H 1481.22 -3.48704 -1.52019 0
M  V30 15480 H 1482.53 -4.48028 -2.19254 0
M  V30 15481 H 1481.68 -4.05802 -4.5101 0
M  V30 15482 H 1480.42 -2.96578 -3.8716 0
M  V30 15483 H 1479.43 -4.86366 -2.56376 0
M  V30 15484 H 1480.65 -5.97228 -3.23258 0
M  V30 15485 H 1478.6 -4.41695 -4.85017 0
M  V30 15486 H 1478.52 -6.10373 -4.46072 0
M  V30 15487 H 1479.78 -5.52448 -5.49928 0
M  V30 15488 N 1484.01 0.437135 -1.51416 0
M  V30 15489 C 1484.96 1.53061 -1.72745 0
M  V30 15490 C 1485.93 1.56045 -0.569149 0
M  V30 15491 O 1487.11 1.73052 -0.803602 0
M  V30 15492 C 1484.25 2.90774 -1.85861 0
M  V30 15493 C 1483.37 2.97318 -3.1341 0
M  V30 15494 C 1482.5 4.26156 -3.1712 0
M  V30 15495 C 1481.54 4.26568 -4.38983 0
M  V30 15496 N 1480.68 5.4693 -4.40241 0
M  V30 15497 H 1485.52 1.34177 -2.66084 0
M  V30 15498 H 1483.06 0.651803 -1.31871 0
M  V30 15499 H 1485.01 3.7068 -1.91447 0
M  V30 15500 H 1483.64 3.08216 -0.959306 0
M  V30 15501 H 1482.7 2.10074 -3.17132 0
M  V30 15502 H 1484.01 2.93485 -4.03321 0
M  V30 15503 H 1483.16 5.14435 -3.21623 0
M  V30 15504 H 1481.9 4.32646 -2.25098 0
M  V30 15505 H 1480.91 3.36681 -4.34656 0
M  V30 15506 H 1482.13 4.21741 -5.3227 0
M  V30 15507 H 1480.08 5.54141 -3.51089 0
M  V30 15508 H 1479.99 5.44977 -5.23962 0
M  V30 15509 H 1481.26 6.37241 -4.48937 0
M  V30 15510 N 1485.49 1.41566 0.692592 0
M  V30 15511 C 1486.77 1.31572 1.44735 0
M  V30 15512 C 1487.15 -0.0553081 2.11028 0
M  V30 15513 O 1486.5 -1.06974 2.01913 0
M  V30 15514 C 1486.71 2.47125 2.46435 0
M  V30 15515 C 1488.05 2.88427 3.11601 0
M  V30 15516 O 1489.08 2.46886 2.5676 0
M  V30 15517 O 1487.94 3.6027 4.10935 0
M  V30 15518 H 1485.03 0.517949 0.644715 0
M  V30 15519 H 1487.58 1.53536 0.722818 0
M  V30 15520 H 1486.35 3.38601 1.96124 0
M  V30 15521 H 1485.97 2.27054 3.26393 0
M  V30 15522 N 1486.97 -0.927146 1.27443 0
M  V30 15523 C 1488.21 -1.67738 1.13982 0
M  V30 15524 C 1488.55 -1.91653 -0.313511 0
M  V30 15525 O 1487.82 -1.50729 -1.22926 0
M  V30 15526 C 1488.11 -3.04357 1.92454 0
M  V30 15527 C 1487.96 -2.8768 3.45775 0
M  V30 15528 C 1489.28 -4.04696 1.72944 0
M  V30 15529 H 1486.4 -0.608749 0.415444 0
M  V30 15530 H 1489.04 -1.07587 1.56605 0
M  V30 15531 H 1487.19 -3.55702 1.56232 0
M  V30 15532 H 1488.86 -2.43449 3.9183 0
M  V30 15533 H 1487.1 -2.23011 3.72087 0
M  V30 15534 H 1487.77 -3.8464 3.95924 0
M  V30 15535 H 1490.25 -3.62364 2.04528 0
M  V30 15536 H 1489.13 -4.98276 2.30243 0
M  V30 15537 H 1489.39 -4.36878 0.677505 0
M  V30 15538 N 1488.45 -1.09474 -1.13372 0
M  V30 15539 C 1489.68 -0.851685 -1.88228 0
M  V30 15540 C 1490.08 0.600707 -1.79411 0
M  V30 15541 O 1489.43 1.42527 -1.15895 0
M  V30 15542 C 1489.49 -1.20874 -3.3857 0
M  V30 15543 C 1489.15 -2.66614 -3.71168 0
M  V30 15544 C 1490.15 -3.64862 -3.70367 0
M  V30 15545 C 1487.84 -3.02748 -4.0081 0
M  V30 15546 C 1489.83 -4.97269 -3.98751 0
M  V30 15547 C 1487.52 -4.35347 -4.28855 0
M  V30 15548 C 1488.51 -5.32417 -4.2781 0
M  V30 15549 O 1488.2 -6.6263 -4.55167 0
M  V30 15550 H 1487.93 -0.306097 -0.602728 0
M  V30 15551 H 1490.49 -1.46038 -1.44437 0
M  V30 15552 H 1488.72 -0.543096 -3.82867 0
M  V30 15553 H 1490.41 -0.944753 -3.94752 0
M  V30 15554 H 1491.17 -3.3829 -3.47541 0
M  V30 15555 H 1487.05 -2.27824 -4.00771 0
M  V30 15556 H 1490.6 -5.73028 -3.9785 0
M  V30 15557 H 1486.49 -4.61661 -4.51153 0
M  V30 15558 H 1487.26 -6.6811 -4.72833 0
M  V30 15559 N 1489.92 1.30607 -0.882012 0
M  V30 15560 C 1490.87 2.2821 -0.344826 0
M  V30 15561 C 1491.84 1.56254 0.563361 0
M  V30 15562 O 1493.03 1.84336 0.492416 0
M  V30 15563 C 1490.17 3.42319 0.437216 0
M  V30 15564 C 1489.28 4.29098 -0.499851 0
M  V30 15565 C 1488.41 5.30366 0.297497 0
M  V30 15566 C 1487.45 6.08795 -0.63523 0
M  V30 15567 N 1486.59 7.01986 0.12661 0
M  V30 15568 H 1491.43 2.73543 -1.18229 0
M  V30 15569 H 1488.97 1.34556 -0.594392 0
M  V30 15570 H 1490.93 4.07232 0.906521 0
M  V30 15571 H 1489.56 2.98063 1.23928 0
M  V30 15572 H 1488.61 3.6452 -1.08764 0
M  V30 15573 H 1489.92 4.83787 -1.21454 0
M  V30 15574 H 1489.07 6.01013 0.828786 0
M  V30 15575 H 1487.81 4.76364 1.04542 0
M  V30 15576 H 1486.82 5.37028 -1.17817 0
M  V30 15577 H 1488.04 6.64885 -1.3822 0
M  V30 15578 H 1485.99 6.50376 0.857125 0
M  V30 15579 H 1485.91 7.5415 -0.528512 0
M  V30 15580 H 1487.17 7.76879 0.638738 0
M  V30 15581 N 1491.4 0.642663 1.43901 0
M  V30 15582 C 1492.37 -0.0457858 2.29154 0
M  V30 15583 C 1493.37 -0.760988 1.41653 0
M  V30 15584 O 1494.56 -0.603832 1.634 0
M  V30 15585 C 1491.69 -1.07552 3.23489 0
M  V30 15586 H 1492.88 0.704193 2.91515 0
M  V30 15587 H 1490.43 0.403361 1.51006 0
M  V30 15588 H 1491.17 -1.85509 2.66002 0
M  V30 15589 H 1490.95 -0.566468 3.87987 0
M  V30 15590 H 1492.44 -1.55663 3.87503 0
M  V30 15591 N 1492.88 -1.52852 0.383918 0
M  V30 15592 C 1494.13 -2.01112 -0.199594 0
M  V30 15593 C 1494.45 -1.27237 -1.47769 0
M  V30 15594 O 1493.72 -0.390873 -1.91961 0
M  V30 15595 H 1492.3 -0.743047 -0.0767466 0
M  V30 15596 H 1494.96 -1.8799 0.51437 0
M  V30 15597 H 1494.06 -3.09347 -0.413627 0
M  V30 15598 N 1494.36 -0.113586 -1.5719 0
M  V30 15599 C 1495.27 0.852428 -2.18565 0
M  V30 15600 C 1496.29 1.29668 -1.16026 0
M  V30 15601 O 1497.46 1.36079 -1.48474 0
M  V30 15602 C 1494.53 2.08675 -2.76867 0
M  V30 15603 C 1493.59 1.69493 -3.94424 0
M  V30 15604 C 1492.82 2.87042 -4.49936 0
M  V30 15605 O 1493.04 4.02311 -4.04354 0
M  V30 15606 O 1491.98 2.64439 -5.40699 0
M  V30 15607 H 1495.8 0.360144 -3.01557 0
M  V30 15608 H 1493.39 0.111744 -1.48982 0
M  V30 15609 H 1495.27 2.80976 -3.14054 0
M  V30 15610 H 1493.95 2.5692 -1.9691 0
M  V30 15611 H 1492.85 0.943161 -3.62016 0
M  V30 15612 H 1494.19 1.25995 -4.758 0
M  V30 15613 N 1495.84 1.56784 0.160173 0
M  V30 15614 C 1496.77 1.93848 1.22293 0
M  V30 15615 C 1497.78 0.832803 1.39886 0
M  V30 15616 O 1498.97 1.11124 1.39692 0
M  V30 15617 C 1496.07 2.18581 2.58989 0
M  V30 15618 C 1495.24 3.49839 2.62548 0
M  V30 15619 C 1494.3 3.63268 3.80687 0
M  V30 15620 O 1493.33 4.35785 3.6617 0
M  V30 15621 N 1494.53 2.98948 4.97605 0
M  V30 15622 H 1497.3 2.85614 0.908004 0
M  V30 15623 H 1494.86 1.58075 0.349851 0
M  V30 15624 H 1496.85 2.24819 3.36509 0
M  V30 15625 H 1495.42 1.33145 2.82827 0
M  V30 15626 H 1494.64 3.5516 1.7104 0
M  V30 15627 H 1495.93 4.3619 2.61945 0
M  V30 15628 H 1495.33 2.39924 5.12302 0
M  V30 15629 H 1493.88 3.10765 5.72947 0
M  V30 15630 N 1497.32 -0.429099 1.51646 0
M  V30 15631 C 1498.56 -1.17958 1.64966 0
M  V30 15632 C 1498.89 -1.90667 0.368755 0
M  V30 15633 O 1498.17 -1.83945 -0.632023 0
M  V30 15634 C 1498.45 -2.19002 2.8585 0
M  V30 15635 C 1498.31 -1.50321 4.23938 0
M  V30 15636 C 1499.62 -3.19895 3.0225 0
M  V30 15637 H 1496.74 -0.427474 0.600362 0
M  V30 15638 H 1499.39 -0.46777 1.84152 0
M  V30 15639 H 1497.54 -2.79707 2.69623 0
M  V30 15640 H 1499.21 -0.928902 4.51851 0
M  V30 15641 H 1497.45 -0.805431 4.26257 0
M  V30 15642 H 1498.12 -2.2395 5.0453 0
M  V30 15643 H 1500.6 -2.69251 3.17243 0
M  V30 15644 H 1499.47 -3.8788 3.88381 0
M  V30 15645 H 1499.73 -3.86477 2.14682 0
M  V30 15646 N 1498.79 -1.41931 -0.685074 0
M  V30 15647 C 1500.02 -1.45229 -1.47364 0
M  V30 15648 C 1500.44 -0.060595 -1.88703 0
M  V30 15649 O 1499.79 0.92244 -1.57472 0
M  V30 15650 C 1499.84 -2.37033 -2.72942 0
M  V30 15651 O 1499.57 -3.70787 -2.33342 0
M  V30 15652 C 1501.07 -2.49244 -3.66596 0
M  V30 15653 H 1498.29 -0.494291 -0.453781 0
M  V30 15654 H 1500.83 -1.86333 -0.84263 0
M  V30 15655 H 1498.99 -1.9921 -3.32256 0
M  V30 15656 H 1499.4 -4.19853 -3.14362 0
M  V30 15657 H 1500.87 -3.17624 -4.51463 0
M  V30 15658 H 1501.35 -1.52703 -4.11799 0
M  V30 15659 H 1501.96 -2.87747 -3.1318 0
M  V30 15660 N 1500.27 0.920374 -1.27933 0
M  V30 15661 C 1501.5 1.70028 -1.17363 0
M  V30 15662 C 1501.91 1.87246 0.271214 0
M  V30 15663 O 1501.25 1.39449 1.19581 0
M  V30 15664 C 1501.31 3.11595 -1.79301 0
M  V30 15665 C 1500.98 3.17687 -3.28518 0
M  V30 15666 C 1501.98 2.99383 -4.25048 0
M  V30 15667 C 1499.66 3.40412 -3.69357 0
M  V30 15668 C 1501.65 3.03704 -5.60395 0
M  V30 15669 C 1499.34 3.44367 -5.04832 0
M  V30 15670 C 1500.34 3.26032 -6.0016 0
M  V30 15671 O 1500.03 3.29735 -7.33164 0
M  V30 15672 H 1499.76 0.538497 -0.408652 0
M  V30 15673 H 1502.31 1.16086 -1.6945 0
M  V30 15674 H 1500.54 3.6705 -1.217 0
M  V30 15675 H 1502.23 3.71584 -1.63341 0
M  V30 15676 H 1503 2.8166 -3.94833 0
M  V30 15677 H 1498.88 3.53731 -2.95627 0
M  V30 15678 H 1502.42 2.89312 -6.34779 0
M  V30 15679 H 1498.32 3.61616 -5.347 0
M  V30 15680 H 1499.09 3.46141 -7.41707 0
M  V30 15681 N 1501.75 1.10074 1.1279 0
M  V30 15682 C 1502.98 0.862906 1.88047 0
M  V30 15683 C 1503.39 -0.586346 1.79464 0
M  V30 15684 O 1502.75 -1.40402 1.16591 0
M  V30 15685 C 1502.8 1.29784 3.37399 0
M  V30 15686 O 1502.52 2.69026 3.4577 0
M  V30 15687 C 1504.02 1.09336 4.29605 0
M  V30 15688 H 1501.24 0.309981 0.595108 0
M  V30 15689 H 1503.79 1.46444 1.42738 0
M  V30 15690 H 1501.94 0.740056 3.80266 0
M  V30 15691 H 1502.36 2.87532 4.38663 0
M  V30 15692 H 1503.83 1.44687 5.327 0
M  V30 15693 H 1504.31 0.031679 4.39189 0
M  V30 15694 H 1504.91 1.63743 3.92516 0
M  V30 15695 N 1503.23 -1.30138 0.888926 0
M  V30 15696 C 1504.47 -1.97776 0.516122 0
M  V30 15697 C 1504.83 -1.68613 -0.918358 0
M  V30 15698 O 1506.03 -2.29617 -1.39748 0
M  V30 15699 C 1504.3 -3.48608 0.787866 0
M  V30 15700 S 1505.86 -4.35735 0.517757 0
M  V30 15701 H 1502.68 -0.684617 0.191885 0
M  V30 15702 H 1505.28 -1.58168 1.14904 0
M  V30 15703 H 1503.99 -3.67326 1.8303 0
M  V30 15704 H 1503.52 -3.93141 0.142652 0
M  V30 15705 H 1505.53 -4.9203 -0.64192 0
M  V30 15706 N 1504.71 -0.650285 -1.43559 0
M  V30 15707 C 1505.67 0.0336325 -2.29175 0
M  V30 15708 C 1506.67 0.753465 -1.42055 0
M  V30 15709 O 1507.86 0.595158 -1.63718 0
M  V30 15710 C 1504.99 1.05835 -3.24055 0
M  V30 15711 H 1506.18 -0.719643 -2.91138 0
M  V30 15712 H 1503.74 -0.411363 -1.5079 0
M  V30 15713 H 1504.47 1.84096 -2.66982 0
M  V30 15714 H 1504.26 0.545884 -3.88281 0
M  V30 15715 H 1505.75 1.53606 -3.88323 0
M  V30 15716 N 1506.18 1.52647 -0.392018 0
M  V30 15717 C 1507.41 2.06032 0.189293 0
M  V30 15718 C 1507.83 1.26351 1.40288 0
M  V30 15719 O 1507.18 0.310877 1.79833 0
M  V30 15720 C 1507.23 3.57187 0.55672 0
M  V30 15721 O 1506.96 4.33851 -0.608657 0
M  V30 15722 C 1508.46 4.26929 1.1936 0
M  V30 15723 H 1505.68 0.670419 0.0279177 0
M  V30 15724 H 1508.22 1.96739 -0.558033 0
M  V30 15725 H 1506.38 3.66545 1.25394 0
M  V30 15726 H 1506.79 5.23606 -0.306039 0
M  V30 15727 H 1508.26 5.33924 1.40104 0
M  V30 15728 H 1508.74 3.82315 2.16175 0
M  V30 15729 H 1509.35 4.21895 0.537069 0
M  V30 15730 N 1507.66 0.121921 1.57128 0
M  V30 15731 C 1508.89 -0.542225 1.99358 0
M  V30 15732 C 1509.3 -1.60578 1.00057 0
M  V30 15733 O 1508.64 -1.83694 -0.0142649 0
M  V30 15734 C 1508.71 -1.22448 3.38004 0
M  V30 15735 C 1508.37 -0.308522 4.55957 0
M  V30 15736 C 1509.37 0.454012 5.17914 0
M  V30 15737 C 1507.05 -0.218741 5.01823 0
M  V30 15738 C 1509.05 1.29403 6.24126 0
M  V30 15739 C 1506.73 0.624906 6.07896 0
M  V30 15740 C 1507.73 1.37992 6.68915 0
M  V30 15741 O 1507.42 2.20955 7.72938 0
M  V30 15742 H 1507.15 -0.147894 0.659624 0
M  V30 15743 H 1509.7 0.205954 2.04365 0
M  V30 15744 H 1507.93 -2.01979 3.2976 0
M  V30 15745 H 1509.62 -1.78583 3.64504 0
M  V30 15746 H 1510.39 0.394539 4.83393 0
M  V30 15747 H 1506.27 -0.796109 4.54074 0
M  V30 15748 H 1509.81 1.88382 6.71683 0
M  V30 15749 H 1505.71 0.685762 6.41847 0
M  V30 15750 H 1506.48 2.13929 7.90049 0
M  V30 15751 N 1509.14 -1.56867 -0.151857 0
M  V30 15752 C 1510.37 -1.86965 -0.879066 0
M  V30 15753 C 1510.78 -0.70756 -1.75471 0
M  V30 15754 O 1510.12 0.331966 -1.80676 0
M  V30 15755 C 1510.18 -3.11712 -1.79098 0
M  V30 15756 C 1509.85 -4.43737 -1.09298 0
M  V30 15757 C 1510.84 -5.17956 -0.449181 0
M  V30 15758 C 1508.53 -4.90465 -1.08394 0
M  V30 15759 C 1510.52 -6.37104 0.194342 0
M  V30 15760 C 1508.21 -6.09538 -0.436597 0
M  V30 15761 C 1509.21 -6.82703 0.201419 0
M  V30 15762 O 1508.9 -7.99515 0.838504 0
M  V30 15763 H 1508.63 -0.624074 -0.259822 0
M  V30 15764 H 1511.18 -2.04845 -0.150844 0
M  V30 15765 H 1509.41 -2.89828 -2.56002 0
M  V30 15766 H 1511.1 -3.28097 -2.38972 0
M  V30 15767 H 1511.87 -4.82926 -0.448012 0
M  V30 15768 H 1507.75 -4.33444 -1.56995 0
M  V30 15769 H 1511.29 -6.9415 0.69293 0
M  V30 15770 H 1507.19 -6.4403 -0.435417 0
M  V30 15771 H 1507.96 -8.15151 0.739688 0
M  V30 15772 N 1510.62 0.421051 -1.51871 0
M  V30 15773 C 1511.57 1.5122 -1.74359 0
M  V30 15774 C 1512.54 1.55432 -0.585667 0
M  V30 15775 O 1513.72 1.7219 -0.821912 0
M  V30 15776 C 1510.86 2.88787 -1.88935 0
M  V30 15777 C 1509.97 2.93977 -3.16546 0
M  V30 15778 C 1509.11 4.22768 -3.21622 0
M  V30 15779 C 1508.15 4.21888 -4.43483 0
M  V30 15780 N 1507.28 5.4223 -4.46017 0
M  V30 15781 H 1512.12 1.31348 -2.67492 0
M  V30 15782 H 1509.66 0.637779 -1.32555 0
M  V30 15783 H 1511.62 3.68629 -1.95368 0
M  V30 15784 H 1510.25 3.07181 -0.991942 0
M  V30 15785 H 1509.3 2.06699 -3.19343 0
M  V30 15786 H 1510.61 2.8919 -4.06412 0
M  V30 15787 H 1509.77 5.10995 -3.27061 0
M  V30 15788 H 1508.51 4.30234 -2.29674 0
M  V30 15789 H 1507.51 3.32052 -4.38202 0
M  V30 15790 H 1508.74 4.16072 -5.36713 0
M  V30 15791 H 1506.68 5.50386 -3.56947 0
M  V30 15792 H 1506.6 5.39389 -5.29713 0
M  V30 15793 H 1507.87 6.32443 -4.55671 0
M  V30 15794 N 1512.1 1.42293 0.677538 0
M  V30 15795 C 1513.03 1.39986 1.8022 0
M  V30 15796 C 1514.01 0.264513 1.60434 0
M  V30 15797 O 1515.19 0.454299 1.82944 0
M  V30 15798 C 1512.32 1.18809 3.17178 0
M  V30 15799 C 1511.36 2.35301 3.55719 0
M  V30 15800 S 1512.2 3.97827 3.5846 0
M  V30 15801 C 1513.35 3.78987 4.98116 0
M  V30 15802 H 1513.59 2.35157 1.81902 0
M  V30 15803 H 1511.12 1.29032 0.847947 0
M  V30 15804 H 1513.08 1.07277 3.96235 0
M  V30 15805 H 1511.74 0.252276 3.13085 0
M  V30 15806 H 1510.93 2.16224 4.55262 0
M  V30 15807 H 1510.53 2.43333 2.84016 0
M  V30 15808 H 1512.83 3.39808 5.8612 0
M  V30 15809 H 1513.77 4.78197 5.22239 0
M  V30 15810 H 1514.18 3.11906 4.70505 0
M  V30 15811 N 1513.57 -0.913576 1.28419 0
M  V30 15812 C 1514.85 -1.64203 1.06285 0
M  V30 15813 C 1515.23 -2.07319 -0.397728 0
M  V30 15814 O 1514.58 -1.8183 -1.38383 0
M  V30 15815 C 1514.79 -2.8334 2.03763 0
M  V30 15816 C 1516.14 -3.54355 2.33918 0
M  V30 15817 O 1517.16 -2.93489 2.01848 0
M  V30 15818 O 1516.02 -4.6405 2.88652 0
M  V30 15819 H 1513.11 -0.720359 0.406217 0
M  V30 15820 H 1515.66 -0.962866 1.39739 0
M  V30 15821 H 1514.43 -2.48575 3.02203 0
M  V30 15822 H 1514.06 -3.5897 1.70956 0
M  V30 15823 N 1515.05 -1.1067 -1.12204 0
M  V30 15824 C 1516.3 -0.84895 -1.83405 0
M  V30 15825 C 1516.62 0.62724 -1.84637 0
M  V30 15826 O 1515.89 1.45546 -1.31123 0
M  V30 15827 H 1514.47 -0.311074 -0.679148 0
M  V30 15828 H 1517.13 -1.39747 -1.35856 0
M  V30 15829 H 1516.23 -1.21398 -2.87522 0
M  V30 15830 N 1516.53 1.29665 -0.895815 0
M  V30 15831 C 1517.49 2.26103 -0.3755 0
M  V30 15832 C 1518.49 1.53212 0.488126 0
M  V30 15833 O 1519.68 1.71706 0.293733 0
M  V30 15834 C 1516.82 3.37732 0.46364 0
M  V30 15835 H 1518.01 2.73643 -1.22718 0
M  V30 15836 H 1515.56 1.4104 -0.673613 0
M  V30 15837 H 1516.3 2.95526 1.33546 0
M  V30 15838 H 1516.08 3.91793 -0.155123 0
M  V30 15839 H 1517.57 4.09488 0.819112 0
M  V30 15840 N 1518.01 0.657889 1.43212 0
M  V30 15841 C 1519.23 0.179444 2.06622 0
M  V30 15842 C 1519.66 -1.14787 1.49015 0
M  V30 15843 O 1519.02 -1.71016 0.60192 0
M  V30 15844 C 1519.06 0.106826 3.60442 0
M  V30 15845 O 1518.17 -0.92962 4.01786 0
M  V30 15846 H 1517.51 0.0970131 0.656875 0
M  V30 15847 H 1520.04 0.902132 1.83638 0
M  V30 15848 H 1520.05 -0.07495 4.07931 0
M  V30 15849 H 1518.72 1.07574 4.01747 0
M  V30 15850 H 1517.3 -0.720255 3.65878 0
M  V30 15851 N 1519.49 -1.52437 0.400108 0
M  V30 15852 C 1520.43 -2.28312 -0.444572 0
M  V30 15853 C 1521.43 -1.32641 -1.0537 0
M  V30 15854 O 1522.63 -1.50136 -0.99293 0
M  V30 15855 H 1519.01 -0.734313 -0.162137 0
M  V30 15856 H 1520.98 -2.97612 0.216702 0
M  V30 15857 C 1519.73 -3.11044 -1.55393 0
M  V30 15858 H 1519.05 -3.84525 -1.09455 0
M  V30 15859 H 1520.49 -3.67255 -2.11896 0
M  V30 15860 C 1518.95 -2.24035 -2.51614 0
M  V30 15861 O 1519.48 -1.87447 -3.55284 0
M  V30 15862 N 1517.69 -1.87982 -2.2161 0
M  V30 15863 H 1517.23 -2.17936 -1.37338 0
M  V30 15864 H 1517.19 -1.30058 -2.86238 0
M  V30 15865 N 1520.96 -0.130252 -1.57061 0
M  V30 15866 C 1522.21 0.525784 -1.95866 0
M  V30 15867 C 1522.54 1.65607 -1.01429 0
M  V30 15868 O 1521.82 1.94426 -0.0535544 0
M  V30 15869 C 1522.1 1.04784 -3.44517 0
M  V30 15870 C 1521.95 -0.0797972 -4.49729 0
M  V30 15871 C 1523.27 1.9351 -3.95275 0
M  V30 15872 H 1520.39 0.189652 -0.71218 0
M  V30 15873 H 1523.03 -0.208091 -1.88857 0
M  V30 15874 H 1521.18 1.67324 -3.50621 0
M  V30 15875 H 1522.86 -0.715535 -4.55717 0
M  V30 15876 H 1521.1 -0.741358 -4.27418 0
M  V30 15877 H 1521.77 0.326915 -5.51031 0
M  V30 15878 H 1524.25 1.40825 -3.91545 0
M  V30 15879 H 1523.12 2.26952 -4.99784 0
M  V30 15880 H 1523.38 2.86583 -3.36634 0
M  V30 15881 N 1522.44 1.56945 0.143535 0
M  V30 15882 C 1523.67 1.87701 0.870401 0
M  V30 15883 C 1524.09 0.718833 1.7458 0
M  V30 15884 O 1523.44 -0.311286 1.79826 0
M  V30 15885 C 1523.49 3.1773 1.72424 0
M  V30 15886 O 1523.22 4.29086 0.884115 0
M  V30 15887 C 1524.72 3.62024 2.55839 0
M  V30 15888 H 1521.94 0.622083 0.251504 0
M  V30 15889 H 1524.48 2.04052 0.135285 0
M  V30 15890 H 1522.64 3.03122 2.41238 0
M  V30 15891 H 1523.05 5.0346 1.47065 0
M  V30 15892 H 1524.52 4.55834 3.11319 0
M  V30 15893 H 1525 2.87481 3.32041 0
M  V30 15894 H 1525.61 3.79338 1.9231 0
M  V30 15895 N 1523.92 -0.412991 1.52093 0
M  V30 15896 C 1525.16 -1.16951 1.67636 0
M  V30 15897 C 1525.53 -1.87875 0.39583 0
M  V30 15898 O 1526.73 -2.65382 0.42732 0
M  V30 15899 C 1525 -2.14052 2.8621 0
M  V30 15900 S 1526.56 -2.97863 3.22215 0
M  V30 15901 H 1523.37 -0.396249 0.590345 0
M  V30 15902 H 1525.98 -0.457386 1.90074 0
M  V30 15903 H 1524.68 -1.60628 3.7766 0
M  V30 15904 H 1524.21 -2.89809 2.66034 0
M  V30 15905 H 1526.23 -4.15961 2.70538 0
M  V30 15906 N 1525.4 -1.4265 -0.669982 0
M  V30 15907 C 1526.65 -1.42667 -1.42579 0
M  V30 15908 C 1526.96 -0.0483217 -1.9554 0
M  V30 15909 O 1528.17 0.0740917 -2.71399 0
M  V30 15910 C 1526.62 -2.5098 -2.57948 0
M  V30 15911 C 1526.23 -3.94844 -2.11666 0
M  V30 15912 C 1527.98 -2.6017 -3.35428 0
M  V30 15913 C 1525.88 -4.94655 -3.24146 0
M  V30 15914 H 1524.81 -0.530651 -0.535654 0
M  V30 15915 H 1527.46 -1.68576 -0.724861 0
M  V30 15916 H 1525.85 -2.18244 -3.30432 0
M  V30 15917 H 1527.02 -4.36958 -1.46303 0
M  V30 15918 H 1525.33 -3.89547 -1.47111 0
M  V30 15919 H 1527.93 -3.31918 -4.19207 0
M  V30 15920 H 1528.27 -1.64683 -3.82342 0
M  V30 15921 H 1528.81 -2.92124 -2.70016 0
M  V30 15922 H 1525.55 -5.91636 -2.82218 0
M  V30 15923 H 1525.07 -4.57168 -3.88275 0
M  V30 15924 H 1526.75 -5.16593 -3.89538 0
M  V30 15925 N 1526.88 0.906753 -1.28902 0
M  V30 15926 C 1527.83 2.03141 -1.13299 0
M  V30 15927 C 1528.82 1.69325 -0.0504114 0
M  V30 15928 O 1530.03 1.78774 -0.209696 0
M  V30 15929 H 1526.4 0.665709 -0.349766 0
M  V30 15930 H 1528.37 2.13441 -2.08531 0
M  V30 15931 C 1527.12 3.37918 -0.818935 0
M  V30 15932 H 1526.44 3.64437 -1.64395 0
M  V30 15933 H 1527.88 4.17318 -0.749753 0
M  V30 15934 C 1526.34 3.33498 0.477582 0
M  V30 15935 O 1526.87 3.7241 1.50578 0
M  V30 15936 N 1525.08 2.86594 0.480862 0
M  V30 15937 H 1524.63 2.55124 -0.356308 0
M  V30 15938 H 1524.58 2.84019 1.34835 0
M  V30 15939 N 1528.36 1.11264 1.11616 0
M  V30 15940 C 1529.58 0.88306 1.87661 0
M  V30 15941 C 1530.01 -0.561586 1.79521 0
M  V30 15942 O 1529.36 -1.3964 1.1563 0
M  V30 15943 C 1529.41 1.34698 3.34498 0
M  V30 15944 O 1528.52 0.517512 4.0914 0
M  V30 15945 H 1527.86 0.318233 0.582772 0
M  V30 15946 H 1530.39 1.48164 1.41098 0
M  V30 15947 H 1530.4 1.34068 3.85344 0
M  V30 15948 H 1529.07 2.39896 3.39739 0
M  V30 15949 H 1527.65 0.589751 3.68207 0
M  V30 15950 N 1529.83 -1.29188 0.902679 0
M  V30 15951 C 1531.25 -1.47924 0.599209 0
M  V30 15952 C 1531.45 -1.82297 -0.858494 0
M  V30 15953 O 1530.51 -1.92123 -1.63845 0
M  V30 15954 C 1531.82 -2.59008 1.52759 0
M  V30 15955 C 1533.37 -2.72882 1.53312 0
M  V30 15956 C 1533.84 -3.87097 2.44785 0
M  V30 15957 N 1535.33 -3.94435 2.42849 0
M  V30 15958 C 1536.07 -4.82165 3.1033 0
M  V30 15959 N 1535.56 -5.74565 3.87101 0
M  V30 15960 N 1537.36 -4.75681 2.99473 0
M  V30 15961 H 1529.51 -1.05154 1.84544 0
M  V30 15962 H 1531.77 -0.522632 0.790924 0
M  V30 15963 H 1531.48 -2.40483 2.56634 0
M  V30 15964 H 1531.35 -3.55873 1.25036 0
M  V30 15965 H 1533.74 -2.90802 0.501804 0
M  V30 15966 H 1533.82 -1.76582 1.85074 0
M  V30 15967 H 1533.46 -3.69932 3.48012 0
M  V30 15968 H 1533.39 -4.82772 2.10331 0
M  V30 15969 H 1535.88 -3.28347 1.87074 0
M  V30 15970 H 1536.2 -6.3831 4.35638 0
M  V30 15971 H 1534.54 -5.74441 3.91207 0
M  V30 15972 H 1537.73 -4.02483 2.39009 0
M  V30 15973 H 1537.91 -5.4384 3.52337 0
M  V30 15974 N 1531.31 -0.665475 -1.42861 0
M  V30 15975 C 1532.56 -0.192802 -2.02484 0
M  V30 15976 C 1532.91 1.18429 -1.51632 0
M  V30 15977 O 1532.21 1.78164 -0.704859 0
M  V30 15978 C 1532.4 -0.156963 -3.57055 0
M  V30 15979 C 1532.23 -1.52904 -4.22907 0
M  V30 15980 C 1531 -2.12449 -4.58469 0
M  V30 15981 C 1533.2 -2.46989 -4.51111 0
M  V30 15982 N 1531.18 -3.42535 -5.09454 0
M  V30 15983 C 1532.55 -3.6172 -5.03546 0
M  V30 15984 C 1534.6 -2.45637 -4.3309 0
M  V30 15985 C 1533.31 -4.75339 -5.39856 0
M  V30 15986 C 1535.33 -3.58346 -4.7047 0
M  V30 15987 C 1534.7 -4.71803 -5.2305 0
M  V30 15988 H 1530.79 -0.115261 -0.773459 0
M  V30 15989 H 1533.38 -0.87644 -1.73858 0
M  V30 15990 H 1531.55 0.496057 -3.85219 0
M  V30 15991 H 1533.28 0.327722 -4.03371 0
M  V30 15992 H 1530.04 -1.65033 -4.43916 0
M  V30 15993 H 1530.46 -4.09135 -5.39386 0
M  V30 15994 H 1535.1 -1.59152 -3.91702 0
M  V30 15995 H 1532.82 -5.62508 -5.80182 0
M  V30 15996 H 1536.41 -3.58516 -4.58211 0
M  V30 15997 H 1535.29 -5.57573 -5.51436 0
M  V30 15998 N 1532.79 1.52222 -0.408187 0
M  V30 15999 C 1534.02 2.06221 0.16743 0
M  V30 16000 C 1534.43 1.27832 1.3894 0
M  V30 16001 O 1533.79 0.329933 1.79493 0
M  V30 16002 C 1533.84 3.57758 0.518804 0
M  V30 16003 O 1533.56 4.33181 -0.654639 0
M  V30 16004 C 1535.06 4.28171 1.14825 0
M  V30 16005 H 1532.28 0.670677 0.0208054 0
M  V30 16006 H 1534.83 1.96136 -0.578868 0
M  V30 16007 H 1532.98 3.67854 1.215 0
M  V30 16008 H 1533.4 5.23252 -0.361558 0
M  V30 16009 H 1534.87 5.3538 1.34433 0
M  V30 16010 H 1535.35 3.84586 2.12108 0
M  V30 16011 H 1535.95 4.22441 0.492291 0
M  V30 16012 N 1534.27 0.138579 1.5699 0
M  V30 16013 C 1535.52 -0.513611 1.95465 0
M  V30 16014 C 1535.84 -1.65952 1.02396 0
M  V30 16015 O 1535.11 -1.9572 0.0839001 0
M  V30 16016 H 1533.69 -0.192729 0.72171 0
M  V30 16017 H 1536.35 0.212107 1.93742 0
M  V30 16018 H 1535.44 -0.895313 2.98983 0
M  V30 16019 N 1535.75 -1.57019 -0.13521 0
M  V30 16020 C 1537.16 -1.51949 -0.48824 0
M  V30 16021 C 1537.36 -0.848955 -1.82743 0
M  V30 16022 O 1536.42 -0.424441 -2.48907 0
M  V30 16023 C 1537.73 -2.96719 -0.487673 0
M  V30 16024 C 1539.28 -3.07722 -0.572365 0
M  V30 16025 C 1539.75 -4.54022 -0.602347 0
M  V30 16026 N 1541.24 -4.58413 -0.664242 0
M  V30 16027 C 1541.98 -5.69005 -0.70862 0
M  V30 16028 N 1541.48 -6.89135 -0.711626 0
M  V30 16029 N 1543.27 -5.57069 -0.750399 0
M  V30 16030 H 1535.42 -1.99001 0.742465 0
M  V30 16031 H 1537.68 -0.908116 0.272083 0
M  V30 16032 H 1537.39 -3.49082 0.428363 0
M  V30 16033 H 1537.26 -3.53299 -1.32136 0
M  V30 16034 H 1539.65 -2.55372 -1.47882 0
M  V30 16035 H 1539.73 -2.54166 0.288696 0
M  V30 16036 H 1539.37 -5.07013 0.3 0
M  V30 16037 H 1539.3 -5.05373 -1.48006 0
M  V30 16038 H 1541.8 -3.71936 -0.668739 0
M  V30 16039 H 1542.11 -7.69175 -0.747663 0
M  V30 16040 H 1540.45 -6.91672 -0.679311 0
M  V30 16041 H 1543.64 -4.62129 -0.745301 0
M  V30 16042 H 1543.82 -6.4327 -0.781518 0
M  V30 16043 N 1537.22 0.404919 -1.52309 0
M  V30 16044 C 1538.64 0.983553 -1.58692 0
M  V30 16045 C 1538.99 1.9143 -0.429993 0
M  V30 16046 O 1538.11 2.11689 0.449088 0
M  V30 16047 C 1538.71 1.79059 -2.87617 0
M  V30 16048 C 1537.27 2.31918 -2.96464 0
M  V30 16049 C 1536.41 1.12018 -2.53667 0
M  V30 16050 H 1539.36 0.185007 -1.57618 0
M  V30 16051 H 1539.38 2.64836 -2.73207 0
M  V30 16052 H 1538.9 1.11291 -3.71801 0
M  V30 16053 H 1537 3.03044 -2.16783 0
M  V30 16054 H 1537.11 2.62495 -4.00791 0
M  V30 16055 H 1535.47 1.47542 -2.07614 0
M  V30 16056 H 1536.26 0.458111 -3.4023 0
M  V30 16057 N 1538.7 1.43003 0.662408 0
M  V30 16058 C 1539.93 1.47555 1.45035 0
M  V30 16059 C 1540.35 0.0906083 1.88582 0
M  V30 16060 O 1539.7 -0.897271 1.58919 0
M  V30 16061 C 1539.75 2.41345 2.69137 0
M  V30 16062 O 1539.47 3.74453 2.27413 0
M  V30 16063 C 1540.98 2.55045 3.62584 0
M  V30 16064 H 1538.2 0.501448 0.44586 0
M  V30 16065 H 1540.74 1.8765 0.812879 0
M  V30 16066 H 1538.89 2.0447 3.29045 0
M  V30 16067 H 1539.31 4.24801 3.07643 0
M  V30 16068 H 1540.78 3.24766 4.46353 0
M  V30 16069 H 1541.26 1.59235 4.09318 0
M  V30 16070 H 1541.87 2.92693 3.08563 0
M  V30 16071 N 1540.18 -0.899904 1.29381 0
M  V30 16072 C 1541.42 -1.66468 1.18608 0
M  V30 16073 C 1541.78 -1.90255 -0.258287 0
M  V30 16074 O 1542.99 -2.64315 -0.488987 0
M  V30 16075 C 1541.26 -2.97758 1.97674 0
M  V30 16076 S 1542.82 -3.88794 2.03433 0
M  V30 16077 H 1539.63 -0.571533 0.422931 0
M  V30 16078 H 1542.24 -1.06931 1.63664 0
M  V30 16079 H 1540.94 -2.78158 3.01755 0
M  V30 16080 H 1540.47 -3.62335 1.53221 0
M  V30 16081 H 1542.49 -4.82669 1.15086 0
M  V30 16082 N 1541.66 -1.11854 -1.11024 0
M  V30 16083 C 1543.07 -0.853341 -1.34871 0
M  V30 16084 C 1543.27 0.519725 -1.94682 0
M  V30 16085 O 1542.33 1.26966 -2.18256 0
M  V30 16086 C 1543.64 -1.9649 -2.27623 0
M  V30 16087 C 1545.19 -1.99507 -2.41176 0
M  V30 16088 C 1545.67 -3.09879 -3.37253 0
M  V30 16089 N 1547.16 -3.09281 -3.44818 0
M  V30 16090 C 1547.89 -3.91322 -4.19111 0
M  V30 16091 N 1547.39 -4.83337 -4.96344 0
M  V30 16092 N 1549.18 -3.79483 -4.14667 0
M  V30 16093 H 1541.33 -2.00335 -0.70567 0
M  V30 16094 H 1543.6 -0.871431 -0.373245 0
M  V30 16095 H 1543.3 -2.95397 -1.90875 0
M  V30 16096 H 1543.18 -1.86481 -3.27879 0
M  V30 16097 H 1545.56 -1.01223 -2.77196 0
M  V30 16098 H 1545.64 -2.13592 -1.40756 0
M  V30 16099 H 1545.29 -4.08391 -3.01959 0
M  V30 16100 H 1545.22 -2.93033 -4.37537 0
M  V30 16101 H 1547.71 -2.42617 -2.89733 0
M  V30 16102 H 1548.02 -5.42462 -5.50413 0
M  V30 16103 H 1546.37 -4.87356 -4.95489 0
M  V30 16104 H 1549.56 -3.06938 -3.53421 0
M  V30 16105 H 1549.73 -4.43653 -4.72309 0
M  V30 16106 N 1543.14 1.28707 -0.909517 0
M  V30 16107 C 1544.41 1.90124 -0.459585 0
M  V30 16108 C 1544.79 1.82477 1.06139 0
M  V30 16109 O 1544.14 1.25792 1.90758 0
M  V30 16110 C 1544.35 3.34806 -0.985188 0
M  V30 16111 C 1545.7 4.11799 -1.03475 0
M  V30 16112 O 1546.72 3.43749 -0.933536 0
M  V30 16113 O 1545.58 5.33426 -1.18825 0
M  V30 16114 H 1542.68 0.814199 -0.144948 0
M  V30 16115 H 1545.22 1.37104 -1.00002 0
M  V30 16116 H 1543.99 3.34575 -2.02917 0
M  V30 16117 H 1543.62 3.95318 -0.425329 0
M  V30 16118 N 1544.61 0.673042 1.42506 0
M  V30 16119 C 1545.84 0.202922 2.05902 0
M  V30 16120 C 1546.26 -1.13923 1.50556 0
M  V30 16121 O 1545.61 -1.70735 0.644662 0
M  V30 16122 C 1545.67 0.12735 3.61276 0
M  V30 16123 O 1545.39 1.41646 4.1457 0
M  V30 16124 C 1546.89 -0.366477 4.41783 0
M  V30 16125 H 1544.11 0.0991021 0.663641 0
M  V30 16126 H 1546.65 0.919282 1.82673 0
M  V30 16127 H 1544.81 -0.539687 3.83622 0
M  V30 16128 H 1545.22 1.28866 5.08423 0
M  V30 16129 H 1546.69 -0.368267 5.5077 0
M  V30 16130 H 1547.17 -1.40142 4.16241 0
M  V30 16131 H 1547.78 0.268761 4.2445 0
M  V30 16132 N 1546.09 -1.52004 0.416254 0
M  V30 16133 C 1547.32 -2.0679 -0.158937 0
M  V30 16134 C 1547.74 -1.28366 -1.37491 0
M  V30 16135 O 1547.1 -0.315815 -1.78528 0
M  V30 16136 C 1547.15 -3.57381 -0.480717 0
M  V30 16137 O 1546.25 -3.81321 -1.5706 0
M  V30 16138 H 1545.59 -0.663907 -0.0110938 0
M  V30 16139 H 1548.12 -1.95863 0.591509 0
M  V30 16140 H 1548.13 -4.01283 -0.737297 0
M  V30 16141 H 1546.81 -4.13893 0.408137 0
M  V30 16142 H 1545.39 -3.49296 -1.30563 0
M  V30 16143 N 1547.57 -0.146903 -1.56914 0
M  V30 16144 C 1548.81 0.506985 -1.98013 0
M  V30 16145 C 1549.17 1.62043 -1.02985 0
M  V30 16146 O 1550.38 2.33517 -1.33128 0
M  V30 16147 C 1548.65 1.00023 -3.43118 0
M  V30 16148 S 1550.21 1.65873 -4.06241 0
M  V30 16149 H 1547.02 0.163927 -0.691845 0
M  V30 16150 H 1549.63 -0.238594 -1.94039 0
M  V30 16151 H 1548.33 0.179091 -4.10009 0
M  V30 16152 H 1547.86 1.78043 -3.50805 0
M  V30 16153 H 1549.88 2.94595 -3.99285 0
M  V30 16154 N 1549.05 1.57088 0.126881 0
M  V30 16155 C 1550.29 1.84709 0.837287 0
M  V30 16156 C 1550.63 0.731496 1.79897 0
M  V30 16157 O 1549.9 -0.263319 1.92709 0
M  V30 16158 C 1550.19 3.22893 1.59412 0
M  V30 16159 C 1550.04 4.45041 0.652578 0
M  V30 16160 C 1551.36 3.58547 2.5521 0
M  V30 16161 H 1548.48 0.671862 0.302937 0
M  V30 16162 H 1551.12 1.89727 0.101783 0
M  V30 16163 H 1549.27 3.18746 2.22112 0
M  V30 16164 H 1550.94 4.61287 0.0350382 0
M  V30 16165 H 1549.18 4.33785 -0.0364578 0
M  V30 16166 H 1549.85 5.38381 1.21861 0
M  V30 16167 H 1552.33 3.63434 2.0262 0
M  V30 16168 H 1551.21 4.56227 3.05202 0
M  V30 16169 H 1551.47 2.85552 3.37509 0
M  V30 16170 N 1550.53 -0.396836 1.52522 0
M  V30 16171 C 1551.47 -1.50474 1.77371 0
M  V30 16172 C 1552.47 -1.56792 0.641307 0
M  V30 16173 O 1553.67 -1.60052 0.823621 0
M  V30 16174 H 1550.05 -0.500667 0.561103 0
M  V30 16175 H 1552.02 -1.26706 2.70163 0
M  V30 16176 C 1550.77 -2.87702 1.95251 0
M  V30 16177 H 1550.09 -2.83588 2.81812 0
M  V30 16178 H 1551.53 -3.64482 2.16631 0
M  V30 16179 C 1549.99 -3.29053 0.722904 0
M  V30 16180 O 1550.52 -4.01567 -0.103398 0
M  V30 16181 N 1548.73 -2.85246 0.555263 0
M  V30 16182 H 1548.27 -2.26403 1.22879 0
M  V30 16183 H 1548.23 -3.13272 -0.266113 0
M  V30 16184 N 1552.01 -1.43353 -0.654814 0
M  V30 16185 C 1553.42 -1.39933 -1.23595 0
M  V30 16186 C 1553.77 -0.102592 -1.95932 0
M  V30 16187 O 1552.89 0.798021 -2.01148 0
M  V30 16188 C 1553.49 -2.53483 -2.24793 0
M  V30 16189 C 1552.05 -2.53333 -2.78387 0
M  V30 16190 C 1551.19 -2.31268 -1.53005 0
M  V30 16191 H 1554.14 -1.52277 -0.446932 0
M  V30 16192 H 1554.17 -2.2488 -3.06935 0
M  V30 16193 H 1553.68 -3.47847 -1.72116 0
M  V30 16194 H 1551.78 -1.62844 -3.35131 0
M  V30 16195 H 1551.89 -3.51047 -3.26041 0
M  V30 16196 H 1550.26 -1.79905 -1.80295 0
M  V30 16197 H 1551.04 -3.27714 -1.02266 0
M  V30 16198 N 1553.48 0.89303 -1.29857 0
M  V30 16199 C 1554.89 1.45948 -1.16431 0
M  V30 16200 C 1555.25 1.94751 0.238051 0
M  V30 16201 O 1554.37 1.84302 1.1341 0
M  V30 16202 C 1554.97 2.6527 -2.10754 0
M  V30 16203 C 1553.52 3.1803 -2.0133 0
M  V30 16204 C 1552.67 1.90721 -2.01297 0
M  V30 16205 H 1555.62 0.70373 -1.42244 0
M  V30 16206 H 1555.64 3.41223 -1.68366 0
M  V30 16207 H 1555.16 2.2972 -3.1281 0
M  V30 16208 H 1553.26 3.58257 -1.02386 0
M  V30 16209 H 1553.37 3.81876 -2.89323 0
M  V30 16210 H 1551.73 2.0871 -1.45987 0
M  V30 16211 H 1552.52 1.5744 -3.0507 0
M  V30 16212 N 1554.96 1.12442 1.10429 0
M  V30 16213 C 1556.19 0.902599 1.86174 0
M  V30 16214 C 1556.6 -0.548147 1.80668 0
M  V30 16215 O 1555.96 -1.37898 1.19543 0
M  V30 16216 C 1556.01 1.36912 3.34571 0
M  V30 16217 O 1555.73 2.763 3.39985 0
M  V30 16218 C 1557.23 1.18424 4.27189 0
M  V30 16219 H 1554.45 0.322534 0.588399 0
M  V30 16220 H 1557 1.49439 1.396 0
M  V30 16221 H 1555.15 0.82055 3.7861 0
M  V30 16222 H 1555.57 2.96772 4.32466 0
M  V30 16223 H 1557.04 1.55954 5.29511 0
M  V30 16224 H 1557.52 0.12483 4.39023 0
M  V30 16225 H 1558.12 1.72032 3.88954 0
M  V30 16226 N 1556.44 -1.28223 0.91633 0
M  V30 16227 C 1557.69 -1.95153 0.551639 0
M  V30 16228 C 1558.02 -1.71938 -0.902829 0
M  V30 16229 O 1557.29 -1.04184 -1.64243 0
M  V30 16230 C 1557.58 -3.49565 0.864647 0
M  V30 16231 C 1557.43 -3.82171 2.37203 0
M  V30 16232 C 1558.75 -4.38604 0.362593 0
M  V30 16233 H 1555.87 -0.708808 0.20189 0
M  V30 16234 H 1558.51 -1.51545 1.14604 0
M  V30 16235 H 1556.66 -3.8684 0.358782 0
M  V30 16236 H 1558.33 -3.54751 2.94872 0
M  V30 16237 H 1556.57 -3.29124 2.82595 0
M  V30 16238 H 1557.25 -4.90007 2.54159 0
M  V30 16239 H 1559.72 -4.08416 0.795983 0
M  V30 16240 H 1558.6 -5.45493 0.61066 0
M  V30 16241 H 1558.86 -4.35911 -0.737137 0
M  V30 16242 N 1557.92 -0.68059 -1.42147 0
M  V30 16243 C 1558.85 0.0331442 -2.29176 0
M  V30 16244 C 1559.86 0.759652 -1.4399 0
M  V30 16245 O 1561.05 0.612846 -1.6765 0
M  V30 16246 C 1558.15 1.07077 -3.2154 0
M  V30 16247 C 1557.32 0.416914 -4.35409 0
M  V30 16248 C 1556.38 1.3551 -5.08452 0
M  V30 16249 O 1555.41 0.853198 -5.62769 0
M  V30 16250 N 1556.61 2.68815 -5.14508 0
M  V30 16251 H 1559.38 -0.713963 -2.91072 0
M  V30 16252 H 1556.94 -0.525451 -1.53136 0
M  V30 16253 H 1558.93 1.6998 -3.67272 0
M  V30 16254 H 1557.5 1.71955 -2.61056 0
M  V30 16255 H 1556.72 -0.391734 -3.92249 0
M  V30 16256 H 1558.01 -0.0383564 -5.08786 0
M  V30 16257 H 1557.41 3.12125 -4.71799 0
M  V30 16258 H 1555.96 3.26951 -5.63867 0
M  V30 16259 N 1559.4 1.51781 -0.424309 0
M  V30 16260 C 1560.34 2.2899 0.408193 0
M  V30 16261 C 1561.34 1.34301 1.03246 0
M  V30 16262 O 1562.54 1.51697 0.968919 0
M  V30 16263 H 1558.92 0.736799 0.150435 0
M  V30 16264 H 1560.89 2.9723 -0.264022 0
M  V30 16265 C 1559.64 3.13477 1.50425 0
M  V30 16266 H 1558.96 3.86218 1.03324 0
M  V30 16267 H 1560.4 3.7058 2.06026 0
M  V30 16268 C 1558.86 2.2801 2.48018 0
M  V30 16269 O 1559.39 1.93076 3.52257 0
M  V30 16270 N 1557.6 1.91484 2.18591 0
M  V30 16271 H 1557.14 2.20093 1.33854 0
M  V30 16272 H 1557.1 1.34595 2.84133 0
M  V30 16273 N 1560.87 0.155222 1.56834 0
M  V30 16274 C 1561.84 -0.767266 2.15976 0
M  V30 16275 C 1562.84 -1.16946 1.10364 0
M  V30 16276 O 1564.03 -1.08905 1.35961 0
M  V30 16277 C 1561.16 -2.04226 2.72956 0
M  V30 16278 H 1562.35 -0.252662 2.98834 0
M  V30 16279 H 1559.9 -0.0942677 1.56015 0
M  V30 16280 H 1560.64 -2.60033 1.93787 0
M  V30 16281 H 1560.42 -1.76299 3.5023 0
M  V30 16282 H 1561.91 -2.70093 3.18495 0
M  V30 16283 N 1562.35 -1.57153 -0.118549 0
M  V30 16284 C 1563.58 -1.88788 -0.83921 0
M  V30 16285 C 1563.99 -0.744621 -1.73931 0
M  V30 16286 O 1563.33 0.293567 -1.81339 0
M  V30 16287 C 1563.39 -3.15441 -1.72446 0
M  V30 16288 C 1563.06 -4.45956 -0.998613 0
M  V30 16289 C 1564.06 -5.18792 -0.339214 0
M  V30 16290 C 1561.74 -4.92654 -0.979657 0
M  V30 16291 C 1563.73 -6.36548 0.329438 0
M  V30 16292 C 1561.42 -6.10327 -0.307207 0
M  V30 16293 C 1562.42 -6.82122 0.346185 0
M  V30 16294 O 1562.11 -7.97557 1.0079 0
M  V30 16295 H 1561.84 -0.629445 -0.246526 0
M  V30 16296 H 1564.39 -2.05119 -0.10736 0
M  V30 16297 H 1562.62 -2.95193 -2.49796 0
M  V30 16298 H 1564.31 -3.33092 -2.31958 0
M  V30 16299 H 1565.08 -4.83768 -0.345475 0
M  V30 16300 H 1560.96 -4.36676 -1.47766 0
M  V30 16301 H 1564.5 -6.92524 0.840013 0
M  V30 16302 H 1560.4 -6.44808 -0.29871 0
M  V30 16303 H 1561.17 -8.13398 0.912427 0
M  V30 16304 N 1563.83 0.388742 -1.5273 0
M  V30 16305 C 1565.08 1.13094 -1.67011 0
M  V30 16306 C 1565.39 1.91115 -0.416467 0
M  V30 16307 O 1566.6 2.67921 -0.43941 0
M  V30 16308 C 1565.05 2.0595 -2.95149 0
M  V30 16309 C 1564.66 1.3335 -4.27694 0
M  V30 16310 C 1566.41 2.80303 -3.18795 0
M  V30 16311 C 1564.31 2.24973 -5.46938 0
M  V30 16312 H 1563.24 0.425887 -0.622203 0
M  V30 16313 H 1565.89 0.393708 -1.79227 0
M  V30 16314 H 1564.28 2.83309 -2.7668 0
M  V30 16315 H 1565.45 0.612137 -4.56716 0
M  V30 16316 H 1563.76 0.709547 -4.1031 0
M  V30 16317 H 1566.36 3.49036 -4.05065 0
M  V30 16318 H 1566.7 3.44394 -2.33877 0
M  V30 16319 H 1567.24 2.10036 -3.37831 0
M  V30 16320 H 1563.98 1.65497 -6.34264 0
M  V30 16321 H 1563.5 2.95024 -5.22227 0
M  V30 16322 H 1565.18 2.8505 -5.80823 0
M  V30 16323 N 1565.31 1.43698 0.647203 0
M  V30 16324 C 1566.55 1.45849 1.40911 0
M  V30 16325 C 1566.89 0.0846767 1.94015 0
M  V30 16326 O 1566.16 -0.89537 1.72665 0
M  V30 16327 C 1566.44 2.50579 2.58616 0
M  V30 16328 C 1566.3 3.97258 2.10965 0
M  V30 16329 C 1567.62 2.51981 3.60824 0
M  V30 16330 H 1564.74 0.531056 0.511027 0
M  V30 16331 H 1567.38 1.75283 0.733204 0
M  V30 16332 H 1565.53 2.25611 3.16278 0
M  V30 16333 H 1567.2 4.33304 1.58257 0
M  V30 16334 H 1565.44 4.09802 1.42284 0
M  V30 16335 H 1566.11 4.6616 2.95633 0
M  V30 16336 H 1568.59 2.7425 3.12932 0
M  V30 16337 H 1567.47 3.27191 4.40723 0
M  V30 16338 H 1567.73 1.55582 4.1382 0
M  V30 16339 N 1566.79 -0.886131 1.30328 0
M  V30 16340 C 1568.01 -1.67625 1.22134 0
M  V30 16341 C 1568.44 -1.86893 -0.212712 0
M  V30 16342 O 1567.79 -1.39905 -1.1531 0
M  V30 16343 C 1567.84 -3.03068 1.95402 0
M  V30 16344 O 1566.95 -3.92022 1.28032 0
M  V30 16345 H 1566.29 -0.512246 0.422493 0
M  V30 16346 H 1568.82 -1.10602 1.72129 0
M  V30 16347 H 1568.83 -3.53119 2.04379 0
M  V30 16348 H 1567.5 -2.88363 2.99699 0
M  V30 16349 H 1566.08 -3.50461 1.27402 0
M  V30 16350 N 1568.26 -1.13026 -1.09832 0
M  V30 16351 C 1569.68 -0.867598 -1.33959 0
M  V30 16352 C 1569.88 0.499047 -1.95222 0
M  V30 16353 O 1568.94 1.24644 -2.19591 0
M  V30 16354 C 1570.25 -1.98893 -2.25526 0
M  V30 16355 C 1571.8 -2.02054 -2.39047 0
M  V30 16356 C 1572.27 -3.13438 -3.33947 0
M  V30 16357 N 1573.76 -3.12921 -3.41518 0
M  V30 16358 C 1574.5 -3.95746 -4.14937 0
M  V30 16359 N 1573.99 -4.88574 -4.91189 0
M  V30 16360 N 1575.79 -3.8386 -4.10619 0
M  V30 16361 H 1567.94 -2.01072 -0.684382 0
M  V30 16362 H 1570.2 -0.875341 -0.363982 0
M  V30 16363 H 1569.91 -2.97405 -1.87731 0
M  V30 16364 H 1569.78 -1.89948 -3.25883 0
M  V30 16365 H 1572.17 -1.04158 -2.76107 0
M  V30 16366 H 1572.25 -2.15072 -1.38483 0
M  V30 16367 H 1571.89 -4.11571 -2.9761 0
M  V30 16368 H 1571.82 -2.97658 -4.34405 0
M  V30 16369 H 1574.31 -2.45677 -2.87144 0
M  V30 16370 H 1574.63 -5.48269 -5.44629 0
M  V30 16371 H 1572.97 -4.92583 -4.90292 0
M  V30 16372 H 1576.16 -3.10669 -3.50146 0
M  V30 16373 H 1576.34 -4.48637 -4.67577 0
M  V30 16374 N 1569.74 1.27735 -0.923117 0
M  V30 16375 C 1570.67 2.26095 -0.375982 0
M  V30 16376 C 1571.69 1.55227 0.490763 0
M  V30 16377 O 1572.88 1.7589 0.304127 0
M  V30 16378 C 1569.98 3.35479 0.480342 0
M  V30 16379 C 1569.15 4.35866 -0.36605 0
M  V30 16380 C 1568.21 5.24466 0.42688 0
M  V30 16381 O 1567.23 5.68964 -0.163825 0
M  V30 16382 N 1568.44 5.54192 1.72777 0
M  V30 16383 H 1571.2 2.73679 -1.22147 0
M  V30 16384 H 1568.76 1.41314 -0.790056 0
M  V30 16385 H 1570.75 3.91693 1.01776 0
M  V30 16386 H 1569.32 2.87531 1.22657 0
M  V30 16387 H 1568.54 3.7898 -1.08479 0
M  V30 16388 H 1569.83 4.9995 -0.944849 0
M  V30 16389 H 1569.23 5.19888 2.23008 0
M  V30 16390 H 1567.79 6.13125 2.21181 0
M  V30 16391 N 1571.22 0.688118 1.41784 0
M  V30 16392 C 1572.15 -0.0323076 2.28177 0
M  V30 16393 C 1573.13 -0.795419 1.41816 0
M  V30 16394 O 1574.32 -0.787785 1.71249 0
M  V30 16395 C 1571.44 -1.05308 3.21913 0
M  V30 16396 C 1570.49 -0.384003 4.24768 0
M  V30 16397 S 1571.32 0.86817 5.28416 0
M  V30 16398 C 1572.48 -0.151191 6.25717 0
M  V30 16399 H 1572.71 0.700456 2.88931 0
M  V30 16400 H 1570.24 0.478125 1.46811 0
M  V30 16401 H 1572.2 -1.63689 3.76452 0
M  V30 16402 H 1570.86 -1.75837 2.6027 0
M  V30 16403 H 1570.06 -1.15469 4.90594 0
M  V30 16404 H 1569.66 0.126545 3.73786 0
M  V30 16405 H 1571.95 -1.0068 6.69977 0
M  V30 16406 H 1572.89 0.472955 7.06519 0
M  V30 16407 H 1573.3 -0.502631 5.62258 0
M  V30 16408 N 1572.7 -1.51554 0.432352 0
M  V30 16409 C 1573.92 -2.06947 -0.136995 0
M  V30 16410 C 1574.35 -1.29817 -1.36122 0
M  V30 16411 O 1573.71 -0.334733 -1.78183 0
M  V30 16412 C 1573.75 -3.57871 -0.442785 0
M  V30 16413 O 1572.86 -3.82966 -1.53007 0
M  V30 16414 H 1572.2 -0.663988 -0.00405152 0
M  V30 16415 H 1574.73 -1.95225 0.612249 0
M  V30 16416 H 1574.74 -4.02042 -0.694694 0
M  V30 16417 H 1573.41 -4.13436 0.452013 0
M  V30 16418 H 1571.99 -3.50661 -1.26851 0
M  V30 16419 N 1574.18 -0.163538 -1.56749 0
M  V30 16420 C 1575.12 0.769787 -2.17584 0
M  V30 16421 C 1576.09 1.23246 -1.11354 0
M  V30 16422 O 1577.28 1.30203 -1.3947 0
M  V30 16423 C 1574.42 1.99685 -2.81461 0
M  V30 16424 C 1573.53 1.57846 -4.0213 0
M  V30 16425 C 1572.67 2.75858 -4.53955 0
M  V30 16426 C 1571.71 2.30473 -5.67053 0
M  V30 16427 N 1570.84 3.41551 -6.13423 0
M  V30 16428 H 1575.68 0.244221 -2.96998 0
M  V30 16429 H 1573.22 0.108821 -1.46697 0
M  V30 16430 H 1575.18 2.71643 -3.16648 0
M  V30 16431 H 1573.81 2.49624 -2.04664 0
M  V30 16432 H 1572.86 0.755907 -3.72814 0
M  V30 16433 H 1574.17 1.20525 -4.8402 0
M  V30 16434 H 1573.33 3.55984 -4.91284 0
M  V30 16435 H 1572.06 3.16434 -3.71107 0
M  V30 16436 H 1571.07 1.48791 -5.29284 0
M  V30 16437 H 1572.29 1.90964 -6.51698 0
M  V30 16438 H 1570.24 3.81717 -5.33506 0
M  V30 16439 H 1570.16 3.08298 -6.90281 0
M  V30 16440 H 1571.43 4.21985 -6.554 0
M  V30 16441 N 1575.65 1.57214 0.110213 0
M  V30 16442 C 1576.88 1.8923 0.829187 0
M  V30 16443 C 1577.29 0.753834 1.73534 0
M  V30 16444 O 1576.64 -0.283946 1.81492 0
M  V30 16445 C 1576.7 3.16351 1.7077 0
M  V30 16446 C 1576.36 4.46479 0.974949 0
M  V30 16447 C 1577.36 5.18965 0.311696 0
M  V30 16448 C 1575.04 4.93167 0.953516 0
M  V30 16449 C 1577.04 6.36364 -0.363191 0
M  V30 16450 C 1574.72 6.10482 0.274836 0
M  V30 16451 C 1575.72 6.81929 -0.382355 0
M  V30 16452 O 1575.41 7.97011 -1.05019 0
M  V30 16453 H 1575.14 0.630744 0.243184 0
M  V30 16454 H 1577.7 2.05173 0.09648 0
M  V30 16455 H 1575.93 2.96513 2.48227 0
M  V30 16456 H 1577.62 3.34317 2.30189 0
M  V30 16457 H 1578.38 4.83944 0.319815 0
M  V30 16458 H 1574.26 4.37454 1.45448 0
M  V30 16459 H 1577.8 6.92069 -0.876728 0
M  V30 16460 H 1573.7 6.44958 0.26451 0
M  V30 16461 H 1574.47 8.12903 -0.95555 0
M  V30 16462 N 1577.13 -0.380637 1.52934 0
M  V30 16463 C 1578.54 -0.958182 1.60237 0
M  V30 16464 C 1578.89 -1.90722 0.460393 0
M  V30 16465 O 1578.02 -2.12376 -0.415354 0
M  V30 16466 C 1578.61 -1.7446 2.90429 0
M  V30 16467 C 1577.17 -2.27172 3.00116 0
M  V30 16468 C 1576.32 -1.07969 2.55417 0
M  V30 16469 H 1579.27 -0.159908 1.57892 0
M  V30 16470 H 1579.29 -2.60456 2.77385 0
M  V30 16471 H 1578.8 -1.05362 3.73524 0
M  V30 16472 H 1576.91 -2.99557 2.21577 0
M  V30 16473 H 1577.02 -2.56086 4.04916 0
M  V30 16474 H 1575.38 -1.4422 2.09935 0
M  V30 16475 H 1576.17 -0.403925 3.40915 0
M  V30 16476 N 1578.61 -1.44039 -0.639573 0
M  V30 16477 C 1579.84 -1.50063 -1.43164 0
M  V30 16478 C 1580.26 -0.123906 -1.87691 0
M  V30 16479 O 1579.62 0.885192 -1.58221 0
M  V30 16480 C 1579.67 -2.46305 -2.63375 0
M  V30 16481 O 1578.77 -1.95874 -3.62915 0
M  V30 16482 H 1578.11 -0.507052 -0.428713 0
M  V30 16483 H 1580.64 -1.8909 -0.781415 0
M  V30 16484 H 1580.65 -2.64062 -3.11023 0
M  V30 16485 H 1579.33 -3.46309 -2.3031 0
M  V30 16486 H 1577.9 -1.87844 -3.22132 0
M  V30 16487 N 1580.09 0.879207 -1.30796 0
M  V30 16488 C 1581.34 1.62828 -1.19715 0
M  V30 16489 C 1581.66 1.93429 0.247031 0
M  V30 16490 O 1580.93 1.57478 1.16522 0
M  V30 16491 H 1579.51 0.603607 -0.440077 0
M  V30 16492 H 1582.17 1.05309 -1.64 0
M  V30 16493 H 1581.27 2.57591 -1.76219 0
M  V30 16494 N 1581.57 1.13606 1.09231 0
M  V30 16495 C 1582.48 0.828702 2.19476 0
M  V30 16496 C 1583.49 -0.187499 1.72987 0
M  V30 16497 O 1584.67 -0.0180602 2.01392 0
M  V30 16498 C 1581.73 0.301361 3.45388 0
M  V30 16499 C 1580.8 1.37906 4.06547 0
M  V30 16500 C 1580.03 0.876786 5.26449 0
M  V30 16501 O 1580.25 -0.284896 5.69688 0
M  V30 16502 O 1579.19 1.652 5.78785 0
M  V30 16503 H 1583.01 1.74982 2.48223 0
M  V30 16504 H 1580.6 0.913673 1.18205 0
M  V30 16505 H 1582.48 0.0127792 4.21398 0
M  V30 16506 H 1581.15 -0.592149 3.18238 0
M  V30 16507 H 1580.06 1.72098 3.32164 0
M  V30 16508 H 1581.39 2.24678 4.37927 0
M  V30 16509 N 1583.05 -1.27244 0.929878 0
M  V30 16510 C 1584.46 -1.4662 0.630451 0
M  V30 16511 C 1584.66 -1.84077 -0.819633 0
M  V30 16512 O 1583.72 -1.95555 -1.59733 0
M  V30 16513 C 1585.03 -2.55709 1.58219 0
M  V30 16514 C 1586.58 -2.69569 1.59065 0
M  V30 16515 C 1587.05 -3.81818 2.52941 0
M  V30 16516 N 1588.54 -3.89195 2.51161 0
M  V30 16517 C 1589.28 -4.75474 3.20488 0
M  V30 16518 N 1588.78 -5.66225 3.99201 0
M  V30 16519 N 1590.57 -4.69222 3.09495 0
M  V30 16520 H 1582.72 -1.01216 1.86733 0
M  V30 16521 H 1584.98 -0.505737 0.801832 0
M  V30 16522 H 1584.69 -2.34985 2.61677 0
M  V30 16523 H 1584.56 -3.53141 1.32556 0
M  V30 16524 H 1586.95 -2.89672 0.563375 0
M  V30 16525 H 1587.03 -1.72616 1.88778 0
M  V30 16526 H 1586.67 -3.62467 3.55781 0
M  V30 16527 H 1586.6 -4.78202 2.20524 0
M  V30 16528 H 1589.1 -3.24305 1.93997 0
M  V30 16529 H 1589.41 -6.28925 4.4908 0
M  V30 16530 H 1587.75 -5.66013 4.03304 0
M  V30 16531 H 1590.94 -3.97322 2.47493 0
M  V30 16532 H 1591.12 -5.36244 3.63794 0
M  V30 16533 N 1584.52 -0.695628 -1.41417 0
M  V30 16534 C 1585.77 -0.226954 -2.01526 0
M  V30 16535 C 1586.1 1.1704 -1.54968 0
M  V30 16536 O 1585.38 1.78999 -0.760895 0
M  V30 16537 C 1585.66 -0.284704 -3.58973 0
M  V30 16538 C 1585.51 -1.71901 -4.15656 0
M  V30 16539 C 1586.83 0.355454 -4.38662 0
M  V30 16540 H 1583.95 -0.0839425 -0.732204 0
M  V30 16541 H 1586.59 -0.884359 -1.68164 0
M  V30 16542 H 1584.74 0.275041 -3.87525 0
M  V30 16543 H 1586.42 -2.3326 -3.97979 0
M  V30 16544 H 1584.66 -2.25314 -3.70696 0
M  V30 16545 H 1585.33 -1.71095 -5.24815 0
M  V30 16546 H 1587.81 -0.121256 -4.15923 0
M  V30 16547 H 1586.68 0.284503 -5.48162 0
M  V30 16548 H 1586.94 1.43617 -4.18123 0
M  V30 16549 N 1586 1.51322 -0.440383 0
M  V30 16550 C 1587.42 1.5933 -0.0928372 0
M  V30 16551 C 1587.62 1.45107 1.39807 0
M  V30 16552 O 1586.67 1.29385 2.16831 0
M  V30 16553 C 1587.99 2.9433 -0.615663 0
M  V30 16554 C 1589.53 3.07647 -0.576373 0
M  V30 16555 C 1590.01 4.45176 -1.07622 0
M  V30 16556 N 1591.5 4.51504 -1.03434 0
M  V30 16557 C 1592.24 5.56249 -1.39194 0
M  V30 16558 N 1591.73 6.68398 -1.82254 0
M  V30 16559 N 1593.52 5.46624 -1.30991 0
M  V30 16560 H 1585.68 1.58812 -1.41041 0
M  V30 16561 H 1587.94 0.748795 -0.581386 0
M  V30 16562 H 1587.64 3.10117 -1.65892 0
M  V30 16563 H 1587.52 3.77176 -0.0422513 0
M  V30 16564 H 1589.91 2.91526 0.457904 0
M  V30 16565 H 1589.99 2.26633 -1.18622 0
M  V30 16566 H 1589.63 4.62044 -2.10898 0
M  V30 16567 H 1589.56 5.24734 -0.442882 0
M  V30 16568 H 1592.05 3.71013 -0.718156 0
M  V30 16569 H 1592.36 7.44347 -2.07769 0
M  V30 16570 H 1590.71 6.69598 -1.86183 0
M  V30 16571 H 1593.9 4.57894 -0.972145 0
M  V30 16572 H 1594.07 6.28143 -1.59188 0
M  V30 16573 N 1587.48 0.171848 1.5666 0
M  V30 16574 C 1588.71 -0.478526 2.00982 0
M  V30 16575 C 1589.12 -1.57313 1.05115 0
M  V30 16576 O 1588.46 -1.83647 0.0441833 0
M  V30 16577 C 1588.52 -1.11633 3.41729 0
M  V30 16578 C 1588.19 -0.163307 4.56708 0
M  V30 16579 C 1589.18 0.618553 5.16207 0
M  V30 16580 C 1586.87 -0.0589794 5.02265 0
M  V30 16581 C 1588.86 1.49194 6.19693 0
M  V30 16582 C 1586.55 0.817987 6.05601 0
M  V30 16583 C 1587.55 1.59203 6.64186 0
M  V30 16584 O 1587.24 2.45434 7.65518 0
M  V30 16585 H 1586.97 -0.126833 0.663995 0
M  V30 16586 H 1589.52 0.270866 2.03606 0
M  V30 16587 H 1587.75 -1.91385 3.36019 0
M  V30 16588 H 1589.44 -1.66896 3.70001 0
M  V30 16589 H 1590.21 0.548127 4.81893 0
M  V30 16590 H 1586.09 -0.651245 4.56377 0
M  V30 16591 H 1589.63 2.09656 6.6535 0
M  V30 16592 H 1585.53 0.889614 6.3934 0
M  V30 16593 H 1586.29 2.38955 7.82843 0
M  V30 16594 N 1588.96 -1.5727 -0.101874 0
M  V30 16595 C 1589.89 -1.98253 -1.15014 0
M  V30 16596 C 1590.9 -0.884147 -1.36699 0
M  V30 16597 O 1592.09 -1.16232 -1.35471 0
M  V30 16598 C 1589.19 -2.28043 -2.50698 0
M  V30 16599 C 1588.36 -3.59343 -2.49383 0
M  V30 16600 C 1587.42 -3.77147 -3.66943 0
M  V30 16601 O 1586.45 -4.49075 -3.49744 0
M  V30 16602 N 1587.65 -3.1721 -4.86167 0
M  V30 16603 H 1590.42 -2.88787 -0.801375 0
M  V30 16604 H 1587.98 -1.59264 -0.290941 0
M  V30 16605 H 1589.97 -2.37153 -3.27934 0
M  V30 16606 H 1588.54 -1.4355 -2.77691 0
M  V30 16607 H 1587.76 -3.61264 -1.57741 0
M  V30 16608 H 1589.05 -4.45612 -2.45576 0
M  V30 16609 H 1588.45 -2.58772 -5.03044 0
M  V30 16610 H 1587 -3.31816 -5.61018 0
M  V30 16611 N 1590.44 0.372521 -1.53134 0
M  V30 16612 C 1591.68 1.12465 -1.70678 0
M  V30 16613 C 1592.04 1.8676 -0.445503 0
M  V30 16614 O 1593.24 2.64155 -0.497531 0
M  V30 16615 C 1591.51 2.06389 -2.91785 0
M  V30 16616 S 1593.07 2.89216 -3.3 0
M  V30 16617 H 1589.89 0.380458 -0.600644 0
M  V30 16618 H 1592.49 0.406831 -1.9122 0
M  V30 16619 H 1591.19 1.50559 -3.81786 0
M  V30 16620 H 1590.73 2.82654 -2.73624 0
M  V30 16621 H 1592.74 4.08642 -2.81471 0
M  V30 16622 N 1591.91 1.44376 0.631925 0
M  V30 16623 C 1593.33 1.28245 0.950014 0
M  V30 16624 C 1593.53 0.217644 2.00321 0
M  V30 16625 O 1592.59 -0.396736 2.49364 0
M  V30 16626 C 1593.9 2.65378 1.41404 0
M  V30 16627 C 1595.45 2.73081 1.52956 0
M  V30 16628 C 1595.92 4.10682 2.02742 0
M  V30 16629 N 1597.41 4.12854 2.10014 0
M  V30 16630 C 1598.15 5.16173 2.49705 0
M  V30 16631 N 1597.64 6.29855 2.88539 0
M  V30 16632 N 1599.44 5.03528 2.49832 0
M  V30 16633 H 1591.59 2.12302 -0.0646167 0
M  V30 16634 H 1593.85 0.9474 0.0337162 0
M  V30 16635 H 1593.56 3.44366 0.714476 0
M  V30 16636 H 1593.43 2.92213 2.3852 0
M  V30 16637 H 1595.82 1.94412 2.22009 0
M  V30 16638 H 1595.9 2.49988 0.542176 0
M  V30 16639 H 1595.54 4.89827 1.34285 0
M  V30 16640 H 1595.47 4.31152 3.02351 0
M  V30 16641 H 1597.96 3.30806 1.8269 0
M  V30 16642 H 1598.28 7.04505 3.17637 0
M  V30 16643 H 1596.62 6.33294 2.86293 0
M  V30 16644 H 1599.81 4.13773 2.18883 0
M  V30 16645 H 1599.99 5.84172 2.80441 0
M  V30 16646 N 1593.39 -0.872258 1.31261 0
M  V30 16647 C 1594.62 -1.6632 1.23905 0
M  V30 16648 C 1595.04 -1.87109 -0.192878 0
M  V30 16649 O 1594.4 -1.4112 -1.1382 0
M  V30 16650 C 1594.45 -3.00979 1.98606 0
M  V30 16651 O 1593.55 -3.90642 1.32183 0
M  V30 16652 H 1592.89 -0.507736 0.427902 0
M  V30 16653 H 1595.42 -1.0877 1.73292 0
M  V30 16654 H 1595.43 -3.50931 2.08113 0
M  V30 16655 H 1594.11 -2.85168 3.02741 0
M  V30 16656 H 1592.68 -3.4909 1.31112 0
M  V30 16657 N 1594.87 -1.14184 -1.08627 0
M  V30 16658 C 1596.28 -0.920108 -1.62453 0
M  V30 16659 C 1596.63 0.541577 -1.88577 0
M  V30 16660 O 1595.76 1.41002 -1.64157 0
M  V30 16661 C 1596.35 -1.6638 -2.95132 0
M  V30 16662 C 1594.91 -1.48771 -3.45752 0
M  V30 16663 C 1594.06 -1.68774 -2.20024 0
M  V30 16664 H 1597.01 -1.29396 -0.91882 0
M  V30 16665 H 1597.03 -1.12568 -3.63468 0
M  V30 16666 H 1596.54 -2.72759 -2.76087 0
M  V30 16667 H 1594.64 -0.44729 -3.69905 0
M  V30 16668 H 1594.76 -2.25619 -4.2265 0
M  V30 16669 H 1593.12 -1.11321 -2.29084 0
M  V30 16670 H 1593.9 -2.76491 -2.03489 0
M  V30 16671 N 1596.35 1.26749 -0.936613 0
M  V30 16672 C 1597.58 1.97772 -0.597489 0
M  V30 16673 C 1597.99 1.69984 0.830796 0
M  V30 16674 O 1597.33 0.962037 1.56495 0
M  V30 16675 C 1597.39 3.51497 -0.754307 0
M  V30 16676 C 1597.06 4.02926 -2.15637 0
M  V30 16677 C 1598.05 4.15016 -3.13141 0
M  V30 16678 C 1595.74 4.37051 -2.47572 0
M  V30 16679 C 1597.73 4.60518 -4.40683 0
M  V30 16680 C 1595.42 4.82242 -3.75347 0
M  V30 16681 C 1596.42 4.93936 -4.71716 0
M  V30 16682 O 1596.1 5.38133 -5.97217 0
M  V30 16683 H 1595.84 0.637664 -0.224412 0
M  V30 16684 H 1598.39 1.62341 -1.25836 0
M  V30 16685 H 1596.62 3.86683 -0.0363189 0
M  V30 16686 H 1598.31 4.03732 -0.418921 0
M  V30 16687 H 1599.08 3.88903 -2.89792 0
M  V30 16688 H 1594.95 4.27186 -1.733 0
M  V30 16689 H 1598.5 4.69561 -5.15906 0
M  V30 16690 H 1594.4 5.07799 -3.98511 0
M  V30 16691 H 1595.16 5.56365 -6.00334 0
M  V30 16692 N 1597.83 0.703118 1.41046 0
M  V30 16693 C 1598.74 0.0432777 2.3456 0
M  V30 16694 C 1599.75 -0.757704 1.56636 0
M  V30 16695 O 1600.93 -0.693531 1.89082 0
M  V30 16696 C 1597.99 -0.876385 3.35441 0
M  V30 16697 C 1597.05 -0.06676 4.29248 0
M  V30 16698 C 1596.29 -0.942622 5.2531 0
M  V30 16699 O 1596.51 -2.18205 5.27013 0
M  V30 16700 O 1595.44 -0.388266 6.00646 0
M  V30 16701 H 1599.27 0.814302 2.9258 0
M  V30 16702 H 1596.86 0.463503 1.42028 0
M  V30 16703 H 1598.74 -1.40353 3.9734 0
M  V30 16704 H 1597.41 -1.62677 2.79853 0
M  V30 16705 H 1596.32 0.505165 3.70674 0
M  V30 16706 H 1597.65 0.645128 4.87954 0
M  V30 16707 N 1599.3 -1.51086 0.448402 0
M  V30 16708 C 1600.24 -2.24615 -0.402921 0
M  V30 16709 C 1601.22 -1.26994 -1.01544 0
M  V30 16710 O 1602.4 -1.56159 -1.05577 0
M  V30 16711 C 1599.53 -3.00504 -1.56253 0
M  V30 16712 C 1598.57 -4.1287 -1.06961 0
M  V30 16713 S 1599.41 -5.355 -0.00265176 0
M  V30 16714 C 1600.56 -6.14931 -1.16667 0
M  V30 16715 H 1600.79 -2.96475 0.221298 0
M  V30 16716 H 1598.33 -1.52631 0.23303 0
M  V30 16717 H 1600.29 -3.44824 -2.22726 0
M  V30 16718 H 1598.95 -2.28212 -2.15819 0
M  V30 16719 H 1598.14 -4.65288 -1.93708 0
M  V30 16720 H 1597.74 -3.70869 -0.48296 0
M  V30 16721 H 1600.03 -6.44688 -2.08286 0
M  V30 16722 H 1600.98 -7.04806 -0.682223 0
M  V30 16723 H 1601.38 -5.46601 -1.41024 0
M  V30 16724 N 1600.78 -0.180154 -1.56567 0
M  V30 16725 C 1602.03 0.46252 -1.97147 0
M  V30 16726 C 1602.36 1.62654 -1.06649 0
M  V30 16727 O 1601.61 1.95432 -0.102417 0
M  V30 16728 C 1601.91 0.978895 -3.43733 0
M  V30 16729 C 1601.58 -0.0701623 -4.50845 0
M  V30 16730 C 1600.24 -0.358456 -4.79863 0
M  V30 16731 C 1602.59 -0.781763 -5.15304 0
M  V30 16732 C 1599.92 -1.36359 -5.70634 0
M  V30 16733 C 1602.27 -1.77594 -6.0716 0
M  V30 16734 C 1600.94 -2.07159 -6.3454 0
M  V30 16735 H 1600.21 0.169248 -0.721413 0
M  V30 16736 H 1602.85 -0.273976 -1.8953 0
M  V30 16737 H 1601.16 1.79338 -3.48346 0
M  V30 16738 H 1602.85 1.4853 -3.72478 0
M  V30 16739 H 1599.44 0.164708 -4.28283 0
M  V30 16740 H 1603.63 -0.572254 -4.9299 0
M  V30 16741 H 1598.88 -1.59872 -5.90128 0
M  V30 16742 H 1603.06 -2.33265 -6.56171 0
M  V30 16743 H 1600.69 -2.85191 -7.04677 0
M  V30 16744 N 1602.26 1.57322 0.0935319 0
M  V30 16745 C 1603.51 1.858 0.795165 0
M  V30 16746 C 1603.83 0.769078 1.79193 0
M  V30 16747 O 1603.1 -0.204511 1.9483 0
M  V30 16748 H 1601.68 0.68557 0.296653 0
M  V30 16749 H 1604.34 1.94756 0.0747892 0
M  V30 16750 H 1603.44 2.82588 1.32479 0
M  V30 16751 N 1603.74 -0.364395 1.53329 0
M  V30 16752 C 1605.02 -1.12265 1.60174 0
M  V30 16753 C 1605.4 -2.0708 0.410015 0
M  V30 16754 O 1604.74 -2.20492 -0.599631 0
M  V30 16755 C 1604.95 -1.86071 2.9526 0
M  V30 16756 C 1606.3 -2.40562 3.49879 0
M  V30 16757 O 1607.33 -1.96196 2.97297 0
M  V30 16758 O 1606.18 -3.2167 4.41804 0
M  V30 16759 H 1603.28 -0.515062 0.647024 0
M  V30 16760 H 1605.82 -0.367563 1.65672 0
M  V30 16761 H 1604.6 -1.1688 3.73436 0
M  V30 16762 H 1604.22 -2.68486 2.93259 0
M  V30 16763 N 1605.22 -1.44709 -0.62426 0
M  V30 16764 C 1606.13 -1.54608 -1.76447 0
M  V30 16765 C 1607.14 -0.43137 -1.68568 0
M  V30 16766 O 1608.32 -0.6897 -1.89222 0
M  V30 16767 C 1605.38 -1.49404 -3.12857 0
M  V30 16768 C 1604.44 -2.71782 -3.32315 0
M  V30 16769 C 1603.68 -2.66817 -4.62217 0
M  V30 16770 O 1603.9 -1.73205 -5.43467 0
M  V30 16771 O 1602.83 -3.57773 -4.84027 0
M  V30 16772 H 1606.66 -2.50951 -1.71048 0
M  V30 16773 H 1604.25 -1.27033 -0.786326 0
M  V30 16774 H 1606.13 -1.4905 -3.9416 0
M  V30 16775 H 1604.8 -0.562078 -3.18783 0
M  V30 16776 H 1603.71 -2.77702 -2.50664 0
M  V30 16777 H 1605.04 -3.64048 -3.31255 0
M  V30 16778 N 1606.69 0.865285 -1.31722 0
M  V30 16779 C 1607.6 2.00542 -1.21738 0
M  V30 16780 C 1608.62 1.7349 -0.133124 0
M  V30 16781 O 1609.8 1.98303 -0.351809 0
M  V30 16782 C 1606.86 3.33993 -0.930045 0
M  V30 16783 C 1605.92 3.74337 -2.10167 0
M  V30 16784 C 1605.16 5.0142 -1.82795 0
M  V30 16785 O 1605.38 5.65242 -0.765345 0
M  V30 16786 O 1604.31 5.38642 -2.68604 0
M  V30 16787 H 1608.14 2.11898 -2.17561 0
M  V30 16788 H 1605.72 0.994313 -1.11507 0
M  V30 16789 H 1607.61 4.14008 -0.785846 0
M  V30 16790 H 1606.28 3.237 -0.00188642 0
M  V30 16791 H 1605.19 2.94943 -2.3013 0
M  V30 16792 H 1606.52 3.89261 -3.01225 0
M  V30 16793 N 1608.17 1.14759 1.0802 0
M  V30 16794 C 1609.42 0.919609 1.80751 0
M  V30 16795 C 1609.75 -0.552268 1.86182 0
M  V30 16796 O 1609.03 -1.40922 1.34057 0
M  V30 16797 C 1609.31 1.52611 3.26162 0
M  V30 16798 C 1609.16 3.06811 3.28918 0
M  V30 16799 C 1610.48 1.20625 4.23246 0
M  V30 16800 H 1607.6 0.33551 0.656203 0
M  V30 16801 H 1610.24 1.41816 1.26444 0
M  V30 16802 H 1608.39 1.10213 3.72539 0
M  V30 16803 H 1610.06 3.58068 2.90835 0
M  V30 16804 H 1608.31 3.41055 2.68075 0
M  V30 16805 H 1608.98 3.44357 4.31419 0
M  V30 16806 H 1611.45 1.57287 3.85227 0
M  V30 16807 H 1610.33 1.65689 5.23296 0
M  V30 16808 H 1610.59 0.122177 4.41931 0
M  V30 16809 N 1609.65 -1.26251 0.943322 0
M  V30 16810 C 1610.58 -2.24687 0.398877 0
M  V30 16811 C 1611.56 -1.54279 -0.513498 0
M  V30 16812 O 1612.75 -1.83039 -0.450458 0
M  V30 16813 C 1609.87 -3.36002 -0.426657 0
M  V30 16814 C 1608.92 -4.24382 0.424497 0
M  V30 16815 S 1609.75 -5.02537 1.84977 0
M  V30 16816 C 1610.91 -6.17328 1.03235 0
M  V30 16817 H 1611.14 -2.7052 1.23313 0
M  V30 16818 H 1608.67 -1.3515 0.746587 0
M  V30 16819 H 1610.63 -4.00579 -0.897053 0
M  V30 16820 H 1609.29 -2.88776 -1.23561 0
M  V30 16821 H 1608.49 -5.0357 -0.208116 0
M  V30 16822 H 1608.09 -3.64682 0.829661 0
M  V30 16823 H 1610.38 -6.76939 0.275635 0
M  V30 16824 H 1611.32 -6.84899 1.79776 0
M  V30 16825 H 1611.73 -5.61641 0.567466 0
M  V30 16826 N 1611.13 -0.710588 -1.40671 0
M  V30 16827 C 1612.37 -0.252303 -2.02837 0
M  V30 16828 C 1612.73 1.13154 -1.55113 0
M  V30 16829 O 1613.93 1.68653 -2.09307 0
M  V30 16830 C 1612.21 -0.323902 -3.55929 0
M  V30 16831 S 1613.76 0.0581316 -4.38761 0
M  V30 16832 H 1610.58 -0.100448 -0.703869 0
M  V30 16833 H 1613.18 -0.931699 -1.71871 0
M  V30 16834 H 1611.89 -1.33279 -3.88156 0
M  V30 16835 H 1611.42 0.37414 -3.91617 0
M  V30 16836 H 1613.43 1.28162 -4.79363 0
M  V30 16837 N 1612.61 1.50847 -0.456408 0
M  V30 16838 C 1613.54 2.31077 0.335523 0
M  V30 16839 C 1614.52 1.37326 1.00377 0
M  V30 16840 O 1615.7 1.66247 1.00376 0
M  V30 16841 C 1612.83 3.16662 1.42627 0
M  V30 16842 C 1611.79 4.18846 0.88045 0
M  V30 16843 C 1611.11 4.93074 2.06838 0
M  V30 16844 C 1612.41 5.22208 -0.0982288 0
M  V30 16845 H 1614.11 2.97531 -0.334056 0
M  V30 16846 H 1611.65 1.43085 -0.162099 0
M  V30 16847 H 1613.61 3.71578 1.98765 0
M  V30 16848 H 1612.33 2.48066 2.12441 0
M  V30 16849 H 1610.99 3.65009 0.341147 0
M  V30 16850 H 1610.64 4.20963 2.75316 0
M  V30 16851 H 1610.34 5.62184 1.70947 0
M  V30 16852 H 1611.86 5.5082 2.63494 0
M  V30 16853 H 1613.28 5.72082 0.373481 0
M  V30 16854 H 1611.67 5.98954 -0.370674 0
M  V30 16855 H 1612.74 4.73859 -1.02887 0
M  V30 16856 N 1614.09 0.188454 1.56469 0
M  V30 16857 C 1615.03 -0.751822 2.20115 0
M  V30 16858 C 1616.03 -1.22476 1.1703 0
M  V30 16859 O 1617.23 -1.18843 1.3519 0
M  V30 16860 H 1613.61 -0.260778 0.705336 0
M  V30 16861 H 1615.58 -0.191249 2.97786 0
M  V30 16862 C 1614.33 -1.96365 2.86943 0
M  V30 16863 H 1613.65 -1.60879 3.66003 0
M  V30 16864 H 1615.09 -2.60007 3.34921 0
M  V30 16865 C 1613.55 -2.7982 1.87623 0
M  V30 16866 O 1614.08 -3.7753 1.37237 0
M  V30 16867 N 1612.29 -2.45179 1.55999 0
M  V30 16868 H 1611.83 -1.6578 1.97167 0
M  V30 16869 H 1611.79 -3.01302 0.898012 0
M  V30 16870 N 1615.56 -1.5737 -0.0851874 0
M  V30 16871 C 1616.81 -1.86219 -0.7853 0
M  V30 16872 C 1617.13 -0.77857 -1.78783 0
M  V30 16873 O 1616.4 0.194176 -1.94935 0
M  V30 16874 H 1614.98 -0.687134 -0.293013 0
M  V30 16875 H 1617.64 -1.94793 -0.0644597 0
M  V30 16876 H 1616.74 -2.83286 -1.30978 0
M  V30 16877 N 1617.04 0.356258 -1.53521 0
M  V30 16878 C 1617.99 1.45718 -1.81298 0
M  V30 16879 C 1618.98 1.55036 -0.682652 0
M  V30 16880 O 1620.19 1.57812 -0.865766 0
M  V30 16881 H 1616.56 0.485614 -0.57418 0
M  V30 16882 H 1618.54 1.19498 -2.73428 0
M  V30 16883 C 1617.28 2.82424 -2.0281 0
M  V30 16884 H 1616.61 2.76016 -2.89232 0
M  V30 16885 H 1618.05 3.5861 -2.26218 0
M  V30 16886 C 1616.51 3.2702 -0.809893 0
M  V30 16887 O 1617.04 4.017 -0.00310668 0
M  V30 16888 N 1615.24 2.83673 -0.630696 0
M  V30 16889 H 1614.79 2.23066 -1.28839 0
M  V30 16890 H 1614.75 3.13867 0.182961 0
M  V30 16891 N 1618.52 1.45038 0.616577 0
M  V30 16892 C 1619.77 1.49797 1.37595 0
M  V30 16893 C 1620.12 0.134243 1.91931 0
M  V30 16894 O 1619.41 -0.852613 1.71584 0
M  V30 16895 C 1619.61 2.50545 2.54876 0
M  V30 16896 C 1619.44 3.9658 2.12024 0
M  V30 16897 C 1618.21 4.64628 1.98618 0
M  V30 16898 C 1620.4 4.85377 1.70041 0
M  V30 16899 N 1618.39 5.95423 1.49481 0
M  V30 16900 C 1619.76 6.0573 1.32255 0
M  V30 16901 C 1621.81 4.72315 1.57552 0
M  V30 16902 C 1620.52 7.14469 0.832279 0
M  V30 16903 C 1622.54 5.81093 1.09929 0
M  V30 16904 C 1621.9 7.00596 0.731022 0
M  V30 16905 H 1618 0.603131 0.497752 0
M  V30 16906 H 1620.59 1.81456 0.70582 0
M  V30 16907 H 1618.76 2.20853 3.19497 0
M  V30 16908 H 1620.49 2.45508 3.21726 0
M  V30 16909 H 1617.24 4.1965 2.19524 0
M  V30 16910 H 1617.67 6.64949 1.2717 0
M  V30 16911 H 1622.31 3.80347 1.84652 0
M  V30 16912 H 1620.03 8.06234 0.548815 0
M  V30 16913 H 1623.61 5.73018 1.00704 0
M  V30 16914 H 1622.49 7.83335 0.368177 0
M  V30 16915 N 1620 -0.858287 1.32179 0
M  V30 16916 C 1621.23 -1.64473 1.25523 0
M  V30 16917 C 1621.64 -1.87964 -0.177425 0
M  V30 16918 O 1621 -1.44607 -1.11333 0
M  V30 16919 C 1621.05 -3.00609 2.0079 0
M  V30 16920 O 1620.77 -2.7816 3.38465 0
M  V30 16921 C 1622.27 -3.95054 2.01115 0
M  V30 16922 H 1619.49 -0.512393 0.433237 0
M  V30 16923 H 1622.03 -1.07048 1.74244 0
M  V30 16924 H 1620.19 -3.5469 1.55801 0
M  V30 16925 H 1620.6 -3.64712 3.76942 0
M  V30 16926 H 1622.08 -4.87854 2.58268 0
M  V30 16927 H 1622.55 -4.27746 0.996513 0
M  V30 16928 H 1623.16 -3.4691 2.46035 0
M  V30 16929 N 1621.48 -1.1533 -1.07409 0
M  V30 16930 C 1622.39 -0.863514 -2.1813 0
M  V30 16931 C 1623.4 0.159954 -1.73263 0
M  V30 16932 O 1624.58 -0.0139818 -2.01395 0
M  V30 16933 C 1621.64 -0.356271 -3.44865 0
M  V30 16934 C 1620.7 -1.44356 -4.04302 0
M  V30 16935 C 1619.94 -0.960429 -5.24987 0
M  V30 16936 O 1620.16 0.194227 -5.70069 0
M  V30 16937 O 1619.09 -1.74387 -5.76084 0
M  V30 16938 H 1622.92 -1.78909 -2.45408 0
M  V30 16939 H 1620.5 -0.932362 -1.16736 0
M  V30 16940 H 1622.39 -0.0798183 -4.21324 0
M  V30 16941 H 1621.06 0.541445 -3.1914 0
M  V30 16942 H 1619.97 -1.77361 -3.29384 0
M  V30 16943 H 1621.3 -2.31617 -4.34298 0
M  V30 16944 N 1622.95 1.25748 -0.950004 0
M  V30 16945 C 1624.36 1.75253 -0.643694 0
M  V30 16946 C 1624.72 1.77261 0.841017 0
M  V30 16947 O 1623.84 1.39043 1.65819 0
M  V30 16948 C 1624.44 3.1826 -1.16173 0
M  V30 16949 C 1622.99 3.65342 -0.905672 0
M  V30 16950 C 1622.14 2.4454 -1.30749 0
M  V30 16951 H 1625.09 1.117 -1.12733 0
M  V30 16952 H 1625.11 3.76935 -0.519651 0
M  V30 16953 H 1624.63 3.16766 -2.24234 0
M  V30 16954 H 1622.73 3.72256 0.160174 0
M  V30 16955 H 1622.84 4.53713 -1.53888 0
M  V30 16956 H 1621.2 2.44138 -0.725876 0
M  V30 16957 H 1621.99 2.45741 -2.39721 0
M  V30 16958 N 1624.43 0.718038 1.40292 0
M  V30 16959 C 1625.84 0.330675 1.83748 0
M  V30 16960 C 1626.19 -1.13511 1.6003 0
M  V30 16961 O 1625.32 -1.87381 1.08247 0
M  V30 16962 C 1625.91 0.593398 3.33563 0
M  V30 16963 C 1624.47 0.259717 3.75503 0
M  V30 16964 C 1623.62 0.864537 2.63479 0
M  V30 16965 H 1626.57 0.917 1.29525 0
M  V30 16966 H 1626.59 -0.140544 3.8024 0
M  V30 16967 H 1626.1 1.66028 3.50794 0
M  V30 16968 H 1624.2 -0.802011 3.63866 0
M  V30 16969 H 1624.32 0.730427 4.73499 0
M  V30 16970 H 1622.68 0.292399 2.53016 0
M  V30 16971 H 1623.46 1.93574 2.83521 0
M  V30 16972 N 1625.91 -1.50602 0.464402 0
M  V30 16973 C 1626.84 -2.26203 -0.36943 0
M  V30 16974 C 1627.86 -1.31269 -0.962924 0
M  V30 16975 O 1629.04 -1.56829 -0.852465 0
M  V30 16976 C 1626.14 -3.02323 -1.53147 0
M  V30 16977 C 1625.32 -4.24561 -1.05198 0
M  V30 16978 C 1624.38 -4.83031 -2.08729 0
M  V30 16979 O 1623.4 -5.44131 -1.67062 0
M  V30 16980 N 1624.6 -4.6944 -3.41477 0
M  V30 16981 H 1627.37 -2.98402 0.278652 0
M  V30 16982 H 1624.93 -1.59193 0.294803 0
M  V30 16983 H 1626.92 -3.38319 -2.22086 0
M  V30 16984 H 1625.49 -2.32965 -2.08438 0
M  V30 16985 H 1624.71 -3.93748 -0.188705 0
M  V30 16986 H 1626 -5.0383 -0.709434 0
M  V30 16987 H 1625.4 -4.20832 -3.78044 0
M  V30 16988 H 1623.96 -5.09724 -4.06233 0
M  V30 16989 N 1627.39 -0.19675 -1.56367 0
M  V30 16990 C 1628.63 0.443732 -1.99525 0
M  V30 16991 C 1628.99 1.58685 -1.08088 0
M  V30 16992 O 1630.19 2.29164 -1.4049 0
M  V30 16993 C 1628.46 0.890565 -3.46127 0
M  V30 16994 S 1630.02 1.52865 -4.11312 0
M  V30 16995 H 1626.84 0.141834 -0.69671 0
M  V30 16996 H 1629.44 -0.300205 -1.93181 0
M  V30 16997 H 1628.15 0.0485587 -4.10371 0
M  V30 16998 H 1627.68 1.66793 -3.56292 0
M  V30 16999 H 1629.69 2.81743 -4.08455 0
M  V30 17000 N 1628.87 1.57413 0.0768405 0
M  V30 17001 C 1629.81 2.0334 1.09185 0
M  V30 17002 C 1630.78 0.913073 1.38752 0
M  V30 17003 O 1631.97 1.18038 1.49906 0
M  V30 17004 C 1629.11 2.47805 2.40181 0
M  V30 17005 C 1628.22 3.73435 2.17188 0
M  V30 17006 C 1627.36 4.06703 3.41711 0
M  V30 17007 C 1626.4 5.25388 3.1406 0
M  V30 17008 N 1625.53 5.54319 4.309 0
M  V30 17009 H 1630.37 2.89825 0.693223 0
M  V30 17010 H 1627.91 1.43334 0.330736 0
M  V30 17011 H 1629.87 2.71635 3.16655 0
M  V30 17012 H 1628.5 1.64305 2.77856 0
M  V30 17013 H 1627.55 3.56974 1.3143 0
M  V30 17014 H 1628.86 4.60049 1.9276 0
M  V30 17015 H 1628.02 4.31407 4.26583 0
M  V30 17016 H 1626.75 3.18646 3.6921 0
M  V30 17017 H 1625.76 5.00486 2.27583 0
M  V30 17018 H 1626.98 6.15059 2.87888 0
M  V30 17019 H 1624.93 4.69222 4.5844 0
M  V30 17020 H 1624.85 6.35342 4.09727 0
M  V30 17021 H 1626.12 5.83571 5.16783 0
M  V30 17022 N 1630.34 -0.348112 1.53707 0
M  V30 17023 C 1631.62 -1.1056 1.61356 0
M  V30 17024 C 1632 -2.06633 0.431955 0
M  V30 17025 O 1631.35 -2.21115 -0.576211 0
M  V30 17026 C 1631.56 -1.82929 2.97217 0
M  V30 17027 C 1632.91 -2.36837 3.52411 0
M  V30 17028 O 1633.93 -1.93032 2.99361 0
M  V30 17029 O 1632.79 -3.16966 4.45191 0
M  V30 17030 H 1629.88 -0.50817 0.652451 0
M  V30 17031 H 1632.43 -0.349971 1.66052 0
M  V30 17032 H 1631.2 -1.12912 3.74655 0
M  V30 17033 H 1630.83 -2.65361 2.9609 0
M  V30 17034 N 1631.82 -1.45363 -0.608876 0
M  V30 17035 C 1633.05 -1.53066 -1.39949 0
M  V30 17036 C 1633.47 -0.16369 -1.87386 0
M  V30 17037 O 1632.83 0.851432 -1.60064 0
M  V30 17038 C 1632.88 -2.51836 -2.58091 0
M  V30 17039 O 1631.98 -2.03528 -3.58678 0
M  V30 17040 H 1631.32 -0.516031 -0.417861 0
M  V30 17041 H 1633.85 -1.90705 -0.74113 0
M  V30 17042 H 1633.86 -2.706 -3.05352 0
M  V30 17043 H 1632.54 -3.51117 -2.22912 0
M  V30 17044 H 1631.12 -1.94634 -3.18075 0
M  V30 17045 N 1633.3 0.851265 -1.32632 0
M  V30 17046 C 1634.53 1.63805 -1.26394 0
M  V30 17047 C 1634.94 1.88056 0.167454 0
M  V30 17048 O 1634.3 1.45196 1.10564 0
M  V30 17049 C 1634.35 2.9954 -2.02381 0
M  V30 17050 O 1634.07 2.76361 -3.39935 0
M  V30 17051 C 1635.57 3.93982 -2.03207 0
M  V30 17052 H 1632.79 0.510088 -0.435948 0
M  V30 17053 H 1635.34 1.06123 -1.74809 0
M  V30 17054 H 1633.49 3.53859 -1.5768 0
M  V30 17055 H 1633.91 3.62708 -3.78871 0
M  V30 17056 H 1635.38 4.86478 -2.60851 0
M  V30 17057 H 1635.86 4.27211 -1.01918 0
M  V30 17058 H 1636.46 3.45601 -2.47871 0
M  V30 17059 N 1634.78 1.15898 1.06796 0
M  V30 17060 C 1636.03 0.935488 1.79145 0
M  V30 17061 C 1636.35 -0.538433 1.87419 0
M  V30 17062 O 1635.62 -1.39124 1.37917 0
M  V30 17063 H 1634.2 0.343123 0.663533 0
M  V30 17064 H 1636.86 1.4607 1.29034 0
M  V30 17065 H 1635.96 1.34978 2.81402 0
M  V30 17066 N 1636.26 -1.25243 0.956659 0
M  V30 17067 C 1637.2 -2.25811 0.477292 0
M  V30 17068 C 1638.17 -1.59273 -0.471301 0
M  V30 17069 O 1639.36 -1.86894 -0.384105 0
M  V30 17070 C 1636.5 -3.44286 -0.236891 0
M  V30 17071 C 1635.61 -4.25454 0.749177 0
M  V30 17072 C 1634.75 -5.31199 0.012228 0
M  V30 17073 C 1633.79 -6.04056 0.989094 0
M  V30 17074 N 1632.92 -7.0153 0.282883 0
M  V30 17075 H 1637.76 -2.66185 1.33977 0
M  V30 17076 H 1635.3 -1.30862 0.671832 0
M  V30 17077 H 1637.26 -4.11825 -0.66755 0
M  V30 17078 H 1635.89 -3.04781 -1.06339 0
M  V30 17079 H 1634.94 -3.57558 1.29831 0
M  V30 17080 H 1636.25 -4.75883 1.49454 0
M  V30 17081 H 1635.41 -6.04822 -0.476968 0
M  V30 17082 H 1634.14 -4.81648 -0.76591 0
M  V30 17083 H 1633.15 -5.29245 1.48927 0
M  V30 17084 H 1634.37 -6.55695 1.76749 0
M  V30 17085 H 1632.32 -6.54267 -0.476479 0
M  V30 17086 H 1632.24 -7.49786 0.967304 0
M  V30 17087 H 1633.51 -7.79281 -0.184709 0
M  V30 17088 N 1637.73 -0.725468 -1.3991 0
M  V30 17089 C 1638.97 -0.273803 -2.02558 0
M  V30 17090 C 1639.34 1.11503 -1.56305 0
M  V30 17091 O 1640.54 1.66424 -2.11084 0
M  V30 17092 C 1638.81 -0.361635 -3.55566 0
M  V30 17093 S 1640.37 0.0115918 -4.38798 0
M  V30 17094 H 1637.19 -0.107908 -0.702764 0
M  V30 17095 H 1639.79 -0.949876 -1.70873 0
M  V30 17096 H 1638.49 -1.37389 -3.8672 0
M  V30 17097 H 1638.02 0.332583 -3.91992 0
M  V30 17098 H 1640.04 1.2307 -4.80695 0
M  V30 17099 N 1639.21 1.50354 -0.472382 0
M  V30 17100 C 1640.46 2.01934 0.0820006 0
M  V30 17101 C 1640.78 1.35636 1.401 0
M  V30 17102 O 1640.05 0.502127 1.89355 0
M  V30 17103 H 1638.63 0.746258 0.0332943 0
M  V30 17104 H 1641.29 1.84671 -0.623099 0
M  V30 17105 H 1640.39 3.11232 0.232565 0
M  V30 17106 N 1640.69 0.205039 1.56261 0
M  V30 17107 C 1642.1 -0.305792 1.84179 0
M  V30 17108 C 1642.45 -1.60672 1.126 0
M  V30 17109 O 1641.58 -2.12855 0.390118 0
M  V30 17110 C 1642.17 -0.561596 3.34113 0
M  V30 17111 C 1640.73 -1.01677 3.62407 0
M  V30 17112 C 1639.88 -0.0707844 2.7721 0
M  V30 17113 H 1642.83 0.428609 1.52803 0
M  V30 17114 H 1642.85 -1.40969 3.53423 0
M  V30 17115 H 1642.36 0.38541 3.86182 0
M  V30 17116 H 1640.46 -1.97771 3.1578 0
M  V30 17117 H 1640.58 -0.902607 4.70521 0
M  V30 17118 H 1638.94 -0.574529 2.48136 0
M  V30 17119 H 1639.72 0.870844 3.32071 0
M  V30 17120 N 1642.17 -1.57451 -0.0684915 0
M  V30 17121 C 1643.58 -1.76107 -0.619932 0
M  V30 17122 C 1643.93 -0.830939 -1.77735 0
M  V30 17123 O 1643.06 -0.0158481 -2.16394 0
M  V30 17124 C 1643.65 -3.19352 -1.13136 0
M  V30 17125 C 1642.21 -3.39341 -1.62864 0
M  V30 17126 C 1641.36 -2.71801 -0.549477 0
M  V30 17127 H 1644.31 -1.57915 0.157689 0
M  V30 17128 H 1644.33 -3.23693 -2.00008 0
M  V30 17129 H 1643.84 -3.87024 -0.288762 0
M  V30 17130 H 1641.94 -2.76787 -2.49438 0
M  V30 17131 H 1642.06 -4.47799 -1.70331 0
M  V30 17132 H 1640.42 -2.34448 -0.995302 0
M  V30 17133 H 1641.2 -3.42132 0.282995 0
M  V30 17134 N 1643.65 0.339955 -1.5389 0
M  V30 17135 C 1645.06 0.915362 -1.62721 0
M  V30 17136 C 1645.41 1.89434 -0.510798 0
M  V30 17137 O 1644.53 2.13403 0.3589 0
M  V30 17138 C 1645.13 1.66699 -2.94953 0
M  V30 17139 C 1643.69 2.19135 -3.06034 0
M  V30 17140 C 1642.84 1.01159 -2.5819 0
M  V30 17141 H 1645.79 0.11799 -1.58261 0
M  V30 17142 H 1645.81 2.53011 -2.84193 0
M  V30 17143 H 1645.32 0.954219 -3.76186 0
M  V30 17144 H 1643.42 2.93577 -2.29441 0
M  V30 17145 H 1643.53 2.4526 -4.11563 0
M  V30 17146 H 1641.9 1.38604 -2.13685 0
M  V30 17147 H 1642.68 0.313396 -3.41867 0
M  V30 17148 N 1645.13 1.45684 0.601159 0
M  V30 17149 C 1646.54 1.44423 1.18317 0
M  V30 17150 C 1646.89 0.17524 1.95416 0
M  V30 17151 O 1646.01 -0.722816 2.03971 0
M  V30 17152 C 1646.61 2.61651 2.1523 0
M  V30 17153 C 1645.17 2.6349 2.68793 0
M  V30 17154 C 1644.31 2.36787 1.44317 0
M  V30 17155 H 1647.26 1.53831 0.390108 0
M  V30 17156 H 1647.29 2.36117 2.98377 0
M  V30 17157 H 1646.8 3.53995 1.59088 0
M  V30 17158 H 1644.9 1.7517 3.28856 0
M  V30 17159 H 1645.01 3.62906 3.12787 0
M  V30 17160 H 1643.38 1.86472 1.73494 0
M  V30 17161 H 1644.16 3.31284 0.900327 0
M  V30 17162 N 1646.6 -0.84422 1.33082 0
M  V30 17163 C 1647.85 -1.59404 1.23585 0
M  V30 17164 C 1648.17 -1.94593 -0.198208 0
M  V30 17165 O 1649.37 -2.68307 -0.415138 0
M  V30 17166 C 1647.83 -2.87489 2.16513 0
M  V30 17167 C 1647.44 -2.59685 3.65059 0
M  V30 17168 C 1649.18 -3.6551 2.15877 0
M  V30 17169 C 1647.09 -3.83834 4.49917 0
M  V30 17170 H 1646.02 -0.598191 0.459003 0
M  V30 17171 H 1648.67 -0.931299 1.58111 0
M  V30 17172 H 1647.05 -3.55276 1.74913 0
M  V30 17173 H 1648.22 -2.00143 4.15065 0
M  V30 17174 H 1646.54 -1.94977 3.6793 0
M  V30 17175 H 1649.14 -4.57654 2.76509 0
M  V30 17176 H 1649.48 -4.00031 1.15244 0
M  V30 17177 H 1650.01 -3.0464 2.55811 0
M  V30 17178 H 1646.75 -3.54448 5.51404 0
M  V30 17179 H 1646.27 -4.42734 4.04656 0
M  V30 17180 H 1647.95 -4.51468 4.63449 0
M  V30 17181 N 1648.08 -1.16463 -1.0618 0
M  V30 17182 C 1649.36 -0.857038 -1.75824 0
M  V30 17183 C 1649.74 0.644886 -2.01009 0
M  V30 17184 O 1649.09 1.59305 -1.63812 0
M  V30 17185 C 1649.3 -1.681 -3.05849 0
M  V30 17186 C 1650.64 -1.8947 -3.79982 0
M  V30 17187 O 1651.67 -1.64975 -3.15692 0
M  V30 17188 O 1650.53 -2.30573 -4.95478 0
M  V30 17189 H 1647.62 -0.316364 -0.764096 0
M  V30 17190 H 1650.17 -1.27105 -1.12438 0
M  V30 17191 H 1648.94 -2.70014 -2.8321 0
M  V30 17192 H 1648.56 -1.2641 -3.7697 0
M  V30 17193 N 1649.56 1.24734 -0.963288 0
M  V30 17194 C 1650.51 2.27557 -0.481704 0
M  V30 17195 C 1651.5 1.63245 0.452488 0
M  V30 17196 O 1652.71 1.76981 0.328263 0
M  V30 17197 H 1649.08 0.73936 -0.137297 0
M  V30 17198 H 1651.05 2.65555 -1.361 0
M  V30 17199 C 1649.8 3.47023 0.216806 0
M  V30 17200 H 1649.13 3.9675 -0.492916 0
M  V30 17201 H 1650.57 4.20828 0.517659 0
M  V30 17202 C 1649.02 3.04466 1.44229 0
M  V30 17203 O 1649.55 3.11238 2.53956 0
M  V30 17204 N 1647.76 2.59563 1.30674 0
M  V30 17205 H 1647.31 2.54252 0.41395 0
M  V30 17206 H 1647.27 2.31453 2.12783 0
M  V30 17207 N 1651.04 0.732878 1.39523 0
M  V30 17208 C 1652.29 0.279338 2.0016 0
M  V30 17209 C 1652.61 -1.13673 1.58441 0
M  V30 17210 O 1651.88 -1.77369 0.831681 0
M  V30 17211 H 1650.46 0.100288 0.740237 0
M  V30 17212 H 1653.12 0.942363 1.70603 0
M  V30 17213 H 1652.21 0.326053 3.10392 0
M  V30 17214 N 1652.52 -1.50101 0.480349 0
M  V30 17215 C 1653.79 -1.95144 -0.133456 0
M  V30 17216 C 1654.17 -1.4211 -1.56102 0
M  V30 17217 O 1653.52 -0.626012 -2.19757 0
M  V30 17218 C 1653.73 -3.48935 -0.0672904 0
M  V30 17219 C 1655.08 -4.23854 -0.251564 0
M  V30 17220 O 1656.1 -3.55911 -0.143446 0
M  V30 17221 O 1654.96 -5.44467 -0.470947 0
M  V30 17222 H 1652.06 -0.820098 -0.106619 0
M  V30 17223 H 1654.6 -1.60832 0.541413 0
M  V30 17224 H 1653.37 -3.80111 0.929058 0
M  V30 17225 H 1653 -3.8981 -0.783214 0
M  V30 17226 N 1653.99 -0.213323 -1.5615 0
M  V30 17227 C 1655.24 0.420909 -1.97259 0
M  V30 17228 C 1655.56 1.61483 -1.10375 0
M  V30 17229 O 1656.76 2.31804 -1.41347 0
M  V30 17230 C 1655.22 0.800243 -3.5089 0
M  V30 17231 C 1654.83 -0.370405 -4.46466 0
M  V30 17232 C 1656.57 1.40054 -4.00731 0
M  V30 17233 C 1654.48 0.0309052 -5.91392 0
M  V30 17234 H 1653.41 0.16103 -0.736604 0
M  V30 17235 H 1656.06 -0.308232 -1.80893 0
M  V30 17236 H 1654.44 1.58657 -3.62828 0
M  V30 17237 H 1655.61 -1.14796 -4.46272 0
M  V30 17238 H 1653.93 -0.883391 -4.06922 0
M  V30 17239 H 1656.53 1.71355 -5.06499 0
M  V30 17240 H 1656.87 2.31345 -3.461 0
M  V30 17241 H 1657.4 0.677813 -3.91983 0
M  V30 17242 H 1654.14 -0.848284 -6.49988 0
M  V30 17243 H 1653.66 0.772941 -5.94799 0
M  V30 17244 H 1655.34 0.460441 -6.4536 0
M  V30 17245 N 1655.47 1.57485 0.0601405 0
M  V30 17246 C 1656.7 1.92051 0.769681 0
M  V30 17247 C 1657.12 0.810364 1.70524 0
M  V30 17248 O 1656.47 -0.215527 1.81223 0
M  V30 17249 C 1656.52 3.26423 1.55339 0
M  V30 17250 O 1656.24 4.3317 0.655423 0
M  V30 17251 C 1657.75 3.75076 2.36289 0
M  V30 17252 H 1654.97 0.63454 0.218175 0
M  V30 17253 H 1657.51 2.04482 0.0269308 0
M  V30 17254 H 1655.66 3.15483 2.24831 0
M  V30 17255 H 1656.08 5.10548 1.20171 0
M  V30 17256 H 1657.55 4.71695 2.86719 0
M  V30 17257 H 1658.03 3.04677 3.16336 0
M  V30 17258 H 1658.64 3.88998 1.71932 0
M  V30 17259 N 1656.95 -0.331789 1.54068 0
M  V30 17260 C 1658.18 -1.09484 1.76148 0
M  V30 17261 C 1658.6 -1.81201 0.504772 0
M  V30 17262 O 1657.96 -1.7297 -0.54325 0
M  V30 17263 C 1658.01 -2.07495 2.94921 0
M  V30 17264 O 1657.11 -3.15239 2.65891 0
M  V30 17265 H 1656.45 -0.316071 0.583948 0
M  V30 17266 H 1658.98 -0.378593 2.01067 0
M  V30 17267 H 1658.99 -2.5051 3.22038 0
M  V30 17268 H 1657.67 -1.54696 3.8606 0
M  V30 17269 H 1656.24 -2.76958 2.49697 0
M  V30 17270 N 1658.43 -1.46001 -0.593424 0
M  V30 17271 C 1659.68 -1.50755 -1.352 0
M  V30 17272 C 1660 -0.154929 -1.93882 0
M  V30 17273 O 1659.26 0.848161 -1.76365 0
M  V30 17274 C 1659.56 -2.54568 -2.50858 0
M  V30 17275 C 1659.22 -3.98888 -2.10236 0
M  V30 17276 C 1657.89 -4.38182 -1.98872 0
M  V30 17277 C 1660.24 -4.89591 -1.78746 0
M  V30 17278 C 1657.57 -5.66057 -1.5426 0
M  V30 17279 C 1659.92 -6.17892 -1.35617 0
M  V30 17280 C 1658.58 -6.56103 -1.22822 0
M  V30 17281 H 1657.85 -0.551652 -0.494734 0
M  V30 17282 H 1660.5 -1.79422 -0.669327 0
M  V30 17283 H 1658.8 -2.19523 -3.24526 0
M  V30 17284 H 1660.5 -2.5548 -3.09081 0
M  V30 17285 H 1657.09 -3.67822 -2.20012 0
M  V30 17286 H 1661.27 -4.59959 -1.86416 0
M  V30 17287 H 1656.53 -5.94444 -1.42988 0
M  V30 17288 H 1660.7 -6.87609 -1.10301 0
M  V30 17289 H 1658.33 -7.55086 -0.880285 0
M  V30 17290 N 1659.91 0.83715 -1.33527 0
M  V30 17291 C 1661.32 1.40878 -1.22516 0
M  V30 17292 C 1661.67 1.95585 0.155236 0
M  V30 17293 O 1660.79 1.88946 1.05491 0
M  V30 17294 C 1661.39 2.56093 -2.21815 0
M  V30 17295 C 1659.95 3.09205 -2.14638 0
M  V30 17296 C 1659.09 1.82012 -2.09205 0
M  V30 17297 H 1662.05 0.642766 -1.45101 0
M  V30 17298 H 1662.07 3.33775 -1.82687 0
M  V30 17299 H 1661.58 2.16246 -3.22272 0
M  V30 17300 H 1659.68 3.53592 -1.17489 0
M  V30 17301 H 1659.79 3.69261 -3.05259 0
M  V30 17302 H 1658.16 2.02331 -1.54707 0
M  V30 17303 H 1658.94 1.44359 -3.11473 0
M  V30 17304 N 1661.38 1.17024 1.05561 0
M  V30 17305 C 1662.31 0.906823 2.15172 0
M  V30 17306 C 1663.3 -0.149745 1.6944 0
M  V30 17307 O 1664.48 -0.000287092 1.942 0
M  V30 17308 C 1661.61 0.415251 3.44809 0
M  V30 17309 C 1660.56 1.41058 4.04088 0
M  V30 17310 C 1659.89 0.777109 5.29023 0
M  V30 17311 C 1661.19 2.78258 4.42007 0
M  V30 17312 H 1662.88 1.82347 2.37466 0
M  V30 17313 H 1660.43 0.878162 1.14124 0
M  V30 17314 H 1662.38 0.218407 4.20834 0
M  V30 17315 H 1661.11 -0.536924 3.22156 0
M  V30 17316 H 1659.77 1.5941 3.30127 0
M  V30 17317 H 1659.41 -0.181784 5.02671 0
M  V30 17318 H 1659.11 1.44151 5.69644 0
M  V30 17319 H 1660.64 0.590455 6.07738 0
M  V30 17320 H 1662.05 2.63645 5.09082 0
M  V30 17321 H 1660.45 3.41241 4.93634 0
M  V30 17322 H 1661.52 3.3295 3.52523 0
M  V30 17323 N 1662.86 -1.24221 0.969889 0
M  V30 17324 C 1664.09 -1.96943 0.650262 0
M  V30 17325 C 1664.51 -1.71437 -0.774018 0
M  V30 17326 O 1663.87 -0.979428 -1.52568 0
M  V30 17327 C 1663.92 -3.48303 0.933682 0
M  V30 17328 O 1663.02 -4.12395 0.0202425 0
M  V30 17329 H 1662.36 -0.616902 0.245618 0
M  V30 17330 H 1664.89 -1.57939 1.30063 0
M  V30 17331 H 1664.9 -3.98701 0.866106 0
M  V30 17332 H 1663.58 -3.66194 1.97166 0
M  V30 17333 H 1662.16 -3.72632 0.141327 0
M  V30 17334 N 1664.34 -0.740267 -1.39132 0
M  V30 17335 C 1665.59 -0.290953 -2.00702 0
M  V30 17336 C 1665.92 1.12051 -1.58613 0
M  V30 17337 O 1665.19 1.76488 -0.817457 0
M  V30 17338 C 1665.48 -0.398765 -3.57885 0
M  V30 17339 C 1665.33 -1.85038 -4.09977 0
M  V30 17340 C 1666.65 0.215717 -4.39571 0
M  V30 17341 H 1663.77 -0.107194 -0.729163 0
M  V30 17342 H 1666.41 -0.937411 -1.65265 0
M  V30 17343 H 1664.56 0.151613 -3.88204 0
M  V30 17344 H 1666.23 -2.45804 -3.90357 0
M  V30 17345 H 1664.48 -2.36994 -3.63341 0
M  V30 17346 H 1665.15 -1.87705 -5.19106 0
M  V30 17347 H 1667.62 -0.253518 -4.15327 0
M  V30 17348 H 1666.5 0.109966 -5.4879 0
M  V30 17349 H 1666.76 1.30242 -4.2248 0
M  V30 17350 N 1665.82 1.49844 -0.488302 0
M  V30 17351 C 1667.05 2.06519 0.0577968 0
M  V30 17352 C 1667.46 1.35039 1.32519 0
M  V30 17353 O 1666.8 0.418468 1.7887 0
M  V30 17354 C 1666.86 3.57328 0.394577 0
M  V30 17355 C 1666.53 4.50411 -0.773259 0
M  V30 17356 C 1667.52 4.9268 -1.66019 0
M  V30 17357 C 1665.21 4.92875 -0.968465 0
M  V30 17358 C 1667.2 5.76139 -2.72659 0
M  V30 17359 C 1664.89 5.76113 -2.03806 0
M  V30 17360 C 1665.89 6.17648 -2.91548 0
M  V30 17361 O 1665.57 6.99224 -3.96663 0
M  V30 17362 H 1665.31 0.675902 -0.0115057 0
M  V30 17363 H 1667.86 1.93777 -0.681149 0
M  V30 17364 H 1666.09 3.68033 1.18695 0
M  V30 17365 H 1667.78 3.96295 0.877786 0
M  V30 17366 H 1668.55 4.60528 -1.52114 0
M  V30 17367 H 1664.42 4.60056 -0.294936 0
M  V30 17368 H 1667.97 6.08478 -3.41174 0
M  V30 17369 H 1663.87 6.07678 -2.17711 0
M  V30 17370 H 1664.63 7.17507 -3.93861 0
M  V30 17371 N 1667.3 0.221601 1.56034 0
M  V30 17372 C 1668.26 -0.674973 2.19036 0
M  V30 17373 C 1669.26 -1.1216 1.15225 0
M  V30 17374 O 1670.45 -1.0304 1.40458 0
M  V30 17375 C 1667.58 -1.92465 2.81372 0
M  V30 17376 H 1668.77 -0.125689 2.99637 0
M  V30 17377 H 1666.33 -0.0280114 1.56275 0
M  V30 17378 H 1667.06 -2.5158 2.04641 0
M  V30 17379 H 1666.85 -1.61286 3.57392 0
M  V30 17380 H 1668.34 -2.56342 3.29664 0
M  V30 17381 N 1668.77 -1.57515 -0.0517878 0
M  V30 17382 C 1670.19 -1.76755 -0.601218 0
M  V30 17383 C 1670.54 -0.849744 -1.76844 0
M  V30 17384 O 1669.66 -0.0387987 -2.16365 0
M  V30 17385 C 1670.26 -3.20534 -1.09743 0
M  V30 17386 C 1668.82 -3.41049 -1.59256 0
M  V30 17387 C 1667.96 -2.72369 -0.520618 0
M  V30 17388 H 1670.91 -1.57739 0.174429 0
M  V30 17389 H 1670.93 -3.25796 -1.96563 0
M  V30 17390 H 1670.45 -3.87309 -0.247696 0
M  V30 17391 H 1668.55 -2.79417 -2.46489 0
M  V30 17392 H 1668.66 -4.49581 -1.65572 0
M  V30 17393 H 1667.02 -2.3549 -0.97038 0
M  V30 17394 H 1667.81 -3.41812 0.319266 0
M  V30 17395 N 1670.25 0.323614 -1.54242 0
M  V30 17396 C 1671.22 1.38126 -1.82904 0
M  V30 17397 C 1672.22 1.44723 -0.700853 0
M  V30 17398 O 1673.41 1.44751 -0.969161 0
M  V30 17399 C 1670.54 2.76858 -1.98903 0
M  V30 17400 H 1671.73 1.13966 -2.77402 0
M  V30 17401 H 1669.28 0.559094 -1.45958 0
M  V30 17402 H 1670.02 3.06274 -1.06616 0
M  V30 17403 H 1669.8 2.73464 -2.80998 0
M  V30 17404 H 1671.29 3.53372 -2.22526 0
M  V30 17405 N 1671.73 1.46313 0.585673 0
M  V30 17406 C 1672.96 1.55273 1.37496 0
M  V30 17407 C 1673.38 0.193481 1.87102 0
M  V30 17408 O 1672.74 -0.825859 1.61398 0
M  V30 17409 C 1672.79 2.5591 2.54052 0
M  V30 17410 O 1671.89 2.09208 3.55395 0
M  V30 17411 H 1671.23 0.522614 0.409598 0
M  V30 17412 H 1673.76 1.9186 0.710697 0
M  V30 17413 H 1673.77 2.75424 3.01008 0
M  V30 17414 H 1672.45 3.54619 2.17298 0
M  V30 17415 H 1671.02 1.9967 3.14939 0
M  V30 17416 N 1673.21 -0.830057 1.33969 0
M  V30 17417 C 1674.43 -1.62294 1.29133 0
M  V30 17418 C 1674.86 -1.87627 -0.133253 0
M  V30 17419 O 1674.22 -1.44669 -1.09272 0
M  V30 17420 C 1674.27 -2.94508 2.0808 0
M  V30 17421 O 1673.37 -3.86239 1.44544 0
M  V30 17422 H 1672.71 -0.493865 0.443839 0
M  V30 17423 H 1675.24 -1.03202 1.76665 0
M  V30 17424 H 1675.25 -3.44133 2.19173 0
M  V30 17425 H 1673.93 -2.75392 3.1166 0
M  V30 17426 H 1672.5 -3.44743 1.42151 0
M  V30 17427 N 1674.69 -1.17582 -1.04939 0
M  V30 17428 C 1675.93 -0.967208 -1.7825 0
M  V30 17429 C 1676.27 0.502711 -1.87581 0
M  V30 17430 O 1675.54 1.37318 -1.37746 0
M  V30 17431 C 1675.82 -1.61205 -3.22001 0
M  V30 17432 C 1675.68 -3.15424 -3.20667 0
M  V30 17433 C 1677 -1.31804 -4.199 0
M  V30 17434 H 1674.12 -0.35279 -0.647077 0
M  V30 17435 H 1676.76 -1.45119 -1.2264 0
M  V30 17436 H 1674.91 -1.20052 -3.69486 0
M  V30 17437 H 1676.58 -3.65653 -2.8124 0
M  V30 17438 H 1674.82 -3.48042 -2.58938 0
M  V30 17439 H 1675.49 -3.55674 -4.22138 0
M  V30 17440 H 1677.97 -1.67446 -3.80921 0
M  V30 17441 H 1676.85 -1.79505 -5.18719 0
M  V30 17442 H 1677.11 -0.239304 -4.41452 0
M  V30 17443 N 1676.17 1.23705 -0.976463 0
M  V30 17444 C 1677.08 2.28728 -0.521605 0
M  V30 17445 C 1678.09 1.68813 0.421691 0
M  V30 17446 O 1679.27 1.99263 0.292579 0
M  V30 17447 C 1676.33 3.4627 0.172545 0
M  V30 17448 C 1675.39 4.21557 -0.811664 0
M  V30 17449 C 1674.63 5.33488 -0.150546 0
M  V30 17450 O 1674.85 5.60478 1.05926 0
M  V30 17451 O 1673.78 5.95909 -0.847132 0
M  V30 17452 H 1677.61 2.6977 -1.39491 0
M  V30 17453 H 1675.19 1.29562 -0.743909 0
M  V30 17454 H 1677.08 4.17634 0.562103 0
M  V30 17455 H 1675.75 3.07187 1.02067 0
M  V30 17456 H 1674.66 3.52533 -1.25185 0
M  V30 17457 H 1675.99 4.6448 -1.62848 0
M  V30 17458 N 1677.64 0.747635 1.38738 0
M  V30 17459 C 1678.87 0.311329 2.04241 0
M  V30 17460 C 1679.28 -1.06319 1.56502 0
M  V30 17461 O 1678.62 -1.68544 0.730669 0
M  V30 17462 C 1678.69 0.24882 3.58638 0
M  V30 17463 C 1678.35 1.5639 4.29408 0
M  V30 17464 C 1679.35 2.51198 4.55187 0
M  V30 17465 C 1677.03 1.83169 4.67712 0
M  V30 17466 C 1679.03 3.71009 5.18296 0
M  V30 17467 C 1676.71 3.03255 5.30546 0
M  V30 17468 C 1677.71 3.96996 5.55773 0
M  V30 17469 O 1677.4 5.14971 6.173 0
M  V30 17470 H 1677.13 0.131827 0.663022 0
M  V30 17471 H 1679.69 1.01572 1.78528 0
M  V30 17472 H 1677.92 -0.511769 3.83299 0
M  V30 17473 H 1679.6 -0.157174 4.05596 0
M  V30 17474 H 1680.37 2.31784 4.2603 0
M  V30 17475 H 1676.25 1.11044 4.47426 0
M  V30 17476 H 1679.79 4.44193 5.37902 0
M  V30 17477 H 1675.69 3.22565 5.59126 0
M  V30 17478 H 1676.46 5.15474 6.3579 0
M  V30 17479 N 1679.12 -1.49583 0.496242 0
M  V30 17480 C 1680.05 -2.26936 -0.321366 0
M  V30 17481 C 1681.07 -1.33282 -0.934863 0
M  V30 17482 O 1682.26 -1.58602 -0.819008 0
M  V30 17483 C 1679.36 -3.05503 -1.467 0
M  V30 17484 C 1678.53 -4.26697 -0.961687 0
M  V30 17485 C 1677.59 -4.8735 -1.98436 0
M  V30 17486 O 1676.61 -5.47553 -1.55482 0
M  V30 17487 N 1677.82 -4.76577 -3.31443 0
M  V30 17488 H 1680.58 -2.97744 0.341884 0
M  V30 17489 H 1678.14 -1.58532 0.328504 0
M  V30 17490 H 1680.13 -3.42954 -2.1486 0
M  V30 17491 H 1678.7 -2.37334 -2.03449 0
M  V30 17492 H 1677.92 -3.9406 -0.105143 0
M  V30 17493 H 1679.21 -5.05221 -0.602405 0
M  V30 17494 H 1678.61 -4.28756 -3.69032 0
M  V30 17495 H 1677.17 -5.18226 -3.95329 0
M  V30 17496 N 1680.6 -0.229873 -1.55915 0
M  V30 17497 C 1681.84 0.40131 -2.00422 0
M  V30 17498 C 1682.2 1.56356 -1.1143 0
M  V30 17499 O 1683.4 2.26132 -1.45319 0
M  V30 17500 C 1681.68 0.816946 -3.47938 0
M  V30 17501 S 1683.23 1.44106 -4.14462 0
M  V30 17502 H 1680.05 0.127024 -0.699561 0
M  V30 17503 H 1682.65 -0.341114 -1.92501 0
M  V30 17504 H 1681.36 -0.038498 -4.10382 0
M  V30 17505 H 1680.89 1.59198 -3.59749 0
M  V30 17506 H 1682.9 2.73016 -4.14339 0
M  V30 17507 N 1682.08 1.5754 0.0434337 0
M  V30 17508 C 1683.01 2.02385 1.07577 0
M  V30 17509 C 1684.02 0.934273 1.33324 0
M  V30 17510 O 1685.21 1.2118 1.31064 0
M  V30 17511 C 1682.31 2.3719 2.42062 0
M  V30 17512 C 1681.48 3.68351 2.35874 0
M  V30 17513 C 1680.54 3.90506 3.52692 0
M  V30 17514 O 1679.57 4.61746 3.32836 0
M  V30 17515 N 1680.77 3.35035 4.74059 0
M  V30 17516 H 1683.54 2.91563 0.693641 0
M  V30 17517 H 1681.1 1.60234 0.231631 0
M  V30 17518 H 1683.09 2.49161 3.18906 0
M  V30 17519 H 1681.66 1.53758 2.72171 0
M  V30 17520 H 1680.88 3.66869 1.44224 0
M  V30 17521 H 1682.17 4.54419 2.28868 0
M  V30 17522 H 1681.57 2.77264 4.93094 0
M  V30 17523 H 1680.12 3.52409 5.48317 0
M  V30 17524 N 1683.56 -0.31543 1.54411 0
M  V30 17525 C 1684.5 -1.4086 1.85098 0
M  V30 17526 C 1685.5 -1.53172 0.723518 0
M  V30 17527 O 1686.7 -1.55461 0.907303 0
M  V30 17528 H 1683.08 -0.47022 0.586853 0
M  V30 17529 H 1685.05 -1.12207 2.765 0
M  V30 17530 C 1683.8 -2.76948 2.10227 0
M  V30 17531 H 1683.12 -2.68251 2.96448 0
M  V30 17532 H 1684.56 -3.52486 2.35647 0
M  V30 17533 C 1683.02 -3.24758 0.896312 0
M  V30 17534 O 1683.55 -4.0155 0.109609 0
M  V30 17535 N 1681.76 -2.81901 0.705685 0
M  V30 17536 H 1681.3 -2.19571 1.34708 0
M  V30 17537 H 1681.26 -3.14242 -0.0996804 0
M  V30 17538 N 1685.03 -1.46622 -0.577906 0
M  V30 17539 C 1685.96 -1.60413 -1.69676 0
M  V30 17540 C 1686.95 -0.454277 -1.63922 0
M  V30 17541 O 1688.13 -0.68111 -1.81864 0
M  V30 17542 C 1685.26 -1.59866 -3.08318 0
M  V30 17543 C 1684.21 -2.7387 -3.28906 0
M  V30 17544 C 1683.54 -2.58386 -4.68125 0
M  V30 17545 C 1684.84 -4.15652 -3.16276 0
M  V30 17546 H 1686.53 -2.54073 -1.5839 0
M  V30 17547 H 1684.08 -1.22275 -0.760572 0
M  V30 17548 H 1686.03 -1.68108 -3.86417 0
M  V30 17549 H 1684.76 -0.627541 -3.20514 0
M  V30 17550 H 1683.42 -2.65105 -2.53209 0
M  V30 17551 H 1683.06 -1.59347 -4.77093 0
M  V30 17552 H 1682.76 -3.34855 -4.82852 0
M  V30 17553 H 1684.29 -2.68525 -5.48385 0
M  V30 17554 H 1685.7 -4.25503 -3.84214 0
M  V30 17555 H 1684.1 -4.92746 -3.42523 0
M  V30 17556 H 1685.17 -4.35471 -2.13291 0
M  V30 17557 N 1686.51 0.822941 -1.34408 0
M  V30 17558 C 1687.74 1.60854 -1.29652 0
M  V30 17559 C 1688.15 1.88742 0.131572 0
M  V30 17560 O 1687.49 1.47936 1.08907 0
M  V30 17561 C 1687.56 2.97437 -2.0192 0
M  V30 17562 C 1687.22 2.92443 -3.51178 0
M  V30 17563 C 1688.22 2.67029 -4.46085 0
M  V30 17564 C 1685.9 3.12076 -3.93591 0
M  V30 17565 C 1687.9 2.61299 -5.81379 0
M  V30 17566 C 1685.58 3.05971 -5.28985 0
M  V30 17567 C 1686.58 2.80615 -6.22691 0
M  V30 17568 O 1686.27 2.74442 -7.55603 0
M  V30 17569 H 1686 0.506701 -0.447471 0
M  V30 17570 H 1688.55 1.03197 -1.77594 0
M  V30 17571 H 1686.78 3.57012 -1.48592 0
M  V30 17572 H 1688.47 3.58444 -1.90455 0
M  V30 17573 H 1689.24 2.51596 -4.14638 0
M  V30 17574 H 1685.12 3.30828 -3.21051 0
M  V30 17575 H 1688.66 2.41428 -6.54491 0
M  V30 17576 H 1684.56 3.20957 -5.60051 0
M  V30 17577 H 1685.33 2.90169 -7.65339 0
M  V30 17578 N 1687.99 1.18137 1.04314 0
M  V30 17579 C 1688.92 0.863879 2.12296 0
M  V30 17580 C 1689.94 -0.137469 1.62219 0
M  V30 17581 O 1691.12 0.0900306 1.78273 0
M  V30 17582 C 1688.22 0.269002 3.37831 0
M  V30 17583 C 1687.4 1.3154 4.17152 0
M  V30 17584 C 1686.46 0.736666 5.21018 0
M  V30 17585 O 1685.48 1.41075 5.5144 0
M  V30 17586 N 1686.68 -0.467037 5.78618 0
M  V30 17587 H 1689.45 1.7933 2.40127 0
M  V30 17588 H 1687.01 1.08142 1.20486 0
M  V30 17589 H 1689 -0.131671 4.04486 0
M  V30 17590 H 1687.57 -0.564386 3.07463 0
M  V30 17591 H 1686.79 1.89148 3.45856 0
M  V30 17592 H 1688.08 2.02093 4.66943 0
M  V30 17593 H 1687.48 -1.03247 5.56198 0
M  V30 17594 H 1686.04 -0.809663 6.46752 0
M  V30 17595 N 1689.47 -1.23186 0.98301 0
M  V30 17596 C 1690.4 -2.27054 0.544858 0
M  V30 17597 C 1691.38 -1.64749 -0.423281 0
M  V30 17598 O 1692.56 -1.91611 -0.316075 0
M  V30 17599 C 1689.69 -3.46972 -0.150976 0
M  V30 17600 C 1688.65 -4.21647 0.734707 0
M  V30 17601 C 1687.97 -5.34618 -0.0934874 0
M  V30 17602 C 1689.27 -4.81372 2.02679 0
M  V30 17603 H 1690.97 -2.63957 1.41305 0
M  V30 17604 H 1688.51 -1.26885 0.680895 0
M  V30 17605 H 1690.47 -4.18784 -0.468825 0
M  V30 17606 H 1689.19 -3.09137 -1.05364 0
M  V30 17607 H 1687.85 -3.51655 1.03605 0
M  V30 17608 H 1687.5 -4.93025 -0.996768 0
M  V30 17609 H 1687.2 -5.85503 0.496019 0
M  V30 17610 H 1688.72 -6.09251 -0.405658 0
M  V30 17611 H 1690.14 -5.45178 1.77353 0
M  V30 17612 H 1688.53 -5.42554 2.56429 0
M  V30 17613 H 1689.6 -4.01972 2.71194 0
M  V30 17614 N 1690.95 -0.754982 -1.38339 0
M  V30 17615 C 1691.86 -0.130303 -2.34238 0
M  V30 17616 C 1692.87 0.699048 -1.5934 0
M  V30 17617 O 1694.05 0.622876 -1.91526 0
M  V30 17618 C 1691.11 0.751285 -3.38462 0
M  V30 17619 C 1690.17 -0.0925987 -4.292 0
M  V30 17620 C 1689.41 0.747007 -5.28446 0
M  V30 17621 O 1689.63 1.98495 -5.34749 0
M  V30 17622 O 1688.56 0.165072 -6.01674 0
M  V30 17623 H 1692.39 -0.92233 -2.89356 0
M  V30 17624 H 1689.98 -0.515896 -1.4021 0
M  V30 17625 H 1691.86 1.2551 -4.02275 0
M  V30 17626 H 1690.53 1.52178 -2.85698 0
M  V30 17627 H 1689.44 -0.64239 -3.68543 0
M  V30 17628 H 1690.77 -0.825784 -4.85223 0
M  V30 17629 N 1692.42 1.49318 -0.504168 0
M  V30 17630 C 1693.67 2.02062 0.039149 0
M  V30 17631 C 1693.99 1.38577 1.37191 0
M  V30 17632 O 1693.26 0.542179 1.88248 0
M  V30 17633 H 1691.84 0.746796 0.0174575 0
M  V30 17634 H 1694.51 1.83308 -0.66213 0
M  V30 17635 H 1693.6 3.11656 0.166496 0
M  V30 17636 N 1693.9 0.238138 1.5579 0
M  V30 17637 C 1694.85 -0.681413 2.22395 0
M  V30 17638 C 1695.84 -1.18691 1.20867 0
M  V30 17639 O 1697.05 -1.14482 1.38903 0
M  V30 17640 H 1693.43 -0.238207 0.713275 0
M  V30 17641 H 1695.4 -0.0964141 2.98244 0
M  V30 17642 C 1694.15 -1.87137 2.93045 0
M  V30 17643 H 1693.47 -1.49153 3.70936 0
M  V30 17644 H 1694.91 -2.4922 3.43024 0
M  V30 17645 C 1693.37 -2.73709 1.9643 0
M  V30 17646 O 1693.9 -3.72973 1.49178 0
M  V30 17647 N 1692.1 -2.40092 1.6372 0
M  V30 17648 H 1691.65 -1.59423 2.02341 0
M  V30 17649 H 1691.61 -2.98293 0.993414 0
M  V30 17650 N 1695.38 -1.57561 -0.0350783 0
M  V30 17651 C 1696.33 -2.06163 -1.03756 0
M  V30 17652 C 1697.3 -0.94954 -1.36283 0
M  V30 17653 O 1698.48 -1.21971 -1.46723 0
M  V30 17654 C 1695.62 -2.54086 -2.33526 0
M  V30 17655 C 1694.74 -3.79062 -2.0721 0
M  V30 17656 C 1693.87 -4.1562 -3.30808 0
M  V30 17657 C 1692.91 -5.3353 -3.0002 0
M  V30 17658 N 1692.05 -5.65549 -4.16051 0
M  V30 17659 H 1696.89 -2.91561 -0.616137 0
M  V30 17660 H 1694.42 -1.4416 -0.292617 0
M  V30 17661 H 1696.38 -2.79935 -3.09342 0
M  V30 17662 H 1695.01 -1.71614 -2.73402 0
M  V30 17663 H 1694.06 -3.60333 -1.21919 0
M  V30 17664 H 1695.38 -4.64998 -1.80495 0
M  V30 17665 H 1694.53 -4.42565 -4.14995 0
M  V30 17666 H 1693.27 -3.28323 -3.60632 0
M  V30 17667 H 1692.27 -5.06344 -2.14234 0
M  V30 17668 H 1693.5 -6.22475 -2.7148 0
M  V30 17669 H 1691.44 -4.81211 -4.45838 0
M  V30 17670 H 1691.36 -6.45982 -3.92738 0
M  V30 17671 H 1692.63 -5.97068 -5.01129 0
M  V30 17672 N 1696.86 0.307236 -1.54576 0
M  V30 17673 C 1698.27 0.652539 -1.45651 0
M  V30 17674 C 1698.47 1.90978 -0.64263 0
M  V30 17675 O 1697.53 2.52067 -0.147863 0
M  V30 17676 C 1698.84 0.811341 -2.89547 0
M  V30 17677 C 1700.39 0.90763 -2.99551 0
M  V30 17678 C 1700.87 1.09848 -4.44632 0
M  V30 17679 N 1702.36 1.16483 -4.48315 0
M  V30 17680 C 1703.09 1.33068 -5.57746 0
M  V30 17681 N 1702.59 1.46591 -6.77114 0
M  V30 17682 N 1704.38 1.35906 -5.45423 0
M  V30 17683 H 1696.53 -0.518891 -2.05964 0
M  V30 17684 H 1698.8 -0.170463 -0.932548 0
M  V30 17685 H 1698.5 -0.0414879 -3.51676 0
M  V30 17686 H 1698.38 1.70224 -3.36606 0
M  V30 17687 H 1700.76 1.75095 -2.37541 0
M  V30 17688 H 1700.84 -0.00715386 -2.55799 0
M  V30 17689 H 1700.49 0.259948 -5.07234 0
M  V30 17690 H 1700.42 2.02739 -4.86009 0
M  V30 17691 H 1702.91 1.07411 -3.62314 0
M  V30 17692 H 1703.22 1.58983 -7.5627 0
M  V30 17693 H 1701.57 1.43658 -6.79991 0
M  V30 17694 H 1704.76 1.24949 -4.51116 0
M  V30 17695 H 1704.93 1.48489 -6.30758 0
M  V30 17696 N 1698.34 1.46926 0.570122 0
M  V30 17697 C 1699.59 1.52151 1.32413 0
M  V30 17698 C 1699.9 0.18291 1.94743 0
M  V30 17699 O 1701.1 0.113045 2.71265 0
M  V30 17700 C 1699.56 2.68153 2.40046 0
M  V30 17701 C 1699.17 4.08487 1.83963 0
M  V30 17702 C 1700.91 2.82659 3.16709 0
M  V30 17703 C 1698.82 5.1581 2.893 0
M  V30 17704 H 1697.75 0.566291 0.497826 0
M  V30 17705 H 1700.4 1.73169 0.607011 0
M  V30 17706 H 1698.78 2.40488 3.14613 0
M  V30 17707 H 1699.96 4.45998 1.15854 0
M  V30 17708 H 1698.27 3.98756 1.19927 0
M  V30 17709 H 1700.87 3.60008 3.95346 0
M  V30 17710 H 1701.21 1.9063 3.70089 0
M  V30 17711 H 1701.74 3.10031 2.4925 0
M  V30 17712 H 1698.48 6.09672 2.40791 0
M  V30 17713 H 1698 4.8283 3.55859 0
M  V30 17714 H 1699.68 5.42201 3.53026 0
M  V30 17715 N 1699.82 -0.815801 1.34842 0
M  V30 17716 C 1701.04 -1.60397 1.30693 0
M  V30 17717 C 1701.46 -1.88434 -0.117536 0
M  V30 17718 O 1700.82 -1.48076 -1.06676 0
M  V30 17719 C 1700.87 -2.94069 2.10252 0
M  V30 17720 O 1700.59 -2.67251 3.47143 0
M  V30 17721 C 1702.09 -3.88456 2.13581 0
M  V30 17722 H 1699.31 -0.49835 0.449319 0
M  V30 17723 H 1701.85 -1.01451 1.77561 0
M  V30 17724 H 1700.01 -3.49554 1.67006 0
M  V30 17725 H 1700.42 -3.52536 3.88354 0
M  V30 17726 H 1701.9 -4.79391 2.73658 0
M  V30 17727 H 1702.37 -4.24359 1.13209 0
M  V30 17728 H 1702.98 -3.38907 2.56947 0
M  V30 17729 N 1701.29 -1.18689 -1.03686 0
M  V30 17730 C 1702.53 -0.995625 -1.78512 0
M  V30 17731 C 1702.9 0.466151 -1.86255 0
M  V30 17732 O 1704.1 0.776976 -2.57326 0
M  V30 17733 C 1702.37 -1.63695 -3.17709 0
M  V30 17734 S 1703.93 -1.59397 -4.08825 0
M  V30 17735 H 1700.75 -0.357446 -0.614616 0
M  V30 17736 H 1703.35 -1.50899 -1.24297 0
M  V30 17737 H 1702.05 -2.69301 -3.09685 0
M  V30 17738 H 1701.58 -1.12404 -3.77 0
M  V30 17739 H 1703.6 -0.61254 -4.92405 0
M  V30 17740 N 1702.77 1.22662 -0.989529 0
M  V30 17741 C 1704.19 1.43445 -0.699687 0
M  V30 17742 C 1704.39 1.87778 0.730875 0
M  V30 17743 O 1703.44 2.02953 1.5022 0
M  V30 17744 C 1704.76 2.47869 -1.70239 0
M  V30 17745 C 1706.3 2.61672 -1.71746 0
M  V30 17746 C 1706.78 3.69315 -2.7087 0
M  V30 17747 N 1708.27 3.76768 -2.69444 0
M  V30 17748 C 1709.01 4.59641 -3.42808 0
M  V30 17749 N 1708.5 5.46533 -4.25762 0
M  V30 17750 N 1710.29 4.53921 -3.3153 0
M  V30 17751 H 1702.45 0.921912 -1.91349 0
M  V30 17752 H 1704.71 0.466905 -0.825048 0
M  V30 17753 H 1704.41 2.22233 -2.7259 0
M  V30 17754 H 1704.29 3.46415 -1.49254 0
M  V30 17755 H 1706.68 2.86655 -0.70094 0
M  V30 17756 H 1706.76 1.63413 -1.96799 0
M  V30 17757 H 1706.4 3.4508 -3.72669 0
M  V30 17758 H 1706.33 4.67136 -2.43088 0
M  V30 17759 H 1708.82 3.1468 -2.09249 0
M  V30 17760 H 1709.13 6.06783 -4.78575 0
M  V30 17761 H 1707.48 5.46126 -4.2985 0
M  V30 17762 H 1710.67 3.85062 -2.66168 0
M  V30 17763 H 1710.84 5.18277 -3.88964 0
M  V30 17764 N 1704.25 0.762308 1.37937 0
M  V30 17765 C 1705.2 0.129897 2.32237 0
M  V30 17766 C 1706.19 -0.695577 1.54461 0
M  V30 17767 O 1707.4 -0.593697 1.69927 0
M  V30 17768 H 1703.77 0.023214 0.751642 0
M  V30 17769 H 1705.74 0.941144 2.8317 0
M  V30 17770 C 1704.49 -0.742235 3.39685 0
M  V30 17771 H 1703.82 -0.116427 3.9963 0
M  V30 17772 H 1705.26 -1.15187 4.08054 0
M  V30 17773 C 1703.71 -1.8887 2.7898 0
M  V30 17774 O 1704.24 -2.98351 2.68979 0
M  V30 17775 N 1702.45 -1.68642 2.36661 0
M  V30 17776 H 1702 -0.795945 2.44995 0
M  V30 17777 H 1701.96 -2.45519 1.96387 0
M  V30 17778 N 1705.73 -1.49049 0.51208 0
M  V30 17779 C 1706.98 -2.0208 -0.0284326 0
M  V30 17780 C 1707.3 -1.39303 -1.36454 0
M  V30 17781 O 1706.57 -0.552155 -1.87958 0
M  V30 17782 H 1705.15 -0.746878 -0.0134968 0
M  V30 17783 H 1707.81 -1.82954 0.671842 0
M  V30 17784 H 1706.9 -3.11739 -0.149966 0
M  V30 17785 N 1707.21 -0.246397 -1.55662 0
M  V30 17786 C 1708.14 0.686113 -2.1869 0
M  V30 17787 C 1709.15 1.13915 -1.16306 0
M  V30 17788 O 1710.34 1.06601 -1.43173 0
M  V30 17789 C 1707.44 1.94426 -2.77582 0
M  V30 17790 C 1706.61 1.64275 -4.0538 0
M  V30 17791 C 1705.67 2.75044 -4.48595 0
M  V30 17792 O 1704.7 2.42451 -5.14982 0
M  V30 17793 N 1705.9 4.04528 -4.16338 0
M  V30 17794 H 1708.66 0.146832 -2.9934 0
M  V30 17795 H 1706.23 -0.0663398 -1.61764 0
M  V30 17796 H 1708.22 2.67768 -3.0345 0
M  V30 17797 H 1706.79 2.39334 -2.01091 0
M  V30 17798 H 1706.01 0.744531 -3.87105 0
M  V30 17799 H 1707.3 1.41594 -4.88701 0
M  V30 17800 H 1706.69 4.33841 -3.6304 0
M  V30 17801 H 1705.25 4.74337 -4.47043 0
M  V30 17802 N 1708.68 1.57577 0.026722 0
M  V30 17803 C 1709.93 1.90507 0.712634 0
M  V30 17804 C 1710.28 0.845249 1.72839 0
M  V30 17805 O 1709.58 -0.145782 1.91045 0
M  V30 17806 C 1709.77 3.27927 1.42121 0
M  V30 17807 C 1709.6 4.47178 0.475595 0
M  V30 17808 C 1708.37 5.05209 0.0957809 0
M  V30 17809 C 1710.57 5.13707 -0.246993 0
M  V30 17810 N 1708.55 6.07975 -0.850841 0
M  V30 17811 C 1709.92 6.11058 -1.0492 0
M  V30 17812 C 1711.98 4.96911 -0.313686 0
M  V30 17813 C 1710.68 6.93424 -1.91197 0
M  V30 17814 C 1712.71 5.7984 -1.16359 0
M  V30 17815 C 1712.07 6.76764 -1.95371 0
M  V30 17816 H 1708.17 0.745919 0.234797 0
M  V30 17817 H 1710.75 1.94681 -0.027342 0
M  V30 17818 H 1708.92 3.24678 2.13163 0
M  V30 17819 H 1710.65 3.48366 2.05969 0
M  V30 17820 H 1707.41 4.71376 0.458466 0
M  V30 17821 H 1707.83 6.64032 -1.31873 0
M  V30 17822 H 1712.47 4.21853 0.28288 0
M  V30 17823 H 1710.19 7.67825 -2.51932 0
M  V30 17824 H 1713.78 5.68892 -1.21876 0
M  V30 17825 H 1712.66 7.39818 -2.60074 0
M  V30 17826 N 1710.16 -0.299034 1.54737 0
M  V30 17827 C 1711.39 -1.05723 1.7843 0
M  V30 17828 C 1711.81 -1.80089 0.543094 0
M  V30 17829 O 1711.17 -1.74083 -0.506438 0
M  V30 17830 C 1711.22 -2.01193 2.99255 0
M  V30 17831 O 1710.32 -3.09528 2.72518 0
M  V30 17832 H 1709.66 -0.303614 0.590521 0
M  V30 17833 H 1712.19 -0.335859 2.01825 0
M  V30 17834 H 1712.2 -2.43623 3.27279 0
M  V30 17835 H 1710.88 -1.46472 3.89254 0
M  V30 17836 H 1709.45 -2.71599 2.55516 0
M  V30 17837 N 1711.64 -1.47227 -0.562322 0
M  V30 17838 C 1712.55 -1.61953 -1.69731 0
M  V30 17839 C 1713.57 -0.502478 -1.66587 0
M  V30 17840 O 1714.74 -0.769335 -1.86127 0
M  V30 17841 C 1711.81 -1.62539 -3.06238 0
M  V30 17842 C 1710.87 -2.85632 -3.20489 0
M  V30 17843 C 1710.1 -2.86181 -4.50485 0
M  V30 17844 O 1710.32 -1.96099 -5.35632 0
M  V30 17845 O 1709.26 -3.7798 -4.68417 0
M  V30 17846 H 1713.08 -2.5798 -1.6025 0
M  V30 17847 H 1710.67 -1.30253 -0.73174 0
M  V30 17848 H 1712.55 -1.65634 -3.87483 0
M  V30 17849 H 1711.23 -0.696779 -3.16112 0
M  V30 17850 H 1710.13 -2.88084 -2.3866 0
M  V30 17851 H 1711.47 -3.7777 -3.15517 0
M  V30 17852 N 1713.12 0.808639 -1.35273 0
M  V30 17853 C 1714.53 1.38248 -1.25477 0
M  V30 17854 C 1714.88 1.9587 0.113715 0
M  V30 17855 O 1714 1.91141 1.0146 0
M  V30 17856 C 1714.6 2.5133 -2.27197 0
M  V30 17857 C 1713.16 3.04582 -2.21148 0
M  V30 17858 C 1712.31 1.77534 -2.13019 0
M  V30 17859 H 1715.26 0.611844 -1.46431 0
M  V30 17860 H 1715.28 3.29825 -1.89726 0
M  V30 17861 H 1714.79 2.09362 -3.26786 0
M  V30 17862 H 1712.89 3.5102 -1.24963 0
M  V30 17863 H 1713 3.62703 -3.13023 0
M  V30 17864 H 1711.37 1.99004 -1.58964 0
M  V30 17865 H 1712.15 1.3772 -3.14465 0
M  V30 17866 N 1714.6 1.19237 1.03055 0
M  V30 17867 C 1716.01 0.996569 1.57878 0
M  V30 17868 C 1716.36 -0.450987 1.90946 0
M  V30 17869 O 1715.48 -1.33009 1.70697 0
M  V30 17870 C 1716.08 1.80272 2.86858 0
M  V30 17871 C 1714.64 1.65097 3.3826 0
M  V30 17872 C 1713.78 1.79079 2.11721 0
M  V30 17873 H 1716.74 1.33633 0.856037 0
M  V30 17874 H 1716.76 1.29781 3.57683 0
M  V30 17875 H 1716.27 2.85621 2.62759 0
M  V30 17876 H 1714.37 0.623267 3.6735 0
M  V30 17877 H 1714.48 2.45527 4.11404 0
M  V30 17878 H 1712.85 1.22124 2.23512 0
M  V30 17879 H 1713.63 2.85885 1.90065 0
M  V30 17880 N 1716.07 -1.22136 0.99602 0
M  V30 17881 C 1717.02 -2.24178 0.54889 0
M  V30 17882 C 1717.99 -1.60692 -0.420391 0
M  V30 17883 O 1719.18 -1.88021 -0.324452 0
M  V30 17884 C 1716.32 -3.44865 -0.127239 0
M  V30 17885 C 1715.43 -4.22855 0.884153 0
M  V30 17886 C 1714.56 -5.30891 0.181219 0
M  V30 17887 C 1713.6 -6.00603 1.18077 0
M  V30 17888 N 1712.74 -7.00275 0.505927 0
M  V30 17889 H 1717.58 -2.61788 1.42377 0
M  V30 17890 H 1715.12 -1.28658 0.713124 0
M  V30 17891 H 1717.08 -4.1374 -0.536194 0
M  V30 17892 H 1715.71 -3.0801 -0.965892 0
M  V30 17893 H 1714.76 -3.53247 1.41141 0
M  V30 17894 H 1716.07 -4.70888 1.64518 0
M  V30 17895 H 1715.22 -6.06033 -0.284307 0
M  V30 17896 H 1713.96 -4.83841 -0.612289 0
M  V30 17897 H 1712.97 -5.2424 1.65689 0
M  V30 17898 H 1714.19 -6.4974 1.9752 0
M  V30 17899 H 1712.14 -6.55452 -0.268088 0
M  V30 17900 H 1712.06 -7.46329 1.20535 0
M  V30 17901 H 1713.32 -7.79474 0.0633069 0
M  V30 17902 N 1717.55 -0.769612 -1.37531 0
M  V30 17903 C 1718.79 -0.338106 -2.01584 0
M  V30 17904 C 1719.16 1.06474 -1.59773 0
M  V30 17905 O 1720.36 1.59624 -2.16272 0
M  V30 17906 C 1718.63 -0.474572 -3.54235 0
M  V30 17907 S 1720.19 -0.128014 -4.38613 0
M  V30 17908 H 1717.01 -0.130211 -0.698975 0
M  V30 17909 H 1719.61 -1.00376 -1.67765 0
M  V30 17910 H 1718.31 -1.49622 -3.82154 0
M  V30 17911 H 1717.84 0.207706 -3.92851 0
M  V30 17912 H 1719.86 1.07715 -4.84368 0
M  V30 17913 N 1719.03 1.48775 -0.519977 0
M  V30 17914 C 1719.96 2.32292 0.237213 0
M  V30 17915 C 1720.94 1.4146 0.944625 0
M  V30 17916 O 1722.13 1.70355 0.932349 0
M  V30 17917 C 1719.26 3.22426 1.29068 0
M  V30 17918 C 1718.21 4.22204 0.702011 0
M  V30 17919 C 1717.54 5.01403 1.85739 0
M  V30 17920 C 1718.84 5.21321 -0.319626 0
M  V30 17921 H 1720.53 2.95846 -0.459949 0
M  V30 17922 H 1718.08 1.42268 -0.222641 0
M  V30 17923 H 1720.03 3.79674 1.82826 0
M  V30 17924 H 1718.75 2.56853 2.01728 0
M  V30 17925 H 1717.41 3.66128 0.186027 0
M  V30 17926 H 1717.06 4.32262 2.57214 0
M  V30 17927 H 1716.76 5.68929 1.46949 0
M  V30 17928 H 1718.28 5.615 2.39895 0
M  V30 17929 H 1719.7 5.73151 0.130505 0
M  V30 17930 H 1718.1 5.96843 -0.624377 0
M  V30 17931 H 1719.17 4.69069 -1.22893 0
M  V30 17932 N 1720.51 0.254649 1.55529 0
M  V30 17933 C 1721.46 -0.655705 2.18368 0
M  V30 17934 C 1722.44 -1.13353 1.14192 0
M  V30 17935 O 1723.63 -1.08201 1.40077 0
M  V30 17936 C 1720.76 -1.84883 2.89263 0
M  V30 17937 C 1719.85 -1.38914 4.00704 0
M  V30 17938 N 1720.24 -0.6442 5.01681 0
M  V30 17939 C 1718.54 -1.67379 4.13401 0
M  V30 17940 C 1719.24 -0.405172 5.80287 0
M  V30 17941 N 1718.22 -0.971651 5.34846 0
M  V30 17942 H 1722.02 -0.0784898 2.93795 0
M  V30 17943 H 1719.53 0.0573 1.62299 0
M  V30 17944 H 1721.53 -2.51209 3.32716 0
M  V30 17945 H 1720.19 -2.43019 2.15341 0
M  V30 17946 H 1721.2 -0.293541 5.17067 0
M  V30 17947 H 1717.88 -2.26599 3.50656 0
M  V30 17948 H 1719.27 0.190059 6.71631 0
M  V30 17949 N 1721.99 -1.57589 -0.0183649 0
M  V30 17950 C 1723.4 -1.7799 -0.563591 0
M  V30 17951 C 1723.75 -0.887064 -1.75002 0
M  V30 17952 O 1722.87 -0.0846843 -2.16234 0
M  V30 17953 C 1723.47 -3.2279 -1.02919 0
M  V30 17954 C 1722.03 -3.44351 -1.51986 0
M  V30 17955 C 1721.17 -2.73412 -0.462727 0
M  V30 17956 H 1724.13 -1.57333 0.207849 0
M  V30 17957 H 1724.15 -3.29892 -1.89609 0
M  V30 17958 H 1723.66 -3.87747 -0.165487 0
M  V30 17959 H 1721.76 -2.84583 -2.40506 0
M  V30 17960 H 1721.87 -4.52992 -1.55998 0
M  V30 17961 H 1720.24 -2.37496 -0.920211 0
M  V30 17962 H 1721.02 -3.41058 0.391698 0
M  V30 17963 N 1723.46 0.290824 -1.54893 0
M  V30 17964 C 1724.7 1.0326 -1.76399 0
M  V30 17965 C 1725.07 1.84136 -0.543874 0
M  V30 17966 O 1726.27 2.61147 -0.636854 0
M  V30 17967 C 1724.54 1.90632 -3.02315 0
M  V30 17968 S 1726.1 2.71317 -3.44866 0
M  V30 17969 H 1722.92 0.348084 -0.619966 0
M  V30 17970 H 1725.52 0.304897 -1.93108 0
M  V30 17971 H 1724.22 1.30109 -3.8923 0
M  V30 17972 H 1723.75 2.67753 -2.88222 0
M  V30 17973 H 1725.77 3.93148 -3.02737 0
M  V30 17974 N 1724.94 1.47523 0.554506 0
M  V30 17975 C 1726.19 1.54515 1.3135 0
M  V30 17976 C 1726.52 0.207892 1.93084 0
M  V30 17977 O 1725.8 -0.783749 1.7801 0
M  V30 17978 C 1726.08 2.66519 2.42156 0
M  V30 17979 C 1725.93 4.0987 1.85274 0
M  V30 17980 C 1727.25 2.74418 3.44068 0
M  V30 17981 H 1724.37 0.562481 0.476219 0
M  V30 17982 H 1727.01 1.79591 0.620246 0
M  V30 17983 H 1725.16 2.45268 3.0129 0
M  V30 17984 H 1726.83 4.42492 1.3038 0
M  V30 17985 H 1725.08 4.18021 1.15934 0
M  V30 17986 H 1725.75 4.84017 2.65389 0
M  V30 17987 H 1728.22 2.93596 2.94857 0
M  V30 17988 H 1727.1 3.54557 4.19023 0
M  V30 17989 H 1727.36 1.81584 4.03088 0
M  V30 17990 N 1726.42 -0.801453 1.357 0
M  V30 17991 C 1727.67 -1.55392 1.28594 0
M  V30 17992 C 1727.98 -1.95125 -0.136199 0
M  V30 17993 O 1729.19 -2.69492 -0.329568 0
M  V30 17994 C 1727.64 -2.80456 2.2555 0
M  V30 17995 C 1727.25 -2.47939 3.73135 0
M  V30 17996 C 1729 -3.58457 2.27396 0
M  V30 17997 C 1726.9 -3.69326 4.61901 0
M  V30 17998 H 1725.83 -0.583286 0.477801 0
M  V30 17999 H 1728.48 -0.880525 1.60994 0
M  V30 18000 H 1726.87 -3.49532 1.86127 0
M  V30 18001 H 1728.04 -1.86837 4.21223 0
M  V30 18002 H 1726.36 -1.83173 3.73947 0
M  V30 18003 H 1728.95 -4.48625 2.90929 0
M  V30 18004 H 1729.3 -3.96162 1.27912 0
M  V30 18005 H 1729.83 -2.96348 2.65373 0
M  V30 18006 H 1726.57 -3.36726 5.62402 0
M  V30 18007 H 1726.09 -4.29636 4.18536 0
M  V30 18008 H 1727.77 -4.36496 4.77578 0
M  V30 18009 N 1727.9 -1.19782 -1.02421 0
M  V30 18010 C 1729.12 -1.02939 -1.80051 0
M  V30 18011 C 1729.55 0.417153 -1.83416 0
M  V30 18012 O 1728.91 1.3001 -1.26361 0
M  V30 18013 C 1728.95 -1.60853 -3.22736 0
M  V30 18014 O 1728.06 -0.840999 -4.03734 0
M  V30 18015 H 1727.4 -0.363537 -0.555641 0
M  V30 18016 H 1729.93 -1.58908 -1.28878 0
M  V30 18017 H 1729.94 -1.64266 -3.73471 0
M  V30 18018 H 1728.61 -2.66135 -3.19602 0
M  V30 18019 H 1727.19 -0.880482 -3.62356 0
M  V30 18020 N 1729.38 1.21606 -1.00248 0
M  V30 18021 C 1730.79 1.42695 -0.714862 0
M  V30 18022 C 1730.99 1.88542 0.710917 0
M  V30 18023 O 1730.05 2.04535 1.48059 0
M  V30 18024 C 1731.36 2.4605 -1.72858 0
M  V30 18025 C 1732.91 2.59836 -1.74511 0
M  V30 18026 C 1733.39 3.66421 -2.74772 0
M  V30 18027 N 1734.88 3.73889 -2.73425 0
M  V30 18028 C 1735.61 4.5598 -3.47664 0
M  V30 18029 N 1735.11 5.41987 -4.31535 0
M  V30 18030 N 1736.9 4.50379 -3.36326 0
M  V30 18031 H 1729.05 0.901565 -1.92316 0
M  V30 18032 H 1731.31 0.458128 -0.829954 0
M  V30 18033 H 1731.02 2.19329 -2.74932 0
M  V30 18034 H 1730.89 3.44812 -1.5292 0
M  V30 18035 H 1733.28 2.85895 -0.731304 0
M  V30 18036 H 1733.36 1.61317 -1.98521 0
M  V30 18037 H 1733.01 3.41108 -3.76308 0
M  V30 18038 H 1732.94 4.64531 -2.48029 0
M  V30 18039 H 1735.43 3.12443 -2.12575 0
M  V30 18040 H 1735.74 6.01673 -4.84984 0
M  V30 18041 H 1734.09 5.41537 -4.35618 0
M  V30 18042 H 1737.28 3.82217 -2.70237 0
M  V30 18043 H 1737.45 5.14122 -3.9444 0
M  V30 18044 N 1730.86 0.776895 1.37121 0
M  V30 18045 C 1731.77 0.167552 2.34001 0
M  V30 18046 C 1732.78 -0.673609 1.60432 0
M  V30 18047 O 1733.96 -0.592327 1.92493 0
M  V30 18048 C 1731.02 -0.697343 3.39615 0
M  V30 18049 C 1730.08 0.160869 4.28998 0
M  V30 18050 C 1729.32 -0.662841 5.29568 0
M  V30 18051 O 1729.54 -1.89962 5.37839 0
M  V30 18052 O 1728.47 -0.0693304 6.0186 0
M  V30 18053 H 1732.3 0.968247 2.87852 0
M  V30 18054 H 1729.88 0.538137 1.39372 0
M  V30 18055 H 1731.77 -1.19094 4.04221 0
M  V30 18056 H 1730.44 -1.47614 2.88083 0
M  V30 18057 H 1729.35 0.700941 3.67475 0
M  V30 18058 H 1730.68 0.902875 4.83848 0
M  V30 18059 N 1732.33 -1.48497 0.527859 0
M  V30 18060 C 1733.58 -2.01698 -0.00900086 0
M  V30 18061 C 1733.9 -1.4104 -1.35525 0
M  V30 18062 O 1735.1 -1.85726 -1.98035 0
M  V30 18063 C 1733.56 -3.59839 -0.0664428 0
M  V30 18064 C 1733.17 -4.2948 1.27479 0
M  V30 18065 C 1734.91 -4.20893 -0.552244 0
M  V30 18066 C 1732.82 -5.79548 1.17805 0
M  V30 18067 H 1731.75 -0.753966 -0.00713463 0
M  V30 18068 H 1734.4 -1.70779 0.67132 0
M  V30 18069 H 1732.78 -3.8759 -0.811795 0
M  V30 18070 H 1733.95 -4.13403 2.03554 0
M  V30 18071 H 1732.27 -3.80289 1.69616 0
M  V30 18072 H 1734.87 -5.30825 -0.642556 0
M  V30 18073 H 1735.21 -3.86066 -1.55752 0
M  V30 18074 H 1735.74 -3.97563 0.137363 0
M  V30 18075 H 1732.48 -6.18945 2.15841 0
M  V30 18076 H 1732 -5.98044 0.458624 0
M  V30 18077 H 1733.68 -6.41153 0.867834 0
M  V30 18078 N 1733.81 -0.262893 -1.55392 0
M  V30 18079 C 1734.74 0.670902 -2.18115 0
M  V30 18080 C 1735.72 1.1612 -1.13819 0
M  V30 18081 O 1736.91 1.23642 -1.42285 0
M  V30 18082 C 1734.03 1.91358 -2.79463 0
M  V30 18083 C 1733.08 1.5598 -3.96954 0
M  V30 18084 S 1733.91 0.648534 -5.31558 0
M  V30 18085 C 1735.07 1.89986 -5.96369 0
M  V30 18086 H 1735.3 0.137916 -2.9698 0
M  V30 18087 H 1732.83 -0.0472295 -1.54328 0
M  V30 18088 H 1734.79 2.62691 -3.15442 0
M  V30 18089 H 1733.45 2.4177 -2.00515 0
M  V30 18090 H 1732.65 2.48416 -4.38527 0
M  V30 18091 H 1732.25 0.926763 -3.62336 0
M  V30 18092 H 1734.54 2.84526 -6.14859 0
M  V30 18093 H 1735.48 1.52735 -6.91431 0
M  V30 18094 H 1735.89 2.05923 -5.256 0
M  V30 18095 N 1735.29 1.57597 0.0100073 0
M  V30 18096 C 1736.2 2.11209 1.02117 0
M  V30 18097 C 1737.22 1.05503 1.38366 0
M  V30 18098 O 1738.39 1.37348 1.47301 0
M  V30 18099 C 1735.46 2.59654 2.2974 0
M  V30 18100 C 1734.52 3.79921 1.99896 0
M  V30 18101 C 1733.75 4.26046 3.21435 0
M  V30 18102 O 1733.97 3.71566 4.32775 0
M  V30 18103 O 1732.91 5.18301 3.06018 0
M  V30 18104 H 1736.73 2.97805 0.595469 0
M  V30 18105 H 1734.32 1.47647 0.228208 0
M  V30 18106 H 1736.2 2.91058 3.04735 0
M  V30 18107 H 1734.88 1.76161 2.71568 0
M  V30 18108 H 1733.78 3.53506 1.22409 0
M  V30 18109 H 1735.12 4.64457 1.62912 0
M  V30 18110 N 1736.77 -0.282606 1.55045 0
M  V30 18111 C 1737.72 -1.36902 1.88044 0
M  V30 18112 C 1738.71 -1.51603 0.755845 0
M  V30 18113 O 1739.92 -1.53501 0.940074 0
M  V30 18114 H 1736.29 -0.457666 0.596696 0
M  V30 18115 H 1738.26 -1.06317 2.78818 0
M  V30 18116 C 1737.01 -2.72426 2.16054 0
M  V30 18117 H 1736.33 -2.61903 3.02071 0
M  V30 18118 H 1737.77 -3.47409 2.43071 0
M  V30 18119 C 1736.23 -3.22784 0.964996 0
M  V30 18120 O 1736.76 -4.01228 0.194759 0
M  V30 18121 N 1734.97 -2.80341 0.765322 0
M  V30 18122 H 1734.52 -2.16665 1.39335 0
M  V30 18123 H 1734.47 -3.14383 -0.0330026 0
M  V30 18124 N 1738.25 -1.47815 -0.546675 0
M  V30 18125 C 1739.48 -1.58384 -1.32658 0
M  V30 18126 C 1739.88 -0.236934 -1.87711 0
M  V30 18127 O 1739.23 0.781521 -1.66247 0
M  V30 18128 C 1739.29 -2.55766 -2.52634 0
M  V30 18129 C 1738.95 -4.01222 -2.18791 0
M  V30 18130 C 1739.95 -4.89399 -1.75455 0
M  V30 18131 C 1737.63 -4.46637 -2.29827 0
M  V30 18132 C 1739.63 -6.21014 -1.43598 0
M  V30 18133 C 1737.32 -5.78277 -1.97582 0
M  V30 18134 C 1738.31 -6.65288 -1.54536 0
M  V30 18135 O 1738 -7.9448 -1.22706 0
M  V30 18136 H 1737.73 -0.537236 -0.410309 0
M  V30 18137 H 1740.29 -1.94235 -0.667988 0
M  V30 18138 H 1738.52 -2.15003 -3.2142 0
M  V30 18139 H 1740.21 -2.56349 -3.14706 0
M  V30 18140 H 1740.97 -4.55556 -1.66414 0
M  V30 18141 H 1736.85 -3.79111 -2.62289 0
M  V30 18142 H 1740.4 -6.88885 -1.09926 0
M  V30 18143 H 1736.29 -6.1166 -2.06259 0
M  V30 18144 H 1737.06 -8.07081 -1.36246 0
M  V30 18145 N 1739.72 0.794246 -1.36123 0
M  V30 18146 C 1740.67 1.92808 -1.30108 0
M  V30 18147 C 1741.67 1.68289 -0.193734 0
M  V30 18148 O 1742.87 1.76354 -0.360454 0
M  V30 18149 H 1739.25 0.633671 -0.404926 0
M  V30 18150 H 1741.22 1.95 -2.2587 0
M  V30 18151 C 1739.97 3.29762 -1.10238 0
M  V30 18152 H 1739.29 3.49193 -1.9469 0
M  V30 18153 H 1740.73 4.09463 -1.10073 0
M  V30 18154 C 1739.19 3.36345 0.193222 0
M  V30 18155 O 1739.72 3.83832 1.18474 0
M  V30 18156 N 1737.92 2.89638 0.236243 0
M  V30 18157 H 1737.47 2.51186 -0.571245 0
M  V30 18158 H 1737.43 2.94424 1.1028 0
M  V30 18159 N 1741.2 1.20323 1.01785 0
M  V30 18160 C 1742.45 1.00688 1.74771 0
M  V30 18161 C 1742.76 -0.461769 1.90071 0
M  V30 18162 O 1743.97 -0.777214 2.60138 0
M  V30 18163 C 1742.43 1.75278 3.14334 0
M  V30 18164 C 1742.03 3.26227 3.0705 0
M  V30 18165 C 1743.78 1.64006 3.91538 0
M  V30 18166 C 1741.68 3.9336 4.41613 0
M  V30 18167 H 1740.61 0.373123 0.655206 0
M  V30 18168 H 1743.27 1.43931 1.13825 0
M  V30 18169 H 1741.65 1.24821 3.75813 0
M  V30 18170 H 1742.82 3.83888 2.54885 0
M  V30 18171 H 1741.14 3.37898 2.43339 0
M  V30 18172 H 1743.73 2.11503 4.91091 0
M  V30 18173 H 1744.08 0.59605 4.12011 0
M  V30 18174 H 1744.61 2.11869 3.36684 0
M  V30 18175 H 1741.35 4.97907 4.26344 0
M  V30 18176 H 1740.87 3.40488 4.93789 0
M  V30 18177 H 1742.55 3.97541 5.10461 0
M  V30 18178 N 1742.68 -1.21073 1.00892 0
M  V30 18179 C 1743.64 -2.21804 0.577543 0
M  V30 18180 C 1744.64 -1.56985 -0.348201 0
M  V30 18181 O 1745.83 -1.73653 -0.137947 0
M  V30 18182 C 1742.96 -3.40535 -0.157685 0
M  V30 18183 H 1744.16 -2.61483 1.46856 0
M  V30 18184 H 1741.71 -1.34402 0.79786 0
M  V30 18185 H 1742.45 -3.0635 -1.06397 0
M  V30 18186 H 1742.23 -3.88805 0.507238 0
M  V30 18187 H 1743.72 -4.152 -0.447109 0
M  V30 18188 N 1744.16 -0.784156 -1.36707 0
M  V30 18189 C 1745.09 -0.193081 -2.327 0
M  V30 18190 C 1746.07 0.668999 -1.56392 0
M  V30 18191 O 1747.25 0.603908 -1.84571 0
M  V30 18192 C 1744.38 0.677092 -3.40636 0
M  V30 18193 C 1743.34 -0.0846718 -4.27916 0
M  V30 18194 C 1742.66 0.905754 -5.26973 0
M  V30 18195 C 1743.96 -1.27085 -5.06603 0
M  V30 18196 H 1745.66 -0.995029 -2.82382 0
M  V30 18197 H 1743.2 -0.479929 -1.35767 0
M  V30 18198 H 1745.16 1.1005 -4.06776 0
M  V30 18199 H 1743.88 1.51169 -2.89509 0
M  V30 18200 H 1742.54 -0.488992 -3.63324 0
M  V30 18201 H 1742.19 1.73524 -4.72121 0
M  V30 18202 H 1741.89 0.400524 -5.86233 0
M  V30 18203 H 1743.41 1.32784 -5.95987 0
M  V30 18204 H 1744.83 -0.923469 -5.65814 0
M  V30 18205 H 1743.22 -1.70901 -5.7525 0
M  V30 18206 H 1744.29 -2.06882 -4.38552 0
M  V30 18207 N 1745.64 1.48215 -0.535727 0
M  V30 18208 C 1747.05 1.58417 -0.193977 0
M  V30 18209 C 1747.25 1.53705 1.30296 0
M  V30 18210 O 1746.31 1.42913 2.08164 0
M  V30 18211 C 1747.62 2.89819 -0.8016 0
M  V30 18212 C 1749.17 3.03359 -0.770858 0
M  V30 18213 C 1749.64 4.3743 -1.35716 0
M  V30 18214 N 1751.14 4.44012 -1.31938 0
M  V30 18215 C 1751.87 5.4627 -1.74287 0
M  V30 18216 N 1751.37 6.55454 -2.24393 0
M  V30 18217 N 1753.16 5.37187 -1.65489 0
M  V30 18218 H 1745.31 1.49521 -1.50855 0
M  V30 18219 H 1747.57 0.710306 -0.627829 0
M  V30 18220 H 1747.28 2.98939 -1.85278 0
M  V30 18221 H 1747.15 3.76144 -0.282036 0
M  V30 18222 H 1749.54 2.93848 0.271577 0
M  V30 18223 H 1749.62 2.1863 -1.32795 0
M  V30 18224 H 1749.27 4.47696 -2.39855 0
M  V30 18225 H 1749.2 5.20856 -0.775696 0
M  V30 18226 H 1751.69 3.65695 -0.952653 0
M  V30 18227 H 1752 7.29626 -2.54686 0
M  V30 18228 H 1750.34 6.56402 -2.2839 0
M  V30 18229 H 1753.54 4.50785 -1.26138 0
M  V30 18230 H 1753.71 6.16747 -1.98814 0
M  V30 18231 N 1747.11 0.27113 1.5525 0
M  V30 18232 C 1748.36 -0.340313 2.00533 0
M  V30 18233 C 1748.72 -1.53782 1.15623 0
M  V30 18234 O 1748.01 -1.90363 0.217368 0
M  V30 18235 C 1748.2 -0.776823 3.48856 0
M  V30 18236 C 1748.03 0.376843 4.48118 0
M  V30 18237 C 1746.8 0.859346 4.97939 0
M  V30 18238 C 1749 1.212 4.99815 0
M  V30 18239 N 1746.98 1.98289 5.80994 0
M  V30 18240 C 1748.35 2.1835 5.80279 0
M  V30 18241 C 1750.41 1.2458 4.82063 0
M  V30 18242 C 1749.11 3.18621 6.44882 0
M  V30 18243 C 1751.14 2.23693 5.47463 0
M  V30 18244 C 1750.5 3.19576 6.27734 0
M  V30 18245 H 1746.6 -0.0898119 0.776825 0
M  V30 18246 H 1749.18 0.394243 1.90667 0
M  V30 18247 H 1747.35 -1.48061 3.59072 0
M  V30 18248 H 1749.08 -1.36526 3.80976 0
M  V30 18249 H 1745.84 0.439328 4.71558 0
M  V30 18250 H 1746.26 2.54816 6.27214 0
M  V30 18251 H 1750.91 0.518302 4.19611 0
M  V30 18252 H 1748.62 3.92306 7.06486 0
M  V30 18253 H 1752.21 2.27044 5.3567 0
M  V30 18254 H 1751.09 3.95016 6.77445 0
M  V30 18255 N 1748.59 -1.576 -0.00164943 0
M  V30 18256 C 1749.82 -1.94775 -0.697872 0
M  V30 18257 C 1750.24 -0.873094 -1.67399 0
M  V30 18258 O 1749.59 0.148119 -1.81898 0
M  V30 18259 C 1749.64 -3.31963 -1.43117 0
M  V30 18260 O 1749.36 -4.35304 -0.494203 0
M  V30 18261 C 1750.87 -3.83588 -2.22206 0
M  V30 18262 H 1748.09 -0.6422 -0.194474 0
M  V30 18263 H 1750.63 -2.04441 0.04898 0
M  V30 18264 H 1748.78 -3.2361 -2.12967 0
M  V30 18265 H 1749.2 -5.14656 -1.0114 0
M  V30 18266 H 1750.67 -4.82012 -2.69014 0
M  V30 18267 H 1751.15 -3.16208 -3.0481 0
M  V30 18268 H 1751.76 -3.95111 -1.57376 0
M  V30 18269 N 1750.07 0.274379 -1.55193 0
M  V30 18270 C 1751.03 1.32237 -1.87206 0
M  V30 18271 C 1752.03 1.4242 -0.74654 0
M  V30 18272 O 1753.22 1.41595 -1.01472 0
M  V30 18273 C 1750.36 2.7039 -2.0761 0
M  V30 18274 H 1751.55 1.05083 -2.80887 0
M  V30 18275 H 1749.1 0.512375 -1.47663 0
M  V30 18276 H 1749.84 3.02727 -1.16306 0
M  V30 18277 H 1749.62 2.64385 -2.89556 0
M  V30 18278 H 1751.11 3.46114 -2.33655 0
M  V30 18279 N 1751.55 1.48103 0.538828 0
M  V30 18280 C 1752.5 1.61966 1.64425 0
M  V30 18281 C 1753.47 0.461999 1.59546 0
M  V30 18282 O 1754.65 0.684377 1.78104 0
M  V30 18283 C 1751.79 1.65711 3.02711 0
M  V30 18284 C 1750.9 2.92522 3.17891 0
M  V30 18285 C 1750.04 2.87485 4.46683 0
M  V30 18286 C 1749.08 4.0904 4.5536 0
M  V30 18287 N 1748.21 4.02131 5.7553 0
M  V30 18288 H 1753.05 2.5637 1.51916 0
M  V30 18289 H 1750.59 1.27146 0.739745 0
M  V30 18290 H 1752.55 1.65864 3.82812 0
M  V30 18291 H 1751.18 0.748045 3.14013 0
M  V30 18292 H 1750.23 3.02154 2.311 0
M  V30 18293 H 1751.54 3.82487 3.20165 0
M  V30 18294 H 1750.7 2.8599 5.35065 0
M  V30 18295 H 1749.44 1.95234 4.46917 0
M  V30 18296 H 1748.44 4.10819 3.65387 0
M  V30 18297 H 1749.67 5.02439 4.56872 0
M  V30 18298 H 1747.61 3.12695 5.76678 0
M  V30 18299 H 1747.53 4.85791 5.7926 0
M  V30 18300 H 1748.8 4.04682 6.66223 0
M  V30 18301 N 1753.03 -0.787016 1.36542 0
M  V30 18302 C 1753.96 -1.90844 1.26931 0
M  V30 18303 C 1754.97 -1.61707 0.188293 0
M  V30 18304 O 1756.16 -1.7291 0.443205 0
M  V30 18305 C 1753.26 -3.25709 0.936305 0
M  V30 18306 C 1752.43 -3.82607 2.11969 0
M  V30 18307 C 1751.49 -4.95916 1.75937 0
M  V30 18308 O 1750.52 -5.12307 2.48053 0
M  V30 18309 N 1751.72 -5.76331 0.694461 0
M  V30 18310 H 1754.49 -1.9961 2.23553 0
M  V30 18311 H 1752.05 -0.965401 1.29968 0
M  V30 18312 H 1754.04 -3.99008 0.676378 0
M  V30 18313 H 1752.61 -3.12544 0.0591364 0
M  V30 18314 H 1751.83 -3.01267 2.54227 0
M  V30 18315 H 1753.12 -4.17352 2.91024 0
M  V30 18316 H 1752.51 -5.65619 0.0957046 0
M  V30 18317 H 1751.07 -6.49923 0.494363 0
M  V30 18318 N 1754.5 -1.20861 -1.01145 0
M  V30 18319 C 1755.45 -0.962085 -2.09792 0
M  V30 18320 C 1756.42 0.109588 -1.65738 0
M  V30 18321 O 1757.61 -0.0362022 -1.90766 0
M  V30 18322 C 1754.75 -0.52586 -3.4107 0
M  V30 18323 C 1753.86 -1.66626 -3.98572 0
M  V30 18324 C 1752.99 -1.17983 -5.17932 0
M  V30 18325 C 1752.03 -2.29298 -5.67529 0
M  V30 18326 N 1751.17 -1.81836 -6.78145 0
M  V30 18327 H 1756.01 -1.89222 -2.30215 0
M  V30 18328 H 1753.55 -0.943108 -1.12889 0
M  V30 18329 H 1755.51 -0.25423 -4.16425 0
M  V30 18330 H 1754.14 0.367275 -3.20704 0
M  V30 18331 H 1753.19 -2.05268 -3.20264 0
M  V30 18332 H 1754.5 -2.50426 -4.3138 0
M  V30 18333 H 1753.65 -0.864477 -6.0051 0
M  V30 18334 H 1752.39 -0.311793 -4.86702 0
M  V30 18335 H 1751.4 -2.61644 -4.83552 0
M  V30 18336 H 1752.62 -3.16587 -6.00791 0
M  V30 18337 H 1750.57 -0.973665 -6.48734 0
M  V30 18338 H 1750.49 -2.59213 -7.10172 0
M  V30 18339 H 1751.75 -1.53315 -7.64274 0
M  V30 18340 N 1755.98 1.20536 -1.01532 0
M  V30 18341 C 1756.91 2.2553 -0.604866 0
M  V30 18342 C 1757.89 1.65814 0.379452 0
M  V30 18343 O 1759.08 1.92381 0.265162 0
M  V30 18344 C 1756.21 3.4725 0.0589292 0
M  V30 18345 C 1755.16 4.19551 -0.846241 0
M  V30 18346 C 1754.49 5.34678 -0.0482901 0
M  V30 18347 C 1755.79 4.75829 -2.1537 0
M  V30 18348 H 1757.48 2.60117 -1.48254 0
M  V30 18349 H 1755.03 1.25035 -0.714297 0
M  V30 18350 H 1756.98 4.1988 0.357627 0
M  V30 18351 H 1755.71 3.11822 0.97131 0
M  V30 18352 H 1754.36 3.48785 -1.12892 0
M  V30 18353 H 1754.01 4.95494 0.8657 0
M  V30 18354 H 1753.71 5.83982 -0.651081 0
M  V30 18355 H 1755.24 6.10112 0.243983 0
M  V30 18356 H 1756.65 5.40284 -1.91745 0
M  V30 18357 H 1755.05 5.35564 -2.70723 0
M  V30 18358 H 1756.12 3.94641 -2.81756 0
M  V30 18359 N 1757.46 0.791395 1.36289 0
M  V30 18360 C 1758.69 0.376149 2.03147 0
M  V30 18361 C 1759.1 -1.01287 1.59805 0
M  V30 18362 O 1758.44 -1.66134 0.78392 0
M  V30 18363 C 1758.5 0.362792 3.57665 0
M  V30 18364 C 1758.17 1.69972 4.24215 0
M  V30 18365 C 1759.16 2.65553 4.46965 0
M  V30 18366 C 1756.85 1.97956 4.61648 0
M  V30 18367 C 1758.84 3.87311 5.0623 0
M  V30 18368 C 1756.53 3.19981 5.2063 0
M  V30 18369 C 1757.53 4.14477 5.42861 0
M  V30 18370 O 1757.22 5.3435 6.00604 0
M  V30 18371 H 1756.95 0.152854 0.658492 0
M  V30 18372 H 1759.5 1.072 1.75206 0
M  V30 18373 H 1757.73 -0.389566 3.84733 0
M  V30 18374 H 1759.42 -0.0280568 4.0589 0
M  V30 18375 H 1760.19 2.4522 4.1844 0
M  V30 18376 H 1756.07 1.25222 4.43667 0
M  V30 18377 H 1759.61 4.61081 5.23498 0
M  V30 18378 H 1755.51 3.4019 5.48581 0
M  V30 18379 H 1756.28 5.3544 6.19069 0
M  V30 18380 N 1758.94 -1.47929 0.54358 0
M  V30 18381 C 1760.16 -2.07393 0.0168905 0
M  V30 18382 C 1760.59 -1.39557 -1.26117 0
M  V30 18383 O 1759.95 -0.465983 -1.75209 0
M  V30 18384 C 1760 -3.6017 -0.176105 0
M  V30 18385 O 1759.1 -3.9326 -1.24178 0
M  V30 18386 H 1758.44 -0.662459 0.0452126 0
M  V30 18387 H 1760.97 -1.90145 0.755376 0
M  V30 18388 H 1760.98 -4.06088 -0.394555 0
M  V30 18389 H 1759.66 -4.08944 0.757445 0
M  V30 18390 H 1758.23 -3.59105 -1.0049 0
M  V30 18391 N 1760.42 -0.27936 -1.55104 0
M  V30 18392 C 1761.83 0.074665 -1.59425 0
M  V30 18393 C 1762.03 1.54246 -1.29655 0
M  V30 18394 O 1761.09 2.29197 -1.05947 0
M  V30 18395 C 1762.4 -0.30379 -2.99162 0
M  V30 18396 C 1763.95 -0.250758 -3.11994 0
M  V30 18397 C 1764.43 -0.603715 -4.54004 0
M  V30 18398 N 1765.92 -0.555428 -4.59858 0
M  V30 18399 C 1766.65 -0.801278 -5.67774 0
M  V30 18400 N 1766.15 -1.11197 -6.83818 0
M  V30 18401 N 1767.94 -0.72979 -5.57342 0
M  V30 18402 H 1760.09 -1.23619 -1.7272 0
M  V30 18403 H 1762.35 -0.499704 -0.805606 0
M  V30 18404 H 1762.06 -1.32475 -3.25796 0
M  V30 18405 H 1761.93 0.353294 -3.75542 0
M  V30 18406 H 1764.32 0.760925 -2.85121 0
M  V30 18407 H 1764.4 -0.94216 -2.37817 0
M  V30 18408 H 1764.05 -1.6131 -4.81603 0
M  V30 18409 H 1763.98 0.109523 -5.26486 0
M  V30 18410 H 1766.47 -0.325348 -3.76497 0
M  V30 18411 H 1766.78 -1.28611 -7.62023 0
M  V30 18412 H 1765.13 -1.14978 -6.85423 0
M  V30 18413 H 1768.32 -0.48688 -4.65561 0
M  V30 18414 H 1768.49 -0.92477 -6.41367 0
M  V30 18415 N 1761.9 1.57599 -0.0067085 0
M  V30 18416 C 1763.12 1.95142 0.687533 0
M  V30 18417 C 1763.54 0.88196 1.66934 0
M  V30 18418 O 1762.9 -0.13847 1.81974 0
M  V30 18419 C 1762.95 3.32718 1.41355 0
M  V30 18420 O 1762.67 4.3556 0.471111 0
M  V30 18421 C 1764.17 3.84761 2.20168 0
M  V30 18422 H 1761.39 0.643222 0.191066 0
M  V30 18423 H 1763.93 2.04412 -0.0598214 0
M  V30 18424 H 1762.09 3.24735 2.11248 0
M  V30 18425 H 1762.5 5.15185 0.984091 0
M  V30 18426 H 1763.98 4.83432 2.66454 0
M  V30 18427 H 1764.45 3.1782 3.03129 0
M  V30 18428 H 1765.06 3.9594 1.55278 0
M  V30 18429 N 1763.37 -0.266145 1.55336 0
M  V30 18430 C 1764.62 -0.994862 1.75917 0
M  V30 18431 C 1764.94 -1.8657 0.567147 0
M  V30 18432 O 1764.21 -1.91394 -0.417738 0
M  V30 18433 H 1762.79 -0.370318 0.648748 0
M  V30 18434 H 1765.45 -0.288724 1.9275 0
M  V30 18435 H 1764.55 -1.62781 2.66287 0
M  V30 18436 N 1764.85 -1.48386 -0.530967 0
M  V30 18437 C 1765.76 -1.65516 -1.66257 0
M  V30 18438 C 1766.78 -0.5377 -1.65483 0
M  V30 18439 O 1767.95 -0.808642 -1.84453 0
M  V30 18440 C 1765.02 -1.68999 -3.02722 0
M  V30 18441 C 1764.08 -2.92365 -3.14358 0
M  V30 18442 C 1763.31 -2.95672 -4.44313 0
M  V30 18443 O 1763.54 -2.07417 -5.31352 0
M  V30 18444 O 1762.47 -3.87831 -4.60294 0
M  V30 18445 H 1766.3 -2.61321 -1.54742 0
M  V30 18446 H 1763.88 -1.31776 -0.703946 0
M  V30 18447 H 1765.76 -1.73816 -3.83883 0
M  V30 18448 H 1764.44 -0.763675 -3.14563 0
M  V30 18449 H 1763.34 -2.93081 -2.32496 0
M  V30 18450 H 1764.68 -3.84378 -3.07433 0
M  V30 18451 N 1766.33 0.779763 -1.36958 0
M  V30 18452 C 1767.55 1.57389 -1.35068 0
M  V30 18453 C 1767.98 1.87993 0.0635244 0
M  V30 18454 O 1767.34 1.48625 1.03828 0
M  V30 18455 C 1767.39 2.86582 -2.18868 0
M  V30 18456 O 1766.49 3.80609 -1.58779 0
M  V30 18457 H 1765.83 0.477052 -0.461863 0
M  V30 18458 H 1768.36 0.965741 -1.80373 0
M  V30 18459 H 1768.37 3.35761 -2.31794 0
M  V30 18460 H 1767.05 2.63635 -3.21666 0
M  V30 18461 H 1765.62 3.39229 -1.54848 0
M  V30 18462 N 1767.81 1.21396 1.00503 0
M  V30 18463 C 1769.05 1.0327 1.74537 0
M  V30 18464 C 1769.39 -0.432746 1.89317 0
M  V30 18465 O 1768.66 -1.32111 1.42747 0
M  V30 18466 C 1768.94 1.73045 3.15797 0
M  V30 18467 C 1768.8 3.27108 3.0874 0
M  V30 18468 C 1770.12 1.47298 4.14718 0
M  V30 18469 H 1767.24 0.376563 0.633537 0
M  V30 18470 H 1769.88 1.49571 1.17169 0
M  V30 18471 H 1768.03 1.33682 3.64776 0
M  V30 18472 H 1769.7 3.75839 2.67475 0
M  V30 18473 H 1767.94 3.57413 2.45843 0
M  V30 18474 H 1768.61 3.71096 4.08646 0
M  V30 18475 H 1771.09 1.81468 3.74444 0
M  V30 18476 H 1769.97 1.98633 5.11699 0
M  V30 18477 H 1770.23 0.402981 4.4026 0
M  V30 18478 N 1769.29 -1.19996 1.0217 0
M  V30 18479 C 1770.2 -2.26634 0.606136 0
M  V30 18480 C 1771.21 -1.70262 -0.358746 0
M  V30 18481 O 1772.39 -2.00212 -0.218422 0
M  V30 18482 C 1769.45 -3.46672 -0.0439096 0
M  V30 18483 C 1768.51 -4.18254 0.967563 0
M  V30 18484 C 1767.75 -5.32561 0.348443 0
M  V30 18485 O 1767.97 -5.64024 -0.850508 0
M  V30 18486 O 1766.9 -5.92354 1.06772 0
M  V30 18487 H 1770.73 -2.64407 1.49407 0
M  V30 18488 H 1768.31 -1.26712 0.791483 0
M  V30 18489 H 1770.2 -4.19433 -0.406714 0
M  V30 18490 H 1768.87 -3.10764 -0.90596 0
M  V30 18491 H 1767.78 -3.47644 1.38183 0
M  V30 18492 H 1769.11 -4.58116 1.79975 0
M  V30 18493 N 1770.76 -0.798611 -1.35867 0
M  V30 18494 C 1772.01 -0.37526 -1.98993 0
M  V30 18495 C 1772.34 1.05549 -1.6337 0
M  V30 18496 O 1771.59 1.74552 -0.88488 0
M  V30 18497 C 1771.89 -0.496572 -3.53934 0
M  V30 18498 C 1771.56 -1.88946 -4.09402 0
M  V30 18499 C 1770.22 -2.27056 -4.24263 0
M  V30 18500 C 1772.57 -2.8011 -4.39531 0
M  V30 18501 C 1769.9 -3.55712 -4.66568 0
M  V30 18502 C 1772.25 -4.08205 -4.83272 0
M  V30 18503 C 1770.92 -4.46323 -4.96338 0
M  V30 18504 H 1770.19 -0.137317 -0.728165 0
M  V30 18505 H 1772.83 -1.01786 -1.6221 0
M  V30 18506 H 1771.14 0.229499 -3.91127 0
M  V30 18507 H 1772.84 -0.149903 -4.0072 0
M  V30 18508 H 1769.43 -1.58336 -3.98281 0
M  V30 18509 H 1773.61 -2.51919 -4.2761 0
M  V30 18510 H 1768.87 -3.85105 -4.74873 0
M  V30 18511 H 1773.04 -4.78952 -5.05547 0
M  V30 18512 H 1770.67 -5.4607 -5.28877 0
M  V30 18513 N 1772.24 1.47639 -0.551417 0
M  V30 18514 C 1773.49 2.02784 -0.0252425 0
M  V30 18515 C 1773.82 1.42549 1.31884 0
M  V30 18516 O 1773.1 0.578954 1.85684 0
M  V30 18517 C 1773.38 3.60024 0.0740051 0
M  V30 18518 C 1773.23 4.30702 -1.29676 0
M  V30 18519 C 1774.55 4.32946 0.790302 0
M  V30 18520 H 1771.67 0.736923 -0.0106473 0
M  V30 18521 H 1774.31 1.76131 -0.712589 0
M  V30 18522 H 1772.46 3.82863 0.65939 0
M  V30 18523 H 1774.13 4.1922 -1.9249 0
M  V30 18524 H 1772.38 3.91282 -1.87299 0
M  V30 18525 H 1773.05 5.39238 -1.18009 0
M  V30 18526 H 1775.52 4.15065 0.293326 0
M  V30 18527 H 1774.4 5.42608 0.828692 0
M  V30 18528 H 1774.66 4.01752 1.84521 0
M  V30 18529 N 1773.72 0.287581 1.54954 0
M  V30 18530 C 1774.96 -0.326648 2.01773 0
M  V30 18531 C 1775.32 -1.52113 1.17156 0
M  V30 18532 O 1776.53 -2.20583 1.53612 0
M  V30 18533 C 1774.8 -0.687249 3.5073 0
M  V30 18534 S 1776.36 -1.28624 4.19525 0
M  V30 18535 H 1773.17 -0.100972 0.703794 0
M  V30 18536 H 1775.78 0.412325 1.91102 0
M  V30 18537 H 1774.48 0.190782 4.09956 0
M  V30 18538 H 1774.01 -1.45736 3.6541 0
M  V30 18539 H 1776.03 -2.5745 4.24186 0
M  V30 18540 N 1775.2 -1.57593 0.0150662 0
M  V30 18541 C 1776.15 -2.0936 -0.971443 0
M  V30 18542 C 1777.12 -0.992416 -1.33193 0
M  V30 18543 O 1778.3 -1.26577 -1.42769 0
M  V30 18544 C 1775.44 -2.61386 -2.25324 0
M  V30 18545 C 1774.55 -3.85462 -1.95046 0
M  V30 18546 C 1773.69 -4.25934 -3.17418 0
M  V30 18547 C 1772.73 -5.42805 -2.82894 0
M  V30 18548 N 1771.86 -5.78499 -3.97848 0
M  V30 18549 H 1776.7 -2.93373 -0.523068 0
M  V30 18550 H 1774.24 -1.45018 -0.246605 0
M  V30 18551 H 1776.2 -2.89635 -3.00279 0
M  V30 18552 H 1774.83 -1.80225 -2.67804 0
M  V30 18553 H 1773.88 -3.64029 -1.10394 0
M  V30 18554 H 1775.19 -4.70505 -1.6561 0
M  V30 18555 H 1774.35 -4.55544 -4.00705 0
M  V30 18556 H 1773.09 -3.3963 -3.50004 0
M  V30 18557 H 1772.09 -5.12903 -1.98016 0
M  V30 18558 H 1773.32 -6.30797 -2.51539 0
M  V30 18559 H 1771.26 -4.95152 -4.30303 0
M  V30 18560 H 1771.18 -6.5815 -3.71988 0
M  V30 18561 H 1772.45 -6.12708 -4.8188 0
M  V30 18562 N 1776.68 0.257904 -1.55475 0
M  V30 18563 C 1778.09 0.605871 -1.47653 0
M  V30 18564 C 1778.29 1.88837 -0.703063 0
M  V30 18565 O 1777.35 2.51469 -0.227981 0
M  V30 18566 C 1778.66 0.718813 -2.91982 0
M  V30 18567 C 1780.21 0.81187 -3.02287 0
M  V30 18568 C 1780.68 0.956465 -4.47901 0
M  V30 18569 N 1782.18 1.02161 -4.51793 0
M  V30 18570 C 1782.91 1.15256 -5.61697 0
M  V30 18571 N 1782.41 1.24975 -6.81435 0
M  V30 18572 N 1784.2 1.18485 -5.4947 0
M  V30 18573 H 1776.35 -0.584154 -2.04209 0
M  V30 18574 H 1778.61 -0.200045 -0.926653 0
M  V30 18575 H 1778.32 -0.15335 -3.51366 0
M  V30 18576 H 1778.19 1.59429 -3.41851 0
M  V30 18577 H 1780.58 1.67449 -2.42991 0
M  V30 18578 H 1780.66 -0.0885307 -2.55647 0
M  V30 18579 H 1780.31 0.0984438 -5.07805 0
M  V30 18580 H 1780.24 1.87174 -4.92213 0
M  V30 18581 H 1782.73 0.958295 -3.65548 0
M  V30 18582 H 1783.04 1.34843 -7.60945 0
M  V30 18583 H 1781.38 1.21952 -6.84217 0
M  V30 18584 H 1784.58 1.10534 -4.54863 0
M  V30 18585 H 1784.75 1.28346 -6.35162 0
M  V30 18586 N 1778.15 1.48666 0.52309 0
M  V30 18587 C 1779.4 1.56724 1.27601 0
M  V30 18588 C 1779.72 0.245958 1.93443 0
M  V30 18589 O 1778.99 -0.733053 1.81668 0
M  V30 18590 H 1777.57 0.57739 0.473952 0
M  V30 18591 H 1780.24 1.85169 0.608144 0
M  V30 18592 H 1779.33 2.35188 2.05166 0
M  V30 18593 N 1779.63 -0.772489 1.37369 0
M  V30 18594 C 1780.86 -1.55931 1.35532 0
M  V30 18595 C 1781.27 -1.891 -0.0614314 0
M  V30 18596 O 1780.61 -1.51876 -1.03342 0
M  V30 18597 C 1780.68 -2.89737 2.1282 0
M  V30 18598 C 1780.34 -2.79208 3.6179 0
M  V30 18599 C 1781.34 -2.50289 4.55688 0
M  V30 18600 C 1779.02 -2.97253 4.04902 0
M  V30 18601 C 1781.02 -2.39542 5.90676 0
M  V30 18602 C 1778.7 -2.86127 5.39976 0
M  V30 18603 C 1779.7 -2.57311 6.32677 0
M  V30 18604 O 1779.39 -2.4621 7.65269 0
M  V30 18605 H 1779.12 -0.489744 0.465968 0
M  V30 18606 H 1781.67 -0.965344 1.81302 0
M  V30 18607 H 1779.9 -3.51251 1.6174 0
M  V30 18608 H 1781.59 -3.51128 2.03627 0
M  V30 18609 H 1782.36 -2.36034 4.2369 0
M  V30 18610 H 1778.24 -3.18684 3.33109 0
M  V30 18611 H 1781.78 -2.16971 6.63 0
M  V30 18612 H 1777.68 -2.9995 5.71577 0
M  V30 18613 H 1778.45 -2.61564 7.75581 0
M  V30 18614 N 1781.11 -1.21927 -0.998575 0
M  V30 18615 C 1782.53 -0.978007 -1.26124 0
M  V30 18616 C 1782.73 0.3318 -1.98749 0
M  V30 18617 O 1781.78 1.05585 -2.29364 0
M  V30 18618 C 1783.1 -2.17291 -2.07858 0
M  V30 18619 C 1784.64 -2.21586 -2.21062 0
M  V30 18620 C 1785.12 -3.40613 -3.06181 0
M  V30 18621 N 1786.61 -3.40739 -3.13769 0
M  V30 18622 C 1787.34 -4.29488 -3.79905 0
M  V30 18623 N 1786.84 -5.28445 -4.48015 0
M  V30 18624 N 1788.63 -4.17279 -3.76609 0
M  V30 18625 H 1780.78 -2.06149 -0.51151 0
M  V30 18626 H 1783.05 -0.903039 -0.288487 0
M  V30 18627 H 1782.75 -3.12246 -1.61851 0
M  V30 18628 H 1782.63 -2.16883 -3.08612 0
M  V30 18629 H 1785.01 -1.27183 -2.66286 0
M  V30 18630 H 1785.1 -2.26035 -1.19757 0
M  V30 18631 H 1784.74 -4.35313 -2.61659 0
M  V30 18632 H 1784.67 -3.33403 -4.07615 0
M  V30 18633 H 1787.16 -2.69128 -2.65289 0
M  V30 18634 H 1787.47 -5.92454 -4.96203 0
M  V30 18635 H 1785.82 -5.32364 -4.46782 0
M  V30 18636 H 1789.01 -3.39226 -3.22557 0
M  V30 18637 H 1789.18 -4.86651 -4.27873 0
M  V30 18638 N 1782.59 1.19452 -1.02805 0
M  V30 18639 C 1783.52 2.24875 -0.628752 0
M  V30 18640 C 1784.5 1.66207 0.361844 0
M  V30 18641 O 1785.68 1.92652 0.244743 0
M  V30 18642 C 1782.81 3.47293 0.0220954 0
M  V30 18643 C 1781.77 4.1863 -0.890693 0
M  V30 18644 C 1781.09 5.34597 -0.104997 0
M  V30 18645 C 1782.39 4.73518 -2.20405 0
M  V30 18646 H 1784.09 2.5853 -1.51005 0
M  V30 18647 H 1781.63 1.24271 -0.727518 0
M  V30 18648 H 1783.59 4.20235 0.313073 0
M  V30 18649 H 1782.31 3.12835 0.938182 0
M  V30 18650 H 1780.97 3.47568 -1.16585 0
M  V30 18651 H 1780.62 4.96385 0.813098 0
M  V30 18652 H 1780.32 5.83258 -0.712983 0
M  V30 18653 H 1781.84 6.10337 0.179259 0
M  V30 18654 H 1783.26 5.3822 -1.97465 0
M  V30 18655 H 1781.65 5.32663 -2.76388 0
M  V30 18656 H 1782.72 3.9163 -2.85926 0
M  V30 18657 N 1784.07 0.805805 1.35442 0
M  V30 18658 C 1785.29 0.397179 2.03561 0
M  V30 18659 C 1785.72 -0.983665 1.6033 0
M  V30 18660 O 1785.07 -1.63683 0.779586 0
M  V30 18661 C 1785.12 0.487813 3.57285 0
M  V30 18662 O 1784.23 -0.499039 4.09369 0
M  V30 18663 H 1783.57 0.166009 0.642913 0
M  V30 18664 H 1786.1 1.09147 1.73055 0
M  V30 18665 H 1786.11 0.357334 4.06432 0
M  V30 18666 H 1784.78 1.49501 3.88101 0
M  V30 18667 H 1783.36 -0.328864 3.71447 0
M  V30 18668 N 1785.54 -1.47344 0.559239 0
M  V30 18669 C 1786.77 -2.07364 0.0388864 0
M  V30 18670 C 1787.19 -1.40886 -1.2463 0
M  V30 18671 O 1786.55 -0.48454 -1.74705 0
M  V30 18672 C 1786.6 -3.60336 -0.137894 0
M  V30 18673 O 1785.7 -3.94555 -1.2 0
M  V30 18674 H 1785.05 -0.661942 0.0522363 0
M  V30 18675 H 1787.58 -1.89333 0.7755 0
M  V30 18676 H 1787.59 -4.06483 -0.351462 0
M  V30 18677 H 1786.26 -4.08118 0.800776 0
M  V30 18678 H 1784.84 -3.6015 -0.966757 0
M  V30 18679 N 1787.02 -0.295795 -1.54799 0
M  V30 18680 C 1788.44 0.0577516 -1.59495 0
M  V30 18681 C 1788.64 1.52862 -1.31284 0
M  V30 18682 O 1787.69 2.28061 -1.08372 0
M  V30 18683 C 1789.01 -0.335503 -2.98822 0
M  V30 18684 C 1790.56 -0.283835 -3.1171 0
M  V30 18685 C 1791.03 -0.651835 -4.53338 0
M  V30 18686 N 1792.52 -0.604171 -4.59243 0
M  V30 18687 C 1793.26 -0.861453 -5.66892 0
M  V30 18688 N 1792.75 -1.18443 -6.826 0
M  V30 18689 N 1794.55 -0.788863 -5.56537 0
M  V30 18690 H 1786.7 -1.25444 -1.71399 0
M  V30 18691 H 1788.96 -0.50822 -0.80026 0
M  V30 18692 H 1788.67 -1.35923 -3.24373 0
M  V30 18693 H 1788.54 0.313443 -3.75895 0
M  V30 18694 H 1790.93 0.730641 -2.85912 0
M  V30 18695 H 1791.01 -0.967331 -2.36804 0
M  V30 18696 H 1790.65 -1.66409 -4.79865 0
M  V30 18697 H 1790.58 0.053676 -5.26573 0
M  V30 18698 H 1793.07 -0.365262 -3.76131 0
M  V30 18699 H 1793.39 -1.36686 -7.60616 0
M  V30 18700 H 1791.73 -1.22242 -6.84165 0
M  V30 18701 H 1794.92 -0.536231 -4.65018 0
M  V30 18702 H 1795.09 -0.992744 -6.4035 0
M  V30 18703 N 1788.5 1.57583 -0.0234236 0
M  V30 18704 C 1789.73 1.96267 0.670371 0
M  V30 18705 C 1790.15 0.899586 1.65194 0
M  V30 18706 O 1789.51 -0.140079 1.80758 0
M  V30 18707 C 1789.56 3.34049 1.35806 0
M  V30 18708 O 1788.66 3.3001 2.4732 0
M  V30 18709 H 1788 0.640097 0.176557 0
M  V30 18710 H 1790.53 2.04429 -0.0835829 0
M  V30 18711 H 1790.54 3.70151 1.71616 0
M  V30 18712 H 1789.22 4.10969 0.63852 0
M  V30 18713 H 1787.79 3.05618 2.13664 0
M  V30 18714 N 1789.98 -0.249655 1.5561 0
M  V30 18715 C 1790.93 -1.31189 1.86477 0
M  V30 18716 C 1791.91 -1.43619 0.725415 0
M  V30 18717 O 1793.11 -1.46907 0.987281 0
M  V30 18718 C 1790.23 -2.66786 2.16056 0
M  V30 18719 C 1789.32 -2.58371 3.36311 0
M  V30 18720 N 1789.71 -2.19587 4.55648 0
M  V30 18721 C 1788.01 -2.8939 3.39366 0
M  V30 18722 C 1788.71 -2.21737 5.3778 0
M  V30 18723 N 1787.69 -2.61131 4.76772 0
M  V30 18724 H 1791.49 -1.00248 2.76275 0
M  V30 18725 H 1789 -0.458283 1.558 0
M  V30 18726 H 1791 -3.43442 2.36333 0
M  V30 18727 H 1789.66 -2.98597 1.27555 0
M  V30 18728 H 1790.67 -1.91176 4.81323 0
M  V30 18729 H 1787.35 -3.25758 2.61128 0
M  V30 18730 H 1788.74 -1.94114 6.43249 0
M  V30 18731 N 1791.46 -1.48941 -0.515198 0
M  V30 18732 C 1792.69 -1.61396 -1.29457 0
M  V30 18733 C 1793.1 -0.279847 -1.86714 0
M  V30 18734 O 1792.46 0.732861 -1.67139 0
M  V30 18735 C 1792.51 -2.67194 -2.43494 0
M  V30 18736 O 1792.23 -3.95429 -1.88593 0
M  V30 18737 C 1793.73 -2.90224 -3.35089 0
M  V30 18738 H 1790.95 -0.543754 -0.393157 0
M  V30 18739 H 1793.49 -1.94875 -0.619996 0
M  V30 18740 H 1791.65 -2.36532 -3.06808 0
M  V30 18741 H 1792.06 -4.53593 -2.63351 0
M  V30 18742 H 1793.54 -3.68018 -4.1142 0
M  V30 18743 H 1794.01 -1.99601 -3.91224 0
M  V30 18744 H 1794.62 -3.22247 -2.77555 0
M  V30 18745 N 1792.94 0.765193 -1.37777 0
M  V30 18746 C 1793.87 1.89247 -1.36777 0
M  V30 18747 C 1794.85 1.68463 -0.235389 0
M  V30 18748 O 1796.03 1.89225 -0.436733 0
M  V30 18749 C 1793.16 3.2662 -1.18053 0
M  V30 18750 C 1792.12 3.61981 -2.28372 0
M  V30 18751 C 1791.44 4.97967 -1.94765 0
M  V30 18752 C 1792.74 3.68053 -3.70587 0
M  V30 18753 H 1794.44 1.90341 -2.31108 0
M  V30 18754 H 1791.98 0.914355 -1.11245 0
M  V30 18755 H 1793.93 4.05125 -1.15982 0
M  V30 18756 H 1792.66 3.25976 -0.201803 0
M  V30 18757 H 1791.32 2.85788 -2.2961 0
M  V30 18758 H 1790.97 4.93869 -0.954052 0
M  V30 18759 H 1790.67 5.22594 -2.68642 0
M  V30 18760 H 1792.19 5.78864 -1.94292 0
M  V30 18761 H 1793.6 4.36696 -3.71443 0
M  V30 18762 H 1792 4.04183 -4.43572 0
M  V30 18763 H 1793.07 2.68556 -4.03739 0
M  V30 18764 N 1794.41 1.22455 0.992094 0
M  V30 18765 C 1795.83 0.984682 1.25603 0
M  V30 18766 C 1796.03 -0.321255 1.98923 0
M  V30 18767 O 1795.09 -1.04367 2.29921 0
M  V30 18768 C 1796.4 2.1839 2.06703 0
M  V30 18769 C 1797.95 2.22755 2.19884 0
M  V30 18770 C 1798.42 3.42232 3.04371 0
M  V30 18771 N 1799.91 3.42398 3.11958 0
M  V30 18772 C 1800.65 4.31497 3.77622 0
M  V30 18773 N 1800.14 5.30814 4.45206 0
M  V30 18774 N 1801.94 4.1927 3.74391 0
M  V30 18775 H 1794.09 2.06417 0.50057 0
M  V30 18776 H 1796.35 0.904556 0.283693 0
M  V30 18777 H 1796.06 3.13099 1.60192 0
M  V30 18778 H 1795.93 2.18517 3.07458 0
M  V30 18779 H 1798.32 1.28593 2.65608 0
M  V30 18780 H 1798.4 2.26667 1.18557 0
M  V30 18781 H 1798.04 4.36694 2.59346 0
M  V30 18782 H 1797.97 3.3556 4.05841 0
M  V30 18783 H 1800.46 2.70531 2.63858 0
M  V30 18784 H 1800.78 5.95078 4.93054 0
M  V30 18785 H 1799.12 5.34726 4.43952 0
M  V30 18786 H 1802.31 3.40932 3.20753 0
M  V30 18787 H 1802.49 4.88913 4.25286 0
M  V30 18788 N 1795.89 -1.18905 1.03437 0
M  V30 18789 C 1797.12 -1.92678 0.753853 0
M  V30 18790 C 1797.53 -1.75814 -0.688111 0
M  V30 18791 O 1796.89 -1.08363 -1.46846 0
M  V30 18792 C 1796.94 -3.44275 1.10258 0
M  V30 18793 O 1796.66 -3.60602 2.48793 0
M  V30 18794 C 1798.16 -4.35159 0.84566 0
M  V30 18795 H 1795.38 -0.611875 0.275408 0
M  V30 18796 H 1797.93 -1.50887 1.38034 0
M  V30 18797 H 1796.08 -3.83878 0.521177 0
M  V30 18798 H 1796.5 -4.54403 2.61951 0
M  V30 18799 H 1797.97 -5.40109 1.13958 0
M  V30 18800 H 1798.45 -4.3865 -0.219767 0
M  V30 18801 H 1799.05 -4.01245 1.41006 0
M  V30 18802 N 1797.37 -0.812977 -1.35013 0
M  V30 18803 C 1798.6 -0.409014 -2.02817 0
M  V30 18804 C 1799.01 0.982004 -1.61252 0
M  V30 18805 O 1798.37 1.63384 -0.813137 0
M  V30 18806 C 1798.42 -0.490117 -3.58162 0
M  V30 18807 O 1798.14 -1.8263 -3.98218 0
M  V30 18808 C 1799.64 -0.0797786 -4.43228 0
M  V30 18809 H 1796.86 -0.165356 -0.650306 0
M  V30 18810 H 1799.41 -1.09837 -1.72499 0
M  V30 18811 H 1797.56 0.151057 -3.87105 0
M  V30 18812 H 1797.98 -1.79356 -4.92881 0
M  V30 18813 H 1799.45 -0.18763 -5.51681 0
M  V30 18814 H 1799.93 0.975612 -4.28227 0
M  V30 18815 H 1800.53 -0.694359 -4.19594 0
M  V30 18816 N 1798.85 1.47045 -0.567045 0
M  V30 18817 C 1800.09 2.04341 -0.0491613 0
M  V30 18818 C 1800.45 1.4308 1.28031 0
M  V30 18819 O 1801.65 1.91481 1.88649 0
M  V30 18820 C 1799.92 3.57386 0.0319732 0
M  V30 18821 S 1801.48 4.36004 0.494555 0
M  V30 18822 H 1798.3 0.710371 -0.0298915 0
M  V30 18823 H 1800.9 1.80291 -0.756004 0
M  V30 18824 H 1799.61 3.99494 -0.93983 0
M  V30 18825 H 1799.14 3.85948 0.76207 0
M  V30 18826 H 1801.15 4.64226 1.75238 0
M  V30 18827 N 1800.33 0.304 1.5464 0
M  V30 18828 C 1801.57 -0.297701 2.0121 0
M  V30 18829 C 1801.93 -1.51295 1.18859 0
M  V30 18830 O 1801.22 -1.89859 0.257697 0
M  V30 18831 C 1801.41 -0.702651 3.50425 0
M  V30 18832 C 1801.24 0.47181 4.47218 0
M  V30 18833 C 1800.01 0.964773 4.96004 0
M  V30 18834 C 1802.21 1.31774 4.97132 0
M  V30 18835 N 1800.19 2.10568 5.76658 0
M  V30 18836 C 1801.56 2.3061 5.75516 0
M  V30 18837 C 1803.62 1.34777 4.79312 0
M  V30 18838 C 1802.32 3.32228 6.37979 0
M  V30 18839 C 1804.35 2.35255 5.42595 0
M  V30 18840 C 1803.71 3.3282 6.20814 0
M  V30 18841 H 1799.81 -0.073314 0.778556 0
M  V30 18842 H 1802.39 0.434597 1.89788 0
M  V30 18843 H 1800.56 -1.40412 3.62131 0
M  V30 18844 H 1802.3 -1.28415 3.83786 0
M  V30 18845 H 1799.05 0.539254 4.7052 0
M  V30 18846 H 1799.47 2.68063 6.21668 0
M  V30 18847 H 1804.12 0.607191 4.18417 0
M  V30 18848 H 1801.83 4.07203 6.98005 0
M  V30 18849 H 1805.42 2.38355 5.30733 0
M  V30 18850 H 1804.3 4.09296 6.68914 0
M  V30 18851 N 1801.8 -1.57568 0.0317802 0
M  V30 18852 C 1803.08 -1.8321 -0.685081 0
M  V30 18853 C 1803.46 -0.91624 -1.9018 0
M  V30 18854 O 1802.81 0.0275043 -2.28483 0
M  V30 18855 C 1803.02 -3.32488 -1.06078 0
M  V30 18856 C 1804.37 -3.99027 -1.45129 0
M  V30 18857 O 1805.39 -3.36999 -1.15368 0
M  V30 18858 O 1804.25 -5.08355 -2.00592 0
M  V30 18859 H 1801.34 -0.755517 -0.336337 0
M  V30 18860 H 1803.89 -1.69595 0.0596652 0
M  V30 18861 H 1802.66 -3.90814 -0.194918 0
M  V30 18862 H 1802.28 -3.5122 -1.8636 0
M  V30 18863 N 1803.28 0.241399 -1.5574 0
M  V30 18864 C 1804.53 0.96675 -1.77478 0
M  V30 18865 C 1804.85 1.85644 -0.596757 0
M  V30 18866 O 1804.12 1.92035 0.387236 0
M  V30 18867 H 1802.7 0.35995 -0.654557 0
M  V30 18868 H 1805.36 0.258023 -1.93185 0
M  V30 18869 H 1804.46 1.58524 -2.68843 0
M  V30 18870 N 1804.76 1.49212 0.507292 0
M  V30 18871 C 1805.71 1.65417 1.60953 0
M  V30 18872 C 1806.68 0.495737 1.5853 0
M  V30 18873 O 1807.86 0.722002 1.76612 0
M  V30 18874 C 1805 1.72095 2.99128 0
M  V30 18875 C 1804.12 2.99199 3.11615 0
M  V30 18876 C 1803.25 2.96895 4.40485 0
M  V30 18877 C 1802.29 4.18607 4.46581 0
M  V30 18878 N 1801.43 4.14248 5.66871 0
M  V30 18879 H 1806.27 2.59535 1.46444 0
M  V30 18880 H 1803.8 1.28687 0.712609 0
M  V30 18881 H 1805.76 1.73947 3.79207 0
M  V30 18882 H 1804.39 0.814484 3.12356 0
M  V30 18883 H 1803.44 3.06988 2.24639 0
M  V30 18884 H 1804.76 3.89192 3.11979 0
M  V30 18885 H 1803.91 2.97275 5.28878 0
M  V30 18886 H 1802.65 2.0467 4.42675 0
M  V30 18887 H 1801.65 4.18477 3.56591 0
M  V30 18888 H 1802.88 5.12017 4.46112 0
M  V30 18889 H 1800.82 3.24857 5.69916 0
M  V30 18890 H 1800.74 4.97969 5.68826 0
M  V30 18891 H 1802.01 4.18722 6.57489 0
M  V30 18892 N 1806.24 -0.757876 1.38181 0
M  V30 18893 C 1807.17 -1.88519 1.37779 0
M  V30 18894 C 1808.15 -1.68336 0.24432 0
M  V30 18895 O 1809.33 -1.88991 0.446762 0
M  V30 18896 C 1806.46 -3.2599 1.19784 0
M  V30 18897 C 1805.42 -3.60764 2.30289 0
M  V30 18898 C 1804.74 -4.96927 1.97403 0
M  V30 18899 C 1806.04 -3.66082 3.72533 0
M  V30 18900 H 1807.74 -1.89112 2.32114 0
M  V30 18901 H 1805.28 -0.908442 1.11729 0
M  V30 18902 H 1807.24 -4.04504 1.18129 0
M  V30 18903 H 1805.96 -3.25864 0.219088 0
M  V30 18904 H 1804.62 -2.84566 2.31123 0
M  V30 18905 H 1804.27 -4.93356 0.98023 0
M  V30 18906 H 1803.97 -5.21162 2.7141 0
M  V30 18907 H 1805.49 -5.77825 1.97359 0
M  V30 18908 H 1806.91 -4.3472 3.73754 0
M  V30 18909 H 1805.3 -4.01824 4.4571 0
M  V30 18910 H 1806.37 -2.66412 4.05158 0
M  V30 18911 N 1807.72 -1.22979 -0.985586 0
M  V30 18912 C 1808.63 -1.02294 -2.11124 0
M  V30 18913 C 1809.64 0.030991 -1.73972 0
M  V30 18914 O 1810.82 -0.163333 -2.00737 0
M  V30 18915 C 1807.88 -0.611102 -3.41272 0
M  V30 18916 C 1806.94 -1.73949 -3.9248 0
M  V30 18917 C 1806.18 -1.34721 -5.16417 0
M  V30 18918 O 1806.4 -0.229171 -5.69939 0
M  V30 18919 O 1805.33 -2.16639 -5.61561 0
M  V30 18920 H 1809.16 -1.9662 -2.31461 0
M  V30 18921 H 1806.75 -1.01639 -1.09499 0
M  V30 18922 H 1808.63 -0.392127 -4.19572 0
M  V30 18923 H 1807.3 0.303224 -3.22277 0
M  V30 18924 H 1806.21 -2.01305 -3.1532 0
M  V30 18925 H 1807.54 -2.63194 -4.1592 0
M  V30 18926 N 1809.19 1.18355 -1.04066 0
M  V30 18927 C 1810.42 1.91996 -0.762952 0
M  V30 18928 C 1810.83 1.76413 0.683745 0
M  V30 18929 O 1810.18 1.09121 1.47778 0
M  V30 18930 C 1810.24 3.4384 -1.04949 0
M  V30 18931 C 1809.9 3.83201 -2.4901 0
M  V30 18932 C 1810.9 3.86984 -3.47187 0
M  V30 18933 C 1808.58 4.14497 -2.83721 0
M  V30 18934 C 1810.58 4.21513 -4.78127 0
M  V30 18935 C 1808.26 4.48696 -4.14867 0
M  V30 18936 C 1809.26 4.52181 -5.1188 0
M  V30 18937 O 1808.95 4.85582 -6.40676 0
M  V30 18938 H 1808.68 0.616351 -0.277647 0
M  V30 18939 H 1811.24 1.51092 -1.39141 0
M  V30 18940 H 1809.47 3.84984 -0.363904 0
M  V30 18941 H 1811.16 3.98729 -0.759579 0
M  V30 18942 H 1811.92 3.62944 -3.21709 0
M  V30 18943 H 1807.8 4.10962 -2.08881 0
M  V30 18944 H 1811.34 4.24148 -5.53845 0
M  V30 18945 H 1807.24 4.72198 -4.40113 0
M  V30 18946 H 1808.01 5.03485 -6.45326 0
M  V30 18947 N 1810.67 0.820125 1.3458 0
M  V30 18948 C 1812.08 0.466064 1.80789 0
M  V30 18949 C 1812.43 -1.01327 1.6801 0
M  V30 18950 O 1811.56 -1.78835 1.21849 0
M  V30 18951 C 1812.15 0.839192 3.28242 0
M  V30 18952 C 1810.71 0.53754 3.72542 0
M  V30 18953 C 1809.86 1.0576 2.5634 0
M  V30 18954 H 1812.81 1.01055 1.22366 0
M  V30 18955 H 1812.83 0.141897 3.80235 0
M  V30 18956 H 1812.34 1.91592 3.37512 0
M  V30 18957 H 1810.45 -0.529895 3.68813 0
M  V30 18958 H 1810.56 1.07964 4.66777 0
M  V30 18959 H 1808.92 0.479275 2.5015 0
M  V30 18960 H 1809.71 2.14072 2.68381 0
M  V30 18961 N 1812.15 -1.46743 0.574835 0
M  V30 18962 C 1813.38 -2.06805 0.0627992 0
M  V30 18963 C 1813.79 -1.42482 -1.23872 0
M  V30 18964 O 1813.15 -0.527375 -1.74714 0
M  V30 18965 C 1813.2 -3.61307 -0.117983 0
M  V30 18966 O 1812.92 -4.23222 1.13201 0
M  V30 18967 C 1814.42 -4.3828 -0.665277 0
M  V30 18968 H 1811.64 -0.668835 0.0538616 0
M  V30 18969 H 1814.19 -1.88488 0.793265 0
M  V30 18970 H 1812.34 -3.79078 -0.798641 0
M  V30 18971 H 1812.76 -5.15992 0.940853 0
M  V30 18972 H 1814.23 -5.47004 -0.740985 0
M  V30 18973 H 1814.71 -4.05777 -1.68052 0
M  V30 18974 H 1815.31 -4.25295 -0.0197462 0
M  V30 18975 N 1813.63 -0.312197 -1.54477 0
M  V30 18976 C 1814.87 0.294506 -2.02267 0
M  V30 18977 C 1815.23 1.5023 -1.19562 0
M  V30 18978 O 1816.43 2.18111 -1.57102 0
M  V30 18979 C 1814.7 0.631364 -3.51779 0
M  V30 18980 S 1816.26 1.21934 -4.21518 0
M  V30 18981 H 1813.08 0.0897629 -0.705311 0
M  V30 18982 H 1815.68 -0.442675 -1.90422 0
M  V30 18983 H 1814.39 -0.255978 -4.09601 0
M  V30 18984 H 1813.92 1.39904 -3.67682 0
M  V30 18985 H 1815.93 2.50669 -4.28229 0
M  V30 18986 N 1815.11 1.57549 -0.040136 0
M  V30 18987 C 1816.07 2.09788 0.923126 0
M  V30 18988 C 1817.07 1.01518 1.24703 0
M  V30 18989 O 1818.26 1.27635 1.18554 0
M  V30 18990 C 1815.39 2.57293 2.23636 0
M  V30 18991 H 1816.58 2.96187 0.470482 0
M  V30 18992 H 1814.14 1.54909 0.208088 0
M  V30 18993 H 1814.87 1.74256 2.73506 0
M  V30 18994 H 1814.66 3.36402 2.01435 0
M  V30 18995 H 1816.15 2.97895 2.92658 0
M  V30 18996 N 1816.58 -0.233136 1.55866 0
M  V30 18997 C 1817.53 -1.28882 1.91463 0
M  V30 18998 C 1818.5 -1.47151 0.770435 0
M  V30 18999 O 1819.69 -1.6091 1.02531 0
M  V30 19000 C 1816.83 -2.63653 2.22668 0
M  V30 19001 C 1815.94 -2.53278 3.49963 0
M  V30 19002 C 1815.07 -3.80494 3.70672 0
M  V30 19003 C 1814.11 -3.64794 4.9152 0
M  V30 19004 N 1813.25 -4.83933 5.08678 0
M  V30 19005 H 1818.09 -0.978251 2.81486 0
M  V30 19006 H 1815.63 -0.471757 1.3933 0
M  V30 19007 H 1817.59 -3.42119 2.38769 0
M  V30 19008 H 1816.22 -2.9283 1.35833 0
M  V30 19009 H 1815.27 -1.66308 3.4212 0
M  V30 19010 H 1816.58 -2.37592 4.38579 0
M  V30 19011 H 1815.73 -4.67404 3.86806 0
M  V30 19012 H 1814.47 -3.99092 2.80315 0
M  V30 19013 H 1813.48 -2.76268 4.75348 0
M  V30 19014 H 1814.7 -3.47677 5.8335 0
M  V30 19015 H 1812.65 -5.02866 4.21262 0
M  V30 19016 H 1812.57 -4.7093 5.91406 0
M  V30 19017 H 1813.83 -5.72302 5.29236 0
M  V30 19018 N 1818.06 -1.49479 -0.499372 0
M  V30 19019 C 1819.48 -1.36278 -0.830692 0
M  V30 19020 C 1819.68 -0.397116 -1.97548 0
M  V30 19021 O 1818.74 0.170614 -2.51923 0
M  V30 19022 C 1820.05 -2.77031 -1.16937 0
M  V30 19023 C 1821.6 -2.85744 -1.27748 0
M  V30 19024 C 1822.07 -4.27267 -1.64944 0
M  V30 19025 N 1823.56 -4.30086 -1.7199 0
M  V30 19026 C 1824.3 -5.36559 -2.02218 0
M  V30 19027 N 1823.79 -6.53275 -2.30659 0
M  V30 19028 N 1825.59 -5.23976 -2.03483 0
M  V30 19029 H 1817.74 -2.10858 0.255497 0
M  V30 19030 H 1820 -0.946588 0.0517184 0
M  V30 19031 H 1819.71 -3.494 -0.401529 0
M  V30 19032 H 1819.58 -3.12501 -2.11242 0
M  V30 19033 H 1821.97 -2.13611 -2.03604 0
M  V30 19034 H 1822.05 -2.53854 -0.314901 0
M  V30 19035 H 1821.69 -4.99927 -0.896384 0
M  V30 19036 H 1821.62 -4.56622 -2.62305 0
M  V30 19037 H 1824.11 -3.45911 -1.52164 0
M  V30 19038 H 1824.43 -7.30241 -2.52918 0
M  V30 19039 H 1822.77 -6.56498 -2.28112 0
M  V30 19040 H 1825.96 -4.31799 -1.80741 0
M  V30 19041 H 1826.14 -6.07049 -2.26707 0
M  V30 19042 O 1819.58 0.644674 -1.48075 0
M  V30 19043 H 1820.27 1.29838 -1.43742 0
M  V30 END ATOM
M  V30 BEGIN BOND
M  V30 END BOND
M  V30 END CTAB
M  END
$$$$
