drugbank_target|P08690 Arsenical pump-driving ATPase (DB02453; DB04395; DB04456)
 OpenBabel12092120013D

  0  0  0     0  0            999 V3000
M  V30 BEGIN CTAB
M  V30 COUNTS 8959 9035 0 0 0
M  V30 BEGIN ATOM
M  V30 1 H -0.908 1.98254 -0.117106 0
M  V30 2 N 0 1.576 0 0
M  V30 3 C 0.933 2.03868 1.02534 0
M  V30 4 C 1.911 0.928543 1.3348 0
M  V30 5 O 3.095 1.19667 1.45644 0
M  V30 6 C 0.222 2.43627 2.35294 0
M  V30 7 C -0.732 3.65373 2.2001 0
M  V30 8 S 0.101 5.13292 1.52614 0
M  V30 9 C 1.257 5.56322 2.86805 0
M  V30 10 H 1.49 2.90518 0.631377 0
M  V30 11 H -0.977 1.52953 0.210867 0
M  V30 12 H 0.981 2.67203 3.11629 0
M  V30 13 H -0.358 1.57376 2.7183 0
M  V30 14 H -1.165 3.90944 3.18086 0
M  V30 15 H -1.563 3.418 1.51819 0
M  V30 16 H 0.729 5.58782 3.83104 0
M  V30 17 H 1.672 6.56266 2.65933 0
M  V30 18 H 2.08 4.83886 2.90714 0
M  V30 19 N 1.4781 -0.272755 1.55222 0
M  V30 20 C 2.4101 -1.35946 1.8453 0
M  V30 21 C 3.4231 -1.45525 0.729818 0
M  V30 22 O 4.6121 -1.47337 1.00767 0
M  V30 23 C 1.7121 -2.74069 1.99347 0
M  V30 24 C 0.8851 -2.87079 3.30007 0
M  V30 25 C -0.0559 -4.05879 3.34886 0
M  V30 26 O -1.0299 -3.96626 4.08261 0
M  V30 27 N 0.1721 -5.17857 2.62307 0
M  V30 28 H 2.9371 -1.11149 2.78327 0
M  V30 29 H 0.4981 -0.462869 1.55142 0
M  V30 30 H 2.4901 -3.51838 1.99981 0
M  V30 31 H 1.0601 -2.91688 1.12415 0
M  V30 32 H 0.2801 -1.96193 3.41909 0
M  V30 33 H 1.5681 -2.92701 4.16177 0
M  V30 34 H 0.9661 -5.28261 2.02377 0
M  V30 35 H -0.4769 -5.93855 2.68663 0
M  V30 36 N 2.9562 -1.48159 -0.537278 0
M  V30 37 C 4.2032 -1.55804 -1.29349 0
M  V30 38 C 4.5312 -0.228802 -1.9315 0
M  V30 39 O 3.7862 0.780242 -1.79473 0
M  V30 40 C 4.0852 -2.63956 -2.40961 0
M  V30 41 C 3.7512 -4.0662 -1.94861 0
M  V30 42 C 2.4132 -4.45452 -1.82006 0
M  V30 43 C 4.7652 -4.96055 -1.59933 0
M  V30 44 C 2.0932 -5.71531 -1.32547 0
M  V30 45 C 4.4452 -6.22617 -1.11939 0
M  V30 46 C 3.1092 -6.60312 -0.976951 0
M  V30 47 H 2.3792 -0.570129 -0.473322 0
M  V30 48 H 5.0262 -1.81845 -0.600372 0
M  V30 49 H 3.3312 -2.31747 -3.15912 0
M  V30 50 H 5.0282 -2.67089 -2.99107 0
M  V30 51 H 1.6182 -3.75949 -2.05815 0
M  V30 52 H 5.8022 -4.66738 -1.68728 0
M  V30 53 H 1.0582 -5.99468 -1.202 0
M  V30 54 H 5.2322 -6.91318 -0.839811 0
M  V30 55 H 2.8592 -7.57895 -0.591501 0
M  V30 56 N 4.4343 0.785586 -1.36625 0
M  V30 57 C 5.3643 1.91259 -1.33949 0
M  V30 58 C 6.3453 1.68795 -0.210325 0
M  V30 59 O 7.5303 1.89854 -0.408561 0
M  V30 60 C 4.6603 3.28339 -1.13186 0
M  V30 61 C 3.6143 3.65335 -2.22967 0
M  V30 62 C 2.9403 5.00806 -1.87342 0
M  V30 63 C 4.2403 3.7352 -3.65075 0
M  V30 64 H 5.9343 1.93755 -2.28253 0
M  V30 65 H 3.4803 0.930788 -1.09874 0
M  V30 66 H 5.4333 4.06804 -1.09948 0
M  V30 67 H 4.1573 3.2624 -0.153332 0
M  V30 68 H 2.8163 2.89169 -2.25337 0
M  V30 69 H 2.4643 4.95233 -0.880545 0
M  V30 70 H 2.1643 5.26529 -2.60846 0
M  V30 71 H 3.6883 5.81687 -1.85667 0
M  V30 72 H 5.1023 4.42168 -3.64911 0
M  V30 73 H 3.4993 4.10731 -4.37516 0
M  V30 74 H 4.5693 2.74527 -3.99703 0
M  V30 75 N 5.9124 1.20967 1.01018 0
M  V30 76 C 6.8444 0.922059 2.09835 0
M  V30 77 C 7.8574 -0.0927106 1.62536 0
M  V30 78 O 9.0464 0.139127 1.77957 0
M  V30 79 C 6.1464 0.362004 3.36961 0
M  V30 80 C 5.3194 1.42986 4.13369 0
M  V30 81 C 4.3784 0.879976 5.1879 0
M  V30 82 O 3.4044 1.56219 5.47343 0
M  V30 83 N 4.6064 -0.307396 5.79686 0
M  V30 84 H 7.3714 1.8588 2.35093 0
M  V30 85 H 4.9324 1.11422 1.1746 0
M  V30 86 H 6.9244 -0.0201474 4.04695 0
M  V30 87 H 5.4944 -0.479437 3.08902 0
M  V30 88 H 4.7144 1.98608 3.40512 0
M  V30 89 H 6.0024 2.14885 4.61196 0
M  V30 90 H 5.4004 -0.878796 5.58832 0
M  V30 91 H 3.9574 -0.631115 6.48737 0
M  V30 92 N 7.3905 -1.2043 1.01659 0
M  V30 93 C 8.3385 -2.25249 0.580143 0
M  V30 94 C 9.3325 -1.65057 -0.381115 0
M  V30 95 O 10.5385 -1.78241 -0.251039 0
M  V30 96 H 6.9135 -0.732695 0.169299 0
M  V30 97 H 8.8845 -2.59389 1.47512 0
M  V30 98 C 7.6335 -3.47638 -0.065788 0
M  V30 99 H 6.9565 -3.94233 0.664874 0
M  V30 100 H 8.3965 -4.2268 -0.334282 0
M  V30 101 C 6.8555 -3.10447 -1.3086 0
M  V30 102 O 7.3855 -3.21981 -2.4019 0
M  V30 103 N 5.5915 -2.64996 -1.1927 0
M  V30 104 H 5.1385 -2.55811 -0.303064 0
M  V30 105 H 5.0965 -2.40482 -2.02523 0
M  V30 106 N 8.8686 -0.792821 -1.36206 0
M  V30 107 C 10.1176 -0.363353 -1.984 0
M  V30 108 C 10.4306 1.07172 -1.63626 0
M  V30 109 O 11.6366 1.60362 -2.19081 0
M  V30 110 C 10.0926 -0.59872 -3.54885 0
M  V30 111 C 9.7006 -2.04543 -3.9858 0
M  V30 112 C 11.4446 -0.233926 -4.23855 0
M  V30 113 C 9.3516 -2.22727 -5.47856 0
M  V30 114 H 8.2816 -0.13212 -0.742334 0
M  V30 115 H 10.9326 -0.974935 -1.55458 0
M  V30 116 H 9.3146 0.0826222 -3.95914 0
M  V30 117 H 10.4886 -2.76345 -3.68741 0
M  V30 118 H 8.8036 -2.36879 -3.42458 0
M  V30 119 H 11.4006 -0.348027 -5.33566 0
M  V30 120 H 11.7436 0.818351 -4.08177 0
M  V30 121 H 12.2766 -0.868639 -3.882 0
M  V30 122 H 9.0156 -3.2635 -5.68486 0
M  V30 123 H 8.5356 -1.55434 -5.7931 0
M  V30 124 H 10.2146 -2.03607 -6.14128 0
M  V30 125 N 10.3467 1.47872 -0.545128 0
M  V30 126 C 11.7577 1.86384 -0.108581 0
M  V30 127 C 12.1087 1.45309 1.31832 0
M  V30 128 O 11.2337 0.850641 1.9898 0
M  V30 129 C 11.8287 3.38265 -0.190274 0
M  V30 130 C 10.3877 3.75914 0.191164 0
M  V30 131 C 9.5347 2.71926 -0.543273 0
M  V30 132 H 12.4857 1.39561 -0.755537 0
M  V30 133 H 12.5067 3.75831 0.594217 0
M  V30 134 H 12.0187 3.6813 -1.2289 0
M  V30 135 H 10.1197 3.51665 1.23136 0
M  V30 136 H 10.2327 4.78836 -0.158987 0
M  V30 137 H 8.5967 2.54697 0.0122495 0
M  V30 138 H 9.3797 3.04634 -1.58282 0
M  V30 139 N 11.8248 0.280983 1.55075 0
M  V30 140 C 13.2358 -0.215629 1.85451 0
M  V30 141 C 13.5868 -1.54991 1.203 0
M  V30 142 O 12.7118 -2.10699 0.493435 0
M  V30 143 C 13.3068 -0.398026 3.36454 0
M  V30 144 C 11.8658 -0.838866 3.66933 0
M  V30 145 C 11.0128 0.064458 2.77225 0
M  V30 146 H 13.9638 0.502601 1.50531 0
M  V30 147 H 13.9848 -1.23569 3.59876 0
M  V30 148 H 13.4968 0.573241 3.83843 0
M  V30 149 H 11.5978 -1.8214 3.25048 0
M  V30 150 H 11.7108 -0.672123 4.74362 0
M  V30 151 H 10.0748 -0.452863 2.50642 0
M  V30 152 H 10.8578 1.03172 3.2743 0
M  V30 153 N 13.3029 -1.57598 0.00835791 0
M  V30 154 C 14.5329 -1.94931 -0.684496 0
M  V30 155 C 14.9409 -0.882233 -1.67372 0
M  V30 156 O 14.2839 0.146621 -1.83114 0
M  V30 157 C 14.3459 -3.283 -1.4649 0
M  V30 158 C 14.0099 -4.52548 -0.63634 0
M  V30 159 C 15.0069 -5.19839 0.0795586 0
M  V30 160 C 12.6919 -4.98942 -0.579849 0
M  V30 161 C 14.6859 -6.3183 0.840843 0
M  V30 162 C 12.3729 -6.10819 0.185155 0
M  V30 163 C 13.3709 -6.77121 0.894227 0
M  V30 164 O 13.0589 -7.86853 1.64673 0
M  V30 165 H 12.7909 -0.647249 -0.19505 0
M  V30 166 H 15.3449 -2.05318 0.0581272 0
M  V30 167 H 13.5749 -3.14345 -2.2522 0
M  V30 168 H 15.2639 -3.50685 -2.04389 0
M  V30 169 H 16.0299 -4.84979 0.0451202 0
M  V30 170 H 11.9089 -4.47155 -1.1213 0
M  V30 171 H 15.4529 -6.83513 1.39483 0
M  V30 172 H 11.3499 -6.4512 0.221384 0
M  V30 173 H 12.1179 -8.03412 1.56432 0
M  V30 174 N 14.781 0.264519 -1.55364 0
M  V30 175 C 15.711 1.33121 -1.91836 0
M  V30 176 C 16.692 1.51101 -0.781192 0
M  V30 177 O 17.877 1.64003 -1.04003 0
M  V30 178 C 15.007 2.68921 -2.19769 0
M  V30 179 C 13.961 2.65661 -3.35571 0
M  V30 180 C 13.287 4.05093 -3.49004 0
M  V30 181 C 14.587 2.24187 -4.71739 0
M  V30 182 H 16.281 1.02844 -2.81182 0
M  V30 183 H 13.827 0.493286 -1.35287 0
M  V30 184 H 15.78 3.43663 -2.43872 0
M  V30 185 H 14.504 3.00799 -1.27231 0
M  V30 186 H 13.163 1.93377 -3.1145 0
M  V30 187 H 12.811 4.34206 -2.53917 0
M  V30 188 H 12.511 4.03804 -4.26868 0
M  V30 189 H 14.035 4.81561 -3.75408 0
M  V30 190 H 15.449 2.88654 -4.9533 0
M  V30 191 H 13.846 2.34044 -5.52579 0
M  V30 192 H 14.916 1.19327 -4.69988 0
M  V30 193 N 16.2591 1.48442 0.529413 0
M  V30 194 C 17.5061 1.56488 1.28521 0
M  V30 195 C 17.8341 0.239042 1.93025 0
M  V30 196 O 17.0891 -0.770713 1.79885 0
M  V30 197 C 17.3881 2.6523 2.39558 0
M  V30 198 C 17.0541 4.07648 1.92702 0
M  V30 199 C 15.7161 4.46411 1.79641 0
M  V30 200 C 18.0681 4.96896 1.573 0
M  V30 201 C 15.3961 5.72226 1.29514 0
M  V30 202 C 17.7481 6.23202 1.08636 0
M  V30 203 C 16.4121 6.60821 0.941919 0
M  V30 204 H 15.6821 0.572631 0.470292 0
M  V30 205 H 18.3291 1.82161 0.59072 0
M  V30 206 H 16.6341 2.33419 3.14679 0
M  V30 207 H 18.3311 2.68671 2.97686 0
M  V30 208 H 14.9211 3.77036 2.03819 0
M  V30 209 H 19.1051 4.67626 1.66251 0
M  V30 210 H 14.3611 6.00097 1.17019 0
M  V30 211 H 18.5351 6.91753 0.803136 0
M  V30 212 H 16.1621 7.58198 0.5513 0
M  V30 213 N 17.7372 -0.778329 1.37039 0
M  V30 214 C 18.9842 -1.53665 1.31884 0
M  V30 215 C 19.3122 -1.9425 -0.0986303 0
M  V30 216 O 18.5672 -1.63832 -1.07041 0
M  V30 217 C 18.8662 -2.81845 2.19768 0
M  V30 218 C 18.5322 -2.60345 3.68146 0
M  V30 219 C 17.1942 -2.5419 4.08584 0
M  V30 220 C 19.5462 -2.40923 4.62175 0
M  V30 221 C 16.8742 -2.26594 5.41177 0
M  V30 222 C 19.2262 -2.14852 5.94997 0
M  V30 223 C 17.8902 -2.07137 6.34547 0
M  V30 224 H 17.1602 -0.562299 0.482598 0
M  V30 225 H 19.8072 -0.897069 1.69189 0
M  V30 226 H 18.1122 -3.50328 1.75436 0
M  V30 227 H 19.8092 -3.39692 2.13097 0
M  V30 228 H 16.3992 -2.65996 3.36072 0
M  V30 229 H 20.5832 -2.44673 4.31797 0
M  V30 230 H 15.8392 -2.19111 5.70789 0
M  V30 231 H 20.0132 -1.98822 6.67415 0
M  V30 232 H 17.6402 -1.85518 7.37216 0
M  V30 233 N 19.2153 -1.21501 -1.00376 0
M  V30 234 C 20.4433 -1.059 -1.77744 0
M  V30 235 C 20.8583 0.391125 -1.84704 0
M  V30 236 O 20.2153 1.27133 -1.30933 0
M  V30 237 C 20.2663 -1.65111 -3.21591 0
M  V30 238 O 19.9873 -3.0445 -3.15027 0
M  V30 239 C 21.4883 -1.54637 -4.15454 0
M  V30 240 H 18.7083 -0.371825 -0.558558 0
M  V30 241 H 21.2523 -1.60865 -1.26264 0
M  V30 242 H 19.4073 -1.14235 -3.70175 0
M  V30 243 H 19.8213 -3.3278 -4.0541 0
M  V30 244 H 21.2953 -2.00808 -5.14179 0
M  V30 245 H 21.7723 -0.501022 -4.36333 0
M  V30 246 H 22.3783 -2.04767 -3.72761 0
M  V30 247 N 20.6934 1.19889 -1.02296 0
M  V30 248 C 21.9414 1.89046 -0.714558 0
M  V30 249 C 22.2624 1.79636 0.758681 0
M  V30 250 O 21.5324 1.20292 1.54618 0
M  V30 251 H 20.1124 0.699802 -0.261317 0
M  V30 252 H 22.7744 1.45574 -1.29592 0
M  V30 253 H 21.8704 2.95524 -1.0036 0
M  V30 254 N 22.1715 0.800033 1.35784 0
M  V30 255 C 23.1185 0.203848 2.29898 0
M  V30 256 C 24.0885 -0.658375 1.52495 0
M  V30 257 O 25.2735 -0.604832 1.8096 0
M  V30 258 C 22.4135 -0.64688 3.38983 0
M  V30 259 C 21.5265 0.235054 4.3136 0
M  V30 260 C 20.6615 -0.623054 5.27533 0
M  V30 261 C 19.7005 0.259682 6.11549 0
M  V30 262 N 18.8375 -0.558019 6.99879 0
M  V30 263 H 23.6775 1.01186 2.80295 0
M  V30 264 H 21.2145 0.51053 1.37957 0
M  V30 265 H 23.1725 -1.15521 4.00887 0
M  V30 266 H 21.8025 -1.42021 2.89879 0
M  V30 267 H 20.8545 0.861438 3.70518 0
M  V30 268 H 22.1665 0.914768 4.9034 0
M  V30 269 H 21.3205 -1.19678 5.94779 0
M  V30 270 H 20.0595 -1.33636 4.69034 0
M  V30 271 H 19.0645 0.845726 5.43256 0
M  V30 272 H 20.2895 0.970748 6.72126 0
M  V30 273 H 18.2355 -1.25542 6.43875 0
M  V30 274 H 18.1525 0.0637872 7.55973 0
M  V30 275 H 19.4205 -1.11523 7.71481 0
M  V30 276 N 23.6496 -1.47581 0.552962 0
M  V30 277 C 24.8976 -2.02082 0.0272703 0
M  V30 278 C 25.2186 -1.4301 -1.32563 0
M  V30 279 O 24.4886 -0.603745 -1.86365 0
M  V30 280 H 23.0686 -0.746966 0.00709182 0
M  V30 281 H 25.7306 -1.81033 0.722008 0
M  V30 282 H 24.8266 -3.12034 -0.0639951 0
M  V30 283 N 25.1277 -0.289203 -1.54924 0
M  V30 284 C 26.3757 0.322879 -1.99504 0
M  V30 285 C 26.6967 1.55313 -1.1791 0
M  V30 286 O 25.9667 1.94001 -0.272097 0
M  V30 287 H 24.5467 0.122291 -0.736922 0
M  V30 288 H 27.2087 -0.397802 -1.90797 0
M  V30 289 H 26.3047 0.603061 -3.06218 0
M  V30 290 N 26.6058 1.57591 -0.0167156 0
M  V30 291 C 27.8518 1.91567 0.665582 0
M  V30 292 C 28.1848 0.892298 1.72487 0
M  V30 293 O 27.4598 -0.0867127 1.94307 0
M  V30 294 C 27.7428 3.36069 1.29342 0
M  V30 295 C 27.5958 4.49135 0.244541 0
M  V30 296 C 28.9148 3.803 2.21495 0
M  V30 297 H 26.0338 0.69666 0.240488 0
M  V30 298 H 28.6758 1.89866 -0.0714356 0
M  V30 299 H 26.8258 3.3765 1.92158 0
M  V30 300 H 28.4978 4.59689 -0.385228 0
M  V30 301 H 26.7408 4.3165 -0.431379 0
M  V30 302 H 27.4118 5.47242 0.723207 0
M  V30 303 H 29.8878 3.80377 1.68678 0
M  V30 304 H 28.7638 4.82127 2.62382 0
M  V30 305 H 29.0248 3.15104 3.101 0
M  V30 306 N 28.0839 -0.256276 1.55502 0
M  V30 307 C 29.3319 -0.983672 1.76545 0
M  V30 308 C 29.6529 -1.86206 0.578982 0
M  V30 309 O 28.9229 -1.91656 -0.405577 0
M  V30 310 H 27.5029 -0.366191 0.651086 0
M  V30 311 H 30.1649 -0.276479 1.92929 0
M  V30 312 H 29.2609 -1.61087 2.67315 0
M  V30 313 N 29.562 -1.4872 -0.521534 0
M  V30 314 C 30.509 -1.63871 -1.62527 0
M  V30 315 C 31.479 -0.480559 -1.58996 0
M  V30 316 O 32.664 -0.705085 -1.77294 0
M  V30 317 C 29.804 -1.69227 -3.00759 0
M  V30 318 C 28.917 -2.96207 -3.14461 0
M  V30 319 C 28.052 -2.92671 -4.43303 0
M  V30 320 C 27.091 -4.14318 -4.50563 0
M  V30 321 N 26.228 -4.0881 -5.70805 0
M  V30 322 H 31.068 -2.58123 -1.48918 0
M  V30 323 H 28.605 -1.28 -0.724878 0
M  V30 324 H 30.563 -1.70314 -3.80853 0
M  V30 325 H 29.193 -0.784586 -3.1312 0
M  V30 326 H 28.245 -3.04826 -2.27564 0
M  V30 327 H 29.557 -3.86192 -3.15686 0
M  V30 328 H 28.711 -2.92206 -5.31696 0
M  V30 329 H 27.45 -2.00429 -4.44612 0
M  V30 330 H 26.455 -4.15049 -3.60575 0
M  V30 331 H 27.68 -5.07729 -4.50986 0
M  V30 332 H 25.626 -3.19394 -5.72995 0
M  V30 333 H 25.543 -4.92509 -5.7356 0
M  V30 334 H 26.811 -4.12418 -6.61462 0
M  V30 335 N 31.0401 0.771051 -1.3745 0
M  V30 336 C 32.2681 1.56015 -1.35893 0
M  V30 337 C 32.6831 1.88718 0.0555523 0
M  V30 338 O 32.0401 1.51502 1.01752 0
M  V30 339 C 32.0911 2.87001 -2.19801 0
M  V30 340 O 31.8121 2.557 -3.55738 0
M  V30 341 C 33.3131 3.81228 -2.26231 0
M  V30 342 H 30.5331 0.483317 -0.465453 0
M  V30 343 H 33.0771 0.955611 -1.80799 0
M  V30 344 H 31.2321 3.43877 -1.78402 0
M  V30 345 H 31.6461 3.39584 -3.99729 0
M  V30 346 H 33.1201 4.70139 -2.89263 0
M  V30 347 H 33.5971 4.20409 -1.27093 0
M  V30 348 H 34.2031 3.30281 -2.67945 0
M  V30 349 N 32.5182 1.22032 0.997298 0
M  V30 350 C 33.7432 1.06921 1.77715 0
M  V30 351 C 34.1682 -0.376226 1.84299 0
M  V30 352 O 33.5262 -1.27165 1.29223 0
M  V30 353 C 33.5742 1.67996 3.19076 0
M  V30 354 O 32.6782 0.930653 4.01762 0
M  V30 355 H 32.0192 0.375814 0.547412 0
M  V30 356 H 34.5492 1.61737 1.25309 0
M  V30 357 H 34.5592 1.72538 3.69723 0
M  V30 358 H 33.2342 2.73182 3.13599 0
M  V30 359 H 31.8112 0.960917 3.60307 0
M  V30 360 N 33.9963 -1.19345 1.0293 0
M  V30 361 C 35.2453 -1.88363 0.721256 0
M  V30 362 C 35.5583 -1.80514 -0.753254 0
M  V30 363 O 36.7643 -2.44788 -1.17436 0
M  V30 364 C 35.2203 -3.37872 1.23978 0
M  V30 365 C 34.8283 -3.54278 2.74211 0
M  V30 366 C 36.5723 -4.12365 1.00775 0
M  V30 367 C 34.4793 -4.97682 3.19479 0
M  V30 368 H 33.4093 -0.705484 0.266098 0
M  V30 369 H 36.0603 -1.34928 1.24365 0
M  V30 370 H 34.4423 -3.90707 0.6453 0
M  V30 371 H 35.6163 -3.11769 3.39318 0
M  V30 372 H 33.9313 -2.93174 2.95699 0
M  V30 373 H 36.5283 -5.18119 1.32123 0
M  V30 374 H 36.8713 -4.16263 -0.0554308 0
M  V30 375 H 37.4043 -3.65668 1.56625 0
M  V30 376 H 34.1433 -4.98945 4.25128 0
M  V30 377 H 33.6633 -5.4095 2.591 0
M  V30 378 H 35.3423 -5.66337 3.12845 0
M  V30 379 N 35.4744 -0.807222 -1.35358 0
M  V30 380 C 36.6994 -0.399309 -2.0352 0
M  V30 381 C 37.1244 0.981986 -1.60433 0
M  V30 382 O 36.4824 1.63601 -0.781299 0
M  V30 383 C 36.5304 -0.491552 -3.57234 0
M  V30 384 O 35.6344 0.494754 -4.09421 0
M  V30 385 H 34.9754 -0.166682 -0.642739 0
M  V30 386 H 37.5054 -1.09328 -1.72941 0
M  V30 387 H 37.5154 -0.361588 -4.06395 0
M  V30 388 H 36.1904 -1.49907 -3.87944 0
M  V30 389 H 34.7674 0.324977 -3.71481 0
M  V30 390 N 36.9525 1.47285 -0.560781 0
M  V30 391 C 38.1925 2.0436 -0.0404627 0
M  V30 392 C 38.5565 1.42534 1.28639 0
M  V30 393 O 39.7575 1.90677 1.89462 0
M  V30 394 C 38.0285 3.57369 0.0471856 0
M  V30 395 S 39.5875 4.3579 0.513109 0
M  V30 396 H 36.4055 0.710492 -0.0268674 0
M  V30 397 H 39.0075 1.80611 -0.748323 0
M  V30 398 H 37.7115 3.9989 -0.922817 0
M  V30 399 H 37.2425 3.8562 0.778491 0
M  V30 400 H 39.2575 4.63476 1.77212 0
M  V30 401 N 38.4306 0.297415 1.54768 0
M  V30 402 C 39.3936 -0.567375 2.22066 0
M  V30 403 C 40.3936 -1.06409 1.20556 0
M  V30 404 O 41.5836 -0.960691 1.45315 0
M  V30 405 C 38.7156 -1.78517 2.90421 0
M  V30 406 H 39.9086 0.0205534 2.99893 0
M  V30 407 H 37.4616 0.0482163 1.56226 0
M  V30 408 H 38.1966 -2.41303 2.16664 0
M  V30 409 H 37.9816 -1.43669 3.64831 0
M  V30 410 H 39.4716 -2.39964 3.41771 0
M  V30 411 N 39.9087 -1.5758 0.0250728 0
M  V30 412 C 41.1367 -1.9593 -0.664747 0
M  V30 413 C 41.5517 -0.901352 -1.65895 0
M  V30 414 O 40.9087 0.117255 -1.82123 0
M  V30 415 C 40.9597 -3.34342 -1.37468 0
M  V30 416 O 40.6807 -4.36079 -0.420324 0
M  V30 417 C 42.1817 -3.873 -2.1567 0
M  V30 418 H 39.4017 -0.645405 -0.183557 0
M  V30 419 H 41.9457 -2.04329 0.0836372 0
M  V30 420 H 40.1007 -3.27175 -2.0745 0
M  V30 421 H 40.5147 -5.16297 -0.923991 0
M  V30 422 H 41.9887 -4.86504 -2.60803 0
M  V30 423 H 42.4657 -3.21331 -2.99405 0
M  V30 424 H 43.0717 -3.97723 -1.50654 0
M  V30 425 N 41.3868 0.248026 -1.55636 0
M  V30 426 C 42.3498 1.29044 -1.89421 0
M  V30 427 C 43.3498 1.41134 -0.770581 0
M  V30 428 O 44.5398 1.39854 -1.03858 0
M  V30 429 C 41.6718 2.66831 -2.12165 0
M  V30 430 H 42.8648 1.00305 -2.82629 0
M  V30 431 H 40.4178 0.487265 -1.48511 0
M  V30 432 H 41.1528 3.00711 -1.21422 0
M  V30 433 H 40.9378 2.59438 -2.93997 0
M  V30 434 H 42.4278 3.42103 -2.3949 0
M  V30 435 N 42.8649 1.48995 0.513639 0
M  V30 436 C 44.1139 1.57093 1.2651 0
M  V30 437 C 44.4269 0.257091 1.93903 0
M  V30 438 O 45.6329 0.216478 2.70636 0
M  V30 439 C 44.0889 2.77118 2.29638 0
M  V30 440 C 43.6969 4.15209 1.68241 0
M  V30 441 C 45.4409 2.94538 3.05692 0
M  V30 442 C 43.3479 5.26474 2.69406 0
M  V30 443 H 42.2779 0.584876 0.475854 0
M  V30 444 H 44.9289 1.7536 0.540487 0
M  V30 445 H 43.3109 2.52319 3.05207 0
M  V30 446 H 44.4849 4.50094 0.987505 0
M  V30 447 H 42.7999 4.03042 1.04623 0
M  V30 448 H 45.3969 3.74832 3.8132 0
M  V30 449 H 45.7399 2.04614 3.62545 0
M  V30 450 H 46.2729 3.19316 2.37238 0
M  V30 451 H 43.0119 6.18417 2.17351 0
M  V30 452 H 42.5319 4.96058 3.37175 0
M  V30 453 H 44.2109 5.55277 3.32078 0
M  V30 454 N 44.343 -0.763751 1.37857 0
M  V30 455 C 45.759 -1.06542 1.18832 0
M  V30 456 C 45.959 -2.01478 0.0299722 0
M  V30 457 O 45.015 -2.4458 -0.627447 0
M  V30 458 C 46.328 -1.65525 2.51042 0
M  V30 459 C 47.876 -1.77745 2.57635 0
M  V30 460 C 48.351 -2.4014 3.89996 0
M  V30 461 N 49.842 -2.47582 3.91481 0
M  V30 462 C 50.577 -2.96732 4.9065 0
M  V30 463 N 50.073 -3.45993 6.00217 0
M  V30 464 N 51.866 -2.95679 4.78048 0
M  V30 465 H 44.017 -0.133556 2.1198 0
M  V30 466 H 46.28 -0.121879 0.940133 0
M  V30 467 H 45.986 -1.03236 3.36207 0
M  V30 468 H 45.86 -2.64719 2.68707 0
M  V30 469 H 48.247 -2.39164 1.72872 0
M  V30 470 H 48.328 -0.772836 2.43846 0
M  V30 471 H 47.972 -1.79358 4.75177 0
M  V30 472 H 47.902 -3.41223 4.01092 0
M  V30 473 H 50.393 -2.1273 3.12337 0
M  V30 474 H 50.706 -3.81922 6.7183 0
M  V30 475 H 49.051 -3.44077 6.03851 0
M  V30 476 H 52.242 -2.56499 3.91568 0
M  V30 477 H 52.415 -3.33672 5.55488 0
M  V30 478 N 45.8211 -1.22559 -0.990812 0
M  V30 479 C 46.7511 -1.0218 -2.09956 0
M  V30 480 C 47.7321 0.0579394 -1.70001 0
M  V30 481 O 48.9171 -0.104684 -1.93918 0
M  V30 482 C 46.0471 -0.601023 -3.4206 0
M  V30 483 C 45.0011 -1.62694 -3.95872 0
M  V30 484 C 44.3271 -1.06193 -5.24049 0
M  V30 485 C 45.6271 -3.01743 -4.2632 0
M  V30 486 H 47.3211 -1.94916 -2.27262 0
M  V30 487 H 44.8671 -0.938566 -1.09211 0
M  V30 488 H 46.8201 -0.445561 -4.19038 0
M  V30 489 H 45.5441 0.362005 -3.24588 0
M  V30 490 H 44.2031 -1.77021 -3.21028 0
M  V30 491 H 43.8511 -0.0901903 -5.02919 0
M  V30 492 H 43.5511 -1.74732 -5.61019 0
M  V30 493 H 45.0751 -0.918092 -6.03658 0
M  V30 494 H 46.4891 -2.90777 -4.94087 0
M  V30 495 H 44.8861 -3.67425 -4.74467 0
M  V30 496 H 45.9561 -3.51518 -3.34011 0
M  V30 497 N 47.2992 1.18797 -1.03562 0
M  V30 498 C 48.2622 2.20464 -0.626769 0
M  V30 499 C 49.2622 1.57721 0.313173 0
M  V30 500 O 50.4522 1.73917 0.0992615 0
M  V30 501 C 47.5842 3.40802 0.0818498 0
M  V30 502 H 48.7772 2.58149 -1.5264 0
M  V30 503 H 46.3302 1.32593 -0.827578 0
M  V30 504 H 47.0652 3.08642 0.995518 0
M  V30 505 H 46.8502 3.8758 -0.593652 0
M  V30 506 H 48.3402 4.16092 0.354584 0
M  V30 507 N 48.7773 0.814389 1.34928 0
M  V30 508 C 49.6873 0.231978 2.3345 0
M  V30 509 C 50.7033 -0.629139 1.62228 0
M  V30 510 O 51.8793 -0.539052 1.94052 0
M  V30 511 C 48.9443 -0.603482 3.41407 0
M  V30 512 C 48.0053 0.279037 4.28392 0
M  V30 513 C 47.2383 -0.516643 5.31193 0
M  V30 514 O 47.4613 -1.75068 5.4287 0
M  V30 515 O 46.3953 0.0965652 6.01823 0
M  V30 516 H 50.2213 1.04721 2.85074 0
M  V30 517 H 47.8063 0.576343 1.37836 0
M  V30 518 H 49.6883 -1.07908 4.0735 0
M  V30 519 H 48.3633 -1.39618 2.92042 0
M  V30 520 H 47.2703 0.801948 3.65403 0
M  V30 521 H 48.6033 1.03588 4.81176 0
M  V30 522 N 50.2554 -1.46986 0.568584 0
M  V30 523 C 51.1874 -2.28233 -0.210337 0
M  V30 524 C 52.2004 -1.37682 -0.868767 0
M  V30 525 O 53.3894 -1.62406 -0.740705 0
M  V30 526 C 50.4894 -3.12293 -1.3163 0
M  V30 527 C 49.6624 -4.30878 -0.7525 0
M  V30 528 C 48.7214 -4.96445 -1.74439 0
M  V30 529 O 47.7474 -5.54482 -1.286 0
M  V30 530 N 48.9494 -4.92171 -3.07812 0
M  V30 531 H 51.7144 -2.95723 0.486648 0
M  V30 532 H 49.2754 -1.56742 0.405409 0
M  V30 533 H 51.2674 -3.53022 -1.97883 0
M  V30 534 H 49.8374 -2.46971 -1.91636 0
M  V30 535 H 49.0574 -3.94104 0.0871128 0
M  V30 536 H 50.3454 -5.07558 -0.35536 0
M  V30 537 H 49.7434 -4.46239 -3.47688 0
M  V30 538 H 48.3004 -5.36884 -3.69592 0
M  V30 539 N 51.7335 -0.305618 -1.54608 0
M  V30 540 C 52.9815 0.301701 -1.99835 0
M  V30 541 C 53.3025 1.54054 -1.19551 0
M  V30 542 O 52.5725 1.93702 -0.292658 0
M  V30 543 H 51.1525 0.114468 -0.738178 0
M  V30 544 H 53.8145 -0.418016 -1.90364 0
M  V30 545 H 52.9105 0.570548 -3.06841 0
M  V30 546 N 53.2116 1.57565 -0.0334293 0
M  V30 547 C 54.1586 2.10478 0.946981 0
M  V30 548 C 55.1286 1.00787 1.32027 0
M  V30 549 O 56.3136 1.28232 1.41284 0
M  V30 550 C 53.4536 2.63994 2.22263 0
M  V30 551 C 52.5666 3.87709 1.90541 0
M  V30 552 C 51.7016 4.29604 3.12433 0
M  V30 553 C 50.7406 5.46065 2.76549 0
M  V30 554 N 49.8776 5.83096 3.9108 0
M  V30 555 H 54.7176 2.93963 0.488846 0
M  V30 556 H 52.2546 1.45296 0.22969 0
M  V30 557 H 54.2126 2.93114 2.96884 0
M  V30 558 H 52.8426 1.83333 2.65685 0
M  V30 559 H 51.8946 3.65291 1.06144 0
M  V30 560 H 53.2066 4.72403 1.60116 0
M  V30 561 H 52.3606 4.60182 3.9537 0
M  V30 562 H 51.0996 3.43685 3.46023 0
M  V30 563 H 50.1046 5.15176 1.92026 0
M  V30 564 H 51.3296 6.33685 2.44171 0
M  V30 565 H 49.2756 5.00132 4.24504 0
M  V30 566 H 49.1926 6.6244 3.64293 0
M  V30 567 H 50.4606 6.18282 4.74708 0
M  V30 568 N 54.6897 -0.239769 1.55765 0
M  V30 569 C 56.1057 -0.588624 1.48349 0
M  V30 570 C 56.3057 -1.88005 0.72502 0
M  V30 571 O 55.3617 -2.51186 0.257269 0
M  V30 572 C 56.6747 -0.68474 2.928 0
M  V30 573 C 58.2227 -0.77659 3.03213 0
M  V30 574 C 58.6977 -0.904207 4.48986 0
M  V30 575 N 60.1887 -0.968896 4.52953 0
M  V30 576 C 60.9237 -1.08703 5.63002 0
M  V30 577 N 60.4197 -1.17026 6.82845 0
M  V30 578 N 62.2127 -1.12074 5.50814 0
M  V30 579 H 54.3637 0.607911 2.03515 0
M  V30 580 H 56.6267 0.21083 0.924259 0
M  V30 581 H 56.3327 0.194284 3.51163 0
M  V30 582 H 56.2067 -1.55435 3.43686 0
M  V30 583 H 58.5937 -1.64606 2.44926 0
M  V30 584 H 58.6747 0.118315 2.55526 0
M  V30 585 H 58.3187 -0.0392633 5.07885 0
M  V30 586 H 58.2487 -1.81426 4.9436 0
M  V30 587 H 60.7397 -0.915633 3.6664 0
M  V30 588 H 61.0527 -1.25966 7.62465 0
M  V30 589 H 59.3977 -1.13971 6.85591 0
M  V30 590 H 62.5887 -1.05226 4.5612 0
M  V30 591 H 62.7617 -1.20936 6.36615 0
M  V30 592 N 56.1678 -1.49265 -0.50573 0
M  V30 593 C 57.4138 -1.58748 -1.26202 0
M  V30 594 C 57.7468 -0.271227 -1.92297 0
M  V30 595 O 57.0218 0.724831 -1.80489 0
M  V30 596 C 57.3048 -2.74332 -2.33268 0
M  V30 597 C 57.1578 -4.15737 -1.71705 0
M  V30 598 C 58.4768 -2.85576 -3.34865 0
M  V30 599 H 55.5958 -0.577826 -0.457478 0
M  V30 600 H 58.2378 -1.81532 -0.560897 0
M  V30 601 H 56.3878 -2.55036 -2.93068 0
M  V30 602 H 58.0598 -4.46537 -1.15769 0
M  V30 603 H 56.3028 -4.21605 -1.02135 0
M  V30 604 H 56.9738 -4.92477 -2.49341 0
M  V30 605 H 59.4498 -3.03127 -2.8505 0
M  V30 606 H 58.3258 -3.68135 -4.07146 0
M  V30 607 H 58.5868 -1.94732 -3.96903 0
M  V30 608 N 57.6459 0.756429 -1.3826 0
M  V30 609 C 58.5759 1.88374 -1.37976 0
M  V30 610 C 59.5569 1.68311 -0.246082 0
M  V30 611 O 60.7419 1.88944 -0.44874 0
M  V30 612 C 57.8719 3.25864 -1.20125 0
M  V30 613 C 56.8259 3.60523 -2.30666 0
M  V30 614 C 56.1519 4.9672 -1.97923 0
M  V30 615 C 57.4519 3.65692 -3.72916 0
M  V30 616 H 59.1459 1.88869 -2.32312 0
M  V30 617 H 56.6919 0.907272 -1.11824 0
M  V30 618 H 58.6449 4.0438 -1.18552 0
M  V30 619 H 57.3689 3.25841 -0.222498 0
M  V30 620 H 56.0279 2.84324 -2.3142 0
M  V30 621 H 55.6759 4.93253 -0.985393 0
M  V30 622 H 55.3759 5.20878 -2.71955 0
M  V30 623 H 56.8999 5.77618 -1.97964 0
M  V30 624 H 58.3139 4.34328 -3.74208 0
M  V30 625 H 56.7109 4.01358 -4.4613 0
M  V30 626 H 57.7809 2.65987 -4.05436 0
M  V30 627 N 59.124 1.23083 0.984299 0
M  V30 628 C 60.054 1.03292 2.09411 0
M  V30 629 C 61.035 -0.048923 1.7003 0
M  V30 630 O 62.22 0.114967 1.93859 0
M  V30 631 C 59.35 0.619155 3.41736 0
M  V30 632 C 58.304 1.64791 3.95004 0
M  V30 633 C 57.63 1.0897 5.23478 0
M  V30 634 C 58.93 3.03999 4.24714 0
M  V30 635 H 60.624 1.96119 2.26225 0
M  V30 636 H 58.17 0.944344 1.08711 0
M  V30 637 H 60.123 0.467777 4.18796 0
M  V30 638 H 58.847 -0.344786 3.24775 0
M  V30 639 H 57.506 1.78721 3.20085 0
M  V30 640 H 57.154 0.11686 5.02864 0
M  V30 641 H 56.854 1.77704 5.60085 0
M  V30 642 H 58.378 0.950093 6.03163 0
M  V30 643 H 59.792 2.93393 4.92538 0
M  V30 644 H 58.189 3.69936 4.72512 0
M  V30 645 H 59.259 3.53285 3.32142 0
M  V30 646 N 60.6021 -1.18246 1.0419 0
M  V30 647 C 61.8481 -1.88536 0.747122 0
M  V30 648 C 62.1811 -1.80223 -0.723409 0
M  V30 649 O 61.4561 -1.20337 -1.52804 0
M  V30 650 C 61.7391 -3.38968 1.21544 0
M  V30 651 C 61.5921 -3.56084 2.74816 0
M  V30 652 C 62.9111 -4.32648 0.806482 0
M  V30 653 H 60.0301 -0.684619 0.272883 0
M  V30 654 H 62.6721 -1.39113 1.29413 0
M  V30 655 H 60.8221 -3.8119 0.750081 0
M  V30 656 H 62.4941 -3.22946 3.29399 0
M  V30 657 H 60.7371 -2.98699 3.14582 0
M  V30 658 H 61.4081 -4.61639 3.02644 0
M  V30 659 H 63.8841 -3.98211 1.20695 0
M  V30 660 H 62.7601 -5.36462 1.1619 0
M  V30 661 H 63.0211 -4.41146 -0.29029 0
M  V30 662 N 62.0802 -0.821533 -1.34494 0
M  V30 663 C 63.3052 -0.420873 -2.03085 0
M  V30 664 C 63.7302 0.964915 -1.61465 0
M  V30 665 O 63.0882 1.62763 -0.798607 0
M  V30 666 C 63.1362 -0.529414 -3.56693 0
M  V30 667 O 62.2402 0.451302 -4.09923 0
M  V30 668 H 61.5812 -0.173489 -0.640935 0
M  V30 669 H 64.1112 -1.11157 -1.71771 0
M  V30 670 H 64.1212 -0.404671 -4.05988 0
M  V30 671 H 62.7962 -1.54014 -3.86332 0
M  V30 672 H 61.3732 0.285558 -3.71805 0
M  V30 673 N 63.5583 1.46682 -0.576371 0
M  V30 674 C 64.7863 2.06798 -0.0649635 0
M  V30 675 C 65.2013 1.42612 1.23723 0
M  V30 676 O 64.5583 0.529203 1.74659 0
M  V30 677 C 64.6093 3.6132 0.114202 0
M  V30 678 O 64.3303 4.23104 -1.13644 0
M  V30 679 C 65.8313 4.38349 0.66069 0
M  V30 680 H 63.0513 0.668778 -0.0545616 0
M  V30 681 H 65.5953 1.88404 -0.795237 0
M  V30 682 H 63.7503 3.79162 0.794673 0
M  V30 683 H 64.1643 5.15894 -0.946253 0
M  V30 684 H 65.6383 5.47081 0.73526 0
M  V30 685 H 66.1153 4.05953 1.67627 0
M  V30 686 H 66.7213 4.25297 0.0152951 0
M  V30 687 N 65.0364 0.313813 1.54444 0
M  V30 688 C 66.3134 -0.345447 1.92525 0
M  V30 689 C 66.6934 -1.70667 1.24242 0
M  V30 690 O 66.0414 -2.25273 0.382654 0
M  V30 691 C 66.2514 -0.44737 3.46121 0
M  V30 692 C 67.5994 -0.712238 4.18584 0
M  V30 693 O 68.6234 -0.530678 3.52225 0
M  V30 694 O 67.4824 -1.06183 5.36085 0
M  V30 695 H 64.5764 -0.195407 0.803583 0
M  V30 696 H 67.1224 0.362813 1.65776 0
M  V30 697 H 65.8944 0.509043 3.87975 0
M  V30 698 H 65.5174 -1.20359 3.78945 0
M  V30 699 N 66.5145 -1.57545 0.0417849 0
M  V30 700 C 67.9255 -1.80011 -0.495259 0
M  V30 701 C 68.2765 -0.953199 -1.71489 0
M  V30 702 O 67.4015 -0.167138 -2.15754 0
M  V30 703 C 67.9965 -3.26482 -0.905265 0
M  V30 704 C 66.5555 -3.499 -1.38734 0
M  V30 705 C 65.7025 -2.74979 -0.358056 0
M  V30 706 H 68.6535 -1.56425 0.267736 0
M  V30 707 H 68.6745 -3.36887 -1.76882 0
M  V30 708 H 68.1865 -3.88096 -0.017401 0
M  V30 709 H 66.2875 -2.93553 -2.29471 0
M  V30 710 H 66.4005 -4.58615 -1.38598 0
M  V30 711 H 64.7645 -2.40834 -0.828912 0
M  V30 712 H 65.5475 -3.39315 0.521561 0
M  V30 713 N 67.9926 0.231505 -1.5589 0
M  V30 714 C 68.9556 1.27028 -1.90779 0
M  V30 715 C 69.9556 1.40308 -0.785507 0
M  V30 716 O 71.1456 1.38744 -1.05336 0
M  V30 717 C 68.2776 2.64566 -2.14983 0
M  V30 718 H 69.4706 0.973017 -2.83677 0
M  V30 719 H 67.0236 0.471486 -1.49019 0
M  V30 720 H 67.7586 2.99406 -1.24604 0
M  V30 721 H 67.5436 2.56305 -2.96732 0
M  V30 722 H 69.0336 3.39543 -2.43105 0
M  V30 723 N 69.4707 1.49531 0.497807 0
M  V30 724 C 70.6957 1.63159 1.28039 0
M  V30 725 C 71.1207 0.30418 1.85624 0
M  V30 726 O 70.4787 -0.728618 1.66015 0
M  V30 727 C 70.5267 2.70537 2.38416 0
M  V30 728 O 69.6307 2.29931 3.42353 0
M  V30 729 H 68.9717 0.546001 0.377861 0
M  V30 730 H 71.5017 1.9574 0.59558 0
M  V30 731 H 71.5117 2.92802 2.84132 0
M  V30 732 H 70.1867 3.6689 1.95869 0
M  V30 733 H 68.7637 2.18009 3.02533 0
M  V30 734 N 70.9488 -0.749086 1.3866 0
M  V30 735 C 71.8968 -1.88428 1.36373 0
M  V30 736 C 72.8908 -1.67561 0.248929 0
M  V30 737 O 74.0968 -1.75074 0.41821 0
M  V30 738 H 70.4718 -0.620023 0.42553 0
M  V30 739 H 72.4428 -1.87473 2.32156 0
M  V30 740 C 71.1918 -3.25961 1.21014 0
M  V30 741 H 70.5148 -3.42607 2.06059 0
M  V30 742 H 71.9548 -4.05625 1.23469 0
M  V30 743 C 70.4138 -3.36799 -0.0825941 0
M  V30 744 O 70.9438 -3.87517 -1.05797 0
M  V30 745 N 69.1498 -2.90258 -0.140939 0
M  V30 746 H 68.6968 -2.49174 0.653477 0
M  V30 747 H 68.6548 -2.97889 -1.00545 0
M  V30 748 N 72.4269 -1.23603 -0.977757 0
M  V30 749 C 73.6729 -1.07129 -1.72195 0
M  V30 750 C 74.0059 0.390501 -1.90233 0
M  V30 751 O 73.2809 1.28902 -1.45653 0
M  V30 752 C 73.5639 -1.80031 -3.11867 0
M  V30 753 C 73.4169 -3.33899 -3.01383 0
M  V30 754 C 74.7359 -1.56492 -4.11337 0
M  V30 755 H 71.8549 -0.390571 -0.624999 0
M  V30 756 H 74.4969 -1.52142 -1.13811 0
M  V30 757 H 72.6469 -1.41768 -3.6171 0
M  V30 758 H 74.3189 -3.81699 -2.59043 0
M  V30 759 H 72.5619 -3.62796 -2.37827 0
M  V30 760 H 73.2329 -3.801 -4.00285 0
M  V30 761 H 75.7089 -1.89757 -3.70313 0
M  V30 762 H 74.5849 -2.09973 -5.07151 0
M  V30 763 H 74.8459 -0.500874 -4.39254 0
M  V30 764 N 73.905 1.17692 -1.04816 0
M  V30 765 C 75.153 1.87488 -0.754497 0
M  V30 766 C 75.474 1.81205 0.720407 0
M  V30 767 O 74.744 1.23544 1.52032 0
M  V30 768 H 73.324 0.694101 -0.276102 0
M  V30 769 H 75.986 1.42793 -1.32651 0
M  V30 770 H 75.082 2.93328 -1.06606 0
M  V30 771 N 75.3831 0.828654 1.34056 0
M  V30 772 C 76.3151 0.212052 2.28217 0
M  V30 773 C 77.3281 -0.601362 1.51286 0
M  V30 774 O 78.5171 -0.430104 1.73241 0
M  V30 775 C 75.6171 -0.72088 3.31144 0
M  V30 776 C 74.7901 0.0509587 4.3737 0
M  V30 777 C 73.8491 -0.803766 5.20025 0
M  V30 778 O 72.8751 -0.246667 5.68665 0
M  V30 779 N 74.0771 -2.1227 5.40298 0
M  V30 780 H 76.8421 1.02105 2.81771 0
M  V30 781 H 74.4031 0.686153 1.46641 0
M  V30 782 H 76.3951 -1.29742 3.8334 0
M  V30 783 H 74.9651 -1.43061 2.77943 0
M  V30 784 H 74.1851 0.808831 3.85813 0
M  V30 785 H 75.4731 0.582065 5.0546 0
M  V30 786 H 74.8711 -2.59898 5.02464 0
M  V30 787 H 73.4281 -2.64796 5.95589 0
M  V30 788 N 76.8612 -1.46375 0.584142 0
M  V30 789 C 78.1072 -2.02678 0.0703716 0
M  V30 790 C 78.4402 -1.4545 -1.28678 0
M  V30 791 O 77.7152 -0.62014 -1.84349 0
M  V30 792 C 77.9982 -3.60099 0.00614674 0
M  V30 793 C 77.8512 -4.27709 1.3923 0
M  V30 794 C 79.1702 -4.34598 -0.693742 0
M  V30 795 H 76.2892 -0.736504 0.027047 0
M  V30 796 H 78.9312 -1.74501 0.751615 0
M  V30 797 H 77.0812 -3.84236 -0.574009 0
M  V30 798 H 78.7532 -4.14832 2.01773 0
M  V30 799 H 76.9962 -3.87016 1.95962 0
M  V30 800 H 77.6672 -5.36478 1.29982 0
M  V30 801 H 80.1432 -4.15615 -0.200869 0
M  V30 802 H 79.0192 -5.44318 -0.707714 0
M  V30 803 H 79.2802 -4.05759 -1.75533 0
M  V30 804 N 78.3393 -0.321999 -1.54275 0
M  V30 805 C 79.5863 0.281044 -2.0054 0
M  V30 806 C 79.9143 1.52265 -1.21019 0
M  V30 807 O 79.1693 1.93687 -0.279982 0
M  V30 808 C 79.4683 0.661769 -3.5122 0
M  V30 809 C 79.1343 -0.480482 -4.48333 0
M  V30 810 C 77.7963 -0.794005 -4.74604 0
M  V30 811 C 80.1483 -1.24783 -5.06042 0
M  V30 812 C 77.4763 -1.87763 -5.55844 0
M  V30 813 C 79.8283 -2.32153 -5.88462 0
M  V30 814 C 78.4923 -2.64089 -6.13036 0
M  V30 815 H 77.7623 0.102841 -0.733829 0
M  V30 816 H 80.4093 -0.445453 -1.86247 0
M  V30 817 H 78.7143 1.46867 -3.63232 0
M  V30 818 H 80.4113 1.13989 -3.84457 0
M  V30 819 H 77.0013 -0.226039 -4.28004 0
M  V30 820 H 81.1853 -1.01887 -4.85729 0
M  V30 821 H 76.4413 -2.12954 -5.73115 0
M  V30 822 H 80.6153 -2.92057 -6.32199 0
M  V30 823 H 78.2423 -3.48185 -6.75775 0
M  V30 824 N 79.8174 1.5752 -0.0501392 0
M  V30 825 C 81.0424 1.97376 0.636997 0
M  V30 826 C 81.4674 0.927466 1.63645 0
M  V30 827 O 80.8254 -0.10941 1.8097 0
M  V30 828 C 80.8734 3.36304 1.30123 0
M  V30 829 O 79.9774 3.34156 2.41689 0
M  V30 830 H 79.3184 0.642998 0.165679 0
M  V30 831 H 81.8484 2.04258 -0.118233 0
M  V30 832 H 81.8584 3.73008 1.65315 0
M  V30 833 H 80.5334 4.11993 0.568746 0
M  V30 834 H 79.1104 3.09196 2.08451 0
M  V30 835 N 81.2955 -0.223234 1.56011 0
M  V30 836 C 82.2275 -1.30006 1.88762 0
M  V30 837 C 83.2405 -1.43129 0.775746 0
M  V30 838 O 84.4295 -1.44057 1.05403 0
M  V30 839 C 81.5295 -2.67589 2.07965 0
M  V30 840 C 80.7025 -2.76434 3.38973 0
M  V30 841 C 79.7615 -3.95019 3.47629 0
M  V30 842 O 78.7875 -3.83436 4.20672 0
M  V30 843 N 79.9895 -5.09249 2.78649 0
M  V30 844 H 82.7545 -1.02238 2.81722 0
M  V30 845 H 80.3155 -0.413278 1.56536 0
M  V30 846 H 82.3075 -3.45297 2.11073 0
M  V30 847 H 80.8775 -2.87964 1.21638 0
M  V30 848 H 80.0975 -1.85216 3.47978 0
M  V30 849 H 81.3855 -2.79313 4.25278 0
M  V30 850 H 80.7835 -5.21556 2.19081 0
M  V30 851 H 79.3405 -5.85007 2.8742 0
M  V30 852 N 82.7736 -1.49793 -0.48987 0
M  V30 853 C 84.0016 -1.63568 -1.26701 0
M  V30 854 C 84.4166 -0.311465 -1.86213 0
M  V30 855 O 83.7736 0.704416 -1.68357 0
M  V30 856 C 83.8246 -2.71284 -2.38929 0
M  V30 857 O 83.5456 -3.9857 -1.81861 0
M  V30 858 C 85.0466 -2.95864 -3.3012 0
M  V30 859 H 82.2666 -0.550342 -0.383881 0
M  V30 860 H 84.8106 -1.95898 -0.586864 0
M  V30 861 H 82.9656 -2.417 -3.02753 0
M  V30 862 H 83.3796 -4.57993 -2.55622 0
M  V30 863 H 84.8536 -3.74941 -4.05121 0
M  V30 864 H 85.3306 -2.06206 -3.87783 0
M  V30 865 H 85.9366 -3.26907 -2.72051 0
M  V30 866 N 84.2517 0.741722 -1.39055 0
M  V30 867 C 85.5007 1.49656 -1.35225 0
M  V30 868 C 85.8137 1.95533 0.0512708 0
M  V30 869 O 87.0197 2.7067 0.212138 0
M  V30 870 C 85.4757 2.70389 -2.37525 0
M  V30 871 C 85.0837 2.31489 -3.83558 0
M  V30 872 C 86.8277 3.48236 -2.42759 0
M  V30 873 C 84.7347 3.48903 -4.77515 0
M  V30 874 H 83.6647 0.56197 -0.502699 0
M  V30 875 H 86.3157 0.809727 -1.64668 0
M  V30 876 H 84.6977 3.41113 -2.01142 0
M  V30 877 H 85.8717 1.68354 -4.28945 0
M  V30 878 H 84.1867 1.66749 -3.81554 0
M  V30 879 H 86.7837 4.35558 -3.1015 0
M  V30 880 H 87.1267 3.90229 -1.45008 0
M  V30 881 H 87.6597 2.84535 -2.78002 0
M  V30 882 H 84.3987 3.11966 -5.76504 0
M  V30 883 H 83.9187 4.11041 -4.36813 0
M  V30 884 H 85.5977 4.15328 -4.96096 0
M  V30 885 N 85.7298 1.2412 0.971189 0
M  V30 886 C 86.9778 1.07668 1.71032 0
M  V30 887 C 87.2988 -0.385797 1.91146 0
M  V30 888 O 86.5688 -1.27569 1.4867 0
M  V30 889 H 85.1488 0.395429 0.633755 0
M  V30 890 H 87.8108 1.55984 1.16855 0
M  V30 891 H 86.9068 1.57195 2.69622 0
M  V30 892 N 87.2079 -1.17134 1.05439 0
M  V30 893 C 88.4569 -1.86791 0.761049 0
M  V30 894 C 88.7699 -1.82072 -0.714795 0
M  V30 895 O 89.9759 -2.47223 -1.12218 0
M  V30 896 C 88.4319 -3.35166 1.31117 0
M  V30 897 C 88.0399 -3.48381 2.81664 0
M  V30 898 C 89.7839 -4.10134 1.09499 0
M  V30 899 C 87.6909 -4.90793 3.29964 0
M  V30 900 H 86.6209 -0.699681 0.281002 0
M  V30 901 H 89.2719 -1.3226 1.27199 0
M  V30 902 H 87.6539 -3.8925 0.72803 0
M  V30 903 H 88.8279 -3.04502 3.45855 0
M  V30 904 H 87.1429 -2.86836 3.01851 0
M  V30 905 H 89.7399 -5.152 1.43084 0
M  V30 906 H 90.0829 -4.16287 0.0328772 0
M  V30 907 H 90.6159 -3.62264 1.64346 0
M  V30 908 H 87.3549 -4.89816 4.35616 0
M  V30 909 H 86.8749 -5.35333 2.70516 0
M  V30 910 H 88.5539 -5.59573 3.24787 0
M  V30 911 N 88.686 -0.835752 -1.33615 0
M  V30 912 C 89.914 -0.443344 -2.02094 0
M  V30 913 C 90.329 0.954522 -1.62894 0
M  V30 914 O 89.686 1.61982 -0.840723 0
M  V30 915 C 89.737 -0.550775 -3.5728 0
M  V30 916 O 89.458 -1.89356 -3.95065 0
M  V30 917 C 90.959 -0.154919 -4.43029 0
M  V30 918 H 88.179 -0.176359 -0.647409 0
M  V30 919 H 90.723 -1.12746 -1.70612 0
M  V30 920 H 88.878 0.0853997 -3.87306 0
M  V30 921 H 89.292 -1.87687 -4.89769 0
M  V30 922 H 90.766 -0.281144 -5.51284 0
M  V30 923 H 91.243 0.902863 -4.2982 0
M  V30 924 H 91.849 -0.765404 -4.18356 0
M  V30 925 N 90.1641 1.46063 -0.591896 0
M  V30 926 C 91.4131 2.01547 -0.0786637 0
M  V30 927 C 91.7261 1.46796 1.29268 0
M  V30 928 O 92.9321 1.94157 1.89777 0
M  V30 929 C 91.3881 3.59787 -0.0900024 0
M  V30 930 C 90.9961 4.23534 -1.46023 0
M  V30 931 C 92.7401 4.22895 0.368806 0
M  V30 932 C 90.6471 5.73881 -1.4288 0
M  V30 933 H 89.5771 0.753564 -0.0256388 0
M  V30 934 H 92.2281 1.677 -0.744905 0
M  V30 935 H 90.6101 3.90752 0.642586 0
M  V30 936 H 91.7841 4.04167 -2.21328 0
M  V30 937 H 90.0991 3.72558 -1.85982 0
M  V30 938 H 92.6961 5.33116 0.411258 0
M  V30 939 H 93.0391 3.9247 1.38827 0
M  V30 940 H 93.5721 3.9659 -0.31001 0
M  V30 941 H 90.3111 6.0898 -2.42536 0
M  V30 942 H 89.8311 5.95486 -0.718095 0
M  V30 943 H 91.5101 6.36776 -1.14565 0
M  V30 944 N 91.6422 0.330177 1.54103 0
M  V30 945 C 92.5742 -0.566902 2.22079 0
M  V30 946 C 93.5872 -1.07462 1.22294 0
M  V30 947 O 94.7762 -0.987065 1.48726 0
M  V30 948 C 91.8762 -1.79138 2.87685 0
M  V30 949 C 91.0492 -1.42123 4.13666 0
M  V30 950 C 90.1082 -2.50394 4.62806 0
M  V30 951 O 89.1342 -2.14261 5.27334 0
M  V30 952 N 90.3362 -3.81433 4.37595 0
M  V30 953 H 93.1012 0.0151844 2.99696 0
M  V30 954 H 90.6622 0.153681 1.61169 0
M  V30 955 H 92.6542 -2.50975 3.1748 0
M  V30 956 H 91.2242 -2.28115 2.13734 0
M  V30 957 H 90.4442 -0.534201 3.90564 0
M  V30 958 H 91.7322 -1.14971 4.9564 0
M  V30 959 H 91.1302 -4.13584 3.8596 0
M  V30 960 H 89.6872 -4.4948 4.72029 0
M  V30 961 N 93.1203 -1.57491 0.0584922 0
M  V30 962 C 94.0833 -2.1085 -0.898617 0
M  V30 963 C 95.0833 -1.02964 -1.23511 0
M  V30 964 O 96.2733 -1.29007 -1.17059 0
M  V30 965 C 93.4053 -2.59881 -2.20623 0
M  V30 966 H 94.5983 -2.96715 -0.435936 0
M  V30 967 H 92.1513 -1.55141 -0.190023 0
M  V30 968 H 92.8863 -1.77431 -2.71457 0
M  V30 969 H 92.6713 -3.38727 -1.97501 0
M  V30 970 H 94.1613 -3.01285 -2.89166 0
M  V30 971 N 94.5984 0.214957 -1.56127 0
M  V30 972 C 95.8474 0.936451 -1.78643 0
M  V30 973 C 96.1604 1.85237 -0.628229 0
M  V30 974 O 97.3664 2.613 -0.737186 0
M  V30 975 C 95.8224 1.7154 -3.16389 0
M  V30 976 C 95.4304 0.845299 -4.39953 0
M  V30 977 C 97.1744 2.42772 -3.48227 0
M  V30 978 C 95.0814 1.62198 -5.68723 0
M  V30 979 H 94.0114 0.353401 -0.666051 0
M  V30 980 H 96.6624 0.190169 -1.82512 0
M  V30 981 H 95.0444 2.50484 -3.06715 0
M  V30 982 H 96.2184 0.0959353 -4.607 0
M  V30 983 H 94.5334 0.244789 -4.1568 0
M  V30 984 H 97.1304 3.01394 -4.41663 0
M  V30 985 H 97.4734 3.15984 -2.71035 0
M  V30 986 H 98.0064 1.70813 -3.5926 0
M  V30 987 H 94.7454 0.933011 -6.48826 0
M  V30 988 H 94.2654 2.34579 -5.52026 0
M  V30 989 H 95.9444 2.18095 -6.09133 0
M  V30 990 N 96.0765 1.50051 0.48192 0
M  V30 991 C 97.0395 1.67584 1.5636 0
M  V30 992 C 98.0395 0.546894 1.51214 0
M  V30 993 O 99.2295 0.813725 1.54026 0
M  V30 994 C 96.3615 1.691 2.96003 0
M  V30 995 H 97.5545 2.64078 1.42136 0
M  V30 996 H 95.1075 1.39369 0.707533 0
M  V30 997 H 95.8425 0.742589 3.15684 0
M  V30 998 H 95.6275 2.51105 3.01146 0
M  V30 999 H 97.1175 1.84656 3.74556 0
M  V30 1000 N 97.5546 -0.734337 1.39446 0
M  V30 1001 C 98.7796 -1.52866 1.40167 0
M  V30 1002 C 99.2046 -1.881 -0.00171513 0
M  V30 1003 O 98.5626 -1.51957 -0.988879 0
M  V30 1004 C 98.6106 -2.79235 2.28167 0
M  V30 1005 O 97.7146 -3.75185 1.71201 0
M  V30 1006 H 97.0556 -0.461618 0.477289 0
M  V30 1007 H 99.5856 -0.905949 1.8345 0
M  V30 1008 H 99.5956 -3.27963 2.42702 0
M  V30 1009 H 98.2706 -2.52923 3.30156 0
M  V30 1010 H 96.8476 -3.33958 1.65912 0
M  V30 1011 N 99.0327 -1.24633 -0.964593 0
M  V30 1012 C 100.279 -1.08949 -1.71049 0
M  V30 1013 C 100.612 0.370302 -1.90637 0
M  V30 1014 O 99.8867 1.27349 -1.47011 0
M  V30 1015 C 100.17 -1.83329 -3.0994 0
M  V30 1016 C 100.023 -3.37077 -2.97824 0
M  V30 1017 C 101.342 -1.60846 -4.09654 0
M  V30 1018 H 98.4607 -0.397178 -0.620821 0
M  V30 1019 H 101.103 -1.5334 -1.12191 0
M  V30 1020 H 99.2527 -1.45597 -3.60186 0
M  V30 1021 H 100.925 -3.84425 -2.5498 0
M  V30 1022 H 99.1677 -3.65298 -2.33965 0
M  V30 1023 H 99.8387 -3.84324 -3.96231 0
M  V30 1024 H 102.315 -1.93674 -3.68279 0
M  V30 1025 H 101.191 -2.1534 -5.04896 0
M  V30 1026 H 101.452 -0.547434 -4.38698 0
M  V30 1027 N 100.511 1.16574 -1.06058 0
M  V30 1028 C 101.922 1.68662 -0.800632 0
M  V30 1029 C 102.273 1.84184 0.67608 0
M  V30 1030 O 101.398 1.53568 1.52466 0
M  V30 1031 C 101.993 3.06356 -1.44676 0
M  V30 1032 C 100.552 3.55575 -1.23465 0
M  V30 1033 C 99.6988 2.31616 -1.52477 0
M  V30 1034 H 102.65 1.00969 -1.22438 0
M  V30 1035 H 102.671 3.70636 -0.860788 0
M  V30 1036 H 102.183 2.95027 -2.52152 0
M  V30 1037 H 100.284 3.72167 -0.179527 0
M  V30 1038 H 100.397 4.37812 -1.94571 0
M  V30 1039 H 98.7608 2.36512 -0.945209 0
M  V30 1040 H 99.5438 2.22887 -2.61106 0
M  V30 1041 N 101.989 0.842826 1.3317 0
M  V30 1042 C 103.237 0.439577 1.97262 0
M  V30 1043 C 103.558 -1.00548 1.67078 0
M  V30 1044 O 102.828 -1.70098 0.971779 0
M  V30 1045 H 101.408 0.159558 0.72976 0
M  V30 1046 H 104.07 1.07665 1.62463 0
M  V30 1047 H 103.166 0.574886 3.0676 0
M  V30 1048 N 103.467 -1.45747 0.599634 0
M  V30 1049 C 104.397 -2.33235 -0.111306 0
M  V30 1050 C 105.378 -1.46359 -0.866781 0
M  V30 1051 O 106.563 -1.75146 -0.838904 0
M  V30 1052 C 103.693 -3.28932 -1.11451 0
M  V30 1053 C 102.647 -4.25381 -0.472772 0
M  V30 1054 C 101.973 -5.1071 -1.58365 0
M  V30 1055 C 103.273 -5.18831 0.600948 0
M  V30 1056 H 104.967 -2.92927 0.61919 0
M  V30 1057 H 102.513 -1.40857 0.299215 0
M  V30 1058 H 104.466 -3.89002 -1.62036 0
M  V30 1059 H 103.19 -2.67381 -1.8755 0
M  V30 1060 H 101.849 -3.66598 0.0121472 0
M  V30 1061 H 101.497 -4.45533 -2.33473 0
M  V30 1062 H 101.197 -5.7604 -1.15982 0
M  V30 1063 H 102.721 -5.73647 -2.09194 0
M  V30 1064 H 104.135 -5.73019 0.179491 0
M  V30 1065 H 102.532 -5.92595 0.946076 0
M  V30 1066 H 103.602 -4.6174 1.48068 0
M  V30 1067 N 104.945 -0.338344 -1.53925 0
M  V30 1068 C 106.17 0.263987 -2.05713 0
M  V30 1069 C 106.595 1.43847 -1.21201 0
M  V30 1070 O 105.953 1.79904 -0.224535 0
M  V30 1071 C 106.001 0.662 -3.54471 0
M  V30 1072 O 105.105 1.76265 -3.72833 0
M  V30 1073 H 104.446 0.0448722 -0.662482 0
M  V30 1074 H 106.976 -0.491048 -1.9862 0
M  V30 1075 H 106.986 0.940594 -3.9701 0
M  V30 1076 H 105.661 -0.196937 -4.15433 0
M  V30 1077 H 104.238 1.48173 -3.42198 0
M  V30 1078 N 106.423 1.57458 -0.0668435 0
M  V30 1079 C 107.386 2.11323 0.887422 0
M  V30 1080 C 108.386 1.03618 1.22964 0
M  V30 1081 O 109.576 1.29626 1.16373 0
M  V30 1082 C 106.708 2.61048 2.19242 0
M  V30 1083 H 107.901 2.96942 0.420194 0
M  V30 1084 H 105.454 1.55239 0.181793 0
M  V30 1085 H 106.189 1.78868 2.70512 0
M  V30 1086 H 105.974 3.39769 1.95702 0
M  V30 1087 H 107.464 3.02814 2.87565 0
M  V30 1088 N 107.901 -0.206675 1.56239 0
M  V30 1089 C 108.831 -1.25909 1.96645 0
M  V30 1090 C 109.812 -1.48097 0.836734 0
M  V30 1091 O 110.997 -1.6003 1.10019 0
M  V30 1092 C 108.127 -2.6058 2.29599 0
M  V30 1093 C 107.081 -2.53024 3.452 0
M  V30 1094 C 106.407 -3.91861 3.63798 0
M  V30 1095 C 107.707 -2.06524 4.79734 0
M  V30 1096 H 109.401 -0.923369 2.84806 0
M  V30 1097 H 106.947 -0.442735 1.37025 0
M  V30 1098 H 108.9 -3.34375 2.56459 0
M  V30 1099 H 107.624 -2.95869 1.38307 0
M  V30 1100 H 106.283 -1.81684 3.18412 0
M  V30 1101 H 105.931 -4.24483 2.69857 0
M  V30 1102 H 105.631 -3.87683 4.4156 0
M  V30 1103 H 107.155 -4.67296 3.93022 0
M  V30 1104 H 108.569 -2.70072 5.05702 0
M  V30 1105 H 106.966 -2.13374 5.60885 0
M  V30 1106 H 108.036 -1.01802 4.74093 0
M  V30 1107 N 109.379 -1.50304 -0.473955 0
M  V30 1108 C 110.289 -1.7174 -1.5982 0
M  V30 1109 C 111.305 -0.600457 -1.63311 0
M  V30 1110 O 112.481 -0.878441 -1.81233 0
M  V30 1111 C 109.546 -1.80427 -2.96052 0
M  V30 1112 C 108.607 -3.04148 -3.02972 0
M  V30 1113 C 107.84 -3.12411 -4.32706 0
M  V30 1114 O 108.063 -2.27542 -5.23049 0
M  V30 1115 O 106.997 -4.05113 -4.45159 0
M  V30 1116 H 110.823 -2.67035 -1.44657 0
M  V30 1117 H 108.408 -1.34366 -0.653148 0
M  V30 1118 H 110.29 -1.88338 -3.7697 0
M  V30 1119 H 108.965 -0.883156 -3.11419 0
M  V30 1120 H 107.872 -3.0174 -2.21142 0
M  V30 1121 H 109.205 -3.95829 -2.92541 0
M  V30 1122 N 110.857 0.726932 -1.39834 0
M  V30 1123 C 112.106 1.48214 -1.36805 0
M  V30 1124 C 112.419 1.95576 0.0305291 0
M  V30 1125 O 113.625 2.7088 0.183417 0
M  V30 1126 C 112.081 2.67854 -2.40379 0
M  V30 1127 C 111.689 2.27408 -3.85992 0
M  V30 1128 C 113.433 3.45641 -2.46439 0
M  V30 1129 C 111.34 3.43819 -4.81189 0
M  V30 1130 H 110.27 0.556606 -0.508631 0
M  V30 1131 H 112.921 0.792216 -1.65518 0
M  V30 1132 H 111.303 3.3896 -2.04749 0
M  V30 1133 H 112.477 1.63795 -4.30706 0
M  V30 1134 H 110.792 1.62692 -3.83302 0
M  V30 1135 H 113.389 4.32244 -3.14753 0
M  V30 1136 H 113.732 3.88669 -1.49139 0
M  V30 1137 H 114.265 2.8157 -2.81004 0
M  V30 1138 H 111.004 3.05834 -5.79781 0
M  V30 1139 H 110.524 4.06385 -4.41148 0
M  V30 1140 H 112.203 4.10043 -5.00474 0
M  V30 1141 N 112.336 1.25143 0.95797 0
M  V30 1142 C 113.613 1.00472 1.67823 0
M  V30 1143 C 113.993 -0.470056 2.058 0
M  V30 1144 O 113.341 -1.44663 1.76875 0
M  V30 1145 C 113.551 1.9372 2.90299 0
M  V30 1146 C 114.899 2.21371 3.62326 0
M  V30 1147 O 115.923 1.91451 3.00375 0
M  V30 1148 O 114.782 2.72231 4.7387 0
M  V30 1149 H 111.876 0.380752 0.734137 0
M  V30 1150 H 114.422 1.36283 1.01119 0
M  V30 1151 H 113.194 2.93316 2.59001 0
M  V30 1152 H 112.817 1.58286 3.64735 0
M  V30 1153 N 113.814 -1.1601 1.06675 0
M  V30 1154 C 115.225 -1.68235 0.809565 0
M  V30 1155 C 115.576 -1.8454 -0.666303 0
M  V30 1156 O 114.701 -1.54374 -1.5165 0
M  V30 1157 C 115.296 -3.05585 1.46299 0
M  V30 1158 C 113.855 -3.54915 1.25349 0
M  V30 1159 C 113.002 -2.30804 1.53703 0
M  V30 1160 H 115.953 -1.00318 1.22971 0
M  V30 1161 H 115.974 -3.70174 0.880431 0
M  V30 1162 H 115.486 -2.93686 2.53713 0
M  V30 1163 H 113.587 -3.72067 0.199261 0
M  V30 1164 H 113.7 -4.36774 1.9689 0
M  V30 1165 H 112.064 -2.36007 0.957739 0
M  V30 1166 H 112.847 -2.21499 2.62284 0
M  V30 1167 N 115.292 -0.849877 -1.32721 0
M  V30 1168 C 116.224 -0.248332 -2.27851 0
M  V30 1169 C 117.237 0.577218 -1.52224 0
M  V30 1170 O 118.426 0.402489 -1.73903 0
M  V30 1171 C 115.526 0.668107 -3.32249 0
M  V30 1172 C 114.699 -0.120534 -4.37234 0
M  V30 1173 C 113.758 0.720932 -5.21238 0
M  V30 1174 O 112.784 0.156166 -5.68986 0
M  V30 1175 N 113.986 2.03647 -5.43607 0
M  V30 1176 H 116.751 -1.06575 -2.80111 0
M  V30 1177 H 114.312 -0.709395 -1.45531 0
M  V30 1178 H 116.304 1.23627 -3.85355 0
M  V30 1179 H 114.874 1.38621 -2.80184 0
M  V30 1180 H 114.094 -0.870108 -3.84477 0
M  V30 1181 H 115.382 -0.662406 -5.0447 0
M  V30 1182 H 114.78 2.51871 -5.06535 0
M  V30 1183 H 113.337 2.55287 -5.99727 0
M  V30 1184 N 116.77 1.45427 -0.607355 0
M  V30 1185 C 117.733 2.28974 0.101693 0
M  V30 1186 C 118.733 1.39754 0.795329 0
M  V30 1187 O 119.923 1.61878 0.643527 0
M  V30 1188 C 117.055 3.20768 1.15414 0
M  V30 1189 H 118.248 2.93147 -0.632844 0
M  V30 1190 H 115.801 1.51945 -0.366391 0
M  V30 1191 H 116.536 2.61395 1.91945 0
M  V30 1192 H 116.321 3.86489 0.66098 0
M  V30 1193 H 117.811 3.83589 1.65073 0
M  V30 1194 N 118.248 0.346503 1.53744 0
M  V30 1195 C 119.211 -0.496439 2.23759 0
M  V30 1196 C 120.211 -1.0252 1.2388 0
M  V30 1197 O 121.401 -0.913974 1.48297 0
M  V30 1198 C 118.533 -1.69187 2.95954 0
M  V30 1199 H 119.726 0.115952 2.99676 0
M  V30 1200 H 117.279 0.0978939 1.55993 0
M  V30 1201 H 118.014 -2.34288 2.24231 0
M  V30 1202 H 117.799 -1.31989 3.69217 0
M  V30 1203 H 119.289 -2.28969 3.49232 0
M  V30 1204 N 119.726 -1.57421 0.075193 0
M  V30 1205 C 120.689 -2.11791 -0.876203 0
M  V30 1206 C 121.689 -1.04268 -1.22412 0
M  V30 1207 O 122.879 -1.30242 -1.15684 0
M  V30 1208 C 120.011 -2.62207 -2.17854 0
M  V30 1209 H 121.204 -2.9716 -0.40444 0
M  V30 1210 H 118.757 -1.55333 -0.173557 0
M  V30 1211 H 119.492 -1.803 -2.6956 0
M  V30 1212 H 119.277 -3.40802 -1.93897 0
M  V30 1213 H 120.767 -3.04335 -2.85955 0
M  V30 1214 N 121.204 0.198386 -1.56346 0
M  V30 1215 C 122.136 1.26987 -1.90806 0
M  V30 1216 C 123.149 1.41877 -0.798419 0
M  V30 1217 O 124.338 1.42362 -1.07682 0
M  V30 1218 C 121.438 2.64246 -2.12196 0
M  V30 1219 C 120.611 2.71007 -3.43328 0
M  V30 1220 C 119.67 3.89439 -3.5387 0
M  V30 1221 O 118.696 3.76695 -4.26719 0
M  V30 1222 N 119.898 5.04752 -2.86715 0
M  V30 1223 H 122.663 0.977433 -2.83313 0
M  V30 1224 H 120.224 0.388322 -1.57174 0
M  V30 1225 H 122.216 3.41896 -2.1654 0
M  V30 1226 H 120.786 2.85992 -1.26204 0
M  V30 1227 H 120.006 1.79657 -3.50881 0
M  V30 1228 H 121.294 2.72512 -4.29668 0
M  V30 1229 H 120.692 5.18004 -2.2735 0
M  V30 1230 H 119.249 5.8036 -2.96691 0
M  V30 1231 N 122.682 1.50554 0.465978 0
M  V30 1232 C 123.614 1.65949 1.58093 0
M  V30 1233 C 124.627 0.540827 1.53554 0
M  V30 1234 O 125.816 0.814187 1.5885 0
M  V30 1235 C 122.916 1.63261 2.96983 0
M  V30 1236 C 122.089 2.91245 3.26336 0
M  V30 1237 C 121.148 2.8113 4.44806 0
M  V30 1238 O 120.174 3.55086 4.44862 0
M  V30 1239 N 121.376 1.95032 5.46756 0
M  V30 1240 H 124.141 2.62122 1.45301 0
M  V30 1241 H 121.702 1.48082 0.65448 0
M  V30 1242 H 123.694 1.54101 3.74212 0
M  V30 1243 H 122.264 0.748032 3.03518 0
M  V30 1244 H 121.484 3.14493 2.37672 0
M  V30 1245 H 122.772 3.76022 3.42761 0
M  V30 1246 H 122.17 1.3427 5.49534 0
M  V30 1247 H 120.727 1.91772 6.2295 0
M  V30 1248 N 124.16 -0.719506 1.40217 0
M  V30 1249 C 125.39 -1.50646 1.41384 0
M  V30 1250 C 125.798 -1.89197 0.0107743 0
M  V30 1251 O 125.141 -1.55709 -0.974708 0
M  V30 1252 C 125.203 -2.81405 2.23722 0
M  V30 1253 C 124.867 -2.65199 3.72181 0
M  V30 1254 C 125.864 -2.32717 4.64907 0
M  V30 1255 C 123.549 -2.81586 4.1595 0
M  V30 1256 C 125.543 -2.16827 5.99387 0
M  V30 1257 C 123.23 -2.65313 5.50502 0
M  V30 1258 C 124.228 -2.32981 6.42035 0
M  V30 1259 O 123.916 -2.16827 7.74107 0
M  V30 1260 H 123.648 -0.471606 0.484318 0
M  V30 1261 H 126.202 -0.895456 1.84853 0
M  V30 1262 H 124.432 -3.44823 1.75026 0
M  V30 1263 H 126.121 -3.43102 2.16878 0
M  V30 1264 H 126.887 -2.19694 4.32388 0
M  V30 1265 H 122.766 -3.0574 3.45027 0
M  V30 1266 H 126.31 -1.91513 6.70797 0
M  V30 1267 H 122.207 -2.7792 5.82607 0
M  V30 1268 H 122.975 -2.31778 7.84998 0
M  V30 1269 N 125.638 -1.25649 -0.95132 0
M  V30 1270 C 127.054 -1.02542 -1.223 0
M  V30 1271 C 127.254 0.255715 -1.99871 0
M  V30 1272 O 126.31 0.967558 -2.33226 0
M  V30 1273 C 127.623 -2.25065 -1.99415 0
M  V30 1274 C 129.171 -2.29861 -2.12446 0
M  V30 1275 C 129.646 -3.52048 -2.92961 0
M  V30 1276 N 131.137 -3.52465 -3.00538 0
M  V30 1277 C 131.872 -4.43672 -3.63239 0
M  V30 1278 N 131.368 -5.45157 -4.27523 0
M  V30 1279 N 133.161 -4.31346 -3.60412 0
M  V30 1280 H 125.312 -2.07951 -0.432471 0
M  V30 1281 H 127.575 -0.91339 -0.253816 0
M  V30 1282 H 127.281 -3.18194 -1.49817 0
M  V30 1283 H 127.155 -2.28502 -3.00111 0
M  V30 1284 H 129.542 -1.37252 -2.61239 0
M  V30 1285 H 129.623 -2.3044 -1.11044 0
M  V30 1286 H 129.267 -4.44981 -2.44856 0
M  V30 1287 H 129.197 -3.48715 -3.94596 0
M  V30 1288 H 131.688 -2.79056 -2.54826 0
M  V30 1289 H 132.001 -6.10958 -4.73234 0
M  V30 1290 H 130.346 -5.49025 -4.26141 0
M  V30 1291 H 133.537 -3.51288 -3.09377 0
M  V30 1292 H 133.71 -5.02624 -4.0899 0
M  V30 1293 N 127.117 1.15442 -1.07289 0
M  V30 1294 C 128.08 2.18358 -0.696591 0
M  V30 1295 C 129.08 1.58637 0.262837 0
M  V30 1296 O 130.27 1.74145 0.0438809 0
M  V30 1297 C 127.402 3.4089 -0.0266151 0
M  V30 1298 H 128.595 2.53162 -1.60776 0
M  V30 1299 H 126.148 1.29893 -0.869342 0
M  V30 1300 H 126.883 3.11653 0.896822 0
M  V30 1301 H 126.668 3.85495 -0.716657 0
M  V30 1302 H 128.158 4.17009 0.222028 0
M  V30 1303 N 128.595 0.856903 1.32268 0
M  V30 1304 C 130.011 0.547061 1.49931 0
M  V30 1305 C 130.211 -0.921781 1.7918 0
M  V30 1306 O 129.267 -1.70469 1.8627 0
M  V30 1307 C 130.58 1.43599 2.64196 0
M  V30 1308 C 132.128 1.43665 2.78081 0
M  V30 1309 C 132.603 2.31085 3.95428 0
M  V30 1310 N 134.094 2.28893 4.02694 0
M  V30 1311 C 134.829 2.93262 4.92732 0
M  V30 1312 N 134.325 3.66751 5.87763 0
M  V30 1313 N 136.118 2.82638 4.85873 0
M  V30 1314 H 128.269 1.8075 1.11549 0
M  V30 1315 H 130.532 0.772144 0.549997 0
M  V30 1316 H 130.238 2.48058 2.49319 0
M  V30 1317 H 130.112 1.12502 3.60032 0
M  V30 1318 H 132.499 0.399701 2.92381 0
M  V30 1319 H 132.58 1.7878 1.82952 0
M  V30 1320 H 132.224 3.34849 3.81888 0
M  V30 1321 H 132.154 1.93302 4.89839 0
M  V30 1322 H 134.645 1.75466 3.34694 0
M  V30 1323 H 134.958 4.13027 6.53168 0
M  V30 1324 H 133.303 3.70859 5.87783 0
M  V30 1325 H 136.494 2.24774 4.10602 0
M  V30 1326 H 136.667 3.33084 5.55841 0
M  V30 1327 N 130.073 -1.45103 0.615059 0
M  V30 1328 C 131.322 -2.01396 0.110718 0
M  V30 1329 C 131.635 -1.48834 -1.26916 0
M  V30 1330 O 132.841 -1.97152 -1.86664 0
M  V30 1331 C 131.297 -3.59599 0.14723 0
M  V30 1332 C 130.905 -4.21158 1.52743 0
M  V30 1333 C 132.649 -4.23428 -0.30148 0
M  V30 1334 C 130.556 -5.71535 1.51992 0
M  V30 1335 H 129.486 -0.753061 0.0376241 0
M  V30 1336 H 132.137 -1.66494 0.77149 0
M  V30 1337 H 130.519 -3.91724 -0.580339 0
M  V30 1338 H 131.693 -4.00594 2.2773 0
M  V30 1339 H 130.008 -3.69552 1.91886 0
M  V30 1340 H 132.605 -5.33703 -0.326392 0
M  V30 1341 H 132.948 -3.94629 -1.32565 0
M  V30 1342 H 133.481 -3.96047 0.373065 0
M  V30 1343 H 130.22 -6.05044 2.52193 0
M  V30 1344 H 129.74 -5.94268 0.81274 0
M  V30 1345 H 131.419 -6.34873 1.24681 0
M  V30 1346 N 131.551 -0.354651 -1.53558 0
M  V30 1347 C 132.797 0.238797 -2.01389 0
M  V30 1348 C 133.13 1.49309 -1.2418 0
M  V30 1349 O 132.405 1.91638 -0.332457 0
M  V30 1350 C 132.688 0.541771 -3.56001 0
M  V30 1351 C 132.541 -0.725388 -4.43912 0
M  V30 1352 C 133.86 1.34685 -4.18984 0
M  V30 1353 H 130.979 0.0853177 -0.732045 0
M  V30 1354 H 133.621 -0.477384 -1.83905 0
M  V30 1355 H 131.771 1.15189 -3.71031 0
M  V30 1356 H 133.443 -1.36313 -4.407 0
M  V30 1357 H 131.686 -1.34801 -4.12324 0
M  V30 1358 H 132.357 -0.468505 -5.50008 0
M  V30 1359 H 134.833 0.830837 -4.07721 0
M  V30 1360 H 133.709 1.52759 -5.27215 0
M  V30 1361 H 133.97 2.35221 -3.74331 0
M  V30 1362 N 133.029 1.57378 -0.0835403 0
M  V30 1363 C 134.306 1.85363 0.624507 0
M  V30 1364 C 134.686 0.978239 1.87066 0
M  V30 1365 O 134.034 0.0475908 2.2845 0
M  V30 1366 C 134.244 3.35795 0.950947 0
M  V30 1367 C 135.592 4.03581 1.31939 0
M  V30 1368 O 136.616 3.40609 1.04232 0
M  V30 1369 O 135.475 5.14672 1.83779 0
M  V30 1370 H 132.569 0.766162 0.311329 0
M  V30 1371 H 135.115 1.69307 -0.115362 0
M  V30 1372 H 133.887 3.91244 0.0663899 0
M  V30 1373 H 133.51 3.57154 1.74719 0
M  V30 1374 N 134.507 -0.190092 1.56449 0
M  V30 1375 C 135.918 -0.754312 1.70784 0
M  V30 1376 C 136.269 -1.83631 0.690951 0
M  V30 1377 O 135.394 -2.15868 -0.151604 0
M  V30 1378 C 135.989 -1.37503 3.09642 0
M  V30 1379 C 134.548 -1.88628 3.25725 0
M  V30 1380 C 133.695 -0.758098 2.66736 0
M  V30 1381 H 136.646 0.0350524 1.58661 0
M  V30 1382 H 136.667 -2.2445 3.0725 0
M  V30 1383 H 136.179 -0.587302 3.83631 0
M  V30 1384 H 134.28 -2.70103 2.56661 0
M  V30 1385 H 134.393 -2.04462 4.3328 0
M  V30 1386 H 132.757 -1.17369 2.26046 0
M  V30 1387 H 133.54 0.0174705 3.43296 0
M  V30 1388 N 135.985 -1.50799 -0.457987 0
M  V30 1389 C 137.234 -1.6168 -1.20593 0
M  V30 1390 C 137.547 -0.32888 -1.92815 0
M  V30 1391 O 138.753 -0.316773 -2.69646 0
M  V30 1392 C 137.209 -2.8545 -2.19195 0
M  V30 1393 C 136.817 -4.21168 -1.52715 0
M  V30 1394 C 138.561 -3.05681 -2.94549 0
M  V30 1395 C 136.468 -5.3611 -2.4968 0
M  V30 1396 H 135.398 -0.602134 -0.453818 0
M  V30 1397 H 138.049 -1.77245 -0.475031 0
M  V30 1398 H 136.431 -2.63472 -2.95632 0
M  V30 1399 H 137.605 -4.53449 -0.819775 0
M  V30 1400 H 135.92 -4.06648 -0.895922 0
M  V30 1401 H 138.517 -3.88727 -3.67145 0
M  V30 1402 H 138.86 -2.17929 -3.54701 0
M  V30 1403 H 139.393 -3.27901 -2.25223 0
M  V30 1404 H 136.132 -6.26057 -1.94249 0
M  V30 1405 H 135.652 -5.0823 -3.18532 0
M  V30 1406 H 137.331 -5.6722 -3.11241 0
M  V30 1407 N 137.463 0.71206 -1.40597 0
M  V30 1408 C 138.41 1.82613 -1.41142 0
M  V30 1409 C 139.38 1.63925 -0.267903 0
M  V30 1410 O 140.565 1.85009 -0.466495 0
M  V30 1411 C 137.705 3.20354 -1.28324 0
M  V30 1412 C 136.818 3.50589 -2.52411 0
M  V30 1413 C 135.953 4.77855 -2.32009 0
M  V30 1414 C 134.992 5.01005 -3.51654 0
M  V30 1415 N 134.129 6.19487 -3.30425 0
M  V30 1416 H 138.969 1.81482 -2.36365 0
M  V30 1417 H 136.506 0.886475 -1.17388 0
M  V30 1418 H 138.464 3.99899 -1.18899 0
M  V30 1419 H 137.094 3.20705 -0.367189 0
M  V30 1420 H 136.146 2.65573 -2.72351 0
M  V30 1421 H 137.458 3.63604 -3.41458 0
M  V30 1422 H 136.612 5.65424 -2.19956 0
M  V30 1423 H 135.351 4.67056 -1.40392 0
M  V30 1424 H 134.356 4.1189 -3.64179 0
M  V30 1425 H 135.581 5.13674 -4.44202 0
M  V30 1426 H 133.527 6.09932 -2.41494 0
M  V30 1427 H 133.444 6.33194 -4.13039 0
M  V30 1428 H 134.712 7.09834 -3.22113 0
M  V30 1429 N 138.941 1.26152 0.944643 0
M  V30 1430 C 140.189 1.11271 1.6871 0
M  V30 1431 C 140.51 -0.345166 1.91921 0
M  V30 1432 O 139.78 -1.24387 1.51343 0
M  V30 1433 H 138.36 0.408783 0.625224 0
M  V30 1434 H 141.022 1.58427 1.1352 0
M  V30 1435 H 140.118 1.62879 2.66227 0
M  V30 1436 N 140.419 -1.14872 1.07899 0
M  V30 1437 C 141.665 -1.86064 0.806725 0
M  V30 1438 C 141.998 -1.82434 -0.665706 0
M  V30 1439 O 141.273 -1.25138 -1.48899 0
M  V30 1440 C 141.556 -3.34929 1.32267 0
M  V30 1441 C 141.409 -3.47161 2.86006 0
M  V30 1442 C 142.728 -4.29863 0.943717 0
M  V30 1443 H 139.847 -0.675591 0.294526 0
M  V30 1444 H 142.489 -1.34925 1.33773 0
M  V30 1445 H 140.639 -3.78611 0.870974 0
M  V30 1446 H 142.311 -3.12302 3.39507 0
M  V30 1447 H 140.554 -2.88539 3.23925 0
M  V30 1448 H 141.225 -4.51777 3.17177 0
M  V30 1449 H 143.701 -3.9417 1.33302 0
M  V30 1450 H 142.577 -5.32494 1.33198 0
M  V30 1451 H 142.838 -4.41846 -0.149796 0
M  V30 1452 N 141.898 -0.863906 -1.31812 0
M  V30 1453 C 142.828 -0.330843 -2.31144 0
M  V30 1454 C 143.809 0.575005 -1.60087 0
M  V30 1455 O 144.994 0.493304 -1.8783 0
M  V30 1456 C 142.124 0.47374 -3.44054 0
M  V30 1457 C 141.078 -0.338481 -4.26659 0
M  V30 1458 C 140.404 0.591412 -5.31419 0
M  V30 1459 C 141.704 -1.56926 -4.98168 0
M  V30 1460 H 143.398 -1.16086 -2.75979 0
M  V30 1461 H 140.944 -0.559657 -1.32679 0
M  V30 1462 H 142.897 0.857143 -4.12591 0
M  V30 1463 H 141.621 1.33721 -2.9797 0
M  V30 1464 H 140.28 -0.703754 -3.59782 0
M  V30 1465 H 139.928 1.45199 -4.81587 0
M  V30 1466 H 139.628 0.0519022 -5.87577 0
M  V30 1467 H 141.152 0.97179 -6.02817 0
M  V30 1468 H 142.566 -1.25764 -5.59336 0
M  V30 1469 H 140.963 -2.04739 -5.64094 0
M  V30 1470 H 142.033 -2.32544 -4.25501 0
M  V30 1471 N 143.376 1.44774 -0.622745 0
M  V30 1472 C 144.787 1.85546 -0.207226 0
M  V30 1473 C 145.138 1.52093 1.23944 0
M  V30 1474 O 144.263 0.95492 1.94191 0
M  V30 1475 C 144.858 3.36781 -0.369313 0
M  V30 1476 C 143.417 3.76399 -0.00836847 0
M  V30 1477 C 142.564 2.68664 -0.686651 0
M  V30 1478 H 145.515 1.3536 -0.828454 0
M  V30 1479 H 145.536 3.78453 0.394162 0
M  V30 1480 H 145.048 3.61098 -1.42231 0
M  V30 1481 H 143.149 3.57698 1.04322 0
M  V30 1482 H 143.262 4.7732 -0.412584 0
M  V30 1483 H 141.626 2.54404 -0.122777 0
M  V30 1484 H 142.409 2.95815 -1.74208 0
M  V30 1485 N 144.854 0.36279 1.53368 0
M  V30 1486 C 146.131 -0.284021 1.93527 0
M  V30 1487 C 146.511 -1.66628 1.29608 0
M  V30 1488 O 145.859 -2.23942 0.45413 0
M  V30 1489 C 146.069 -0.337028 3.47369 0
M  V30 1490 C 147.417 -0.578708 4.20638 0
M  V30 1491 O 148.441 -0.418352 3.53735 0
M  V30 1492 O 147.3 -0.89074 5.39192 0
M  V30 1493 H 144.394 -0.169743 0.809393 0
M  V30 1494 H 146.94 0.41537 1.64538 0
M  V30 1495 H 145.712 0.632217 3.86159 0
M  V30 1496 H 145.335 -1.08243 3.82582 0
M  V30 1497 N 146.332 -1.57332 0.0918853 0
M  V30 1498 C 147.609 -1.85691 -0.614668 0
M  V30 1499 C 147.989 -0.988146 -1.86545 0
M  V30 1500 O 147.337 -0.0597055 -2.28422 0
M  V30 1501 C 147.547 -3.36294 -0.933126 0
M  V30 1502 C 148.895 -4.04275 -1.29796 0
M  V30 1503 O 149.919 -3.41157 -1.02424 0
M  V30 1504 O 148.778 -5.1564 -1.81047 0
M  V30 1505 H 145.872 -0.767802 -0.307261 0
M  V30 1506 H 148.418 -1.69244 0.12434 0
M  V30 1507 H 147.19 -3.91273 -0.0456404 0
M  V30 1508 H 146.813 -3.58076 -1.72822 0
M  V30 1509 N 147.81 0.181792 -1.56548 0
M  V30 1510 C 149.056 0.901431 -1.81665 0
M  V30 1511 C 149.389 1.82347 -0.668075 0
M  V30 1512 O 148.664 1.91669 0.330615 0
M  V30 1513 C 148.947 1.70618 -3.17115 0
M  V30 1514 C 148.8 0.807964 -4.42484 0
M  V30 1515 C 150.119 2.67605 -3.49393 0
M  V30 1516 H 147.238 0.32627 -0.660846 0
M  V30 1517 H 149.88 0.168134 -1.89255 0
M  V30 1518 H 148.03 2.33133 -3.10775 0
M  V30 1519 H 149.702 0.19649 -4.60881 0
M  V30 1520 H 147.945 0.115411 -4.33646 0
M  V30 1521 H 148.616 1.40632 -5.33785 0
M  V30 1522 H 151.092 2.15218 -3.56118 0
M  V30 1523 H 149.968 3.20985 -4.45264 0
M  V30 1524 H 150.229 3.47298 -2.73563 0
M  V30 1525 N 149.288 1.51039 0.449983 0
M  V30 1526 C 150.534 1.63322 1.20223 0
M  V30 1527 C 150.867 0.34241 1.91158 0
M  V30 1528 O 150.142 -0.657344 1.83055 0
M  V30 1529 C 150.425 2.82801 2.22925 0
M  V30 1530 C 150.278 4.21823 1.56157 0
M  V30 1531 C 151.597 2.97807 3.24035 0
M  V30 1532 H 148.716 0.594407 0.435718 0
M  V30 1533 H 151.358 1.83489 0.493136 0
M  V30 1534 H 149.508 2.65738 2.834 0
M  V30 1535 H 151.18 4.50526 0.991162 0
M  V30 1536 H 149.423 4.25105 0.864172 0
M  V30 1537 H 150.094 5.01391 2.30891 0
M  V30 1538 H 152.57 3.13497 2.73603 0
M  V30 1539 H 151.446 3.82992 3.93202 0
M  V30 1540 H 151.707 2.09328 3.89402 0
M  V30 1541 N 150.766 -0.704594 1.40972 0
M  V30 1542 C 151.991 -1.49858 1.43378 0
M  V30 1543 C 152.416 -1.88061 0.038184 0
M  V30 1544 O 151.774 -1.5402 -0.956425 0
M  V30 1545 C 151.822 -2.74333 2.34038 0
M  V30 1546 O 150.926 -3.7147 1.7912 0
M  V30 1547 H 150.267 -0.45139 0.486974 0
M  V30 1548 H 152.797 -0.866832 1.8533 0
M  V30 1549 H 152.807 -3.22741 2.49604 0
M  V30 1550 H 151.482 -2.45863 3.35446 0
M  V30 1551 H 150.059 -3.30363 1.72958 0
M  V30 1552 N 152.244 -1.26651 -0.937939 0
M  V30 1553 C 153.469 -1.15279 -1.72411 0
M  V30 1554 C 153.894 0.287866 -1.85884 0
M  V30 1555 O 153.252 1.20855 -1.35143 0
M  V30 1556 C 153.3 -1.83028 -3.10698 0
M  V30 1557 O 152.404 -1.12128 -3.96864 0
M  V30 1558 H 151.745 -0.401504 -0.528858 0
M  V30 1559 H 154.275 -1.67531 -1.1745 0
M  V30 1560 H 154.285 -1.89981 -3.6107 0
M  V30 1561 H 152.96 -2.87833 -3.00208 0
M  V30 1562 H 151.537 -1.13173 -3.55312 0
M  V30 1563 N 153.722 1.14298 -1.08507 0
M  V30 1564 C 154.971 1.84708 -0.810305 0
M  V30 1565 C 155.284 1.83903 0.666271 0
M  V30 1566 O 156.49 2.50112 1.05624 0
M  V30 1567 C 154.946 3.31572 -1.39957 0
M  V30 1568 C 154.554 3.40791 -2.90801 0
M  V30 1569 C 156.298 4.07087 -1.20334 0
M  V30 1570 C 154.205 4.81872 -3.4286 0
M  V30 1571 H 153.135 0.691985 -0.299454 0
M  V30 1572 H 155.786 1.28841 -1.30661 0
M  V30 1573 H 154.168 3.87183 -0.830976 0
M  V30 1574 H 155.342 2.95225 -3.53806 0
M  V30 1575 H 153.657 2.78732 -3.0935 0
M  V30 1576 H 156.254 5.11225 -1.56693 0
M  V30 1577 H 156.597 4.16054 -0.143237 0
M  V30 1578 H 157.13 3.57779 -1.73893 0
M  V30 1579 H 153.869 4.78094 -4.48449 0
M  V30 1580 H 153.389 5.27972 -2.84615 0
M  V30 1581 H 155.068 5.50765 -3.39509 0
M  V30 1582 N 155.201 0.870884 1.31352 0
M  V30 1583 C 156.149 0.316445 2.30437 0
M  V30 1584 C 157.143 -0.568965 1.59559 0
M  V30 1585 O 158.349 -0.454964 1.74155 0
M  V30 1586 H 154.724 0.0836521 0.747333 0
M  V30 1587 H 156.695 1.16606 2.74673 0
M  V30 1588 C 155.444 -0.46635 3.44558 0
M  V30 1589 H 154.767 0.205687 3.99271 0
M  V30 1590 H 156.207 -0.819614 4.16003 0
M  V30 1591 C 154.666 -1.65797 2.9328 0
M  V30 1592 O 155.196 -2.75728 2.92125 0
M  V30 1593 N 153.402 -1.49041 2.4947 0
M  V30 1594 H 152.949 -0.59612 2.50608 0
M  V30 1595 H 152.907 -2.28911 2.15516 0
M  V30 1596 N 156.679 -1.44442 0.630414 0
M  V30 1597 C 157.589 -2.34476 -0.0761693 0
M  V30 1598 C 158.605 -1.52576 -0.836449 0
M  V30 1599 O 159.781 -1.85307 -0.788874 0
M  V30 1600 C 156.846 -3.30545 -1.04599 0
M  V30 1601 C 155.907 -4.28352 -0.28516 0
M  V30 1602 C 155.14 -5.19831 -1.20878 0
M  V30 1603 O 155.363 -5.15223 -2.44747 0
M  V30 1604 O 154.297 -5.97892 -0.693491 0
M  V30 1605 H 158.123 -2.96345 0.664324 0
M  V30 1606 H 155.708 -1.44203 0.39061 0
M  V30 1607 H 157.59 -3.89681 -1.60396 0
M  V30 1608 H 156.265 -2.7121 -1.76711 0
M  V30 1609 H 155.172 -3.72764 0.315837 0
M  V30 1610 H 156.505 -4.90605 0.395924 0
M  V30 1611 N 158.157 -0.370918 -1.53173 0
M  V30 1612 C 159.089 0.507823 -2.23503 0
M  V30 1613 C 160.102 1.04182 -1.251 0
M  V30 1614 O 161.291 0.947286 -1.5129 0
M  V30 1615 C 158.391 1.71447 -2.92334 0
M  V30 1616 C 157.564 1.31105 -4.17289 0
M  V30 1617 C 156.623 2.38035 -4.69282 0
M  V30 1618 O 155.649 2.00204 -5.32829 0
M  V30 1619 N 156.851 3.69697 -4.47554 0
M  V30 1620 H 159.616 -0.0946382 -2.99551 0
M  V30 1621 H 157.177 -0.196358 -1.60705 0
M  V30 1622 H 159.169 2.42469 -3.24023 0
M  V30 1623 H 157.739 2.22368 -2.19707 0
M  V30 1624 H 156.959 0.430462 -3.91843 0
M  V30 1625 H 158.247 1.0179 -4.98514 0
M  V30 1626 H 157.645 4.03205 -3.9679 0
M  V30 1627 H 156.202 4.36807 -4.8378 0
M  V30 1628 N 159.635 1.57281 -0.100228 0
M  V30 1629 C 160.565 2.17328 0.853857 0
M  V30 1630 C 161.546 1.10804 1.2906 0
M  V30 1631 O 162.731 1.38963 1.35657 0
M  V30 1632 C 159.861 2.75772 2.11109 0
M  V30 1633 C 158.815 3.87713 1.81279 0
M  V30 1634 C 158.141 4.32882 3.13874 0
M  V30 1635 C 159.441 5.10677 1.09574 0
M  V30 1636 H 161.135 2.97305 0.353545 0
M  V30 1637 H 158.681 1.43009 0.168612 0
M  V30 1638 H 160.634 3.16433 2.78296 0
M  V30 1639 H 159.358 1.93057 2.63432 0
M  V30 1640 H 158.017 3.476 1.16489 0
M  V30 1641 H 157.665 3.47051 3.64095 0
M  V30 1642 H 157.365 5.08358 2.94696 0
M  V30 1643 H 158.889 4.7618 3.82211 0
M  V30 1644 H 160.303 5.48474 1.66879 0
M  V30 1645 H 158.7 5.91615 1.00557 0
M  V30 1646 H 159.77 4.84835 0.0793299 0
M  V30 1647 N 161.113 -0.173488 1.56642 0
M  V30 1648 C 162.338 -0.910149 1.86363 0
M  V30 1649 C 162.763 -1.75132 0.686318 0
M  V30 1650 O 162.121 -1.77595 -0.364643 0
M  V30 1651 C 162.169 -1.76447 3.14482 0
M  V30 1652 O 161.273 -2.86584 2.96553 0
M  V30 1653 H 160.614 -0.255086 0.613047 0
M  V30 1654 H 163.144 -0.172283 2.03873 0
M  V30 1655 H 163.154 -2.16483 3.45831 0
M  V30 1656 H 161.829 -1.14658 3.99783 0
M  V30 1657 H 160.406 -2.50146 2.76553 0
M  V30 1658 N 162.591 -1.51276 -0.441967 0
M  V30 1659 C 163.839 -1.63392 -1.18943 0
M  V30 1660 C 164.16 -0.350159 -1.9183 0
M  V30 1661 O 163.43 0.633784 -1.85364 0
M  V30 1662 H 162.01 -0.602164 -0.442049 0
M  V30 1663 H 164.672 -1.88186 -0.507165 0
M  V30 1664 H 163.768 -2.45934 -1.92154 0
M  V30 1665 N 164.069 0.697108 -1.41344 0
M  V30 1666 C 165.032 1.79281 -1.42797 0
M  V30 1667 C 166.032 1.57607 -0.318837 0
M  V30 1668 O 167.222 1.64309 -0.578642 0
M  V30 1669 C 164.354 3.17632 -1.23785 0
M  V30 1670 H 165.547 1.79385 -2.40335 0
M  V30 1671 H 163.1 0.904582 -1.27464 0
M  V30 1672 H 163.835 3.23167 -0.270814 0
M  V30 1673 H 163.62 3.34765 -2.04144 0
M  V30 1674 H 165.11 3.97617 -1.27633 0
M  V30 1675 N 165.547 1.27147 0.931209 0
M  V30 1676 C 166.787 1.14511 1.69312 0
M  V30 1677 C 167.151 -0.304638 1.89568 0
M  V30 1678 O 168.352 -0.553343 2.63043 0
M  V30 1679 C 166.623 1.90349 3.02493 0
M  V30 1680 S 168.182 1.93884 3.93642 0
M  V30 1681 H 165 0.408858 0.581684 0
M  V30 1682 H 167.602 1.61006 1.10893 0
M  V30 1683 H 166.306 2.94877 2.85439 0
M  V30 1684 H 165.837 1.44333 3.65966 0
M  V30 1685 H 167.852 1.03273 4.85334 0
M  V30 1686 N 167.025 -1.13721 1.09112 0
M  V30 1687 C 168.253 -1.88773 0.846899 0
M  V30 1688 C 168.668 -1.7896 -0.601572 0
M  V30 1689 O 168.025 -1.15394 -1.41388 0
M  V30 1690 C 168.076 -3.3849 1.26913 0
M  V30 1691 O 167.797 -3.48043 2.66079 0
M  V30 1692 C 169.298 -4.30518 1.05682 0
M  V30 1693 H 166.518 -0.59772 0.304914 0
M  V30 1694 H 169.062 -1.43977 1.45227 0
M  V30 1695 H 167.217 -3.80881 0.707723 0
M  V30 1696 H 167.631 -4.4109 2.83795 0
M  V30 1697 H 169.105 -5.3391 1.40156 0
M  V30 1698 H 169.582 -4.392 -0.00563416 0
M  V30 1699 H 170.188 -3.93893 1.60402 0
M  V30 1700 N 168.503 -0.877838 -1.30888 0
M  V30 1701 C 169.731 -0.507414 -2.00581 0
M  V30 1702 C 170.146 0.902216 -1.65848 0
M  V30 1703 O 169.503 1.59225 -0.891831 0
M  V30 1704 C 169.554 -0.664162 -3.55347 0
M  V30 1705 O 169.275 -2.01829 -3.8884 0
M  V30 1706 C 170.776 -0.295787 -4.42312 0
M  V30 1707 H 167.996 -0.196866 -0.641471 0
M  V30 1708 H 170.54 -1.18117 -1.66939 0
M  V30 1709 H 168.695 -0.0378619 -3.87381 0
M  V30 1710 H 169.109 -2.03174 -4.8355 0
M  V30 1711 H 170.583 -0.456388 -5.5011 0
M  V30 1712 H 171.06 0.765663 -4.32475 0
M  V30 1713 H 171.666 -0.898113 -4.15709 0
M  V30 1714 N 169.982 1.44106 -0.638065 0
M  V30 1715 C 170.892 2.34513 0.0637334 0
M  V30 1716 C 171.908 1.53018 0.828346 0
M  V30 1717 O 173.084 1.85723 0.779036 0
M  V30 1718 C 170.149 3.31095 1.02844 0
M  V30 1719 C 169.21 4.28497 0.26244 0
M  V30 1720 C 168.443 5.20465 1.1812 0
M  V30 1721 O 168.666 5.16514 2.42011 0
M  V30 1722 O 167.6 5.98251 0.661774 0
M  V30 1723 H 171.426 2.95989 -0.68003 0
M  V30 1724 H 169.011 1.43994 -0.398252 0
M  V30 1725 H 170.893 3.90526 1.58327 0
M  V30 1726 H 169.568 2.72144 1.7527 0
M  V30 1727 H 168.475 3.72592 -0.335602 0
M  V30 1728 H 169.808 4.90388 -0.421936 0
M  V30 1729 N 171.46 0.379036 1.52974 0
M  V30 1730 C 172.709 -0.207612 2.00629 0
M  V30 1731 C 173.022 -1.48758 1.27006 0
M  V30 1732 O 174.228 -2.15365 1.65318 0
M  V30 1733 C 172.684 -0.42053 3.57435 0
M  V30 1734 C 172.292 0.845587 4.39948 0
M  V30 1735 C 174.036 -0.964102 4.13407 0
M  V30 1736 C 171.943 0.601513 5.88333 0
M  V30 1737 H 170.873 -0.0813591 0.749598 0
M  V30 1738 H 173.524 0.499853 1.76561 0
M  V30 1739 H 171.906 -1.18959 3.7771 0
M  V30 1740 H 173.08 1.61848 4.31442 0
M  V30 1741 H 171.395 1.31336 3.95145 0
M  V30 1742 H 173.992 -1.16225 5.21916 0
M  V30 1743 H 174.335 -1.93019 3.68849 0
M  V30 1744 H 174.868 -0.25487 3.96983 0
M  V30 1745 H 171.607 1.53831 6.37194 0
M  V30 1746 H 171.127 -0.132628 5.99653 0
M  V30 1747 H 172.806 0.232134 6.46583 0
M  V30 1748 N 172.938 -1.57226 0.108567 0
M  V30 1749 C 173.901 -2.13602 -0.831082 0
M  V30 1750 C 174.901 -1.06841 -1.20173 0
M  V30 1751 O 176.091 -1.32666 -1.12895 0
M  V30 1752 C 173.223 -2.66769 -2.12243 0
M  V30 1753 H 174.416 -2.97951 -0.341317 0
M  V30 1754 H 171.969 -1.55667 -0.14057 0
M  V30 1755 H 172.704 -1.85977 -2.65675 0
M  V30 1756 H 172.489 -3.44839 -1.86625 0
M  V30 1757 H 173.979 -3.10332 -2.79435 0
M  V30 1758 N 174.416 0.165178 -1.56732 0
M  V30 1759 C 175.379 1.18822 -1.95995 0
M  V30 1760 C 176.379 1.3685 -0.84431 0
M  V30 1761 O 177.569 1.34152 -1.11126 0
M  V30 1762 C 174.701 2.5521 -2.26011 0
M  V30 1763 H 175.894 0.851825 -2.87548 0
M  V30 1764 H 173.447 0.407857 -1.50885 0
M  V30 1765 H 174.182 2.93852 -1.37191 0
M  V30 1766 H 173.967 2.43489 -3.07336 0
M  V30 1767 H 175.457 3.28927 -2.57288 0
M  V30 1768 N 175.894 1.51508 0.433938 0
M  V30 1769 C 177.141 1.64345 1.18309 0
M  V30 1770 C 177.469 0.361315 1.91115 0
M  V30 1771 O 176.724 -0.654753 1.84422 0
M  V30 1772 C 177.023 2.79928 2.22205 0
M  V30 1773 C 176.689 4.19078 1.66387 0
M  V30 1774 C 175.351 4.56932 1.50887 0
M  V30 1775 C 177.703 5.05894 1.25381 0
M  V30 1776 C 175.031 5.79305 0.928608 0
M  V30 1777 C 177.383 6.2885 0.687823 0
M  V30 1778 C 176.047 6.65473 0.519755 0
M  V30 1779 H 175.317 0.601381 0.432923 0
M  V30 1780 H 177.964 1.85549 0.473676 0
M  V30 1781 H 176.269 2.52959 2.99197 0
M  V30 1782 H 177.966 2.87059 2.79997 0
M  V30 1783 H 174.556 3.89234 1.79428 0
M  V30 1784 H 178.74 4.77253 1.36175 0
M  V30 1785 H 173.996 6.06324 0.786186 0
M  V30 1786 H 178.17 6.95461 0.361581 0
M  V30 1787 H 175.797 7.6017 0.0679979 0
M  V30 1788 N 177.372 -0.689602 1.41712 0
M  V30 1789 C 178.649 -1.44457 1.31877 0
M  V30 1790 C 179.029 -2.11039 -0.0508537 0
M  V30 1791 O 178.377 -2.02138 -1.06547 0
M  V30 1792 C 178.587 -2.45913 2.47645 0
M  V30 1793 C 179.935 -3.10991 2.89084 0
M  V30 1794 O 180.959 -2.56238 2.47428 0
M  V30 1795 O 179.818 -4.10174 3.61137 0
M  V30 1796 H 176.912 -0.64362 0.519309 0
M  V30 1797 H 179.458 -0.719576 1.53689 0
M  V30 1798 H 178.23 -1.95409 3.39015 0
M  V30 1799 H 177.853 -3.25913 2.27742 0
M  V30 1800 N 178.85 -1.27639 -0.924453 0
M  V30 1801 C 179.76 -1.12466 -2.05885 0
M  V30 1802 C 180.776 -0.053869 -1.73917 0
M  V30 1803 O 181.952 -0.261012 -1.99702 0
M  V30 1804 C 179.017 -0.776768 -3.37886 0
M  V30 1805 C 178.078 -1.92878 -3.83532 0
M  V30 1806 C 177.311 -1.59739 -5.09234 0
M  V30 1807 O 177.534 -0.506782 -5.68144 0
M  V30 1808 O 176.468 -2.43761 -5.50331 0
M  V30 1809 H 180.294 -2.07671 -2.21599 0
M  V30 1810 H 177.879 -1.06857 -1.04413 0
M  V30 1811 H 179.761 -0.596229 -4.17161 0
M  V30 1812 H 178.436 0.145732 -3.23372 0
M  V30 1813 H 177.343 -2.1644 -3.0513 0
M  V30 1814 H 178.676 -2.8316 -4.02593 0
M  V30 1815 N 180.328 1.1314 -1.09713 0
M  V30 1816 C 181.575 1.84484 -0.834987 0
M  V30 1817 C 181.903 1.83689 0.639418 0
M  V30 1818 O 181.158 1.2724 1.4869 0
M  V30 1819 C 181.457 3.32167 -1.3191 0
M  V30 1820 C 181.123 3.53139 -2.80363 0
M  V30 1821 C 179.785 3.58571 -3.20905 0
M  V30 1822 C 182.137 3.60866 -3.76065 0
M  V30 1823 C 179.465 3.69267 -4.55916 0
M  V30 1824 C 181.817 3.73089 -5.10869 0
M  V30 1825 C 180.481 3.76775 -5.50996 0
M  V30 1826 H 179.751 0.675073 -0.305544 0
M  V30 1827 H 182.398 1.33554 -1.37243 0
M  V30 1828 H 180.703 3.85469 -0.701517 0
M  V30 1829 H 182.4 3.85821 -1.09284 0
M  V30 1830 H 178.99 3.49569 -2.47991 0
M  V30 1831 H 183.174 3.55946 -3.45855 0
M  V30 1832 H 178.43 3.70388 -4.86438 0
M  V30 1833 H 182.604 3.78011 -5.84877 0
M  V30 1834 H 180.231 3.84815 -6.55608 0
M  V30 1835 N 181.806 0.884767 1.30421 0
M  V30 1836 C 183.034 0.518044 2.0031 0
M  V30 1837 C 183.449 -0.893408 1.66324 0
M  V30 1838 O 182.806 -1.5875 0.900262 0
M  V30 1839 C 182.857 0.682997 3.54989 0
M  V30 1840 O 182.578 2.03888 3.87764 0
M  V30 1841 C 184.079 0.31924 4.42149 0
M  V30 1842 H 181.299 0.200265 0.640418 0
M  V30 1843 H 183.843 1.19001 1.6631 0
M  V30 1844 H 181.998 0.0584052 3.87356 0
M  V30 1845 H 182.412 2.05735 4.82466 0
M  V30 1846 H 183.886 0.485555 5.4986 0
M  V30 1847 H 184.363 -0.742717 4.32875 0
M  V30 1848 H 184.969 0.920147 4.15227 0
M  V30 1849 N 183.284 -1.43765 0.645699 0
M  V30 1850 C 184.532 -2.01499 0.155731 0
M  V30 1851 C 184.853 -1.51151 -1.232 0
M  V30 1852 O 184.123 -0.721044 -1.82148 0
M  V30 1853 H 182.703 -0.745003 0.0545817 0
M  V30 1854 H 185.365 -1.76075 0.835677 0
M  V30 1855 H 184.461 -3.1181 0.134577 0
M  V30 1856 N 184.763 -0.387143 -1.52771 0
M  V30 1857 C 185.693 0.440551 -2.29306 0
M  V30 1858 C 186.674 1.06535 -1.32606 0
M  V30 1859 O 187.859 1.07853 -1.61497 0
M  V30 1860 C 184.989 1.56919 -3.09829 0
M  V30 1861 C 183.943 1.07054 -4.14395 0
M  V30 1862 C 183.269 2.29109 -4.83129 0
M  V30 1863 C 184.569 0.140015 -5.22112 0
M  V30 1864 H 186.263 -0.198026 -2.98744 0
M  V30 1865 H 183.809 -0.09668 -1.43675 0
M  V30 1866 H 185.762 2.15503 -3.62128 0
M  V30 1867 H 184.486 2.23532 -2.3812 0
M  V30 1868 H 183.145 0.507247 -3.63074 0
M  V30 1869 H 182.793 2.94227 -4.0797 0
M  V30 1870 H 182.493 1.96406 -5.53804 0
M  V30 1871 H 184.017 2.88339 -5.38231 0
M  V30 1872 H 185.431 0.633978 -5.69784 0
M  V30 1873 H 183.828 -0.0971485 -6.00021 0
M  V30 1874 H 184.898 -0.811711 -4.78058 0
M  V30 1875 N 186.241 1.57166 -0.116904 0
M  V30 1876 C 187.171 2.18222 0.830759 0
M  V30 1877 C 188.152 1.12167 1.27877 0
M  V30 1878 O 189.337 1.40394 1.34176 0
M  V30 1879 C 186.467 2.77996 2.08172 0
M  V30 1880 C 185.421 3.89614 1.77157 0
M  V30 1881 C 184.747 4.36187 3.09265 0
M  V30 1882 C 186.047 5.1181 1.04151 0
M  V30 1883 H 187.741 2.97664 0.321992 0
M  V30 1884 H 185.287 1.4318 0.153434 0
M  V30 1885 H 187.24 3.19366 2.74924 0
M  V30 1886 H 185.964 1.9584 2.6137 0
M  V30 1887 H 184.623 3.48816 1.12796 0
M  V30 1888 H 184.271 3.50893 3.60393 0
M  V30 1889 H 183.971 5.11455 2.89288 0
M  V30 1890 H 185.495 4.80207 3.77139 0
M  V30 1891 H 186.909 5.50214 1.61052 0
M  V30 1892 H 185.306 5.92648 0.942762 0
M  V30 1893 H 186.376 4.84892 0.0279022 0
M  V30 1894 N 187.719 -0.156864 1.56817 0
M  V30 1895 C 188.947 -0.886316 1.86955 0
M  V30 1896 C 189.362 -1.75185 0.703975 0
M  V30 1897 O 188.719 -1.79555 -0.326552 0
M  V30 1898 C 188.77 -1.75117 3.16253 0
M  V30 1899 O 188.491 -0.920537 4.2832 0
M  V30 1900 C 189.992 -2.58905 3.59837 0
M  V30 1901 H 187.212 -0.25678 0.619923 0
M  V30 1902 H 189.756 -0.152615 2.0393 0
M  V30 1903 H 187.911 -2.43805 3.01062 0
M  V30 1904 H 188.325 -1.51337 5.02192 0
M  V30 1905 H 189.799 -3.1518 4.53172 0
M  V30 1906 H 190.276 -3.34472 2.84649 0
M  V30 1907 H 190.882 -1.95526 3.7769 0
M  V30 1908 N 189.197 -1.51736 -0.425897 0
M  V30 1909 C 190.474 -1.55519 -1.1863 0
M  V30 1910 C 190.854 -0.326219 -2.08564 0
M  V30 1911 O 190.202 0.688012 -2.17896 0
M  V30 1912 C 190.412 -2.87521 -1.9782 0
M  V30 1913 C 191.76 -3.39899 -2.54468 0
M  V30 1914 O 192.784 -2.89148 -2.08019 0
M  V30 1915 O 191.643 -4.2848 -3.39215 0
M  V30 1916 H 188.737 -0.625739 -0.540721 0
M  V30 1917 H 191.283 -1.64055 -0.434038 0
M  V30 1918 H 190.055 -3.68422 -1.31836 0
M  V30 1919 H 189.678 -2.822 -2.80088 0
M  V30 1920 N 190.675 0.682077 -1.42076 0
M  V30 1921 C 191.638 1.77756 -1.44691 0
M  V30 1922 C 192.638 1.5726 -0.335535 0
M  V30 1923 O 193.828 1.63686 -0.596037 0
M  V30 1924 C 190.96 3.16301 -1.27146 0
M  V30 1925 H 192.153 1.76826 -2.42224 0
M  V30 1926 H 189.706 0.891012 -1.28416 0
M  V30 1927 H 190.441 3.22862 -0.305075 0
M  V30 1928 H 190.226 3.32581 -2.07683 0
M  V30 1929 H 191.716 3.96241 -1.31843 0
M  V30 1930 N 192.153 1.28127 0.917671 0
M  V30 1931 C 193.378 1.18007 1.70555 0
M  V30 1932 C 193.803 -0.258257 1.86319 0
M  V30 1933 O 193.161 -1.1869 1.37049 0
M  V30 1934 C 193.209 1.87948 3.07746 0
M  V30 1935 O 192.313 1.18427 3.9503 0
M  V30 1936 H 191.654 0.409867 0.522403 0
M  V30 1937 H 194.184 1.69379 1.1477 0
M  V30 1938 H 194.194 1.95701 3.58001 0
M  V30 1939 H 192.869 2.92573 2.95591 0
M  V30 1940 H 191.446 1.18811 3.53466 0
M  V30 1941 N 193.631 -1.12557 1.10312 0
M  V30 1942 C 194.561 -2.20341 0.772798 0
M  V30 1943 C 195.542 -1.68198 -0.25365 0
M  V30 1944 O 196.727 -1.93831 -0.119699 0
M  V30 1945 C 193.857 -3.46709 0.202443 0
M  V30 1946 C 192.811 -4.11996 1.15943 0
M  V30 1947 C 192.137 -5.328 0.450345 0
M  V30 1948 C 193.437 -4.5828 2.50552 0
M  V30 1949 H 195.131 -2.48229 1.674 0
M  V30 1950 H 192.677 -1.19308 0.806326 0
M  V30 1951 H 194.63 -4.2138 -0.0407752 0
M  V30 1952 H 193.354 -3.18245 -0.734001 0
M  V30 1953 H 192.013 -3.39305 1.38808 0
M  V30 1954 H 191.661 -5.00602 -0.490531 0
M  V30 1955 H 191.361 -5.7743 1.08851 0
M  V30 1956 H 192.885 -6.10219 0.215642 0
M  V30 1957 H 194.299 -5.2433 2.31843 0
M  V30 1958 H 192.696 -5.13683 3.10242 0
M  V30 1959 H 193.766 -3.72329 3.10643 0
M  V30 1960 N 195.109 -0.891671 -1.2995 0
M  V30 1961 C 196.039 -0.379797 -2.30391 0
M  V30 1962 C 197.02 0.540919 -1.6127 0
M  V30 1963 O 198.205 0.453352 -1.88834 0
M  V30 1964 C 195.335 0.400654 -3.44981 0
M  V30 1965 C 194.289 -0.428905 -4.25846 0
M  V30 1966 C 193.615 0.478557 -5.32554 0
M  V30 1967 C 194.915 -1.67458 -4.94727 0
M  V30 1968 H 196.609 -1.21914 -2.73454 0
M  V30 1969 H 194.155 -0.587675 -1.31462 0
M  V30 1970 H 196.108 0.769434 -4.14316 0
M  V30 1971 H 194.832 1.27371 -3.0074 0
M  V30 1972 H 193.491 -0.779911 -3.58208 0
M  V30 1973 H 193.139 1.34951 -4.84559 0
M  V30 1974 H 192.839 -0.0727433 -5.87555 0
M  V30 1975 H 194.363 0.843705 -6.04743 0
M  V30 1976 H 195.777 -1.376 -5.56542 0
M  V30 1977 H 194.174 -2.16659 -5.59624 0
M  V30 1978 H 195.244 -2.41518 -4.20473 0
M  V30 1979 N 196.587 1.43421 -0.653314 0
M  V30 1980 C 197.815 2.06163 -0.174491 0
M  V30 1981 C 198.23 1.48969 1.1599 0
M  V30 1982 O 197.587 0.621042 1.71608 0
M  V30 1983 C 197.638 3.61417 -0.0774865 0
M  V30 1984 O 197.359 4.16485 -1.35912 0
M  V30 1985 C 198.86 4.41235 0.427402 0
M  V30 1986 H 196.08 0.664946 -0.0899353 0
M  V30 1987 H 198.624 1.83924 -0.893988 0
M  V30 1988 H 196.779 3.82841 0.59257 0
M  V30 1989 H 197.193 5.10153 -1.21839 0
M  V30 1990 H 198.667 5.5021 0.44423 0
M  V30 1991 H 199.144 4.14268 1.45873 0
M  V30 1992 H 199.75 4.2478 -0.210167 0
M  V30 1993 N 198.065 0.39524 1.52563 0
M  V30 1994 C 199.481 0.0454682 1.59535 0
M  V30 1995 C 199.681 -1.44056 1.4089 0
M  V30 1996 O 198.737 -2.20579 1.22888 0
M  V30 1997 C 200.05 0.527963 2.96029 0
M  V30 1998 C 201.598 0.484733 3.09224 0
M  V30 1999 C 202.073 0.943512 4.48176 0
M  V30 2000 N 203.564 0.899765 4.54377 0
M  V30 2001 C 204.299 1.22609 5.60138 0
M  V30 2002 N 203.795 1.62319 6.73516 0
M  V30 2003 N 205.588 1.14696 5.50274 0
M  V30 2004 H 197.739 1.36261 1.62931 0
M  V30 2005 H 200.002 0.558887 0.765735 0
M  V30 2006 H 199.708 1.56607 3.14908 0
M  V30 2007 H 199.582 -0.0698056 3.77135 0
M  V30 2008 H 201.969 -0.544298 2.90037 0
M  V30 2009 H 202.05 1.11838 2.30056 0
M  V30 2010 H 201.694 1.9708 4.68104 0
M  V30 2011 H 201.624 0.286817 5.25818 0
M  V30 2012 H 204.115 0.607632 3.72983 0
M  V30 2013 H 204.428 1.85567 7.5019 0
M  V30 2014 H 202.773 1.66211 6.74833 0
M  V30 2015 H 205.964 0.835701 4.6058 0
M  V30 2016 H 206.137 1.40459 6.32594 0
M  V30 2017 N 199.544 -1.57102 0.125237 0
M  V30 2018 C 200.791 -1.95407 -0.531248 0
M  V30 2019 C 201.119 -1.0089 -1.66287 0
M  V30 2020 O 200.374 -0.0339431 -1.95671 0
M  V30 2021 C 200.673 -3.40096 -1.09862 0
M  V30 2022 C 200.339 -4.50815 -0.0876989 0
M  V30 2023 C 199.001 -4.80824 0.19026 0
M  V30 2024 C 201.353 -5.17724 0.600902 0
M  V30 2025 C 198.681 -5.75058 1.163 0
M  V30 2026 C 201.033 -6.13005 1.56231 0
M  V30 2027 C 199.697 -6.41403 1.8482 0
M  V30 2028 H 198.967 -0.715046 -0.194397 0
M  V30 2029 H 201.614 -1.90373 0.207463 0
M  V30 2030 H 199.919 -3.41855 -1.91422 0
M  V30 2031 H 201.616 -3.6705 -1.61478 0
M  V30 2032 H 198.206 -4.27444 -0.314528 0
M  V30 2033 H 202.39 -4.94691 0.399333 0
M  V30 2034 H 197.646 -5.95362 1.39117 0
M  V30 2035 H 201.82 -6.63934 2.10153 0
M  V30 2036 H 199.447 -7.14229 2.60349 0
M  V30 2037 N 201.022 0.148545 -1.56898 0
M  V30 2038 C 202.299 0.890019 -1.74178 0
M  V30 2039 C 202.679 1.99407 -0.692839 0
M  V30 2040 O 202.027 2.26671 0.288505 0
M  V30 2041 C 202.237 1.43389 -3.18183 0
M  V30 2042 C 203.585 1.89791 -3.79822 0
M  V30 2043 O 204.609 1.53134 -3.21603 0
M  V30 2044 O 203.468 2.57387 -4.82093 0
M  V30 2045 H 200.562 0.420496 -0.712118 0
M  V30 2046 H 203.108 0.134591 -1.69165 0
M  V30 2047 H 201.88 0.640383 -3.86024 0
M  V30 2048 H 201.503 2.25287 -3.27615 0
M  V30 2049 N 202.5 1.5196 0.417844 0
M  V30 2050 C 203.45 1.7106 1.5074 0
M  V30 2051 C 204.434 0.564487 1.50673 0
M  V30 2052 O 205.626 0.821206 1.56797 0
M  V30 2053 C 202.755 1.85677 2.88754 0
M  V30 2054 C 201.841 3.06133 2.93502 0
M  V30 2055 N 202.232 4.28987 2.67962 0
M  V30 2056 C 200.53 3.05787 3.24669 0
M  V30 2057 C 201.231 5.10395 2.79055 0
M  V30 2058 N 200.207 4.45455 3.11561 0
M  V30 2059 H 204.009 2.63696 1.29775 0
M  V30 2060 H 201.523 1.49873 0.625436 0
M  V30 2061 H 203.52 1.97475 3.67164 0
M  V30 2062 H 202.18 0.942348 3.10725 0
M  V30 2063 H 203.191 4.57607 2.4252 0
M  V30 2064 H 199.868 2.2405 3.52289 0
M  V30 2065 H 201.258 6.18247 2.63097 0
M  V30 2066 N 203.978 -0.674533 1.42435 0
M  V30 2067 C 205.227 -1.43034 1.42212 0
M  V30 2068 C 205.54 -1.95555 0.0420788 0
M  V30 2069 O 206.746 -2.71374 -0.0827558 0
M  V30 2070 C 205.202 -2.58748 2.50155 0
M  V30 2071 C 204.81 -2.12925 3.94166 0
M  V30 2072 C 206.554 -3.36257 2.59098 0
M  V30 2073 C 204.461 -3.25723 4.93618 0
M  V30 2074 H 203.391 -0.537345 0.528939 0
M  V30 2075 H 206.042 -0.73024 1.68344 0
M  V30 2076 H 204.424 -3.31128 2.17188 0
M  V30 2077 H 205.598 -1.47697 4.36488 0
M  V30 2078 H 203.913 -1.48354 3.89076 0
M  V30 2079 H 206.51 -4.20264 3.30578 0
M  V30 2080 H 206.853 -3.82866 1.63461 0
M  V30 2081 H 207.386 -2.70947 2.9126 0
M  V30 2082 H 204.125 -2.84105 5.90732 0
M  V30 2083 H 203.645 -3.89732 4.55926 0
M  V30 2084 H 205.324 -3.91186 5.15347 0
M  V30 2085 N 205.456 -1.28612 -0.910864 0
M  V30 2086 C 206.705 -1.15311 -1.65488 0
M  V30 2087 C 207.018 0.296999 -1.93332 0
M  V30 2088 O 208.224 0.551168 -2.65847 0
M  V30 2089 C 206.68 -2.01599 -2.98137 0
M  V30 2090 C 206.288 -3.51367 -2.7793 0
M  V30 2091 C 208.032 -1.96993 -3.76024 0
M  V30 2092 C 205.939 -4.29797 -4.06237 0
M  V30 2093 H 204.869 -0.42796 -0.620779 0
M  V30 2094 H 207.52 -1.53166 -1.01057 0
M  V30 2095 H 205.902 -1.56603 -3.63719 0
M  V30 2096 H 207.076 -4.0434 -2.21011 0
M  V30 2097 H 205.391 -3.57529 -2.13452 0
M  V30 2098 H 207.988 -2.52856 -4.71135 0
M  V30 2099 H 208.331 -0.94733 -4.05378 0
M  V30 2100 H 208.864 -2.39973 -3.17266 0
M  V30 2101 H 205.603 -5.32648 -3.82055 0
M  V30 2102 H 205.123 -3.81596 -4.62757 0
M  V30 2103 H 206.802 -4.39869 -4.74473 0
M  V30 2104 N 206.934 1.1197 -1.10907 0
M  V30 2105 C 208.181 1.83588 -0.854507 0
M  V30 2106 C 208.509 1.84357 0.6199 0
M  V30 2107 O 207.764 1.28809 1.47332 0
M  V30 2108 C 208.063 3.30749 -1.35425 0
M  V30 2109 C 207.729 3.50146 -2.84093 0
M  V30 2110 C 206.391 3.55148 -3.2469 0
M  V30 2111 C 208.743 3.56857 -3.79872 0
M  V30 2112 C 206.071 3.6441 -4.59806 0
M  V30 2113 C 208.423 3.6765 -5.14797 0
M  V30 2114 C 207.087 3.7091 -5.54961 0
M  V30 2115 H 206.357 0.671795 -0.312686 0
M  V30 2116 H 209.004 1.32091 -1.38652 0
M  V30 2117 H 207.309 3.84703 -0.742361 0
M  V30 2118 H 209.006 3.8464 -1.1337 0
M  V30 2119 H 205.596 3.46919 -2.51685 0
M  V30 2120 H 209.78 3.52258 -3.49611 0
M  V30 2121 H 205.036 3.65208 -4.9034 0
M  V30 2122 H 209.21 3.71786 -5.88853 0
M  V30 2123 H 206.837 3.7784 -6.59652 0
M  V30 2124 N 208.412 0.89855 1.29475 0
M  V30 2125 C 209.689 0.443416 1.90508 0
M  V30 2126 C 210.069 -1.07685 1.81569 0
M  V30 2127 O 209.417 -1.9182 1.24166 0
M  V30 2128 C 209.627 0.956708 3.35631 0
M  V30 2129 C 210.975 0.999728 4.12663 0
M  V30 2130 O 211.999 0.904299 3.4453 0
M  V30 2131 O 210.858 1.14289 5.34416 0
M  V30 2132 H 207.952 0.138025 0.815401 0
M  V30 2133 H 210.498 0.98834 1.37949 0
M  V30 2134 H 209.27 2.00067 3.36287 0
M  V30 2135 H 208.893 0.391728 3.95666 0
M  V30 2136 N 209.89 -1.43072 0.660911 0
M  V30 2137 C 211.118 -2.06067 0.185422 0
M  V30 2138 C 211.533 -1.49582 -1.15198 0
M  V30 2139 O 210.89 -0.630134 -1.71276 0
M  V30 2140 C 210.941 -3.61371 0.0966523 0
M  V30 2141 O 210.662 -4.15758 1.38119 0
M  V30 2142 C 212.163 -4.41455 -0.403996 0
M  V30 2143 H 209.383 -0.664459 0.0934604 0
M  V30 2144 H 211.927 -1.83447 0.90373 0
M  V30 2145 H 210.082 -3.8315 -0.572259 0
M  V30 2146 H 210.496 -5.09499 1.24542 0
M  V30 2147 H 211.97 -5.50437 -0.415045 0
M  V30 2148 H 212.447 -4.15036 -1.43674 0
M  V30 2149 H 213.053 -4.24663 0.232691 0
M  V30 2150 N 211.368 -0.403325 -1.52352 0
M  V30 2151 C 212.331 0.413051 -2.25447 0
M  V30 2152 C 213.331 0.978513 -1.276 0
M  V30 2153 O 214.521 0.858305 -1.51587 0
M  V30 2154 C 211.653 1.58087 -3.02029 0
M  V30 2155 H 212.846 -0.227094 -2.99039 0
M  V30 2156 H 210.399 -0.155722 -1.55522 0
M  V30 2157 H 211.134 2.25804 -2.32772 0
M  V30 2158 H 210.919 1.18195 -3.73861 0
M  V30 2159 H 212.409 2.1585 -3.57489 0
M  V30 2160 N 212.846 1.57033 -0.133567 0
M  V30 2161 C 214.257 1.82593 0.389464 0
M  V30 2162 C 214.608 1.05156 1.6564 0
M  V30 2163 O 213.733 0.292644 2.14412 0
M  V30 2164 C 214.328 3.31204 0.713377 0
M  V30 2165 C 212.887 3.57393 1.18098 0
M  V30 2166 C 212.034 2.76598 0.197126 0
M  V30 2167 H 214.985 1.54598 -0.358481 0
M  V30 2168 H 215.006 3.46627 1.56939 0
M  V30 2169 H 214.518 3.87537 -0.2089 0
M  V30 2170 H 212.619 3.06433 2.11966 0
M  V30 2171 H 212.732 4.65915 1.11624 0
M  V30 2172 H 211.096 2.45257 0.687088 0
M  V30 2173 H 211.879 3.35697 -0.718504 0
M  V30 2174 N 214.325 -0.140222 1.56975 0
M  V30 2175 C 215.553 -0.866437 1.87884 0
M  V30 2176 C 215.968 -1.74428 0.722517 0
M  V30 2177 O 215.325 -1.79891 -0.30749 0
M  V30 2178 C 215.376 -1.71753 3.18093 0
M  V30 2179 O 215.097 -0.875056 4.29272 0
M  V30 2180 C 216.598 -2.55074 3.62563 0
M  V30 2181 H 213.818 -0.25019 0.622612 0
M  V30 2182 H 216.362 -0.130977 2.0408 0
M  V30 2183 H 214.517 -2.40598 3.03631 0
M  V30 2184 H 214.931 -1.46002 5.03769 0
M  V30 2185 H 216.405 -3.10356 4.5649 0
M  V30 2186 H 216.882 -3.31434 2.88181 0
M  V30 2187 H 217.488 -1.91509 3.79743 0
M  V30 2188 N 215.803 -1.52179 -0.40978 0
M  V30 2189 C 217.051 -1.65878 -1.15451 0
M  V30 2190 C 217.372 -0.390771 -1.91044 0
M  V30 2191 O 216.642 0.594323 -1.86667 0
M  V30 2192 H 215.222 -0.611405 -0.429177 0
M  V30 2193 H 217.884 -1.89219 -0.467134 0
M  V30 2194 H 216.98 -2.49954 -1.86894 0
M  V30 2195 N 217.281 0.66697 -1.42791 0
M  V30 2196 C 218.231 1.77313 -1.43332 0
M  V30 2197 C 219.215 1.5801 -0.303586 0
M  V30 2198 O 220.407 1.68356 -0.546385 0
M  V30 2199 C 217.536 3.15822 -1.34578 0
M  V30 2200 C 216.622 3.40721 -2.52528 0
M  V30 2201 N 217.013 3.36162 -3.77927 0
M  V30 2202 C 215.311 3.71387 -2.46956 0
M  V30 2203 C 216.012 3.60762 -4.56318 0
M  V30 2204 N 214.988 3.81908 -3.86843 0
M  V30 2205 H 218.79 1.72193 -2.38174 0
M  V30 2206 H 216.304 0.868114 -1.3725 0
M  V30 2207 H 218.301 3.951 -1.33048 0
M  V30 2208 H 216.961 3.22133 -0.407453 0
M  V30 2209 H 217.972 3.15885 -4.10411 0
M  V30 2210 H 214.649 3.84897 -1.61743 0
M  V30 2211 H 216.039 3.63132 -5.65318 0
M  V30 2212 N 218.759 1.29093 0.90403 0
M  V30 2213 C 219.987 1.19689 1.68766 0
M  V30 2214 C 220.402 -0.243113 1.87228 0
M  V30 2215 O 219.759 -1.16326 1.40621 0
M  V30 2216 C 219.81 1.90144 3.07453 0
M  V30 2217 O 219.531 3.2852 2.89838 0
M  V30 2218 C 221.032 1.87162 4.01852 0
M  V30 2219 H 218.252 0.415035 0.527244 0
M  V30 2220 H 220.796 1.7039 1.13082 0
M  V30 2221 H 218.951 1.43289 3.59926 0
M  V30 2222 H 219.365 3.63944 3.77684 0
M  V30 2223 H 220.839 2.41032 4.96596 0
M  V30 2224 H 221.316 0.84617 4.30972 0
M  V30 2225 H 221.922 2.33741 3.5531 0
M  V30 2226 N 220.237 -1.11381 1.11499 0
M  V30 2227 C 221.486 -1.82494 0.858993 0
M  V30 2228 C 221.799 -1.85605 -0.617278 0
M  V30 2229 O 223.005 -2.52824 -0.989552 0
M  V30 2230 C 221.461 -3.27745 1.48699 0
M  V30 2231 C 221.069 -3.32961 2.99735 0
M  V30 2232 C 222.813 -4.03754 1.31085 0
M  V30 2233 C 220.72 -4.72612 3.55516 0
M  V30 2234 H 219.65 -0.683802 0.317696 0
M  V30 2235 H 222.301 -1.25331 1.34031 0
M  V30 2236 H 220.683 -3.84844 0.933339 0
M  V30 2237 H 221.857 -2.85741 3.61509 0
M  V30 2238 H 220.172 -2.70433 3.16631 0
M  V30 2239 H 222.769 -5.06891 1.70192 0
M  V30 2240 H 223.112 -4.15527 0.253496 0
M  V30 2241 H 223.645 -3.53043 1.83318 0
M  V30 2242 H 220.384 -4.66036 4.60967 0
M  V30 2243 H 219.904 -5.2024 2.98513 0
M  V30 2244 H 221.583 -5.4157 3.53992 0
M  V30 2245 N 221.715 -0.905404 -1.28997 0
M  V30 2246 C 223.131 -0.60233 -1.47798 0
M  V30 2247 C 223.331 0.854645 -1.82478 0
M  V30 2248 O 222.387 1.63439 -1.92468 0
M  V30 2249 C 223.7 -1.53306 -2.58685 0
M  V30 2250 C 225.248 -1.53887 -2.72558 0
M  V30 2251 C 225.723 -2.45602 -3.86579 0
M  V30 2252 N 227.214 -2.43681 -3.93921 0
M  V30 2253 C 227.949 -3.11347 -4.81509 0
M  V30 2254 N 227.445 -3.88313 -5.73746 0
M  V30 2255 N 229.238 -3.00476 -4.75048 0
M  V30 2256 H 221.389 -1.84765 -1.04764 0
M  V30 2257 H 223.652 -0.792025 -0.520961 0
M  V30 2258 H 223.358 -2.57141 -2.39941 0
M  V30 2259 H 223.232 -1.25787 -3.55609 0
M  V30 2260 H 225.619 -0.507941 -2.90696 0
M  V30 2261 H 225.7 -1.85447 -1.76191 0
M  V30 2262 H 225.344 -3.48792 -3.69197 0
M  V30 2263 H 225.274 -2.11349 -4.82327 0
M  V30 2264 H 227.765 -1.87767 -3.27951 0
M  V30 2265 H 228.078 -4.36985 -6.37389 0
M  V30 2266 H 226.423 -3.92419 -5.73614 0
M  V30 2267 H 229.614 -2.39858 -4.01977 0
M  V30 2268 H 229.787 -3.53485 -5.43095 0
M  V30 2269 N 223.193 1.4272 -0.668489 0
M  V30 2270 C 224.123 2.335 -0.000100175 0
M  V30 2271 C 225.104 1.50328 0.795964 0
M  V30 2272 O 226.289 1.78949 0.754385 0
M  V30 2273 C 223.419 3.33874 0.956302 0
M  V30 2274 C 222.373 4.27152 0.269278 0
M  V30 2275 C 221.699 5.17684 1.33818 0
M  V30 2276 C 222.999 5.15373 -0.847805 0
M  V30 2277 H 224.693 2.89639 -0.758244 0
M  V30 2278 H 222.239 1.39269 -0.366079 0
M  V30 2279 H 224.192 3.9629 1.43292 0
M  V30 2280 H 222.916 2.76025 1.74579 0
M  V30 2281 H 221.575 3.66123 -0.187042 0
M  V30 2282 H 221.223 4.56165 2.1195 0
M  V30 2283 H 220.923 5.80918 0.883659 0
M  V30 2284 H 222.447 5.82974 1.81586 0
M  V30 2285 H 223.861 5.7151 -0.452681 0
M  V30 2286 H 222.258 5.87407 -1.22773 0
M  V30 2287 H 223.328 4.5415 -1.69929 0
M  V30 2288 N 224.671 0.411399 1.52136 0
M  V30 2289 C 225.601 -0.404015 2.29978 0
M  V30 2290 C 226.582 -1.04412 1.34284 0
M  V30 2291 O 227.767 -1.0527 1.63192 0
M  V30 2292 C 224.897 -1.5197 3.12286 0
M  V30 2293 C 223.851 -1.00448 4.16046 0
M  V30 2294 C 223.177 -2.21393 4.86712 0
M  V30 2295 C 224.477 -0.0569336 5.22269 0
M  V30 2296 H 226.171 0.245529 2.98392 0
M  V30 2297 H 223.717 0.119525 1.43503 0
M  V30 2298 H 225.67 -2.09715 3.6551 0
M  V30 2299 H 224.394 -2.19716 2.41646 0
M  V30 2300 H 223.053 -0.449421 3.63835 0
M  V30 2301 H 222.701 -2.87699 4.12599 0
M  V30 2302 H 222.401 -1.87571 5.56858 0
M  V30 2303 H 223.925 -2.7974 5.4275 0
M  V30 2304 H 225.339 -0.54325 5.7072 0
M  V30 2305 H 223.736 0.192594 5.99791 0
M  V30 2306 H 224.806 0.887663 4.76706 0
M  V30 2307 N 226.149 -1.5696 0.141893 0
M  V30 2308 C 227.081 -2.13619 -0.830627 0
M  V30 2309 C 228.094 -1.08439 -1.21428 0
M  V30 2310 O 229.283 -1.35734 -1.15925 0
M  V30 2311 C 226.383 -2.63978 -2.12529 0
M  V30 2312 C 225.556 -3.93504 -1.9098 0
M  V30 2313 C 224.615 -4.29225 -3.04388 0
M  V30 2314 O 223.641 -4.97641 -2.76302 0
M  V30 2315 N 224.843 -3.88393 -4.31429 0
M  V30 2316 H 227.608 -2.97691 -0.34641 0
M  V30 2317 H 225.169 -1.61846 -0.0418375 0
M  V30 2318 H 227.161 -2.84891 -2.87436 0
M  V30 2319 H 225.731 -1.84659 -2.52229 0
M  V30 2320 H 224.951 -3.81269 -1.00139 0
M  V30 2321 H 226.239 -4.78154 -1.73914 0
M  V30 2322 H 225.637 -3.33257 -4.57117 0
M  V30 2323 H 224.194 -4.14368 -5.03133 0
M  V30 2324 N 227.627 0.131896 -1.57047 0
M  V30 2325 C 228.557 1.16384 -2.02428 0
M  V30 2326 C 229.538 1.43936 -0.90644 0
M  V30 2327 O 230.723 1.54599 -1.17528 0
M  V30 2328 C 227.853 2.49328 -2.4177 0
M  V30 2329 C 226.807 2.36266 -3.56879 0
M  V30 2330 C 226.133 3.74057 -3.8208 0
M  V30 2331 C 227.433 1.834 -4.89042 0
M  V30 2332 H 229.127 0.786433 -2.88887 0
M  V30 2333 H 226.673 0.376855 -1.38981 0
M  V30 2334 H 228.626 3.21759 -2.7212 0
M  V30 2335 H 227.35 2.88934 -1.52266 0
M  V30 2336 H 226.009 1.66286 -3.26718 0
M  V30 2337 H 225.657 4.11125 -2.89803 0
M  V30 2338 H 225.357 3.66174 -4.59554 0
M  V30 2339 H 226.881 4.48012 -4.1487 0
M  V30 2340 H 228.295 2.45636 -5.18011 0
M  V30 2341 H 226.692 1.8637 -5.70426 0
M  V30 2342 H 227.762 0.790662 -4.7841 0
M  V30 2343 N 229.106 1.52395 0.401703 0
M  V30 2344 C 230.517 1.58899 0.980202 0
M  V30 2345 C 230.868 0.434032 1.91339 0
M  V30 2346 O 229.993 -0.444619 2.11783 0
M  V30 2347 C 230.588 2.87994 1.78451 0
M  V30 2348 C 229.147 2.96953 2.31292 0
M  V30 2349 C 228.294 2.53903 1.11483 0
M  V30 2350 H 231.245 1.57657 0.18168 0
M  V30 2351 H 231.266 2.73765 2.64259 0
M  V30 2352 H 230.778 3.72035 1.10506 0
M  V30 2353 H 228.879 2.17422 3.02586 0
M  V30 2354 H 228.992 4.01344 2.61649 0
M  V30 2355 H 227.356 2.07925 1.47104 0
M  V30 2356 H 228.139 3.40326 0.450928 0
M  V30 2357 N 230.584 -0.659388 1.43143 0
M  V30 2358 C 231.832 -1.41654 1.44147 0
M  V30 2359 C 232.153 -1.94893 0.0645739 0
M  V30 2360 O 231.423 -1.74044 -0.899198 0
M  V30 2361 H 230.003 -0.525708 0.530697 0
M  V30 2362 H 232.665 -0.778097 1.78694 0
M  V30 2363 H 231.761 -2.26195 2.1504 0
M  V30 2364 N 232.062 -1.29571 -0.897171 0
M  V30 2365 C 233.025 -1.14913 -1.98312 0
M  V30 2366 C 234.025 -0.0838629 -1.60581 0
M  V30 2367 O 235.215 -0.331006 -1.71026 0
M  V30 2368 C 232.347 -0.757835 -3.3237 0
M  V30 2369 H 233.54 -2.11377 -2.12743 0
M  V30 2370 H 231.093 -1.12793 -1.08201 0
M  V30 2371 H 231.828 0.206837 -3.2364 0
M  V30 2372 H 231.613 -1.52755 -3.61121 0
M  V30 2373 H 233.103 -0.678408 -4.12053 0
M  V30 2374 N 233.54 1.10788 -1.12088 0
M  V30 2375 C 234.786 1.8313 -0.885148 0
M  V30 2376 C 235.141 1.8336 0.582839 0
M  V30 2377 O 234.434 1.28062 1.42516 0
M  V30 2378 C 234.628 3.29294 -1.38926 0
M  V30 2379 C 234.457 3.43302 -2.90472 0
M  V30 2380 C 233.227 3.55928 -3.58669 0
M  V30 2381 C 235.425 3.37014 -3.88492 0
M  V30 2382 N 233.407 3.58475 -4.98366 0
M  V30 2383 C 234.778 3.46263 -5.14298 0
M  V30 2384 C 236.833 3.20589 -3.80955 0
M  V30 2385 C 235.536 3.4078 -6.33452 0
M  V30 2386 C 237.562 3.16427 -4.99628 0
M  V30 2387 C 236.924 3.26253 -6.2429 0
M  V30 2388 H 233.023 0.685054 -0.377128 0
M  V30 2389 H 235.607 1.3251 -1.4265 0
M  V30 2390 H 233.778 3.78416 -0.874999 0
M  V30 2391 H 235.51 3.89578 -1.09596 0
M  V30 2392 H 232.265 3.58779 -3.09151 0
M  V30 2393 H 232.689 3.6337 -5.71219 0
M  V30 2394 H 237.331 3.11873 -2.85474 0
M  V30 2395 H 235.049 3.48263 -7.29204 0
M  V30 2396 H 238.635 3.04874 -4.95523 0
M  V30 2397 H 237.515 3.2303 -7.14578 0
M  V30 2398 N 235.018 0.912232 1.28515 0
M  V30 2399 C 236.243 0.559774 1.99703 0
M  V30 2400 C 236.668 -0.851393 1.67729 0
M  V30 2401 O 236.026 -1.56875 0.908834 0
M  V30 2402 C 236.074 0.773874 3.52198 0
M  V30 2403 O 235.178 -0.167842 4.12058 0
M  V30 2404 H 234.519 0.21723 0.627461 0
M  V30 2405 H 237.049 1.22725 1.63706 0
M  V30 2406 H 237.059 0.683386 4.02236 0
M  V30 2407 H 235.734 1.80261 3.74805 0
M  V30 2408 H 234.311 -0.0287509 3.72889 0
M  V30 2409 N 236.496 -1.42363 0.676048 0
M  V30 2410 C 237.721 -2.06377 0.205705 0
M  V30 2411 C 238.146 -1.50463 -1.12883 0
M  V30 2412 O 237.504 -0.623619 -1.70237 0
M  V30 2413 C 237.552 -3.60277 0.152655 0
M  V30 2414 O 236.656 -4.02935 -0.87845 0
M  V30 2415 H 235.997 -0.655588 0.105359 0
M  V30 2416 H 238.527 -1.82475 0.925412 0
M  V30 2417 H 238.537 -4.07993 -0.0230675 0
M  V30 2418 H 237.212 -4.00346 1.12675 0
M  V30 2419 H 235.789 -3.66764 -0.673668 0
M  V30 2420 N 237.974 -0.419461 -1.51915 0
M  V30 2421 C 239.221 0.152939 -2.01922 0
M  V30 2422 C 239.549 1.4426 -1.30458 0
M  V30 2423 O 238.804 1.91514 -0.402593 0
M  V30 2424 C 239.103 0.437067 -3.54717 0
M  V30 2425 C 238.769 -0.764632 -4.44369 0
M  V30 2426 C 237.431 -1.09423 -4.68594 0
M  V30 2427 C 239.783 -1.56713 -4.97082 0
M  V30 2428 C 237.111 -2.22732 -5.42777 0
M  V30 2429 C 239.463 -2.69107 -5.72507 0
M  V30 2430 C 238.127 -3.02541 -5.95 0
M  V30 2431 H 237.397 0.0559644 -0.738884 0
M  V30 2432 H 240.044 -0.562998 -1.83037 0
M  V30 2433 H 238.349 1.23469 -3.71837 0
M  V30 2434 H 240.046 0.893083 -3.90928 0
M  V30 2435 H 236.636 -0.497775 -4.257 0
M  V30 2436 H 240.82 -1.32571 -4.78266 0
M  V30 2437 H 236.076 -2.48971 -5.58411 0
M  V30 2438 H 240.25 -3.31671 -6.12346 0
M  V30 2439 H 237.877 -3.90457 -6.52264 0
M  V30 2440 N 239.452 1.56882 -0.150215 0
M  V30 2441 C 240.701 1.95403 0.500071 0
M  V30 2442 C 241.014 1.03777 1.658 0
M  V30 2443 O 242.22 1.31889 2.37313 0
M  V30 2444 C 240.676 3.4738 0.941018 0
M  V30 2445 C 240.284 4.47596 -0.190158 0
M  V30 2446 C 242.028 3.9476 1.56091 0
M  V30 2447 C 239.935 5.90787 0.269237 0
M  V30 2448 H 238.865 0.729515 0.190588 0
M  V30 2449 H 241.516 1.81988 -0.235074 0
M  V30 2450 H 239.898 3.56138 1.73152 0
M  V30 2451 H 241.072 4.50536 -0.967157 0
M  V30 2452 H 239.387 4.10151 -0.718666 0
M  V30 2453 H 241.984 4.99181 1.9163 0
M  V30 2454 H 242.327 3.36494 2.45107 0
M  V30 2455 H 242.86 3.88932 0.835249 0
M  V30 2456 H 239.599 6.52879 -0.585621 0
M  V30 2457 H 239.119 5.912 1.01204 0
M  V30 2458 H 240.798 6.42979 0.720176 0
M  V30 2459 N 240.93 -0.123565 1.57115 0
M  V30 2460 C 242.207 -0.862196 1.75572 0
M  V30 2461 C 242.587 -1.98279 0.724475 0
M  V30 2462 O 241.935 -2.27102 -0.252407 0
M  V30 2463 C 242.145 -1.38309 3.20424 0
M  V30 2464 C 243.493 -1.83724 3.82793 0
M  V30 2465 O 244.517 -1.47999 3.23998 0
M  V30 2466 O 243.376 -2.49685 4.86127 0
M  V30 2467 H 240.47 -0.409113 0.718718 0
M  V30 2468 H 243.016 -0.107661 1.69358 0
M  V30 2469 H 241.788 -0.578889 3.86994 0
M  V30 2470 H 241.411 -2.20046 3.31158 0
M  V30 2471 N 242.408 -1.52605 -0.393616 0
M  V30 2472 C 243.633 -1.71592 -1.16495 0
M  V30 2473 C 244.058 -0.43133 -1.83088 0
M  V30 2474 O 243.416 0.612523 -1.7064 0
M  V30 2475 C 243.464 -2.86318 -2.19213 0
M  V30 2476 O 242.568 -2.52969 -3.257 0
M  V30 2477 H 241.909 -0.570734 -0.33935 0
M  V30 2478 H 244.439 -1.99377 -0.459324 0
M  V30 2479 H 244.449 -3.1168 -2.63286 0
M  V30 2480 H 243.124 -3.79511 -1.7013 0
M  V30 2481 H 241.701 -2.38332 -2.86797 0
M  V30 2482 N 243.887 0.651787 -1.4349 0
M  V30 2483 C 244.835 1.78586 -1.49029 0
M  V30 2484 C 245.829 1.65448 -0.363767 0
M  V30 2485 O 247.035 1.71777 -0.537821 0
M  V30 2486 H 243.41 0.589236 -0.467231 0
M  V30 2487 H 245.381 1.71035 -2.44519 0
M  V30 2488 C 244.13 3.16851 -1.43181 0
M  V30 2489 H 243.453 3.27598 -2.29171 0
M  V30 2490 H 244.893 3.96156 -1.51118 0
M  V30 2491 C 243.352 3.36568 -0.149616 0
M  V30 2492 O 243.882 3.93885 0.788509 0
M  V30 2493 N 242.088 2.90539 -0.0593484 0
M  V30 2494 H 241.635 2.4408 -0.823575 0
M  V30 2495 H 241.593 3.04108 0.797853 0
M  V30 2496 N 245.365 1.30045 0.890287 0
M  V30 2497 C 246.776 1.16738 1.45702 0
M  V30 2498 C 247.127 -0.233939 1.948 0
M  V30 2499 O 246.252 -1.13021 1.84541 0
M  V30 2500 C 246.847 2.11313 2.64825 0
M  V30 2501 C 245.406 2.02001 3.17604 0
M  V30 2502 C 244.553 2.01699 1.90296 0
M  V30 2503 H 247.504 1.42392 0.700726 0
M  V30 2504 H 247.525 1.69086 3.40867 0
M  V30 2505 H 247.037 3.13294 2.2906 0
M  V30 2506 H 245.138 1.03142 3.5804 0
M  V30 2507 H 245.251 2.90128 3.81264 0
M  V30 2508 H 243.615 1.46427 2.08402 0
M  V30 2509 H 244.398 3.05402 1.56795 0
M  V30 2510 N 246.843 -1.10192 1.12674 0
M  V30 2511 C 247.753 -2.20172 0.810026 0
M  V30 2512 C 248.769 -1.72821 -0.202188 0
M  V30 2513 O 249.945 -2.01369 -0.0351691 0
M  V30 2514 C 247.01 -3.45631 0.272007 0
M  V30 2515 C 246.071 -4.07704 1.34447 0
M  V30 2516 C 245.304 -5.27175 0.832029 0
M  V30 2517 O 245.527 -5.69425 -0.333284 0
M  V30 2518 O 244.461 -5.80168 1.60277 0
M  V30 2519 H 248.287 -2.49701 1.72867 0
M  V30 2520 H 245.872 -1.18977 0.903597 0
M  V30 2521 H 247.754 -4.21394 -0.0230219 0
M  V30 2522 H 246.429 -3.17723 -0.619164 0
M  V30 2523 H 245.336 -3.33614 1.6927 0
M  V30 2524 H 246.669 -4.3982 2.2095 0
M  V30 2525 N 248.321 -0.919034 -1.28029 0
M  V30 2526 C 249.569 -0.553838 -1.94363 0
M  V30 2527 C 249.89 0.906357 -1.72656 0
M  V30 2528 O 249.16 1.64143 -1.0693 0
M  V30 2529 H 247.74 -0.201834 -0.719216 0
M  V30 2530 H 250.402 -1.16954 -1.55909 0
M  V30 2531 H 249.498 -0.752758 -3.02886 0
M  V30 2532 N 249.799 1.42003 -0.683588 0
M  V30 2533 C 250.762 2.29191 -0.0198243 0
M  V30 2534 C 251.762 1.43773 0.72013 0
M  V30 2535 O 252.952 1.65061 0.556815 0
M  V30 2536 C 250.084 3.26435 0.982487 0
M  V30 2537 H 251.277 2.8938 -0.787345 0
M  V30 2538 H 248.83 1.49789 -0.446418 0
M  V30 2539 H 249.565 2.71203 1.77819 0
M  V30 2540 H 249.35 3.89449 0.455182 0
M  V30 2541 H 250.84 3.918 1.44508 0
M  V30 2542 N 251.277 0.427512 1.51691 0
M  V30 2543 C 252.502 -0.143601 2.06902 0
M  V30 2544 C 252.927 -1.36536 1.29382 0
M  V30 2545 O 252.285 -1.78289 0.329043 0
M  V30 2546 C 252.333 -0.454207 3.57728 0
M  V30 2547 O 251.437 -1.54228 3.82475 0
M  V30 2548 H 250.778 -0.00617128 0.663971 0
M  V30 2549 H 253.308 0.606014 1.95419 0
M  V30 2550 H 253.318 -0.707525 4.01818 0
M  V30 2551 H 251.993 0.438812 4.13579 0
M  V30 2552 H 250.57 -1.2797 3.50254 0
M  V30 2553 N 252.755 -1.56801 0.158532 0
M  V30 2554 C 253.995 -1.98383 -0.49229 0
M  V30 2555 C 254.359 -1.04184 -1.61275 0
M  V30 2556 O 255.56 -1.34856 -2.32524 0
M  V30 2557 C 253.831 -3.4385 -0.974766 0
M  V30 2558 S 255.39 -4.07459 -1.62857 0
M  V30 2559 H 252.208 -0.693041 -0.158794 0
M  V30 2560 H 254.81 -1.93856 0.252974 0
M  V30 2561 H 253.514 -4.10131 -0.148688 0
M  V30 2562 H 253.045 -3.52115 -1.75438 0
M  V30 2563 H 255.06 -4.01458 -2.91627 0
M  V30 2564 N 254.233 0.115231 -1.57178 0
M  V30 2565 C 255.163 1.1423 -2.03651 0
M  V30 2566 C 256.144 1.42967 -0.921655 0
M  V30 2567 O 257.329 1.53343 -1.19162 0
M  V30 2568 C 254.459 2.4675 -2.44401 0
M  V30 2569 C 253.413 2.32467 -3.59365 0
M  V30 2570 C 252.739 3.69984 -3.86026 0
M  V30 2571 C 254.039 1.78203 -4.90959 0
M  V30 2572 H 255.733 0.755749 -2.89705 0
M  V30 2573 H 253.279 0.362093 -1.39373 0
M  V30 2574 H 255.232 3.18854 -2.75517 0
M  V30 2575 H 253.956 2.87302 -1.55322 0
M  V30 2576 H 252.615 1.62811 -3.28463 0
M  V30 2577 H 252.263 4.08028 -2.94147 0
M  V30 2578 H 251.963 3.61279 -4.63412 0
M  V30 2579 H 253.487 4.43587 -4.19599 0
M  V30 2580 H 254.901 2.40128 -5.20587 0
M  V30 2581 H 253.298 1.8031 -5.72371 0
M  V30 2582 H 254.368 0.739876 -4.79222 0
M  V30 2583 N 255.711 1.52812 0.385517 0
M  V30 2584 C 256.959 1.67694 1.12797 0
M  V30 2585 C 257.28 0.421115 1.90399 0
M  V30 2586 O 256.55 -0.564551 1.87589 0
M  V30 2587 H 255.13 0.618155 0.419396 0
M  V30 2588 H 257.792 1.89938 0.436972 0
M  V30 2589 H 256.888 2.52896 1.82894 0
M  V30 2590 N 257.189 -0.644168 1.43834 0
M  V30 2591 C 258.6 -1.22554 1.40845 0
M  V30 2592 C 258.951 -1.9585 0.117115 0
M  V30 2593 O 258.076 -2.01734 -0.783086 0
M  V30 2594 C 258.671 -2.22907 2.55143 0
M  V30 2595 C 257.23 -2.76501 2.5539 0
M  V30 2596 C 256.377 -1.51287 2.32396 0
M  V30 2597 H 259.328 -0.43563 1.52604 0
M  V30 2598 H 259.349 -3.05259 2.2715 0
M  V30 2599 H 258.861 -1.69533 3.49114 0
M  V30 2600 H 256.962 -3.33914 1.65324 0
M  V30 2601 H 257.075 -3.23429 3.53455 0
M  V30 2602 H 255.439 -1.78957 1.81236 0
M  V30 2603 H 256.222 -0.998336 3.28463 0
M  V30 2604 N 258.668 -1.30515 -0.883378 0
M  V30 2605 C 259.601 -1.11359 -1.99184 0
M  V30 2606 C 260.579 -0.0207858 -1.62587 0
M  V30 2607 O 261.763 -0.174646 -1.87689 0
M  V30 2608 C 258.89 -0.69871 -3.31415 0
M  V30 2609 C 257.936 -1.79261 -3.86998 0
M  V30 2610 S 258.769 -3.39536 -4.14096 0
M  V30 2611 C 259.925 -2.99954 -5.49344 0
M  V30 2612 H 260.158 -2.052 -2.15128 0
M  V30 2613 H 257.691 -1.14847 -1.03196 0
M  V30 2614 H 259.649 -0.466075 -4.07846 0
M  V30 2615 H 258.31 0.220368 -3.13326 0
M  V30 2616 H 257.503 -1.45464 -4.82552 0
M  V30 2617 H 257.105 -1.97961 -3.17313 0
M  V30 2618 H 259.397 -2.48013 -6.30473 0
M  V30 2619 H 260.34 -3.9442 -5.8808 0
M  V30 2620 H 260.748 -2.37775 -5.1198 0
M  V30 2621 N 260.146 1.09593 -1.13257 0
M  V30 2622 C 261.109 2.14359 -0.811358 0
M  V30 2623 C 262.109 1.59808 0.178377 0
M  V30 2624 O 263.299 1.74132 -0.0484911 0
M  V30 2625 C 260.431 3.40269 -0.207276 0
M  V30 2626 H 261.624 2.44284 -1.73969 0
M  V30 2627 H 259.177 1.25102 -0.936973 0
M  V30 2628 H 259.912 3.15969 0.73036 0
M  V30 2629 H 259.697 3.81154 -0.919992 0
M  V30 2630 H 261.187 4.176 0.000667944 0
M  V30 2631 N 261.624 0.925811 1.2754 0
M  V30 2632 C 262.872 0.564138 1.94067 0
M  V30 2633 C 263.193 -0.897188 1.73134 0
M  V30 2634 O 262.463 -1.63573 1.07799 0
M  V30 2635 H 261.043 0.205645 0.718136 0
M  V30 2636 H 263.705 1.1778 1.55287 0
M  V30 2637 H 262.801 0.76881 3.02483 0
M  V30 2638 N 263.102 -1.41638 0.69111 0
M  V30 2639 C 264.032 -2.3347 0.037248 0
M  V30 2640 C 265.013 -1.51575 -0.771947 0
M  V30 2641 O 266.198 -1.80126 -0.72582 0
M  V30 2642 C 263.328 -3.35354 -0.903064 0
M  V30 2643 C 262.282 -4.27526 -0.201288 0
M  V30 2644 C 261.608 -5.19747 -1.25565 0
M  V30 2645 C 262.908 -5.13959 0.929689 0
M  V30 2646 H 264.602 -2.88397 0.804227 0
M  V30 2647 H 262.148 -1.38669 0.388189 0
M  V30 2648 H 264.101 -3.98519 -1.36969 0
M  V30 2649 H 262.825 -2.78767 -1.70166 0
M  V30 2650 H 261.484 -3.65779 0.245265 0
M  V30 2651 H 261.132 -4.59479 -2.04666 0
M  V30 2652 H 260.832 -5.8225 -0.791128 0
M  V30 2653 H 262.356 -5.85789 -1.72288 0
M  V30 2654 H 263.77 -5.70718 0.543546 0
M  V30 2655 H 262.167 -5.85379 1.32103 0
M  V30 2656 H 263.237 -4.51389 1.77133 0
M  V30 2657 N 264.58 -0.43555 -1.51462 0
M  V30 2658 C 265.49 0.383001 -2.31453 0
M  V30 2659 C 266.506 1.02931 -1.4029 0
M  V30 2660 O 267.682 1.02507 -1.73362 0
M  V30 2661 C 264.747 1.47043 -3.13973 0
M  V30 2662 C 263.808 0.844433 -4.20913 0
M  V30 2663 C 263.041 1.88004 -4.9949 0
M  V30 2664 O 263.264 3.10199 -4.78678 0
M  V30 2665 O 262.198 1.47157 -5.83634 0
M  V30 2666 H 266.024 -0.269964 -3.02498 0
M  V30 2667 H 263.609 -0.19813 -1.4808 0
M  V30 2668 H 265.491 2.10113 -3.65281 0
M  V30 2669 H 264.166 2.10751 -2.45695 0
M  V30 2670 H 263.073 0.175729 -3.73687 0
M  V30 2671 H 264.406 0.250869 -4.9156 0
M  V30 2672 N 266.058 1.56714 -0.166846 0
M  V30 2673 C 267.005 2.17746 0.765193 0
M  V30 2674 C 267.975 1.11614 1.23011 0
M  V30 2675 O 269.16 1.39745 1.29908 0
M  V30 2676 C 266.3 2.81882 1.9909 0
M  V30 2677 C 265.413 4.02462 1.56997 0
M  V30 2678 C 264.548 4.54537 2.749 0
M  V30 2679 C 263.587 5.67538 2.29275 0
M  V30 2680 N 262.724 6.14142 3.40255 0
M  V30 2681 H 267.564 2.97048 0.237952 0
M  V30 2682 H 265.101 1.4672 0.105725 0
M  V30 2683 H 267.059 3.17221 2.70974 0
M  V30 2684 H 265.689 2.05191 2.49192 0
M  V30 2685 H 264.741 3.72973 0.748037 0
M  V30 2686 H 266.053 4.84273 1.19503 0
M  V30 2687 H 265.207 4.92035 3.54946 0
M  V30 2688 H 263.946 3.71774 3.1565 0
M  V30 2689 H 262.951 5.29597 1.47674 0
M  V30 2690 H 264.176 6.52099 1.89588 0
M  V30 2691 H 262.122 5.3431 3.8059 0
M  V30 2692 H 262.039 6.9093 3.06841 0
M  V30 2693 H 263.307 6.56289 4.206 0
M  V30 2694 N 267.536 -0.106894 1.57237 0
M  V30 2695 C 268.468 -1.15646 1.97885 0
M  V30 2696 C 269.481 -1.36981 0.879779 0
M  V30 2697 O 270.67 -1.35841 1.15799 0
M  V30 2698 C 267.77 -2.51425 2.27241 0
M  V30 2699 C 266.943 -2.50529 3.58545 0
M  V30 2700 C 266.002 -3.68145 3.75973 0
M  V30 2701 O 265.028 -3.51176 4.47956 0
M  V30 2702 N 266.23 -4.87177 3.15656 0
M  V30 2703 H 268.995 -0.81059 2.8853 0
M  V30 2704 H 266.556 -0.296024 1.59171 0
M  V30 2705 H 268.548 -3.28689 2.36105 0
M  V30 2706 H 267.118 -2.78147 1.42663 0
M  V30 2707 H 266.338 -1.58894 3.60758 0
M  V30 2708 H 267.626 -2.46997 4.44826 0
M  V30 2709 H 267.024 -5.03868 2.57165 0
M  V30 2710 H 265.581 -5.62075 3.30023 0
M  V30 2711 N 269.014 -1.53014 -0.377408 0
M  V30 2712 C 270.43 -1.42523 -0.718281 0
M  V30 2713 C 270.63 -0.55487 -1.9371 0
M  V30 2714 O 269.686 -0.0327593 -2.52479 0
M  V30 2715 C 270.999 -2.85546 -0.942539 0
M  V30 2716 C 272.547 -2.95101 -1.04329 0
M  V30 2717 C 273.022 -4.3916 -1.3001 0
M  V30 2718 N 274.513 -4.42536 -1.36806 0
M  V30 2719 C 275.248 -5.51097 -1.58364 0
M  V30 2720 N 274.744 -6.69724 -1.77317 0
M  V30 2721 N 276.537 -5.38657 -1.60638 0
M  V30 2722 H 268.688 -2.08116 0.424426 0
M  V30 2723 H 270.951 -0.939352 0.127759 0
M  V30 2724 H 270.657 -3.51499 -0.118929 0
M  V30 2725 H 270.531 -3.28493 -1.85397 0
M  V30 2726 H 272.918 -2.29309 -1.85745 0
M  V30 2727 H 272.999 -2.55566 -0.109505 0
M  V30 2728 H 272.643 -5.05521 -0.490991 0
M  V30 2729 H 272.573 -4.76258 -2.24691 0
M  V30 2730 H 275.064 -3.57039 -1.23821 0
M  V30 2731 H 275.377 -7.48233 -1.93306 0
M  V30 2732 H 273.722 -6.72732 -1.74518 0
M  V30 2733 H 276.913 -4.44948 -1.45391 0
M  V30 2734 H 277.086 -6.2333 -1.77098 0
M  V30 2735 N 270.492 0.636531 -1.44174 0
M  V30 2736 C 271.402 1.77754 -1.53103 0
M  V30 2737 C 272.418 1.68928 -0.417034 0
M  V30 2738 O 273.594 1.89801 -0.6736 0
M  V30 2739 C 270.659 3.14115 -1.46741 0
M  V30 2740 C 269.72 3.34612 -2.68948 0
M  V30 2741 C 268.953 4.64467 -2.6288 0
M  V30 2742 O 269.176 5.44919 -1.68581 0
M  V30 2743 O 268.11 4.87049 -3.53648 0
M  V30 2744 H 271.936 1.73174 -2.49489 0
M  V30 2745 H 269.521 0.79709 -1.2636 0
M  V30 2746 H 271.403 3.95412 -1.45696 0
M  V30 2747 H 270.078 3.19249 -0.534975 0
M  V30 2748 H 268.985 2.53014 -2.75562 0
M  V30 2749 H 270.318 3.34336 -3.61221 0
M  V30 2750 N 271.97 1.30982 0.876444 0
M  V30 2751 C 272.902 1.13902 1.98894 0
M  V30 2752 C 273.915 0.0798815 1.62604 0
M  V30 2753 O 275.104 0.326743 1.75484 0
M  V30 2754 C 272.204 0.716699 3.31235 0
M  V30 2755 C 271.377 1.85945 3.95908 0
M  V30 2756 C 270.436 1.42426 5.06558 0
M  V30 2757 O 269.462 2.13287 5.27729 0
M  V30 2758 N 270.664 0.308025 5.79682 0
M  V30 2759 H 273.429 2.09724 2.14094 0
M  V30 2760 H 270.99 1.2323 1.05004 0
M  V30 2761 H 272.982 0.408403 4.02634 0
M  V30 2762 H 271.552 -0.149719 3.12241 0
M  V30 2763 H 270.772 2.33541 3.17573 0
M  V30 2764 H 272.06 2.62503 4.35855 0
M  V30 2765 H 271.458 -0.282241 5.64995 0
M  V30 2766 H 270.015 0.0592282 6.51773 0
M  V30 2767 N 273.449 -1.08991 1.13837 0
M  V30 2768 C 274.679 -1.84743 0.924859 0
M  V30 2769 C 275.087 -1.81629 -0.529874 0
M  V30 2770 O 274.43 -1.21397 -1.37872 0
M  V30 2771 C 274.492 -3.33568 1.34061 0
M  V30 2772 C 274.156 -3.60425 2.80968 0
M  V30 2773 C 275.153 -3.55771 3.79108 0
M  V30 2774 C 272.838 -3.88627 3.18236 0
M  V30 2775 C 274.832 -3.78939 5.12527 0
M  V30 2776 C 272.519 -4.11449 4.51833 0
M  V30 2777 C 273.517 -4.06598 5.48787 0
M  V30 2778 O 273.205 -4.28826 6.79973 0
M  V30 2779 H 272.937 -0.590258 0.329502 0
M  V30 2780 H 275.491 -1.38598 1.51591 0
M  V30 2781 H 273.721 -3.80442 0.692853 0
M  V30 2782 H 275.41 -3.90743 1.09886 0
M  V30 2783 H 276.176 -3.34005 3.51661 0
M  V30 2784 H 272.055 -3.91526 2.43369 0
M  V30 2785 H 275.599 -3.75068 5.88192 0
M  V30 2786 H 271.496 -4.32698 4.79002 0
M  V30 2787 H 272.264 -4.46264 6.86142 0
M  V30 2788 N 274.927 -0.932562 -1.27047 0
M  V30 2789 C 275.89 -0.440064 -2.24936 0
M  V30 2790 C 276.89 0.444071 -1.54547 0
M  V30 2791 O 278.08 0.244465 -1.72476 0
M  V30 2792 C 275.212 0.36678 -3.38921 0
M  V30 2793 H 276.405 -1.305 -2.70018 0
M  V30 2794 H 273.958 -0.713707 -1.39054 0
M  V30 2795 H 274.693 1.25033 -2.99228 0
M  V30 2796 H 274.478 -0.267204 -3.91188 0
M  V30 2797 H 275.968 0.701567 -4.11665 0
M  V30 2798 N 276.405 1.4127 -0.698611 0
M  V30 2799 C 277.635 2.05205 -0.239644 0
M  V30 2800 C 278.043 1.52684 1.11733 0
M  V30 2801 O 277.386 0.671222 1.70998 0
M  V30 2802 C 277.448 3.59289 -0.123126 0
M  V30 2803 C 277.112 4.34619 -1.41263 0
M  V30 2804 C 278.109 4.63701 -2.35111 0
M  V30 2805 C 275.794 4.73837 -1.66684 0
M  V30 2806 C 277.788 5.30966 -3.52639 0
M  V30 2807 C 275.475 5.40837 -2.84498 0
M  V30 2808 C 276.473 5.69329 -3.77298 0
M  V30 2809 O 276.161 6.34949 -4.93047 0
M  V30 2810 H 275.893 0.66723 -0.108537 0
M  V30 2811 H 278.447 1.81974 -0.952602 0
M  V30 2812 H 276.677 3.81272 0.645628 0
M  V30 2813 H 278.366 4.04797 0.299056 0
M  V30 2814 H 279.132 4.33882 -2.16729 0
M  V30 2815 H 275.011 4.51039 -0.953135 0
M  V30 2816 H 278.555 5.53121 -4.25091 0
M  V30 2817 H 274.452 5.70075 -3.02795 0
M  V30 2818 H 275.22 6.53445 -4.92902 0
M  V30 2819 N 277.883 0.443576 1.51229 0
M  V30 2820 C 278.846 -0.353132 2.26463 0
M  V30 2821 C 279.846 -0.944338 1.3015 0
M  V30 2822 O 281.036 -0.817813 1.5381 0
M  V30 2823 C 278.168 -1.50023 3.06114 0
M  V30 2824 H 279.361 0.3063 2.98332 0
M  V30 2825 H 276.914 0.196902 1.55055 0
M  V30 2826 H 277.649 -2.19553 2.38677 0
M  V30 2827 H 277.434 -1.08241 3.76864 0
M  V30 2828 H 278.924 -2.06296 3.63087 0
M  V30 2829 N 279.361 -1.56624 0.175154 0
M  V30 2830 C 280.607 -1.9729 -0.469506 0
M  V30 2831 C 280.94 -1.06128 -1.62636 0
M  V30 2832 O 280.215 -0.109183 -1.94193 0
M  V30 2833 C 280.498 -3.47375 -0.948804 0
M  V30 2834 C 280.351 -4.49317 0.208491 0
M  V30 2835 C 281.67 -4.00652 -1.82116 0
M  V30 2836 H 278.789 -0.717317 -0.16919 0
M  V30 2837 H 281.431 -1.88184 0.262062 0
M  V30 2838 H 279.581 -3.55267 -1.57219 0
M  V30 2839 H 281.253 -4.53482 0.845682 0
M  V30 2840 H 279.496 -4.25121 0.863395 0
M  V30 2841 H 280.167 -5.51741 -0.169059 0
M  V30 2842 H 282.643 -3.95416 -1.2956 0
M  V30 2843 H 281.519 -5.06075 -2.12554 0
M  V30 2844 H 281.78 -3.44699 -2.7683 0
M  V30 2845 N 280.839 0.0985539 -1.57292 0
M  V30 2846 C 281.749 1.13824 -2.05137 0
M  V30 2847 C 282.765 1.44076 -0.975604 0
M  V30 2848 O 283.941 1.54786 -1.28853 0
M  V30 2849 C 281.006 2.43969 -2.46333 0
M  V30 2850 C 280.067 2.2093 -3.68087 0
M  V30 2851 C 279.3 3.44869 -4.0731 0
M  V30 2852 O 279.523 4.52972 -3.46659 0
M  V30 2853 O 278.457 3.34661 -5.00285 0
M  V30 2854 H 282.283 0.761881 -2.93988 0
M  V30 2855 H 279.868 0.310818 -1.46131 0
M  V30 2856 H 281.75 3.20609 -2.73473 0
M  V30 2857 H 280.425 2.81038 -1.60621 0
M  V30 2858 H 279.332 1.42081 -3.46069 0
M  V30 2859 H 280.665 1.88755 -4.54568 0
M  V30 2860 N 282.317 1.53212 0.369288 0
M  V30 2861 C 283.28 1.7872 1.43498 0
M  V30 2862 C 284.28 0.657554 1.46741 0
M  V30 2863 O 285.47 0.925736 1.47566 0
M  V30 2864 C 282.602 1.90591 2.82645 0
M  V30 2865 H 283.795 2.73894 1.22156 0
M  V30 2866 H 281.348 1.44233 0.602203 0
M  V30 2867 H 282.083 0.974709 3.09306 0
M  V30 2868 H 281.868 2.72751 2.8169 0
M  V30 2869 H 283.358 2.11931 3.59826 0
M  V30 2870 N 283.795 -0.628877 1.44509 0
M  V30 2871 C 284.725 -1.75187 1.54376 0
M  V30 2872 C 285.706 -1.65411 0.396618 0
M  V30 2873 O 286.891 -1.84137 0.617031 0
M  V30 2874 C 284.021 -3.13725 1.48976 0
M  V30 2875 C 282.975 -3.38291 2.62189 0
M  V30 2876 C 282.301 -4.76883 2.41841 0
M  V30 2877 C 283.601 -3.30632 4.04326 0
M  V30 2878 H 285.295 -1.67187 2.48373 0
M  V30 2879 H 282.841 -0.802909 1.19538 0
M  V30 2880 H 284.794 -3.92064 1.54478 0
M  V30 2881 H 283.518 -3.22515 0.514961 0
M  V30 2882 H 282.177 -2.62334 2.56079 0
M  V30 2883 H 281.825 -4.82378 1.42548 0
M  V30 2884 H 281.525 -4.94278 3.17747 0
M  V30 2885 H 283.049 -5.57449 2.49165 0
M  V30 2886 H 284.463 -3.98873 4.11793 0
M  V30 2887 H 282.86 -3.59561 4.80454 0
M  V30 2888 H 283.93 -2.28404 4.27738 0
M  V30 2889 N 285.273 -1.31445 -0.869486 0
M  V30 2890 C 286.498 -1.24256 -1.66058 0
M  V30 2891 C 286.923 0.188928 -1.87149 0
M  V30 2892 O 286.281 1.13522 -1.4136 0
M  V30 2893 C 286.329 -1.9924 -3.00559 0
M  V30 2894 O 285.433 -1.33007 -3.90362 0
M  V30 2895 H 284.774 -0.428973 -0.506831 0
M  V30 2896 H 287.304 -1.73521 -1.08404 0
M  V30 2897 H 287.314 -2.08854 -3.50491 0
M  V30 2898 H 285.989 -3.03342 -2.84528 0
M  V30 2899 H 284.566 -1.31848 -3.48813 0
M  V30 2900 N 286.751 1.08385 -1.14413 0
M  V30 2901 C 288.028 1.77429 -0.823297 0
M  V30 2902 C 288.408 1.9974 0.683163 0
M  V30 2903 O 287.756 1.60739 1.62405 0
M  V30 2904 C 287.966 3.09004 -1.62227 0
M  V30 2905 C 289.314 3.83532 -1.82177 0
M  V30 2906 O 290.338 3.18786 -1.58915 0
M  V30 2907 O 289.197 4.99792 -2.21067 0
M  V30 2908 H 286.291 0.769999 -0.301712 0
M  V30 2909 H 288.837 1.14846 -1.24934 0
M  V30 2910 H 287.609 2.88316 -2.64555 0
M  V30 2911 H 287.232 3.79316 -1.19187 0
M  V30 2912 N 288.23 0.939286 1.26551 0
M  V30 2913 C 289.641 0.628782 1.75793 0
M  V30 2914 C 289.992 -0.856046 1.7654 0
M  V30 2915 O 289.117 -1.66994 1.3763 0
M  V30 2916 C 289.712 1.13465 3.19235 0
M  V30 2917 C 288.271 0.874601 3.66098 0
M  V30 2918 C 287.418 1.28667 2.45642 0
M  V30 2919 H 290.369 1.1178 1.12654 0
M  V30 2920 H 290.39 0.487609 3.77363 0
M  V30 2921 H 289.902 2.21535 3.1866 0
M  V30 2922 H 288.003 -0.191793 3.72106 0
M  V30 2923 H 288.116 1.50028 4.55004 0
M  V30 2924 H 286.48 0.705109 2.44745 0
M  V30 2925 H 287.263 2.37625 2.47769 0
M  V30 2926 N 289.708 -1.40897 0.706093 0
M  V30 2927 C 290.655 -2.30751 0.0474474 0
M  V30 2928 C 291.625 -1.47678 -0.76029 0
M  V30 2929 O 292.81 -1.76441 -0.726177 0
M  V30 2930 C 289.95 -3.33815 -0.875309 0
M  V30 2931 C 289.063 -4.31961 -0.0580623 0
M  V30 2932 C 288.198 -5.22093 -0.979425 0
M  V30 2933 C 287.237 -6.11902 -0.155706 0
M  V30 2934 N 286.374 -6.94482 -1.03144 0
M  V30 2935 H 291.214 -2.86513 0.819413 0
M  V30 2936 H 288.751 -1.41102 0.415783 0
M  V30 2937 H 290.709 -3.92129 -1.42446 0
M  V30 2938 H 289.339 -2.79579 -1.61356 0
M  V30 2939 H 288.391 -3.75507 0.608147 0
M  V30 2940 H 289.703 -4.95415 0.580082 0
M  V30 2941 H 288.857 -5.85292 -1.59744 0
M  V30 2942 H 287.596 -4.5889 -1.65141 0
M  V30 2943 H 286.601 -5.47742 0.475309 0
M  V30 2944 H 287.826 -6.77162 0.512635 0
M  V30 2945 H 285.772 -6.33877 -1.68924 0
M  V30 2946 H 285.689 -7.54665 -0.449108 0
M  V30 2947 H 286.957 -7.6214 -1.63593 0
M  V30 2948 N 291.186 -0.45159 -1.50991 0
M  V30 2949 C 292.602 -0.104647 -1.59257 0
M  V30 2950 C 292.802 1.38728 -1.4614 0
M  V30 2951 O 291.858 2.15866 -1.30989 0
M  V30 2952 C 293.171 -0.637468 -2.93865 0
M  V30 2953 C 294.719 -0.599166 -3.07212 0
M  V30 2954 C 295.194 -1.1092 -4.44366 0
M  V30 2955 N 296.685 -1.06778 -4.50725 0
M  V30 2956 C 297.42 -1.43314 -5.55201 0
M  V30 2957 N 296.916 -1.87204 -6.67028 0
M  V30 2958 N 298.709 -1.3504 -5.45638 0
M  V30 2959 H 290.86 -1.42214 -1.57762 0
M  V30 2960 H 293.123 -0.586921 -0.744465 0
M  V30 2961 H 292.829 -1.68187 -3.08879 0
M  V30 2962 H 292.703 -0.0702139 -3.77135 0
M  V30 2963 H 295.09 0.436277 -2.91857 0
M  V30 2964 H 295.171 -1.20299 -2.25747 0
M  V30 2965 H 294.815 -2.14318 -4.60467 0
M  V30 2966 H 294.745 -0.481773 -5.24392 0
M  V30 2967 H 297.236 -0.745643 -3.70471 0
M  V30 2968 H 297.549 -2.13282 -7.42786 0
M  V30 2969 H 295.894 -1.91142 -6.68199 0
M  V30 2970 H 299.085 -1.00607 -4.57161 0
M  V30 2971 H 299.258 -1.63841 -6.26945 0
M  V30 2972 N 292.664 1.56529 -0.183458 0
M  V30 2973 C 293.892 2.01623 0.464285 0
M  V30 2974 C 294.307 1.06366 1.55986 0
M  V30 2975 O 293.664 0.0665398 1.82379 0
M  V30 2976 C 293.715 3.46475 1.03139 0
M  V30 2977 O 293.436 4.38095 -0.0204675 0
M  V30 2978 C 294.937 4.0703 1.75617 0
M  V30 2979 H 292.157 0.660596 0.117704 0
M  V30 2980 H 294.701 2.02451 -0.288751 0
M  V30 2981 H 292.856 3.46383 1.73486 0
M  V30 2982 H 293.27 5.22973 0.399952 0
M  V30 2983 H 294.744 5.10271 2.10542 0
M  V30 2984 H 295.221 3.49819 2.65563 0
M  V30 2985 H 295.827 4.1086 1.09882 0
M  V30 2986 N 294.142 -0.090211 1.57342 0
M  V30 2987 C 295.558 -0.444547 1.53284 0
M  V30 2988 C 295.758 -1.80238 0.900914 0
M  V30 2989 O 294.814 -2.4759 0.495513 0
M  V30 2990 C 296.127 -0.402543 2.97993 0
M  V30 2991 C 297.675 -0.48405 3.09234 0
M  V30 2992 C 298.15 -0.472144 4.5556 0
M  V30 2993 N 299.641 -0.532757 4.60126 0
M  V30 2994 C 300.376 -0.545462 5.708 0
M  V30 2995 N 299.872 -0.514082 6.9089 0
M  V30 2996 N 301.665 -0.59064 5.58988 0
M  V30 2997 H 293.816 0.799121 1.96794 0
M  V30 2998 H 296.079 0.297965 0.899956 0
M  V30 2999 H 295.785 0.528106 3.47712 0
M  V30 3000 H 295.659 -1.21969 3.56936 0
M  V30 3001 H 298.046 -1.40512 2.595 0
M  V30 3002 H 298.127 0.361328 2.53235 0
M  V30 3003 H 297.771 0.445 5.05947 0
M  V30 3004 H 297.701 -1.3348 5.09402 0
M  V30 3005 H 300.192 -0.562006 3.73698 0
M  V30 3006 H 300.505 -0.527195 7.71 0
M  V30 3007 H 298.85 -0.481054 6.93333 0
M  V30 3008 H 302.041 -0.61272 4.64073 0
M  V30 3009 H 302.214 -0.597073 6.45243 0
M  V30 3010 N 295.62 -1.53406 -0.361157 0
M  V30 3011 C 296.55 -1.83136 -1.44857 0
M  V30 3012 C 297.531 -0.685174 -1.5569 0
M  V30 3013 O 298.716 -0.93544 -1.70186 0
M  V30 3014 C 295.846 -2.02522 -2.82138 0
M  V30 3015 C 294.8 -3.18302 -2.86126 0
M  V30 3016 C 294.126 -3.22989 -4.26125 0
M  V30 3017 C 295.426 -4.56796 -2.53248 0
M  V30 3018 H 297.12 -2.74201 -1.20226 0
M  V30 3019 H 294.666 -1.31938 -0.576922 0
M  V30 3020 H 296.619 -2.21904 -3.58241 0
M  V30 3021 H 295.343 -1.08172 -3.08166 0
M  V30 3022 H 294.002 -2.98747 -2.12475 0
M  V30 3023 H 293.65 -2.26267 -4.49235 0
M  V30 3024 H 293.35 -4.00781 -4.29708 0
M  V30 3025 H 294.874 -3.44559 -5.04094 0
M  V30 3026 H 296.288 -4.7631 -3.19064 0
M  V30 3027 H 294.685 -5.36862 -2.68141 0
M  V30 3028 H 295.755 -4.61606 -1.48484 0
M  V30 3029 N 297.098 0.621204 -1.44841 0
M  V30 3030 C 298.344 1.3826 -1.48365 0
M  V30 3031 C 298.677 1.93831 -0.119624 0
M  V30 3032 O 297.952 1.74251 0.864111 0
M  V30 3033 C 298.235 2.54058 -2.55199 0
M  V30 3034 C 298.088 2.03772 -4.00995 0
M  V30 3035 C 299.407 3.56225 -2.58442 0
M  V30 3036 H 296.526 0.501374 -0.540179 0
M  V30 3037 H 299.168 0.7015 -1.76576 0
M  V30 3038 H 297.318 3.12162 -2.31274 0
M  V30 3039 H 298.99 1.50423 -4.36086 0
M  V30 3040 H 297.233 1.34876 -4.12299 0
M  V30 3041 H 297.904 2.87185 -4.71411 0
M  V30 3042 H 300.38 3.07939 -2.79844 0
M  V30 3043 H 299.256 4.34756 -3.3508 0
M  V30 3044 H 299.517 4.10949 -1.63013 0
M  V30 3045 N 298.576 1.31904 0.862503 0
M  V30 3046 C 299.506 1.22782 1.98612 0
M  V30 3047 C 300.487 0.113362 1.69722 0
M  V30 3048 O 301.672 0.299218 1.91881 0
M  V30 3049 C 298.802 0.942058 3.34279 0
M  V30 3050 C 297.756 2.0169 3.77499 0
M  V30 3051 C 297.082 1.58369 5.10709 0
M  V30 3052 C 298.382 3.43096 3.93805 0
M  V30 3053 H 300.076 2.16788 2.06502 0
M  V30 3054 H 297.622 1.04366 0.992154 0
M  V30 3055 H 299.575 0.864818 4.1243 0
M  V30 3056 H 298.299 -0.0336603 3.26583 0
M  V30 3057 H 296.958 2.08416 3.01593 0
M  V30 3058 H 296.606 0.595628 4.99461 0
M  V30 3059 H 296.306 2.30279 5.40597 0
M  V30 3060 H 297.83 1.52067 5.91361 0
M  V30 3061 H 299.244 3.39003 4.62331 0
M  V30 3062 H 297.641 4.13288 4.35101 0
M  V30 3063 H 298.711 3.83334 2.96957 0
M  V30 3064 N 300.054 -1.07777 1.14986 0
M  V30 3065 C 301.3 -1.80557 0.923422 0
M  V30 3066 C 301.633 -1.86298 -0.548337 0
M  V30 3067 O 300.908 -1.34354 -1.40639 0
M  V30 3068 C 301.191 -3.25839 1.53299 0
M  V30 3069 C 301.044 -3.28269 3.07505 0
M  V30 3070 C 302.363 -4.22991 1.21518 0
M  V30 3071 H 299.482 -0.655493 0.336894 0
M  V30 3072 H 302.124 -1.26144 1.42083 0
M  V30 3073 H 300.274 -3.72306 1.10999 0
M  V30 3074 H 301.946 -2.90079 3.58681 0
M  V30 3075 H 300.189 -2.67355 3.4162 0
M  V30 3076 H 300.86 -4.30691 3.45266 0
M  V30 3077 H 303.336 -3.84894 1.581 0
M  V30 3078 H 302.212 -5.22945 1.66793 0
M  V30 3079 H 302.473 -4.41904 0.131505 0
M  V30 3080 N 301.532 -0.945985 -1.26051 0
M  V30 3081 C 302.495 -0.463897 -2.24456 0
M  V30 3082 C 303.495 0.427655 -1.55009 0
M  V30 3083 O 304.685 0.226157 -1.72726 0
M  V30 3084 C 301.817 0.330812 -3.39291 0
M  V30 3085 H 303.01 -1.33357 -2.68619 0
M  V30 3086 H 300.563 -0.728416 -1.38289 0
M  V30 3087 H 301.298 1.21852 -3.00537 0
M  V30 3088 H 301.083 -0.308679 -3.90883 0
M  V30 3089 H 302.573 0.657865 -4.12386 0
M  V30 3090 N 303.011 1.40521 -0.713556 0
M  V30 3091 C 304.427 1.54839 -0.386907 0
M  V30 3092 C 304.627 1.68532 1.1045 0
M  V30 3093 O 303.683 1.67377 1.89053 0
M  V30 3094 C 304.996 2.77792 -1.15118 0
M  V30 3095 C 306.544 2.91607 -1.13729 0
M  V30 3096 C 307.019 4.1747 -1.88368 0
M  V30 3097 N 308.51 4.24466 -1.85427 0
M  V30 3098 C 309.245 5.20755 -2.40004 0
M  V30 3099 N 308.741 6.22965 -3.03129 0
M  V30 3100 N 310.534 5.1282 -2.30158 0
M  V30 3101 H 302.685 1.29879 -1.68063 0
M  V30 3102 H 304.948 0.627896 -0.710247 0
M  V30 3103 H 304.654 2.73944 -2.20561 0
M  V30 3104 H 304.528 3.6984 -0.741477 0
M  V30 3105 H 306.915 2.94959 -0.0910608 0
M  V30 3106 H 306.996 2.00682 -1.5862 0
M  V30 3107 H 306.64 4.1488 -2.9298 0
M  V30 3108 H 306.57 5.074 -1.40898 0
M  V30 3109 H 309.061 3.51241 -1.3942 0
M  V30 3110 H 309.374 6.92859 -3.42295 0
M  V30 3111 H 307.719 6.23415 -3.07212 0
M  V30 3112 H 310.91 4.31899 -1.80501 0
M  V30 3113 H 311.083 5.87689 -2.72993 0
M  V30 3114 N 304.489 0.459591 1.5075 0
M  V30 3115 C 305.419 -0.330644 2.31147 0
M  V30 3116 C 306.4 -1.00087 1.37538 0
M  V30 3117 O 307.585 -1.00025 1.66459 0
M  V30 3118 C 304.715 -1.41958 3.16962 0
M  V30 3119 C 303.669 -0.871608 4.19031 0
M  V30 3120 C 302.995 -2.05797 4.9351 0
M  V30 3121 C 304.295 0.109251 5.22186 0
M  V30 3122 H 305.989 0.340336 2.97459 0
M  V30 3123 H 303.535 0.165119 1.4305 0
M  V30 3124 H 305.488 -1.9798 3.71997 0
M  V30 3125 H 304.212 -2.11917 2.48513 0
M  V30 3126 H 302.871 -0.333442 3.6508 0
M  V30 3127 H 302.519 -2.74427 4.21544 0
M  V30 3128 H 302.219 -1.6976 5.62544 0
M  V30 3129 H 303.743 -2.62331 5.51375 0
M  V30 3130 H 305.157 -0.361405 5.7216 0
M  V30 3131 H 303.554 0.383316 5.98875 0
M  V30 3132 H 304.624 1.03887 4.73641 0
M  V30 3133 N 305.967 -1.56429 0.191757 0
M  V30 3134 C 306.899 -2.16154 -0.762245 0
M  V30 3135 C 307.912 -1.12247 -1.17917 0
M  V30 3136 O 309.101 -1.39353 -1.11548 0
M  V30 3137 C 306.201 -2.70606 -2.04024 0
M  V30 3138 C 305.374 -3.99381 -1.78364 0
M  V30 3139 C 304.433 -4.38692 -2.90578 0
M  V30 3140 O 303.459 -5.06179 -2.6033 0
M  V30 3141 N 304.661 -4.01922 -4.18854 0
M  V30 3142 H 307.426 -2.98643 -0.251526 0
M  V30 3143 H 304.987 -1.61897 0.00967373 0
M  V30 3144 H 306.979 -2.93891 -2.78227 0
M  V30 3145 H 305.549 -1.9259 -2.46227 0
M  V30 3146 H 304.769 -3.84262 -0.879581 0
M  V30 3147 H 306.057 -4.83445 -1.58614 0
M  V30 3148 H 305.455 -3.47631 -4.46283 0
M  V30 3149 H 304.012 -4.30165 -4.89695 0
M  V30 3150 N 307.445 0.0818655 -1.57387 0
M  V30 3151 C 308.392 1.09834 -2.0299 0
M  V30 3152 C 309.362 1.39043 -0.908639 0
M  V30 3153 O 310.547 1.50282 -1.17559 0
M  V30 3154 C 307.687 2.40971 -2.47037 0
M  V30 3155 C 306.8 2.18379 -3.7274 0
M  V30 3156 C 305.935 3.43008 -4.0561 0
M  V30 3157 C 304.974 3.15736 -5.24383 0
M  V30 3158 N 304.111 4.32667 -5.52941 0
M  V30 3159 H 308.951 0.702472 -2.89602 0
M  V30 3160 H 306.488 0.33531 -1.43227 0
M  V30 3161 H 308.446 3.1752 -2.70623 0
M  V30 3162 H 307.076 2.78379 -1.63417 0
M  V30 3163 H 306.128 1.32569 -3.56552 0
M  V30 3164 H 307.44 1.94227 -4.59431 0
M  V30 3165 H 306.594 4.27958 -4.30043 0
M  V30 3166 H 305.333 3.70225 -3.17466 0
M  V30 3167 H 304.338 2.2918 -4.99757 0
M  V30 3168 H 305.563 2.8985 -6.14136 0
M  V30 3169 H 303.509 4.59935 -4.67756 0
M  V30 3170 H 303.426 4.11753 -6.34031 0
M  V30 3171 H 304.694 5.18644 -5.81918 0
M  V30 3172 N 308.923 1.53595 0.353017 0
M  V30 3173 C 310.148 1.7462 1.11904 0
M  V30 3174 C 310.573 0.479721 1.8188 0
M  V30 3175 O 309.931 -0.567066 1.72204 0
M  V30 3176 C 309.979 2.92029 2.11545 0
M  V30 3177 O 309.083 2.61516 3.18878 0
M  V30 3178 H 308.424 0.579531 0.324099 0
M  V30 3179 H 310.954 2.00525 0.406301 0
M  V30 3180 H 310.964 3.18551 2.5493 0
M  V30 3181 H 309.639 3.83888 1.60008 0
M  V30 3182 H 308.216 2.45852 2.80377 0
M  V30 3183 N 310.401 -0.613514 1.45168 0
M  V30 3184 C 311.629 -1.39946 1.5239 0
M  V30 3185 C 312.044 -1.88167 0.154531 0
M  V30 3186 O 311.401 -1.61872 -0.842843 0
M  V30 3187 C 311.452 -2.60795 2.50337 0
M  V30 3188 O 311.173 -2.1458 3.81952 0
M  V30 3189 C 312.674 -3.53723 2.67198 0
M  V30 3190 H 309.894 -0.428593 0.516284 0
M  V30 3191 H 312.438 -0.748753 1.903 0
M  V30 3192 H 310.593 -3.21919 2.15515 0
M  V30 3193 H 311.007 -2.93055 4.34993 0
M  V30 3194 H 312.481 -4.35079 3.39721 0
M  V30 3195 H 312.958 -4.0368 1.73029 0
M  V30 3196 H 313.564 -2.98456 3.02992 0
M  V30 3197 N 311.879 -1.3236 -0.855495 0
M  V30 3198 C 312.809 -1.23833 -1.97958 0
M  V30 3199 C 313.79 -0.122361 -1.69659 0
M  V30 3200 O 314.975 -0.30939 -1.9172 0
M  V30 3201 C 312.105 -0.959772 -3.33775 0
M  V30 3202 C 311.059 -2.03689 -3.76424 0
M  V30 3203 C 310.385 -1.61075 -5.09862 0
M  V30 3204 C 311.685 -3.4518 -3.9198 0
M  V30 3205 H 313.379 -2.1788 -2.0535 0
M  V30 3206 H 310.925 -1.04891 -0.986605 0
M  V30 3207 H 312.878 -0.886678 -4.11966 0
M  V30 3208 H 311.602 0.0163404 -3.26596 0
M  V30 3209 H 310.261 -2.10012 -3.00484 0
M  V30 3210 H 309.909 -0.622107 -4.99138 0
M  V30 3211 H 309.609 -2.33143 -5.39368 0
M  V30 3212 H 311.133 -1.55201 -5.90546 0
M  V30 3213 H 312.547 -3.4145 -4.60526 0
M  V30 3214 H 310.944 -4.1559 -4.32903 0
M  V30 3215 H 312.014 -3.84903 -2.94919 0
M  V30 3216 N 313.357 1.07166 -1.15556 0
M  V30 3217 C 314.289 2.14341 -0.811815 0
M  V30 3218 C 315.302 1.61835 0.177015 0
M  V30 3219 O 316.491 1.78439 -0.0464996 0
M  V30 3220 C 313.591 3.38387 -0.186481 0
M  V30 3221 C 312.764 4.20238 -1.21321 0
M  V30 3222 C 311.823 5.2266 -0.609302 0
M  V30 3223 O 310.849 5.54719 -1.27576 0
M  V30 3224 N 312.051 5.77306 0.608099 0
M  V30 3225 H 314.816 2.44431 -1.73417 0
M  V30 3226 H 312.377 1.23089 -1.0517 0
M  V30 3227 H 314.369 4.04044 0.230339 0
M  V30 3228 H 312.939 3.05994 0.639249 0
M  V30 3229 H 312.159 3.50369 -1.80652 0
M  V30 3230 H 313.447 4.71736 -1.90638 0
M  V30 3231 H 312.845 5.53513 1.1679 0
M  V30 3232 H 311.402 6.44583 0.96725 0
M  V30 3233 N 314.835 0.952656 1.25548 0
M  V30 3234 C 315.745 0.47782 2.29682 0
M  V30 3235 C 316.761 -0.453859 1.67977 0
M  V30 3236 O 317.937 -0.330587 1.98668 0
M  V30 3237 C 315.002 -0.238655 3.45878 0
M  V30 3238 C 314.063 0.730994 4.23031 0
M  V30 3239 C 313.296 0.0486165 5.33678 0
M  V30 3240 O 313.519 -1.16612 5.58353 0
M  V30 3241 O 312.453 0.733152 5.97418 0
M  V30 3242 H 316.279 1.34312 2.72386 0
M  V30 3243 H 313.864 0.719026 1.30959 0
M  V30 3244 H 315.746 -0.641774 4.16484 0
M  V30 3245 H 314.421 -1.07916 3.05181 0
M  V30 3246 H 313.328 1.18428 3.5486 0
M  V30 3247 H 314.661 1.53946 4.67506 0
M  V30 3248 N 316.313 -1.40141 0.720998 0
M  V30 3249 C 317.559 -2.01084 0.263231 0
M  V30 3250 C 317.892 -1.57052 -1.14229 0
M  V30 3251 O 317.167 -0.793027 -1.77599 0
M  V30 3252 C 317.45 -3.58401 0.349344 0
M  V30 3253 C 317.303 -4.12491 1.79363 0
M  V30 3254 C 318.622 -4.39231 -0.276351 0
M  V30 3255 H 315.741 -0.730572 0.0971228 0
M  V30 3256 H 318.383 -1.66543 0.914518 0
M  V30 3257 H 316.533 -3.87958 -0.205165 0
M  V30 3258 H 318.205 -3.93711 2.40394 0
M  V30 3259 H 316.448 -3.66576 2.31958 0
M  V30 3260 H 317.119 -5.21646 1.80524 0
M  V30 3261 H 319.595 -4.15637 0.196184 0
M  V30 3262 H 318.471 -5.48586 -0.185681 0
M  V30 3263 H 318.732 -4.20643 -1.36059 0
M  V30 3264 N 317.792 -0.46758 -1.50504 0
M  V30 3265 C 318.755 0.317059 -2.26996 0
M  V30 3266 C 319.755 0.923513 -1.31635 0
M  V30 3267 O 320.945 0.793239 -1.55091 0
M  V30 3268 C 318.077 1.45134 -3.08462 0
M  V30 3269 H 319.27 -0.353723 -2.97807 0
M  V30 3270 H 316.823 -0.221545 -1.54722 0
M  V30 3271 H 317.558 2.15728 -2.4214 0
M  V30 3272 H 317.343 1.02232 -3.78538 0
M  V30 3273 H 318.833 2.00493 -3.66323 0
M  V30 3274 N 319.27 1.56325 -0.20005 0
M  V30 3275 C 320.686 1.58839 0.155716 0
M  V30 3276 C 320.886 1.21636 1.60645 0
M  V30 3277 O 319.942 0.941437 2.34293 0
M  V30 3278 C 321.255 3.0032 -0.151124 0
M  V30 3279 C 322.803 3.12866 -0.0916284 0
M  V30 3280 C 323.278 4.56488 -0.371845 0
M  V30 3281 N 324.769 4.62089 -0.320641 0
M  V30 3282 C 325.504 5.71116 -0.511243 0
M  V30 3283 N 325 6.88592 -0.762461 0
M  V30 3284 N 326.793 5.60335 -0.445157 0
M  V30 3285 H 318.944 1.78788 -1.14668 0
M  V30 3286 H 321.207 0.829996 -0.458051 0
M  V30 3287 H 320.913 3.32117 -1.15721 0
M  V30 3288 H 320.787 3.73257 0.543986 0
M  V30 3289 H 323.174 2.80878 0.905065 0
M  V30 3290 H 323.255 2.42304 -0.81989 0
M  V30 3291 H 322.899 4.89189 -1.36588 0
M  V30 3292 H 322.829 5.25246 0.377362 0
M  V30 3293 H 325.32 3.77665 -0.13329 0
M  V30 3294 H 325.633 7.67581 -0.896576 0
M  V30 3295 H 323.978 6.90387 -0.799412 0
M  V30 3296 H 327.169 4.67436 -0.249278 0
M  V30 3297 H 327.342 6.45243 -0.597116 0
M  V30 3298 N 320.748 -0.0735177 1.57428 0
M  V30 3299 C 321.976 -0.785969 1.9139 0
M  V30 3300 C 322.391 -1.71207 0.795847 0
M  V30 3301 O 321.748 -1.81033 -0.230915 0
M  V30 3302 C 321.799 -1.58107 3.25091 0
M  V30 3303 O 321.52 -0.6922 4.32597 0
M  V30 3304 C 323.021 -2.39467 3.73055 0
M  V30 3305 H 320.241 -0.223558 0.632663 0
M  V30 3306 H 322.785 -0.044302 2.04452 0
M  V30 3307 H 320.94 -2.27503 3.13562 0
M  V30 3308 H 321.354 -1.24504 5.09508 0
M  V30 3309 H 322.828 -2.90716 4.69242 0
M  V30 3310 H 323.305 -3.18913 3.01979 0
M  V30 3311 H 323.911 -1.7523 3.87523 0
M  V30 3312 N 322.226 -1.5378 -0.344866 0
M  V30 3313 C 323.176 -1.78057 -1.42407 0
M  V30 3314 C 324.16 -0.635732 -1.47808 0
M  V30 3315 O 325.352 -0.89508 -1.527 0
M  V30 3316 C 322.481 -1.99242 -2.79566 0
M  V30 3317 C 321.567 -3.19787 -2.78562 0
M  V30 3318 N 321.958 -4.41284 -2.47189 0
M  V30 3319 C 320.256 -3.2093 -3.0971 0
M  V30 3320 C 320.957 -5.23128 -2.54385 0
M  V30 3321 N 319.933 -4.59813 -2.89953 0
M  V30 3322 H 323.735 -2.69588 -1.17046 0
M  V30 3323 H 321.249 -1.52687 -0.553217 0
M  V30 3324 H 323.246 -2.14768 -3.57324 0
M  V30 3325 H 321.906 -1.08953 -3.05875 0
M  V30 3326 H 322.917 -4.68657 -2.20411 0
M  V30 3327 H 319.594 -2.40603 -3.41199 0
M  V30 3328 H 320.984 -6.30096 -2.333 0
M  V30 3329 N 323.704 0.605807 -1.45491 0
M  V30 3330 C 324.634 1.72709 -1.57143 0
M  V30 3331 C 325.615 1.6476 -0.422884 0
M  V30 3332 O 326.8 1.83132 -0.646247 0
M  V30 3333 C 323.93 3.11316 -1.53948 0
M  V30 3334 C 322.884 3.34077 -2.67537 0
M  V30 3335 C 322.21 4.72975 -2.49397 0
M  V30 3336 C 323.51 3.24158 -4.09535 0
M  V30 3337 H 325.204 1.63214 -2.51001 0
M  V30 3338 H 322.75 0.78379 -1.208 0
M  V30 3339 H 324.703 3.89557 -1.60696 0
M  V30 3340 H 323.427 3.21655 -0.566205 0
M  V30 3341 H 322.086 2.58227 -2.6022 0
M  V30 3342 H 321.734 4.8005 -1.50205 0
M  V30 3343 H 321.434 4.8916 -3.25571 0
M  V30 3344 H 322.958 5.53414 -2.58002 0
M  V30 3345 H 324.372 3.92271 -4.18086 0
M  V30 3346 H 322.769 3.51872 -4.86113 0
M  V30 3347 H 323.839 2.2157 -4.31317 0
M  V30 3348 N 325.182 1.32811 0.848464 0
M  V30 3349 C 326.092 1.24278 1.98978 0
M  V30 3350 C 327.108 0.155176 1.73307 0
M  V30 3351 O 328.284 0.376999 1.9784 0
M  V30 3352 C 325.349 0.972444 3.32783 0
M  V30 3353 C 324.41 2.14911 3.71634 0
M  V30 3354 C 323.643 1.89157 4.99054 0
M  V30 3355 O 323.866 0.837165 5.64223 0
M  V30 3356 O 322.8 2.75433 5.35183 0
M  V30 3357 H 326.626 2.20238 2.09115 0
M  V30 3358 H 324.211 1.12762 0.980052 0
M  V30 3359 H 326.093 0.838432 4.12975 0
M  V30 3360 H 324.768 0.043051 3.23671 0
M  V30 3361 H 323.675 2.33862 2.91992 0
M  V30 3362 H 325.008 3.06151 3.85399 0
M  V30 3363 N 326.66 -1.06551 1.16123 0
M  V30 3364 C 327.59 -2.15935 0.88851 0
M  V30 3365 C 328.571 -1.69306 -0.164135 0
M  V30 3366 O 329.756 -1.94193 -0.0167857 0
M  V30 3367 C 326.886 -3.45149 0.385942 0
M  V30 3368 C 325.84 -4.05271 1.3762 0
M  V30 3369 C 325.166 -5.29664 0.732137 0
M  V30 3370 C 326.466 -4.44355 2.74493 0
M  V30 3371 H 328.16 -2.39006 1.80323 0
M  V30 3372 H 325.706 -1.14866 0.868435 0
M  V30 3373 H 327.659 -4.21004 0.182647 0
M  V30 3374 H 326.383 -3.21689 -0.564274 0
M  V30 3375 H 325.042 -3.3147 1.56599 0
M  V30 3376 H 324.69 -5.02499 -0.224483 0
M  V30 3377 H 324.39 -5.70848 1.39307 0
M  V30 3378 H 325.914 -6.08218 0.538802 0
M  V30 3379 H 327.328 -5.11303 2.59311 0
M  V30 3380 H 325.725 -4.96515 3.37035 0
M  V30 3381 H 326.795 -3.55339 3.29943 0
M  V30 3382 N 328.138 -0.959301 -1.25041 0
M  V30 3383 C 329.101 -0.487677 -2.23952 0
M  V30 3384 C 330.101 0.41119 -1.55454 0
M  V30 3385 O 331.291 0.207825 -1.72956 0
M  V30 3386 C 328.423 0.294807 -3.39623 0
M  V30 3387 H 329.616 -1.36198 -2.67189 0
M  V30 3388 H 327.169 -0.743042 -1.37508 0
M  V30 3389 H 327.904 1.18658 -3.01813 0
M  V30 3390 H 327.689 -0.35012 -3.90534 0
M  V30 3391 H 329.179 0.614089 -4.1306 0
M  V30 3392 N 329.616 1.39756 -0.72842 0
M  V30 3393 C 330.579 2.29012 -0.0927297 0
M  V30 3394 C 331.579 1.45992 0.674025 0
M  V30 3395 O 332.769 1.66749 0.50402 0
M  V30 3396 C 329.901 3.29396 0.878137 0
M  V30 3397 H 331.094 2.86729 -0.879011 0
M  V30 3398 H 328.647 1.48293 -0.493847 0
M  V30 3399 H 329.382 2.76722 1.69101 0
M  V30 3400 H 329.167 3.907 0.331051 0
M  V30 3401 H 330.657 3.96199 1.3197 0
M  V30 3402 N 331.094 0.475555 1.50254 0
M  V30 3403 C 332.343 -0.0795996 2.01543 0
M  V30 3404 C 332.656 -1.4038 1.36209 0
M  V30 3405 O 333.862 -2.04415 1.7868 0
M  V30 3406 C 332.318 -0.192363 3.59386 0
M  V30 3407 C 331.926 1.12367 4.33679 0
M  V30 3408 C 333.67 -0.699238 4.18701 0
M  V30 3409 C 331.577 0.974453 5.83317 0
M  V30 3410 H 330.507 -0.0335228 0.753254 0
M  V30 3411 H 333.158 0.611128 1.73025 0
M  V30 3412 H 331.54 -0.946974 3.84511 0
M  V30 3413 H 332.714 1.88958 4.20276 0
M  V30 3414 H 331.029 1.562 3.85993 0
M  V30 3415 H 333.626 -0.827978 5.28251 0
M  V30 3416 H 333.969 -1.69171 3.80377 0
M  V30 3417 H 334.502 -0.00188807 3.978 0
M  V30 3418 H 331.241 1.94042 6.26121 0
M  V30 3419 H 330.761 0.248998 5.99283 0
M  V30 3420 H 332.44 0.642867 6.43798 0
M  V30 3421 N 332.573 -1.56217 0.208337 0
M  V30 3422 C 333.821 -1.97558 -0.426076 0
M  V30 3423 C 334.142 -1.09683 -1.61229 0
M  V30 3424 O 333.412 -0.170956 -1.95153 0
M  V30 3425 H 331.992 -0.729575 -0.160405 0
M  V30 3426 H 334.654 -1.92606 0.298155 0
M  V30 3427 H 333.75 -3.02672 -0.761312 0
M  V30 3428 N 334.051 0.0651679 -1.57465 0
M  V30 3429 C 334.981 1.07693 -2.07182 0
M  V30 3430 C 335.962 1.39962 -0.966673 0
M  V30 3431 O 337.147 1.49475 -1.2398 0
M  V30 3432 C 334.277 2.3885 -2.52127 0
M  V30 3433 C 333.231 2.20917 -3.66579 0
M  V30 3434 C 332.557 3.57515 -3.97601 0
M  V30 3435 C 333.857 1.62493 -4.9638 0
M  V30 3436 H 335.551 0.663199 -2.91962 0
M  V30 3437 H 333.097 0.317569 -1.40455 0
M  V30 3438 H 335.05 3.09928 -2.85522 0
M  V30 3439 H 333.774 2.82215 -1.64384 0
M  V30 3440 H 332.433 1.52279 -3.33477 0
M  V30 3441 H 332.081 3.98463 -3.06979 0
M  V30 3442 H 331.781 3.46353 -4.74672 0
M  V30 3443 H 333.305 4.30013 -4.33499 0
M  V30 3444 H 334.719 2.23445 -5.27963 0
M  V30 3445 H 333.116 1.62009 -5.77818 0
M  V30 3446 H 334.186 0.587041 -4.81333 0
M  V30 3447 N 335.529 1.53961 0.336706 0
M  V30 3448 C 336.476 1.82428 1.41381 0
M  V30 3449 C 337.446 0.670444 1.51968 0
M  V30 3450 O 338.631 0.915565 1.67398 0
M  V30 3451 C 335.771 2.04564 2.77934 0
M  V30 3452 C 334.884 3.32267 2.76084 0
M  V30 3453 C 334.019 3.44434 4.04399 0
M  V30 3454 C 333.058 4.66061 3.96804 0
M  V30 3455 N 332.195 4.75224 5.16823 0
M  V30 3456 H 337.035 2.74324 1.16405 0
M  V30 3457 H 334.572 1.35869 0.563752 0
M  V30 3458 H 336.53 2.15388 3.57301 0
M  V30 3459 H 335.16 1.15974 3.01247 0
M  V30 3460 H 334.212 3.3025 1.88784 0
M  V30 3461 H 335.524 4.21733 2.66351 0
M  V30 3462 H 334.678 3.54728 4.92192 0
M  V30 3463 H 333.417 2.53037 4.16921 0
M  V30 3464 H 332.422 4.55838 3.07396 0
M  V30 3465 H 333.647 5.58829 3.85858 0
M  V30 3466 H 331.593 3.86739 5.29876 0
M  V30 3467 H 331.51 5.58636 5.09374 0
M  V30 3468 H 332.778 4.89835 6.06367 0
M  V30 3469 N 337.007 -0.598083 1.45811 0
M  V30 3470 C 337.955 -1.72932 1.55555 0
M  V30 3471 C 338.949 -1.63984 0.424921 0
M  V30 3472 O 340.155 -1.69663 0.601205 0
M  V30 3473 H 336.53 -0.571489 0.488779 0
M  V30 3474 H 338.501 -1.61842 2.50699 0
M  V30 3475 C 337.25 -3.11318 1.54843 0
M  V30 3476 H 336.573 -3.18867 2.41172 0
M  V30 3477 H 338.013 -3.90274 1.65717 0
M  V30 3478 C 336.472 -3.3578 0.274427 0
M  V30 3479 O 337.002 -3.9654 -0.641778 0
M  V30 3480 N 335.208 -2.90119 0.167139 0
M  V30 3481 H 334.755 -2.40855 0.913596 0
M  V30 3482 H 334.713 -3.0686 -0.684435 0
M  V30 3483 N 338.485 -1.33259 -0.841409 0
M  V30 3484 C 339.417 -1.19136 -1.95804 0
M  V30 3485 C 340.43 -0.122965 -1.62335 0
M  V30 3486 O 341.619 -0.373154 -1.74556 0
M  V30 3487 C 338.719 -0.804268 -3.29218 0
M  V30 3488 C 337.892 -1.96376 -3.90839 0
M  V30 3489 C 336.951 -1.55806 -5.02604 0
M  V30 3490 O 335.977 -2.27203 -5.21888 0
M  V30 3491 N 337.179 -0.461609 -5.78662 0
M  V30 3492 H 339.944 -2.15326 -2.08458 0
M  V30 3493 H 337.505 -1.25971 -1.017 0
M  V30 3494 H 339.497 -0.51501 -4.0141 0
M  V30 3495 H 338.067 0.0668809 -3.12528 0
M  V30 3496 H 337.287 -2.41879 -3.11269 0
M  V30 3497 H 338.575 -2.73966 -4.28742 0
M  V30 3498 H 337.973 0.132343 -5.65545 0
M  V30 3499 H 336.53 -0.232013 -6.51387 0
M  V30 3500 N 339.963 1.05934 -1.16686 0
M  V30 3501 C 341.193 1.82226 -0.973515 0
M  V30 3502 C 341.601 1.8297 0.481532 0
M  V30 3503 O 340.944 1.25009 1.34604 0
M  V30 3504 C 341.006 3.29897 -1.42858 0
M  V30 3505 C 340.67 3.52849 -2.90425 0
M  V30 3506 C 341.667 3.45595 -3.88407 0
M  V30 3507 C 339.352 3.80053 -3.28428 0
M  V30 3508 C 341.346 3.65217 -5.22394 0
M  V30 3509 C 339.033 3.99325 -4.62583 0
M  V30 3510 C 340.031 3.91905 -5.59374 0
M  V30 3511 O 339.719 4.10647 -6.91104 0
M  V30 3512 H 339.451 0.581314 -0.345036 0
M  V30 3513 H 342.005 1.3453 -1.55212 0
M  V30 3514 H 340.235 3.78472 -0.793477 0
M  V30 3515 H 341.924 3.87692 -1.20207 0
M  V30 3516 H 342.69 3.24564 -3.60393 0
M  V30 3517 H 338.569 3.84936 -2.53664 0
M  V30 3518 H 342.113 3.59341 -5.9793 0
M  V30 3519 H 338.01 4.19846 -4.90306 0
M  V30 3520 H 338.778 4.27915 -6.97733 0
M  V30 3521 N 341.441 0.965919 1.2453 0
M  V30 3522 C 342.371 0.513476 2.27784 0
M  V30 3523 C 343.352 -0.445974 1.6415 0
M  V30 3524 O 344.537 -0.342485 1.91156 0
M  V30 3525 C 341.667 -0.198839 3.4673 0
M  V30 3526 C 340.621 0.676456 4.2262 0
M  V30 3527 C 339.947 -0.167248 5.34438 0
M  V30 3528 C 341.247 1.96017 4.84123 0
M  V30 3529 H 342.941 1.3765 2.65881 0
M  V30 3530 H 340.487 0.663321 1.27813 0
M  V30 3531 H 342.44 -0.526567 4.18097 0
M  V30 3532 H 341.164 -1.0962 3.07654 0
M  V30 3533 H 339.823 0.98743 3.53052 0
M  V30 3534 H 339.471 -1.0647 4.91603 0
M  V30 3535 H 339.171 0.415181 5.86131 0
M  V30 3536 H 340.695 -0.489688 6.08633 0
M  V30 3537 H 342.109 1.69814 5.47573 0
M  V30 3538 H 340.506 2.48918 5.4604 0
M  V30 3539 H 341.576 2.65622 4.05676 0
M  V30 3540 N 342.919 -1.39368 0.735821 0
M  V30 3541 C 344.165 -2.00794 0.284544 0
M  V30 3542 C 344.498 -1.58255 -1.12557 0
M  V30 3543 O 343.773 -0.811819 -1.76748 0
M  V30 3544 C 344.056 -3.58011 0.387337 0
M  V30 3545 C 343.909 -4.10566 1.83728 0
M  V30 3546 C 345.228 -4.395 -0.22975 0
M  V30 3547 H 342.347 -0.729501 0.104866 0
M  V30 3548 H 344.989 -1.65564 0.93213 0
M  V30 3549 H 343.139 -3.88154 -0.164006 0
M  V30 3550 H 344.811 -3.91139 2.44556 0
M  V30 3551 H 343.054 -3.64095 2.35833 0
M  V30 3552 H 343.725 -5.19702 1.86047 0
M  V30 3553 H 346.201 -4.15406 0.240257 0
M  V30 3554 H 345.077 -5.48752 -0.127485 0
M  V30 3555 H 345.338 -4.22062 -1.3159 0
M  V30 3556 N 344.397 -0.483516 -1.5 0
M  V30 3557 C 345.646 0.0689102 -2.01582 0
M  V30 3558 C 345.959 1.39655 -1.36952 0
M  V30 3559 O 347.165 2.03465 -1.79762 0
M  V30 3560 C 345.621 0.173302 -3.59483 0
M  V30 3561 C 345.229 -1.14665 -4.33077 0
M  V30 3562 C 346.973 0.677024 -4.19066 0
M  V30 3563 C 344.88 -1.00537 -5.82792 0
M  V30 3564 H 343.81 0.0295277 -0.753422 0
M  V30 3565 H 346.461 -0.620295 -1.72698 0
M  V30 3566 H 344.843 0.926569 -3.85007 0
M  V30 3567 H 346.017 -1.91184 -4.19268 0
M  V30 3568 H 344.332 -1.58244 -3.85159 0
M  V30 3569 H 346.929 0.799952 -5.28682 0
M  V30 3570 H 347.272 1.67151 -3.81269 0
M  V30 3571 H 347.805 -0.0192083 -3.97795 0
M  V30 3572 H 344.544 -1.9736 -6.25083 0
M  V30 3573 H 344.064 -0.280776 -5.99142 0
M  V30 3574 H 345.743 -0.677 -6.43448 0
M  V30 3575 N 345.875 1.56104 -0.216619 0
M  V30 3576 C 346.823 2.21434 0.712036 0
M  V30 3577 C 347.817 1.19218 1.20348 0
M  V30 3578 O 349.023 1.3731 1.16387 0
M  V30 3579 H 345.398 0.70992 0.248026 0
M  V30 3580 H 347.369 2.98083 0.137558 0
M  V30 3581 C 346.118 2.90434 1.91163 0
M  V30 3582 H 345.441 3.68842 1.54258 0
M  V30 3583 H 346.881 3.39552 2.5393 0
M  V30 3584 C 345.34 1.92635 2.76394 0
M  V30 3585 O 345.87 1.44017 3.74996 0
M  V30 3586 N 344.076 1.60392 2.42328 0
M  V30 3587 H 343.623 2.00122 1.622 0
M  V30 3588 H 343.581 0.952159 2.99635 0
M  V30 3589 N 347.353 -0.0568162 1.57498 0
M  V30 3590 C 348.601 -0.751617 1.87604 0
M  V30 3591 C 348.922 -1.77351 0.81066 0
M  V30 3592 O 348.192 -1.95254 -0.159018 0
M  V30 3593 H 346.772 -0.280583 0.692302 0
M  V30 3594 H 349.434 -0.0293483 1.94878 0
M  V30 3595 H 348.53 -1.25852 2.856 0
M  V30 3596 N 348.832 -1.54138 -0.328536 0
M  V30 3597 C 350.078 -1.7236 -1.06865 0
M  V30 3598 C 350.411 -0.493231 -1.87832 0
M  V30 3599 O 349.686 0.5098 -1.877 0
M  V30 3600 C 349.969 -2.99621 -1.99747 0
M  V30 3601 C 349.822 -4.32899 -1.22143 0
M  V30 3602 C 351.141 -3.22615 -2.99345 0
M  V30 3603 H 348.26 -0.627151 -0.387105 0
M  V30 3604 H 350.902 -1.86827 -0.345767 0
M  V30 3605 H 349.052 -2.87418 -2.61387 0
M  V30 3606 H 350.724 -4.56978 -0.630017 0
M  V30 3607 H 348.967 -4.30628 -0.523628 0
M  V30 3608 H 349.638 -5.18154 -1.90318 0
M  V30 3609 H 352.114 -3.34248 -2.47826 0
M  V30 3610 H 350.99 -4.13027 -3.61524 0
M  V30 3611 H 351.251 -2.3961 -3.71536 0
M  V30 3612 N 350.31 0.590341 -1.46126 0
M  V30 3613 C 351.24 1.71032 -1.58966 0
M  V30 3614 C 352.221 1.64302 -0.440335 0
M  V30 3615 O 353.406 1.82436 -0.665634 0
M  V30 3616 C 350.536 3.09665 -1.57241 0
M  V30 3617 C 349.49 3.31221 -2.71066 0
M  V30 3618 C 348.816 4.70303 -2.54399 0
M  V30 3619 C 350.116 3.19796 -4.1295 0
M  V30 3620 H 351.81 1.60543 -2.52718 0
M  V30 3621 H 349.356 0.770933 -1.21625 0
M  V30 3622 H 351.309 3.87831 -1.64819 0
M  V30 3623 H 350.033 3.21036 -0.600289 0
M  V30 3624 H 348.692 2.55452 -2.62944 0
M  V30 3625 H 348.34 4.78429 -1.55288 0
M  V30 3626 H 348.04 4.85679 -3.30741 0
M  V30 3627 H 349.564 5.50647 -2.63857 0
M  V30 3628 H 350.978 3.87815 -4.22223 0
M  V30 3629 H 349.375 3.46696 -4.89818 0
M  V30 3630 H 350.445 2.16983 -4.33643 0
M  V30 3631 N 351.788 1.33704 0.83433 0
M  V30 3632 C 353.199 1.22813 1.4062 0
M  V30 3633 C 353.55 -0.151107 1.95617 0
M  V30 3634 O 352.675 -1.05092 1.89168 0
M  V30 3635 C 353.27 2.22355 2.55624 0
M  V30 3636 C 351.829 2.1529 3.08751 0
M  V30 3637 C 350.976 2.09589 1.8157 0
M  V30 3638 H 353.927 1.45236 0.639702 0
M  V30 3639 H 353.948 1.83391 3.33389 0
M  V30 3640 H 353.46 3.22728 2.15566 0
M  V30 3641 H 351.561 1.18235 3.53343 0
M  V30 3642 H 351.674 3.06038 3.68616 0
M  V30 3643 H 350.038 1.55134 2.02004 0
M  V30 3644 H 350.821 3.11777 1.43701 0
M  V30 3645 N 353.266 -1.05314 1.17247 0
M  V30 3646 C 354.213 -2.13031 0.888058 0
M  V30 3647 C 355.183 -1.65253 -0.167537 0
M  V30 3648 O 356.368 -1.90775 -0.0305974 0
M  V30 3649 C 353.508 -3.42702 0.406147 0
M  V30 3650 C 352.621 -4.04161 1.52572 0
M  V30 3651 C 351.756 -5.21744 0.997808 0
M  V30 3652 C 350.795 -5.75207 2.09291 0
M  V30 3653 N 349.932 -6.84094 1.57986 0
M  V30 3654 H 354.772 -2.36698 1.81048 0
M  V30 3655 H 352.309 -1.16121 0.903013 0
M  V30 3656 H 354.267 -4.17059 0.108305 0
M  V30 3657 H 352.897 -3.19222 -0.479313 0
M  V30 3658 H 351.949 -3.27253 1.93931 0
M  V30 3659 H 353.261 -4.39881 2.35172 0
M  V30 3660 H 352.415 -6.03168 0.653739 0
M  V30 3661 H 351.154 -4.87495 0.141232 0
M  V30 3662 H 350.159 -4.92414 2.44557 0
M  V30 3663 H 351.384 -6.11505 2.95362 0
M  V30 3664 H 349.33 -6.51745 0.74598 0
M  V30 3665 H 349.247 -7.18811 2.34195 0
M  V30 3666 H 350.515 -7.69172 1.26468 0
M  V30 3667 N 354.744 -0.972509 -1.24016 0
M  V30 3668 C 355.972 -0.654803 -1.96265 0
M  V30 3669 C 356.387 0.776708 -1.72083 0
M  V30 3670 O 355.744 1.52171 -1.00748 0
M  V30 3671 C 355.795 -0.92592 -3.49441 0
M  V30 3672 O 355.516 -2.30116 -3.72798 0
M  V30 3673 C 357.017 -0.623068 -4.38899 0
M  V30 3674 H 354.237 -0.243907 -0.6251 0
M  V30 3675 H 356.781 -1.30175 -1.57717 0
M  V30 3676 H 354.936 -0.325108 -3.86033 0
M  V30 3677 H 355.35 -2.38483 -4.67147 0
M  V30 3678 H 356.824 -0.863189 -5.45209 0
M  V30 3679 H 357.301 0.442754 -4.36963 0
M  V30 3680 H 357.907 -1.204 -4.07902 0
M  V30 3681 N 356.222 1.38976 -0.743202 0
M  V30 3682 C 357.132 2.3434 -0.110399 0
M  V30 3683 C 358.148 1.58741 0.712559 0
M  V30 3684 O 359.324 1.9099 0.639125 0
M  V30 3685 C 356.389 3.37812 0.780012 0
M  V30 3686 C 355.45 4.29263 -0.0561319 0
M  V30 3687 C 354.683 5.27793 0.791875 0
M  V30 3688 O 354.906 5.33043 2.03031 0
M  V30 3689 O 353.84 6.01512 0.216183 0
M  V30 3690 H 357.666 2.90129 -0.897714 0
M  V30 3691 H 355.251 1.40643 -0.503966 0
M  V30 3692 H 357.133 4.01194 1.28923 0
M  V30 3693 H 355.808 2.84395 1.546 0
M  V30 3694 H 354.715 3.69076 -0.611056 0
M  V30 3695 H 356.048 4.85907 -0.784531 0
M  V30 3696 N 357.7 0.491464 1.49741 0
M  V30 3697 C 358.663 -0.280906 2.27472 0
M  V30 3698 C 359.663 -0.902454 1.33088 0
M  V30 3699 O 360.853 -0.768465 1.56334 0
M  V30 3700 C 357.985 -1.40209 3.10732 0
M  V30 3701 H 359.178 0.401056 2.97206 0
M  V30 3702 H 356.731 0.246131 1.5435 0
M  V30 3703 H 357.466 -2.11849 2.45541 0
M  V30 3704 H 357.251 -0.961969 3.80117 0
M  V30 3705 H 358.741 -1.9464 3.69466 0
M  V30 3706 N 359.178 -1.55987 0.224894 0
M  V30 3707 C 360.141 -2.19178 -0.670348 0
M  V30 3708 C 361.141 -1.15461 -1.11917 0
M  V30 3709 O 362.331 -1.40675 -1.02743 0
M  V30 3710 C 359.463 -2.81777 -1.9187 0
M  V30 3711 H 360.656 -2.99662 -0.119364 0
M  V30 3712 H 358.209 -1.5628 -0.0247128 0
M  V30 3713 H 358.944 -2.05172 -2.51147 0
M  V30 3714 H 358.729 -3.57732 -1.60531 0
M  V30 3715 H 360.219 -3.30205 -2.55645 0
M  V30 3716 N 360.656 0.0484629 -1.57525 0
M  V30 3717 C 361.604 1.07359 -2.06341 0
M  V30 3718 C 362.598 1.3865 -0.973269 0
M  V30 3719 O 363.804 1.37783 -1.15827 0
M  V30 3720 H 360.179 0.363662 -0.65822 0
M  V30 3721 H 362.15 0.635916 -2.91545 0
M  V30 3722 C 360.899 2.37198 -2.54229 0
M  V30 3723 H 360.222 2.13977 -3.37719 0
M  V30 3724 H 361.662 3.07319 -2.92115 0
M  V30 3725 C 360.121 3.04805 -1.43511 0
M  V30 3726 O 360.651 3.93848 -0.79034 0
M  V30 3727 N 358.857 2.65811 -1.17444 0
M  V30 3728 H 358.404 1.93488 -1.70059 0
M  V30 3729 H 358.362 3.11366 -0.435737 0
M  V30 3730 N 362.134 1.5431 0.320358 0
M  V30 3731 C 363.411 1.63322 1.07635 0
M  V30 3732 C 363.791 0.46912 2.05821 0
M  V30 3733 O 363.139 -0.536274 2.22118 0
M  V30 3734 C 363.349 3.00465 1.77544 0
M  V30 3735 C 364.697 3.56621 2.30449 0
M  V30 3736 O 365.721 3.02791 1.87606 0
M  V30 3737 O 364.58 4.5083 3.08892 0
M  V30 3738 H 361.674 0.661502 0.496331 0
M  V30 3739 H 364.22 1.66656 0.319992 0
M  V30 3740 H 362.992 3.76629 1.06143 0
M  V30 3741 H 362.615 3.00824 2.59982 0
M  V30 3742 N 363.613 -0.582584 1.46437 0
M  V30 3743 C 364.841 -1.36682 1.55324 0
M  V30 3744 C 365.256 -1.87796 0.194409 0
M  V30 3745 O 364.613 -1.63623 -0.808318 0
M  V30 3746 C 364.664 -2.55426 2.55812 0
M  V30 3747 O 364.385 -2.0643 3.86417 0
M  V30 3748 C 365.886 -3.47976 2.74641 0
M  V30 3749 H 363.106 -0.417545 0.525259 0
M  V30 3750 H 365.65 -0.708219 1.91845 0
M  V30 3751 H 363.805 -3.17275 2.22295 0
M  V30 3752 H 364.219 -2.83762 4.41111 0
M  V30 3753 H 365.693 -4.27775 3.48874 0
M  V30 3754 H 366.17 -3.99919 1.81553 0
M  V30 3755 H 366.776 -2.91962 3.09255 0
M  V30 3756 N 365.091 -1.34144 -0.827227 0
M  V30 3757 C 366.021 -1.28005 -1.95287 0
M  V30 3758 C 367.002 -0.158321 -1.69362 0
M  V30 3759 O 368.187 -0.349987 -1.9102 0
M  V30 3760 C 365.317 -1.03036 -3.31664 0
M  V30 3761 C 364.271 -2.11628 -3.72019 0
M  V30 3762 C 363.597 -1.71854 -5.0633 0
M  V30 3763 C 364.897 -3.53417 -3.8457 0
M  V30 3764 H 366.591 -2.22187 -2.00682 0
M  V30 3765 H 364.137 -1.0696 -0.964135 0
M  V30 3766 H 366.09 -0.973863 -4.09993 0
M  V30 3767 H 364.814 -0.0529391 -3.26557 0
M  V30 3768 H 363.473 -2.16339 -2.95961 0
M  V30 3769 H 363.121 -0.727841 -4.97706 0
M  V30 3770 H 362.821 -2.44531 -5.34302 0
M  V30 3771 H 364.345 -1.67692 -5.87122 0
M  V30 3772 H 365.759 -3.51142 -4.5318 0
M  V30 3773 H 364.156 -4.24679 -4.2399 0
M  V30 3774 H 365.226 -3.91072 -2.86689 0
M  V30 3775 N 366.569 1.04691 -1.17803 0
M  V30 3776 C 367.532 2.10724 -0.901545 0
M  V30 3777 C 368.532 1.6042 0.110437 0
M  V30 3778 O 369.722 1.7377 -0.122303 0
M  V30 3779 C 366.854 3.39084 -0.351409 0
M  V30 3780 H 368.047 2.36686 -1.84174 0
M  V30 3781 H 365.6 1.21015 -0.98919 0
M  V30 3782 H 366.335 3.18782 0.59569 0
M  V30 3783 H 366.12 3.76909 -1.08083 0
M  V30 3784 H 367.61 4.17227 -0.176451 0
M  V30 3785 N 368.047 0.979072 1.23499 0
M  V30 3786 C 369.01 0.523244 2.23147 0
M  V30 3787 C 370.01 -0.386406 1.56088 0
M  V30 3788 O 371.2 -0.180283 1.73265 0
M  V30 3789 C 368.332 -0.240739 3.40049 0
M  V30 3790 H 369.525 1.40432 2.64989 0
M  V30 3791 H 367.078 0.764824 1.36309 0
M  V30 3792 H 367.813 -1.13841 3.03662 0
M  V30 3793 H 367.598 0.412207 3.89927 0
M  V30 3794 H 369.088 -0.548297 4.13985 0
M  V30 3795 N 369.525 -1.3858 0.750561 0
M  V30 3796 C 370.488 -2.28836 0.129152 0
M  V30 3797 C 371.488 -1.47045 -0.650714 0
M  V30 3798 O 372.678 -1.6753 -0.477428 0
M  V30 3799 C 369.81 -3.30751 -0.825622 0
M  V30 3800 H 371.003 -2.85294 0.924516 0
M  V30 3801 H 368.556 -1.47489 0.517376 0
M  V30 3802 H 369.291 -2.79378 -1.64677 0
M  V30 3803 H 369.076 -3.91177 -0.268852 0
M  V30 3804 H 370.566 -3.98249 -1.2565 0
M  V30 3805 N 371.003 -0.499398 -1.49478 0
M  V30 3806 C 372.252 0.0475259 -2.01644 0
M  V30 3807 C 372.565 1.38195 -1.38425 0
M  V30 3808 O 373.771 2.01547 -1.8191 0
M  V30 3809 C 372.227 0.135164 -3.59646 0
M  V30 3810 C 371.835 -1.19252 -4.31837 0
M  V30 3811 C 373.579 0.632538 -4.19761 0
M  V30 3812 C 371.486 -1.06713 -5.81693 0
M  V30 3813 H 370.416 0.0215349 -0.753692 0
M  V30 3814 H 373.067 -0.638577 -1.7203 0
M  V30 3815 H 371.449 0.885681 -3.85969 0
M  V30 3816 H 372.623 -1.9562 -4.17216 0
M  V30 3817 H 370.938 -1.62321 -3.83459 0
M  V30 3818 H 373.535 0.743833 -5.29501 0
M  V30 3819 H 373.878 1.63098 -3.83021 0
M  V30 3820 H 374.411 -0.0613987 -3.97753 0
M  V30 3821 H 371.15 -2.03979 -6.22955 0
M  V30 3822 H 370.67 -0.344307 -5.98811 0
M  V30 3823 H 372.349 -0.745208 -6.42694 0
M  V30 3824 N 372.481 1.55866 -0.233164 0
M  V30 3825 C 373.727 1.99643 0.389148 0
M  V30 3826 C 374.082 1.11836 1.56558 0
M  V30 3827 O 373.375 0.170848 1.90837 0
M  V30 3828 C 373.569 3.46856 0.861724 0
M  V30 3829 C 373.398 4.48904 -0.267376 0
M  V30 3830 C 372.168 4.99888 -0.737577 0
M  V30 3831 C 374.366 5.02624 -1.08966 0
M  V30 3832 N 372.348 5.8566 -1.84052 0
M  V30 3833 C 373.719 5.85434 -2.04125 0
M  V30 3834 C 375.774 4.84959 -1.12779 0
M  V30 3835 C 374.477 6.52466 -3.02789 0
M  V30 3836 C 376.503 5.52759 -2.10266 0
M  V30 3837 C 375.865 6.35346 -3.04162 0
M  V30 3838 H 371.964 0.774402 0.108742 0
M  V30 3839 H 374.548 1.91572 -0.347596 0
M  V30 3840 H 372.719 3.55352 1.5678 0
M  V30 3841 H 374.451 3.77531 1.45783 0
M  V30 3842 H 371.206 4.7249 -0.324122 0
M  V30 3843 H 371.63 6.33246 -2.39434 0
M  V30 3844 H 376.272 4.20751 -0.415749 0
M  V30 3845 H 373.99 7.15849 -3.74948 0
M  V30 3846 H 377.576 5.41051 -2.13905 0
M  V30 3847 H 376.456 6.86883 -3.78366 0
M  V30 3848 N 373.959 -0.0401083 1.57549 0
M  V30 3849 C 374.869 -1.06133 2.0922 0
M  V30 3850 C 375.885 -1.40356 1.0284 0
M  V30 3851 O 377.061 -1.49897 1.34509 0
M  V30 3852 C 374.126 -2.34658 2.55218 0
M  V30 3853 C 373.187 -2.07117 3.76033 0
M  V30 3854 C 372.42 -3.29514 4.19829 0
M  V30 3855 O 372.643 -4.39794 3.63232 0
M  V30 3856 O 371.577 -3.15863 5.12362 0
M  V30 3857 H 375.403 -0.652244 2.96613 0
M  V30 3858 H 372.988 -0.256368 1.47184 0
M  V30 3859 H 374.87 -3.10239 2.85184 0
M  V30 3860 H 373.545 -2.74883 1.70941 0
M  V30 3861 H 372.452 -1.29139 3.51104 0
M  V30 3862 H 373.785 -1.71754 4.61261 0
M  V30 3863 N 375.437 -1.54477 -0.31217 0
M  V30 3864 C 376.853 -1.45442 -0.657185 0
M  V30 3865 C 377.053 -0.63653 -1.91182 0
M  V30 3866 O 376.109 -0.139815 -2.52113 0
M  V30 3867 C 377.422 -2.89287 -0.82058 0
M  V30 3868 C 378.97 -2.9926 -0.917188 0
M  V30 3869 C 379.445 -4.44279 -1.11267 0
M  V30 3870 N 380.936 -4.4794 -1.17914 0
M  V30 3871 C 381.671 -5.57318 -1.34848 0
M  V30 3872 N 381.167 -6.76642 -1.48752 0
M  V30 3873 N 382.96 -5.44986 -1.37647 0
M  V30 3874 H 375.111 -2.06129 0.512313 0
M  V30 3875 H 377.374 -0.933088 0.167485 0
M  V30 3876 H 377.08 -3.51687 0.0302604 0
M  V30 3877 H 376.954 -3.36061 -1.71298 0
M  V30 3878 H 379.341 -2.36981 -1.75852 0
M  V30 3879 H 379.422 -2.558 -0.00101257 0
M  V30 3880 H 379.066 -5.07149 -0.27614 0
M  V30 3881 H 378.996 -4.85359 -2.04289 0
M  V30 3882 H 381.487 -3.61969 -1.08567 0
M  V30 3883 H 381.8 -7.55758 -1.61397 0
M  V30 3884 H 380.145 -6.79529 -1.45828 0
M  V30 3885 H 383.336 -4.50715 -1.26388 0
M  V30 3886 H 383.509 -6.3028 -1.50501 0
M  V30 3887 N 376.915 0.57481 -1.46744 0
M  V30 3888 C 377.825 1.711 -1.60505 0
M  V30 3889 C 378.841 1.67008 -0.488307 0
M  V30 3890 O 380.017 1.86774 -0.753495 0
M  V30 3891 C 377.082 3.07608 -1.59932 0
M  V30 3892 C 376.143 3.22904 -2.82898 0
M  V30 3893 C 375.376 4.529 -2.82343 0
M  V30 3894 O 375.599 5.37278 -1.91542 0
M  V30 3895 O 374.533 4.71611 -3.73987 0
M  V30 3896 H 378.359 1.62436 -2.56609 0
M  V30 3897 H 375.944 0.742779 -1.29627 0
M  V30 3898 H 377.826 3.88877 -1.62336 0
M  V30 3899 H 376.501 3.16692 -0.669898 0
M  V30 3900 H 375.408 2.41099 -2.86046 0
M  V30 3901 H 376.741 3.18715 -3.75076 0
M  V30 3902 N 378.394 1.34581 0.820102 0
M  V30 3903 C 379.326 1.22236 1.93884 0
M  V30 3904 C 380.339 0.148776 1.62119 0
M  V30 3905 O 381.528 0.400877 1.7394 0
M  V30 3906 C 378.628 0.856542 3.27897 0
M  V30 3907 C 377.801 2.02569 3.87666 0
M  V30 3908 C 376.86 1.63782 5.00062 0
M  V30 3909 O 375.886 2.35477 5.18208 0
M  V30 3910 N 377.088 0.553611 5.77854 0
M  V30 3911 H 379.853 2.18615 2.05006 0
M  V30 3912 H 377.414 1.27573 0.99683 0
M  V30 3913 H 379.406 0.578806 4.0054 0
M  V30 3914 H 377.976 -0.0171518 3.12595 0
M  V30 3915 H 377.196 2.468 3.07382 0
M  V30 3916 H 378.484 2.80752 4.24329 0
M  V30 3917 H 377.882 -0.0423528 5.65684 0
M  V30 3918 H 376.439 0.335614 6.50935 0
M  V30 3919 N 379.872 -1.04064 1.18357 0
M  V30 3920 C 380.782 -2.15569 0.925596 0
M  V30 3921 C 381.798 -1.7365 -0.110295 0
M  V30 3922 O 382.974 -2.01273 0.0716218 0
M  V30 3923 C 380.039 -3.43704 0.454836 0
M  V30 3924 C 379.1 -4.00004 1.55869 0
M  V30 3925 C 378.333 -5.22023 1.1103 0
M  V30 3926 O 378.556 -5.70392 -0.0309756 0
M  V30 3927 O 377.49 -5.70856 1.90805 0
M  V30 3928 H 381.316 -2.40187 1.8586 0
M  V30 3929 H 378.901 -1.1402 0.965394 0
M  V30 3930 H 380.783 -4.20923 0.200382 0
M  V30 3931 H 379.458 -3.20559 -0.449876 0
M  V30 3932 H 378.365 -3.24172 1.86716 0
M  V30 3933 H 379.698 -4.2749 2.43953 0
M  V30 3934 N 381.35 -0.985608 -1.22978 0
M  V30 3935 C 382.313 -0.535071 -2.22867 0
M  V30 3936 C 383.313 0.378123 -1.56291 0
M  V30 3937 O 384.503 0.171092 -1.73358 0
M  V30 3938 C 381.635 0.222702 -3.40172 0
M  V30 3939 H 382.828 -1.41835 -2.6424 0
M  V30 3940 H 380.381 -0.772042 -1.35901 0
M  V30 3941 H 381.116 1.12229 -3.04262 0
M  V30 3942 H 380.901 -0.43288 -3.89703 0
M  V30 3943 H 382.391 0.526335 -4.1427 0
M  V30 3944 N 382.828 1.3818 -0.7579 0
M  V30 3945 C 383.758 2.33027 -0.148597 0
M  V30 3946 C 384.739 1.55085 0.69875 0
M  V30 3947 O 385.924 1.83384 0.639053 0
M  V30 3948 C 383.054 3.3928 0.742034 0
M  V30 3949 C 382.008 4.28 -0.00291946 0
M  V30 3950 C 381.334 5.25146 1.00625 0
M  V30 3951 C 382.634 5.08938 -1.17385 0
M  V30 3952 H 384.328 2.84231 -0.940909 0
M  V30 3953 H 381.874 1.36659 -0.453908 0
M  V30 3954 H 383.827 4.046 1.17799 0
M  V30 3955 H 382.551 2.86569 1.56671 0
M  V30 3956 H 381.21 3.64192 -0.419504 0
M  V30 3957 H 380.858 4.68721 1.8251 0
M  V30 3958 H 380.558 5.85361 0.512428 0
M  V30 3959 H 382.082 5.93342 1.44143 0
M  V30 3960 H 383.496 5.67474 -0.815224 0
M  V30 3961 H 381.893 5.7841 -1.59882 0
M  V30 3962 H 382.963 4.42424 -1.98468 0
M  V30 3963 N 384.306 0.507319 1.49211 0
M  V30 3964 C 385.269 -0.256763 2.27757 0
M  V30 3965 C 386.269 -0.888287 1.34038 0
M  V30 3966 O 387.459 -0.751841 1.5714 0
M  V30 3967 C 384.591 -1.36905 3.12202 0
M  V30 3968 H 385.784 0.432557 2.96764 0
M  V30 3969 H 383.337 0.262488 1.5408 0
M  V30 3970 H 384.072 -2.09233 2.47775 0
M  V30 3971 H 383.857 -0.921599 3.81115 0
M  V30 3972 H 385.347 -1.9071 3.7151 0
M  V30 3973 N 385.784 -1.5574 0.241426 0
M  V30 3974 C 386.732 -2.22538 -0.676718 0
M  V30 3975 C 387.726 -1.21117 -1.18436 0
M  V30 3976 O 388.932 -1.39144 -1.14188 0
M  V30 3977 H 385.307 -0.713776 -0.236701 0
M  V30 3978 H 387.278 -2.98264 -0.0901187 0
M  V30 3979 C 386.027 -2.93439 -1.86518 0
M  V30 3980 H 385.35 -3.7125 -1.4837 0
M  V30 3981 H 386.79 -3.43549 -2.48495 0
M  V30 3982 C 385.249 -1.97008 -2.73294 0
M  V30 3983 O 385.779 -1.49965 -3.72657 0
M  V30 3984 N 383.985 -1.64227 -2.39745 0
M  V30 3985 H 383.532 -2.02677 -1.58996 0
M  V30 3986 H 383.49 -0.999708 -2.98083 0
M  V30 3987 N 387.262 0.0317525 -1.57568 0
M  V30 3988 C 388.192 1.03274 -2.0942 0
M  V30 3989 C 389.173 1.3788 -0.996143 0
M  V30 3990 O 390.358 1.46811 -1.27122 0
M  V30 3991 C 387.488 2.33448 -2.57137 0
M  V30 3992 C 386.442 2.13091 -3.71182 0
M  V30 3993 C 385.768 3.49001 -4.05095 0
M  V30 3994 C 387.068 1.51928 -4.99715 0
M  V30 3995 H 388.762 0.60112 -2.93303 0
M  V30 3996 H 386.308 0.287705 -1.41097 0
M  V30 3997 H 388.261 3.03802 -2.92032 0
M  V30 3998 H 386.985 2.78665 -1.70333 0
M  V30 3999 H 385.644 1.45171 -3.36632 0
M  V30 4000 H 385.292 3.91862 -3.15362 0
M  V30 4001 H 384.992 3.36207 -4.81911 0
M  V30 4002 H 386.516 4.20721 -4.42522 0
M  V30 4003 H 387.93 2.12196 -5.32584 0
M  V30 4004 H 386.327 1.49716 -5.81124 0
M  V30 4005 H 387.397 0.484811 -4.8247 0
M  V30 4006 N 388.74 1.54641 0.303973 0
M  V30 4007 C 390.151 1.64811 0.877163 0
M  V30 4008 C 390.502 0.554838 1.88191 0
M  V30 4009 O 389.627 -0.309033 2.14182 0
M  V30 4010 C 390.222 2.9876 1.59775 0
M  V30 4011 C 388.781 3.11061 2.11938 0
M  V30 4012 C 387.928 2.60479 0.951097 0
M  V30 4013 H 390.879 1.58493 0.0810486 0
M  V30 4014 H 390.9 2.90017 2.46314 0
M  V30 4015 H 390.412 3.7831 0.866226 0
M  V30 4016 H 388.513 2.36225 2.88146 0
M  V30 4017 H 388.626 4.17171 2.35595 0
M  V30 4018 H 386.99 2.16859 1.33583 0
M  V30 4019 H 387.773 3.42504 0.233581 0
M  V30 4020 N 390.218 -0.567019 1.47046 0
M  V30 4021 C 391.181 -1.65696 1.58359 0
M  V30 4022 C 392.181 -1.54097 0.459441 0
M  V30 4023 O 393.371 -1.58432 0.724225 0
M  V30 4024 C 390.503 -3.05197 1.51879 0
M  V30 4025 H 391.696 -1.57019 2.5551 0
M  V30 4026 H 389.249 -0.786148 1.3509 0
M  V30 4027 H 389.984 -3.19417 0.560673 0
M  V30 4028 H 389.769 -3.15025 2.33455 0
M  V30 4029 H 391.259 -3.84511 1.62913 0
M  V30 4030 N 391.696 -1.35014 -0.812953 0
M  V30 4031 C 392.973 -1.18502 -1.55617 0
M  V30 4032 C 393.353 0.238421 -2.09749 0
M  V30 4033 O 392.701 1.2411 -1.91857 0
M  V30 4034 C 392.911 -2.24783 -2.66971 0
M  V30 4035 C 394.259 -2.60268 -3.35478 0
M  V30 4036 O 395.283 -2.23648 -2.77236 0
M  V30 4037 O 394.142 -3.2321 -4.40678 0
M  V30 4038 H 391.236 -0.459984 -0.687272 0
M  V30 4039 H 393.782 -1.46677 -0.853464 0
M  V30 4040 H 392.554 -3.20284 -2.24798 0
M  V30 4041 H 392.177 -1.97841 -3.44884 0
M  V30 4042 N 393.175 1.03435 -1.18907 0
M  V30 4043 C 394.105 2.13503 -0.945448 0
M  V30 4044 C 395.086 1.69682 0.119189 0
M  V30 4045 O 396.271 1.94169 -0.034707 0
M  V30 4046 C 393.401 3.44004 -0.477316 0
M  V30 4047 C 392.355 4.0148 -1.48316 0
M  V30 4048 C 391.681 5.27537 -0.872311 0
M  V30 4049 C 392.981 4.36921 -2.86177 0
M  V30 4050 H 394.675 2.34141 -1.86597 0
M  V30 4051 H 392.221 1.12523 -0.898584 0
M  V30 4052 H 394.174 4.20372 -0.294204 0
M  V30 4053 H 392.898 3.23072 0.478786 0
M  V30 4054 H 391.557 3.27201 -1.65332 0
M  V30 4055 H 391.205 5.02917 0.0911752 0
M  V30 4056 H 390.905 5.66954 -1.54393 0
M  V30 4057 H 392.429 6.06576 -0.699871 0
M  V30 4058 H 393.843 5.04248 -2.72776 0
M  V30 4059 H 392.24 4.87405 -3.50081 0
M  V30 4060 H 393.31 3.46466 -3.39248 0
M  V30 4061 N 394.653 0.992116 1.22453 0
M  V30 4062 C 395.616 0.546883 2.2258 0
M  V30 4063 C 396.616 -0.369829 1.56489 0
M  V30 4064 O 397.806 -0.161896 1.73446 0
M  V30 4065 C 394.938 -0.204659 3.40285 0
M  V30 4066 H 396.131 1.43234 2.63484 0
M  V30 4067 H 393.684 0.779239 1.3549 0
M  V30 4068 H 394.419 -1.10614 3.04853 0
M  V30 4069 H 394.204 0.45354 3.89468 0
M  V30 4070 H 395.694 -0.504358 4.14543 0
M  V30 4071 N 396.131 -1.37776 0.765217 0
M  V30 4072 C 397.379 -1.99454 0.325943 0
M  V30 4073 C 397.7 -1.61049 -1.09947 0
M  V30 4074 O 396.97 -0.872821 -1.75381 0
M  V30 4075 H 395.55 -0.737697 0.117525 0
M  V30 4076 H 398.212 -1.68359 0.981895 0
M  V30 4077 H 397.308 -3.09547 0.398353 0
M  V30 4078 N 397.609 -0.515225 -1.4894 0
M  V30 4079 C 398.539 0.244628 -2.32215 0
M  V30 4080 C 399.52 0.949136 -1.41157 0
M  V30 4081 O 400.705 0.937783 -1.70057 0
M  V30 4082 C 397.835 1.30096 -3.22013 0
M  V30 4083 C 396.789 0.715486 -4.21977 0
M  V30 4084 C 396.115 1.87339 -5.00808 0
M  V30 4085 C 397.415 -0.302982 -5.2142 0
M  V30 4086 H 399.109 -0.450501 -2.95991 0
M  V30 4087 H 396.655 -0.218098 -1.42339 0
M  V30 4088 H 398.608 1.84037 -3.79089 0
M  V30 4089 H 397.332 2.02547 -2.56207 0
M  V30 4090 H 395.991 0.197715 -3.66066 0
M  V30 4091 H 395.639 2.58592 -4.31438 0
M  V30 4092 H 395.339 1.48764 -5.68457 0
M  V30 4093 H 396.863 2.41686 -5.60732 0
M  V30 4094 H 398.277 0.148802 -5.73107 0
M  V30 4095 H 396.674 -0.60532 -5.97039 0
M  V30 4096 H 397.744 -1.21395 -4.69459 0
M  V30 4097 N 399.087 1.5561 -0.249682 0
M  V30 4098 C 400.498 1.84979 0.252949 0
M  V30 4099 C 400.849 1.17153 1.57384 0
M  V30 4100 O 399.974 0.450884 2.11651 0
M  V30 4101 C 400.569 3.35584 0.465732 0
M  V30 4102 C 399.128 3.65169 0.912624 0
M  V30 4103 C 398.275 2.77299 -0.00859085 0
M  V30 4104 H 401.226 1.51513 -0.47217 0
M  V30 4105 H 401.247 3.57313 1.30795 0
M  V30 4106 H 400.759 3.8492 -0.49579 0
M  V30 4107 H 398.86 3.21312 1.88652 0
M  V30 4108 H 398.973 4.72912 0.767559 0
M  V30 4109 H 397.337 2.49678 0.50327 0
M  V30 4110 H 398.12 3.29442 -0.965537 0
M  V30 4111 N 400.565 -0.0233959 1.57583 0
M  V30 4112 C 401.793 -0.724682 1.93794 0
M  V30 4113 C 402.208 -1.68588 0.849912 0
M  V30 4114 O 401.565 -1.81676 -0.173204 0
M  V30 4115 C 401.616 -1.47684 3.29957 0
M  V30 4116 O 401.337 -0.554222 4.3458 0
M  V30 4117 C 402.838 -2.27477 3.80485 0
M  V30 4118 H 400.058 -0.203317 0.639455 0
M  V30 4119 H 402.602 0.0207653 2.04489 0
M  V30 4120 H 400.757 -2.17412 3.20641 0
M  V30 4121 H 401.171 -1.08232 5.13212 0
M  V30 4122 H 402.645 -2.7564 4.78254 0
M  V30 4123 H 403.122 -3.09144 3.11972 0
M  V30 4124 H 403.728 -1.62813 3.92902 0
M  V30 4125 N 402.043 -1.548 -0.295768 0
M  V30 4126 C 403.32 -1.65014 -1.05023 0
M  V30 4127 C 403.7 -0.501805 -2.05049 0
M  V30 4128 O 403.048 0.500869 -2.22943 0
M  V30 4129 C 403.258 -3.03252 -1.72741 0
M  V30 4130 C 404.606 -3.60242 -2.24746 0
M  V30 4131 O 405.63 -3.05737 -1.82765 0
M  V30 4132 O 404.489 -4.55687 -3.01681 0
M  V30 4133 H 401.583 -0.669314 -0.485744 0
M  V30 4134 H 404.129 -1.67144 -0.293438 0
M  V30 4135 H 402.901 -3.7827 -1.00138 0
M  V30 4136 H 402.524 -3.04922 -2.55163 0
M  V30 4137 N 403.521 0.559213 -1.47345 0
M  V30 4138 C 404.749 1.34194 -1.57479 0
M  V30 4139 C 405.164 1.87463 -0.224261 0
M  V30 4140 O 404.521 1.64888 0.782185 0
M  V30 4141 C 404.572 2.51324 -2.59843 0
M  V30 4142 O 404.293 2.00256 -3.89653 0
M  V30 4143 C 405.794 3.43563 -2.80142 0
M  V30 4144 H 403.014 0.409136 -0.531835 0
M  V30 4145 H 405.558 0.677609 -1.92947 0
M  V30 4146 H 403.713 3.13699 -2.27314 0
M  V30 4147 H 404.127 2.76708 -4.4557 0
M  V30 4148 H 405.601 4.2217 -3.55635 0
M  V30 4149 H 406.078 3.9698 -1.87892 0
M  V30 4150 H 406.684 2.87005 -3.1386 0
M  V30 4151 N 404.999 1.35443 0.805782 0
M  V30 4152 C 405.929 1.31095 1.93226 0
M  V30 4153 C 406.91 0.185244 1.69088 0
M  V30 4154 O 408.095 0.380332 1.90439 0
M  V30 4155 C 405.225 1.08299 3.29983 0
M  V30 4156 C 404.179 2.17519 3.68605 0
M  V30 4157 C 403.505 1.79887 5.03532 0
M  V30 4158 C 404.805 3.5949 3.78898 0
M  V30 4159 H 406.499 2.25352 1.97122 0
M  V30 4160 H 404.045 1.0848 0.946996 0
M  V30 4161 H 405.998 1.03897 4.08391 0
M  V30 4162 H 404.722 0.104885 3.26432 0
M  V30 4163 H 403.381 2.2102 2.92482 0
M  V30 4164 H 403.029 0.80693 4.96485 0
M  V30 4165 H 402.729 2.53001 5.30344 0
M  V30 4166 H 404.253 1.77011 5.84379 0
M  V30 4167 H 405.667 3.58307 4.47536 0
M  V30 4168 H 404.064 4.31371 4.1718 0
M  V30 4169 H 405.134 3.95584 2.80431 0
M  V30 4170 N 406.477 -1.02803 1.19454 0
M  V30 4171 C 407.724 -1.76217 0.997693 0
M  V30 4172 C 408.052 -1.887 -0.47144 0
M  V30 4173 O 407.307 -1.4011 -1.3663 0
M  V30 4174 C 407.606 -3.18941 1.6128 0
M  V30 4175 C 407.272 -3.26463 3.11019 0
M  V30 4176 C 405.934 -3.28223 3.51885 0
M  V30 4177 C 408.286 -3.25542 4.07028 0
M  V30 4178 C 405.614 -3.26719 4.8731 0
M  V30 4179 C 407.966 -3.25579 5.42385 0
M  V30 4180 C 406.63 -3.25637 5.82681 0
M  V30 4181 H 405.9 -0.644823 0.365082 0
M  V30 4182 H 408.547 -1.20655 1.4871 0
M  V30 4183 H 406.852 -3.77587 1.04572 0
M  V30 4184 H 408.549 -3.74415 1.43577 0
M  V30 4185 H 405.139 -3.25822 2.78457 0
M  V30 4186 H 409.323 -3.23362 3.76498 0
M  V30 4187 H 404.579 -3.25089 5.1781 0
M  V30 4188 H 408.753 -3.23817 6.16535 0
M  V30 4189 H 406.38 -3.24226 6.87591 0
M  V30 4190 N 407.956 -0.998596 -1.21925 0
M  V30 4191 C 408.886 -0.573688 -2.26343 0
M  V30 4192 C 409.867 0.402296 -1.65274 0
M  V30 4193 O 411.052 0.291683 -1.91997 0
M  V30 4194 C 408.182 0.106839 -3.47136 0
M  V30 4195 C 407.136 -0.788269 -4.20678 0
M  V30 4196 C 406.462 0.0254927 -5.34694 0
M  V30 4197 C 407.762 -2.08784 -4.78755 0
M  V30 4198 H 409.456 -1.44651 -2.62138 0
M  V30 4199 H 407.002 -0.696975 -1.26009 0
M  V30 4200 H 408.955 0.415531 -4.19346 0
M  V30 4201 H 407.679 1.01424 -3.10452 0
M  V30 4202 H 406.338 -1.08069 -3.50309 0
M  V30 4203 H 405.986 0.933989 -4.94253 0
M  V30 4204 H 405.686 -0.570437 -5.84825 0
M  V30 4205 H 407.21 0.328147 -6.09718 0
M  V30 4206 H 408.624 -1.84272 -5.42878 0
M  V30 4207 H 407.021 -2.63307 -5.39249 0
M  V30 4208 H 408.091 -2.76284 -3.98491 0
M  V30 4209 N 409.434 1.37368 -0.772513 0
M  V30 4210 C 410.366 2.28899 -0.117502 0
M  V30 4211 C 411.379 1.4867 0.663405 0
M  V30 4212 O 412.568 1.71314 0.501372 0
M  V30 4213 C 409.668 3.2788 0.857192 0
M  V30 4214 C 408.841 4.37207 0.129938 0
M  V30 4215 C 407.9 5.16257 1.01811 0
M  V30 4216 O 406.926 5.67159 0.481601 0
M  V30 4217 N 408.128 5.31058 2.3443 0
M  V30 4218 H 410.893 2.85752 -0.903662 0
M  V30 4219 H 408.454 1.49353 -0.62493 0
M  V30 4220 H 410.446 3.77647 1.45482 0
M  V30 4221 H 409.016 2.7179 1.54432 0
M  V30 4222 H 408.236 3.88827 -0.648605 0
M  V30 4223 H 409.524 5.07434 -0.372559 0
M  V30 4224 H 408.922 4.91287 2.80452 0
M  V30 4225 H 407.479 5.84131 2.89197 0
M  V30 4226 N 410.912 0.523116 1.48665 0
M  V30 4227 C 412.323 0.0808997 1.86525 0
M  V30 4228 C 412.674 -1.33975 1.43336 0
M  V30 4229 O 411.799 -2.00221 0.821009 0
M  V30 4230 C 412.394 0.140037 3.3851 0
M  V30 4231 C 410.953 -0.246948 3.75589 0
M  V30 4232 C 410.1 0.502845 2.72703 0
M  V30 4233 H 413.051 0.734736 1.40667 0
M  V30 4234 H 413.072 -0.649945 3.74908 0
M  V30 4235 H 412.584 1.17412 3.69914 0
M  V30 4236 H 410.685 -1.28343 3.49798 0
M  V30 4237 H 410.798 0.0878859 4.79019 0
M  V30 4238 H 409.162 -0.0500581 2.54651 0
M  V30 4239 H 409.945 1.53743 3.0695 0
M  V30 4240 N 412.39 -1.55475 0.257931 0
M  V30 4241 C 413.636 -1.99502 -0.364266 0
M  V30 4242 C 413.969 -1.146 -1.56782 0
M  V30 4243 O 413.244 -0.211968 -1.93342 0
M  V30 4244 C 413.527 -3.51917 -0.763333 0
M  V30 4245 C 413.38 -4.4758 0.446371 0
M  V30 4246 C 414.699 -4.09742 -1.60623 0
M  V30 4247 H 411.818 -0.725277 -0.130929 0
M  V30 4248 H 414.46 -1.8653 0.361446 0
M  V30 4249 H 412.61 -3.63101 -1.38166 0
M  V30 4250 H 414.282 -4.48362 1.08487 0
M  V30 4251 H 412.525 -4.19947 1.08753 0
M  V30 4252 H 413.196 -5.51862 0.123645 0
M  V30 4253 H 415.672 -4.01727 -1.08418 0
M  V30 4254 H 414.548 -5.16631 -1.85429 0
M  V30 4255 H 414.809 -3.58889 -2.58169 0
M  V30 4256 N 413.868 0.0150385 -1.57593 0
M  V30 4257 C 414.816 1.02958 -2.08572 0
M  V30 4258 C 415.81 1.36554 -1.00246 0
M  V30 4259 O 417.016 1.35295 -1.18724 0
M  V30 4260 H 413.391 0.349619 -0.665786 0
M  V30 4261 H 415.362 0.573932 -2.92829 0
M  V30 4262 C 414.111 2.31752 -2.59203 0
M  V30 4263 H 413.434 2.06765 -3.42182 0
M  V30 4264 H 414.874 3.01053 -2.98568 0
M  V30 4265 C 413.333 3.01692 -1.49945 0
M  V30 4266 O 413.863 3.92083 -0.873704 0
M  V30 4267 N 412.069 2.6326 -1.23056 0
M  V30 4268 H 411.616 1.89838 -1.74125 0
M  V30 4269 H 411.574 3.10372 -0.501685 0
M  V30 4270 N 415.346 1.54954 0.287554 0
M  V30 4271 C 416.279 1.81737 1.3801 0
M  V30 4272 C 417.257 0.669412 1.48181 0
M  V30 4273 O 418.441 0.910839 1.65033 0
M  V30 4274 C 415.568 1.96606 2.75796 0
M  V30 4275 C 414.614 3.19098 2.82982 0
M  V30 4276 S 415.447 4.7683 2.43707 0
M  V30 4277 C 416.603 4.94653 3.83496 0
M  V30 4278 H 416.836 2.74122 1.15085 0
M  V30 4279 H 414.369 1.46538 0.486403 0
M  V30 4280 H 416.327 2.05858 3.55152 0
M  V30 4281 H 414.988 1.05136 2.95982 0
M  V30 4282 H 414.181 3.26344 3.84077 0
M  V30 4283 H 413.783 3.08361 2.11635 0
M  V30 4284 H 416.075 4.79502 4.78628 0
M  V30 4285 H 417.018 5.96728 3.8121 0
M  V30 4286 H 417.426 4.2272 3.74123 0
M  V30 4287 N 416.824 -0.551391 1.4764 0
M  V30 4288 C 418.07 -1.31024 1.54792 0
M  V30 4289 C 418.403 -1.9304 0.211967 0
M  V30 4290 O 417.678 -1.78175 -0.77999 0
M  V30 4291 C 417.961 -2.41593 2.67029 0
M  V30 4292 C 417.814 -1.84408 4.10261 0
M  V30 4293 C 419.133 -3.43488 2.75143 0
M  V30 4294 H 416.252 -0.475031 0.563485 0
M  V30 4295 H 418.894 -0.616454 1.79722 0
M  V30 4296 H 417.044 -3.00772 2.45904 0
M  V30 4297 H 418.716 -1.29445 4.42766 0
M  V30 4298 H 416.959 -1.15051 4.18265 0
M  V30 4299 H 417.63 -2.64367 4.84576 0
M  V30 4300 H 420.106 -2.94236 2.94218 0
M  V30 4301 H 418.982 -4.18274 3.55441 0
M  V30 4302 H 419.243 -4.02703 1.82435 0
M  V30 4303 N 418.302 -1.35869 -0.798587 0
M  V30 4304 C 419.55 -1.29332 -1.55298 0
M  V30 4305 C 419.871 0.129729 -1.94568 0
M  V30 4306 O 419.141 1.06796 -1.6423 0
M  V30 4307 H 417.721 -0.475737 -0.57592 0
M  V30 4308 H 420.383 -1.70062 -0.952093 0
M  V30 4309 H 419.479 -1.91458 -2.46476 0
M  V30 4310 N 419.78 1.02168 -1.19998 0
M  V30 4311 C 421.026 1.75945 -1.00852 0
M  V30 4312 C 421.359 1.88702 0.458828 0
M  V30 4313 O 420.634 1.40911 1.34069 0
M  V30 4314 C 420.917 3.18154 -1.68671 0
M  V30 4315 C 420.77 3.13224 -3.22817 0
M  V30 4316 C 422.089 4.16711 -1.41561 0
M  V30 4317 H 419.208 0.638673 -0.367785 0
M  V30 4318 H 421.85 1.19222 -1.4794 0
M  V30 4319 H 420 3.66586 -1.28636 0
M  V30 4320 H 421.672 2.72635 -3.72112 0
M  V30 4321 H 419.915 2.50751 -3.53986 0
M  V30 4322 H 420.586 4.13728 -3.65422 0
M  V30 4323 H 423.062 3.76913 -1.76284 0
M  V30 4324 H 421.938 5.14391 -1.91553 0
M  V30 4325 H 422.199 4.40774 -0.342193 0
M  V30 4326 N 421.258 1.00505 1.21394 0
M  V30 4327 C 422.483 0.706367 1.95001 0
M  V30 4328 C 422.908 -0.72463 1.73582 0
M  V30 4329 O 422.266 -1.49702 1.0227 0
M  V30 4330 C 422.314 1.03299 3.45487 0
M  V30 4331 O 421.418 0.138275 4.12168 0
M  V30 4332 H 420.759 0.263175 0.609619 0
M  V30 4333 H 423.289 1.34531 1.54151 0
M  V30 4334 H 423.299 0.979872 3.96059 0
M  V30 4335 H 421.974 2.07567 3.60401 0
M  V30 4336 H 420.551 0.247928 3.72075 0
M  V30 4337 N 422.737 -1.36956 0.779787 0
M  V30 4338 C 423.7 -2.2851 0.177662 0
M  V30 4339 C 424.7 -1.48393 -0.619377 0
M  V30 4340 O 425.89 -1.68505 -0.441785 0
M  V30 4341 C 423.022 -3.32428 -0.755279 0
M  V30 4342 H 424.215 -2.83269 0.984823 0
M  V30 4343 H 421.768 -1.46358 0.548544 0
M  V30 4344 H 422.503 -2.82808 -1.58714 0
M  V30 4345 H 422.288 -3.91659 -0.185817 0
M  V30 4346 H 423.778 -4.00824 -1.17174 0
M  V30 4347 N 424.215 -0.530993 -1.48385 0
M  V30 4348 C 425.145 0.219985 -2.32461 0
M  V30 4349 C 426.126 0.934111 -1.42156 0
M  V30 4350 O 427.311 0.919694 -1.71042 0
M  V30 4351 C 424.441 1.26674 -3.23375 0
M  V30 4352 C 423.395 0.67069 -4.22712 0
M  V30 4353 C 422.721 1.82017 -5.02766 0
M  V30 4354 C 424.021 -0.358268 -5.2107 0
M  V30 4355 H 425.715 -0.48187 -2.95497 0
M  V30 4356 H 423.261 -0.233182 -1.42099 0
M  V30 4357 H 425.214 1.80006 -3.81019 0
M  V30 4358 H 423.938 1.99818 -2.58341 0
M  V30 4359 H 422.597 0.158878 -3.66256 0
M  V30 4360 H 422.245 2.54002 -4.34157 0
M  V30 4361 H 421.945 1.42727 -5.70003 0
M  V30 4362 H 423.469 2.35725 -5.63264 0
M  V30 4363 H 424.883 0.0880081 -5.73232 0
M  V30 4364 H 423.28 -0.66861 -5.96364 0
M  V30 4365 H 424.35 -1.26367 -4.68145 0
M  V30 4366 N 425.693 1.55336 -0.266172 0
M  V30 4367 C 426.918 2.04258 0.359661 0
M  V30 4368 C 427.343 1.14359 1.49344 0
M  V30 4369 O 426.701 0.140369 1.80756 0
M  V30 4370 C 426.749 3.50997 0.826635 0
M  V30 4371 O 425.853 3.64204 1.93466 0
M  V30 4372 H 425.194 0.659668 0.075727 0
M  V30 4373 H 427.724 2.00694 -0.39786 0
M  V30 4374 H 427.734 3.9219 1.12477 0
M  V30 4375 H 426.409 4.159 -0.00293032 0
M  V30 4376 H 424.986 3.34913 1.63974 0
M  V30 4377 N 427.171 -0.0066808 1.57599 0
M  V30 4378 C 428.587 -0.36267 1.55425 0
M  V30 4379 C 428.787 -1.75209 0.995187 0
M  V30 4380 O 427.843 -2.44616 0.626058 0
M  V30 4381 C 429.156 -0.244017 2.99708 0
M  V30 4382 C 430.704 -0.319451 3.11366 0
M  V30 4383 C 431.179 -0.229998 4.57422 0
M  V30 4384 N 432.67 -0.288105 4.62303 0
M  V30 4385 C 433.405 -0.242127 5.72889 0
M  V30 4386 N 432.901 -0.147133 6.92644 0
M  V30 4387 N 434.694 -0.293502 5.61333 0
M  V30 4388 H 426.845 0.902314 1.92281 0
M  V30 4389 H 429.108 0.34525 0.882896 0
M  V30 4390 H 428.814 0.711678 3.44424 0
M  V30 4391 H 428.688 -1.02877 3.629 0
M  V30 4392 H 431.075 -1.26559 2.66584 0
M  V30 4393 H 431.156 0.495055 2.50964 0
M  V30 4394 H 430.8 0.712566 5.02877 0
M  V30 4395 H 430.73 -1.0629 5.15761 0
M  V30 4396 H 433.221 -0.363126 3.76151 0
M  V30 4397 H 433.534 -0.117763 7.7271 0
M  V30 4398 H 431.879 -0.112857 6.94908 0
M  V30 4399 H 435.07 -0.365864 4.66668 0
M  V30 4400 H 435.243 -0.254204 6.47501 0
M  V30 4401 N 428.649 -1.55105 -0.279332 0
M  V30 4402 C 429.579 -1.90557 -1.34945 0
M  V30 4403 C 430.56 -0.766738 -1.51839 0
M  V30 4404 O 431.745 -1.02434 -1.64988 0
M  V30 4405 C 428.875 -2.17193 -2.71006 0
M  V30 4406 C 427.829 -3.33021 -2.68851 0
M  V30 4407 C 427.155 -3.45123 -4.08405 0
M  V30 4408 C 428.455 -4.69578 -2.28678 0
M  V30 4409 H 430.149 -2.80188 -1.05522 0
M  V30 4410 H 427.695 -1.34811 -0.506173 0
M  V30 4411 H 429.648 -2.40581 -3.45975 0
M  V30 4412 H 428.372 -1.24355 -3.01999 0
M  V30 4413 H 427.031 -3.0959 -1.9634 0
M  V30 4414 H 426.679 -2.49762 -4.3661 0
M  V30 4415 H 426.379 -4.22995 -4.07859 0
M  V30 4416 H 427.903 -3.70796 -4.85121 0
M  V30 4417 H 429.317 -4.92553 -2.93368 0
M  V30 4418 H 427.714 -5.5032 -2.39306 0
M  V30 4419 H 428.784 -4.68828 -1.23807 0
M  V30 4420 N 430.127 0.543554 -1.4793 0
M  V30 4421 C 431.057 1.65888 -1.64327 0
M  V30 4422 C 432.038 1.62818 -0.492383 0
M  V30 4423 O 433.223 1.80226 -0.723338 0
M  V30 4424 C 430.353 3.04506 -1.67013 0
M  V30 4425 C 429.307 3.2243 -2.81466 0
M  V30 4426 C 428.633 4.61972 -2.69233 0
M  V30 4427 C 429.933 3.06496 -4.22915 0
M  V30 4428 H 431.627 1.52421 -2.57698 0
M  V30 4429 H 429.173 0.731849 -1.24016 0
M  V30 4430 H 431.126 3.82391 -1.77074 0
M  V30 4431 H 429.85 3.18964 -0.70212 0
M  V30 4432 H 428.509 2.46957 -2.70938 0
M  V30 4433 H 428.157 4.73247 -1.7043 0
M  V30 4434 H 427.857 4.74911 -3.46025 0
M  V30 4435 H 429.381 5.41974 -2.81242 0
M  V30 4436 H 430.795 3.74186 -4.34348 0
M  V30 4437 H 429.192 3.30938 -5.006 0
M  V30 4438 H 430.262 2.03077 -4.40327 0
M  V30 4439 N 431.605 1.3629 0.791371 0
M  V30 4440 C 432.83 1.33726 1.58531 0
M  V30 4441 C 433.255 -0.0794933 1.87932 0
M  V30 4442 O 432.613 -1.05087 1.47738 0
M  V30 4443 C 432.661 2.16425 2.88431 0
M  V30 4444 O 431.765 1.5554 3.81944 0
M  V30 4445 H 431.106 0.457793 0.480959 0
M  V30 4446 H 433.636 1.79547 0.981031 0
M  V30 4447 H 433.646 2.28933 3.37718 0
M  V30 4448 H 432.321 3.19415 2.66359 0
M  V30 4449 H 430.898 1.51961 3.40532 0
M  V30 4450 N 433.083 -1.0153 1.20538 0
M  V30 4451 C 434.311 -1.78746 1.04199 0
M  V30 4452 C 434.726 -1.84323 -0.408733 0
M  V30 4453 O 434.083 -1.29714 -1.28377 0
M  V30 4454 C 434.134 -3.23152 1.62035 0
M  V30 4455 O 433.855 -3.17918 3.0143 0
M  V30 4456 C 435.356 -4.16911 1.50666 0
M  V30 4457 H 432.576 -0.56208 0.366479 0
M  V30 4458 H 435.12 -1.27794 1.59653 0
M  V30 4459 H 433.275 -3.71248 1.10697 0
M  V30 4460 H 433.689 -4.08567 3.28897 0
M  V30 4461 H 435.163 -5.16072 1.95892 0
M  V30 4462 H 435.64 -4.36791 0.459363 0
M  V30 4463 H 436.246 -3.74698 2.01201 0
M  V30 4464 N 434.561 -1.01147 -1.20859 0
M  V30 4465 C 435.493 -0.535546 -2.22855 0
M  V30 4466 C 436.506 0.379323 -1.58319 0
M  V30 4467 O 437.695 0.178489 -1.77605 0
M  V30 4468 C 434.795 0.240962 -3.38042 0
M  V30 4469 C 433.968 -0.674562 -4.32167 0
M  V30 4470 C 433.027 0.053467 -5.26173 0
M  V30 4471 O 432.053 -0.567339 -5.66366 0
M  V30 4472 N 433.255 1.32997 -5.65059 0
M  V30 4473 H 436.02 -1.41268 -2.64317 0
M  V30 4474 H 433.581 -0.888386 -1.35349 0
M  V30 4475 H 435.573 0.737115 -3.97931 0
M  V30 4476 H 434.143 1.01935 -2.95513 0
M  V30 4477 H 433.363 -1.35111 -3.70322 0
M  V30 4478 H 434.651 -1.2974 -4.91981 0
M  V30 4479 H 434.049 1.85536 -5.34409 0
M  V30 4480 H 432.606 1.77095 -6.2728 0
M  V30 4481 N 436.039 1.36541 -0.78704 0
M  V30 4482 C 437.45 1.81873 -0.421807 0
M  V30 4483 C 437.801 1.65487 1.05397 0
M  V30 4484 O 436.926 1.17448 1.81755 0
M  V30 4485 C 437.521 3.30192 -0.758841 0
M  V30 4486 C 436.08 3.73743 -0.446468 0
M  V30 4487 C 435.227 2.58844 -0.994728 0
M  V30 4488 H 438.178 1.24796 -0.98039 0
M  V30 4489 H 438.199 3.80468 -0.0490648 0
M  V30 4490 H 437.711 3.42087 -1.83299 0
M  V30 4491 H 435.812 3.6741 0.619739 0
M  V30 4492 H 435.925 4.69272 -0.965415 0
M  V30 4493 H 434.289 2.51245 -0.418087 0
M  V30 4494 H 435.072 2.73525 -2.07458 0
M  V30 4495 N 437.518 0.538854 1.48102 0
M  V30 4496 C 438.764 0.00801365 2.02798 0
M  V30 4497 C 439.097 -1.3309 1.41424 0
M  V30 4498 O 438.372 -1.86169 0.563158 0
M  V30 4499 C 438.655 -0.104589 3.59948 0
M  V30 4500 C 438.508 1.26012 4.31788 0
M  V30 4501 C 439.827 -0.827055 4.32259 0
M  V30 4502 H 436.946 0.00438624 0.736987 0
M  V30 4503 H 439.588 0.6976 1.7673 0
M  V30 4504 H 437.738 -0.691893 3.82289 0
M  V30 4505 H 439.41 1.88922 4.2084 0
M  V30 4506 H 437.653 1.83968 3.92859 0
M  V30 4507 H 438.324 1.13424 5.40221 0
M  V30 4508 H 440.8 -0.328578 4.14801 0
M  V30 4509 H 439.676 -0.87476 5.41885 0
M  V30 4510 H 439.937 -1.87927 4.0017 0
M  V30 4511 N 438.996 -1.55193 0.274407 0
M  V30 4512 C 439.959 -2.212 -0.600279 0
M  V30 4513 C 440.959 -1.18963 -1.08187 0
M  V30 4514 O 442.149 -1.43873 -0.982158 0
M  V30 4515 C 439.281 -2.87739 -1.82809 0
M  V30 4516 H 440.474 -2.9989 -0.0239682 0
M  V30 4517 H 438.027 -1.5628 0.0250192 0
M  V30 4518 H 438.762 -2.13058 -2.44493 0
M  V30 4519 H 438.547 -3.62658 -1.49069 0
M  V30 4520 H 440.037 -3.38171 -2.45011 0
M  V30 4521 N 440.474 -0.00167713 -1.576 0
M  V30 4522 C 441.699 0.69739 -1.95323 0
M  V30 4523 C 442.124 1.6642 -0.876706 0
M  V30 4524 O 441.482 1.80548 0.165007 0
M  V30 4525 C 441.53 1.40403 -3.32144 0
M  V30 4526 O 440.634 2.5185 -3.26566 0
M  V30 4527 H 439.975 0.185373 -0.637599 0
M  V30 4528 H 442.505 -0.0553665 -2.04525 0
M  V30 4529 H 442.515 1.76707 -3.67748 0
M  V30 4530 H 441.19 0.695167 -4.10049 0
M  V30 4531 H 439.767 2.17861 -3.0264 0
M  V30 4532 N 441.952 1.55251 0.271103 0
M  V30 4533 C 443.363 1.66635 0.842007 0
M  V30 4534 C 443.714 0.594631 1.86972 0
M  V30 4535 O 442.839 -0.263532 2.14789 0
M  V30 4536 C 443.434 3.02082 1.53401 0
M  V30 4537 C 441.993 3.15487 2.05293 0
M  V30 4538 C 441.14 2.62438 0.895631 0
M  V30 4539 H 444.091 1.58629 0.0474117 0
M  V30 4540 H 444.112 2.95176 2.40107 0
M  V30 4541 H 443.624 3.80062 0.785786 0
M  V30 4542 H 441.725 2.42284 2.83071 0
M  V30 4543 H 441.838 4.22075 2.26693 0
M  V30 4544 H 440.202 2.19644 1.28953 0
M  V30 4545 H 440.985 3.42923 0.160878 0
M  V30 4546 N 443.43 -0.535701 1.48216 0
M  V30 4547 C 444.655 -1.32149 1.59848 0
M  V30 4548 C 445.08 -1.86338 0.256842 0
M  V30 4549 O 444.438 -1.64107 -0.770632 0
M  V30 4550 C 444.486 -2.45224 2.64381 0
M  V30 4551 O 443.59 -3.48093 2.21144 0
M  V30 4552 H 442.931 -0.391634 0.536208 0
M  V30 4553 H 445.461 -0.645202 1.94161 0
M  V30 4554 H 445.471 -2.91491 2.85476 0
M  V30 4555 H 444.146 -2.05143 3.61786 0
M  V30 4556 H 442.723 -3.07984 2.10239 0
M  V30 4557 N 444.908 -1.36708 -0.784132 0
M  V30 4558 C 446.133 -1.34565 -1.5782 0
M  V30 4559 C 446.558 0.0695257 -1.87971 0
M  V30 4560 O 445.916 1.04302 -1.48293 0
M  V30 4561 C 445.964 -2.17952 -2.87279 0
M  V30 4562 O 445.068 -1.57563 -3.81114 0
M  V30 4563 H 444.409 -0.460337 -0.478524 0
M  V30 4564 H 446.939 -1.80064 -0.971495 0
M  V30 4565 H 446.949 -2.30721 -3.365 0
M  V30 4566 H 445.624 -3.20823 -2.64661 0
M  V30 4567 H 444.201 -1.53764 -3.39722 0
M  V30 4568 N 446.386 1.0089 -1.21074 0
M  V30 4569 C 447.663 1.71834 -0.934469 0
M  V30 4570 C 448.043 2.0368 0.554753 0
M  V30 4571 O 447.391 1.70742 1.51854 0
M  V30 4572 C 447.601 2.98061 -1.8155 0
M  V30 4573 C 448.949 3.7117 -2.06199 0
M  V30 4574 O 449.973 3.08034 -1.78867 0
M  V30 4575 O 448.832 4.84721 -2.52404 0
M  V30 4576 H 445.926 0.749253 -0.35007 0
M  V30 4577 H 448.472 1.06668 -1.31985 0
M  V30 4578 H 447.244 2.70908 -2.82355 0
M  V30 4579 H 446.867 3.70968 -1.43068 0
M  V30 4580 N 447.864 1.01787 1.20321 0
M  V30 4581 C 448.774 0.598898 2.26827 0
M  V30 4582 C 449.79 -0.36418 1.70146 0
M  V30 4583 O 450.966 -0.224812 2.00141 0
M  V30 4584 C 448.031 -0.0549769 3.46656 0
M  V30 4585 C 447.092 0.954205 4.18561 0
M  V30 4586 C 446.325 0.331439 5.3267 0
M  V30 4587 O 446.548 -0.86851 5.63749 0
M  V30 4588 O 445.482 1.0488 5.92692 0
M  V30 4589 H 449.308 1.48562 2.64883 0
M  V30 4590 H 446.893 0.787434 1.26964 0
M  V30 4591 H 448.775 -0.420102 4.19301 0
M  V30 4592 H 447.45 -0.915876 3.10473 0
M  V30 4593 H 446.357 1.37072 3.48083 0
M  V30 4594 H 447.69 1.78511 4.58688 0
M  V30 4595 N 449.342 -1.36122 0.79427 0
M  V30 4596 C 450.572 -2.03067 0.380437 0
M  V30 4597 C 450.98 -1.60018 -1.00949 0
M  V30 4598 O 450.323 -0.787425 -1.65968 0
M  V30 4599 C 450.385 -3.57587 0.37034 0
M  V30 4600 C 450.049 -4.23855 1.70867 0
M  V30 4601 C 451.046 -4.46404 2.66496 0
M  V30 4602 C 448.731 -4.61229 1.9893 0
M  V30 4603 C 450.725 -5.05412 3.88378 0
M  V30 4604 C 448.412 -5.19953 3.21079 0
M  V30 4605 C 449.41 -5.41985 4.15621 0
M  V30 4606 O 449.098 -5.99475 5.35616 0
M  V30 4607 H 448.83 -0.658168 0.154243 0
M  V30 4608 H 451.384 -1.7498 1.0757 0
M  V30 4609 H 449.614 -3.84814 -0.381444 0
M  V30 4610 H 451.303 -4.05895 -0.0194894 0
M  V30 4611 H 452.069 -4.17921 2.46103 0
M  V30 4612 H 447.948 -4.43402 1.26158 0
M  V30 4613 H 451.492 -5.22524 4.62185 0
M  V30 4614 H 447.389 -5.47862 3.41347 0
M  V30 4615 H 448.157 -6.17937 5.36745 0
M  V30 4616 N 450.82 -0.546701 -1.47814 0
M  V30 4617 C 451.75 0.195317 -2.32682 0
M  V30 4618 C 452.731 0.918981 -1.43139 0
M  V30 4619 O 453.916 0.901501 -1.72008 0
M  V30 4620 C 451.046 1.23237 -3.247 0
M  V30 4621 C 450 0.625818 -4.234 0
M  V30 4622 C 449.326 1.76674 -5.04669 0
M  V30 4623 C 450.626 -0.413515 -5.2066 0
M  V30 4624 H 452.32 -0.513184 -2.94969 0
M  V30 4625 H 449.866 -0.248241 -1.41844 0
M  V30 4626 H 451.819 1.75955 -3.82907 0
M  V30 4627 H 450.543 1.97067 -2.60446 0
M  V30 4628 H 449.202 0.120023 -3.66403 0
M  V30 4629 H 448.85 2.49383 -4.36826 0
M  V30 4630 H 448.55 1.36673 -5.71484 0
M  V30 4631 H 450.074 2.29738 -5.65732 0
M  V30 4632 H 451.488 0.0272042 -5.73294 0
M  V30 4633 H 449.885 -0.731825 -5.95621 0
M  V30 4634 H 450.955 -1.31325 -4.66778 0
M  V30 4635 N 452.299 1.55045 -0.282633 0
M  V30 4636 C 453.231 2.2023 0.634924 0
M  V30 4637 C 454.244 1.18931 1.11172 0
M  V30 4638 O 455.433 1.4562 1.03233 0
M  V30 4639 C 452.533 2.82041 1.87899 0
M  V30 4640 C 451.706 4.091 1.54776 0
M  V30 4641 C 450.765 4.54887 2.64507 0
M  V30 4642 O 449.791 5.20496 2.30375 0
M  V30 4643 N 450.993 4.25659 3.94709 0
M  V30 4644 H 453.758 2.99601 0.0769811 0
M  V30 4645 H 451.319 1.61565 -0.104048 0
M  V30 4646 H 453.311 3.09613 2.60619 0
M  V30 4647 H 451.881 2.06618 2.3458 0
M  V30 4648 H 451.101 3.88736 0.654049 0
M  V30 4649 H 452.389 4.9187 1.30158 0
M  V30 4650 H 451.787 3.7306 4.25256 0
M  V30 4651 H 450.344 4.57984 4.63782 0
M  V30 4652 N 453.777 0.010035 1.57597 0
M  V30 4653 C 454.709 -1.00649 2.05918 0
M  V30 4654 C 455.722 -1.30077 0.978964 0
M  V30 4655 O 456.911 -1.26878 1.25556 0
M  V30 4656 C 454.011 -2.33876 2.45265 0
M  V30 4657 C 453.184 -2.23242 3.7614 0
M  V30 4658 C 452.243 -3.39242 4.02245 0
M  V30 4659 O 451.269 -3.1698 4.72771 0
M  V30 4660 N 452.471 -4.6242 3.50924 0
M  V30 4661 H 455.236 -0.594333 2.93748 0
M  V30 4662 H 452.797 -0.17714 1.60928 0
M  V30 4663 H 454.789 -3.1027 2.59836 0
M  V30 4664 H 453.359 -2.66799 1.62902 0
M  V30 4665 H 452.579 -1.31696 3.71551 0
M  V30 4666 H 453.867 -2.13321 4.61922 0
M  V30 4667 H 453.265 -4.83404 2.93832 0
M  V30 4668 H 451.822 -5.36046 3.70807 0
M  V30 4669 N 455.255 -1.55392 -0.262866 0
M  V30 4670 C 456.671 -1.47459 -0.610582 0
M  V30 4671 C 456.871 -0.697031 -1.8906 0
M  V30 4672 O 455.927 -0.219952 -2.5154 0
M  V30 4673 C 457.24 -2.91751 -0.728131 0
M  V30 4674 C 458.788 -3.02027 -0.821517 0
M  V30 4675 C 459.263 -4.47594 -0.97076 0
M  V30 4676 N 460.754 -4.51465 -1.03603 0
M  V30 4677 C 461.489 -5.61326 -1.17049 0
M  V30 4678 N 460.985 -6.81032 -1.2715 0
M  V30 4679 N 462.778 -5.49089 -1.20239 0
M  V30 4680 H 454.929 -2.04395 0.577632 0
M  V30 4681 H 457.192 -0.927287 0.197086 0
M  V30 4682 H 456.898 -3.51413 0.142132 0
M  V30 4683 H 456.772 -3.4134 -1.6052 0
M  V30 4684 H 459.159 -2.42456 -1.68224 0
M  V30 4685 H 459.24 -2.55674 0.0803688 0
M  V30 4686 H 458.884 -5.07771 -0.114655 0
M  V30 4687 H 458.814 -4.91613 -1.88745 0
M  V30 4688 H 461.305 -3.6524 -0.96996 0
M  V30 4689 H 461.618 -7.60511 -1.37271 0
M  V30 4690 H 459.963 -6.83824 -1.24136 0
M  V30 4691 H 463.154 -4.54507 -1.11985 0
M  V30 4692 H 463.327 -6.34749 -1.30373 0
M  V30 4693 N 456.733 0.527833 -1.48498 0
M  V30 4694 C 458.144 1.10975 -1.50138 0
M  V30 4695 C 458.495 1.943 -0.272378 0
M  V30 4696 O 457.62 2.07319 0.620301 0
M  V30 4697 C 458.215 2.01927 -2.72049 0
M  V30 4698 C 456.774 2.55332 -2.76554 0
M  V30 4699 C 455.921 1.32341 -2.43683 0
M  V30 4700 H 458.872 0.312986 -1.55583 0
M  V30 4701 H 458.893 2.86244 -2.50689 0
M  V30 4702 H 458.405 1.41254 -3.61481 0
M  V30 4703 H 456.506 3.19721 -1.91336 0
M  V30 4704 H 456.619 2.94319 -3.78038 0
M  V30 4705 H 454.983 1.63989 -1.94884 0
M  V30 4706 H 455.766 0.734165 -3.35358 0
M  V30 4707 N 458.211 1.37122 0.776871 0
M  V30 4708 C 459.488 1.22586 1.52421 0
M  V30 4709 C 459.868 -0.182726 2.10308 0
M  V30 4710 O 459.216 -1.18979 1.9508 0
M  V30 4711 C 459.426 2.31782 2.60918 0
M  V30 4712 C 460.774 2.69071 3.2846 0
M  V30 4713 O 461.798 2.3092 2.71209 0
M  V30 4714 O 460.657 3.3478 4.31954 0
M  V30 4715 H 457.751 0.478045 0.674835 0
M  V30 4716 H 460.297 1.48888 0.814275 0
M  V30 4717 H 459.069 3.26131 2.16227 0
M  V30 4718 H 458.692 2.06916 3.39517 0
M  V30 4719 N 459.689 -1.00246 1.21608 0
M  V30 4720 C 460.938 -1.73476 1.02902 0
M  V30 4721 C 461.251 -1.90643 -0.437561 0
M  V30 4722 O 462.457 -2.61105 -0.74407 0
M  V30 4723 C 460.913 -3.12079 1.79261 0
M  V30 4724 C 460.521 -3.02877 3.30106 0
M  V30 4725 C 462.265 -3.89421 1.68972 0
M  V30 4726 C 460.172 -4.36575 3.98944 0
M  V30 4727 H 459.102 -0.650408 0.381425 0
M  V30 4728 H 461.753 -1.11985 1.45367 0
M  V30 4729 H 460.135 -3.74196 1.2959 0
M  V30 4730 H 461.309 -2.49983 3.87098 0
M  V30 4731 H 459.624 -2.39022 3.40965 0
M  V30 4732 H 462.221 -4.88362 2.17731 0
M  V30 4733 H 462.564 -4.1122 0.648397 0
M  V30 4734 H 463.097 -3.33963 2.16133 0
M  V30 4735 H 459.836 -4.19978 5.03288 0
M  V30 4736 H 459.356 -4.8942 3.4674 0
M  V30 4737 H 461.035 -5.05364 4.04 0
M  V30 4738 N 461.167 -1.02423 -1.1978 0
M  V30 4739 C 462.578 -0.748389 -1.71044 0
M  V30 4740 C 462.929 0.732398 -1.82017 0
M  V30 4741 O 462.054 1.57116 -1.48807 0
M  V30 4742 C 462.649 -1.35187 -3.1066 0
M  V30 4743 C 461.208 -1.12472 -3.59203 0
M  V30 4744 C 460.355 -1.45283 -2.36195 0
M  V30 4745 H 463.306 -1.19275 -1.04686 0
M  V30 4746 H 463.327 -0.746408 -3.73107 0
M  V30 4747 H 462.839 -2.4296 -3.02642 0
M  V30 4748 H 460.94 -0.0649983 -3.72543 0
M  V30 4749 H 461.053 -1.81016 -4.43588 0
M  V30 4750 H 459.417 -0.872034 -2.39307 0
M  V30 4751 H 460.2 -2.54129 -2.30811 0
M  V30 4752 N 462.645 1.35699 -0.801477 0
M  V30 4753 C 463.87 2.03687 -0.390678 0
M  V30 4754 C 464.295 1.60015 0.988778 0
M  V30 4755 O 463.653 0.774357 1.63931 0
M  V30 4756 C 463.701 3.57439 -0.476404 0
M  V30 4757 O 462.805 4.09208 0.512106 0
M  V30 4758 H 462.146 0.64344 -0.163956 0
M  V30 4759 H 464.676 1.73403 -1.08594 0
M  V30 4760 H 464.686 4.06544 -0.344357 0
M  V30 4761 H 463.361 3.88576 -1.48262 0
M  V30 4762 H 461.938 3.7134 0.340721 0
M  V30 4763 N 464.123 0.554532 1.47522 0
M  V30 4764 C 465.053 -0.182974 2.32782 0
M  V30 4765 C 466.034 -0.911377 1.43624 0
M  V30 4766 O 467.219 -0.892366 1.72483 0
M  V30 4767 C 464.349 -1.21513 3.25349 0
M  V30 4768 C 463.303 -0.603355 4.23726 0
M  V30 4769 C 462.629 -1.73995 5.05598 0
M  V30 4770 C 463.929 0.441121 5.20434 0
M  V30 4771 H 465.623 0.52882 2.94693 0
M  V30 4772 H 463.169 0.255759 1.41711 0
M  V30 4773 H 465.122 -1.73922 3.83835 0
M  V30 4774 H 463.846 -1.95683 2.61487 0
M  V30 4775 H 462.505 -0.10059 3.66462 0
M  V30 4776 H 462.153 -2.47063 4.38143 0
M  V30 4777 H 461.853 -1.3364 5.72201 0
M  V30 4778 H 463.377 -2.26735 5.66942 0
M  V30 4779 H 464.791 0.00319931 5.733 0
M  V30 4780 H 463.188 0.763402 5.95224 0
M  V30 4781 H 464.258 1.33799 4.66075 0
M  V30 4782 N 465.601 -1.54893 0.290851 0
M  V30 4783 C 466.826 -2.04804 -0.32712 0
M  V30 4784 C 467.251 -1.16721 -1.47506 0
M  V30 4785 O 466.609 -0.169107 -1.8051 0
M  V30 4786 C 466.657 -3.52268 -0.770689 0
M  V30 4787 O 465.761 -3.67236 -1.87647 0
M  V30 4788 H 465.102 -0.660789 -0.0652227 0
M  V30 4789 H 467.632 -2.00036 0.429739 0
M  V30 4790 H 467.642 -3.9393 -1.06223 0
M  V30 4791 H 466.317 -4.15843 0.069096 0
M  V30 4792 H 464.894 -3.37479 -1.58626 0
M  V30 4793 N 467.08 -0.0183926 -1.57589 0
M  V30 4794 C 468.043 0.951986 -2.08494 0
M  V30 4795 C 469.043 1.26092 -0.997874 0
M  V30 4796 O 470.233 1.20304 -1.25987 0
M  V30 4797 C 467.365 2.27165 -2.54182 0
M  V30 4798 H 468.558 0.511307 -2.95509 0
M  V30 4799 H 466.111 0.229444 -1.54607 0
M  V30 4800 H 466.846 2.75884 -1.70465 0
M  V30 4801 H 466.631 2.06057 -3.33591 0
M  V30 4802 H 468.121 2.9674 -2.93828 0
M  V30 4803 N 468.558 1.5553 0.254621 0
M  V30 4804 C 469.488 1.9268 1.31897 0
M  V30 4805 C 470.469 0.790797 1.506 0
M  V30 4806 O 471.654 1.05045 1.63337 0
M  V30 4807 C 468.784 2.21477 2.67517 0
M  V30 4808 C 467.738 3.37256 2.63519 0
M  V30 4809 C 467.064 3.51576 4.02862 0
M  V30 4810 C 468.364 4.73157 2.21179 0
M  V30 4811 H 470.058 2.81832 1.01051 0
M  V30 4812 H 467.604 1.35599 0.484662 0
M  V30 4813 H 469.557 2.46055 3.42104 0
M  V30 4814 H 468.281 1.29144 2.99982 0
M  V30 4815 H 466.94 3.12675 1.9139 0
M  V30 4816 H 466.588 2.56676 4.32581 0
M  V30 4817 H 466.288 4.2943 4.01078 0
M  V30 4818 H 467.812 3.78467 4.79161 0
M  V30 4819 H 469.226 4.97158 2.85494 0
M  V30 4820 H 467.623 5.54058 2.30521 0
M  V30 4821 H 468.693 4.70739 1.16332 0
M  V30 4822 N 470.036 -0.519951 1.48776 0
M  V30 4823 C 471.282 -1.27711 1.57536 0
M  V30 4824 C 471.615 -1.92547 0.252866 0
M  V30 4825 O 470.89 -1.7979 -0.742021 0
M  V30 4826 C 471.173 -2.35875 2.72094 0
M  V30 4827 C 471.026 -1.75664 4.1408 0
M  V30 4828 C 472.345 -3.37575 2.82367 0
M  V30 4829 H 469.464 -0.462971 0.573434 0
M  V30 4830 H 472.106 -0.578194 1.80989 0
M  V30 4831 H 470.256 -2.95488 2.52228 0
M  V30 4832 H 471.928 -1.20025 4.45412 0
M  V30 4833 H 470.171 -1.06154 4.20611 0
M  V30 4834 H 470.842 -2.54029 4.90075 0
M  V30 4835 H 473.318 -2.87929 3.00393 0
M  V30 4836 H 472.194 -4.1064 3.64233 0
M  V30 4837 H 472.455 -3.98743 1.90936 0
M  V30 4838 N 471.514 -1.37532 -0.769588 0
M  V30 4839 C 472.791 -1.23392 -1.51768 0
M  V30 4840 C 473.171 0.17157 -2.10402 0
M  V30 4841 O 472.519 1.17943 -1.95708 0
M  V30 4842 C 472.729 -2.33163 -2.59685 0
M  V30 4843 C 474.077 -2.70809 -3.27028 0
M  V30 4844 O 475.101 -2.32355 -2.69981 0
M  V30 4845 O 473.96 -3.37066 -4.30173 0
M  V30 4846 H 471.054 -0.481617 -0.67229 0
M  V30 4847 H 473.6 -1.49318 -0.806368 0
M  V30 4848 H 472.372 -3.27273 -2.14494 0
M  V30 4849 H 471.995 -2.08713 -3.38415 0
M  V30 4850 N 472.992 0.995999 -1.22138 0
M  V30 4851 C 474.269 1.70834 -0.952642 0
M  V30 4852 C 474.649 2.04257 0.533119 0
M  V30 4853 O 473.997 1.72343 1.50034 0
M  V30 4854 C 474.207 2.96119 -1.84701 0
M  V30 4855 C 475.555 3.68962 -2.10124 0
M  V30 4856 O 476.579 3.0612 -1.82124 0
M  V30 4857 O 475.438 4.82017 -2.57531 0
M  V30 4858 H 472.532 0.745498 -0.357997 0
M  V30 4859 H 475.078 1.05262 -1.33109 0
M  V30 4860 H 473.85 2.67898 -2.85213 0
M  V30 4861 H 473.473 3.6943 -1.46995 0
M  V30 4862 N 474.47 1.03057 1.19235 0
M  V30 4863 C 475.719 0.72326 1.88287 0
M  V30 4864 C 476.032 -0.751333 1.80594 0
M  V30 4865 O 477.238 -1.17176 2.44912 0
M  V30 4866 C 475.694 1.24338 3.3774 0
M  V30 4867 C 475.302 2.74587 3.53986 0
M  V30 4868 C 477.046 1.01213 4.12257 0
M  V30 4869 C 474.953 3.20009 4.97341 0
M  V30 4870 H 473.883 0.266848 0.705201 0
M  V30 4871 H 476.534 1.24509 1.34795 0
M  V30 4872 H 474.916 0.649457 3.90638 0
M  V30 4873 H 476.09 3.39649 3.11408 0
M  V30 4874 H 474.405 2.9601 2.9286 0
M  V30 4875 H 477.002 1.32675 5.17978 0
M  V30 4876 H 477.345 -0.051001 4.16269 0
M  V30 4877 H 477.878 1.57014 3.65501 0
M  V30 4878 H 474.617 4.25659 4.98493 0
M  V30 4879 H 474.137 2.59676 5.40674 0
M  V30 4880 H 475.816 3.13447 5.66003 0
M  V30 4881 N 475.948 -1.35272 0.808662 0
M  V30 4882 C 476.911 -2.28082 0.226093 0
M  V30 4883 C 477.911 -1.49673 -0.587762 0
M  V30 4884 O 479.101 -1.69404 -0.405943 0
M  V30 4885 C 476.233 -3.33955 -0.684596 0
M  V30 4886 H 477.426 -2.81116 1.04469 0
M  V30 4887 H 474.979 -1.45162 0.579466 0
M  V30 4888 H 475.714 -2.86111 -1.5268 0
M  V30 4889 H 475.499 -3.91965 -0.102699 0
M  V30 4890 H 476.989 -4.03219 -1.08646 0
M  V30 4891 N 477.426 -0.562348 -1.47226 0
M  V30 4892 C 478.842 -0.222492 -1.58042 0
M  V30 4893 C 479.042 1.27505 -1.56028 0
M  V30 4894 O 478.098 2.05555 -1.46641 0
M  V30 4895 C 479.411 -0.853694 -2.88327 0
M  V30 4896 C 480.959 -0.825397 -3.01921 0
M  V30 4897 C 481.434 -1.43576 -4.34914 0
M  V30 4898 N 482.925 -1.39918 -4.41562 0
M  V30 4899 C 483.66 -1.84103 -5.43041 0
M  V30 4900 N 483.156 -2.36167 -6.51304 0
M  V30 4901 N 484.949 -1.75142 -5.34118 0
M  V30 4902 H 477.1 -1.53525 -1.46778 0
M  V30 4903 H 479.363 -0.640527 -0.698877 0
M  V30 4904 H 479.069 -1.90635 -2.95552 0
M  V30 4905 H 478.943 -0.34977 -3.75575 0
M  V30 4906 H 481.33 0.218583 -2.94289 0
M  V30 4907 H 481.411 -1.36713 -2.16202 0
M  V30 4908 H 481.055 -2.47884 -4.43301 0
M  V30 4909 H 480.985 -0.869427 -5.19373 0
M  V30 4910 H 483.476 -1.0184 -3.63919 0
M  V30 4911 H 483.789 -2.67793 -7.24919 0
M  V30 4912 H 482.134 -2.40181 -6.52179 0
M  V30 4913 H 485.325 -1.34241 -4.48439 0
M  V30 4914 H 485.498 -2.09895 -6.13065 0
M  V30 4915 N 478.904 1.54736 -0.299062 0
M  V30 4916 C 479.852 2.24897 0.593658 0
M  V30 4917 C 480.846 1.25429 1.13859 0
M  V30 4918 O 482.052 1.43286 1.08945 0
M  V30 4919 H 478.427 0.72207 0.210046 0
M  V30 4920 H 480.398 2.98393 -0.0206421 0
M  V30 4921 C 479.147 3.00159 1.75499 0
M  V30 4922 H 478.47 3.76501 1.34489 0
M  V30 4923 H 479.91 3.52535 2.35574 0
M  V30 4924 C 478.369 2.07015 2.65794 0
M  V30 4925 O 478.899 1.63692 3.66835 0
M  V30 4926 N 477.105 1.73012 2.33485 0
M  V30 4927 H 476.652 2.08439 1.51364 0
M  V30 4928 H 476.61 1.10965 2.94167 0
M  V30 4929 N 480.382 0.0267497 1.57577 0
M  V30 4930 C 481.292 -0.971633 2.13533 0
M  V30 4931 C 482.308 -1.35868 1.08701 0
M  V30 4932 O 483.484 -1.44058 1.40746 0
M  V30 4933 C 480.549 -2.23622 2.64941 0
M  V30 4934 C 479.61 -1.90982 3.8448 0
M  V30 4935 C 478.843 -3.11411 4.33427 0
M  V30 4936 O 479.066 -4.23992 3.81558 0
M  V30 4937 O 478 -2.93848 5.25297 0
M  V30 4938 H 481.826 -0.525853 2.99113 0
M  V30 4939 H 479.411 -0.193712 1.48139 0
M  V30 4940 H 481.293 -2.97864 2.98086 0
M  V30 4941 H 479.968 -2.67386 1.82446 0
M  V30 4942 H 478.875 -1.14132 3.56265 0
M  V30 4943 H 480.208 -1.52036 4.6813 0
M  V30 4944 N 481.861 -1.55662 -0.24637 0
M  V30 4945 C 482.811 -1.86753 -1.30795 0
M  V30 4946 C 483.795 -0.728445 -1.43466 0
M  V30 4947 O 484.987 -0.99038 -1.46699 0
M  V30 4948 C 482.116 -2.16618 -2.66329 0
M  V30 4949 C 481.202 -3.36855 -2.57661 0
M  V30 4950 N 481.593 -4.56111 -2.18624 0
M  V30 4951 C 479.891 -3.39976 -2.88673 0
M  V30 4952 C 480.592 -5.38247 -2.20601 0
M  V30 4953 N 479.568 -4.77322 -2.60124 0
M  V30 4954 H 483.37 -2.76486 -0.996642 0
M  V30 4955 H 480.884 -1.55896 -0.454994 0
M  V30 4956 H 482.881 -2.37057 -3.42942 0
M  V30 4957 H 481.541 -1.28185 -2.98327 0
M  V30 4958 H 482.552 -4.81726 -1.9016 0
M  V30 4959 H 479.229 -2.61815 -3.25206 0
M  V30 4960 H 480.619 -6.43657 -1.92756 0
M  V30 4961 N 483.339 0.512053 -1.4905 0
M  V30 4962 C 484.587 1.26436 -1.57665 0
M  V30 4963 C 484.908 1.93255 -0.260293 0
M  V30 4964 O 484.178 1.82206 0.719564 0
M  V30 4965 H 482.758 0.469658 -0.580888 0
M  V30 4966 H 485.42 0.594398 -1.85615 0
M  V30 4967 H 484.516 2.03417 -2.36702 0
M  V30 4968 N 484.817 1.37938 0.762283 0
M  V30 4969 C 485.747 1.37176 1.88958 0
M  V30 4970 C 486.728 0.238945 1.68413 0
M  V30 4971 O 487.913 0.440726 1.89133 0
M  V30 4972 C 485.043 1.18742 3.2637 0
M  V30 4973 C 483.997 2.29136 3.61498 0
M  V30 4974 C 483.323 1.95816 4.97554 0
M  V30 4975 C 484.623 3.71363 3.6727 0
M  V30 4976 H 486.317 2.31509 1.89853 0
M  V30 4977 H 483.863 1.11438 0.912005 0
M  V30 4978 H 485.816 1.16837 4.04879 0
M  V30 4979 H 484.54 0.208683 3.25933 0
M  V30 4980 H 483.199 2.30213 2.85303 0
M  V30 4981 H 482.847 0.964475 4.93667 0
M  V30 4982 H 482.547 2.69745 5.22026 0
M  V30 4983 H 484.071 1.95513 5.78452 0
M  V30 4984 H 485.485 3.72364 4.35911 0
M  V30 4985 H 483.882 4.44425 4.03245 0
M  V30 4986 H 484.952 4.04305 2.67704 0
M  V30 4987 N 486.295 -0.989507 1.22664 0
M  V30 4988 C 487.544 -1.72375 1.04737 0
M  V30 4989 C 487.857 -1.91096 -0.417316 0
M  V30 4990 O 489.063 -2.6188 -0.716334 0
M  V30 4991 C 487.519 -3.10161 1.82561 0
M  V30 4992 C 487.127 -2.99358 3.333 0
M  V30 4993 C 488.871 -3.87607 1.73093 0
M  V30 4994 C 486.778 -4.32319 4.03552 0
M  V30 4995 H 485.708 -0.646326 0.388302 0
M  V30 4996 H 488.359 -1.10437 1.46546 0
M  V30 4997 H 486.741 -3.728 1.33552 0
M  V30 4998 H 487.915 -2.45863 3.89728 0
M  V30 4999 H 486.23 -2.35392 3.43481 0
M  V30 5000 H 488.827 -4.86025 2.22899 0
M  V30 5001 H 489.17 -4.10509 0.691976 0
M  V30 5002 H 489.703 -3.31652 2.19663 0
M  V30 5003 H 486.442 -4.14616 5.07714 0
M  V30 5004 H 485.962 -4.85714 3.51911 0
M  V30 5005 H 487.641 -5.01051 4.09337 0
M  V30 5006 N 487.773 -1.03688 -1.18687 0
M  V30 5007 C 488.706 -0.569112 -2.2099 0
M  V30 5008 C 489.684 0.394315 -1.57746 0
M  V30 5009 O 490.868 0.309519 -1.85941 0
M  V30 5010 C 487.995 0.169104 -3.38278 0
M  V30 5011 C 487.041 -0.746989 -4.19908 0
M  V30 5012 S 487.874 -2.22773 -4.86963 0
M  V30 5013 C 489.03 -1.50025 -6.07654 0
M  V30 5014 H 489.263 -1.43589 -2.60326 0
M  V30 5015 H 486.796 -0.847507 -1.29061 0
M  V30 5016 H 488.754 0.588868 -4.06254 0
M  V30 5017 H 487.415 1.01172 -2.9736 0
M  V30 5018 H 486.608 -0.176626 -5.0369 0
M  V30 5019 H 486.21 -1.10543 -3.5729 0
M  V30 5020 H 488.502 -0.791217 -6.72864 0
M  V30 5021 H 489.445 -2.31498 -6.69189 0
M  V30 5022 H 489.853 -0.994245 -5.55675 0
M  V30 5023 N 489.251 1.34841 -0.815825 0
M  V30 5024 C 490.181 2.32187 -0.247298 0
M  V30 5025 C 491.162 1.5791 0.632344 0
M  V30 5026 O 492.347 1.8593 0.560698 0
M  V30 5027 C 489.477 3.42122 0.597466 0
M  V30 5028 C 488.431 4.27602 -0.184446 0
M  V30 5029 C 487.757 5.28942 0.782609 0
M  V30 5030 C 489.057 5.03502 -1.38865 0
M  V30 5031 H 490.751 2.79985 -1.06061 0
M  V30 5032 H 488.297 1.34611 -0.511461 0
M  V30 5033 H 490.25 4.09232 1.00533 0
M  V30 5034 H 488.974 2.92956 1.44376 0
M  V30 5035 H 487.633 3.62085 -0.573592 0
M  V30 5036 H 487.281 4.7604 1.62466 0
M  V30 5037 H 486.981 5.87008 0.263695 0
M  V30 5038 H 488.505 5.98922 1.18848 0
M  V30 5039 H 489.919 5.63506 -1.05518 0
M  V30 5040 H 488.316 5.71108 -1.8427 0
M  V30 5041 H 489.386 4.33608 -2.17054 0
M  V30 5042 N 490.729 0.570148 1.46925 0
M  V30 5043 C 491.662 -0.218362 2.27153 0
M  V30 5044 C 492.64 -0.90847 1.34854 0
M  V30 5045 O 493.824 -0.924875 1.64251 0
M  V30 5046 C 490.951 -1.3122 3.12248 0
M  V30 5047 C 489.997 -0.729277 4.20219 0
M  V30 5048 S 490.83 0.434159 5.33737 0
M  V30 5049 C 491.986 -0.661188 6.22398 0
M  V30 5050 H 492.219 0.462393 2.93682 0
M  V30 5051 H 489.752 0.356753 1.50222 0
M  V30 5052 H 491.71 -1.93856 3.61842 0
M  V30 5053 H 490.371 -1.96485 2.45056 0
M  V30 5054 H 489.564 -1.5511 4.79538 0
M  V30 5055 H 489.166 -0.178836 3.73572 0
M  V30 5056 H 491.458 -1.55006 6.5953 0
M  V30 5057 H 492.401 -0.105046 7.08022 0
M  V30 5058 H 492.809 -0.959682 5.56283 0
M  V30 5059 N 492.207 -1.54576 0.307264 0
M  V30 5060 C 493.455 -1.99867 -0.299574 0
M  V30 5061 C 493.776 -1.19714 -1.53927 0
M  V30 5062 O 493.046 -0.29472 -1.9367 0
M  V30 5063 H 491.626 -0.738299 -0.113683 0
M  V30 5064 H 494.288 -1.9032 0.420042 0
M  V30 5065 H 493.384 -3.06901 -0.567283 0
M  V30 5066 N 493.685 -0.035106 -1.57561 0
M  V30 5067 C 494.632 0.94474 -2.10578 0
M  V30 5068 C 495.602 1.3192 -1.00927 0
M  V30 5069 O 496.787 1.41147 -1.28382 0
M  V30 5070 C 493.927 2.21982 -2.64231 0
M  V30 5071 C 493.04 1.90128 -3.87911 0
M  V30 5072 C 492.175 3.11975 -4.29936 0
M  V30 5073 C 491.214 2.75968 -5.46359 0
M  V30 5074 N 490.351 3.90459 -5.83512 0
M  V30 5075 H 495.191 0.485717 -2.94015 0
M  V30 5076 H 492.728 0.228143 -1.4532 0
M  V30 5077 H 494.686 2.96572 -2.9343 0
M  V30 5078 H 493.316 2.6549 -1.83616 0
M  V30 5079 H 492.368 1.05755 -3.65404 0
M  V30 5080 H 493.68 1.59613 -4.72573 0
M  V30 5081 H 492.834 3.9488 -4.60603 0
M  V30 5082 H 491.573 3.45657 -3.44053 0
M  V30 5083 H 490.578 1.91478 -5.1538 0
M  V30 5084 H 491.803 2.43497 -6.33945 0
M  V30 5085 H 489.749 4.23971 -5.00584 0
M  V30 5086 H 489.666 3.63588 -6.62827 0
M  V30 5087 H 490.934 4.7405 -6.18787 0
M  V30 5088 N 495.163 1.55791 0.238111 0
M  V30 5089 C 496.411 1.77681 0.963001 0
M  V30 5090 C 496.732 0.600674 1.85518 0
M  V30 5091 O 496.002 -0.383182 1.92116 0
M  V30 5092 H 494.582 0.655315 0.358568 0
M  V30 5093 H 497.244 1.93239 0.253945 0
M  V30 5094 H 496.34 2.69177 1.57956 0
M  V30 5095 N 496.642 -0.504142 1.49319 0
M  V30 5096 C 497.89 -1.25598 1.58334 0
M  V30 5097 C 498.211 -1.93114 0.270538 0
M  V30 5098 O 497.481 -1.82585 -0.709891 0
M  V30 5099 H 496.061 -0.466571 0.58337 0
M  V30 5100 H 498.723 -0.584547 1.85928 0
M  V30 5101 H 497.819 -2.02159 2.37778 0
M  V30 5102 N 498.12 -1.38341 -0.754957 0
M  V30 5103 C 499.366 -1.34672 -1.51628 0
M  V30 5104 C 499.699 0.0636036 -1.94096 0
M  V30 5105 O 498.974 1.0245 -1.6533 0
M  V30 5106 C 499.257 -2.30116 -2.76981 0
M  V30 5107 C 499.11 -3.80003 -2.4066 0
M  V30 5108 C 500.429 -2.23715 -3.78998 0
M  V30 5109 H 497.548 -0.490517 -0.550056 0
M  V30 5110 H 500.19 -1.69178 -0.864807 0
M  V30 5111 H 498.34 -2.00821 -3.3257 0
M  V30 5112 H 500.012 -4.19966 -1.90856 0
M  V30 5113 H 498.255 -3.97751 -1.73137 0
M  V30 5114 H 498.926 -4.42244 -3.30339 0
M  V30 5115 H 501.402 -2.49574 -3.32945 0
M  V30 5116 H 500.278 -2.9261 -4.64403 0
M  V30 5117 H 500.539 -1.23554 -4.24484 0
M  V30 5118 N 499.598 0.982988 -1.23187 0
M  V30 5119 C 500.846 1.72052 -1.06031 0
M  V30 5120 C 501.167 1.90769 0.404019 0
M  V30 5121 O 500.437 1.47446 1.28982 0
M  V30 5122 H 499.017 0.637499 -0.389363 0
M  V30 5123 H 501.679 1.18338 -1.54862 0
M  V30 5124 H 500.775 2.7111 -1.54615 0
M  V30 5125 N 501.076 1.04316 1.18135 0
M  V30 5126 C 502.023 0.636398 2.21853 0
M  V30 5127 C 502.993 -0.357039 1.62217 0
M  V30 5128 O 504.178 -0.250453 1.89149 0
M  V30 5129 C 501.318 0.00812779 3.45099 0
M  V30 5130 C 500.431 1.04933 4.19062 0
M  V30 5131 C 499.566 0.389313 5.29771 0
M  V30 5132 C 498.605 1.41544 5.9551 0
M  V30 5133 N 497.742 0.78021 6.97751 0
M  V30 5134 H 502.582 1.52536 2.56002 0
M  V30 5135 H 500.119 0.76304 1.25762 0
M  V30 5136 H 502.077 -0.373497 4.15525 0
M  V30 5137 H 500.707 -0.844336 3.11562 0
M  V30 5138 H 499.759 1.54888 3.47439 0
M  V30 5139 H 501.071 1.82862 4.64072 0
M  V30 5140 H 500.225 -0.0463805 6.06682 0
M  V30 5141 H 498.964 -0.422038 4.8587 0
M  V30 5142 H 497.969 1.86124 5.17337 0
M  V30 5143 H 499.194 2.22854 6.41493 0
M  V30 5144 H 497.14 -0.0107899 6.55999 0
M  V30 5145 H 497.057 1.49716 7.41027 0
M  V30 5146 H 498.325 0.368996 7.78626 0
M  V30 5147 N 502.554 -1.34406 0.822964 0
M  V30 5148 C 503.782 -2.02508 0.424039 0
M  V30 5149 C 504.197 -1.61975 -0.970022 0
M  V30 5150 O 503.554 -0.825228 -1.62777 0
M  V30 5151 C 503.605 -3.57789 0.516657 0
M  V30 5152 O 503.326 -3.96853 1.85577 0
M  V30 5153 C 504.827 -4.43157 0.112637 0
M  V30 5154 H 502.047 -0.649063 0.170173 0
M  V30 5155 H 504.591 -1.7168 1.11113 0
M  V30 5156 H 502.746 -3.87207 -0.122353 0
M  V30 5157 H 503.16 -4.91538 1.83005 0
M  V30 5158 H 504.634 -5.51527 0.228526 0
M  V30 5159 H 505.111 -4.28939 -0.943837 0
M  V30 5160 H 505.717 -4.19067 0.725449 0
M  V30 5161 N 504.032 -0.577932 -1.46621 0
M  V30 5162 C 505.26 -0.0671642 -2.06791 0
M  V30 5163 C 505.675 1.23571 -1.42743 0
M  V30 5164 O 505.032 1.74602 -0.531062 0
M  V30 5165 C 505.083 0.110357 -3.61332 0
M  V30 5166 O 504.804 -1.14095 -4.22982 0
M  V30 5167 C 506.305 0.656025 -4.38419 0
M  V30 5168 H 503.525 -0.0552732 -0.66872 0
M  V30 5169 H 506.069 -0.797242 -1.8832 0
M  V30 5170 H 504.224 0.790637 -3.79246 0
M  V30 5171 H 504.638 -0.951742 -5.15793 0
M  V30 5172 H 506.112 0.729438 -5.47159 0
M  V30 5173 H 506.589 1.67195 -4.06131 0
M  V30 5174 H 507.195 0.0107692 -4.25299 0
M  V30 5175 N 505.51 1.54411 -0.315457 0
M  V30 5176 C 506.443 2.20265 0.596522 0
M  V30 5177 C 507.421 1.17693 1.12192 0
M  V30 5178 O 508.605 1.46397 1.18744 0
M  V30 5179 C 505.732 2.85794 1.81767 0
M  V30 5180 C 504.778 4.02017 1.42424 0
M  V30 5181 S 505.611 5.33452 0.467836 0
M  V30 5182 C 506.767 6.02471 1.69645 0
M  V30 5183 H 507 2.97277 0.0370896 0
M  V30 5184 H 504.533 1.54079 -0.0995562 0
M  V30 5185 H 506.491 3.24172 2.51839 0
M  V30 5186 H 505.152 2.08601 2.34828 0
M  V30 5187 H 504.345 4.46701 2.33396 0
M  V30 5188 H 503.947 3.65271 0.803311 0
M  V30 5189 H 506.239 6.24157 2.63504 0
M  V30 5190 H 507.182 6.96215 1.29192 0
M  V30 5191 H 507.59 5.32284 1.87974 0
M  V30 5192 N 506.988 0.0434614 1.5754 0
M  V30 5193 C 507.951 -0.918696 2.09982 0
M  V30 5194 C 508.951 -1.24488 1.01781 0
M  V30 5195 O 510.141 -1.18284 1.27885 0
M  V30 5196 C 507.273 -2.23093 2.57764 0
M  V30 5197 H 508.466 -0.464229 2.96285 0
M  V30 5198 H 506.019 -0.204818 1.54952 0
M  V30 5199 H 506.754 -2.73137 1.74832 0
M  V30 5200 H 506.539 -2.00724 3.36827 0
M  V30 5201 H 508.029 -2.92028 2.98512 0
M  V30 5202 N 508.466 -1.55915 -0.229846 0
M  V30 5203 C 509.429 -1.90914 -1.26824 0
M  V30 5204 C 510.429 -0.786999 -1.40225 0
M  V30 5205 O 511.619 -1.05484 -1.38632 0
M  V30 5206 C 508.751 -2.15264 -2.64337 0
M  V30 5207 H 509.944 -2.8378 -0.969998 0
M  V30 5208 H 507.497 -1.49069 -0.4699 0
M  V30 5209 H 508.232 -1.24923 -2.99274 0
M  V30 5210 H 508.017 -2.97005 -2.55989 0
M  V30 5211 H 509.507 -2.43467 -3.39284 0
M  V30 5212 N 509.944 0.496216 -1.49584 0
M  V30 5213 C 510.907 1.57952 -1.66084 0
M  V30 5214 C 511.907 1.51729 -0.53244 0
M  V30 5215 O 513.097 1.54796 -0.79899 0
M  V30 5216 C 510.229 2.97604 -1.66268 0
M  V30 5217 H 511.422 1.44649 -2.6271 0
M  V30 5218 H 508.975 0.7208 -1.38687 0
M  V30 5219 H 509.71 3.16378 -0.712432 0
M  V30 5220 H 509.495 3.03528 -2.4822 0
M  V30 5221 H 510.985 3.76301 -1.81073 0
M  V30 5222 N 511.423 1.38739 0.74761 0
M  V30 5223 C 512.672 1.3459 1.50228 0
M  V30 5224 C 512.985 -0.0595592 1.95509 0
M  V30 5225 O 514.191 -0.22361 2.70578 0
M  V30 5226 C 512.647 2.36377 2.71393 0
M  V30 5227 C 512.255 3.82573 2.33113 0
M  V30 5228 C 513.999 2.41281 3.49262 0
M  V30 5229 C 511.906 4.76032 3.50924 0
M  V30 5230 H 510.836 0.500312 0.564096 0
M  V30 5231 H 513.487 1.64324 0.8167 0
M  V30 5232 H 511.869 1.99694 3.41962 0
M  V30 5233 H 513.043 4.28227 1.70171 0
M  V30 5234 H 511.358 3.80844 1.68365 0
M  V30 5235 H 513.955 3.08301 4.36869 0
M  V30 5236 H 514.298 1.43353 3.9084 0
M  V30 5237 H 514.831 2.76793 2.85711 0
M  V30 5238 H 511.57 5.75177 3.14408 0
M  V30 5239 H 511.09 4.35066 4.12889 0
M  V30 5240 H 512.769 4.94331 4.17427 0
M  V30 5241 N 512.901 -0.976442 1.23707 0
M  V30 5242 C 513.864 -2.0511 1.02287 0
M  V30 5243 C 514.864 -1.60791 -0.0167195 0
M  V30 5244 O 516.054 -1.72761 0.223408 0
M  V30 5245 C 513.186 -3.36458 0.548507 0
M  V30 5246 H 514.379 -2.25545 1.9766 0
M  V30 5247 H 511.932 -1.15042 1.05806 0
M  V30 5248 H 512.667 -3.21713 -0.408818 0
M  V30 5249 H 512.452 -3.69967 1.29874 0
M  V30 5250 H 513.942 -4.15489 0.419406 0
M  V30 5251 N 514.379 -1.04941 -1.1758 0
M  V30 5252 C 515.625 -0.759112 -1.88057 0
M  V30 5253 C 515.958 0.711918 -1.8068 0
M  V30 5254 O 515.233 1.52035 -1.21308 0
M  V30 5255 C 515.516 -1.237 -3.38187 0
M  V30 5256 C 515.369 -2.77078 -3.54327 0
M  V30 5257 C 516.688 -0.834014 -4.32125 0
M  V30 5258 H 513.807 -0.277237 -0.682868 0
M  V30 5259 H 516.449 -1.30296 -1.38286 0
M  V30 5260 H 514.599 -0.774337 -3.80705 0
M  V30 5261 H 516.271 -3.31449 -3.20842 0
M  V30 5262 H 514.514 -3.16477 -2.96689 0
M  V30 5263 H 515.185 -3.05577 -4.59703 0
M  V30 5264 H 517.661 -1.23228 -3.97434 0
M  V30 5265 H 516.537 -1.19603 -5.35711 0
M  V30 5266 H 516.798 0.262195 -4.41322 0
M  V30 5267 N 515.857 1.33968 -0.830081 0
M  V30 5268 C 517.273 1.51003 -0.516742 0
M  V30 5269 C 517.473 1.77286 0.957694 0
M  V30 5270 O 516.529 1.82797 1.74188 0
M  V30 5271 C 517.842 2.67036 -1.38247 0
M  V30 5272 C 519.39 2.80919 -1.38034 0
M  V30 5273 C 519.865 4.00004 -2.23071 0
M  V30 5274 N 521.356 4.07224 -2.20733 0
M  V30 5275 C 522.091 4.98541 -2.83275 0
M  V30 5276 N 521.587 5.95033 -3.54835 0
M  V30 5277 N 523.38 4.91469 -2.72791 0
M  V30 5278 H 515.531 1.15168 -1.78466 0
M  V30 5279 H 517.794 0.565443 -0.760906 0
M  V30 5280 H 517.5 2.54266 -2.42985 0
M  V30 5281 H 517.374 3.62226 -1.05225 0
M  V30 5282 H 519.761 2.93127 -0.340713 0
M  V30 5283 H 519.842 1.86517 -1.75057 0
M  V30 5284 H 519.486 3.88557 -3.27087 0
M  V30 5285 H 519.416 4.93634 -1.83394 0
M  V30 5286 H 521.907 3.38162 -1.68687 0
M  V30 5287 H 522.22 6.61357 -3.99784 0
M  V30 5288 H 520.565 5.95135 -3.58942 0
M  V30 5289 H 523.756 4.15048 -2.16456 0
M  V30 5290 H 523.929 5.62439 -3.21818 0
M  V30 5291 N 517.335 0.585699 1.46312 0
M  V30 5292 C 518.265 -0.133556 2.33118 0
M  V30 5293 C 519.246 -0.880707 1.45525 0
M  V30 5294 O 520.431 -0.855579 1.74337 0
M  V30 5295 C 517.561 -1.14585 3.27853 0
M  V30 5296 C 516.515 -0.513341 4.2491 0
M  V30 5297 C 515.841 -1.63231 5.09175 0
M  V30 5298 C 517.141 0.551413 5.19381 0
M  V30 5299 H 518.835 0.59121 2.93505 0
M  V30 5300 H 516.381 0.285761 1.41136 0
M  V30 5301 H 518.334 -1.65741 3.87438 0
M  V30 5302 H 517.058 -1.90093 2.65579 0
M  V30 5303 H 515.717 -0.0228349 3.66593 0
M  V30 5304 H 515.365 -2.37713 4.43285 0
M  V30 5305 H 515.065 -1.21473 5.74907 0
M  V30 5306 H 516.589 -2.14658 5.71624 0
M  V30 5307 H 518.003 0.124804 5.73164 0
M  V30 5308 H 516.4 0.889486 5.93471 0
M  V30 5309 H 517.47 1.43655 4.63132 0
M  V30 5310 N 518.813 -1.54241 0.323641 0
M  V30 5311 C 519.776 -2.22997 -0.529602 0
M  V30 5312 C 520.776 -1.22345 -1.04347 0
M  V30 5313 O 521.966 -1.46924 -0.935889 0
M  V30 5314 C 519.098 -2.93409 -1.73562 0
M  V30 5315 H 520.291 -2.99815 0.0714518 0
M  V30 5316 H 517.844 -1.56121 0.0747258 0
M  V30 5317 H 518.579 -2.20729 -2.37591 0
M  V30 5318 H 518.364 -3.67217 -1.37456 0
M  V30 5319 H 519.854 -3.45794 -2.34128 0
M  V30 5320 N 520.291 -0.0518155 -1.57515 0
M  V30 5321 C 521.568 0.661727 -1.84067 0
M  V30 5322 C 521.948 1.88999 -0.940351 0
M  V30 5323 O 521.296 2.285 -0.00155404 0
M  V30 5324 C 521.506 1.01841 -3.3381 0
M  V30 5325 C 522.854 1.40043 -4.00841 0
M  V30 5326 O 523.878 1.11073 -3.38439 0
M  V30 5327 O 522.737 1.94111 -5.10865 0
M  V30 5328 H 519.831 0.326702 -0.759733 0
M  V30 5329 H 522.377 -0.0812277 -1.69505 0
M  V30 5330 H 521.149 0.145202 -3.91031 0
M  V30 5331 H 520.772 1.81879 -3.53562 0
M  V30 5332 N 521.769 1.56035 0.221574 0
M  V30 5333 C 522.702 1.87427 1.30178 0
M  V30 5334 C 523.68 0.731658 1.45209 0
M  V30 5335 O 524.864 0.980016 1.61022 0
M  V30 5336 C 521.991 2.08127 2.67209 0
M  V30 5337 C 521.037 3.30813 2.69194 0
M  V30 5338 S 521.87 4.86738 2.23263 0
M  V30 5339 C 523.026 5.10474 3.62171 0
M  V30 5340 H 523.259 2.78756 1.03355 0
M  V30 5341 H 520.792 1.48469 0.423813 0
M  V30 5342 H 522.75 2.20736 3.46101 0
M  V30 5343 H 521.411 1.17595 2.91256 0
M  V30 5344 H 520.604 3.42341 3.6989 0
M  V30 5345 H 520.206 3.1706 1.98366 0
M  V30 5346 H 522.498 4.9937 4.5786 0
M  V30 5347 H 523.441 6.12359 3.55558 0
M  V30 5348 H 523.849 4.38208 3.55857 0
M  V30 5349 N 523.247 -0.488276 1.49845 0
M  V30 5350 C 524.495 -1.23911 1.59657 0
M  V30 5351 C 524.816 -1.92816 0.291005 0
M  V30 5352 O 524.086 -1.83328 -0.690485 0
M  V30 5353 H 522.666 -0.460357 0.588286 0
M  V30 5354 H 525.328 -0.564794 1.86537 0
M  V30 5355 H 524.424 -1.99625 2.39909 0
M  V30 5356 N 524.725 -1.39134 -0.740242 0
M  V30 5357 C 525.972 -1.36071 -1.49969 0
M  V30 5358 C 526.3 0.0450245 -1.94448 0
M  V30 5359 O 525.555 1.02482 -1.66721 0
M  V30 5360 C 525.854 -2.27457 -2.75678 0
M  V30 5361 C 525.52 -3.75185 -2.50094 0
M  V30 5362 C 524.182 -4.15439 -2.42825 0
M  V30 5363 C 526.534 -4.68643 -2.28086 0
M  V30 5364 C 523.862 -5.4722 -2.11584 0
M  V30 5365 C 526.214 -6.00695 -1.98363 0
M  V30 5366 C 524.878 -6.40018 -1.8956 0
M  V30 5367 H 524.148 -0.497921 -0.548777 0
M  V30 5368 H 526.795 -1.71599 -0.85007 0
M  V30 5369 H 525.1 -1.8503 -3.45356 0
M  V30 5370 H 526.797 -2.22384 -3.33686 0
M  V30 5371 H 523.387 -3.43279 -2.56627 0
M  V30 5372 H 527.571 -4.3838 -2.32672 0
M  V30 5373 H 522.827 -5.76615 -2.03287 0
M  V30 5374 H 527.001 -6.72644 -1.80341 0
M  V30 5375 H 524.628 -7.42051 -1.65117 0
M  V30 5376 N 526.204 0.969867 -1.24223 0
M  V30 5377 C 527.481 1.68774 -0.988664 0
M  V30 5378 C 527.861 2.05342 0.489673 0
M  V30 5379 O 527.209 1.75486 1.46345 0
M  V30 5380 C 527.419 2.92135 -1.90941 0
M  V30 5381 C 528.767 3.64422 -2.17903 0
M  V30 5382 O 529.791 3.02188 -1.88576 0
M  V30 5383 O 528.65 4.76446 -2.67697 0
M  V30 5384 H 525.744 0.737736 -0.37373 0
M  V30 5385 H 528.29 1.02415 -1.35312 0
M  V30 5386 H 527.062 2.61788 -2.90831 0
M  V30 5387 H 526.685 3.66228 -1.54798 0
M  V30 5388 N 527.682 1.05563 1.17022 0
M  V30 5389 C 528.928 0.769074 1.87652 0
M  V30 5390 C 529.261 -0.702326 1.81055 0
M  V30 5391 O 528.536 -1.5139 1.22112 0
M  V30 5392 C 528.819 1.25492 3.37526 0
M  V30 5393 C 528.672 2.78953 3.52853 0
M  V30 5394 C 529.991 0.856919 4.31677 0
M  V30 5395 H 527.11 0.280854 0.681388 0
M  V30 5396 H 529.752 1.31027 1.37593 0
M  V30 5397 H 527.902 0.794516 3.80289 0
M  V30 5398 H 529.574 3.33146 3.19079 0
M  V30 5399 H 527.817 3.18046 2.95007 0
M  V30 5400 H 528.488 3.08011 4.58076 0
M  V30 5401 H 530.964 1.25334 3.96775 0
M  V30 5402 H 529.84 1.22443 5.35069 0
M  V30 5403 H 530.101 -0.238787 4.41455 0
M  V30 5404 N 529.16 -1.33526 0.837174 0
M  V30 5405 C 530.11 -2.2672 0.241269 0
M  V30 5406 C 531.094 -1.49183 -0.602756 0
M  V30 5407 O 532.286 -1.71052 -0.455002 0
M  V30 5408 C 529.415 -3.38294 -0.584125 0
M  V30 5409 C 528.501 -4.23231 0.271315 0
M  V30 5410 N 528.892 -4.87473 1.34922 0
M  V30 5411 C 527.19 -4.45962 0.0580589 0
M  V30 5412 C 527.891 -5.50685 1.87405 0
M  V30 5413 N 526.867 -5.30732 1.17578 0
M  V30 5414 H 530.669 -2.73903 1.06558 0
M  V30 5415 H 528.183 -1.47411 0.68145 0
M  V30 5416 H 530.18 -4.04044 -1.02731 0
M  V30 5417 H 528.84 -2.9266 -1.40643 0
M  V30 5418 H 529.851 -4.88077 1.7321 0
M  V30 5419 H 526.528 -4.11052 -0.730938 0
M  V30 5420 H 527.918 -6.11845 2.77661 0
M  V30 5421 N 530.638 -0.59345 -1.46 0
M  V30 5422 C 531.568 0.121192 -2.33185 0
M  V30 5423 C 532.549 0.872977 -1.4599 0
M  V30 5424 O 533.734 0.846321 -1.74789 0
M  V30 5425 C 530.864 1.12844 -3.28456 0
M  V30 5426 C 529.818 0.4908 -4.25177 0
M  V30 5427 C 529.144 1.60529 -5.10034 0
M  V30 5428 C 530.444 -0.578949 -5.19081 0
M  V30 5429 H 532.138 -0.606767 -2.93187 0
M  V30 5430 H 529.684 -0.293242 -1.40983 0
M  V30 5431 H 531.637 1.63684 -3.88311 0
M  V30 5432 H 530.361 1.88681 -2.66584 0
M  V30 5433 H 529.02 0.00339328 -3.666 0
M  V30 5434 H 528.668 2.35359 -4.44539 0
M  V30 5435 H 528.368 1.18422 -5.75543 0
M  V30 5436 H 529.892 2.11623 -5.72755 0
M  V30 5437 H 531.306 -0.155199 -5.7309 0
M  V30 5438 H 529.703 -0.920947 -5.92991 0
M  V30 5439 H 530.773 -1.46109 -4.62364 0
M  V30 5440 N 532.116 1.54067 -0.331816 0
M  V30 5441 C 533.344 2.05131 0.269996 0
M  V30 5442 C 533.759 1.20749 1.45138 0
M  V30 5443 O 533.116 0.240069 1.80914 0
M  V30 5444 C 533.167 3.54728 0.696456 0
M  V30 5445 O 532.888 4.35906 -0.43794 0
M  V30 5446 C 534.389 4.21916 1.36021 0
M  V30 5447 H 531.609 0.668807 0.0542042 0
M  V30 5448 H 534.153 1.98777 -0.4804 0
M  V30 5449 H 532.308 3.61342 1.39681 0
M  V30 5450 H 532.722 5.24404 -0.100334 0
M  V30 5451 H 534.196 5.28015 1.60947 0
M  V30 5452 H 534.673 3.73538 2.31011 0
M  V30 5453 H 535.279 4.19463 0.702212 0
M  V30 5454 N 533.594 0.0601682 1.57485 0
M  V30 5455 C 534.822 -0.620937 1.97363 0
M  V30 5456 C 535.237 -1.63846 0.938082 0
M  V30 5457 O 534.594 -1.82339 -0.0766578 0
M  V30 5458 C 534.645 -1.29987 3.37321 0
M  V30 5459 O 534.366 -0.323081 4.36907 0
M  V30 5460 C 535.867 -2.06989 3.92008 0
M  V30 5461 H 533.087 -0.169135 0.649334 0
M  V30 5462 H 535.631 0.129132 2.04092 0
M  V30 5463 H 533.786 -2.0011 3.31715 0
M  V30 5464 H 534.2 -0.808754 5.18227 0
M  V30 5465 H 535.674 -2.49901 4.92192 0
M  V30 5466 H 536.151 -2.92173 3.2792 0
M  V30 5467 H 536.757 -1.41757 4.0098 0
M  V30 5468 N 535.072 -1.5615 -0.213296 0
M  V30 5469 C 536.297 -1.83986 -0.957282 0
M  V30 5470 C 536.722 -0.641526 -1.76822 0
M  V30 5471 O 536.08 0.409722 -1.7661 0
M  V30 5472 C 536.128 -3.09889 -1.84393 0
M  V30 5473 O 535.232 -2.89163 -2.94038 0
M  V30 5474 H 534.573 -0.606357 -0.270605 0
M  V30 5475 H 537.103 -2.03369 -0.224111 0
M  V30 5476 H 537.113 -3.40209 -2.25215 0
M  V30 5477 H 535.788 -3.96735 -1.24795 0
M  V30 5478 H 534.365 -2.70097 -2.57103 0
M  V30 5479 N 536.55 0.480323 -1.50102 0
M  V30 5480 C 537.827 1.24159 -1.51142 0
M  V30 5481 C 538.207 2.09605 -0.250818 0
M  V30 5482 O 537.555 2.15274 0.766118 0
M  V30 5483 C 537.765 2.08057 -2.80202 0
M  V30 5484 C 539.113 2.66556 -3.30504 0
M  V30 5485 O 540.137 2.18308 -2.81461 0
M  V30 5486 O 538.996 3.54442 -4.15973 0
M  V30 5487 H 536.09 0.562928 -0.605839 0
M  V30 5488 H 538.636 0.492899 -1.62384 0
M  V30 5489 H 537.408 1.45032 -3.6343 0
M  V30 5490 H 537.031 2.90079 -2.71919 0
M  V30 5491 N 538.028 1.39524 0.732853 0
M  V30 5492 C 539.439 1.32905 1.31122 0
M  V30 5493 C 539.79 -0.00558708 1.96199 0
M  V30 5494 O 538.915 -0.907706 1.96443 0
M  V30 5495 C 539.51 2.40704 2.38426 0
M  V30 5496 C 538.069 2.37599 2.91931 0
M  V30 5497 C 537.216 2.2248 1.65523 0
M  V30 5498 H 540.167 1.49581 0.530207 0
M  V30 5499 H 540.188 2.07616 3.18867 0
M  V30 5500 H 539.7 3.37829 1.91033 0
M  V30 5501 H 537.801 1.44119 3.43599 0
M  V30 5502 H 537.914 3.32538 3.44899 0
M  V30 5503 H 536.278 1.69691 1.8994 0
M  V30 5504 H 537.061 3.21577 1.20178 0
M  V30 5505 N 539.506 -0.963266 1.24736 0
M  V30 5506 C 540.469 -2.04013 1.04457 0
M  V30 5507 C 541.469 -1.608 0.000335555 0
M  V30 5508 O 542.659 -1.72515 0.241719 0
M  V30 5509 C 539.791 -3.35858 0.584162 0
M  V30 5510 H 540.984 -2.23436 2.00041 0
M  V30 5511 H 538.537 -1.13914 1.07021 0
M  V30 5512 H 539.272 -3.22128 -0.374673 0
M  V30 5513 H 539.057 -3.68568 1.3379 0
M  V30 5514 H 540.547 -4.1502 0.463451 0
M  V30 5515 N 540.985 -1.06182 -1.16461 0
M  V30 5516 C 541.948 -0.675723 -2.19013 0
M  V30 5517 C 542.948 0.277963 -1.58379 0
M  V30 5518 O 544.138 0.0604962 -1.74095 0
M  V30 5519 C 541.27 0.00591459 -3.40899 0
M  V30 5520 H 542.463 -1.58353 -2.54685 0
M  V30 5521 H 540.016 -0.856908 -1.30716 0
M  V30 5522 H 540.751 0.92652 -3.10783 0
M  V30 5523 H 540.536 -0.67984 -3.86161 0
M  V30 5524 H 542.026 0.26181 -4.16778 0
M  V30 5525 N 542.463 1.3308 -0.844243 0
M  V30 5526 C 543.413 2.26589 -0.253289 0
M  V30 5527 C 544.397 1.49501 0.594836 0
M  V30 5528 O 545.589 1.71291 0.445924 0
M  V30 5529 C 542.718 3.38599 0.566176 0
M  V30 5530 C 541.804 4.23081 -0.293756 0
M  V30 5531 N 542.195 4.86751 -1.37505 0
M  V30 5532 C 540.493 4.45925 -0.0817086 0
M  V30 5533 C 541.194 5.49684 -1.90323 0
M  V30 5534 N 540.17 5.30101 -1.20391 0
M  V30 5535 H 543.972 2.73334 -1.08009 0
M  V30 5536 H 541.486 1.47048 -0.689258 0
M  V30 5537 H 543.483 4.04584 1.00587 0
M  V30 5538 H 542.143 2.93401 1.39089 0
M  V30 5539 H 543.154 4.87151 -1.75796 0
M  V30 5540 H 539.831 4.11434 0.709129 0
M  V30 5541 H 541.221 6.10363 -2.80902 0
M  V30 5542 N 543.941 0.601185 1.45683 0
M  V30 5543 C 544.871 -0.108824 2.33246 0
M  V30 5544 C 545.852 -0.865223 1.46451 0
M  V30 5545 O 547.037 -0.83704 1.75235 0
M  V30 5546 C 544.167 -1.11101 3.2905 0
M  V30 5547 C 543.121 -0.468244 4.25431 0
M  V30 5548 C 542.447 -1.57822 5.10878 0
M  V30 5549 C 543.747 0.606469 5.18767 0
M  V30 5550 H 545.441 0.622306 2.92861 0
M  V30 5551 H 542.987 0.300714 1.40825 0
M  V30 5552 H 544.94 -1.61622 3.89174 0
M  V30 5553 H 543.664 -1.87265 2.67581 0
M  V30 5554 H 542.323 0.0160484 3.66596 0
M  V30 5555 H 541.971 -2.32998 4.45781 0
M  V30 5556 H 541.671 -1.15369 5.76163 0
M  V30 5557 H 543.195 -2.08583 5.73869 0
M  V30 5558 H 544.609 0.185589 5.73 0
M  V30 5559 H 543.006 0.952381 5.92494 0
M  V30 5560 H 544.076 1.48559 4.61582 0
M  V30 5561 N 545.419 -1.53889 0.339982 0
M  V30 5562 C 546.644 -2.05741 -0.261798 0
M  V30 5563 C 547.069 -1.21354 -1.43718 0
M  V30 5564 O 546.427 -0.22645 -1.7988 0
M  V30 5565 C 546.475 -3.54542 -0.658228 0
M  V30 5566 O 545.579 -3.7302 -1.75869 0
M  V30 5567 H 544.92 -0.662529 -0.0441672 0
M  V30 5568 H 547.45 -1.98568 0.493161 0
M  V30 5569 H 547.46 -3.9711 -0.936368 0
M  V30 5570 H 546.135 -4.15412 0.201358 0
M  V30 5571 H 544.712 -3.42355 -1.47809 0
M  V30 5572 N 546.897 -0.0685191 -1.57451 0
M  V30 5573 C 547.83 0.935736 -2.08133 0
M  V30 5574 C 548.808 1.29317 -0.985698 0
M  V30 5575 O 549.992 1.40304 -1.25886 0
M  V30 5576 C 547.119 2.2448 -2.53627 0
M  V30 5577 C 546.165 2.03917 -3.74593 0
M  V30 5578 S 546.998 1.30154 -5.19442 0
M  V30 5579 C 548.154 2.62346 -5.68265 0
M  V30 5580 H 548.387 0.504473 -2.92989 0
M  V30 5581 H 545.92 0.144169 -1.53725 0
M  V30 5582 H 547.878 2.99718 -2.80499 0
M  V30 5583 H 546.539 2.64731 -1.69045 0
M  V30 5584 H 545.732 3.00788 -4.04404 0
M  V30 5585 H 545.334 1.36815 -3.48077 0
M  V30 5586 H 547.626 3.58448 -5.7491 0
M  V30 5587 H 548.569 2.3715 -6.67207 0
M  V30 5588 H 548.977 2.69401 -4.96068 0
M  V30 5589 N 548.375 1.56261 0.205012 0
M  V30 5590 C 549.603 1.84141 0.943386 0
M  V30 5591 C 550.018 0.649772 1.77266 0
M  V30 5592 O 549.375 -0.381612 1.78466 0
M  V30 5593 C 549.426 3.10719 1.84759 0
M  V30 5594 O 549.147 4.25286 1.05181 0
M  V30 5595 C 550.648 3.51706 2.69848 0
M  V30 5596 H 547.868 0.611734 0.275721 0
M  V30 5597 H 550.412 2.03364 0.215253 0
M  V30 5598 H 548.567 2.93422 2.52947 0
M  V30 5599 H 548.981 4.97301 1.66709 0
M  V30 5600 H 550.455 4.43266 3.28967 0
M  V30 5601 H 550.932 2.7423 3.43067 0
M  V30 5602 H 551.538 3.71499 2.07047 0
M  V30 5603 N 549.853 -0.472356 1.50355 0
M  V30 5604 C 550.783 -1.57859 1.72055 0
M  V30 5605 C 551.764 -1.60283 0.569505 0
M  V30 5606 O 552.949 -1.7657 0.808503 0
M  V30 5607 C 550.079 -2.96191 1.81351 0
M  V30 5608 C 549.033 -3.08633 2.96529 0
M  V30 5609 C 548.359 -4.486 2.90968 0
M  V30 5610 C 549.659 -2.85969 4.37057 0
M  V30 5611 H 551.353 -1.39953 2.64676 0
M  V30 5612 H 548.899 -0.671846 1.27367 0
M  V30 5613 H 550.852 -3.73507 1.95117 0
M  V30 5614 H 549.576 -3.15251 0.853502 0
M  V30 5615 H 548.235 -2.33749 2.82413 0
M  V30 5616 H 547.883 -4.64577 1.92815 0
M  V30 5617 H 547.583 -4.57861 3.68289 0
M  V30 5618 H 549.107 -5.27938 3.0678 0
M  V30 5619 H 550.521 -3.53036 4.51706 0
M  V30 5620 H 548.918 -3.06677 5.15819 0
M  V30 5621 H 549.988 -1.81838 4.49514 0
M  V30 5622 N 551.331 -1.39911 -0.725443 0
M  V30 5623 C 552.279 -1.39552 -1.86086 0
M  V30 5624 C 553.273 -0.277334 -1.67114 0
M  V30 5625 O 554.479 -0.447865 -1.74339 0
M  V30 5626 H 550.854 -0.435993 -0.612711 0
M  V30 5627 H 552.825 -2.35305 -1.83505 0
M  V30 5628 C 551.574 -1.26529 -3.2386 0
M  V30 5629 H 550.897 -2.11845 -3.3906 0
M  V30 5630 H 552.337 -1.30336 -4.03471 0
M  V30 5631 C 550.796 0.0254168 -3.3689 0
M  V30 5632 O 551.326 0.992048 -3.89257 0
M  V30 5633 N 549.532 0.0916528 -2.90455 0
M  V30 5634 H 549.079 -0.695675 -2.48028 0
M  V30 5635 H 549.037 0.954745 -2.99553 0
M  V30 5636 N 552.809 0.956637 -1.25245 0
M  V30 5637 C 554.057 1.69764 -1.09657 0
M  V30 5638 C 554.378 1.91583 0.363464 0
M  V30 5639 O 553.648 1.50149 1.25825 0
M  V30 5640 H 552.228 0.629097 -0.402798 0
M  V30 5641 H 554.89 1.15026 -1.57337 0
M  V30 5642 H 553.986 2.67769 -1.60331 0
M  V30 5643 N 554.287 1.06798 1.15896 0
M  V30 5644 C 555.512 0.808739 1.90982 0
M  V30 5645 C 555.937 -0.6316 1.77179 0
M  V30 5646 O 555.295 -1.4407 1.10061 0
M  V30 5647 C 555.343 1.21468 3.39526 0
M  V30 5648 O 554.447 0.356562 4.10856 0
M  V30 5649 H 553.788 0.29512 0.594811 0
M  V30 5650 H 556.318 1.42513 1.46804 0
M  V30 5651 H 556.328 1.18844 3.90308 0
M  V30 5652 H 555.003 2.26379 3.48891 0
M  V30 5653 H 553.58 0.444808 3.70238 0
M  V30 5654 N 555.766 -1.3263 0.851289 0
M  V30 5655 C 556.696 -2.31449 0.308771 0
M  V30 5656 C 557.677 -1.59531 -0.590255 0
M  V30 5657 O 558.862 -1.87351 -0.511205 0
M  V30 5658 C 555.992 -3.43586 -0.506548 0
M  V30 5659 C 554.946 -4.26963 0.297753 0
M  V30 5660 C 554.272 -5.30831 -0.642094 0
M  V30 5661 C 555.572 -4.99643 1.52166 0
M  V30 5662 H 557.266 -2.77074 1.13447 0
M  V30 5663 H 554.812 -1.33207 0.546971 0
M  V30 5664 H 556.765 -4.11754 -0.896474 0
M  V30 5665 H 555.489 -2.96681 -1.36558 0
M  V30 5666 H 554.148 -3.60437 0.669391 0
M  V30 5667 H 553.796 -4.8018 -1.49788 0
M  V30 5668 H 553.496 -5.87501 -0.107968 0
M  V30 5669 H 555.02 -6.01862 -1.02927 0
M  V30 5670 H 556.434 -5.6051 1.20421 0
M  V30 5671 H 554.831 -5.66022 1.99347 0
M  V30 5672 H 555.901 -4.27701 2.28474 0
M  V30 5673 N 557.244 -0.608902 -1.45362 0
M  V30 5674 C 558.192 0.121639 -2.32282 0
M  V30 5675 C 559.186 0.858301 -1.46046 0
M  V30 5676 O 560.392 0.773718 -1.62523 0
M  V30 5677 H 556.767 0.058086 -0.749753 0
M  V30 5678 H 558.738 -0.629866 -2.91677 0
M  V30 5679 C 557.487 1.1047 -3.29684 0
M  V30 5680 H 556.81 0.547278 -3.96036 0
M  V30 5681 H 558.25 1.58576 -3.9323 0
M  V30 5682 C 556.709 2.17891 -2.56954 0
M  V30 5683 O 557.239 3.25652 -2.35189 0
M  V30 5684 N 555.445 1.93211 -2.17066 0
M  V30 5685 H 554.992 1.05584 -2.34967 0
M  V30 5686 H 554.95 2.6529 -1.68727 0
M  V30 5687 N 558.722 1.53707 -0.348139 0
M  V30 5688 C 559.67 2.26671 0.521808 0
M  V30 5689 C 560.664 1.28988 1.09811 0
M  V30 5690 O 561.87 1.4668 1.04332 0
M  V30 5691 H 558.245 0.728387 0.186968 0
M  V30 5692 H 560.216 2.98176 -0.115563 0
M  V30 5693 C 558.965 3.05591 1.6586 0
M  V30 5694 H 558.288 3.80589 1.22443 0
M  V30 5695 H 559.728 3.59851 2.24239 0
M  V30 5696 C 558.187 2.15366 2.59073 0
M  V30 5697 O 558.717 1.7528 3.61441 0
M  V30 5698 N 556.923 1.80352 2.27863 0
M  V30 5699 H 556.47 2.13149 1.44656 0
M  V30 5700 H 556.428 1.20268 2.90488 0
M  V30 5701 N 560.2 0.0768682 1.57412 0
M  V30 5702 C 561.13 -0.886026 2.16037 0
M  V30 5703 C 562.111 -1.30691 1.08876 0
M  V30 5704 O 563.296 -1.37705 1.36934 0
M  V30 5705 C 560.426 -2.1518 2.72608 0
M  V30 5706 C 559.38 -1.87015 3.8498 0
M  V30 5707 C 558.706 -3.20266 4.28175 0
M  V30 5708 C 560.006 -1.17143 5.08994 0
M  V30 5709 H 561.7 -0.397642 2.96748 0
M  V30 5710 H 559.246 -0.189823 1.42743 0
M  V30 5711 H 561.199 -2.82962 3.12266 0
M  V30 5712 H 559.923 -2.66269 1.89125 0
M  V30 5713 H 558.582 -1.21636 3.45833 0
M  V30 5714 H 558.23 -3.69207 3.41607 0
M  V30 5715 H 557.93 -3.0221 5.03927 0
M  V30 5716 H 559.454 -3.89237 4.70454 0
M  V30 5717 H 560.868 -1.75003 5.45937 0
M  V30 5718 H 559.265 -1.09328 5.90057 0
M  V30 5719 H 560.335 -0.151295 4.84664 0
M  V30 5720 N 561.678 -1.56367 -0.196722 0
M  V30 5721 C 562.61 -1.90941 -1.26784 0
M  V30 5722 C 563.623 -0.799928 -1.41792 0
M  V30 5723 O 564.812 -1.07833 -1.42247 0
M  V30 5724 C 561.912 -2.12477 -2.6402 0
M  V30 5725 C 561.085 -3.43616 -2.70641 0
M  V30 5726 C 560.144 -3.54284 -3.89062 0
M  V30 5727 O 559.17 -4.2712 -3.76241 0
M  V30 5728 N 560.372 -2.87252 -5.04447 0
M  V30 5729 H 563.137 -2.83417 -0.974417 0
M  V30 5730 H 560.698 -1.57215 -0.386649 0
M  V30 5731 H 562.69 -2.16904 -3.41665 0
M  V30 5732 H 561.26 -1.26508 -2.85857 0
M  V30 5733 H 560.48 -3.51072 -1.79283 0
M  V30 5734 H 561.768 -4.29958 -2.72054 0
M  V30 5735 H 561.166 -2.27901 -5.17762 0
M  V30 5736 H 559.723 -2.97308 -5.80044 0
M  V30 5737 N 563.156 0.464375 -1.50603 0
M  V30 5738 C 564.402 1.21776 -1.62168 0
M  V30 5739 C 564.735 1.91476 -0.324154 0
M  V30 5740 O 564.01 1.8242 0.674782 0
M  V30 5741 C 564.293 2.25614 -2.80661 0
M  V30 5742 C 564.146 1.60175 -4.20314 0
M  V30 5743 C 565.465 3.26862 -2.94702 0
M  V30 5744 H 562.584 0.44137 -0.590222 0
M  V30 5745 H 565.226 0.510623 -1.8301 0
M  V30 5746 H 563.376 2.85923 -2.63021 0
M  V30 5747 H 565.048 1.03411 -4.4956 0
M  V30 5748 H 563.291 0.904697 -4.24261 0
M  V30 5749 H 563.962 2.35665 -4.99165 0
M  V30 5750 H 566.438 2.76582 -3.10872 0
M  V30 5751 H 565.314 3.96839 -3.79223 0
M  V30 5752 H 565.575 3.91382 -2.05603 0
M  V30 5753 N 564.634 1.40294 0.718013 0
M  V30 5754 C 565.859 1.41941 1.5122 0
M  V30 5755 C 566.284 0.0202371 1.88089 0
M  V30 5756 O 565.642 -0.971078 1.53101 0
M  V30 5757 C 565.69 2.3141 2.76554 0
M  V30 5758 O 564.794 1.75567 3.73162 0
M  V30 5759 H 564.135 0.482644 0.456016 0
M  V30 5760 H 566.665 1.84494 0.884478 0
M  V30 5761 H 566.675 2.46513 3.25108 0
M  V30 5762 H 565.35 3.33085 2.49053 0
M  V30 5763 H 563.927 1.69798 3.31999 0
M  V30 5764 N 566.112 -0.949982 1.2575 0
M  V30 5765 C 567.528 -1.22191 1.02672 0
M  V30 5766 C 567.728 -1.99898 -0.253588 0
M  V30 5767 O 566.784 -2.33329 -0.965076 0
M  V30 5768 C 568.097 -1.99175 2.25277 0
M  V30 5769 C 569.645 -2.12201 2.30087 0
M  V30 5770 C 570.12 -2.92586 3.5236 0
M  V30 5771 N 571.611 -3.00163 3.52784 0
M  V30 5772 C 572.346 -3.62766 4.44059 0
M  V30 5773 N 571.842 -4.26943 5.45611 0
M  V30 5774 N 573.635 -3.59953 4.3173 0
M  V30 5775 H 565.786 -0.430258 2.07996 0
M  V30 5776 H 568.049 -0.252844 0.91366 0
M  V30 5777 H 567.755 -1.49479 3.18354 0
M  V30 5778 H 567.629 -2.99868 2.28821 0
M  V30 5779 H 570.016 -2.61093 1.3753 0
M  V30 5780 H 570.097 -1.10799 2.30559 0
M  V30 5781 H 569.741 -2.44383 4.45241 0
M  V30 5782 H 569.671 -3.94224 3.49134 0
M  V30 5783 H 572.162 -2.54529 2.79327 0
M  V30 5784 H 572.475 -4.72583 6.11461 0
M  V30 5785 H 570.82 -4.25557 5.49478 0
M  V30 5786 H 574.011 -3.09003 3.51617 0
M  V30 5787 H 574.184 -4.08455 5.03059 0
M  V30 5788 N 567.59 -1.07411 -1.15328 0
M  V30 5789 C 568.839 -0.792643 -1.85473 0
M  V30 5790 C 569.152 0.683789 -1.83259 0
M  V30 5791 O 570.358 1.08005 -2.49093 0
M  V30 5792 C 568.814 -1.36787 -3.32892 0
M  V30 5793 C 568.422 -2.87536 -3.43551 0
M  V30 5794 C 570.166 -1.16444 -4.08217 0
M  V30 5795 C 568.073 -3.38247 -4.85122 0
M  V30 5796 H 567.003 -0.292838 -0.694811 0
M  V30 5797 H 569.654 -1.29426 -1.30082 0
M  V30 5798 H 568.036 -0.793993 -3.87958 0
M  V30 5799 H 569.21 -3.50973 -2.98588 0
M  V30 5800 H 567.525 -3.06676 -2.81672 0
M  V30 5801 H 570.122 -1.51808 -5.12697 0
M  V30 5802 H 570.465 -0.10353 -4.16171 0
M  V30 5803 H 570.998 -1.70472 -3.59422 0
M  V30 5804 H 567.737 -4.43866 -4.82351 0
M  V30 5805 H 567.257 -2.79564 -5.30664 0
M  V30 5806 H 568.936 -3.34238 -5.5398 0
M  V30 5807 N 569.068 1.32177 -0.85831 0
M  V30 5808 C 570.345 1.91781 -0.384624 0
M  V30 5809 C 570.725 1.78171 1.13217 0
M  V30 5810 O 570.073 1.18209 1.95548 0
M  V30 5811 C 570.283 3.38414 -0.853047 0
M  V30 5812 C 571.631 4.15542 -0.872359 0
M  V30 5813 O 572.655 3.47148 -0.797926 0
M  V30 5814 O 571.514 5.37678 -0.978009 0
M  V30 5815 H 568.608 0.819259 -0.112886 0
M  V30 5816 H 571.154 1.40923 -0.945453 0
M  V30 5817 H 569.926 3.4228 -1.89632 0
M  V30 5818 H 569.549 3.96683 -0.269874 0
M  V30 5819 N 570.547 0.616602 1.45037 0
M  V30 5820 C 571.958 0.199359 1.85633 0
M  V30 5821 C 572.309 -1.24588 1.51566 0
M  V30 5822 O 571.434 -1.94594 0.94668 0
M  V30 5823 C 572.029 0.355033 3.36935 0
M  V30 5824 C 570.588 -0.00758748 3.76399 0
M  V30 5825 C 569.735 0.675256 2.68953 0
M  V30 5826 H 572.686 0.822708 1.3571 0
M  V30 5827 H 572.707 -0.410201 3.78282 0
M  V30 5828 H 572.219 1.40699 3.61698 0
M  V30 5829 H 570.32 -1.05837 3.57252 0
M  V30 5830 H 570.433 0.392346 4.77491 0
M  V30 5831 H 568.797 0.111992 2.54454 0
M  V30 5832 H 569.58 1.72952 2.96551 0
M  V30 5833 N 572.025 -1.5352 0.356285 0
M  V30 5834 C 572.975 -2.22204 -0.510815 0
M  V30 5835 C 573.959 -1.21393 -1.05605 0
M  V30 5836 O 575.151 -1.46883 -0.987639 0
M  V30 5837 C 572.28 -3.00786 -1.65478 0
M  V30 5838 C 571.366 -4.08965 -1.12287 0
M  V30 5839 N 571.757 -5.04829 -0.313191 0
M  V30 5840 C 570.055 -4.23505 -1.39856 0
M  V30 5841 C 570.756 -5.81695 -0.0230322 0
M  V30 5842 N 569.732 -5.40074 -0.618144 0
M  V30 5843 H 573.534 -2.93676 0.114711 0
M  V30 5844 H 571.048 -1.61572 0.163811 0
M  V30 5845 H 573.045 -3.48502 -2.28806 0
M  V30 5846 H 571.705 -2.30843 -2.28345 0
M  V30 5847 H 572.716 -5.17879 0.0468202 0
M  V30 5848 H 569.393 -3.64786 -2.0307 0
M  V30 5849 H 570.783 -6.68931 0.630927 0
M  V30 5850 N 573.503 -0.0852151 -1.57369 0
M  V30 5851 C 574.413 0.891712 -2.16992 0
M  V30 5852 C 575.429 1.3174 -1.13669 0
M  V30 5853 O 576.605 1.38735 -1.45995 0
M  V30 5854 C 573.67 2.13635 -2.73059 0
M  V30 5855 C 572.731 1.7658 -3.91303 0
M  V30 5856 C 571.964 2.95111 -4.44686 0
M  V30 5857 O 572.187 4.09539 -3.97032 0
M  V30 5858 O 571.121 2.74149 -5.35841 0
M  V30 5859 H 574.947 0.414477 -3.00858 0
M  V30 5860 H 572.532 0.138598 -1.48756 0
M  V30 5861 H 574.414 2.86595 -3.08935 0
M  V30 5862 H 573.089 2.6043 -1.92244 0
M  V30 5863 H 571.996 1.00831 -3.60255 0
M  V30 5864 H 573.329 1.34557 -4.7345 0
M  V30 5865 N 574.981 1.5647 0.188427 0
M  V30 5866 C 575.891 1.98285 1.2538 0
M  V30 5867 C 576.907 0.891535 1.49424 0
M  V30 5868 O 578.083 1.19782 1.61908 0
M  V30 5869 C 575.148 2.31965 2.57669 0
M  V30 5870 C 574.209 3.54838 2.41638 0
M  V30 5871 C 573.442 3.86901 3.67618 0
M  V30 5872 O 573.665 3.20163 4.72072 0
M  V30 5873 O 572.599 4.80309 3.62749 0
M  V30 5874 H 576.425 2.89145 0.928912 0
M  V30 5875 H 574.01 1.44112 0.393955 0
M  V30 5876 H 575.892 2.54673 3.35737 0
M  V30 5877 H 574.567 1.44271 2.89771 0
M  V30 5878 H 573.474 3.37369 1.61658 0
M  V30 5879 H 574.807 4.43019 2.14465 0
M  V30 5880 N 576.459 -0.456382 1.50847 0
M  V30 5881 C 577.687 -1.23026 1.66349 0
M  V30 5882 C 578.102 -1.85473 0.352868 0
M  V30 5883 O 577.459 -1.69885 -0.666739 0
M  V30 5884 C 577.51 -2.32827 2.76539 0
M  V30 5885 O 577.231 -1.72938 4.02522 0
M  V30 5886 C 578.732 -3.23448 3.03144 0
M  V30 5887 H 575.952 -0.371527 0.558756 0
M  V30 5888 H 578.496 -0.543082 1.97157 0
M  V30 5889 H 576.651 -2.97294 2.48384 0
M  V30 5890 H 577.065 -2.45357 4.63573 0
M  V30 5891 H 578.539 -3.96669 3.83872 0
M  V30 5892 H 579.016 -3.83094 2.14793 0
M  V30 5893 H 579.622 -2.64702 3.32886 0
M  V30 5894 N 577.937 -1.40673 -0.710563 0
M  V30 5895 C 578.847 -1.43663 -1.85467 0
M  V30 5896 C 579.863 -0.328721 -1.70867 0
M  V30 5897 O 581.039 -0.574098 -1.93044 0
M  V30 5898 C 578.104 -1.30226 -3.21313 0
M  V30 5899 C 577.165 -2.51204 -3.48131 0
M  V30 5900 C 576.398 -2.38398 -4.77495 0
M  V30 5901 O 576.621 -1.40048 -5.5294 0
M  V30 5902 O 575.555 -3.2787 -5.04762 0
M  V30 5903 H 579.381 -2.40156 -1.859 0
M  V30 5904 H 576.966 -1.22049 -0.861652 0
M  V30 5905 H 578.848 -1.2496 -4.02446 0
M  V30 5906 H 577.523 -0.368419 -3.21597 0
M  V30 5907 H 576.43 -2.62048 -2.66987 0
M  V30 5908 H 577.763 -3.43366 -3.52648 0
M  V30 5909 N 579.415 0.9433 -1.26252 0
M  V30 5910 C 580.831 1.21644 -1.03319 0
M  V30 5911 C 581.031 2.0003 0.242983 0
M  V30 5912 O 580.087 2.33838 0.952688 0
M  V30 5913 C 581.4 1.97978 -2.2633 0
M  V30 5914 C 582.948 2.10978 -2.31209 0
M  V30 5915 C 583.423 2.90713 -3.53907 0
M  V30 5916 N 584.914 2.98287 -3.54371 0
M  V30 5917 C 585.649 3.60406 -4.45976 0
M  V30 5918 N 585.145 4.24043 -5.47868 0
M  V30 5919 N 586.938 3.57658 -4.33633 0
M  V30 5920 H 579.089 0.419221 -2.08222 0
M  V30 5921 H 581.352 0.247995 -0.914988 0
M  V30 5922 H 581.058 1.47788 -3.19142 0
M  V30 5923 H 580.932 2.9865 -2.30408 0
M  V30 5924 H 583.319 2.6036 -1.38913 0
M  V30 5925 H 583.4 1.09575 -2.31143 0
M  V30 5926 H 583.044 2.42018 -4.46531 0
M  V30 5927 H 582.974 3.92367 -3.5122 0
M  V30 5928 H 585.465 2.53044 -2.80673 0
M  V30 5929 H 585.778 4.69334 -6.13959 0
M  V30 5930 H 584.123 4.22637 -5.51728 0
M  V30 5931 H 587.314 3.07134 -3.53251 0
M  V30 5932 H 587.487 4.05782 -5.05218 0
M  V30 5933 N 580.893 1.08022 1.14757 0
M  V30 5934 C 582.123 0.827646 1.89298 0
M  V30 5935 C 582.531 -0.623506 1.78631 0
M  V30 5936 O 581.874 -1.43991 1.14071 0
M  V30 5937 C 581.936 1.16553 3.40082 0
M  V30 5938 C 581.6 2.61866 3.74533 0
M  V30 5939 C 582.597 3.60116 3.74984 0
M  V30 5940 C 580.282 2.97619 4.04633 0
M  V30 5941 C 582.276 4.92151 4.05051 0
M  V30 5942 C 579.963 4.2985 4.34364 0
M  V30 5943 C 580.961 5.26926 4.34555 0
M  V30 5944 O 580.649 6.5678 4.63568 0
M  V30 5945 H 580.381 0.298396 0.606577 0
M  V30 5946 H 582.935 1.44187 1.46285 0
M  V30 5947 H 581.165 0.494296 3.83528 0
M  V30 5948 H 582.854 0.894407 3.95923 0
M  V30 5949 H 583.62 3.33837 3.51821 0
M  V30 5950 H 579.499 2.22702 4.03639 0
M  V30 5951 H 583.043 5.67915 4.05115 0
M  V30 5952 H 578.94 4.55879 4.56995 0
M  V30 5953 H 579.708 6.62035 4.81303 0
M  V30 5954 N 582.371 -1.3172 0.865308 0
M  V30 5955 C 583.787 -1.4958 0.556596 0
M  V30 5956 C 583.987 -1.79763 -0.910353 0
M  V30 5957 O 583.043 -1.87351 -1.6928 0
M  V30 5958 C 584.356 -2.63277 1.45279 0
M  V30 5959 C 585.904 -2.77161 1.45433 0
M  V30 5960 C 586.379 -3.93949 2.33598 0
M  V30 5961 N 587.87 -4.01228 2.31453 0
M  V30 5962 C 588.605 -4.90855 2.96393 0
M  V30 5963 N 588.101 -5.85416 3.70486 0
M  V30 5964 N 589.894 -4.84063 2.85726 0
M  V30 5965 H 582.045 -1.10396 1.81456 0
M  V30 5966 H 584.308 -0.54507 0.775631 0
M  V30 5967 H 584.014 -2.47734 2.49641 0
M  V30 5968 H 583.888 -3.59309 1.14792 0
M  V30 5969 H 586.275 -2.9212 0.41831 0
M  V30 5970 H 586.356 -1.8181 1.79941 0
M  V30 5971 H 586 -3.79748 3.37274 0
M  V30 5972 H 585.93 -4.88598 1.96417 0
M  V30 5973 H 588.421 -3.3357 1.77593 0
M  V30 5974 H 588.734 -6.50525 4.17178 0
M  V30 5975 H 587.079 -5.85409 3.74594 0
M  V30 5976 H 590.27 -4.09163 2.27384 0
M  V30 5977 H 590.443 -5.53708 3.36617 0
M  V30 5978 N 583.85 -0.624285 -1.44708 0
M  V30 5979 C 584.782 0.12305 -2.28869 0
M  V30 5980 C 585.795 0.81557 -1.40898 0
M  V30 5981 O 586.984 0.678162 -1.65116 0
M  V30 5982 C 584.084 1.19612 -3.1709 0
M  V30 5983 C 583.257 0.587452 -4.33437 0
M  V30 5984 C 582.316 1.55358 -5.02743 0
M  V30 5985 O 581.341 1.07338 -5.58988 0
M  V30 5986 N 582.543 2.88798 -5.03563 0
M  V30 5987 H 585.308 -0.599193 -2.93649 0
M  V30 5988 H 582.87 -0.464954 -1.5508 0
M  V30 5989 H 584.861 1.84261 -3.60319 0
M  V30 5990 H 583.432 1.82067 -2.54107 0
M  V30 5991 H 582.652 -0.237509 -3.93484 0
M  V30 5992 H 583.94 0.161326 -5.08544 0
M  V30 5993 H 583.338 3.30399 -4.59188 0
M  V30 5994 H 581.894 3.48826 -5.50603 0
M  V30 5995 N 585.328 1.53329 -0.364422 0
M  V30 5996 C 586.278 2.22472 0.499024 0
M  V30 5997 C 587.262 1.21952 1.0496 0
M  V30 5998 O 588.454 1.47405 0.979836 0
M  V30 5999 C 585.583 3.01659 1.6388 0
M  V30 6000 C 584.669 4.09555 1.10116 0
M  V30 6001 N 585.06 5.04988 0.286414 0
M  V30 6002 C 583.358 4.2424 1.37608 0
M  V30 6003 C 584.059 5.81699 -0.00781682 0
M  V30 6004 N 583.035 5.40394 0.589494 0
M  V30 6005 H 586.837 2.93611 -0.130284 0
M  V30 6006 H 584.351 1.61483 -0.172377 0
M  V30 6007 H 586.348 3.4971 2.26954 0
M  V30 6008 H 585.008 2.32051 2.27118 0
M  V30 6009 H 586.019 5.17847 -0.0742839 0
M  V30 6010 H 582.696 3.65858 2.01133 0
M  V30 6011 H 584.086 6.68587 -0.666394 0
M  V30 6012 N 586.806 0.0935595 1.57322 0
M  V30 6013 C 588.052 -0.571355 1.94585 0
M  V30 6014 C 588.385 -1.67929 0.975366 0
M  V30 6015 O 587.66 -1.94498 0.00816206 0
M  V30 6016 C 587.943 -1.12797 3.41978 0
M  V30 6017 C 587.796 -0.0251881 4.49793 0
M  V30 6018 C 589.115 -2.02682 3.90651 0
M  V30 6019 H 586.234 -0.206223 0.70756 0
M  V30 6020 H 588.876 0.163956 1.89291 0
M  V30 6021 H 587.026 -1.75461 3.4662 0
M  V30 6022 H 588.698 0.608979 4.57263 0
M  V30 6023 H 586.941 0.641399 4.29032 0
M  V30 6024 H 587.612 -0.455433 5.50118 0
M  V30 6025 H 590.088 -1.49925 3.88152 0
M  V30 6026 H 588.964 -2.38555 4.94351 0
M  V30 6027 H 589.225 -2.94362 3.29854 0
M  V30 6028 N 588.284 -1.56567 -0.180126 0
M  V30 6029 C 589.214 -1.98753 -1.22553 0
M  V30 6030 C 590.195 -0.86175 -1.46656 0
M  V30 6031 O 591.38 -1.12719 -1.58139 0
M  V30 6032 C 588.51 -2.33988 -2.56645 0
M  V30 6033 C 587.464 -3.49445 -2.47128 0
M  V30 6034 C 586.79 -3.70397 -3.8563 0
M  V30 6035 C 588.09 -4.83171 -1.98352 0
M  V30 6036 H 589.784 -2.86332 -0.874896 0
M  V30 6037 H 587.33 -1.37757 -0.419414 0
M  V30 6038 H 589.283 -2.62097 -3.29974 0
M  V30 6039 H 588.007 -1.43309 -2.93479 0
M  V30 6040 H 586.666 -3.2145 -1.76254 0
M  V30 6041 H 586.314 -2.77023 -4.19842 0
M  V30 6042 H 586.014 -4.48077 -3.80132 0
M  V30 6043 H 587.538 -4.00897 -4.60558 0
M  V30 6044 H 588.952 -5.10213 -2.61449 0
M  V30 6045 H 587.349 -5.64425 -2.03823 0
M  V30 6046 H 588.419 -4.75753 -0.937402 0
M  V30 6047 N 589.762 0.448376 -1.51087 0
M  V30 6048 C 590.672 1.56882 -1.74428 0
M  V30 6049 C 591.688 1.62268 -0.62809 0
M  V30 6050 O 592.864 1.79716 -0.909075 0
M  V30 6051 C 589.929 2.92947 -1.85426 0
M  V30 6052 C 588.99 2.97766 -3.09247 0
M  V30 6053 C 588.223 4.27341 -3.19711 0
M  V30 6054 O 588.446 5.19112 -2.36387 0
M  V30 6055 O 587.38 4.38219 -4.12611 0
M  V30 6056 H 591.206 1.40104 -2.69452 0
M  V30 6057 H 588.791 0.630247 -1.35456 0
M  V30 6058 H 590.673 3.73719 -1.94709 0
M  V30 6059 H 589.348 3.09876 -0.935887 0
M  V30 6060 H 588.255 2.15989 -3.0545 0
M  V30 6061 H 589.588 2.8578 -4.00738 0
M  V30 6062 N 591.24 1.41047 0.703093 0
M  V30 6063 C 592.468 1.4334 1.49202 0
M  V30 6064 C 592.883 0.0365596 1.88765 0
M  V30 6065 O 592.24 -0.942419 1.56284 0
M  V30 6066 C 592.291 2.33538 2.75939 0
M  V30 6067 O 592.012 3.67786 2.38045 0
M  V30 6068 C 593.513 2.44555 3.6974 0
M  V30 6069 H 590.733 0.488472 0.460039 0
M  V30 6070 H 593.277 1.85245 0.86629 0
M  V30 6071 H 591.432 1.94962 3.34766 0
M  V30 6072 H 591.846 4.15816 3.19683 0
M  V30 6073 H 593.32 3.11849 4.55471 0
M  V30 6074 H 593.797 1.47447 4.1371 0
M  V30 6075 H 594.403 2.83735 3.16819 0
M  V30 6076 N 592.718 -0.936591 1.26751 0
M  V30 6077 C 593.665 -2.03597 1.08706 0
M  V30 6078 C 594.635 -1.66097 -0.00926542 0
M  V30 6079 O 595.82 -1.90199 0.151377 0
M  V30 6080 C 592.96 -3.3727 0.73094 0
M  V30 6081 C 592.073 -3.87778 1.90399 0
M  V30 6082 C 591.208 -5.09859 1.49056 0
M  V30 6083 C 590.247 -5.5264 2.63164 0
M  V30 6084 N 589.384 -6.65921 2.22471 0
M  V30 6085 H 594.224 -2.18364 2.02784 0
M  V30 6086 H 591.761 -1.06985 1.00958 0
M  V30 6087 H 593.719 -4.14128 0.505328 0
M  V30 6088 H 592.349 -3.22337 -0.172868 0
M  V30 6089 H 591.401 -3.07279 2.2424 0
M  V30 6090 H 592.713 -4.15464 2.76028 0
M  V30 6091 H 591.867 -5.9419 1.22567 0
M  V30 6092 H 590.606 -4.8393 0.60524 0
M  V30 6093 H 589.611 -4.66863 2.90377 0
M  V30 6094 H 590.836 -5.80568 3.52303 0
M  V30 6095 H 588.782 -6.41667 1.36379 0
M  V30 6096 H 588.699 -6.93216 3.01641 0
M  V30 6097 H 589.967 -7.53616 1.99205 0
M  V30 6098 N 594.196 -1.08629 -1.14182 0
M  V30 6099 C 595.444 -0.815731 -1.84906 0
M  V30 6100 C 595.765 0.660441 -1.83475 0
M  V30 6101 O 595.035 1.47888 -1.28476 0
M  V30 6102 H 593.615 -0.298773 -0.684648 0
M  V30 6103 H 596.277 -1.37274 -1.38354 0
M  V30 6104 H 595.373 -1.16193 -2.89665 0
M  V30 6105 N 595.674 1.31259 -0.872281 0
M  V30 6106 C 596.621 2.28459 -0.327857 0
M  V30 6107 C 597.591 1.55831 0.574957 0
M  V30 6108 O 598.776 1.83965 0.506101 0
M  V30 6109 C 595.916 3.41985 0.462644 0
M  V30 6110 C 595.029 4.29458 -0.467949 0
M  V30 6111 C 594.164 5.30131 0.336903 0
M  V30 6112 C 593.203 6.0925 -0.58997 0
M  V30 6113 N 592.34 7.01872 0.178775 0
M  V30 6114 H 597.18 2.74414 -1.16193 0
M  V30 6115 H 594.717 1.34994 -0.584376 0
M  V30 6116 H 596.675 4.06547 0.936759 0
M  V30 6117 H 595.305 2.97134 1.2614 0
M  V30 6118 H 594.357 3.65318 -1.06052 0
M  V30 6119 H 595.669 4.84677 -1.17856 0
M  V30 6120 H 594.823 6.0038 0.873427 0
M  V30 6121 H 593.562 4.75573 1.08079 0
M  V30 6122 H 592.567 5.37889 -1.13823 0
M  V30 6123 H 593.792 6.65894 -1.33275 0
M  V30 6124 H 591.738 6.49721 0.905435 0
M  V30 6125 H 591.655 7.54522 -0.472452 0
M  V30 6126 H 592.923 7.76382 0.696454 0
M  V30 6127 N 597.152 0.631951 1.44375 0
M  V30 6128 C 598.062 -0.073674 2.34484 0
M  V30 6129 C 599.078 -0.834825 1.52665 0
M  V30 6130 O 600.254 -0.786902 1.85391 0
M  V30 6131 C 597.319 -1.04247 3.30656 0
M  V30 6132 C 596.38 -0.280602 4.28382 0
M  V30 6133 C 595.613 -1.20325 5.19959 0
M  V30 6134 O 595.836 -2.44199 5.15484 0
M  V30 6135 O 594.77 -0.687128 5.97965 0
M  V30 6136 H 598.596 0.667477 2.96274 0
M  V30 6137 H 596.181 0.392144 1.44162 0
M  V30 6138 H 598.063 -1.59981 3.89851 0
M  V30 6139 H 596.738 -1.76422 2.71398 0
M  V30 6140 H 595.645 0.319804 3.72731 0
M  V30 6141 H 596.978 0.401144 4.90563 0
M  V30 6142 N 598.631 -1.53133 0.372548 0
M  V30 6143 C 599.561 -2.28876 -0.462412 0
M  V30 6144 C 600.542 -1.31583 -1.07796 0
M  V30 6145 O 601.727 -1.60461 -1.09389 0
M  V30 6146 C 598.857 -3.08317 -1.59868 0
M  V30 6147 C 597.811 -4.13355 -1.11003 0
M  V30 6148 C 597.137 -4.8092 -2.33708 0
M  V30 6149 C 598.437 -5.21955 -0.18983 0
M  V30 6150 H 600.131 -2.9892 0.169511 0
M  V30 6151 H 597.677 -1.43761 0.0829658 0
M  V30 6152 H 599.63 -3.60055 -2.18949 0
M  V30 6153 H 598.354 -2.35976 -2.25794 0
M  V30 6154 H 597.013 -3.62573 -0.541869 0
M  V30 6155 H 596.661 -4.05144 -2.98106 0
M  V30 6156 H 596.361 -5.51904 -2.01682 0
M  V30 6157 H 597.885 -5.35455 -2.93462 0
M  V30 6158 H 599.299 -5.69153 -0.688319 0
M  V30 6159 H 597.696 -6.00087 0.0398887 0
M  V30 6160 H 598.766 -4.78811 0.766057 0
M  V30 6161 N 600.109 -0.101901 -1.5727 0
M  V30 6162 C 601.386 0.602832 -1.86079 0
M  V30 6163 C 601.766 1.85912 -1 0
M  V30 6164 O 601.114 2.28379 -0.0742488 0
M  V30 6165 C 601.324 0.911694 -3.36881 0
M  V30 6166 C 602.672 1.2722 -4.05093 0
M  V30 6167 O 603.696 1.0025 -3.41802 0
M  V30 6168 O 602.555 1.7776 -5.16782 0
M  V30 6169 H 599.649 0.302366 -0.769743 0
M  V30 6170 H 602.195 -0.135113 -1.69161 0
M  V30 6171 H 600.967 0.0207256 -3.91295 0
M  V30 6172 H 600.59 1.70538 -3.59169 0
M  V30 6173 N 601.587 1.56661 0.17182 0
M  V30 6174 C 602.497 1.99604 1.2327 0
M  V30 6175 C 603.513 0.907333 1.4847 0
M  V30 6176 O 604.689 1.21492 1.60629 0
M  V30 6177 C 601.754 2.34685 2.55194 0
M  V30 6178 C 600.815 3.57381 2.3786 0
M  V30 6179 C 600.048 3.90779 3.63494 0
M  V30 6180 O 600.271 3.25152 4.6865 0
M  V30 6181 O 599.205 4.84129 3.57634 0
M  V30 6182 H 603.031 2.90114 0.898192 0
M  V30 6183 H 600.616 1.44522 0.378647 0
M  V30 6184 H 602.498 2.5822 3.33017 0
M  V30 6185 H 601.173 1.47336 2.88225 0
M  V30 6186 H 600.08 3.39064 1.5807 0
M  V30 6187 H 601.413 4.45268 2.09754 0
M  V30 6188 N 603.065 -0.440357 1.51323 0
M  V30 6189 C 604.028 -1.51679 1.71832 0
M  V30 6190 C 605.028 -1.49648 0.588386 0
M  V30 6191 O 606.218 -1.51724 0.855891 0
M  V30 6192 C 603.35 -2.91228 1.77199 0
M  V30 6193 H 604.543 -1.34799 2.67898 0
M  V30 6194 H 602.096 -0.66883 1.41267 0
M  V30 6195 H 602.831 -3.13516 0.829363 0
M  V30 6196 H 602.616 -2.94107 2.59314 0
M  V30 6197 H 604.106 -3.69321 1.94915 0
M  V30 6198 N 604.543 -1.41418 -0.695603 0
M  V30 6199 C 605.791 -1.40496 -1.45277 0
M  V30 6200 C 606.112 -0.0149538 -1.94994 0
M  V30 6201 O 605.382 0.9432 -1.71699 0
M  V30 6202 H 603.962 -0.517147 -0.539044 0
M  V30 6203 H 606.624 -1.76656 -0.823321 0
M  V30 6204 H 605.72 -2.09214 -2.31595 0
M  V30 6205 N 606.021 0.929856 -1.27246 0
M  V30 6206 C 606.968 2.03017 -1.09785 0
M  V30 6207 C 607.938 1.661 0.000456744 0
M  V30 6208 O 609.123 1.90116 -0.161462 0
M  V30 6209 C 606.263 3.36878 -0.748816 0
M  V30 6210 C 605.376 3.86763 -1.92453 0
M  V30 6211 C 604.511 5.09061 -1.51758 0
M  V30 6212 C 603.55 5.51237 -2.66091 0
M  V30 6213 N 602.687 6.64732 -2.25999 0
M  V30 6214 H 607.527 2.17285 -2.03939 0
M  V30 6215 H 605.064 1.06448 -1.01524 0
M  V30 6216 H 607.022 4.13855 -0.527283 0
M  V30 6217 H 605.652 3.22424 0.155771 0
M  V30 6218 H 604.704 3.06086 -2.25867 0
M  V30 6219 H 606.016 4.13994 -2.78227 0
M  V30 6220 H 605.17 5.93532 -1.25716 0
M  V30 6221 H 603.909 4.83602 -0.630896 0
M  V30 6222 H 602.914 4.65316 -2.92849 0
M  V30 6223 H 604.139 5.78692 -3.55377 0
M  V30 6224 H 602.085 6.40935 -1.3978 0
M  V30 6225 H 602.002 6.91607 -3.05313 0
M  V30 6226 H 603.27 7.52549 -2.03199 0
M  V30 6227 N 607.499 1.09233 1.13605 0
M  V30 6228 C 608.915 0.82163 1.36826 0
M  V30 6229 C 609.115 -0.565021 1.93416 0
M  V30 6230 O 608.171 -1.32026 2.15234 0
M  V30 6231 C 609.484 1.91124 2.32147 0
M  V30 6232 C 611.032 1.93824 2.45767 0
M  V30 6233 C 611.507 3.01923 3.44393 0
M  V30 6234 N 612.998 3.01149 3.51942 0
M  V30 6235 C 613.733 3.81434 4.2813 0
M  V30 6236 N 613.229 4.71621 5.07489 0
M  V30 6237 N 615.022 3.69702 4.23411 0
M  V30 6238 H 607.173 1.98633 0.752234 0
M  V30 6239 H 609.436 0.862482 0.393482 0
M  V30 6240 H 609.142 2.90862 1.97717 0
M  V30 6241 H 609.016 1.78777 3.32142 0
M  V30 6242 H 611.403 0.94726 2.79483 0
M  V30 6243 H 611.484 2.10248 1.45703 0
M  V30 6244 H 611.128 4.01232 3.11408 0
M  V30 6245 H 611.058 2.82742 4.44257 0
M  V30 6246 H 613.549 2.35789 2.95317 0
M  V30 6247 H 613.862 5.29468 5.62924 0
M  V30 6248 H 612.207 4.75658 5.06729 0
M  V30 6249 H 615.398 2.98606 3.60489 0
M  V30 6250 H 615.571 4.32509 4.82535 0
M  V30 6251 N 608.977 -1.30795 0.87923 0
M  V30 6252 C 609.907 -2.30742 0.357796 0
M  V30 6253 C 610.888 -1.60747 -0.556283 0
M  V30 6254 O 612.073 -1.88393 -0.47135 0
M  V30 6255 C 609.203 -3.44583 -0.433555 0
M  V30 6256 C 608.157 -4.26235 0.388251 0
M  V30 6257 C 607.483 -5.32073 -0.529352 0
M  V30 6258 C 608.783 -4.96303 1.62729 0
M  V30 6259 H 610.477 -2.74605 1.19299 0
M  V30 6260 H 608.023 -1.32017 0.575104 0
M  V30 6261 H 609.976 -4.13563 -0.808934 0
M  V30 6262 H 608.7 -2.99511 -1.30234 0
M  V30 6263 H 607.359 -3.58936 0.745695 0
M  V30 6264 H 607.007 -4.83249 -1.39569 0
M  V30 6265 H 606.707 -5.87598 0.0166741 0
M  V30 6266 H 608.231 -6.0391 -0.901373 0
M  V30 6267 H 609.645 -5.5783 1.32283 0
M  V30 6268 H 608.042 -5.61666 2.11309 0
M  V30 6269 H 609.112 -4.22758 2.37494 0
M  V30 6270 N 610.455 -0.639598 -1.44038 0
M  V30 6271 C 611.385 0.0469443 -2.33453 0
M  V30 6272 C 612.366 0.82609 -1.48694 0
M  V30 6273 O 613.551 0.790285 -1.77393 0
M  V30 6274 C 610.681 1.02338 -3.3188 0
M  V30 6275 C 609.635 0.355284 -4.26523 0
M  V30 6276 C 608.961 1.44221 -5.14883 0
M  V30 6277 C 610.261 -0.743798 -5.16977 0
M  V30 6278 H 611.955 -0.699735 -2.91108 0
M  V30 6279 H 609.501 -0.337946 -1.39978 0
M  V30 6280 H 611.454 1.51247 -3.93322 0
M  V30 6281 H 610.178 1.80105 -2.72451 0
M  V30 6282 H 608.837 -0.113239 -3.66425 0
M  V30 6283 H 608.485 2.21097 -4.51802 0
M  V30 6284 H 608.185 1.00052 -5.79019 0
M  V30 6285 H 609.709 1.93295 -5.79197 0
M  V30 6286 H 611.123 -0.337444 -5.72306 0
M  V30 6287 H 609.52 -1.10914 -5.89761 0
M  V30 6288 H 610.59 -1.60745 -4.57481 0
M  V30 6289 N 611.933 1.52934 -0.380664 0
M  V30 6290 C 612.843 2.29921 0.466192 0
M  V30 6291 C 613.859 1.36488 1.07922 0
M  V30 6292 O 615.035 1.69553 1.0869 0
M  V30 6293 C 612.1 3.08468 1.58266 0
M  V30 6294 C 611.161 4.17595 0.995627 0
M  V30 6295 C 610.394 4.92387 2.05889 0
M  V30 6296 O 610.617 4.67184 3.27254 0
M  V30 6297 O 609.551 5.77949 1.68102 0
M  V30 6298 H 613.377 3.03274 -0.160735 0
M  V30 6299 H 610.962 1.48698 -0.144617 0
M  V30 6300 H 612.844 3.57469 2.23145 0
M  V30 6301 H 611.519 2.37937 2.19471 0
M  V30 6302 H 610.426 3.72811 0.310332 0
M  V30 6303 H 611.759 4.90336 0.427918 0
M  V30 6304 N 613.412 0.11024 1.57214 0
M  V30 6305 C 614.322 -0.857077 2.18383 0
M  V30 6306 C 615.338 -1.29915 1.1575 0
M  V30 6307 O 616.514 -1.36394 1.48184 0
M  V30 6308 C 613.579 -2.09264 2.76423 0
M  V30 6309 C 612.64 -1.70333 3.94063 0
M  V30 6310 C 611.873 -2.87999 4.49324 0
M  V30 6311 O 612.096 -4.0317 4.03497 0
M  V30 6312 O 611.03 -2.6559 5.40135 0
M  V30 6313 H 614.856 -0.366561 3.0148 0
M  V30 6314 H 612.441 -0.114914 1.48957 0
M  V30 6315 H 614.323 -2.81644 3.13456 0
M  V30 6316 H 612.998 -2.57339 1.96363 0
M  V30 6317 H 611.905 -0.950864 3.61814 0
M  V30 6318 H 613.238 -1.27007 4.75531 0
M  V30 6319 N 614.89 -1.56749 -0.16351 0
M  V30 6320 C 616.167 -1.73321 -0.906599 0
M  V30 6321 C 616.547 -0.673779 -2.00059 0
M  V30 6322 O 615.895 0.310121 -2.26386 0
M  V30 6323 C 616.105 -3.168 -1.46419 0
M  V30 6324 C 617.453 -3.77993 -1.93407 0
M  V30 6325 O 618.477 -3.20127 -1.56196 0
M  V30 6326 O 617.336 -4.79615 -2.61976 0
M  V30 6327 H 614.43 -0.708073 -0.427272 0
M  V30 6328 H 616.976 -1.69029 -0.150727 0
M  V30 6329 H 615.748 -3.85396 -0.677189 0
M  V30 6330 H 615.371 -3.2545 -2.28403 0
M  V30 6331 N 616.368 0.432326 -1.51554 0
M  V30 6332 C 617.298 1.53242 -1.76179 0
M  V30 6333 C 618.279 1.58717 -0.611801 0
M  V30 6334 O 619.464 1.74364 -0.855033 0
M  V30 6335 C 616.594 2.91278 -1.89141 0
M  V30 6336 C 615.548 3.00663 -3.04608 0
M  V30 6337 C 614.874 4.40728 -3.02759 0
M  V30 6338 C 616.174 2.74281 -4.44485 0
M  V30 6339 H 617.868 1.32886 -2.68294 0
M  V30 6340 H 615.414 0.637841 -1.29103 0
M  V30 6341 H 617.367 3.68203 -2.04951 0
M  V30 6342 H 616.091 3.12877 -0.936785 0
M  V30 6343 H 614.75 2.26179 -2.88511 0
M  V30 6344 H 614.398 4.59301 -2.05065 0
M  V30 6345 H 614.098 4.47936 -3.80299 0
M  V30 6346 H 615.622 5.19619 -3.20669 0
M  V30 6347 H 617.036 3.40936 -4.60907 0
M  V30 6348 H 615.433 2.92893 -5.23769 0
M  V30 6349 H 616.503 1.69856 -4.54177 0
M  V30 6350 N 617.846 1.41785 0.688094 0
M  V30 6351 C 619.262 1.24419 0.999608 0
M  V30 6352 C 619.462 0.138868 2.01021 0
M  V30 6353 O 618.518 -0.494283 2.47615 0
M  V30 6354 C 619.831 2.59625 1.51709 0
M  V30 6355 C 621.379 2.66869 1.63554 0
M  V30 6356 C 621.854 4.0241 2.18702 0
M  V30 6357 N 623.345 4.04295 2.26053 0
M  V30 6358 C 624.08 5.05977 2.69768 0
M  V30 6359 N 623.576 6.18047 3.13033 0
M  V30 6360 N 625.369 4.93336 2.69398 0
M  V30 6361 H 617.52 2.12392 0.0187427 0
M  V30 6362 H 619.783 0.945347 0.0708673 0
M  V30 6363 H 619.489 3.41297 0.849059 0
M  V30 6364 H 619.363 2.82628 2.49803 0
M  V30 6365 H 621.75 1.8555 2.29467 0
M  V30 6366 H 621.831 2.47668 0.639857 0
M  V30 6367 H 621.475 4.8418 1.53402 0
M  V30 6368 H 621.405 4.18955 3.19037 0
M  V30 6369 H 623.896 3.23383 1.9553 0
M  V30 6370 H 624.209 6.91498 3.45038 0
M  V30 6371 H 622.554 6.21572 3.10923 0
M  V30 6372 H 625.745 4.04865 2.34952 0
M  V30 6373 H 625.918 5.72717 3.03148 0
M  V30 6374 N 619.324 -0.923095 1.27737 0
M  V30 6375 C 620.549 -1.71054 1.17283 0
M  V30 6376 C 620.974 -1.86208 -0.266153 0
M  V30 6377 O 620.332 -1.36545 -1.1927 0
M  V30 6378 C 620.38 -3.0854 1.86642 0
M  V30 6379 O 619.484 -3.95528 1.16752 0
M  V30 6380 H 618.825 -0.524136 0.407649 0
M  V30 6381 H 621.355 -1.15487 1.6889 0
M  V30 6382 H 621.365 -3.58828 1.94182 0
M  V30 6383 H 620.04 -2.96828 2.91317 0
M  V30 6384 H 618.617 -3.53967 1.17312 0
M  V30 6385 N 620.802 -1.09834 -1.13024 0
M  V30 6386 C 622.213 -0.855651 -1.65938 0
M  V30 6387 C 622.564 0.615159 -1.86307 0
M  V30 6388 O 621.689 1.47335 -1.58497 0
M  V30 6389 C 622.284 -1.5467 -3.01434 0
M  V30 6390 C 620.843 -1.35088 -3.51323 0
M  V30 6391 C 619.99 -1.6001 -2.26478 0
M  V30 6392 H 622.941 -1.25691 -0.968889 0
M  V30 6393 H 622.962 -0.982179 -3.67605 0
M  V30 6394 H 622.474 -2.61715 -2.86578 0
M  V30 6395 H 620.575 -0.30179 -3.71376 0
M  V30 6396 H 620.688 -2.0886 -4.31178 0
M  V30 6397 H 619.052 -1.02246 -2.33276 0
M  V30 6398 H 619.835 -2.68293 -2.14182 0
M  V30 6399 N 622.28 1.30327 -0.886154 0
M  V30 6400 C 623.52 1.97886 -0.511912 0
M  V30 6401 C 623.884 1.68417 0.921944 0
M  V30 6402 O 625.085 2.29319 1.40237 0
M  V30 6403 C 623.356 3.48775 -0.780444 0
M  V30 6404 S 624.915 4.35844 -0.508482 0
M  V30 6405 H 621.733 0.685024 -0.190428 0
M  V30 6406 H 624.335 1.58413 -1.14567 0
M  V30 6407 H 623.039 3.67714 -1.82248 0
M  V30 6408 H 622.57 3.93171 -0.134284 0
M  V30 6409 H 624.585 4.91893 0.65239 0
M  V30 6410 N 623.758 0.647228 1.43697 0
M  V30 6411 C 624.986 0.16575 2.06235 0
M  V30 6412 C 625.401 -1.1662 1.48476 0
M  V30 6413 O 624.758 -1.7187 0.613762 0
M  V30 6414 C 624.809 0.0621651 3.61447 0
M  V30 6415 O 624.53 1.34146 4.17057 0
M  V30 6416 C 626.031 -0.446102 4.4105 0
M  V30 6417 H 623.251 0.0871158 0.665321 0
M  V30 6418 H 625.795 0.886183 1.84301 0
M  V30 6419 H 623.95 -0.608794 3.82587 0
M  V30 6420 H 624.364 1.19675 5.10664 0
M  V30 6421 H 625.838 -0.46755 5.50016 0
M  V30 6422 H 626.315 -1.47627 4.13646 0
M  V30 6423 H 626.921 0.192159 4.24866 0
M  V30 6424 N 625.236 -1.5273 0.388769 0
M  V30 6425 C 626.146 -2.30165 -0.453993 0
M  V30 6426 C 627.162 -1.37058 -1.07197 0
M  V30 6427 O 628.338 -1.70127 -1.0779 0
M  V30 6428 C 625.403 -3.09303 -1.56628 0
M  V30 6429 C 624.464 -4.18117 -0.973467 0
M  V30 6430 C 623.697 -4.93472 -2.03275 0
M  V30 6431 O 623.92 -4.68913 -3.24772 0
M  V30 6432 O 622.854 -5.78833 -1.65034 0
M  V30 6433 H 626.68 -3.03185 0.176816 0
M  V30 6434 H 624.265 -1.4862 0.152501 0
M  V30 6435 H 626.147 -3.58648 -2.21246 0
M  V30 6436 H 624.822 -2.39098 -2.18206 0
M  V30 6437 H 623.729 -3.7297 -0.290556 0
M  V30 6438 H 625.062 -4.90556 -0.401908 0
M  V30 6439 N 626.714 -0.118576 -1.57153 0
M  V30 6440 C 627.624 0.845484 -2.18835 0
M  V30 6441 C 628.64 1.29299 -1.16438 0
M  V30 6442 O 629.816 1.35607 -1.48905 0
M  V30 6443 C 626.881 2.07795 -2.77529 0
M  V30 6444 C 625.942 1.6824 -3.9496 0
M  V30 6445 C 625.175 2.85612 -4.50845 0
M  V30 6446 O 625.398 4.01025 -4.05629 0
M  V30 6447 O 624.332 2.62721 -5.41536 0
M  V30 6448 H 628.158 0.350568 -3.0167 0
M  V30 6449 H 625.743 0.107013 -1.49016 0
M  V30 6450 H 627.625 2.79978 -3.14945 0
M  V30 6451 H 626.3 2.56294 -1.97725 0
M  V30 6452 H 625.207 0.931663 -3.62313 0
M  V30 6453 H 626.54 1.24484 -4.76198 0
M  V30 6454 N 628.193 1.56834 0.155195 0
M  V30 6455 C 629.442 1.82088 0.867567 0
M  V30 6456 C 629.755 0.69849 1.82703 0
M  V30 6457 O 630.961 0.836407 2.58295 0
M  V30 6458 C 629.417 3.22707 1.59336 0
M  V30 6459 C 629.025 4.42859 0.676719 0
M  V30 6460 C 630.769 3.57242 2.293 0
M  V30 6461 C 628.676 5.74501 1.40367 0
M  V30 6462 H 627.606 0.679057 0.327715 0
M  V30 6463 H 630.257 1.83105 0.120351 0
M  V30 6464 H 628.639 3.16054 2.38591 0
M  V30 6465 H 629.813 4.60731 -0.0800196 0
M  V30 6466 H 628.128 4.16311 0.0859129 0
M  V30 6467 H 630.725 4.52847 2.84312 0
M  V30 6468 H 631.068 2.82901 3.05406 0
M  V30 6469 H 631.601 3.6552 1.56972 0
M  V30 6470 H 628.34 6.51915 0.684623 0
M  V30 6471 H 627.86 5.60579 2.13332 0
M  V30 6472 H 629.539 6.17016 1.94681 0
M  V30 6473 N 629.671 -0.424282 1.51781 0
M  V30 6474 C 630.634 -1.49848 1.73431 0
M  V30 6475 C 631.634 -1.49016 0.604225 0
M  V30 6476 O 632.824 -1.50808 0.871935 0
M  V30 6477 C 629.956 -2.89332 1.80277 0
M  V30 6478 H 631.149 -1.3195 2.69312 0
M  V30 6479 H 628.702 -0.653809 1.41968 0
M  V30 6480 H 629.437 -3.12618 0.862568 0
M  V30 6481 H 629.222 -2.9134 2.62419 0
M  V30 6482 H 630.712 -3.67233 1.98821 0
M  V30 6483 N 631.149 -1.42148 -0.680565 0
M  V30 6484 C 632.395 -1.42521 -1.44277 0
M  V30 6485 C 632.728 -0.0393718 -1.9416 0
M  V30 6486 O 632.003 0.935425 -1.70529 0
M  V30 6487 C 632.286 -2.44475 -2.64394 0
M  V30 6488 C 632.139 -3.92226 -2.20179 0
M  V30 6489 C 633.458 -2.43491 -3.66606 0
M  V30 6490 H 630.577 -0.518985 -0.523282 0
M  V30 6491 H 633.219 -1.73524 -0.773914 0
M  V30 6492 H 631.369 -2.18168 -3.21458 0
M  V30 6493 H 633.041 -4.29493 -1.68327 0
M  V30 6494 H 631.284 -4.0637 -1.5181 0
M  V30 6495 H 631.955 -4.59133 -3.06433 0
M  V30 6496 H 634.431 -2.66872 -3.19247 0
M  V30 6497 H 633.307 -3.16816 -4.4824 0
M  V30 6498 H 633.568 -1.45881 -4.17338 0
M  V30 6499 N 632.627 0.916307 -1.28225 0
M  V30 6500 C 633.874 1.66518 -1.1523 0
M  V30 6501 C 634.202 1.92178 0.299632 0
M  V30 6502 O 633.457 1.51842 1.2346 0
M  V30 6503 C 633.756 3.03125 -1.8934 0
M  V30 6504 C 633.422 2.97135 -3.39148 0
M  V30 6505 C 632.084 2.95208 -3.80007 0
M  V30 6506 C 634.436 2.87574 -4.34685 0
M  V30 6507 C 631.764 2.81518 -5.14747 0
M  V30 6508 C 634.116 2.75424 -5.69495 0
M  V30 6509 C 632.78 2.71854 -6.09632 0
M  V30 6510 H 632.05 0.609334 -0.421655 0
M  V30 6511 H 634.697 1.06776 -1.58969 0
M  V30 6512 H 633.002 3.66639 -1.38143 0
M  V30 6513 H 634.699 3.59968 -1.76704 0
M  V30 6514 H 631.289 2.99428 -3.06661 0
M  V30 6515 H 635.473 2.88152 -4.04082 0
M  V30 6516 H 630.729 2.77148 -5.44976 0
M  V30 6517 H 634.903 2.66993 -6.43185 0
M  V30 6518 H 632.53 2.61003 -7.1399 0
M  V30 6519 N 634.105 1.10431 1.1244 0
M  V30 6520 C 635.037 0.710945 2.17895 0
M  V30 6521 C 636.05 -0.252315 1.60833 0
M  V30 6522 O 637.239 -0.03679 1.78462 0
M  V30 6523 C 634.339 0.0284262 3.38888 0
M  V30 6524 C 633.512 1.01585 4.2544 0
M  V30 6525 C 632.571 0.364826 5.24934 0
M  V30 6526 O 631.597 1.01561 5.60066 0
M  V30 6527 N 632.799 -0.87674 5.73841 0
M  V30 6528 H 635.564 1.61826 2.52255 0
M  V30 6529 H 633.125 0.993132 1.27861 0
M  V30 6530 H 635.117 -0.418568 4.0253 0
M  V30 6531 H 633.687 -0.781294 3.02679 0
M  V30 6532 H 632.907 1.64111 3.58415 0
M  V30 6533 H 634.195 1.68425 4.80115 0
M  V30 6534 H 633.593 -1.42483 5.47462 0
M  V30 6535 H 632.15 -1.26688 6.39369 0
M  V30 6536 N 635.583 -1.29855 0.893053 0
M  V30 6537 C 636.546 -2.26183 0.370687 0
M  V30 6538 C 637.546 -1.53108 -0.491385 0
M  V30 6539 O 638.736 -1.71643 -0.297386 0
M  V30 6540 C 635.868 -3.37633 -0.470827 0
M  V30 6541 H 637.061 -2.73903 1.22135 0
M  V30 6542 H 634.614 -1.41183 0.67061 0
M  V30 6543 H 635.349 -2.95241 -1.34175 0
M  V30 6544 H 635.134 -3.91825 0.146784 0
M  V30 6545 H 636.624 -4.09313 -0.827825 0
M  V30 6546 N 637.061 -0.65484 -1.43351 0
M  V30 6547 C 638.308 -0.168892 -2.01794 0
M  V30 6548 C 638.636 1.2177 -1.51665 0
M  V30 6549 O 637.891 1.82717 -0.70092 0
M  V30 6550 C 638.19 -0.130424 -3.57162 0
M  V30 6551 C 637.856 -1.45898 -4.26643 0
M  V30 6552 C 636.518 -1.82279 -4.4534 0
M  V30 6553 C 638.87 -2.33485 -4.65976 0
M  V30 6554 C 636.198 -3.0591 -5.00635 0
M  V30 6555 C 638.55 -3.5641 -5.22642 0
M  V30 6556 C 637.214 -3.92985 -5.39555 0
M  V30 6557 H 636.484 -0.061802 -0.738418 0
M  V30 6558 H 639.131 -0.845869 -1.71806 0
M  V30 6559 H 637.436 0.630008 -3.86702 0
M  V30 6560 H 639.133 0.262465 -4.0014 0
M  V30 6561 H 635.723 -1.16591 -4.12437 0
M  V30 6562 H 639.907 -2.06668 -4.51223 0
M  V30 6563 H 635.163 -3.34295 -5.11915 0
M  V30 6564 H 639.337 -4.24495 -5.52066 0
M  V30 6565 H 636.964 -4.88862 -5.82167 0
M  V30 6566 N 638.539 1.52521 -0.396863 0
M  V30 6567 C 639.764 2.06571 0.185258 0
M  V30 6568 C 640.189 1.26605 1.39115 0
M  V30 6569 O 639.547 0.293055 1.78916 0
M  V30 6570 C 639.595 3.5674 0.526189 0
M  V30 6571 O 638.699 3.7929 1.61903 0
M  V30 6572 H 638.04 0.663712 0.0195474 0
M  V30 6573 H 640.57 1.966 -0.566519 0
M  V30 6574 H 640.58 4.00311 0.788338 0
M  V30 6575 H 639.255 4.14379 -0.355397 0
M  V30 6576 H 637.832 3.47605 1.35 0
M  V30 6577 N 640.017 0.126909 1.57088 0
M  V30 6578 C 641.433 -0.229641 1.57939 0
M  V30 6579 C 641.633 -1.66145 1.1401 0
M  V30 6580 O 640.689 -2.3843 0.831119 0
M  V30 6581 C 642.002 0.0108648 3.00698 0
M  V30 6582 C 643.55 -0.054418 3.12953 0
M  V30 6583 C 644.025 0.158497 4.57726 0
M  V30 6584 N 645.516 0.104735 4.63082 0
M  V30 6585 C 646.251 0.24427 5.72879 0
M  V30 6586 N 645.747 0.440415 6.91399 0
M  V30 6587 N 647.54 0.183286 5.61801 0
M  V30 6588 H 639.691 1.06203 1.83942 0
M  V30 6589 H 641.954 0.418834 0.85046 0
M  V30 6590 H 641.66 1.00102 3.37154 0
M  V30 6591 H 641.534 -0.717512 3.70313 0
M  V30 6592 H 643.921 -1.0351 2.7635 0
M  V30 6593 H 644.002 0.705967 2.45865 0
M  V30 6594 H 643.646 1.13619 4.95028 0
M  V30 6595 H 643.576 -0.62197 5.22914 0
M  V30 6596 H 646.067 -0.0430298 3.77876 0
M  V30 6597 H 646.38 0.537536 7.70928 0
M  V30 6598 H 644.725 0.476488 6.93365 0
M  V30 6599 H 647.916 0.0309561 4.6809 0
M  V30 6600 H 648.089 0.295471 6.47326 0
M  V30 6601 N 641.495 -1.56914 -0.146875 0
M  V30 6602 C 642.741 -1.83628 -0.860741 0
M  V30 6603 C 643.074 -0.708528 -1.80813 0
M  V30 6604 O 642.349 0.287838 -1.92358 0
M  V30 6605 C 642.632 -3.20836 -1.63511 0
M  V30 6606 C 642.485 -4.44174 -0.709199 0
M  V30 6607 C 643.804 -3.55268 -2.59756 0
M  V30 6608 H 640.923 -0.667949 -0.311468 0
M  V30 6609 H 643.565 -1.89582 -0.125936 0
M  V30 6610 H 641.715 -3.15891 -2.26153 0
M  V30 6611 H 643.387 -4.61205 -0.0937781 0
M  V30 6612 H 641.63 -4.33796 -0.0187856 0
M  V30 6613 H 642.301 -5.36785 -1.28707 0
M  V30 6614 H 644.777 -3.60824 -2.07232 0
M  V30 6615 H 643.653 -4.52303 -3.10987 0
M  V30 6616 H 643.914 -2.81231 -3.41118 0
M  V30 6617 N 642.974 0.416227 -1.52004 0
M  V30 6618 C 644.223 1.16088 -1.64944 0
M  V30 6619 C 644.536 1.91835 -0.381928 0
M  V30 6620 O 645.742 2.6867 -0.391013 0
M  V30 6621 C 644.198 2.1124 -2.91386 0
M  V30 6622 C 643.806 1.41042 -4.25219 0
M  V30 6623 C 645.55 2.86008 -3.13688 0
M  V30 6624 C 643.457 2.34801 -5.42791 0
M  V30 6625 H 642.387 0.437041 -0.61442 0
M  V30 6626 H 645.038 0.425971 -1.78487 0
M  V30 6627 H 643.42 2.88254 -2.71525 0
M  V30 6628 H 644.594 0.694416 -4.55538 0
M  V30 6629 H 642.909 0.78344 -4.08964 0
M  V30 6630 H 645.506 3.56286 -3.98703 0
M  V30 6631 H 645.849 3.48556 -2.27628 0
M  V30 6632 H 646.382 2.16095 -3.33988 0
M  V30 6633 H 643.121 1.7691 -6.31176 0
M  V30 6634 H 642.641 3.04395 -5.16821 0
M  V30 6635 H 644.32 2.9548 -5.75587 0
M  V30 6636 N 644.452 1.42507 0.673017 0
M  V30 6637 C 645.868 1.25472 0.986355 0
M  V30 6638 C 646.068 0.160181 2.00862 0
M  V30 6639 O 645.124 -0.467993 2.48125 0
M  V30 6640 C 646.437 2.61219 1.48947 0
M  V30 6641 C 647.985 2.68589 1.60715 0
M  V30 6642 C 648.46 4.04707 2.14422 0
M  V30 6643 N 649.951 4.0667 2.21752 0
M  V30 6644 C 650.686 5.0881 2.64386 0
M  V30 6645 N 650.182 6.21332 3.0646 0
M  V30 6646 N 651.975 4.96166 2.64151 0
M  V30 6647 H 644.126 2.124 -0.00378532 0
M  V30 6648 H 646.389 0.946046 0.0608367 0
M  V30 6649 H 646.095 3.42179 0.812812 0
M  V30 6650 H 645.969 2.85261 2.46791 0
M  V30 6651 H 648.356 1.87974 2.27486 0
M  V30 6652 H 648.437 2.48333 0.613552 0
M  V30 6653 H 648.081 4.8578 1.48258 0
M  V30 6654 H 648.011 4.22315 3.14575 0
M  V30 6655 H 650.502 3.25438 1.92089 0
M  V30 6656 H 650.815 6.95118 3.37684 0
M  V30 6657 H 649.16 6.24835 3.04313 0
M  V30 6658 H 652.351 4.07334 2.30644 0
M  V30 6659 H 652.524 5.759 2.97057 0
M  V30 6660 N 645.93 -0.909495 1.28709 0
M  V30 6661 C 646.84 -2.04558 1.14861 0
M  V30 6662 C 647.856 -1.73842 0.0741621 0
M  V30 6663 O 649.032 -1.99383 0.2843 0
M  V30 6664 C 646.097 -3.36957 0.816148 0
M  V30 6665 C 645.158 -3.81255 1.97341 0
M  V30 6666 C 644.391 -5.07335 1.65671 0
M  V30 6667 O 644.614 -5.67514 0.573053 0
M  V30 6668 O 643.548 -5.47449 2.50167 0
M  V30 6669 H 647.374 -2.19161 2.10243 0
M  V30 6670 H 644.959 -1.03159 1.08068 0
M  V30 6671 H 646.841 -4.16436 0.644873 0
M  V30 6672 H 645.516 -3.2352 -0.107983 0
M  V30 6673 H 644.423 -3.02584 2.19986 0
M  V30 6674 H 645.756 -3.99261 2.87839 0
M  V30 6675 N 647.408 -1.11026 -1.11852 0
M  V30 6676 C 648.371 -0.768006 -2.1595 0
M  V30 6677 C 649.371 0.210538 -1.59416 0
M  V30 6678 O 650.561 -0.0133978 -1.74195 0
M  V30 6679 C 647.693 -0.138678 -3.40618 0
M  V30 6680 H 648.886 -1.69012 -2.4774 0
M  V30 6681 H 646.439 -0.911578 -1.26964 0
M  V30 6682 H 647.174 0.793872 -3.14433 0
M  V30 6683 H 646.959 -0.843012 -3.8293 0
M  V30 6684 H 648.449 0.0848039 -4.17514 0
M  V30 6685 N 648.886 1.2938 -0.899927 0
M  V30 6686 C 650.134 1.95164 -0.524924 0
M  V30 6687 C 650.455 1.71292 0.931888 0
M  V30 6688 O 649.725 1.04481 1.65712 0
M  V30 6689 H 648.305 0.722133 -0.191135 0
M  V30 6690 H 650.967 1.57628 -1.14627 0
M  V30 6691 H 650.063 3.0397 -0.707711 0
M  V30 6692 N 650.364 0.662433 1.43002 0
M  V30 6693 C 651.311 -0.0235324 2.30788 0
M  V30 6694 C 652.281 -0.805342 1.4527 0
M  V30 6695 O 653.466 -0.78009 1.74124 0
M  V30 6696 C 650.606 -0.977545 3.30965 0
M  V30 6697 C 649.719 -0.190865 4.31578 0
M  V30 6698 C 648.854 -1.13951 5.18834 0
M  V30 6699 C 647.893 -0.343796 6.11134 0
M  V30 6700 N 647.03 -1.2445 6.90982 0
M  V30 6701 H 651.87 0.730921 2.88897 0
M  V30 6702 H 649.407 0.372197 1.42313 0
M  V30 6703 H 651.365 -1.54437 3.87563 0
M  V30 6704 H 649.995 -1.69877 2.74484 0
M  V30 6705 H 649.047 0.492388 3.772 0
M  V30 6706 H 650.359 0.427464 4.96965 0
M  V30 6707 H 649.513 -1.77666 5.80103 0
M  V30 6708 H 648.252 -1.79174 4.53595 0
M  V30 6709 H 647.257 0.30665 5.48944 0
M  V30 6710 H 648.482 0.304161 6.78419 0
M  V30 6711 H 646.428 -1.88336 6.28383 0
M  V30 6712 H 646.345 -0.680959 7.52927 0
M  V30 6713 H 647.613 -1.86952 7.56749 0
M  V30 6714 N 651.842 -1.52309 0.404946 0
M  V30 6715 C 653.258 -1.59503 0.0556255 0
M  V30 6716 C 653.458 -1.41805 -1.43156 0
M  V30 6717 O 652.514 -1.2429 -2.19792 0
M  V30 6718 C 653.827 -2.95687 0.546801 0
M  V30 6719 C 655.375 -3.08909 0.504413 0
M  V30 6720 C 655.85 -4.47566 0.97203 0
M  V30 6721 N 657.341 -4.53795 0.928679 0
M  V30 6722 C 658.076 -5.59346 1.26174 0
M  V30 6723 N 657.572 -6.72469 1.66604 0
M  V30 6724 N 659.365 -5.49532 1.18198 0
M  V30 6725 H 651.516 -1.6206 1.37296 0
M  V30 6726 H 653.779 -0.762161 0.563751 0
M  V30 6727 H 653.485 -3.13905 1.58609 0
M  V30 6728 H 653.359 -3.77172 -0.0457905 0
M  V30 6729 H 655.746 -2.90378 -0.525819 0
M  V30 6730 H 655.827 -2.2934 1.13301 0
M  V30 6731 H 655.471 -4.6684 2.00057 0
M  V30 6732 H 655.401 -5.25625 0.320292 0
M  V30 6733 H 657.892 -3.72588 0.631369 0
M  V30 6734 H 658.205 -7.48993 1.9034 0
M  V30 6735 H 656.55 -6.73761 1.70504 0
M  V30 6736 H 659.741 -4.60038 0.865011 0
M  V30 6737 H 659.914 -6.31687 1.44485 0
M  V30 6738 N 653.32 -0.135238 -1.57019 0
M  V30 6739 C 654.567 0.518794 -1.95742 0
M  V30 6740 C 654.895 1.65642 -1.01947 0
M  V30 6741 O 654.15 1.95645 -0.0464016 0
M  V30 6742 C 654.449 1.07694 -3.40788 0
M  V30 6743 C 654.115 0.058992 -4.50861 0
M  V30 6744 C 652.777 -0.220872 -4.80693 0
M  V30 6745 C 655.129 -0.633856 -5.17331 0
M  V30 6746 C 652.457 -1.19959 -5.74305 0
M  V30 6747 C 654.809 -1.60131 -6.11997 0
M  V30 6748 C 653.473 -1.889 -6.40213 0
M  V30 6749 H 652.743 0.18984 -0.716269 0
M  V30 6750 H 655.39 -0.219581 -1.90237 0
M  V30 6751 H 653.695 1.89241 -3.43067 0
M  V30 6752 H 655.392 1.59137 -3.68071 0
M  V30 6753 H 651.982 0.287304 -4.27636 0
M  V30 6754 H 656.166 -0.430823 -4.94427 0
M  V30 6755 H 651.422 -1.42905 -5.94465 0
M  V30 6756 H 655.596 -2.14376 -6.62583 0
M  V30 6757 H 653.223 -2.64891 -7.12556 0
M  V30 6758 N 654.798 1.5699 0.138552 0
M  V30 6759 C 656.044 1.84081 0.85099 0
M  V30 6760 C 656.377 0.718107 1.80435 0
M  V30 6761 O 655.652 -0.277633 1.92508 0
M  V30 6762 C 655.935 3.21699 1.61808 0
M  V30 6763 C 655.788 4.44544 0.685633 0
M  V30 6764 C 657.107 3.5664 2.57868 0
M  V30 6765 H 654.226 0.669592 0.307922 0
M  V30 6766 H 656.868 1.89646 0.11588 0
M  V30 6767 H 655.018 3.17086 2.24474 0
M  V30 6768 H 656.69 4.61248 0.0693179 0
M  V30 6769 H 654.933 4.338 -0.00421993 0
M  V30 6770 H 655.604 5.3746 1.25858 0
M  V30 6771 H 658.08 3.61918 2.05316 0
M  V30 6772 H 656.956 4.53946 3.08584 0
M  V30 6773 H 657.217 2.83036 3.39622 0
M  V30 6774 N 656.276 -0.40816 1.52223 0
M  V30 6775 C 657.522 -1.15673 1.66576 0
M  V30 6776 C 657.855 -1.90141 0.394996 0
M  V30 6777 O 657.13 -1.84798 -0.606613 0
M  V30 6778 C 657.413 -2.15042 2.88841 0
M  V30 6779 C 657.266 -1.44465 4.25969 0
M  V30 6780 C 658.585 -3.15699 3.0663 0
M  V30 6781 H 655.704 -0.41916 0.606196 0
M  V30 6782 H 658.346 -0.442348 1.84779 0
M  V30 6783 H 656.496 -2.75964 2.73452 0
M  V30 6784 H 658.168 -0.866544 4.53088 0
M  V30 6785 H 656.411 -0.746612 4.27327 0
M  V30 6786 H 657.082 -2.16976 5.07568 0
M  V30 6787 H 659.558 -2.64854 3.20923 0
M  V30 6788 H 658.434 -3.82491 3.9369 0
M  V30 6789 H 658.695 -3.83481 2.19987 0
M  V30 6790 N 657.755 -1.42862 -0.66545 0
M  V30 6791 C 658.688 -1.41509 -1.79026 0
M  V30 6792 C 659.666 -0.278106 -1.60204 0
M  V30 6793 O 660.85 -0.469792 -1.82552 0
M  V30 6794 C 657.977 -1.21494 -3.1616 0
M  V30 6795 C 657.023 -2.38308 -3.53711 0
M  V30 6796 S 657.856 -4.00852 -3.55075 0
M  V30 6797 C 659.012 -3.83197 -4.94885 0
M  V30 6798 H 659.245 -2.36691 -1.79902 0
M  V30 6799 H 656.778 -1.29746 -0.836977 0
M  V30 6800 H 658.736 -1.10633 -3.95311 0
M  V30 6801 H 657.397 -0.27881 -3.1286 0
M  V30 6802 H 656.59 -2.20076 -4.53412 0
M  V30 6803 H 656.192 -2.45732 -2.81943 0
M  V30 6804 H 658.484 -3.44765 -5.83218 0
M  V30 6805 H 659.427 -4.82607 -5.18166 0
M  V30 6806 H 659.835 -3.15884 -4.67843 0
M  V30 6807 N 659.233 0.902656 -1.29189 0
M  V30 6808 C 660.51 1.63296 -1.07674 0
M  V30 6809 C 660.89 2.07649 0.380137 0
M  V30 6810 O 660.238 1.82997 1.36837 0
M  V30 6811 C 660.448 2.81603 -2.06158 0
M  V30 6812 C 661.796 3.52359 -2.36914 0
M  V30 6813 O 662.82 2.91767 -2.04329 0
M  V30 6814 O 661.679 4.61586 -2.92576 0
M  V30 6815 H 658.773 0.716889 -0.41231 0
M  V30 6816 H 661.319 0.950984 -1.4055 0
M  V30 6817 H 660.091 2.46004 -3.04299 0
M  V30 6818 H 659.714 3.57508 -1.73993 0
M  V30 6819 N 660.711 1.11618 1.11262 0
M  V30 6820 C 661.939 0.888739 1.8684 0
M  V30 6821 C 662.354 -0.561558 1.80255 0
M  V30 6822 O 661.711 -1.38782 1.18515 0
M  V30 6823 C 661.762 1.34422 3.35579 0
M  V30 6824 O 661.483 2.73766 3.42029 0
M  V30 6825 C 662.984 1.15246 4.28058 0
M  V30 6826 H 660.204 0.318152 0.590779 0
M  V30 6827 H 662.748 1.48398 1.40707 0
M  V30 6828 H 660.903 0.79239 3.7921 0
M  V30 6829 H 661.317 2.9355 4.34659 0
M  V30 6830 H 662.791 1.52015 5.30656 0
M  V30 6831 H 663.268 0.0922007 4.39103 0
M  V30 6832 H 663.874 1.69136 3.90222 0
M  V30 6833 N 662.189 -1.289 0.906776 0
M  V30 6834 C 663.152 -2.25777 0.394656 0
M  V30 6835 C 664.152 -1.53621 -0.475119 0
M  V30 6836 O 665.342 -1.71949 -0.279165 0
M  V30 6837 C 662.474 -3.38113 -0.43499 0
M  V30 6838 H 663.667 -2.72592 1.25033 0
M  V30 6839 H 661.22 -1.40463 0.685547 0
M  V30 6840 H 661.955 -2.96648 -1.31036 0
M  V30 6841 H 661.74 -3.91647 0.188334 0
M  V30 6842 H 663.23 -4.10168 -0.784365 0
M  V30 6843 N 663.667 -0.670007 -1.42649 0
M  V30 6844 C 665.078 -0.268118 -1.84765 0
M  V30 6845 C 665.429 1.18877 -1.56086 0
M  V30 6846 O 664.554 1.90947 -1.01825 0
M  V30 6847 C 665.149 -0.47984 -3.35385 0
M  V30 6848 C 663.708 -0.132116 -3.76168 0
M  V30 6849 C 662.855 -0.774611 -2.66261 0
M  V30 6850 H 665.806 -0.872509 -1.32563 0
M  V30 6851 H 665.827 0.269522 -3.79544 0
M  V30 6852 H 665.339 -1.54026 -3.56227 0
M  V30 6853 H 663.44 0.92505 -3.60934 0
M  V30 6854 H 663.553 -0.569294 -4.75706 0
M  V30 6855 H 661.917 -0.206353 -2.53863 0
M  V30 6856 H 662.7 -1.83839 -2.89928 0
M  V30 6857 N 665.145 1.52092 -0.413018 0
M  V30 6858 C 666.373 2.06274 0.160881 0
M  V30 6859 C 666.788 1.28273 1.38533 0
M  V30 6860 O 666.145 0.33563 1.79387 0
M  V30 6861 C 666.196 3.57921 0.507443 0
M  V30 6862 O 665.917 4.32971 -0.668388 0
M  V30 6863 C 667.418 4.28533 1.13465 0
M  V30 6864 H 664.638 0.67074 0.0186759 0
M  V30 6865 H 667.182 1.95951 -0.585092 0
M  V30 6866 H 665.337 3.68238 1.20331 0
M  V30 6867 H 665.751 5.23135 -0.378169 0
M  V30 6868 H 667.225 5.35804 1.32732 0
M  V30 6869 H 667.702 3.85258 2.10886 0
M  V30 6870 H 668.308 4.22595 0.478876 0
M  V30 6871 N 666.623 0.143563 1.56945 0
M  V30 6872 C 667.871 -0.507402 1.95627 0
M  V30 6873 C 668.192 -1.65626 1.02922 0
M  V30 6874 O 667.462 -1.95693 0.0901136 0
M  V30 6875 H 666.042 -0.190436 0.722318 0
M  V30 6876 H 668.704 0.218257 1.93674 0
M  V30 6877 H 667.8 -0.885816 2.99265 0
M  V30 6878 N 668.101 -1.57061 -0.130224 0
M  V30 6879 C 669.051 -1.95941 -1.16582 0
M  V30 6880 C 670.035 -0.832858 -1.37667 0
M  V30 6881 O 671.227 -1.09647 -1.38948 0
M  V30 6882 C 668.356 -2.35777 -2.49528 0
M  V30 6883 C 667.442 -3.5504 -2.31964 0
M  V30 6884 N 667.833 -4.71071 -1.84189 0
M  V30 6885 C 666.131 -3.60453 -2.62659 0
M  V30 6886 C 666.832 -5.53128 -1.80068 0
M  V30 6887 N 665.808 -4.95303 -2.24001 0
M  V30 6888 H 669.61 -2.83117 -0.788806 0
M  V30 6889 H 667.124 -1.58842 -0.3381 0
M  V30 6890 H 669.121 -2.61843 -3.24413 0
M  V30 6891 H 667.781 -1.49961 -2.87996 0
M  V30 6892 H 668.792 -4.94504 -1.53903 0
M  V30 6893 H 665.469 -2.85217 -3.0489 0
M  V30 6894 H 666.859 -6.56182 -1.4448 0
M  V30 6895 N 669.579 0.400081 -1.52437 0
M  V30 6896 C 670.807 1.16768 -1.70801 0
M  V30 6897 C 671.222 1.84036 -0.421462 0
M  V30 6898 O 670.579 1.72242 0.603228 0
M  V30 6899 C 670.63 2.22403 -2.8499 0
M  V30 6900 O 670.351 1.57879 -4.08663 0
M  V30 6901 C 671.852 3.11974 -3.1494 0
M  V30 6902 H 669.072 0.350533 -0.57216 0
M  V30 6903 H 671.616 0.469534 -1.99037 0
M  V30 6904 H 669.771 2.87871 -2.59247 0
M  V30 6905 H 670.185 2.27982 -4.7236 0
M  V30 6906 H 671.659 3.82148 -3.9833 0
M  V30 6907 H 672.136 3.74858 -2.28863 0
M  V30 6908 H 672.742 2.52165 -3.42481 0
M  V30 6909 N 671.057 1.43213 0.657864 0
M  V30 6910 C 671.987 1.50815 1.78262 0
M  V30 6911 C 672.968 0.363211 1.66177 0
M  V30 6912 O 674.153 0.579806 1.85343 0
M  V30 6913 C 671.283 1.42625 3.16663 0
M  V30 6914 C 670.237 2.5532 3.43505 0
M  V30 6915 C 669.563 2.32184 4.81658 0
M  V30 6916 C 670.863 3.97583 3.38711 0
M  V30 6917 H 672.557 2.44954 1.72157 0
M  V30 6918 H 670.103 1.17896 0.82683 0
M  V30 6919 H 672.056 1.46548 3.95097 0
M  V30 6920 H 670.78 0.449877 3.23487 0
M  V30 6921 H 669.439 2.50742 2.6744 0
M  V30 6922 H 669.087 1.32801 4.85153 0
M  V30 6923 H 668.787 3.07724 5.00579 0
M  V30 6924 H 670.311 2.37883 5.62356 0
M  V30 6925 H 671.725 4.03673 4.07089 0
M  V30 6926 H 670.122 4.73112 3.69168 0
M  V30 6927 H 671.192 4.23049 2.36976 0
M  V30 6928 N 672.536 -0.895792 1.29666 0
M  V30 6929 C 673.466 -2.01673 1.17688 0
M  V30 6930 C 674.447 -1.69955 0.0701317 0
M  V30 6931 O 675.632 -1.9258 0.250289 0
M  V30 6932 C 672.762 -3.36568 0.856681 0
M  V30 6933 C 671.716 -3.82509 1.92017 0
M  V30 6934 C 671.042 -5.14574 1.4532 0
M  V30 6935 C 672.342 -4.02409 3.32963 0
M  V30 6936 H 674.036 -2.11953 2.11463 0
M  V30 6937 H 671.582 -1.01839 1.01807 0
M  V30 6938 H 673.535 -4.14498 0.759577 0
M  V30 6939 H 672.259 -3.26391 -0.116763 0
M  V30 6940 H 670.918 -3.068 2.00673 0
M  V30 6941 H 670.566 -5.00815 0.468325 0
M  V30 6942 H 670.266 -5.46283 2.16447 0
M  V30 6943 H 671.79 -5.9504 1.36968 0
M  V30 6944 H 673.204 -4.70808 3.27127 0
M  V30 6945 H 671.601 -4.45478 4.02082 0
M  V30 6946 H 672.671 -3.06616 3.75652 0
M  V30 6947 N 674.014 -1.12206 -1.10668 0
M  V30 6948 C 674.944 -0.810086 -2.18997 0
M  V30 6949 C 675.925 0.225065 -1.68604 0
M  V30 6950 O 677.11 0.086783 -1.94006 0
M  V30 6951 C 674.24 -0.261262 -3.46316 0
M  V30 6952 C 673.194 -1.2292 -4.09969 0
M  V30 6953 C 672.52 -0.540713 -5.31959 0
M  V30 6954 C 673.82 -2.58295 -4.53962 0
M  V30 6955 H 675.514 -1.7159 -2.45352 0
M  V30 6956 H 673.06 -0.82646 -1.17922 0
M  V30 6957 H 675.013 -0.0307522 -4.21389 0
M  V30 6958 H 673.737 0.679879 -3.19445 0
M  V30 6959 H 672.396 -1.44548 -3.369 0
M  V30 6960 H 672.044 0.405492 -5.01363 0
M  V30 6961 H 671.744 -1.18637 -5.75499 0
M  V30 6962 H 673.268 -0.319184 -6.09765 0
M  V30 6963 H 674.682 -2.40709 -5.20319 0
M  V30 6964 H 673.079 -3.18916 -5.08343 0
M  V30 6965 H 674.149 -3.16918 -3.67002 0
M  V30 6966 N 675.492 1.28418 -0.913599 0
M  V30 6967 C 676.422 2.29713 -0.418847 0
M  V30 6968 C 677.403 1.62165 0.513469 0
M  V30 6969 O 678.588 1.89576 0.421235 0
M  V30 6970 C 675.718 3.45612 0.342042 0
M  V30 6971 C 674.672 4.25056 -0.501123 0
M  V30 6972 C 673.998 5.3329 0.388097 0
M  V30 6973 C 675.298 4.91814 -1.75831 0
M  V30 6974 H 676.992 2.71346 -1.26538 0
M  V30 6975 H 674.538 1.30446 -0.609903 0
M  V30 6976 H 676.491 4.15562 0.699 0
M  V30 6977 H 675.215 3.02858 1.22248 0
M  V30 6978 H 673.874 3.56833 -0.840598 0
M  V30 6979 H 673.522 4.8678 1.26707 0
M  V30 6980 H 673.222 5.87347 -0.172459 0
M  V30 6981 H 674.746 6.06088 0.74094 0
M  V30 6982 H 676.16 5.54126 -1.47026 0
M  V30 6983 H 674.557 5.55866 -2.26126 0
M  V30 6984 H 675.627 4.16313 -2.4862 0
M  V30 6985 N 676.97 0.677563 1.42291 0
M  V30 6986 C 678.247 0.129803 1.95169 0
M  V30 6987 C 678.627 -1.35605 1.61786 0
M  V30 6988 O 677.975 -2.09361 0.915444 0
M  V30 6989 C 678.185 0.401889 3.46678 0
M  V30 6990 C 679.533 0.319889 4.23393 0
M  V30 6991 O 680.557 0.33579 3.54614 0
M  V30 6992 O 679.416 0.264459 5.4586 0
M  V30 6993 H 676.51 0.00447433 0.826988 0
M  V30 6994 H 679.056 0.752483 1.52105 0
M  V30 6995 H 677.828 1.43108 3.64192 0
M  V30 6996 H 677.451 -0.252662 3.96796 0
M  V30 6997 N 678.448 -1.51871 0.421078 0
M  V30 6998 C 679.411 -2.25914 -0.386712 0
M  V30 6999 C 680.411 -1.28733 -0.963555 0
M  V30 7000 O 681.601 -1.52579 -0.840556 0
M  V30 7001 C 678.733 -3.03853 -1.54551 0
M  V30 7002 H 679.926 -2.98754 0.261978 0
M  V30 7003 H 677.479 -1.5533 0.173862 0
M  V30 7004 H 678.214 -2.35392 -2.23072 0
M  V30 7005 H 677.999 -3.75215 -1.13824 0
M  V30 7006 H 679.489 -3.59984 -2.11663 0
M  V30 7007 N 679.926 -0.151884 -1.56866 0
M  V30 7008 C 681.154 0.504813 -2.00647 0
M  V30 7009 C 681.569 1.58098 -1.03201 0
M  V30 7010 O 680.926 1.82476 -0.0297814 0
M  V30 7011 C 680.977 1.10099 -3.44326 0
M  V30 7012 O 680.698 0.0678021 -4.38048 0
M  V30 7013 C 682.199 1.83782 -4.03409 0
M  V30 7014 H 679.419 0.130989 -0.65809 0
M  V30 7015 H 681.963 -0.247903 -2.02992 0
M  V30 7016 H 680.118 1.8043 -3.42817 0
M  V30 7017 H 680.532 0.505237 -5.22061 0
M  V30 7018 H 682.006 2.2078 -5.05925 0
M  V30 7019 H 682.483 2.72557 -3.44397 0
M  V30 7020 H 683.089 1.18138 -4.08563 0
M  V30 7021 N 681.404 1.57128 0.121893 0
M  V30 7022 C 682.652 1.84335 0.828548 0
M  V30 7023 C 682.973 0.736632 1.80551 0
M  V30 7024 O 682.243 -0.23962 1.94429 0
M  V30 7025 H 680.823 0.680108 0.30897 0
M  V30 7026 H 683.485 1.9459 0.109906 0
M  V30 7027 H 682.581 2.80152 1.37554 0
M  V30 7028 N 682.882 -0.391992 1.52647 0
M  V30 7029 C 683.845 -1.46135 1.7657 0
M  V30 7030 C 684.845 -1.47701 0.635698 0
M  V30 7031 O 686.035 -1.48924 0.903728 0
M  V30 7032 C 683.167 -2.85443 1.86374 0
M  V30 7033 H 684.36 -1.26208 2.72051 0
M  V30 7034 H 681.913 -0.623549 1.43323 0
M  V30 7035 H 682.648 -3.10718 0.928685 0
M  V30 7036 H 682.433 -2.85708 2.68539 0
M  V30 7037 H 683.923 -3.62933 2.06566 0
M  V30 7038 N 684.36 -1.4356 -0.65026 0
M  V30 7039 C 685.59 -1.48563 -1.4357 0
M  V30 7040 C 685.998 -0.103041 -1.88919 0
M  V30 7041 O 685.341 0.897602 -1.60277 0
M  V30 7042 C 685.403 -2.37181 -2.70158 0
M  V30 7043 C 685.067 -3.84673 -2.4673 0
M  V30 7044 C 686.064 -4.75704 -2.09765 0
M  V30 7045 C 683.749 -4.29189 -2.60963 0
M  V30 7046 C 685.743 -6.09249 -1.87334 0
M  V30 7047 C 683.43 -5.62787 -2.38147 0
M  V30 7048 C 684.428 -6.52634 -2.01389 0
M  V30 7049 O 684.116 -7.83761 -1.78813 0
M  V30 7050 H 683.848 -0.506743 -0.447423 0
M  V30 7051 H 686.402 -1.89001 -0.80423 0
M  V30 7052 H 684.632 -1.91636 -3.35876 0
M  V30 7053 H 686.321 -2.33354 -3.32116 0
M  V30 7054 H 687.087 -4.42589 -1.98343 0
M  V30 7055 H 682.966 -3.59529 -2.88548 0
M  V30 7056 H 686.51 -6.7934 -1.58567 0
M  V30 7057 H 682.407 -5.95469 -2.49173 0
M  V30 7058 H 683.175 -7.95368 -1.93214 0
M  V30 7059 N 685.838 0.888903 -1.30139 0
M  V30 7060 C 686.788 1.9814 -1.12803 0
M  V30 7061 C 687.772 1.60839 -0.0443137 0
M  V30 7062 O 688.964 1.74971 -0.267208 0
M  V30 7063 C 686.093 3.33416 -0.817849 0
M  V30 7064 C 685.179 3.77043 -1.94163 0
M  V30 7065 N 685.57 3.92805 -3.18651 0
M  V30 7066 C 683.868 4.06407 -1.8371 0
M  V30 7067 C 684.569 4.29746 -3.92038 0
M  V30 7068 N 683.545 4.3939 -3.20059 0
M  V30 7069 H 687.347 2.08411 -2.07225 0
M  V30 7070 H 684.861 1.07845 -1.21421 0
M  V30 7071 H 686.858 4.11405 -0.674668 0
M  V30 7072 H 685.518 3.24484 0.118344 0
M  V30 7073 H 686.529 3.78042 -3.53984 0
M  V30 7074 H 683.206 4.05972 -0.974331 0
M  V30 7075 H 684.596 4.49695 -4.99223 0
M  V30 7076 N 687.317 1.12792 1.10072 0
M  V30 7077 C 688.733 0.864745 1.34143 0
M  V30 7078 C 688.933 -0.503201 1.95116 0
M  V30 7079 O 687.989 -1.25111 2.19325 0
M  V30 7080 C 689.302 1.98413 2.25949 0
M  V30 7081 C 690.85 2.01545 2.39476 0
M  V30 7082 C 691.325 3.12727 3.34613 0
M  V30 7083 N 692.816 3.12194 3.42183 0
M  V30 7084 C 693.551 3.94862 4.15779 0
M  V30 7085 N 693.047 4.87528 4.92228 0
M  V30 7086 N 694.84 3.82985 4.11435 0
M  V30 7087 H 686.991 2.00926 0.68866 0
M  V30 7088 H 689.254 0.874564 0.365844 0
M  V30 7089 H 688.96 2.97005 1.88364 0
M  V30 7090 H 688.834 1.89254 3.26287 0
M  V30 7091 H 691.221 1.0357 2.76328 0
M  V30 7092 H 691.302 2.14777 1.3894 0
M  V30 7093 H 690.946 4.10936 2.98486 0
M  V30 7094 H 690.876 2.96732 4.35037 0
M  V30 7095 H 693.367 2.45065 2.87666 0
M  V30 7096 H 693.68 5.47109 5.45794 0
M  V30 7097 H 692.025 4.91539 4.9134 0
M  V30 7098 H 695.216 3.09923 3.50807 0
M  V30 7099 H 695.389 4.47641 4.68531 0
M  V30 7100 N 688.795 -1.27931 0.920396 0
M  V30 7101 C 689.705 -2.30824 0.419212 0
M  V30 7102 C 690.721 -1.66767 -0.496461 0
M  V30 7103 O 691.897 -1.97763 -0.38104 0
M  V30 7104 C 688.962 -3.45158 -0.326601 0
M  V30 7105 C 688.023 -4.24754 0.623098 0
M  V30 7106 C 687.256 -5.33629 -0.0872172 0
M  V30 7107 O 687.479 -5.55204 -1.30784 0
M  V30 7108 O 686.413 -5.99091 0.580875 0
M  V30 7109 H 690.239 -2.75716 1.27337 0
M  V30 7110 H 687.824 -1.32747 0.685465 0
M  V30 7111 H 689.706 -4.14716 -0.747559 0
M  V30 7112 H 688.381 -3.02336 -1.15648 0
M  V30 7113 H 687.288 -3.57759 1.09359 0
M  V30 7114 H 688.621 -4.71272 1.41998 0
M  V30 7115 N 690.273 -0.685099 -1.4193 0
M  V30 7116 C 691.522 -0.208816 -2.00616 0
M  V30 7117 C 691.835 1.19506 -1.54847 0
M  V30 7118 O 693.041 1.76826 -2.06021 0
M  V30 7119 C 691.497 -0.322446 -3.58453 0
M  V30 7120 C 691.105 -1.73102 -4.13206 0
M  V30 7121 C 692.849 0.0945979 -4.24395 0
M  V30 7122 C 690.756 -1.79687 -5.63442 0
M  V30 7123 H 689.686 -0.0743092 -0.750329 0
M  V30 7124 H 692.337 -0.851778 -1.62533 0
M  V30 7125 H 690.719 0.388588 -3.94089 0
M  V30 7126 H 691.893 -2.46997 -3.8901 0
M  V30 7127 H 690.208 -2.09682 -3.59753 0
M  V30 7128 H 692.805 0.0656937 -5.3466 0
M  V30 7129 H 693.148 1.1316 -4.00625 0
M  V30 7130 H 693.681 -0.56579 -3.93756 0
M  V30 7131 H 690.42 -2.81404 -5.92024 0
M  V30 7132 H 689.94 -1.10162 -5.89597 0
M  V30 7133 H 691.619 -1.55498 -6.28036 0
M  V30 7134 N 691.751 1.51645 -0.429126 0
M  V30 7135 C 692.714 2.26116 0.374726 0
M  V30 7136 C 693.714 1.29242 0.956714 0
M  V30 7137 O 694.904 1.53022 0.832452 0
M  V30 7138 C 692.036 3.04669 1.52937 0
M  V30 7139 H 693.229 2.9861 -0.277818 0
M  V30 7140 H 690.782 1.55236 -0.182097 0
M  V30 7141 H 691.517 2.36571 2.21821 0
M  V30 7142 H 691.302 3.75814 1.11833 0
M  V30 7143 H 692.792 3.61102 2.09751 0
M  V30 7144 N 693.229 0.160201 1.56784 0
M  V30 7145 C 694.176 -0.774416 2.1742 0
M  V30 7146 C 695.146 -1.23483 1.11091 0
M  V30 7147 O 696.331 -1.30499 1.39193 0
M  V30 7148 C 693.471 -2.00283 2.81035 0
M  V30 7149 C 692.584 -1.58701 4.01793 0
M  V30 7150 C 691.719 -2.76824 4.53367 0
M  V30 7151 C 690.758 -2.31679 5.66561 0
M  V30 7152 N 689.895 -3.42856 6.12694 0
M  V30 7153 H 694.735 -0.250542 2.96945 0
M  V30 7154 H 692.272 -0.111943 1.46673 0
M  V30 7155 H 694.23 -2.72316 3.16069 0
M  V30 7156 H 692.86 -2.5006 2.04132 0
M  V30 7157 H 691.912 -0.76384 3.72652 0
M  V30 7158 H 693.224 -1.21555 4.83762 0
M  V30 7159 H 692.378 -3.57029 4.90525 0
M  V30 7160 H 691.117 -3.17223 3.70433 0
M  V30 7161 H 690.122 -1.49917 5.28966 0
M  V30 7162 H 691.347 -1.9235 6.5129 0
M  V30 7163 H 689.293 -3.82852 5.32692 0
M  V30 7164 H 689.21 -3.09767 6.89624 0
M  V30 7165 H 690.478 -4.23379 6.545 0
M  V30 7166 N 694.707 -1.5719 -0.113559 0
M  V30 7167 C 695.654 -2.00736 -1.13901 0
M  V30 7168 C 696.624 -0.88044 -1.40846 0
M  V30 7169 O 697.809 -1.14507 -1.5262 0
M  V30 7170 C 694.949 -2.42132 -2.45899 0
M  V30 7171 C 694.062 -3.68264 -2.25844 0
M  V30 7172 C 693.197 -3.98617 -3.5111 0
M  V30 7173 C 692.236 -5.17915 -3.26236 0
M  V30 7174 N 691.373 -5.44111 -4.4372 0
M  V30 7175 H 696.213 -2.88128 -0.760677 0
M  V30 7176 H 693.75 -1.42523 -0.364099 0
M  V30 7177 H 695.708 -2.6417 -3.22908 0
M  V30 7178 H 694.338 -1.57775 -2.81615 0
M  V30 7179 H 693.39 -3.53809 -1.39726 0
M  V30 7180 H 694.702 -4.55425 -2.03444 0
M  V30 7181 H 693.856 -4.21333 -4.36536 0
M  V30 7182 H 692.595 -3.09942 -3.76546 0
M  V30 7183 H 691.6 -4.95038 -2.39202 0
M  V30 7184 H 692.825 -6.08172 -3.02165 0
M  V30 7185 H 690.771 -4.58394 -4.69266 0
M  V30 7186 H 690.688 -6.25606 -4.24444 0
M  V30 7187 H 691.956 -5.71351 -5.30263 0
M  V30 7188 N 696.185 0.383891 -1.52853 0
M  V30 7189 C 697.118 1.49105 -1.72751 0
M  V30 7190 C 698.096 1.52077 -0.575438 0
M  V30 7191 O 699.28 1.70406 -0.805854 0
M  V30 7192 C 696.407 2.87551 -1.78975 0
M  V30 7193 C 695.453 3.02383 -3.00777 0
M  V30 7194 S 696.286 2.73048 -4.60657 0
M  V30 7195 C 697.442 4.13678 -4.69704 0
M  V30 7196 H 697.675 1.32002 -2.66388 0
M  V30 7197 H 695.208 0.577088 -1.4321 0
M  V30 7198 H 697.166 3.6733 -1.83246 0
M  V30 7199 H 695.827 3.01977 -0.864215 0
M  V30 7200 H 695.02 4.03733 -3.01688 0
M  V30 7201 H 694.622 2.30504 -2.94523 0
M  V30 7202 H 696.914 5.07676 -4.48633 0
M  V30 7203 H 697.857 4.1778 -5.71721 0
M  V30 7204 H 698.265 3.99825 -3.98497 0
M  V30 7205 N 697.663 1.43903 0.642637 0
M  V30 7206 C 698.911 1.45791 1.39962 0
M  V30 7207 C 699.232 0.0873144 1.94804 0
M  V30 7208 O 698.502 -0.878825 1.75081 0
M  V30 7209 H 697.082 0.536797 0.519479 0
M  V30 7210 H 699.744 1.7959 0.757189 0
M  V30 7211 H 698.84 2.17665 2.2367 0
M  V30 7212 N 699.141 -0.881989 1.30609 0
M  V30 7213 C 700.051 -2.02076 1.19174 0
M  V30 7214 C 701.067 -1.73645 0.11102 0
M  V30 7215 O 702.243 -1.98735 0.326528 0
M  V30 7216 C 699.308 -3.3515 0.887438 0
M  V30 7217 C 698.369 -3.76983 2.05383 0
M  V30 7218 C 697.602 -5.03707 1.76395 0
M  V30 7219 O 697.825 -5.66171 0.693302 0
M  V30 7220 O 696.759 -5.42019 2.61723 0
M  V30 7221 H 700.585 -2.14652 2.14845 0
M  V30 7222 H 698.17 -1.00843 1.10232 0
M  V30 7223 H 700.052 -4.14975 0.73306 0
M  V30 7224 H 698.727 -3.23676 -0.0393354 0
M  V30 7225 H 697.634 -2.97849 2.26355 0
M  V30 7226 H 698.967 -3.93066 2.96243 0
M  V30 7227 N 700.619 -1.13374 -1.09472 0
M  V30 7228 C 701.566 -0.810682 -2.16094 0
M  V30 7229 C 702.536 0.227003 -1.64541 0
M  V30 7230 O 703.721 0.0993538 -1.90541 0
M  V30 7231 C 700.861 -0.282336 -3.43943 0
M  V30 7232 C 699.974 -1.37902 -4.09398 0
M  V30 7233 C 699.109 -0.809066 -5.25002 0
M  V30 7234 C 698.148 -1.88419 -5.82379 0
M  V30 7235 N 697.285 -1.33221 -6.89345 0
M  V30 7236 H 702.125 -1.72397 -2.43071 0
M  V30 7237 H 699.662 -0.860564 -1.19301 0
M  V30 7238 H 701.62 0.0421189 -4.17179 0
M  V30 7239 H 700.25 0.594083 -3.17286 0
M  V30 7240 H 699.302 -1.82008 -3.34032 0
M  V30 7241 H 700.614 -2.19161 -4.48074 0
M  V30 7242 H 699.768 -0.435867 -6.05132 0
M  V30 7243 H 698.507 0.0346058 -4.87688 0
M  V30 7244 H 697.512 -2.26646 -5.00911 0
M  V30 7245 H 698.737 -2.73125 -6.21755 0
M  V30 7246 H 696.683 -0.510535 -6.5401 0
M  V30 7247 H 696.6 -2.08129 -7.26786 0
M  V30 7248 H 697.868 -0.986565 -7.73232 0
M  V30 7249 N 702.098 1.27442 -0.927168 0
M  V30 7250 C 703.346 1.94007 -0.566203 0
M  V30 7251 C 703.667 1.7323 0.895345 0
M  V30 7252 O 702.937 1.07973 1.63459 0
M  V30 7253 H 701.517 0.717917 -0.206409 0
M  V30 7254 H 704.179 1.55161 -1.17945 0
M  V30 7255 H 703.275 3.02401 -0.772028 0
M  V30 7256 N 703.576 0.692616 1.41565 0
M  V30 7257 C 704.526 0.00231847 2.28 0
M  V30 7258 C 705.51 -0.755793 1.42044 0
M  V30 7259 O 706.702 -0.631772 1.65341 0
M  V30 7260 C 703.831 -0.935468 3.30309 0
M  V30 7261 C 702.917 -0.173761 4.23744 0
M  V30 7262 N 703.308 0.830872 4.98929 0
M  V30 7263 C 701.606 -0.409666 4.44115 0
M  V30 7264 C 702.307 1.28656 5.67294 0
M  V30 7265 N 701.283 0.613053 5.40132 0
M  V30 7266 H 705.085 0.772635 2.83562 0
M  V30 7267 H 702.599 0.523198 1.53741 0
M  V30 7268 H 704.596 -1.44513 3.91052 0
M  V30 7269 H 703.256 -1.70542 2.76307 0
M  V30 7270 H 704.267 1.21101 5.03542 0
M  V30 7271 H 700.944 -1.15773 4.01127 0
M  V30 7272 H 702.334 2.12006 6.37576 0
M  V30 7273 N 705.054 -1.51416 0.437162 0
M  V30 7274 C 706.301 -2.02086 -0.129364 0
M  V30 7275 C 706.629 -1.32133 -1.42728 0
M  V30 7276 O 705.884 -0.424916 -1.91031 0
M  V30 7277 C 706.183 -3.55203 -0.39564 0
M  V30 7278 C 705.849 -4.43447 0.81644 0
M  V30 7279 C 704.511 -4.67285 1.14884 0
M  V30 7280 C 706.863 -4.95219 1.62503 0
M  V30 7281 C 704.191 -5.40141 2.29052 0
M  V30 7282 C 706.543 -5.69327 2.7577 0
M  V30 7283 C 705.207 -5.91429 3.09464 0
M  V30 7284 H 704.477 -0.739486 -0.0473375 0
M  V30 7285 H 707.124 -1.82368 0.584321 0
M  V30 7286 H 705.429 -3.73252 -1.19121 0
M  V30 7287 H 707.126 -3.91944 -0.847399 0
M  V30 7288 H 703.716 -4.2509 0.547422 0
M  V30 7289 H 707.9 -4.76686 1.38144 0
M  V30 7290 H 703.156 -5.55468 2.55471 0
M  V30 7291 H 707.33 -6.08433 3.38795 0
M  V30 7292 H 704.957 -6.47662 3.98042 0
M  V30 7293 N 706.532 -0.168513 -1.56696 0
M  V30 7294 C 707.76 0.483503 -2.01171 0
M  V30 7295 C 708.175 1.56994 -1.04872 0
M  V30 7296 O 707.532 1.82434 -0.0491337 0
M  V30 7297 C 707.583 1.0644 -3.45475 0
M  V30 7298 O 707.304 0.0213375 -4.38095 0
M  V30 7299 C 708.805 1.79493 -4.05336 0
M  V30 7300 H 706.025 0.124002 -0.659443 0
M  V30 7301 H 708.569 -0.269419 -2.02717 0
M  V30 7302 H 706.724 1.76784 -3.44712 0
M  V30 7303 H 707.138 0.449837 -5.22567 0
M  V30 7304 H 708.612 2.15401 -5.08238 0
M  V30 7305 H 709.089 2.68889 -3.47269 0
M  V30 7306 H 709.695 1.13798 -4.09793 0
M  V30 7307 N 708.01 1.57248 0.105221 0
M  V30 7308 C 709.238 1.89768 0.82437 0
M  V30 7309 C 709.653 0.761192 1.72775 0
M  V30 7310 O 709.01 -0.267342 1.80531 0
M  V30 7311 C 709.061 3.2184 1.64625 0
M  V30 7312 O 708.782 4.31115 0.779217 0
M  V30 7313 C 710.283 3.68155 2.46935 0
M  V30 7314 H 707.503 0.628031 0.236259 0
M  V30 7315 H 710.047 2.04321 0.085485 0
M  V30 7316 H 708.202 3.08915 2.33775 0
M  V30 7317 H 708.616 5.06897 1.34745 0
M  V30 7318 H 710.09 4.6329 3.00111 0
M  V30 7319 H 710.567 2.95492 3.24932 0
M  V30 7320 H 711.173 3.83914 1.83002 0
M  V30 7321 N 709.488 -0.375779 1.53054 0
M  V30 7322 C 710.899 -0.95309 1.6054 0
M  V30 7323 C 711.25 -1.90575 0.466446 0
M  V30 7324 O 710.375 -2.12507 -0.408609 0
M  V30 7325 C 710.97 -1.73537 2.90982 0
M  V30 7326 C 709.529 -2.26218 3.00836 0
M  V30 7327 C 708.676 -1.07157 2.55759 0
M  V30 7328 H 711.627 -0.154895 1.57942 0
M  V30 7329 H 711.648 -2.59574 2.78211 0
M  V30 7330 H 711.16 -1.04176 3.73857 0
M  V30 7331 H 709.261 -2.98852 2.22527 0
M  V30 7332 H 709.374 -2.54799 4.05727 0
M  V30 7333 H 707.738 -1.43553 2.10391 0
M  V30 7334 H 708.521 -0.393099 3.41042 0
M  V30 7335 N 710.966 -1.44241 -0.634997 0
M  V30 7336 C 711.899 -1.45274 -1.75985 0
M  V30 7337 C 712.877 -0.312025 -1.59578 0
M  V30 7338 O 714.061 -0.508409 -1.81514 0
M  V30 7339 C 711.188 -1.28173 -3.13511 0
M  V30 7340 C 710.234 -2.45757 -3.48576 0
M  V30 7341 S 711.067 -4.08293 -3.46492 0
M  V30 7342 C 712.223 -3.93608 -4.86645 0
M  V30 7343 H 712.456 -2.40454 -1.74841 0
M  V30 7344 H 709.989 -1.31492 -0.809268 0
M  V30 7345 H 711.947 -1.18993 -3.92875 0
M  V30 7346 H 710.608 -0.34511 -3.12198 0
M  V30 7347 H 709.801 -2.29644 -4.48642 0
M  V30 7348 H 709.403 -2.51657 -2.76667 0
M  V30 7349 H 711.695 -3.57059 -5.75774 0
M  V30 7350 H 712.638 -4.9349 -5.07813 0
M  V30 7351 H 713.046 -3.25737 -4.61038 0
M  V30 7352 N 712.444 0.87505 -1.31075 0
M  V30 7353 C 713.377 1.98471 -1.12625 0
M  V30 7354 C 714.355 1.6257 -0.0311379 0
M  V30 7355 O 715.539 1.87574 -0.186594 0
M  V30 7356 C 712.666 3.30963 -0.719799 0
M  V30 7357 C 711.712 3.85849 -1.81722 0
M  V30 7358 S 712.545 4.11926 -3.42165 0
M  V30 7359 C 713.701 5.47423 -3.03445 0
M  V30 7360 H 713.934 2.13817 -2.06566 0
M  V30 7361 H 711.467 1.02463 -1.15502 0
M  V30 7362 H 713.425 4.07541 -0.492035 0
M  V30 7363 H 712.086 3.1346 0.200413 0
M  V30 7364 H 711.279 4.81616 -1.48533 0
M  V30 7365 H 710.881 3.16046 -1.99977 0
M  V30 7366 H 713.173 6.28881 -2.52023 0
M  V30 7367 H 714.116 5.85557 -3.98157 0
M  V30 7368 H 714.524 5.10455 -2.41031 0
M  V30 7369 N 713.922 1.13953 1.08869 0
M  V30 7370 C 714.852 0.844824 2.17681 0
M  V30 7371 C 715.833 -0.198213 1.68941 0
M  V30 7372 O 717.018 -0.0559073 1.9412 0
M  V30 7373 C 714.148 0.316325 3.45856 0
M  V30 7374 C 713.102 1.29426 4.07962 0
M  V30 7375 C 712.428 0.625275 5.31031 0
M  V30 7376 C 713.728 2.65484 4.49795 0
M  V30 7377 H 715.422 1.75471 2.42591 0
M  V30 7378 H 712.968 0.845116 1.16592 0
M  V30 7379 H 714.921 0.0977876 4.21287 0
M  V30 7380 H 713.645 -0.628972 3.20486 0
M  V30 7381 H 712.304 1.49889 3.34558 0
M  V30 7382 H 711.952 -0.325678 5.01945 0
M  V30 7383 H 711.652 1.27777 5.73539 0
M  V30 7384 H 713.176 0.416152 6.0918 0
M  V30 7385 H 714.59 2.48957 5.16424 0
M  V30 7386 H 712.987 3.26963 5.03205 0
M  V30 7387 H 714.057 3.22717 3.61914 0
M  V30 7388 N 715.4 -1.26948 0.933913 0
M  V30 7389 C 716.33 -2.29017 0.45534 0
M  V30 7390 C 717.311 -1.62961 -0.487605 0
M  V30 7391 O 718.496 -1.90223 -0.391022 0
M  V30 7392 C 715.626 -3.46112 -0.287015 0
M  V30 7393 C 714.58 -4.24205 0.568682 0
M  V30 7394 C 713.906 -5.3384 -0.303206 0
M  V30 7395 C 715.206 -4.88954 1.83633 0
M  V30 7396 H 716.9 -2.69298 1.30839 0
M  V30 7397 H 714.446 -1.29459 0.630579 0
M  V30 7398 H 716.399 -4.16622 -0.6328 0
M  V30 7399 H 715.123 -3.04765 -1.17414 0
M  V30 7400 H 713.782 -3.5545 0.897261 0
M  V30 7401 H 713.43 -4.88734 -1.18947 0
M  V30 7402 H 713.13 -5.86998 0.265879 0
M  V30 7403 H 714.654 -6.0719 -0.644423 0
M  V30 7404 H 716.068 -5.51717 1.55823 0
M  V30 7405 H 714.465 -5.52198 2.34941 0
M  V30 7406 H 715.535 -4.12305 2.55211 0
M  V30 7407 N 716.879 -0.700114 -1.41195 0
M  V30 7408 C 717.811 0.00155823 -2.292 0
M  V30 7409 C 718.824 0.739736 -1.45023 0
M  V30 7410 O 720.013 0.589684 -1.68478 0
M  V30 7411 C 717.113 1.02635 -3.22985 0
M  V30 7412 C 716.286 0.356871 -4.35942 0
M  V30 7413 C 715.345 1.28491 -5.10271 0
M  V30 7414 O 714.371 0.775562 -5.63892 0
M  V30 7415 N 715.573 2.61699 -5.18164 0
M  V30 7416 H 718.338 -0.754008 -2.9006 0
M  V30 7417 H 715.899 -0.546504 -1.52397 0
M  V30 7418 H 717.891 1.64902 -3.6958 0
M  V30 7419 H 716.461 1.68341 -2.63401 0
M  V30 7420 H 715.681 -0.445753 -3.91672 0
M  V30 7421 H 716.969 -0.108469 -5.08684 0
M  V30 7422 H 716.367 3.05594 -4.76056 0
M  V30 7423 H 714.924 3.19149 -5.6832 0
M  V30 7424 N 718.357 1.51182 -0.445186 0
M  V30 7425 C 719.634 1.9478 0.178965 0
M  V30 7426 C 720.014 1.38428 1.59376 0
M  V30 7427 O 719.362 0.574552 2.21159 0
M  V30 7428 C 719.572 3.48683 0.148711 0
M  V30 7429 C 720.92 4.23152 0.35042 0
M  V30 7430 O 721.944 3.55479 0.226474 0
M  V30 7431 O 720.803 5.4322 0.597893 0
M  V30 7432 H 717.897 0.817387 0.12573 0
M  V30 7433 H 720.443 1.62051 -0.503729 0
M  V30 7434 H 719.215 3.82176 -0.84009 0
M  V30 7435 H 718.838 3.87875 0.873979 0
M  V30 7436 N 719.835 0.176821 1.56605 0
M  V30 7437 C 721.246 -0.338963 1.83597 0
M  V30 7438 C 721.597 -1.62677 1.09684 0
M  V30 7439 O 720.722 -2.13524 0.351661 0
M  V30 7440 C 721.317 -0.62177 3.33046 0
M  V30 7441 C 719.876 -1.08198 3.60514 0
M  V30 7442 C 719.023 -0.120774 2.77037 0
M  V30 7443 H 721.974 0.400978 1.53551 0
M  V30 7444 H 721.995 -1.47321 3.50823 0
M  V30 7445 H 721.507 0.315692 3.86814 0
M  V30 7446 H 719.608 -2.03435 3.12162 0
M  V30 7447 H 719.721 -0.987329 4.68816 0
M  V30 7448 H 718.085 -0.619192 2.47059 0
M  V30 7449 H 718.868 0.810806 3.33588 0
M  V30 7450 N 721.313 -1.57302 -0.09688 0
M  V30 7451 C 722.223 -2.05258 -1.13606 0
M  V30 7452 C 723.239 -0.977137 -1.43972 0
M  V30 7453 O 724.415 -1.29018 -1.54649 0
M  V30 7454 C 721.48 -2.46593 -2.43706 0
M  V30 7455 C 720.541 -3.68322 -2.20538 0
M  V30 7456 C 719.774 -4.07676 -3.44435 0
M  V30 7457 O 719.997 -3.47141 -4.52603 0
M  V30 7458 O 718.931 -5.00641 -3.34129 0
M  V30 7459 H 722.757 -2.94069 -0.758752 0
M  V30 7460 H 720.342 -1.46164 -0.309263 0
M  V30 7461 H 722.224 -2.73814 -3.20318 0
M  V30 7462 H 720.899 -1.6092 -2.80867 0
M  V30 7463 H 719.806 -3.4622 -1.41713 0
M  V30 7464 H 721.139 -4.54769 -1.88271 0
M  V30 7465 N 722.791 0.367657 -1.53252 0
M  V30 7466 C 724.207 0.709191 -1.42978 0
M  V30 7467 C 724.407 1.93352 -0.567193 0
M  V30 7468 O 723.463 2.52453 -0.0488349 0
M  V30 7469 C 724.776 0.924338 -2.86141 0
M  V30 7470 C 726.324 1.02448 -2.95759 0
M  V30 7471 C 726.799 1.27211 -4.39979 0
M  V30 7472 N 728.29 1.33986 -4.43398 0
M  V30 7473 C 729.025 1.54852 -5.52095 0
M  V30 7474 N 728.521 1.73049 -6.7084 0
M  V30 7475 N 730.314 1.57205 -5.39669 0
M  V30 7476 H 722.465 -0.437669 -2.07842 0
M  V30 7477 H 724.728 -0.133737 -0.938519 0
M  V30 7478 H 724.434 0.0965455 -3.51567 0
M  V30 7479 H 724.308 1.83302 -3.29667 0
M  V30 7480 H 726.695 1.84282 -2.30487 0
M  V30 7481 H 726.776 0.0932301 -2.5563 0
M  V30 7482 H 726.42 0.458792 -5.05824 0
M  V30 7483 H 726.35 2.21654 -4.77679 0
M  V30 7484 H 728.841 1.21545 -3.5782 0
M  V30 7485 H 729.154 1.88538 -7.49449 0
M  V30 7486 H 727.499 1.70231 -6.7383 0
M  V30 7487 H 730.69 1.42555 -4.45865 0
M  V30 7488 H 730.863 1.73126 -6.24445 0
M  V30 7489 N 724.269 1.44576 0.627338 0
M  V30 7490 C 725.497 1.51048 1.41394 0
M  V30 7491 C 725.912 0.136568 1.88305 0
M  V30 7492 O 725.269 -0.858251 1.6106 0
M  V30 7493 C 725.32 2.47837 2.63172 0
M  V30 7494 O 725.041 3.79887 2.18215 0
M  V30 7495 C 726.542 2.63811 3.56257 0
M  V30 7496 H 723.762 0.512171 0.4335 0
M  V30 7497 H 726.306 1.89576 0.766878 0
M  V30 7498 H 724.461 2.12433 3.23961 0
M  V30 7499 H 724.875 4.32177 2.97192 0
M  V30 7500 H 726.349 3.35554 4.38301 0
M  V30 7501 H 726.826 1.69169 4.05313 0
M  V30 7502 H 727.432 3.0013 3.01333 0
M  V30 7503 N 725.747 -0.868086 1.31537 0
M  V30 7504 C 726.694 -1.97548 1.19346 0
M  V30 7505 C 727.664 -1.65913 0.0787922 0
M  V30 7506 O 728.849 -1.89129 0.251985 0
M  V30 7507 C 725.989 -3.32922 0.908692 0
M  V30 7508 C 725.102 -3.77141 2.10687 0
M  V30 7509 C 724.237 -5.01241 1.75873 0
M  V30 7510 C 723.276 -5.37914 2.92088 0
M  V30 7511 N 722.413 -6.53192 2.57457 0
M  V30 7512 H 727.253 -2.07307 2.14074 0
M  V30 7513 H 724.79 -1.01483 1.06487 0
M  V30 7514 H 726.748 -4.10867 0.724138 0
M  V30 7515 H 725.378 -3.228 -0.0017611 0
M  V30 7516 H 724.43 -2.94961 2.40213 0
M  V30 7517 H 725.742 -4.00248 2.97663 0
M  V30 7518 H 724.896 -5.86858 1.53891 0
M  V30 7519 H 723.635 -4.80041 0.86091 0
M  V30 7520 H 722.64 -4.50814 3.14717 0
M  V30 7521 H 723.865 -5.61077 3.82582 0
M  V30 7522 H 721.811 -6.33536 1.702 0
M  V30 7523 H 721.728 -6.76252 3.37963 0
M  V30 7524 H 722.996 -7.41997 2.38873 0
M  V30 7525 N 727.225 -1.14528 -1.08264 0
M  V30 7526 C 728.471 -0.91576 -1.80947 0
M  V30 7527 C 728.804 0.55623 -1.86064 0
M  V30 7528 O 728.079 1.41207 -1.33756 0
M  V30 7529 C 728.362 -1.51917 -3.26486 0
M  V30 7530 C 728.215 -3.06111 -3.2957 0
M  V30 7531 C 729.534 -1.19724 -4.23502 0
M  V30 7532 H 726.653 -0.334113 -0.656915 0
M  V30 7533 H 729.295 -1.41547 -1.26746 0
M  V30 7534 H 727.445 -1.0942 -3.72773 0
M  V30 7535 H 729.117 -3.57448 -2.91597 0
M  V30 7536 H 727.36 -3.40483 -2.688 0
M  V30 7537 H 728.031 -3.43438 -4.32151 0
M  V30 7538 H 730.507 -1.56467 -3.85561 0
M  V30 7539 H 729.383 -1.64575 -5.23647 0
M  V30 7540 H 729.644 -0.112771 -4.41956 0
M  V30 7541 N 728.703 1.26451 -0.940633 0
M  V30 7542 C 729.633 2.28773 -0.467479 0
M  V30 7543 C 730.614 1.63218 0.478955 0
M  V30 7544 O 731.799 1.90427 0.380929 0
M  V30 7545 C 728.929 3.46259 0.268656 0
M  V30 7546 C 727.883 4.23898 -0.591171 0
M  V30 7547 C 727.209 5.33993 0.274891 0
M  V30 7548 C 728.509 4.87974 -1.86223 0
M  V30 7549 H 730.203 2.68601 -1.32265 0
M  V30 7550 H 727.749 1.29123 -0.637436 0
M  V30 7551 H 729.702 4.16951 0.610696 0
M  V30 7552 H 728.426 3.05383 1.15796 0
M  V30 7553 H 727.085 3.54969 -0.916098 0
M  V30 7554 H 726.733 4.89358 1.16353 0
M  V30 7555 H 726.433 5.86849 -0.297006 0
M  V30 7556 H 727.957 6.07523 0.612213 0
M  V30 7557 H 729.371 5.50883 -1.58747 0
M  V30 7558 H 727.768 5.50945 -2.37866 0
M  V30 7559 H 728.838 4.10945 -2.57394 0
M  V30 7560 N 730.181 0.707592 1.40822 0
M  V30 7561 C 731.111 0.0644925 2.33411 0
M  V30 7562 C 732.092 -0.754205 1.52466 0
M  V30 7563 O 733.277 -0.704749 1.80961 0
M  V30 7564 C 730.407 -0.863865 3.36385 0
M  V30 7565 C 729.361 -0.15138 4.27732 0
M  V30 7566 C 728.687 -1.19491 5.21177 0
M  V30 7567 C 729.987 0.989607 5.12839 0
M  V30 7568 H 731.681 0.837829 2.87438 0
M  V30 7569 H 729.227 0.404346 1.38207 0
M  V30 7570 H 731.18 -1.32309 4.0009 0
M  V30 7571 H 729.904 -1.66901 2.80734 0
M  V30 7572 H 728.563 0.287937 3.65467 0
M  V30 7573 H 728.211 -1.9929 4.61836 0
M  V30 7574 H 727.911 -0.723123 5.83134 0
M  V30 7575 H 729.435 -1.6544 5.8776 0
M  V30 7576 H 730.849 0.610114 5.70044 0
M  V30 7577 H 729.246 1.38926 5.83798 0
M  V30 7578 H 730.316 1.82389 4.49291 0
M  V30 7579 N 731.66 -1.50943 0.453197 0
M  V30 7580 C 732.906 -2.02512 -0.108082 0
M  V30 7581 C 733.239 -1.33574 -1.40967 0
M  V30 7582 O 732.514 -0.455671 -1.89087 0
M  V30 7583 C 732.797 -3.58759 -0.310453 0
M  V30 7584 C 732.65 -4.38293 1.0109 0
M  V30 7585 C 733.969 -4.26816 -1.07313 0
M  V30 7586 H 731.088 -0.73603 -0.0378064 0
M  V30 7587 H 733.73 -1.80433 0.595295 0
M  V30 7588 H 731.88 -3.77702 -0.909582 0
M  V30 7589 H 733.552 -4.30964 1.64523 0
M  V30 7590 H 731.795 -4.02745 1.61179 0
M  V30 7591 H 732.466 -5.45828 0.82315 0
M  V30 7592 H 734.942 -4.1224 -0.565473 0
M  V30 7593 H 733.818 -5.35989 -1.1835 0
M  V30 7594 H 734.079 -3.88757 -2.10525 0
M  V30 7595 N 733.138 -0.185124 -1.56509 0
M  V30 7596 C 734.366 0.462139 -2.01673 0
M  V30 7597 C 734.781 1.55873 -1.06532 0
M  V30 7598 O 734.138 1.82371 -0.0684805 0
M  V30 7599 C 734.189 1.0277 -3.46584 0
M  V30 7600 O 733.91 -0.0251296 -4.38093 0
M  V30 7601 C 735.411 1.75183 -4.07217 0
M  V30 7602 H 732.631 0.117001 -0.660721 0
M  V30 7603 H 735.175 -0.290905 -2.0242 0
M  V30 7604 H 733.33 1.73118 -3.46568 0
M  V30 7605 H 733.744 0.394387 -5.23015 0
M  V30 7606 H 735.218 2.09999 -5.10494 0
M  V30 7607 H 735.695 2.6519 -3.50101 0
M  V30 7608 H 736.301 1.09445 -4.10977 0
M  V30 7609 N 734.616 1.57351 0.0885366 0
M  V30 7610 C 735.546 2.05561 1.10757 0
M  V30 7611 C 736.527 0.945789 1.41382 0
M  V30 7612 O 737.712 1.21747 1.51299 0
M  V30 7613 C 734.842 2.48554 2.42566 0
M  V30 7614 C 733.796 3.63259 2.26334 0
M  V30 7615 C 733.122 3.9225 3.63378 0
M  V30 7616 C 734.422 4.93913 1.69844 0
M  V30 7617 H 736.116 2.90946 0.706468 0
M  V30 7618 H 733.662 1.39968 0.338385 0
M  V30 7619 H 735.615 2.8089 3.14132 0
M  V30 7620 H 734.339 1.60176 2.84625 0
M  V30 7621 H 732.998 3.31179 1.57213 0
M  V30 7622 H 732.646 3.0103 4.02976 0
M  V30 7623 H 732.346 4.69478 3.53362 0
M  V30 7624 H 733.87 4.27067 4.36401 0
M  V30 7625 H 735.284 5.24588 2.31258 0
M  V30 7626 H 733.681 5.75349 1.70569 0
M  V30 7627 H 734.751 4.80409 0.65843 0
M  V30 7628 N 736.094 -0.359525 1.53444 0
M  V30 7629 C 737.505 -0.936009 1.61542 0
M  V30 7630 C 737.856 -1.90069 0.486633 0
M  V30 7631 O 736.981 -2.12929 -0.386047 0
M  V30 7632 C 737.576 -1.70441 2.92806 0
M  V30 7633 C 736.135 -2.23015 3.03218 0
M  V30 7634 C 735.282 -1.04438 2.56881 0
M  V30 7635 H 738.233 -0.138134 1.58098 0
M  V30 7636 H 738.254 -2.56609 2.80948 0
M  V30 7637 H 737.766 -1.00205 3.74941 0
M  V30 7638 H 735.867 -2.96475 2.25684 0
M  V30 7639 H 735.98 -2.50481 4.08407 0
M  V30 7640 H 734.344 -1.41314 2.11902 0
M  V30 7641 H 735.127 -0.356905 3.4144 0
M  V30 7642 N 737.572 -1.44907 -0.619662 0
M  V30 7643 C 738.482 -1.55168 -1.75955 0
M  V30 7644 C 739.498 -0.43672 -1.6843 0
M  V30 7645 O 740.674 -0.695704 -1.89002 0
M  V30 7646 C 737.739 -1.50397 -3.12381 0
M  V30 7647 C 736.8 -2.72835 -3.31451 0
M  V30 7648 C 736.033 -2.68283 -4.61368 0
M  V30 7649 O 736.256 -1.74929 -5.42914 0
M  V30 7650 O 735.19 -3.59308 -4.82889 0
M  V30 7651 H 739.016 -2.51493 -1.7025 0
M  V30 7652 H 736.601 -1.27282 -0.782289 0
M  V30 7653 H 738.483 -1.50301 -3.93685 0
M  V30 7654 H 737.158 -0.572197 -3.18603 0
M  V30 7655 H 736.065 -2.78496 -2.49781 0
M  V30 7656 H 737.398 -3.65098 -3.30098 0
M  V30 7657 N 739.05 0.861098 -1.31996 0
M  V30 7658 C 740.278 1.6474 -1.25173 0
M  V30 7659 C 740.693 1.87926 0.181425 0
M  V30 7660 O 740.05 1.4437 1.1164 0
M  V30 7661 C 740.101 3.01036 -2.0015 0
M  V30 7662 O 739.822 2.7888 -3.37872 0
M  V30 7663 C 741.323 3.95481 -2.00273 0
M  V30 7664 H 738.543 0.513314 -0.432146 0
M  V30 7665 H 741.087 1.07419 -1.74016 0
M  V30 7666 H 739.242 3.55021 -1.55046 0
M  V30 7667 H 739.656 3.65514 -3.76165 0
M  V30 7668 H 741.13 4.88403 -2.57229 0
M  V30 7669 H 741.607 4.27957 -0.987407 0
M  V30 7670 H 742.213 3.47433 -2.45296 0
M  V30 7671 N 740.528 1.15101 1.07655 0
M  V30 7672 C 741.756 0.947731 1.83918 0
M  V30 7673 C 742.171 -0.503927 1.81951 0
M  V30 7674 O 741.528 -1.34941 1.2287 0
M  V30 7675 C 741.579 1.4503 3.31132 0
M  V30 7676 O 741.3 2.84508 3.33146 0
M  V30 7677 C 742.801 1.28806 4.24174 0
M  V30 7678 H 740.021 0.336786 0.580358 0
M  V30 7679 H 742.565 1.52799 1.35914 0
M  V30 7680 H 740.72 0.912632 3.76497 0
M  V30 7681 H 741.134 3.0723 4.251 0
M  V30 7682 H 742.608 1.6882 5.25551 0
M  V30 7683 H 743.085 0.231851 4.38588 0
M  V30 7684 H 743.691 1.81465 3.84643 0
M  V30 7685 N 742.006 -1.2595 0.947325 0
M  V30 7686 C 743.417 -1.75389 0.639963 0
M  V30 7687 C 743.768 -1.77081 -0.844788 0
M  V30 7688 O 742.893 -1.3869 -1.66114 0
M  V30 7689 C 743.488 -3.18506 1.15496 0
M  V30 7690 C 742.047 -3.65534 0.897894 0
M  V30 7691 C 741.194 -2.44818 1.30228 0
M  V30 7692 H 744.145 -1.1194 1.12495 0
M  V30 7693 H 744.166 -3.77045 0.511627 0
M  V30 7694 H 743.678 -3.17243 2.23559 0
M  V30 7695 H 741.779 -3.72221 -0.168096 0
M  V30 7696 H 741.892 -4.54039 1.52922 0
M  V30 7697 H 740.256 -2.44291 0.720678 0
M  V30 7698 H 741.039 -2.46251 2.39198 0
M  V30 7699 N 743.484 -0.715051 -1.40445 0
M  V30 7700 C 744.73 -0.254705 -2.01194 0
M  V30 7701 C 745.063 1.14894 -1.56567 0
M  V30 7702 O 744.338 1.77933 -0.785491 0
M  V30 7703 C 744.621 -0.334148 -3.58546 0
M  V30 7704 C 744.474 -1.77613 -4.13248 0
M  V30 7705 C 745.793 0.294968 -4.3911 0
M  V30 7706 H 742.912 -0.094025 -0.730978 0
M  V30 7707 H 745.554 -0.907449 -1.66929 0
M  V30 7708 H 743.704 0.221609 -3.87867 0
M  V30 7709 H 745.376 -2.38723 -3.94727 0
M  V30 7710 H 743.619 -2.30402 -3.67556 0
M  V30 7711 H 744.29 -1.78311 -5.22407 0
M  V30 7712 H 746.766 -0.178563 -4.15717 0
M  V30 7713 H 745.642 0.208934 -5.48502 0
M  V30 7714 H 745.903 1.37841 -4.20062 0
M  V30 7715 N 744.962 1.50701 -0.461195 0
M  V30 7716 C 745.892 2.31182 0.328184 0
M  V30 7717 C 746.873 1.37644 0.999408 0
M  V30 7718 O 748.058 1.66565 0.99848 0
M  V30 7719 C 745.188 3.17113 1.41621 0
M  V30 7720 C 744.142 4.19124 0.867148 0
M  V30 7721 C 743.468 4.93728 2.05272 0
M  V30 7722 C 744.768 5.22174 -0.114808 0
M  V30 7723 H 746.462 2.97423 -0.343501 0
M  V30 7724 H 744.008 1.43033 -0.166641 0
M  V30 7725 H 745.961 3.72208 1.97584 0
M  V30 7726 H 744.685 2.48739 2.11652 0
M  V30 7727 H 743.344 3.65116 0.329557 0
M  V30 7728 H 742.992 4.21835 2.73978 0
M  V30 7729 H 742.692 5.62724 1.69161 0
M  V30 7730 H 744.216 5.51654 2.61744 0
M  V30 7731 H 745.63 5.72198 0.355316 0
M  V30 7732 H 744.027 5.98833 -0.389689 0
M  V30 7733 H 745.097 4.7353 -1.04391 0
M  V30 7734 N 746.441 0.193421 1.56409 0
M  V30 7735 C 747.351 -0.740112 2.2262 0
M  V30 7736 C 748.367 -1.23597 1.22474 0
M  V30 7737 O 749.543 -1.28348 1.55206 0
M  V30 7738 C 746.608 -1.94317 2.87127 0
M  V30 7739 C 745.669 -1.49205 4.02538 0
M  V30 7740 C 744.902 -2.63776 4.63959 0
M  V30 7741 O 745.125 -3.81215 4.24301 0
M  V30 7742 O 744.059 -2.36585 5.53454 0
M  V30 7743 H 747.885 -0.206238 3.02999 0
M  V30 7744 H 745.47 -0.0357938 1.49357 0
M  V30 7745 H 747.352 -2.64633 3.27944 0
M  V30 7746 H 746.027 -2.46568 2.09728 0
M  V30 7747 H 744.934 -0.757738 3.66346 0
M  V30 7748 H 746.267 -1.01622 4.81595 0
M  V30 7749 N 747.919 -1.57396 -0.0801906 0
M  V30 7750 C 748.882 -2.02133 -1.0805 0
M  V30 7751 C 749.882 -0.91707 -1.32085 0
M  V30 7752 O 751.072 -1.18217 -1.27947 0
M  V30 7753 C 748.204 -2.39479 -2.42616 0
M  V30 7754 H 749.397 -2.91733 -0.6951 0
M  V30 7755 H 746.95 -1.52869 -0.325677 0
M  V30 7756 H 747.685 -1.52879 -2.86004 0
M  V30 7757 H 747.47 -3.20052 -2.26515 0
M  V30 7758 H 748.96 -2.74697 -3.14534 0
M  V30 7759 N 749.397 0.351382 -1.53633 0
M  V30 7760 C 750.36 1.41403 -1.80383 0
M  V30 7761 C 751.36 1.45963 -0.674635 0
M  V30 7762 O 752.55 1.46476 -0.942895 0
M  V30 7763 C 749.682 2.80401 -1.93876 0
M  V30 7764 H 750.875 1.18951 -2.75301 0
M  V30 7765 H 748.428 0.58533 -1.44926 0
M  V30 7766 H 749.163 3.08147 -1.01074 0
M  V30 7767 H 748.948 2.78488 -2.7602 0
M  V30 7768 H 750.438 3.57329 -2.16116 0
M  V30 7769 N 750.875 1.45233 0.611969 0
M  V30 7770 C 751.823 1.53898 1.74408 0
M  V30 7771 C 752.817 0.409254 1.64382 0
M  V30 7772 O 754.023 0.584988 1.70229 0
M  V30 7773 H 750.398 0.483303 0.576127 0
M  V30 7774 H 752.369 2.49143 1.64227 0
M  V30 7775 C 751.118 1.51865 3.12782 0
M  V30 7776 H 750.441 2.38118 3.21154 0
M  V30 7777 H 751.881 1.61986 3.91838 0
M  V30 7778 C 750.34 0.242374 3.36027 0
M  V30 7779 O 750.87 -0.679587 3.9591 0
M  V30 7780 N 749.076 0.139448 2.90265 0
M  V30 7781 H 748.623 0.890571 2.41716 0
M  V30 7782 H 748.581 -0.713686 3.06193 0
M  V30 7783 N 752.353 -0.854086 1.3245 0
M  V30 7784 C 753.283 -1.97827 1.24044 0
M  V30 7785 C 754.264 -1.69646 0.124166 0
M  V30 7786 O 755.449 -1.91687 0.31143 0
M  V30 7787 C 752.579 -3.33673 0.963324 0
M  V30 7788 C 751.533 -3.76207 2.04089 0
M  V30 7789 C 750.859 -5.0969 1.61618 0
M  V30 7790 C 752.159 -3.91612 3.45597 0
M  V30 7791 H 753.853 -2.05118 2.18099 0
M  V30 7792 H 751.399 -0.985489 1.04996 0
M  V30 7793 H 753.352 -4.11871 0.891061 0
M  V30 7794 H 752.076 -3.26597 -0.0128649 0
M  V30 7795 H 750.735 -3.0026 2.10332 0
M  V30 7796 H 750.383 -4.99072 0.627418 0
M  V30 7797 H 750.083 -5.3912 2.33717 0
M  V30 7798 H 751.607 -5.90381 1.55829 0
M  V30 7799 H 753.021 -4.60163 3.4194 0
M  V30 7800 H 751.418 -4.3246 4.16051 0
M  V30 7801 H 752.488 -2.9451 3.85217 0
M  V30 7802 N 753.831 -1.1567 -1.07043 0
M  V30 7803 C 754.763 -0.814095 -2.14255 0
M  V30 7804 C 755.776 0.175293 -1.61854 0
M  V30 7805 O 756.965 -0.0483984 -1.78434 0
M  V30 7806 C 754.065 -0.190082 -3.38367 0
M  V30 7807 C 753.238 -1.21768 -4.20109 0
M  V30 7808 C 752.297 -0.614863 -5.22595 0
M  V30 7809 O 751.323 -1.28167 -5.54583 0
M  V30 7810 N 752.525 0.601955 -5.77371 0
M  V30 7811 H 755.29 -1.73677 -2.44247 0
M  V30 7812 H 752.851 -1.05301 -1.22977 0
M  V30 7813 H 754.843 0.22604 -4.04068 0
M  V30 7814 H 753.413 0.635992 -3.06062 0
M  V30 7815 H 752.633 -1.81025 -3.50177 0
M  V30 7816 H 753.921 -1.9114 -4.71533 0
M  V30 7817 H 753.319 1.162 -5.53637 0
M  V30 7818 H 751.876 0.96039 -6.44686 0
M  V30 7819 N 755.309 1.25446 -0.953992 0
M  V30 7820 C 756.272 2.24156 -0.478179 0
M  V30 7821 C 757.272 1.55278 0.417776 0
M  V30 7822 O 758.462 1.72866 0.215155 0
M  V30 7823 C 755.594 3.39495 0.309202 0
M  V30 7824 H 756.787 2.67764 -1.35064 0
M  V30 7825 H 754.34 1.37822 -0.737206 0
M  V30 7826 H 755.075 3.01307 1.19936 0
M  V30 7827 H 754.86 3.90679 -0.333562 0
M  V30 7828 H 756.35 4.12796 0.631594 0
M  V30 7829 N 756.787 0.722489 1.40064 0
M  V30 7830 C 758.064 0.191829 1.94657 0
M  V30 7831 C 758.444 -1.30389 1.66018 0
M  V30 7832 O 757.792 -2.06342 0.981588 0
M  V30 7833 C 758.002 0.511978 3.45224 0
M  V30 7834 C 759.35 0.454426 4.22161 0
M  V30 7835 O 760.374 0.448438 3.53366 0
M  V30 7836 O 759.233 0.437986 5.44742 0
M  V30 7837 H 756.327 0.0307821 0.826427 0
M  V30 7838 H 758.873 0.800493 1.49634 0
M  V30 7839 H 757.645 1.54622 3.59455 0
M  V30 7840 H 757.268 -0.126296 3.97399 0
M  V30 7841 N 758.265 -1.50454 0.469181 0
M  V30 7842 C 759.195 -2.31353 -0.31592 0
M  V30 7843 C 760.176 -1.38172 -0.992094 0
M  V30 7844 O 761.361 -1.67093 -0.989633 0
M  V30 7845 C 758.491 -3.1786 -1.39937 0
M  V30 7846 C 757.445 -4.19578 -0.844909 0
M  V30 7847 C 756.771 -4.9481 -2.0265 0
M  V30 7848 C 758.071 -5.22106 0.142499 0
M  V30 7849 H 759.765 -2.97237 0.359269 0
M  V30 7850 H 757.311 -1.42942 0.174224 0
M  V30 7851 H 759.264 -3.7325 -1.95607 0
M  V30 7852 H 757.988 -2.49858 -2.1033 0
M  V30 7853 H 756.647 -3.65285 -0.310189 0
M  V30 7854 H 756.295 -4.23282 -2.71737 0
M  V30 7855 H 755.995 -5.63613 -1.66174 0
M  V30 7856 H 757.519 -5.53035 -2.58815 0
M  V30 7857 H 758.933 -5.72378 -0.324966 0
M  V30 7858 H 757.33 -5.98618 0.421441 0
M  V30 7859 H 758.4 -4.7297 1.06901 0
M  V30 7860 N 759.743 -0.201713 -1.56304 0
M  V30 7861 C 760.653 0.728296 -2.23009 0
M  V30 7862 C 761.669 1.22945 -1.23128 0
M  V30 7863 O 762.845 1.27523 -1.55884 0
M  V30 7864 C 759.91 1.92792 -2.88153 0
M  V30 7865 C 758.971 1.47068 -4.03323 0
M  V30 7866 C 758.204 2.61312 -4.65351 0
M  V30 7867 O 758.427 3.7896 -4.26317 0
M  V30 7868 O 757.361 2.33646 -5.54701 0
M  V30 7869 H 761.187 0.190166 -3.03104 0
M  V30 7870 H 758.772 0.0278725 -1.49374 0
M  V30 7871 H 760.654 2.6289 -3.29343 0
M  V30 7872 H 759.329 2.45452 -2.11033 0
M  V30 7873 H 758.236 0.738299 -3.66742 0
M  V30 7874 H 759.569 0.990666 -4.82127 0
M  V30 7875 N 761.222 1.57436 0.0718424 0
M  V30 7876 C 762.638 1.53792 0.426628 0
M  V30 7877 C 762.838 0.921887 1.79174 0
M  V30 7878 O 761.894 0.524374 2.46995 0
M  V30 7879 C 763.207 2.98443 0.367739 0
M  V30 7880 C 764.755 3.09778 0.447928 0
M  V30 7881 C 765.23 4.5608 0.418946 0
M  V30 7882 N 766.721 4.60716 0.479022 0
M  V30 7883 C 767.456 5.71397 0.47881 0
M  V30 7884 N 766.952 6.91443 0.433417 0
M  V30 7885 N 768.745 5.59639 0.525364 0
M  V30 7886 H 760.896 1.95848 -0.822033 0
M  V30 7887 H 763.159 0.896418 -0.308447 0
M  V30 7888 H 762.865 3.47072 -0.56865 0
M  V30 7889 H 762.739 3.58335 1.17795 0
M  V30 7890 H 765.126 2.61122 1.37474 0
M  V30 7891 H 765.207 2.52796 -0.390857 0
M  V30 7892 H 764.851 5.05393 -0.504016 0
M  V30 7893 H 764.781 5.10925 1.27526 0
M  V30 7894 H 767.272 3.74328 0.518355 0
M  V30 7895 H 767.585 7.71562 0.43718 0
M  V30 7896 H 765.93 6.93847 0.400106 0
M  V30 7897 H 769.121 4.64756 0.558519 0
M  V30 7898 H 769.294 6.45896 0.52173 0
M  V30 7899 N 762.7 -0.34323 1.53817 0
M  V30 7900 C 763.663 -1.40444 1.8113 0
M  V30 7901 C 764.663 -1.45604 0.682366 0
M  V30 7902 O 765.853 -1.45974 0.950649 0
M  V30 7903 C 762.985 -2.79369 1.95361 0
M  V30 7904 H 764.178 -1.17489 2.75928 0
M  V30 7905 H 761.731 -0.577636 1.45234 0
M  V30 7906 H 762.466 -3.07607 1.02707 0
M  V30 7907 H 762.251 -2.7702 2.77493 0
M  V30 7908 H 763.741 -3.56178 2.18008 0
M  V30 7909 N 764.178 -1.45556 -0.604258 0
M  V30 7910 C 765.426 -1.4945 -1.36048 0
M  V30 7911 C 765.747 -0.138933 -1.94504 0
M  V30 7912 O 765.017 0.832097 -1.7735 0
M  V30 7913 H 763.597 -0.550381 -0.505064 0
M  V30 7914 H 766.259 -1.81535 -0.709308 0
M  V30 7915 H 765.355 -2.23519 -2.17821 0
M  V30 7916 N 765.656 0.84705 -1.32902 0
M  V30 7917 C 766.905 1.59667 -1.23245 0
M  V30 7918 C 767.218 1.94551 0.202349 0
M  V30 7919 O 768.424 2.68218 0.420847 0
M  V30 7920 C 766.88 2.8795 -2.15901 0
M  V30 7921 C 766.488 2.60461 -3.64505 0
M  V30 7922 C 768.232 3.65968 -2.15098 0
M  V30 7923 C 766.139 3.84791 -4.49099 0
M  V30 7924 H 765.069 0.599167 -0.457728 0
M  V30 7925 H 767.72 0.934662 -1.57912 0
M  V30 7926 H 766.102 3.55648 -1.74157 0
M  V30 7927 H 767.276 2.01026 -4.14639 0
M  V30 7928 H 765.591 1.9576 -3.67515 0
M  V30 7929 H 768.188 4.58241 -2.75534 0
M  V30 7930 H 768.531 4.00275 -1.14392 0
M  V30 7931 H 769.064 3.05184 -2.55162 0
M  V30 7932 H 765.803 3.55621 -5.50649 0
M  V30 7933 H 765.323 4.43594 -4.03713 0
M  V30 7934 H 767.002 4.52454 -4.62487 0
M  V30 7935 N 767.134 1.16236 1.06428 0
M  V30 7936 C 768.084 0.835994 2.12121 0
M  V30 7937 C 769.068 -0.183955 1.59845 0
M  V30 7938 O 770.26 0.0166741 1.76992 0
M  V30 7939 C 767.389 0.337333 3.41639 0
M  V30 7940 C 766.475 1.38798 4.00744 0
M  V30 7941 N 766.866 2.59799 4.3398 0
M  V30 7942 C 765.164 1.24292 4.28331 0
M  V30 7943 C 765.865 3.27213 4.80943 0
M  V30 7944 N 764.841 2.54594 4.80294 0
M  V30 7945 H 768.643 1.75615 2.35662 0
M  V30 7946 H 766.157 1.04921 1.23957 0
M  V30 7947 H 768.154 0.0851274 4.16813 0
M  V30 7948 H 766.814 -0.57677 3.19536 0
M  V30 7949 H 767.825 2.96867 4.24371 0
M  V30 7950 H 764.502 0.389464 4.15679 0
M  V30 7951 H 765.892 4.30492 5.15874 0
M  V30 7952 N 768.612 -1.24939 0.960631 0
M  V30 7953 C 770.023 -1.74701 0.658529 0
M  V30 7954 C 770.374 -1.77967 -0.825959 0
M  V30 7955 O 769.499 -1.40444 -1.64634 0
M  V30 7956 C 770.094 -3.17263 1.18867 0
M  V30 7957 C 768.653 -3.64561 0.936614 0
M  V30 7958 C 767.8 -2.43423 1.32817 0
M  V30 7959 H 770.751 -1.10741 1.13676 0
M  V30 7960 H 770.772 -3.76481 0.551589 0
M  V30 7961 H 770.284 -3.14854 2.26912 0
M  V30 7962 H 768.385 -3.72378 -0.128608 0
M  V30 7963 H 768.498 -4.52392 1.57729 0
M  V30 7964 H 766.862 -2.43513 0.746548 0
M  V30 7965 H 767.645 -2.437 2.41796 0
M  V30 7966 N 770.09 -0.729906 -1.39679 0
M  V30 7967 C 771.336 -0.284905 -2.01395 0
M  V30 7968 C 771.691 1.11394 -1.56873 0
M  V30 7969 O 770.984 1.74765 -0.785342 0
M  V30 7970 C 771.178 -0.319564 -3.55968 0
M  V30 7971 C 771.007 -1.72024 -4.15497 0
M  V30 7972 C 769.777 -2.33128 -4.48307 0
M  V30 7973 C 771.975 -2.67296 -4.39383 0
M  V30 7974 N 769.957 -3.65403 -4.93309 0
M  V30 7975 C 771.328 -3.84298 -4.86534 0
M  V30 7976 C 773.383 -2.65124 -4.21442 0
M  V30 7977 C 772.086 -4.99455 -5.17627 0
M  V30 7978 C 774.112 -3.7942 -4.53646 0
M  V30 7979 C 773.474 -4.95156 -5.00999 0
M  V30 7980 H 769.573 -0.1504 -0.767401 0
M  V30 7981 H 772.157 -0.954783 -1.69682 0
M  V30 7982 H 770.328 0.319938 -3.8708 0
M  V30 7983 H 772.06 0.143504 -4.04445 0
M  V30 7984 H 768.815 -1.85097 -4.35931 0
M  V30 7985 H 769.239 -4.33298 -5.20175 0
M  V30 7986 H 773.881 -1.76842 -3.8404 0
M  V30 7987 H 771.599 -5.88371 -5.53937 0
M  V30 7988 H 775.185 -3.79031 -4.41392 0
M  V30 7989 H 774.065 -5.82131 -5.25446 0
M  V30 7990 N 771.568 1.50203 -0.477153 0
M  V30 7991 C 772.816 2.01959 0.0755889 0
M  V30 7992 C 773.137 1.3608 1.39668 0
M  V30 7993 O 772.407 0.508136 1.89195 0
M  V30 7994 H 770.987 0.74636 0.0309248 0
M  V30 7995 H 773.649 1.84473 -0.628959 0
M  V30 7996 H 772.745 3.11305 0.222683 0
M  V30 7997 N 773.046 0.209999 1.56195 0
M  V30 7998 C 774.292 -0.418742 1.99043 0
M  V30 7999 C 774.647 -1.58201 1.095 0
M  V30 8000 O 773.94 -1.91069 0.1425 0
M  V30 8001 C 774.134 -0.91312 3.45539 0
M  V30 8002 C 773.963 0.200706 4.49252 0
M  V30 8003 C 772.733 0.663287 5.00928 0
M  V30 8004 C 774.931 1.01493 5.04186 0
M  V30 8005 N 772.913 1.75338 5.88328 0
M  V30 8006 C 774.284 1.95411 5.884 0
M  V30 8007 C 776.339 1.05567 4.8658 0
M  V30 8008 C 775.042 2.93069 6.56889 0
M  V30 8009 C 777.068 2.02037 5.55819 0
M  V30 8010 C 776.43 2.94697 6.39791 0
M  V30 8011 H 772.529 -0.120226 0.772703 0
M  V30 8012 H 775.113 0.319119 1.92067 0
M  V30 8013 H 773.284 -1.62038 3.52985 0
M  V30 8014 H 775.016 -1.51371 3.75325 0
M  V30 8015 H 771.771 0.253945 4.72919 0
M  V30 8016 H 772.195 2.30007 6.3673 0
M  V30 8017 H 776.837 0.353242 4.21322 0
M  V30 8018 H 774.555 3.6428 7.21336 0
M  V30 8019 H 778.141 2.05849 5.44167 0
M  V30 8020 H 777.021 3.68128 6.92425 0
M  V30 8021 N 774.524 -1.57472 -0.0634922 0
M  V30 8022 C 775.773 -1.86837 -0.759928 0
M  V30 8023 C 776.086 -0.803823 -1.7832 0
M  V30 8024 O 777.292 -0.985578 -2.52979 0
M  V30 8025 C 775.748 -3.31448 -1.4025 0
M  V30 8026 C 775.356 -4.46052 -0.417368 0
M  V30 8027 C 777.1 -3.70003 -2.08082 0
M  V30 8028 C 775.007 -5.81707 -1.06633 0
M  V30 8029 H 773.937 -0.697009 -0.287567 0
M  V30 8030 H 776.588 -1.83495 -0.0133914 0
M  V30 8031 H 774.97 -3.29427 -2.19759 0
M  V30 8032 H 776.144 -4.5948 0.348503 0
M  V30 8033 H 774.459 -4.16104 0.156955 0
M  V30 8034 H 777.056 -4.68653 -2.57426 0
M  V30 8035 H 777.399 -3.00226 -2.88393 0
M  V30 8036 H 777.932 -3.7405 -1.35394 0
M  V30 8037 H 774.671 -6.54798 -0.303374 0
M  V30 8038 H 774.191 -5.72064 -1.80286 0
M  V30 8039 H 775.87 -6.27317 -1.58376 0
M  V30 8040 N 776.003 0.335068 -1.53997 0
M  V30 8041 C 777.252 1.07182 -1.70865 0
M  V30 8042 C 777.565 1.89541 -0.483078 0
M  V30 8043 O 778.771 2.66219 -0.532879 0
M  V30 8044 C 777.227 1.95497 -3.02174 0
M  V30 8045 C 776.835 1.18304 -4.32097 0
M  V30 8046 C 778.579 2.68978 -3.28407 0
M  V30 8047 C 776.486 2.05699 -5.54474 0
M  V30 8048 H 775.416 0.403857 -0.636722 0
M  V30 8049 H 778.067 0.33076 -1.80494 0
M  V30 8050 H 776.449 2.73456 -2.86423 0
M  V30 8051 H 777.623 0.451969 -4.58578 0
M  V30 8052 H 775.938 0.565556 -4.12541 0
M  V30 8053 H 778.535 3.34651 -4.17029 0
M  V30 8054 H 778.878 3.36 -2.45784 0
M  V30 8055 H 779.411 1.98087 -3.44973 0
M  V30 8056 H 776.15 1.43204 -6.39666 0
M  V30 8057 H 775.67 2.76572 -5.32229 0
M  V30 8058 H 777.349 2.64554 -5.90441 0
M  V30 8059 N 777.481 1.45874 0.596531 0
M  V30 8060 C 778.429 1.55739 1.72766 0
M  V30 8061 C 779.423 0.426666 1.63939 0
M  V30 8062 O 780.629 0.60301 1.69599 0
M  V30 8063 H 777.004 0.489386 0.570968 0
M  V30 8064 H 778.975 2.50871 1.61575 0
M  V30 8065 C 777.724 1.55174 3.11153 0
M  V30 8066 H 777.047 2.41511 3.1861 0
M  V30 8067 H 778.487 1.66133 3.90097 0
M  V30 8068 C 776.946 0.278001 3.35751 0
M  V30 8069 O 777.476 -0.637557 3.96608 0
M  V30 8070 N 775.682 0.170227 2.90101 0
M  V30 8071 H 775.229 0.916159 2.40758 0
M  V30 8072 H 775.187 -0.68117 3.06932 0
M  V30 8073 N 778.959 -0.83999 1.33349 0
M  V30 8074 C 779.907 -1.97113 1.23488 0
M  V30 8075 C 780.901 -1.68849 0.136503 0
M  V30 8076 O 782.107 -1.77476 0.300389 0
M  V30 8077 H 778.482 -0.647049 0.383185 0
M  V30 8078 H 780.453 -2.02554 2.19122 0
M  V30 8079 C 779.202 -3.33314 0.989815 0
M  V30 8080 H 778.525 -3.556 1.82726 0
M  V30 8081 H 779.965 -4.12963 0.961123 0
M  V30 8082 C 778.424 -3.35496 -0.307272 0
M  V30 8083 O 778.954 -3.79589 -1.31434 0
M  V30 8084 N 777.16 -2.88669 -0.334414 0
M  V30 8085 H 776.707 -2.5298 0.485659 0
M  V30 8086 H 776.665 -2.90512 -1.20209 0
M  V30 8087 N 780.437 -1.16799 -1.0581 0
M  V30 8088 C 781.662 -0.977402 -1.82925 0
M  V30 8089 C 782.087 0.469514 -1.82146 0
M  V30 8090 O 781.445 1.33576 -1.22585 0
M  V30 8091 C 781.493 -1.51543 -3.27211 0
M  V30 8092 O 780.597 -0.725021 -4.05977 0
M  V30 8093 H 779.938 -0.347474 -0.565825 0
M  V30 8094 H 782.468 -1.55151 -1.33376 0
M  V30 8095 H 782.478 -1.53502 -3.78023 0
M  V30 8096 H 781.153 -2.56872 -3.27093 0
M  V30 8097 H 779.73 -0.77634 -3.64729 0
M  V30 8098 N 781.915 1.24427 -0.967243 0
M  V30 8099 C 782.845 2.2773 -0.515899 0
M  V30 8100 C 783.826 1.64197 0.444227 0
M  V30 8101 O 785.011 1.91193 0.340451 0
M  V30 8102 C 782.141 3.46751 0.195149 0
M  V30 8103 C 781.095 4.22548 -0.680953 0
M  V30 8104 C 780.421 5.34456 0.161561 0
M  V30 8105 C 781.721 4.83914 -1.96532 0
M  V30 8106 H 783.415 2.65735 -1.37933 0
M  V30 8107 H 780.961 1.27742 -0.664681 0
M  V30 8108 H 782.914 4.18153 0.522117 0
M  V30 8109 H 781.638 3.07771 1.09292 0
M  V30 8110 H 780.297 3.52946 -0.991186 0
M  V30 8111 H 779.945 4.91716 1.05947 0
M  V30 8112 H 779.645 5.86087 -0.421418 0
M  V30 8113 H 781.169 6.08685 0.483211 0
M  V30 8114 H 782.583 5.47392 -1.70396 0
M  V30 8115 H 780.98 5.45775 -2.49499 0
M  V30 8116 H 782.05 4.05393 -2.66053 0
M  V30 8117 N 783.393 0.737304 1.3929 0
M  V30 8118 C 784.618 0.295237 2.05288 0
M  V30 8119 C 785.043 -1.06235 1.55228 0
M  V30 8120 O 784.401 -1.67365 0.697043 0
M  V30 8121 C 784.449 0.309146 3.59272 0
M  V30 8122 O 783.553 -0.702437 4.06374 0
M  V30 8123 H 782.894 0.133762 0.650387 0
M  V30 8124 H 785.424 1.00387 1.78279 0
M  V30 8125 H 785.434 0.154336 4.07708 0
M  V30 8126 H 784.109 1.29974 3.95069 0
M  V30 8127 H 782.686 -0.513574 3.69346 0
M  V30 8128 N 784.871 -1.49948 0.485112 0
M  V30 8129 C 786.12 -2.01589 -0.066765 0
M  V30 8130 C 786.433 -1.371 -1.39509 0
M  V30 8131 O 787.639 -1.79978 -2.03274 0
M  V30 8132 C 786.095 -3.59501 -0.169476 0
M  V30 8133 C 785.703 -4.32955 1.15126 0
M  V30 8134 C 787.447 -4.19138 -0.672564 0
M  V30 8135 C 785.354 -5.82684 1.01158 0
M  V30 8136 H 784.284 -0.753453 -0.0287259 0
M  V30 8137 H 786.935 -1.72632 0.622132 0
M  V30 8138 H 785.317 -3.85106 -0.922471 0
M  V30 8139 H 786.491 -4.19064 1.9163 0
M  V30 8140 H 784.806 -3.84991 1.58654 0
M  V30 8141 H 787.403 -5.28767 -0.794325 0
M  V30 8142 H 787.746 -3.81447 -1.66745 0
M  V30 8143 H 788.279 -3.97793 0.0234415 0
M  V30 8144 H 785.018 -6.24873 1.98025 0
M  V30 8145 H 784.538 -5.99112 0.287151 0
M  V30 8146 H 786.217 -6.43376 0.683847 0
M  V30 8147 N 786.349 -0.21828 -1.56081 0
M  V30 8148 C 787.312 0.679633 -2.18892 0
M  V30 8149 C 788.312 1.12405 -1.14986 0
M  V30 8150 O 789.502 1.03339 -1.40238 0
M  V30 8151 C 786.634 1.93063 -2.80962 0
M  V30 8152 H 787.827 0.132066 -2.99609 0
M  V30 8153 H 785.38 0.0313374 -1.56269 0
M  V30 8154 H 786.115 2.52015 -2.04106 0
M  V30 8155 H 785.9 1.62046 -3.57048 0
M  V30 8156 H 787.39 2.57043 -3.29118 0
M  V30 8157 N 787.827 1.57504 0.0551401 0
M  V30 8158 C 789.104 1.79155 0.785048 0
M  V30 8159 C 789.484 0.809995 1.94942 0
M  V30 8160 O 788.832 -0.153432 2.27984 0
M  V30 8161 C 789.042 3.26134 1.24247 0
M  V30 8162 C 790.39 3.90419 1.66908 0
M  V30 8163 O 791.414 3.30126 1.33772 0
M  V30 8164 O 790.273 4.96523 2.28314 0
M  V30 8165 H 787.367 0.735825 0.377479 0
M  V30 8166 H 789.913 1.69666 0.0339285 0
M  V30 8167 H 788.685 3.89145 0.410089 0
M  V30 8168 H 788.308 3.40411 2.05441 0
M  V30 8169 N 789.305 -0.326896 1.54172 0
M  V30 8170 C 790.533 -1.08486 1.76177 0
M  V30 8171 C 790.948 -1.81815 0.508788 0
M  V30 8172 O 790.305 -1.74924 -0.520362 0
M  V30 8173 C 790.356 -2.08552 2.95276 0
M  V30 8174 O 790.077 -1.38202 4.15731 0
M  V30 8175 C 791.578 -2.96593 3.29466 0
M  V30 8176 H 788.798 -0.322835 0.588233 0
M  V30 8177 H 791.342 -0.374036 2.0105 0
M  V30 8178 H 789.497 -2.75174 2.72687 0
M  V30 8179 H 789.911 -2.05186 4.827 0
M  V30 8180 H 791.385 -3.62708 4.16109 0
M  V30 8181 H 791.862 -3.63511 2.46487 0
M  V30 8182 H 792.468 -2.35537 3.54122 0
M  V30 8183 N 790.784 -1.46188 -0.588786 0
M  V30 8184 C 792.2 -1.31009 -0.911524 0
M  V30 8185 C 792.4 -0.277017 -1.99587 0
M  V30 8186 O 791.456 0.322532 -2.50432 0
M  V30 8187 C 792.769 -2.69459 -1.33463 0
M  V30 8188 C 794.317 -2.77502 -1.44782 0
M  V30 8189 C 794.792 -4.1652 -1.90461 0
M  V30 8190 N 796.283 -4.18907 -1.97665 0
M  V30 8191 C 797.018 -5.23359 -2.34271 0
M  V30 8192 N 796.514 -6.38143 -2.69714 0
M  V30 8193 N 798.307 -5.10723 -2.34774 0
M  V30 8194 H 790.458 -2.12016 0.127614 0
M  V30 8195 H 792.721 -0.947984 -0.00557599 0
M  V30 8196 H 792.427 -3.46336 -0.611929 0
M  V30 8197 H 792.301 -2.99165 -2.2974 0
M  V30 8198 H 794.688 -2.00917 -2.1614 0
M  V30 8199 H 794.769 -2.51488 -0.467724 0
M  V30 8200 H 794.413 -4.93597 -1.19684 0
M  V30 8201 H 794.343 -4.39937 -2.89418 0
M  V30 8202 H 796.834 -3.36084 -1.72789 0
M  V30 8203 H 797.147 -7.13624 -2.96582 0
M  V30 8204 H 795.492 -6.41514 -2.67366 0
M  V30 8205 H 798.683 -4.20088 -2.06503 0
M  V30 8206 H 798.856 -5.9224 -2.62975 0
M  V30 8207 N 792.262 0.832906 -1.33792 0
M  V30 8208 C 793.487 1.62568 -1.28788 0
M  V30 8209 C 793.912 1.87599 0.137246 0
M  V30 8210 O 793.27 1.44436 1.0958 0
M  V30 8211 C 793.318 2.9495 -2.07453 0
M  V30 8212 O 792.422 3.86546 -1.43722 0
M  V30 8213 H 791.763 0.494809 -0.442787 0
M  V30 8214 H 794.293 1.03578 -1.76445 0
M  V30 8215 H 794.303 3.44599 -2.1844 0
M  V30 8216 H 792.978 2.76055 -3.11073 0
M  V30 8217 H 791.555 3.45044 -1.41417 0
M  V30 8218 N 793.74 1.17359 1.05189 0
M  V30 8219 C 795.151 0.96793 1.5965 0
M  V30 8220 C 795.502 -0.485355 1.90102 0
M  V30 8221 O 794.627 -1.36066 1.6827 0
M  V30 8222 C 795.222 1.75068 2.90063 0
M  V30 8223 C 793.781 1.58969 3.41183 0
M  V30 8224 C 792.928 1.75231 2.14917 0
M  V30 8225 H 795.879 1.32067 0.880001 0
M  V30 8226 H 795.9 1.23308 3.59966 0
M  V30 8227 H 795.412 2.80835 2.67868 0
M  V30 8228 H 793.513 0.556906 3.68415 0
M  V30 8229 H 793.626 2.38067 4.15766 0
M  V30 8230 H 791.99 1.18073 2.25679 0
M  V30 8231 H 792.773 2.8241 1.95191 0
M  V30 8232 N 795.218 -1.23913 0.973828 0
M  V30 8233 C 796.148 -2.27453 0.527969 0
M  V30 8234 C 797.129 -1.6443 -0.435513 0
M  V30 8235 O 798.314 -1.9137 -0.330306 0
M  V30 8236 C 795.444 -3.4685 -0.176757 0
M  V30 8237 C 794.398 -4.22181 0.703352 0
M  V30 8238 C 793.724 -5.34534 -0.133215 0
M  V30 8239 C 795.024 -4.82865 1.99096 0
M  V30 8240 H 796.718 -2.65 1.3934 0
M  V30 8241 H 794.264 -1.27388 0.671446 0
M  V30 8242 H 796.217 -4.18424 -0.499934 0
M  V30 8243 H 794.941 -3.08346 -1.07659 0
M  V30 8244 H 793.6 -3.52416 1.00989 0
M  V30 8245 H 793.248 -4.92271 -1.03338 0
M  V30 8246 H 792.948 -5.85855 0.452494 0
M  V30 8247 H 794.472 -6.08933 -0.450924 0
M  V30 8248 H 795.886 -5.46481 1.73297 0
M  V30 8249 H 794.283 -5.44444 2.52389 0
M  V30 8250 H 795.353 -4.03977 2.68199 0
M  V30 8251 N 796.696 -0.74468 -1.38897 0
M  V30 8252 C 797.626 -0.126355 -2.33158 0
M  V30 8253 C 798.607 0.713517 -1.54412 0
M  V30 8254 O 799.792 0.656523 -1.82766 0
M  V30 8255 C 796.922 0.774375 -3.38557 0
M  V30 8256 C 795.876 0.0379214 -4.27983 0
M  V30 8257 C 795.202 1.05631 -5.24162 0
M  V30 8258 C 796.502 -1.12523 -5.10035 0
M  V30 8259 H 798.196 -0.913744 -2.85116 0
M  V30 8260 H 795.742 -0.440847 -1.37086 0
M  V30 8261 H 797.695 1.21655 -4.03458 0
M  V30 8262 H 796.419 1.59399 -2.85061 0
M  V30 8263 H 795.078 -0.384733 -3.64576 0
M  V30 8264 H 794.726 1.86975 -4.66958 0
M  V30 8265 H 794.426 0.568261 -5.84846 0
M  V30 8266 H 795.95 1.49799 -5.9194 0
M  V30 8267 H 797.364 -0.761037 -5.68226 0
M  V30 8268 H 795.761 -1.54355 -5.79909 0
M  V30 8269 H 796.831 -1.94237 -4.44297 0
M  V30 8270 N 798.174 1.49689 -0.493057 0
M  V30 8271 C 799.59 1.58907 -0.148526 0
M  V30 8272 C 799.79 1.4991 1.34645 0
M  V30 8273 O 798.846 1.36893 2.12171 0
M  V30 8274 C 800.159 2.91996 -0.718265 0
M  V30 8275 C 801.707 3.05443 -0.683658 0
M  V30 8276 C 802.182 4.41138 -1.23132 0
M  V30 8277 N 803.673 4.47608 -1.19167 0
M  V30 8278 C 804.408 5.51038 -1.5857 0
M  V30 8279 N 803.904 6.61612 -2.05528 0
M  V30 8280 N 805.697 5.41706 -1.50036 0
M  V30 8281 H 797.848 1.5378 -1.46511 0
M  V30 8282 H 800.111 0.727996 -0.607228 0
M  V30 8283 H 799.817 3.04123 -1.7664 0
M  V30 8284 H 799.691 3.76798 -0.17419 0
M  V30 8285 H 802.078 2.92949 0.355626 0
M  V30 8286 H 802.159 2.22344 -1.26479 0
M  V30 8287 H 801.803 4.54382 -2.26935 0
M  V30 8288 H 801.733 5.22864 -0.626201 0
M  V30 8289 H 804.224 3.68274 -0.847524 0
M  V30 8290 H 804.537 7.36622 -2.33685 0
M  V30 8291 H 802.882 6.62674 -2.09497 0
M  V30 8292 H 806.073 4.54212 -1.13176 0
M  V30 8293 H 806.246 6.22188 -1.81068 0
M  V30 8294 N 799.652 0.226554 1.55963 0
M  V30 8295 C 800.585 -0.721625 2.1649 0
M  V30 8296 C 801.563 -1.18745 1.11078 0
M  V30 8297 O 802.747 -1.26929 1.3936 0
M  V30 8298 C 799.874 -1.97828 2.74921 0
M  V30 8299 C 798.92 -1.65202 3.93206 0
M  V30 8300 S 799.753 -0.772419 5.299 0
M  V30 8301 C 800.909 -2.03853 5.91773 0
M  V30 8302 H 801.142 -0.207192 2.96577 0
M  V30 8303 H 798.675 0.0111976 1.54396 0
M  V30 8304 H 800.633 -2.69982 3.09225 0
M  V30 8305 H 799.294 -2.46384 1.94817 0
M  V30 8306 H 798.487 -2.58583 4.32609 0
M  V30 8307 H 798.089 -1.01108 3.60074 0
M  V30 8308 H 800.381 -2.98799 6.08051 0
M  V30 8309 H 801.324 -1.68831 6.87678 0
M  V30 8310 H 801.732 -2.18134 5.20651 0
M  V30 8311 N 801.13 -1.57531 -0.0467866 0
M  V30 8312 C 802.546 -1.54451 -0.402107 0
M  V30 8313 C 802.746 -0.950275 -1.77685 0
M  V30 8314 O 801.802 -0.563602 -2.4613 0
M  V30 8315 C 803.115 -2.9899 -0.320212 0
M  V30 8316 C 804.663 -3.10452 -0.398588 0
M  V30 8317 C 805.138 -4.56689 -0.346335 0
M  V30 8318 N 806.629 -4.6142 -0.405666 0
M  V30 8319 C 807.364 -5.72087 -0.387845 0
M  V30 8320 N 806.86 -6.92045 -0.32336 0
M  V30 8321 N 808.653 -5.60404 -0.436263 0
M  V30 8322 H 800.804 -1.94515 0.853087 0
M  V30 8323 H 803.067 -0.891397 0.322669 0
M  V30 8324 H 802.773 -3.46124 0.623794 0
M  V30 8325 H 802.647 -3.60164 -1.1208 0
M  V30 8326 H 805.034 -2.63276 -1.33302 0
M  V30 8327 H 805.115 -2.52142 0.431026 0
M  V30 8328 H 804.759 -5.04527 0.584356 0
M  V30 8329 H 804.689 -5.12889 -1.19382 0
M  V30 8330 H 807.18 -3.75105 -0.458737 0
M  V30 8331 H 807.493 -7.7216 -0.314375 0
M  V30 8332 H 805.838 -6.94396 -0.28967 0
M  V30 8333 H 809.029 -4.65586 -0.48451 0
M  V30 8334 H 809.202 -6.46645 -0.418907 0
M  V30 8335 N 802.608 0.318715 -1.54344 0
M  V30 8336 C 803.571 1.37545 -1.83342 0
M  V30 8337 C 804.571 1.445 -0.705444 0
M  V30 8338 O 805.761 1.44443 -0.973752 0
M  V30 8339 C 802.893 2.76225 -1.99781 0
M  V30 8340 H 804.086 1.13084 -2.77762 0
M  V30 8341 H 801.639 0.554457 -1.46135 0
M  V30 8342 H 802.374 3.05934 -1.07588 0
M  V30 8343 H 802.159 2.7257 -2.81865 0
M  V30 8344 H 803.649 3.52664 -2.23647 0
M  V30 8345 N 804.086 1.46499 0.581025 0
M  V30 8346 C 805.018 1.53225 1.70455 0
M  V30 8347 C 806.031 0.420443 1.57277 0
M  V30 8348 O 807.22 0.688888 1.64671 0
M  V30 8349 C 804.32 1.39803 3.08721 0
M  V30 8350 C 803.493 2.65132 3.47884 0
M  V30 8351 C 802.552 2.45886 4.65217 0
M  V30 8352 O 801.578 3.19615 4.70993 0
M  V30 8353 N 802.78 1.5216 5.60203 0
M  V30 8354 H 805.545 2.50098 1.65139 0
M  V30 8355 H 803.106 1.42576 0.76705 0
M  V30 8356 H 805.098 1.24697 3.8501 0
M  V30 8357 H 803.668 0.51104 3.08394 0
M  V30 8358 H 802.888 2.95169 2.61284 0
M  V30 8359 H 804.176 3.48385 3.70817 0
M  V30 8360 H 803.574 0.913646 5.58273 0
M  V30 8361 H 802.131 1.43017 6.35916 0
M  V30 8362 N 805.565 -0.825799 1.34232 0
M  V30 8363 C 806.497 -1.94401 1.21413 0
M  V30 8364 C 807.51 -1.6218 0.141902 0
M  V30 8365 O 808.699 -1.74109 0.3935 0
M  V30 8366 C 805.799 -3.28257 0.842635 0
M  V30 8367 C 804.972 -3.88521 2.00924 0
M  V30 8368 C 804.031 -5.00752 1.61661 0
M  V30 8369 O 803.057 -5.19201 2.33279 0
M  V30 8370 N 804.259 -5.78084 0.52911 0
M  V30 8371 H 807.024 -2.05931 2.17744 0
M  V30 8372 H 804.585 -1.00223 1.27149 0
M  V30 8373 H 806.577 -4.00781 0.561822 0
M  V30 8374 H 805.147 -3.12585 -0.0304029 0
M  V30 8375 H 804.367 -3.08425 2.45495 0
M  V30 8376 H 805.655 -4.25516 2.78951 0
M  V30 8377 H 805.053 -5.65661 -0.0663322 0
M  V30 8378 H 803.61 -6.51072 0.308017 0
M  V30 8379 N 807.043 -1.17915 -1.04565 0
M  V30 8380 C 807.953 -0.916449 -2.15959 0
M  V30 8381 C 808.969 0.117655 -1.73602 0
M  V30 8382 O 810.145 -0.063089 -2.01301 0
M  V30 8383 C 807.21 -0.440262 -3.43893 0
M  V30 8384 C 806.271 -1.54172 -4.00661 0
M  V30 8385 C 805.504 -1.08816 -5.22489 0
M  V30 8386 O 805.727 0.0551547 -5.70373 0
M  V30 8387 O 804.661 -1.88383 -5.7166 0
M  V30 8388 H 808.487 -1.8484 -2.40972 0
M  V30 8389 H 806.072 -0.960552 -1.14428 0
M  V30 8390 H 807.954 -0.182537 -4.21004 0
M  V30 8391 H 806.629 0.46346 -3.20365 0
M  V30 8392 H 805.536 -1.85341 -3.24961 0
M  V30 8393 H 806.869 -2.42139 -4.2852 0
M  V30 8394 N 808.521 1.23394 -0.980386 0
M  V30 8395 C 809.451 2.2717 -0.540024 0
M  V30 8396 C 810.432 1.64659 0.426787 0
M  V30 8397 O 811.617 1.91543 0.320153 0
M  V30 8398 C 808.747 3.46939 0.15836 0
M  V30 8399 C 807.701 4.21802 -0.725732 0
M  V30 8400 C 807.027 5.34597 0.104866 0
M  V30 8401 C 808.327 4.81802 -2.01654 0
M  V30 8402 H 810.021 2.64257 -1.40743 0
M  V30 8403 H 807.567 1.2703 -0.678193 0
M  V30 8404 H 809.52 4.18683 0.477737 0
M  V30 8405 H 808.244 3.08912 1.06022 0
M  V30 8406 H 806.903 3.51875 -1.02857 0
M  V30 8407 H 806.551 4.92812 1.00726 0
M  V30 8408 H 806.251 5.85607 -0.483557 0
M  V30 8409 H 807.775 6.09163 0.418624 0
M  V30 8410 H 809.189 5.45554 -1.76193 0
M  V30 8411 H 807.586 5.43098 -2.55273 0
M  V30 8412 H 808.656 4.02549 -2.70338 0
M  V30 8413 N 809.999 0.752036 1.385 0
M  V30 8414 C 811.41 0.375385 1.82887 0
M  V30 8415 C 811.761 -1.09575 1.62751 0
M  V30 8416 O 810.886 -1.84685 1.12785 0
M  V30 8417 C 811.481 0.674563 3.32017 0
M  V30 8418 C 810.04 0.351208 3.74758 0
M  V30 8419 C 809.187 0.928531 2.61292 0
M  V30 8420 H 812.138 0.948313 1.27251 0
M  V30 8421 H 812.159 -0.0477781 3.8047 0
M  V30 8422 H 811.671 1.74533 3.46641 0
M  V30 8423 H 809.772 -0.713042 3.65714 0
M  V30 8424 H 809.885 0.845675 4.71577 0
M  V30 8425 H 808.249 0.354012 2.52228 0
M  V30 8426 H 809.032 2.0043 2.78716 0
M  V30 8427 N 811.477 -1.49425 0.500989 0
M  V30 8428 C 812.409 -2.27037 -0.314159 0
M  V30 8429 C 813.422 -1.33578 -0.930626 0
M  V30 8430 O 814.611 -1.58861 -0.813968 0
M  V30 8431 C 811.711 -3.05968 -1.45729 0
M  V30 8432 C 810.884 -4.27 -0.948135 0
M  V30 8433 C 809.943 -4.87977 -1.96888 0
M  V30 8434 O 808.969 -5.48044 -1.53743 0
M  V30 8435 N 810.171 -4.77627 -3.29928 0
M  V30 8436 H 812.936 -2.97634 0.351336 0
M  V30 8437 H 810.497 -1.58427 0.333536 0
M  V30 8438 H 812.489 -3.43634 -2.1377 0
M  V30 8439 H 811.059 -2.37978 -2.02695 0
M  V30 8440 H 810.279 -3.94091 -0.0926311 0
M  V30 8441 H 811.567 -5.0541 -0.586362 0
M  V30 8442 H 810.965 -4.29926 -3.67669 0
M  V30 8443 H 809.522 -5.19478 -3.93682 0
M  V30 8444 N 812.955 -0.234822 -1.55841 0
M  V30 8445 C 814.204 0.393685 -1.97821 0
M  V30 8446 C 814.517 1.59947 -1.1259 0
M  V30 8447 O 815.723 2.29835 -1.44528 0
M  V30 8448 C 814.179 0.751811 -3.5196 0
M  V30 8449 C 813.787 -0.431898 -4.45913 0
M  V30 8450 C 815.531 1.34518 -4.02623 0
M  V30 8451 C 813.438 -0.0505976 -5.91378 0
M  V30 8452 H 812.368 0.150864 -0.738753 0
M  V30 8453 H 815.019 -0.333132 -1.80451 0
M  V30 8454 H 813.401 1.53642 -3.6498 0
M  V30 8455 H 814.575 -1.20935 -4.44647 0
M  V30 8456 H 812.89 -0.939385 -4.05666 0
M  V30 8457 H 815.487 1.64359 -5.08813 0
M  V30 8458 H 815.83 2.26554 -3.49255 0
M  V30 8459 H 816.363 0.623729 -3.9288 0
M  V30 8460 H 813.102 -0.937779 -6.48757 0
M  V30 8461 H 812.622 0.690898 -5.95808 0
M  V30 8462 H 814.301 0.37146 -6.45933 0
M  V30 8463 N 814.433 1.57553 0.0384317 0
M  V30 8464 C 815.343 2.09333 1.0591 0
M  V30 8465 C 816.359 1.0299 1.40247 0
M  V30 8466 O 817.535 1.34669 1.49754 0
M  V30 8467 C 814.6 2.55468 2.34386 0
M  V30 8468 C 813.661 3.76254 2.06716 0
M  V30 8469 C 812.894 4.20179 3.29067 0
M  V30 8470 O 813.117 3.637 4.39407 0
M  V30 8471 O 812.051 5.12697 3.15317 0
M  V30 8472 H 815.877 2.96683 0.649087 0
M  V30 8473 H 813.462 1.47211 0.254802 0
M  V30 8474 H 815.344 2.85514 3.09935 0
M  V30 8475 H 814.019 1.71234 2.74701 0
M  V30 8476 H 812.926 3.51241 1.28766 0
M  V30 8477 H 814.259 4.61443 1.71263 0
M  V30 8478 N 815.911 -0.310526 1.54511 0
M  V30 8479 C 817.136 -1.07046 1.7764 0
M  V30 8480 C 817.561 -1.80488 0.529696 0
M  V30 8481 O 816.919 -1.73702 -0.519361 0
M  V30 8482 C 816.967 -2.03411 2.97752 0
M  V30 8483 O 816.071 -3.11545 2.7021 0
M  V30 8484 H 815.412 -0.307994 0.588248 0
M  V30 8485 H 817.942 -0.350848 2.01569 0
M  V30 8486 H 817.952 -2.46048 3.2546 0
M  V30 8487 H 816.627 -1.49361 3.88155 0
M  V30 8488 H 815.204 -2.7349 2.53491 0
M  V30 8489 N 817.389 -1.46805 -0.573248 0
M  V30 8490 C 818.635 -1.5283 -1.33307 0
M  V30 8491 C 818.968 -0.183287 -1.93333 0
M  V30 8492 O 818.243 0.806354 -1.76998 0
M  V30 8493 C 818.526 -2.63414 -2.45531 0
M  V30 8494 C 818.379 -4.07478 -1.90478 0
M  V30 8495 C 819.698 -2.70014 -3.47535 0
M  V30 8496 H 816.817 -0.556371 -0.483343 0
M  V30 8497 H 819.459 -1.78787 -0.643066 0
M  V30 8498 H 817.609 -2.41412 -3.04389 0
M  V30 8499 H 819.281 -4.40795 -1.36004 0
M  V30 8500 H 817.524 -4.16511 -1.21248 0
M  V30 8501 H 818.195 -4.80598 -2.71531 0
M  V30 8502 H 820.671 -2.89817 -2.98572 0
M  V30 8503 H 819.547 -3.49192 -4.23504 0
M  V30 8504 H 819.808 -1.76436 -4.05367 0
M  V30 8505 N 818.867 0.818669 -1.34668 0
M  V30 8506 C 819.814 1.92983 -1.26595 0
M  V30 8507 C 820.784 1.65506 -0.140315 0
M  V30 8508 O 821.969 1.88063 -0.322005 0
M  V30 8509 C 819.109 3.2932 -1.03163 0
M  V30 8510 C 818.222 3.69061 -2.24539 0
M  V30 8511 C 817.357 4.94368 -1.94355 0
M  V30 8512 C 816.396 5.26702 -3.11851 0
M  V30 8513 N 815.533 6.43187 -2.81522 0
M  V30 8514 H 820.373 1.99219 -2.2162 0
M  V30 8515 H 817.91 0.974612 -1.1018 0
M  V30 8516 H 819.868 4.07897 -0.87613 0
M  V30 8517 H 818.498 3.22584 -0.118045 0
M  V30 8518 H 817.55 2.85842 -2.50995 0
M  V30 8519 H 818.862 3.88924 -3.12313 0
M  V30 8520 H 818.016 5.80742 -1.75566 0
M  V30 8521 H 816.755 4.76515 -1.03848 0
M  V30 8522 H 815.76 4.38823 -3.31231 0
M  V30 8523 H 816.985 5.46492 -4.03142 0
M  V30 8524 H 814.931 6.26783 -1.93596 0
M  V30 8525 H 814.848 6.63243 -3.62829 0
M  V30 8526 H 816.116 7.32621 -2.66247 0
M  V30 8527 N 820.346 1.18468 1.03938 0
M  V30 8528 C 821.762 0.934635 1.29371 0
M  V30 8529 C 821.962 -0.399067 1.97509 0
M  V30 8530 O 821.018 -1.13309 2.25648 0
M  V30 8531 C 822.331 2.10111 2.15114 0
M  V30 8532 C 823.879 2.13955 2.28456 0
M  V30 8533 C 824.354 3.30024 3.17566 0
M  V30 8534 N 825.845 3.29893 3.25153 0
M  V30 8535 C 826.58 4.16346 3.94263 0
M  V30 8536 N 826.076 5.12934 4.65693 0
M  V30 8537 N 827.869 4.04256 3.90556 0
M  V30 8538 H 820.02 2.04294 0.581185 0
M  V30 8539 H 822.283 0.892727 0.318971 0
M  V30 8540 H 821.989 3.06572 1.72355 0
M  V30 8541 H 821.863 2.06283 3.15796 0
M  V30 8542 H 824.25 1.18072 2.7045 0
M  V30 8543 H 824.331 2.2184 1.2736 0
M  V30 8544 H 823.975 4.26181 2.76283 0
M  V30 8545 H 823.905 3.19376 4.18697 0
M  V30 8546 H 826.396 2.59969 2.74271 0
M  V30 8547 H 826.709 5.75271 5.16026 0
M  V30 8548 H 825.054 5.16893 4.64593 0
M  V30 8549 H 828.245 3.28083 3.33885 0
M  V30 8550 H 828.418 4.71848 4.44144 0
M  V30 8551 N 821.824 -1.22873 0.986916 0
M  V30 8552 C 822.756 -2.23889 0.490537 0
M  V30 8553 C 823.769 -1.57523 -0.411144 0
M  V30 8554 O 824.958 -1.7721 -0.214236 0
M  V30 8555 C 822.058 -3.37488 -0.30902 0
M  V30 8556 C 821.231 -4.33438 0.587354 0
M  V30 8557 C 820.29 -5.25958 -0.159467 0
M  V30 8558 O 819.316 -5.67394 0.453115 0
M  V30 8559 N 820.518 -5.62265 -1.44355 0
M  V30 8560 H 823.283 -2.67109 1.35914 0
M  V30 8561 H 820.844 -1.37111 0.860937 0
M  V30 8562 H 822.836 -3.96365 -0.817139 0
M  V30 8563 H 821.406 -2.934 -1.07868 0
M  V30 8564 H 820.626 -3.72969 1.27622 0
M  V30 8565 H 821.914 -4.94495 1.19801 0
M  V30 8566 H 821.312 -5.30562 -1.96266 0
M  V30 8567 H 819.869 -6.23585 -1.89698 0
M  V30 8568 N 823.302 -0.75937 -1.38099 0
M  V30 8569 C 824.252 -0.111098 -2.27729 0
M  V30 8570 C 825.236 0.687161 -1.45489 0
M  V30 8571 O 826.428 0.552167 -1.68167 0
M  V30 8572 C 823.557 0.776809 -3.34396 0
M  V30 8573 C 822.643 -0.0286108 -4.2409 0
M  V30 8574 N 823.034 -1.06797 -4.94397 0
M  V30 8575 C 821.332 0.197307 -4.45563 0
M  V30 8576 C 822.033 -1.55576 -5.6051 0
M  V30 8577 N 821.009 -0.870059 -5.36592 0
M  V30 8578 H 824.811 -0.907047 -2.79553 0
M  V30 8579 H 822.325 -0.595954 -1.5107 0
M  V30 8580 H 824.322 1.25691 -3.97502 0
M  V30 8581 H 822.982 1.57164 -2.84129 0
M  V30 8582 H 823.993 -1.44988 -4.97191 0
M  V30 8583 H 820.67 0.965028 -4.06194 0
M  V30 8584 H 822.06 -2.42184 -6.26735 0
M  V30 8585 N 824.78 1.49157 -0.508906 0
M  V30 8586 C 825.743 2.27784 0.25434 0
M  V30 8587 C 826.743 1.34132 0.88686 0
M  V30 8588 O 827.933 1.5722 0.750168 0
M  V30 8589 C 825.065 3.12347 1.36573 0
M  V30 8590 H 826.258 2.96718 -0.435714 0
M  V30 8591 H 823.811 1.54052 -0.264128 0
M  V30 8592 H 824.546 2.47997 2.08969 0
M  V30 8593 H 824.331 3.81213 0.917543 0
M  V30 8594 H 825.821 3.71712 1.90315 0
M  V30 8595 N 826.258 0.243083 1.55714 0
M  V30 8596 C 827.483 -0.389944 2.03701 0
M  V30 8597 C 827.908 -1.51025 1.12129 0
M  V30 8598 O 827.266 -1.80944 0.11352 0
M  V30 8599 C 827.314 -0.878649 3.49731 0
M  V30 8600 O 826.418 -1.98851 3.61292 0
M  V30 8601 H 825.759 -0.0855115 0.658471 0
M  V30 8602 H 828.289 0.368023 2.01263 0
M  V30 8603 H 828.299 -1.18287 3.90477 0
M  V30 8604 H 826.974 -0.0588107 4.15858 0
M  V30 8605 H 825.551 -1.68928 3.32442 0
M  V30 8606 N 827.736 -1.57571 -0.0300757 0
M  V30 8607 C 829.152 -1.54869 -0.385703 0
M  V30 8608 C 829.352 -0.969068 -1.76667 0
M  V30 8609 O 828.408 -0.589676 -2.45518 0
M  V30 8610 C 829.721 -2.99313 -0.288482 0
M  V30 8611 C 831.269 -3.10857 -0.365638 0
M  V30 8612 C 831.744 -4.5703 -0.297878 0
M  V30 8613 N 833.235 -4.61825 -0.356703 0
M  V30 8614 C 833.97 -5.72466 -0.327146 0
M  V30 8615 N 833.466 -6.92349 -0.249941 0
M  V30 8616 N 835.259 -5.60836 -0.376801 0
M  V30 8617 H 827.41 -1.936 0.87367 0
M  V30 8618 H 829.673 -0.887924 0.332106 0
M  V30 8619 H 829.379 -3.45443 0.66047 0
M  V30 8620 H 829.253 -3.61332 -1.08253 0
M  V30 8621 H 831.64 -2.64676 -1.30502 0
M  V30 8622 H 831.721 -2.51671 0.457744 0
M  V30 8623 H 831.365 -5.03879 0.637835 0
M  V30 8624 H 831.295 -5.14127 -1.13935 0
M  V30 8625 H 833.786 -3.75571 -0.418926 0
M  V30 8626 H 834.099 -7.7245 -0.23246 0
M  V30 8627 H 832.444 -6.94664 -0.216004 0
M  V30 8628 H 835.635 -4.66073 -0.435101 0
M  V30 8629 H 835.808 -6.47052 -0.350298 0
M  V30 8630 N 829.214 0.302327 -1.54673 0
M  V30 8631 C 830.46 1.03924 -1.74149 0
M  V30 8632 C 830.793 1.86968 -0.525041 0
M  V30 8633 O 830.068 1.88538 0.477868 0
M  V30 8634 C 830.351 1.94633 -3.02969 0
M  V30 8635 C 830.204 1.14778 -4.34909 0
M  V30 8636 C 831.523 2.93826 -3.27649 0
M  V30 8637 H 828.642 0.376405 -0.633631 0
M  V30 8638 H 831.284 0.314007 -1.87387 0
M  V30 8639 H 829.434 2.56471 -2.91813 0
M  V30 8640 H 831.106 0.552363 -4.57981 0
M  V30 8641 H 829.349 0.450462 -4.31455 0
M  V30 8642 H 830.02 1.81495 -5.21309 0
M  V30 8643 H 832.496 2.42117 -3.38406 0
M  V30 8644 H 831.372 3.54462 -4.19104 0
M  V30 8645 H 831.633 3.67416 -2.45882 0
M  V30 8646 N 830.692 1.47107 0.565454 0
M  V30 8647 C 831.655 1.58535 1.65527 0
M  V30 8648 C 832.655 0.461081 1.54048 0
M  V30 8649 O 833.845 0.725911 1.58355 0
M  V30 8650 C 830.977 1.52204 3.05036 0
M  V30 8651 H 832.17 2.55676 1.56747 0
M  V30 8652 H 829.723 1.35174 0.78471 0
M  V30 8653 H 830.458 0.564071 3.19357 0
M  V30 8654 H 830.243 2.3379 3.14777 0
M  V30 8655 H 831.733 1.63322 3.84338 0
M  V30 8656 N 832.17 -0.811516 1.35101 0
M  V30 8657 C 833.1 -1.9378 1.30275 0
M  V30 8658 C 834.081 -1.69165 0.178075 0
M  V30 8659 O 835.266 -1.90599 0.372256 0
M  V30 8660 C 832.396 -3.30439 1.06899 0
M  V30 8661 C 831.35 -3.69523 2.15955 0
M  V30 8662 C 830.676 -5.0429 1.77751 0
M  V30 8663 C 831.976 -3.80419 3.57881 0
M  V30 8664 H 833.67 -1.98075 2.24514 0
M  V30 8665 H 831.216 -0.951586 1.08078 0
M  V30 8666 H 833.169 -4.08828 1.02164 0
M  V30 8667 H 831.893 -3.26473 0.0910462 0
M  V30 8668 H 830.552 -2.93416 2.19778 0
M  V30 8669 H 830.2 -4.96823 0.785876 0
M  V30 8670 H 829.9 -5.31411 2.5075 0
M  V30 8671 H 831.424 -5.85125 1.74533 0
M  V30 8672 H 832.838 -4.49051 3.56407 0
M  V30 8673 H 831.235 -4.19005 4.29598 0
M  V30 8674 H 832.305 -2.82105 3.94391 0
M  V30 8675 N 833.648 -1.19017 -1.03309 0
M  V30 8676 C 834.894 -0.991681 -1.769 0
M  V30 8677 C 835.227 0.476813 -1.88255 0
M  V30 8678 O 834.502 1.35407 -1.39625 0
M  V30 8679 C 834.785 -1.65627 -3.19749 0
M  V30 8680 C 834.638 -3.19813 -3.1629 0
M  V30 8681 C 835.957 -1.37579 -4.18043 0
M  V30 8682 H 833.076 -0.361674 -0.642153 0
M  V30 8683 H 835.718 -1.46795 -1.20628 0
M  V30 8684 H 833.868 -1.25132 -3.67796 0
M  V30 8685 H 835.54 -3.69494 -2.76174 0
M  V30 8686 H 833.783 -3.51578 -2.54117 0
M  V30 8687 H 834.454 -3.61457 -4.17196 0
M  V30 8688 H 836.93 -1.72679 -3.78578 0
M  V30 8689 H 835.806 -1.86636 -5.16196 0
M  V30 8690 H 836.067 -0.300118 -4.4108 0
M  V30 8691 N 835.127 1.22348 -0.993418 0
M  V30 8692 C 836.538 1.72893 -0.704616 0
M  V30 8693 C 836.889 1.80095 0.778483 0
M  V30 8694 O 836.014 1.4476 1.60853 0
M  V30 8695 C 836.609 3.14 -1.27237 0
M  V30 8696 C 835.168 3.61949 -1.03294 0
M  V30 8697 C 834.315 2.39816 -1.39225 0
M  V30 8698 H 837.266 1.07688 -1.16572 0
M  V30 8699 H 837.287 3.74886 -0.651212 0
M  V30 8700 H 836.799 3.08727 -2.3518 0
M  V30 8701 H 834.9 3.72588 0.0298329 0
M  V30 8702 H 835.013 4.48051 -1.69668 0
M  V30 8703 H 833.377 2.41448 -0.810849 0
M  V30 8704 H 834.16 2.37203 -2.48172 0
M  V30 8705 N 836.605 0.766683 1.37694 0
M  V30 8706 C 837.851 0.329201 2.0011 0
M  V30 8707 C 838.184 -1.09004 1.60723 0
M  V30 8708 O 837.459 -1.74895 0.850989 0
M  V30 8709 C 837.742 0.466989 3.57059 0
M  V30 8710 C 837.595 1.92828 4.06371 0
M  V30 8711 C 838.914 -0.131792 4.39903 0
M  V30 8712 H 836.033 0.12109 0.726984 0
M  V30 8713 H 838.675 0.968779 1.63446 0
M  V30 8714 H 836.825 -0.0775023 3.88423 0
M  V30 8715 H 838.497 2.53208 3.85595 0
M  V30 8716 H 836.74 2.43884 3.58752 0
M  V30 8717 H 837.411 1.97577 5.15429 0
M  V30 8718 H 839.887 0.332731 4.14768 0
M  V30 8719 H 838.763 -0.005217 5.489 0
M  V30 8720 H 839.024 -1.22156 4.24889 0
M  V30 8721 N 838.083 -1.48885 0.516809 0
M  V30 8722 C 839.013 -2.32241 -0.242157 0
M  V30 8723 C 839.994 -1.41258 -0.947633 0
M  V30 8724 O 841.179 -1.70156 -0.935973 0
M  V30 8725 C 838.309 -3.22151 -1.29754 0
M  V30 8726 C 837.263 -4.22053 -0.710995 0
M  V30 8727 C 836.589 -5.01007 -1.86806 0
M  V30 8728 C 837.889 -5.21388 0.30853 0
M  V30 8729 H 839.583 -2.95943 0.453651 0
M  V30 8730 H 837.129 -1.42316 0.219612 0
M  V30 8731 H 839.082 -3.79284 -1.83634 0
M  V30 8732 H 837.806 -2.56423 -2.02274 0
M  V30 8733 H 836.465 -3.66087 -0.193819 0
M  V30 8734 H 836.113 -4.31713 -2.58133 0
M  V30 8735 H 835.813 -5.68615 -1.48159 0
M  V30 8736 H 837.337 -5.60989 -2.4109 0
M  V30 8737 H 838.751 -5.73122 -0.142703 0
M  V30 8738 H 837.148 -5.96975 0.611673 0
M  V30 8739 H 838.218 -4.69329 1.21894 0
M  V30 8740 N 839.561 -0.251338 -1.55583 0
M  V30 8741 C 840.524 0.63305 -2.20284 0
M  V30 8742 C 841.524 1.09941 -1.17344 0
M  V30 8743 O 842.714 1.00341 -1.42399 0
M  V30 8744 C 839.846 1.8706 -2.84993 0
M  V30 8745 H 841.039 0.0684846 -2.99822 0
M  V30 8746 H 838.592 -0.00181653 -1.563 0
M  V30 8747 H 839.327 2.47629 -2.09405 0
M  V30 8748 H 839.112 1.54436 -3.60405 0
M  V30 8749 H 840.602 2.50004 -3.34496 0
M  V30 8750 N 841.039 1.57585 0.0217189 0
M  V30 8751 C 842.264 1.94267 0.726309 0
M  V30 8752 C 842.689 0.851904 1.67703 0
M  V30 8753 O 842.047 -0.191792 1.80283 0
M  V30 8754 C 842.095 3.30023 1.45318 0
M  V30 8755 O 841.199 3.22791 2.5667 0
M  V30 8756 H 840.54 0.634777 0.194818 0
M  V30 8757 H 843.07 2.04585 -0.0249985 0
M  V30 8758 H 843.08 3.65084 1.82147 0
M  V30 8759 H 841.755 4.08972 0.755962 0
M  V30 8760 H 840.332 2.99373 2.2233 0
M  V30 8761 N 842.517 -0.29412 1.54831 0
M  V30 8762 C 843.427 -1.3854 1.89325 0
M  V30 8763 C 844.443 -1.55127 0.788133 0
M  V30 8764 O 845.619 -1.6966 1.08524 0
M  V30 8765 C 842.684 -2.72809 2.13954 0
M  V30 8766 C 841.745 -2.65148 3.37631 0
M  V30 8767 C 840.978 -3.93014 3.61076 0
M  V30 8768 O 841.201 -4.927 2.87406 0
M  V30 8769 O 840.135 -3.94491 4.54599 0
M  V30 8770 H 843.961 -1.12289 2.82179 0
M  V30 8771 H 841.546 -0.490793 1.41108 0
M  V30 8772 H 843.428 -3.52238 2.31315 0
M  V30 8773 H 842.103 -2.9889 1.24285 0
M  V30 8774 H 841.01 -1.84168 3.25627 0
M  V30 8775 H 842.343 -2.4402 4.27452 0
M  V30 8776 N 843.995 -1.47404 -0.557645 0
M  V30 8777 C 845.406 -1.47872 -1.13977 0
M  V30 8778 C 845.757 -0.233176 -1.94809 0
M  V30 8779 O 844.882 0.661945 -2.06027 0
M  V30 8780 C 845.477 -2.67926 -2.07368 0
M  V30 8781 C 844.036 -2.71354 -2.60852 0
M  V30 8782 C 843.183 -2.40967 -1.37223 0
M  V30 8783 H 846.134 -1.54921 -0.344268 0
M  V30 8784 H 846.155 -2.44871 -2.91236 0
M  V30 8785 H 845.667 -3.58562 -1.48509 0
M  V30 8786 H 843.768 -1.84855 -3.23511 0
M  V30 8787 H 843.881 -3.72032 -3.01876 0
M  V30 8788 H 842.245 -1.91541 -1.67882 0
M  V30 8789 H 843.028 -3.33811 -0.801583 0
M  V30 8790 N 845.473 0.80434 -1.35529 0
M  V30 8791 C 846.701 1.59283 -1.32048 0
M  V30 8792 C 847.116 1.88527 0.101556 0
M  V30 8793 O 846.473 1.48975 1.05417 0
M  V30 8794 C 846.524 2.92276 -2.12737 0
M  V30 8795 O 846.245 2.64299 -3.49396 0
M  V30 8796 C 847.746 3.86631 -2.16867 0
M  V30 8797 H 844.966 0.494523 -0.453528 0
M  V30 8798 H 847.51 0.999415 -1.78415 0
M  V30 8799 H 845.665 3.48125 -1.69964 0
M  V30 8800 H 846.079 3.4923 -3.91329 0
M  V30 8801 H 847.553 4.77053 -2.77712 0
M  V30 8802 H 848.03 4.23384 -1.16803 0
M  V30 8803 H 848.636 3.36717 -2.59811 0
M  V30 8804 N 846.951 1.19563 1.02676 0
M  V30 8805 C 848.199 0.997593 1.75763 0
M  V30 8806 C 848.52 -0.47253 1.89188 0
M  V30 8807 O 847.79 -1.34214 1.42701 0
M  V30 8808 H 846.37 0.366128 0.651122 0
M  V30 8809 H 849.032 1.50495 1.23844 0
M  V30 8810 H 848.128 1.44741 2.76508 0
M  V30 8811 N 848.429 -1.21819 0.999893 0
M  V30 8812 C 849.678 -1.90066 0.675108 0
M  V30 8813 C 849.991 -1.78624 -0.79705 0
M  V30 8814 O 851.197 -2.41851 -1.23371 0
M  V30 8815 C 849.653 -3.40795 1.15702 0
M  V30 8816 C 849.261 -3.60859 2.6549 0
M  V30 8817 C 851.005 -4.147 0.906889 0
M  V30 8818 C 848.912 -5.05324 3.07248 0
M  V30 8819 H 847.842 -0.711763 0.248815 0
M  V30 8820 H 850.493 -1.3792 1.21038 0
M  V30 8821 H 848.875 -3.92164 0.549832 0
M  V30 8822 H 850.049 -3.19951 3.31614 0
M  V30 8823 H 848.364 -3.00298 2.88461 0
M  V30 8824 H 850.961 -5.21187 1.1945 0
M  V30 8825 H 851.304 -4.16004 -0.156923 0
M  V30 8826 H 851.837 -3.69379 1.47662 0
M  V30 8827 H 848.576 -5.09164 4.12834 0
M  V30 8828 H 848.096 -5.47108 2.45832 0
M  V30 8829 H 849.775 -5.73797 2.98941 0
M  V30 8830 N 849.908 -0.773975 -1.37286 0
M  V30 8831 C 851.185 -0.263942 -1.93811 0
M  V30 8832 C 851.565 1.24138 -1.70743 0
M  V30 8833 O 850.913 2.02557 -1.05749 0
M  V30 8834 C 851.123 -0.639753 -3.43086 0
M  V30 8835 C 852.471 -0.610796 -4.20184 0
M  V30 8836 O 853.495 -0.579278 -3.51458 0
M  V30 8837 O 852.354 -0.639862 -5.42741 0
M  V30 8838 H 849.448 -0.0614331 -0.824715 0
M  V30 8839 H 851.994 -0.855477 -1.46559 0
M  V30 8840 H 850.766 -1.67856 -3.53469 0
M  V30 8841 H 850.389 -0.0212827 -3.97594 0
M  V30 8842 N 851.386 1.48609 -0.524698 0
M  V30 8843 C 852.333 2.29539 0.240956 0
M  V30 8844 C 853.303 1.37033 0.938681 0
M  V30 8845 O 854.488 1.65996 0.940737 0
M  V30 8846 C 851.628 3.20278 1.28514 0
M  V30 8847 C 850.741 4.27858 0.596798 0
M  V30 8848 C 849.876 5.05784 1.62346 0
M  V30 8849 C 848.915 6.05173 0.918287 0
M  V30 8850 N 848.052 6.76176 1.89025 0
M  V30 8851 H 852.892 2.945 -0.455368 0
M  V30 8852 H 850.429 1.45188 -0.236403 0
M  V30 8853 H 852.387 3.71281 1.90279 0
M  V30 8854 H 851.017 2.57251 1.94992 0
M  V30 8855 H 850.069 3.80162 -0.134668 0
M  V30 8856 H 851.381 4.98782 0.0428506 0
M  V30 8857 H 850.535 5.60775 2.31553 0
M  V30 8858 H 849.274 4.34687 2.2113 0
M  V30 8859 H 848.279 5.49391 0.21212 0
M  V30 8860 H 849.504 6.78265 0.336633 0
M  V30 8861 H 847.45 6.07834 2.46726 0
M  V30 8862 H 847.367 7.43157 1.3876 0
M  V30 8863 H 848.635 7.35759 2.57446 0
M  V30 8864 N 852.864 0.259585 1.55447 0
M  V30 8865 C 853.794 -0.62852 2.24882 0
M  V30 8866 C 854.775 -1.17128 1.23349 0
M  V30 8867 O 855.96 -1.20829 1.52033 0
M  V30 8868 C 853.09 -1.81983 2.95803 0
M  V30 8869 C 852.044 -1.40929 4.04132 0
M  V30 8870 C 851.37 -2.68246 4.62545 0
M  V30 8871 C 852.67 -0.570956 5.1917 0
M  V30 8872 H 854.364 -0.0495021 2.99359 0
M  V30 8873 H 851.91 -0.0223688 1.43983 0
M  V30 8874 H 853.863 -2.44689 3.43082 0
M  V30 8875 H 852.587 -2.42444 2.18835 0
M  V30 8876 H 851.246 -0.805519 3.57641 0
M  V30 8877 H 850.894 -3.26931 3.82263 0
M  V30 8878 H 850.594 -2.41495 5.35681 0
M  V30 8879 H 852.118 -3.31827 5.12565 0
M  V30 8880 H 853.532 -1.10262 5.62597 0
M  V30 8881 H 851.929 -0.398979 5.98772 0
M  V30 8882 H 852.999 0.413918 4.8313 0
M  V30 8883 N 854.342 -1.57594 -0.0133615 0
M  V30 8884 C 855.289 -2.07574 -1.00905 0
M  V30 8885 C 856.259 -0.968231 -1.34961 0
M  V30 8886 O 857.444 -1.23981 -1.45028 0
M  V30 8887 C 854.584 -2.5728 -2.30002 0
M  V30 8888 C 853.697 -3.81881 -2.01967 0
M  V30 8889 C 852.832 -4.20139 -3.25049 0
M  V30 8890 C 851.871 -5.37614 -2.92639 0
M  V30 8891 N 851.008 -5.71229 -4.08218 0
M  V30 8892 H 855.848 -2.92382 -0.575899 0
M  V30 8893 H 853.385 -1.4455 -0.272722 0
M  V30 8894 H 855.343 -2.84171 -3.05454 0
M  V30 8895 H 853.973 -1.75365 -2.71011 0
M  V30 8896 H 853.025 -3.61979 -1.16942 0
M  V30 8897 H 854.337 -4.67441 -1.74069 0
M  V30 8898 H 853.491 -4.48242 -4.08857 0
M  V30 8899 H 852.23 -3.33262 -3.56073 0
M  V30 8900 H 851.235 -5.09248 -2.07235 0
M  V30 8901 H 852.46 -6.26157 -2.62876 0
M  V30 8902 H 850.406 -4.8731 -4.39164 0
M  V30 8903 H 850.323 -6.51333 -3.83799 0
M  V30 8904 H 851.591 -6.03917 -4.92854 0
M  V30 8905 N 855.82 0.285905 -1.54985 0
M  V30 8906 C 856.752 1.37505 -1.83371 0
M  V30 8907 C 857.765 1.46138 -0.717454 0
M  V30 8908 O 858.954 1.48186 -0.995142 0
M  V30 8909 C 856.054 2.7575 -1.97016 0
M  V30 8910 C 855.227 2.89866 -3.27561 0
M  V30 8911 C 854.286 4.08704 -3.31433 0
M  V30 8912 O 853.312 4.00073 -4.04883 0
M  V30 8913 N 854.514 5.20062 -2.57907 0
M  V30 8914 H 857.279 1.13505 -2.77375 0
M  V30 8915 H 854.84 0.476006 -1.54744 0
M  V30 8916 H 856.832 3.5352 -1.96991 0
M  V30 8917 H 855.402 2.9263 -1.09938 0
M  V30 8918 H 854.622 1.99085 -3.40234 0
M  V30 8919 H 855.91 2.96219 -4.13681 0
M  V30 8920 H 855.308 5.29958 -1.97891 0
M  V30 8921 H 853.865 5.96111 -2.63619 0
M  V30 8922 N 857.298 1.47698 0.54982 0
M  V30 8923 C 858.228 1.63622 1.66583 0
M  V30 8924 C 859.209 0.485477 1.63025 0
M  V30 8925 O 860.394 0.715692 1.80531 0
M  V30 8926 C 857.524 1.65721 3.05211 0
M  V30 8927 C 856.478 2.80097 3.2362 0
M  V30 8928 C 855.804 2.67272 4.63109 0
M  V30 8929 C 857.104 4.21612 3.08286 0
M  V30 8930 H 858.798 2.57049 1.53512 0
M  V30 8931 H 856.344 1.23705 0.737099 0
M  V30 8932 H 858.297 1.75451 3.83138 0
M  V30 8933 H 857.021 0.688593 3.19258 0
M  V30 8934 H 855.68 2.69889 2.48104 0
M  V30 8935 H 855.328 1.68422 4.73965 0
M  V30 8936 H 855.028 3.44008 4.76374 0
M  V30 8937 H 856.552 2.78942 5.43161 0
M  V30 8938 H 857.966 4.32758 3.76024 0
M  V30 8939 H 856.363 4.99193 3.33057 0
M  V30 8940 H 857.433 4.39462 2.04942 0
M  V30 8941 N 858.776 -0.797141 1.35954 0
M  V30 8942 C 859.739 -1.89104 1.29508 0
M  V30 8943 C 860.739 -1.59495 0.204444 0
M  V30 8944 O 861.929 -1.68051 0.458746 0
M  V30 8945 C 859.061 -3.25726 1.00576 0
M  V30 8946 H 860.254 -1.96237 2.26785 0
M  V30 8947 H 857.807 -0.994075 1.20614 0
M  V30 8948 H 858.542 -3.24279 0.0372519 0
M  V30 8949 H 858.327 -3.48604 1.79492 0
M  V30 8950 H 859.817 -4.0578 0.986508 0
M  V30 8951 N 860.254 -1.20106 -1.0204 0
M  V30 8952 C 861.502 -1.0069 -1.75231 0
M  V30 8953 C 861.823 0.462491 -1.89436 0
M  V30 8954 O 861.093 1.33455 -1.4341 0
M  V30 8955 H 859.673 -0.369576 -0.649171 0
M  V30 8956 H 862.335 -1.51149 -1.23044 0
M  V30 8957 H 861.431 -1.46205 -2.75736 0
M  V30 8958 O 861.771 1.15001 -1.13389 0
M  V30 8959 H 862.462 1.74049 -0.85009 0
M  V30 END ATOM
M  V30 BEGIN BOND
M  V30 END BOND
M  V30 END CTAB
M  END
$$$$
