drugbank_target|P08686 Steroid 21-hydroxylase (DB01026)
 OpenBabel12092120593D

  0  0  0     0  0            999 V3000
M  V30 BEGIN CTAB
M  V30 COUNTS 7966 8070 0 0 0
M  V30 BEGIN ATOM
M  V30 1 H -0.908 1.98254 -0.117106 0
M  V30 2 N 0 1.576 0 0
M  V30 3 C 0.933 2.03868 1.02534 0
M  V30 4 C 1.911 0.928543 1.3348 0
M  V30 5 O 3.095 1.19667 1.45644 0
M  V30 6 C 0.222 2.43627 2.35294 0
M  V30 7 C -0.732 3.65373 2.2001 0
M  V30 8 S 0.101 5.13292 1.52614 0
M  V30 9 C 1.257 5.56322 2.86805 0
M  V30 10 H 1.49 2.90518 0.631377 0
M  V30 11 H -0.977 1.52953 0.210867 0
M  V30 12 H 0.981 2.67203 3.11629 0
M  V30 13 H -0.358 1.57376 2.7183 0
M  V30 14 H -1.165 3.90944 3.18086 0
M  V30 15 H -1.563 3.418 1.51819 0
M  V30 16 H 0.729 5.58782 3.83104 0
M  V30 17 H 1.672 6.56266 2.65933 0
M  V30 18 H 2.08 4.83886 2.90714 0
M  V30 19 N 1.4781 -0.272755 1.55222 0
M  V30 20 C 2.4081 -1.34136 1.91127 0
M  V30 21 C 3.3891 -1.51513 0.773168 0
M  V30 22 O 4.5741 -1.64552 1.03132 0
M  V30 23 C 1.7041 -2.70083 2.1834 0
M  V30 24 C 0.6581 -2.67437 3.34158 0
M  V30 25 C -0.0159 -4.06938 3.46851 0
M  V30 26 C 1.2841 -2.26686 4.70543 0
M  V30 27 H 2.9781 -1.04333 2.80633 0
M  V30 28 H 0.5241 -0.500454 1.35024 0
M  V30 29 H 2.4771 -3.44952 2.42046 0
M  V30 30 H 1.2011 -3.01469 1.25634 0
M  V30 31 H -0.1399 -1.95026 3.1042 0
M  V30 32 H -0.4919 -4.35547 2.51611 0
M  V30 33 H -0.7919 -4.06062 4.2472 0
M  V30 34 H 0.7321 -4.83545 3.72849 0
M  V30 35 H 2.1461 -2.91277 4.93792 0
M  V30 36 H 0.5431 -2.36971 5.5133 0
M  V30 37 H 1.6131 -1.21818 4.69349 0
M  V30 38 N 2.9562 -1.48159 -0.537278 0
M  V30 39 C 3.8862 -1.65029 -1.6519 0
M  V30 40 C 4.8672 -0.499281 -1.62607 0
M  V30 41 O 6.0522 -0.730972 -1.79918 0
M  V30 42 C 3.1822 -1.68303 -3.03795 0
M  V30 43 C 2.1362 -2.8283 -3.21234 0
M  V30 44 C 1.4622 -2.71189 -4.60826 0
M  V30 45 C 2.7622 -4.24211 -3.04701 0
M  V30 46 H 4.4562 -2.58341 -1.51328 0
M  V30 47 H 2.0022 -1.24325 -0.726585 0
M  V30 48 H 3.9552 -1.78693 -3.81637 0
M  V30 49 H 2.6792 -0.715635 -3.18663 0
M  V30 50 H 1.3382 -2.71983 -2.45807 0
M  V30 51 H 0.9862 -1.72435 -4.7252 0
M  V30 52 H 0.6862 -3.48035 -4.7344 0
M  V30 53 H 2.2102 -2.83537 -5.40777 0
M  V30 54 H 3.6242 -4.3593 -3.72341 0
M  V30 55 H 2.0212 -5.01998 -3.28813 0
M  V30 56 H 3.0912 -4.41184 -2.01209 0
M  V30 57 N 4.4343 0.785586 -1.36625 0
M  V30 58 C 5.3643 1.91259 -1.33949 0
M  V30 59 C 6.3453 1.68795 -0.210325 0
M  V30 60 O 7.5303 1.89854 -0.408561 0
M  V30 61 C 4.6603 3.28339 -1.13186 0
M  V30 62 C 3.6143 3.65335 -2.22967 0
M  V30 63 C 2.9403 5.00806 -1.87342 0
M  V30 64 C 4.2403 3.7352 -3.65075 0
M  V30 65 H 5.9343 1.93755 -2.28253 0
M  V30 66 H 3.4803 0.930788 -1.09874 0
M  V30 67 H 5.4333 4.06804 -1.09948 0
M  V30 68 H 4.1573 3.2624 -0.153332 0
M  V30 69 H 2.8163 2.89169 -2.25337 0
M  V30 70 H 2.4643 4.95233 -0.880545 0
M  V30 71 H 2.1643 5.26529 -2.60846 0
M  V30 72 H 3.6883 5.81687 -1.85667 0
M  V30 73 H 5.1023 4.42168 -3.64911 0
M  V30 74 H 3.4993 4.10731 -4.37516 0
M  V30 75 H 4.5693 2.74527 -3.99703 0
M  V30 76 N 5.9124 1.20967 1.01018 0
M  V30 77 C 7.1604 1.02172 1.74371 0
M  V30 78 C 7.4814 -0.446414 1.89821 0
M  V30 79 O 6.7514 -1.32234 1.44537 0
M  V30 80 H 5.3314 0.375066 0.646014 0
M  V30 81 H 7.9934 1.52187 1.21758 0
M  V30 82 H 7.0894 1.48538 2.74487 0
M  V30 83 N 7.3905 -1.2043 1.01659 0
M  V30 84 C 8.3205 -2.25466 0.607226 0
M  V30 85 C 9.3015 -1.65853 -0.377716 0
M  V30 86 O 10.4865 -1.92409 -0.263149 0
M  V30 87 C 7.6165 -3.47256 -0.0552949 0
M  V30 88 C 6.5705 -4.19462 0.850632 0
M  V30 89 C 5.8965 -5.34673 0.0538859 0
M  V30 90 C 7.1965 -4.75603 2.15868 0
M  V30 91 H 8.8905 -2.59962 1.48526 0
M  V30 92 H 6.4365 -1.2496 0.715605 0
M  V30 93 H 8.3895 -4.19917 -0.353233 0
M  V30 94 H 7.1135 -3.11924 -0.968045 0
M  V30 95 H 5.7725 -3.48667 1.13257 0
M  V30 96 H 5.4205 -4.95585 -0.860514 0
M  V30 97 H 5.1205 -5.83913 0.657192 0
M  V30 98 H 6.6445 -6.10138 -0.237598 0
M  V30 99 H 8.0585 -5.40083 1.92311 0
M  V30 100 H 6.4555 -5.3528 2.71284 0
M  V30 101 H 7.5255 -3.94346 2.82169 0
M  V30 102 N 8.8686 -0.792821 -1.36206 0
M  V30 103 C 9.7986 -0.207853 -2.32573 0
M  V30 104 C 10.7796 0.659055 -1.56813 0
M  V30 105 O 11.9646 0.592176 -1.84951 0
M  V30 106 C 9.0946 0.655449 -3.41059 0
M  V30 107 C 8.0486 -0.111842 -4.27854 0
M  V30 108 C 7.3746 0.872274 -5.27537 0
M  V30 109 C 8.6746 -1.30299 -5.05786 0
M  V30 110 H 10.3686 -1.01294 -2.81744 0
M  V30 111 H 7.9146 -0.48854 -1.3546 0
M  V30 112 H 9.8676 1.07464 -4.07467 0
M  V30 113 H 8.5916 1.49328 -2.90463 0
M  V30 114 H 7.2506 -0.512053 -3.63006 0
M  V30 115 H 6.8986 1.70523 -4.73214 0
M  V30 116 H 6.5986 0.363291 -5.86476 0
M  V30 117 H 8.1226 1.28996 -5.96818 0
M  V30 118 H 9.5366 -0.959379 -5.65216 0
M  V30 119 H 7.9336 -1.7455 -5.74154 0
M  V30 120 H 9.0036 -2.09663 -4.37229 0
M  V30 121 N 10.3467 1.47872 -0.545128 0
M  V30 122 C 11.2767 2.32661 0.197793 0
M  V30 123 C 12.2577 1.43041 0.920504 0
M  V30 124 O 13.4427 1.71912 0.90333 0
M  V30 125 C 10.5727 3.24569 1.23582 0
M  V30 126 C 9.5267 4.23333 0.630323 0
M  V30 127 C 8.8527 5.0448 1.77211 0
M  V30 128 C 10.1527 5.20704 -0.407974 0
M  V30 129 H 11.8467 2.95024 -0.510045 0
M  V30 130 H 9.3927 1.4187 -0.246731 0
M  V30 131 H 11.3457 3.8272 1.76362 0
M  V30 132 H 10.0697 2.60236 1.97344 0
M  V30 133 H 8.7287 3.6639 0.123922 0
M  V30 134 H 8.3767 4.36561 2.49847 0
M  V30 135 H 8.0767 5.71339 1.37281 0
M  V30 136 H 9.6007 5.65487 2.3034 0
M  V30 137 H 11.0147 5.7329 0.033305 0
M  V30 138 H 9.4117 5.95699 -0.725486 0
M  V30 139 H 10.4817 4.66917 -1.30828 0
M  V30 140 N 11.8248 0.280983 1.55075 0
M  V30 141 C 12.7548 -0.597469 2.25727 0
M  V30 142 C 13.7358 -1.15417 1.24952 0
M  V30 143 O 14.9208 -1.18722 1.53684 0
M  V30 144 C 12.0508 -1.7789 2.98283 0
M  V30 145 C 11.0048 -1.35347 4.06036 0
M  V30 146 C 10.3308 -2.61846 4.66198 0
M  V30 147 C 11.6308 -0.499354 5.19907 0
M  V30 148 H 13.3248 -0.00824265 2.99399 0
M  V30 149 H 10.8708 -0.0025244 1.44 0
M  V30 150 H 12.8238 -2.39937 3.46422 0
M  V30 151 H 11.5478 -2.39405 2.22155 0
M  V30 152 H 10.2068 -0.756156 3.58717 0
M  V30 153 H 9.8548 -3.21632 3.86732 0
M  V30 154 H 9.5548 -2.3409 5.38958 0
M  V30 155 H 11.0788 -3.24732 5.1709 0
M  V30 156 H 12.4928 -1.02498 5.64063 0
M  V30 157 H 10.8898 -0.316424 5.99265 0
M  V30 158 H 11.9598 0.480459 4.82514 0
M  V30 159 N 13.3029 -1.57598 0.00835791 0
M  V30 160 C 14.7139 -1.7892 -0.53333 0
M  V30 161 C 15.0649 -0.916609 -1.73473 0
M  V30 162 O 14.1899 -0.121336 -2.1606 0
M  V30 163 C 14.7849 -3.24488 -0.974313 0
M  V30 164 C 13.3439 -3.46878 -1.46125 0
M  V30 165 C 12.4909 -2.74157 -0.416302 0
M  V30 166 H 15.4419 -1.56958 0.234495 0
M  V30 167 H 15.4629 -3.3306 -1.83988 0
M  V30 168 H 14.9749 -3.87972 -0.099718 0
M  V30 169 H 13.0759 -2.8862 -2.35646 0
M  V30 170 H 13.1889 -4.55572 -1.48295 0
M  V30 171 H 11.5529 -2.39022 -0.87981 0
M  V30 172 H 12.3359 -3.40345 0.44947 0
M  V30 173 N 14.781 0.264519 -1.55364 0
M  V30 174 C 15.711 1.33121 -1.91836 0
M  V30 175 C 16.692 1.51101 -0.781192 0
M  V30 176 O 17.877 1.64003 -1.04003 0
M  V30 177 C 15.007 2.68921 -2.19769 0
M  V30 178 C 13.961 2.65661 -3.35571 0
M  V30 179 C 13.287 4.05093 -3.49004 0
M  V30 180 C 14.587 2.24187 -4.71739 0
M  V30 181 H 16.281 1.02844 -2.81182 0
M  V30 182 H 13.827 0.493286 -1.35287 0
M  V30 183 H 15.78 3.43663 -2.43872 0
M  V30 184 H 14.504 3.00799 -1.27231 0
M  V30 185 H 13.163 1.93377 -3.1145 0
M  V30 186 H 12.811 4.34206 -2.53917 0
M  V30 187 H 12.511 4.03804 -4.26868 0
M  V30 188 H 14.035 4.81561 -3.75408 0
M  V30 189 H 15.449 2.88654 -4.9533 0
M  V30 190 H 13.846 2.34044 -5.52579 0
M  V30 191 H 14.916 1.19327 -4.69988 0
M  V30 192 N 16.2591 1.48442 0.529413 0
M  V30 193 C 17.1891 1.65902 1.64313 0
M  V30 194 C 18.1701 0.507897 1.6234 0
M  V30 195 O 19.3551 0.740503 1.79528 0
M  V30 196 C 16.4851 1.69911 3.02898 0
M  V30 197 C 15.4391 2.8453 3.19729 0
M  V30 198 C 14.7651 2.73629 4.59381 0
M  V30 199 C 16.0651 4.25821 3.02447 0
M  V30 200 H 17.7591 2.5914 1.49955 0
M  V30 201 H 15.3051 1.24709 0.719982 0
M  V30 202 H 17.2581 1.80715 3.80684 0
M  V30 203 H 15.9821 0.732524 3.18279 0
M  V30 204 H 14.6411 2.73283 2.44361 0
M  V30 205 H 14.2891 1.74938 4.71599 0
M  V30 206 H 13.9891 3.50541 4.71588 0
M  V30 207 H 15.5131 2.86401 5.39265 0
M  V30 208 H 16.9271 4.37898 3.70024 0
M  V30 209 H 15.3241 5.03735 3.26146 0
M  V30 210 H 16.3941 4.42244 1.98867 0
M  V30 211 N 17.7372 -0.778329 1.37039 0
M  V30 212 C 18.7002 -1.87301 1.32102 0
M  V30 213 C 19.7002 -1.59198 0.226405 0
M  V30 214 O 20.8902 -1.67403 0.481861 0
M  V30 215 C 18.0222 -3.24309 1.05055 0
M  V30 216 H 19.2152 -1.93093 2.29467 0
M  V30 217 H 16.7682 -0.977358 1.21973 0
M  V30 218 H 17.5032 -3.24196 0.0819373 0
M  V30 219 H 17.2882 -3.46098 1.84279 0
M  V30 220 H 18.7782 -4.04382 1.04234 0
M  V30 221 N 19.2153 -1.21501 -1.00376 0
M  V30 222 C 20.4633 -1.03095 -1.73827 0
M  V30 223 C 20.7843 0.436341 -1.90055 0
M  V30 224 O 20.0543 1.31466 -1.45236 0
M  V30 225 H 18.6343 -0.378487 -0.644016 0
M  V30 226 H 21.2963 -1.52831 -1.20949 0
M  V30 227 H 20.3923 -1.49991 -2.73695 0
M  V30 228 N 20.6934 1.19889 -1.02296 0
M  V30 229 C 21.6564 2.21116 -0.603351 0
M  V30 230 C 22.6564 1.5738 0.329884 0
M  V30 231 O 23.8464 1.73802 0.117702 0
M  V30 232 C 20.9784 3.40696 0.117992 0
M  V30 233 H 22.1714 2.59754 -1.49893 0
M  V30 234 H 19.7244 1.33463 -0.813468 0
M  V30 235 H 20.4594 3.07569 1.0282 0
M  V30 236 H 20.2444 3.88188 -0.552511 0
M  V30 237 H 21.7344 4.15692 0.398696 0
M  V30 238 N 22.1715 0.800033 1.35784 0
M  V30 239 C 23.5875 0.482977 1.52117 0
M  V30 240 C 23.7875 -0.996948 1.75109 0
M  V30 241 O 22.8435 -1.78216 1.78872 0
M  V30 242 C 24.1565 1.32264 2.70049 0
M  V30 243 C 25.7045 1.31742 2.83924 0
M  V30 244 C 26.1795 2.14106 4.04874 0
M  V30 245 N 27.6705 2.11607 4.12039 0
M  V30 246 C 28.4055 2.72099 5.04727 0
M  V30 247 N 27.9015 3.41492 6.02789 0
M  V30 248 N 29.6945 2.61776 4.97423 0
M  V30 249 H 21.8455 1.75856 1.19115 0
M  V30 250 H 24.1085 0.748122 0.582252 0
M  V30 251 H 23.8145 2.37261 2.59616 0
M  V30 252 H 23.6885 0.971303 3.6448 0
M  V30 253 H 26.0755 0.275333 2.93813 0
M  V30 254 H 26.1565 1.70859 1.9037 0
M  V30 255 H 25.8005 3.18351 3.95746 0
M  V30 256 H 25.7305 1.72353 4.97596 0
M  V30 257 H 28.2215 1.61112 3.41835 0
M  V30 258 H 28.5345 3.84953 6.70098 0
M  V30 259 H 26.8795 3.45596 6.02983 0
M  V30 260 H 30.0705 2.07157 4.19766 0
M  V30 261 H 30.2435 3.0921 5.69468 0
M  V30 262 N 23.6496 -1.47581 0.552962 0
M  V30 263 C 24.5796 -2.32762 -0.185451 0
M  V30 264 C 25.5606 -1.43527 -0.912905 0
M  V30 265 O 26.7456 -1.72388 -0.894201 0
M  V30 266 C 23.8756 -3.25219 -1.21859 0
M  V30 267 C 22.8296 -4.23661 -0.607864 0
M  V30 268 C 22.1556 -5.05413 -1.74533 0
M  V30 269 C 23.4556 -5.20481 0.435582 0
M  V30 270 H 25.1496 -2.94749 0.525684 0
M  V30 271 H 22.6956 -1.41738 0.254251 0
M  V30 272 H 24.6486 -3.8365 -1.7433 0
M  V30 273 H 23.3726 -2.61279 -1.95961 0
M  V30 274 H 22.0316 -3.66451 -0.104489 0
M  V30 275 H 21.6796 -4.3788 -2.47529 0
M  V30 276 H 21.3796 -5.72059 -1.34249 0
M  V30 277 H 22.9036 -5.66701 -2.27338 0
M  V30 278 H 24.3176 -5.733 -0.00290157 0
M  V30 279 H 22.7146 -5.95305 0.757067 0
M  V30 280 H 23.7846 -4.66217 1.33303 0
M  V30 281 N 25.1277 -0.289203 -1.54924 0
M  V30 282 C 26.0577 0.58549 -2.2604 0
M  V30 283 C 27.0387 1.14753 -1.25562 0
M  V30 284 O 28.2237 1.17906 -1.54311 0
M  V30 285 C 25.3537 1.76305 -2.99222 0
M  V30 286 C 24.3077 1.33191 -4.06748 0
M  V30 287 C 23.6337 2.5937 -4.6758 0
M  V30 288 C 24.9337 0.471775 -5.20165 0
M  V30 289 H 26.6277 -0.00763532 -2.99399 0
M  V30 290 H 24.1737 -0.00511229 -1.43999 0
M  V30 291 H 26.1267 2.38097 -3.47689 0
M  V30 292 H 24.8507 2.38223 -2.23422 0
M  V30 293 H 23.5097 0.737121 -3.59113 0
M  V30 294 H 23.1577 3.19576 -3.88433 0
M  V30 295 H 22.8577 2.31228 -5.40192 0
M  V30 296 H 24.3817 3.21985 -5.18804 0
M  V30 297 H 25.7957 0.995056 -5.64599 0
M  V30 298 H 24.1927 0.284639 -5.99425 0
M  V30 299 H 25.2627 -0.506041 -4.82252 0
M  V30 300 N 26.6058 1.57591 -0.0167156 0
M  V30 301 C 27.8518 1.92399 0.659861 0
M  V30 302 C 28.2068 0.892561 1.70444 0
M  V30 303 O 27.4998 -0.0930755 1.91374 0
M  V30 304 C 27.6938 3.3172 1.33029 0
M  V30 305 C 27.5228 4.48319 0.352174 0
M  V30 306 C 26.2928 5.05281 -0.0434883 0
M  V30 307 C 28.4908 5.12831 -0.388474 0
M  V30 308 N 26.4728 6.05399 -1.01807 0
M  V30 309 C 27.8438 6.07934 -1.2172 0
M  V30 310 C 29.8988 4.95858 -0.450513 0
M  V30 311 C 28.6018 6.87891 -2.10235 0
M  V30 312 C 30.6278 5.76413 -1.32295 0
M  V30 313 C 29.9898 6.71123 -2.13948 0
M  V30 314 H 26.0888 0.752106 0.21415 0
M  V30 315 H 28.6728 1.94532 -0.0809846 0
M  V30 316 H 26.8438 3.3043 2.04134 0
M  V30 317 H 28.5758 3.5391 1.9629 0
M  V30 318 H 25.3308 4.7246 0.328384 0
M  V30 319 H 25.7548 6.60145 -1.50123 0
M  V30 320 H 30.3968 4.22472 0.166512 0
M  V30 321 H 28.1148 7.60591 -2.72997 0
M  V30 322 H 31.7008 5.65317 -1.37508 0
M  V30 323 H 30.5808 7.3237 -2.80364 0
M  V30 324 N 28.0839 -0.256276 1.55502 0
M  V30 325 C 29.0319 -1.33694 1.90338 0
M  V30 326 C 30.0259 -1.50299 0.781441 0
M  V30 327 O 31.2319 -1.51885 0.965966 0
M  V30 328 H 27.6069 -0.447483 0.60437 0
M  V30 329 H 29.5779 -1.01574 2.8058 0
M  V30 330 C 28.3269 -2.68724 2.20642 0
M  V30 331 H 27.6499 -2.56743 3.06469 0
M  V30 332 H 29.0899 -3.43237 2.48926 0
M  V30 333 C 27.5489 -3.21101 1.01959 0
M  V30 334 O 28.0789 -4.0084 0.262762 0
M  V30 335 N 26.2849 -2.79003 0.812746 0
M  V30 336 H 25.8319 -2.14271 1.42989 0
M  V30 337 H 25.7899 -3.14393 0.0203076 0
M  V30 338 N 29.562 -1.4872 -0.521534 0
M  V30 339 C 30.808 -1.58378 -1.27624 0
M  V30 340 C 31.163 -0.258028 -1.90662 0
M  V30 341 O 30.456 0.739917 -1.76736 0
M  V30 342 C 30.65 -2.66497 -2.38148 0
M  V30 343 C 30.479 -4.09456 -1.85945 0
M  V30 344 C 29.249 -4.76495 -1.68168 0
M  V30 345 C 31.447 -4.95353 -1.3831 0
M  V30 346 N 29.429 -6.0384 -1.1068 0
M  V30 347 C 30.8 -6.13012 -0.928238 0
M  V30 348 C 32.855 -4.81512 -1.26692 0
M  V30 349 C 31.558 -7.18354 -0.368701 0
M  V30 350 C 33.584 -5.86984 -0.721368 0
M  V30 351 C 32.946 -7.03857 -0.276623 0
M  V30 352 H 29.045 -0.634045 -0.457724 0
M  V30 353 H 31.629 -1.85639 -0.587049 0
M  V30 354 H 29.8 -2.41043 -3.04553 0
M  V30 355 H 31.532 -2.65791 -3.05184 0
M  V30 356 H 28.287 -4.32962 -1.91939 0
M  V30 357 H 28.711 -6.71778 -0.839217 0
M  V30 358 H 33.353 -3.91487 -1.5968 0
M  V30 359 H 31.071 -8.08096 -0.0265122 0
M  V30 360 H 34.657 -5.78329 -0.634531 0
M  V30 361 H 33.537 -7.84077 0.138947 0
M  V30 362 N 31.0401 0.771051 -1.3745 0
M  V30 363 C 32.2861 1.53109 -1.339 0
M  V30 364 C 32.6411 1.9225 0.0758401 0
M  V30 365 O 31.9341 1.61264 1.03463 0
M  V30 366 C 32.1281 2.80676 -2.2126 0
M  V30 367 C 31.9571 2.54003 -3.71096 0
M  V30 368 C 30.7271 2.48097 -4.402 0
M  V30 369 C 32.9251 2.21953 -4.63941 0
M  V30 370 N 30.9071 2.13515 -5.75573 0
M  V30 371 C 32.2781 1.97516 -5.87697 0
M  V30 372 C 34.3331 2.08114 -4.5232 0
M  V30 373 C 33.0361 1.60638 -7.01133 0
M  V30 374 C 35.0621 1.72636 -5.65642 0
M  V30 375 C 34.4241 1.4906 -6.88448 0
M  V30 376 H 30.5231 0.56055 -0.54526 0
M  V30 377 H 33.1071 0.899472 -1.72678 0
M  V30 378 H 31.2781 3.41674 -1.84698 0
M  V30 379 H 33.0101 3.46578 -2.08963 0
M  V30 380 H 29.7651 2.63974 -3.93211 0
M  V30 381 H 30.1891 1.98919 -6.47117 0
M  V30 382 H 34.8311 2.25024 -3.57944 0
M  V30 383 H 32.5491 1.42467 -7.95443 0
M  V30 384 H 36.1351 1.62586 -5.58621 0
M  V30 385 H 35.0151 1.22014 -7.7465 0
M  V30 386 N 32.5182 1.22032 0.997298 0
M  V30 387 C 33.4652 0.986467 2.08656 0
M  V30 388 C 34.4352 -0.0902671 1.65855 0
M  V30 389 O 35.6202 0.0584294 1.90711 0
M  V30 390 C 32.7602 0.565569 3.40434 0
M  V30 391 C 31.8732 1.71259 3.96604 0
M  V30 392 C 31.0082 1.24011 5.16522 0
M  V30 393 C 30.0472 2.35896 5.64818 0
M  V30 394 N 29.1842 1.89726 6.7598 0
M  V30 395 H 34.0242 1.91892 2.27994 0
M  V30 396 H 31.5612 0.956199 1.11782 0
M  V30 397 H 33.5192 0.302738 4.161 0
M  V30 398 H 32.1492 -0.329879 3.2111 0
M  V30 399 H 31.2012 2.08986 3.17851 0
M  V30 400 H 32.5132 2.55436 4.28432 0
M  V30 401 H 31.6672 0.934395 5.99461 0
M  V30 402 H 30.4062 0.368487 4.86306 0
M  V30 403 H 29.4112 2.67261 4.8047 0
M  V30 404 H 30.6362 3.23567 5.97061 0
M  V30 405 H 28.5822 1.0492 6.47555 0
M  V30 406 H 28.4992 2.67471 7.07103 0
M  V30 407 H 29.7672 1.62211 7.62435 0
M  V30 408 N 33.9963 -1.19345 1.0293 0
M  V30 409 C 34.9263 -2.2481 0.631105 0
M  V30 410 C 35.9073 -1.66245 -0.360104 0
M  V30 411 O 37.0923 -1.92677 -0.242726 0
M  V30 412 C 34.2223 -3.47295 -0.0184607 0
M  V30 413 C 33.1763 -4.18536 0.895073 0
M  V30 414 C 32.5023 -5.34586 0.110592 0
M  V30 415 C 33.8023 -4.73287 2.209 0
M  V30 416 H 35.4963 -2.58372 1.51275 0
M  V30 417 H 33.0423 -1.24194 0.728818 0
M  V30 418 H 34.9953 -4.20268 -0.308675 0
M  V30 419 H 33.7193 -3.12933 -0.934907 0
M  V30 420 H 32.3783 -3.47446 1.16949 0
M  V30 421 H 32.0263 -4.96469 -0.807902 0
M  V30 422 H 31.7263 -5.83183 0.719087 0
M  V30 423 H 33.2503 -6.10355 -0.172871 0
M  V30 424 H 34.6643 -5.38013 1.98028 0
M  V30 425 H 33.0613 -5.32373 2.76946 0
M  V30 426 H 34.1313 -3.91331 2.86336 0
M  V30 427 N 35.4744 -0.807222 -1.35358 0
M  V30 428 C 36.8904 -0.491038 -1.51858 0
M  V30 429 C 37.0904 0.987648 -1.75635 0
M  V30 430 O 36.1464 1.77265 -1.79815 0
M  V30 431 C 37.4594 -1.33695 -2.69344 0
M  V30 432 C 39.0074 -1.33246 -2.83222 0
M  V30 433 C 39.4824 -2.1625 -4.03733 0
M  V30 434 N 40.9734 -2.1379 -4.10911 0
M  V30 435 C 41.7084 -2.74772 -5.03277 0
M  V30 436 N 41.2044 -3.44684 -6.0097 0
M  V30 437 N 42.9974 -2.6441 -4.96028 0
M  V30 438 H 35.1484 -1.76485 -1.18181 0
M  V30 439 H 37.4114 -0.751199 -0.578276 0
M  V30 440 H 37.1174 -2.38634 -2.58354 0
M  V30 441 H 36.9914 -0.990618 -3.6396 0
M  V30 442 H 39.3784 -0.290911 -2.93663 0
M  V30 443 H 39.4594 -1.71866 -1.89461 0
M  V30 444 H 39.1034 -3.20445 -3.94052 0
M  V30 445 H 39.0334 -1.74989 -4.96675 0
M  V30 446 H 41.5244 -1.62923 -3.40976 0
M  V30 447 H 41.8374 -3.88501 -6.68047 0
M  V30 448 H 40.1824 -3.48788 -6.01142 0
M  V30 449 H 43.3734 -2.0938 -4.18662 0
M  V30 450 H 43.5464 -3.12225 -5.6782 0
M  V30 451 N 36.9525 1.47285 -0.560781 0
M  V30 452 C 38.1775 2.07359 -0.0410566 0
M  V30 453 C 38.6025 1.41017 1.24483 0
M  V30 454 O 37.9605 0.486368 1.74654 0
M  V30 455 C 38.0085 3.6035 0.134123 0
M  V30 456 O 37.1125 3.94681 1.19587 0
M  V30 457 H 36.4535 0.661887 -0.0529291 0
M  V30 458 H 38.9835 1.89252 -0.777482 0
M  V30 459 H 38.9935 4.0652 0.347207 0
M  V30 460 H 37.6685 4.08034 -0.805047 0
M  V30 461 H 36.2455 3.60251 0.962987 0
M  V30 462 N 38.4306 0.297415 1.54768 0
M  V30 463 C 39.3606 -0.573494 2.26348 0
M  V30 464 C 40.3416 -1.14085 1.26169 0
M  V30 465 O 41.5266 -1.17086 1.54934 0
M  V30 466 C 38.6566 -1.74716 3.00153 0
M  V30 467 C 37.6106 -1.31032 4.07449 0
M  V30 468 C 36.9366 -2.56887 4.68949 0
M  V30 469 C 38.2366 -0.444183 5.20408 0
M  V30 470 H 39.9306 0.0235131 2.99391 0
M  V30 471 H 37.4766 0.0127488 1.43994 0
M  V30 472 H 39.4296 -2.3625 3.48947 0
M  V30 473 H 38.1536 -2.37035 2.24682 0
M  V30 474 H 36.8126 -0.718066 3.59499 0
M  V30 475 H 36.4606 -3.17512 3.90122 0
M  V30 476 H 36.1606 -2.2836 5.41411 0
M  V30 477 H 37.6846 -3.19229 5.20505 0
M  V30 478 H 39.0986 -0.9651 5.65118 0
M  V30 479 H 37.4956 -0.252846 5.99567 0
M  V30 480 H 38.5656 0.531609 4.81977 0
M  V30 481 N 39.9087 -1.5758 0.0250728 0
M  V30 482 C 40.8587 -2.06468 -0.967201 0
M  V30 483 C 41.8427 -0.964376 -1.28797 0
M  V30 484 O 43.0347 -1.22797 -1.27475 0
M  V30 485 C 40.1637 -2.59203 -2.25097 0
M  V30 486 C 39.2497 -3.76157 -1.95874 0
M  V30 487 N 39.6407 -4.86919 -1.36905 0
M  V30 488 C 37.9387 -3.84566 -2.25887 0
M  V30 489 C 38.6397 -5.68172 -1.24724 0
M  V30 490 N 37.6157 -5.14953 -1.74138 0
M  V30 491 H 41.4177 -2.89508 -0.506176 0
M  V30 492 H 38.9317 -1.61399 -0.18004 0
M  V30 493 H 40.9287 -2.92517 -2.97052 0
M  V30 494 H 39.5887 -1.77592 -2.71829 0
M  V30 495 H 40.5997 -5.07256 -1.04459 0
M  V30 496 H 37.2767 -3.13854 -2.75321 0
M  V30 497 H 38.6667 -6.67221 -0.791605 0
M  V30 498 N 41.3868 0.248026 -1.55636 0
M  V30 499 C 42.3168 1.31079 -1.93237 0
M  V30 500 C 43.2978 1.50264 -0.797174 0
M  V30 501 O 44.4828 1.62891 -1.05737 0
M  V30 502 C 41.6128 2.66575 -2.22609 0
M  V30 503 C 40.5668 2.62087 -3.3837 0
M  V30 504 C 39.8928 4.01369 -3.53281 0
M  V30 505 C 41.1928 2.19171 -4.7409 0
M  V30 506 H 42.8868 0.998556 -2.82257 0
M  V30 507 H 40.4328 0.47891 -1.35803 0
M  V30 508 H 42.3858 3.41057 -2.47503 0
M  V30 509 H 41.1098 2.99432 -1.30414 0
M  V30 510 H 39.7688 1.90063 -3.13483 0
M  V30 511 H 39.4168 4.31489 -2.58508 0
M  V30 512 H 39.1168 3.99254 -4.31127 0
M  V30 513 H 40.6408 4.77552 -3.80495 0
M  V30 514 H 42.0548 2.83384 -4.98363 0
M  V30 515 H 40.4518 2.2817 -5.5503 0
M  V30 516 H 41.5218 1.14336 -4.71227 0
M  V30 517 N 42.8649 1.48995 0.513639 0
M  V30 518 C 44.2759 1.5119 1.09537 0
M  V30 519 C 44.6269 0.290906 1.94031 0
M  V30 520 O 43.7519 -0.60049 2.07902 0
M  V30 521 C 44.3469 2.73964 1.99322 0
M  V30 522 C 42.9059 2.78978 2.52682 0
M  V30 523 C 42.0529 2.44934 1.30009 0
M  V30 524 H 45.0039 1.55875 0.298125 0
M  V30 525 H 45.0249 2.53409 2.83838 0
M  V30 526 H 44.5369 3.62813 1.37799 0
M  V30 527 H 42.6379 1.94378 3.1788 0
M  V30 528 H 42.7509 3.8083 2.90698 0
M  V30 529 H 41.1149 1.9644 1.62122 0
M  V30 530 H 41.8979 3.36043 0.702131 0
M  V30 531 N 44.343 -0.763751 1.37857 0
M  V30 532 C 45.754 -1.3405 1.29952 0
M  V30 533 C 46.105 -1.96138 -0.0492898 0
M  V30 534 O 45.23 -1.94372 -0.951239 0
M  V30 535 C 45.825 -2.43729 2.35333 0
M  V30 536 C 44.384 -2.97151 2.31037 0
M  V30 537 C 43.531 -1.70438 2.18738 0
M  V30 538 H 46.482 -0.563396 1.48363 0
M  V30 539 H 46.503 -3.23412 2.00462 0
M  V30 540 H 46.015 -1.9851 3.33489 0
M  V30 541 H 44.116 -3.46724 1.3643 0
M  V30 542 H 44.229 -3.52221 3.24772 0
M  V30 543 H 42.593 -1.93673 1.65418 0
M  V30 544 H 43.376 -1.27312 3.18821 0
M  V30 545 N 45.8211 -1.22559 -0.990812 0
M  V30 546 C 46.7511 -1.0218 -2.09956 0
M  V30 547 C 47.7321 0.0579394 -1.70001 0
M  V30 548 O 48.9171 -0.104684 -1.93918 0
M  V30 549 C 46.0471 -0.601023 -3.4206 0
M  V30 550 C 45.0011 -1.62694 -3.95872 0
M  V30 551 C 44.3271 -1.06193 -5.24049 0
M  V30 552 C 45.6271 -3.01743 -4.2632 0
M  V30 553 H 47.3211 -1.94916 -2.27262 0
M  V30 554 H 44.8671 -0.938566 -1.09211 0
M  V30 555 H 46.8201 -0.445561 -4.19038 0
M  V30 556 H 45.5441 0.362005 -3.24588 0
M  V30 557 H 44.2031 -1.77021 -3.21028 0
M  V30 558 H 43.8511 -0.0901903 -5.02919 0
M  V30 559 H 43.5511 -1.74732 -5.61019 0
M  V30 560 H 45.0751 -0.918092 -6.03658 0
M  V30 561 H 46.4891 -2.90777 -4.94087 0
M  V30 562 H 44.8861 -3.67425 -4.74467 0
M  V30 563 H 45.9561 -3.51518 -3.34011 0
M  V30 564 N 47.2992 1.18797 -1.03562 0
M  V30 565 C 48.2622 2.20464 -0.626769 0
M  V30 566 C 49.2622 1.57721 0.313173 0
M  V30 567 O 50.4522 1.73917 0.0992615 0
M  V30 568 C 47.5842 3.40802 0.0818498 0
M  V30 569 H 48.7772 2.58149 -1.5264 0
M  V30 570 H 46.3302 1.32593 -0.827578 0
M  V30 571 H 47.0652 3.08642 0.995518 0
M  V30 572 H 46.8502 3.8758 -0.593652 0
M  V30 573 H 48.3402 4.16092 0.354584 0
M  V30 574 N 48.7773 0.814389 1.34928 0
M  V30 575 C 50.1883 0.458364 1.80986 0
M  V30 576 C 50.5393 -1.02042 1.67577 0
M  V30 577 O 49.6643 -1.79352 1.21086 0
M  V30 578 C 50.2593 0.825212 3.28597 0
M  V30 579 C 48.8183 0.521677 3.72767 0
M  V30 580 C 47.9653 1.04668 2.56788 0
M  V30 581 H 50.9163 1.00533 1.22795 0
M  V30 582 H 50.9373 0.12571 3.80292 0
M  V30 583 H 50.4493 1.90154 3.38324 0
M  V30 584 H 48.5503 -0.545589 3.68584 0
M  V30 585 H 48.6633 1.05977 4.67232 0
M  V30 586 H 47.0273 0.468622 2.50352 0
M  V30 587 H 47.8103 2.12927 2.6929 0
M  V30 588 N 50.2554 -1.46986 0.568584 0
M  V30 589 C 51.5034 -2.02041 0.0487022 0
M  V30 590 C 51.8244 -1.44408 -1.31039 0
M  V30 591 O 51.0944 -0.623477 -1.85714 0
M  V30 592 H 49.6744 -0.746849 0.015014 0
M  V30 593 H 52.3364 -1.80257 0.741168 0
M  V30 594 H 51.4324 -3.12085 -0.0308961 0
M  V30 595 N 51.7335 -0.305618 -1.54608 0
M  V30 596 C 52.9805 0.302298 -2.00231 0
M  V30 597 C 53.3085 1.5354 -1.19398 0
M  V30 598 O 52.5635 1.93973 -0.259423 0
M  V30 599 C 52.8625 0.698983 -3.50498 0
M  V30 600 C 52.5285 -0.432903 -4.48817 0
M  V30 601 C 51.1905 -0.743622 -4.75419 0
M  V30 602 C 53.5425 -1.19409 -5.07337 0
M  V30 603 C 50.8705 -1.81857 -5.57804 0
M  V30 604 C 53.2225 -2.25899 -5.90891 0
M  V30 605 C 51.8865 -2.57572 -6.15803 0
M  V30 606 H 51.1565 0.110619 -0.732697 0
M  V30 607 H 53.8035 -0.425674 -1.86709 0
M  V30 608 H 52.1085 1.50711 -3.61654 0
M  V30 609 H 53.8055 1.1806 -3.83227 0
M  V30 610 H 50.3955 -0.18063 -4.28219 0
M  V30 611 H 54.5795 -0.967295 -4.86782 0
M  V30 612 H 49.8355 -2.06864 -5.75341 0
M  V30 613 H 54.0095 -2.85335 -6.35261 0
M  V30 614 H 51.6365 -3.40998 -6.7943 0
M  V30 615 N 53.2116 1.57565 -0.0334293 0
M  V30 616 C 54.1416 2.13511 0.945265 0
M  V30 617 C 55.1226 1.05231 1.33643 0
M  V30 618 O 56.3076 1.33084 1.41429 0
M  V30 619 C 53.4376 2.6657 2.22616 0
M  V30 620 C 52.3916 3.79676 1.97561 0
M  V30 621 C 51.7176 4.1918 3.31952 0
M  V30 622 C 53.0176 5.0557 1.31135 0
M  V30 623 H 54.7116 2.95538 0.479325 0
M  V30 624 H 52.2576 1.42166 0.229115 0
M  V30 625 H 54.2106 3.04344 2.91466 0
M  V30 626 H 52.9346 1.8171 2.71384 0
M  V30 627 H 51.5936 3.42347 1.31127 0
M  V30 628 H 51.2416 3.31296 3.78487 0
M  V30 629 H 50.9416 4.95402 3.15992 0
M  V30 630 H 52.4656 4.59541 4.02063 0
M  V30 631 H 53.8796 5.40903 1.89992 0
M  V30 632 H 52.2766 5.86818 1.25559 0
M  V30 633 H 53.3466 4.84062 0.284894 0
M  V30 634 N 54.6897 -0.239769 1.55765 0
M  V30 635 C 55.6397 -1.30002 1.87306 0
M  V30 636 C 56.6237 -1.43156 0.73452 0
M  V30 637 O 57.8157 -1.46277 0.99659 0
M  V30 638 C 54.9447 -2.65409 2.17745 0
M  V30 639 C 54.0307 -2.56231 3.37945 0
M  V30 640 N 54.4217 -2.16689 4.57033 0
M  V30 641 C 52.7197 -2.87229 3.41197 0
M  V30 642 C 53.4207 -2.18318 5.39177 0
M  V30 643 N 52.3967 -2.58098 4.78421 0
M  V30 644 H 56.1987 -0.984912 2.76906 0
M  V30 645 H 53.7127 -0.448381 1.56087 0
M  V30 646 H 55.7097 -3.41934 2.38509 0
M  V30 647 H 54.3697 -2.97781 1.29448 0
M  V30 648 H 55.3807 -1.88116 4.82528 0
M  V30 649 H 52.0577 -3.24094 2.63191 0
M  V30 650 H 53.4477 -1.90025 6.44469 0
M  V30 651 N 56.1678 -1.49265 -0.50573 0
M  V30 652 C 57.0978 -1.68495 -1.61653 0
M  V30 653 C 58.0788 -0.53366 -1.61512 0
M  V30 654 O 59.2638 -0.76897 -1.78327 0
M  V30 655 C 56.3938 -1.74709 -3.00157 0
M  V30 656 C 55.3478 -2.89581 -3.15162 0
M  V30 657 C 54.6738 -2.80903 -4.5497 0
M  V30 658 C 55.9738 -4.30578 -2.95634 0
M  V30 659 H 57.6678 -2.61493 -1.45814 0
M  V30 660 H 55.2138 -1.25838 -0.70005 0
M  V30 661 H 57.1668 -1.86748 -3.77761 0
M  V30 662 H 55.8908 -0.783067 -3.17074 0
M  V30 663 H 54.5498 -2.77136 -2.39982 0
M  V30 664 H 54.1978 -1.82419 -4.68756 0
M  V30 665 H 53.8978 -3.57999 -4.65951 0
M  V30 666 H 55.4218 -2.94944 -5.34641 0
M  V30 667 H 56.8358 -4.4373 -3.63011 0
M  V30 668 H 55.2328 -5.0886 -3.18091 0
M  V30 669 H 56.3028 -4.45352 -1.91806 0
M  V30 670 N 57.6459 0.756429 -1.3826 0
M  V30 671 C 58.5759 1.88374 -1.37976 0
M  V30 672 C 59.5569 1.68311 -0.246082 0
M  V30 673 O 60.7419 1.88944 -0.44874 0
M  V30 674 C 57.8719 3.25864 -1.20125 0
M  V30 675 C 56.8259 3.60523 -2.30666 0
M  V30 676 C 56.1519 4.9672 -1.97923 0
M  V30 677 C 57.4519 3.65692 -3.72916 0
M  V30 678 H 59.1459 1.88869 -2.32312 0
M  V30 679 H 56.6919 0.907272 -1.11824 0
M  V30 680 H 58.6449 4.0438 -1.18552 0
M  V30 681 H 57.3689 3.25841 -0.222498 0
M  V30 682 H 56.0279 2.84324 -2.3142 0
M  V30 683 H 55.6759 4.93253 -0.985393 0
M  V30 684 H 55.3759 5.20878 -2.71955 0
M  V30 685 H 56.8999 5.77618 -1.97964 0
M  V30 686 H 58.3139 4.34328 -3.74208 0
M  V30 687 H 56.7109 4.01358 -4.4613 0
M  V30 688 H 57.7809 2.65987 -4.05436 0
M  V30 689 N 59.124 1.23083 0.984299 0
M  V30 690 C 60.056 0.96636 2.07832 0
M  V30 691 C 61.069 -0.0582135 1.62696 0
M  V30 692 O 62.258 0.176843 1.77622 0
M  V30 693 C 59.358 0.433397 3.36117 0
M  V30 694 C 58.531 1.51722 4.10243 0
M  V30 695 C 57.59 0.989821 5.16807 0
M  V30 696 O 56.616 1.67794 5.43906 0
M  V30 697 N 57.818 -0.184367 5.80207 0
M  V30 698 H 60.583 1.90824 2.31098 0
M  V30 699 H 58.144 1.13888 1.1507 0
M  V30 700 H 60.136 0.065699 4.04647 0
M  V30 701 H 58.706 -0.413806 3.09849 0
M  V30 702 H 57.926 2.05786 3.36223 0
M  V30 703 H 59.214 2.24619 4.56534 0
M  V30 704 H 58.612 -0.760062 5.60571 0
M  V30 705 H 57.169 -0.493366 6.4993 0
M  V30 706 N 60.6021 -1.18246 1.0419 0
M  V30 707 C 62.0131 -1.69914 0.773698 0
M  V30 708 C 62.3641 -1.83085 -0.705297 0
M  V30 709 O 61.4891 -1.51123 -1.5489 0
M  V30 710 C 62.0841 -3.08619 1.39784 0
M  V30 711 C 60.6431 -3.57494 1.17792 0
M  V30 712 C 59.7901 -2.34013 1.48773 0
M  V30 713 H 62.7411 -1.02904 1.20816 0
M  V30 714 H 62.7621 -3.71958 0.801714 0
M  V30 715 H 62.2741 -2.99001 2.47426 0
M  V30 716 H 60.3751 -3.72406 0.120295 0
M  V30 717 H 60.4881 -4.40852 1.87581 0
M  V30 718 H 58.8521 -2.37986 0.907463 0
M  V30 719 H 59.6351 -2.27013 2.57527 0
M  V30 720 N 62.0802 -0.821533 -1.34494 0
M  V30 721 C 63.3572 -0.33159 -1.92769 0
M  V30 722 C 63.7372 1.18088 -1.74981 0
M  V30 723 O 63.0852 1.98733 -1.12772 0
M  V30 724 C 63.2952 -0.759398 -3.40638 0
M  V30 725 C 64.6432 -0.757433 -4.1779 0
M  V30 726 O 65.6672 -0.70189 -3.49216 0
M  V30 727 O 64.5262 -0.829361 -5.4017 0
M  V30 728 H 61.6202 -0.0902502 -0.822061 0
M  V30 729 H 64.1662 -0.906231 -1.43477 0
M  V30 730 H 62.9382 -1.8012 -3.47379 0
M  V30 731 H 62.5612 -0.160378 -3.97276 0
M  V30 732 N 63.5583 1.46682 -0.576371 0
M  V30 733 C 64.4883 2.33028 0.148397 0
M  V30 734 C 65.4693 1.44961 0.889956 0
M  V30 735 O 66.6543 1.73789 0.866662 0
M  V30 736 C 63.7843 3.27117 1.1667 0
M  V30 737 C 62.7383 4.24575 0.540386 0
M  V30 738 C 62.0643 5.08126 1.6647 0
M  V30 739 C 63.3643 5.19722 -0.518331 0
M  V30 740 H 65.0583 2.93875 -0.572509 0
M  V30 741 H 62.6043 1.41315 -0.276768 0
M  V30 742 H 64.5573 3.86374 1.68204 0
M  V30 743 H 63.2813 2.64364 1.9178 0
M  V30 744 H 61.9403 3.66571 0.0461769 0
M  V30 745 H 61.5883 4.41762 2.40531 0
M  V30 746 H 61.2883 5.74122 1.25131 0
M  V30 747 H 62.8123 5.70246 2.18293 0
M  V30 748 H 64.2263 5.73232 -0.0883058 0
M  V30 749 H 62.6233 5.94026 -0.851679 0
M  V30 750 H 63.6933 4.64037 -1.40703 0
M  V30 751 N 65.0364 0.313813 1.54444 0
M  V30 752 C 66.4474 -0.176243 1.85866 0
M  V30 753 C 66.7984 -1.52405 1.23561 0
M  V30 754 O 65.9234 -2.09605 0.538016 0
M  V30 755 C 66.5184 -0.32657 3.37222 0
M  V30 756 C 65.0774 -0.760846 3.6863 0
M  V30 757 C 64.2244 0.123247 2.77026 0
M  V30 758 H 67.1754 0.534418 1.49431 0
M  V30 759 H 67.1964 -1.15908 3.62416 0
M  V30 760 H 66.7084 0.654531 3.82541 0
M  V30 761 H 64.8094 -1.75204 3.28838 0
M  V30 762 H 64.9224 -0.571353 4.75681 0
M  V30 763 H 63.2864 -0.399597 2.51546 0
M  V30 764 H 64.0694 1.10094 3.25168 0
M  V30 765 N 66.5145 -1.57545 0.0417849 0
M  V30 766 C 67.7635 -1.91494 -0.633492 0
M  V30 767 C 68.0765 -0.921084 -1.72556 0
M  V30 768 O 69.2825 -1.15228 -2.45835 0
M  V30 769 C 67.7385 -3.40072 -1.17808 0
M  V30 770 C 67.3465 -4.47843 -0.118633 0
M  V30 771 C 69.0905 -3.8307 -1.82915 0
M  V30 772 C 66.9975 -5.87529 -0.675578 0
M  V30 773 H 65.9275 -0.714653 -0.24039 0
M  V30 774 H 68.5785 -1.83175 0.109148 0
M  V30 775 H 66.9605 -3.43364 -1.97274 0
M  V30 776 H 68.1345 -4.56128 0.654494 0
M  V30 777 H 66.4495 -4.14128 0.434414 0
M  V30 778 H 69.0465 -4.84794 -2.25563 0
M  V30 779 H 69.3895 -3.1881 -2.67705 0
M  V30 780 H 69.9225 -3.82255 -1.10119 0
M  V30 781 H 66.6615 -6.55362 0.134475 0
M  V30 782 H 66.1815 -5.82824 -1.4169 0
M  V30 783 H 67.8605 -6.36491 -1.1614 0
M  V30 784 N 67.9926 0.231505 -1.5589 0
M  V30 785 C 69.2226 0.973092 -1.82248 0
M  V30 786 C 69.6306 1.78845 -0.617328 0
M  V30 787 O 68.9736 1.78752 0.423499 0
M  V30 788 C 69.0356 1.94732 -3.02192 0
M  V30 789 C 68.6996 1.31743 -4.37599 0
M  V30 790 C 69.6966 0.712238 -5.14998 0
M  V30 791 C 67.3816 1.33218 -4.84312 0
M  V30 792 C 69.3756 0.130195 -6.37267 0
M  V30 793 C 67.0626 0.746286 -6.06526 0
M  V30 794 C 68.0606 0.146337 -6.82843 0
M  V30 795 O 67.7486 -0.430465 -8.02747 0
M  V30 796 H 67.4806 0.29125 -0.61004 0
M  V30 797 H 70.0346 0.254915 -2.03812 0
M  V30 798 H 68.2646 2.70422 -2.76422 0
M  V30 799 H 69.9536 2.55362 -3.15508 0
M  V30 800 H 70.7196 0.69324 -4.8002 0
M  V30 801 H 66.5986 1.78854 -4.24891 0
M  V30 802 H 70.1426 -0.33871 -6.96777 0
M  V30 803 H 66.0396 0.762663 -6.40979 0
M  V30 804 H 66.8076 -0.323818 -8.17859 0
M  V30 805 N 69.4707 1.49531 0.497807 0
M  V30 806 C 70.4007 1.6935 1.60757 0
M  V30 807 C 71.3817 0.542218 1.61227 0
M  V30 808 O 72.5667 0.778417 1.77917 0
M  V30 809 C 69.6967 1.76298 2.99226 0
M  V30 810 C 68.6507 2.91248 3.13622 0
M  V30 811 C 67.9767 2.83312 4.53474 0
M  V30 812 C 69.2767 4.3214 2.93346 0
M  V30 813 H 70.9707 2.62263 1.44425 0
M  V30 814 H 68.5167 1.26208 0.693367 0
M  V30 815 H 70.4697 1.88749 3.76765 0
M  V30 816 H 69.1937 0.799871 3.16654 0
M  V30 817 H 67.8527 2.78404 2.38509 0
M  V30 818 H 67.5007 1.84902 4.67782 0
M  V30 819 H 67.2007 3.60465 4.64046 0
M  V30 820 H 68.7247 2.97775 5.33069 0
M  V30 821 H 70.1387 4.45649 3.60652 0
M  V30 822 H 68.5357 5.1054 3.15387 0
M  V30 823 H 69.6057 4.46363 1.89441 0
M  V30 824 N 70.9488 -0.749086 1.3866 0
M  V30 825 C 71.8788 -1.8764 1.38973 0
M  V30 826 C 72.8598 -1.68178 0.255004 0
M  V30 827 O 74.0448 -1.88704 0.458754 0
M  V30 828 C 71.1748 -3.25222 1.21851 0
M  V30 829 C 70.1288 -3.59295 2.32575 0
M  V30 830 C 69.4548 -4.95663 2.00555 0
M  V30 831 C 70.7548 -3.63709 3.7485 0
M  V30 832 H 72.4488 -1.87635 2.3331 0
M  V30 833 H 69.9948 -0.901329 1.12303 0
M  V30 834 H 71.9478 -4.03746 1.20695 0
M  V30 835 H 70.6718 -3.25719 0.239775 0
M  V30 836 H 69.3308 -2.83093 2.32925 0
M  V30 837 H 68.9788 -4.92724 1.01154 0
M  V30 838 H 68.6788 -5.19429 2.74714 0
M  V30 839 H 70.2028 -5.7656 2.01024 0
M  V30 840 H 71.6168 -4.32338 3.76506 0
M  V30 841 H 70.0138 -3.98986 4.48252 0
M  V30 842 H 71.0838 -2.63834 4.06841 0
M  V30 843 N 72.4269 -1.23603 -0.977757 0
M  V30 844 C 73.6749 -1.06759 -1.71601 0
M  V30 845 C 73.9959 0.395929 -1.90938 0
M  V30 846 O 73.2659 1.28356 -1.47992 0
M  V30 847 H 71.8459 -0.392062 -0.635843 0
M  V30 848 H 74.5079 -1.55362 -1.1768 0
M  V30 849 H 73.6039 -1.55763 -2.70452 0
M  V30 850 N 73.905 1.17692 -1.04816 0
M  V30 851 C 74.835 2.23777 -0.666791 0
M  V30 852 C 75.816 1.66796 0.33361 0
M  V30 853 O 77.001 1.93039 0.212042 0
M  V30 854 C 74.131 3.47281 -0.0367933 0
M  V30 855 C 73.085 4.17059 -0.961546 0
M  V30 856 C 72.411 5.34342 -0.195626 0
M  V30 857 C 73.711 4.69713 -2.28402 0
M  V30 858 H 75.405 2.55933 -1.55367 0
M  V30 859 H 72.951 1.23019 -0.748484 0
M  V30 860 H 74.904 4.20706 0.241775 0
M  V30 861 H 73.628 3.14381 0.885004 0
M  V30 862 H 72.287 3.45541 -1.22462 0
M  V30 863 H 71.935 4.97692 0.728816 0
M  V30 864 H 71.635 5.81966 -0.811775 0
M  V30 865 H 73.159 6.10553 0.0757473 0
M  V30 866 H 74.573 5.34794 -2.06563 0
M  V30 867 H 72.97 5.279 -2.8538 0
M  V30 868 H 74.04 3.86726 -2.92525 0
M  V30 869 N 75.3831 0.828654 1.34056 0
M  V30 870 C 76.6111 0.43262 2.02326 0
M  V30 871 C 77.0261 -0.963147 1.62385 0
M  V30 872 O 76.3831 -1.62425 0.832121 0
M  V30 873 C 76.4341 0.53182 3.57567 0
M  V30 874 O 76.1551 1.87258 3.96063 0
M  V30 875 C 77.6561 0.131422 4.43105 0
M  V30 876 H 74.8761 0.172923 0.648335 0
M  V30 877 H 77.4201 1.1184 1.71208 0
M  V30 878 H 75.5751 -0.105938 3.87255 0
M  V30 879 H 75.9891 1.85087 4.90758 0
M  V30 880 H 77.4631 0.251904 5.51425 0
M  V30 881 H 77.9401 -0.925645 4.29335 0
M  V30 882 H 78.5461 0.743207 4.18756 0
M  V30 883 N 76.8612 -1.46375 0.584142 0
M  V30 884 C 77.7932 -2.28443 -0.186119 0
M  V30 885 C 78.8062 -1.38596 -0.854115 0
M  V30 886 O 79.9952 -1.63183 -0.723438 0
M  V30 887 C 77.0952 -3.13671 -1.28311 0
M  V30 888 C 76.2682 -4.31652 -0.706758 0
M  V30 889 C 75.3272 -4.98267 -1.69163 0
M  V30 890 O 74.3532 -5.55815 -1.22712 0
M  V30 891 N 75.5552 -4.95408 -3.02575 0
M  V30 892 H 78.3202 -2.9519 0.517986 0
M  V30 893 H 75.8812 -1.56303 0.42201 0
M  V30 894 H 77.8732 -3.55101 -1.94128 0
M  V30 895 H 76.4432 -2.48989 -1.89005 0
M  V30 896 H 75.6632 -3.93989 0.128908 0
M  V30 897 H 76.9512 -5.07906 -0.301506 0
M  V30 898 H 76.3492 -4.49902 -3.42936 0
M  V30 899 H 74.9062 -5.40774 -3.63877 0
M  V30 900 N 78.3393 -0.321999 -1.54275 0
M  V30 901 C 79.2863 0.544664 -2.24281 0
M  V30 902 C 80.2563 1.1129 -1.23303 0
M  V30 903 O 81.4413 1.15354 -1.51981 0
M  V30 904 C 78.5813 1.70045 -3.00298 0
M  V30 905 C 77.6943 1.16159 -4.1609 0
M  V30 906 C 76.8293 2.28293 -4.79641 0
M  V30 907 C 75.8683 1.71648 -5.8754 0
M  V30 908 N 75.0053 2.77438 -6.44959 0
M  V30 909 H 79.8453 -0.0588907 -2.97942 0
M  V30 910 H 77.3823 -0.0408345 -1.47043 0
M  V30 911 H 79.3403 2.38054 -3.42616 0
M  V30 912 H 77.9703 2.27531 -2.28975 0
M  V30 913 H 77.0223 0.373092 -3.78566 0
M  V30 914 H 78.3343 0.707087 -4.93763 0
M  V30 915 H 77.4883 3.0421 -5.2492 0
M  V30 916 H 76.2273 2.77079 -4.01346 0
M  V30 917 H 75.2323 0.942282 -5.41665 0
M  V30 918 H 76.4573 1.23741 -6.67731 0
M  V30 919 H 74.4033 3.25519 -5.69538 0
M  V30 920 H 74.3203 2.36547 -7.1804 0
M  V30 921 H 75.5883 3.53189 -6.94894 0
M  V30 922 N 79.8174 1.5752 -0.0501392 0
M  V30 923 C 81.0644 1.9265 0.623874 0
M  V30 924 C 81.3924 0.928411 1.70912 0
M  V30 925 O 80.6474 -0.0594525 1.9561 0
M  V30 926 C 80.9464 3.34467 1.25963 0
M  V30 927 C 80.6124 4.49883 0.302689 0
M  V30 928 C 79.2744 4.81184 0.0393636 0
M  V30 929 C 81.6264 5.20002 -0.353205 0
M  V30 930 C 78.9544 5.79951 -0.887308 0
M  V30 931 C 81.3064 6.1976 -1.26806 0
M  V30 932 C 79.9704 6.49491 -1.54007 0
M  V30 933 H 79.2404 0.704957 0.228292 0
M  V30 934 H 81.8874 1.91146 -0.116398 0
M  V30 935 H 80.1924 3.32333 2.07514 0
M  V30 936 H 81.8894 3.58928 1.78806 0
M  V30 937 H 78.4794 4.25457 0.518109 0
M  V30 938 H 82.6634 4.96033 -0.162854 0
M  V30 939 H 77.9194 6.01322 -1.10553 0
M  V30 940 H 82.0934 6.73205 -1.78236 0
M  V30 941 H 79.7204 7.25837 -2.25976 0
M  V30 942 N 81.2955 -0.223234 1.56011 0
M  V30 943 C 82.5435 -0.946003 1.78592 0
M  V30 944 C 82.8645 -1.84936 0.618349 0
M  V30 945 O 82.1345 -1.92473 -0.364833 0
M  V30 946 H 80.7145 -0.352298 0.658707 0
M  V30 947 H 83.3765 -0.235494 1.93472 0
M  V30 948 H 82.4725 -1.55381 2.70672 0
M  V30 949 N 82.7736 -1.49793 -0.48987 0
M  V30 950 C 84.1846 -1.52914 -1.07118 0
M  V30 951 C 84.5356 -0.321738 -1.93544 0
M  V30 952 O 83.6606 0.567338 -2.08831 0
M  V30 953 C 84.2556 -2.771 -1.94938 0
M  V30 954 C 82.8146 -2.82963 -2.48212 0
M  V30 955 C 81.9616 -2.46972 -1.26096 0
M  V30 956 H 84.9126 -1.56329 -0.273289 0
M  V30 957 H 84.9336 -2.57892 -2.79771 0
M  V30 958 H 84.4456 -3.64959 -1.32009 0
M  V30 959 H 82.5466 -1.99411 -3.14748 0
M  V30 960 H 82.6596 -3.85406 -2.84603 0
M  V30 961 H 81.0236 -1.98994 -1.58976 0
M  V30 962 H 81.8066 -3.37118 -0.648581 0
M  V30 963 N 84.2517 0.741722 -1.39055 0
M  V30 964 C 85.5007 1.49656 -1.35225 0
M  V30 965 C 85.8137 1.95533 0.0512708 0
M  V30 966 O 87.0197 2.7067 0.212138 0
M  V30 967 C 85.4757 2.70389 -2.37525 0
M  V30 968 C 85.0837 2.31489 -3.83558 0
M  V30 969 C 86.8277 3.48236 -2.42759 0
M  V30 970 C 84.7347 3.48903 -4.77515 0
M  V30 971 H 83.6647 0.56197 -0.502699 0
M  V30 972 H 86.3157 0.809727 -1.64668 0
M  V30 973 H 84.6977 3.41113 -2.01142 0
M  V30 974 H 85.8717 1.68354 -4.28945 0
M  V30 975 H 84.1867 1.66749 -3.81554 0
M  V30 976 H 86.7837 4.35558 -3.1015 0
M  V30 977 H 87.1267 3.90229 -1.45008 0
M  V30 978 H 87.6597 2.84535 -2.78002 0
M  V30 979 H 84.3987 3.11966 -5.76504 0
M  V30 980 H 83.9187 4.11041 -4.36813 0
M  V30 981 H 85.5977 4.15328 -4.96096 0
M  V30 982 N 85.7298 1.2412 0.971189 0
M  V30 983 C 86.9598 1.10415 1.7462 0
M  V30 984 C 87.3678 -0.346462 1.86001 0
M  V30 985 O 86.7108 -1.25104 1.34517 0
M  V30 986 C 86.7728 1.66596 3.18568 0
M  V30 987 C 86.4368 3.15446 3.3067 0
M  V30 988 C 87.4338 4.12636 3.16271 0
M  V30 989 C 85.1188 3.55337 3.55022 0
M  V30 990 C 87.1128 5.47699 3.26044 0
M  V30 991 C 84.7998 4.90542 3.64434 0
M  V30 992 C 85.7978 5.86532 3.49956 0
M  V30 993 O 85.4858 7.19279 3.59017 0
M  V30 994 H 85.2178 0.386616 0.55453 0
M  V30 995 H 87.7718 1.64633 1.22821 0
M  V30 996 H 86.0018 1.06808 3.71657 0
M  V30 997 H 87.6908 1.48232 3.77865 0
M  V30 998 H 88.4568 3.8316 2.97344 0
M  V30 999 H 84.3358 2.8113 3.65359 0
M  V30 1000 H 87.8798 6.22603 3.14661 0
M  V30 1001 H 83.7768 5.19691 3.82873 0
M  V30 1002 H 84.5448 7.27153 3.75754 0
M  V30 1003 N 87.2079 -1.17134 1.05439 0
M  V30 1004 C 88.6239 -1.39454 0.776201 0
M  V30 1005 C 88.8239 -1.91454 -0.628307 0
M  V30 1006 O 87.8799 -2.10777 -1.39031 0
M  V30 1007 C 89.1929 -2.38305 1.83388 0
M  V30 1008 C 90.7409 -2.52006 1.85639 0
M  V30 1009 C 91.2159 -3.54133 2.90437 0
M  V30 1010 N 92.7069 -3.61653 2.89415 0
M  V30 1011 C 93.4419 -4.4044 3.67152 0
M  V30 1012 N 92.9379 -5.22721 4.54681 0
M  V30 1013 N 94.7309 -4.35337 3.55581 0
M  V30 1014 H 86.8819 -0.817134 1.96053 0
M  V30 1015 H 89.1449 -0.421626 0.849079 0
M  V30 1016 H 88.8509 -2.07173 2.84204 0
M  V30 1017 H 88.7249 -3.37841 1.67761 0
M  V30 1018 H 91.1119 -2.82447 0.85486 0
M  V30 1019 H 91.1929 -1.52537 2.05344 0
M  V30 1020 H 90.8369 -3.24431 3.90777 0
M  V30 1021 H 90.7669 -4.53313 2.67983 0
M  V30 1022 H 93.2579 -3.02909 2.25952 0
M  V30 1023 H 93.5709 -5.80027 5.10674 0
M  V30 1024 H 91.9159 -5.22093 4.58741 0
M  V30 1025 H 95.1069 -3.70112 2.86592 0
M  V30 1026 H 95.2799 -4.96494 4.1641 0
M  V30 1027 N 88.686 -0.835752 -1.33615 0
M  V30 1028 C 89.616 -0.281739 -2.31794 0
M  V30 1029 C 90.597 0.608833 -1.58831 0
M  V30 1030 O 91.782 0.533035 -1.86741 0
M  V30 1031 C 88.912 0.546612 -3.42971 0
M  V30 1032 C 87.866 -0.247904 -4.27281 0
M  V30 1033 C 87.192 0.704001 -5.30045 0
M  V30 1034 C 88.492 -1.46324 -5.01385 0
M  V30 1035 H 90.186 -1.10206 -2.78379 0
M  V30 1036 H 87.732 -0.531388 -1.33837 0
M  V30 1037 H 89.685 0.944467 -4.1068 0
M  V30 1038 H 88.409 1.40011 -2.95067 0
M  V30 1039 H 87.068 -0.627281 -3.61194 0
M  V30 1040 H 86.716 1.55381 -4.78399 0
M  V30 1041 H 86.416 0.176524 -5.87335 0
M  V30 1042 H 87.94 1.09944 -6.0062 0
M  V30 1043 H 89.354 -1.13871 -5.61877 0
M  V30 1044 H 87.751 -1.92728 -5.6831 0
M  V30 1045 H 88.821 -2.23467 -4.30338 0
M  V30 1046 N 90.1641 1.46063 -0.591896 0
M  V30 1047 C 91.1141 2.27458 0.157172 0
M  V30 1048 C 92.0981 1.3641 0.853301 0
M  V30 1049 O 93.2901 1.60517 0.74588 0
M  V30 1050 C 90.4191 3.22956 1.16423 0
M  V30 1051 C 89.5051 4.2149 0.469742 0
M  V30 1052 N 89.8961 5.03519 -0.479839 0
M  V30 1053 C 88.1941 4.40161 0.719319 0
M  V30 1054 C 88.8951 5.74904 -0.886591 0
M  V30 1055 N 87.8711 5.43097 -0.233731 0
M  V30 1056 H 91.6731 2.88272 -0.572392 0
M  V30 1057 H 89.1871 1.57024 -0.414375 0
M  V30 1058 H 91.1841 3.79986 1.71513 0
M  V30 1059 H 89.8441 2.63701 1.89451 0
M  V30 1060 H 90.8551 5.1078 -0.855823 0
M  V30 1061 H 87.5321 3.92046 1.43548 0
M  V30 1062 H 88.9221 6.50844 -1.66888 0
M  V30 1063 N 91.6422 0.330177 1.54103 0
M  V30 1064 C 92.5722 -0.525353 2.27513 0
M  V30 1065 C 93.5532 -1.11383 1.2856 0
M  V30 1066 O 94.7382 -1.13773 1.57383 0
M  V30 1067 C 91.8682 -1.6831 3.03791 0
M  V30 1068 C 90.8222 -1.2236 4.10137 0
M  V30 1069 C 90.1482 -2.46882 4.74293 0
M  V30 1070 C 91.4482 -0.333697 5.21233 0
M  V30 1071 H 93.1422 0.087013 2.99274 0
M  V30 1072 H 90.6882 0.0432893 1.43935 0
M  V30 1073 H 92.6412 -2.28795 3.5388 0
M  V30 1074 H 91.3652 -2.32216 2.29659 0
M  V30 1075 H 90.0242 -0.64165 3.60941 0
M  V30 1076 H 89.6722 -3.09165 3.96769 0
M  V30 1077 H 89.3722 -2.16825 5.46133 0
M  V30 1078 H 90.8962 -3.08117 5.27159 0
M  V30 1079 H 92.3102 -0.845013 5.67038 0
M  V30 1080 H 90.7072 -0.125612 5.99969 0
M  V30 1081 H 91.7772 0.633724 4.80741 0
M  V30 1082 N 93.1203 -1.57491 0.0584922 0
M  V30 1083 C 94.3683 -1.92597 -0.612436 0
M  V30 1084 C 94.6893 -0.938162 -1.70949 0
M  V30 1085 O 93.9593 0.0158301 -1.95894 0
M  V30 1086 H 92.5393 -0.710964 -0.229214 0
M  V30 1087 H 95.2013 -1.94571 0.113218 0
M  V30 1088 H 94.2973 -2.94038 -1.04633 0
M  V30 1089 N 94.5984 0.214957 -1.56127 0
M  V30 1090 C 95.5284 1.2695 -1.95974 0
M  V30 1091 C 96.5094 1.48539 -0.828868 0
M  V30 1092 O 97.6944 1.60611 -1.09168 0
M  V30 1093 C 94.8244 2.61794 -2.28214 0
M  V30 1094 C 93.7784 2.54851 -3.43853 0
M  V30 1095 C 93.1044 3.93785 -3.61715 0
M  V30 1096 C 94.4044 2.09065 -4.78632 0
M  V30 1097 H 96.0984 0.93846 -2.84312 0
M  V30 1098 H 93.6444 0.449996 -1.36788 0
M  V30 1099 H 95.5974 3.35731 -2.54682 0
M  V30 1100 H 94.3214 2.96599 -1.36736 0
M  V30 1101 H 92.9804 1.8337 -3.17444 0
M  V30 1102 H 92.6284 4.25908 -2.67602 0
M  V30 1103 H 92.3284 3.90019 -4.39498 0
M  V30 1104 H 93.8524 4.69374 -3.90539 0
M  V30 1105 H 95.2664 2.7275 -5.04262 0
M  V30 1106 H 93.6634 2.16346 -5.59745 0
M  V30 1107 H 94.7334 1.04315 -4.73547 0
M  V30 1108 N 96.0765 1.50051 0.48192 0
M  V30 1109 C 97.0085 1.64263 1.59844 0
M  V30 1110 C 98.0215 0.52451 1.54119 0
M  V30 1111 O 99.2105 0.797293 1.59704 0
M  V30 1112 C 96.3105 1.60102 2.98698 0
M  V30 1113 C 95.4835 2.87767 3.29407 0
M  V30 1114 C 94.5425 2.76397 4.47762 0
M  V30 1115 O 93.5685 3.50348 4.48603 0
M  V30 1116 N 94.7705 1.89222 5.48794 0
M  V30 1117 H 97.5355 2.60566 1.48073 0
M  V30 1118 H 95.0965 1.47379 0.670149 0
M  V30 1119 H 97.0885 1.50123 3.75826 0
M  V30 1120 H 95.6585 0.715798 3.04294 0
M  V30 1121 H 94.8785 3.11954 2.40994 0
M  V30 1122 H 96.1665 3.72365 3.4673 0
M  V30 1123 H 95.5645 1.28434 5.50928 0
M  V30 1124 H 94.1215 1.85154 6.24949 0
M  V30 1125 N 97.5546 -0.734337 1.39446 0
M  V30 1126 C 98.8316 -1.48579 1.27215 0
M  V30 1127 C 99.2116 -2.1077 -0.117968 0
M  V30 1128 O 98.5596 -1.98646 -1.12924 0
M  V30 1129 C 98.7696 -2.53667 2.39696 0
M  V30 1130 C 100.118 -3.20031 2.79044 0
M  V30 1131 O 101.142 -2.6398 2.39151 0
M  V30 1132 O 100.001 -4.21455 3.47905 0
M  V30 1133 H 97.0946 -0.659816 0.49857 0
M  V30 1134 H 99.6406 -0.768106 1.51322 0
M  V30 1135 H 98.4126 -2.06096 3.32626 0
M  V30 1136 H 98.0356 -3.32994 2.17258 0
M  V30 1137 N 99.0327 -1.24633 -0.964593 0
M  V30 1138 C 100.279 -1.08949 -1.71049 0
M  V30 1139 C 100.612 0.370302 -1.90637 0
M  V30 1140 O 99.8867 1.27349 -1.47011 0
M  V30 1141 C 100.17 -1.83329 -3.0994 0
M  V30 1142 C 100.023 -3.37077 -2.97824 0
M  V30 1143 C 101.342 -1.60846 -4.09654 0
M  V30 1144 H 98.4607 -0.397178 -0.620821 0
M  V30 1145 H 101.103 -1.5334 -1.12191 0
M  V30 1146 H 99.2527 -1.45597 -3.60186 0
M  V30 1147 H 100.925 -3.84425 -2.5498 0
M  V30 1148 H 99.1677 -3.65298 -2.33965 0
M  V30 1149 H 99.8387 -3.84324 -3.96231 0
M  V30 1150 H 102.315 -1.93674 -3.68279 0
M  V30 1151 H 101.191 -2.1534 -5.04896 0
M  V30 1152 H 101.452 -0.547434 -4.38698 0
M  V30 1153 N 100.511 1.16574 -1.06058 0
M  V30 1154 C 101.757 1.87324 -0.777022 0
M  V30 1155 C 102.09 1.81351 0.694645 0
M  V30 1156 O 101.365 1.22753 1.50871 0
M  V30 1157 C 101.648 3.36991 -1.26922 0
M  V30 1158 C 101.501 3.51667 -2.80447 0
M  V30 1159 C 102.82 4.3131 -0.87521 0
M  V30 1160 H 99.9388 0.680191 -0.28374 0
M  V30 1161 H 102.581 1.37036 -1.3161 0
M  V30 1162 H 100.731 3.79949 -0.81063 0
M  V30 1163 H 102.403 3.17664 -3.34495 0
M  V30 1164 H 100.646 2.93656 -3.19294 0
M  V30 1165 H 101.317 4.56766 -3.0995 0
M  V30 1166 H 103.793 3.9624 -1.27014 0
M  V30 1167 H 102.669 5.34545 -1.2471 0
M  V30 1168 H 102.93 4.41552 0.220071 0
M  V30 1169 N 101.989 0.842826 1.3317 0
M  V30 1170 C 103.235 0.441099 1.97945 0
M  V30 1171 C 103.568 -0.998024 1.66593 0
M  V30 1172 O 102.843 -1.69839 0.947898 0
M  V30 1173 C 103.126 0.666841 3.53872 0
M  V30 1174 C 102.979 2.15352 3.94897 0
M  V30 1175 C 104.298 0.115544 4.39948 0
M  V30 1176 H 101.417 0.161739 0.719034 0
M  V30 1177 H 104.059 1.05907 1.57746 0
M  V30 1178 H 102.209 0.140828 3.88245 0
M  V30 1179 H 103.881 2.7447 3.70761 0
M  V30 1180 H 102.124 2.63653 3.44484 0
M  V30 1181 H 102.795 2.26221 5.03516 0
M  V30 1182 H 105.271 0.565213 4.12243 0
M  V30 1183 H 104.147 0.303152 5.48062 0
M  V30 1184 H 104.408 -0.980935 4.3108 0
M  V30 1185 N 103.467 -1.45747 0.599634 0
M  V30 1186 C 104.397 -2.33235 -0.111306 0
M  V30 1187 C 105.378 -1.46359 -0.866781 0
M  V30 1188 O 106.563 -1.75146 -0.838904 0
M  V30 1189 C 103.693 -3.28932 -1.11451 0
M  V30 1190 C 102.647 -4.25381 -0.472772 0
M  V30 1191 C 101.973 -5.1071 -1.58365 0
M  V30 1192 C 103.273 -5.18831 0.600948 0
M  V30 1193 H 104.967 -2.92927 0.61919 0
M  V30 1194 H 102.513 -1.40857 0.299215 0
M  V30 1195 H 104.466 -3.89002 -1.62036 0
M  V30 1196 H 103.19 -2.67381 -1.8755 0
M  V30 1197 H 101.849 -3.66598 0.0121472 0
M  V30 1198 H 101.497 -4.45533 -2.33473 0
M  V30 1199 H 101.197 -5.7604 -1.15982 0
M  V30 1200 H 102.721 -5.73647 -2.09194 0
M  V30 1201 H 104.135 -5.73019 0.179491 0
M  V30 1202 H 102.532 -5.92595 0.946076 0
M  V30 1203 H 103.602 -4.6174 1.48068 0
M  V30 1204 N 104.945 -0.338344 -1.53925 0
M  V30 1205 C 105.893 0.536231 -2.26335 0
M  V30 1206 C 106.887 1.1063 -1.28286 0
M  V30 1207 O 108.093 1.05264 -1.46012 0
M  V30 1208 H 104.468 0.191602 -0.727181 0
M  V30 1209 H 106.439 -0.0965747 -2.98244 0
M  V30 1210 C 105.188 1.67803 -3.04528 0
M  V30 1211 H 104.511 1.24864 -3.79801 0
M  V30 1212 H 105.951 2.26526 -3.58416 0
M  V30 1213 C 104.41 2.60439 -2.13712 0
M  V30 1214 O 104.94 3.6255 -1.72975 0
M  V30 1215 N 103.146 2.29006 -1.78898 0
M  V30 1216 H 102.693 1.46011 -2.12223 0
M  V30 1217 H 102.651 2.91248 -1.18416 0
M  V30 1218 N 106.423 1.57458 -0.0668435 0
M  V30 1219 C 107.648 1.9804 0.616027 0
M  V30 1220 C 108.073 0.944771 1.62652 0
M  V30 1221 O 107.431 -0.0902094 1.81075 0
M  V30 1222 C 107.479 3.37665 1.26549 0
M  V30 1223 O 106.583 3.36701 2.38131 0
M  V30 1224 H 105.924 0.644719 0.158849 0
M  V30 1225 H 108.454 2.04121 -0.139891 0
M  V30 1226 H 108.464 3.7474 1.6135 0
M  V30 1227 H 107.139 4.12573 0.525016 0
M  V30 1228 H 105.716 3.1139 2.0516 0
M  V30 1229 N 107.901 -0.206675 1.56239 0
M  V30 1230 C 108.848 -1.25617 1.93621 0
M  V30 1231 C 109.818 -1.45824 0.795274 0
M  V30 1232 O 111.003 -1.59148 1.05245 0
M  V30 1233 C 108.143 -2.59839 2.27107 0
M  V30 1234 C 107.256 -2.47308 3.54207 0
M  V30 1235 C 106.391 -3.74155 3.7707 0
M  V30 1236 C 105.43 -3.56407 4.97635 0
M  V30 1237 N 104.567 -4.75238 5.1681 0
M  V30 1238 H 109.407 -0.930383 2.83104 0
M  V30 1239 H 106.944 -0.448065 1.4011 0
M  V30 1240 H 108.902 -3.38021 2.44535 0
M  V30 1241 H 107.532 -2.90485 1.40778 0
M  V30 1242 H 106.584 -1.60483 3.4489 0
M  V30 1243 H 107.896 -2.30122 4.42544 0
M  V30 1244 H 107.05 -4.60778 3.94675 0
M  V30 1245 H 105.789 -3.94282 2.87042 0
M  V30 1246 H 104.794 -2.68168 4.79964 0
M  V30 1247 H 106.019 -3.37736 5.89161 0
M  V30 1248 H 103.965 -4.95651 4.29728 0
M  V30 1249 H 103.882 -4.60835 5.99306 0
M  V30 1250 H 105.15 -5.63246 5.38864 0
M  V30 1251 N 109.379 -1.50304 -0.473955 0
M  V30 1252 C 110.795 -1.37667 -0.807466 0
M  V30 1253 C 110.995 -0.430555 -1.96846 0
M  V30 1254 O 110.051 0.127874 -2.52176 0
M  V30 1255 C 111.364 -2.78974 -1.12223 0
M  V30 1256 C 112.912 -2.87868 -1.22885 0
M  V30 1257 C 113.387 -4.30003 -1.57676 0
M  V30 1258 N 114.878 -4.3294 -1.64673 0
M  V30 1259 C 115.613 -5.3991 -1.93091 0
M  V30 1260 N 115.109 -6.57092 -2.1955 0
M  V30 1261 N 116.902 -5.27351 -1.94569 0
M  V30 1262 H 109.053 -2.10394 0.291212 0
M  V30 1263 H 111.316 -0.945575 0.0677609 0
M  V30 1264 H 111.022 -3.50031 -0.342229 0
M  V30 1265 H 110.896 -3.16038 -2.05913 0
M  V30 1266 H 113.283 -2.17032 -1.99953 0
M  V30 1267 H 113.364 -2.54352 -0.271814 0
M  V30 1268 H 113.008 -5.01375 -0.81149 0
M  V30 1269 H 112.938 -4.61004 -2.54525 0
M  V30 1270 H 115.429 -3.48441 -1.46277 0
M  V30 1271 H 115.742 -7.34425 -2.405 0
M  V30 1272 H 114.087 -6.60272 -2.16948 0
M  V30 1273 H 117.278 -4.34801 -1.73394 0
M  V30 1274 H 117.451 -6.10805 -2.16381 0
M  V30 1275 N 110.857 0.726932 -1.39834 0
M  V30 1276 C 112.085 1.51613 -1.40787 0
M  V30 1277 C 112.5 1.88799 -0.00451505 0
M  V30 1278 O 111.857 1.54662 0.968809 0
M  V30 1279 C 111.908 2.79863 -2.28821 0
M  V30 1280 O 111.629 2.44253 -3.63692 0
M  V30 1281 C 113.13 3.73837 -2.38245 0
M  V30 1282 H 110.35 0.468264 -0.480593 0
M  V30 1283 H 112.894 0.897607 -1.83748 0
M  V30 1284 H 111.049 3.38027 -1.89252 0
M  V30 1285 H 111.463 3.26695 -4.1033 0
M  V30 1286 H 112.937 4.60699 -3.04073 0
M  V30 1287 H 113.414 4.16153 -1.40403 0
M  V30 1288 H 114.02 3.21589 -2.78317 0
M  V30 1289 N 112.336 1.25143 0.95797 0
M  V30 1290 C 113.585 1.0909 1.69654 0
M  V30 1291 C 113.898 -0.368548 1.92097 0
M  V30 1292 O 115.104 -0.649455 2.63618 0
M  V30 1293 C 113.56 1.90395 3.05414 0
M  V30 1294 C 113.168 3.4081 2.90779 0
M  V30 1295 C 114.912 1.82901 3.83076 0
M  V30 1296 C 112.819 4.14423 4.21909 0
M  V30 1297 H 111.749 0.404625 0.636235 0
M  V30 1298 H 114.4 1.4931 1.06672 0
M  V30 1299 H 112.782 1.42996 3.69281 0
M  V30 1300 H 113.956 3.95859 2.35865 0
M  V30 1301 H 112.271 3.49361 2.26575 0
M  V30 1302 H 114.868 2.35196 4.80195 0
M  V30 1303 H 115.211 0.796224 4.08615 0
M  V30 1304 H 115.744 2.28033 3.25954 0
M  V30 1305 H 112.483 5.18102 4.01561 0
M  V30 1306 H 112.003 3.64159 4.76601 0
M  V30 1307 H 113.682 4.21956 4.90471 0
M  V30 1308 N 113.814 -1.1601 1.06675 0
M  V30 1309 C 114.724 -2.24156 0.692179 0
M  V30 1310 C 115.74 -1.71507 -0.293513 0
M  V30 1311 O 116.916 -2.009 -0.141861 0
M  V30 1312 C 113.981 -3.46587 0.0884131 0
M  V30 1313 C 113.042 -4.14257 1.12646 0
M  V30 1314 C 112.275 -5.30844 0.551416 0
M  V30 1315 O 112.498 -5.66858 -0.634656 0
M  V30 1316 O 111.432 -5.87848 1.29298 0
M  V30 1317 H 115.258 -2.58513 1.59388 0
M  V30 1318 H 112.843 -1.23599 0.83926 0
M  V30 1319 H 114.725 -4.20679 -0.246361 0
M  V30 1320 H 113.4 -3.13994 -0.786712 0
M  V30 1321 H 112.307 -3.42118 1.51348 0
M  V30 1322 H 113.64 -4.50914 1.97325 0
M  V30 1323 N 115.292 -0.849877 -1.32721 0
M  V30 1324 C 116.202 -0.293791 -2.32753 0
M  V30 1325 C 117.218 0.585906 -1.63839 0
M  V30 1326 O 118.394 0.487413 -1.95413 0
M  V30 1327 C 115.459 0.512752 -3.42887 0
M  V30 1328 C 114.52 -0.39252 -4.27502 0
M  V30 1329 C 113.753 0.375625 -5.32377 0
M  V30 1330 O 113.976 1.60613 -5.4732 0
M  V30 1331 O 112.91 -0.256094 -6.01355 0
M  V30 1332 H 116.736 -1.12242 -2.82197 0
M  V30 1333 H 114.321 -0.612685 -1.36259 0
M  V30 1334 H 116.203 0.970704 -4.10067 0
M  V30 1335 H 114.878 1.31826 -2.95641 0
M  V30 1336 H 113.785 -0.898547 -3.63149 0
M  V30 1337 H 115.118 -1.16309 -4.7826 0
M  V30 1338 N 116.77 1.45427 -0.607355 0
M  V30 1339 C 117.733 2.28974 0.101693 0
M  V30 1340 C 118.733 1.39754 0.795329 0
M  V30 1341 O 119.923 1.61878 0.643527 0
M  V30 1342 C 117.055 3.20768 1.15414 0
M  V30 1343 H 118.248 2.93147 -0.632844 0
M  V30 1344 H 115.801 1.51945 -0.366391 0
M  V30 1345 H 116.536 2.61395 1.91945 0
M  V30 1346 H 116.321 3.86489 0.66098 0
M  V30 1347 H 117.811 3.83589 1.65073 0
M  V30 1348 N 118.248 0.346503 1.53744 0
M  V30 1349 C 119.181 -0.552023 2.21423 0
M  V30 1350 C 120.159 -1.09798 1.19929 0
M  V30 1351 O 121.343 -1.1577 1.4876 0
M  V30 1352 C 118.47 -1.75972 2.89398 0
M  V30 1353 C 117.516 -1.34295 4.04805 0
M  V30 1354 S 118.349 -0.360263 5.34287 0
M  V30 1355 C 119.505 -1.57473 6.05767 0
M  V30 1356 H 119.738 0.0228119 2.97291 0
M  V30 1357 H 117.271 0.130579 1.53847 0
M  V30 1358 H 119.229 -2.45256 3.2918 0
M  V30 1359 H 117.89 -2.30578 2.1329 0
M  V30 1360 H 117.083 -2.24349 4.51313 0
M  V30 1361 H 116.685 -0.729555 3.66815 0
M  V30 1362 H 118.977 -2.50875 6.29339 0
M  V30 1363 H 119.92 -1.15138 6.98676 0
M  V30 1364 H 120.328 -1.77212 5.35963 0
M  V30 1365 N 119.726 -1.57421 0.075193 0
M  V30 1366 C 120.972 -1.93905 -0.594025 0
M  V30 1367 C 121.305 -0.955701 -1.69056 0
M  V30 1368 O 120.58 0.0145373 -1.94495 0
M  V30 1369 C 120.863 -3.40638 -1.1678 0
M  V30 1370 C 120.716 -4.49733 -0.0776792 0
M  V30 1371 C 122.035 -3.88259 -2.07228 0
M  V30 1372 H 119.154 -0.705105 -0.214466 0
M  V30 1373 H 121.796 -1.8947 0.141854 0
M  V30 1374 H 119.946 -3.44549 -1.79494 0
M  V30 1375 H 121.618 -4.57942 0.555573 0
M  V30 1376 H 119.861 -4.29751 0.591286 0
M  V30 1377 H 120.532 -5.49549 -0.519603 0
M  V30 1378 H 123.008 -3.86376 -1.54445 0
M  V30 1379 H 121.884 -4.91533 -2.44308 0
M  V30 1380 H 122.145 -3.26396 -2.98191 0
M  V30 1381 N 121.204 0.198386 -1.56346 0
M  V30 1382 C 122.151 1.24589 -1.94284 0
M  V30 1383 C 123.121 1.454 -0.802997 0
M  V30 1384 O 124.306 1.58588 -1.06087 0
M  V30 1385 C 121.446 2.58631 -2.28482 0
M  V30 1386 C 120.559 2.45426 -3.55514 0
M  V30 1387 C 119.694 3.7215 -3.79049 0
M  V30 1388 C 118.733 3.53763 -4.99518 0
M  V30 1389 N 117.87 4.72491 -5.19323 0
M  V30 1390 H 122.71 0.915356 -2.83593 0
M  V30 1391 H 120.247 0.440629 -1.40346 0
M  V30 1392 H 122.205 3.3672 -2.46324 0
M  V30 1393 H 120.835 2.89734 -1.42317 0
M  V30 1394 H 119.887 1.58652 -3.45737 0
M  V30 1395 H 121.199 2.27772 -4.43758 0
M  V30 1396 H 120.353 4.58679 -3.97113 0
M  V30 1397 H 119.092 3.92754 -2.89129 0
M  V30 1398 H 118.097 2.65619 -4.8138 0
M  V30 1399 H 119.322 3.34607 -5.90944 0
M  V30 1400 H 117.268 4.93365 -4.3235 0
M  V30 1401 H 117.185 4.5765 -6.01741 0
M  V30 1402 H 118.453 5.6038 -5.41843 0
M  V30 1403 N 122.682 1.50554 0.465978 0
M  V30 1404 C 123.629 1.6979 1.56333 0
M  V30 1405 C 124.599 0.539239 1.57103 0
M  V30 1406 O 125.784 0.770401 1.74555 0
M  V30 1407 C 122.924 1.80273 2.94271 0
M  V30 1408 C 122.037 3.07674 3.0325 0
M  V30 1409 C 121.172 3.08922 4.32135 0
M  V30 1410 C 120.211 4.30755 4.34875 0
M  V30 1411 N 119.348 4.29714 5.55239 0
M  V30 1412 H 124.188 2.63472 1.39235 0
M  V30 1413 H 121.725 1.30602 0.676873 0
M  V30 1414 H 123.683 1.84332 3.74269 0
M  V30 1415 H 122.313 0.900258 3.09992 0
M  V30 1416 H 121.365 3.13062 2.16094 0
M  V30 1417 H 122.677 3.97642 3.01135 0
M  V30 1418 H 121.831 3.11738 5.20485 0
M  V30 1419 H 120.57 2.16792 4.36866 0
M  V30 1420 H 119.575 4.28146 3.44922 0
M  V30 1421 H 120.8 5.24117 4.31831 0
M  V30 1422 H 118.746 3.4044 5.60746 0
M  V30 1423 H 118.663 5.13456 5.54886 0
M  V30 1424 H 119.931 4.36683 6.457 0
M  V30 1425 N 124.16 -0.719506 1.40217 0
M  V30 1426 C 125.406 -1.48034 1.39491 0
M  V30 1427 C 125.761 -1.92399 -0.00443536 0
M  V30 1428 O 125.054 -1.64993 -0.974061 0
M  V30 1429 C 125.248 -2.72271 2.31524 0
M  V30 1430 C 125.077 -2.40055 3.80268 0
M  V30 1431 C 123.847 -2.31588 4.49105 0
M  V30 1432 C 126.045 -2.04581 4.71859 0
M  V30 1433 N 124.027 -1.92006 5.83101 0
M  V30 1434 C 125.398 -1.75568 5.94623 0
M  V30 1435 C 127.453 -1.91183 4.59732 0
M  V30 1436 C 126.156 -1.34505 7.06612 0
M  V30 1437 C 128.182 -1.51524 5.71659 0
M  V30 1438 C 127.544 -1.23406 6.93506 0
M  V30 1439 H 123.643 -0.539927 0.565688 0
M  V30 1440 H 126.227 -0.834764 1.75897 0
M  V30 1441 H 124.398 -3.34584 1.97251 0
M  V30 1442 H 126.13 -3.38584 2.21682 0
M  V30 1443 H 122.885 -2.49199 4.02737 0
M  V30 1444 H 123.309 -1.74764 6.54054 0
M  V30 1445 H 127.951 -2.11584 3.66049 0
M  V30 1446 H 125.669 -1.12846 8.00182 0
M  V30 1447 H 129.255 -1.41741 5.6427 0
M  V30 1448 H 128.135 -0.931788 7.78645 0
M  V30 1449 N 125.638 -1.25649 -0.95132 0
M  V30 1450 C 126.601 -1.06399 -2.03007 0
M  V30 1451 C 127.601 -0.0156794 -1.60792 0
M  V30 1452 O 128.791 -0.25817 -1.72276 0
M  V30 1453 C 125.923 -0.616184 -3.35285 0
M  V30 1454 H 127.116 -2.02164 -2.21517 0
M  V30 1455 H 124.669 -1.08103 -1.12887 0
M  V30 1456 H 125.404 0.343917 -3.22471 0
M  V30 1457 H 125.189 -1.37301 -3.67275 0
M  V30 1458 H 126.679 -0.503032 -4.14559 0
M  V30 1459 N 127.117 1.15442 -1.07289 0
M  V30 1460 C 128.394 1.82306 -0.708792 0
M  V30 1461 C 128.774 1.94991 0.808807 0
M  V30 1462 O 128.122 1.50085 1.72298 0
M  V30 1463 C 128.332 3.18695 -1.42247 0
M  V30 1464 C 129.68 3.94341 -1.57417 0
M  V30 1465 O 130.704 3.28247 -1.38319 0
M  V30 1466 O 129.563 5.12839 -1.88834 0
M  V30 1467 H 126.657 0.787628 -0.252132 0
M  V30 1468 H 129.203 1.22559 -1.17377 0
M  V30 1469 H 127.975 3.04557 -2.45684 0
M  V30 1470 H 127.598 3.86128 -0.948223 0
M  V30 1471 N 128.595 0.856903 1.32268 0
M  V30 1472 C 129.842 0.461386 1.97174 0
M  V30 1473 C 130.17 -0.983491 1.67803 0
M  V30 1474 O 129.425 -1.70541 0.959903 0
M  V30 1475 C 129.724 0.649919 3.51441 0
M  V30 1476 C 129.39 2.0656 4.00804 0
M  V30 1477 C 128.052 2.45279 4.13995 0
M  V30 1478 C 130.404 2.98947 4.26943 0
M  V30 1479 C 127.732 3.75653 4.50668 0
M  V30 1480 C 130.084 4.28822 4.65075 0
M  V30 1481 C 128.748 4.67472 4.76472 0
M  V30 1482 H 128.018 0.168833 0.72151 0
M  V30 1483 H 130.665 1.08739 1.57633 0
M  V30 1484 H 128.97 -0.0593018 3.91755 0
M  V30 1485 H 130.667 0.32391 3.9969 0
M  V30 1486 H 127.257 1.75495 3.91024 0
M  V30 1487 H 131.441 2.70265 4.16258 0
M  V30 1488 H 126.697 4.05379 4.57688 0
M  V30 1489 H 130.871 5.0047 4.84255 0
M  V30 1490 H 128.498 5.68539 5.04646 0
M  V30 1491 N 130.073 -1.45103 0.615059 0
M  V30 1492 C 131.036 -2.29025 -0.0895485 0
M  V30 1493 C 132.036 -1.40174 -0.787906 0
M  V30 1494 O 133.226 -1.62217 -0.634933 0
M  V30 1495 C 130.358 -3.21376 -1.13711 0
M  V30 1496 H 131.551 -2.92807 0.648382 0
M  V30 1497 H 129.104 -1.51749 0.374444 0
M  V30 1498 H 129.839 -2.6241 -1.90556 0
M  V30 1499 H 129.624 -3.86834 -0.640475 0
M  V30 1500 H 131.114 -3.84459 -1.63036 0
M  V30 1501 N 131.551 -0.354651 -1.53558 0
M  V30 1502 C 132.799 0.237972 -2.00694 0
M  V30 1503 C 133.12 1.50173 -1.24391 0
M  V30 1504 O 132.39 1.92673 -0.354135 0
M  V30 1505 H 130.97 0.0909256 -0.741446 0
M  V30 1506 H 133.632 -0.478368 -1.88938 0
M  V30 1507 H 132.728 0.47264 -3.085 0
M  V30 1508 N 133.029 1.57378 -0.0835403 0
M  V30 1509 C 134.445 1.57246 0.273109 0
M  V30 1510 C 134.645 1.09385 1.69225 0
M  V30 1511 O 133.701 0.765051 2.40631 0
M  V30 1512 C 135.014 3.00614 0.0720628 0
M  V30 1513 C 136.562 3.12684 0.1407 0
M  V30 1514 C 137.037 4.57989 -0.0322094 0
M  V30 1515 N 138.528 4.63194 0.0230085 0
M  V30 1516 C 139.263 5.73335 -0.0861941 0
M  V30 1517 N 138.759 6.9235 -0.24958 0
M  V30 1518 N 140.552 5.62093 -0.0282886 0
M  V30 1519 H 132.703 1.86801 -1.0109 0
M  V30 1520 H 134.966 0.861687 -0.395222 0
M  V30 1521 H 134.672 3.39786 -0.907662 0
M  V30 1522 H 134.546 3.68193 0.81936 0
M  V30 1523 H 136.933 2.73391 1.11092 0
M  V30 1524 H 137.014 2.47719 -0.637896 0
M  V30 1525 H 136.658 4.97973 -0.999247 0
M  V30 1526 H 136.588 5.21 0.765937 0
M  V30 1527 H 139.079 3.77613 0.14722 0
M  V30 1528 H 139.392 7.72117 -0.324733 0
M  V30 1529 H 137.737 6.94415 -0.285097 0
M  V30 1530 H 140.928 4.67997 0.0981408 0
M  V30 1531 H 141.101 6.47895 -0.116845 0
M  V30 1532 N 134.507 -0.190092 1.56449 0
M  V30 1533 C 135.918 -0.754312 1.70784 0
M  V30 1534 C 136.269 -1.83631 0.690951 0
M  V30 1535 O 135.394 -2.15868 -0.151604 0
M  V30 1536 C 135.989 -1.37503 3.09642 0
M  V30 1537 C 134.548 -1.88628 3.25725 0
M  V30 1538 C 133.695 -0.758098 2.66736 0
M  V30 1539 H 136.646 0.0350524 1.58661 0
M  V30 1540 H 136.667 -2.2445 3.0725 0
M  V30 1541 H 136.179 -0.587302 3.83631 0
M  V30 1542 H 134.28 -2.70103 2.56661 0
M  V30 1543 H 134.393 -2.04462 4.3328 0
M  V30 1544 H 132.757 -1.17369 2.26046 0
M  V30 1545 H 133.54 0.0174705 3.43296 0
M  V30 1546 N 135.985 -1.50799 -0.457987 0
M  V30 1547 C 136.895 -1.73426 -1.57989 0
M  V30 1548 C 137.911 -0.617745 -1.62665 0
M  V30 1549 O 139.087 -0.897614 -1.80291 0
M  V30 1550 C 136.152 -1.83557 -2.94122 0
M  V30 1551 C 135.213 -3.07345 -2.99729 0
M  V30 1552 C 134.446 -3.16983 -4.29368 0
M  V30 1553 O 134.669 -2.33077 -5.20607 0
M  V30 1554 O 133.603 -4.09812 -4.40837 0
M  V30 1555 H 137.429 -2.68555 -1.41817 0
M  V30 1556 H 135.014 -1.35052 -0.638859 0
M  V30 1557 H 136.896 -1.92326 -3.74952 0
M  V30 1558 H 135.571 -0.916137 -3.10465 0
M  V30 1559 H 134.478 -3.04068 -2.1793 0
M  V30 1560 H 135.811 -3.9891 -2.88326 0
M  V30 1561 N 137.463 0.71206 -1.40597 0
M  V30 1562 C 138.874 1.29135 -1.34837 0
M  V30 1563 C 139.225 1.96186 -0.0235395 0
M  V30 1564 O 138.35 1.97768 0.878444 0
M  V30 1565 C 138.945 2.34827 -2.44217 0
M  V30 1566 C 137.504 2.88371 -2.41907 0
M  V30 1567 C 136.651 1.62202 -2.24913 0
M  V30 1568 H 139.602 0.507944 -1.50352 0
M  V30 1569 H 139.623 3.15749 -2.12327 0
M  V30 1570 H 139.135 1.85996 -3.40627 0
M  V30 1571 H 137.236 3.41422 -1.49204 0
M  V30 1572 H 137.349 3.39925 -3.37621 0
M  V30 1573 H 135.713 1.874 -1.72492 0
M  V30 1574 H 136.496 1.15391 -3.23326 0
M  V30 1575 N 138.941 1.26152 0.944643 0
M  V30 1576 C 139.871 1.09902 2.06019 0
M  V30 1577 C 140.852 0.00519538 1.70099 0
M  V30 1578 O 142.037 0.176583 1.93396 0
M  V30 1579 C 139.167 0.727562 3.39594 0
M  V30 1580 C 138.121 1.77274 3.89561 0
M  V30 1581 C 137.447 1.25569 5.19747 0
M  V30 1582 C 138.747 3.17357 4.14827 0
M  V30 1583 H 140.441 2.03217 2.19871 0
M  V30 1584 H 137.987 0.978452 1.05652 0
M  V30 1585 H 139.94 0.600777 4.17095 0
M  V30 1586 H 138.664 -0.241287 3.25707 0
M  V30 1587 H 137.323 1.88814 3.14237 0
M  V30 1588 H 136.971 0.276783 5.02238 0
M  V30 1589 H 136.671 1.95433 5.54148 0
M  V30 1590 H 138.195 1.1415 5.99835 0
M  V30 1591 H 139.609 3.08914 4.82954 0
M  V30 1592 H 138.006 3.84781 4.60504 0
M  V30 1593 H 139.076 3.63673 3.20734 0
M  V30 1594 N 140.419 -1.14872 1.07899 0
M  V30 1595 C 141.647 -1.89661 0.82683 0
M  V30 1596 C 142.062 -1.78312 -0.620519 0
M  V30 1597 O 141.419 -1.13888 -1.42604 0
M  V30 1598 C 141.47 -3.39817 1.23316 0
M  V30 1599 O 141.191 -3.50845 2.62372 0
M  V30 1600 C 142.692 -4.31615 1.0111 0
M  V30 1601 H 139.912 -0.60092 0.298557 0
M  V30 1602 H 142.456 -1.4551 1.43691 0
M  V30 1603 H 140.611 -3.8161 0.667286 0
M  V30 1604 H 141.025 -4.44076 2.79101 0
M  V30 1605 H 142.499 -5.35367 1.34486 0
M  V30 1606 H 142.976 -4.39169 -0.0522168 0
M  V30 1607 H 143.582 -3.95572 1.56215 0
M  V30 1608 N 141.898 -0.863906 -1.31812 0
M  V30 1609 C 143.128 -0.485406 -2.00817 0
M  V30 1610 C 143.536 0.925007 -1.65046 0
M  V30 1611 O 142.879 1.61653 -0.872574 0
M  V30 1612 C 142.941 -0.555589 -3.55181 0
M  V30 1613 C 142.605 -1.92654 -4.14407 0
M  V30 1614 C 143.602 -2.89324 -4.31958 0
M  V30 1615 C 141.287 -2.2262 -4.50273 0
M  V30 1616 C 143.281 -4.14108 -4.84555 0
M  V30 1617 C 140.968 -3.47654 -5.02573 0
M  V30 1618 C 141.966 -4.43214 -5.19664 0
M  V30 1619 O 141.654 -5.66033 -5.70843 0
M  V30 1620 H 141.386 -0.188224 -0.649267 0
M  V30 1621 H 143.94 -1.16514 -1.69156 0
M  V30 1622 H 142.17 0.181037 -3.86276 0
M  V30 1623 H 143.859 -0.19138 -4.05449 0
M  V30 1624 H 144.625 -2.6748 -4.04573 0
M  V30 1625 H 140.504 -1.4902 -4.3625 0
M  V30 1626 H 144.048 -4.88703 -4.9781 0
M  V30 1627 H 139.945 -3.69345 -5.29391 0
M  V30 1628 H 140.713 -5.6812 -5.89222 0
M  V30 1629 N 143.376 1.44774 -0.622745 0
M  V30 1630 C 144.323 2.30635 0.0871679 0
M  V30 1631 C 145.293 1.42994 0.845097 0
M  V30 1632 O 146.478 1.71907 0.827812 0
M  V30 1633 C 143.618 3.28144 1.06844 0
M  V30 1634 C 142.731 4.30888 0.309809 0
M  V30 1635 C 141.866 5.15494 1.28215 0
M  V30 1636 C 140.905 6.09953 0.512198 0
M  V30 1637 N 140.042 6.87287 1.43458 0
M  V30 1638 H 144.882 2.90803 -0.650974 0
M  V30 1639 H 142.419 1.43286 -0.33281 0
M  V30 1640 H 144.377 3.83157 1.65066 0
M  V30 1641 H 143.007 2.69695 1.77382 0
M  V30 1642 H 142.059 3.78414 -0.388181 0
M  V30 1643 H 143.371 4.97955 -0.290254 0
M  V30 1644 H 142.525 5.74983 1.93596 0
M  V30 1645 H 141.264 4.48481 1.91614 0
M  V30 1646 H 140.269 5.49581 -0.155151 0
M  V30 1647 H 141.494 6.78999 -0.116958 0
M  V30 1648 H 139.44 6.2295 2.05594 0
M  V30 1649 H 139.357 7.50763 0.888335 0
M  V30 1650 H 140.625 7.51306 2.07749 0
M  V30 1651 N 144.854 0.36279 1.53368 0
M  V30 1652 C 145.784 -0.476976 2.28576 0
M  V30 1653 C 146.765 -1.08631 1.30894 0
M  V30 1654 O 147.95 -1.10409 1.59761 0
M  V30 1655 C 145.08 -1.61828 3.07293 0
M  V30 1656 C 144.034 -1.13633 4.1264 0
M  V30 1657 C 143.36 -2.36766 4.79423 0
M  V30 1658 C 144.66 -0.223061 5.21823 0
M  V30 1659 H 146.354 0.150474 2.99022 0
M  V30 1660 H 143.9 0.0738103 1.43811 0
M  V30 1661 H 145.853 -2.21237 3.58653 0
M  V30 1662 H 144.577 -2.27292 2.34533 0
M  V30 1663 H 143.236 -0.564945 3.62221 0
M  V30 1664 H 142.884 -3.0068 4.03238 0
M  V30 1665 H 142.584 -2.05192 5.50609 0
M  V30 1666 H 144.108 -2.96865 5.33576 0
M  V30 1667 H 145.522 -0.724545 5.68703 0
M  V30 1668 H 143.919 0.001678 6.001 0
M  V30 1669 H 144.989 0.735553 4.79289 0
M  V30 1670 N 146.332 -1.57332 0.0918853 0
M  V30 1671 C 147.578 -1.94524 -0.573425 0
M  V30 1672 C 147.911 -0.973578 -1.68033 0
M  V30 1673 O 147.186 -0.00609226 -1.94499 0
M  V30 1674 C 147.469 -3.41858 -1.13161 0
M  V30 1675 C 147.322 -4.4979 -0.0299747 0
M  V30 1676 C 148.641 -3.90435 -2.03098 0
M  V30 1677 H 145.76 -0.70734 -0.206975 0
M  V30 1678 H 148.402 -1.89309 0.161942 0
M  V30 1679 H 146.552 -3.46433 -1.7583 0
M  V30 1680 H 148.224 -4.57327 0.604112 0
M  V30 1681 H 146.467 -4.291 0.636833 0
M  V30 1682 H 147.138 -5.50069 -0.461287 0
M  V30 1683 H 149.614 -3.87992 -1.50338 0
M  V30 1684 H 148.49 -4.94097 -2.39081 0
M  V30 1685 H 148.751 -3.29541 -2.94712 0
M  V30 1686 N 147.81 0.181792 -1.56548 0
M  V30 1687 C 149.035 0.920019 -1.85877 0
M  V30 1688 C 149.46 1.75494 -0.677021 0
M  V30 1689 O 148.818 1.77399 0.374056 0
M  V30 1690 C 148.866 1.78112 -3.13542 0
M  V30 1691 O 147.97 2.88152 -2.95029 0
M  V30 1692 H 147.311 0.258334 -0.611686 0
M  V30 1693 H 149.841 0.183092 -2.03779 0
M  V30 1694 H 149.851 2.18314 -3.44678 0
M  V30 1695 H 148.526 1.16777 -3.99169 0
M  V30 1696 H 147.103 2.51609 -2.75222 0
M  V30 1697 N 149.288 1.51039 0.449983 0
M  V30 1698 C 150.235 1.71439 1.54523 0
M  V30 1699 C 151.205 0.555871 1.56522 0
M  V30 1700 O 152.39 0.788871 1.73728 0
M  V30 1701 C 149.53 1.83384 2.92343 0
M  V30 1702 C 148.643 3.10873 2.9997 0
M  V30 1703 C 147.778 3.13488 4.28834 0
M  V30 1704 C 146.817 4.35343 4.30282 0
M  V30 1705 N 145.954 4.35579 5.5065 0
M  V30 1706 H 150.794 2.64934 1.36433 0
M  V30 1707 H 148.331 1.31312 0.662982 0
M  V30 1708 H 150.289 1.88291 3.72293 0
M  V30 1709 H 148.919 0.933086 3.0902 0
M  V30 1710 H 147.971 3.15336 2.12761 0
M  V30 1711 H 149.283 4.00814 2.96901 0
M  V30 1712 H 148.437 3.17241 5.17149 0
M  V30 1713 H 147.176 2.21414 4.34543 0
M  V30 1714 H 146.181 4.3178 3.40362 0
M  V30 1715 H 147.406 5.28668 4.26248 0
M  V30 1716 H 145.352 3.46369 5.57104 0
M  V30 1717 H 145.269 5.19313 5.49409 0
M  V30 1718 H 146.537 4.43507 6.41032 0
M  V30 1719 N 150.766 -0.704594 1.40972 0
M  V30 1720 C 151.714 -1.83994 1.42299 0
M  V30 1721 C 152.708 -1.66684 0.302111 0
M  V30 1722 O 153.914 -1.73655 0.473697 0
M  V30 1723 H 150.289 -0.606171 0.44504 0
M  V30 1724 H 152.26 -1.79992 2.38003 0
M  V30 1725 C 151.009 -3.21946 1.31323 0
M  V30 1726 H 150.332 -3.35878 2.16855 0
M  V30 1727 H 151.772 -4.01491 1.36311 0
M  V30 1728 C 150.231 -3.36891 0.0245977 0
M  V30 1729 O 150.761 -3.90687 -0.934153 0
M  V30 1730 N 148.967 -2.90559 -0.0485243 0
M  V30 1731 H 148.514 -2.46968 0.732419 0
M  V30 1732 H 148.472 -3.00937 -0.910171 0
M  V30 1733 N 152.244 -1.26651 -0.937939 0
M  V30 1734 C 153.474 -1.15006 -1.71631 0
M  V30 1735 C 153.882 0.297026 -1.86854 0
M  V30 1736 O 153.225 1.21493 -1.37786 0
M  V30 1737 C 153.287 -1.74984 -3.14039 0
M  V30 1738 C 152.951 -3.24103 -3.2219 0
M  V30 1739 C 153.948 -4.20877 -3.05219 0
M  V30 1740 C 151.633 -3.64625 -3.45476 0
M  V30 1741 C 153.627 -5.56151 -3.11408 0
M  V30 1742 C 151.314 -5.00032 -3.513 0
M  V30 1743 C 152.312 -5.95604 -3.34282 0
M  V30 1744 O 152 -7.28545 -3.3982 0
M  V30 1745 H 151.732 -0.401183 -0.544085 0
M  V30 1746 H 154.286 -1.67832 -1.18413 0
M  V30 1747 H 152.516 -1.16624 -3.68695 0
M  V30 1748 H 154.205 -1.58199 -3.73802 0
M  V30 1749 H 154.971 -3.90908 -2.87081 0
M  V30 1750 H 150.85 -2.90718 -3.57777 0
M  V30 1751 H 154.394 -6.30727 -2.98043 0
M  V30 1752 H 150.291 -5.29659 -3.68959 0
M  V30 1753 H 151.059 -7.3686 -3.56343 0
M  V30 1754 N 153.722 1.14298 -1.08507 0
M  V30 1755 C 155.133 1.66926 -0.836227 0
M  V30 1756 C 155.484 1.85576 0.63686 0
M  V30 1757 O 154.609 1.56767 1.49175 0
M  V30 1758 C 155.204 3.03219 -1.51142 0
M  V30 1759 C 153.763 3.52876 -1.30979 0
M  V30 1760 C 152.91 2.2833 -1.57356 0
M  V30 1761 H 155.861 0.983491 -1.24552 0
M  V30 1762 H 155.882 3.68726 -0.939211 0
M  V30 1763 H 155.394 2.89612 -2.58353 0
M  V30 1764 H 153.495 3.71703 -0.258429 0
M  V30 1765 H 153.608 4.33586 -2.03814 0
M  V30 1766 H 151.972 2.34454 -0.995164 0
M  V30 1767 H 152.755 2.17298 -2.65775 0
M  V30 1768 N 155.201 0.870884 1.31352 0
M  V30 1769 C 156.478 0.402907 1.91405 0
M  V30 1770 C 156.858 -1.11512 1.79244 0
M  V30 1771 O 156.206 -1.94411 1.2007 0
M  V30 1772 C 156.416 0.885301 3.37585 0
M  V30 1773 C 157.764 0.911971 4.14691 0
M  V30 1774 O 158.788 0.831016 3.46371 0
M  V30 1775 O 157.647 1.02927 5.3672 0
M  V30 1776 H 154.741 0.120698 0.818145 0
M  V30 1777 H 157.287 0.958857 1.40014 0
M  V30 1778 H 156.059 1.92889 3.40455 0
M  V30 1779 H 155.682 0.307714 3.96407 0
M  V30 1780 N 156.679 -1.44442 0.630414 0
M  V30 1781 C 157.609 -2.33418 -0.0618083 0
M  V30 1782 C 158.59 -1.48165 -0.835541 0
M  V30 1783 O 159.775 -1.76886 -0.801564 0
M  V30 1784 C 156.905 -3.31222 -1.04449 0
M  V30 1785 C 155.859 -4.26288 -0.382436 0
M  V30 1786 C 155.185 -5.13954 -1.47497 0
M  V30 1787 C 156.485 -5.1744 0.710865 0
M  V30 1788 H 158.179 -2.91548 0.681184 0
M  V30 1789 H 155.725 -1.40191 0.329026 0
M  V30 1790 H 157.678 -3.92351 -1.53748 0
M  V30 1791 H 156.402 -2.71299 -1.81836 0
M  V30 1792 H 155.061 -3.6649 0.0899054 0
M  V30 1793 H 154.709 -4.50385 -2.2397 0
M  V30 1794 H 154.409 -5.7837 -1.03737 0
M  V30 1795 H 155.933 -5.77955 -1.96979 0
M  V30 1796 H 157.347 -5.72509 0.300996 0
M  V30 1797 H 155.744 -5.90455 1.07156 0
M  V30 1798 H 156.814 -4.58496 1.57829 0
M  V30 1799 N 158.157 -0.370918 -1.53173 0
M  V30 1800 C 159.382 0.220293 -2.06227 0
M  V30 1801 C 159.807 1.41243 -1.24225 0
M  V30 1802 O 159.165 1.79387 -0.262645 0
M  V30 1803 C 159.213 0.586663 -3.55796 0
M  V30 1804 O 158.317 1.68317 -3.76488 0
M  V30 1805 H 157.658 0.0308099 -0.663285 0
M  V30 1806 H 160.188 -0.533068 -1.97534 0
M  V30 1807 H 160.198 0.85617 -3.98916 0
M  V30 1808 H 158.873 -0.285013 -4.14922 0
M  V30 1809 H 157.45 1.40881 -3.45264 0
M  V30 1810 N 159.635 1.57281 -0.100228 0
M  V30 1811 C 160.565 2.17328 0.853857 0
M  V30 1812 C 161.546 1.10804 1.2906 0
M  V30 1813 O 162.731 1.38963 1.35657 0
M  V30 1814 C 159.861 2.75772 2.11109 0
M  V30 1815 C 158.815 3.87713 1.81279 0
M  V30 1816 C 158.141 4.32882 3.13874 0
M  V30 1817 C 159.441 5.10677 1.09574 0
M  V30 1818 H 161.135 2.97305 0.353545 0
M  V30 1819 H 158.681 1.43009 0.168612 0
M  V30 1820 H 160.634 3.16433 2.78296 0
M  V30 1821 H 159.358 1.93057 2.63432 0
M  V30 1822 H 158.017 3.476 1.16489 0
M  V30 1823 H 157.665 3.47051 3.64095 0
M  V30 1824 H 157.365 5.08358 2.94696 0
M  V30 1825 H 158.889 4.7618 3.82211 0
M  V30 1826 H 160.303 5.48474 1.66879 0
M  V30 1827 H 158.7 5.91615 1.00557 0
M  V30 1828 H 159.77 4.84835 0.0793299 0
M  V30 1829 N 161.113 -0.173488 1.56642 0
M  V30 1830 C 162.361 -0.888706 1.81512 0
M  V30 1831 C 162.682 -1.82875 0.676872 0
M  V30 1832 O 161.952 -1.93536 -0.303414 0
M  V30 1833 H 160.532 -0.331164 0.669582 0
M  V30 1834 H 163.194 -0.173823 1.94123 0
M  V30 1835 H 162.29 -1.46691 2.75478 0
M  V30 1836 N 162.591 -1.51276 -0.441967 0
M  V30 1837 C 163.868 -1.54252 -1.20273 0
M  V30 1838 C 164.248 -0.30408 -2.08898 0
M  V30 1839 O 163.596 0.711084 -2.17154 0
M  V30 1840 C 163.806 -2.85406 -2.00859 0
M  V30 1841 C 165.154 -3.37181 -2.58059 0
M  V30 1842 O 166.178 -2.86925 -2.11074 0
M  V30 1843 O 165.037 -4.24858 -3.43741 0
M  V30 1844 H 162.131 -0.619969 -0.547328 0
M  V30 1845 H 164.677 -1.63586 -0.451413 0
M  V30 1846 H 163.449 -3.67003 -1.35736 0
M  V30 1847 H 163.072 -2.79213 -2.83065 0
M  V30 1848 N 164.069 0.697108 -1.41344 0
M  V30 1849 C 165.299 1.48377 -1.43763 0
M  V30 1850 C 165.707 1.89156 -0.0408726 0
M  V30 1851 O 165.05 1.57239 0.949812 0
M  V30 1852 C 165.112 2.7781 -2.2817 0
M  V30 1853 C 164.776 2.59244 -3.76353 0
M  V30 1854 C 165.773 2.25292 -4.68551 0
M  V30 1855 C 163.458 2.74933 -4.20378 0
M  V30 1856 C 165.452 2.07264 -6.02761 0
M  V30 1857 C 163.139 2.56521 -5.54653 0
M  V30 1858 C 164.137 2.22737 -6.4566 0
M  V30 1859 O 163.825 2.04485 -7.77458 0
M  V30 1860 H 163.557 0.463842 -0.491759 0
M  V30 1861 H 166.111 0.865934 -1.86255 0
M  V30 1862 H 164.341 3.41995 -1.8049 0
M  V30 1863 H 166.03 3.39608 -2.22309 0
M  V30 1864 H 166.796 2.12787 -4.35829 0
M  V30 1865 H 162.675 3.00213 -3.49848 0
M  V30 1866 H 166.219 1.80817 -6.73759 0
M  V30 1867 H 162.116 2.68616 -5.86955 0
M  V30 1868 H 162.884 2.1926 -7.88586 0
M  V30 1869 N 165.547 1.27147 0.931209 0
M  V30 1870 C 166.772 1.16191 1.71797 0
M  V30 1871 C 167.197 -0.278004 1.86034 0
M  V30 1872 O 166.555 -1.20137 1.35782 0
M  V30 1873 C 166.603 1.84673 3.09723 0
M  V30 1874 O 165.707 1.14231 3.96264 0
M  V30 1875 H 165.048 0.404303 0.526721 0
M  V30 1876 H 167.578 1.68152 1.1656 0
M  V30 1877 H 167.588 1.91893 3.60057 0
M  V30 1878 H 166.263 2.89421 2.98677 0
M  V30 1879 H 164.84 1.15056 3.54706 0
M  V30 1880 N 167.025 -1.13721 1.09112 0
M  V30 1881 C 167.955 -2.21148 0.749385 0
M  V30 1882 C 168.936 -1.6792 -0.271475 0
M  V30 1883 O 170.121 -1.93693 -0.140251 0
M  V30 1884 C 167.251 -3.46905 0.165659 0
M  V30 1885 C 166.205 -4.13203 1.11567 0
M  V30 1886 C 165.531 -5.33248 0.393809 0
M  V30 1887 C 166.831 -4.60912 2.45678 0
M  V30 1888 H 168.525 -2.4999 1.64758 0
M  V30 1889 H 166.071 -1.20156 0.793626 0
M  V30 1890 H 168.024 -4.21313 -0.085466 0
M  V30 1891 H 166.748 -3.17449 -0.767714 0
M  V30 1892 H 165.407 -3.40758 1.35202 0
M  V30 1893 H 165.055 -5.00054 -0.543599 0
M  V30 1894 H 164.755 -5.78552 1.02721 0
M  V30 1895 H 166.279 -6.10413 0.150908 0
M  V30 1896 H 167.693 -5.26759 2.26269 0
M  V30 1897 H 166.09 -5.16944 3.04776 0
M  V30 1898 H 167.16 -3.75603 3.06677 0
M  V30 1899 N 168.503 -0.877838 -1.30888 0
M  V30 1900 C 169.433 -0.35534 -2.3078 0
M  V30 1901 C 170.414 0.557994 -1.60687 0
M  V30 1902 O 171.599 0.473355 -1.88343 0
M  V30 1903 C 168.729 0.437221 -3.44537 0
M  V30 1904 C 167.683 -0.383715 -4.26276 0
M  V30 1905 C 167.009 0.535014 -5.32017 0
M  V30 1906 C 168.309 -1.62201 -4.96476 0
M  V30 1907 H 170.003 -1.19007 -2.74732 0
M  V30 1908 H 167.549 -0.573698 -1.32078 0
M  V30 1909 H 169.502 0.813334 -4.13477 0
M  V30 1910 H 168.226 1.30553 -2.99372 0
M  V30 1911 H 166.885 -0.741874 -3.59015 0
M  V30 1912 H 166.533 1.40083 -4.831 0
M  V30 1913 H 166.233 -0.0104211 -5.87599 0
M  V30 1914 H 167.757 0.907799 -6.03814 0
M  V30 1915 H 169.171 -1.31689 -5.5797 0
M  V30 1916 H 167.568 -2.10711 -5.61891 0
M  V30 1917 H 168.638 -2.37044 -4.23011 0
M  V30 1918 N 169.982 1.44106 -0.638065 0
M  V30 1919 C 171.228 2.02815 -0.15409 0
M  V30 1920 C 171.583 1.49342 1.21304 0
M  V30 1921 O 170.876 0.670699 1.79478 0
M  V30 1922 C 171.07 3.5729 -0.0887327 0
M  V30 1923 C 170.899 4.2575 -1.44799 0
M  V30 1924 C 169.669 4.62443 -2.03653 0
M  V30 1925 C 171.867 4.55746 -2.38327 0
M  V30 1926 N 169.849 5.15903 -3.32741 0
M  V30 1927 C 171.22 5.10364 -3.52036 0
M  V30 1928 C 173.275 4.37703 -2.3732 0
M  V30 1929 C 171.978 5.48837 -4.64941 0
M  V30 1930 C 174.004 4.77229 -3.49294 0
M  V30 1931 C 173.366 5.31966 -4.61726 0
M  V30 1932 H 169.465 0.775519 -0.100466 0
M  V30 1933 H 172.049 1.755 -0.843071 0
M  V30 1934 H 170.22 3.84201 0.569548 0
M  V30 1935 H 171.952 4.02671 0.404711 0
M  V30 1936 H 168.707 4.46987 -1.56523 0
M  V30 1937 H 169.131 5.47102 -3.98758 0
M  V30 1938 H 173.773 3.94671 -1.51641 0
M  V30 1939 H 171.491 5.9082 -5.51323 0
M  V30 1940 H 175.077 4.64976 -3.49698 0
M  V30 1941 H 173.957 5.61986 -5.46939 0
M  V30 1942 N 171.46 0.379036 1.52974 0
M  V30 1943 C 172.407 -0.461048 2.26148 0
M  V30 1944 C 173.377 -1.06637 1.27349 0
M  V30 1945 O 174.562 -1.09633 1.56157 0
M  V30 1946 C 171.702 -1.58782 3.06402 0
M  V30 1947 C 170.815 -1.00636 4.20115 0
M  V30 1948 C 169.95 -2.10334 4.87784 0
M  V30 1949 C 168.989 -1.49724 5.93506 0
M  V30 1950 N 168.126 -2.5331 6.54812 0
M  V30 1951 H 172.966 0.169429 2.97518 0
M  V30 1952 H 170.503 0.0953806 1.4679 0
M  V30 1953 H 172.461 -2.25174 3.51215 0
M  V30 1954 H 171.091 -2.18876 2.37261 0
M  V30 1955 H 170.143 -0.232332 3.7969 0
M  V30 1956 H 171.455 -0.523343 4.96047 0
M  V30 1957 H 170.609 -2.84519 5.35849 0
M  V30 1958 H 169.348 -2.61992 4.11353 0
M  V30 1959 H 168.353 -0.740598 5.44789 0
M  V30 1960 H 169.578 -0.988732 6.71864 0
M  V30 1961 H 167.524 -3.04156 5.81227 0
M  V30 1962 H 167.441 -2.09734 7.26325 0
M  V30 1963 H 168.709 -3.27155 7.07524 0
M  V30 1964 N 172.938 -1.57226 0.108567 0
M  V30 1965 C 173.901 -2.13602 -0.831082 0
M  V30 1966 C 174.901 -1.06841 -1.20173 0
M  V30 1967 O 176.091 -1.32666 -1.12895 0
M  V30 1968 C 173.223 -2.66769 -2.12243 0
M  V30 1969 H 174.416 -2.97951 -0.341317 0
M  V30 1970 H 171.969 -1.55667 -0.14057 0
M  V30 1971 H 172.704 -1.85977 -2.65675 0
M  V30 1972 H 172.489 -3.44839 -1.86625 0
M  V30 1973 H 173.979 -3.10332 -2.79435 0
M  V30 1974 N 174.416 0.165178 -1.56732 0
M  V30 1975 C 175.366 1.20917 -1.93295 0
M  V30 1976 C 176.35 1.39488 -0.801985 0
M  V30 1977 O 177.542 1.41356 -1.06525 0
M  V30 1978 C 174.671 2.54718 -2.3016 0
M  V30 1979 C 173.757 2.39815 -3.49785 0
M  V30 1980 N 174.148 1.94637 -4.66851 0
M  V30 1981 C 172.446 2.70623 -3.54513 0
M  V30 1982 C 173.147 1.92344 -5.4898 0
M  V30 1983 N 172.123 2.34978 -4.9019 0
M  V30 1984 H 175.925 0.851675 -2.81289 0
M  V30 1985 H 173.439 0.373399 -1.58049 0
M  V30 1986 H 175.436 3.30165 -2.54552 0
M  V30 1987 H 174.096 2.91265 -1.43508 0
M  V30 1988 H 175.107 1.6488 -4.90953 0
M  V30 1989 H 171.784 3.11167 -2.78354 0
M  V30 1990 H 173.174 1.5906 -6.52801 0
M  V30 1991 N 175.894 1.51508 0.433938 0
M  V30 1992 C 176.841 1.73068 1.52696 0
M  V30 1993 C 177.811 0.572441 1.55924 0
M  V30 1994 O 178.996 0.807253 1.72882 0
M  V30 1995 C 176.136 1.86474 2.90381 0
M  V30 1996 C 175.249 3.14037 2.96656 0
M  V30 1997 C 174.384 3.18019 4.25485 0
M  V30 1998 C 173.423 4.39882 4.2564 0
M  V30 1999 N 172.56 4.41394 5.45999 0
M  V30 2000 H 177.4 2.66366 1.33615 0
M  V30 2001 H 174.937 1.32008 0.649018 0
M  V30 2002 H 176.895 1.92229 3.70275 0
M  V30 2003 H 175.525 0.965809 3.08013 0
M  V30 2004 H 174.577 3.17575 2.09404 0
M  V30 2005 H 175.889 4.0394 2.92633 0
M  V30 2006 H 175.043 3.22708 5.13755 0
M  V30 2007 H 173.782 2.2601 4.3217 0
M  V30 2008 H 172.787 4.35366 3.35763 0
M  V30 2009 H 174.012 5.33159 4.20617 0
M  V30 2010 H 171.958 3.52258 5.53399 0
M  V30 2011 H 171.875 5.25111 5.4387 0
M  V30 2012 H 173.143 4.50281 6.36292 0
M  V30 2013 N 177.372 -0.689602 1.41712 0
M  V30 2014 C 178.319 -1.80345 1.44029 0
M  V30 2015 C 179.289 -1.63478 0.293948 0
M  V30 2016 O 180.474 -1.84244 0.495869 0
M  V30 2017 C 177.614 -3.18272 1.33405 0
M  V30 2018 C 176.727 -3.46529 2.57956 0
M  V30 2019 C 175.862 -4.74103 2.39582 0
M  V30 2020 C 174.901 -4.95347 3.5958 0
M  V30 2021 N 174.038 -6.14151 3.40239 0
M  V30 2022 H 178.878 -1.77698 2.39222 0
M  V30 2023 H 176.415 -0.867688 1.18784 0
M  V30 2024 H 178.373 -3.97956 1.25246 0
M  V30 2025 H 177.003 -3.2008 0.418164 0
M  V30 2026 H 176.055 -2.61207 2.76542 0
M  V30 2027 H 177.367 -3.58126 3.47199 0
M  V30 2028 H 176.521 -5.61853 2.28924 0
M  V30 2029 H 175.26 -4.64763 1.47805 0
M  V30 2030 H 174.265 -4.06044 3.70686 0
M  V30 2031 H 175.49 -5.06542 4.52318 0
M  V30 2032 H 173.436 -6.06013 2.51167 0
M  V30 2033 H 173.353 -6.26543 4.23061 0
M  V30 2034 H 174.621 -7.04619 3.33365 0
M  V30 2035 N 178.85 -1.27639 -0.924453 0
M  V30 2036 C 179.78 -1.13166 -2.04244 0
M  V30 2037 C 180.761 -0.032256 -1.70069 0
M  V30 2038 O 181.946 -0.207328 -1.9309 0
M  V30 2039 C 179.076 -0.781496 -3.38393 0
M  V30 2040 C 178.03 -1.83449 -3.86692 0
M  V30 2041 C 177.356 -1.33822 -5.17683 0
M  V30 2042 C 178.656 -3.23917 -4.09726 0
M  V30 2043 H 180.35 -2.06689 -2.1661 0
M  V30 2044 H 177.896 -0.995136 -1.04082 0
M  V30 2045 H 179.849 -0.667057 -4.16087 0
M  V30 2046 H 178.573 0.189439 -3.2605 0
M  V30 2047 H 177.232 -1.93789 -3.11193 0
M  V30 2048 H 176.88 -0.35665 -5.01734 0
M  V30 2049 H 176.58 -2.04224 -5.50968 0
M  V30 2050 H 178.104 -1.23679 -5.97943 0
M  V30 2051 H 179.518 -3.16559 -4.77978 0
M  V30 2052 H 177.915 -3.92059 -4.54324 0
M  V30 2053 H 178.985 -3.68729 -3.14908 0
M  V30 2054 N 180.328 1.1314 -1.09713 0
M  V30 2055 C 181.556 1.88321 -0.856898 0
M  V30 2056 C 181.971 1.79276 0.592073 0
M  V30 2057 O 181.328 1.16142 1.40774 0
M  V30 2058 C 181.379 3.37812 -1.28706 0
M  V30 2059 O 181.1 3.46627 -2.67921 0
M  V30 2060 C 182.601 4.29952 -1.07964 0
M  V30 2061 H 179.821 0.596094 -0.308079 0
M  V30 2062 H 182.365 1.43205 -1.45988 0
M  V30 2063 H 180.52 3.805 -0.727912 0
M  V30 2064 H 180.934 4.39579 -2.8613 0
M  V30 2065 H 182.408 5.33159 -1.42986 0
M  V30 2066 H 182.885 4.39196 -0.0176577 0
M  V30 2067 H 183.491 3.93036 -1.62489 0
M  V30 2068 N 181.806 0.884767 1.30421 0
M  V30 2069 C 183.222 0.57874 1.48737 0
M  V30 2070 C 183.422 -0.883567 1.81095 0
M  V30 2071 O 182.478 -1.6648 1.89844 0
M  V30 2072 C 183.791 1.49171 2.61091 0
M  V30 2073 C 185.339 1.49532 2.74971 0
M  V30 2074 C 185.814 2.39421 3.90438 0
M  V30 2075 N 187.305 2.37383 3.97748 0
M  V30 2076 C 188.04 3.03647 4.86401 0
M  V30 2077 N 187.536 3.79136 5.79852 0
M  V30 2078 N 189.329 2.9288 4.79768 0
M  V30 2079 H 181.48 1.83075 1.0769 0
M  V30 2080 H 183.743 0.783637 0.533495 0
M  V30 2081 H 183.449 2.53291 2.44001 0
M  V30 2082 H 183.323 1.20113 3.57565 0
M  V30 2083 H 185.71 0.46163 2.91467 0
M  V30 2084 H 185.791 1.8262 1.79119 0
M  V30 2085 H 185.435 3.42874 3.74699 0
M  V30 2086 H 185.365 2.03649 4.85628 0
M  V30 2087 H 187.856 1.82525 3.30897 0
M  V30 2088 H 188.169 4.26789 6.4426 0
M  V30 2089 H 186.514 3.83243 5.79784 0
M  V30 2090 H 189.705 2.33433 4.05742 0
M  V30 2091 H 189.878 3.448 5.4865 0
M  V30 2092 N 183.284 -1.43765 0.645699 0
M  V30 2093 C 184.509 -2.06767 0.161883 0
M  V30 2094 C 184.934 -1.48034 -1.16049 0
M  V30 2095 O 184.292 -0.587369 -1.71522 0
M  V30 2096 C 184.34 -3.60519 0.0762003 0
M  V30 2097 O 183.444 -4.00982 -0.963721 0
M  V30 2098 H 182.785 -0.657675 0.091429 0
M  V30 2099 H 185.315 -1.84397 0.886499 0
M  V30 2100 H 185.325 -4.07853 -0.109604 0
M  V30 2101 H 184 -4.02646 1.04157 0
M  V30 2102 H 182.577 -3.65253 -0.751312 0
M  V30 2103 N 184.763 -0.387143 -1.52771 0
M  V30 2104 C 185.726 0.436939 -2.24997 0
M  V30 2105 C 186.726 0.991991 -1.26555 0
M  V30 2106 O 187.916 0.874335 -1.50669 0
M  V30 2107 C 185.048 1.61281 -3.00335 0
M  V30 2108 H 186.241 -0.195365 -2.99263 0
M  V30 2109 H 183.794 -0.139218 -1.55679 0
M  V30 2110 H 184.529 2.2826 -2.30364 0
M  V30 2111 H 184.314 1.22154 -3.72587 0
M  V30 2112 H 185.804 2.19629 -3.5518 0
M  V30 2113 N 186.241 1.57166 -0.116904 0
M  V30 2114 C 187.171 2.18222 0.830759 0
M  V30 2115 C 188.152 1.12167 1.27877 0
M  V30 2116 O 189.337 1.40394 1.34176 0
M  V30 2117 C 186.467 2.77996 2.08172 0
M  V30 2118 C 185.421 3.89614 1.77157 0
M  V30 2119 C 184.747 4.36187 3.09265 0
M  V30 2120 C 186.047 5.1181 1.04151 0
M  V30 2121 H 187.741 2.97664 0.321992 0
M  V30 2122 H 185.287 1.4318 0.153434 0
M  V30 2123 H 187.24 3.19366 2.74924 0
M  V30 2124 H 185.964 1.9584 2.6137 0
M  V30 2125 H 184.623 3.48816 1.12796 0
M  V30 2126 H 184.271 3.50893 3.60393 0
M  V30 2127 H 183.971 5.11455 2.89288 0
M  V30 2128 H 185.495 4.80207 3.77139 0
M  V30 2129 H 186.909 5.50214 1.61052 0
M  V30 2130 H 185.306 5.92648 0.942762 0
M  V30 2131 H 186.376 4.84892 0.0279022 0
M  V30 2132 N 187.719 -0.156864 1.56817 0
M  V30 2133 C 188.649 -1.19589 2.00551 0
M  V30 2134 C 189.63 -1.4536 0.883426 0
M  V30 2135 O 190.815 -1.56449 1.15054 0
M  V30 2136 C 187.945 -2.53143 2.37773 0
M  V30 2137 C 186.899 -2.41913 3.53075 0
M  V30 2138 C 186.225 -3.80088 3.76081 0
M  V30 2139 C 187.525 -1.91157 4.86062 0
M  V30 2140 H 189.219 -0.832293 2.87599 0
M  V30 2141 H 186.765 -0.398918 1.38364 0
M  V30 2142 H 188.718 -3.26047 2.66967 0
M  V30 2143 H 187.442 -2.91319 1.4765 0
M  V30 2144 H 186.101 -1.71462 3.24031 0
M  V30 2145 H 185.749 -4.15683 2.83225 0
M  V30 2146 H 185.449 -3.73439 4.53671 0
M  V30 2147 H 186.973 -4.54556 4.0769 0
M  V30 2148 H 188.387 -2.53846 5.14038 0
M  V30 2149 H 186.784 -1.95422 5.67389 0
M  V30 2150 H 187.854 -0.866673 4.77092 0
M  V30 2151 N 189.197 -1.51736 -0.425897 0
M  V30 2152 C 190.127 -1.76827 -1.52494 0
M  V30 2153 C 191.108 -0.618524 -1.58456 0
M  V30 2154 O 192.293 -0.862416 -1.74 0
M  V30 2155 C 189.423 -1.90374 -2.90474 0
M  V30 2156 C 188.377 -3.0588 -2.99369 0
M  V30 2157 C 187.703 -3.04625 -4.3944 0
M  V30 2158 C 189.003 -4.45644 -2.72394 0
M  V30 2159 H 190.697 -2.68855 -1.31748 0
M  V30 2160 H 188.243 -1.29372 -0.632362 0
M  V30 2161 H 190.196 -2.0651 -3.6733 0
M  V30 2162 H 188.92 -0.95004 -3.12477 0
M  V30 2163 H 187.579 -2.89467 -2.24954 0
M  V30 2164 H 187.227 -2.0701 -4.58428 0
M  V30 2165 H 186.927 -3.82195 -4.46319 0
M  V30 2166 H 188.451 -3.22869 -5.18255 0
M  V30 2167 H 189.865 -4.62348 -3.38979 0
M  V30 2168 H 188.262 -5.25006 -2.9067 0
M  V30 2169 H 189.332 -4.54893 -1.67929 0
M  V30 2170 N 190.675 0.682077 -1.42076 0
M  V30 2171 C 191.923 1.4393 -1.41876 0
M  V30 2172 C 192.244 1.94971 -0.0335599 0
M  V30 2173 O 191.514 1.72591 0.926773 0
M  V30 2174 H 190.094 0.534085 -0.522267 0
M  V30 2175 H 192.756 0.806427 -1.77434 0
M  V30 2176 H 191.852 2.29588 -2.11414 0
M  V30 2177 N 192.153 1.28127 0.917671 0
M  V30 2178 C 193.402 1.14432 1.66097 0
M  V30 2179 C 193.715 -0.307247 1.93172 0
M  V30 2180 O 194.921 -0.565259 2.65551 0
M  V30 2181 C 193.377 2.00015 2.99202 0
M  V30 2182 C 192.985 3.49889 2.79789 0
M  V30 2183 C 194.729 1.94996 3.77064 0
M  V30 2184 C 192.636 4.27636 4.08511 0
M  V30 2185 H 191.566 0.424662 0.62304 0
M  V30 2186 H 194.217 1.52628 1.01868 0
M  V30 2187 H 192.599 1.54672 3.64544 0
M  V30 2188 H 193.773 4.03162 2.23152 0
M  V30 2189 H 192.088 3.56392 2.15345 0
M  V30 2190 H 194.685 2.50354 4.72469 0
M  V30 2191 H 195.028 0.925819 4.05875 0
M  V30 2192 H 195.561 2.38287 3.18534 0
M  V30 2193 H 192.3 5.30615 3.84874 0
M  V30 2194 H 191.82 3.79137 4.64774 0
M  V30 2195 H 193.499 4.37346 4.76799 0
M  V30 2196 N 193.631 -1.12557 1.10312 0
M  V30 2197 C 195.047 -1.36036 0.834649 0
M  V30 2198 C 195.247 -1.93946 -0.546539 0
M  V30 2199 O 194.303 -2.16484 -1.29966 0
M  V30 2200 C 195.616 -2.30312 1.9333 0
M  V30 2201 C 197.164 -2.43906 1.9616 0
M  V30 2202 C 197.639 -3.41496 3.05195 0
M  V30 2203 N 199.13 -3.49053 3.04494 0
M  V30 2204 C 199.865 -4.24471 3.85502 0
M  V30 2205 N 199.361 -5.02966 4.76442 0
M  V30 2206 N 201.154 -4.19864 3.73725 0
M  V30 2207 H 193.305 -0.733246 1.99342 0
M  V30 2208 H 195.568 -0.385234 0.866198 0
M  V30 2209 H 195.274 -1.94933 2.92735 0
M  V30 2210 H 195.148 -3.30421 1.81939 0
M  V30 2211 H 197.535 -2.78567 0.973886 0
M  V30 2212 H 197.616 -1.4369 2.11629 0
M  V30 2213 H 197.26 -3.07565 4.04186 0
M  V30 2214 H 197.19 -4.41539 2.86968 0
M  V30 2215 H 199.681 -2.93053 2.38596 0
M  V30 2216 H 199.994 -5.57846 5.34815 0
M  V30 2217 H 198.339 -5.02167 4.80472 0
M  V30 2218 H 201.53 -3.57623 3.02032 0
M  V30 2219 H 201.703 -4.78386 4.37093 0
M  V30 2220 N 195.109 -0.891671 -1.2995 0
M  V30 2221 C 196.386 -0.433307 -1.9074 0
M  V30 2222 C 196.766 1.08646 -1.80995 0
M  V30 2223 O 196.114 1.92476 -1.23147 0
M  V30 2224 C 196.324 -0.938895 -3.36134 0
M  V30 2225 C 197.672 -0.977829 -4.13187 0
M  V30 2226 O 198.696 -0.886015 -3.45005 0
M  V30 2227 O 197.555 -1.11453 -5.35015 0
M  V30 2228 H 194.649 -0.133699 -0.816121 0
M  V30 2229 H 197.195 -0.981011 -1.38471 0
M  V30 2230 H 195.967 -1.98281 -3.37343 0
M  V30 2231 H 195.59 -0.37074 -3.95868 0
M  V30 2232 N 196.587 1.43421 -0.653314 0
M  V30 2233 C 197.812 2.06678 -0.172846 0
M  V30 2234 C 198.237 1.48648 1.15262 0
M  V30 2235 O 197.595 0.596457 1.71208 0
M  V30 2236 C 197.643 3.60474 -0.0953184 0
M  V30 2237 O 196.747 4.01487 0.942442 0
M  V30 2238 H 196.088 0.657181 -0.0949155 0
M  V30 2239 H 198.618 1.83925 -0.896265 0
M  V30 2240 H 198.628 4.07905 0.0879728 0
M  V30 2241 H 197.303 4.02088 -1.06291 0
M  V30 2242 H 195.88 3.65646 0.731932 0
M  V30 2243 N 198.065 0.39524 1.52563 0
M  V30 2244 C 198.998 -0.4813 2.23067 0
M  V30 2245 C 199.976 -1.05927 1.23362 0
M  V30 2246 O 201.16 -1.10979 1.52368 0
M  V30 2247 C 198.287 -1.66676 2.9485 0
M  V30 2248 C 197.333 -1.21348 4.08873 0
M  V30 2249 S 198.166 -0.190102 5.35162 0
M  V30 2250 C 199.322 -1.38121 6.1047 0
M  V30 2251 H 199.555 0.117381 2.97068 0
M  V30 2252 H 197.088 0.179458 1.53354 0
M  V30 2253 H 199.046 -2.3466 3.36816 0
M  V30 2254 H 197.707 -2.23676 2.20518 0
M  V30 2255 H 196.9 -2.09877 4.58222 0
M  V30 2256 H 196.502 -0.612486 3.68951 0
M  V30 2257 H 198.794 -2.30726 6.37002 0
M  V30 2258 H 199.737 -0.928521 7.01986 0
M  V30 2259 H 200.145 -1.60071 5.41329 0
M  V30 2260 N 199.544 -1.57102 0.125237 0
M  V30 2261 C 200.454 -2.19191 -0.8362 0
M  V30 2262 C 201.47 -1.16985 -1.28805 0
M  V30 2263 O 202.646 -1.49479 -1.34974 0
M  V30 2264 C 199.711 -2.78407 -2.06617 0
M  V30 2265 C 198.772 -3.9567 -1.66565 0
M  V30 2266 C 198.005 -4.52052 -2.83698 0
M  V30 2267 O 198.228 -4.07326 -3.99302 0
M  V30 2268 O 197.162 -5.42645 -2.60423 0
M  V30 2269 H 200.988 -3.01816 -0.337776 0
M  V30 2270 H 198.573 -1.4906 -0.100695 0
M  V30 2271 H 200.455 -3.16129 -2.7864 0
M  V30 2272 H 199.13 -1.9881 -2.55453 0
M  V30 2273 H 198.037 -3.62705 -0.916296 0
M  V30 2274 H 199.37 -4.76722 -1.22464 0
M  V30 2275 N 201.022 0.148545 -1.56898 0
M  V30 2276 C 202.433 0.708766 -1.72723 0
M  V30 2277 C 202.784 1.81734 -0.739395 0
M  V30 2278 O 201.909 2.16194 0.0943169 0
M  V30 2279 C 202.504 1.29245 -3.13179 0
M  V30 2280 C 201.063 1.79925 -3.30611 0
M  V30 2281 C 200.21 0.687111 -2.68652 0
M  V30 2282 H 203.161 -0.0771063 -1.58513 0
M  V30 2283 H 203.182 2.16224 -3.13093 0
M  V30 2284 H 202.694 0.485382 -3.85053 0
M  V30 2285 H 200.795 2.63203 -2.63732 0
M  V30 2286 H 200.908 1.92903 -4.38549 0
M  V30 2287 H 199.272 1.11335 -2.29078 0
M  V30 2288 H 200.055 -0.108483 -3.43129 0
M  V30 2289 N 202.5 1.5196 0.417844 0
M  V30 2290 C 203.746 1.65836 1.16732 0
M  V30 2291 C 204.079 0.382881 1.90388 0
M  V30 2292 O 203.354 -0.618368 1.84408 0
M  V30 2293 C 203.637 2.87466 2.16876 0
M  V30 2294 C 203.49 4.25041 1.47174 0
M  V30 2295 C 204.809 3.04613 3.17646 0
M  V30 2296 H 201.928 0.603515 0.423011 0
M  V30 2297 H 204.57 1.84494 0.454105 0
M  V30 2298 H 202.72 2.71689 2.777 0
M  V30 2299 H 204.392 4.52527 0.895376 0
M  V30 2300 H 202.635 4.26843 0.773806 0
M  V30 2301 H 203.306 5.06176 2.20204 0
M  V30 2302 H 205.782 3.1923 2.66892 0
M  V30 2303 H 204.658 3.91247 3.8499 0
M  V30 2304 H 204.919 2.17541 3.84874 0
M  V30 2305 N 203.978 -0.674533 1.42435 0
M  V30 2306 C 205.224 -1.43671 1.43131 0
M  V30 2307 C 205.557 -1.94142 0.0476021 0
M  V30 2308 O 204.832 -1.70924 -0.928188 0
M  V30 2309 C 205.115 -2.63355 2.45594 0
M  V30 2310 C 204.968 -2.18514 3.93156 0
M  V30 2311 C 206.287 -3.65571 2.45043 0
M  V30 2312 H 203.406 -0.521077 0.521198 0
M  V30 2313 H 206.048 -0.766551 1.7385 0
M  V30 2314 H 204.198 -3.2053 2.19528 0
M  V30 2315 H 205.87 -1.66504 4.30202 0
M  V30 2316 H 204.113 -1.50086 4.07009 0
M  V30 2317 H 204.784 -3.04484 4.60428 0
M  V30 2318 H 207.26 -3.18113 2.68223 0
M  V30 2319 H 206.136 -4.46893 3.18713 0
M  V30 2320 H 206.397 -4.16716 1.47649 0
M  V30 2321 N 205.456 -1.28612 -0.910864 0
M  V30 2322 C 206.366 -1.14643 -2.0468 0
M  V30 2323 C 207.382 -0.0723121 -1.7385 0
M  V30 2324 O 208.558 -0.282178 -1.99413 0
M  V30 2325 C 205.623 -0.812561 -3.37044 0
M  V30 2326 C 204.684 -1.96935 -3.81465 0
M  V30 2327 C 203.917 -1.65131 -5.07511 0
M  V30 2328 O 204.14 -0.567013 -5.67575 0
M  V30 2329 O 203.074 -2.49585 -5.47714 0
M  V30 2330 H 206.9 -2.1001 -2.19384 0
M  V30 2331 H 204.485 -1.07958 -1.03274 0
M  V30 2332 H 206.367 -0.640441 -4.16505 0
M  V30 2333 H 205.042 0.111426 -3.23508 0
M  V30 2334 H 203.949 -2.19664 -3.02818 0
M  V30 2335 H 205.282 -2.87414 -3.99567 0
M  V30 2336 N 206.934 1.1197 -1.10907 0
M  V30 2337 C 207.866 2.17592 -0.720175 0
M  V30 2338 C 208.879 1.60938 0.245495 0
M  V30 2339 O 210.068 1.78476 0.0292245 0
M  V30 2340 C 207.168 3.38873 -0.0427917 0
M  V30 2341 C 206.341 4.25006 -1.03388 0
M  V30 2342 C 205.4 5.24774 -0.387075 0
M  V30 2343 O 204.426 5.59631 -1.03934 0
M  V30 2344 N 205.628 5.74208 0.852407 0
M  V30 2345 H 208.393 2.51567 -1.62893 0
M  V30 2346 H 205.954 1.27439 -0.998543 0
M  V30 2347 H 207.946 4.02703 0.401501 0
M  V30 2348 H 206.516 3.03007 0.768456 0
M  V30 2349 H 205.736 3.57716 -1.65629 0
M  V30 2350 H 207.024 4.79397 -1.70458 0
M  V30 2351 H 206.422 5.48062 1.40161 0
M  V30 2352 H 204.979 6.39901 1.23977 0
M  V30 2353 N 208.412 0.89855 1.29475 0
M  V30 2354 C 209.342 0.39201 2.30186 0
M  V30 2355 C 210.323 -0.532359 1.61555 0
M  V30 2356 O 211.508 -0.443331 1.89072 0
M  V30 2357 C 208.638 -0.382353 3.45189 0
M  V30 2358 C 207.592 0.451483 4.25612 0
M  V30 2359 C 206.918 -0.450307 5.328 0
M  V30 2360 C 208.218 1.70079 4.93832 0
M  V30 2361 H 209.912 1.23362 2.72804 0
M  V30 2362 H 207.458 0.594638 1.31149 0
M  V30 2363 H 209.411 -0.747451 4.14718 0
M  V30 2364 H 208.135 -1.25774 3.01411 0
M  V30 2365 H 206.794 0.798897 3.57789 0
M  V30 2366 H 206.442 -1.32379 4.85268 0
M  V30 2367 H 206.142 0.103902 5.87508 0
M  V30 2368 H 207.666 -0.811623 6.05182 0
M  V30 2369 H 209.08 1.40549 5.55805 0
M  V30 2370 H 207.477 2.19623 5.58467 0
M  V30 2371 H 208.547 2.43744 4.19186 0
M  V30 2372 N 209.89 -1.43072 0.660911 0
M  V30 2373 C 211.118 -2.06067 0.185422 0
M  V30 2374 C 211.533 -1.49582 -1.15198 0
M  V30 2375 O 210.89 -0.630134 -1.71276 0
M  V30 2376 C 210.941 -3.61371 0.0966523 0
M  V30 2377 O 210.662 -4.15758 1.38119 0
M  V30 2378 C 212.163 -4.41455 -0.403996 0
M  V30 2379 H 209.383 -0.664459 0.0934604 0
M  V30 2380 H 211.927 -1.83447 0.90373 0
M  V30 2381 H 210.082 -3.8315 -0.572259 0
M  V30 2382 H 210.496 -5.09499 1.24542 0
M  V30 2383 H 211.97 -5.50437 -0.415045 0
M  V30 2384 H 212.447 -4.15036 -1.43674 0
M  V30 2385 H 213.053 -4.24663 0.232691 0
M  V30 2386 N 211.368 -0.403325 -1.52352 0
M  V30 2387 C 212.3 0.4603 -2.2453 0
M  V30 2388 C 213.313 1.01505 -1.27282 0
M  V30 2389 O 214.502 0.914982 -1.53266 0
M  V30 2390 C 211.602 1.65208 -2.95905 0
M  V30 2391 C 210.775 1.22224 -4.19976 0
M  V30 2392 C 209.834 2.28028 -4.74226 0
M  V30 2393 O 208.86 1.88857 -5.36956 0
M  V30 2394 N 210.062 3.6012 -4.55295 0
M  V30 2395 H 212.827 -0.158156 -2.99282 0
M  V30 2396 H 210.388 -0.230402 -1.60252 0
M  V30 2397 H 212.38 2.35541 -3.29093 0
M  V30 2398 H 210.95 2.17658 -2.24374 0
M  V30 2399 H 210.17 0.34725 -3.92668 0
M  V30 2400 H 211.458 0.911924 -5.00561 0
M  V30 2401 H 210.856 3.94698 -4.05253 0
M  V30 2402 H 209.413 4.26447 -4.92936 0
M  V30 2403 N 212.846 1.57033 -0.133567 0
M  V30 2404 C 213.756 2.19632 0.824564 0
M  V30 2405 C 214.772 1.17666 1.28182 0
M  V30 2406 O 215.948 1.50193 1.3418 0
M  V30 2407 C 213.013 2.79499 2.05137 0
M  V30 2408 C 212.074 3.96548 1.64464 0
M  V30 2409 C 211.307 4.5355 2.81297 0
M  V30 2410 O 211.53 4.09438 3.97136 0
M  V30 2411 O 210.464 5.44018 2.57542 0
M  V30 2412 H 214.29 3.01991 0.321766 0
M  V30 2413 H 211.875 1.49112 0.0927889 0
M  V30 2414 H 213.757 3.17602 2.7696 0
M  V30 2415 H 212.432 2.00162 2.54395 0
M  V30 2416 H 211.339 3.63186 0.897048 0
M  V30 2417 H 212.672 4.77364 1.19934 0
M  V30 2418 N 214.325 -0.140222 1.56975 0
M  V30 2419 C 215.572 -0.851687 1.83719 0
M  V30 2420 C 215.9 -1.80862 0.715485 0
M  V30 2421 O 215.155 -1.93464 -0.294956 0
M  V30 2422 C 215.454 -1.65386 3.16832 0
M  V30 2423 C 215.12 -0.843112 4.42947 0
M  V30 2424 C 213.782 -0.619464 4.77196 0
M  V30 2425 C 216.134 -0.276582 5.20466 0
M  V30 2426 C 213.462 0.181312 5.8642 0
M  V30 2427 C 215.814 0.51127 6.30531 0
M  V30 2428 C 214.478 0.745432 6.63325 0
M  V30 2429 H 213.748 -0.311654 0.672274 0
M  V30 2430 H 216.395 -0.115006 1.91154 0
M  V30 2431 H 214.7 -2.46084 3.04877 0
M  V30 2432 H 216.397 -2.20793 3.34741 0
M  V30 2433 H 212.987 -1.0275 4.16101 0
M  V30 2434 H 217.171 -0.436632 4.94376 0
M  V30 2435 H 212.427 0.372165 6.10266 0
M  V30 2436 H 216.601 0.957354 6.89788 0
M  V30 2437 H 214.228 1.36778 7.47794 0
M  V30 2438 N 215.803 -1.52179 -0.40978 0
M  V30 2439 C 217.043 -1.67882 -1.16597 0
M  V30 2440 C 217.407 -0.399795 -1.87791 0
M  V30 2441 O 218.608 -0.43292 -2.65291 0
M  V30 2442 C 216.879 -2.86662 -2.13448 0
M  V30 2443 S 218.438 -3.22843 -2.97183 0
M  V30 2444 H 215.256 -0.59118 -0.395002 0
M  V30 2445 H 217.858 -1.9017 -0.453373 0
M  V30 2446 H 216.562 -3.77998 -1.59831 0
M  V30 2447 H 216.093 -2.66645 -2.89247 0
M  V30 2448 H 218.108 -2.71415 -4.15389 0
M  V30 2449 N 217.281 0.66697 -1.42791 0
M  V30 2450 C 218.191 1.80962 -1.49299 0
M  V30 2451 C 219.207 1.69775 -0.381108 0
M  V30 2452 O 220.383 1.91188 -0.633188 0
M  V30 2453 C 217.448 3.17156 -1.40045 0
M  V30 2454 C 216.509 3.40242 -2.6179 0
M  V30 2455 C 215.742 4.69939 -2.52969 0
M  V30 2456 O 215.965 5.48372 -1.56985 0
M  V30 2457 O 214.899 4.94441 -3.43237 0
M  V30 2458 H 218.725 1.78427 -2.45759 0
M  V30 2459 H 216.31 0.823713 -1.24641 0
M  V30 2460 H 218.192 3.98413 -1.37276 0
M  V30 2461 H 216.867 3.20312 -0.467138 0
M  V30 2462 H 215.774 2.58802 -2.70134 0
M  V30 2463 H 217.107 3.41923 -3.54047 0
M  V30 2464 N 218.759 1.29093 0.90403 0
M  V30 2465 C 220.175 1.07011 1.1841 0
M  V30 2466 C 220.375 -0.181358 2.00682 0
M  V30 2467 O 219.431 -0.880331 2.36657 0
M  V30 2468 C 220.744 2.32311 1.90924 0
M  V30 2469 C 222.292 2.37587 2.03768 0
M  V30 2470 C 222.767 3.62679 2.79693 0
M  V30 2471 N 224.258 3.63376 2.87249 0
M  V30 2472 C 224.993 4.56848 3.46522 0
M  V30 2473 N 224.489 5.60648 4.06996 0
M  V30 2474 N 226.282 4.44426 3.44154 0
M  V30 2475 H 218.433 2.09412 0.354993 0
M  V30 2476 H 220.696 0.922181 0.219742 0
M  V30 2477 H 220.402 3.23536 1.37905 0
M  V30 2478 H 220.276 2.39483 2.91424 0
M  V30 2479 H 222.663 1.46853 2.55965 0
M  V30 2480 H 222.744 2.34403 1.02415 0
M  V30 2481 H 222.388 4.53762 2.28173 0
M  V30 2482 H 222.318 3.63119 3.81381 0
M  V30 2483 H 224.809 2.88321 2.44293 0
M  V30 2484 H 225.122 6.28101 4.50232 0
M  V30 2485 H 223.467 5.64463 4.05471 0
M  V30 2486 H 226.658 3.62529 2.96126 0
M  V30 2487 H 226.831 5.17457 3.90054 0
M  V30 2488 N 220.237 -1.11381 1.11499 0
M  V30 2489 C 221.17 -2.16621 0.71769 0
M  V30 2490 C 222.148 -1.60058 -0.286413 0
M  V30 2491 O 223.332 -1.87613 -0.182689 0
M  V30 2492 C 220.459 -3.38646 0.0607265 0
M  V30 2493 C 219.505 -4.13874 1.03008 0
M  V30 2494 S 220.338 -4.70731 2.55289 0
M  V30 2495 C 221.494 -5.96079 1.90895 0
M  V30 2496 H 221.727 -2.49987 1.60915 0
M  V30 2497 H 219.26 -1.23015 0.933092 0
M  V30 2498 H 221.218 -4.09313 -0.311965 0
M  V30 2499 H 219.879 -3.03537 -0.807702 0
M  V30 2500 H 219.072 -5.01333 0.517853 0
M  V30 2501 H 218.674 -3.4897 1.34522 0
M  V30 2502 H 220.966 -6.65948 1.24577 0
M  V30 2503 H 221.909 -6.51946 2.76354 0
M  V30 2504 H 222.317 -5.47652 1.36885 0
M  V30 2505 N 221.715 -0.905404 -1.28997 0
M  V30 2506 C 223.131 -0.60233 -1.47798 0
M  V30 2507 C 223.331 0.854645 -1.82478 0
M  V30 2508 O 222.387 1.63439 -1.92468 0
M  V30 2509 C 223.7 -1.53306 -2.58685 0
M  V30 2510 C 225.248 -1.53887 -2.72558 0
M  V30 2511 C 225.723 -2.45602 -3.86579 0
M  V30 2512 N 227.214 -2.43681 -3.93921 0
M  V30 2513 C 227.949 -3.11347 -4.81509 0
M  V30 2514 N 227.445 -3.88313 -5.73746 0
M  V30 2515 N 229.238 -3.00476 -4.75048 0
M  V30 2516 H 221.389 -1.84765 -1.04764 0
M  V30 2517 H 223.652 -0.792025 -0.520961 0
M  V30 2518 H 223.358 -2.57141 -2.39941 0
M  V30 2519 H 223.232 -1.25787 -3.55609 0
M  V30 2520 H 225.619 -0.507941 -2.90696 0
M  V30 2521 H 225.7 -1.85447 -1.76191 0
M  V30 2522 H 225.344 -3.48792 -3.69197 0
M  V30 2523 H 225.274 -2.11349 -4.82327 0
M  V30 2524 H 227.765 -1.87767 -3.27951 0
M  V30 2525 H 228.078 -4.36985 -6.37389 0
M  V30 2526 H 226.423 -3.92419 -5.73614 0
M  V30 2527 H 229.614 -2.39858 -4.01977 0
M  V30 2528 H 229.787 -3.53485 -5.43095 0
M  V30 2529 N 223.193 1.4272 -0.668489 0
M  V30 2530 C 224.156 2.292 0.00448567 0
M  V30 2531 C 225.156 1.43001 0.735339 0
M  V30 2532 O 226.346 1.64461 0.57429 0
M  V30 2533 C 223.478 3.25375 1.01705 0
M  V30 2534 H 224.671 2.90199 -0.756608 0
M  V30 2535 H 222.224 1.50254 -0.430506 0
M  V30 2536 H 222.959 2.69301 1.80686 0
M  V30 2537 H 222.744 3.88944 0.496463 0
M  V30 2538 H 224.234 3.90245 1.48655 0
M  V30 2539 N 224.671 0.411399 1.52136 0
M  V30 2540 C 225.603 -0.448386 2.24771 0
M  V30 2541 C 226.616 -1.00828 1.27818 0
M  V30 2542 O 227.805 -0.906841 1.53749 0
M  V30 2543 C 224.905 -1.63636 2.96777 0
M  V30 2544 C 224.078 -1.19995 4.20618 0
M  V30 2545 C 223.137 -2.25509 4.75428 0
M  V30 2546 O 222.163 -1.86007 5.3795 0
M  V30 2547 N 223.365 -3.577 4.57199 0
M  V30 2548 H 226.13 0.174025 2.99194 0
M  V30 2549 H 223.691 0.238897 1.60128 0
M  V30 2550 H 225.683 -2.33793 3.30338 0
M  V30 2551 H 224.253 -2.16465 2.25526 0
M  V30 2552 H 223.473 -0.326421 3.92846 0
M  V30 2553 H 224.761 -0.885365 5.01038 0
M  V30 2554 H 224.159 -3.92543 4.07341 0
M  V30 2555 H 222.716 -4.23827 4.95191 0
M  V30 2556 N 226.149 -1.5696 0.141893 0
M  V30 2557 C 227.56 -1.82797 -0.379776 0
M  V30 2558 C 227.911 -1.06033 -1.6508 0
M  V30 2559 O 227.036 -0.304011 -2.14254 0
M  V30 2560 C 227.631 -3.31578 -0.695802 0
M  V30 2561 C 226.19 -3.58014 -1.16201 0
M  V30 2562 C 225.337 -2.76699 -0.182455 0
M  V30 2563 H 228.288 -1.54406 0.366675 0
M  V30 2564 H 228.309 -3.47454 -1.55099 0
M  V30 2565 H 227.821 -3.87421 0.229449 0
M  V30 2566 H 225.922 -3.07553 -2.10338 0
M  V30 2567 H 226.035 -4.66501 -1.09151 0
M  V30 2568 H 224.399 -2.45618 -0.674072 0
M  V30 2569 H 225.182 -3.35311 0.736297 0
M  V30 2570 N 227.627 0.131896 -1.57047 0
M  V30 2571 C 228.875 0.840269 -1.83804 0
M  V30 2572 C 229.196 1.81017 -0.72512 0
M  V30 2573 O 228.466 1.94272 0.251995 0
M  V30 2574 H 227.046 0.313294 -0.678127 0
M  V30 2575 H 229.708 0.122294 -1.94516 0
M  V30 2576 H 228.804 1.39335 -2.79271 0
M  V30 2577 N 229.106 1.52395 0.401703 0
M  V30 2578 C 230.334 1.70676 1.16949 0
M  V30 2579 C 230.749 0.419503 1.8408 0
M  V30 2580 O 230.106 -0.605061 1.72178 0
M  V30 2581 C 230.157 2.84753 2.22706 0
M  V30 2582 O 229.878 4.08495 1.58314 0
M  V30 2583 C 231.379 3.14608 3.12309 0
M  V30 2584 H 228.599 0.571787 0.351142 0
M  V30 2585 H 231.143 1.98987 0.471652 0
M  V30 2586 H 229.298 2.58941 2.88147 0
M  V30 2587 H 229.712 4.72117 2.28485 0
M  V30 2588 H 231.186 3.97923 3.82572 0
M  V30 2589 H 231.663 2.28464 3.75101 0
M  V30 2590 H 232.269 3.42212 2.52529 0
M  V30 2591 N 230.584 -0.659388 1.43143 0
M  V30 2592 C 231.995 -1.24041 1.39537 0
M  V30 2593 C 232.346 -1.95963 0.0963364 0
M  V30 2594 O 231.471 -2.00892 -0.804438 0
M  V30 2595 C 232.066 -2.25601 2.52764 0
M  V30 2596 C 230.625 -2.79195 2.52443 0
M  V30 2597 C 229.772 -1.53743 2.30778 0
M  V30 2598 H 232.723 -0.451792 1.52133 0
M  V30 2599 H 232.744 -3.07651 2.23899 0
M  V30 2600 H 232.256 -1.73226 3.47296 0
M  V30 2601 H 230.357 -3.35649 1.61773 0
M  V30 2602 H 230.47 -3.2716 3.50004 0
M  V30 2603 H 228.834 -1.80869 1.79328 0
M  V30 2604 H 229.617 -1.03312 3.27386 0
M  V30 2605 N 232.062 -1.29571 -0.897171 0
M  V30 2606 C 233.308 -1.17863 -1.65034 0
M  V30 2607 C 233.641 0.268729 -1.92332 0
M  V30 2608 O 232.916 1.19378 -1.53555 0
M  V30 2609 C 233.199 -1.995 -2.99786 0
M  V30 2610 C 233.052 -3.5239 -2.79538 0
M  V30 2611 C 234.371 -1.82335 -4.00552 0
M  V30 2612 H 231.49 -0.429528 -0.598895 0
M  V30 2613 H 234.132 -1.59072 -1.03905 0
M  V30 2614 H 232.282 -1.64485 -3.51962 0
M  V30 2615 H 233.954 -3.97401 -2.34244 0
M  V30 2616 H 232.197 -3.77187 -2.14273 0
M  V30 2617 H 232.868 -4.04787 -3.75302 0
M  V30 2618 H 235.344 -2.12924 -3.57495 0
M  V30 2619 H 234.22 -2.41801 -4.92771 0
M  V30 2620 H 234.481 -0.779209 -4.35179 0
M  V30 2621 N 233.54 1.10788 -1.12088 0
M  V30 2622 C 234.503 2.15207 -0.788577 0
M  V30 2623 C 235.503 1.59609 0.195317 0
M  V30 2624 O 236.693 1.74174 -0.0300193 0
M  V30 2625 C 233.825 3.4047 -0.171174 0
M  V30 2626 H 235.018 2.46116 -1.71368 0
M  V30 2627 H 232.571 1.26089 -0.923652 0
M  V30 2628 H 233.306 3.15176 0.763832 0
M  V30 2629 H 233.091 3.82109 -0.879514 0
M  V30 2630 H 234.581 4.17576 0.04496 0
M  V30 2631 N 235.018 0.912232 1.28515 0
M  V30 2632 C 236.267 0.540504 1.94323 0
M  V30 2633 C 236.58 -0.920044 1.72611 0
M  V30 2634 O 237.786 -1.39986 2.32629 0
M  V30 2635 C 236.242 0.915803 3.48053 0
M  V30 2636 C 235.85 2.39598 3.78546 0
M  V30 2637 C 237.594 0.614588 4.20027 0
M  V30 2638 C 235.501 2.71148 5.25578 0
M  V30 2639 H 234.431 0.198418 0.727424 0
M  V30 2640 H 237.082 1.11094 1.46049 0
M  V30 2641 H 235.464 0.274168 3.9505 0
M  V30 2642 H 236.638 3.08422 3.42364 0
M  V30 2643 H 234.953 2.66749 3.1974 0
M  V30 2644 H 237.55 0.827002 5.28266 0
M  V30 2645 H 237.893 -0.447531 4.13887 0
M  V30 2646 H 238.426 1.21462 3.78803 0
M  V30 2647 H 235.165 3.76207 5.36794 0
M  V30 2648 H 234.685 2.0696 5.62963 0
M  V30 2649 H 236.364 2.58072 5.93302 0
M  V30 2650 N 236.496 -1.42363 0.676048 0
M  V30 2651 C 237.406 -2.346 -0.00153389 0
M  V30 2652 C 238.422 -1.5516 -0.787485 0
M  V30 2653 O 239.598 -1.87723 -0.729521 0
M  V30 2654 C 236.663 -3.33705 -0.940298 0
M  V30 2655 C 235.724 -4.29042 -0.148739 0
M  V30 2656 C 234.957 -5.23413 -1.04279 0
M  V30 2657 O 235.18 -5.22749 -2.28232 0
M  V30 2658 O 234.114 -5.99795 -0.502925 0
M  V30 2659 H 237.94 -2.94082 0.758268 0
M  V30 2660 H 235.525 -1.42888 0.436289 0
M  V30 2661 H 237.407 -3.94586 -1.47917 0
M  V30 2662 H 236.082 -2.76695 -1.67993 0
M  V30 2663 H 234.989 -3.71571 0.43427 0
M  V30 2664 H 236.322 -4.89097 0.551805 0
M  V30 2665 N 237.974 -0.419461 -1.51915 0
M  V30 2666 C 238.884 0.407528 -2.31033 0
M  V30 2667 C 239.9 1.04413 -1.3919 0
M  V30 2668 O 241.076 1.0434 -1.72265 0
M  V30 2669 C 238.141 1.50365 -3.12396 0
M  V30 2670 C 237.202 0.889029 -4.19994 0
M  V30 2671 C 236.435 1.93291 -4.97468 0
M  V30 2672 O 236.658 3.15259 -4.75361 0
M  V30 2673 O 235.592 1.53339 -5.8204 0
M  V30 2674 H 239.418 -0.237865 -3.02767 0
M  V30 2675 H 237.003 -0.182413 -1.48282 0
M  V30 2676 H 238.885 2.13975 -3.63032 0
M  V30 2677 H 237.56 2.13345 -2.43445 0
M  V30 2678 H 236.467 0.215353 -3.7348 0
M  V30 2679 H 237.8 0.302991 -4.91267 0
M  V30 2680 N 239.452 1.56882 -0.150215 0
M  V30 2681 C 240.362 2.20494 0.801222 0
M  V30 2682 C 241.378 1.19019 1.26927 0
M  V30 2683 O 242.554 1.51607 1.32579 0
M  V30 2684 C 239.619 2.81659 2.02161 0
M  V30 2685 C 238.68 3.9827 1.60249 0
M  V30 2686 C 237.913 4.56508 2.7647 0
M  V30 2687 O 238.136 4.13627 3.92771 0
M  V30 2688 O 237.07 5.46719 2.51757 0
M  V30 2689 H 240.896 3.02315 0.289717 0
M  V30 2690 H 238.481 1.49202 0.0769684 0
M  V30 2691 H 240.363 3.20522 2.73576 0
M  V30 2692 H 239.038 2.02849 2.52258 0
M  V30 2693 H 237.945 3.64117 0.858477 0
M  V30 2694 H 239.278 4.78609 1.14864 0
M  V30 2695 N 240.93 -0.123565 1.57115 0
M  V30 2696 C 242.177 -0.832153 1.84612 0
M  V30 2697 C 242.505 -1.80093 0.734627 0
M  V30 2698 O 241.76 -1.93766 -0.27442 0
M  V30 2699 C 242.059 -1.62016 3.18568 0
M  V30 2700 C 241.725 -0.796084 4.43817 0
M  V30 2701 C 240.387 -0.568816 4.77826 0
M  V30 2702 C 242.739 -0.221364 5.2073 0
M  V30 2703 C 240.067 0.243499 5.86194 0
M  V30 2704 C 242.419 0.578117 6.29953 0
M  V30 2705 C 241.083 0.815744 6.62497 0
M  V30 2706 H 240.353 -0.304507 0.675542 0
M  V30 2707 H 243 -0.0947248 1.91266 0
M  V30 2708 H 241.305 -2.42837 3.0747 0
M  V30 2709 H 243.002 -2.17231 3.37064 0
M  V30 2710 H 239.592 -0.983307 4.17168 0
M  V30 2711 H 243.776 -0.384173 4.94811 0
M  V30 2712 H 239.032 0.436871 6.09837 0
M  V30 2713 H 243.206 1.03046 6.88734 0
M  V30 2714 H 240.833 1.44701 7.46301 0
M  V30 2715 N 242.408 -1.52605 -0.393616 0
M  V30 2716 C 243.633 -1.71592 -1.16495 0
M  V30 2717 C 244.058 -0.43133 -1.83088 0
M  V30 2718 O 243.416 0.612523 -1.7064 0
M  V30 2719 C 243.464 -2.86318 -2.19213 0
M  V30 2720 O 242.568 -2.52969 -3.257 0
M  V30 2721 H 241.909 -0.570734 -0.33935 0
M  V30 2722 H 244.439 -1.99377 -0.459324 0
M  V30 2723 H 244.449 -3.1168 -2.63286 0
M  V30 2724 H 243.124 -3.79511 -1.7013 0
M  V30 2725 H 241.701 -2.38332 -2.86797 0
M  V30 2726 N 243.887 0.651787 -1.4349 0
M  V30 2727 C 244.817 1.77621 -1.51569 0
M  V30 2728 C 245.798 1.66022 -0.370253 0
M  V30 2729 O 246.983 1.85095 -0.587658 0
M  V30 2730 C 244.113 3.16056 -1.43966 0
M  V30 2731 C 243.067 3.4242 -2.56774 0
M  V30 2732 C 242.393 4.8067 -2.34223 0
M  V30 2733 C 243.693 3.37023 -3.99015 0
M  V30 2734 H 245.387 1.71117 -2.45681 0
M  V30 2735 H 242.933 0.821825 -1.18246 0
M  V30 2736 H 244.886 3.94472 -1.48221 0
M  V30 2737 H 243.61 3.23293 -0.463586 0
M  V30 2738 H 242.269 2.66375 -2.51873 0
M  V30 2739 H 241.917 4.84585 -1.34856 0
M  V30 2740 H 241.617 4.9927 -3.09844 0
M  V30 2741 H 243.141 5.61342 -2.40265 0
M  V30 2742 H 244.555 4.05374 -4.05395 0
M  V30 2743 H 242.952 3.67159 -4.74673 0
M  V30 2744 H 244.022 2.3518 -4.2405 0
M  V30 2745 N 245.365 1.30045 0.890287 0
M  V30 2746 C 246.295 1.18541 2.01172 0
M  V30 2747 C 247.276 0.0773356 1.69924 0
M  V30 2748 O 248.461 0.25845 1.92473 0
M  V30 2749 C 245.591 0.870941 3.36202 0
M  V30 2750 C 244.545 1.93637 3.81692 0
M  V30 2751 C 243.871 1.475 5.13953 0
M  V30 2752 C 245.171 3.34666 4.00994 0
M  V30 2753 H 246.865 2.12359 2.11054 0
M  V30 2754 H 244.411 1.02238 1.01407 0
M  V30 2755 H 246.364 0.777141 4.14172 0
M  V30 2756 H 245.088 -0.102926 3.26438 0
M  V30 2757 H 243.747 2.01972 3.05946 0
M  V30 2758 H 243.395 0.489551 5.00612 0
M  V30 2759 H 243.095 2.1876 5.4536 0
M  V30 2760 H 244.619 1.39489 5.94454 0
M  V30 2761 H 246.033 3.2912 4.69417 0
M  V30 2762 H 244.43 4.03966 4.43769 0
M  V30 2763 H 245.5 3.76949 3.05021 0
M  V30 2764 N 246.843 -1.10192 1.12674 0
M  V30 2765 C 248.071 -1.85983 0.906527 0
M  V30 2766 C 248.486 -1.80783 -0.544333 0
M  V30 2767 O 247.843 -1.19834 -1.37645 0
M  V30 2768 C 247.894 -3.34281 1.37618 0
M  V30 2769 O 247.615 -3.39401 2.77017 0
M  V30 2770 C 249.116 -4.26938 1.19325 0
M  V30 2771 H 246.336 -0.587716 0.323775 0
M  V30 2772 H 248.88 -1.39284 1.49734 0
M  V30 2773 H 247.035 -3.78436 0.828539 0
M  V30 2774 H 247.449 -4.31838 2.97684 0
M  V30 2775 H 248.923 -5.29181 1.57071 0
M  V30 2776 H 249.4 -4.38995 0.134097 0
M  V30 2777 H 250.006 -3.8859 1.72852 0
M  V30 2778 N 248.321 -0.919034 -1.28029 0
M  V30 2779 C 249.561 -0.562107 -1.96519 0
M  V30 2780 C 249.925 0.878784 -1.70708 0
M  V30 2781 O 251.126 1.34355 -2.32813 0
M  V30 2782 C 249.397 -0.868953 -3.46676 0
M  V30 2783 S 250.956 -0.619237 -4.34409 0
M  V30 2784 H 247.774 -0.2078 -0.679956 0
M  V30 2785 H 250.376 -1.18562 -1.55446 0
M  V30 2786 H 249.08 -1.91547 -3.62957 0
M  V30 2787 H 248.611 -0.234301 -3.92702 0
M  V30 2788 H 250.626 0.526995 -4.93394 0
M  V30 2789 N 249.799 1.42003 -0.683588 0
M  V30 2790 C 251.024 2.06265 -0.216647 0
M  V30 2791 C 251.449 1.51059 1.12083 0
M  V30 2792 O 250.807 0.632638 1.69904 0
M  V30 2793 C 250.855 3.60191 -0.171759 0
M  V30 2794 O 249.959 4.03396 0.857069 0
M  V30 2795 H 249.3 0.65502 -0.108834 0
M  V30 2796 H 251.83 1.81982 -0.935077 0
M  V30 2797 H 251.84 4.08 0.0014303 0
M  V30 2798 H 250.515 3.99743 -1.14796 0
M  V30 2799 H 249.092 3.67117 0.654208 0
M  V30 2800 N 251.277 0.427512 1.51691 0
M  V30 2801 C 252.526 -0.143679 2.01188 0
M  V30 2802 C 252.839 -1.44642 1.31674 0
M  V30 2803 O 254.045 -2.09997 1.72086 0
M  V30 2804 C 252.501 -0.306602 3.58592 0
M  V30 2805 C 252.109 0.985125 4.37035 0
M  V30 2806 C 253.853 -0.832091 4.16265 0
M  V30 2807 C 251.76 0.788382 5.86122 0
M  V30 2808 H 250.69 -0.0574701 0.751807 0
M  V30 2809 H 253.341 0.555772 1.74881 0
M  V30 2810 H 251.723 -1.06882 3.81303 0
M  V30 2811 H 252.897 1.75492 4.26074 0
M  V30 2812 H 251.212 1.4384 3.90767 0
M  V30 2813 H 253.809 -0.995617 5.25349 0
M  V30 2814 H 254.152 -1.81186 3.74803 0
M  V30 2815 H 254.685 -0.128444 3.97593 0
M  V30 2816 H 251.424 1.74025 6.31978 0
M  V30 2817 H 250.944 0.0582143 5.99772 0
M  V30 2818 H 252.623 0.437722 6.45518 0
M  V30 2819 N 252.755 -1.56801 0.158532 0
M  V30 2820 C 254.004 -1.95665 -0.489702 0
M  V30 2821 C 254.317 -1.04654 -1.65248 0
M  V30 2822 O 255.523 -1.33146 -2.3661 0
M  V30 2823 C 253.979 -3.47874 -0.922582 0
M  V30 2824 C 253.587 -4.47489 0.213893 0
M  V30 2825 C 255.331 -3.95583 -1.53996 0
M  V30 2826 C 253.238 -5.90921 -0.237903 0
M  V30 2827 H 252.168 -0.730516 -0.186716 0
M  V30 2828 H 254.819 -1.81861 0.244722 0
M  V30 2829 H 253.201 -3.57051 -1.71261 0
M  V30 2830 H 254.375 -4.50017 0.991036 0
M  V30 2831 H 252.69 -4.09764 0.740407 0
M  V30 2832 H 255.287 -5.0019 -1.8898 0
M  V30 2833 H 255.63 -3.37789 -2.43319 0
M  V30 2834 H 256.163 -3.8937 -0.814611 0
M  V30 2835 H 252.902 -6.52559 0.620236 0
M  V30 2836 H 252.422 -5.91729 -0.980676 0
M  V30 2837 H 254.101 -6.43352 -0.686067 0
M  V30 2838 N 254.233 0.115231 -1.57178 0
M  V30 2839 C 255.473 0.828199 -1.8687 0
M  V30 2840 C 255.837 1.76873 -0.747002 0
M  V30 2841 O 257.038 2.52354 -0.925785 0
M  V30 2842 C 255.309 1.55515 -3.21792 0
M  V30 2843 S 256.868 2.30917 -3.73125 0
M  V30 2844 H 253.686 0.27634 -0.655101 0
M  V30 2845 H 256.288 0.0863469 -1.95309 0
M  V30 2846 H 254.992 0.856248 -4.01368 0
M  V30 2847 H 254.523 2.3373 -3.16439 0
M  V30 2848 H 256.538 3.56705 -3.44929 0
M  V30 2849 N 255.711 1.52812 0.385517 0
M  V30 2850 C 256.941 1.71658 1.14966 0
M  V30 2851 C 257.349 0.436253 1.84102 0
M  V30 2852 O 256.692 -0.599313 1.73649 0
M  V30 2853 C 256.754 2.81309 2.23843 0
M  V30 2854 C 256.418 4.22313 1.74644 0
M  V30 2855 C 257.415 5.05352 1.22129 0
M  V30 2856 C 255.1 4.68648 1.80761 0
M  V30 2857 C 257.094 6.32807 0.763838 0
M  V30 2858 C 254.781 5.96086 1.34627 0
M  V30 2859 C 255.779 6.77996 0.825264 0
M  V30 2860 O 255.467 8.03045 0.370669 0
M  V30 2861 H 255.199 0.578022 0.350523 0
M  V30 2862 H 257.753 2.00263 0.456509 0
M  V30 2863 H 255.983 2.48133 2.96592 0
M  V30 2864 H 257.672 2.88524 2.85497 0
M  V30 2865 H 258.438 4.70736 1.16758 0
M  V30 2866 H 254.317 4.04979 2.20256 0
M  V30 2867 H 257.861 6.96689 0.356494 0
M  V30 2868 H 253.758 6.30205 1.39686 0
M  V30 2869 H 254.526 8.17021 0.491829 0
M  V30 2870 N 257.189 -0.644168 1.43834 0
M  V30 2871 C 258.119 -1.76814 1.52509 0
M  V30 2872 C 259.1 -1.65823 0.379052 0
M  V30 2873 O 260.285 -1.84781 0.597466 0
M  V30 2874 C 257.415 -3.15288 1.4564 0
M  V30 2875 C 256.369 -3.41053 2.58586 0
M  V30 2876 C 255.695 -4.79421 2.36769 0
M  V30 2877 C 256.995 -3.34902 4.00797 0
M  V30 2878 H 258.689 -1.69812 2.46586 0
M  V30 2879 H 256.235 -0.815542 1.1868 0
M  V30 2880 H 258.188 -3.93681 1.50311 0
M  V30 2881 H 256.912 -3.23043 0.480725 0
M  V30 2882 H 255.571 -2.65035 2.53282 0
M  V30 2883 H 255.219 -4.83863 1.37424 0
M  V30 2884 H 254.919 -4.9762 3.12487 0
M  V30 2885 H 256.443 -5.6006 2.43238 0
M  V30 2886 H 257.857 -4.03218 4.07539 0
M  V30 2887 H 256.254 -3.64637 4.76613 0
M  V30 2888 H 257.324 -2.32928 4.25291 0
M  V30 2889 N 258.668 -1.30515 -0.883378 0
M  V30 2890 C 259.896 -1.22359 -1.66841 0
M  V30 2891 C 260.311 0.213296 -1.87591 0
M  V30 2892 O 259.668 1.14075 -1.42454 0
M  V30 2893 C 259.719 -1.95011 -3.04389 0
M  V30 2894 O 259.44 -3.3309 -2.84575 0
M  V30 2895 C 260.941 -1.93532 -3.98824 0
M  V30 2896 H 258.161 -0.423371 -0.520575 0
M  V30 2897 H 260.705 -1.72167 -1.10357 0
M  V30 2898 H 258.86 -1.48997 -3.57601 0
M  V30 2899 H 259.274 -3.69907 -3.71846 0
M  V30 2900 H 260.748 -2.48902 -4.92699 0
M  V30 2901 H 261.225 -0.914627 -4.29571 0
M  V30 2902 H 261.831 -2.39364 -3.51547 0
M  V30 2903 N 260.146 1.09593 -1.13257 0
M  V30 2904 C 261.393 1.81734 -0.893257 0
M  V30 2905 C 261.721 1.8563 0.580656 0
M  V30 2906 O 260.976 1.31906 1.44566 0
M  V30 2907 C 261.275 3.27802 -1.42411 0
M  V30 2908 C 260.941 3.44041 -2.91456 0
M  V30 2909 C 259.603 3.48181 -3.3215 0
M  V30 2910 C 261.955 3.48719 -3.87356 0
M  V30 2911 C 259.283 3.54575 -4.67433 0
M  V30 2912 C 261.635 3.56648 -5.2248 0
M  V30 2913 C 260.299 3.59055 -5.62704 0
M  V30 2914 H 259.569 0.665011 -0.326866 0
M  V30 2915 H 262.216 1.2912 -1.41422 0
M  V30 2916 H 260.521 3.83042 -0.823795 0
M  V30 2917 H 262.218 3.82149 -1.21503 0
M  V30 2918 H 258.808 3.41502 -2.58987 0
M  V30 2919 H 262.992 3.44763 -3.57004 0
M  V30 2920 H 258.248 3.54725 -4.97976 0
M  V30 2921 H 262.422 3.59212 -5.96607 0
M  V30 2922 H 260.049 3.63763 -6.67518 0
M  V30 2923 N 261.624 0.925811 1.2754 0
M  V30 2924 C 262.872 0.564138 1.94067 0
M  V30 2925 C 263.193 -0.897188 1.73134 0
M  V30 2926 O 262.463 -1.63573 1.07799 0
M  V30 2927 H 261.043 0.205645 0.718136 0
M  V30 2928 H 263.705 1.1778 1.55287 0
M  V30 2929 H 262.801 0.76881 3.02483 0
M  V30 2930 N 263.102 -1.41638 0.69111 0
M  V30 2931 C 264.379 -1.95036 0.148421 0
M  V30 2932 C 264.759 -1.63072 -1.34055 0
M  V30 2933 O 264.107 -0.93538 -2.08478 0
M  V30 2934 C 264.317 -3.46279 0.434951 0
M  V30 2935 C 265.665 -4.23069 0.360275 0
M  V30 2936 O 266.689 -3.54277 0.369613 0
M  V30 2937 O 265.548 -5.45583 0.316534 0
M  V30 2938 H 262.642 -0.826908 0.0123654 0
M  V30 2939 H 265.188 -1.5138 0.766963 0
M  V30 2940 H 263.96 -3.6281 1.46576 0
M  V30 2941 H 263.583 -3.97019 -0.214787 0
M  V30 2942 N 264.58 -0.43555 -1.51462 0
M  V30 2943 C 265.527 0.376797 -2.27703 0
M  V30 2944 C 266.497 1.01838 -1.31219 0
M  V30 2945 O 267.682 1.03762 -1.60119 0
M  V30 2946 C 264.822 1.47301 -3.12084 0
M  V30 2947 C 263.935 0.849744 -4.2356 0
M  V30 2948 C 263.07 1.92086 -4.95254 0
M  V30 2949 C 262.109 1.27593 -5.98654 0
M  V30 2950 N 261.246 2.28833 -6.63762 0
M  V30 2951 H 266.086 -0.279734 -2.96684 0
M  V30 2952 H 263.623 -0.149795 -1.46335 0
M  V30 2953 H 265.581 2.11984 -3.59331 0
M  V30 2954 H 264.211 2.0992 -2.45221 0
M  V30 2955 H 263.263 0.0912529 -3.80291 0
M  V30 2956 H 264.575 0.338878 -4.97648 0
M  V30 2957 H 263.729 2.64435 -5.46039 0
M  V30 2958 H 262.468 2.46545 -4.20793 0
M  V30 2959 H 261.473 0.537893 -5.47162 0
M  V30 2960 H 262.698 0.738693 -6.7507 0
M  V30 2961 H 260.644 2.82375 -5.92115 0
M  V30 2962 H 260.561 1.82632 -7.33608 0
M  V30 2963 H 261.829 3.00671 -7.19178 0
M  V30 2964 N 266.058 1.56714 -0.166846 0
M  V30 2965 C 267.307 1.95922 0.479318 0
M  V30 2966 C 267.62 1.05529 1.6469 0
M  V30 2967 O 268.826 1.34399 2.35901 0
M  V30 2968 C 267.282 3.48359 0.90412 0
M  V30 2969 C 266.89 4.47369 -0.237621 0
M  V30 2970 C 268.634 3.96394 1.51896 0
M  V30 2971 C 266.541 5.91039 0.206561 0
M  V30 2972 H 265.471 0.731495 0.18284 0
M  V30 2973 H 268.122 1.81728 -0.254363 0
M  V30 2974 H 266.504 3.57955 1.69365 0
M  V30 2975 H 267.678 4.49485 -1.01489 0
M  V30 2976 H 265.993 4.09366 -0.762128 0
M  V30 2977 H 268.59 5.01186 1.86325 0
M  V30 2978 H 268.933 3.39075 2.41524 0
M  V30 2979 H 269.466 3.89796 0.79395 0
M  V30 2980 H 266.205 6.52221 -0.654834 0
M  V30 2981 H 265.725 5.9224 0.949282 0
M  V30 2982 H 267.404 6.43707 0.651939 0
M  V30 2983 N 267.536 -0.106894 1.57237 0
M  V30 2984 C 268.483 -1.13049 2.01217 0
M  V30 2985 C 269.453 -1.40471 0.886403 0
M  V30 2986 O 270.638 -1.52133 1.15153 0
M  V30 2987 C 267.778 -2.4487 2.43172 0
M  V30 2988 C 266.891 -2.24281 3.69218 0
M  V30 2989 C 266.026 -3.49417 4.00101 0
M  V30 2990 C 265.065 -3.24038 5.19294 0
M  V30 2991 N 264.202 -4.41409 5.45988 0
M  V30 2992 H 269.042 -0.748456 2.88448 0
M  V30 2993 H 266.579 -0.358054 1.42676 0
M  V30 2994 H 268.537 -3.21786 2.65537 0
M  V30 2995 H 267.167 -2.80944 1.58967 0
M  V30 2996 H 266.219 -1.38224 3.54398 0
M  V30 2997 H 267.531 -2.01512 4.56283 0
M  V30 2998 H 266.685 -4.34746 4.2318 0
M  V30 2999 H 265.424 -3.75229 3.11535 0
M  V30 3000 H 264.429 -2.37102 4.96047 0
M  V30 3001 H 265.654 -2.99584 6.09447 0
M  V30 3002 H 263.6 -4.67319 4.60379 0
M  V30 3003 H 263.517 -4.21788 6.274 0
M  V30 3004 H 264.785 -5.27836 5.73593 0
M  V30 3005 N 269.014 -1.53014 -0.377408 0
M  V30 3006 C 270.291 -1.59215 -1.13622 0
M  V30 3007 C 270.671 -0.392407 -2.07421 0
M  V30 3008 O 270.019 0.618342 -2.19975 0
M  V30 3009 C 270.229 -2.93669 -1.88573 0
M  V30 3010 C 271.577 -3.47822 -2.43526 0
M  V30 3011 O 272.601 -2.9562 -1.98715 0
M  V30 3012 O 271.46 -4.39055 -3.25412 0
M  V30 3013 H 268.554 -0.642625 -0.52054 0
M  V30 3014 H 271.1 -1.65353 -0.381625 0
M  V30 3015 H 269.872 -3.7243 -1.20048 0
M  V30 3016 H 269.495 -2.90968 -2.70968 0
M  V30 3017 N 270.492 0.636531 -1.44174 0
M  V30 3018 C 271.769 1.39463 -1.37148 0
M  V30 3019 C 272.149 2.11082 -0.027507 0
M  V30 3020 O 271.497 2.05954 0.989716 0
M  V30 3021 C 271.707 2.36552 -2.56601 0
M  V30 3022 C 273.055 3.00048 -3.00427 0
M  V30 3023 O 274.079 2.46878 -2.56767 0
M  V30 3024 O 272.938 3.96488 -3.76111 0
M  V30 3025 H 270.032 0.623903 -0.542839 0
M  V30 3026 H 272.578 0.662039 -1.56253 0
M  V30 3027 H 271.35 1.82692 -3.46034 0
M  V30 3028 H 270.973 3.17236 -2.39681 0
M  V30 3029 N 271.97 1.30982 0.876444 0
M  V30 3030 C 272.918 1.18006 2.00443 0
M  V30 3031 C 273.912 0.0898871 1.69161 0
M  V30 3032 O 275.118 0.251333 1.78237 0
M  V30 3033 H 271.493 0.365196 0.65737 0
M  V30 3034 H 273.464 2.13453 2.0852 0
M  V30 3035 C 272.213 0.897521 3.35916 0
M  V30 3036 H 271.536 1.7285 3.60504 0
M  V30 3037 H 272.976 0.846874 4.15456 0
M  V30 3038 C 271.435 -0.399674 3.34521 0
M  V30 3039 O 271.965 -1.41852 3.7582 0
M  V30 3040 N 270.171 -0.413893 2.87637 0
M  V30 3041 H 269.718 0.41571 2.54224 0
M  V30 3042 H 269.676 -1.28175 2.87086 0
M  V30 3043 N 273.449 -1.08991 1.13837 0
M  V30 3044 C 274.379 -2.17771 0.842507 0
M  V30 3045 C 275.36 -1.6892 -0.20001 0
M  V30 3046 O 276.545 -1.94113 -0.0579731 0
M  V30 3047 C 273.675 -3.4589 0.312644 0
M  V30 3048 C 272.629 -4.08099 1.28992 0
M  V30 3049 C 271.955 -5.31098 0.619623 0
M  V30 3050 C 273.255 -4.50077 2.65005 0
M  V30 3051 H 274.949 -2.42777 1.75213 0
M  V30 3052 H 272.495 -1.16682 0.843875 0
M  V30 3053 H 274.448 -4.21297 0.0933043 0
M  V30 3054 H 273.172 -3.20419 -0.632382 0
M  V30 3055 H 271.831 -3.34717 1.49533 0
M  V30 3056 H 271.479 -5.0191 -0.33102 0
M  V30 3057 H 271.179 -5.73674 1.27167 0
M  V30 3058 H 272.703 -6.09224 0.409669 0
M  V30 3059 H 274.117 -5.16688 2.48407 0
M  V30 3060 H 272.514 -5.03553 3.26427 0
M  V30 3061 H 273.584 -3.62257 3.22332 0
M  V30 3062 N 274.927 -0.932562 -1.27047 0
M  V30 3063 C 275.86 -0.379774 -2.25018 0
M  V30 3064 C 276.838 0.526587 -1.53837 0
M  V30 3065 O 278.022 0.465992 -1.82649 0
M  V30 3066 C 275.149 0.455187 -3.35627 0
M  V30 3067 C 274.195 -0.388428 -4.24728 0
M  V30 3068 S 275.028 -1.80701 -5.04091 0
M  V30 3069 C 276.184 -0.979865 -6.18182 0
M  V30 3070 H 276.417 -1.2101 -2.71558 0
M  V30 3071 H 273.95 -0.735078 -1.35779 0
M  V30 3072 H 275.908 0.931052 -3.99802 0
M  V30 3073 H 274.569 1.26009 -2.87716 0
M  V30 3074 H 273.762 0.25089 -5.03375 0
M  V30 3075 H 273.364 -0.798649 -3.65373 0
M  V30 3076 H 275.656 -0.218115 -6.77149 0
M  V30 3077 H 276.599 -1.73951 -6.86401 0
M  V30 3078 H 277.007 -0.51973 -5.62102 0
M  V30 3079 N 276.405 1.4127 -0.698611 0
M  V30 3080 C 277.816 1.84187 -0.305289 0
M  V30 3081 C 278.167 1.58449 1.15708 0
M  V30 3082 O 277.292 1.05651 1.88856 0
M  V30 3083 C 277.887 3.3435 -0.547314 0
M  V30 3084 C 276.446 3.75826 -0.207878 0
M  V30 3085 C 275.593 2.64647 -0.828099 0
M  V30 3086 H 278.544 1.30778 -0.89904 0
M  V30 3087 H 278.565 3.8001 0.192998 0
M  V30 3088 H 278.077 3.53051 -1.61172 0
M  V30 3089 H 276.178 3.62725 0.852143 0
M  V30 3090 H 276.291 4.74462 -0.665021 0
M  V30 3091 H 274.655 2.53395 -0.257458 0
M  V30 3092 H 275.438 2.86165 -1.89643 0
M  V30 3093 N 277.883 0.443576 1.51229 0
M  V30 3094 C 278.846 -0.353132 2.26463 0
M  V30 3095 C 279.846 -0.944338 1.3015 0
M  V30 3096 O 281.036 -0.817813 1.5381 0
M  V30 3097 C 278.168 -1.50023 3.06114 0
M  V30 3098 H 279.361 0.3063 2.98332 0
M  V30 3099 H 276.914 0.196902 1.55055 0
M  V30 3100 H 277.649 -2.19553 2.38677 0
M  V30 3101 H 277.434 -1.08241 3.76864 0
M  V30 3102 H 278.924 -2.06296 3.63087 0
M  V30 3103 N 279.361 -1.56624 0.175154 0
M  V30 3104 C 280.591 -2.01082 -0.474283 0
M  V30 3105 C 280.999 -1.05447 -1.57091 0
M  V30 3106 O 280.342 -0.0480595 -1.83637 0
M  V30 3107 C 280.404 -3.41963 -1.10911 0
M  V30 3108 C 280.068 -4.56742 -0.153666 0
M  V30 3109 C 281.065 -5.16076 0.629448 0
M  V30 3110 C 278.75 -5.02277 -0.0483776 0
M  V30 3111 C 280.744 -6.19377 1.50501 0
M  V30 3112 C 278.431 -6.05427 0.830768 0
M  V30 3113 C 279.429 -6.63849 1.60605 0
M  V30 3114 O 279.117 -7.64998 2.47049 0
M  V30 3115 H 278.849 -0.664261 -0.125432 0
M  V30 3116 H 281.403 -2.03549 0.275163 0
M  V30 3117 H 279.633 -3.36422 -1.90676 0
M  V30 3118 H 281.322 -3.70352 -1.66114 0
M  V30 3119 H 282.088 -4.81776 0.558297 0
M  V30 3120 H 277.967 -4.56513 -0.641611 0
M  V30 3121 H 281.511 -6.64906 2.1106 0
M  V30 3122 H 277.408 -6.39151 0.903107 0
M  V30 3123 H 278.176 -7.82336 2.40607 0
M  V30 3124 N 280.839 0.0985539 -1.57292 0
M  V30 3125 C 282.069 0.815135 -1.8984 0
M  V30 3126 C 282.477 1.7297 -0.766679 0
M  V30 3127 O 281.82 1.81698 0.270483 0
M  V30 3128 C 281.882 1.6842 -3.17608 0
M  V30 3129 C 281.546 0.94182 -4.4719 0
M  V30 3130 C 282.543 0.273212 -5.19182 0
M  V30 3131 C 280.228 0.916927 -4.9386 0
M  V30 3132 C 282.222 -0.410361 -6.36078 0
M  V30 3133 C 279.909 0.229567 -6.10669 0
M  V30 3134 C 280.907 -0.432902 -6.81627 0
M  V30 3135 O 280.595 -1.10925 -7.9621 0
M  V30 3136 H 280.327 0.238501 -0.632529 0
M  V30 3137 H 282.881 0.0812659 -2.05239 0
M  V30 3138 H 281.111 2.46022 -2.98345 0
M  V30 3139 H 282.8 2.27704 -3.36015 0
M  V30 3140 H 283.566 0.283927 -4.84168 0
M  V30 3141 H 279.445 1.42201 -4.3852 0
M  V30 3142 H 282.989 -0.928013 -6.914 0
M  V30 3143 H 278.886 0.216686 -6.45136 0
M  V30 3144 H 279.654 -1.01579 -8.12172 0
M  V30 3145 N 282.317 1.53212 0.369288 0
M  V30 3146 C 283.264 1.79388 1.45219 0
M  V30 3147 C 284.234 0.638059 1.53356 0
M  V30 3148 O 285.419 0.879852 1.69302 0
M  V30 3149 C 282.559 1.98623 2.82211 0
M  V30 3150 C 281.672 3.26337 2.8307 0
M  V30 3151 C 280.807 3.35779 4.11614 0
M  V30 3152 C 279.846 4.5754 4.06601 0
M  V30 3153 N 278.983 4.64155 5.26787 0
M  V30 3154 H 283.823 2.71794 1.22198 0
M  V30 3155 H 281.36 1.34642 0.592444 0
M  V30 3156 H 283.318 2.07761 3.61789 0
M  V30 3157 H 281.948 1.09558 3.03639 0
M  V30 3158 H 281 3.26171 1.95747 0
M  V30 3159 H 282.312 4.15988 2.75237 0
M  V30 3160 H 281.466 3.44208 4.99606 0
M  V30 3161 H 280.205 2.44137 4.22195 0
M  V30 3162 H 279.21 4.49215 3.16996 0
M  V30 3163 H 280.435 5.50519 3.97625 0
M  V30 3164 H 278.381 3.75413 5.3796 0
M  V30 3165 H 278.298 5.47706 5.21109 0
M  V30 3166 H 279.566 4.76863 6.16621 0
M  V30 3167 N 283.795 -0.628877 1.44509 0
M  V30 3168 C 285.035 -1.39993 1.48934 0
M  V30 3169 C 285.399 -1.91627 0.119604 0
M  V30 3170 O 286.6 -2.68772 0.0385283 0
M  V30 3171 C 284.871 -2.53241 2.52198 0
M  V30 3172 S 286.43 -3.41383 2.75687 0
M  V30 3173 H 283.248 -0.477558 0.526744 0
M  V30 3174 H 285.85 -0.727804 1.81448 0
M  V30 3175 H 284.554 -2.13622 3.50419 0
M  V30 3176 H 284.085 -3.25278 2.21264 0
M  V30 3177 H 286.1 -4.50752 2.07453 0
M  V30 3178 N 285.273 -1.31445 -0.869486 0
M  V30 3179 C 286.522 -1.20517 -1.61736 0
M  V30 3180 C 286.835 0.235341 -1.94179 0
M  V30 3181 O 288.041 0.466312 -2.67465 0
M  V30 3182 C 286.497 -2.10982 -2.91573 0
M  V30 3183 C 286.105 -3.60032 -2.66611 0
M  V30 3184 C 287.849 -2.08856 -3.69567 0
M  V30 3185 C 285.756 -4.42503 -3.92358 0
M  V30 3186 H 284.686 -0.447493 -0.606849 0
M  V30 3187 H 287.337 -1.56303 -0.96133 0
M  V30 3188 H 285.719 -1.68095 -3.58553 0
M  V30 3189 H 286.893 -4.11167 -2.08035 0
M  V30 3190 H 285.208 -3.64139 -2.0197 0
M  V30 3191 H 287.805 -2.67716 -4.62852 0
M  V30 3192 H 288.148 -1.07582 -4.02159 0
M  V30 3193 H 288.681 -2.49945 -3.09471 0
M  V30 3194 H 285.42 -5.44533 -3.64916 0
M  V30 3195 H 284.94 -3.96125 -4.50383 0
M  V30 3196 H 286.619 -4.54741 -4.60238 0
M  V30 3197 N 286.751 1.08385 -1.14413 0
M  V30 3198 C 287.683 2.1519 -0.789036 0
M  V30 3199 C 288.696 1.61638 0.19417 0
M  V30 3200 O 289.885 1.78479 -0.0275711 0
M  V30 3201 C 286.985 3.38565 -0.15058 0
M  V30 3202 C 286.158 4.21501 -1.16857 0
M  V30 3203 C 285.217 5.23277 -0.553832 0
M  V30 3204 O 284.243 5.56041 -1.21686 0
M  V30 3205 N 285.445 5.76629 0.669296 0
M  V30 3206 H 288.21 2.46257 -1.70814 0
M  V30 3207 H 285.771 1.24198 -1.03858 0
M  V30 3208 H 287.763 4.03777 0.273181 0
M  V30 3209 H 286.333 3.05299 0.671667 0
M  V30 3210 H 285.553 3.52265 -1.76926 0
M  V30 3211 H 286.841 4.73731 -1.85624 0
M  V30 3212 H 286.239 5.52243 1.22654 0
M  V30 3213 H 284.796 6.43521 1.03556 0
M  V30 3214 N 288.23 0.939286 1.26551 0
M  V30 3215 C 289.14 0.453432 2.30176 0
M  V30 3216 C 290.156 -0.471649 1.67486 0
M  V30 3217 O 291.332 -0.35164 1.98306 0
M  V30 3218 C 288.397 -0.275326 3.45605 0
M  V30 3219 C 287.458 0.686084 4.23782 0
M  V30 3220 C 286.691 -0.00798994 5.33699 0
M  V30 3221 O 286.914 -1.22528 5.57085 0
M  V30 3222 O 285.848 0.669746 5.98162 0
M  V30 3223 H 289.674 1.31416 2.73795 0
M  V30 3224 H 287.259 0.705095 1.31715 0
M  V30 3225 H 289.141 -0.685911 4.1578 0
M  V30 3226 H 287.816 -1.11147 3.0402 0
M  V30 3227 H 286.723 1.14658 3.56096 0
M  V30 3228 H 288.056 1.48979 4.69112 0
M  V30 3229 N 289.708 -1.40897 0.706093 0
M  V30 3230 C 290.954 -2.01352 0.241889 0
M  V30 3231 C 291.287 -1.55832 -1.15888 0
M  V30 3232 O 290.562 -0.774145 -1.7843 0
M  V30 3233 C 290.845 -3.58752 0.311311 0
M  V30 3234 C 290.698 -4.1437 1.74978 0
M  V30 3235 C 292.017 -4.38914 -0.322922 0
M  V30 3236 H 289.136 -0.731562 0.0893687 0
M  V30 3237 H 291.778 -1.67504 0.896802 0
M  V30 3238 H 289.928 -3.87718 -0.246302 0
M  V30 3239 H 291.6 -3.96239 2.36205 0
M  V30 3240 H 289.843 -3.69016 2.28057 0
M  V30 3241 H 290.514 -5.23532 1.74981 0
M  V30 3242 H 292.99 -4.15822 0.152089 0
M  V30 3243 H 291.866 -5.48358 -0.243855 0
M  V30 3244 H 292.127 -4.19176 -1.40513 0
M  V30 3245 N 291.186 -0.45159 -1.50991 0
M  V30 3246 C 292.116 0.342898 -2.30969 0
M  V30 3247 C 293.097 1.00815 -1.37005 0
M  V30 3248 O 294.282 1.00907 -1.65926 0
M  V30 3249 C 291.412 1.43637 -3.16205 0
M  V30 3250 C 290.366 0.893818 -4.18563 0
M  V30 3251 C 289.692 2.08411 -4.92411 0
M  V30 3252 C 290.992 -0.0815568 -5.22236 0
M  V30 3253 H 292.686 -0.324556 -2.97636 0
M  V30 3254 H 290.232 -0.157531 -1.43136 0
M  V30 3255 H 292.185 1.9995 -3.70942 0
M  V30 3256 H 290.909 2.13232 -2.47386 0
M  V30 3257 H 289.568 0.352798 -3.64898 0
M  V30 3258 H 289.216 2.76658 -4.20082 0
M  V30 3259 H 288.916 1.72741 -5.61636 0
M  V30 3260 H 290.44 2.65251 -5.49976 0
M  V30 3261 H 291.854 0.391742 -5.7196 0
M  V30 3262 H 290.251 -0.351551 -5.99069 0
M  V30 3263 H 291.321 -1.01374 -4.74185 0
M  V30 3264 N 292.664 1.56529 -0.183458 0
M  V30 3265 C 293.611 2.18546 0.742055 0
M  V30 3266 C 294.581 1.12912 1.2182 0
M  V30 3267 O 295.766 1.41115 1.28418 0
M  V30 3268 C 292.906 2.83977 1.96089 0
M  V30 3269 C 292.019 4.04105 1.52719 0
M  V30 3270 C 291.154 4.57427 2.70063 0
M  V30 3271 C 290.193 5.69938 2.23243 0
M  V30 3272 N 289.33 6.17717 3.33722 0
M  V30 3273 H 294.17 2.97284 0.206432 0
M  V30 3274 H 291.707 1.46823 0.0901571 0
M  V30 3275 H 293.665 3.20077 2.67594 0
M  V30 3276 H 292.295 2.07822 2.47002 0
M  V30 3277 H 291.347 3.73745 0.708436 0
M  V30 3278 H 292.659 4.85513 1.1436 0
M  V30 3279 H 291.813 4.95772 3.49708 0
M  V30 3280 H 290.552 3.75101 3.11689 0
M  V30 3281 H 289.557 5.31133 1.42048 0
M  V30 3282 H 290.782 6.54073 1.82661 0
M  V30 3283 H 288.728 5.38317 3.74902 0
M  V30 3284 H 288.645 6.94146 2.99495 0
M  V30 3285 H 289.913 6.60713 4.13616 0
M  V30 3286 N 294.142 -0.090211 1.57342 0
M  V30 3287 C 295.37 -0.806224 1.90546 0
M  V30 3288 C 295.785 -1.72041 0.777644 0
M  V30 3289 O 295.142 -1.80778 -0.250103 0
M  V30 3290 C 295.193 -1.61546 3.23396 0
M  V30 3291 O 294.914 -0.738043 4.31839 0
M  V30 3292 C 296.415 -2.4341 3.70495 0
M  V30 3293 H 293.635 -0.230256 0.630257 0
M  V30 3294 H 296.179 -0.0659843 2.04394 0
M  V30 3295 H 294.334 -2.30816 3.11131 0
M  V30 3296 H 294.748 -1.29901 5.08159 0
M  V30 3297 H 296.222 -2.95676 4.66133 0
M  V30 3298 H 296.699 -3.22098 2.98579 0
M  V30 3299 H 297.305 -1.79331 3.85643 0
M  V30 3300 N 295.62 -1.53406 -0.361157 0
M  V30 3301 C 296.866 -1.70999 -1.1014 0
M  V30 3302 C 297.221 -0.458425 -1.86859 0
M  V30 3303 O 296.514 0.548654 -1.83577 0
M  V30 3304 C 296.708 -2.90211 -2.08596 0
M  V30 3305 C 296.537 -4.26841 -1.41553 0
M  V30 3306 C 295.307 -4.91621 -1.16778 0
M  V30 3307 C 297.505 -5.07212 -0.850915 0
M  V30 3308 N 295.487 -6.12164 -0.461312 0
M  V30 3309 C 296.858 -6.19394 -0.274046 0
M  V30 3310 C 298.913 -4.92218 -0.750036 0
M  V30 3311 C 297.616 -7.18221 0.393868 0
M  V30 3312 C 299.642 -5.91322 -0.095894 0
M  V30 3313 C 299.004 -7.0283 0.470081 0
M  V30 3314 H 295.103 -0.678939 -0.388028 0
M  V30 3315 H 297.687 -1.90811 -0.38722 0
M  V30 3316 H 295.858 -2.71931 -2.77323 0
M  V30 3317 H 297.59 -2.96606 -2.7533 0
M  V30 3318 H 294.345 -4.50849 -1.45024 0
M  V30 3319 H 294.769 -6.76888 -0.123312 0
M  V30 3320 H 299.411 -4.06192 -1.17337 0
M  V30 3321 H 297.129 -8.03835 0.82914 0
M  V30 3322 H 300.715 -5.81797 -0.0187075 0
M  V30 3323 H 299.595 -7.782 0.968241 0
M  V30 3324 N 297.098 0.621204 -1.44841 0
M  V30 3325 C 298.323 1.41244 -1.51871 0
M  V30 3326 C 298.748 1.87519 -0.147764 0
M  V30 3327 O 298.106 1.59334 0.865 0
M  V30 3328 C 298.154 2.60221 -2.49634 0
M  V30 3329 O 297.258 3.60395 -2.00473 0
M  V30 3330 H 296.599 0.42223 -0.512463 0
M  V30 3331 H 299.129 0.757305 -1.90069 0
M  V30 3332 H 299.139 3.0764 -2.67996 0
M  V30 3333 H 297.814 2.25887 -3.4921 0
M  V30 3334 H 296.391 3.19717 -1.91925 0
M  V30 3335 N 298.576 1.31904 0.862503 0
M  V30 3336 C 299.526 1.16772 1.95827 0
M  V30 3337 C 300.51 0.0767098 1.60717 0
M  V30 3338 O 301.702 0.302407 1.74398 0
M  V30 3339 C 298.831 0.884858 3.317 0
M  V30 3340 C 297.917 2.0172 3.73055 0
M  V30 3341 N 298.308 3.265 3.86305 0
M  V30 3342 C 296.606 1.91861 4.02623 0
M  V30 3343 C 297.307 4.00616 4.2176 0
M  V30 3344 N 296.283 3.28847 4.32852 0
M  V30 3345 H 300.085 2.11382 2.04193 0
M  V30 3346 H 297.599 1.2357 1.05377 0
M  V30 3347 H 299.596 0.757419 4.09962 0
M  V30 3348 H 298.256 -0.0529448 3.24657 0
M  V30 3349 H 299.267 3.61529 3.70833 0
M  V30 3350 H 295.944 1.05593 4.03926 0
M  V30 3351 H 297.334 5.08182 4.39546 0
M  V30 3352 N 300.054 -1.07777 1.14986 0
M  V30 3353 C 301.3 -1.80719 0.93339 0
M  V30 3354 C 301.655 -1.8484 -0.534019 0
M  V30 3355 O 300.948 -1.31795 -1.3907 0
M  V30 3356 C 301.142 -3.25495 1.47608 0
M  V30 3357 C 300.971 -3.3548 2.99472 0
M  V30 3358 C 299.741 -3.46293 3.6798 0
M  V30 3359 C 301.939 -3.26596 3.97291 0
M  V30 3360 N 299.921 -3.45136 5.07695 0
M  V30 3361 C 301.292 -3.32506 5.23297 0
M  V30 3362 C 303.347 -3.10376 3.89321 0
M  V30 3363 C 302.05 -3.23866 6.42264 0
M  V30 3364 C 304.076 -3.03069 5.07842 0
M  V30 3365 C 303.438 -3.09587 6.32721 0
M  V30 3366 H 299.537 -0.674814 0.395158 0
M  V30 3367 H 302.121 -1.28681 1.46114 0
M  V30 3368 H 300.292 -3.75963 0.975022 0
M  V30 3369 H 302.024 -3.86535 1.19887 0
M  V30 3370 H 298.779 -3.50456 3.18555 0
M  V30 3371 H 299.203 -3.48097 5.80653 0
M  V30 3372 H 303.845 -3.04194 2.93642 0
M  V30 3373 H 301.563 -3.28807 7.38181 0
M  V30 3374 H 305.149 -2.91629 5.03432 0
M  V30 3375 H 304.029 -3.0397 7.22891 0
M  V30 3376 N 301.532 -0.945985 -1.26051 0
M  V30 3377 C 302.757 -0.612525 -1.98149 0
M  V30 3378 C 303.182 0.806623 -1.69927 0
M  V30 3379 O 302.54 1.54411 -0.950108 0
M  V30 3380 C 302.588 -0.866981 -3.50023 0
M  V30 3381 O 301.692 0.0585333 -4.12358 0
M  V30 3382 H 301.033 -0.23379 -0.621481 0
M  V30 3383 H 303.563 -1.27023 -1.60395 0
M  V30 3384 H 303.573 -0.789792 -4.00283 0
M  V30 3385 H 302.248 -1.90135 -3.69894 0
M  V30 3386 H 300.825 -0.0701241 -3.72834 0
M  V30 3387 N 303.011 1.40521 -0.713556 0
M  V30 3388 C 304.26 2.00155 -0.249192 0
M  V30 3389 C 304.573 1.57224 1.16362 0
M  V30 3390 O 305.779 2.09542 1.72639 0
M  V30 3391 C 304.235 3.5773 -0.3946 0
M  V30 3392 C 303.843 4.09635 -1.81392 0
M  V30 3393 C 305.587 4.24499 0.00907364 0
M  V30 3394 C 303.494 5.59707 -1.91003 0
M  V30 3395 H 302.424 0.74868 -0.0894114 0
M  V30 3396 H 305.075 1.60784 -0.884352 0
M  V30 3397 H 303.457 3.94792 0.30911 0
M  V30 3398 H 304.631 3.83955 -2.54785 0
M  V30 3399 H 302.946 3.55456 -2.16888 0
M  V30 3400 H 305.543 5.34683 -0.0420404 0
M  V30 3401 H 305.886 4.02824 1.05065 0
M  V30 3402 H 306.419 3.92536 -0.645007 0
M  V30 3403 H 303.158 5.86234 -2.93275 0
M  V30 3404 H 302.678 5.87258 -1.22019 0
M  V30 3405 H 304.357 6.24776 -1.6812 0
M  V30 3406 N 304.489 0.459591 1.5075 0
M  V30 3407 C 305.421 -0.37665 2.26084 0
M  V30 3408 C 306.434 -0.967109 1.30961 0
M  V30 3409 O 307.623 -0.857468 1.56556 0
M  V30 3410 C 304.723 -1.54112 3.01832 0
M  V30 3411 C 303.896 -1.06553 4.24223 0
M  V30 3412 C 302.955 -2.1027 4.82362 0
M  V30 3413 O 301.981 -1.68798 5.43595 0
M  V30 3414 N 303.183 -3.42974 4.68347 0
M  V30 3415 H 305.948 0.269124 2.98489 0
M  V30 3416 H 303.509 0.28972 1.59287 0
M  V30 3417 H 305.501 -2.23165 3.37608 0
M  V30 3418 H 304.071 -2.0918 2.32298 0
M  V30 3419 H 303.291 -0.201274 3.93686 0
M  V30 3420 H 304.579 -0.725516 5.03601 0
M  V30 3421 H 303.977 -3.79385 4.19623 0
M  V30 3422 H 302.534 -4.07858 5.08424 0
M  V30 3423 N 305.967 -1.56429 0.191757 0
M  V30 3424 C 307.216 -1.9666 -0.448088 0
M  V30 3425 C 307.529 -1.08136 -1.62991 0
M  V30 3426 O 308.735 -1.38135 -2.33733 0
M  V30 3427 C 307.191 -3.49753 -0.848585 0
M  V30 3428 C 306.799 -4.46935 0.308764 0
M  V30 3429 C 308.543 -3.9876 -1.4557 0
M  V30 3430 C 306.45 -5.91293 -0.112506 0
M  V30 3431 H 305.38 -0.734312 -0.171179 0
M  V30 3432 H 308.031 -1.81301 0.283242 0
M  V30 3433 H 306.413 -3.60604 -1.63649 0
M  V30 3434 H 307.587 -4.47813 1.08627 0
M  V30 3435 H 305.902 -4.08102 0.827158 0
M  V30 3436 H 308.499 -5.04086 -1.78328 0
M  V30 3437 H 308.842 -3.42875 -2.36099 0
M  V30 3438 H 309.375 -3.9101 -0.731836 0
M  V30 3439 H 306.114 -6.51097 0.758514 0
M  V30 3440 H 305.634 -5.93676 -0.854941 0
M  V30 3441 H 307.313 -6.44663 -0.549448 0
M  V30 3442 N 307.445 0.0818655 -1.57387 0
M  V30 3443 C 308.691 0.784074 -1.8703 0
M  V30 3444 C 309.024 1.77729 -0.782689 0
M  V30 3445 O 308.299 1.93384 0.208051 0
M  V30 3446 C 308.582 1.50105 -3.27323 0
M  V30 3447 C 308.435 0.524925 -4.46727 0
M  V30 3448 C 309.754 2.44843 -3.65705 0
M  V30 3449 H 306.873 0.283582 -0.680257 0
M  V30 3450 H 309.515 0.0474352 -1.89941 0
M  V30 3451 H 307.665 2.12897 -3.24972 0
M  V30 3452 H 309.337 -0.0970111 -4.61198 0
M  V30 3453 H 307.58 -0.160606 -4.33503 0
M  V30 3454 H 308.251 1.064 -5.41648 0
M  V30 3455 H 310.727 1.92135 -3.69085 0
M  V30 3456 H 309.603 2.92018 -4.64776 0
M  V30 3457 H 309.864 3.29197 -2.95096 0
M  V30 3458 N 308.923 1.53595 0.353017 0
M  V30 3459 C 310.2 1.61002 1.11075 0
M  V30 3460 C 310.58 0.425356 2.0677 0
M  V30 3461 O 309.928 -0.583267 2.2093 0
M  V30 3462 C 310.138 2.96631 1.83877 0
M  V30 3463 C 311.486 3.51653 2.37961 0
M  V30 3464 O 312.51 2.98743 1.93987 0
M  V30 3465 O 311.369 4.44177 3.18386 0
M  V30 3466 H 308.463 0.650825 0.510251 0
M  V30 3467 H 311.009 1.6594 0.35527 0
M  V30 3468 H 309.781 3.74293 1.14108 0
M  V30 3469 H 309.404 2.95242 2.66304 0
M  V30 3470 N 310.401 -0.613514 1.45168 0
M  V30 3471 C 311.647 -1.37471 1.49096 0
M  V30 3472 C 311.98 -1.93765 0.129901 0
M  V30 3473 O 311.255 -1.74707 -0.854858 0
M  V30 3474 C 311.538 -2.52701 2.56542 0
M  V30 3475 C 311.391 -2.01643 4.0207 0
M  V30 3476 C 312.71 -3.54849 2.60327 0
M  V30 3477 H 309.829 -0.498502 0.54283 0
M  V30 3478 H 312.471 -0.692125 1.76945 0
M  V30 3479 H 310.621 -3.10931 2.32926 0
M  V30 3480 H 312.293 -1.48108 4.36877 0
M  V30 3481 H 310.536 -1.32688 4.13009 0
M  V30 3482 H 311.207 -2.84681 4.72928 0
M  V30 3483 H 313.683 -3.0645 2.81474 0
M  V30 3484 H 312.559 -4.32973 3.37381 0
M  V30 3485 H 312.82 -4.10079 1.6519 0
M  V30 3486 N 311.879 -1.3236 -0.855495 0
M  V30 3487 C 313.128 -1.22226 -1.60448 0
M  V30 3488 C 313.441 0.214733 -1.94418 0
M  V30 3489 O 314.647 0.437917 -2.67945 0
M  V30 3490 C 313.103 -2.14063 -2.89318 0
M  V30 3491 C 312.711 -3.62839 -2.62777 0
M  V30 3492 C 314.455 -2.12764 -3.67331 0
M  V30 3493 C 312.362 -4.4664 -3.87643 0
M  V30 3494 H 311.292 -0.453904 -0.602069 0
M  V30 3495 H 313.943 -1.57314 -0.944698 0
M  V30 3496 H 312.325 -1.71889 -3.5675 0
M  V30 3497 H 313.499 -4.1335 -2.03662 0
M  V30 3498 H 311.814 -3.66261 -1.98096 0
M  V30 3499 H 314.411 -2.72611 -4.59987 0
M  V30 3500 H 314.754 -1.11841 -4.00995 0
M  V30 3501 H 315.287 -2.53214 -3.06802 0
M  V30 3502 H 312.026 -5.48373 -3.5912 0
M  V30 3503 H 311.546 -4.0088 -4.46156 0
M  V30 3504 H 313.225 -4.59597 -4.55389 0
M  V30 3505 N 313.357 1.07166 -1.15556 0
M  V30 3506 C 314.768 1.6127 -0.940693 0
M  V30 3507 C 315.119 1.89251 0.517551 0
M  V30 3508 O 314.244 1.65937 1.38903 0
M  V30 3509 C 314.839 2.92993 -1.7012 0
M  V30 3510 C 313.398 3.43832 -1.53156 0
M  V30 3511 C 312.545 2.1786 -1.71558 0
M  V30 3512 H 315.496 0.90229 -1.30554 0
M  V30 3513 H 315.517 3.62007 -1.17181 0
M  V30 3514 H 315.029 2.72596 -2.76248 0
M  V30 3515 H 313.13 3.69307 -0.494294 0
M  V30 3516 H 313.243 4.19747 -2.30975 0
M  V30 3517 H 311.607 2.2765 -1.14225 0
M  V30 3518 H 312.39 1.99956 -2.79056 0
M  V30 3519 N 314.835 0.952656 1.25548 0
M  V30 3520 C 316.082 0.606373 1.93208 0
M  V30 3521 C 316.41 -0.85631 1.74636 0
M  V30 3522 O 315.665 -1.62951 1.08376 0
M  V30 3523 C 315.964 0.908818 3.45652 0
M  V30 3524 C 315.63 2.35722 3.84378 0
M  V30 3525 C 314.292 2.75312 3.9466 0
M  V30 3526 C 316.644 3.29793 4.03591 0
M  V30 3527 C 313.972 4.08047 4.21562 0
M  V30 3528 C 316.324 4.62138 4.31985 0
M  V30 3529 C 314.988 5.01528 4.40484 0
M  V30 3530 H 314.258 0.221888 0.706998 0
M  V30 3531 H 316.905 1.20132 1.49133 0
M  V30 3532 H 315.21 0.231456 3.91116 0
M  V30 3533 H 316.907 0.619498 3.96186 0
M  V30 3534 H 313.497 2.04017 3.76928 0
M  V30 3535 H 317.681 3.00397 3.95064 0
M  V30 3536 H 312.937 4.38212 4.26357 0
M  V30 3537 H 317.111 5.35012 4.45797 0
M  V30 3538 H 314.738 6.04406 4.61083 0
M  V30 3539 N 316.313 -1.40141 0.720998 0
M  V30 3540 C 317.243 -2.33339 0.0867621 0
M  V30 3541 C 318.224 -1.53178 -0.739622 0
M  V30 3542 O 319.409 -1.81625 -0.687449 0
M  V30 3543 C 316.539 -3.37194 -0.831728 0
M  V30 3544 C 315.493 -4.27857 -0.110558 0
M  V30 3545 C 314.819 -5.22294 -1.14513 0
M  V30 3546 C 316.119 -5.11872 1.0385 0
M  V30 3547 H 317.813 -2.86626 0.865219 0
M  V30 3548 H 315.359 -1.37814 0.417516 0
M  V30 3549 H 317.312 -4.01335 -1.28485 0
M  V30 3550 H 316.036 -2.82314 -1.64214 0
M  V30 3551 H 314.695 -3.65176 0.322797 0
M  V30 3552 H 314.343 -4.63717 -1.94874 0
M  V30 3553 H 314.043 -5.83797 -0.667446 0
M  V30 3554 H 315.567 -5.89312 -1.59824 0
M  V30 3555 H 316.981 -5.69436 0.664482 0
M  V30 3556 H 315.378 -5.82445 1.4449 0
M  V30 3557 H 316.448 -4.4753 1.86668 0
M  V30 3558 N 317.792 -0.46758 -1.50504 0
M  V30 3559 C 319.208 -0.121533 -1.59137 0
M  V30 3560 C 319.408 1.3717 -1.47603 0
M  V30 3561 O 318.464 2.14464 -1.33272 0
M  V30 3562 C 319.777 -0.6686 -2.93173 0
M  V30 3563 C 321.325 -0.631716 -3.06559 0
M  V30 3564 C 321.8 -1.15627 -4.43164 0
M  V30 3565 N 323.291 -1.11553 -4.49567 0
M  V30 3566 C 324.026 -1.49195 -5.5365 0
M  V30 3567 N 323.522 -1.94269 -6.65005 0
M  V30 3568 N 325.315 -1.4082 -5.44175 0
M  V30 3569 H 317.466 -1.4388 -1.56245 0
M  V30 3570 H 319.729 -0.594784 -0.738198 0
M  V30 3571 H 319.435 -1.71453 -3.07078 0
M  V30 3572 H 319.309 -0.11021 -3.77039 0
M  V30 3573 H 321.696 0.405297 -2.92304 0
M  V30 3574 H 321.777 -1.22687 -2.24458 0
M  V30 3575 H 321.421 -2.1919 -4.58168 0
M  V30 3576 H 321.351 -0.537365 -5.23851 0
M  V30 3577 H 323.842 -0.784895 -3.69659 0
M  V30 3578 H 324.155 -2.21148 -7.40482 0
M  V30 3579 H 322.5 -1.98219 -6.66134 0
M  V30 3580 H 325.691 -1.0545 -4.56068 0
M  V30 3581 H 325.864 -1.70481 -6.25172 0
M  V30 3582 N 319.27 1.56325 -0.20005 0
M  V30 3583 C 320.517 1.97719 0.437411 0
M  V30 3584 C 320.845 1.08709 1.61284 0
M  V30 3585 O 320.1 0.127261 1.95286 0
M  V30 3586 C 320.399 3.4495 0.935103 0
M  V30 3587 C 320.065 4.5072 -0.12749 0
M  V30 3588 C 318.727 4.79368 -0.419451 0
M  V30 3589 C 321.079 5.14268 -0.847231 0
M  V30 3590 C 318.407 5.68854 -1.43604 0
M  V30 3591 C 320.759 6.04852 -1.85301 0
M  V30 3592 C 319.423 6.31855 -2.15211 0
M  V30 3593 H 318.693 0.723507 0.16006 0
M  V30 3594 H 321.34 1.89166 -0.298056 0
M  V30 3595 H 319.645 3.50599 1.74894 0
M  V30 3596 H 321.342 3.74337 1.43781 0
M  V30 3597 H 317.932 4.28458 0.11023 0
M  V30 3598 H 322.116 4.92222 -0.634901 0
M  V30 3599 H 317.372 5.88047 -1.67364 0
M  V30 3600 H 321.546 6.53152 -2.41591 0
M  V30 3601 H 319.173 7.00994 -2.94129 0
M  V30 3602 N 320.748 -0.0735177 1.57428 0
M  V30 3603 C 321.995 -0.772999 1.87166 0
M  V30 3604 C 322.323 -1.77665 0.791551 0
M  V30 3605 O 321.578 -1.94541 -0.212636 0
M  V30 3606 C 321.877 -1.51799 3.23561 0
M  V30 3607 C 321.543 -0.654484 4.46125 0
M  V30 3608 C 320.205 -0.416511 4.79394 0
M  V30 3609 C 322.557 -0.0555862 5.2117 0
M  V30 3610 C 319.885 0.429869 5.85123 0
M  V30 3611 C 322.237 0.778239 6.27795 0
M  V30 3612 C 320.901 1.0261 6.59566 0
M  V30 3613 H 320.171 -0.282861 0.684888 0
M  V30 3614 H 322.818 -0.0338272 1.9147 0
M  V30 3615 H 321.123 -2.32932 3.1504 0
M  V30 3616 H 322.82 -2.06397 3.43804 0
M  V30 3617 H 319.41 -0.850091 4.20085 0
M  V30 3618 H 323.594 -0.226558 4.95783 0
M  V30 3619 H 318.85 0.630665 6.08139 0
M  V30 3620 H 323.024 1.24906 6.85107 0
M  V30 3621 H 320.651 1.68371 7.4132 0
M  V30 3622 N 322.226 -1.5378 -0.344866 0
M  V30 3623 C 323.637 -1.62428 -0.920552 0
M  V30 3624 C 323.988 -0.504747 -1.89596 0
M  V30 3625 O 323.113 0.365711 -2.13287 0
M  V30 3626 C 323.708 -2.94419 -1.67639 0
M  V30 3627 C 322.267 -3.05333 -2.20111 0
M  V30 3628 C 321.414 -2.57866 -1.01982 0
M  V30 3629 H 324.365 -1.58222 -0.123042 0
M  V30 3630 H 324.386 -2.83384 -2.53917 0
M  V30 3631 H 323.898 -3.7588 -0.966224 0
M  V30 3632 H 321.999 -2.28502 -2.94308 0
M  V30 3633 H 322.112 -4.10778 -2.46573 0
M  V30 3634 H 320.476 -2.13241 -1.39285 0
M  V30 3635 H 321.259 -3.41765 -0.324308 0
M  V30 3636 N 323.704 0.605807 -1.45491 0
M  V30 3637 C 324.652 1.73754 -1.54636 0
M  V30 3638 C 325.646 1.64207 -0.416219 0
M  V30 3639 O 326.852 1.69979 -0.592199 0
M  V30 3640 H 323.227 0.574073 -0.485741 0
M  V30 3641 H 325.198 1.63169 -2.49837 0
M  V30 3642 C 323.947 3.12135 -1.53189 0
M  V30 3643 H 323.27 3.20141 -2.39478 0
M  V30 3644 H 324.71 3.91147 -1.63645 0
M  V30 3645 C 323.169 3.35921 -0.256616 0
M  V30 3646 O 323.699 3.96194 0.662798 0
M  V30 3647 N 321.905 2.90204 -0.151751 0
M  V30 3648 H 321.452 2.41336 -0.90081 0
M  V30 3649 H 321.41 3.06492 0.700699 0
M  V30 3650 N 325.182 1.32811 0.848464 0
M  V30 3651 C 326.593 1.21315 1.41914 0
M  V30 3652 C 326.944 -0.171847 1.95446 0
M  V30 3653 O 326.069 -1.07093 1.88043 0
M  V30 3654 C 326.664 2.19631 2.57968 0
M  V30 3655 C 325.223 2.12003 3.11017 0
M  V30 3656 C 324.37 2.07651 1.83783 0
M  V30 3657 H 327.321 1.44549 0.655071 0
M  V30 3658 H 327.342 1.79845 3.35315 0
M  V30 3659 H 326.854 3.20423 2.18976 0
M  V30 3660 H 324.955 1.14481 3.54577 0
M  V30 3661 H 325.068 3.02111 3.71841 0
M  V30 3662 H 323.432 1.52983 2.03638 0
M  V30 3663 H 324.215 3.10235 1.47 0
M  V30 3664 N 326.66 -1.06551 1.16123 0
M  V30 3665 C 327.908 -1.78947 0.939267 0
M  V30 3666 C 328.229 -1.87532 -0.534476 0
M  V30 3667 O 327.499 -1.38211 -1.38833 0
M  V30 3668 H 326.079 -0.662807 0.344523 0
M  V30 3669 H 328.741 -1.28725 1.46342 0
M  V30 3670 H 327.837 -2.81117 1.35572 0
M  V30 3671 N 328.138 -0.959301 -1.25041 0
M  V30 3672 C 329.068 -0.501388 -2.28053 0
M  V30 3673 C 330.049 0.454673 -1.63911 0
M  V30 3674 O 331.234 0.352618 -1.90972 0
M  V30 3675 C 328.364 0.217224 -3.4662 0
M  V30 3676 C 327.318 -0.654034 -4.22973 0
M  V30 3677 C 326.644 0.195589 -5.34342 0
M  V30 3678 C 327.944 -1.93447 -4.85155 0
M  V30 3679 H 329.638 -1.36238 -2.66608 0
M  V30 3680 H 327.184 -0.656534 -1.28163 0
M  V30 3681 H 329.137 0.548732 -4.17812 0
M  V30 3682 H 327.861 1.1125 -3.07068 0
M  V30 3683 H 326.52 -0.968693 -3.5357 0
M  V30 3684 H 326.168 1.09076 -4.91031 0
M  V30 3685 H 325.868 -0.384091 -5.86343 0
M  V30 3686 H 327.392 0.521958 -6.08365 0
M  V30 3687 H 328.806 -1.66908 -5.48466 0
M  V30 3688 H 327.203 -2.46018 -5.47353 0
M  V30 3689 H 328.273 -2.63466 -4.07079 0
M  V30 3690 N 329.616 1.39756 -0.72842 0
M  V30 3691 C 331.032 1.5442 -0.403308 0
M  V30 3692 C 331.232 1.69694 1.08656 0
M  V30 3693 O 330.288 1.69373 1.87267 0
M  V30 3694 C 331.601 2.76555 -1.18058 0
M  V30 3695 C 333.149 2.90384 -1.16815 0
M  V30 3696 C 333.624 4.15449 -1.92785 0
M  V30 3697 N 335.115 4.22475 -1.89918 0
M  V30 3698 C 335.85 5.1818 -2.45514 0
M  V30 3699 N 335.346 6.19714 -3.09719 0
M  V30 3700 N 337.139 5.1035 -2.35584 0
M  V30 3701 H 329.29 1.28089 -1.69431 0
M  V30 3702 H 331.553 0.620327 -0.716867 0
M  V30 3703 H 331.259 2.7159 -2.23455 0
M  V30 3704 H 331.133 3.69033 -0.780662 0
M  V30 3705 H 333.52 2.94846 -0.12234 0
M  V30 3706 H 333.601 1.98988 -1.6074 0
M  V30 3707 H 333.245 4.11749 -2.97364 0
M  V30 3708 H 333.175 5.05877 -1.46272 0
M  V30 3709 H 335.666 3.49743 -1.43138 0
M  V30 3710 H 335.979 6.8919 -3.49625 0
M  V30 3711 H 334.324 6.20121 -3.13807 0
M  V30 3712 H 337.515 4.2996 -1.85072 0
M  V30 3713 H 337.688 5.84761 -2.79211 0
M  V30 3714 N 331.094 0.475555 1.50254 0
M  V30 3715 C 332.51 0.12997 1.5907 0
M  V30 3716 C 332.71 -1.36385 1.48328 0
M  V30 3717 O 331.766 -2.13754 1.34407 0
M  V30 3718 C 333.079 0.684139 2.92814 0
M  V30 3719 C 334.627 0.647965 3.0622 0
M  V30 3720 C 335.102 1.17975 4.42545 0
M  V30 3721 N 336.593 1.13936 4.48969 0
M  V30 3722 C 337.328 1.52129 5.52851 0
M  V30 3723 N 336.824 1.97793 6.63965 0
M  V30 3724 N 338.617 1.43704 5.4342 0
M  V30 3725 H 330.768 1.44706 1.55479 0
M  V30 3726 H 333.031 0.598691 0.735033 0
M  V30 3727 H 332.737 1.73079 3.06164 0
M  V30 3728 H 332.611 0.130204 3.76975 0
M  V30 3729 H 334.998 -0.38979 2.92514 0
M  V30 3730 H 335.079 1.23876 2.23805 0
M  V30 3731 H 334.723 2.21616 4.57 0
M  V30 3732 H 334.653 0.565138 5.23559 0
M  V30 3733 H 337.144 0.804488 3.69238 0
M  V30 3734 H 337.457 2.25072 7.39299 0
M  V30 3735 H 335.802 2.01749 6.65073 0
M  V30 3736 H 338.993 1.07867 4.55502 0
M  V30 3737 H 339.166 1.73794 6.24259 0
M  V30 3738 N 332.573 -1.56217 0.208337 0
M  V30 3739 C 333.503 -2.22694 -0.702116 0
M  V30 3740 C 334.484 -1.19432 -1.2112 0
M  V30 3741 O 335.669 -1.47978 -1.25762 0
M  V30 3742 C 332.799 -2.8966 -1.9161 0
M  V30 3743 C 331.753 -3.9928 -1.5414 0
M  V30 3744 C 331.079 -4.53476 -2.83308 0
M  V30 3745 C 332.379 -5.17012 -0.741339 0
M  V30 3746 H 334.073 -2.99034 -0.147898 0
M  V30 3747 H 331.619 -1.43831 -0.0696951 0
M  V30 3748 H 333.572 -3.34852 -2.55836 0
M  V30 3749 H 332.296 -2.10746 -2.49507 0
M  V30 3750 H 330.955 -3.54799 -0.922668 0
M  V30 3751 H 330.603 -3.71308 -3.39322 0
M  V30 3752 H 330.303 -5.27451 -2.58976 0
M  V30 3753 H 331.827 -5.01378 -3.485 0
M  V30 3754 H 333.241 -5.58667 -1.28699 0
M  V30 3755 H 331.638 -5.97137 -0.595627 0
M  V30 3756 H 332.708 -4.8423 0.254851 0
M  V30 3757 N 334.051 0.0651679 -1.57465 0
M  V30 3758 C 334.998 1.07675 -2.04144 0
M  V30 3759 C 335.968 1.38071 -0.923335 0
M  V30 3760 O 337.153 1.49026 -1.19146 0
M  V30 3761 C 334.293 2.38337 -2.49579 0
M  V30 3762 C 333.406 2.14413 -3.75035 0
M  V30 3763 C 332.541 3.38686 -4.09225 0
M  V30 3764 C 331.58 3.10156 -5.27702 0
M  V30 3765 N 330.717 4.26778 -5.57499 0
M  V30 3766 H 335.557 0.671716 -2.90331 0
M  V30 3767 H 333.094 0.3201 -1.43575 0
M  V30 3768 H 335.052 3.14632 -2.73975 0
M  V30 3769 H 333.682 2.7663 -1.6636 0
M  V30 3770 H 332.734 1.2878 -3.57939 0
M  V30 3771 H 334.046 1.89344 -4.61466 0
M  V30 3772 H 333.2 4.23373 -4.34558 0
M  V30 3773 H 331.939 3.66837 -3.21374 0
M  V30 3774 H 330.944 2.23866 -5.02159 0
M  V30 3775 H 332.169 2.8332 -6.17176 0
M  V30 3776 H 330.115 4.54948 -4.72608 0
M  V30 3777 H 330.032 4.05005 -6.38362 0
M  V30 3778 H 331.3 5.12443 -5.87386 0
M  V30 3779 N 335.529 1.53961 0.336706 0
M  V30 3780 C 336.461 1.78751 1.4346 0
M  V30 3781 C 337.474 0.669019 1.48418 0
M  V30 3782 O 338.663 0.945884 1.51378 0
M  V30 3783 C 335.763 1.87844 2.82078 0
M  V30 3784 C 334.936 3.17854 3.00479 0
M  V30 3785 C 333.995 3.17816 4.19379 0
M  V30 3786 O 333.021 3.91511 4.13168 0
M  V30 3787 N 334.223 2.40669 5.2826 0
M  V30 3788 H 336.988 2.73493 1.22563 0
M  V30 3789 H 334.549 1.53096 0.526625 0
M  V30 3790 H 336.541 1.85261 3.59806 0
M  V30 3791 H 335.111 1.00257 2.96086 0
M  V30 3792 H 334.331 3.33504 2.10163 0
M  V30 3793 H 335.619 4.03718 3.0966 0
M  V30 3794 H 335.017 1.8036 5.36178 0
M  V30 3795 H 333.574 2.43877 6.04456 0
M  V30 3796 N 337.007 -0.598083 1.45811 0
M  V30 3797 C 337.97 -1.69018 1.54808 0
M  V30 3798 C 338.97 -1.55037 0.426652 0
M  V30 3799 O 340.16 -1.59932 0.690456 0
M  V30 3800 C 337.292 -3.0835 1.45371 0
M  V30 3801 H 338.485 -1.62403 2.52121 0
M  V30 3802 H 336.038 -0.814626 1.33392 0
M  V30 3803 H 336.773 -3.20534 0.492793 0
M  V30 3804 H 336.558 -3.19907 2.26721 0
M  V30 3805 H 338.048 -3.8788 1.54721 0
M  V30 3806 N 338.485 -1.33259 -0.841409 0
M  V30 3807 C 339.734 -1.23921 -1.59143 0
M  V30 3808 C 340.047 0.1941 -1.94635 0
M  V30 3809 O 341.253 0.409474 -2.68394 0
M  V30 3810 C 339.709 -2.17119 -2.87032 0
M  V30 3811 C 339.317 -3.65606 -2.58914 0
M  V30 3812 C 341.061 -2.16648 -3.65053 0
M  V30 3813 C 338.968 -4.50726 -3.82884 0
M  V30 3814 H 337.898 -0.460264 -0.597221 0
M  V30 3815 H 340.549 -1.58307 -0.927959 0
M  V30 3816 H 338.931 -1.75663 -3.54906 0
M  V30 3817 H 340.105 -4.15487 -1.99267 0
M  V30 3818 H 338.42 -3.68341 -1.942 0
M  V30 3819 H 341.017 -2.77474 -4.57069 0
M  V30 3820 H 341.36 -1.16088 -3.99787 0
M  V30 3821 H 341.893 -2.56453 -3.041 0
M  V30 3822 H 338.632 -5.52151 -3.53283 0
M  V30 3823 H 338.152 -4.0559 -4.41879 0
M  V30 3824 H 339.831 -4.64401 -4.50489 0
M  V30 3825 N 339.963 1.05934 -1.16686 0
M  V30 3826 C 340.873 2.17014 -0.891183 0
M  V30 3827 C 341.889 1.73453 0.137907 0
M  V30 3828 O 343.065 2.01361 -0.039592 0
M  V30 3829 C 340.13 3.44384 -0.400099 0
M  V30 3830 C 339.191 4.02433 -1.49486 0
M  V30 3831 C 338.424 5.23723 -1.02711 0
M  V30 3832 O 338.647 5.7027 0.121716 0
M  V30 3833 O 337.581 5.7382 -1.81699 0
M  V30 3834 H 341.407 2.43113 -1.82015 0
M  V30 3835 H 338.992 1.15541 -0.947132 0
M  V30 3836 H 340.874 4.21189 -0.133392 0
M  V30 3837 H 339.549 3.19802 0.500817 0
M  V30 3838 H 338.456 3.27102 -1.81535 0
M  V30 3839 H 339.789 4.31317 -2.37121 0
M  V30 3840 N 341.441 0.965919 1.2453 0
M  V30 3841 C 342.388 0.49402 2.25451 0
M  V30 3842 C 343.358 -0.45948 1.59618 0
M  V30 3843 O 344.543 -0.370238 1.87173 0
M  V30 3844 C 341.683 -0.211359 3.44452 0
M  V30 3845 C 340.796 0.7807 4.24887 0
M  V30 3846 C 339.931 0.0516105 5.31175 0
M  V30 3847 C 338.97 1.03385 6.03306 0
M  V30 3848 N 338.107 0.334887 7.01301 0
M  V30 3849 H 342.947 1.35946 2.65184 0
M  V30 3850 H 340.484 0.681515 1.3036 0
M  V30 3851 H 342.442 -0.637 4.12308 0
M  V30 3852 H 341.072 -1.04077 3.05562 0
M  V30 3853 H 340.124 1.32479 3.56586 0
M  V30 3854 H 341.436 1.52978 4.74762 0
M  V30 3855 H 340.59 -0.432114 6.05159 0
M  V30 3856 H 339.329 -0.730179 4.82203 0
M  V30 3857 H 338.334 1.52847 5.28127 0
M  V30 3858 H 339.559 1.81606 6.54367 0
M  V30 3859 H 337.505 -0.427959 6.54603 0
M  V30 3860 H 337.422 1.02287 7.49048 0
M  V30 3861 H 338.69 -0.126928 7.79397 0
M  V30 3862 N 342.919 -1.39368 0.735821 0
M  V30 3863 C 344.335 -1.54204 0.411492 0
M  V30 3864 C 344.535 -1.70268 -1.07755 0
M  V30 3865 O 343.591 -1.70364 -1.86366 0
M  V30 3866 C 344.904 -2.75925 1.19523 0
M  V30 3867 C 346.452 -2.89761 1.18354 0
M  V30 3868 C 346.927 -4.14421 1.94986 0
M  V30 3869 N 348.418 -4.21462 1.92156 0
M  V30 3870 C 349.153 -5.16871 2.48258 0
M  V30 3871 N 348.649 -6.18063 3.13001 0
M  V30 3872 N 350.442 -5.09093 2.38287 0
M  V30 3873 H 342.593 -1.27189 1.70108 0
M  V30 3874 H 344.856 -0.616517 0.720147 0
M  V30 3875 H 344.562 -2.70401 2.24892 0
M  V30 3876 H 344.436 -3.68614 0.800222 0
M  V30 3877 H 346.823 -2.94777 0.137975 0
M  V30 3878 H 346.904 -1.98133 1.61793 0
M  V30 3879 H 346.548 -4.10166 2.99543 0
M  V30 3880 H 346.478 -5.05095 1.48953 0
M  V30 3881 H 348.969 -3.48979 1.44991 0
M  V30 3882 H 349.282 -6.87326 3.53275 0
M  V30 3883 H 347.627 -6.18448 3.17091 0
M  V30 3884 H 350.818 -4.28973 1.8735 0
M  V30 3885 H 350.991 -5.83272 2.82308 0
M  V30 3886 N 344.397 -0.483516 -1.5 0
M  V30 3887 C 345.674 0.129337 -1.95172 0
M  V30 3888 C 346.054 1.55802 -1.4244 0
M  V30 3889 O 345.402 2.19625 -0.630649 0
M  V30 3890 C 345.612 0.0599251 -3.48949 0
M  V30 3891 C 346.96 0.242617 -4.23906 0
M  V30 3892 O 347.984 0.135933 -3.55941 0
M  V30 3893 O 346.843 0.459454 -5.44565 0
M  V30 3894 H 343.937 0.104887 -0.820322 0
M  V30 3895 H 346.483 -0.544807 -1.60717 0
M  V30 3896 H 345.255 -0.937079 -3.79914 0
M  V30 3897 H 344.878 0.774984 -3.89974 0
M  V30 3898 N 345.875 1.56104 -0.216619 0
M  V30 3899 C 346.825 2.16703 0.708798 0
M  V30 3900 C 347.809 1.11392 1.16106 0
M  V30 3901 O 349.001 1.37395 1.11587 0
M  V30 3902 C 346.13 2.84666 1.91886 0
M  V30 3903 C 345.216 3.97195 1.48651 0
M  V30 3904 N 345.607 4.99959 0.766434 0
M  V30 3905 C 343.905 4.09193 1.77418 0
M  V30 3906 C 344.606 5.79126 0.546659 0
M  V30 3907 N 343.582 5.32315 1.10188 0
M  V30 3908 H 347.384 2.93516 0.150162 0
M  V30 3909 H 344.898 1.6239 -0.0176768 0
M  V30 3910 H 346.895 3.26486 2.59253 0
M  V30 3911 H 345.555 2.09347 2.48202 0
M  V30 3912 H 346.566 5.16197 0.419634 0
M  V30 3913 H 343.243 3.45021 2.35088 0
M  V30 3914 H 344.633 6.71895 -0.026103 0
M  V30 3915 N 347.353 -0.0568162 1.57498 0
M  V30 3916 C 348.602 -0.752001 1.87157 0
M  V30 3917 C 348.915 -1.77978 0.811375 0
M  V30 3918 O 350.121 -2.52559 0.996293 0
M  V30 3919 C 348.577 -1.38844 3.3204 0
M  V30 3920 C 348.185 -0.398456 4.46225 0
M  V30 3921 C 349.929 -2.06512 3.70882 0
M  V30 3922 C 347.836 -1.04166 5.82154 0
M  V30 3923 H 346.766 -0.28461 0.698222 0
M  V30 3924 H 349.417 -0.00561272 1.83499 0
M  V30 3925 H 347.799 -2.1836 3.30356 0
M  V30 3926 H 348.973 0.367977 4.59328 0
M  V30 3927 H 347.288 0.174592 4.16034 0
M  V30 3928 H 349.885 -2.55437 4.6974 0
M  V30 3929 H 350.228 -2.87117 3.01445 0
M  V30 3930 H 350.761 -1.33808 3.7462 0
M  V30 3931 H 347.5 -0.275614 6.5492 0
M  V30 3932 H 347.02 -1.7786 5.72823 0
M  V30 3933 H 348.699 -1.55715 6.27982 0
M  V30 3934 N 348.832 -1.54138 -0.328536 0
M  V30 3935 C 350.078 -1.7236 -1.06865 0
M  V30 3936 C 350.411 -0.493231 -1.87832 0
M  V30 3937 O 349.686 0.5098 -1.877 0
M  V30 3938 C 349.969 -2.99621 -1.99747 0
M  V30 3939 C 349.822 -4.32899 -1.22143 0
M  V30 3940 C 351.141 -3.22615 -2.99345 0
M  V30 3941 H 348.26 -0.627151 -0.387105 0
M  V30 3942 H 350.902 -1.86827 -0.345767 0
M  V30 3943 H 349.052 -2.87418 -2.61387 0
M  V30 3944 H 350.724 -4.56978 -0.630017 0
M  V30 3945 H 348.967 -4.30628 -0.523628 0
M  V30 3946 H 349.638 -5.18154 -1.90318 0
M  V30 3947 H 352.114 -3.34248 -2.47826 0
M  V30 3948 H 350.99 -4.13027 -3.61524 0
M  V30 3949 H 351.251 -2.3961 -3.71536 0
M  V30 3950 N 350.31 0.590341 -1.46126 0
M  V30 3951 C 351.22 1.72793 -1.58681 0
M  V30 3952 C 352.236 1.67516 -0.470566 0
M  V30 3953 O 353.412 1.87562 -0.733642 0
M  V30 3954 C 350.477 3.09287 -1.5666 0
M  V30 3955 C 349.538 3.25886 -2.79458 0
M  V30 3956 C 348.771 4.55869 -2.77524 0
M  V30 3957 O 348.994 5.3928 -1.85832 0
M  V30 3958 O 347.928 4.75552 -3.68964 0
M  V30 3959 H 351.754 1.65149 -2.54872 0
M  V30 3960 H 349.339 0.756486 -1.28832 0
M  V30 3961 H 351.221 3.90577 -1.58202 0
M  V30 3962 H 349.896 3.17385 -0.636271 0
M  V30 3963 H 348.803 2.44119 -2.83472 0
M  V30 3964 H 350.136 3.22675 -3.71674 0
M  V30 3965 N 351.788 1.33704 0.83433 0
M  V30 3966 C 352.721 1.18675 1.94914 0
M  V30 3967 C 353.699 0.0811145 1.62398 0
M  V30 3968 O 354.883 0.244186 1.86912 0
M  V30 3969 C 352.01 0.821231 3.28593 0
M  V30 3970 C 351.056 1.93501 3.80079 0
M  V30 3971 S 351.889 3.54671 4.01209 0
M  V30 3972 C 353.045 3.20136 5.37833 0
M  V30 3973 H 353.278 2.13043 2.07364 0
M  V30 3974 H 350.811 1.18598 0.988624 0
M  V30 3975 H 352.769 0.617123 4.05835 0
M  V30 3976 H 351.43 -0.103927 3.13928 0
M  V30 3977 H 350.623 1.63273 4.76821 0
M  V30 3978 H 350.225 2.09601 3.09747 0
M  V30 3979 H 352.517 2.71242 6.20833 0
M  V30 3980 H 353.46 4.15975 5.73036 0
M  V30 3981 H 353.868 2.56613 5.02802 0
M  V30 3982 N 353.266 -1.05314 1.17247 0
M  V30 3983 C 354.198 -2.13023 0.845812 0
M  V30 3984 C 355.211 -1.62096 -0.151246 0
M  V30 3985 O 356.4 -1.78343 0.0748818 0
M  V30 3986 C 353.5 -3.38047 0.240292 0
M  V30 3987 C 352.673 -4.18255 1.27991 0
M  V30 3988 C 351.732 -5.21625 0.692375 0
M  V30 3989 O 350.758 -5.52619 1.36385 0
M  V30 3990 N 351.96 -5.78201 -0.516178 0
M  V30 3991 H 354.725 -2.41642 1.77283 0
M  V30 3992 H 352.286 -1.21401 1.07115 0
M  V30 3993 H 354.278 -4.04359 -0.16603 0
M  V30 3994 H 352.848 -3.06972 -0.590487 0
M  V30 3995 H 352.068 -3.47451 1.86203 0
M  V30 3996 H 353.356 -4.68643 1.98119 0
M  V30 3997 H 352.754 -5.55301 -1.07969 0
M  V30 3998 H 351.311 -6.4604 -0.86458 0
M  V30 3999 N 354.744 -0.972509 -1.24016 0
M  V30 4000 C 355.674 -0.525548 -2.27509 0
M  V30 4001 C 356.655 0.437262 -1.64384 0
M  V30 4002 O 357.84 0.332343 -1.91335 0
M  V30 4003 C 354.97 0.180448 -3.46831 0
M  V30 4004 C 353.924 -0.698859 -4.22256 0
M  V30 4005 C 353.25 0.138903 -5.3452 0
M  V30 4006 C 354.55 -1.98582 -4.83076 0
M  V30 4007 H 356.244 -1.39058 -2.65148 0
M  V30 4008 H 353.79 -0.67009 -1.27459 0
M  V30 4009 H 355.743 0.504387 -4.18371 0
M  V30 4010 H 354.467 1.07987 -3.08231 0
M  V30 4011 H 353.126 -1.00614 -3.52523 0
M  V30 4012 H 352.774 1.03862 -4.9216 0
M  V30 4013 H 352.474 -0.446259 -5.85903 0
M  V30 4014 H 353.998 0.457404 -6.08884 0
M  V30 4015 H 355.412 -1.72715 -5.46665 0
M  V30 4016 H 353.809 -2.5181 -5.44713 0
M  V30 4017 H 354.879 -2.67769 -4.04262 0
M  V30 4018 N 356.222 1.38976 -0.743202 0
M  V30 4019 C 357.638 1.53984 -0.419664 0
M  V30 4020 C 357.838 1.70837 1.0685 0
M  V30 4021 O 356.894 1.7135 1.8546 0
M  V30 4022 C 358.207 2.75287 -1.20985 0
M  V30 4023 C 359.755 2.89129 -1.19889 0
M  V30 4024 C 360.23 4.13381 -1.97181 0
M  V30 4025 N 361.721 4.20437 -1.94389 0
M  V30 4026 C 362.456 5.15547 -2.50996 0
M  V30 4027 N 361.952 6.16395 -3.16274 0
M  V30 4028 N 363.745 5.07822 -2.40984 0
M  V30 4029 H 355.896 1.26285 -1.7078 0
M  V30 4030 H 358.159 0.612689 -0.723406 0
M  V30 4031 H 357.865 2.69204 -2.26323 0
M  V30 4032 H 357.739 3.68184 -0.819759 0
M  V30 4033 H 360.126 2.947 -0.153606 0
M  V30 4034 H 360.207 1.97272 -1.62841 0
M  V30 4035 H 359.851 4.08572 -3.01714 0
M  V30 4036 H 359.781 5.04298 -1.51629 0
M  V30 4037 H 362.272 3.48205 -1.46839 0
M  V30 4038 H 362.585 6.85443 -3.56915 0
M  V30 4039 H 360.93 6.16758 -3.20367 0
M  V30 4040 H 364.121 4.27973 -1.89622 0
M  V30 4041 H 364.294 5.81767 -2.85397 0
M  V30 4042 N 357.7 0.491464 1.49741 0
M  V30 4043 C 358.632 -0.328609 2.26832 0
M  V30 4044 C 359.645 -0.939113 1.32983 0
M  V30 4045 O 360.834 -0.824067 1.58339 0
M  V30 4046 C 357.934 -1.47675 3.05033 0
M  V30 4047 C 357.107 -0.975305 4.26388 0
M  V30 4048 C 356.166 -1.99991 4.86714 0
M  V30 4049 O 355.192 -1.57229 5.47054 0
M  V30 4050 N 356.394 -3.32962 4.75517 0
M  V30 4051 H 359.159 0.332377 2.97851 0
M  V30 4052 H 356.72 0.323441 1.58636 0
M  V30 4053 H 358.712 -2.15954 3.42266 0
M  V30 4054 H 357.282 -2.04206 2.36683 0
M  V30 4055 H 356.502 -0.117723 3.94024 0
M  V30 4056 H 357.79 -0.618531 5.05026 0
M  V30 4057 H 357.188 -3.70399 4.27576 0
M  V30 4058 H 355.745 -3.96982 5.16961 0
M  V30 4059 N 359.178 -1.55987 0.224894 0
M  V30 4060 C 360.128 -2.17076 -0.697296 0
M  V30 4061 C 361.112 -1.12006 -1.15514 0
M  V30 4062 O 362.304 -1.37985 -1.10857 0
M  V30 4063 C 359.433 -2.85679 -1.90374 0
M  V30 4064 C 358.519 -3.97977 -1.46543 0
M  V30 4065 N 358.91 -5.00359 -0.739909 0
M  V30 4066 C 357.208 -4.10128 -1.75245 0
M  V30 4067 C 357.909 -5.79407 -0.515939 0
M  V30 4068 N 356.885 -5.32892 -1.07364 0
M  V30 4069 H 360.687 -2.93592 -0.134594 0
M  V30 4070 H 358.201 -1.62379 0.0262885 0
M  V30 4071 H 360.198 -3.27857 -2.57518 0
M  V30 4072 H 358.858 -2.1066 -2.47088 0
M  V30 4073 H 359.869 -5.16412 -0.392253 0
M  V30 4074 H 356.546 -3.46263 -2.33255 0
M  V30 4075 H 357.936 -6.71872 0.0617349 0
M  V30 4076 N 360.656 0.0484629 -1.57525 0
M  V30 4077 C 361.603 1.05504 -2.05275 0
M  V30 4078 C 362.573 1.37084 -0.937927 0
M  V30 4079 O 363.758 1.47754 -1.2072 0
M  V30 4080 C 360.898 2.35676 -2.52093 0
M  V30 4081 C 360.011 2.10423 -3.77288 0
M  V30 4082 C 359.146 3.34327 -4.12794 0
M  V30 4083 C 358.185 3.04542 -5.30962 0
M  V30 4084 N 357.322 4.20841 -5.61994 0
M  V30 4085 H 362.162 0.640885 -2.91027 0
M  V30 4086 H 359.699 0.304854 -1.43906 0
M  V30 4087 H 361.657 3.11709 -2.77297 0
M  V30 4088 H 360.287 2.7485 -1.69285 0
M  V30 4089 H 359.339 1.24976 -3.59284 0
M  V30 4090 H 360.651 1.84438 -4.63448 0
M  V30 4091 H 359.805 4.1874 -4.39024 0
M  V30 4092 H 358.544 3.63408 -3.25247 0
M  V30 4093 H 357.549 2.18528 -5.04505 0
M  V30 4094 H 358.774 2.76758 -6.20146 0
M  V30 4095 H 356.72 4.4991 -4.77406 0
M  V30 4096 H 356.637 3.98212 -6.42622 0
M  V30 4097 H 357.905 5.06184 -5.92789 0
M  V30 4098 N 362.134 1.5431 0.320358 0
M  V30 4099 C 363.044 1.86946 1.41734 0
M  V30 4100 C 364.06 0.761689 1.56443 0
M  V30 4101 O 365.236 1.05629 1.71477 0
M  V30 4102 C 362.301 2.09293 2.76401 0
M  V30 4103 C 361.362 3.33082 2.70841 0
M  V30 4104 C 360.595 3.54353 3.99086 0
M  V30 4105 O 360.818 2.79002 4.97508 0
M  V30 4106 O 359.752 4.47838 4.0215 0
M  V30 4107 H 363.578 2.80232 1.17062 0
M  V30 4108 H 361.163 1.40255 0.514673 0
M  V30 4109 H 363.045 2.25303 3.56113 0
M  V30 4110 H 361.72 1.19194 3.00956 0
M  V30 4111 H 360.627 3.22454 1.89668 0
M  V30 4112 H 361.96 4.23249 2.5124 0
M  V30 4113 N 363.613 -0.582584 1.46437 0
M  V30 4114 C 364.838 -1.37168 1.55563 0
M  V30 4115 C 365.263 -1.87061 0.19743 0
M  V30 4116 O 364.621 -1.61572 -0.822451 0
M  V30 4117 C 364.669 -2.53511 2.56446 0
M  V30 4118 O 363.773 -3.54953 2.09958 0
M  V30 4119 H 363.114 -0.408494 0.523477 0
M  V30 4120 H 365.644 -0.706646 1.9201 0
M  V30 4121 H 365.654 -3.00426 2.76058 0
M  V30 4122 H 364.329 -2.16549 3.55076 0
M  V30 4123 H 362.906 -3.14516 2.00334 0
M  V30 4124 N 365.091 -1.34144 -0.827227 0
M  V30 4125 C 366.021 -1.28005 -1.95287 0
M  V30 4126 C 367.002 -0.158321 -1.69362 0
M  V30 4127 O 368.187 -0.349987 -1.9102 0
M  V30 4128 C 365.317 -1.03036 -3.31664 0
M  V30 4129 C 364.271 -2.11628 -3.72019 0
M  V30 4130 C 363.597 -1.71854 -5.0633 0
M  V30 4131 C 364.897 -3.53417 -3.8457 0
M  V30 4132 H 366.591 -2.22187 -2.00682 0
M  V30 4133 H 364.137 -1.0696 -0.964135 0
M  V30 4134 H 366.09 -0.973863 -4.09993 0
M  V30 4135 H 364.814 -0.0529391 -3.26557 0
M  V30 4136 H 363.473 -2.16339 -2.95961 0
M  V30 4137 H 363.121 -0.727841 -4.97706 0
M  V30 4138 H 362.821 -2.44531 -5.34302 0
M  V30 4139 H 364.345 -1.67692 -5.87122 0
M  V30 4140 H 365.759 -3.51142 -4.5318 0
M  V30 4141 H 364.156 -4.24679 -4.2399 0
M  V30 4142 H 365.226 -3.91072 -2.86689 0
M  V30 4143 N 366.569 1.04691 -1.17803 0
M  V30 4144 C 367.815 1.78045 -0.970969 0
M  V30 4145 C 368.148 1.87686 0.498751 0
M  V30 4146 O 367.423 1.38035 1.37027 0
M  V30 4147 C 367.706 3.2166 -1.61884 0
M  V30 4148 C 367.559 3.20001 -3.161 0
M  V30 4149 C 368.878 4.1962 -1.3269 0
M  V30 4150 H 365.997 0.64633 -0.354155 0
M  V30 4151 H 368.639 1.22333 -1.45378 0
M  V30 4152 H 366.789 3.69232 -1.20831 0
M  V30 4153 H 368.461 2.80467 -3.66246 0
M  V30 4154 H 366.704 2.58203 -3.48588 0
M  V30 4155 H 367.375 4.21386 -3.56564 0
M  V30 4156 H 369.851 3.80567 -1.68249 0
M  V30 4157 H 368.727 5.18339 -1.80599 0
M  V30 4158 H 368.988 4.414 -0.248622 0
M  V30 4159 N 368.047 0.979072 1.23499 0
M  V30 4160 C 369.01 0.523244 2.23147 0
M  V30 4161 C 370.01 -0.386406 1.56088 0
M  V30 4162 O 371.2 -0.180283 1.73265 0
M  V30 4163 C 368.332 -0.240739 3.40049 0
M  V30 4164 H 369.525 1.40432 2.64989 0
M  V30 4165 H 367.078 0.764824 1.36309 0
M  V30 4166 H 367.813 -1.13841 3.03662 0
M  V30 4167 H 367.598 0.412207 3.89927 0
M  V30 4168 H 369.088 -0.548297 4.13985 0
M  V30 4169 N 369.525 -1.3858 0.750561 0
M  V30 4170 C 370.773 -1.99789 0.30477 0
M  V30 4171 C 371.094 -1.59874 -1.11649 0
M  V30 4172 O 370.364 -0.85417 -1.76297 0
M  V30 4173 H 368.944 -0.738902 0.109694 0
M  V30 4174 H 371.606 -1.69391 0.963983 0
M  V30 4175 H 370.702 -3.09952 0.365499 0
M  V30 4176 N 371.003 -0.499398 -1.49478 0
M  V30 4177 C 371.935 0.316575 -2.27003 0
M  V30 4178 C 372.948 0.932047 -1.33479 0
M  V30 4179 O 374.137 0.815658 -1.58774 0
M  V30 4180 C 371.237 1.46055 -3.05812 0
M  V30 4181 C 370.41 0.952679 -4.26899 0
M  V30 4182 C 369.469 1.97407 -4.87767 0
M  V30 4183 O 368.495 1.54326 -5.4788 0
M  V30 4184 N 369.697 3.30436 -4.77276 0
M  V30 4185 H 372.462 -0.348168 -2.97671 0
M  V30 4186 H 370.023 -0.33185 -1.58463 0
M  V30 4187 H 372.015 2.14135 -3.43407 0
M  V30 4188 H 370.585 2.02948 -2.37762 0
M  V30 4189 H 369.805 0.0968248 -3.94081 0
M  V30 4190 H 371.093 0.59174 -5.05347 0
M  V30 4191 H 370.491 3.68126 -4.29534 0
M  V30 4192 H 369.048 3.94235 -5.19059 0
M  V30 4193 N 372.481 1.55866 -0.233164 0
M  V30 4194 C 373.727 1.99643 0.389148 0
M  V30 4195 C 374.082 1.11836 1.56558 0
M  V30 4196 O 373.375 0.170848 1.90837 0
M  V30 4197 C 373.569 3.46856 0.861724 0
M  V30 4198 C 373.398 4.48904 -0.267376 0
M  V30 4199 C 372.168 4.99888 -0.737577 0
M  V30 4200 C 374.366 5.02624 -1.08966 0
M  V30 4201 N 372.348 5.8566 -1.84052 0
M  V30 4202 C 373.719 5.85434 -2.04125 0
M  V30 4203 C 375.774 4.84959 -1.12779 0
M  V30 4204 C 374.477 6.52466 -3.02789 0
M  V30 4205 C 376.503 5.52759 -2.10266 0
M  V30 4206 C 375.865 6.35346 -3.04162 0
M  V30 4207 H 371.964 0.774402 0.108742 0
M  V30 4208 H 374.548 1.91572 -0.347596 0
M  V30 4209 H 372.719 3.55352 1.5678 0
M  V30 4210 H 374.451 3.77531 1.45783 0
M  V30 4211 H 371.206 4.7249 -0.324122 0
M  V30 4212 H 371.63 6.33246 -2.39434 0
M  V30 4213 H 376.272 4.20751 -0.415749 0
M  V30 4214 H 373.99 7.15849 -3.74948 0
M  V30 4215 H 377.576 5.41051 -2.13905 0
M  V30 4216 H 376.456 6.86883 -3.78366 0
M  V30 4217 N 373.959 -0.0401083 1.57549 0
M  V30 4218 C 375.375 -0.395556 1.54621 0
M  V30 4219 C 375.575 -1.77281 0.957799 0
M  V30 4220 O 374.631 -2.45888 0.574031 0
M  V30 4221 C 375.944 -0.307535 2.99123 0
M  V30 4222 C 377.492 -0.385425 3.10618 0
M  V30 4223 C 377.967 -0.326973 4.56831 0
M  V30 4224 N 379.458 -0.386102 4.61588 0
M  V30 4225 C 380.193 -0.363591 5.72246 0
M  V30 4226 N 379.689 -0.29402 6.92176 0
M  V30 4227 N 381.482 -0.412503 5.60584 0
M  V30 4228 H 373.633 0.861325 1.94152 0
M  V30 4229 H 375.896 0.326445 0.890021 0
M  V30 4230 H 375.602 0.638461 3.45856 0
M  V30 4231 H 375.476 -1.10552 3.60636 0
M  V30 4232 H 377.863 -1.32185 2.63839 0
M  V30 4233 H 377.944 0.44171 2.51957 0
M  V30 4234 H 377.588 0.605738 5.04275 0
M  V30 4235 H 377.518 -1.17207 5.13391 0
M  V30 4236 H 380.009 -0.442832 3.75296 0
M  V30 4237 H 380.322 -0.28164 7.72287 0
M  V30 4238 H 378.667 -0.260232 6.94513 0
M  V30 4239 H 381.858 -0.464769 4.65787 0
M  V30 4240 H 382.031 -0.391492 6.46816 0
M  V30 4241 N 375.437 -1.54477 -0.31217 0
M  V30 4242 C 376.714 -1.63891 -1.06767 0
M  V30 4243 C 377.094 -0.480028 -2.0557 0
M  V30 4244 O 376.442 0.524487 -2.22399 0
M  V30 4245 C 376.652 -3.01402 -1.75948 0
M  V30 4246 C 378 -3.57838 -2.28554 0
M  V30 4247 O 379.024 -3.03782 -1.85998 0
M  V30 4248 O 377.883 -4.52462 -3.06497 0
M  V30 4249 H 374.977 -0.664125 -0.492816 0
M  V30 4250 H 377.523 -1.66823 -0.311149 0
M  V30 4251 H 376.295 -3.77187 -1.04144 0
M  V30 4252 H 375.918 -3.02199 -2.58383 0
M  V30 4253 N 376.915 0.57481 -1.46744 0
M  V30 4254 C 377.848 1.69827 -1.52427 0
M  V30 4255 C 378.826 1.58151 -0.377744 0
M  V30 4256 O 380.01 1.79257 -0.58303 0
M  V30 4257 C 377.137 3.07943 -1.41027 0
M  V30 4258 C 376.183 3.38116 -2.59961 0
M  V30 4259 S 377.016 3.29313 -4.22272 0
M  V30 4260 C 378.172 4.69953 -4.13394 0
M  V30 4261 H 378.405 1.64748 -2.47478 0
M  V30 4262 H 375.938 0.754203 -1.34726 0
M  V30 4263 H 377.896 3.87619 -1.35137 0
M  V30 4264 H 376.557 3.10504 -0.473909 0
M  V30 4265 H 375.75 4.38762 -2.47999 0
M  V30 4266 H 375.352 2.66024 -2.62882 0
M  V30 4267 H 377.644 5.60517 -3.80562 0
M  V30 4268 H 378.587 4.86972 -5.14066 0
M  V30 4269 H 378.995 4.47174 -3.44522 0
M  V30 4270 N 378.394 1.34581 0.820102 0
M  V30 4271 C 379.327 1.20735 1.93644 0
M  V30 4272 C 380.305 0.0983343 1.62302 0
M  V30 4273 O 381.489 0.263997 1.86642 0
M  V30 4274 C 378.616 0.856037 3.27704 0
M  V30 4275 C 377.662 1.97521 3.78005 0
M  V30 4276 S 378.495 3.58906 3.97425 0
M  V30 4277 C 379.651 3.25822 5.34407 0
M  V30 4278 H 379.884 2.15231 2.05093 0
M  V30 4279 H 377.417 1.1964 0.97599 0
M  V30 4280 H 379.375 0.660133 4.05157 0
M  V30 4281 H 378.036 -0.0706253 3.14021 0
M  V30 4282 H 377.229 1.68321 4.75062 0
M  V30 4283 H 376.831 2.12875 3.07507 0
M  V30 4284 H 379.123 2.77812 6.17922 0
M  V30 4285 H 380.066 4.22029 5.68592 0
M  V30 4286 H 380.474 2.61932 5.00052 0
M  V30 4287 N 379.872 -1.04064 1.18357 0
M  V30 4288 C 381.149 -1.74252 0.888581 0
M  V30 4289 C 381.529 -2.02138 -0.60856 0
M  V30 4290 O 380.877 -1.66656 -1.56327 0
M  V30 4291 C 381.087 -3.0277 1.73584 0
M  V30 4292 C 382.435 -3.76506 1.96286 0
M  V30 4293 O 383.459 -3.12668 1.70637 0
M  V30 4294 O 382.318 -4.91243 2.39464 0
M  V30 4295 H 379.412 -0.758271 0.330082 0
M  V30 4296 H 381.958 -1.1013 1.2911 0
M  V30 4297 H 380.73 -2.78299 2.75073 0
M  V30 4298 H 380.353 -3.74631 1.33183 0
M  V30 4299 N 381.35 -0.985608 -1.22978 0
M  V30 4300 C 382.58 -0.674603 -1.95276 0
M  V30 4301 C 382.988 0.763483 -1.73111 0
M  V30 4302 O 382.331 1.52601 -1.02268 0
M  V30 4303 C 382.393 -0.891597 -3.48268 0
M  V30 4304 C 382.057 -2.31275 -3.94158 0
M  V30 4305 C 383.054 -3.29179 -4.02415 0
M  V30 4306 C 380.739 -2.64524 -4.27004 0
M  V30 4307 C 382.733 -4.58407 -4.42879 0
M  V30 4308 C 380.42 -3.93974 -4.67149 0
M  V30 4309 C 381.418 -4.90727 -4.75053 0
M  V30 4310 O 381.106 -6.17865 -5.14294 0
M  V30 4311 H 380.838 -0.249251 -0.628371 0
M  V30 4312 H 383.392 -1.32106 -1.5728 0
M  V30 4313 H 381.622 -0.187962 -3.86243 0
M  V30 4314 H 383.311 -0.576957 -4.01779 0
M  V30 4315 H 384.077 -3.04823 -3.77237 0
M  V30 4316 H 379.956 -1.89923 -4.2006 0
M  V30 4317 H 383.5 -5.33926 -4.48964 0
M  V30 4318 H 379.397 -4.18122 -4.91777 0
M  V30 4319 H 380.165 -6.21694 -5.32389 0
M  V30 4320 N 382.828 1.3818 -0.7579 0
M  V30 4321 C 383.761 2.28055 -0.0814093 0
M  V30 4322 C 384.739 1.45603 0.723779 0
M  V30 4323 O 385.923 1.74961 0.701491 0
M  V30 4324 C 383.05 3.2676 0.891394 0
M  V30 4325 C 382.096 4.26153 0.171909 0
M  V30 4326 S 382.929 5.23434 -1.13035 0
M  V30 4327 C 384.085 6.25694 -0.160727 0
M  V30 4328 H 384.318 2.85082 -0.84353 0
M  V30 4329 H 381.851 1.44246 -0.550671 0
M  V30 4330 H 383.809 3.8414 1.44731 0
M  V30 4331 H 382.47 2.68706 1.62652 0
M  V30 4332 H 381.663 4.95738 0.908843 0
M  V30 4333 H 381.265 3.72691 -0.312606 0
M  V30 4334 H 383.557 6.74161 0.671773 0
M  V30 4335 H 384.5 7.03285 -0.824353 0
M  V30 4336 H 384.908 5.64064 0.221892 0
M  V30 4337 N 384.306 0.507319 1.49211 0
M  V30 4338 C 385.236 -0.256939 2.32082 0
M  V30 4339 C 386.217 -0.956609 1.40652 0
M  V30 4340 O 387.402 -0.946788 1.69557 0
M  V30 4341 C 384.532 -1.31802 3.21318 0
M  V30 4342 C 383.486 -0.737855 4.21592 0
M  V30 4343 C 382.812 -1.89992 4.99807 0
M  V30 4344 C 384.112 0.275325 5.21574 0
M  V30 4345 H 385.806 0.434798 2.96226 0
M  V30 4346 H 383.352 0.210546 1.42452 0
M  V30 4347 H 385.305 -1.86045 3.78107 0
M  V30 4348 H 384.029 -2.03903 2.5513 0
M  V30 4349 H 382.688 -0.217126 3.65956 0
M  V30 4350 H 382.336 -2.60877 4.30061 0
M  V30 4351 H 382.036 -1.51777 5.6766 0
M  V30 4352 H 383.56 -2.44657 5.59442 0
M  V30 4353 H 384.974 -0.179193 5.7302 0
M  V30 4354 H 383.371 0.573649 5.97352 0
M  V30 4355 H 384.441 1.18903 4.70096 0
M  V30 4356 N 385.784 -1.5574 0.241426 0
M  V30 4357 C 386.716 -2.18469 -0.693091 0
M  V30 4358 C 387.729 -1.15942 -1.14286 0
M  V30 4359 O 388.918 -1.42832 -1.07058 0
M  V30 4360 C 386.018 -2.7696 -1.95311 0
M  V30 4361 C 385.191 -4.04853 -1.65568 0
M  V30 4362 C 384.25 -4.47715 -2.76474 0
M  V30 4363 O 383.276 -5.14205 -2.44094 0
M  V30 4364 N 384.478 -4.15044 -4.05855 0
M  V30 4365 H 387.243 -2.99292 -0.156388 0
M  V30 4366 H 384.804 -1.61784 0.0611752 0
M  V30 4367 H 386.796 -3.02594 -2.68736 0
M  V30 4368 H 385.366 -2.00326 -2.39975 0
M  V30 4369 H 384.586 -3.86865 -0.756886 0
M  V30 4370 H 385.874 -4.88246 -1.43153 0
M  V30 4371 H 385.272 -3.61654 -4.34998 0
M  V30 4372 H 383.829 -4.45526 -4.75762 0
M  V30 4373 N 387.262 0.0317525 -1.57568 0
M  V30 4374 C 388.51 0.721676 -1.88776 0
M  V30 4375 C 388.831 1.76039 -0.838772 0
M  V30 4376 O 388.101 1.95482 0.127935 0
M  V30 4377 H 386.681 0.269534 -0.696678 0
M  V30 4378 H 389.343 -0.00165879 -1.949 0
M  V30 4379 H 388.439 1.21293 -2.87566 0
M  V30 4380 N 388.74 1.54641 0.303973 0
M  V30 4381 C 389.986 1.74038 1.04109 0
M  V30 4382 C 390.319 0.523051 1.87024 0
M  V30 4383 O 389.594 -0.479874 1.88487 0
M  V30 4384 C 389.877 3.02761 1.94955 0
M  V30 4385 C 389.73 4.34787 1.1524 0
M  V30 4386 C 391.049 3.27336 2.94175 0
M  V30 4387 H 388.168 0.63323 0.377079 0
M  V30 4388 H 390.81 1.87354 0.316001 0
M  V30 4389 H 388.96 2.9154 2.56782 0
M  V30 4390 H 390.632 4.57922 0.557236 0
M  V30 4391 H 388.875 4.31407 0.455053 0
M  V30 4392 H 389.546 5.21116 1.8205 0
M  V30 4393 H 392.022 3.38148 2.42477 0
M  V30 4394 H 390.898 4.18726 3.54908 0
M  V30 4395 H 391.159 2.45491 3.67677 0
M  V30 4396 N 390.218 -0.567019 1.47046 0
M  V30 4397 C 391.181 -1.65696 1.58359 0
M  V30 4398 C 392.181 -1.54097 0.459441 0
M  V30 4399 O 393.371 -1.58432 0.724225 0
M  V30 4400 C 390.503 -3.05197 1.51879 0
M  V30 4401 H 391.696 -1.57019 2.5551 0
M  V30 4402 H 389.249 -0.786148 1.3509 0
M  V30 4403 H 389.984 -3.19417 0.560673 0
M  V30 4404 H 389.769 -3.15025 2.33455 0
M  V30 4405 H 391.259 -3.84511 1.62913 0
M  V30 4406 N 391.696 -1.35014 -0.812953 0
M  V30 4407 C 392.628 -1.23262 -1.93233 0
M  V30 4408 C 393.641 -0.157371 -1.62038 0
M  V30 4409 O 394.83 -0.410096 -1.73725 0
M  V30 4410 C 391.93 -0.87392 -3.27438 0
M  V30 4411 C 391.103 -2.04622 -3.86586 0
M  V30 4412 C 390.162 -1.66432 -4.99186 0
M  V30 4413 O 389.188 -2.38222 -5.16951 0
M  V30 4414 N 390.39 -0.584248 -5.77552 0
M  V30 4415 H 393.155 -2.19699 -2.03844 0
M  V30 4416 H 390.716 -1.281 -0.99005 0
M  V30 4417 H 392.708 -0.600039 -4.00227 0
M  V30 4418 H 391.278 0.00057392 -3.126 0
M  V30 4419 H 390.498 -2.48427 -3.06068 0
M  V30 4420 H 391.786 -2.82999 -4.22835 0
M  V30 4421 H 391.184 0.0123526 -5.65699 0
M  V30 4422 H 389.741 -0.37013 -6.50748 0
M  V30 4423 N 393.175 1.03435 -1.18907 0
M  V30 4424 C 394.586 1.58195 -0.991523 0
M  V30 4425 C 394.937 1.90801 0.457081 0
M  V30 4426 O 394.062 1.70272 1.33553 0
M  V30 4427 C 394.657 2.87432 -1.79355 0
M  V30 4428 C 393.216 3.38785 -1.64017 0
M  V30 4429 C 392.363 2.12292 -1.78402 0
M  V30 4430 H 395.314 0.860299 -1.33359 0
M  V30 4431 H 395.335 3.58096 -1.28638 0
M  V30 4432 H 394.847 2.63669 -2.84781 0
M  V30 4433 H 392.948 3.67547 -0.611536 0
M  V30 4434 H 393.061 4.12186 -2.44212 0
M  V30 4435 H 391.425 2.23901 -1.2141 0
M  V30 4436 H 392.208 1.90977 -2.85277 0
M  V30 4437 N 394.653 0.992116 1.22453 0
M  V30 4438 C 395.878 0.685644 1.95739 0
M  V30 4439 C 396.303 -0.743 1.72804 0
M  V30 4440 O 395.661 -1.50778 1.00676 0
M  V30 4441 C 395.709 0.996293 3.46564 0
M  V30 4442 O 394.813 0.0945512 4.12292 0
M  V30 4443 H 394.154 0.256694 0.612376 0
M  V30 4444 H 396.684 1.32888 1.5557 0
M  V30 4445 H 396.694 0.93781 3.97076 0
M  V30 4446 H 395.369 2.03733 3.62582 0
M  V30 4447 H 393.946 0.208451 3.72317 0
M  V30 4448 N 396.131 -1.37776 0.765217 0
M  V30 4449 C 397.064 -2.28008 0.0935025 0
M  V30 4450 C 398.042 -1.45985 -0.716047 0
M  V30 4451 O 399.226 -1.75331 -0.692203 0
M  V30 4452 C 396.353 -3.27228 -0.874052 0
M  V30 4453 C 395.399 -4.26239 -0.149307 0
M  V30 4454 S 396.232 -5.22827 1.15809 0
M  V30 4455 C 397.388 -6.256 0.193906 0
M  V30 4456 H 397.621 -2.84631 0.858637 0
M  V30 4457 H 395.154 -1.43952 0.558313 0
M  V30 4458 H 397.112 -3.84902 -1.42691 0
M  V30 4459 H 395.773 -2.69565 -1.61225 0
M  V30 4460 H 394.966 -4.96213 -0.88254 0
M  V30 4461 H 394.568 -3.7252 0.332366 0
M  V30 4462 H 396.86 -6.74508 -0.636011 0
M  V30 4463 H 397.803 -7.02838 0.861638 0
M  V30 4464 H 398.211 -5.64173 -0.191975 0
M  V30 4465 N 397.609 -0.515225 -1.4894 0
M  V30 4466 C 398.519 0.259774 -2.33157 0
M  V30 4467 C 399.535 0.953501 -1.45548 0
M  V30 4468 O 400.711 0.931735 -1.78552 0
M  V30 4469 C 397.776 1.30193 -3.21326 0
M  V30 4470 C 396.837 0.620129 -4.24797 0
M  V30 4471 C 396.07 1.61263 -5.08753 0
M  V30 4472 O 396.293 2.84389 -4.94448 0
M  V30 4473 O 395.227 1.16013 -5.90614 0
M  V30 4474 H 399.053 -0.429932 -3.00641 0
M  V30 4475 H 396.638 -0.276346 -1.46822 0
M  V30 4476 H 398.52 1.90455 -3.75905 0
M  V30 4477 H 397.195 1.97431 -2.56521 0
M  V30 4478 H 396.102 -0.0226019 -3.74093 0
M  V30 4479 H 397.435 -0.0100493 -4.92199 0
M  V30 4480 N 399.087 1.5561 -0.249682 0
M  V30 4481 C 399.997 2.25143 0.659375 0
M  V30 4482 C 401.013 1.2685 1.19101 0
M  V30 4483 O 402.189 1.59732 1.22669 0
M  V30 4484 C 399.254 2.93945 1.8384 0
M  V30 4485 C 398.315 4.07655 1.34596 0
M  V30 4486 C 397.548 4.73167 2.46878 0
M  V30 4487 O 397.771 4.37768 3.65671 0
M  V30 4488 O 396.705 5.61623 2.16478 0
M  V30 4489 H 400.531 3.03545 0.0968698 0
M  V30 4490 H 398.116 1.49389 -0.018074 0
M  V30 4491 H 399.998 3.37271 2.52638 0
M  V30 4492 H 398.673 2.18481 2.38847 0
M  V30 4493 H 397.58 3.68839 0.625174 0
M  V30 4494 H 398.913 4.84946 0.841941 0
M  V30 4495 N 400.565 -0.0233959 1.57583 0
M  V30 4496 C 401.813 -0.711654 1.89156 0
M  V30 4497 C 402.134 -1.75591 0.848096 0
M  V30 4498 O 401.404 -1.95547 -0.117566 0
M  V30 4499 H 399.984 -0.265835 0.698098 0
M  V30 4500 H 402.646 0.0119948 1.94896 0
M  V30 4501 H 401.742 -1.19766 2.88206 0
M  V30 4502 N 402.043 -1.548 -0.295768 0
M  V30 4503 C 403.268 -1.78653 -1.05346 0
M  V30 4504 C 403.693 -0.546894 -1.79974 0
M  V30 4505 O 403.051 0.502763 -1.7419 0
M  V30 4506 C 403.099 -2.99679 -2.00561 0
M  V30 4507 O 402.203 -2.7317 -3.08953 0
M  V30 4508 H 401.544 -0.59116 -0.302367 0
M  V30 4509 H 404.074 -2.01895 -0.331598 0
M  V30 4510 H 404.084 -3.27793 -2.42932 0
M  V30 4511 H 402.759 -3.89562 -1.4565 0
M  V30 4512 H 401.336 -2.56089 -2.71059 0
M  V30 4513 N 403.521 0.559213 -1.47345 0
M  V30 4514 C 404.769 1.31388 -1.53563 0
M  V30 4515 C 405.09 1.93985 -0.198678 0
M  V30 4516 O 404.36 1.79825 0.777167 0
M  V30 4517 H 402.94 0.487901 -0.565652 0
M  V30 4518 H 405.602 0.65315 -1.8363 0
M  V30 4519 H 404.698 2.10844 -2.30111 0
M  V30 4520 N 404.999 1.35443 0.805782 0
M  V30 4521 C 405.931 1.24285 1.92577 0
M  V30 4522 C 406.944 0.165962 1.61952 0
M  V30 4523 O 408.133 0.419303 1.73505 0
M  V30 4524 C 405.233 0.891272 3.2697 0
M  V30 4525 C 404.406 2.06669 3.85495 0
M  V30 4526 C 403.465 1.69077 4.98297 0
M  V30 4527 O 402.491 2.4096 5.15681 0
M  V30 4528 N 403.693 0.614869 5.77234 0
M  V30 4529 H 406.458 2.20777 2.02676 0
M  V30 4530 H 404.019 1.28623 0.983243 0
M  V30 4531 H 406.011 0.621256 3.99903 0
M  V30 4532 H 404.581 0.016004 3.12596 0
M  V30 4533 H 403.801 2.50046 3.04747 0
M  V30 4534 H 405.089 2.85237 4.21328 0
M  V30 4535 H 404.487 0.017648 5.65697 0
M  V30 4536 H 403.044 0.404636 6.50543 0
M  V30 4537 N 406.477 -1.02803 1.19454 0
M  V30 4538 C 407.407 -2.12999 0.956758 0
M  V30 4539 C 408.388 -1.69743 -0.110188 0
M  V30 4540 O 409.573 -1.94148 0.0450038 0
M  V30 4541 C 406.703 -3.43746 0.495553 0
M  V30 4542 C 405.657 -4.00688 1.50443 0
M  V30 4543 C 404.983 -5.27067 0.900275 0
M  V30 4544 C 406.283 -4.35397 2.8849 0
M  V30 4545 H 407.977 -2.33148 1.87836 0
M  V30 4546 H 405.523 -1.12045 0.904539 0
M  V30 4547 H 407.476 -4.2021 0.316493 0
M  V30 4548 H 406.2 -3.23321 -0.461646 0
M  V30 4549 H 404.859 -3.2632 1.67065 0
M  V30 4550 H 404.507 -5.02959 -0.064503 0
M  V30 4551 H 404.207 -5.66127 1.57397 0
M  V30 4552 H 405.731 -6.06196 0.73203 0
M  V30 4553 H 407.145 -5.02795 2.75446 0
M  V30 4554 H 405.542 -4.85541 3.52661 0
M  V30 4555 H 406.612 -3.44662 3.41081 0
M  V30 4556 N 407.956 -0.998596 -1.21925 0
M  V30 4557 C 408.886 -0.573688 -2.26343 0
M  V30 4558 C 409.867 0.402296 -1.65274 0
M  V30 4559 O 411.052 0.291683 -1.91997 0
M  V30 4560 C 408.182 0.106839 -3.47136 0
M  V30 4561 C 407.136 -0.788269 -4.20678 0
M  V30 4562 C 406.462 0.0254927 -5.34694 0
M  V30 4563 C 407.762 -2.08784 -4.78755 0
M  V30 4564 H 409.456 -1.44651 -2.62138 0
M  V30 4565 H 407.002 -0.696975 -1.26009 0
M  V30 4566 H 408.955 0.415531 -4.19346 0
M  V30 4567 H 407.679 1.01424 -3.10452 0
M  V30 4568 H 406.338 -1.08069 -3.50309 0
M  V30 4569 H 405.986 0.933989 -4.94253 0
M  V30 4570 H 405.686 -0.570437 -5.84825 0
M  V30 4571 H 407.21 0.328147 -6.09718 0
M  V30 4572 H 408.624 -1.84272 -5.42878 0
M  V30 4573 H 407.021 -2.63307 -5.39249 0
M  V30 4574 H 408.091 -2.76284 -3.98491 0
M  V30 4575 N 409.434 1.37368 -0.772513 0
M  V30 4576 C 410.344 2.34053 -0.160081 0
M  V30 4577 C 411.36 1.60216 0.678728 0
M  V30 4578 O 412.536 1.92303 0.59847 0
M  V30 4579 C 409.601 3.3939 0.708182 0
M  V30 4580 C 408.662 4.29048 -0.147172 0
M  V30 4581 C 407.895 5.29354 0.679744 0
M  V30 4582 O 408.118 5.3723 1.91678 0
M  V30 4583 O 407.052 6.01835 0.0885444 0
M  V30 4584 H 410.878 2.88159 -0.959053 0
M  V30 4585 H 408.463 1.39543 -0.533685 0
M  V30 4586 H 410.345 4.03839 1.20384 0
M  V30 4587 H 409.02 2.8761 1.48533 0
M  V30 4588 H 407.927 3.67697 -0.689205 0
M  V30 4589 H 409.26 4.84134 -0.887423 0
M  V30 4590 N 410.912 0.523116 1.48665 0
M  V30 4591 C 412.16 -0.0134497 2.02096 0
M  V30 4592 C 412.481 -1.35418 1.40311 0
M  V30 4593 O 411.751 -1.87543 0.566074 0
M  V30 4594 H 410.331 -0.00795915 0.746958 0
M  V30 4595 H 412.993 0.685388 1.82451 0
M  V30 4596 H 412.089 -0.126849 3.11842 0
M  V30 4597 N 412.39 -1.55475 0.257931 0
M  V30 4598 C 413.34 -2.18506 -0.651094 0
M  V30 4599 C 414.324 -1.14431 -1.13112 0
M  V30 4600 O 415.516 -1.40305 -1.07905 0
M  V30 4601 C 412.645 -2.89653 -1.84272 0
M  V30 4602 C 411.731 -4.00996 -1.38068 0
M  V30 4603 N 412.122 -5.01816 -0.633609 0
M  V30 4604 C 410.42 -4.13753 -1.66506 0
M  V30 4605 C 411.121 -5.80371 -0.392922 0
M  V30 4606 N 410.097 -5.3505 -0.960359 0
M  V30 4607 H 413.899 -2.93811 -0.0722883 0
M  V30 4608 H 411.413 -1.62286 0.0607256 0
M  V30 4609 H 413.41 -3.33245 -2.50506 0
M  V30 4610 H 412.07 -2.15854 -2.42564 0
M  V30 4611 H 413.081 -5.17128 -0.282626 0
M  V30 4612 H 409.758 -3.51133 -2.25858 0
M  V30 4613 H 411.148 -6.7159 0.204235 0
M  V30 4614 N 413.868 0.0150385 -1.57593 0
M  V30 4615 C 415.114 0.704043 -1.90187 0
M  V30 4616 C 415.447 1.74249 -0.857366 0
M  V30 4617 O 414.722 1.94092 0.125843 0
M  V30 4618 C 415.005 1.36087 -3.33395 0
M  V30 4619 C 414.858 0.334981 -4.48551 0
M  V30 4620 C 416.177 2.29112 -3.7576 0
M  V30 4621 H 413.296 0.254475 -0.691673 0
M  V30 4622 H 415.938 -0.0331678 -1.89971 0
M  V30 4623 H 414.088 1.98922 -3.3371 0
M  V30 4624 H 415.76 -0.292534 -4.60372 0
M  V30 4625 H 414.003 -0.344325 -4.32431 0
M  V30 4626 H 414.674 0.833316 -5.45674 0
M  V30 4627 H 417.15 1.76308 -3.76902 0
M  V30 4628 H 416.026 2.72043 -4.76743 0
M  V30 4629 H 416.287 3.16385 -3.08793 0
M  V30 4630 N 415.346 1.54954 0.287554 0
M  V30 4631 C 416.296 1.8322 1.357 0
M  V30 4632 C 417.28 0.690152 1.45347 0
M  V30 4633 O 418.472 0.951137 1.49273 0
M  V30 4634 C 415.601 2.09481 2.71979 0
M  V30 4635 C 414.687 3.29906 2.66502 0
M  V30 4636 N 415.078 4.50154 2.30641 0
M  V30 4637 C 413.376 3.32203 2.97585 0
M  V30 4638 C 414.077 5.32209 2.34794 0
M  V30 4639 N 413.053 4.70258 2.72688 0
M  V30 4640 H 416.855 2.73746 1.0696 0
M  V30 4641 H 414.369 1.54635 0.496167 0
M  V30 4642 H 416.366 2.27882 3.49107 0
M  V30 4643 H 415.026 1.2023 3.0162 0
M  V30 4644 H 416.037 4.76515 2.02865 0
M  V30 4645 H 412.714 2.53101 3.32034 0
M  V30 4646 H 414.104 6.38321 2.09753 0
M  V30 4647 N 416.824 -0.551391 1.4764 0
M  V30 4648 C 417.757 -1.6738 1.5511 0
M  V30 4649 C 418.735 -1.5753 0.402856 0
M  V30 4650 O 419.919 -1.78307 0.611475 0
M  V30 4651 C 417.046 -3.05661 1.45908 0
M  V30 4652 C 416.092 -3.33938 2.65307 0
M  V30 4653 S 416.925 -3.22553 4.27457 0
M  V30 4654 C 418.081 -4.63317 4.20818 0
M  V30 4655 H 418.314 -1.6079 2.50068 0
M  V30 4656 H 415.847 -0.732674 1.35909 0
M  V30 4657 H 417.805 -3.8542 1.41286 0
M  V30 4658 H 416.466 -3.09711 0.523248 0
M  V30 4659 H 415.659 -4.34761 2.54948 0
M  V30 4660 H 415.261 -2.61809 2.67081 0
M  V30 4661 H 417.553 -5.54391 3.89431 0
M  V30 4662 H 418.496 -4.78732 5.21748 0
M  V30 4663 H 418.904 -4.41636 3.51593 0
M  V30 4664 N 418.302 -1.35869 -0.798587 0
M  V30 4665 C 419.265 -1.29307 -1.89242 0
M  V30 4666 C 420.265 -0.202747 -1.59517 0
M  V30 4667 O 421.455 -0.456957 -1.681 0
M  V30 4668 C 418.587 -1.00229 -3.25833 0
M  V30 4669 H 419.78 -2.26576 -1.96478 0
M  V30 4670 H 417.333 -1.20509 -0.995358 0
M  V30 4671 H 418.068 -0.033801 -3.24282 0
M  V30 4672 H 417.853 -1.79121 -3.48795 0
M  V30 4673 H 419.343 -0.98219 -4.05885 0
M  V30 4674 N 419.78 1.02168 -1.19998 0
M  V30 4675 C 420.743 2.08765 -0.94604 0
M  V30 4676 C 421.743 1.60618 0.0763846 0
M  V30 4677 O 422.933 1.73472 -0.159135 0
M  V30 4678 C 420.065 3.38262 -0.423255 0
M  V30 4679 H 421.258 2.32726 -1.89153 0
M  V30 4680 H 418.811 1.1889 -1.01464 0
M  V30 4681 H 419.546 3.19974 0.527938 0
M  V30 4682 H 419.331 3.74532 -1.16053 0
M  V30 4683 H 420.821 4.16759 -0.264911 0
M  V30 4684 N 421.258 1.00505 1.21394 0
M  V30 4685 C 422.504 0.688793 1.90745 0
M  V30 4686 C 422.837 -0.778486 1.77914 0
M  V30 4687 O 422.112 -1.56433 1.15581 0
M  V30 4688 C 422.395 1.11063 3.42545 0
M  V30 4689 C 422.248 2.63737 3.64367 0
M  V30 4690 C 423.567 0.673059 4.34923 0
M  V30 4691 H 420.686 0.251702 0.692687 0
M  V30 4692 H 423.328 1.25074 1.43026 0
M  V30 4693 H 421.478 0.632508 3.83317 0
M  V30 4694 H 423.15 3.19313 3.32922 0
M  V30 4695 H 421.393 3.05248 3.08231 0
M  V30 4696 H 422.064 2.88305 4.70727 0
M  V30 4697 H 424.54 1.08392 4.01734 0
M  V30 4698 H 423.416 0.996383 5.39781 0
M  V30 4699 H 423.677 -0.425808 4.40045 0
M  V30 4700 N 422.737 -1.36956 0.779787 0
M  V30 4701 C 424.014 -1.93697 0.272156 0
M  V30 4702 C 424.394 -1.71267 -1.23413 0
M  V30 4703 O 423.742 -1.06607 -2.02107 0
M  V30 4704 C 423.952 -3.42812 0.654291 0
M  V30 4705 C 425.3 -4.19921 0.628602 0
M  V30 4706 O 426.324 -3.51209 0.594172 0
M  V30 4707 O 425.183 -5.42465 0.662864 0
M  V30 4708 H 422.277 -0.824447 0.0649286 0
M  V30 4709 H 424.823 -1.46196 0.861682 0
M  V30 4710 H 423.595 -3.52754 1.69353 0
M  V30 4711 H 423.218 -3.97582 0.0381369 0
M  V30 4712 N 424.215 -0.530993 -1.48385 0
M  V30 4713 C 425.145 0.219985 -2.32461 0
M  V30 4714 C 426.126 0.934111 -1.42156 0
M  V30 4715 O 427.311 0.919694 -1.71042 0
M  V30 4716 C 424.441 1.26674 -3.23375 0
M  V30 4717 C 423.395 0.67069 -4.22712 0
M  V30 4718 C 422.721 1.82017 -5.02766 0
M  V30 4719 C 424.021 -0.358268 -5.2107 0
M  V30 4720 H 425.715 -0.48187 -2.95497 0
M  V30 4721 H 423.261 -0.233182 -1.42099 0
M  V30 4722 H 425.214 1.80006 -3.81019 0
M  V30 4723 H 423.938 1.99818 -2.58341 0
M  V30 4724 H 422.597 0.158878 -3.66256 0
M  V30 4725 H 422.245 2.54002 -4.34157 0
M  V30 4726 H 421.945 1.42727 -5.70003 0
M  V30 4727 H 423.469 2.35725 -5.63264 0
M  V30 4728 H 424.883 0.0880081 -5.73232 0
M  V30 4729 H 423.28 -0.66861 -5.96364 0
M  V30 4730 H 424.35 -1.26367 -4.68145 0
M  V30 4731 N 425.693 1.55336 -0.266172 0
M  V30 4732 C 426.623 2.25146 0.618981 0
M  V30 4733 C 427.604 1.23845 1.16604 0
M  V30 4734 O 428.789 1.52544 1.20183 0
M  V30 4735 C 425.919 2.96572 1.80728 0
M  V30 4736 C 424.873 4.04726 1.39215 0
M  V30 4737 C 424.199 4.63678 2.66283 0
M  V30 4738 C 425.499 5.19407 0.548942 0
M  V30 4739 H 427.193 2.99377 0.0368116 0
M  V30 4740 H 424.739 1.43991 0.0162651 0
M  V30 4741 H 426.692 3.44116 2.43232 0
M  V30 4742 H 425.416 2.19861 2.41514 0
M  V30 4743 H 424.075 3.57979 0.790351 0
M  V30 4744 H 423.723 3.83646 3.25308 0
M  V30 4745 H 423.423 5.367 2.39222 0
M  V30 4746 H 424.947 5.13967 3.29651 0
M  V30 4747 H 426.361 5.63059 1.07876 0
M  V30 4748 H 424.758 5.98936 0.373593 0
M  V30 4749 H 425.828 4.8295 -0.434394 0
M  V30 4750 N 427.171 -0.0066808 1.57599 0
M  V30 4751 C 428.42 -0.692078 1.89455 0
M  V30 4752 C 428.733 -1.75306 0.867586 0
M  V30 4753 O 429.939 -2.49262 1.07614 0
M  V30 4754 C 428.395 -1.2821 3.36289 0
M  V30 4755 C 428.003 -0.256291 4.47266 0
M  V30 4756 C 429.747 -1.94608 3.77264 0
M  V30 4757 C 427.654 -0.855927 5.85173 0
M  V30 4758 H 426.584 -0.262252 0.706923 0
M  V30 4759 H 429.235 0.052769 1.83424 0
M  V30 4760 H 427.617 -2.0774 3.37135 0
M  V30 4761 H 428.791 0.513923 4.57925 0
M  V30 4762 H 427.106 0.306862 4.15268 0
M  V30 4763 H 429.703 -2.40364 4.77629 0
M  V30 4764 H 430.046 -2.77382 3.10427 0
M  V30 4765 H 430.579 -1.21822 3.78688 0
M  V30 4766 H 427.318 -0.0671161 6.55466 0
M  V30 4767 H 426.838 -1.59546 5.78191 0
M  V30 4768 H 428.517 -1.35658 6.32618 0
M  V30 4769 N 428.649 -1.55105 -0.279332 0
M  V30 4770 C 429.897 -1.75066 -1.00977 0
M  V30 4771 C 430.218 -0.551276 -1.87045 0
M  V30 4772 O 429.488 0.433984 -1.91032 0
M  V30 4773 H 428.068 -0.645578 -0.375816 0
M  V30 4774 H 430.73 -1.92497 -0.305089 0
M  V30 4775 H 429.826 -2.64894 -1.65038 0
M  V30 4776 N 430.127 0.543554 -1.4793 0
M  V30 4777 C 431.375 1.29752 -1.54948 0
M  V30 4778 C 431.696 1.93764 -0.219242 0
M  V30 4779 O 430.966 1.80639 0.75805 0
M  V30 4780 H 429.546 0.481874 -0.570795 0
M  V30 4781 H 432.208 0.633636 -1.84312 0
M  V30 4782 H 431.304 2.08392 -2.32334 0
M  V30 4783 N 431.605 1.3629 0.791371 0
M  V30 4784 C 432.833 1.33562 1.58016 0
M  V30 4785 C 433.248 -0.0835616 1.88615 0
M  V30 4786 O 432.605 -1.0399 1.49974 0
M  V30 4787 C 432.656 2.15517 2.90232 0
M  V30 4788 O 432.377 3.51902 2.60953 0
M  V30 4789 C 433.878 2.20546 3.84544 0
M  V30 4790 H 431.098 0.458226 0.490173 0
M  V30 4791 H 433.642 1.79361 0.982345 0
M  V30 4792 H 431.797 1.73278 3.46487 0
M  V30 4793 H 432.211 3.94644 3.4548 0
M  V30 4794 H 433.685 2.82252 4.74382 0
M  V30 4795 H 434.162 1.20838 4.2225 0
M  V30 4796 H 434.768 2.63013 3.34222 0
M  V30 4797 N 433.083 -1.0153 1.20538 0
M  V30 4798 C 433.993 -2.13557 0.971113 0
M  V30 4799 C 435.009 -1.73845 -0.0734366 0
M  V30 4800 O 436.185 -2.01075 0.114299 0
M  V30 4801 C 433.25 -3.42661 0.527639 0
M  V30 4802 C 432.311 -3.96608 1.64319 0
M  V30 4803 C 431.544 -5.1955 1.22078 0
M  V30 4804 O 431.767 -5.70329 0.0900198 0
M  V30 4805 O 430.701 -5.66681 2.02871 0
M  V30 4806 H 434.527 -2.3619 1.90913 0
M  V30 4807 H 432.112 -1.11946 0.989362 0
M  V30 4808 H 433.994 -4.20404 0.289621 0
M  V30 4809 H 432.669 -3.21441 -0.381779 0
M  V30 4810 H 431.576 -3.20139 1.93551 0
M  V30 4811 H 432.909 -4.22219 2.52966 0
M  V30 4812 N 434.561 -1.01147 -1.20859 0
M  V30 4813 C 435.789 -0.716911 -1.94082 0
M  V30 4814 C 436.204 0.721568 -1.74467 0
M  V30 4815 O 435.561 1.48889 -1.05539 0
M  V30 4816 C 435.612 -1.03662 -3.46318 0
M  V30 4817 O 435.333 -2.4186 -3.65288 0
M  V30 4818 C 436.834 -0.762386 -4.36695 0
M  V30 4819 H 434.054 -0.26367 -0.617024 0
M  V30 4820 H 436.598 -1.35127 -1.53496 0
M  V30 4821 H 434.753 -0.447757 -3.84804 0
M  V30 4822 H 435.167 -2.53224 -4.59323 0
M  V30 4823 H 436.641 -1.03621 -5.42187 0
M  V30 4824 H 437.118 0.303514 -4.3815 0
M  V30 4825 H 437.724 -1.33316 -4.03865 0
M  V30 4826 N 436.039 1.36541 -0.78704 0
M  V30 4827 C 437.267 2.03561 -0.370199 0
M  V30 4828 C 437.682 1.59347 1.01263 0
M  V30 4829 O 437.039 0.781781 1.64907 0
M  V30 4830 C 437.09 3.59033 -0.421614 0
M  V30 4831 O 436.811 4.01634 -1.7499 0
M  V30 4832 C 438.312 4.433 0.00489763 0
M  V30 4833 H 435.532 0.653346 -0.152904 0
M  V30 4834 H 438.076 1.74566 -1.06522 0
M  V30 4835 H 436.231 3.86746 0.224971 0
M  V30 4836 H 436.645 4.96217 -1.69909 0
M  V30 4837 H 438.119 5.51939 -0.0822184 0
M  V30 4838 H 438.596 4.26285 1.05723 0
M  V30 4839 H 439.202 4.20843 -0.614085 0
M  V30 4840 N 437.518 0.538854 1.48102 0
M  V30 4841 C 438.481 -0.208395 2.28251 0
M  V30 4842 C 439.481 -0.859656 1.35892 0
M  V30 4843 O 440.671 -0.71834 1.58699 0
M  V30 4844 C 437.803 -1.30252 3.15035 0
M  V30 4845 H 438.996 0.495407 2.9578 0
M  V30 4846 H 436.549 0.295112 1.53489 0
M  V30 4847 H 437.284 -2.0393 2.52157 0
M  V30 4848 H 437.069 -0.840551 3.82985 0
M  V30 4849 H 438.559 -1.82787 3.75471 0
M  V30 4850 N 438.996 -1.55193 0.274407 0
M  V30 4851 C 439.944 -2.23924 -0.629362 0
M  V30 4852 C 440.938 -1.23602 -1.1584 0
M  V30 4853 O 442.144 -1.41535 -1.11211 0
M  V30 4854 H 438.519 -0.718637 -0.221507 0
M  V30 4855 H 440.49 -2.98388 -0.0268322 0
M  V30 4856 C 439.239 -2.97329 -1.80252 0
M  V30 4857 H 438.562 -3.74313 -1.40462 0
M  V30 4858 H 440.002 -3.48743 -2.41152 0
M  V30 4859 C 438.461 -2.0276 -2.69054 0
M  V30 4860 O 438.991 -1.57836 -3.69392 0
M  V30 4861 N 437.197 -1.69275 -2.36208 0
M  V30 4862 H 436.744 -2.06004 -1.54661 0
M  V30 4863 H 436.702 -1.06271 -2.95895 0
M  V30 4864 N 440.474 -0.00167713 -1.576 0
M  V30 4865 C 441.702 0.693759 -1.94922 0
M  V30 4866 C 442.117 1.67215 -0.876626 0
M  V30 4867 O 441.474 1.81929 0.144279 0
M  V30 4868 C 441.525 1.42416 -3.32265 0
M  V30 4869 O 441.246 0.485014 -4.35407 0
M  V30 4870 C 442.747 2.21395 -3.84056 0
M  V30 4871 H 439.967 0.193118 -0.642609 0
M  V30 4872 H 442.511 -0.0532952 -2.04431 0
M  V30 4873 H 440.666 2.12284 -3.24059 0
M  V30 4874 H 441.08 1.00053 -5.14868 0
M  V30 4875 H 442.554 2.67996 -4.82578 0
M  V30 4876 H 443.031 3.04142 -3.16851 0
M  V30 4877 H 443.637 1.56542 -3.95443 0
M  V30 4878 N 441.952 1.55251 0.271103 0
M  V30 4879 C 442.882 1.9127 1.33933 0
M  V30 4880 C 443.863 0.77478 1.5143 0
M  V30 4881 O 445.048 1.03307 1.64442 0
M  V30 4882 C 442.178 2.18627 2.69851 0
M  V30 4883 C 441.132 3.34442 2.67081 0
M  V30 4884 C 440.458 3.47284 4.06569 0
M  V30 4885 C 441.758 4.70784 2.26185 0
M  V30 4886 H 443.452 2.80744 1.04035 0
M  V30 4887 H 440.998 1.35077 0.499017 0
M  V30 4888 H 442.951 2.42413 3.44694 0
M  V30 4889 H 441.675 1.25955 3.01335 0
M  V30 4890 H 440.334 3.10627 1.94695 0
M  V30 4891 H 439.982 2.52074 4.35279 0
M  V30 4892 H 439.682 4.25152 4.0561 0
M  V30 4893 H 441.206 3.73363 4.83148 0
M  V30 4894 H 442.62 4.94102 2.90751 0
M  V30 4895 H 441.017 5.51582 2.36384 0
M  V30 4896 H 442.087 4.69478 1.21319 0
M  V30 4897 N 443.43 -0.535701 1.48216 0
M  V30 4898 C 444.655 -1.32149 1.59848 0
M  V30 4899 C 445.08 -1.86338 0.256842 0
M  V30 4900 O 444.438 -1.64107 -0.770632 0
M  V30 4901 C 444.486 -2.45224 2.64381 0
M  V30 4902 O 443.59 -3.48093 2.21144 0
M  V30 4903 H 442.931 -0.391634 0.536208 0
M  V30 4904 H 445.461 -0.645202 1.94161 0
M  V30 4905 H 445.471 -2.91491 2.85476 0
M  V30 4906 H 444.146 -2.05143 3.61786 0
M  V30 4907 H 442.723 -3.07984 2.10239 0
M  V30 4908 N 444.908 -1.36708 -0.784132 0
M  V30 4909 C 446.154 -1.32433 -1.54379 0
M  V30 4910 C 446.509 0.0941816 -1.92169 0
M  V30 4911 O 445.802 1.04997 -1.60269 0
M  V30 4912 C 445.996 -2.18571 -2.82774 0
M  V30 4913 C 445.825 -3.68656 -2.57533 0
M  V30 4914 C 444.595 -4.37813 -2.52286 0
M  V30 4915 C 446.793 -4.61802 -2.2637 0
M  V30 4916 N 444.775 -5.7351 -2.18997 0
M  V30 4917 C 446.146 -5.85785 -2.03115 0
M  V30 4918 C 448.201 -4.50313 -2.12421 0
M  V30 4919 C 446.904 -6.99569 -1.67321 0
M  V30 4920 C 448.93 -5.63969 -1.78026 0
M  V30 4921 C 448.292 -6.86994 -1.55622 0
M  V30 4922 H 444.391 -0.539886 -0.565727 0
M  V30 4923 H 446.975 -1.71812 -0.915908 0
M  V30 4924 H 445.146 -1.81429 -3.43421 0
M  V30 4925 H 446.878 -2.05646 -3.48557 0
M  V30 4926 H 443.633 -3.90674 -2.67714 0
M  V30 4927 H 444.057 -6.45189 -2.05084 0
M  V30 4928 H 448.699 -3.55781 -2.28429 0
M  V30 4929 H 446.417 -7.94047 -1.5005 0
M  V30 4930 H 450.003 -5.57044 -1.67909 0
M  V30 4931 H 448.883 -7.7345 -1.294 0
M  V30 4932 N 446.386 1.0089 -1.21074 0
M  V30 4933 C 447.349 2.0775 -0.968129 0
M  V30 4934 C 448.349 1.6069 0.0593445 0
M  V30 4935 O 449.539 1.73293 -0.177525 0
M  V30 4936 C 446.671 3.37794 -0.459108 0
M  V30 4937 H 447.864 2.30707 -1.9161 0
M  V30 4938 H 445.417 1.17807 -1.02719 0
M  V30 4939 H 446.152 3.20516 0.49397 0
M  V30 4940 H 445.937 3.7328 -1.20019 0
M  V30 4941 H 447.427 4.16454 -0.309099 0
M  V30 4942 N 447.864 1.01787 1.20321 0
M  V30 4943 C 449.11 0.708985 1.90003 0
M  V30 4944 C 449.443 -0.759572 1.78729 0
M  V30 4945 O 448.718 -1.55198 1.17234 0
M  V30 4946 C 449.001 1.1469 3.41348 0
M  V30 4947 C 448.854 2.67586 3.61549 0
M  V30 4948 C 450.173 0.71915 4.34185 0
M  V30 4949 H 447.292 0.259034 0.689978 0
M  V30 4950 H 449.934 1.26584 1.41692 0
M  V30 4951 H 448.084 0.673128 3.82624 0
M  V30 4952 H 449.756 3.22826 3.29517 0
M  V30 4953 H 447.999 3.085 3.04976 0
M  V30 4954 H 448.67 2.93281 4.67643 0
M  V30 4955 H 451.146 1.12647 4.00562 0
M  V30 4956 H 450.022 1.05358 5.38694 0
M  V30 4957 H 450.283 -0.379111 4.40472 0
M  V30 4958 N 449.342 -1.36122 0.79427 0
M  V30 4959 C 450.588 -1.99406 0.369452 0
M  V30 4960 C 450.921 -1.62886 -1.05743 0
M  V30 4961 O 450.196 -0.886053 -1.73145 0
M  V30 4962 C 450.479 -3.56046 0.538833 0
M  V30 4963 C 450.332 -4.02404 2.00976 0
M  V30 4964 C 451.651 -4.40079 -0.0431359 0
M  V30 4965 H 448.77 -0.724397 0.135712 0
M  V30 4966 H 451.412 -1.61461 1.00151 0
M  V30 4967 H 449.562 -3.885 0.000771004 0
M  V30 4968 H 451.234 -3.80415 2.60926 0
M  V30 4969 H 449.477 -3.53765 2.51063 0
M  V30 4970 H 450.148 -5.11344 2.07922 0
M  V30 4971 H 452.624 -4.14013 0.416228 0
M  V30 4972 H 451.5 -5.48799 0.105374 0
M  V30 4973 H 451.761 -4.27264 -1.13571 0
M  V30 4974 N 450.82 -0.546701 -1.47814 0
M  V30 4975 C 452.067 -0.0187407 -2.02491 0
M  V30 4976 C 452.395 1.32685 -1.42215 0
M  V30 4977 O 451.65 1.87413 -0.563454 0
M  V30 4978 C 451.949 0.134869 -3.57145 0
M  V30 4979 C 451.615 -1.13849 -4.3629 0
M  V30 4980 C 450.277 -1.48743 -4.57634 0
M  V30 4981 C 452.629 -1.98277 -4.82012 0
M  V30 4982 C 449.957 -2.67932 -5.21948 0
M  V30 4983 C 452.309 -3.16659 -5.4764 0
M  V30 4984 C 450.973 -3.51879 -5.67219 0
M  V30 4985 H 450.243 -0.0068577 -0.740968 0
M  V30 4986 H 452.89 -0.716097 -1.77607 0
M  V30 4987 H 451.195 0.915118 -3.80963 0
M  V30 4988 H 452.892 0.558556 -3.97091 0
M  V30 4989 H 449.482 -0.856767 -4.19949 0
M  V30 4990 H 453.666 -1.72628 -4.6531 0
M  V30 4991 H 448.922 -2.95401 -5.35302 0
M  V30 4992 H 453.096 -3.82374 -5.82033 0
M  V30 4993 H 450.723 -4.44331 -6.16825 0
M  V30 4994 N 452.299 1.55045 -0.282633 0
M  V30 4995 C 453.229 2.2579 0.595066 0
M  V30 4996 C 454.21 1.25074 1.15284 0
M  V30 4997 O 455.395 1.5381 1.18559 0
M  V30 4998 C 452.525 2.98472 1.77572 0
M  V30 4999 C 451.479 4.0618 1.34914 0
M  V30 5000 C 450.805 4.66477 2.6135 0
M  V30 5001 C 452.105 5.1996 0.493821 0
M  V30 5002 H 453.799 2.994 0.00505653 0
M  V30 5003 H 451.345 1.44 0.000992001 0
M  V30 5004 H 453.298 3.46677 2.39568 0
M  V30 5005 H 452.022 2.2241 2.39168 0
M  V30 5006 H 450.681 3.58797 0.752338 0
M  V30 5007 H 450.329 3.87074 3.2122 0
M  V30 5008 H 450.029 5.39207 2.33516 0
M  V30 5009 H 451.553 5.17435 3.24181 0
M  V30 5010 H 452.967 5.64172 1.01898 0
M  V30 5011 H 451.364 5.99299 0.310047 0
M  V30 5012 H 452.434 4.82462 -0.485593 0
M  V30 5013 N 453.777 0.010035 1.57597 0
M  V30 5014 C 454.707 -0.976857 2.12084 0
M  V30 5015 C 455.688 -1.35191 1.03235 0
M  V30 5016 O 456.873 -1.43389 1.3097 0
M  V30 5017 C 454.003 -2.26548 2.63236 0
M  V30 5018 C 452.957 -2.03175 3.76701 0
M  V30 5019 C 452.283 -3.38138 4.14206 0
M  V30 5020 C 453.583 -1.38625 5.03568 0
M  V30 5021 H 455.277 -0.523145 2.94794 0
M  V30 5022 H 452.823 -0.250195 1.4181 0
M  V30 5023 H 454.776 -2.95952 2.99984 0
M  V30 5024 H 453.5 -2.74051 1.77661 0
M  V30 5025 H 452.159 -1.36195 3.40362 0
M  V30 5026 H 451.807 -3.83363 3.25641 0
M  V30 5027 H 451.507 -3.23312 4.90656 0
M  V30 5028 H 453.031 -4.08841 4.53521 0
M  V30 5029 H 454.445 -1.98 5.38023 0
M  V30 5030 H 452.842 -1.34256 5.84889 0
M  V30 5031 H 453.912 -0.356722 4.83586 0
M  V30 5032 N 455.255 -1.55392 -0.262866 0
M  V30 5033 C 456.205 -1.85355 -1.32768 0
M  V30 5034 C 457.189 -0.713188 -1.44231 0
M  V30 5035 O 458.381 -0.974765 -1.47741 0
M  V30 5036 C 455.51 -2.13781 -2.68612 0
M  V30 5037 C 454.596 -3.34104 -2.61219 0
M  V30 5038 N 454.987 -4.53766 -2.2345 0
M  V30 5039 C 453.285 -3.36895 -2.92263 0
M  V30 5040 C 453.986 -5.35877 -2.26298 0
M  V30 5041 N 452.962 -4.74536 -2.65172 0
M  V30 5042 H 456.764 -2.75413 -1.02591 0
M  V30 5043 H 454.278 -1.55405 -0.471503 0
M  V30 5044 H 456.275 -2.33407 -3.45437 0
M  V30 5045 H 454.935 -1.25013 -2.99669 0
M  V30 5046 H 455.946 -4.79682 -1.95258 0
M  V30 5047 H 452.623 -2.58351 -3.27965 0
M  V30 5048 H 454.013 -6.41577 -1.99572 0
M  V30 5049 N 456.733 0.527833 -1.48498 0
M  V30 5050 C 457.683 1.62844 -1.5958 0
M  V30 5051 C 458.667 1.54397 -0.452809 0
M  V30 5052 O 459.859 1.62381 -0.704364 0
M  V30 5053 C 456.988 3.01557 -1.64067 0
M  V30 5054 C 456.074 3.151 -2.83853 0
M  V30 5055 N 456.465 2.9861 -4.08247 0
M  V30 5056 C 454.763 3.46158 -2.8123 0
M  V30 5057 C 455.464 3.15626 -4.88626 0
M  V30 5058 N 454.44 3.43298 -4.21483 0
M  V30 5059 H 458.242 1.48708 -2.53502 0
M  V30 5060 H 455.756 0.733343 -1.44899 0
M  V30 5061 H 457.753 3.8062 -1.70101 0
M  V30 5062 H 456.413 3.16783 -0.712636 0
M  V30 5063 H 457.424 2.75329 -4.3865 0
M  V30 5064 H 454.101 3.67728 -1.97692 0
M  V30 5065 H 455.491 3.07596 -5.97356 0
M  V30 5066 N 458.211 1.37122 0.776871 0
M  V30 5067 C 459.622 1.28667 1.35284 0
M  V30 5068 C 459.973 -0.0680035 1.96082 0
M  V30 5069 O 459.098 -0.969743 1.93455 0
M  V30 5070 C 459.693 2.32997 2.45963 0
M  V30 5071 C 458.252 2.28191 2.99342 0
M  V30 5072 C 457.399 2.17101 1.72517 0
M  V30 5073 H 460.35 1.47819 0.577527 0
M  V30 5074 H 460.371 1.97366 3.2531 0
M  V30 5075 H 459.883 3.3158 2.01684 0
M  V30 5076 H 457.984 1.33115 3.4801 0
M  V30 5077 H 458.097 3.21397 3.55304 0
M  V30 5078 H 456.461 1.63562 1.95242 0
M  V30 5079 H 457.244 3.17591 1.30348 0
M  V30 5080 N 459.689 -1.00246 1.21608 0
M  V30 5081 C 460.599 -2.12515 0.993709 0
M  V30 5082 C 461.615 -1.73913 -0.0549939 0
M  V30 5083 O 462.791 -2.00943 0.135619 0
M  V30 5084 C 459.856 -3.42083 0.563953 0
M  V30 5085 C 458.917 -3.94843 1.68516 0
M  V30 5086 C 458.15 -5.18226 1.27582 0
M  V30 5087 O 458.373 -5.70201 0.150506 0
M  V30 5088 O 457.307 -5.64497 2.0887 0
M  V30 5089 H 461.133 -2.34152 1.93407 0
M  V30 5090 H 458.718 -1.10891 1.00118 0
M  V30 5091 H 460.6 -4.20073 0.334194 0
M  V30 5092 H 459.275 -3.21828 -0.347665 0
M  V30 5093 H 458.182 -3.18068 1.96935 0
M  V30 5094 H 459.515 -4.19512 2.5743 0
M  V30 5095 N 461.167 -1.02423 -1.1978 0
M  V30 5096 C 462.416 -0.713265 -1.88667 0
M  V30 5097 C 462.729 0.7609 -1.80193 0
M  V30 5098 O 463.935 1.18473 -2.44288 0
M  V30 5099 C 462.391 -1.22545 -3.38394 0
M  V30 5100 C 461.999 -2.72706 -3.55437 0
M  V30 5101 C 463.743 -0.990257 -4.12788 0
M  V30 5102 C 461.65 -3.17367 -4.99031 0
M  V30 5103 H 460.58 -0.263105 -0.706606 0
M  V30 5104 H 463.231 -1.23792 -1.35454 0
M  V30 5105 H 461.613 -0.628732 -3.90977 0
M  V30 5106 H 462.787 -3.37993 -3.13205 0
M  V30 5107 H 461.102 -2.94453 -2.94425 0
M  V30 5108 H 463.699 -1.29926 -5.18675 0
M  V30 5109 H 464.042 0.0730761 -4.16236 0
M  V30 5110 H 464.575 -1.55074 -3.66329 0
M  V30 5111 H 461.314 -4.23009 -5.00743 0
M  V30 5112 H 460.834 -2.56805 -5.42044 0
M  V30 5113 H 462.513 -3.10441 -5.67658 0
M  V30 5114 N 462.645 1.35699 -0.801477 0
M  V30 5115 C 463.577 2.28598 -0.166028 0
M  V30 5116 C 464.59 1.50044 0.631721 0
M  V30 5117 O 465.779 1.72339 0.464921 0
M  V30 5118 C 462.879 3.29625 0.787451 0
M  V30 5119 C 462.052 4.37384 0.037171 0
M  V30 5120 C 461.111 5.183 0.908375 0
M  V30 5121 O 460.137 5.68053 0.361189 0
M  V30 5122 N 461.339 5.35912 2.23112 0
M  V30 5123 H 464.104 2.83771 -0.964071 0
M  V30 5124 H 461.665 1.47994 -0.656469 0
M  V30 5125 H 463.657 3.80648 1.37439 0
M  V30 5126 H 462.227 2.75004 1.48632 0
M  V30 5127 H 461.447 3.87364 -0.730935 0
M  V30 5128 H 462.735 5.0653 -0.480109 0
M  V30 5129 H 462.133 4.97125 2.69968 0
M  V30 5130 H 460.69 5.90133 2.76741 0
M  V30 5131 N 464.123 0.554532 1.47522 0
M  V30 5132 C 465.055 -0.232106 2.28022 0
M  V30 5133 C 466.068 -0.881865 1.36847 0
M  V30 5134 O 467.257 -0.756168 1.61692 0
M  V30 5135 C 464.357 -1.34604 3.11022 0
M  V30 5136 C 463.53 -0.793582 4.30141 0
M  V30 5137 C 462.589 -1.79168 4.94758 0
M  V30 5138 O 461.615 -1.33886 5.5323 0
M  V30 5139 N 462.817 -3.12495 4.89211 0
M  V30 5140 H 465.582 0.458407 2.96173 0
M  V30 5141 H 463.143 0.390433 1.57122 0
M  V30 5142 H 465.135 -2.01243 3.51118 0
M  V30 5143 H 463.705 -1.93983 2.45131 0
M  V30 5144 H 462.925 0.0495025 3.94169 0
M  V30 5145 H 464.213 -0.403776 5.07195 0
M  V30 5146 H 463.611 -3.51931 4.42901 0
M  V30 5147 H 462.168 -3.74698 5.33333 0
M  V30 5148 N 465.601 -1.54893 0.290851 0
M  V30 5149 C 467.017 -1.59476 -0.0628432 0
M  V30 5150 C 467.217 -1.30795 -1.5328 0
M  V30 5151 O 466.273 -1.07644 -2.28406 0
M  V30 5152 C 467.586 -2.98928 0.325962 0
M  V30 5153 C 469.134 -3.11799 0.273882 0
M  V30 5154 C 469.609 -4.53544 0.637359 0
M  V30 5155 N 471.1 -4.59433 0.589507 0
M  V30 5156 C 471.835 -5.67164 0.84335 0
M  V30 5157 N 471.331 -6.82975 1.16263 0
M  V30 5158 N 473.124 -5.56786 0.771091 0
M  V30 5159 H 465.275 -1.71798 1.24896 0
M  V30 5160 H 467.538 -0.801879 0.505663 0
M  V30 5161 H 467.244 -3.24805 1.34887 0
M  V30 5162 H 467.118 -3.75793 -0.325441 0
M  V30 5163 H 469.505 -2.85677 -0.739765 0
M  V30 5164 H 469.586 -2.37112 0.959766 0
M  V30 5165 H 469.23 -4.80394 1.64877 0
M  V30 5166 H 469.16 -5.26553 -0.0704866 0
M  V30 5167 H 471.651 -3.76245 0.353252 0
M  V30 5168 H 471.964 -7.61048 1.34257 0
M  V30 5169 H 470.309 -6.84552 1.20057 0
M  V30 5170 H 473.5 -4.65187 0.521383 0
M  V30 5171 H 473.673 -6.40664 0.972295 0
M  V30 5172 N 467.08 -0.0183926 -1.57589 0
M  V30 5173 C 468.01 0.965596 -2.12599 0
M  V30 5174 C 468.991 1.34641 -1.0395 0
M  V30 5175 O 470.176 1.42693 -1.31729 0
M  V30 5176 C 467.306 2.25149 -2.64434 0
M  V30 5177 C 466.26 2.01175 -3.77773 0
M  V30 5178 C 465.586 3.35937 -4.15994 0
M  V30 5179 C 466.886 1.35953 -5.04296 0
M  V30 5180 H 468.58 0.507504 -2.95067 0
M  V30 5181 H 466.126 0.242671 -1.41941 0
M  V30 5182 H 468.079 2.94357 -3.01549 0
M  V30 5183 H 466.803 2.73105 -1.79112 0
M  V30 5184 H 465.462 1.34388 -3.4108 0
M  V30 5185 H 465.11 3.81631 -3.27669 0
M  V30 5186 H 464.81 3.20705 -4.92364 0
M  V30 5187 H 466.334 4.0643 -4.55683 0
M  V30 5188 H 467.748 1.95144 -5.39065 0
M  V30 5189 H 466.145 1.31152 -5.85593 0
M  V30 5190 H 467.215 0.331071 -4.83768 0
M  V30 5191 N 468.558 1.5553 0.254621 0
M  V30 5192 C 469.49 1.86104 1.33783 0
M  V30 5193 C 470.503 0.746752 1.44663 0
M  V30 5194 O 471.692 1.0248 1.46151 0
M  V30 5195 C 468.792 2.02532 2.71724 0
M  V30 5196 C 467.965 3.33335 2.83208 0
M  V30 5197 C 467.024 3.396 4.01943 0
M  V30 5198 O 466.05 4.12862 3.91834 0
M  V30 5199 N 467.252 2.68332 5.1476 0
M  V30 5200 H 470.017 2.79605 1.07893 0
M  V30 5201 H 467.578 1.55672 0.444732 0
M  V30 5202 H 469.57 2.04074 3.4948 0
M  V30 5203 H 468.14 1.15811 2.90356 0
M  V30 5204 H 467.36 3.44176 1.92189 0
M  V30 5205 H 468.648 4.19565 2.87824 0
M  V30 5206 H 468.046 2.08528 5.25864 0
M  V30 5207 H 466.603 2.75575 5.90679 0
M  V30 5208 N 470.036 -0.519951 1.48776 0
M  V30 5209 C 470.946 -1.65025 1.66745 0
M  V30 5210 C 471.962 -1.6508 0.549954 0
M  V30 5211 O 473.138 -1.83848 0.822295 0
M  V30 5212 C 470.203 -3.0146 1.71238 0
M  V30 5213 C 469.264 -3.12182 2.94688 0
M  V30 5214 C 468.497 -4.42109 2.98958 0
M  V30 5215 O 468.72 -5.29799 2.1135 0
M  V30 5216 O 467.654 -4.57406 3.91233 0
M  V30 5217 H 471.48 -1.52801 2.62461 0
M  V30 5218 H 469.065 -0.694157 1.32294 0
M  V30 5219 H 470.947 -3.82584 1.76657 0
M  V30 5220 H 469.622 -3.13988 0.786975 0
M  V30 5221 H 468.529 -2.30316 2.94797 0
M  V30 5222 H 469.862 -3.04574 3.86646 0
M  V30 5223 N 471.514 -1.37532 -0.769588 0
M  V30 5224 C 472.424 -1.35668 -1.91393 0
M  V30 5225 C 473.44 -0.255954 -1.72107 0
M  V30 5226 O 474.616 -0.491704 -1.95305 0
M  V30 5227 C 471.681 -1.16481 -3.26547 0
M  V30 5228 C 470.742 -2.36212 -3.58472 0
M  V30 5229 C 469.975 -2.17932 -4.87177 0
M  V30 5230 O 470.198 -1.1647 -5.58382 0
M  V30 5231 O 469.132 -3.06167 -5.18214 0
M  V30 5232 H 472.958 -2.32055 -1.95918 0
M  V30 5233 H 470.543 -1.18284 -0.912641 0
M  V30 5234 H 472.425 -1.07778 -4.07384 0
M  V30 5235 H 471.1 -0.231687 -3.2287 0
M  V30 5236 H 470.007 -2.50488 -2.77861 0
M  V30 5237 H 471.34 -3.281 -3.66894 0
M  V30 5238 N 472.992 0.995999 -1.22138 0
M  V30 5239 C 473.922 2.10387 -1.01289 0
M  V30 5240 C 474.903 1.69975 0.0651454 0
M  V30 5241 O 476.088 1.9396 -0.0964628 0
M  V30 5242 C 473.218 3.42312 -0.586517 0
M  V30 5243 C 472.172 3.96558 -1.61014 0
M  V30 5244 C 471.498 5.24494 -1.0397 0
M  V30 5245 C 472.798 4.27595 -2.99933 0
M  V30 5246 H 474.492 2.28086 -1.93951 0
M  V30 5247 H 472.038 1.09607 -0.933928 0
M  V30 5248 H 473.991 4.19223 -0.427793 0
M  V30 5249 H 472.715 3.24431 0.375761 0
M  V30 5250 H 471.374 3.21776 -1.75658 0
M  V30 5251 H 471.022 5.02953 -0.0688703 0
M  V30 5252 H 470.722 5.61755 -1.72352 0
M  V30 5253 H 472.246 6.04042 -0.892494 0
M  V30 5254 H 473.66 4.95315 -2.8868 0
M  V30 5255 H 472.057 4.76021 -3.6541 0
M  V30 5256 H 473.127 3.35498 -3.50099 0
M  V30 5257 N 474.47 1.03057 1.19235 0
M  V30 5258 C 475.747 0.642608 1.84743 0
M  V30 5259 C 476.127 -0.878577 1.91948 0
M  V30 5260 O 475.475 -1.77597 1.43776 0
M  V30 5261 C 475.685 1.30665 3.23616 0
M  V30 5262 C 477.033 1.43098 3.9976 0
M  V30 5263 O 478.057 1.26396 3.3302 0
M  V30 5264 O 476.916 1.70223 5.19313 0
M  V30 5265 H 474.01 0.223573 0.796206 0
M  V30 5266 H 476.556 1.12883 1.26711 0
M  V30 5267 H 475.328 2.34544 3.13217 0
M  V30 5268 H 474.951 0.808405 3.89295 0
M  V30 5269 N 475.948 -1.35272 0.808662 0
M  V30 5270 C 476.898 -2.27181 0.193124 0
M  V30 5271 C 477.882 -1.47871 -0.634265 0
M  V30 5272 O 479.074 -1.70048 -0.491182 0
M  V30 5273 C 476.203 -3.36979 -0.655751 0
M  V30 5274 C 475.289 -4.23712 0.181481 0
M  V30 5275 N 475.68 -4.90225 1.24551 0
M  V30 5276 C 473.978 -4.45985 -0.0365493 0
M  V30 5277 C 474.679 -5.54537 1.75682 0
M  V30 5278 N 473.655 -5.33107 1.06294 0
M  V30 5279 H 477.457 -2.76101 1.00724 0
M  V30 5280 H 474.971 -1.48823 0.650029 0
M  V30 5281 H 476.968 -4.01774 -1.11279 0
M  V30 5282 H 475.628 -2.89611 -1.46819 0
M  V30 5283 H 476.639 -4.91641 1.62818 0
M  V30 5284 H 473.316 -4.09409 -0.817964 0
M  V30 5285 H 474.706 -6.17597 2.64621 0
M  V30 5286 N 477.426 -0.562348 -1.47226 0
M  V30 5287 C 478.336 0.185466 -2.33866 0
M  V30 5288 C 479.352 0.906713 -1.48508 0
M  V30 5289 O 480.528 0.874458 -1.81425 0
M  V30 5290 C 477.593 1.19904 -3.25306 0
M  V30 5291 C 476.654 0.484669 -4.26555 0
M  V30 5292 C 475.887 1.44996 -5.13626 0
M  V30 5293 O 476.11 2.68515 -5.03245 0
M  V30 5294 O 475.044 0.971642 -5.94006 0
M  V30 5295 H 478.87 -0.525361 -2.99121 0
M  V30 5296 H 476.455 -0.322916 -1.45868 0
M  V30 5297 H 478.337 1.78399 -3.81774 0
M  V30 5298 H 477.012 1.8917 -2.62672 0
M  V30 5299 H 475.919 -0.141605 -3.73832 0
M  V30 5300 H 477.252 -0.166634 -4.91918 0
M  V30 5301 N 478.904 1.54736 -0.299062 0
M  V30 5302 C 479.834 2.26409 0.571085 0
M  V30 5303 C 480.815 1.2629 1.13951 0
M  V30 5304 O 482 1.55059 1.16921 0
M  V30 5305 C 479.13 3.00338 1.74396 0
M  V30 5306 C 478.084 4.07588 1.30599 0
M  V30 5307 C 477.41 4.69222 2.56387 0
M  V30 5308 C 478.71 5.20455 0.438645 0
M  V30 5309 H 480.404 2.99388 -0.0266991 0
M  V30 5310 H 477.95 1.43993 -0.0142812 0
M  V30 5311 H 479.903 3.49198 2.35878 0
M  V30 5312 H 478.627 2.24934 2.36796 0
M  V30 5313 H 477.286 3.59575 0.71424 0
M  V30 5314 H 476.934 3.9046 3.17097 0
M  V30 5315 H 476.634 5.41653 2.27784 0
M  V30 5316 H 478.158 5.20844 3.18675 0
M  V30 5317 H 479.572 5.65221 0.959085 0
M  V30 5318 H 477.969 5.99594 0.246466 0
M  V30 5319 H 479.039 4.8192 -0.536738 0
M  V30 5320 N 480.382 0.0267497 1.57577 0
M  V30 5321 C 481.63 -0.651116 1.91324 0
M  V30 5322 C 481.951 -1.72804 0.90353 0
M  V30 5323 O 481.221 -1.95822 -0.0552946 0
M  V30 5324 H 479.801 -0.243491 0.706202 0
M  V30 5325 H 482.463 0.0739935 1.94759 0
M  V30 5326 H 481.559 -1.10536 2.9187 0
M  V30 5327 N 481.861 -1.55662 -0.24637 0
M  V30 5328 C 483.272 -1.67953 -0.81539 0
M  V30 5329 C 483.623 -0.624302 -1.86002 0
M  V30 5330 O 482.748 0.229328 -2.15181 0
M  V30 5331 C 483.343 -3.04484 -1.48576 0
M  V30 5332 C 481.902 -3.18713 -2.00248 0
M  V30 5333 C 481.049 -2.6383 -0.853766 0
M  V30 5334 H 484 -1.58685 -0.0221692 0
M  V30 5335 H 484.021 -2.98959 -2.3538 0
M  V30 5336 H 483.533 -3.81264 -0.725222 0
M  V30 5337 H 481.634 -2.46757 -2.79181 0
M  V30 5338 H 481.747 -4.25628 -2.1995 0
M  V30 5339 H 480.111 -2.21667 -1.25442 0
M  V30 5340 H 480.894 -3.43135 -0.106302 0
M  V30 5341 N 483.339 0.512053 -1.4905 0
M  V30 5342 C 484.587 1.26436 -1.57665 0
M  V30 5343 C 484.908 1.93255 -0.260293 0
M  V30 5344 O 484.178 1.82206 0.719564 0
M  V30 5345 H 482.758 0.469658 -0.580888 0
M  V30 5346 H 485.42 0.594398 -1.85615 0
M  V30 5347 H 484.516 2.03417 -2.36702 0
M  V30 5348 N 484.817 1.37938 0.762283 0
M  V30 5349 C 485.78 1.34279 1.85747 0
M  V30 5350 C 486.78 0.244969 1.58923 0
M  V30 5351 O 487.97 0.501365 1.66829 0
M  V30 5352 C 485.102 1.08833 3.23061 0
M  V30 5353 H 486.295 2.31705 1.90401 0
M  V30 5354 H 483.848 1.23105 0.963057 0
M  V30 5355 H 484.583 0.119767 3.24079 0
M  V30 5356 H 484.368 1.88306 3.43923 0
M  V30 5357 H 485.858 1.08946 4.03138 0
M  V30 5358 N 486.295 -0.989507 1.22664 0
M  V30 5359 C 487.52 -1.77031 1.08051 0
M  V30 5360 C 487.945 -1.84535 -0.364483 0
M  V30 5361 O 487.303 -1.3003 -1.2634 0
M  V30 5362 C 487.351 -3.18 1.70024 0
M  V30 5363 O 486.455 -4.01161 0.956216 0
M  V30 5364 H 485.796 -0.545008 0.379292 0
M  V30 5365 H 488.326 -1.24277 1.62531 0
M  V30 5366 H 488.336 -3.68616 1.74888 0
M  V30 5367 H 487.011 -3.11853 2.75174 0
M  V30 5368 H 485.588 -3.59687 0.98384 0
M  V30 5369 N 487.773 -1.03688 -1.18687 0
M  V30 5370 C 488.998 -0.757819 -1.93059 0
M  V30 5371 C 489.423 0.678353 -1.75442 0
M  V30 5372 O 488.781 1.46938 -1.06203 0
M  V30 5373 C 488.829 -1.12423 -3.42627 0
M  V30 5374 O 487.933 -0.247505 -4.11657 0
M  V30 5375 H 487.274 -0.279245 -0.602427 0
M  V30 5376 H 489.804 -1.3857 -1.5053 0
M  V30 5377 H 489.814 -1.08454 -3.93322 0
M  V30 5378 H 488.489 -2.17049 -3.54771 0
M  V30 5379 H 487.066 -0.34649 -3.71287 0
M  V30 5380 N 489.251 1.34841 -0.815825 0
M  V30 5381 C 490.476 2.03261 -0.41226 0
M  V30 5382 C 490.901 1.61055 0.971751 0
M  V30 5383 O 490.259 0.7917 1.63101 0
M  V30 5384 C 490.307 3.56914 -0.514289 0
M  V30 5385 O 489.411 4.09728 0.468675 0
M  V30 5386 H 488.752 0.641664 -0.170771 0
M  V30 5387 H 491.282 1.72241 -1.10427 0
M  V30 5388 H 491.292 4.06156 -0.387457 0
M  V30 5389 H 489.967 3.86982 -1.52375 0
M  V30 5390 H 488.544 3.71681 0.301316 0
M  V30 5391 N 490.729 0.570148 1.46925 0
M  V30 5392 C 492.145 0.23087 1.57921 0
M  V30 5393 C 492.345 -1.26676 1.56702 0
M  V30 5394 O 491.401 -2.04774 1.47729 0
M  V30 5395 C 492.714 0.868973 2.8787 0
M  V30 5396 C 494.262 0.841397 3.01479 0
M  V30 5397 C 494.737 1.45881 4.34146 0
M  V30 5398 N 496.228 1.42258 4.40814 0
M  V30 5399 C 496.963 1.8698 5.42057 0
M  V30 5400 N 496.459 2.39618 6.50042 0
M  V30 5401 N 498.252 1.77972 5.33181 0
M  V30 5402 H 490.403 1.54301 1.45962 0
M  V30 5403 H 492.666 0.644224 0.69547 0
M  V30 5404 H 492.372 1.922 2.94537 0
M  V30 5405 H 492.246 0.369682 3.75384 0
M  V30 5406 H 494.633 -0.202973 2.94401 0
M  V30 5407 H 494.714 1.37858 2.15474 0
M  V30 5408 H 494.358 2.50231 4.4198 0
M  V30 5409 H 494.288 0.896958 5.18905 0
M  V30 5410 H 496.779 1.03768 3.63374 0
M  V30 5411 H 497.092 2.71633 7.23488 0
M  V30 5412 H 495.437 2.43636 6.50897 0
M  V30 5413 H 498.628 1.36617 4.4772 0
M  V30 5414 H 498.801 2.13143 6.11943 0
M  V30 5415 N 492.207 -1.54576 0.307264 0
M  V30 5416 C 493.453 -2.0056 -0.300612 0
M  V30 5417 C 493.786 -1.1953 -1.53057 0
M  V30 5418 O 493.061 -0.27337 -1.92569 0
M  V30 5419 C 493.344 -3.54167 -0.650987 0
M  V30 5420 C 493.197 -4.45933 0.588539 0
M  V30 5421 C 494.516 -4.14645 -1.47506 0
M  V30 5422 H 491.635 -0.729075 -0.107788 0
M  V30 5423 H 494.277 -1.85286 0.420606 0
M  V30 5424 H 492.427 -3.67313 -1.26544 0
M  V30 5425 H 494.099 -4.44683 1.22697 0
M  V30 5426 H 492.342 -4.16274 1.22058 0
M  V30 5427 H 493.013 -5.51189 0.299153 0
M  V30 5428 H 495.489 -4.04973 -0.955821 0
M  V30 5429 H 494.365 -5.22269 -1.68899 0
M  V30 5430 H 494.626 -3.66921 -2.4662 0
M  V30 5431 N 493.685 -0.035106 -1.57561 0
M  V30 5432 C 495.096 0.502885 -1.798 0
M  V30 5433 C 495.447 1.71892 -0.945921 0
M  V30 5434 O 494.572 2.15822 -0.157991 0
M  V30 5435 C 495.167 0.919097 -3.26095 0
M  V30 5436 C 493.726 1.40216 -3.49308 0
M  V30 5437 C 492.873 0.369709 -2.74824 0
M  V30 5438 H 495.824 -0.261102 -1.56537 0
M  V30 5439 H 495.845 1.78308 -3.36135 0
M  V30 5440 H 495.357 0.0338526 -3.88085 0
M  V30 5441 H 493.458 2.30714 -2.92578 0
M  V30 5442 H 493.571 1.40541 -4.58023 0
M  V30 5443 H 491.935 0.839113 -2.40481 0
M  V30 5444 H 492.718 -0.507173 -3.39533 0
M  V30 5445 N 495.163 1.55791 0.238111 0
M  V30 5446 C 496.393 1.81834 0.980809 0
M  V30 5447 C 496.801 0.609741 1.79106 0
M  V30 5448 O 496.144 -0.431073 1.78571 0
M  V30 5449 C 496.206 3.01363 1.96011 0
M  V30 5450 C 495.87 4.37037 1.33597 0
M  V30 5451 C 496.867 5.14692 0.734063 0
M  V30 5452 C 494.552 4.83743 1.3527 0
M  V30 5453 C 496.546 6.37206 0.157208 0
M  V30 5454 C 494.233 6.06204 0.77199 0
M  V30 5455 C 495.231 6.82775 0.175282 0
M  V30 5456 O 494.919 8.02922 -0.396432 0
M  V30 5457 H 494.651 0.6088 0.293834 0
M  V30 5458 H 497.205 2.03702 0.263552 0
M  V30 5459 H 495.435 2.75273 2.71591 0
M  V30 5460 H 497.124 3.14422 2.56697 0
M  V30 5461 H 497.89 4.79722 0.713582 0
M  V30 5462 H 493.769 4.24129 1.80653 0
M  V30 5463 H 497.313 6.96915 -0.30917 0
M  V30 5464 H 493.21 6.4065 0.789828 0
M  V30 5465 H 493.978 8.17989 -0.289145 0
M  V30 5466 N 496.642 -0.504142 1.49319 0
M  V30 5467 C 497.589 -1.60603 1.65756 0
M  V30 5468 C 498.559 -1.58425 0.499082 0
M  V30 5469 O 499.744 -1.76459 0.725728 0
M  V30 5470 C 496.884 -2.98764 1.72726 0
M  V30 5471 C 495.997 -3.10982 2.99857 0
M  V30 5472 C 495.132 -4.39857 2.97824 0
M  V30 5473 C 494.171 -4.45697 4.19548 0
M  V30 5474 N 493.308 -5.65995 4.15444 0
M  V30 5475 H 498.148 -1.45895 2.59843 0
M  V30 5476 H 495.685 -0.709891 1.28837 0
M  V30 5477 H 497.643 -3.78839 1.74747 0
M  V30 5478 H 496.273 -3.12183 0.821075 0
M  V30 5479 H 495.325 -2.23991 3.07461 0
M  V30 5480 H 496.637 -3.11157 3.89849 0
M  V30 5481 H 495.791 -5.2825 2.98391 0
M  V30 5482 H 494.53 -4.42242 2.05604 0
M  V30 5483 H 493.535 -3.55707 4.19229 0
M  V30 5484 H 494.76 -4.4503 5.12957 0
M  V30 5485 H 492.706 -5.69229 3.26059 0
M  V30 5486 H 492.623 -5.67773 4.99169 0
M  V30 5487 H 493.891 -6.56604 4.20109 0
M  V30 5488 N 498.12 -1.38341 -0.754957 0
M  V30 5489 C 499.397 -1.24995 -1.50451 0
M  V30 5490 C 499.777 0.149244 -2.10572 0
M  V30 5491 O 499.125 1.15861 -1.96948 0
M  V30 5492 C 499.335 -2.35904 -2.57197 0
M  V30 5493 C 500.683 -2.74262 -3.24138 0
M  V30 5494 O 501.707 -2.35205 -2.67501 0
M  V30 5495 O 500.566 -3.4161 -4.26574 0
M  V30 5496 H 497.66 -0.48872 -0.667144 0
M  V30 5497 H 500.206 -1.50165 -0.790486 0
M  V30 5498 H 498.978 -3.2953 -2.11011 0
M  V30 5499 H 498.601 -2.12291 -3.36182 0
M  V30 5500 N 499.598 0.982988 -1.23187 0
M  V30 5501 C 501.014 1.2487 -0.993967 0
M  V30 5502 C 501.214 1.99155 0.306498 0
M  V30 5503 O 500.27 2.30688 1.0266 0
M  V30 5504 C 501.583 2.05078 -2.19917 0
M  V30 5505 C 503.131 2.18227 -2.2438 0
M  V30 5506 C 503.606 3.01825 -3.44479 0
M  V30 5507 N 505.097 3.09411 -3.44702 0
M  V30 5508 C 505.832 3.74412 -4.34285 0
M  V30 5509 N 505.328 4.41259 -5.341 0
M  V30 5510 N 507.121 3.71273 -4.22035 0
M  V30 5511 H 499.272 0.485253 -2.06783 0
M  V30 5512 H 501.535 0.276979 -0.906635 0
M  V30 5513 H 501.241 1.57867 -3.14279 0
M  V30 5514 H 501.115 3.05829 -2.2079 0
M  V30 5515 H 503.502 2.64648 -1.30559 0
M  V30 5516 H 503.583 1.16873 -2.2754 0
M  V30 5517 H 503.227 2.56102 -4.38605 0
M  V30 5518 H 503.157 4.03342 -3.38559 0
M  V30 5519 H 505.648 2.61845 -2.7248 0
M  V30 5520 H 505.961 4.88629 -5.98717 0
M  V30 5521 H 504.306 4.39975 -5.38002 0
M  V30 5522 H 507.497 3.18217 -3.43301 0
M  V30 5523 H 507.67 4.21649 -4.92053 0
M  V30 5524 N 501.076 1.04316 1.18135 0
M  V30 5525 C 502.039 0.640794 2.2006 0
M  V30 5526 C 503.039 -0.303124 1.57917 0
M  V30 5527 O 504.229 -0.0881855 1.73977 0
M  V30 5528 C 501.361 -0.060148 3.40847 0
M  V30 5529 H 502.554 1.54281 2.57172 0
M  V30 5530 H 500.107 0.836004 1.32063 0
M  V30 5531 H 500.842 -0.975845 3.0927 0
M  V30 5532 H 500.627 0.618319 3.87194 0
M  V30 5533 H 502.117 -0.328082 4.16309 0
M  V30 5534 N 502.554 -1.34406 0.822964 0
M  V30 5535 C 503.97 -1.51275 0.508727 0
M  V30 5536 C 504.17 -1.76776 -0.967083 0
M  V30 5537 O 503.226 -1.81871 -1.75155 0
M  V30 5538 C 504.539 -2.67765 1.36829 0
M  V30 5539 C 506.087 -2.81647 1.36542 0
M  V30 5540 C 506.562 -4.01181 2.20947 0
M  V30 5541 N 508.053 -4.08388 2.18571 0
M  V30 5542 C 508.788 -5.00036 2.80627 0
M  V30 5543 N 508.284 -5.96906 3.51674 0
M  V30 5544 N 510.077 -4.92908 2.70181 0
M  V30 5545 H 502.228 -1.16113 1.77852 0
M  V30 5546 H 504.491 -0.56947 0.757897 0
M  V30 5547 H 504.197 -2.55551 2.41633 0
M  V30 5548 H 504.071 -3.62779 1.03303 0
M  V30 5549 H 506.458 -2.93303 0.325163 0
M  V30 5550 H 506.539 -1.87443 1.74066 0
M  V30 5551 H 506.183 -3.90286 3.25022 0
M  V30 5552 H 506.113 -4.94599 1.80774 0
M  V30 5553 H 508.604 -3.39051 1.66891 0
M  V30 5554 H 508.917 -6.63468 3.96271 0
M  V30 5555 H 507.262 -5.9703 3.5578 0
M  V30 5556 H 510.453 -4.1619 2.14251 0
M  V30 5557 H 510.626 -5.64137 3.18831 0
M  V30 5558 N 504.032 -0.577932 -1.46621 0
M  V30 5559 C 504.962 0.145917 -2.33044 0
M  V30 5560 C 505.943 0.888412 -1.45056 0
M  V30 5561 O 507.128 0.864812 -1.73881 0
M  V30 5562 C 504.258 1.16322 -3.27241 0
M  V30 5563 C 503.212 0.535868 -4.24632 0
M  V30 5564 C 502.538 1.65929 -5.08303 0
M  V30 5565 C 503.838 -0.523861 -5.19666 0
M  V30 5566 H 505.532 -0.575636 -2.93814 0
M  V30 5567 H 503.078 -0.278272 -1.41286 0
M  V30 5568 H 505.031 1.67793 -3.86553 0
M  V30 5569 H 503.755 1.91498 -2.64567 0
M  V30 5570 H 502.414 0.0422759 -3.66576 0
M  V30 5571 H 502.062 2.40061 -4.42018 0
M  V30 5572 H 501.762 1.2452 -5.74255 0
M  V30 5573 H 503.286 2.17686 -5.70478 0
M  V30 5574 H 504.7 -0.0944059 -5.73222 0
M  V30 5575 H 503.097 -0.858 -5.93935 0
M  V30 5576 H 504.167 -1.41197 -4.63887 0
M  V30 5577 N 505.51 1.54411 -0.315457 0
M  V30 5578 C 506.921 1.85885 0.174265 0
M  V30 5579 C 507.272 1.23723 1.52273 0
M  V30 5580 O 506.397 0.540246 2.09548 0
M  V30 5581 C 506.992 3.37257 0.322981 0
M  V30 5582 C 505.551 3.68711 0.756922 0
M  V30 5583 C 504.698 2.77013 -0.126195 0
M  V30 5584 H 507.649 1.49374 -0.536007 0
M  V30 5585 H 507.67 3.62539 1.15522 0
M  V30 5586 H 507.182 3.82471 -0.658602 0
M  V30 5587 H 505.283 3.29024 1.74854 0
M  V30 5588 H 505.396 4.75741 0.566291 0
M  V30 5589 H 503.76 2.51588 0.39692 0
M  V30 5590 H 504.543 3.25051 -1.1044 0
M  V30 5591 N 506.988 0.0434614 1.5754 0
M  V30 5592 C 507.918 -0.931651 2.14109 0
M  V30 5593 C 508.899 -1.32971 1.06079 0
M  V30 5594 O 510.084 -1.40579 1.33982 0
M  V30 5595 C 507.214 -2.20914 2.67982 0
M  V30 5596 C 506.168 -1.95139 3.80926 0
M  V30 5597 C 505.494 -3.29276 4.21285 0
M  V30 5598 C 506.794 -1.27913 5.06395 0
M  V30 5599 H 508.488 -0.460497 2.95837 0
M  V30 5600 H 506.034 -0.220058 1.42309 0
M  V30 5601 H 507.987 -2.89522 3.06194 0
M  V30 5602 H 506.711 -2.70221 1.83434 0
M  V30 5603 H 505.37 -1.28945 3.43175 0
M  V30 5604 H 505.018 -3.76369 3.33699 0
M  V30 5605 H 504.718 -3.12831 4.97404 0
M  V30 5606 H 506.242 -3.99129 4.62091 0
M  V30 5607 H 507.656 -1.86544 5.42102 0
M  V30 5608 H 506.053 -1.2182 5.87605 0
M  V30 5609 H 507.123 -0.254066 4.84234 0
M  V30 5610 N 508.466 -1.55915 -0.229846 0
M  V30 5611 C 509.396 -1.94754 -1.28815 0
M  V30 5612 C 510.377 -0.814657 -1.49323 0
M  V30 5613 O 511.562 -1.07631 -1.61645 0
M  V30 5614 C 508.692 -2.25705 -2.63959 0
M  V30 5615 C 507.646 -3.41406 -2.5812 0
M  V30 5616 C 506.972 -3.57941 -3.97218 0
M  V30 5617 C 508.272 -4.76616 -2.13623 0
M  V30 5618 H 509.966 -2.83404 -0.965547 0
M  V30 5619 H 507.512 -1.36353 -0.463028 0
M  V30 5620 H 509.465 -2.51467 -3.38146 0
M  V30 5621 H 508.189 -1.339 -2.9789 0
M  V30 5622 H 506.848 -3.1568 -1.86391 0
M  V30 5623 H 506.496 -2.63526 -4.28443 0
M  V30 5624 H 506.196 -4.35757 -3.94195 0
M  V30 5625 H 507.72 -3.86042 -4.73079 0
M  V30 5626 H 509.134 -5.01637 -2.77549 0
M  V30 5627 H 507.531 -5.57655 -2.21677 0
M  V30 5628 H 508.601 -4.7253 -1.08829 0
M  V30 5629 N 509.944 0.496216 -1.49584 0
M  V30 5630 C 510.892 1.61805 -1.67098 0
M  V30 5631 C 511.886 1.60667 -0.536877 0
M  V30 5632 O 513.092 1.65118 -0.716654 0
M  V30 5633 H 509.467 0.53646 -0.526986 0
M  V30 5634 H 511.438 1.44187 -2.61252 0
M  V30 5635 C 510.187 2.99912 -1.75921 0
M  V30 5636 H 509.51 3.01496 -2.62565 0
M  V30 5637 H 510.95 3.77931 -1.92209 0
M  V30 5638 C 509.409 3.33092 -0.505088 0
M  V30 5639 O 509.939 4.00019 0.367085 0
M  V30 5640 N 508.145 2.88278 -0.366599 0
M  V30 5641 H 507.692 2.33989 -1.07735 0
M  V30 5642 H 507.65 3.10846 0.47142 0
M  V30 5643 N 511.423 1.38739 0.74761 0
M  V30 5644 C 512.386 1.36241 1.84312 0
M  V30 5645 C 513.386 0.261811 1.58654 0
M  V30 5646 O 514.576 0.519031 1.66288 0
M  V30 5647 C 511.708 1.12253 3.21888 0
M  V30 5648 H 512.901 2.33712 1.87933 0
M  V30 5649 H 510.454 1.2412 0.949946 0
M  V30 5650 H 511.189 0.154133 3.23934 0
M  V30 5651 H 510.974 1.91943 3.41907 0
M  V30 5652 H 512.464 1.13215 4.0196 0
M  V30 5653 N 512.901 -0.976442 1.23707 0
M  V30 5654 C 514.129 -1.75341 1.09833 0
M  V30 5655 C 514.544 -1.8553 -0.349885 0
M  V30 5656 O 513.901 -1.33732 -1.24185 0
M  V30 5657 C 513.952 -3.17833 1.72233 0
M  V30 5658 O 513.673 -3.08167 3.11391 0
M  V30 5659 C 515.174 -4.11906 1.63853 0
M  V30 5660 H 512.394 -0.550137 0.384175 0
M  V30 5661 H 514.938 -1.2265 1.63638 0
M  V30 5662 H 513.093 -3.67538 1.22452 0
M  V30 5663 H 513.507 -3.97897 3.41729 0
M  V30 5664 H 514.981 -5.09579 2.12211 0
M  V30 5665 H 515.458 -4.35109 0.598092 0
M  V30 5666 H 516.064 -3.68107 2.13019 0
M  V30 5667 N 514.379 -1.04941 -1.1758 0
M  V30 5668 C 515.628 -0.753124 -1.87112 0
M  V30 5669 C 515.941 0.722507 -1.81767 0
M  V30 5670 O 517.147 1.13265 -2.46746 0
M  V30 5671 C 515.603 -1.29695 -3.35719 0
M  V30 5672 C 515.211 -2.80184 -3.49572 0
M  V30 5673 C 516.955 -1.07759 -4.10595 0
M  V30 5674 C 514.862 -3.2788 -4.92187 0
M  V30 5675 H 513.792 -0.278034 -0.700866 0
M  V30 5676 H 516.443 -1.26637 -1.32798 0
M  V30 5677 H 514.825 -0.711522 -3.89555 0
M  V30 5678 H 515.999 -3.44561 -3.05965 0
M  V30 5679 H 514.314 -3.00632 -2.88113 0
M  V30 5680 H 516.911 -1.40899 -5.15802 0
M  V30 5681 H 517.254 -0.0152302 -4.16297 0
M  V30 5682 H 517.787 -1.62809 -3.62957 0
M  V30 5683 H 514.526 -4.33535 -4.91658 0
M  V30 5684 H 514.046 -2.68245 -5.36475 0
M  V30 5685 H 515.725 -3.22412 -5.60945 0
M  V30 5686 N 515.857 1.33968 -0.830081 0
M  V30 5687 C 516.82 2.27694 -0.26235 0
M  V30 5688 C 517.82 1.50589 0.563876 0
M  V30 5689 O 519.01 1.70028 0.378941 0
M  V30 5690 C 516.142 3.35002 0.63138 0
M  V30 5691 H 517.335 2.79419 -1.08928 0
M  V30 5692 H 514.888 1.44221 -0.602486 0
M  V30 5693 H 515.623 2.88504 1.48109 0
M  V30 5694 H 515.408 3.92079 0.0403276 0
M  V30 5695 H 516.898 4.04897 1.02217 0
M  V30 5696 N 517.335 0.585699 1.46312 0
M  V30 5697 C 518.245 -0.148236 2.34131 0
M  V30 5698 C 519.261 -0.882972 1.49932 0
M  V30 5699 O 520.437 -0.845484 1.82794 0
M  V30 5700 C 517.502 -1.14714 3.27172 0
M  V30 5701 C 516.563 -0.416746 4.27272 0
M  V30 5702 C 515.796 -1.36806 5.15868 0
M  V30 5703 O 516.019 -2.60475 5.07454 0
M  V30 5704 O 514.953 -0.877018 5.95476 0
M  V30 5705 H 518.779 0.572882 2.98248 0
M  V30 5706 H 516.364 0.346082 1.45336 0
M  V30 5707 H 518.246 -1.72303 3.84564 0
M  V30 5708 H 516.921 -1.84967 2.65648 0
M  V30 5709 H 515.828 0.201061 3.73559 0
M  V30 5710 H 517.161 0.244872 4.9159 0
M  V30 5711 N 518.813 -1.54241 0.323641 0
M  V30 5712 C 520.059 -2.00867 -0.279323 0
M  V30 5713 C 520.392 -1.21146 -1.5178 0
M  V30 5714 O 519.667 -0.29378 -1.92269 0
M  V30 5715 C 519.95 -3.54837 -0.613387 0
M  V30 5716 C 519.803 -4.45284 0.635803 0
M  V30 5717 C 521.122 -4.16186 -1.43099 0
M  V30 5718 H 518.241 -0.730177 -0.100049 0
M  V30 5719 H 520.883 -1.84829 0.440235 0
M  V30 5720 H 519.033 -3.68634 -1.22641 0
M  V30 5721 H 520.705 -4.43357 1.27406 0
M  V30 5722 H 518.948 -4.14956 1.26466 0
M  V30 5723 H 519.619 -5.5084 0.357597 0
M  V30 5724 H 522.095 -4.05964 -0.912814 0
M  V30 5725 H 520.971 -5.24031 -1.6335 0
M  V30 5726 H 521.232 -3.69516 -2.42715 0
M  V30 5727 N 520.291 -0.0518155 -1.57515 0
M  V30 5728 C 521.221 0.920283 -2.146 0
M  V30 5729 C 522.202 1.32406 -1.06783 0
M  V30 5730 O 523.387 1.39866 -1.34726 0
M  V30 5731 C 520.517 2.1949 -2.6915 0
M  V30 5732 C 519.471 1.93116 -3.81956 0
M  V30 5733 C 518.797 3.27037 -4.23026 0
M  V30 5734 C 520.097 1.25225 -5.07066 0
M  V30 5735 H 521.791 0.444801 -2.96077 0
M  V30 5736 H 519.337 0.212508 -1.42423 0
M  V30 5737 H 521.29 2.87894 -3.07725 0
M  V30 5738 H 520.014 2.69244 -1.84865 0
M  V30 5739 H 518.673 1.27123 -3.43854 0
M  V30 5740 H 518.321 3.74595 -3.3569 0
M  V30 5741 H 518.021 3.10189 -4.99056 0
M  V30 5742 H 519.545 3.96673 -4.64202 0
M  V30 5743 H 520.959 1.83666 -5.43083 0
M  V30 5744 H 519.356 1.18702 -5.88243 0
M  V30 5745 H 520.426 0.228382 -4.84362 0
M  V30 5746 N 521.769 1.56035 0.221574 0
M  V30 5747 C 523.185 1.49026 0.571271 0
M  V30 5748 C 523.385 0.746912 1.87146 0
M  V30 5749 O 522.441 0.286566 2.50869 0
M  V30 5750 C 523.754 2.93579 0.650522 0
M  V30 5751 C 525.302 3.04099 0.741151 0
M  V30 5752 C 525.777 4.5001 0.851747 0
M  V30 5753 N 527.268 4.54053 0.915968 0
M  V30 5754 C 528.003 5.64232 1.02125 0
M  V30 5755 N 527.499 6.84164 1.09049 0
M  V30 5756 N 529.292 5.52084 1.05639 0
M  V30 5757 H 521.443 2.02791 -0.63162 0
M  V30 5758 H 523.706 0.921736 -0.221602 0
M  V30 5759 H 523.412 3.50912 -0.235253 0
M  V30 5760 H 523.286 3.45476 1.51413 0
M  V30 5761 H 525.673 2.4683 1.61737 0
M  V30 5762 H 525.754 2.55371 -0.148128 0
M  V30 5763 H 525.398 5.07896 -0.0200117 0
M  V30 5764 H 525.328 4.96444 1.75644 0
M  V30 5765 H 527.819 3.67683 0.872782 0
M  V30 5766 H 528.132 7.63883 1.1706 0
M  V30 5767 H 526.477 6.86875 1.05962 0
M  V30 5768 H 529.668 4.57317 0.998953 0
M  V30 5769 H 529.841 6.37983 1.13498 0
M  V30 5770 N 523.247 -0.488276 1.49845 0
M  V30 5771 C 524.177 -1.59675 1.70371 0
M  V30 5772 C 525.158 -1.60878 0.552473 0
M  V30 5773 O 526.343 -1.77417 0.78973 0
M  V30 5774 C 523.473 -2.98098 1.782 0
M  V30 5775 C 522.427 -3.11761 2.93239 0
M  V30 5776 C 521.753 -4.51661 2.86193 0
M  V30 5777 C 523.053 -2.90589 4.33999 0
M  V30 5778 H 524.747 -1.42752 2.63177 0
M  V30 5779 H 522.293 -0.685317 1.26647 0
M  V30 5780 H 524.246 -3.75555 1.91144 0
M  V30 5781 H 522.97 -3.16138 0.820018 0
M  V30 5782 H 521.629 -2.36732 2.79917 0
M  V30 5783 H 521.277 -4.66595 1.87877 0
M  V30 5784 H 520.977 -4.61742 3.63412 0
M  V30 5785 H 522.501 -5.31162 3.01163 0
M  V30 5786 H 523.915 -3.57807 4.47936 0
M  V30 5787 H 522.312 -3.1213 5.12538 0
M  V30 5788 H 523.382 -1.86595 4.4756 0
M  V30 5789 N 524.725 -1.39134 -0.740242 0
M  V30 5790 C 526.141 -1.20623 -1.0451 0
M  V30 5791 C 526.341 -0.0641651 -2.01398 0
M  V30 5792 O 525.397 0.585843 -2.4561 0
M  V30 5793 C 526.71 -2.53815 -1.6124 0
M  V30 5794 C 528.258 -2.60615 -1.73346 0
M  V30 5795 C 528.733 -3.94015 -2.33486 0
M  V30 5796 N 530.224 -3.95627 -2.40902 0
M  V30 5797 C 530.959 -4.95616 -2.88361 0
M  V30 5798 N 530.455 -6.06003 -3.35756 0
M  V30 5799 N 532.248 -4.82998 -2.87523 0
M  V30 5800 H 524.399 -2.12176 -0.0975576 0
M  V30 5801 H 526.662 -0.942066 -0.105904 0
M  V30 5802 H 526.368 -3.37911 -0.975144 0
M  V30 5803 H 526.242 -2.73162 -2.6012 0
M  V30 5804 H 528.629 -1.76906 -2.36195 0
M  V30 5805 H 528.71 -2.45123 -0.731336 0
M  V30 5806 H 528.354 -4.78153 -1.71267 0
M  V30 5807 H 528.284 -4.06825 -3.34366 0
M  V30 5808 H 530.775 -3.15903 -2.07398 0
M  V30 5809 H 531.088 -6.78215 -3.70464 0
M  V30 5810 H 529.433 -6.09604 -3.33778 0
M  V30 5811 H 532.624 -3.95866 -2.49816 0
M  V30 5812 H 532.797 -5.61072 -3.24196 0
M  V30 5813 N 526.204 0.969867 -1.24223 0
M  V30 5814 C 527.615 1.52717 -1.07399 0
M  V30 5815 C 527.966 1.92956 0.355298 0
M  V30 5816 O 527.091 1.77112 1.2434 0
M  V30 5817 C 527.686 2.77521 -1.94339 0
M  V30 5818 C 526.245 3.29615 -1.81744 0
M  V30 5819 C 525.392 2.02537 -1.89405 0
M  V30 5820 H 528.343 0.788399 -1.37732 0
M  V30 5821 H 528.364 3.50773 -1.47439 0
M  V30 5822 H 527.876 2.48203 -2.98357 0
M  V30 5823 H 525.977 3.63789 -0.805505 0
M  V30 5824 H 526.09 3.98661 -2.65718 0
M  V30 5825 H 524.454 2.17151 -1.33108 0
M  V30 5826 H 525.237 1.75587 -2.94999 0
M  V30 5827 N 527.682 1.05563 1.17022 0
M  V30 5828 C 528.928 0.769074 1.87652 0
M  V30 5829 C 529.261 -0.702326 1.81055 0
M  V30 5830 O 528.536 -1.5139 1.22112 0
M  V30 5831 C 528.819 1.25492 3.37526 0
M  V30 5832 C 528.672 2.78953 3.52853 0
M  V30 5833 C 529.991 0.856919 4.31677 0
M  V30 5834 H 527.11 0.280854 0.681388 0
M  V30 5835 H 529.752 1.31027 1.37593 0
M  V30 5836 H 527.902 0.794516 3.80289 0
M  V30 5837 H 529.574 3.33146 3.19079 0
M  V30 5838 H 527.817 3.18046 2.95007 0
M  V30 5839 H 528.488 3.08011 4.58076 0
M  V30 5840 H 530.964 1.25334 3.96775 0
M  V30 5841 H 529.84 1.22443 5.35069 0
M  V30 5842 H 530.101 -0.238787 4.41455 0
M  V30 5843 N 529.16 -1.33526 0.837174 0
M  V30 5844 C 530.406 -1.9813 0.432704 0
M  V30 5845 C 530.739 -1.66168 -1.00508 0
M  V30 5846 O 530.014 -0.94069 -1.70239 0
M  V30 5847 C 530.297 -3.54151 0.651834 0
M  V30 5848 C 530.15 -3.95806 2.13676 0
M  V30 5849 C 531.469 -4.39993 0.0968937 0
M  V30 5850 H 528.588 -0.719713 0.15869 0
M  V30 5851 H 531.23 -1.58193 1.05237 0
M  V30 5852 H 529.38 -3.88301 0.124369 0
M  V30 5853 H 531.052 -3.71921 2.72896 0
M  V30 5854 H 529.295 -3.45599 2.62191 0
M  V30 5855 H 529.966 -5.0447 2.24084 0
M  V30 5856 H 532.442 -4.12479 0.547733 0
M  V30 5857 H 531.318 -5.48186 0.279917 0
M  V30 5858 H 531.579 -4.3066 -0.9992 0
M  V30 5859 N 530.638 -0.59345 -1.46 0
M  V30 5860 C 532.049 -0.169801 -1.85926 0
M  V30 5861 C 532.4 1.26984 -1.49565 0
M  V30 5862 O 531.525 1.96076 -0.915602 0
M  V30 5863 C 532.12 -0.301385 -3.37457 0
M  V30 5864 C 530.679 0.0674684 -3.7634 0
M  V30 5865 C 529.826 -0.632383 -2.69993 0
M  V30 5866 H 532.777 -0.801014 -1.37002 0
M  V30 5867 H 532.798 0.470331 -3.77582 0
M  V30 5868 H 532.31 -1.34927 -3.63891 0
M  V30 5869 H 530.411 1.11507 -3.55523 0
M  V30 5870 H 530.524 -0.316332 -4.78055 0
M  V30 5871 H 528.888 -0.0714961 -2.546 0
M  V30 5872 H 529.671 -1.68212 -2.99265 0
M  V30 5873 N 532.116 1.54067 -0.331816 0
M  V30 5874 C 533.046 2.27569 0.522932 0
M  V30 5875 C 534.027 1.28679 1.11247 0
M  V30 5876 O 535.212 1.57504 1.13605 0
M  V30 5877 C 532.342 3.0397 1.67987 0
M  V30 5878 C 531.296 4.10267 1.21924 0
M  V30 5879 C 530.622 4.74555 2.46377 0
M  V30 5880 C 531.922 5.21268 0.32815 0
M  V30 5881 H 533.616 2.99264 -0.0901977 0
M  V30 5882 H 531.162 1.4393 -0.044821 0
M  V30 5883 H 533.115 3.54123 2.28418 0
M  V30 5884 H 531.839 2.29906 2.31971 0
M  V30 5885 H 530.498 3.61009 0.637809 0
M  V30 5886 H 530.146 3.97098 3.08743 0
M  V30 5887 H 529.846 5.46363 2.16243 0
M  V30 5888 H 531.37 5.27487 3.07555 0
M  V30 5889 H 532.784 5.67128 0.838978 0
M  V30 5890 H 531.181 5.99982 0.119228 0
M  V30 5891 H 532.251 4.80673 -0.638839 0
M  V30 5892 N 533.594 0.0601682 1.57485 0
M  V30 5893 C 534.557 -0.896373 2.10945 0
M  V30 5894 C 535.557 -1.23402 1.03095 0
M  V30 5895 O 536.747 -1.16921 1.29132 0
M  V30 5896 C 533.879 -2.20346 2.60116 0
M  V30 5897 H 535.072 -0.432778 2.96761 0
M  V30 5898 H 532.625 -0.188372 1.55161 0
M  V30 5899 H 533.36 -2.71268 1.7772 0
M  V30 5900 H 533.145 -1.9714 3.38937 0
M  V30 5901 H 534.635 -2.88846 3.01592 0
M  V30 5902 N 535.072 -1.5615 -0.213296 0
M  V30 5903 C 536.002 -1.96109 -1.26742 0
M  V30 5904 C 536.983 -0.830448 -1.48451 0
M  V30 5905 O 538.168 -1.09339 -1.60495 0
M  V30 5906 C 535.298 -2.28492 -2.61551 0
M  V30 5907 C 534.252 -3.44124 -2.54485 0
M  V30 5908 C 533.578 -3.62134 -3.93399 0
M  V30 5909 C 534.878 -4.78855 -2.08556 0
M  V30 5910 H 536.572 -2.84412 -0.935434 0
M  V30 5911 H 534.118 -1.36836 -0.44854 0
M  V30 5912 H 536.071 -2.55039 -3.3546 0
M  V30 5913 H 534.795 -1.37052 -2.96453 0
M  V30 5914 H 533.454 -3.17639 -1.83033 0
M  V30 5915 H 533.102 -2.68055 -4.25623 0
M  V30 5916 H 532.802 -4.39913 -3.89551 0
M  V30 5917 H 534.326 -3.91038 -4.68958 0
M  V30 5918 H 535.74 -5.04552 -2.72213 0
M  V30 5919 H 534.137 -5.59975 -2.1575 0
M  V30 5920 H 535.207 -4.73657 -1.03811 0
M  V30 5921 N 536.55 0.480323 -1.50102 0
M  V30 5922 C 537.961 1.06142 -1.53593 0
M  V30 5923 C 538.312 1.93335 -0.334055 0
M  V30 5924 O 537.437 2.09188 0.55403 0
M  V30 5925 C 538.032 1.9317 -2.78336 0
M  V30 5926 C 536.591 2.46405 -2.84538 0
M  V30 5927 C 535.738 1.24521 -2.4777 0
M  V30 5928 H 538.689 0.26333 -1.565 0
M  V30 5929 H 538.71 2.78123 -2.59669 0
M  V30 5930 H 538.222 1.29683 -3.65792 0
M  V30 5931 H 536.323 3.13472 -2.01411 0
M  V30 5932 H 536.436 2.82143 -3.87211 0
M  V30 5933 H 534.8 1.57706 -2.00003 0
M  V30 5934 H 535.583 0.627102 -3.37524 0
M  V30 5935 N 538.028 1.39524 0.732853 0
M  V30 5936 C 538.978 1.34905 1.83806 0
M  V30 5937 C 539.962 0.229546 1.59254 0
M  V30 5938 O 541.154 0.467255 1.70721 0
M  V30 5939 C 538.283 1.19699 3.21756 0
M  V30 5940 C 537.369 2.36359 3.5213 0
M  V30 5941 N 537.76 3.61834 3.53426 0
M  V30 5942 C 536.058 2.29363 3.82503 0
M  V30 5943 C 536.759 4.38992 3.81655 0
M  V30 5944 N 535.735 3.68606 3.99538 0
M  V30 5945 H 539.537 2.29882 1.83116 0
M  V30 5946 H 537.051 1.33051 0.931194 0
M  V30 5947 H 539.048 1.14472 4.00876 0
M  V30 5948 H 537.708 0.256739 3.23683 0
M  V30 5949 H 538.719 3.95228 3.34686 0
M  V30 5950 H 535.396 1.43612 3.92023 0
M  V30 5951 H 536.786 5.47763 3.89108 0
M  V30 5952 N 539.506 -0.963266 1.24736 0
M  V30 5953 C 540.922 -1.23273 1.01371 0
M  V30 5954 C 541.122 -1.99618 -0.274776 0
M  V30 5955 O 540.178 -2.32293 -0.989769 0
M  V30 5956 C 541.491 -2.01554 2.23152 0
M  V30 5957 C 543.039 -2.14629 2.27823 0
M  V30 5958 C 543.514 -2.96307 3.49237 0
M  V30 5959 N 545.005 -3.03887 3.49581 0
M  V30 5960 C 545.74 -3.67456 4.40186 0
M  V30 5961 N 545.236 -4.32706 5.41052 0
M  V30 5962 N 547.029 -3.64511 4.27888 0
M  V30 5963 H 539.18 -0.452294 2.07528 0
M  V30 5964 H 541.443 -0.262521 0.910926 0
M  V30 5965 H 541.149 -1.52847 3.1675 0
M  V30 5966 H 541.023 -3.02278 2.25628 0
M  V30 5967 H 543.41 -2.62537 1.34753 0
M  V30 5968 H 543.491 -1.13238 2.2937 0
M  V30 5969 H 543.135 -2.49091 4.42624 0
M  V30 5970 H 543.065 -3.97905 3.44933 0
M  V30 5971 H 545.556 -2.57477 2.76611 0
M  V30 5972 H 545.869 -4.79042 6.06415 0
M  V30 5973 H 544.214 -4.31361 5.44934 0
M  V30 5974 H 547.405 -3.12715 3.4832 0
M  V30 5975 H 547.578 -4.13768 4.98698 0
M  V30 5976 N 540.985 -1.06182 -1.16461 0
M  V30 5977 C 542.213 -0.798583 -1.90867 0
M  V30 5978 C 542.628 0.646921 -1.77371 0
M  V30 5979 O 541.985 1.44279 -1.11758 0
M  V30 5980 C 542.036 -1.18258 -3.4161 0
M  V30 5981 O 541.757 -2.57135 -3.54701 0
M  V30 5982 C 543.258 -0.946917 -4.33069 0
M  V30 5983 H 540.478 -0.289603 -0.605286 0
M  V30 5984 H 543.022 -1.41515 -1.47627 0
M  V30 5985 H 541.177 -0.610562 -3.82558 0
M  V30 5986 H 541.591 -2.72477 -4.4817 0
M  V30 5987 H 543.065 -1.26523 -5.37304 0
M  V30 5988 H 543.542 0.117406 -4.39043 0
M  V30 5989 H 544.148 -1.50326 -3.97847 0
M  V30 5990 N 542.463 1.3308 -0.844243 0
M  V30 5991 C 543.691 2.01808 -0.456203 0
M  V30 5992 C 544.106 1.63498 0.944131 0
M  V30 5993 O 543.463 0.85102 1.61443 0
M  V30 5994 C 543.514 3.56922 -0.573513 0
M  V30 5995 O 543.235 3.93851 -1.91868 0
M  V30 5996 C 544.736 4.42922 -0.183125 0
M  V30 5997 H 541.956 0.646273 -0.180477 0
M  V30 5998 H 544.5 1.69891 -1.1383 0
M  V30 5999 H 542.655 3.87352 0.0607367 0
M  V30 6000 H 543.069 4.88564 -1.90802 0
M  V30 6001 H 544.543 5.51093 -0.316241 0
M  V30 6002 H 545.02 4.30386 0.875477 0
M  V30 6003 H 545.626 4.1786 -0.792027 0
M  V30 6004 N 543.941 0.601185 1.45683 0
M  V30 6005 C 545.357 0.264315 1.57396 0
M  V30 6006 C 545.557 -1.23324 1.59353 0
M  V30 6007 O 544.613 -2.01594 1.52039 0
M  V30 6008 C 545.926 0.929839 2.85962 0
M  V30 6009 C 547.474 0.905156 2.99626 0
M  V30 6010 C 547.949 1.55057 4.30954 0
M  V30 6011 N 549.44 1.51576 4.37697 0
M  V30 6012 C 550.175 1.98436 5.37969 0
M  V30 6013 N 549.671 2.53352 6.44813 0
M  V30 6014 N 551.464 1.89242 5.29286 0
M  V30 6015 H 543.615 1.57363 1.42656 0
M  V30 6016 H 545.878 0.658831 0.681649 0
M  V30 6017 H 545.584 1.98404 2.90394 0
M  V30 6018 H 545.458 0.449224 3.74515 0
M  V30 6019 H 547.845 -0.14048 2.94765 0
M  V30 6020 H 547.926 1.42397 2.12501 0
M  V30 6021 H 547.57 2.5955 4.36573 0
M  V30 6022 H 547.5 1.00682 5.16886 0
M  V30 6023 H 549.991 1.11452 3.61091 0
M  V30 6024 H 550.304 2.86918 7.17564 0
M  V30 6025 H 548.649 2.57388 6.45582 0
M  V30 6026 H 551.84 1.46083 4.44722 0
M  V30 6027 H 552.013 2.26075 6.07284 0
M  V30 6028 N 545.419 -1.53889 0.339982 0
M  V30 6029 C 546.83 -1.86139 -0.144671 0
M  V30 6030 C 547.181 -1.2613 -1.50285 0
M  V30 6031 O 546.306 -0.573515 -2.08662 0
M  V30 6032 C 546.901 -3.37728 -0.269285 0
M  V30 6033 C 545.46 -3.69868 -0.698168 0
M  V30 6034 C 544.607 -2.76777 0.170249 0
M  V30 6035 H 547.558 -1.48503 0.559704 0
M  V30 6036 H 547.579 -3.64331 -1.0974 0
M  V30 6037 H 547.091 -3.81375 0.719366 0
M  V30 6038 H 545.192 -3.31764 -1.69597 0
M  V30 6039 H 545.305 -4.76582 -0.490533 0
M  V30 6040 H 543.669 -2.52188 -0.356844 0
M  V30 6041 H 544.452 -3.23253 1.15597 0
M  V30 6042 N 546.897 -0.0685191 -1.57451 0
M  V30 6043 C 548.122 0.613919 -1.98106 0
M  V30 6044 C 548.547 1.62551 -0.946501 0
M  V30 6045 O 547.905 1.81085 0.0882824 0
M  V30 6046 C 547.953 1.26189 -3.378 0
M  V30 6047 O 547.057 2.37773 -3.36954 0
M  V30 6048 H 546.398 0.158163 -0.644888 0
M  V30 6049 H 548.928 -0.142063 -2.04106 0
M  V30 6050 H 548.938 1.60951 -3.74912 0
M  V30 6051 H 547.613 0.520625 -4.12629 0
M  V30 6052 H 546.19 2.04829 -3.11608 0
M  V30 6053 N 548.375 1.56261 0.205012 0
M  V30 6054 C 549.6 1.84491 0.947512 0
M  V30 6055 C 550.025 0.650894 1.76479 0
M  V30 6056 O 549.383 -0.40035 1.76824 0
M  V30 6057 C 549.431 3.10863 1.82747 0
M  V30 6058 O 548.535 2.90719 2.925 0
M  V30 6059 H 547.876 0.607783 0.267386 0
M  V30 6060 H 550.406 2.03485 0.213323 0
M  V30 6061 H 550.416 3.41399 2.23407 0
M  V30 6062 H 549.091 3.97392 1.2269 0
M  V30 6063 H 547.668 2.71457 2.55667 0
M  V30 6064 N 549.853 -0.472356 1.50355 0
M  V30 6065 C 551.102 -1.2213 1.60522 0
M  V30 6066 C 551.415 -1.9312 0.310466 0
M  V30 6067 O 552.621 -2.69936 0.291029 0
M  V30 6068 C 551.077 -2.21909 2.83345 0
M  V30 6069 C 550.685 -1.56727 4.19691 0
M  V30 6070 C 552.429 -2.97453 3.02856 0
M  V30 6071 C 550.336 -2.54785 5.33703 0
M  V30 6072 H 549.266 -0.459543 0.597776 0
M  V30 6073 H 551.917 -0.491922 1.76783 0
M  V30 6074 H 550.299 -2.98133 2.60639 0
M  V30 6075 H 551.473 -0.863007 4.52646 0
M  V30 6076 H 549.788 -0.934685 4.05774 0
M  V30 6077 H 552.385 -3.70838 3.85205 0
M  V30 6078 H 552.728 -3.56764 2.14534 0
M  V30 6079 H 553.261 -2.28342 3.25737 0
M  V30 6080 H 550 -2.00214 6.24175 0
M  V30 6081 H 549.52 -3.23367 5.05167 0
M  V30 6082 H 551.199 -3.16639 5.64224 0
M  V30 6083 N 551.331 -1.39911 -0.725443 0
M  V30 6084 C 552.556 -1.41137 -1.5197 0
M  V30 6085 C 552.981 -0.010262 -1.88097 0
M  V30 6086 O 552.339 0.979184 -1.52583 0
M  V30 6087 C 552.387 -2.2994 -2.77777 0
M  V30 6088 O 551.491 -1.73586 -3.74088 0
M  V30 6089 H 550.832 -0.480219 -0.458569 0
M  V30 6090 H 553.362 -1.84023 -0.894249 0
M  V30 6091 H 553.372 -2.44785 -3.26411 0
M  V30 6092 H 552.047 -3.31759 -2.50816 0
M  V30 6093 H 550.624 -1.68035 -3.32894 0
M  V30 6094 N 552.809 0.956637 -1.25245 0
M  V30 6095 C 554.057 1.69764 -1.09657 0
M  V30 6096 C 554.378 1.91583 0.363464 0
M  V30 6097 O 553.648 1.50149 1.25825 0
M  V30 6098 H 552.228 0.629097 -0.402798 0
M  V30 6099 H 554.89 1.15026 -1.57337 0
M  V30 6100 H 553.986 2.67769 -1.60331 0
M  V30 6101 N 554.287 1.06798 1.15896 0
M  V30 6102 C 555.517 0.807522 1.90165 0
M  V30 6103 C 555.925 -0.642417 1.7796 0
M  V30 6104 O 555.268 -1.45193 1.12537 0
M  V30 6105 C 555.33 1.12939 3.41299 0
M  V30 6106 C 554.994 2.57879 3.7729 0
M  V30 6107 C 555.991 3.56118 3.78782 0
M  V30 6108 C 553.676 2.93311 4.07767 0
M  V30 6109 C 555.67 4.87827 4.10248 0
M  V30 6110 C 553.357 4.25219 4.38899 0
M  V30 6111 C 554.355 5.22287 4.4012 0
M  V30 6112 O 554.043 6.51826 4.70508 0
M  V30 6113 H 553.775 0.291946 0.609708 0
M  V30 6114 H 556.329 1.42627 1.47806 0
M  V30 6115 H 554.559 0.45359 3.84031 0
M  V30 6116 H 556.248 0.852363 3.9685 0
M  V30 6117 H 557.014 3.30086 3.55342 0
M  V30 6118 H 552.893 2.18409 4.05979 0
M  V30 6119 H 556.437 5.63586 4.11116 0
M  V30 6120 H 552.334 4.51006 4.61805 0
M  V30 6121 H 553.102 6.56893 4.88298 0
M  V30 6122 N 555.766 -1.3263 0.851289 0
M  V30 6123 C 557.043 -1.91982 0.374448 0
M  V30 6124 C 557.423 -1.77568 -1.14161 0
M  V30 6125 O 556.771 -1.1717 -1.96172 0
M  V30 6126 C 556.981 -3.38862 0.835088 0
M  V30 6127 C 558.329 -4.15999 0.850309 0
M  V30 6128 O 559.353 -3.47566 0.779505 0
M  V30 6129 O 558.212 -5.38189 0.949481 0
M  V30 6130 H 555.306 -0.819846 0.10854 0
M  V30 6131 H 557.852 -1.41422 0.937966 0
M  V30 6132 H 556.624 -3.43281 1.87814 0
M  V30 6133 H 556.247 -3.96821 0.248833 0
M  V30 6134 N 557.244 -0.608902 -1.45362 0
M  V30 6135 C 558.493 -0.10218 -2.01441 0
M  V30 6136 C 558.806 1.27546 -1.48295 0
M  V30 6137 O 560.012 1.87498 -1.96359 0
M  V30 6138 C 558.468 -0.131985 -3.59658 0
M  V30 6139 C 558.076 -1.50956 -4.21801 0
M  V30 6140 C 559.82 0.319427 -4.23296 0
M  V30 6141 C 557.727 -1.49568 -5.72174 0
M  V30 6142 H 556.657 -0.0344314 -0.753213 0
M  V30 6143 H 559.308 -0.764426 -1.6682 0
M  V30 6144 H 557.69 0.596939 -3.91475 0
M  V30 6145 H 558.864 -2.26029 -4.01556 0
M  V30 6146 H 557.179 -1.90318 -3.70362 0
M  V30 6147 H 559.776 0.349013 -5.3356 0
M  V30 6148 H 560.119 1.34237 -3.94064 0
M  V30 6149 H 560.652 -0.356273 -3.96201 0
M  V30 6150 H 557.391 -2.49626 -6.06108 0
M  V30 6151 H 556.911 -0.787542 -5.94607 0
M  V30 6152 H 558.59 -1.21989 -6.35396 0
M  V30 6153 N 558.722 1.53707 -0.348139 0
M  V30 6154 C 560.133 1.86213 0.134797 0
M  V30 6155 C 560.484 1.26925 1.49614 0
M  V30 6156 O 559.609 0.584573 2.08355 0
M  V30 6157 C 560.204 3.37866 0.251371 0
M  V30 6158 C 558.763 3.70233 0.678543 0
M  V30 6159 C 557.91 2.76683 -0.184925 0
M  V30 6160 H 560.861 1.48204 -0.567571 0
M  V30 6161 H 560.882 3.64908 1.07806 0
M  V30 6162 H 560.394 3.80988 -0.739581 0
M  V30 6163 H 558.495 3.32659 1.67835 0
M  V30 6164 H 558.608 4.76836 0.465251 0
M  V30 6165 H 556.972 2.52374 0.343465 0
M  V30 6166 H 557.755 3.22635 -1.1731 0
M  V30 6167 N 560.2 0.0768682 1.57412 0
M  V30 6168 C 561.11 -0.903207 2.16516 0
M  V30 6169 C 562.126 -1.32341 1.12968 0
M  V30 6170 O 563.302 -1.39507 1.45258 0
M  V30 6171 C 560.367 -2.1508 2.71922 0
M  V30 6172 C 559.428 -1.78653 3.90361 0
M  V30 6173 C 558.661 -2.97465 4.43114 0
M  V30 6174 O 558.884 -4.11638 3.94854 0
M  V30 6175 O 557.818 -2.76987 5.3438 0
M  V30 6176 H 561.644 -0.430427 3.00634 0
M  V30 6177 H 559.229 -0.146485 1.4868 0
M  V30 6178 H 561.111 -2.8823 3.07411 0
M  V30 6179 H 559.786 -2.61446 1.9086 0
M  V30 6180 H 558.693 -1.0274 3.59716 0
M  V30 6181 H 560.026 -1.37066 4.7273 0
M  V30 6182 N 561.678 -1.56367 -0.196722 0
M  V30 6183 C 562.926 -1.80172 -0.915554 0
M  V30 6184 C 563.247 -0.649649 -1.8386 0
M  V30 6185 O 562.517 0.332111 -1.93064 0
M  V30 6186 H 561.097 -0.664592 -0.341067 0
M  V30 6187 H 563.759 -1.93844 -0.202622 0
M  V30 6188 H 562.855 -2.7327 -1.50764 0
M  V30 6189 N 563.156 0.464375 -1.50603 0
M  V30 6190 C 564.384 1.23907 -1.65695 0
M  V30 6191 C 564.799 1.85658 -0.343027 0
M  V30 6192 O 564.156 1.69529 0.675739 0
M  V30 6193 C 564.207 2.3429 -2.75301 0
M  V30 6194 O 563.928 1.7507 -4.01599 0
M  V30 6195 C 565.429 3.25051 -3.01424 0
M  V30 6196 H 562.649 0.374485 -0.556778 0
M  V30 6197 H 565.193 0.55353 -1.96866 0
M  V30 6198 H 563.348 2.98607 -2.46804 0
M  V30 6199 H 563.762 2.47812 -4.62266 0
M  V30 6200 H 565.236 3.98699 -3.81763 0
M  V30 6201 H 565.713 3.84227 -2.12758 0
M  V30 6202 H 566.319 2.66463 -3.31477 0
M  V30 6203 N 564.634 1.40294 0.718013 0
M  V30 6204 C 565.88 1.38645 1.48005 0
M  V30 6205 C 566.213 -0.0121202 1.94196 0
M  V30 6206 O 565.488 -0.980309 1.67989 0
M  V30 6207 C 565.771 2.37379 2.70782 0
M  V30 6208 C 565.624 3.8625 2.30501 0
M  V30 6209 C 566.943 2.33685 3.72933 0
M  V30 6210 H 564.062 0.504928 0.536858 0
M  V30 6211 H 566.704 1.71411 0.819649 0
M  V30 6212 H 564.854 2.09568 3.27129 0
M  V30 6213 H 566.526 4.24879 1.79655 0
M  V30 6214 H 564.769 4.02202 1.6253 0
M  V30 6215 H 565.44 4.50847 3.18498 0
M  V30 6216 H 567.916 2.58314 3.2621 0
M  V30 6217 H 566.792 3.0482 4.56482 0
M  V30 6218 H 567.053 1.34765 4.21059 0
M  V30 6219 N 566.112 -0.949982 1.2575 0
M  V30 6220 C 567.361 -1.68956 1.10168 0
M  V30 6221 C 567.674 -1.92327 -0.356309 0
M  V30 6222 O 568.88 -2.64026 -0.632657 0
M  V30 6223 C 567.336 -3.04196 1.92336 0
M  V30 6224 C 566.944 -2.88603 3.42655 0
M  V30 6225 C 568.688 -3.81904 1.85336 0
M  V30 6226 C 566.595 -4.19262 4.17101 0
M  V30 6227 H 565.525 -0.633645 0.408668 0
M  V30 6228 H 568.176 -1.05719 1.49986 0
M  V30 6229 H 566.558 -3.68363 1.45344 0
M  V30 6230 H 567.732 -2.3334 3.97353 0
M  V30 6231 H 566.047 -2.24345 3.50796 0
M  V30 6232 H 568.644 -4.78688 2.38248 0
M  V30 6233 H 568.987 -4.08099 0.822226 0
M  V30 6234 H 569.52 -3.24495 2.30104 0
M  V30 6235 H 566.259 -3.98254 5.20648 0
M  V30 6236 H 565.779 -4.74273 3.67186 0
M  V30 6237 H 567.458 -4.87775 4.25071 0
M  V30 6238 N 567.59 -1.07411 -1.15328 0
M  V30 6239 C 568.839 -0.792643 -1.85473 0
M  V30 6240 C 569.152 0.683789 -1.83259 0
M  V30 6241 O 570.358 1.08005 -2.49093 0
M  V30 6242 C 568.814 -1.36787 -3.32892 0
M  V30 6243 C 568.422 -2.87536 -3.43551 0
M  V30 6244 C 570.166 -1.16444 -4.08217 0
M  V30 6245 C 568.073 -3.38247 -4.85122 0
M  V30 6246 H 567.003 -0.292838 -0.694811 0
M  V30 6247 H 569.654 -1.29426 -1.30082 0
M  V30 6248 H 568.036 -0.793993 -3.87958 0
M  V30 6249 H 569.21 -3.50973 -2.98588 0
M  V30 6250 H 567.525 -3.06676 -2.81672 0
M  V30 6251 H 570.122 -1.51808 -5.12697 0
M  V30 6252 H 570.465 -0.10353 -4.16171 0
M  V30 6253 H 570.998 -1.70472 -3.59422 0
M  V30 6254 H 567.737 -4.43866 -4.82351 0
M  V30 6255 H 567.257 -2.79564 -5.30664 0
M  V30 6256 H 568.936 -3.34238 -5.5398 0
M  V30 6257 N 569.068 1.32177 -0.85831 0
M  V30 6258 C 570.479 1.79381 -0.517621 0
M  V30 6259 C 570.83 1.70841 0.964769 0
M  V30 6260 O 569.955 1.26917 1.75274 0
M  V30 6261 C 570.55 3.25706 -0.932801 0
M  V30 6262 C 569.109 3.70851 -0.643953 0
M  V30 6263 C 568.256 2.53208 -1.13054 0
M  V30 6264 H 571.207 1.19424 -1.04516 0
M  V30 6265 H 571.228 3.79673 -0.250674 0
M  V30 6266 H 570.74 3.31889 -2.01174 0
M  V30 6267 H 568.841 3.70178 0.424112 0
M  V30 6268 H 568.954 4.63495 -1.21281 0
M  V30 6269 H 567.318 2.48676 -0.550679 0
M  V30 6270 H 568.101 2.62143 -2.21666 0
M  V30 6271 N 570.547 0.616602 1.45037 0
M  V30 6272 C 571.495 -0.109318 2.32343 0
M  V30 6273 C 572.489 -0.850543 1.465 0
M  V30 6274 O 573.695 -0.765088 1.62931 0
M  V30 6275 H 570.07 -0.0541091 0.750051 0
M  V30 6276 H 572.041 0.645326 2.91338 0
M  V30 6277 C 570.79 -1.0872 3.30266 0
M  V30 6278 H 570.113 -0.526267 3.96321 0
M  V30 6279 H 571.553 -1.56489 3.94065 0
M  V30 6280 C 570.012 -2.16525 2.58105 0
M  V30 6281 O 570.542 -3.244 2.36913 0
M  V30 6282 N 568.748 -1.92057 2.18088 0
M  V30 6283 H 568.295 -1.04337 2.35524 0
M  V30 6284 H 568.253 -2.64391 1.70131 0
M  V30 6285 N 572.025 -1.5352 0.356285 0
M  V30 6286 C 572.955 -2.28372 -0.486661 0
M  V30 6287 C 573.936 -1.30432 -1.09185 0
M  V30 6288 O 575.121 -1.59291 -1.11085 0
M  V30 6289 C 572.251 -3.06604 -1.63129 0
M  V30 6290 C 571.205 -4.12154 -1.15381 0
M  V30 6291 C 570.531 -4.78415 -2.38796 0
M  V30 6292 C 571.831 -5.21724 -0.245179 0
M  V30 6293 H 573.525 -2.99083 0.137797 0
M  V30 6294 H 571.071 -1.43841 0.0677134 0
M  V30 6295 H 573.024 -3.57712 -2.22755 0
M  V30 6296 H 571.748 -2.33568 -2.28284 0
M  V30 6297 H 570.407 -3.61978 -0.580294 0
M  V30 6298 H 570.055 -4.01959 -3.02387 0
M  V30 6299 H 569.755 -5.49734 -2.07524 0
M  V30 6300 H 571.279 -5.32313 -2.99125 0
M  V30 6301 H 572.693 -5.68391 -0.748646 0
M  V30 6302 H 571.09 -6.00095 -0.0237608 0
M  V30 6303 H 572.16 -4.79596 0.715229 0
M  V30 6304 N 573.503 -0.0852151 -1.57369 0
M  V30 6305 C 574.435 0.907099 -2.10486 0
M  V30 6306 C 575.448 1.25259 -1.03991 0
M  V30 6307 O 576.637 1.20743 -1.31467 0
M  V30 6308 C 573.737 2.21908 -2.56145 0
M  V30 6309 C 572.91 2.05042 -3.86363 0
M  V30 6310 C 571.969 3.19664 -4.17973 0
M  V30 6311 O 570.995 2.94062 -4.87356 0
M  V30 6312 N 572.197 4.45151 -3.72587 0
M  V30 6313 H 574.962 0.453505 -2.96249 0
M  V30 6314 H 572.523 0.100157 -1.6159 0
M  V30 6315 H 574.515 2.97519 -2.74343 0
M  V30 6316 H 573.085 2.58723 -1.75446 0
M  V30 6317 H 572.305 1.13819 -3.77411 0
M  V30 6318 H 573.593 1.91039 -4.71574 0
M  V30 6319 H 572.991 4.68834 -3.16561 0
M  V30 6320 H 571.548 5.17744 -3.9596 0
M  V30 6321 N 574.981 1.5647 0.188427 0
M  V30 6322 C 576.229 1.80655 0.905986 0
M  V30 6323 C 576.55 0.659391 1.83513 0
M  V30 6324 O 575.82 -0.321868 1.93238 0
M  V30 6325 H 574.4 0.666391 0.337538 0
M  V30 6326 H 577.062 1.93949 0.192339 0
M  V30 6327 H 576.158 2.74066 1.49313 0
M  V30 6328 N 576.459 -0.456382 1.50847 0
M  V30 6329 C 577.422 -1.53493 1.70213 0
M  V30 6330 C 578.422 -1.50264 0.572481 0
M  V30 6331 O 579.612 -1.52623 0.839751 0
M  V30 6332 C 576.744 -2.93091 1.741 0
M  V30 6333 H 577.937 -1.37633 2.66453 0
M  V30 6334 H 575.49 -0.683776 1.4055 0
M  V30 6335 H 576.225 -3.14378 0.796063 0
M  V30 6336 H 576.01 -2.9684 2.5618 0
M  V30 6337 H 577.5 -3.71368 1.90987 0
M  V30 6338 N 577.937 -1.40673 -0.710563 0
M  V30 6339 C 578.887 -1.37812 -1.81636 0
M  V30 6340 C 579.871 -0.254853 -1.58869 0
M  V30 6341 O 581.063 -0.494356 -1.69956 0
M  V30 6342 C 578.192 -1.24802 -3.19811 0
M  V30 6343 C 577.278 -2.41931 -3.48325 0
M  V30 6344 N 577.669 -3.67411 -3.47625 0
M  V30 6345 C 575.967 -2.35419 -3.78806 0
M  V30 6346 C 576.668 -4.45008 -3.74623 0
M  V30 6347 N 575.644 -3.74916 -3.93623 0
M  V30 6348 H 579.446 -2.32766 -1.79436 0
M  V30 6349 H 576.96 -1.34516 -0.909909 0
M  V30 6350 H 578.957 -1.20835 -3.99004 0
M  V30 6351 H 577.617 -0.308202 -3.23234 0
M  V30 6352 H 578.628 -4.00503 -3.28356 0
M  V30 6353 H 575.305 -1.4983 -3.89689 0
M  V30 6354 H 576.695 -5.53884 -3.80344 0
M  V30 6355 N 579.415 0.9433 -1.26252 0
M  V30 6356 C 580.345 2.05902 -1.10122 0
M  V30 6357 C 581.326 1.70099 -0.00700552 0
M  V30 6358 O 582.511 1.93377 -0.178641 0
M  V30 6359 C 579.641 3.39516 -0.731175 0
M  V30 6360 C 578.595 3.89372 -1.77688 0
M  V30 6361 C 577.921 5.19613 -1.26122 0
M  V30 6362 C 579.221 4.14489 -3.17799 0
M  V30 6363 H 580.915 2.19655 -2.03451 0
M  V30 6364 H 578.461 1.05548 -0.979576 0
M  V30 6365 H 580.414 4.17031 -0.605215 0
M  V30 6366 H 579.138 3.25733 0.23782 0
M  V30 6367 H 577.797 3.14036 -1.89148 0
M  V30 6368 H 577.445 5.02208 -0.282128 0
M  V30 6369 H 577.145 5.53939 -1.96023 0
M  V30 6370 H 578.669 5.99713 -1.14789 0
M  V30 6371 H 580.083 4.82625 -3.09428 0
M  V30 6372 H 578.48 4.60094 -3.85271 0
M  V30 6373 H 579.55 3.20347 -3.64014 0
M  V30 6374 N 580.893 1.08022 1.14757 0
M  V30 6375 C 582.17 0.720386 1.81851 0
M  V30 6376 C 582.55 -0.796375 1.95502 0
M  V30 6377 O 581.898 -1.71339 1.51179 0
M  V30 6378 C 582.108 1.44273 3.17783 0
M  V30 6379 C 583.456 1.59925 3.93331 0
M  V30 6380 O 584.48 1.40407 3.2736 0
M  V30 6381 O 583.339 1.92096 5.11626 0
M  V30 6382 H 580.433 0.257142 0.786007 0
M  V30 6383 H 582.979 1.18155 1.21809 0
M  V30 6384 H 581.751 2.47618 3.02987 0
M  V30 6385 H 581.374 0.97279 3.85516 0
M  V30 6386 N 582.371 -1.3172 0.865308 0
M  V30 6387 C 583.281 -2.32394 0.320935 0
M  V30 6388 C 584.297 -1.64511 -0.566746 0
M  V30 6389 O 585.473 -1.95969 -0.464575 0
M  V30 6390 C 582.538 -3.43462 -0.472701 0
M  V30 6391 C 581.599 -4.27015 0.442385 0
M  V30 6392 C 580.832 -5.32779 -0.313469 0
M  V30 6393 O 581.055 -5.49158 -1.54214 0
M  V30 6394 O 579.989 -6.01015 0.326257 0
M  V30 6395 H 583.815 -2.80868 1.15528 0
M  V30 6396 H 581.4 -1.35535 0.628545 0
M  V30 6397 H 583.282 -4.11172 -0.922781 0
M  V30 6398 H 581.957 -2.97159 -1.28367 0
M  V30 6399 H 580.864 -3.62075 0.940866 0
M  V30 6400 H 582.197 -4.76871 1.21882 0
M  V30 6401 N 583.85 -0.624285 -1.44708 0
M  V30 6402 C 585.077 -0.132919 -2.06473 0
M  V30 6403 C 585.493 1.18967 -1.46602 0
M  V30 6404 O 584.85 1.72824 -0.586341 0
M  V30 6405 C 584.901 -0.00465418 -3.615 0
M  V30 6406 O 584.622 -1.27494 -4.19138 0
M  V30 6407 C 586.123 0.516213 -4.40284 0
M  V30 6408 H 583.343 -0.0765201 -0.666623 0
M  V30 6409 H 585.887 -0.856751 -1.85688 0
M  V30 6410 H 584.042 0.669583 -3.8157 0
M  V30 6411 H 584.456 -1.11536 -5.12504 0
M  V30 6412 H 585.93 0.554994 -5.49203 0
M  V30 6413 H 586.407 1.5419 -4.11245 0
M  V30 6414 H 587.013 -0.124542 -4.25118 0
M  V30 6415 N 585.328 1.53329 -0.364422 0
M  V30 6416 C 586.574 2.01537 0.225969 0
M  V30 6417 C 586.907 1.25128 1.48515 0
M  V30 6418 O 586.182 0.344653 1.91422 0
M  V30 6419 C 586.465 3.56339 0.519092 0
M  V30 6420 C 586.318 4.43441 -0.753639 0
M  V30 6421 C 587.637 4.19833 1.32015 0
M  V30 6422 H 584.756 0.732573 0.0806548 0
M  V30 6423 H 587.398 1.83597 -0.489084 0
M  V30 6424 H 585.548 3.71756 1.12825 0
M  V30 6425 H 587.22 4.39823 -1.39116 0
M  V30 6426 H 585.463 4.11457 -1.37424 0
M  V30 6427 H 586.134 5.49699 -0.503517 0
M  V30 6428 H 588.61 4.08242 0.804859 0
M  V30 6429 H 587.486 5.28177 1.49399 0
M  V30 6430 H 587.747 3.75821 2.32832 0
M  V30 6431 N 586.806 0.0935595 1.57322 0
M  V30 6432 C 588.052 -0.565234 1.95388 0
M  V30 6433 C 588.407 -1.65888 0.974632 0
M  V30 6434 O 587.7 -1.916 0.000376385 0
M  V30 6435 C 587.894 -1.16692 3.37813 0
M  V30 6436 C 587.723 -0.133091 4.49503 0
M  V30 6437 C 586.493 0.289884 5.04468 0
M  V30 6438 C 588.691 0.638141 5.10326 0
M  V30 6439 N 586.673 1.31214 5.99713 0
M  V30 6440 C 588.044 1.51227 6.01274 0
M  V30 6441 C 590.099 0.691827 4.9307 0
M  V30 6442 C 588.802 2.43536 6.76818 0
M  V30 6443 C 590.828 1.60251 5.69274 0
M  V30 6444 C 590.19 2.46427 6.59889 0
M  V30 6445 H 586.289 -0.177212 0.761656 0
M  V30 6446 H 588.873 0.175769 1.93905 0
M  V30 6447 H 587.044 -1.87775 3.39993 0
M  V30 6448 H 588.776 -1.78795 3.63063 0
M  V30 6449 H 585.531 -0.0975541 4.735 0
M  V30 6450 H 585.955 1.82143 6.52038 0
M  V30 6451 H 590.597 0.0397431 4.22781 0
M  V30 6452 H 588.315 3.0977 7.4637 0
M  V30 6453 H 591.901 1.64917 5.57937 0
M  V30 6454 H 590.781 3.15751 7.17824 0
M  V30 6455 N 588.284 -1.56567 -0.180126 0
M  V30 6456 C 589.194 -1.98947 -1.24327 0
M  V30 6457 C 590.21 -0.899446 -1.4895 0
M  V30 6458 O 591.386 -1.20639 -1.61271 0
M  V30 6459 C 588.451 -2.33328 -2.56435 0
M  V30 6460 C 587.512 -3.56114 -2.39752 0
M  V30 6461 C 586.745 -3.88845 -3.65561 0
M  V30 6462 O 586.968 -3.22662 -4.70368 0
M  V30 6463 O 585.902 -4.82226 -3.60197 0
M  V30 6464 H 589.728 -2.89634 -0.913565 0
M  V30 6465 H 587.313 -1.44319 -0.386306 0
M  V30 6466 H 589.195 -2.5645 -3.34382 0
M  V30 6467 H 587.87 -1.45806 -2.89002 0
M  V30 6468 H 586.777 -3.38221 -1.59866 0
M  V30 6469 H 588.11 -4.4415 -2.12113 0
M  V30 6470 N 589.762 0.448376 -1.51087 0
M  V30 6471 C 591.178 0.783984 -1.39017 0
M  V30 6472 C 591.378 1.96087 -0.463904 0
M  V30 6473 O 590.434 2.52357 0.0850534 0
M  V30 6474 C 591.747 1.07471 -2.80839 0
M  V30 6475 C 593.295 1.17981 -2.89913 0
M  V30 6476 C 593.77 1.50354 -4.32617 0
M  V30 6477 N 595.261 1.57301 -4.35673 0
M  V30 6478 C 595.996 1.839 -5.4311 0
M  V30 6479 N 595.492 2.08365 -6.60724 0
M  V30 6480 N 597.285 1.8559 -5.30578 0
M  V30 6481 H 589.436 -0.326881 -2.0987 0
M  V30 6482 H 591.699 -0.0838006 -0.944289 0
M  V30 6483 H 591.405 0.282768 -3.50561 0
M  V30 6484 H 591.279 2.00519 -3.19487 0
M  V30 6485 H 593.666 1.9624 -2.20395 0
M  V30 6486 H 593.747 0.228603 -2.54776 0
M  V30 6487 H 593.391 0.726273 -5.0268 0
M  V30 6488 H 593.321 2.46663 -4.65258 0
M  V30 6489 H 595.812 1.40342 -3.50874 0
M  V30 6490 H 596.125 2.27999 -7.38401 0
M  V30 6491 H 594.47 2.0571 -6.63859 0
M  V30 6492 H 597.661 1.65989 -4.37682 0
M  V30 6493 H 597.834 2.05983 -6.1439 0
M  V30 6494 N 591.24 1.41047 0.703093 0
M  V30 6495 C 592.651 1.35657 1.28274 0
M  V30 6496 C 593.002 0.0360309 1.96167 0
M  V30 6497 O 592.127 -0.865833 1.98324 0
M  V30 6498 C 592.722 2.45707 2.33267 0
M  V30 6499 C 591.281 2.43738 2.86825 0
M  V30 6500 C 590.428 2.25941 1.60767 0
M  V30 6501 H 593.379 1.50672 0.49836 0
M  V30 6502 H 593.4 2.14333 3.14391 0
M  V30 6503 H 592.912 3.41805 1.83824 0
M  V30 6504 H 591.013 1.51375 3.40465 0
M  V30 6505 H 591.126 3.39779 3.37768 0
M  V30 6506 H 589.49 1.73681 1.86298 0
M  V30 6507 H 590.273 3.24054 1.1333 0
M  V30 6508 N 592.718 -0.936591 1.26751 0
M  V30 6509 C 593.668 -2.0219 1.05371 0
M  V30 6510 C 594.652 -1.60893 -0.0154112 0
M  V30 6511 O 595.844 -1.75843 0.202085 0
M  V30 6512 C 592.973 -3.36222 0.693541 0
M  V30 6513 C 592.059 -3.8399 1.80035 0
M  V30 6514 N 592.45 -4.0436 3.03852 0
M  V30 6515 C 590.748 -4.12945 1.685 0
M  V30 6516 C 591.449 -4.44 3.75818 0
M  V30 6517 N 590.425 -4.50966 3.03531 0
M  V30 6518 H 594.227 -2.15958 1.99347 0
M  V30 6519 H 591.741 -1.12277 1.17335 0
M  V30 6520 H 593.738 -4.13625 0.521513 0
M  V30 6521 H 592.398 -3.23821 -0.238693 0
M  V30 6522 H 593.409 -3.9092 3.39709 0
M  V30 6523 H 590.086 -4.09308 0.822986 0
M  V30 6524 H 591.476 -4.67914 4.82189 0
M  V30 6525 N 594.196 -1.08629 -1.14182 0
M  V30 6526 C 595.106 -0.730126 -2.22949 0
M  V30 6527 C 596.122 0.26436 -1.7198 0
M  V30 6528 O 597.298 0.107742 -2.01112 0
M  V30 6529 C 594.363 -0.147227 -3.46387 0
M  V30 6530 C 593.424 -1.19662 -4.12286 0
M  V30 6531 C 592.657 -0.641437 -5.29831 0
M  V30 6532 O 592.88 0.538351 -5.67854 0
M  V30 6533 O 591.814 -1.39257 -5.85569 0
M  V30 6534 H 595.64 -1.63753 -2.55771 0
M  V30 6535 H 593.225 -0.860118 -1.22157 0
M  V30 6536 H 595.107 0.174923 -4.21037 0
M  V30 6537 H 593.782 0.733304 -3.15285 0
M  V30 6538 H 592.689 -1.57133 -3.395 0
M  V30 6539 H 594.022 -2.0495 -4.475 0
M  V30 6540 N 595.674 1.31259 -0.872281 0
M  V30 6541 C 596.921 1.96622 -0.484365 0
M  V30 6542 C 597.249 1.68939 0.963841 0
M  V30 6543 O 596.504 0.97974 1.6941 0
M  V30 6544 C 596.803 3.50659 -0.690889 0
M  V30 6545 C 596.469 3.98366 -2.11224 0
M  V30 6546 C 595.131 4.11104 -2.50094 0
M  V30 6547 C 597.483 4.23425 -3.0391 0
M  V30 6548 C 594.811 4.46254 -3.80887 0
M  V30 6549 C 597.163 4.60039 -4.3422 0
M  V30 6550 C 595.827 4.70984 -4.73001 0
M  V30 6551 H 595.097 0.71949 -0.177242 0
M  V30 6552 H 597.744 1.56353 -1.10571 0
M  V30 6553 H 596.049 3.91798 0.0135782 0
M  V30 6554 H 597.746 3.99284 -0.370534 0
M  V30 6555 H 594.336 3.88949 -1.80047 0
M  V30 6556 H 598.52 4.13075 -2.75104 0
M  V30 6557 H 593.776 4.52926 -4.10692 0
M  V30 6558 H 597.95 4.78381 -5.06088 0
M  V30 6559 H 595.577 4.97977 -5.7439 0
M  V30 6560 N 597.152 0.631951 1.44375 0
M  V30 6561 C 598.398 0.145491 2.02879 0
M  V30 6562 C 598.753 -1.21936 1.48827 0
M  V30 6563 O 598.046 -1.7976 0.663085 0
M  V30 6564 C 598.24 0.0735861 3.57324 0
M  V30 6565 C 598.069 1.42992 4.2636 0
M  V30 6566 C 596.839 2.01691 4.63302 0
M  V30 6567 C 599.037 2.36393 4.56752 0
M  V30 6568 N 597.019 3.30551 5.17309 0
M  V30 6569 C 598.39 3.49869 5.11851 0
M  V30 6570 C 600.445 2.35462 4.38705 0
M  V30 6571 C 599.148 4.6261 5.50803 0
M  V30 6572 C 601.174 3.47268 4.78706 0
M  V30 6573 C 600.536 4.59467 5.33919 0
M  V30 6574 H 596.635 0.0971781 0.775938 0
M  V30 6575 H 599.219 0.835624 1.75856 0
M  V30 6576 H 597.39 -0.585829 3.83957 0
M  V30 6577 H 599.122 -0.421777 4.02496 0
M  V30 6578 H 595.877 1.54627 4.47647 0
M  V30 6579 H 596.301 3.96435 5.48788 0
M  V30 6580 H 600.943 1.49966 3.9531 0
M  V30 6581 H 598.661 5.48813 5.93152 0
M  V30 6582 H 602.247 3.47724 4.66454 0
M  V30 6583 H 601.127 5.44551 5.64299 0
M  V30 6584 N 598.631 -1.53133 0.372548 0
M  V30 6585 C 600.042 -1.86404 -0.105155 0
M  V30 6586 C 600.393 -1.29289 -1.47576 0
M  V30 6587 O 599.518 -0.617646 -2.07398 0
M  V30 6588 C 600.113 -3.38223 -0.197588 0
M  V30 6589 C 598.672 -3.71266 -0.619556 0
M  V30 6590 C 597.819 -2.76353 0.228919 0
M  V30 6591 H 600.77 -1.47282 0.591077 0
M  V30 6592 H 600.791 -3.66577 -1.01987 0
M  V30 6593 H 600.303 -3.79763 0.800099 0
M  V30 6594 H 598.404 -3.35287 -1.62522 0
M  V30 6595 H 598.517 -4.77515 -0.389332 0
M  V30 6596 H 596.881 -2.52888 -0.303271 0
M  V30 6597 H 597.664 -3.20728 1.22428 0
M  V30 6598 N 600.109 -0.101901 -1.5727 0
M  V30 6599 C 601.386 0.602832 -1.86079 0
M  V30 6600 C 601.766 1.85912 -1 0
M  V30 6601 O 601.114 2.28379 -0.0742488 0
M  V30 6602 C 601.324 0.911694 -3.36881 0
M  V30 6603 C 602.672 1.2722 -4.05093 0
M  V30 6604 O 603.696 1.0025 -3.41802 0
M  V30 6605 O 602.555 1.7776 -5.16782 0
M  V30 6606 H 599.649 0.302366 -0.769743 0
M  V30 6607 H 602.195 -0.135113 -1.69161 0
M  V30 6608 H 600.967 0.0207256 -3.91295 0
M  V30 6609 H 600.59 1.70538 -3.59169 0
M  V30 6610 N 601.587 1.56661 0.17182 0
M  V30 6611 C 603.003 1.50768 0.52357 0
M  V30 6612 C 603.203 0.806072 1.84675 0
M  V30 6613 O 602.259 0.366233 2.4983 0
M  V30 6614 C 603.572 2.955 0.556793 0
M  V30 6615 C 605.12 3.06303 0.644029 0
M  V30 6616 C 605.595 4.52492 0.708148 0
M  V30 6617 N 607.086 4.56737 0.771051 0
M  V30 6618 C 607.821 5.67196 0.841229 0
M  V30 6619 N 607.317 6.87287 0.872272 0
M  V30 6620 N 609.11 5.55165 0.88021 0
M  V30 6621 H 601.261 2.00679 -0.695817 0
M  V30 6622 H 603.524 0.914219 -0.250814 0
M  V30 6623 H 603.23 3.49986 -0.346774 0
M  V30 6624 H 603.104 3.50119 1.40346 0
M  V30 6625 H 605.491 2.51851 1.53802 0
M  V30 6626 H 605.572 2.5477 -0.229297 0
M  V30 6627 H 605.216 5.07575 -0.181585 0
M  V30 6628 H 605.146 5.01781 1.59761 0
M  V30 6629 H 607.637 3.70274 0.755364 0
M  V30 6630 H 607.95 7.6722 0.92698 0
M  V30 6631 H 606.295 6.89898 0.840557 0
M  V30 6632 H 609.486 4.60263 0.852956 0
M  V30 6633 H 609.659 6.41271 0.931439 0
M  V30 6634 N 603.065 -0.440357 1.51323 0
M  V30 6635 C 604.312 -1.19004 1.63842 0
M  V30 6636 C 604.64 -1.91266 0.35321 0
M  V30 6637 O 603.895 -1.84143 -0.662565 0
M  V30 6638 C 604.194 -2.2339 2.78984 0
M  V30 6639 C 603.86 -1.68162 4.18369 0
M  V30 6640 C 602.522 -1.52823 4.56288 0
M  V30 6641 C 604.874 -1.27524 5.05358 0
M  V30 6642 C 602.202 -0.953157 5.78906 0
M  V30 6643 C 604.554 -0.714474 6.28552 0
M  V30 6644 C 603.218 -0.547961 6.65247 0
M  V30 6645 H 602.488 -0.435468 0.59954 0
M  V30 6646 H 605.135 -0.481538 1.85347 0
M  V30 6647 H 603.44 -3.00267 2.51688 0
M  V30 6648 H 605.137 -2.81211 2.85869 0
M  V30 6649 H 601.727 -1.81077 3.8847 0
M  V30 6650 H 605.911 -1.38197 4.76671 0
M  V30 6651 H 601.167 -0.811882 6.05986 0
M  V30 6652 H 605.341 -0.391059 6.95301 0
M  V30 6653 H 602.968 -0.100222 7.60134 0
M  V30 6654 N 604.543 -1.41418 -0.695603 0
M  V30 6655 C 605.473 -1.46035 -1.82197 0
M  V30 6656 C 606.454 -0.319025 -1.67082 0
M  V30 6657 O 607.639 -0.530462 -1.86815 0
M  V30 6658 C 604.769 -1.34179 -3.20333 0
M  V30 6659 C 603.723 -2.46123 -3.50154 0
M  V30 6660 C 603.049 -2.19332 -4.87645 0
M  V30 6661 C 604.349 -3.88463 -3.49133 0
M  V30 6662 H 606.043 -2.40303 -1.78591 0
M  V30 6663 H 603.589 -1.15663 -0.857797 0
M  V30 6664 H 605.542 -1.36021 -3.98844 0
M  V30 6665 H 604.266 -0.363952 -3.24566 0
M  V30 6666 H 602.925 -2.43563 -2.73994 0
M  V30 6667 H 602.573 -1.19891 -4.88503 0
M  V30 6668 H 602.273 -2.94344 -5.08562 0
M  V30 6669 H 603.797 -2.22889 -5.68465 0
M  V30 6670 H 605.211 -3.92738 -4.17648 0
M  V30 6671 H 603.608 -4.63158 -3.81582 0
M  V30 6672 H 604.678 -4.16617 -2.48109 0
M  V30 6673 N 606.021 0.929856 -1.27246 0
M  V30 6674 C 606.931 2.0636 -1.11592 0
M  V30 6675 C 607.947 1.73938 -0.046496 0
M  V30 6676 O 609.123 1.9981 -0.252544 0
M  V30 6677 C 606.188 3.38213 -0.762437 0
M  V30 6678 C 605.249 3.84346 -1.9125 0
M  V30 6679 C 604.482 5.09906 -1.57579 0
M  V30 6680 O 604.705 5.68354 -0.482694 0
M  V30 6681 O 603.639 5.51359 -2.41426 0
M  V30 6682 H 607.465 2.22478 -2.0673 0
M  V30 6683 H 605.05 1.04865 -1.06413 0
M  V30 6684 H 606.932 4.1741 -0.57854 0
M  V30 6685 H 605.607 3.23307 0.159439 0
M  V30 6686 H 604.514 3.06045 -2.15144 0
M  V30 6687 H 605.847 4.0379 -2.81451 0
M  V30 6688 N 607.499 1.09233 1.13605 0
M  V30 6689 C 608.91 0.846839 1.6639 0
M  V30 6690 C 609.261 -0.625031 1.85978 0
M  V30 6691 O 608.386 -1.48173 1.57714 0
M  V30 6692 C 608.981 1.5307 3.0225 0
M  V30 6693 C 607.54 1.33223 3.52035 0
M  V30 6694 C 606.687 1.58806 2.27323 0
M  V30 6695 H 609.638 1.25175 0.975541 0
M  V30 6696 H 609.659 0.96267 3.68121 0
M  V30 6697 H 609.171 2.60192 2.87961 0
M  V30 6698 H 607.272 0.282091 3.71531 0
M  V30 6699 H 607.385 2.0657 4.32279 0
M  V30 6700 H 605.749 1.01007 2.33815 0
M  V30 6701 H 606.532 2.67153 2.15602 0
M  V30 6702 N 608.977 -1.30795 0.87923 0
M  V30 6703 C 610.225 -1.95974 0.493809 0
M  V30 6704 C 610.546 -1.69787 -0.959021 0
M  V30 6705 O 609.816 -1.01832 -1.67353 0
M  V30 6706 H 608.396 -0.725083 0.179622 0
M  V30 6707 H 611.058 -1.59432 1.12105 0
M  V30 6708 H 610.154 -3.05058 0.659263 0
M  V30 6709 N 610.455 -0.639598 -1.44038 0
M  V30 6710 C 611.402 0.0602458 -2.30721 0
M  V30 6711 C 612.372 0.828352 -1.43971 0
M  V30 6712 O 613.557 0.807693 -1.72861 0
M  V30 6713 C 610.697 1.03008 -3.29368 0
M  V30 6714 C 609.81 0.259502 -4.3122 0
M  V30 6715 C 608.945 1.22191 -5.16955 0
M  V30 6716 C 607.984 0.440978 -6.10509 0
M  V30 6717 N 607.121 1.35428 -6.88915 0
M  V30 6718 H 611.961 -0.684867 -2.90023 0
M  V30 6719 H 609.498 -0.349509 -1.42888 0
M  V30 6720 H 611.456 1.60583 -3.85057 0
M  V30 6721 H 610.086 1.74222 -2.71747 0
M  V30 6722 H 609.138 -0.432317 -3.77935 0
M  V30 6723 H 610.45 -0.348347 -4.97582 0
M  V30 6724 H 609.604 1.86873 -5.77203 0
M  V30 6725 H 608.343 1.86367 -4.50687 0
M  V30 6726 H 607.348 -0.219279 -5.49363 0
M  V30 6727 H 608.573 -0.196192 -6.78817 0
M  V30 6728 H 606.519 1.9831 -6.25307 0
M  V30 6729 H 606.436 0.800657 -7.51748 0
M  V30 6730 H 607.704 1.98967 -7.53679 0
M  V30 6731 N 611.933 1.52934 -0.380664 0
M  V30 6732 C 612.881 2.27727 0.47361 0
M  V30 6733 C 613.875 1.31288 1.0705 0
M  V30 6734 O 615.081 1.4886 1.01197 0
M  V30 6735 H 611.456 0.732189 0.171475 0
M  V30 6736 H 613.427 2.97864 -0.178785 0
M  V30 6737 C 612.176 3.0904 1.59341 0
M  V30 6738 H 611.499 3.831 1.14343 0
M  V30 6739 H 612.939 3.64527 2.16555 0
M  V30 6740 C 611.398 2.20813 2.54447 0
M  V30 6741 O 611.928 1.82907 3.57642 0
M  V30 6742 N 610.134 1.85145 2.23986 0
M  V30 6743 H 609.681 2.16169 1.40103 0
M  V30 6744 H 609.639 1.26402 2.87871 0
M  V30 6745 N 613.412 0.11024 1.57214 0
M  V30 6746 C 614.637 -0.561179 1.99664 0
M  V30 6747 C 615.062 -1.59985 0.989266 0
M  V30 6748 O 614.42 -1.81255 -0.0402399 0
M  V30 6749 C 614.468 -1.17189 3.41027 0
M  V30 6750 O 613.572 -2.28755 3.4314 0
M  V30 6751 H 612.913 -0.14101 0.648855 0
M  V30 6752 H 615.443 0.196128 2.03658 0
M  V30 6753 H 615.453 -1.50954 3.79047 0
M  V30 6754 H 614.128 -0.411041 4.13864 0
M  V30 6755 H 612.705 -1.96495 3.16929 0
M  V30 6756 N 614.89 -1.56749 -0.16351 0
M  V30 6757 C 616.306 -1.51043 -0.515567 0
M  V30 6758 C 616.506 -0.815855 -1.84245 0
M  V30 6759 O 615.562 -0.379477 -2.49632 0
M  V30 6760 C 616.875 -2.95791 -0.541114 0
M  V30 6761 C 618.423 -3.0664 -0.627776 0
M  V30 6762 C 618.898 -4.52861 -0.684141 0
M  V30 6763 N 620.389 -4.5714 -0.746818 0
M  V30 6764 C 621.124 -5.67634 -0.811137 0
M  V30 6765 N 620.62 -6.8774 -0.835811 0
M  V30 6766 N 622.413 -5.55624 -0.850756 0
M  V30 6767 H 614.564 -2.00307 0.70645 0
M  V30 6768 H 616.827 -0.912876 0.255659 0
M  V30 6769 H 616.533 -3.49797 0.365329 0
M  V30 6770 H 616.407 -3.50858 -1.38487 0
M  V30 6771 H 618.794 -2.52663 -1.52464 0
M  V30 6772 H 618.875 -2.54645 0.242805 0
M  V30 6773 H 618.519 -5.07472 0.2085 0
M  V30 6774 H 618.449 -5.02621 -1.57098 0
M  V30 6775 H 620.94 -3.70669 -0.735717 0
M  V30 6776 H 621.253 -7.67701 -0.886279 0
M  V30 6777 H 619.598 -6.90334 -0.803958 0
M  V30 6778 H 622.789 -4.60709 -0.828535 0
M  V30 6779 H 622.962 -6.41756 -0.897418 0
M  V30 6780 N 616.368 0.432326 -1.51554 0
M  V30 6781 C 617.331 1.50765 -1.72634 0
M  V30 6782 C 618.331 1.49334 -0.596314 0
M  V30 6783 O 619.521 1.51268 -0.863925 0
M  V30 6784 C 616.653 2.90284 -1.7874 0
M  V30 6785 H 617.846 1.33377 -2.68609 0
M  V30 6786 H 615.399 0.661329 -1.4162 0
M  V30 6787 H 616.134 3.13071 -0.845977 0
M  V30 6788 H 615.919 2.92727 -2.6087 0
M  V30 6789 H 617.409 3.68282 -1.96871 0
M  V30 6790 N 617.846 1.41785 0.688094 0
M  V30 6791 C 618.776 1.47 1.8142 0
M  V30 6792 C 619.757 0.327881 1.6691 0
M  V30 6793 O 620.942 0.540362 1.86531 0
M  V30 6794 C 618.072 1.35876 3.19617 0
M  V30 6795 C 617.026 2.47976 3.48844 0
M  V30 6796 C 616.352 2.21915 4.86475 0
M  V30 6797 C 617.652 3.90309 3.47068 0
M  V30 6798 H 619.346 2.41247 1.77314 0
M  V30 6799 H 616.892 1.16116 0.851651 0
M  V30 6800 H 618.845 1.38134 3.98117 0
M  V30 6801 H 617.569 0.38116 3.24368 0
M  V30 6802 H 616.228 2.45013 2.72698 0
M  V30 6803 H 615.876 1.2248 4.8786 0
M  V30 6804 H 615.576 2.97037 5.06994 0
M  V30 6805 H 617.1 2.25901 5.67275 0
M  V30 6806 H 618.514 3.94947 4.1556 0
M  V30 6807 H 616.911 4.65175 3.7912 0
M  V30 6808 H 617.981 4.17927 2.45896 0
M  V30 6809 N 619.324 -0.923095 1.27737 0
M  V30 6810 C 620.287 -2.00587 1.10894 0
M  V30 6811 C 621.287 -1.60718 0.0514927 0
M  V30 6812 O 622.477 -1.71658 0.296481 0
M  V30 6813 C 619.609 -3.33829 0.690717 0
M  V30 6814 H 620.802 -2.16959 2.07048 0
M  V30 6815 H 618.355 -1.10451 1.1059 0
M  V30 6816 H 619.09 -3.23157 -0.272 0
M  V30 6817 H 618.875 -3.64125 1.45448 0
M  V30 6818 H 620.365 -4.13336 0.595252 0
M  V30 6819 N 620.802 -1.09834 -1.13024 0
M  V30 6820 C 622.049 -0.83695 -1.84395 0
M  V30 6821 C 622.377 0.637463 -1.83757 0
M  V30 6822 O 621.632 1.48554 -1.27398 0
M  V30 6823 C 621.931 -1.32263 -3.32026 0
M  V30 6824 C 621.597 -2.80739 -3.52841 0
M  V30 6825 C 620.259 -3.21286 -3.5823 0
M  V30 6826 C 622.611 -3.76449 -3.60466 0
M  V30 6827 C 619.939 -4.56308 -3.68781 0
M  V30 6828 C 622.291 -5.11266 -3.72546 0
M  V30 6829 C 620.955 -5.51397 -3.76189 0
M  V30 6830 H 620.225 -0.306262 -0.674748 0
M  V30 6831 H 622.872 -1.37385 -1.33408 0
M  V30 6832 H 621.177 -0.705618 -3.85394 0
M  V30 6833 H 622.874 -1.09695 -3.85705 0
M  V30 6834 H 619.464 -2.48363 -3.49305 0
M  V30 6835 H 623.648 -3.46234 -3.55578 0
M  V30 6836 H 618.904 -4.86832 -3.69871 0
M  V30 6837 H 623.078 -5.85279 -3.77388 0
M  V30 6838 H 620.705 -6.56017 -3.84117 0
M  V30 6839 N 622.28 1.30327 -0.886154 0
M  V30 6840 C 623.528 1.9571 -0.504195 0
M  V30 6841 C 623.849 1.70294 0.950003 0
M  V30 6842 O 623.119 1.02718 1.66811 0
M  V30 6843 H 621.699 0.72412 -0.183465 0
M  V30 6844 H 624.361 1.58835 -1.12949 0
M  V30 6845 H 623.457 3.04704 -0.675431 0
M  V30 6846 N 623.758 0.647228 1.43697 0
M  V30 6847 C 624.998 0.16171 2.03759 0
M  V30 6848 C 625.362 -1.19951 1.49919 0
M  V30 6849 O 626.563 -1.77808 2.01588 0
M  V30 6850 C 624.834 0.16505 3.57019 0
M  V30 6851 S 626.393 -0.253497 4.38067 0
M  V30 6852 H 623.211 0.0689985 0.707644 0
M  V30 6853 H 625.813 0.854224 1.7585 0
M  V30 6854 H 624.517 1.15858 3.93707 0
M  V30 6855 H 624.048 -0.548194 3.89562 0
M  V30 6856 H 626.063 -1.49385 4.73179 0
M  V30 6857 N 625.236 -1.5273 0.388769 0
M  V30 6858 C 626.484 -2.01174 -0.193208 0
M  V30 6859 C 626.805 -1.27705 -1.47365 0
M  V30 6860 O 626.075 -0.396966 -1.91836 0
M  V30 6861 H 624.655 -0.743287 -0.0743871 0
M  V30 6862 H 627.317 -1.87826 0.520336 0
M  V30 6863 H 626.413 -3.09477 -0.403803 0
M  V30 6864 N 626.714 -0.118576 -1.57153 0
M  V30 6865 C 627.677 0.817464 -2.14127 0
M  V30 6866 C 628.677 1.1949 -1.07604 0
M  V30 6867 O 629.867 1.12048 -1.33382 0
M  V30 6868 C 626.999 2.10541 -2.68115 0
M  V30 6869 H 628.192 0.322339 -2.98163 0
M  V30 6870 H 625.745 0.130655 -1.55753 0
M  V30 6871 H 626.48 2.64485 -1.87665 0
M  V30 6872 H 626.265 1.84425 -3.4602 0
M  V30 6873 H 627.755 2.77453 -3.12105 0
M  V30 6874 N 628.193 1.56834 0.155195 0
M  V30 6875 C 629.609 1.51315 0.50755 0
M  V30 6876 C 629.809 0.825614 1.83809 0
M  V30 6877 O 628.865 0.39271 2.49427 0
M  V30 6878 C 630.178 2.96074 0.52542 0
M  V30 6879 C 631.726 3.06968 0.611505 0
M  V30 6880 C 632.201 4.53218 0.660115 0
M  V30 6881 N 633.692 4.5753 0.722564 0
M  V30 6882 C 634.427 5.68056 0.781023 0
M  V30 6883 N 633.923 6.88173 0.799327 0
M  V30 6884 N 635.716 5.56068 0.821278 0
M  V30 6885 H 627.867 1.9993 -0.717063 0
M  V30 6886 H 630.13 0.911507 -0.260496 0
M  V30 6887 H 629.836 3.49599 -0.383875 0
M  V30 6888 H 629.71 3.51587 1.36624 0
M  V30 6889 H 632.097 2.53468 1.51122 0
M  V30 6890 H 632.178 2.54513 -0.256306 0
M  V30 6891 H 631.822 5.07354 -0.23541 0
M  V30 6892 H 631.752 5.03447 1.5443 0
M  V30 6893 H 634.243 3.71054 0.716049 0
M  V30 6894 H 634.556 7.6816 0.845553 0
M  V30 6895 H 632.901 6.90751 0.767337 0
M  V30 6896 H 636.092 4.61142 0.804091 0
M  V30 6897 H 636.265 6.42223 0.863372 0
M  V30 6898 N 629.671 -0.424282 1.51781 0
M  V30 6899 C 630.917 -1.17434 1.6534 0
M  V30 6900 C 631.25 -1.90549 0.374806 0
M  V30 6901 O 630.525 -1.84145 -0.626179 0
M  V30 6902 C 630.808 -2.18093 2.86544 0
M  V30 6903 C 630.661 -1.48975 4.24413 0
M  V30 6904 C 631.98 -3.18934 3.03264 0
M  V30 6905 H 629.099 -0.425566 0.601716 0
M  V30 6906 H 631.741 -0.461921 1.84299 0
M  V30 6907 H 629.891 -2.78849 2.7051 0
M  V30 6908 H 631.563 -0.914551 4.52143 0
M  V30 6909 H 629.806 -0.791893 4.26511 0
M  V30 6910 H 630.477 -2.22347 5.05238 0
M  V30 6911 H 632.953 -2.68243 3.18096 0
M  V30 6912 H 631.829 -3.86645 3.89611 0
M  V30 6913 H 632.09 -3.85793 2.15908 0
M  V30 6914 N 631.149 -1.42148 -0.680565 0
M  V30 6915 C 632.389 -1.4379 -1.45271 0
M  V30 6916 C 632.753 -0.0504426 -1.91934 0
M  V30 6917 O 633.954 0.0583916 -2.68737 0
M  V30 6918 C 632.225 -2.42904 -2.62168 0
M  V30 6919 S 633.784 -2.63201 -3.51099 0
M  V30 6920 H 630.602 -0.509185 -0.496237 0
M  V30 6921 H 633.204 -1.78706 -0.792744 0
M  V30 6922 H 631.908 -3.4249 -2.26116 0
M  V30 6923 H 631.439 -2.09394 -3.33043 0
M  V30 6924 H 633.454 -1.91068 -4.57938 0
M  V30 6925 N 632.627 0.916307 -1.28225 0
M  V30 6926 C 633.557 2.0352 -1.14464 0
M  V30 6927 C 634.538 1.70045 -0.0430844 0
M  V30 6928 O 635.723 1.92954 -0.219619 0
M  V30 6929 C 632.853 3.37889 -0.803027 0
M  V30 6930 C 631.807 3.85516 -1.85908 0
M  V30 6931 C 631.133 5.1682 -1.37116 0
M  V30 6932 C 632.433 4.07655 -3.26519 0
M  V30 6933 H 634.127 2.1529 -2.08064 0
M  V30 6934 H 631.673 1.03446 -1.00174 0
M  V30 6935 H 633.626 4.15654 -0.693537 0
M  V30 6936 H 632.35 3.26164 0.168674 0
M  V30 6937 H 631.009 3.09953 -1.95767 0
M  V30 6938 H 630.657 5.01497 -0.38859 0
M  V30 6939 H 630.357 5.49657 -2.07728 0
M  V30 6940 H 631.881 5.97143 -1.27484 0
M  V30 6941 H 633.295 4.75953 -3.19596 0
M  V30 6942 H 631.692 4.51818 -3.94943 0
M  V30 6943 H 632.762 3.12553 -3.70727 0
M  V30 6944 N 634.105 1.10431 1.1244 0
M  V30 6945 C 635.353 0.845045 1.83585 0
M  V30 6946 C 635.674 -0.631168 1.84503 0
M  V30 6947 O 634.944 -1.45825 1.30813 0
M  V30 6948 H 633.524 0.309628 0.679809 0
M  V30 6949 H 636.186 1.39458 1.36153 0
M  V30 6950 H 635.282 1.20786 2.8778 0
M  V30 6951 N 635.583 -1.29855 0.893053 0
M  V30 6952 C 636.493 -2.31661 0.370157 0
M  V30 6953 C 637.509 -1.65677 -0.531723 0
M  V30 6954 O 638.685 -1.9691 -0.422902 0
M  V30 6955 C 635.75 -3.44388 -0.399741 0
M  V30 6956 C 634.811 -4.2598 0.532861 0
M  V30 6957 C 634.044 -5.33324 -0.200388 0
M  V30 6958 O 634.267 -5.52305 -1.42531 0
M  V30 6959 O 633.201 -6.00188 0.453668 0
M  V30 6960 H 637.027 -2.78354 1.2146 0
M  V30 6961 H 634.612 -1.34171 0.657153 0
M  V30 6962 H 636.494 -4.13037 -0.835358 0
M  V30 6963 H 635.169 -2.99815 -1.22035 0
M  V30 6964 H 634.076 -3.59998 1.01746 0
M  V30 6965 H 635.409 -4.74178 1.3197 0
M  V30 6966 N 637.061 -0.65484 -1.43351 0
M  V30 6967 C 638.472 -0.248506 -1.85039 0
M  V30 6968 C 638.823 1.20526 -1.54816 0
M  V30 6969 O 637.948 1.92016 -0.99794 0
M  V30 6970 C 638.543 -0.444241 -3.35875 0
M  V30 6971 C 637.102 -0.0922108 -3.76287 0
M  V30 6972 C 636.249 -0.746327 -2.67068 0
M  V30 6973 H 639.2 -0.8584 -1.33481 0
M  V30 6974 H 639.221 0.309762 -3.79237 0
M  V30 6975 H 638.733 -1.50239 -3.5784 0
M  V30 6976 H 636.834 0.96328 -3.59933 0
M  V30 6977 H 636.947 -0.518807 -4.76283 0
M  V30 6978 H 635.311 -0.179416 -2.54067 0
M  V30 6979 H 636.094 -1.80754 -2.91861 0
M  V30 6980 N 638.539 1.52521 -0.396863 0
M  V30 6981 C 639.469 2.29582 0.425941 0
M  V30 6982 C 640.45 1.33281 1.05689 0
M  V30 6983 O 641.635 1.62181 1.06823 0
M  V30 6984 C 638.765 3.10821 1.54943 0
M  V30 6985 C 637.719 4.15069 1.04413 0
M  V30 6986 C 637.045 4.84578 2.26028 0
M  V30 6987 C 638.345 5.22191 0.106767 0
M  V30 6988 H 640.039 2.98612 -0.217045 0
M  V30 6989 H 637.585 1.43611 -0.105826 0
M  V30 6990 H 639.538 3.63492 2.13193 0
M  V30 6991 H 638.262 2.39538 2.22011 0
M  V30 6992 H 636.921 3.63389 0.484118 0
M  V30 6993 H 636.569 4.09835 2.91623 0
M  V30 6994 H 636.269 5.55043 1.92876 0
M  V30 6995 H 637.793 5.40056 2.84906 0
M  V30 6996 H 639.207 5.70176 0.597685 0
M  V30 6997 H 637.604 5.99947 -0.135352 0
M  V30 6998 H 638.674 4.77531 -0.842134 0
M  V30 6999 N 640.017 0.126909 1.57088 0
M  V30 7000 C 640.98 -0.806097 2.14557 0
M  V30 7001 C 641.98 -1.18918 1.08236 0
M  V30 7002 O 643.17 -1.11339 1.33975 0
M  V30 7003 C 640.302 -2.09116 2.69227 0
M  V30 7004 H 641.495 -0.306522 2.98329 0
M  V30 7005 H 639.048 -0.122393 1.5582 0
M  V30 7006 H 639.783 -2.63486 1.89065 0
M  V30 7007 H 639.568 -1.82588 3.46993 0
M  V30 7008 H 641.058 -2.75794 3.13572 0
M  V30 7009 N 641.495 -1.56914 -0.146875 0
M  V30 7010 C 642.911 -1.51582 -0.499518 0
M  V30 7011 C 643.111 -0.83535 -1.83369 0
M  V30 7012 O 642.167 -0.405932 -2.49216 0
M  V30 7013 C 643.48 -2.96349 -0.509711 0
M  V30 7014 C 645.028 -3.07288 -0.595217 0
M  V30 7015 C 645.503 -4.53562 -0.636071 0
M  V30 7016 N 646.994 -4.57906 -0.69829 0
M  V30 7017 C 647.729 -5.68462 -0.750886 0
M  V30 7018 N 647.225 -6.88588 -0.76282 0
M  V30 7019 N 649.018 -5.56496 -0.791777 0
M  V30 7020 H 641.169 -1.99547 0.727656 0
M  V30 7021 H 643.432 -0.910113 0.265327 0
M  V30 7022 H 643.138 -3.4939 0.402409 0
M  V30 7023 H 643.012 -3.52307 -1.34758 0
M  V30 7024 H 645.399 -2.54266 -1.49776 0
M  V30 7025 H 645.48 -2.54373 0.2698 0
M  V30 7026 H 645.124 -5.07222 0.262313 0
M  V30 7027 H 645.054 -5.04259 -1.51758 0
M  V30 7028 H 647.545 -3.71429 -0.696362 0
M  V30 7029 H 647.858 -7.68598 -0.804804 0
M  V30 7030 H 646.203 -6.91148 -0.730694 0
M  V30 7031 H 649.394 -4.61562 -0.779624 0
M  V30 7032 H 649.567 -6.42671 -0.829301 0
M  V30 7033 N 642.974 0.416227 -1.52004 0
M  V30 7034 C 643.904 1.51365 -1.77795 0
M  V30 7035 C 644.885 1.58059 -0.628601 0
M  V30 7036 O 646.07 1.73447 -0.873478 0
M  V30 7037 C 643.2 2.89256 -1.92219 0
M  V30 7038 C 642.154 2.97415 -3.0778 0
M  V30 7039 C 641.48 4.37492 -3.07417 0
M  V30 7040 C 642.78 2.69551 -4.47369 0
M  V30 7041 H 644.474 1.30033 -2.69688 0
M  V30 7042 H 642.02 0.624112 -1.29772 0
M  V30 7043 H 643.973 3.66008 -2.08845 0
M  V30 7044 H 642.697 3.11866 -0.969917 0
M  V30 7045 H 641.356 2.23107 -2.90893 0
M  V30 7046 H 641.004 4.571 -2.09925 0
M  V30 7047 H 640.704 4.43877 -3.85029 0
M  V30 7048 H 642.228 5.16188 -3.26162 0
M  V30 7049 H 643.642 3.36028 -4.64497 0
M  V30 7050 H 642.039 2.87321 -5.26846 0
M  V30 7051 H 643.109 1.65029 -4.55953 0
M  V30 7052 N 644.452 1.42507 0.673017 0
M  V30 7053 C 645.362 1.4853 1.81593 0
M  V30 7054 C 646.378 0.373907 1.69935 0
M  V30 7055 O 647.554 0.625078 1.91454 0
M  V30 7056 C 644.619 1.387 3.17747 0
M  V30 7057 C 643.68 2.60346 3.41348 0
M  V30 7058 C 642.913 2.50975 4.71007 0
M  V30 7059 O 643.136 1.54659 5.49033 0
M  V30 7060 O 642.07 3.41138 4.95892 0
M  V30 7061 H 645.896 2.45001 1.79467 0
M  V30 7062 H 643.481 1.2429 0.82899 0
M  V30 7063 H 645.363 1.35586 3.98992 0
M  V30 7064 H 644.038 0.453555 3.20507 0
M  V30 7065 H 642.945 2.69034 2.59945 0
M  V30 7066 H 644.278 3.52595 3.43421 0
M  V30 7067 N 645.93 -0.909495 1.28709 0
M  V30 7068 C 646.86 -2.0291 1.15542 0
M  V30 7069 C 647.841 -1.7002 0.0521017 0
M  V30 7070 O 649.026 -1.92835 0.229849 0
M  V30 7071 C 646.156 -3.37458 0.820935 0
M  V30 7072 C 645.11 -3.84524 1.87949 0
M  V30 7073 C 644.436 -5.16086 1.39854 0
M  V30 7074 C 645.736 -4.05918 3.28676 0
M  V30 7075 H 647.43 -2.14183 2.09203 0
M  V30 7076 H 644.976 -1.02913 1.00722 0
M  V30 7077 H 646.929 -4.1528 0.715571 0
M  V30 7078 H 645.653 -3.26249 -0.151374 0
M  V30 7079 H 644.312 -3.08911 1.97408 0
M  V30 7080 H 643.96 -5.01284 0.41518 0
M  V30 7081 H 643.66 -5.48547 2.1064 0
M  V30 7082 H 645.184 -5.96459 1.30649 0
M  V30 7083 H 646.598 -4.74252 3.22115 0
M  V30 7084 H 644.995 -4.49717 3.97334 0
M  V30 7085 H 646.065 -3.10583 3.72379 0
M  V30 7086 N 647.408 -1.11026 -1.11852 0
M  V30 7087 C 648.655 -0.85646 -1.83497 0
M  V30 7088 C 648.983 0.617938 -1.84423 0
M  V30 7089 O 648.238 1.47194 -1.28966 0
M  V30 7090 C 648.537 -1.35777 -3.30604 0
M  V30 7091 C 648.203 -2.84465 -3.49843 0
M  V30 7092 C 646.865 -3.25068 -3.54802 0
M  V30 7093 C 649.217 -3.80251 -3.56453 0
M  V30 7094 C 646.545 -4.60194 -3.63921 0
M  V30 7095 C 648.897 -5.15188 -3.67102 0
M  V30 7096 C 647.561 -5.55356 -3.70319 0
M  V30 7097 H 646.831 -0.313401 -0.671462 0
M  V30 7098 H 649.478 -1.38792 -1.31943 0
M  V30 7099 H 647.783 -0.746455 -3.84624 0
M  V30 7100 H 649.48 -1.13779 -3.8452 0
M  V30 7101 H 646.07 -2.52054 -3.46651 0
M  V30 7102 H 650.254 -3.49986 -3.51886 0
M  V30 7103 H 645.51 -4.90728 -3.64686 0
M  V30 7104 H 649.684 -5.89248 -3.71159 0
M  V30 7105 H 647.311 -6.60054 -3.77138 0
M  V30 7106 N 648.886 1.2938 -0.899927 0
M  V30 7107 C 650.132 1.9584 -0.526742 0
M  V30 7108 C 650.465 1.70774 0.924651 0
M  V30 7109 O 649.74 1.02084 1.65557 0
M  V30 7110 C 650.023 3.50638 -0.820062 0
M  V30 7111 C 649.876 3.85161 -2.32317 0
M  V30 7112 C 651.195 4.3903 -0.30671 0
M  V30 7113 H 648.314 0.711322 -0.192848 0
M  V30 7114 H 650.956 1.52992 -1.12665 0
M  V30 7115 H 649.106 3.87265 -0.309491 0
M  V30 7116 H 650.778 3.58477 -2.9033 0
M  V30 7117 H 649.021 3.32696 -2.78381 0
M  V30 7118 H 649.692 4.93204 -2.47898 0
M  V30 7119 H 652.168 4.09396 -0.743908 0
M  V30 7120 H 651.044 5.46226 -0.541144 0
M  V30 7121 H 651.305 4.34937 0.792588 0
M  V30 7122 N 650.364 0.662433 1.43002 0
M  V30 7123 C 651.61 0.179857 2.02001 0
M  V30 7124 C 651.943 -1.20625 1.52195 0
M  V30 7125 O 651.218 -1.80726 0.718911 0
M  V30 7126 C 651.501 0.200845 3.59539 0
M  V30 7127 C 651.354 1.62153 4.19555 0
M  V30 7128 C 652.673 -0.457738 4.37713 0
M  V30 7129 H 649.792 0.0668305 0.733964 0
M  V30 7130 H 652.434 0.84487 1.70182 0
M  V30 7131 H 650.584 -0.365411 3.86778 0
M  V30 7132 H 652.256 2.23908 4.03315 0
M  V30 7133 H 650.499 2.16601 3.75854 0
M  V30 7134 H 651.17 1.58799 5.28665 0
M  V30 7135 H 653.646 0.0241495 4.16093 0
M  V30 7136 H 652.522 -0.412363 5.47349 0
M  V30 7137 H 652.783 -1.53336 4.14657 0
M  V30 7138 N 651.842 -1.52309 0.404946 0
M  V30 7139 C 652.772 -2.29805 -0.41376 0
M  V30 7140 C 653.753 -1.3384 -1.0498 0
M  V30 7141 O 654.938 -1.62745 -1.05961 0
M  V30 7142 C 652.068 -3.11639 -1.53292 0
M  V30 7143 C 651.022 -4.15616 -1.02211 0
M  V30 7144 C 650.348 -4.8577 -2.23455 0
M  V30 7145 C 651.648 -5.2224 -0.0790725 0
M  V30 7146 H 653.342 -2.98493 0.232878 0
M  V30 7147 H 650.888 -1.43552 0.113441 0
M  V30 7148 H 652.841 -3.64618 -2.11262 0
M  V30 7149 H 651.565 -2.40712 -2.20738 0
M  V30 7150 H 650.224 -3.63641 -0.46484 0
M  V30 7151 H 649.872 -4.11376 -2.89445 0
M  V30 7152 H 649.572 -5.56058 -1.89929 0
M  V30 7153 H 651.096 -5.4156 -2.82038 0
M  V30 7154 H 652.51 -5.70485 -0.567438 0
M  V30 7155 H 650.907 -5.99867 0.167167 0
M  V30 7156 H 651.977 -4.77078 0.867447 0
M  V30 7157 N 653.32 -0.135238 -1.57019 0
M  V30 7158 C 654.548 0.526066 -2.001 0
M  V30 7159 C 654.963 1.59184 -1.01519 0
M  V30 7160 O 654.32 1.82497 -0.0104258 0
M  V30 7161 C 654.371 1.13744 -3.43139 0
M  V30 7162 O 654.092 0.114259 -4.37951 0
M  V30 7163 C 655.593 1.8805 -4.01438 0
M  V30 7164 H 652.813 0.137962 -0.656664 0
M  V30 7165 H 655.357 -0.226359 -2.03243 0
M  V30 7166 H 653.512 1.84056 -3.40885 0
M  V30 7167 H 653.926 0.56058 -5.21496 0
M  V30 7168 H 655.4 2.26133 -5.03555 0
M  V30 7169 H 655.877 2.76194 -3.41487 0
M  V30 7170 H 656.483 1.22464 -4.07287 0
M  V30 7171 N 654.798 1.5699 0.138552 0
M  V30 7172 C 656.214 1.51844 0.491472 0
M  V30 7173 C 656.414 0.845063 1.82923 0
M  V30 7174 O 655.47 0.419143 2.48997 0
M  V30 7175 C 656.783 2.96615 0.493987 0
M  V30 7176 C 658.331 3.076 0.578913 0
M  V30 7177 C 658.806 4.53893 0.612009 0
M  V30 7178 N 660.297 4.5827 0.673997 0
M  V30 7179 C 661.032 5.68852 0.720729 0
M  V30 7180 N 660.528 6.88982 0.726292 0
M  V30 7181 N 662.321 5.56908 0.762253 0
M  V30 7182 H 654.472 1.99158 -0.738228 0
M  V30 7183 H 656.735 0.908693 -0.270149 0
M  V30 7184 H 656.441 3.49172 -0.420933 0
M  V30 7185 H 656.315 3.53017 1.32887 0
M  V30 7186 H 658.702 2.55057 1.48425 0
M  V30 7187 H 658.783 2.54227 -0.283286 0
M  V30 7188 H 658.427 5.07076 -0.289208 0
M  V30 7189 H 658.357 5.05057 1.49082 0
M  V30 7190 H 660.848 3.71793 0.676654 0
M  V30 7191 H 661.161 7.69014 0.764032 0
M  V30 7192 H 659.506 6.91526 0.69403 0
M  V30 7193 H 662.697 4.61969 0.755135 0
M  V30 7194 H 662.87 6.43102 0.795207 0
M  V30 7195 N 656.276 -0.40816 1.52223 0
M  V30 7196 C 657.206 -1.5042 1.78595 0
M  V30 7197 C 658.187 -1.57723 0.636974 0
M  V30 7198 O 659.372 -1.72982 0.882664 0
M  V30 7199 C 656.502 -2.88232 1.93751 0
M  V30 7200 C 655.456 -2.95779 3.09352 0
M  V30 7201 C 654.782 -4.35855 3.09732 0
M  V30 7202 C 656.082 -2.67175 4.48793 0
M  V30 7203 H 657.776 -1.28601 2.70374 0
M  V30 7204 H 655.322 -0.617221 1.30101 0
M  V30 7205 H 657.275 -3.64895 2.10783 0
M  V30 7206 H 655.999 -3.11347 0.986443 0
M  V30 7207 H 654.658 -2.21561 2.92072 0
M  V30 7208 H 654.306 -4.55981 2.12346 0
M  V30 7209 H 654.006 -4.41829 3.87377 0
M  V30 7210 H 655.53 -5.14451 3.28895 0
M  V30 7211 H 656.944 -3.3356 4.66273 0
M  V30 7212 H 655.341 -2.84523 5.28362 0
M  V30 7213 H 656.411 -1.62609 4.56822 0
M  V30 7214 N 657.755 -1.42862 -0.66545 0
M  V30 7215 C 658.685 -1.49867 -1.79059 0
M  V30 7216 C 659.666 -0.354394 -1.66367 0
M  V30 7217 O 660.851 -0.569969 -1.85647 0
M  V30 7218 C 657.981 -1.40943 -3.17415 0
M  V30 7219 C 656.935 -2.53495 -3.44854 0
M  V30 7220 C 656.261 -2.29626 -4.82883 0
M  V30 7221 C 657.561 -3.95781 -3.40815 0
M  V30 7222 H 659.255 -2.44037 -1.73453 0
M  V30 7223 H 656.801 -1.17456 -0.833071 0
M  V30 7224 H 658.754 -1.4445 -3.95869 0
M  V30 7225 H 657.478 -0.432716 -3.23721 0
M  V30 7226 H 656.137 -2.4932 -2.68766 0
M  V30 7227 H 655.785 -1.30226 -4.8585 0
M  V30 7228 H 655.485 -3.05065 -5.02204 0
M  V30 7229 H 657.009 -2.34897 -5.63609 0
M  V30 7230 H 658.423 -4.01508 -4.09224 0
M  V30 7231 H 656.82 -4.71148 -3.71672 0
M  V30 7232 H 657.89 -4.21786 -2.39216 0
M  V30 7233 N 659.233 0.902656 -1.29189 0
M  V30 7234 C 660.165 2.01149 -1.09872 0
M  V30 7235 C 661.178 1.62732 -0.0471046 0
M  V30 7236 O 662.367 1.76107 -0.29132 0
M  V30 7237 C 659.467 3.32612 -0.649818 0
M  V30 7238 C 658.64 3.99574 -1.7793 0
M  V30 7239 C 657.699 5.09325 -1.32191 0
M  V30 7240 O 656.725 5.31919 -2.02611 0
M  V30 7241 N 657.927 5.80185 -0.191171 0
M  V30 7242 H 660.692 2.18276 -2.05368 0
M  V30 7243 H 658.253 1.07466 -1.2109 0
M  V30 7244 H 660.245 4.03375 -0.327199 0
M  V30 7245 H 658.815 3.11876 0.212597 0
M  V30 7246 H 658.035 3.22213 -2.27095 0
M  V30 7247 H 659.323 4.41056 -2.53668 0
M  V30 7248 H 658.721 5.64312 0.396016 0
M  V30 7249 H 657.278 6.5176 0.0721001 0
M  V30 7250 N 660.711 1.11618 1.11262 0
M  V30 7251 C 661.674 0.779447 2.15539 0
M  V30 7252 C 662.674 -0.202081 1.59525 0
M  V30 7253 O 663.864 0.0226356 1.74185 0
M  V30 7254 C 660.996 0.15674 3.40539 0
M  V30 7255 H 662.189 1.70324 2.4684 0
M  V30 7256 H 659.742 0.918298 1.26479 0
M  V30 7257 H 660.477 -0.777186 3.1485 0
M  V30 7258 H 660.262 0.863308 3.82478 0
M  V30 7259 H 661.752 -0.062661 4.17553 0
M  V30 7260 N 662.189 -1.289 0.906776 0
M  V30 7261 C 663.436 -1.95269 0.536326 0
M  V30 7262 C 663.764 -1.71435 -0.918711 0
M  V30 7263 O 663.019 -1.02431 -1.66752 0
M  V30 7264 C 663.318 -3.48704 0.783617 0
M  V30 7265 C 662.984 -3.92626 2.21711 0
M  V30 7266 C 661.646 -4.04329 2.60906 0
M  V30 7267 C 663.998 -4.15218 3.15029 0
M  V30 7268 C 661.326 -4.35998 3.92584 0
M  V30 7269 C 663.678 -4.48365 4.46264 0
M  V30 7270 C 662.342 -4.58278 4.85322 0
M  V30 7271 H 661.612 -0.714538 0.196256 0
M  V30 7272 H 664.259 -1.53366 1.14678 0
M  V30 7273 H 662.564 -3.91696 0.0903048 0
M  V30 7274 H 664.261 -3.98162 0.476267 0
M  V30 7275 H 660.851 -3.84038 1.90296 0
M  V30 7276 H 665.035 -4.05636 2.8596 0
M  V30 7277 H 660.291 -4.41878 4.22557 0
M  V30 7278 H 664.465 -4.64795 5.18593 0
M  V30 7279 H 662.092 -4.82573 5.87391 0
M  V30 7280 N 663.667 -0.670007 -1.42649 0
M  V30 7281 C 664.895 -0.19854 -2.05945 0
M  V30 7282 C 665.31 1.14243 -1.50313 0
M  V30 7283 O 664.667 1.70872 -0.641027 0
M  V30 7284 C 664.718 -0.11966 -3.61302 0
M  V30 7285 O 664.439 -1.40764 -4.1487 0
M  V30 7286 C 665.94 0.375878 -4.41704 0
M  V30 7287 H 663.16 -0.0976894 -0.663851 0
M  V30 7288 H 665.704 -0.915392 -1.82868 0
M  V30 7289 H 663.859 0.547851 -3.83507 0
M  V30 7290 H 664.273 -1.27784 -5.08696 0
M  V30 7291 H 665.747 0.379988 -5.50691 0
M  V30 7292 H 666.224 1.41028 -4.15942 0
M  V30 7293 H 666.83 -0.259727 -4.24506 0
M  V30 7294 N 665.145 1.52092 -0.413018 0
M  V30 7295 C 666.075 2.30021 0.401567 0
M  V30 7296 C 667.056 1.34395 1.04269 0
M  V30 7297 O 668.241 1.63304 1.05097 0
M  V30 7298 C 665.371 3.12447 1.51638 0
M  V30 7299 C 664.325 4.16153 1.00005 0
M  V30 7300 C 663.651 4.86948 2.20875 0
M  V30 7301 C 664.951 5.22275 0.0513757 0
M  V30 7302 H 666.645 2.98365 -0.248704 0
M  V30 7303 H 664.191 1.4349 -0.121052 0
M  V30 7304 H 666.144 3.65733 2.09326 0
M  V30 7305 H 664.868 2.41879 2.19458 0
M  V30 7306 H 663.527 3.63882 0.445549 0
M  V30 7307 H 663.175 4.12905 2.8726 0
M  V30 7308 H 662.875 5.57057 1.86978 0
M  V30 7309 H 664.399 5.43048 2.79162 0
M  V30 7310 H 665.813 5.70778 0.537176 0
M  V30 7311 H 664.21 5.9977 -0.198977 0
M  V30 7312 H 665.28 4.76611 -0.892736 0
M  V30 7313 N 666.623 0.143563 1.56945 0
M  V30 7314 C 667.553 -0.7936 2.196 0
M  V30 7315 C 668.534 -1.25955 1.14321 0
M  V30 7316 O 669.719 -1.31773 1.42651 0
M  V30 7317 C 666.849 -2.03424 2.81489 0
M  V30 7318 C 665.803 -1.70519 3.92565 0
M  V30 7319 C 665.129 -3.01817 4.41373 0
M  V30 7320 C 666.429 -0.95449 5.13504 0
M  V30 7321 H 668.123 -0.271423 2.98167 0
M  V30 7322 H 665.669 -0.12911 1.4342 0
M  V30 7323 H 667.622 -2.69463 3.23987 0
M  V30 7324 H 666.346 -2.58008 2.00248 0
M  V30 7325 H 665.005 -1.06859 3.5068 0
M  V30 7326 H 664.653 -3.54386 3.56959 0
M  V30 7327 H 664.353 -2.80565 5.16292 0
M  V30 7328 H 665.877 -3.68934 4.86539 0
M  V30 7329 H 667.291 -1.5169 5.52868 0
M  V30 7330 H 665.688 -0.842035 5.94163 0
M  V30 7331 H 666.758 0.0544033 4.84869 0
M  V30 7332 N 668.101 -1.57061 -0.130224 0
M  V30 7333 C 669.512 -1.73539 -0.68856 0
M  V30 7334 C 669.863 -0.760554 -1.80859 0
M  V30 7335 O 668.988 0.0690796 -2.1629 0
M  V30 7336 C 669.583 -3.14666 -1.25581 0
M  V30 7337 C 668.142 -3.32689 -1.76055 0
M  V30 7338 C 667.289 -2.69436 -0.655712 0
M  V30 7339 H 670.24 -1.58412 0.0956002 0
M  V30 7340 H 670.261 -3.15595 -2.12556 0
M  V30 7341 H 669.773 -3.85593 -0.440412 0
M  V30 7342 H 667.874 -2.66786 -2.60108 0
M  V30 7343 H 667.987 -4.4077 -1.87772 0
M  V30 7344 H 666.351 -2.30362 -1.08654 0
M  V30 7345 H 667.134 -3.42979 0.14852 0
M  V30 7346 N 669.579 0.400081 -1.52437 0
M  V30 7347 C 670.804 1.17221 -1.71096 0
M  V30 7348 C 671.229 1.83269 -0.423565 0
M  V30 7349 O 670.587 1.70378 0.619751 0
M  V30 7350 C 670.635 2.20425 -2.85386 0
M  V30 7351 O 669.739 3.26769 -2.51586 0
M  V30 7352 H 669.08 0.341766 -0.569291 0
M  V30 7353 H 671.61 0.467772 -1.99181 0
M  V30 7354 H 671.62 2.64605 -3.10561 0
M  V30 7355 H 670.295 1.71737 -3.78786 0
M  V30 7356 H 668.872 2.87804 -2.37114 0
M  V30 7357 N 671.057 1.43213 0.657864 0
M  V30 7358 C 672.305 1.44298 1.41501 0
M  V30 7359 C 672.626 0.0666478 1.94886 0
M  V30 7360 O 671.896 -0.897345 1.74139 0
M  V30 7361 H 670.476 0.531257 0.525143 0
M  V30 7362 H 673.138 1.78777 0.776195 0
M  V30 7363 H 672.234 2.1528 2.25966 0
M  V30 7364 N 672.536 -0.895792 1.29666 0
M  V30 7365 C 673.813 -1.62723 1.08538 0
M  V30 7366 C 674.193 -2.07848 -0.369119 0
M  V30 7367 O 673.541 -1.8372 -1.35864 0
M  V30 7368 C 673.751 -2.80505 2.07648 0
M  V30 7369 C 675.099 -3.51098 2.3878 0
M  V30 7370 O 676.123 -2.90679 2.05874 0
M  V30 7371 O 674.982 -4.60028 2.9502 0
M  V30 7372 H 672.076 -0.714692 0.416106 0
M  V30 7373 H 674.622 -0.943517 1.41053 0
M  V30 7374 H 673.394 -2.44386 3.05599 0
M  V30 7375 H 673.017 -3.5658 1.75887 0
M  V30 7376 N 674.014 -1.12206 -1.10668 0
M  V30 7377 C 674.977 -0.790867 -2.15123 0
M  V30 7378 C 675.977 0.193618 -1.5963 0
M  V30 7379 O 677.167 -0.0318728 -1.74171 0
M  V30 7380 C 674.299 -0.174797 -3.40452 0
M  V30 7381 H 675.492 -1.7163 -2.45933 0
M  V30 7382 H 673.045 -0.924993 -1.2599 0
M  V30 7383 H 673.78 0.760478 -3.15257 0
M  V30 7384 H 673.565 -0.88358 -3.82015 0
M  V30 7385 H 675.055 0.0405162 -4.1758 0
M  V30 7386 N 675.492 1.28418 -0.913599 0
M  V30 7387 C 676.422 2.29713 -0.418847 0
M  V30 7388 C 677.403 1.62165 0.513469 0
M  V30 7389 O 678.588 1.89576 0.421235 0
M  V30 7390 C 675.718 3.45612 0.342042 0
M  V30 7391 C 674.672 4.25056 -0.501123 0
M  V30 7392 C 673.998 5.3329 0.388097 0
M  V30 7393 C 675.298 4.91814 -1.75831 0
M  V30 7394 H 676.992 2.71346 -1.26538 0
M  V30 7395 H 674.538 1.30446 -0.609903 0
M  V30 7396 H 676.491 4.15562 0.699 0
M  V30 7397 H 675.215 3.02858 1.22248 0
M  V30 7398 H 673.874 3.56833 -0.840598 0
M  V30 7399 H 673.522 4.8678 1.26707 0
M  V30 7400 H 673.222 5.87347 -0.172459 0
M  V30 7401 H 674.746 6.06088 0.74094 0
M  V30 7402 H 676.16 5.54126 -1.47026 0
M  V30 7403 H 674.557 5.55866 -2.26126 0
M  V30 7404 H 675.627 4.16313 -2.4862 0
M  V30 7405 N 676.97 0.677563 1.42291 0
M  V30 7406 C 678.381 0.277912 1.8462 0
M  V30 7407 C 678.732 -1.18048 1.56714 0
M  V30 7408 O 677.857 -1.90404 1.02836 0
M  V30 7409 C 678.452 0.497619 3.35126 0
M  V30 7410 C 677.011 0.152063 3.76093 0
M  V30 7411 C 676.158 0.78872 2.65847 0
M  V30 7412 H 679.109 0.879527 1.32098 0
M  V30 7413 H 679.13 -0.24939 3.79682 0
M  V30 7414 H 678.642 1.55913 3.55405 0
M  V30 7415 H 676.743 -0.905896 3.6142 0
M  V30 7416 H 676.856 0.594514 4.75397 0
M  V30 7417 H 675.22 0.219813 2.5375 0
M  V30 7418 H 676.003 1.85374 2.88949 0
M  V30 7419 N 678.448 -1.51871 0.421078 0
M  V30 7420 C 679.673 -2.0684 -0.152371 0
M  V30 7421 C 680.098 -1.28802 -1.37083 0
M  V30 7422 O 679.456 -0.321482 -1.78427 0
M  V30 7423 C 679.504 -3.57532 -0.469368 0
M  V30 7424 O 678.608 -3.81818 -1.55848 0
M  V30 7425 H 677.949 -0.663939 -0.00898586 0
M  V30 7426 H 680.479 -1.95674 0.597724 0
M  V30 7427 H 680.489 -4.01515 -0.724553 0
M  V30 7428 H 679.164 -4.13761 0.421276 0
M  V30 7429 H 677.741 -3.49709 -1.29453 0
M  V30 7430 N 679.926 -0.151884 -1.56866 0
M  V30 7431 C 680.856 0.781943 -2.20018 0
M  V30 7432 C 681.837 1.25347 -1.14987 0
M  V30 7433 O 683.022 1.31015 -1.43348 0
M  V30 7434 C 680.152 2.01928 -2.82564 0
M  V30 7435 C 679.106 1.68434 -3.93464 0
M  V30 7436 C 678.432 2.99472 -4.42968 0
M  V30 7437 C 679.732 0.927244 -5.14003 0
M  V30 7438 H 681.426 0.255607 -2.98307 0
M  V30 7439 H 678.972 0.121502 -1.43486 0
M  V30 7440 H 680.925 2.67741 -3.25411 0
M  V30 7441 H 679.649 2.56943 -2.01614 0
M  V30 7442 H 678.308 1.04998 -3.51242 0
M  V30 7443 H 677.956 3.52488 -3.58834 0
M  V30 7444 H 677.656 2.77823 -5.17772 0
M  V30 7445 H 679.18 3.66348 -4.88489 0
M  V30 7446 H 680.594 1.48756 -5.53665 0
M  V30 7447 H 678.991 0.810513 -5.94601 0
M  V30 7448 H 680.061 -0.0801163 -4.84834 0
M  V30 7449 N 681.404 1.57128 0.121893 0
M  V30 7450 C 682.336 1.96773 1.17529 0
M  V30 7451 C 683.349 0.866668 1.37814 0
M  V30 7452 O 684.538 1.14497 1.3694 0
M  V30 7453 C 681.638 2.24832 2.53582 0
M  V30 7454 C 680.811 3.56138 2.53939 0
M  V30 7455 C 679.87 3.72443 3.71716 0
M  V30 7456 O 678.896 4.44584 3.55434 0
M  V30 7457 N 680.098 3.10993 4.90167 0
M  V30 7458 H 682.863 2.87743 0.838086 0
M  V30 7459 H 680.424 1.58881 0.311199 0
M  V30 7460 H 682.416 2.32958 3.30927 0
M  V30 7461 H 680.986 1.40002 2.79496 0
M  V30 7462 H 680.206 3.59226 1.62329 0
M  V30 7463 H 681.494 4.42448 2.51231 0
M  V30 7464 H 680.892 2.52345 5.06299 0
M  V30 7465 H 679.449 3.24644 5.65198 0
M  V30 7466 N 682.882 -0.391992 1.52647 0
M  V30 7467 C 684.293 -0.970064 1.5952 0
M  V30 7468 C 684.644 -1.91059 0.446207 0
M  V30 7469 O 683.769 -2.12062 -0.431125 0
M  V30 7470 C 684.364 -1.76614 2.89125 0
M  V30 7471 C 682.923 -2.29396 2.9842 0
M  V30 7472 C 682.07 -1.09864 2.54608 0
M  V30 7473 H 685.021 -0.171638 1.57769 0
M  V30 7474 H 685.042 -2.62511 2.75442 0
M  V30 7475 H 684.554 -1.08135 3.72731 0
M  V30 7476 H 682.655 -3.01196 2.19344 0
M  V30 7477 H 682.768 -2.59088 4.03002 0
M  V30 7478 H 681.132 -1.45777 2.08857 0
M  V30 7479 H 681.915 -0.429249 3.40606 0
M  V30 7480 N 684.36 -1.4356 -0.65026 0
M  V30 7481 C 685.29 -1.51758 -1.77459 0
M  V30 7482 C 686.271 -0.372019 -1.65982 0
M  V30 7483 O 687.456 -0.589627 -1.85033 0
M  V30 7484 C 684.586 -1.44302 -3.15902 0
M  V30 7485 C 683.54 -2.57138 -3.42146 0
M  V30 7486 C 682.866 -2.34735 -4.8042 0
M  V30 7487 C 684.166 -3.99373 -3.36598 0
M  V30 7488 H 685.86 -2.45863 -1.70855 0
M  V30 7489 H 683.406 -1.18333 -0.820566 0
M  V30 7490 H 685.359 -1.48641 -3.94314 0
M  V30 7491 H 684.083 -0.467026 -3.23244 0
M  V30 7492 H 682.742 -2.52157 -2.66106 0
M  V30 7493 H 682.39 -1.35372 -4.84441 0
M  V30 7494 H 682.09 -3.10375 -4.9894 0
M  V30 7495 H 683.614 -2.40862 -5.61086 0
M  V30 7496 H 685.028 -4.05826 -4.04942 0
M  V30 7497 H 683.425 -4.75063 -3.66654 0
M  V30 7498 H 684.495 -4.243 -2.34729 0
M  V30 7499 N 685.838 0.888903 -1.30139 0
M  V30 7500 C 687.249 1.45578 -1.16893 0
M  V30 7501 C 687.6 1.94825 0.231866 0
M  V30 7502 O 686.725 1.84661 1.12824 0
M  V30 7503 C 687.32 2.646 -2.11595 0
M  V30 7504 C 685.879 3.17389 -2.02339 0
M  V30 7505 C 685.026 1.90081 -2.01902 0
M  V30 7506 H 687.977 0.69921 -1.42467 0
M  V30 7507 H 687.998 3.40687 -1.69449 0
M  V30 7508 H 687.51 2.28726 -3.13538 0
M  V30 7509 H 685.611 3.5793 -1.03523 0
M  V30 7510 H 685.724 3.80955 -2.90534 0
M  V30 7511 H 684.088 2.08246 -1.46648 0
M  V30 7512 H 684.871 1.5647 -3.05568 0
M  V30 7513 N 687.317 1.12792 1.10072 0
M  V30 7514 C 688.267 0.768086 2.14673 0
M  V30 7515 C 689.251 -0.234716 1.59179 0
M  V30 7516 O 690.443 -0.039643 1.76956 0
M  V30 7517 C 687.572 0.228472 3.42539 0
M  V30 7518 C 686.658 1.25979 4.04957 0
M  V30 7519 N 687.049 2.4586 4.42025 0
M  V30 7520 C 685.347 1.10602 4.32069 0
M  V30 7521 C 686.048 3.11747 4.9111 0
M  V30 7522 N 685.024 2.39185 4.88151 0
M  V30 7523 H 688.826 1.68029 2.4113 0
M  V30 7524 H 686.34 1.00925 1.27232 0
M  V30 7525 H 688.337 -0.0475216 4.16873 0
M  V30 7526 H 686.997 -0.678136 3.1754 0
M  V30 7527 H 688.008 2.83215 4.33601 0
M  V30 7528 H 684.685 0.257021 4.16708 0
M  V30 7529 H 686.075 4.13862 5.29309 0
M  V30 7530 N 688.795 -1.27931 0.920396 0
M  V30 7531 C 690.035 -1.96459 0.564198 0
M  V30 7532 C 690.399 -1.70802 -0.876967 0
M  V30 7533 O 691.6 -2.32956 -1.34107 0
M  V30 7534 C 689.871 -3.46583 0.872641 0
M  V30 7535 S 691.43 -4.34343 0.623859 0
M  V30 7536 H 688.248 -0.679735 0.208523 0
M  V30 7537 H 690.85 -1.55319 1.18727 0
M  V30 7538 H 689.554 -3.62753 1.91933 0
M  V30 7539 H 689.085 -3.92677 0.238479 0
M  V30 7540 H 691.1 -4.93449 -0.521744 0
M  V30 7541 N 690.273 -0.685099 -1.4193 0
M  V30 7542 C 691.498 -0.218842 -2.06242 0
M  V30 7543 C 691.923 1.11923 -1.51178 0
M  V30 7544 O 691.281 1.69837 -0.634446 0
M  V30 7545 C 691.329 -0.175592 -3.60172 0
M  V30 7546 O 690.433 0.852776 -4.03487 0
M  V30 7547 H 689.774 -0.109531 -0.654904 0
M  V30 7548 H 692.304 -0.937013 -1.81882 0
M  V30 7549 H 692.314 -0.00291151 -4.08 0
M  V30 7550 H 690.989 -1.15222 -3.99621 0
M  V30 7551 H 689.566 0.650301 -3.67186 0
M  V30 7552 N 691.751 1.51645 -0.429126 0
M  V30 7553 C 692.997 2.02314 0.140286 0
M  V30 7554 C 693.33 1.31314 1.43074 0
M  V30 7555 O 692.605 0.425531 1.89788 0
M  V30 7556 C 692.888 3.5822 0.36749 0
M  V30 7557 C 692.741 4.39846 -0.941039 0
M  V30 7558 C 694.06 4.25055 1.14089 0
M  V30 7559 H 691.179 0.735335 0.0495112 0
M  V30 7560 H 693.821 1.81358 -0.566514 0
M  V30 7561 H 691.971 3.76207 0.969556 0
M  V30 7562 H 693.643 4.33527 -1.57646 0
M  V30 7563 H 691.886 4.05259 -1.54751 0
M  V30 7564 H 692.557 5.47069 -0.73621 0
M  V30 7565 H 695.033 4.11288 0.630986 0
M  V30 7566 H 693.909 5.34038 1.26863 0
M  V30 7567 H 694.17 3.85358 2.16683 0
M  V30 7568 N 693.229 0.160201 1.56784 0
M  V30 7569 C 694.478 -0.487619 1.95717 0
M  V30 7570 C 694.791 -1.65136 1.0483 0
M  V30 7571 O 695.997 -2.36468 1.33398 0
M  V30 7572 C 694.453 -0.91888 3.47972 0
M  V30 7573 C 694.061 0.218655 4.47466 0
M  V30 7574 C 695.805 -1.53575 3.95746 0
M  V30 7575 C 693.712 -0.231614 5.90946 0
M  V30 7576 H 692.642 -0.185939 0.730714 0
M  V30 7577 H 695.293 0.246657 1.81835 0
M  V30 7578 H 693.675 -1.70881 3.57234 0
M  V30 7579 H 694.849 0.995825 4.49911 0
M  V30 7580 H 693.164 0.744767 4.09685 0
M  V30 7581 H 695.761 -1.88448 5.00391 0
M  V30 7582 H 696.104 -2.42959 3.38048 0
M  V30 7583 H 696.637 -0.810467 3.89456 0
M  V30 7584 H 693.376 0.62718 6.52493 0
M  V30 7585 H 692.896 -0.974379 5.91833 0
M  V30 7586 H 694.575 -0.67922 6.43425 0
M  V30 7587 N 694.707 -1.5719 -0.113559 0
M  V30 7588 C 695.637 -2.03772 -1.14013 0
M  V30 7589 C 696.618 -0.923176 -1.42869 0
M  V30 7590 O 697.803 -1.19325 -1.53216 0
M  V30 7591 C 694.933 -2.44663 -2.4649 0
M  V30 7592 C 693.887 -3.59612 -2.32085 0
M  V30 7593 C 693.213 -3.8642 -3.69573 0
M  V30 7594 C 694.513 -4.91149 -1.7768 0
M  V30 7595 H 696.207 -2.89785 -0.752665 0
M  V30 7596 H 693.753 -1.39412 -0.360609 0
M  V30 7597 H 695.706 -2.75857 -3.18561 0
M  V30 7598 H 694.43 -1.55628 -2.87137 0
M  V30 7599 H 693.089 -3.28636 -1.62461 0
M  V30 7600 H 692.737 -2.94581 -4.07715 0
M  V30 7601 H 692.437 -4.63797 -3.60786 0
M  V30 7602 H 693.961 -4.2007 -4.4314 0
M  V30 7603 H 695.375 -5.20843 -2.39574 0
M  V30 7604 H 693.772 -5.72562 -1.79701 0
M  V30 7605 H 694.842 -4.79301 -0.734776 0
M  V30 7606 N 696.185 0.383891 -1.52853 0
M  V30 7607 C 697.132 1.46924 -1.77995 0
M  V30 7608 C 698.102 1.53958 -0.623396 0
M  V30 7609 O 699.287 1.70134 -0.863657 0
M  V30 7610 C 696.427 2.84093 -1.95921 0
M  V30 7611 C 695.54 2.86171 -3.23621 0
M  V30 7612 C 694.675 4.14799 -3.31836 0
M  V30 7613 C 693.714 4.10948 -4.53639 0
M  V30 7614 N 692.851 5.31192 -4.59107 0
M  V30 7615 H 697.691 1.24786 -2.70615 0
M  V30 7616 H 695.228 0.605265 -1.34071 0
M  V30 7617 H 697.186 3.63755 -2.04299 0
M  V30 7618 H 695.816 3.04671 -1.06656 0
M  V30 7619 H 694.868 1.9885 -3.24288 0
M  V30 7620 H 696.18 2.79194 -4.13343 0
M  V30 7621 H 695.334 5.02867 -3.39425 0
M  V30 7622 H 694.073 4.24505 -2.40097 0
M  V30 7623 H 693.078 3.21268 -4.46169 0
M  V30 7624 H 694.303 4.0286 -5.467 0
M  V30 7625 H 692.249 5.41518 -3.70262 0
M  V30 7626 H 692.166 5.26311 -5.42708 0
M  V30 7627 H 693.434 6.21143 -4.70958 0
M  V30 7628 N 697.663 1.43903 0.642637 0
M  V30 7629 C 698.596 1.44339 1.76753 0
M  V30 7630 C 699.574 0.303558 1.59741 0
M  V30 7631 O 700.758 0.498775 1.81781 0
M  V30 7632 C 697.885 1.26508 3.14187 0
M  V30 7633 C 696.931 2.43905 3.49875 0
M  V30 7634 S 697.764 4.0645 3.48653 0
M  V30 7635 C 698.92 3.91021 4.88726 0
M  V30 7636 H 699.153 2.39523 1.76113 0
M  V30 7637 H 696.686 1.31061 0.81623 0
M  V30 7638 H 698.644 1.16908 3.93501 0
M  V30 7639 H 697.305 0.328548 3.12377 0
M  V30 7640 H 696.498 2.27262 4.49853 0
M  V30 7641 H 696.1 2.50186 2.77998 0
M  V30 7642 H 698.392 3.54 5.77659 0
M  V30 7643 H 699.335 4.9079 5.10423 0
M  V30 7644 H 699.743 3.23287 4.62759 0
M  V30 7645 N 699.141 -0.881989 1.30609 0
M  V30 7646 C 700.073 -1.99375 1.13058 0
M  V30 7647 C 701.086 -1.62636 0.0729879 0
M  V30 7648 O 702.275 -1.75621 0.319301 0
M  V30 7649 C 699.375 -3.31536 0.702651 0
M  V30 7650 C 698.548 -3.96693 1.84265 0
M  V30 7651 C 697.607 -5.07158 1.40277 0
M  V30 7652 O 696.633 -5.28628 2.11048 0
M  V30 7653 N 697.835 -5.79808 0.283449 0
M  V30 7654 H 700.6 -2.14981 2.08814 0
M  V30 7655 H 698.161 -1.05526 1.22784 0
M  V30 7656 H 700.153 -4.02804 0.391331 0
M  V30 7657 H 698.723 -3.12175 -0.162954 0
M  V30 7658 H 697.943 -3.1856 2.32192 0
M  V30 7659 H 699.231 -4.36964 2.60653 0
M  V30 7660 H 698.629 -5.64871 -0.306189 0
M  V30 7661 H 697.186 -6.51792 0.0315985 0
M  V30 7662 N 700.619 -1.13374 -1.09472 0
M  V30 7663 C 702.03 -0.90801 -1.63132 0
M  V30 7664 C 702.381 0.555576 -1.8817 0
M  V30 7665 O 701.506 1.42218 -1.63104 0
M  V30 7666 C 702.101 -1.64182 -2.96361 0
M  V30 7667 C 700.66 -1.46197 -3.46848 0
M  V30 7668 C 699.807 -1.67134 -2.21273 0
M  V30 7669 H 702.758 -1.2871 -0.928411 0
M  V30 7670 H 702.779 -1.09863 -3.64294 0
M  V30 7671 H 702.291 -2.707 -2.78106 0
M  V30 7672 H 700.392 -0.419788 -3.70228 0
M  V30 7673 H 700.505 -2.22472 -4.24315 0
M  V30 7674 H 698.869 -1.09616 -2.29905 0
M  V30 7675 H 699.652 -2.74971 -2.05538 0
M  V30 7676 N 702.098 1.27442 -0.927168 0
M  V30 7677 C 703.345 1.94391 -0.567324 0
M  V30 7678 C 703.673 1.72875 0.891321 0
M  V30 7679 O 702.928 1.05071 1.65102 0
M  V30 7680 C 703.227 3.47413 -0.838994 0
M  V30 7681 C 702.893 3.89049 -2.2793 0
M  V30 7682 C 701.555 4.00127 -2.67305 0
M  V30 7683 C 703.907 4.10154 -3.21595 0
M  V30 7684 C 701.235 4.29697 -3.99471 0
M  V30 7685 C 703.587 4.41208 -4.53341 0
M  V30 7686 C 702.251 4.50499 -4.92551 0
M  V30 7687 H 701.521 0.711325 -0.207598 0
M  V30 7688 H 704.168 1.51523 -1.17103 0
M  V30 7689 H 702.473 3.91503 -0.152609 0
M  V30 7690 H 704.17 3.97354 -0.53955 0
M  V30 7691 H 700.76 3.80962 -1.96381 0
M  V30 7692 H 704.944 4.01036 -2.92377 0
M  V30 7693 H 700.2 4.35099 -4.29533 0
M  V30 7694 H 704.374 4.56486 -5.25922 0
M  V30 7695 H 702.001 4.73167 -5.94994 0
M  V30 7696 N 703.576 0.692616 1.41565 0
M  V30 7697 C 704.508 -0.0137132 2.29196 0
M  V30 7698 C 705.521 -0.747417 1.44629 0
M  V30 7699 O 706.71 -0.598611 1.68163 0
M  V30 7700 C 703.81 -1.04347 3.22436 0
M  V30 7701 C 702.983 -0.379985 4.35746 0
M  V30 7702 C 702.042 -1.31195 5.09583 0
M  V30 7703 O 701.068 -0.805455 5.63472 0
M  V30 7704 N 702.27 -2.64443 5.16769 0
M  V30 7705 H 705.035 0.738614 2.90456 0
M  V30 7706 H 702.596 0.538415 1.52685 0
M  V30 7707 H 704.588 -1.6686 3.687 0
M  V30 7708 H 703.158 -1.69736 2.62504 0
M  V30 7709 H 702.378 0.424975 3.91903 0
M  V30 7710 H 703.666 0.0814904 5.08735 0
M  V30 7711 H 703.064 -3.08114 4.74428 0
M  V30 7712 H 701.621 -3.22159 5.66619 0
M  V30 7713 N 705.054 -1.51416 0.437162 0
M  V30 7714 C 706.3 -2.02386 -0.129555 0
M  V30 7715 C 706.633 -1.32071 -1.42376 0
M  V30 7716 O 705.908 -0.43559 -1.8956 0
M  V30 7717 C 706.191 -3.5841 -0.348487 0
M  V30 7718 C 706.044 -4.39341 0.964352 0
M  V30 7719 C 707.363 -4.25654 -1.11834 0
M  V30 7720 H 704.482 -0.735587 -0.0456109 0
M  V30 7721 H 707.124 -1.81055 0.576124 0
M  V30 7722 H 705.274 -3.76716 -0.949592 0
M  V30 7723 H 706.946 -4.32685 1.59942 0
M  V30 7724 H 705.189 -4.04432 1.56898 0
M  V30 7725 H 705.86 -5.4667 0.765212 0
M  V30 7726 H 708.336 -4.11617 -0.609165 0
M  V30 7727 H 707.212 -5.34704 -1.24029 0
M  V30 7728 H 707.473 -3.86502 -2.14636 0
M  V30 7729 N 706.532 -0.168513 -1.56696 0
M  V30 7730 C 707.948 0.187686 -1.58493 0
M  V30 7731 C 708.148 1.63063 -1.18375 0
M  V30 7732 O 707.204 2.36142 -0.894042 0
M  V30 7733 C 708.517 -0.0905858 -3.00564 0
M  V30 7734 C 710.065 -0.028575 -3.12987 0
M  V30 7735 C 710.54 -0.279799 -4.57145 0
M  V30 7736 N 712.031 -0.227476 -4.62641 0
M  V30 7737 C 712.766 -0.396073 -5.7203 0
M  V30 7738 N 712.262 -0.623572 -6.89988 0
M  V30 7739 N 714.055 -0.332173 -5.61118 0
M  V30 7740 H 706.206 -1.11042 -1.81062 0
M  V30 7741 H 708.469 -0.441235 -0.839056 0
M  V30 7742 H 708.175 -1.09006 -3.34381 0
M  V30 7743 H 708.049 0.619078 -3.72085 0
M  V30 7744 H 710.436 0.961471 -2.78998 0
M  V30 7745 H 710.517 -0.770905 -2.43907 0
M  V30 7746 H 710.161 -1.26704 -4.91842 0
M  V30 7747 H 710.091 0.48311 -5.24379 0
M  V30 7748 H 712.582 -0.0571723 -3.77857 0
M  V30 7749 H 712.895 -0.741745 -7.69232 0
M  V30 7750 H 711.24 -0.660153 -6.91858 0
M  V30 7751 H 714.431 -0.155051 -4.67843 0
M  V30 7752 H 714.604 -0.466994 -6.46315 0
M  V30 7753 N 708.01 1.57248 0.105221 0
M  V30 7754 C 708.94 2.04374 1.12931 0
M  V30 7755 C 709.921 0.93074 1.42377 0
M  V30 7756 O 711.106 1.20136 1.52581 0
M  V30 7757 C 708.236 2.45967 2.45189 0
M  V30 7758 C 707.19 3.60838 2.30174 0
M  V30 7759 C 706.516 3.88374 3.67518 0
M  V30 7760 C 707.816 4.92084 1.75073 0
M  V30 7761 H 709.51 2.9018 0.737287 0
M  V30 7762 H 707.056 1.39601 0.353211 0
M  V30 7763 H 709.009 2.77542 3.17094 0
M  V30 7764 H 707.733 1.57148 2.86308 0
M  V30 7765 H 706.392 3.29493 1.60716 0
M  V30 7766 H 706.04 2.96739 4.06147 0
M  V30 7767 H 705.74 4.65703 3.58321 0
M  V30 7768 H 707.264 4.22415 4.40906 0
M  V30 7769 H 708.678 5.22106 2.36809 0
M  V30 7770 H 707.075 5.73507 1.76662 0
M  V30 7771 H 708.145 4.79684 0.709347 0
M  V30 7772 N 709.488 -0.375779 1.53054 0
M  V30 7773 C 710.42 -1.47963 1.75042 0
M  V30 7774 C 711.433 -1.50073 0.631031 0
M  V30 7775 O 712.622 -1.53736 0.907052 0
M  V30 7776 C 709.722 -2.86767 1.80604 0
M  V30 7777 C 708.895 -3.08471 3.10104 0
M  V30 7778 C 707.954 -4.27332 3.07041 0
M  V30 7779 O 706.98 -4.22998 3.80869 0
M  V30 7780 N 708.182 -5.34214 2.27147 0
M  V30 7781 H 710.947 -1.29484 2.70285 0
M  V30 7782 H 708.508 -0.565416 1.51706 0
M  V30 7783 H 710.5 -3.64404 1.76045 0
M  V30 7784 H 709.07 -2.98542 0.926897 0
M  V30 7785 H 708.29 -2.18583 3.28048 0
M  V30 7786 H 709.578 -3.19834 3.95706 0
M  V30 7787 H 708.976 -5.40594 1.66656 0
M  V30 7788 H 707.533 -6.10467 2.28415 0
M  V30 7789 N 710.966 -1.44241 -0.634997 0
M  V30 7790 C 712.377 -1.41622 -1.21655 0
M  V30 7791 C 712.728 -0.129584 -1.95772 0
M  V30 7792 O 711.853 0.770225 -2.02229 0
M  V30 7793 C 712.448 -2.56557 -2.21278 0
M  V30 7794 C 711.007 -2.57145 -2.7487 0
M  V30 7795 C 710.154 -2.33354 -1.49804 0
M  V30 7796 H 713.105 -1.52878 -0.425905 0
M  V30 7797 H 713.126 -2.29089 -3.03807 0
M  V30 7798 H 712.638 -3.50186 -1.67306 0
M  V30 7799 H 710.739 -1.67447 -3.32855 0
M  V30 7800 H 710.852 -3.55507 -3.21172 0
M  V30 7801 H 709.216 -1.82372 -1.77799 0
M  V30 7802 H 709.999 -3.29092 -0.977402 0
M  V30 7803 N 712.444 0.87505 -1.31075 0
M  V30 7804 C 713.86 1.15997 -1.09622 0
M  V30 7805 C 714.06 2.01036 0.136611 0
M  V30 7806 O 713.116 2.38559 0.827397 0
M  V30 7807 C 714.429 1.85702 -2.36506 0
M  V30 7808 C 715.977 1.98425 -2.42067 0
M  V30 7809 C 716.452 2.71544 -3.68819 0
M  V30 7810 N 717.943 2.79084 -3.69684 0
M  V30 7811 C 718.678 3.36259 -4.64454 0
M  V30 7812 N 718.174 3.94406 -5.69575 0
M  V30 7813 N 719.967 3.34169 -4.51982 0
M  V30 7814 H 712.118 0.308258 -2.10151 0
M  V30 7815 H 714.381 0.199145 -0.926847 0
M  V30 7816 H 714.087 1.30663 -3.26527 0
M  V30 7817 H 713.961 2.86017 -2.45915 0
M  V30 7818 H 716.348 2.5263 -1.52518 0
M  V30 7819 H 716.429 0.971682 -2.36626 0
M  V30 7820 H 716.073 2.18008 -4.58732 0
M  V30 7821 H 716.003 3.73198 -3.71525 0
M  V30 7822 H 718.494 2.3781 -2.93691 0
M  V30 7823 H 718.807 4.36129 -6.37974 0
M  V30 7824 H 717.152 3.92797 -5.73355 0
M  V30 7825 H 720.343 2.87977 -3.69035 0
M  V30 7826 H 720.516 3.78431 -5.26017 0
M  V30 7827 N 713.922 1.13953 1.08869 0
M  V30 7828 C 715.17 0.903023 1.80803 0
M  V30 7829 C 715.491 -0.572151 1.86417 0
M  V30 7830 O 714.761 -1.41589 1.35386 0
M  V30 7831 H 713.341 0.331099 0.669614 0
M  V30 7832 H 716.003 1.43719 1.31647 0
M  V30 7833 H 715.099 1.29881 2.83791 0
M  V30 7834 N 715.4 -1.26948 0.933913 0
M  V30 7835 C 716.333 -2.24977 0.382169 0
M  V30 7836 C 717.311 -1.53893 -0.524949 0
M  V30 7837 O 718.495 -1.82699 -0.464048 0
M  V30 7838 C 715.622 -3.35676 -0.451615 0
M  V30 7839 C 714.668 -4.24686 0.392947 0
M  V30 7840 S 715.501 -5.03898 1.81237 0
M  V30 7841 C 716.657 -6.18078 0.986443 0
M  V30 7842 H 716.89 -2.71429 1.21299 0
M  V30 7843 H 714.423 -1.35701 0.736523 0
M  V30 7844 H 716.381 -3.99901 -0.926797 0
M  V30 7845 H 715.042 -2.8785 -1.25703 0
M  V30 7846 H 714.235 -5.03402 -0.245533 0
M  V30 7847 H 713.837 -3.65288 0.802537 0
M  V30 7848 H 716.129 -6.77125 0.225321 0
M  V30 7849 H 717.072 -6.86216 1.74682 0
M  V30 7850 H 717.48 -5.62047 0.525711 0
M  V30 7851 N 716.879 -0.700114 -1.41195 0
M  V30 7852 C 718.127 -0.232546 -2.00758 0
M  V30 7853 C 718.448 1.1734 -1.55745 0
M  V30 7854 O 717.718 1.79262 -0.790058 0
M  V30 7855 H 716.298 -0.0829845 -0.742376 0
M  V30 7856 H 718.96 -0.902289 -1.72756 0
M  V30 7857 H 718.056 -0.253521 -3.11069 0
M  V30 7858 N 718.357 1.51182 -0.445186 0
M  V30 7859 C 719.32 2.26501 0.350722 0
M  V30 7860 C 720.32 1.3025 0.942952 0
M  V30 7861 O 721.51 1.53897 0.816175 0
M  V30 7862 C 718.642 3.06274 1.49697 0
M  V30 7863 H 719.835 2.98299 -0.309474 0
M  V30 7864 H 717.388 1.55034 -0.198551 0
M  V30 7865 H 718.123 2.38911 2.19299 0
M  V30 7866 H 717.908 3.76979 1.0784 0
M  V30 7867 H 719.398 3.63306 2.05909 0
M  V30 7868 N 719.835 0.176821 1.56605 0
M  V30 7869 C 720.785 -0.763718 2.14829 0
M  V30 7870 C 721.769 -1.18903 1.08401 0
M  V30 7871 O 722.961 -1.15048 1.3451 0
M  V30 7872 C 720.09 -1.99069 2.7969 0
M  V30 7873 C 719.176 -1.58711 3.93283 0
M  V30 7874 N 719.567 -0.893423 4.97847 0
M  V30 7875 C 717.865 -1.87774 4.04545 0
M  V30 7876 C 718.566 -0.693866 5.77547 0
M  V30 7877 N 717.542 -1.23699 5.29339 0
M  V30 7878 H 721.344 -0.224811 2.93039 0
M  V30 7879 H 718.858 -0.0236563 1.62383 0
M  V30 7880 H 720.855 -2.67478 3.19783 0
M  V30 7881 H 719.515 -2.53449 2.02962 0
M  V30 7882 H 720.526 -0.550868 5.14962 0
M  V30 7883 H 717.203 -2.43793 3.38927 0
M  V30 7884 H 718.593 -0.144899 6.71744 0
M  V30 7885 N 721.313 -1.57302 -0.09688 0
M  V30 7886 C 722.538 -1.9058 -0.818169 0
M  V30 7887 C 722.963 -0.770921 -1.71576 0
M  V30 7888 O 722.321 0.277588 -1.79162 0
M  V30 7889 C 722.369 -3.22714 -1.60898 0
M  V30 7890 O 721.473 -3.10178 -2.71779 0
M  V30 7891 H 720.814 -0.624759 -0.224882 0
M  V30 7892 H 723.344 -2.04471 -0.07264 0
M  V30 7893 H 723.354 -3.55978 -1.99358 0
M  V30 7894 H 722.029 -4.04899 -0.950227 0
M  V30 7895 H 720.606 -2.88424 -2.3636 0
M  V30 7896 N 722.791 0.367657 -1.53252 0
M  V30 7897 C 724.202 0.944563 -1.61043 0
M  V30 7898 C 724.553 1.90325 -0.476546 0
M  V30 7899 O 723.678 2.12721 0.397333 0
M  V30 7900 C 724.273 1.71992 -2.91898 0
M  V30 7901 C 722.832 2.2462 -3.02031 0
M  V30 7902 C 721.979 1.05799 -2.56324 0
M  V30 7903 H 724.93 0.146516 -1.58022 0
M  V30 7904 H 724.951 2.58095 -2.79584 0
M  V30 7905 H 724.463 1.02192 -3.74404 0
M  V30 7906 H 722.564 2.97668 -2.24108 0
M  V30 7907 H 722.677 2.52644 -4.07073 0
M  V30 7908 H 721.041 1.42435 -2.1115 0
M  V30 7909 H 721.824 0.375008 -3.41246 0
M  V30 7910 N 724.269 1.44576 0.627338 0
M  V30 7911 C 725.517 1.47267 1.38408 0
M  V30 7912 C 725.838 0.107971 1.94701 0
M  V30 7913 O 725.108 -0.860206 1.76004 0
M  V30 7914 H 723.688 0.542276 0.513756 0
M  V30 7915 H 726.35 1.80383 0.738099 0
M  V30 7916 H 725.446 2.20025 2.21349 0
M  V30 7917 N 725.747 -0.868086 1.31537 0
M  V30 7918 C 726.679 -1.98165 1.15166 0
M  V30 7919 C 727.692 -1.6255 0.0902335 0
M  V30 7920 O 728.881 -1.75272 0.33791 0
M  V30 7921 C 725.981 -3.30772 0.737776 0
M  V30 7922 C 725.154 -3.94716 1.88462 0
M  V30 7923 C 724.213 -5.05641 1.45648 0
M  V30 7924 O 723.239 -5.2636 2.16642 0
M  V30 7925 N 724.441 -5.79474 0.34493 0
M  V30 7926 H 727.206 -2.12754 2.11083 0
M  V30 7927 H 724.767 -1.04217 1.23897 0
M  V30 7928 H 726.759 -4.02366 0.434032 0
M  V30 7929 H 725.329 -3.1233 -0.129834 0
M  V30 7930 H 724.549 -3.16079 2.35558 0
M  V30 7931 H 725.837 -4.34175 2.65273 0
M  V30 7932 H 725.235 -5.65164 -0.246259 0
M  V30 7933 H 723.792 -6.51722 0.100728 0
M  V30 7934 N 727.225 -1.14528 -1.08264 0
M  V30 7935 C 728.173 -0.829201 -2.17318 0
M  V30 7936 C 729.167 0.193521 -1.68291 0
M  V30 7937 O 730.373 0.0494744 -1.79932 0
M  V30 7938 H 726.748 -0.250435 -0.709074 0
M  V30 7939 H 728.719 -1.75683 -2.41201 0
M  V30 7940 C 727.468 -0.324663 -3.46181 0
M  V30 7941 H 726.791 -1.10299 -3.84284 0
M  V30 7942 H 728.231 -0.142059 -4.23762 0
M  V30 7943 C 726.69 0.952033 -3.23169 0
M  V30 7944 O 727.22 2.02549 -3.46896 0
M  V30 7945 N 725.426 0.887854 -2.76705 0
M  V30 7946 H 724.973 0.0141402 -2.57596 0
M  V30 7947 H 724.931 1.74263 -2.61686 0
M  V30 7948 N 728.703 1.26451 -0.940633 0
M  V30 7949 C 729.635 2.25556 -0.407104 0
M  V30 7950 C 730.648 1.55888 0.469324 0
M  V30 7951 O 731.837 1.76292 0.279858 0
M  V30 7952 C 728.937 3.36109 0.434064 0
M  V30 7953 C 728.11 4.3532 -0.426082 0
M  V30 7954 C 727.169 5.25004 0.354563 0
M  V30 7955 O 726.195 5.68684 -0.242219 0
M  V30 7956 N 727.397 5.5652 1.65123 0
M  V30 7957 H 730.162 2.7197 -1.25907 0
M  V30 7958 H 727.723 1.40212 -0.809456 0
M  V30 7959 H 729.715 3.93059 0.963684 0
M  V30 7960 H 728.285 2.89194 1.18683 0
M  V30 7961 H 727.505 3.77449 -1.13692 0
M  V30 7962 H 728.793 4.986 -1.01366 0
M  V30 7963 H 728.191 5.22912 2.15822 0
M  V30 7964 H 726.748 6.16115 2.12711 0
M  V30 7965 O 730.22 0.846016 1.37567 0
M  V30 7966 H 730.911 0.436618 1.88715 0
M  V30 END ATOM
M  V30 BEGIN BOND
M  V30 END BOND
M  V30 END CTAB
M  END
$$$$
