drugbank_target|P08779 Keratin, type I cytoskeletal 16 (DB01593; DB14487)
 OpenBabel12092121083D

  0  0  0     0  0            999 V3000
M  V30 BEGIN CTAB
M  V30 COUNTS 7089 7128 0 0 0
M  V30 BEGIN ATOM
M  V30 1 H -0.908 1.98254 -0.117106 0
M  V30 2 N 0 1.576 0 0
M  V30 3 C 0.933 2.03868 1.02534 0
M  V30 4 C 1.911 0.928543 1.3348 0
M  V30 5 O 3.095 1.19667 1.45644 0
M  V30 6 C 0.222 2.43627 2.35294 0
M  V30 7 C -0.732 3.65373 2.2001 0
M  V30 8 S 0.101 5.13292 1.52614 0
M  V30 9 C 1.257 5.56322 2.86805 0
M  V30 10 H 1.49 2.90518 0.631377 0
M  V30 11 H -0.977 1.52953 0.210867 0
M  V30 12 H 0.981 2.67203 3.11629 0
M  V30 13 H -0.358 1.57376 2.7183 0
M  V30 14 H -1.165 3.90944 3.18086 0
M  V30 15 H -1.563 3.418 1.51819 0
M  V30 16 H 0.729 5.58782 3.83104 0
M  V30 17 H 1.672 6.56266 2.65933 0
M  V30 18 H 2.08 4.83886 2.90714 0
M  V30 19 N 1.4781 -0.272755 1.55222 0
M  V30 20 C 2.7061 -1.02255 1.79865 0
M  V30 21 C 3.1211 -1.79924 0.572088 0
M  V30 22 O 2.4781 -1.76638 -0.458842 0
M  V30 23 C 2.5291 -1.98094 3.02392 0
M  V30 24 O 2.2501 -1.23572 4.20311 0
M  V30 25 C 3.7511 -2.84884 3.39641 0
M  V30 26 H 0.9711 -0.302057 0.599168 0
M  V30 27 H 3.5151 -0.303465 2.02236 0
M  V30 28 H 1.6701 -2.65465 2.82147 0
M  V30 29 H 2.0841 -1.88172 4.89583 0
M  V30 30 H 3.5581 -3.47927 4.28545 0
M  V30 31 H 4.0351 -3.54665 2.59055 0
M  V30 32 H 4.6411 -2.23003 3.62146 0
M  V30 33 N 2.9562 -1.48159 -0.537278 0
M  V30 34 C 4.1842 -1.59454 -1.31841 0
M  V30 35 C 4.5992 -0.252065 -1.8711 0
M  V30 36 O 3.9562 0.757621 -1.66031 0
M  V30 37 C 4.0072 -2.63546 -2.47439 0
M  V30 38 O 3.7282 -3.92583 -1.94449 0
M  V30 39 C 5.2292 -2.85212 -3.39366 0
M  V30 40 H 2.4492 -0.53785 -0.401196 0
M  V30 41 H 4.9932 -1.93932 -0.648891 0
M  V30 42 H 3.1482 -2.31946 -3.1029 0
M  V30 43 H 3.5622 -4.49629 -2.70063 0
M  V30 44 H 5.0362 -3.61863 -4.16844 0
M  V30 45 H 5.5132 -1.93765 -3.94147 0
M  V30 46 H 6.1192 -3.18086 -2.82314 0
M  V30 47 N 4.4343 0.785586 -1.36625 0
M  V30 48 C 5.6743 1.55678 -1.32453 0
M  V30 49 C 6.0383 1.91769 0.0941089 0
M  V30 50 O 7.2393 2.67536 0.26042 0
M  V30 51 C 5.5103 2.79701 -2.22491 0
M  V30 52 S 7.0693 3.69907 -2.36038 0
M  V30 53 H 3.8873 0.533141 -0.470405 0
M  V30 54 H 6.4893 0.924953 -1.72235 0
M  V30 55 H 5.1933 2.51244 -3.24507 0
M  V30 56 H 4.7243 3.47854 -1.83742 0
M  V30 57 H 6.7393 4.71016 -1.56072 0
M  V30 58 N 5.9124 1.20967 1.01018 0
M  V30 59 C 7.1374 1.0503 1.78839 0
M  V30 60 C 7.5624 -0.395752 1.8389 0
M  V30 61 O 6.9204 -1.28529 1.27867 0
M  V30 62 C 6.9684 1.64602 3.2084 0
M  V30 63 O 6.0724 0.887988 4.02726 0
M  V30 64 H 5.4134 0.369987 0.551367 0
M  V30 65 H 7.9434 1.60399 1.27018 0
M  V30 66 H 7.9534 1.68607 3.71532 0
M  V30 67 H 6.6284 2.69841 3.16479 0
M  V30 68 H 5.2054 0.922648 3.61305 0
M  V30 69 N 7.3905 -1.2043 1.01659 0
M  V30 70 C 8.8065 -1.41852 0.731442 0
M  V30 71 C 9.0065 -1.89358 -0.688898 0
M  V30 72 O 8.0625 -2.06247 -1.45666 0
M  V30 73 C 9.3755 -2.44019 1.75714 0
M  V30 74 C 10.9235 -2.57785 1.77527 0
M  V30 75 C 11.3985 -3.63194 2.79023 0
M  V30 76 N 12.8895 -3.70678 2.77763 0
M  V30 77 C 13.6245 -4.51897 3.52954 0
M  V30 78 N 13.1205 -5.36921 4.37821 0
M  V30 79 N 14.9135 -4.4643 3.41551 0
M  V30 80 H 7.0645 -0.879093 1.93354 0
M  V30 81 H 9.3275 -0.448425 0.835236 0
M  V30 82 H 9.0335 -2.1611 2.77469 0
M  V30 83 H 8.9075 -3.43007 1.56927 0
M  V30 84 H 11.2945 -2.85023 0.764569 0
M  V30 85 H 11.3755 -1.58992 2.00387 0
M  V30 86 H 11.0195 -3.36699 3.80258 0
M  V30 87 H 10.9495 -4.61609 2.53425 0
M  V30 88 H 13.4405 -3.09944 2.16201 0
M  V30 89 H 13.7535 -5.95981 4.91962 0
M  V30 90 H 12.0985 -5.36424 4.41899 0
M  V30 91 H 15.2895 -3.79042 2.74672 0
M  V30 92 H 15.4625 -5.09491 4.00404 0
M  V30 93 N 8.8686 -0.792821 -1.36206 0
M  V30 94 C 9.8006 -0.151469 -2.28699 0
M  V30 95 C 10.8136 0.641262 -1.49638 0
M  V30 96 O 12.0026 0.475885 -1.72039 0
M  V30 97 C 9.1026 0.808424 -3.29117 0
M  V30 98 C 8.2756 0.0650202 -4.37352 0
M  V30 99 C 7.3346 0.941358 -5.17711 0
M  V30 100 O 6.3606 0.397352 -5.67811 0
M  V30 101 N 7.5626 2.2652 -5.3448 0
M  V30 102 H 10.3276 -0.945982 -2.84379 0
M  V30 103 H 7.8886 -0.647032 -1.48409 0
M  V30 104 H 9.8806 1.3986 -3.79765 0
M  V30 105 H 8.4506 1.5038 -2.74052 0
M  V30 106 H 7.6706 -0.706255 -3.87822 0
M  V30 107 H 8.9586 -0.447847 -5.06825 0
M  V30 108 H 8.3566 2.73128 -4.95396 0
M  V30 109 H 6.9136 2.80493 -5.88359 0
M  V30 110 N 10.3467 1.47872 -0.545128 0
M  V30 111 C 11.5937 2.02493 -0.0165858 0
M  V30 112 C 11.9217 1.42073 1.32836 0
M  V30 113 O 11.1767 0.561459 1.87473 0
M  V30 114 C 11.4757 3.57131 0.13867 0
M  V30 115 C 11.1417 4.36411 -1.13384 0
M  V30 116 C 9.8037 4.57792 -1.48256 0
M  V30 117 C 12.1557 4.82223 -1.97764 0
M  V30 118 C 9.4837 5.22233 -2.67376 0
M  V30 119 C 11.8357 5.47977 -3.16076 0
M  V30 120 C 10.4997 5.67593 -3.51275 0
M  V30 121 H 9.7697 0.740975 -0.00606918 0
M  V30 122 H 12.4167 1.77683 -0.714207 0
M  V30 123 H 10.7217 3.80865 0.919172 0
M  V30 124 H 12.4187 3.97031 0.562782 0
M  V30 125 H 9.0087 4.2004 -0.852297 0
M  V30 126 H 13.1927 4.65493 -1.72132 0
M  V30 127 H 8.4487 5.35616 -2.94831 0
M  V30 128 H 12.6227 5.8244 -3.81755 0
M  V30 129 H 10.2497 6.17298 -4.43675 0
M  V30 130 N 11.8248 0.280983 1.55075 0
M  V30 131 C 13.0528 -0.337293 2.04132 0
M  V30 132 C 13.4678 -1.4903 1.15912 0
M  V30 133 O 12.8248 -1.81606 0.180459 0
M  V30 134 C 12.8758 -0.812706 3.52246 0
M  V30 135 O 12.5968 0.294387 4.3711 0
M  V30 136 C 14.0978 -1.4982 4.17216 0
M  V30 137 H 11.3178 -0.0761638 0.666663 0
M  V30 138 H 13.8618 0.414787 2.00249 0
M  V30 139 H 12.0168 -1.51486 3.56554 0
M  V30 140 H 12.4308 -0.0721325 5.2445 0
M  V30 141 H 13.9048 -1.7822 5.22438 0
M  V30 142 H 14.3818 -2.43168 3.65741 0
M  V30 143 H 14.9878 -0.839742 4.16927 0
M  V30 144 N 13.3029 -1.57598 0.00835791 0
M  V30 145 C 14.5279 -1.95617 -0.689103 0
M  V30 146 C 14.9529 -0.883753 -1.66046 0
M  V30 147 O 14.3109 0.157352 -1.80616 0
M  V30 148 C 14.3589 -3.32736 -1.38994 0
M  V30 149 O 13.4629 -3.27631 -2.50463 0
M  V30 150 H 12.8039 -0.638379 -0.182668 0
M  V30 151 H 15.3339 -2.045 0.064036 0
M  V30 152 H 15.3439 -3.68494 -1.75147 0
M  V30 153 H 14.0189 -4.1034 -0.677778 0
M  V30 154 H 12.5959 -3.03561 -2.16576 0
M  V30 155 N 14.781 0.264519 -1.55364 0
M  V30 156 C 16.006 1.01726 -1.80739 0
M  V30 157 C 16.431 1.78836 -0.583044 0
M  V30 158 O 15.789 1.75167 0.467566 0
M  V30 159 C 15.837 1.94482 -3.03659 0
M  V30 160 O 14.941 3.03386 -2.7934 0
M  V30 161 H 14.282 0.290395 -0.597132 0
M  V30 162 H 16.812 0.290854 -2.02522 0
M  V30 163 H 16.822 2.36278 -3.32621 0
M  V30 164 H 15.497 1.37772 -3.92418 0
M  V30 165 H 14.074 2.65844 -2.61498 0
M  V30 166 N 16.2591 1.48442 0.529413 0
M  V30 167 C 17.4841 1.60406 1.31471 0
M  V30 168 C 17.9091 0.264738 1.86228 0
M  V30 169 O 17.2671 -0.763668 1.64432 0
M  V30 170 C 17.3151 2.65419 2.44101 0
M  V30 171 O 16.4191 2.22618 3.47153 0
M  V30 172 H 15.7601 0.537863 0.389357 0
M  V30 173 H 18.2901 1.94432 0.636965 0
M  V30 174 H 18.3001 2.86709 2.90279 0
M  V30 175 H 16.9751 3.62652 2.03608 0
M  V30 176 H 15.5521 2.11543 3.0709 0
M  V30 177 N 17.7372 -0.778329 1.37039 0
M  V30 178 C 18.9622 -1.57248 1.35233 0
M  V30 179 C 19.3872 -1.87999 -0.0615568 0
M  V30 180 O 18.7452 -1.48734 -1.03672 0
M  V30 181 C 18.7932 -2.86353 2.19167 0
M  V30 182 O 17.8972 -3.80442 1.59178 0
M  V30 183 H 17.2382 -0.476569 0.462362 0
M  V30 184 H 19.7682 -0.963853 1.80474 0
M  V30 185 H 19.7782 -3.35519 2.32145 0
M  V30 186 H 18.4532 -2.63299 3.21942 0
M  V30 187 H 17.0302 -3.39067 1.55203 0
M  V30 188 N 19.2153 -1.21501 -1.00376 0
M  V30 189 C 20.1483 -0.918669 -2.08892 0
M  V30 190 C 21.1263 0.134277 -1.62045 0
M  V30 191 O 22.3103 0.00504255 -1.88499 0
M  V30 192 C 19.4373 -0.379645 -3.36566 0
M  V30 193 C 18.4833 -1.41559 -4.02323 0
M  V30 194 S 19.3163 -2.98521 -4.44574 0
M  V30 195 C 20.4723 -2.46228 -5.75433 0
M  V30 196 H 20.7053 -1.83761 -2.33707 0
M  V30 197 H 18.2383 -1.04489 -1.13673 0
M  V30 198 H 20.1963 -0.0752195 -4.10431 0
M  V30 199 H 18.8573 0.518008 -3.09799 0
M  V30 200 H 18.0503 -0.988076 -4.9422 0
M  V30 201 H 17.6523 -1.66815 -3.34737 0
M  V30 202 H 19.9443 -1.86791 -6.51241 0
M  V30 203 H 20.8873 -3.36572 -6.22997 0
M  V30 204 H 21.2953 -1.87894 -5.32312 0
M  V30 205 N 20.6934 1.19889 -1.02296 0
M  V30 206 C 21.6404 2.22901 -0.598651 0
M  V30 207 C 22.6104 1.61588 0.384521 0
M  V30 208 O 23.7954 1.88697 0.282522 0
M  V30 209 C 20.9354 3.45063 0.0504476 0
M  V30 210 C 20.0484 4.20783 -0.978053 0
M  V30 211 C 19.1834 5.30356 -0.299338 0
M  V30 212 C 18.2224 5.97826 -1.31416 0
M  V30 213 N 17.3594 6.98975 -0.661667 0
M  V30 214 H 22.1994 2.58554 -1.48169 0
M  V30 215 H 19.7364 1.27039 -0.741584 0
M  V30 216 H 21.6944 4.14831 0.443971 0
M  V30 217 H 20.3244 3.10084 0.897097 0
M  V30 218 H 19.3764 3.50018 -1.48969 0
M  V30 219 H 20.6884 4.67109 -1.74958 0
M  V30 220 H 19.8424 6.06516 0.149347 0
M  V30 221 H 18.5814 4.85084 0.504445 0
M  V30 222 H 17.5864 5.20422 -1.77317 0
M  V30 223 H 18.8114 6.45183 -2.11933 0
M  V30 224 H 16.7574 6.55886 0.122132 0
M  V30 225 H 16.6744 7.43461 -1.37117 0
M  V30 226 H 17.9424 7.7914 -0.236785 0
M  V30 227 N 22.1715 0.800033 1.35784 0
M  V30 228 C 23.4195 0.376597 1.9856 0
M  V30 229 C 23.7405 -1.05812 1.63795 0
M  V30 230 O 23.0105 -1.73103 0.917171 0
M  V30 231 H 21.5905 0.136261 0.734467 0
M  V30 232 H 24.2525 1.02442 1.65806 0
M  V30 233 H 23.3485 0.477002 3.08433 0
M  V30 234 N 23.6496 -1.47581 0.552962 0
M  V30 235 C 24.8746 -2.07378 0.0300593 0
M  V30 236 C 25.2996 -1.40355 -1.25229 0
M  V30 237 O 24.6576 -0.477099 -1.7491 0
M  V30 238 C 24.7056 -3.60274 -0.153231 0
M  V30 239 O 23.8096 -3.94041 -1.21678 0
M  V30 240 H 23.1506 -0.662158 0.0494182 0
M  V30 241 H 25.6806 -1.89662 0.767434 0
M  V30 242 H 25.6906 -4.0633 -0.368761 0
M  V30 243 H 24.3656 -4.08455 0.783397 0
M  V30 244 H 22.9426 -3.59735 -0.982079 0
M  V30 245 N 25.1277 -0.289203 -1.54924 0
M  V30 246 C 26.3677 0.324536 -2.01807 0
M  V30 247 C 26.7317 1.5199 -1.17316 0
M  V30 248 O 27.9327 2.20422 -1.53843 0
M  V30 249 C 26.2037 0.683578 -3.50802 0
M  V30 250 S 27.7627 1.28185 -4.19659 0
M  V30 251 H 24.5807 0.100236 -0.703899 0
M  V30 252 H 27.1827 -0.414325 -1.91059 0
M  V30 253 H 25.8867 -0.195073 -4.09936 0
M  V30 254 H 25.4177 1.45354 -3.65562 0
M  V30 255 H 27.4327 2.57006 -4.24456 0
M  V30 256 N 26.6058 1.57591 -0.0167156 0
M  V30 257 C 27.8538 1.90906 0.663285 0
M  V30 258 C 28.1748 0.892509 1.73376 0
M  V30 259 O 27.4448 -0.0677623 1.95783 0
M  V30 260 H 26.0248 0.704637 0.247983 0
M  V30 261 H 28.6868 1.94803 -0.0615909 0
M  V30 262 H 27.7828 2.9116 1.12393 0
M  V30 263 N 28.0839 -0.256276 1.55502 0
M  V30 264 C 29.3329 -0.983486 1.76098 0
M  V30 265 C 29.6459 -1.86837 0.578896 0
M  V30 266 O 30.8519 -2.63163 0.667648 0
M  V30 267 C 29.3079 -1.79868 3.1173 0
M  V30 268 C 28.9159 -0.961648 4.37557 0
M  V30 269 C 30.6599 -2.51919 3.41668 0
M  V30 270 C 28.5669 -1.77219 5.64223 0
M  V30 271 H 27.4969 -0.370936 0.656447 0
M  V30 272 H 30.1479 -0.238492 1.81944 0
M  V30 273 H 28.5299 -2.58527 2.99966 0
M  V30 274 H 29.7039 -0.218048 4.60284 0
M  V30 275 H 28.0189 -0.354913 4.14885 0
M  V30 276 H 30.6159 -3.12998 4.33516 0
M  V30 277 H 30.9589 -3.23059 2.62562 0
M  V30 278 H 31.4919 -1.80278 3.54605 0
M  V30 279 H 28.2309 -1.10471 6.46124 0
M  V30 280 H 27.7509 -2.49132 5.45613 0
M  V30 281 H 29.4299 -2.34169 6.03137 0
M  V30 282 N 29.562 -1.4872 -0.521534 0
M  V30 283 C 30.81 -1.56857 -1.27437 0
M  V30 284 C 31.131 -0.247982 -1.93417 0
M  V30 285 O 30.401 0.731151 -1.81744 0
M  V30 286 H 28.981 -0.577885 -0.473347 0
M  V30 287 H 31.643 -1.85233 -0.606205 0
M  V30 288 H 30.739 -2.35402 -2.0492 0
M  V30 289 N 31.0401 0.771051 -1.3745 0
M  V30 290 C 32.2881 1.52661 -1.32435 0
M  V30 291 C 32.6091 1.9479 0.0905024 0
M  V30 292 O 31.8791 1.66348 1.03466 0
M  V30 293 H 30.4591 0.566218 -0.487244 0
M  V30 294 H 33.1211 0.917636 -1.71946 0
M  V30 295 H 32.2171 2.42568 -1.96385 0
M  V30 296 N 32.5182 1.22032 0.997298 0
M  V30 297 C 33.7662 1.04016 1.73278 0
M  V30 298 C 34.0872 -0.426255 1.90284 0
M  V30 299 O 33.3572 -1.30694 1.45931 0
M  V30 300 H 31.9372 0.381897 0.642 0
M  V30 301 H 34.5992 1.5347 1.20137 0
M  V30 302 H 33.6952 1.51441 2.72896 0
M  V30 303 N 33.9963 -1.19345 1.0293 0
M  V30 304 C 35.2453 -1.88363 0.721256 0
M  V30 305 C 35.5583 -1.80514 -0.753254 0
M  V30 306 O 36.7643 -2.44788 -1.17436 0
M  V30 307 C 35.2203 -3.37872 1.23978 0
M  V30 308 C 34.8283 -3.54278 2.74211 0
M  V30 309 C 36.5723 -4.12365 1.00775 0
M  V30 310 C 34.4793 -4.97682 3.19479 0
M  V30 311 H 33.4093 -0.705484 0.266098 0
M  V30 312 H 36.0603 -1.34928 1.24365 0
M  V30 313 H 34.4423 -3.90707 0.6453 0
M  V30 314 H 35.6163 -3.11769 3.39318 0
M  V30 315 H 33.9313 -2.93174 2.95699 0
M  V30 316 H 36.5283 -5.18119 1.32123 0
M  V30 317 H 36.8713 -4.16263 -0.0554308 0
M  V30 318 H 37.4043 -3.65668 1.56625 0
M  V30 319 H 34.1433 -4.98945 4.25128 0
M  V30 320 H 33.6633 -5.4095 2.591 0
M  V30 321 H 35.3423 -5.66337 3.12845 0
M  V30 322 N 35.4744 -0.807222 -1.35358 0
M  V30 323 C 36.7224 -0.387122 -1.98358 0
M  V30 324 C 37.0434 1.04942 -1.64354 0
M  V30 325 O 36.3134 1.72615 -0.926339 0
M  V30 326 H 34.8934 -0.140154 -0.733734 0
M  V30 327 H 37.5554 -1.0332 -1.6526 0
M  V30 328 H 36.6514 -0.493352 -3.08176 0
M  V30 329 N 36.9525 1.47285 -0.560781 0
M  V30 330 C 38.2005 2.02064 -0.0379868 0
M  V30 331 C 38.5215 1.43711 1.31803 0
M  V30 332 O 37.7915 0.61362 1.86042 0
M  V30 333 H 36.3715 0.746918 -0.0110531 0
M  V30 334 H 39.0335 1.80648 -0.731598 0
M  V30 335 H 38.1295 3.12064 0.0474463 0
M  V30 336 N 38.4306 0.297415 1.54768 0
M  V30 337 C 39.6786 -0.312295 1.99673 0
M  V30 338 C 39.9996 -1.54686 1.18732 0
M  V30 339 O 39.2696 -1.93854 0.282382 0
M  V30 340 H 37.8496 -0.118381 0.73756 0
M  V30 341 H 40.5116 0.407915 1.90583 0
M  V30 342 H 39.6076 -0.586813 3.06534 0
M  V30 343 N 39.9087 -1.5758 0.0250728 0
M  V30 344 C 41.1337 -1.96337 -0.668317 0
M  V30 345 C 41.5587 -0.901314 -1.651 0
M  V30 346 O 40.9167 0.138187 -1.80773 0
M  V30 347 C 40.9647 -3.34191 -1.35457 0
M  V30 348 O 40.0687 -3.30269 -2.46974 0
M  V30 349 H 39.4097 -0.640281 -0.175887 0
M  V30 350 H 41.9397 -2.0442 0.0857224 0
M  V30 351 H 41.9497 -3.70331 -1.71228 0
M  V30 352 H 40.6247 -4.11036 -0.634218 0
M  V30 353 H 39.2017 -3.05841 -2.13344 0
M  V30 354 N 41.3868 0.248026 -1.55636 0
M  V30 355 C 42.6118 0.998028 -1.81808 0
M  V30 356 C 43.0368 1.78207 -0.601979 0
M  V30 357 O 42.3948 1.75653 0.448961 0
M  V30 358 C 42.4428 1.9125 -3.05705 0
M  V30 359 O 41.5468 3.00406 -2.82542 0
M  V30 360 H 40.8878 0.284045 -0.600179 0
M  V30 361 H 43.4178 0.269357 -2.02819 0
M  V30 362 H 43.4278 2.32737 -3.35108 0
M  V30 363 H 42.1028 1.33602 -3.93857 0
M  V30 364 H 40.6798 2.63056 -2.64303 0
M  V30 365 N 42.8649 1.48995 0.513639 0
M  V30 366 C 44.2809 1.35478 0.843682 0
M  V30 367 C 44.4809 0.378213 1.97919 0
M  V30 368 O 43.5369 -0.194689 2.51748 0
M  V30 369 C 44.8499 2.75901 1.1958 0
M  V30 370 C 46.3979 2.84509 1.30474 0
M  V30 371 C 46.8729 4.25671 1.69021 0
M  V30 372 N 48.3639 4.28422 1.76094 0
M  V30 373 C 49.0989 5.34601 2.07338 0
M  V30 374 N 48.5949 6.5104 2.36894 0
M  V30 375 N 50.3879 5.22007 2.08483 0
M  V30 376 H 42.5389 2.11092 -0.235328 0
M  V30 377 H 44.8019 0.947039 -0.0426669 0
M  V30 378 H 44.5079 3.49001 0.434913 0
M  V30 379 H 44.3819 3.10467 2.1422 0
M  V30 380 H 46.7689 2.11655 2.05637 0
M  V30 381 H 46.8499 2.53542 0.339155 0
M  V30 382 H 46.4939 4.99048 0.944135 0
M  V30 383 H 46.4239 4.54094 2.66658 0
M  V30 384 H 48.9149 3.44441 1.55464 0
M  V30 385 H 49.2279 7.2779 2.59887 0
M  V30 386 H 47.5729 6.54287 2.34378 0
M  V30 387 H 50.7639 4.30051 1.84861 0
M  V30 388 H 50.9369 6.04854 2.325 0
M  V30 389 N 44.343 -0.763751 1.37857 0
M  V30 390 C 45.592 -1.51789 1.32827 0
M  V30 391 C 45.905 -1.95426 -0.0823719 0
M  V30 392 O 47.111 -2.70298 -0.255172 0
M  V30 393 C 45.567 -2.74133 2.33193 0
M  V30 394 C 45.175 -2.37562 3.79827 0
M  V30 395 C 46.919 -3.52054 2.37188 0
M  V30 396 C 44.826 -3.56456 4.71904 0
M  V30 397 H 43.756 -0.569896 0.493695 0
M  V30 398 H 46.407 -0.835822 1.63359 0
M  V30 399 H 44.789 -3.4427 1.9569 0
M  V30 400 H 45.963 -1.75157 4.26212 0
M  V30 401 H 44.278 -1.72798 3.78853 0
M  V30 402 H 46.875 -4.40437 3.03182 0
M  V30 403 H 47.218 -3.92486 1.38782 0
M  V30 404 H 47.751 -2.88921 2.7344 0
M  V30 405 H 44.49 -3.21099 5.71468 0
M  V30 406 H 44.01 -4.17938 4.30218 0
M  V30 407 H 45.689 -4.23168 4.89426 0
M  V30 408 N 45.8211 -1.22559 -0.990812 0
M  V30 409 C 47.0461 -1.07862 -1.77145 0
M  V30 410 C 47.4711 0.366447 -1.84496 0
M  V30 411 O 46.8291 1.26478 -1.29896 0
M  V30 412 C 46.8771 -1.69686 -3.18181 0
M  V30 413 O 45.9811 -0.951946 -4.01263 0
M  V30 414 H 45.3221 -0.378712 -0.545411 0
M  V30 415 H 47.8521 -1.62399 -1.2445 0
M  V30 416 H 47.8621 -1.74496 -3.68802 0
M  V30 417 H 46.5371 -2.74841 -3.12146 0
M  V30 418 H 45.1141 -0.980011 -3.59792 0
M  V30 419 N 47.2992 1.18797 -1.03562 0
M  V30 420 C 48.5242 1.9314 -0.755764 0
M  V30 421 C 48.9492 1.7537 0.68022 0
M  V30 422 O 48.3072 1.06046 1.47051 0
M  V30 423 C 48.3552 3.42747 -1.12058 0
M  V30 424 O 47.4592 4.11683 -0.243124 0
M  V30 425 H 46.8002 0.602724 -0.278604 0
M  V30 426 H 49.3302 1.50678 -1.3841 0
M  V30 427 H 49.3402 3.93437 -1.08035 0
M  V30 428 H 48.0152 3.55002 -2.16672 0
M  V30 429 H 46.5922 3.71323 -0.342539 0
M  V30 430 N 48.7773 0.814389 1.34928 0
M  V30 431 C 50.0233 0.399013 1.98836 0
M  V30 432 C 50.3563 -1.03314 1.64438 0
M  V30 433 O 49.6313 -1.71811 0.911659 0
M  V30 434 C 49.9143 0.591629 3.55207 0
M  V30 435 C 49.7673 2.06928 3.99376 0
M  V30 436 C 51.0863 0.022199 4.40094 0
M  V30 437 H 48.2053 0.146451 0.722303 0
M  V30 438 H 50.8473 1.02537 1.59957 0
M  V30 439 H 48.9973 0.0584441 3.88456 0
M  V30 440 H 50.6693 2.66544 3.76499 0
M  V30 441 H 48.9123 2.56287 3.49999 0
M  V30 442 H 49.5833 2.1549 5.08201 0
M  V30 443 H 52.0593 0.477643 4.13349 0
M  V30 444 H 50.9353 0.186832 5.48582 0
M  V30 445 H 51.1963 -1.07215 4.28902 0
M  V30 446 N 50.2554 -1.46986 0.568584 0
M  V30 447 C 51.1854 -2.32946 -0.160753 0
M  V30 448 C 52.1664 -1.44487 -0.897631 0
M  V30 449 O 53.3514 -1.73327 -0.875867 0
M  V30 450 C 50.4814 -3.26494 -1.18403 0
M  V30 451 C 49.4354 -4.24282 -0.562895 0
M  V30 452 C 48.7614 -5.07236 -1.69163 0
M  V30 453 C 50.0614 -5.19989 0.490761 0
M  V30 454 H 51.7554 -2.94175 0.556916 0
M  V30 455 H 49.3014 -1.4146 0.26927 0
M  V30 456 H 51.2544 -3.85477 -1.70251 0
M  V30 457 H 49.9784 -2.63343 -1.93179 0
M  V30 458 H 48.6374 -3.66541 -0.0656164 0
M  V30 459 H 48.2854 -4.4048 -2.42871 0
M  V30 460 H 47.9854 -5.7345 -1.28174 0
M  V30 461 H 49.5094 -5.6908 -2.21314 0
M  V30 462 H 50.9234 -5.73271 0.0579047 0
M  V30 463 H 49.3204 -5.94469 0.820165 0
M  V30 464 H 50.3904 -4.64777 1.3824 0
M  V30 465 N 51.7335 -0.305618 -1.54608 0
M  V30 466 C 52.6965 0.555591 -2.22364 0
M  V30 467 C 53.6965 1.05768 -1.21119 0
M  V30 468 O 54.8865 0.952972 -1.45822 0
M  V30 469 C 52.0185 1.76974 -2.91364 0
M  V30 470 H 53.2115 -0.0364572 -2.99878 0
M  V30 471 H 50.7645 -0.0565007 -1.56198 0
M  V30 472 H 51.4995 2.40151 -2.17941 0
M  V30 473 H 51.2845 1.41732 -3.65588 0
M  V30 474 H 52.7745 2.38148 -3.43038 0
M  V30 475 N 53.2116 1.57565 -0.0334293 0
M  V30 476 C 54.4596 1.91598 0.642999 0
M  V30 477 C 54.7806 0.910847 1.7242 0
M  V30 478 O 54.0506 -0.0469931 1.95844 0
M  V30 479 H 52.6306 0.707228 0.240496 0
M  V30 480 H 55.2926 1.94726 -0.0822488 0
M  V30 481 H 54.3886 2.92336 1.09298 0
M  V30 482 N 54.6897 -0.239769 1.55765 0
M  V30 483 C 55.9377 -0.964892 1.77579 0
M  V30 484 C 56.2587 -1.85582 0.598699 0
M  V30 485 O 55.5287 -1.92075 -0.385226 0
M  V30 486 H 54.1087 -0.359265 0.654933 0
M  V30 487 H 56.7707 -0.256001 1.93211 0
M  V30 488 H 55.8667 -1.58243 2.69009 0
M  V30 489 N 56.1678 -1.49265 -0.50573 0
M  V30 490 C 57.3928 -1.62478 -1.28902 0
M  V30 491 C 57.8178 -0.294332 -1.85783 0
M  V30 492 O 57.1758 0.737412 -1.65626 0
M  V30 493 C 57.2238 -2.69268 -2.39848 0
M  V30 494 O 56.3278 -2.28113 -3.43567 0
M  V30 495 H 55.6688 -0.54399 -0.380751 0
M  V30 496 H 58.1988 -1.95421 -0.605952 0
M  V30 497 H 58.2088 -2.91291 -2.85681 0
M  V30 498 H 56.8838 -3.65846 -1.97812 0
M  V30 499 H 55.4608 -2.16401 -3.03685 0
M  V30 500 N 57.6459 0.756429 -1.3826 0
M  V30 501 C 58.8859 1.52833 -1.35725 0
M  V30 502 C 59.2499 1.91926 0.0534106 0
M  V30 503 O 60.4509 2.68028 0.203613 0
M  V30 504 C 58.7219 2.74919 -2.28373 0
M  V30 505 S 60.2809 3.64817 -2.43832 0
M  V30 506 H 57.0989 0.523043 -0.481608 0
M  V30 507 H 59.7009 0.888212 -1.74158 0
M  V30 508 H 58.4049 2.44304 -3.29763 0
M  V30 509 H 57.9359 3.43878 -1.91079 0
M  V30 510 H 59.9509 4.676 -1.66027 0
M  V30 511 N 59.124 1.23083 0.984299 0
M  V30 512 C 60.54 0.992637 1.24975 0
M  V30 513 C 60.74 -0.308618 1.99123 0
M  V30 514 O 59.796 -1.02905 2.30579 0
M  V30 515 C 61.109 2.19698 2.05312 0
M  V30 516 C 62.657 2.24147 2.18465 0
M  V30 517 C 63.132 3.44157 3.02192 0
M  V30 518 N 64.623 3.44372 3.09777 0
M  V30 519 C 65.358 4.33886 3.74874 0
M  V30 520 N 64.854 5.3363 4.41827 0
M  V30 521 N 66.647 4.21639 3.71721 0
M  V30 522 H 58.798 2.06731 0.487453 0
M  V30 523 H 61.061 0.906339 0.277944 0
M  V30 524 H 60.767 3.1411 1.58201 0
M  V30 525 H 60.641 2.20465 3.06064 0
M  V30 526 H 63.028 1.30277 2.64786 0
M  V30 527 H 63.109 2.27415 1.17115 0
M  V30 528 H 62.753 4.38332 2.56568 0
M  V30 529 H 62.683 3.3813 4.03702 0
M  V30 530 H 65.174 2.72201 2.62135 0
M  V30 531 H 65.487 5.98196 4.89266 0
M  V30 532 H 63.832 5.37534 4.40548 0
M  V30 533 H 67.023 3.42962 3.18582 0
M  V30 534 H 67.196 4.91604 4.22173 0
M  V30 535 N 60.6021 -1.18246 1.0419 0
M  V30 536 C 61.5651 -2.20128 0.638452 0
M  V30 537 C 62.5651 -1.57885 -0.304805 0
M  V30 538 O 63.7551 -1.73967 -0.0900369 0
M  V30 539 C 60.8871 -3.4084 -0.0637751 0
M  V30 540 H 62.0801 -2.57336 1.54007 0
M  V30 541 H 59.6331 -1.32152 0.834598 0
M  V30 542 H 60.3681 -3.09166 -0.979136 0
M  V30 543 H 60.1531 -3.8726 0.614198 0
M  V30 544 H 61.6431 -4.16274 -0.332512 0
M  V30 545 N 62.0802 -0.821533 -1.34494 0
M  V30 546 C 63.4912 -0.467956 -1.8074 0
M  V30 547 C 63.8422 1.01151 -1.68116 0
M  V30 548 O 62.9672 1.78707 -1.22036 0
M  V30 549 C 63.5622 -0.842627 -3.28154 0
M  V30 550 C 62.1212 -0.541439 -3.72485 0
M  V30 551 C 61.2682 -1.06028 -2.56229 0
M  V30 552 H 64.2192 -1.01183 -1.22261 0
M  V30 553 H 64.2402 -0.145876 -3.8022 0
M  V30 554 H 63.7522 -1.91945 -3.37311 0
M  V30 555 H 61.8532 0.526034 -3.68868 0
M  V30 556 H 61.9662 -1.08453 -4.66663 0
M  V30 557 H 60.3302 -0.481892 -2.501 0
M  V30 558 H 61.1132 -2.14352 -2.68157 0
M  V30 559 N 63.5583 1.46682 -0.576371 0
M  V30 560 C 64.7833 2.07304 -0.0630475 0
M  V30 561 C 65.2083 1.42329 1.2298 0
M  V30 562 O 64.5663 0.504865 1.74129 0
M  V30 563 C 64.6143 3.60472 0.095895 0
M  V30 564 O 63.7183 3.95927 1.15394 0
M  V30 565 H 63.0593 0.661288 -0.0599463 0
M  V30 566 H 65.5893 1.88417 -0.797511 0
M  V30 567 H 65.5993 4.06865 0.304071 0
M  V30 568 H 64.2743 4.07157 -0.84828 0
M  V30 569 H 62.8513 3.61252 0.924724 0
M  V30 570 N 65.0364 0.313813 1.54444 0
M  V30 571 C 66.2644 -0.293918 2.04802 0
M  V30 572 C 66.6794 -1.46537 1.19047 0
M  V30 573 O 66.0364 -1.81182 0.218939 0
M  V30 574 C 66.0874 -0.737806 3.53891 0
M  V30 575 O 65.8084 0.387038 4.36387 0
M  V30 576 C 67.3094 -1.40936 4.203 0
M  V30 577 H 64.5294 -0.0620057 0.668129 0
M  V30 578 H 67.0734 0.457169 1.99324 0
M  V30 579 H 65.2284 -1.43889 3.59687 0
M  V30 580 H 65.6424 0.0391274 5.24485 0
M  V30 581 H 67.1164 -1.67099 5.26101 0
M  V30 582 H 67.5934 -2.35355 3.70816 0
M  V30 583 H 68.1994 -0.751117 4.18615 0
M  V30 584 N 66.5145 -1.57545 0.0417849 0
M  V30 585 C 67.7445 -1.96339 -0.642995 0
M  V30 586 C 68.1525 -0.917536 -1.65463 0
M  V30 587 O 67.4955 0.107747 -1.83384 0
M  V30 588 C 67.5575 -3.31333 -1.39494 0
M  V30 589 C 67.2215 -4.53796 -0.540204 0
M  V30 590 C 68.2185 -5.19553 0.189806 0
M  V30 591 C 65.9035 -5.0006 -0.473886 0
M  V30 592 C 67.8975 -6.29904 0.974674 0
M  V30 593 C 65.5845 -6.10289 0.314677 0
M  V30 594 C 66.5825 -6.75072 1.03765 0
M  V30 595 O 66.2705 -7.83183 1.81327 0
M  V30 596 H 66.0025 -0.651241 -0.181277 0
M  V30 597 H 68.5565 -2.05148 0.101665 0
M  V30 598 H 66.7865 -3.19052 -2.18502 0
M  V30 599 H 68.4755 -3.54942 -1.96904 0
M  V30 600 H 69.2415 -4.84774 0.147981 0
M  V30 601 H 65.1205 -4.49433 -1.0262 0
M  V30 602 H 68.6645 -6.80401 1.5395 0
M  V30 603 H 64.5615 -6.44506 0.358174 0
M  V30 604 H 65.3295 -7.99913 1.73438 0
M  V30 605 N 67.9926 0.231505 -1.5589 0
M  V30 606 C 69.2406 0.955461 -1.78088 0
M  V30 607 C 69.5616 1.85262 -0.608533 0
M  V30 608 O 68.8316 1.92277 0.375035 0
M  V30 609 H 67.4116 0.355787 -0.656829 0
M  V30 610 H 70.0736 0.245751 -1.93344 0
M  V30 611 H 69.1696 1.56814 -2.69844 0
M  V30 612 N 69.4707 1.49531 0.497807 0
M  V30 613 C 70.7187 1.58865 1.24926 0
M  V30 614 C 71.0397 0.278721 1.92998 0
M  V30 615 O 70.3097 -0.702144 1.82885 0
M  V30 616 H 68.8897 0.585343 0.464094 0
M  V30 617 H 71.5517 1.86174 0.57666 0
M  V30 618 H 70.6477 2.38633 2.01149 0
M  V30 619 N 70.9488 -0.749086 1.3866 0
M  V30 620 C 72.1968 -1.50535 1.34847 0
M  V30 621 C 72.5178 -1.94909 -0.0595016 0
M  V30 622 O 71.7878 -1.67973 -1.00806 0
M  V30 623 H 70.3678 -0.558395 0.49619 0
M  V30 624 H 73.0298 -0.890165 1.73384 0
M  V30 625 H 72.1258 -2.39413 2.00219 0
M  V30 626 N 72.4269 -1.23603 -0.977757 0
M  V30 627 C 73.3569 -1.04401 -2.0886 0
M  V30 628 C 74.3379 0.0399052 -1.70053 0
M  V30 629 O 75.5229 -0.125246 -1.93796 0
M  V30 630 C 72.6529 -0.637269 -3.41403 0
M  V30 631 C 71.6069 -1.66883 -3.94124 0
M  V30 632 C 70.9329 -1.11745 -5.22893 0
M  V30 633 C 72.2329 -3.06247 -4.23096 0
M  V30 634 H 73.9269 -1.97316 -2.25182 0
M  V30 635 H 71.4729 -0.950096 -1.08209 0
M  V30 636 H 73.4259 -0.48998 -4.18542 0
M  V30 637 H 72.1499 0.327557 -3.24953 0
M  V30 638 H 70.8089 -1.80416 -3.19133 0
M  V30 639 H 70.4569 -0.143527 -5.02795 0
M  V30 640 H 70.1569 -1.80672 -5.59134 0
M  V30 641 H 71.6809 -0.982067 -6.02651 0
M  V30 642 H 73.0949 -2.96001 -4.90975 0
M  V30 643 H 71.4919 -3.72436 -4.70544 0
M  V30 644 H 72.5619 -3.55041 -3.30263 0
M  V30 645 N 73.905 1.17692 -1.04816 0
M  V30 646 C 75.13 1.92327 -0.776207 0
M  V30 647 C 75.555 1.76082 0.661581 0
M  V30 648 O 74.913 1.076 1.45917 0
M  V30 649 C 74.961 3.41539 -1.15687 0
M  V30 650 O 74.065 4.11402 -0.286775 0
M  V30 651 H 73.406 0.599735 -0.284981 0
M  V30 652 H 75.936 1.49201 -1.4 0
M  V30 653 H 75.946 3.92269 -1.12202 0
M  V30 654 H 74.621 3.52684 -2.20425 0
M  V30 655 H 73.198 3.70939 -0.381903 0
M  V30 656 N 75.3831 0.828654 1.34056 0
M  V30 657 C 76.6291 0.42008 1.98402 0
M  V30 658 C 76.9621 -1.01564 1.65525 0
M  V30 659 O 76.2371 -1.70834 0.929831 0
M  V30 660 C 76.5201 0.62927 3.54559 0
M  V30 661 C 76.3731 2.11152 3.97159 0
M  V30 662 C 77.6921 0.0688756 4.40046 0
M  V30 663 H 74.8111 0.154104 0.720709 0
M  V30 664 H 77.4531 1.04228 1.5886 0
M  V30 665 H 75.6031 0.0996418 3.88372 0
M  V30 666 H 77.2751 2.70522 3.73651 0
M  V30 667 H 75.5181 2.59985 3.47261 0
M  V30 668 H 76.1891 2.20868 5.05887 0
M  V30 669 H 78.6651 0.521458 4.1282 0
M  V30 670 H 77.5411 0.245006 5.48353 0
M  V30 671 H 77.8021 -1.0266 4.30015 0
M  V30 672 N 76.8612 -1.46375 0.584142 0
M  V30 673 C 78.0862 -2.07268 0.0740405 0
M  V30 674 C 78.5112 -1.42979 -1.22223 0
M  V30 675 O 77.8692 -0.514092 -1.73859 0
M  V30 676 C 77.9172 -3.60518 -0.0767769 0
M  V30 677 O 77.0212 -3.96533 -1.13292 0
M  V30 678 H 76.3622 -0.660961 0.0634524 0
M  V30 679 H 78.8922 -1.87991 0.807492 0
M  V30 680 H 78.9022 -4.07021 -0.282489 0
M  V30 681 H 77.5772 -4.06702 0.86986 0
M  V30 682 H 76.1542 -3.61738 -0.905553 0
M  V30 683 N 78.3393 -0.321999 -1.54275 0
M  V30 684 C 79.5643 0.285791 -2.05422 0
M  V30 685 C 79.9893 1.45124 -1.19669 0
M  V30 686 O 79.3473 1.80132 -0.205441 0
M  V30 687 C 79.3953 0.69956 -3.53749 0
M  V30 688 O 78.4993 1.8021 -3.70942 0
M  V30 689 H 77.8403 0.0518962 -0.661969 0
M  V30 690 H 80.3703 -0.469954 -1.9913 0
M  V30 691 H 80.3803 0.982649 -3.9599 0
M  V30 692 H 79.0553 -0.152864 -4.15619 0
M  V30 693 H 77.6323 1.51794 -3.40607 0
M  V30 694 N 79.8174 1.5752 -0.0501392 0
M  V30 695 C 81.2334 1.56631 0.306402 0
M  V30 696 C 81.4334 1.0577 1.71508 0
M  V30 697 O 80.4894 0.713837 2.422 0
M  V30 698 C 81.8024 3.00393 0.135811 0
M  V30 699 C 83.3504 3.12315 0.206993 0
M  V30 700 C 83.8254 4.57954 0.064944 0
M  V30 701 N 85.3164 4.63041 0.121254 0
M  V30 702 C 86.0514 5.73389 0.0354381 0
M  V30 703 N 85.5474 6.92724 -0.102666 0
M  V30 704 N 87.3404 5.62026 0.090946 0
M  V30 705 H 79.4914 1.88903 -0.971046 0
M  V30 706 H 81.7544 0.869876 -0.376855 0
M  V30 707 H 81.4604 3.41635 -0.835384 0
M  V30 708 H 81.3344 3.66373 0.897275 0
M  V30 709 H 83.7214 2.70973 1.16866 0
M  V30 710 H 83.8024 2.49016 -0.585208 0
M  V30 711 H 83.4464 4.99981 -0.893394 0
M  V30 712 H 83.3764 5.19258 0.876277 0
M  V30 713 H 85.8674 3.77216 0.227284 0
M  V30 714 H 86.1804 7.72633 -0.160882 0
M  V30 715 H 84.5254 6.94864 -0.137737 0
M  V30 716 H 87.7164 4.67684 0.197388 0
M  V30 717 H 87.8894 6.47997 0.0206089 0
M  V30 718 N 81.2955 -0.223234 1.56011 0
M  V30 719 C 82.5425 -0.947875 1.78946 0
M  V30 720 C 82.8705 -1.844 0.618608 0
M  V30 721 O 82.1255 -1.91629 -0.397093 0
M  V30 722 C 82.4245 -1.81948 3.0762 0
M  V30 723 C 82.0905 -1.07672 4.37856 0
M  V30 724 C 80.7525 -0.871544 4.73242 0
M  V30 725 C 83.1045 -0.552081 5.18268 0
M  V30 726 C 80.4325 -0.129791 5.86556 0
M  V30 727 C 82.7845 0.17632 6.32354 0
M  V30 728 C 81.4485 0.39277 6.66343 0
M  V30 729 H 80.7185 -0.346852 0.654809 0
M  V30 730 H 83.3655 -0.216171 1.90276 0
M  V30 731 H 81.6705 -2.61899 2.91404 0
M  V30 732 H 83.3675 -2.38227 3.22566 0
M  V30 733 H 79.9575 -1.24662 4.1007 0
M  V30 734 H 84.1415 -0.698076 4.91366 0
M  V30 735 H 79.3975 0.048153 6.11381 0
M  V30 736 H 83.5715 0.590367 6.93893 0
M  V30 737 H 81.1985 0.969466 7.53993 0
M  V30 738 N 82.7736 -1.49793 -0.48987 0
M  V30 739 C 83.9986 -1.63836 -1.27172 0
M  V30 740 C 84.4236 -0.31402 -1.8546 0
M  V30 741 O 83.7816 0.719803 -1.66399 0
M  V30 742 C 83.8296 -2.71797 -2.36978 0
M  V30 743 O 82.9336 -2.31744 -3.41128 0
M  V30 744 H 82.2746 -0.547997 -0.37496 0
M  V30 745 H 84.8046 -1.96053 -0.585191 0
M  V30 746 H 84.8146 -2.94305 -2.82575 0
M  V30 747 H 83.4896 -3.67923 -1.93921 0
M  V30 748 H 82.0666 -2.1961 -3.01373 0
M  V30 749 N 84.2517 0.741722 -1.39055 0
M  V30 750 C 85.4767 1.53607 -1.39354 0
M  V30 751 C 85.9017 1.88096 0.0116905 0
M  V30 752 O 85.2597 1.5143 0.996924 0
M  V30 753 C 85.3077 2.80441 -2.26682 0
M  V30 754 O 84.4117 3.76088 -1.69208 0
M  V30 755 H 83.7527 0.464142 -0.474835 0
M  V30 756 H 86.2827 0.915665 -1.82967 0
M  V30 757 H 86.2927 3.29246 -2.40959 0
M  V30 758 H 84.9677 2.5467 -3.2881 0
M  V30 759 H 83.5447 3.34833 -1.64138 0
M  V30 760 N 85.7298 1.2412 0.971189 0
M  V30 761 C 86.9778 1.07668 1.71032 0
M  V30 762 C 87.2988 -0.385797 1.91146 0
M  V30 763 O 86.5688 -1.27569 1.4867 0
M  V30 764 H 85.1488 0.395429 0.633755 0
M  V30 765 H 87.8108 1.55984 1.16855 0
M  V30 766 H 86.9068 1.57195 2.69622 0
M  V30 767 N 87.2079 -1.17134 1.05439 0
M  V30 768 C 88.4559 -1.87085 0.764429 0
M  V30 769 C 88.7769 -1.81584 -0.710787 0
M  V30 770 O 88.0469 -1.24349 -1.51374 0
M  V30 771 H 86.6269 -0.692627 0.279779 0
M  V30 772 H 89.2889 -1.42087 1.33406 0
M  V30 773 H 88.3849 -2.92759 1.0816 0
M  V30 774 N 88.686 -0.835752 -1.33615 0
M  V30 775 C 89.649 -0.272 -2.2758 0
M  V30 776 C 90.649 0.557487 -1.50827 0
M  V30 777 O 91.839 0.37173 -1.70188 0
M  V30 778 C 88.971 0.617173 -3.35267 0
M  V30 779 H 90.164 -1.10111 -2.78954 0
M  V30 780 H 87.717 -0.608594 -1.43965 0
M  V30 781 H 88.452 1.46884 -2.89129 0
M  V30 782 H 88.237 0.0237066 -3.92093 0
M  V30 783 H 89.727 1.005 -4.05326 0
M  V30 784 N 90.1641 1.46063 -0.591896 0
M  V30 785 C 91.4041 2.04228 -0.0838014 0
M  V30 786 C 91.7681 1.45231 1.25587 0
M  V30 787 O 92.9691 1.94653 1.85375 0
M  V30 788 C 91.2401 3.57389 -0.0286282 0
M  V30 789 S 92.7991 4.3678 0.420557 0
M  V30 790 H 89.6171 0.709762 -0.0419319 0
M  V30 791 H 92.2191 1.78983 -0.786465 0
M  V30 792 H 90.9231 3.97843 -1.00743 0
M  V30 793 H 90.4541 3.87185 0.69652 0
M  V30 794 H 92.4691 4.67131 1.67341 0
M  V30 795 N 91.6422 0.330177 1.54103 0
M  V30 796 C 92.8902 -0.269871 2.0029 0
M  V30 797 C 93.2112 -1.52133 1.21986 0
M  V30 798 O 92.4812 -1.93212 0.323438 0
M  V30 799 H 91.0612 -0.10271 0.739905 0
M  V30 800 H 93.7232 0.448249 1.89675 0
M  V30 801 H 92.8192 -0.52166 3.07709 0
M  V30 802 N 93.1203 -1.57491 0.0584922 0
M  V30 803 C 94.0503 -2.14988 -0.911178 0
M  V30 804 C 95.0313 -1.07343 -1.31952 0
M  V30 805 O 96.2163 -1.35318 -1.39294 0
M  V30 806 C 93.3463 -2.70078 -2.18347 0
M  V30 807 C 92.3003 -3.82771 -1.91495 0
M  V30 808 C 91.6263 -4.24408 -3.25241 0
M  V30 809 C 92.9263 -5.07592 -1.23075 0
M  V30 810 H 94.6203 -2.96263 -0.432246 0
M  V30 811 H 92.1663 -1.42512 -0.206469 0
M  V30 812 H 94.1193 -3.08943 -2.86587 0
M  V30 813 H 92.8433 -1.86005 -2.68458 0
M  V30 814 H 91.5023 -3.44389 -1.25664 0
M  V30 815 H 91.1503 -3.37275 -3.73168 0
M  V30 816 H 90.8503 -5.00366 -3.08071 0
M  V30 817 H 92.3743 -4.65879 -3.94701 0
M  V30 818 H 93.7883 -5.43857 -1.81362 0
M  V30 819 H 92.1853 -5.88741 -1.16207 0
M  V30 820 H 93.2553 -4.84454 -0.207847 0
M  V30 821 N 94.5984 0.214957 -1.56127 0
M  V30 822 C 95.8464 0.936518 -1.79091 0
M  V30 823 C 96.1674 1.84606 -0.628148 0
M  V30 824 O 95.4374 1.92664 0.35462 0
M  V30 825 H 94.0174 0.3488 -0.660566 0
M  V30 826 H 96.6794 0.22523 -1.93594 0
M  V30 827 H 95.7754 1.53943 -2.71492 0
M  V30 828 N 96.0765 1.50051 0.48192 0
M  V30 829 C 97.3245 1.60181 1.23234 0
M  V30 830 C 97.6455 0.299176 1.92691 0
M  V30 831 O 96.9155 -0.682708 1.83619 0
M  V30 832 H 95.4955 0.590232 0.457859 0
M  V30 833 H 98.1575 1.86775 0.556881 0
M  V30 834 H 97.2535 2.40753 1.98607 0
M  V30 835 N 97.5546 -0.734337 1.39446 0
M  V30 836 C 98.8026 -1.49096 1.36436 0
M  V30 837 C 99.1236 -1.94961 -0.0388255 0
M  V30 838 O 98.3936 -1.69033 -0.990191 0
M  V30 839 H 96.9736 -0.5531 0.502085 0
M  V30 840 H 99.6356 -0.871725 1.74319 0
M  V30 841 H 98.7316 -2.37276 2.02747 0
M  V30 842 N 99.0327 -1.24633 -0.964593 0
M  V30 843 C 100.263 -1.11339 -1.74032 0
M  V30 844 C 100.671 0.336593 -1.86182 0
M  V30 845 O 100.014 1.24389 -1.35178 0
M  V30 846 C 100.076 -1.68284 -3.1768 0
M  V30 847 C 99.7397 -3.17196 -3.28992 0
M  V30 848 C 100.737 -4.14308 -3.14078 0
M  V30 849 C 98.4217 -3.57215 -3.53133 0
M  V30 850 C 100.416 -5.4942 -3.23135 0
M  V30 851 C 98.1027 -4.92468 -3.61827 0
M  V30 852 C 99.1007 -5.8838 -3.46841 0
M  V30 853 O 98.7887 -7.21173 -3.55197 0
M  V30 854 H 98.5207 -0.389551 -0.552472 0
M  V30 855 H 101.075 -1.65282 -1.21946 0
M  V30 856 H 99.3047 -1.08777 -3.71085 0
M  V30 857 H 100.994 -1.50234 -3.77074 0
M  V30 858 H 101.76 -3.84731 -2.95308 0
M  V30 859 H 97.6387 -2.83063 -3.63863 0
M  V30 860 H 101.183 -6.24263 -3.11355 0
M  V30 861 H 97.0797 -5.21714 -3.80111 0
M  V30 862 H 97.8477 -7.29135 -3.71892 0
M  V30 863 N 100.511 1.16574 -1.06058 0
M  V30 864 C 101.759 1.86677 -0.77434 0
M  V30 865 C 102.08 1.81959 0.701147 0
M  V30 866 O 101.35 1.2515 1.50713 0
M  V30 867 H 99.9298 0.691134 -0.283449 0
M  V30 868 H 102.592 1.41378 -1.34158 0
M  V30 869 H 101.688 2.92181 -1.09711 0
M  V30 870 N 101.989 0.842826 1.3317 0
M  V30 871 C 103.237 0.439577 1.97262 0
M  V30 872 C 103.558 -1.00548 1.67078 0
M  V30 873 O 102.828 -1.70098 0.971779 0
M  V30 874 H 101.408 0.159558 0.72976 0
M  V30 875 H 104.07 1.07665 1.62463 0
M  V30 876 H 103.166 0.574886 3.0676 0
M  V30 877 N 103.467 -1.45747 0.599634 0
M  V30 878 C 104.715 -2.01893 0.0915472 0
M  V30 879 C 105.036 -1.47155 -1.27946 0
M  V30 880 O 104.306 -0.66273 -1.84349 0
M  V30 881 H 102.886 -0.746363 0.0308524 0
M  V30 882 H 105.548 -1.78645 0.779237 0
M  V30 883 H 104.644 -3.1208 0.0353086 0
M  V30 884 N 104.945 -0.338344 -1.53925 0
M  V30 885 C 106.192 0.259758 -2.00827 0
M  V30 886 C 106.52 1.50973 -1.22628 0
M  V30 887 O 105.775 1.93379 -0.300509 0
M  V30 888 C 106.074 0.62448 -3.51902 0
M  V30 889 C 105.74 -0.528006 -4.47798 0
M  V30 890 C 104.402 -0.844298 -4.73735 0
M  V30 891 C 106.754 -1.30143 -5.0469 0
M  V30 892 C 104.082 -1.93648 -5.53821 0
M  V30 893 C 106.434 -2.38382 -5.85967 0
M  V30 894 C 105.098 -2.70576 -6.10201 0
M  V30 895 H 104.368 0.0950523 -0.734878 0
M  V30 896 H 107.015 -0.465182 -1.85764 0
M  V30 897 H 105.32 1.43006 -3.64769 0
M  V30 898 H 107.017 1.09905 -3.85645 0
M  V30 899 H 103.607 -0.271421 -4.2774 0
M  V30 900 H 107.791 -1.07033 -4.84621 0
M  V30 901 H 103.047 -2.19021 -5.70824 0
M  V30 902 H 107.221 -2.98746 -6.29066 0
M  V30 903 H 104.848 -3.55333 -6.72044 0
M  V30 904 N 106.423 1.57458 -0.0668435 0
M  V30 905 C 107.648 1.9804 0.616027 0
M  V30 906 C 108.073 0.944771 1.62652 0
M  V30 907 O 107.431 -0.0902094 1.81075 0
M  V30 908 C 107.479 3.37665 1.26549 0
M  V30 909 O 106.583 3.36701 2.38131 0
M  V30 910 H 105.924 0.644719 0.158849 0
M  V30 911 H 108.454 2.04121 -0.139891 0
M  V30 912 H 108.464 3.7474 1.6135 0
M  V30 913 H 107.139 4.12573 0.525016 0
M  V30 914 H 105.716 3.1139 2.0516 0
M  V30 915 N 107.901 -0.206675 1.56239 0
M  V30 916 C 109.126 -0.949474 1.8439 0
M  V30 917 C 109.551 -1.76549 0.649016 0
M  V30 918 O 108.909 -1.76782 -0.402231 0
M  V30 919 C 108.957 -1.83078 3.10668 0
M  V30 920 O 108.061 -2.9281 2.90407 0
M  V30 921 H 107.402 -0.268033 0.607499 0
M  V30 922 H 109.932 -0.215488 2.03462 0
M  V30 923 H 109.942 -2.2377 3.41161 0
M  V30 924 H 108.617 -1.23112 3.97261 0
M  V30 925 H 107.194 -2.55956 2.71184 0
M  V30 926 N 109.379 -1.50304 -0.473955 0
M  V30 927 C 110.604 -1.65175 -1.25427 0
M  V30 928 C 111.029 -0.333673 -1.85117 0
M  V30 929 O 110.387 0.702114 -1.67153 0
M  V30 930 C 110.435 -2.74295 -2.34082 0
M  V30 931 O 109.539 -2.35349 -3.38651 0
M  V30 932 H 108.88 -0.551944 -0.369126 0
M  V30 933 H 111.41 -1.96662 -0.564364 0
M  V30 934 H 111.42 -2.97285 -2.79438 0
M  V30 935 H 110.095 -3.69959 -1.90008 0
M  V30 936 H 108.672 -2.22794 -2.99027 0
M  V30 937 N 110.857 0.726932 -1.39834 0
M  V30 938 C 112.082 1.52121 -1.40976 0
M  V30 939 C 112.507 1.88098 -0.00826029 0
M  V30 940 O 111.865 1.52479 0.980807 0
M  V30 941 C 111.913 2.78021 -2.29644 0
M  V30 942 O 111.017 3.74272 -1.73188 0
M  V30 943 H 110.358 0.45908 -0.479731 0
M  V30 944 H 112.888 0.896207 -1.83927 0
M  V30 945 H 112.898 3.26671 -2.44438 0
M  V30 946 H 111.573 2.51169 -3.31492 0
M  V30 947 H 110.15 3.33073 -1.6768 0
M  V30 948 N 112.336 1.25143 0.95797 0
M  V30 949 C 113.561 1.12521 1.74223 0
M  V30 950 C 113.986 -0.317402 1.85403 0
M  V30 951 O 113.344 -1.2299 1.33204 0
M  V30 952 C 113.392 1.78062 3.1357 0
M  V30 953 O 112.496 1.058 3.98598 0
M  V30 954 H 111.837 0.39304 0.535178 0
M  V30 955 H 114.367 1.65641 1.201 0
M  V30 956 H 114.377 1.84213 3.64046 0
M  V30 957 H 113.052 2.83021 3.04749 0
M  V30 958 H 111.629 1.07506 3.57067 0
M  V30 959 N 113.814 -1.1601 1.06675 0
M  V30 960 C 115.061 -1.86633 0.785781 0
M  V30 961 C 115.389 -1.81929 -0.687896 0
M  V30 962 O 114.644 -1.23253 -1.52011 0
M  V30 963 C 114.943 -3.35547 1.23057 0
M  V30 964 C 114.609 -3.60448 2.70902 0
M  V30 965 C 113.271 -3.66954 3.11285 0
M  V30 966 C 115.623 -3.7071 3.66365 0
M  V30 967 C 112.951 -3.81225 4.45965 0
M  V30 968 C 115.303 -3.86503 5.00797 0
M  V30 969 C 113.967 -3.91252 5.40813 0
M  V30 970 H 113.237 -0.682937 0.287538 0
M  V30 971 H 115.884 -1.37146 1.33654 0
M  V30 972 H 114.189 -3.87193 0.59907 0
M  V30 973 H 115.886 -3.88583 0.990163 0
M  V30 974 H 112.476 -3.56021 2.38636 0
M  V30 975 H 116.66 -3.64991 3.36296 0
M  V30 976 H 111.916 -3.83155 4.76447 0
M  V30 977 H 116.09 -3.93385 5.74649 0
M  V30 978 H 113.717 -4.02062 6.45174 0
M  V30 979 N 115.292 -0.849877 -1.32721 0
M  V30 980 C 116.54 -0.450032 -1.97026 0
M  V30 981 C 116.861 0.996604 -1.67609 0
M  V30 982 O 116.131 1.6958 -0.980786 0
M  V30 983 H 114.711 -0.163426 -0.728904 0
M  V30 984 H 117.373 -1.08526 -1.6189 0
M  V30 985 H 116.469 -0.591146 -3.0645 0
M  V30 986 N 116.77 1.45427 -0.607355 0
M  V30 987 C 117.995 2.07124 -0.107006 0
M  V30 988 C 118.42 1.44906 1.19933 0
M  V30 989 O 117.778 0.541687 1.73019 0
M  V30 990 C 117.826 3.60595 0.0194119 0
M  V30 991 O 116.93 3.98285 1.0697 0
M  V30 992 H 116.271 0.659868 -0.0739597 0
M  V30 993 H 118.801 1.86683 -0.837297 0
M  V30 994 H 118.811 4.07419 0.2177 0
M  V30 995 H 117.486 4.05266 -0.934453 0
M  V30 996 H 116.063 3.63133 0.847889 0
M  V30 997 N 118.248 0.346503 1.53744 0
M  V30 998 C 119.496 -0.248612 2.00565 0
M  V30 999 C 119.817 -1.5083 1.23593 0
M  V30 1000 O 119.087 -1.92858 0.343912 0
M  V30 1001 H 117.667 -0.0948564 0.740953 0
M  V30 1002 H 120.329 0.468341 1.89189 0
M  V30 1003 H 119.425 -0.488994 3.08245 0
M  V30 1004 N 119.726 -1.57421 0.075193 0
M  V30 1005 C 120.973 -1.93618 -0.593146 0
M  V30 1006 C 121.301 -0.955484 -1.69413 0
M  V30 1007 O 120.556 0.0283251 -1.9568 0
M  V30 1008 C 120.855 -3.36428 -1.20626 0
M  V30 1009 C 120.521 -4.50307 -0.231078 0
M  V30 1010 C 119.183 -4.81186 0.0371936 0
M  V30 1011 C 121.535 -5.19374 0.435888 0
M  V30 1012 C 118.863 -5.78466 0.979461 0
M  V30 1013 C 121.215 -6.17665 1.3665 0
M  V30 1014 C 119.879 -6.46958 1.6432 0
M  V30 1015 H 119.149 -0.708499 -0.217047 0
M  V30 1016 H 121.796 -1.90937 0.146793 0
M  V30 1017 H 120.101 -3.35592 -2.02201 0
M  V30 1018 H 121.798 -3.61727 -1.73073 0
M  V30 1019 H 118.388 -4.26227 -0.450357 0
M  V30 1020 H 122.572 -4.95711 0.241748 0
M  V30 1021 H 117.828 -5.99487 1.20106 0
M  V30 1022 H 122.002 -6.70284 1.88924 0
M  V30 1023 H 119.629 -7.2215 2.37494 0
M  V30 1024 N 121.204 0.198386 -1.56346 0
M  V30 1025 C 122.452 0.91747 -1.80075 0
M  V30 1026 C 122.773 1.83929 -0.647692 0
M  V30 1027 O 122.043 1.93029 0.334166 0
M  V30 1028 H 120.623 0.341774 -0.664228 0
M  V30 1029 H 123.285 0.204684 -1.93822 0
M  V30 1030 H 122.381 1.51055 -2.7311 0
M  V30 1031 N 122.682 1.50554 0.465978 0
M  V30 1032 C 123.93 1.61479 1.21528 0
M  V30 1033 C 124.251 0.319596 1.92363 0
M  V30 1034 O 123.521 -0.663194 1.84333 0
M  V30 1035 H 122.101 0.595055 0.451573 0
M  V30 1036 H 124.763 1.87355 0.53704 0
M  V30 1037 H 123.859 2.42846 1.96042 0
M  V30 1038 N 124.16 -0.719506 1.40217 0
M  V30 1039 C 125.408 -1.47641 1.3801 0
M  V30 1040 C 125.729 -1.94992 -0.018145 0
M  V30 1041 O 124.999 -1.70073 -0.972207 0
M  V30 1042 H 123.579 -0.547744 0.507923 0
M  V30 1043 H 126.241 -0.853187 1.75233 0
M  V30 1044 H 125.337 -2.35112 2.05253 0
M  V30 1045 N 125.638 -1.25649 -0.95132 0
M  V30 1046 C 126.868 -1.13179 -1.72841 0
M  V30 1047 C 127.276 0.316827 -1.86528 0
M  V30 1048 O 126.619 1.22948 -1.3649 0
M  V30 1049 C 126.681 -1.71644 -3.15878 0
M  V30 1050 C 126.345 -3.20667 -3.25609 0
M  V30 1051 C 127.342 -4.17616 -3.09666 0
M  V30 1052 C 125.027 -3.6094 -3.49324 0
M  V30 1053 C 127.021 -5.52817 -3.17289 0
M  V30 1054 C 124.708 -4.96278 -3.56584 0
M  V30 1055 C 125.706 -5.92025 -3.40581 0
M  V30 1056 O 125.394 -7.24899 -3.47528 0
M  V30 1057 H 125.126 -0.395389 -0.54831 0
M  V30 1058 H 127.68 -1.66566 -1.20187 0
M  V30 1059 H 125.91 -1.12707 -3.69911 0
M  V30 1060 H 127.599 -1.54225 -3.75459 0
M  V30 1061 H 128.365 -3.87842 -2.91211 0
M  V30 1062 H 124.244 -2.86907 -3.6084 0
M  V30 1063 H 127.788 -6.2753 -3.04716 0
M  V30 1064 H 123.685 -5.25716 -3.74556 0
M  V30 1065 H 124.453 -7.33039 -3.64138 0
M  V30 1066 N 127.117 1.15442 -1.07289 0
M  V30 1067 C 128.365 1.85845 -0.794096 0
M  V30 1068 C 128.686 1.82692 0.681809 0
M  V30 1069 O 127.956 1.26741 1.49377 0
M  V30 1070 H 126.536 0.688089 -0.290763 0
M  V30 1071 H 129.198 1.39947 -1.3565 0
M  V30 1072 H 128.294 2.91001 -1.12804 0
M  V30 1073 N 128.595 0.856903 1.32268 0
M  V30 1074 C 129.843 0.460474 1.96784 0
M  V30 1075 C 130.164 -0.987701 1.68135 0
M  V30 1076 O 129.434 -1.69058 0.989765 0
M  V30 1077 H 128.014 0.167289 0.728027 0
M  V30 1078 H 130.676 1.09383 1.61312 0
M  V30 1079 H 129.772 0.60739 3.06133 0
M  V30 1080 N 130.073 -1.45103 0.615059 0
M  V30 1081 C 131.321 -2.01784 0.112955 0
M  V30 1082 C 131.642 -1.48504 -1.26378 0
M  V30 1083 O 130.912 -0.682245 -1.83636 0
M  V30 1084 H 129.492 -0.745993 0.0387668 0
M  V30 1085 H 132.154 -1.77808 0.798141 0
M  V30 1086 H 131.25 -3.12025 0.0684069 0
M  V30 1087 N 131.551 -0.354651 -1.53558 0
M  V30 1088 C 132.481 0.489091 -2.2832 0
M  V30 1089 C 133.462 1.09324 -1.30316 0
M  V30 1090 O 134.647 1.11255 -1.59173 0
M  V30 1091 C 131.777 1.63456 -3.0643 0
M  V30 1092 C 130.731 1.1582 -4.12031 0
M  V30 1093 C 130.057 2.39305 -4.7816 0
M  V30 1094 C 131.357 0.250731 -5.21698 0
M  V30 1095 H 133.051 -0.134614 -2.99097 0
M  V30 1096 H 130.597 -0.0661826 -1.43848 0
M  V30 1097 H 132.55 2.23136 -3.57475 0
M  V30 1098 H 131.274 2.28533 -2.33325 0
M  V30 1099 H 129.933 0.584146 -3.61916 0
M  V30 1100 H 129.581 3.02814 -4.01637 0
M  V30 1101 H 129.281 2.08109 -5.49513 0
M  V30 1102 H 130.805 2.99691 -5.31994 0
M  V30 1103 H 132.219 0.754695 -5.68311 0
M  V30 1104 H 130.616 0.0301468 -6.00092 0
M  V30 1105 H 131.686 -0.710125 -4.79672 0
M  V30 1106 N 133.029 1.57378 -0.0835403 0
M  V30 1107 C 134.277 1.93547 0.581718 0
M  V30 1108 C 134.598 0.96524 1.69435 0
M  V30 1109 O 133.868 0.0153369 1.95894 0
M  V30 1110 H 132.448 0.714521 0.217874 0
M  V30 1111 H 135.11 1.94366 -0.144158 0
M  V30 1112 H 134.206 2.95665 0.999423 0
M  V30 1113 N 134.507 -0.190092 1.56449 0
M  V30 1114 C 135.47 -1.21925 1.9408 0
M  V30 1115 C 136.47 -1.38176 0.822431 0
M  V30 1116 O 137.66 -1.35903 1.08977 0
M  V30 1117 C 134.792 -2.58773 2.21922 0
M  V30 1118 H 135.985 -0.897464 2.86157 0
M  V30 1119 H 133.538 -0.43181 1.50217 0
M  V30 1120 H 134.273 -2.95998 1.32499 0
M  V30 1121 H 134.058 -2.48348 3.03424 0
M  V30 1122 H 135.548 -3.32978 2.52022 0
M  V30 1123 N 135.985 -1.50799 -0.457987 0
M  V30 1124 C 137.233 -1.62121 -1.2067 0
M  V30 1125 C 137.554 -0.329793 -1.92191 0
M  V30 1126 O 136.824 0.653409 -1.84682 0
M  V30 1127 H 135.404 -0.597441 -0.448411 0
M  V30 1128 H 138.066 -1.87637 -0.527096 0
M  V30 1129 H 137.162 -2.43882 -1.94751 0
M  V30 1130 N 137.463 0.71206 -1.40597 0
M  V30 1131 C 138.71 1.47197 -1.39065 0
M  V30 1132 C 139.038 1.94499 0.00583891 0
M  V30 1133 O 138.293 1.68752 0.99102 0
M  V30 1134 C 138.592 2.71039 -2.32965 0
M  V30 1135 C 138.258 2.42484 -3.80148 0
M  V30 1136 C 136.92 2.34406 -4.20247 0
M  V30 1137 C 139.272 2.18598 -4.73143 0
M  V30 1138 C 136.6 2.00516 -5.51371 0
M  V30 1139 C 138.952 1.8622 -6.0457 0
M  V30 1140 C 137.616 1.76626 -6.43708 0
M  V30 1141 H 136.886 0.538634 -0.508876 0
M  V30 1142 H 139.533 0.815325 -1.73276 0
M  V30 1143 H 137.838 3.41558 -1.91951 0
M  V30 1144 H 139.535 3.29138 -2.29061 0
M  V30 1145 H 136.125 2.49659 -3.4838 0
M  V30 1146 H 140.309 2.23793 -4.42979 0
M  V30 1147 H 135.565 1.91628 -5.80593 0
M  V30 1148 H 139.739 1.66752 -6.76141 0
M  V30 1149 H 137.366 1.50133 -7.45228 0
M  V30 1150 N 138.941 1.26152 0.944643 0
M  V30 1151 C 140.189 1.11271 1.6871 0
M  V30 1152 C 140.51 -0.345166 1.91921 0
M  V30 1153 O 139.78 -1.24387 1.51343 0
M  V30 1154 H 138.36 0.408783 0.625224 0
M  V30 1155 H 141.022 1.58427 1.1352 0
M  V30 1156 H 140.118 1.62879 2.66227 0
M  V30 1157 N 140.419 -1.14872 1.07899 0
M  V30 1158 C 141.667 -1.85422 0.803941 0
M  V30 1159 C 141.988 -1.83051 -0.67211 0
M  V30 1160 O 141.258 -1.27532 -1.48703 0
M  V30 1161 H 139.838 -0.686537 0.294408 0
M  V30 1162 H 142.5 -1.39226 1.3639 0
M  V30 1163 H 141.596 -2.90399 1.14346 0
M  V30 1164 N 141.898 -0.863906 -1.31812 0
M  V30 1165 C 143.146 -0.470904 -1.96537 0
M  V30 1166 C 143.467 0.978771 -1.68657 0
M  V30 1167 O 142.737 1.6853 -0.998717 0
M  V30 1168 H 141.317 -0.171148 -0.72713 0
M  V30 1169 H 143.979 -1.10236 -1.60729 0
M  V30 1170 H 143.075 -0.623616 -3.05806 0
M  V30 1171 N 143.376 1.44774 -0.622745 0
M  V30 1172 C 144.306 2.33382 0.0741861 0
M  V30 1173 C 145.287 1.47719 0.843387 0
M  V30 1174 O 146.472 1.76458 0.810934 0
M  V30 1175 C 143.602 3.30663 1.06204 0
M  V30 1176 C 142.556 4.26079 0.405037 0
M  V30 1177 C 141.882 5.13165 1.5022 0
M  V30 1178 C 143.182 5.1781 -0.683414 0
M  V30 1179 H 144.876 2.91905 -0.665713 0
M  V30 1180 H 142.422 1.40363 -0.321587 0
M  V30 1181 H 144.375 3.9153 1.55827 0
M  V30 1182 H 143.099 2.70331 1.83272 0
M  V30 1183 H 141.758 3.66532 -0.0704683 0
M  V30 1184 H 141.406 4.49191 2.26355 0
M  V30 1185 H 141.106 5.77812 1.06803 0
M  V30 1186 H 142.63 5.76902 2.00041 0
M  V30 1187 H 144.044 5.72661 -0.270631 0
M  V30 1188 H 142.441 5.91015 -1.04023 0
M  V30 1189 H 143.511 4.59326 -1.55395 0
M  V30 1190 N 144.854 0.36279 1.53368 0
M  V30 1191 C 146.102 -0.227326 2.00817 0
M  V30 1192 C 146.423 -1.49511 1.25186 0
M  V30 1193 O 145.693 -1.92482 0.364348 0
M  V30 1194 H 144.273 -0.0869923 0.741917 0
M  V30 1195 H 146.935 0.488381 1.88682 0
M  V30 1196 H 146.031 -0.456273 3.08747 0
M  V30 1197 N 146.332 -1.57332 0.0918853 0
M  V30 1198 C 147.295 -2.12708 -0.85369 0
M  V30 1199 C 148.295 -1.05561 -1.213 0
M  V30 1200 O 149.485 -1.31461 -1.14296 0
M  V30 1201 C 146.617 -2.64503 -2.15061 0
M  V30 1202 H 147.81 -2.97573 -0.3729 0
M  V30 1203 H 145.363 -1.55509 -0.157072 0
M  V30 1204 H 146.098 -1.83149 -2.67632 0
M  V30 1205 H 145.883 -3.4284 -1.90272 0
M  V30 1206 H 147.373 -3.07351 -2.82711 0
M  V30 1207 N 147.81 0.181792 -1.56548 0
M  V30 1208 C 149.058 0.89832 -1.81038 0
M  V30 1209 C 149.379 1.83232 -0.667164 0
M  V30 1210 O 148.649 1.93372 0.313673 0
M  V30 1211 H 147.229 0.33471 -0.667816 0
M  V30 1212 H 149.891 0.184116 -1.94028 0
M  V30 1213 H 148.987 1.4815 -2.74696 0
M  V30 1214 N 149.288 1.51039 0.449983 0
M  V30 1215 C 150.535 1.63081 1.20045 0
M  V30 1216 C 150.863 0.341024 1.91487 0
M  V30 1217 O 150.118 -0.674276 1.83717 0
M  V30 1218 C 150.417 2.77556 2.25161 0
M  V30 1219 C 150.083 4.17289 1.70823 0
M  V30 1220 C 148.745 4.55305 1.55725 0
M  V30 1221 C 151.097 5.04536 1.3074 0
M  V30 1222 C 148.425 5.78287 0.989999 0
M  V30 1223 C 150.777 6.28085 0.754482 0
M  V30 1224 C 149.441 6.64885 0.590308 0
M  V30 1225 H 148.711 0.596755 0.439277 0
M  V30 1226 H 151.358 1.85037 0.49333 0
M  V30 1227 H 149.663 2.49771 3.01863 0
M  V30 1228 H 151.36 2.84073 2.83026 0
M  V30 1229 H 147.95 3.8731 1.83546 0
M  V30 1230 H 152.134 4.75782 1.41229 0
M  V30 1231 H 147.39 6.05456 0.850451 0
M  V30 1232 H 151.564 6.95038 0.435324 0
M  V30 1233 H 149.191 7.60055 0.14862 0
M  V30 1234 N 150.766 -0.704594 1.40972 0
M  V30 1235 C 152.014 -1.46169 1.39568 0
M  V30 1236 C 152.335 -1.95 0.00253745 0
M  V30 1237 O 151.605 -1.71095 -0.954114 0
M  V30 1238 H 150.185 -0.542326 0.513704 0
M  V30 1239 H 152.847 -0.834553 1.76128 0
M  V30 1240 H 151.943 -2.32922 2.07735 0
M  V30 1241 N 152.244 -1.26651 -0.937939 0
M  V30 1242 C 153.492 -1.12165 -1.68118 0
M  V30 1243 C 153.813 0.334983 -1.92101 0
M  V30 1244 O 153.083 1.23583 -1.52 0
M  V30 1245 H 151.663 -0.412093 -0.623048 0
M  V30 1246 H 154.325 -1.59027 -1.12678 0
M  V30 1247 H 153.421 -1.64289 -2.6536 0
M  V30 1248 N 153.722 1.14298 -1.08507 0
M  V30 1249 C 154.97 1.84993 -0.813763 0
M  V30 1250 C 155.291 1.83405 0.662393 0
M  V30 1251 O 154.561 1.28319 1.48024 0
M  V30 1252 H 153.141 0.684966 -0.298045 0
M  V30 1253 H 155.803 1.385 -1.37126 0
M  V30 1254 H 154.899 2.89788 -1.15884 0
M  V30 1255 N 155.201 0.870884 1.31352 0
M  V30 1256 C 156.448 0.482273 1.96673 0
M  V30 1257 C 156.776 -0.965638 1.68836 0
M  V30 1258 O 156.031 -1.69514 0.977937 0
M  V30 1259 C 156.33 0.687157 3.50732 0
M  V30 1260 C 155.996 2.108 3.9859 0
M  V30 1261 C 154.658 2.49656 4.1137 0
M  V30 1262 C 157.01 3.03459 4.23748 0
M  V30 1263 C 154.338 3.80412 4.46659 0
M  V30 1264 C 156.69 4.3373 4.60501 0
M  V30 1265 C 155.354 4.725 4.71487 0
M  V30 1266 H 154.624 0.176476 0.719679 0
M  V30 1267 H 157.271 1.10405 1.56471 0
M  V30 1268 H 155.576 -0.0177476 3.91796 0
M  V30 1269 H 157.273 0.366284 3.99324 0
M  V30 1270 H 153.863 1.79633 3.8914 0
M  V30 1271 H 158.047 2.74665 4.13368 0
M  V30 1272 H 153.303 4.1021 4.53362 0
M  V30 1273 H 157.477 5.05578 4.78919 0
M  V30 1274 H 155.104 5.73859 4.98588 0
M  V30 1275 N 156.679 -1.44442 0.630414 0
M  V30 1276 C 157.642 -2.29107 -0.0652523 0
M  V30 1277 C 158.642 -1.41002 -0.772995 0
M  V30 1278 O 159.832 -1.62881 -0.617692 0
M  V30 1279 C 156.964 -3.22564 -1.10296 0
M  V30 1280 H 158.157 -2.92103 0.679401 0
M  V30 1281 H 155.71 -1.51343 0.390517 0
M  V30 1282 H 156.445 -2.64416 -1.87762 0
M  V30 1283 H 156.23 -3.87491 -0.59941 0
M  V30 1284 H 157.72 -3.86167 -1.5895 0
M  V30 1285 N 158.157 -0.370918 -1.53173 0
M  V30 1286 C 159.405 0.216673 -2.00935 0
M  V30 1287 C 159.726 1.48845 -1.25977 0
M  V30 1288 O 158.996 1.92286 -0.374551 0
M  V30 1289 H 157.576 0.0830565 -0.742368 0
M  V30 1290 H 160.238 -0.49838 -1.8842 0
M  V30 1291 H 159.334 0.439893 -3.08984 0
M  V30 1292 N 159.635 1.57281 -0.100228 0
M  V30 1293 C 160.883 1.94153 0.561157 0
M  V30 1294 C 161.204 0.983157 1.68401 0
M  V30 1295 O 160.474 0.0361132 1.95867 0
M  V30 1296 H 159.054 0.716791 0.210283 0
M  V30 1297 H 161.716 1.94202 -0.164765 0
M  V30 1298 H 160.812 2.96709 0.968008 0
M  V30 1299 N 161.113 -0.173488 1.56642 0
M  V30 1300 C 162.39 -0.917617 1.7274 0
M  V30 1301 C 162.77 -2.00484 0.661027 0
M  V30 1302 O 162.118 -2.26184 -0.32453 0
M  V30 1303 C 162.328 -1.48433 3.15862 0
M  V30 1304 C 163.676 -1.95809 3.76754 0
M  V30 1305 O 164.7 -1.58231 3.19126 0
M  V30 1306 O 163.559 -2.65024 4.77938 0
M  V30 1307 H 160.653 -0.431772 0.705338 0
M  V30 1308 H 163.199 -0.161487 1.6893 0
M  V30 1309 H 161.971 -0.701715 3.84957 0
M  V30 1310 H 161.594 -2.30471 3.23989 0
M  V30 1311 N 162.591 -1.51276 -0.441967 0
M  V30 1312 C 163.839 -1.63392 -1.18943 0
M  V30 1313 C 164.16 -0.350159 -1.9183 0
M  V30 1314 O 163.43 0.633784 -1.85364 0
M  V30 1315 H 162.01 -0.602164 -0.442049 0
M  V30 1316 H 164.672 -1.88186 -0.507165 0
M  V30 1317 H 163.768 -2.45934 -1.92154 0
M  V30 1318 N 164.069 0.697108 -1.41344 0
M  V30 1319 C 164.999 1.82353 -1.45841 0
M  V30 1320 C 165.98 1.67115 -0.317247 0
M  V30 1321 O 167.165 1.86871 -0.528474 0
M  V30 1322 C 164.295 3.20476 -1.33838 0
M  V30 1323 C 163.249 3.50415 -2.4575 0
M  V30 1324 C 162.575 4.87878 -2.18813 0
M  V30 1325 C 163.875 3.49546 -3.88091 0
M  V30 1326 H 165.569 1.78846 -2.40113 0
M  V30 1327 H 163.115 0.859028 -1.15571 0
M  V30 1328 H 165.068 3.98988 -1.35596 0
M  V30 1329 H 163.792 3.24604 -0.360498 0
M  V30 1330 H 162.451 2.74253 -2.43271 0
M  V30 1331 H 162.099 4.8863 -1.19371 0
M  V30 1332 H 161.799 5.08875 -2.93803 0
M  V30 1333 H 163.323 5.68702 -2.22284 0
M  V30 1334 H 164.737 4.18066 -3.92293 0
M  V30 1335 H 163.134 3.82075 -4.62751 0
M  V30 1336 H 164.204 2.48552 -4.16353 0
M  V30 1337 N 165.547 1.27147 0.931209 0
M  V30 1338 C 166.477 1.12081 2.04842 0
M  V30 1339 C 167.458 0.0232364 1.70084 0
M  V30 1340 O 168.643 0.197085 1.93197 0
M  V30 1341 C 165.773 0.76354 3.38803 0
M  V30 1342 C 164.727 1.81396 3.87659 0
M  V30 1343 C 164.053 1.31075 5.18385 0
M  V30 1344 C 165.353 3.21739 4.11438 0
M  V30 1345 H 167.047 2.05537 2.17703 0
M  V30 1346 H 164.593 0.989603 1.04608 0
M  V30 1347 H 166.546 0.644982 4.16435 0
M  V30 1348 H 165.27 -0.206727 3.25945 0
M  V30 1349 H 163.929 1.92136 3.12217 0
M  V30 1350 H 163.577 0.330037 5.01916 0
M  V30 1351 H 163.277 2.013 5.52044 0
M  V30 1352 H 164.801 1.20506 5.98591 0
M  V30 1353 H 166.215 3.14019 4.79651 0
M  V30 1354 H 164.612 3.89644 4.56397 0
M  V30 1355 H 165.682 3.67054 3.16859 0
M  V30 1356 N 167.025 -1.13721 1.09112 0
M  V30 1357 C 168.271 -1.85198 0.826414 0
M  V30 1358 C 168.604 -1.83129 -0.646319 0
M  V30 1359 O 167.879 -1.2671 -1.47563 0
M  V30 1360 C 168.162 -3.33507 1.35812 0
M  V30 1361 C 168.015 -3.44108 2.89672 0
M  V30 1362 C 169.334 -4.28838 0.989256 0
M  V30 1363 H 166.453 -0.67243 0.301675 0
M  V30 1364 H 169.095 -1.33499 1.35197 0
M  V30 1365 H 167.245 -3.77666 0.911082 0
M  V30 1366 H 168.917 -3.08684 3.428 0
M  V30 1367 H 167.16 -2.85087 3.26967 0
M  V30 1368 H 167.831 -4.48388 3.21951 0
M  V30 1369 H 170.307 -3.92734 1.37475 0
M  V30 1370 H 169.183 -5.31051 1.38838 0
M  V30 1371 H 169.444 -4.4198 -0.102924 0
M  V30 1372 N 168.503 -0.877838 -1.30888 0
M  V30 1373 C 169.751 -0.491723 -1.96027 0
M  V30 1374 C 170.072 0.960827 -1.69685 0
M  V30 1375 O 169.342 1.67462 -1.01654 0
M  V30 1376 H 167.922 -0.17885 -0.725273 0
M  V30 1377 H 170.584 -1.11935 -1.59551 0
M  V30 1378 H 169.68 -0.656016 -3.05128 0
M  V30 1379 N 169.982 1.44106 -0.638065 0
M  V30 1380 C 171.207 2.0685 -0.150916 0
M  V30 1381 C 171.632 1.47417 1.16833 0
M  V30 1382 O 170.99 0.578264 1.71831 0
M  V30 1383 C 171.038 3.60555 -0.05708 0
M  V30 1384 O 170.142 4.00465 0.984972 0
M  V30 1385 H 169.483 0.658151 -0.0879399 0
M  V30 1386 H 172.013 1.84865 -0.876707 0
M  V30 1387 H 172.023 4.07789 0.131232 0
M  V30 1388 H 170.698 4.03193 -1.02021 0
M  V30 1389 H 169.275 3.64849 0.770672 0
M  V30 1390 N 171.46 0.379036 1.52974 0
M  V30 1391 C 172.37 -0.468639 2.29872 0
M  V30 1392 C 173.386 -1.08067 1.36373 0
M  V30 1393 O 174.562 -1.08871 1.69438 0
M  V30 1394 C 171.627 -1.58594 3.083 0
M  V30 1395 C 170.688 -1.00007 4.17489 0
M  V30 1396 C 169.921 -2.06413 4.92168 0
M  V30 1397 O 170.144 -3.27751 4.66835 0
M  V30 1398 O 169.078 -1.68717 5.7777 0
M  V30 1399 H 172.904 0.157508 3.03291 0
M  V30 1400 H 170.489 0.143035 1.48714 0
M  V30 1401 H 172.371 -2.23525 3.57232 0
M  V30 1402 H 171.046 -2.19724 2.37703 0
M  V30 1403 H 169.953 -0.314299 3.72777 0
M  V30 1404 H 171.286 -0.433135 4.90291 0
M  V30 1405 N 172.938 -1.57226 0.108567 0
M  V30 1406 C 173.885 -2.14756 -0.845481 0
M  V30 1407 C 174.855 -1.06971 -1.27068 0
M  V30 1408 O 176.04 -1.34827 -1.35005 0
M  V30 1409 C 173.18 -2.74298 -2.09415 0
M  V30 1410 C 172.293 -3.96358 -1.71826 0
M  V30 1411 C 171.428 -4.44021 -2.9158 0
M  V30 1412 C 170.467 -5.58637 -2.50181 0
M  V30 1413 N 169.604 -6.01091 -3.62814 0
M  V30 1414 H 174.444 -2.95961 -0.348035 0
M  V30 1415 H 171.981 -1.46226 -0.160106 0
M  V30 1416 H 173.939 -3.06945 -2.82561 0
M  V30 1417 H 172.569 -1.95801 -2.56636 0
M  V30 1418 H 171.621 -3.69939 -0.885947 0
M  V30 1419 H 172.933 -4.79504 -1.37394 0
M  V30 1420 H 172.087 -4.78522 -3.72963 0
M  V30 1421 H 170.826 -3.59803 -3.29231 0
M  V30 1422 H 169.831 -5.23751 -1.67228 0
M  V30 1423 H 171.056 -6.44613 -2.13659 0
M  V30 1424 H 169.002 -5.19817 -4.00158 0
M  V30 1425 H 168.919 -6.79066 -3.32273 0
M  V30 1426 H 170.187 -6.40227 -4.44668 0
M  V30 1427 N 174.416 0.165178 -1.56732 0
M  V30 1428 C 175.662 0.882112 -1.82611 0
M  V30 1429 C 175.995 1.81628 -0.687378 0
M  V30 1430 O 175.27 1.92009 0.310267 0
M  V30 1431 C 175.553 1.67245 -3.18906 0
M  V30 1432 C 175.406 0.760987 -4.43316 0
M  V30 1433 C 176.725 2.63884 -3.52212 0
M  V30 1434 H 173.844 0.319242 -0.664269 0
M  V30 1435 H 176.486 0.148052 -1.89422 0
M  V30 1436 H 174.636 2.29824 -3.1323 0
M  V30 1437 H 176.308 0.147596 -4.61064 0
M  V30 1438 H 174.551 0.0694102 -4.33744 0
M  V30 1439 H 175.222 1.34962 -5.35247 0
M  V30 1440 H 177.698 2.11429 -3.58381 0
M  V30 1441 H 176.574 3.16245 -4.48643 0
M  V30 1442 H 176.835 3.44377 -2.77231 0
M  V30 1443 N 175.894 1.51508 0.433938 0
M  V30 1444 C 177.122 1.68157 1.20543 0
M  V30 1445 C 177.537 0.380362 1.84929 0
M  V30 1446 O 176.894 -0.641446 1.70856 0
M  V30 1447 C 176.945 2.79965 2.28696 0
M  V30 1448 O 176.666 4.05045 1.66943 0
M  V30 1449 C 178.167 3.07912 3.18912 0
M  V30 1450 H 175.387 0.56421 0.363191 0
M  V30 1451 H 177.931 1.97941 0.513754 0
M  V30 1452 H 176.086 2.5277 2.93574 0
M  V30 1453 H 176.5 4.67165 2.38448 0
M  V30 1454 H 177.974 3.89719 3.90926 0
M  V30 1455 H 178.451 2.20456 3.79863 0
M  V30 1456 H 179.057 3.36779 2.59731 0
M  V30 1457 N 177.372 -0.689602 1.41712 0
M  V30 1458 C 178.305 -1.81403 1.3845 0
M  V30 1459 C 179.283 -1.60653 0.250874 0
M  V30 1460 O 180.467 -1.83323 0.43874 0
M  V30 1461 C 177.594 -3.18176 1.1611 0
M  V30 1462 C 176.64 -3.57705 2.3227 0
M  V30 1463 S 177.473 -3.61827 3.94767 0
M  V30 1464 C 178.629 -5.01318 3.74742 0
M  V30 1465 H 178.862 -1.83893 2.33603 0
M  V30 1466 H 176.395 -0.858878 1.28307 0
M  V30 1467 H 178.353 -3.97132 1.03907 0
M  V30 1468 H 177.014 -3.13288 0.225668 0
M  V30 1469 H 176.207 -4.57082 2.12349 0
M  V30 1470 H 175.809 -2.86073 2.40911 0
M  V30 1471 H 178.101 -5.88986 3.34817 0
M  V30 1472 H 179.044 -5.26283 4.73743 0
M  V30 1473 H 179.452 -4.73138 3.07898 0
M  V30 1474 N 178.85 -1.27639 -0.924453 0
M  V30 1475 C 179.782 -1.06442 -2.02985 0
M  V30 1476 C 180.795 -0.0194771 -1.62788 0
M  V30 1477 O 181.984 -0.261388 -1.76576 0
M  V30 1478 C 179.084 -0.59327 -3.33667 0
M  V30 1479 C 178.257 -1.71123 -4.02537 0
M  V30 1480 C 177.316 -1.23527 -5.11495 0
M  V30 1481 O 176.342 -1.93553 -5.35281 0
M  V30 1482 N 177.544 -0.0926678 -5.80426 0
M  V30 1483 H 180.309 -2.01633 -2.2173 0
M  V30 1484 H 177.87 -1.19248 -1.09505 0
M  V30 1485 H 179.862 -0.258686 -4.03872 0
M  V30 1486 H 178.432 0.265502 -3.1147 0
M  V30 1487 H 177.652 -2.21593 -3.26022 0
M  V30 1488 H 178.94 -2.46145 -4.45298 0
M  V30 1489 H 178.338 0.491741 -5.63559 0
M  V30 1490 H 176.895 0.182714 -6.51544 0
M  V30 1491 N 180.328 1.1314 -1.09713 0
M  V30 1492 C 181.276 2.20717 -0.733934 0
M  V30 1493 C 182.27 1.6729 0.266506 0
M  V30 1494 O 183.476 1.79547 0.127656 0
M  V30 1495 H 179.851 0.719292 -0.21937 0
M  V30 1496 H 181.822 2.48611 -1.6503 0
M  V30 1497 C 180.571 3.47265 -0.173849 0
M  V30 1498 H 179.894 3.88716 -0.934873 0
M  V30 1499 H 181.334 4.23979 0.0423126 0
M  V30 1500 C 179.793 3.18724 1.09164 0
M  V30 1501 O 180.323 3.37762 2.17439 0
M  V30 1502 N 178.529 2.72583 1.00732 0
M  V30 1503 H 178.076 2.57291 0.126121 0
M  V30 1504 H 178.034 2.53862 1.85476 0
M  V30 1505 N 181.806 0.884767 1.30421 0
M  V30 1506 C 182.736 0.367574 2.30589 0
M  V30 1507 C 183.717 -0.549464 1.60981 0
M  V30 1508 O 184.902 -0.46336 1.88591 0
M  V30 1509 C 182.032 -0.418944 3.44764 0
M  V30 1510 C 180.986 0.406316 4.26067 0
M  V30 1511 C 180.312 -0.506793 5.32293 0
M  V30 1512 C 181.612 1.64832 4.95608 0
M  V30 1513 H 183.306 1.20462 2.74097 0
M  V30 1514 H 180.852 0.580695 1.31772 0
M  V30 1515 H 182.805 -0.791395 4.13902 0
M  V30 1516 H 181.529 -1.28964 3.0006 0
M  V30 1517 H 180.188 0.760903 3.58617 0
M  V30 1518 H 179.836 -1.37519 4.83836 0
M  V30 1519 H 179.536 0.0415828 5.87585 0
M  V30 1520 H 181.06 -0.875764 6.04287 0
M  V30 1521 H 182.474 1.34646 5.57264 0
M  V30 1522 H 180.871 2.13688 5.60765 0
M  V30 1523 H 181.941 2.39284 4.21748 0
M  V30 1524 N 183.284 -1.43765 0.645699 0
M  V30 1525 C 184.232 -2.32516 -0.0624849 0
M  V30 1526 C 185.226 -1.48183 -0.820855 0
M  V30 1527 O 186.432 -1.64439 -0.732106 0
M  V30 1528 H 182.807 -0.750989 -0.0389864 0
M  V30 1529 H 184.778 -2.89979 0.703892 0
M  V30 1530 C 183.527 -3.32389 -1.02044 0
M  V30 1531 H 182.85 -3.97301 -0.446312 0
M  V30 1532 H 184.29 -3.97138 -1.48517 0
M  V30 1533 C 182.749 -2.62416 -2.11281 0
M  V30 1534 O 183.279 -2.434 -3.19561 0
M  V30 1535 N 181.485 -2.21913 -1.87624 0
M  V30 1536 H 181.032 -2.37578 -0.995703 0
M  V30 1537 H 180.99 -1.75424 -2.6091 0
M  V30 1538 N 184.763 -0.387143 -1.52771 0
M  V30 1539 C 186.04 0.253197 -1.93954 0
M  V30 1540 C 186.42 1.64545 -1.32243 0
M  V30 1541 O 185.768 2.23191 -0.489699 0
M  V30 1542 C 185.978 0.281722 -3.47861 0
M  V30 1543 C 187.326 0.511715 -4.21505 0
M  V30 1544 O 188.35 0.362023 -3.54356 0
M  V30 1545 O 187.209 0.804847 -5.40541 0
M  V30 1546 H 184.303 0.156845 -0.811991 0
M  V30 1547 H 186.849 -0.441494 -1.63856 0
M  V30 1548 H 185.621 -0.693571 -3.85104 0
M  V30 1549 H 185.244 1.02142 -3.84256 0
M  V30 1550 N 186.241 1.57166 -0.116904 0
M  V30 1551 C 187.657 1.5779 0.239693 0
M  V30 1552 C 187.857 1.1295 1.66867 0
M  V30 1553 O 186.913 0.81592 2.38954 0
M  V30 1554 C 188.226 3.00699 0.00828202 0
M  V30 1555 C 189.774 3.12912 0.0743438 0
M  V30 1556 C 190.249 4.57817 -0.129348 0
M  V30 1557 N 191.74 4.63139 -0.075247 0
M  V30 1558 C 192.475 5.73023 -0.207788 0
M  V30 1559 N 191.971 6.91665 -0.396382 0
M  V30 1560 N 193.764 5.61906 -0.14751 0
M  V30 1561 H 185.915 1.84615 -1.05029 0
M  V30 1562 H 188.178 0.85311 -0.41341 0
M  V30 1563 H 187.884 3.37784 -0.979531 0
M  V30 1564 H 187.758 3.69848 0.741077 0
M  V30 1565 H 190.145 2.75686 1.05268 0
M  V30 1566 H 190.226 2.4631 -0.690297 0
M  V30 1567 H 189.87 4.95742 -1.10465 0
M  V30 1568 H 189.8 5.22507 0.655253 0
M  V30 1569 H 192.291 3.7784 0.0670898 0
M  V30 1570 H 192.604 7.71255 -0.488437 0
M  V30 1571 H 190.949 6.93654 -0.432329 0
M  V30 1572 H 194.14 4.681 -0.00115036 0
M  V30 1573 H 194.313 6.47501 -0.254247 0
M  V30 1574 N 187.719 -0.156864 1.56817 0
M  V30 1575 C 188.649 -1.19589 2.00551 0
M  V30 1576 C 189.63 -1.4536 0.883426 0
M  V30 1577 O 190.815 -1.56449 1.15054 0
M  V30 1578 C 187.945 -2.53143 2.37773 0
M  V30 1579 C 186.899 -2.41913 3.53075 0
M  V30 1580 C 186.225 -3.80088 3.76081 0
M  V30 1581 C 187.525 -1.91157 4.86062 0
M  V30 1582 H 189.219 -0.832293 2.87599 0
M  V30 1583 H 186.765 -0.398918 1.38364 0
M  V30 1584 H 188.718 -3.26047 2.66967 0
M  V30 1585 H 187.442 -2.91319 1.4765 0
M  V30 1586 H 186.101 -1.71462 3.24031 0
M  V30 1587 H 185.749 -4.15683 2.83225 0
M  V30 1588 H 185.449 -3.73439 4.53671 0
M  V30 1589 H 186.973 -4.54556 4.0769 0
M  V30 1590 H 188.387 -2.53846 5.14038 0
M  V30 1591 H 186.784 -1.95422 5.67389 0
M  V30 1592 H 187.854 -0.866673 4.77092 0
M  V30 1593 N 189.197 -1.51736 -0.425897 0
M  V30 1594 C 190.16 -1.73271 -1.50032 0
M  V30 1595 C 191.16 -0.602639 -1.4908 0
M  V30 1596 O 192.35 -0.87033 -1.509 0
M  V30 1597 C 189.482 -1.79969 -2.89523 0
M  V30 1598 H 190.675 -2.69172 -1.32237 0
M  V30 1599 H 188.228 -1.41899 -0.65532 0
M  V30 1600 H 188.963 -0.859241 -3.1271 0
M  V30 1601 H 188.748 -2.62109 -2.91619 0
M  V30 1602 H 190.238 -1.9843 -3.67444 0
M  V30 1603 N 190.675 0.682077 -1.42076 0
M  V30 1604 C 191.9 1.47558 -1.45744 0
M  V30 1605 C 192.325 1.87977 -0.0680981 0
M  V30 1606 O 191.683 1.55522 0.9318 0
M  V30 1607 C 191.731 2.70575 -2.38373 0
M  V30 1608 O 190.835 3.68573 -1.85007 0
M  V30 1609 H 190.176 0.443585 -0.494093 0
M  V30 1610 H 192.706 0.837238 -1.86686 0
M  V30 1611 H 192.716 3.18729 -2.54707 0
M  V30 1612 H 191.391 2.40495 -3.39315 0
M  V30 1613 H 189.968 3.2757 -1.78192 0
M  V30 1614 N 192.153 1.28127 0.917671 0
M  V30 1615 C 193.383 1.17722 1.6978 0
M  V30 1616 C 193.791 -0.267261 1.87303 0
M  V30 1617 O 193.134 -1.19286 1.39702 0
M  V30 1618 C 193.196 1.79958 3.11216 0
M  V30 1619 C 192.86 3.29187 3.16993 0
M  V30 1620 C 193.857 4.25679 2.98485 0
M  V30 1621 C 191.542 3.70075 3.39632 0
M  V30 1622 C 193.536 5.61035 3.02521 0
M  V30 1623 C 191.223 5.05557 3.433 0
M  V30 1624 C 192.221 6.00847 3.24764 0
M  V30 1625 O 191.909 7.33859 3.28187 0
M  V30 1626 H 191.641 0.409788 0.537634 0
M  V30 1627 H 194.195 1.69694 1.15728 0
M  V30 1628 H 192.425 1.22475 3.66793 0
M  V30 1629 H 194.114 1.64125 3.71238 0
M  V30 1630 H 194.88 3.95426 2.80826 0
M  V30 1631 H 190.759 2.96373 3.53106 0
M  V30 1632 H 194.303 6.35388 2.87971 0
M  V30 1633 H 190.2 5.35462 3.60486 0
M  V30 1634 H 190.968 7.42436 3.44575 0
M  V30 1635 N 193.631 -1.12557 1.10312 0
M  V30 1636 C 194.561 -2.20341 0.772798 0
M  V30 1637 C 195.542 -1.68198 -0.25365 0
M  V30 1638 O 196.727 -1.93831 -0.119699 0
M  V30 1639 C 193.857 -3.46709 0.202443 0
M  V30 1640 C 192.811 -4.11996 1.15943 0
M  V30 1641 C 192.137 -5.328 0.450345 0
M  V30 1642 C 193.437 -4.5828 2.50552 0
M  V30 1643 H 195.131 -2.48229 1.674 0
M  V30 1644 H 192.677 -1.19308 0.806326 0
M  V30 1645 H 194.63 -4.2138 -0.0407752 0
M  V30 1646 H 193.354 -3.18245 -0.734001 0
M  V30 1647 H 192.013 -3.39305 1.38808 0
M  V30 1648 H 191.661 -5.00602 -0.490531 0
M  V30 1649 H 191.361 -5.7743 1.08851 0
M  V30 1650 H 192.885 -6.10219 0.215642 0
M  V30 1651 H 194.299 -5.2433 2.31843 0
M  V30 1652 H 192.696 -5.13683 3.10242 0
M  V30 1653 H 193.766 -3.72329 3.10643 0
M  V30 1654 N 195.109 -0.891671 -1.2995 0
M  V30 1655 C 196.386 -0.433307 -1.9074 0
M  V30 1656 C 196.766 1.08646 -1.80995 0
M  V30 1657 O 196.114 1.92476 -1.23147 0
M  V30 1658 C 196.324 -0.938895 -3.36134 0
M  V30 1659 C 197.672 -0.977829 -4.13187 0
M  V30 1660 O 198.696 -0.886015 -3.45005 0
M  V30 1661 O 197.555 -1.11453 -5.35015 0
M  V30 1662 H 194.649 -0.133699 -0.816121 0
M  V30 1663 H 197.195 -0.981011 -1.38471 0
M  V30 1664 H 195.967 -1.98281 -3.37343 0
M  V30 1665 H 195.59 -0.37074 -3.95868 0
M  V30 1666 N 196.587 1.43421 -0.653314 0
M  V30 1667 C 197.534 2.30768 0.0382271 0
M  V30 1668 C 198.504 1.44755 0.814576 0
M  V30 1669 O 199.689 1.73624 0.791162 0
M  V30 1670 C 196.829 3.30336 0.998599 0
M  V30 1671 C 195.942 4.31448 0.218342 0
M  V30 1672 C 195.077 5.18098 1.17252 0
M  V30 1673 C 194.116 6.10902 0.382702 0
M  V30 1674 N 193.253 6.90176 1.28848 0
M  V30 1675 H 198.093 2.89357 -0.712511 0
M  V30 1676 H 195.63 1.42548 -0.363128 0
M  V30 1677 H 197.588 3.86572 1.56901 0
M  V30 1678 H 196.218 2.73397 1.71621 0
M  V30 1679 H 195.27 3.77506 -0.46836 0
M  V30 1680 H 196.582 4.97227 -0.395812 0
M  V30 1681 H 195.736 5.7896 1.81356 0
M  V30 1682 H 194.475 4.52444 1.82058 0
M  V30 1683 H 193.48 5.49128 -0.27169 0
M  V30 1684 H 194.705 6.78598 -0.260957 0
M  V30 1685 H 192.651 6.27171 1.92334 0
M  V30 1686 H 192.568 7.52478 0.728887 0
M  V30 1687 H 193.836 7.55543 1.91766 0
M  V30 1688 N 198.065 0.39524 1.52563 0
M  V30 1689 C 199.311 -0.185318 2.01952 0
M  V30 1690 C 199.644 -1.45964 1.28095 0
M  V30 1691 O 198.919 -1.90689 0.38315 0
M  V30 1692 C 199.202 -0.447193 3.57312 0
M  V30 1693 C 199.055 0.842828 4.41833 0
M  V30 1694 C 200.374 -1.23529 4.22408 0
M  V30 1695 H 197.493 -0.0658788 0.73405 0
M  V30 1696 H 200.135 0.525975 1.82575 0
M  V30 1697 H 198.285 -1.05312 3.73954 0
M  V30 1698 H 199.957 1.4795 4.36931 0
M  V30 1699 H 198.2 1.45686 4.08605 0
M  V30 1700 H 198.871 0.614165 5.48573 0
M  V30 1701 H 201.347 -0.722445 4.0978 0
M  V30 1702 H 200.223 -1.38727 5.3108 0
M  V30 1703 H 200.484 -2.25213 3.80436 0
M  V30 1704 N 199.544 -1.57102 0.125237 0
M  V30 1705 C 200.96 -1.57915 -0.231322 0
M  V30 1706 C 201.16 -1.13833 -1.66266 0
M  V30 1707 O 200.216 -0.828581 -2.38518 0
M  V30 1708 C 201.529 -3.00699 0.00766489 0
M  V30 1709 C 203.077 -3.12947 -0.0577483 0
M  V30 1710 C 203.552 -4.57742 0.153626 0
M  V30 1711 N 205.043 -4.63092 0.0998073 0
M  V30 1712 C 205.778 -5.72905 0.238174 0
M  V30 1713 N 205.274 -6.91445 0.433057 0
M  V30 1714 N 207.067 -5.6182 0.177308 0
M  V30 1715 H 199.218 -1.84055 1.06007 0
M  V30 1716 H 201.481 -0.850905 0.417929 0
M  V30 1717 H 201.187 -3.3726 0.997431 0
M  V30 1718 H 201.061 -3.70236 -0.721452 0
M  V30 1719 H 203.448 -2.7624 -1.03804 0
M  V30 1720 H 203.529 -2.4594 0.70335 0
M  V30 1721 H 203.173 -4.95149 1.13092 0
M  V30 1722 H 203.103 -5.22848 -0.627534 0
M  V30 1723 H 205.594 -3.77871 -0.047051 0
M  V30 1724 H 205.907 -7.70985 0.529332 0
M  V30 1725 H 204.252 -6.93415 0.469109 0
M  V30 1726 H 207.443 -4.68093 0.0259748 0
M  V30 1727 H 207.616 -6.47357 0.288582 0
M  V30 1728 N 201.022 0.148545 -1.56898 0
M  V30 1729 C 201.985 1.16736 -1.97244 0
M  V30 1730 C 202.985 1.35947 -0.858777 0
M  V30 1731 O 204.175 1.32966 -1.12542 0
M  V30 1732 C 201.307 2.52798 -2.28705 0
M  V30 1733 H 202.5 0.821279 -2.88435 0
M  V30 1734 H 200.053 0.391831 -1.51309 0
M  V30 1735 H 200.788 2.92381 -1.403 0
M  V30 1736 H 200.573 2.40216 -3.09901 0
M  V30 1737 H 202.063 3.26179 -2.60762 0
M  V30 1738 N 202.5 1.5196 0.417844 0
M  V30 1739 C 203.43 1.77634 1.51554 0
M  V30 1740 C 204.411 0.626918 1.58126 0
M  V30 1741 O 205.596 0.871632 1.7354 0
M  V30 1742 C 202.726 1.91911 2.8946 0
M  V30 1743 C 201.68 3.07463 2.97743 0
M  V30 1744 C 201.006 3.06951 4.37819 0
M  V30 1745 C 202.306 4.47082 2.70027 0
M  V30 1746 H 204 2.6955 1.3032 0
M  V30 1747 H 201.546 1.29706 0.625492 0
M  V30 1748 H 203.499 2.08455 3.6623 0
M  V30 1749 H 202.223 0.966598 3.11969 0
M  V30 1750 H 200.882 2.90656 2.23416 0
M  V30 1751 H 200.53 2.09438 4.57323 0
M  V30 1752 H 200.23 3.84556 4.44286 0
M  V30 1753 H 201.754 3.25613 5.16535 0
M  V30 1754 H 203.168 4.6414 3.36522 0
M  V30 1755 H 201.565 5.2654 2.87881 0
M  V30 1756 H 202.635 4.55777 1.65514 0
M  V30 1757 N 203.978 -0.674533 1.42435 0
M  V30 1758 C 204.888 -1.81751 1.48337 0
M  V30 1759 C 205.904 -1.69975 0.372099 0
M  V30 1760 O 207.08 -1.91521 0.62304 0
M  V30 1761 C 204.145 -3.17895 1.38361 0
M  V30 1762 C 203.206 -3.41625 2.59982 0
M  V30 1763 C 202.439 -4.71274 2.50473 0
M  V30 1764 O 202.662 -5.49197 1.54075 0
M  V30 1765 O 201.596 -4.96254 3.4061 0
M  V30 1766 H 205.422 -1.79728 2.44809 0
M  V30 1767 H 203.007 -0.830312 1.24202 0
M  V30 1768 H 204.889 -3.99136 1.35161 0
M  V30 1769 H 203.564 -3.20555 0.450144 0
M  V30 1770 H 202.471 -2.60231 2.68757 0
M  V30 1771 H 203.804 -3.43796 3.52229 0
M  V30 1772 N 205.456 -1.28612 -0.910864 0
M  V30 1773 C 206.366 -1.14643 -2.0468 0
M  V30 1774 C 207.382 -0.0723121 -1.7385 0
M  V30 1775 O 208.558 -0.282178 -1.99413 0
M  V30 1776 C 205.623 -0.812561 -3.37044 0
M  V30 1777 C 204.684 -1.96935 -3.81465 0
M  V30 1778 C 203.917 -1.65131 -5.07511 0
M  V30 1779 O 204.14 -0.567013 -5.67575 0
M  V30 1780 O 203.074 -2.49585 -5.47714 0
M  V30 1781 H 206.9 -2.1001 -2.19384 0
M  V30 1782 H 204.485 -1.07958 -1.03274 0
M  V30 1783 H 206.367 -0.640441 -4.16505 0
M  V30 1784 H 205.042 0.111426 -3.23508 0
M  V30 1785 H 203.949 -2.19664 -3.02818 0
M  V30 1786 H 205.282 -2.87414 -3.99567 0
M  V30 1787 N 206.934 1.1197 -1.10907 0
M  V30 1788 C 207.897 2.16031 -0.765707 0
M  V30 1789 C 208.897 1.59393 0.212235 0
M  V30 1790 O 210.087 1.74196 -0.0115441 0
M  V30 1791 C 207.219 3.40632 -0.135053 0
M  V30 1792 H 208.412 2.47919 -1.68748 0
M  V30 1793 H 205.965 1.27061 -0.910226 0
M  V30 1794 H 206.7 3.14348 0.797218 0
M  V30 1795 H 206.485 3.8302 -0.838937 0
M  V30 1796 H 207.975 4.17505 0.0892469 0
M  V30 1797 N 208.412 0.89855 1.29475 0
M  V30 1798 C 209.36 0.365253 2.29714 0
M  V30 1799 C 210.354 -0.534993 1.6073 0
M  V30 1800 O 211.56 -0.417921 1.75081 0
M  V30 1801 H 207.935 0.0994853 0.74539 0
M  V30 1802 H 209.906 1.22406 2.72138 0
M  V30 1803 C 208.655 -0.393159 3.4547 0
M  V30 1804 H 207.978 0.290332 3.98744 0
M  V30 1805 H 209.418 -0.731189 4.17648 0
M  V30 1806 C 207.877 -1.59539 2.9673 0
M  V30 1807 O 208.407 -2.69469 2.97908 0
M  V30 1808 N 206.613 -1.43716 2.52575 0
M  V30 1809 H 206.16 -0.542828 2.51816 0
M  V30 1810 H 206.118 -2.24288 2.20323 0
M  V30 1811 N 209.89 -1.43072 0.660911 0
M  V30 1812 C 210.853 -2.29194 -0.0166406 0
M  V30 1813 C 211.853 -1.42609 -0.742912 0
M  V30 1814 O 213.043 -1.64155 -0.583004 0
M  V30 1815 C 210.175 -3.24831 -1.0343 0
M  V30 1816 H 211.368 -2.90596 0.741208 0
M  V30 1817 H 208.921 -1.5048 0.422532 0
M  V30 1818 H 209.656 -2.68339 -1.82111 0
M  V30 1819 H 209.441 -3.88676 -0.517082 0
M  V30 1820 H 210.931 -3.89451 -1.50723 0
M  V30 1821 N 211.368 -0.403325 -1.52352 0
M  V30 1822 C 212.645 0.232611 -1.94212 0
M  V30 1823 C 213.025 1.63133 -1.33981 0
M  V30 1824 O 212.373 2.22659 -0.513344 0
M  V30 1825 C 212.583 0.244811 -3.4814 0
M  V30 1826 C 213.931 0.46698 -4.22024 0
M  V30 1827 O 214.955 0.324419 -3.5472 0
M  V30 1828 O 213.814 0.74747 -5.41364 0
M  V30 1829 H 210.908 0.148223 -0.813609 0
M  V30 1830 H 213.454 -0.458848 -1.63379 0
M  V30 1831 H 212.226 -0.734378 -3.84347 0
M  V30 1832 H 211.849 0.980611 -3.85318 0
M  V30 1833 N 212.846 1.57033 -0.133567 0
M  V30 1834 C 213.776 2.1909 0.807567 0
M  V30 1835 C 214.757 1.13517 1.26681 0
M  V30 1836 O 215.942 1.41809 1.32679 0
M  V30 1837 C 213.072 2.80188 2.05212 0
M  V30 1838 C 212.026 3.91471 1.73015 0
M  V30 1839 C 211.352 4.39443 3.04622 0
M  V30 1840 C 212.652 5.12886 0.987168 0
M  V30 1841 H 214.346 2.97988 0.290403 0
M  V30 1842 H 211.892 1.43335 0.138239 0
M  V30 1843 H 213.845 3.22264 2.71521 0
M  V30 1844 H 212.569 1.98601 2.59278 0
M  V30 1845 H 211.228 3.49993 1.0909 0
M  V30 1846 H 210.876 3.54695 3.56651 0
M  V30 1847 H 210.576 5.14495 2.83847 0
M  V30 1848 H 212.1 4.8418 3.72024 0
M  V30 1849 H 213.514 5.51891 1.55208 0
M  V30 1850 H 211.911 5.93615 0.87985 0
M  V30 1851 H 212.981 4.84894 -0.0235286 0
M  V30 1852 N 214.325 -0.140222 1.56975 0
M  V30 1853 C 215.235 -1.19223 2.02047 0
M  V30 1854 C 216.251 -1.46612 0.937062 0
M  V30 1855 O 217.427 -1.58148 1.24704 0
M  V30 1856 C 214.492 -2.50414 2.39778 0
M  V30 1857 C 213.553 -2.30612 3.621 0
M  V30 1858 C 212.786 -3.55547 3.98023 0
M  V30 1859 O 213.009 -4.62004 3.34528 0
M  V30 1860 O 211.943 -3.47808 4.91237 0
M  V30 1861 H 215.769 -0.839559 2.91865 0
M  V30 1862 H 213.354 -0.349453 1.45256 0
M  V30 1863 H 215.236 -3.27747 2.64877 0
M  V30 1864 H 213.911 -2.85198 1.53114 0
M  V30 1865 H 212.818 -1.51207 3.4218 0
M  V30 1866 H 214.151 -2.00741 4.49404 0
M  V30 1867 N 215.803 -1.52179 -0.40978 0
M  V30 1868 C 217.049 -1.66453 -1.15851 0
M  V30 1869 C 217.382 -0.392972 -1.90182 0
M  V30 1870 O 216.657 0.608579 -1.84734 0
M  V30 1871 C 216.94 -2.88612 -2.15349 0
M  V30 1872 C 216.793 -4.25815 -1.44918 0
M  V30 1873 C 218.112 -3.06294 -3.16026 0
M  V30 1874 H 215.231 -0.60575 -0.419805 0
M  V30 1875 H 217.873 -1.84732 -0.444314 0
M  V30 1876 H 216.023 -2.73158 -2.76255 0
M  V30 1877 H 217.695 -4.52995 -0.871365 0
M  V30 1878 H 215.938 -4.27247 -0.751159 0
M  V30 1879 H 216.609 -5.07337 -2.17516 0
M  V30 1880 H 219.085 -3.20641 -2.65195 0
M  V30 1881 H 217.961 -3.93283 -3.8291 0
M  V30 1882 H 218.222 -2.19579 -3.83715 0
M  V30 1883 N 217.281 0.66697 -1.42791 0
M  V30 1884 C 218.228 1.7803 -1.4688 0
M  V30 1885 C 219.198 1.6299 -0.319919 0
M  V30 1886 O 220.383 1.83432 -0.525118 0
M  V30 1887 C 217.523 3.1611 -1.38451 0
M  V30 1888 C 216.636 3.42381 -2.63437 0
M  V30 1889 C 215.771 4.70232 -2.47094 0
M  V30 1890 C 214.81 4.89564 -3.67415 0
M  V30 1891 N 213.947 6.08661 -3.49966 0
M  V30 1892 H 218.787 1.7387 -2.42019 0
M  V30 1893 H 216.324 0.84868 -1.20149 0
M  V30 1894 H 218.282 3.95914 -1.31561 0
M  V30 1895 H 216.912 3.19374 -0.469033 0
M  V30 1896 H 215.964 2.56774 -2.80662 0
M  V30 1897 H 217.276 3.52557 -3.52853 0
M  V30 1898 H 216.43 5.5814 -2.37834 0
M  V30 1899 H 215.169 4.62353 -1.5518 0
M  V30 1900 H 214.174 4.00096 -3.77099 0
M  V30 1901 H 215.399 4.99282 -4.6032 0
M  V30 1902 H 213.345 6.0194 -2.60776 0
M  V30 1903 H 213.262 6.19733 -4.32975 0
M  V30 1904 H 214.53 6.99226 -3.44532 0
M  V30 1905 N 218.759 1.29093 0.90403 0
M  V30 1906 C 220.008 1.16187 1.64874 0
M  V30 1907 C 220.321 -0.286742 1.93487 0
M  V30 1908 O 221.527 -0.537062 2.66135 0
M  V30 1909 C 219.983 2.03177 2.97064 0
M  V30 1910 C 219.591 3.52836 2.76062 0
M  V30 1911 C 221.335 1.98984 3.74974 0
M  V30 1912 C 219.242 4.31945 4.03952 0
M  V30 1913 H 218.172 0.431246 0.618501 0
M  V30 1914 H 220.823 1.53699 1.00243 0
M  V30 1915 H 219.205 1.5853 3.62883 0
M  V30 1916 H 220.379 4.05507 2.18863 0
M  V30 1917 H 218.694 3.58656 2.11553 0
M  V30 1918 H 221.291 2.55351 4.69787 0
M  V30 1919 H 221.634 0.968815 4.0487 0
M  V30 1920 H 222.167 2.41652 3.15989 0
M  V30 1921 H 218.906 5.34667 3.79225 0
M  V30 1922 H 218.426 3.84045 4.60727 0
M  V30 1923 H 220.105 4.42379 4.72133 0
M  V30 1924 N 220.237 -1.11381 1.11499 0
M  V30 1925 C 221.653 -1.35143 0.849031 0
M  V30 1926 C 221.853 -1.94515 -0.525938 0
M  V30 1927 O 220.909 -2.1785 -1.27662 0
M  V30 1928 C 222.222 -2.28249 1.95762 0
M  V30 1929 C 223.77 -2.41812 1.98736 0
M  V30 1930 C 224.245 -3.3824 3.088 0
M  V30 1931 N 225.736 -3.45803 3.08179 0
M  V30 1932 C 226.471 -4.20358 3.89982 0
M  V30 1933 N 225.967 -4.97884 4.8175 0
M  V30 1934 N 227.76 -4.15877 3.78157 0
M  V30 1935 H 219.911 -0.712062 2.00109 0
M  V30 1936 H 222.174 -0.376025 0.870235 0
M  V30 1937 H 221.88 -1.91817 2.94787 0
M  V30 1938 H 221.754 -3.28473 1.85433 0
M  V30 1939 H 224.141 -2.77518 1.00338 0
M  V30 1940 H 224.222 -1.41437 2.13141 0
M  V30 1941 H 223.866 -3.03261 4.07425 0
M  V30 1942 H 223.796 -4.38471 2.91635 0
M  V30 1943 H 226.287 -2.90506 2.41691 0
M  V30 1944 H 226.6 -5.52142 5.40702 0
M  V30 1945 H 224.945 -4.97043 4.85771 0
M  V30 1946 H 228.136 -3.544 3.05808 0
M  V30 1947 H 228.309 -4.73723 4.42143 0
M  V30 1948 N 221.715 -0.905404 -1.28997 0
M  V30 1949 C 222.992 -0.453513 -1.9027 0
M  V30 1950 C 223.372 1.06721 -1.82137 0
M  V30 1951 O 222.72 1.91159 -1.25182 0
M  V30 1952 C 222.93 -0.974494 -3.35119 0
M  V30 1953 C 224.278 -1.0216 -4.12127 0
M  V30 1954 O 225.302 -0.922557 -3.44046 0
M  V30 1955 O 224.161 -1.17121 -5.33802 0
M  V30 1956 H 221.255 -0.142347 -0.814657 0
M  V30 1957 H 223.801 -0.995642 -1.37423 0
M  V30 1958 H 222.573 -2.01848 -3.35221 0
M  V30 1959 H 222.196 -0.412706 -3.95452 0
M  V30 1960 N 223.193 1.4272 -0.668489 0
M  V30 1961 C 224.439 2.02443 -0.197076 0
M  V30 1962 C 224.794 1.51882 1.18109 0
M  V30 1963 O 224.087 0.708618 1.78015 0
M  V30 1964 C 224.281 3.57021 -0.164499 0
M  V30 1965 C 224.11 4.22583 -1.53797 0
M  V30 1966 C 222.88 4.58019 -2.13416 0
M  V30 1967 C 225.078 4.50588 -2.47941 0
M  V30 1968 N 223.06 5.08729 -3.4361 0
M  V30 1969 C 224.431 5.02782 -3.62782 0
M  V30 1970 C 226.486 4.32571 -2.46551 0
M  V30 1971 C 225.189 5.38852 -4.76478 0
M  V30 1972 C 227.215 4.69713 -3.59338 0
M  V30 1973 C 226.577 5.22053 -4.72906 0
M  V30 1974 H 222.676 0.773214 -0.116894 0
M  V30 1975 H 225.26 1.73673 -0.880108 0
M  V30 1976 H 223.431 3.85323 0.487925 0
M  V30 1977 H 225.163 4.03439 0.319207 0
M  V30 1978 H 221.918 4.43566 -1.65969 0
M  V30 1979 H 222.342 5.38521 -4.10273 0
M  V30 1980 H 226.984 3.91365 -1.59978 0
M  V30 1981 H 224.702 5.78993 -5.63731 0
M  V30 1982 H 228.288 4.57454 -3.59482 0
M  V30 1983 H 227.168 5.50258 -5.58736 0
M  V30 1984 N 224.671 0.411399 1.52136 0
M  V30 1985 C 225.901 -0.16284 2.05957 0
M  V30 1986 C 226.309 -1.3922 1.28119 0
M  V30 1987 O 225.652 -1.80768 0.326881 0
M  V30 1988 C 225.714 -0.575946 3.54856 0
M  V30 1989 C 225.378 0.542998 4.53763 0
M  V30 1990 C 226.375 1.40726 5.00492 0
M  V30 1991 C 224.06 0.716337 4.97166 0
M  V30 1992 C 226.054 2.4298 5.8927 0
M  V30 1993 C 223.741 1.74218 5.8574 0
M  V30 1994 C 224.739 2.59731 6.31687 0
M  V30 1995 O 224.427 3.60558 7.18507 0
M  V30 1996 H 224.159 -0.0229125 0.675612 0
M  V30 1997 H 226.713 0.581634 1.96993 0
M  V30 1998 H 224.943 -1.37274 3.61515 0
M  V30 1999 H 226.632 -1.07836 3.91313 0
M  V30 2000 H 227.398 1.28476 4.67674 0
M  V30 2001 H 223.277 0.0603857 4.6096 0
M  V30 2002 H 226.821 3.0976 6.25055 0
M  V30 2003 H 222.718 1.86498 6.17971 0
M  V30 2004 H 223.486 3.56829 7.36624 0
M  V30 2005 N 226.149 -1.5696 0.141893 0
M  V30 2006 C 227.081 -2.13619 -0.830627 0
M  V30 2007 C 228.094 -1.08439 -1.21428 0
M  V30 2008 O 229.283 -1.35734 -1.15925 0
M  V30 2009 C 226.383 -2.63978 -2.12529 0
M  V30 2010 C 225.556 -3.93504 -1.9098 0
M  V30 2011 C 224.615 -4.29225 -3.04388 0
M  V30 2012 O 223.641 -4.97641 -2.76302 0
M  V30 2013 N 224.843 -3.88393 -4.31429 0
M  V30 2014 H 227.608 -2.97691 -0.34641 0
M  V30 2015 H 225.169 -1.61846 -0.0418375 0
M  V30 2016 H 227.161 -2.84891 -2.87436 0
M  V30 2017 H 225.731 -1.84659 -2.52229 0
M  V30 2018 H 224.951 -3.81269 -1.00139 0
M  V30 2019 H 226.239 -4.78154 -1.73914 0
M  V30 2020 H 225.637 -3.33257 -4.57117 0
M  V30 2021 H 224.194 -4.14368 -5.03133 0
M  V30 2022 N 227.627 0.131896 -1.57047 0
M  V30 2023 C 229.043 0.485031 -1.52051 0
M  V30 2024 C 229.243 1.82563 -0.85281 0
M  V30 2025 O 228.299 2.48817 -0.429694 0
M  V30 2026 C 229.612 0.481409 -2.96821 0
M  V30 2027 C 231.16 0.565868 -3.07842 0
M  V30 2028 C 231.635 0.592762 -4.54148 0
M  V30 2029 N 233.126 0.654564 -4.58552 0
M  V30 2030 C 233.861 0.696608 -5.69153 0
M  V30 2031 N 233.357 0.697078 -6.89284 0
M  V30 2032 N 235.15 0.738639 -5.57226 0
M  V30 2033 H 227.301 -0.746664 -1.98843 0
M  V30 2034 H 229.564 -0.273999 -0.90754 0
M  V30 2035 H 229.27 -0.435731 -3.4899 0
M  V30 2036 H 229.144 1.3139 -3.53577 0
M  V30 2037 H 231.531 1.47343 -2.55684 0
M  V30 2038 H 231.612 -0.29406 -2.54104 0
M  V30 2039 H 231.256 -0.310701 -5.06949 0
M  V30 2040 H 231.186 1.46939 -5.05684 0
M  V30 2041 H 233.677 0.660887 -3.72076 0
M  V30 2042 H 233.99 0.731426 -7.69331 0
M  V30 2043 H 232.335 0.66471 -6.91814 0
M  V30 2044 H 235.526 0.735545 -4.62285 0
M  V30 2045 H 235.699 0.767938 -6.43434 0
M  V30 2046 N 229.106 1.52395 0.401703 0
M  V30 2047 C 230.038 1.72505 1.50912 0
M  V30 2048 C 231.051 0.605468 1.51122 0
M  V30 2049 O 232.24 0.880828 1.55254 0
M  V30 2050 C 229.34 1.75711 2.89791 0
M  V30 2051 C 228.513 3.04824 3.1369 0
M  V30 2052 C 227.572 2.99743 4.32482 0
M  V30 2053 O 226.598 3.73635 4.29402 0
M  V30 2054 N 227.8 2.18047 5.37992 0
M  V30 2055 H 230.565 2.68049 1.34052 0
M  V30 2056 H 228.126 1.50724 0.591084 0
M  V30 2057 H 230.118 1.69834 3.6734 0
M  V30 2058 H 228.688 0.876092 3.00072 0
M  V30 2059 H 227.908 3.2429 2.24119 0
M  V30 2060 H 229.196 3.90221 3.26504 0
M  V30 2061 H 228.594 1.57456 5.43345 0
M  V30 2062 H 227.151 2.18021 6.14256 0
M  V30 2063 N 230.584 -0.659388 1.43143 0
M  V30 2064 C 232 -0.974337 1.26407 0
M  V30 2065 C 232.2 -2.007 0.179341 0
M  V30 2066 O 231.256 -2.4856 -0.444295 0
M  V30 2067 C 232.569 -1.46447 2.62628 0
M  V30 2068 C 234.117 -1.58144 2.7011 0
M  V30 2069 C 234.592 -2.1055 4.06734 0
M  V30 2070 N 236.083 -2.17861 4.08767 0
M  V30 2071 C 236.818 -2.59519 5.1131 0
M  V30 2072 N 236.314 -3.00518 6.24228 0
M  V30 2073 N 238.107 -2.59404 4.98664 0
M  V30 2074 H 230.258 0.0240528 2.12386 0
M  V30 2075 H 232.521 -0.0518065 0.946583 0
M  V30 2076 H 232.227 -0.780123 3.42939 0
M  V30 2077 H 232.101 -2.44058 2.87603 0
M  V30 2078 H 234.488 -2.25682 1.90136 0
M  V30 2079 H 234.569 -0.589828 2.48907 0
M  V30 2080 H 234.213 -1.43616 4.87172 0
M  V30 2081 H 234.143 -3.10531 4.25298 0
M  V30 2082 H 236.634 -1.88975 3.27257 0
M  V30 2083 H 236.947 -3.31036 6.98309 0
M  V30 2084 H 235.292 -2.98337 6.2771 0
M  V30 2085 H 238.483 -2.26747 4.09516 0
M  V30 2086 H 238.656 -2.91548 5.78709 0
M  V30 2087 N 232.062 -1.29571 -0.897171 0
M  V30 2088 C 233.473 -1.15964 -1.46319 0
M  V30 2089 C 233.824 0.244267 -1.94674 0
M  V30 2090 O 232.949 1.13998 -1.83939 0
M  V30 2091 C 233.544 -2.09906 -2.65942 0
M  V30 2092 C 232.103 -2.00314 -3.18671 0
M  V30 2093 C 231.25 -2.00687 -1.91363 0
M  V30 2094 H 234.201 -1.42019 -0.708268 0
M  V30 2095 H 234.222 -1.67276 -3.41759 0
M  V30 2096 H 233.734 -3.12075 -2.30718 0
M  V30 2097 H 231.835 -1.01242 -3.58582 0
M  V30 2098 H 231.948 -2.88102 -3.82798 0
M  V30 2099 H 230.312 -1.45319 -2.09175 0
M  V30 2100 H 231.095 -3.04566 -1.58413 0
M  V30 2101 N 233.54 1.10788 -1.12088 0
M  V30 2102 C 234.765 1.87002 -0.896949 0
M  V30 2103 C 235.19 1.79933 0.548261 0
M  V30 2104 O 234.548 1.16662 1.38779 0
M  V30 2105 C 234.596 3.3349 -1.37174 0
M  V30 2106 O 233.7 4.08745 -0.547831 0
M  V30 2107 H 233.041 0.580397 -0.322545 0
M  V30 2108 H 235.571 1.39996 -1.49206 0
M  V30 2109 H 235.581 3.84339 -1.36922 0
M  V30 2110 H 234.256 3.37951 -2.42408 0
M  V30 2111 H 232.833 3.6776 -0.617034 0
M  V30 2112 N 235.018 0.912232 1.28515 0
M  V30 2113 C 235.928 0.404506 2.31086 0
M  V30 2114 C 236.944 -0.50707 1.66448 0
M  V30 2115 O 238.12 -0.393624 1.97516 0
M  V30 2116 C 235.185 -0.348572 3.44943 0
M  V30 2117 C 234.246 0.59604 4.25142 0
M  V30 2118 C 233.479 -0.121194 5.33562 0
M  V30 2119 O 233.702 -1.34317 5.5436 0
M  V30 2120 O 232.636 0.542716 5.99448 0
M  V30 2121 H 236.462 1.25579 2.76521 0
M  V30 2122 H 234.047 0.676998 1.33181 0
M  V30 2123 H 235.929 -0.77395 4.14232 0
M  V30 2124 H 234.604 -1.17571 3.01594 0
M  V30 2125 H 233.511 1.07079 3.58448 0
M  V30 2126 H 234.844 1.38995 4.72167 0
M  V30 2127 N 236.496 -1.42363 0.676048 0
M  V30 2128 C 237.745 -2.00745 0.196037 0
M  V30 2129 C 238.058 -1.54083 -1.20489 0
M  V30 2130 O 239.264 -2.04891 -1.78134 0
M  V30 2131 C 237.72 -3.58651 0.299616 0
M  V30 2132 C 237.328 -4.143 1.70468 0
M  V30 2133 C 239.072 -4.24326 -0.121619 0
M  V30 2134 C 236.979 -5.64574 1.76096 0
M  V30 2135 H 235.909 -0.750787 0.0695301 0
M  V30 2136 H 238.56 -1.63072 0.841412 0
M  V30 2137 H 236.942 -3.93833 -0.413673 0
M  V30 2138 H 238.116 -3.90575 2.44515 0
M  V30 2139 H 236.431 -3.61081 2.07387 0
M  V30 2140 H 239.028 -5.34607 -0.0997362 0
M  V30 2141 H 239.371 -3.99897 -1.15708 0
M  V30 2142 H 239.904 -3.94108 0.540706 0
M  V30 2143 H 236.643 -5.93804 2.77628 0
M  V30 2144 H 236.163 -5.90286 1.06406 0
M  V30 2145 H 237.842 -6.29013 1.51496 0
M  V30 2146 N 237.974 -0.419461 -1.51915 0
M  V30 2147 C 238.921 0.400927 -2.27291 0
M  V30 2148 C 239.891 1.03224 -1.30131 0
M  V30 2149 O 241.076 1.05455 -1.59009 0
M  V30 2150 C 238.216 1.50603 -3.10504 0
M  V30 2151 C 237.329 0.89462 -4.22635 0
M  V30 2152 C 236.464 1.97328 -4.93189 0
M  V30 2153 C 235.503 1.33935 -5.97267 0
M  V30 2154 N 234.64 2.3586 -6.61298 0
M  V30 2155 H 239.48 -0.248251 -2.96964 0
M  V30 2156 H 237.017 -0.134266 -1.46486 0
M  V30 2157 H 238.975 2.15783 -3.57062 0
M  V30 2158 H 237.605 2.12509 -2.42981 0
M  V30 2159 H 236.657 0.131583 -3.80172 0
M  V30 2160 H 237.969 0.391641 -4.9726 0
M  V30 2161 H 237.123 2.70211 -5.43204 0
M  V30 2162 H 235.862 2.50994 -4.18155 0
M  V30 2163 H 234.867 0.595896 -5.46561 0
M  V30 2164 H 236.092 0.810252 -6.74249 0
M  V30 2165 H 234.038 2.88639 -5.89087 0
M  V30 2166 H 233.955 1.90403 -7.3163 0
M  V30 2167 H 235.223 3.08282 -7.15949 0
M  V30 2168 N 239.452 1.56882 -0.150215 0
M  V30 2169 C 240.729 1.87844 0.545327 0
M  V30 2170 C 241.109 1.0567 1.82749 0
M  V30 2171 O 240.457 0.144442 2.28043 0
M  V30 2172 C 240.667 3.39526 0.80767 0
M  V30 2173 C 242.015 4.08814 1.14703 0
M  V30 2174 O 243.039 3.44723 0.896917 0
M  V30 2175 O 241.898 5.22004 1.61784 0
M  V30 2176 H 238.992 0.778677 0.278553 0
M  V30 2177 H 241.538 1.68666 -0.187068 0
M  V30 2178 H 240.31 3.91173 -0.0996096 0
M  V30 2179 H 239.933 3.64243 1.59413 0
M  V30 2180 N 240.93 -0.123565 1.57115 0
M  V30 2181 C 242.16 -0.845233 1.88519 0
M  V30 2182 C 242.568 -1.74168 0.739064 0
M  V30 2183 O 241.911 -1.81244 -0.299355 0
M  V30 2184 C 241.973 -1.73452 3.14888 0
M  V30 2185 C 241.637 -1.01285 4.45635 0
M  V30 2186 C 242.634 -0.355774 5.18681 0
M  V30 2187 C 240.319 -0.99538 4.92339 0
M  V30 2188 C 242.313 0.309114 6.3665 0
M  V30 2189 C 240 -0.32669 6.10226 0
M  V30 2190 C 240.998 0.324406 6.82229 0
M  V30 2191 O 240.686 0.982437 7.97874 0
M  V30 2192 H 240.418 -0.248534 0.628655 0
M  V30 2193 H 242.972 -0.113907 2.05084 0
M  V30 2194 H 241.202 -2.50737 2.94394 0
M  V30 2195 H 242.891 -2.33021 3.32349 0
M  V30 2196 H 243.657 -0.360918 4.83655 0
M  V30 2197 H 239.536 -1.49159 4.36202 0
M  V30 2198 H 243.08 0.8179 6.92789 0
M  V30 2199 H 238.977 -0.319294 6.4471 0
M  V30 2200 H 239.745 0.886454 8.13686 0
M  V30 2201 N 242.408 -1.52605 -0.393616 0
M  V30 2202 C 243.633 -1.71592 -1.16495 0
M  V30 2203 C 244.058 -0.43133 -1.83088 0
M  V30 2204 O 243.416 0.612523 -1.7064 0
M  V30 2205 C 243.464 -2.86318 -2.19213 0
M  V30 2206 O 242.568 -2.52969 -3.257 0
M  V30 2207 H 241.909 -0.570734 -0.33935 0
M  V30 2208 H 244.439 -1.99377 -0.459324 0
M  V30 2209 H 244.449 -3.1168 -2.63286 0
M  V30 2210 H 243.124 -3.79511 -1.7013 0
M  V30 2211 H 241.701 -2.38332 -2.86797 0
M  V30 2212 N 243.887 0.651787 -1.4349 0
M  V30 2213 C 245.298 1.233 -1.40193 0
M  V30 2214 C 245.649 1.9591 -0.106727 0
M  V30 2215 O 244.774 2.01316 0.793773 0
M  V30 2216 C 245.369 2.24257 -2.53957 0
M  V30 2217 C 243.928 2.77852 -2.5392 0
M  V30 2218 C 243.075 1.52517 -2.3159 0
M  V30 2219 H 246.026 0.443717 -1.52371 0
M  V30 2220 H 246.047 3.0646 -2.25528 0
M  V30 2221 H 245.559 1.71382 -3.4821 0
M  V30 2222 H 243.66 3.34786 -1.63551 0
M  V30 2223 H 243.773 3.25299 -3.51735 0
M  V30 2224 H 242.137 1.79915 -1.80285 0
M  V30 2225 H 242.92 1.01574 -3.27929 0
M  V30 2226 N 245.365 1.30045 0.890287 0
M  V30 2227 C 246.595 1.21296 1.67245 0
M  V30 2228 C 247.003 -0.227471 1.87828 0
M  V30 2229 O 246.346 -1.16296 1.422 0
M  V30 2230 C 246.408 1.86519 3.07329 0
M  V30 2231 C 246.072 3.35837 3.09939 0
M  V30 2232 C 247.069 4.31915 2.89389 0
M  V30 2233 C 244.754 3.77196 3.31706 0
M  V30 2234 C 246.748 5.67325 2.90552 0
M  V30 2235 C 244.435 5.12725 3.32499 0
M  V30 2236 C 245.433 6.076 3.11947 0
M  V30 2237 O 245.121 7.40655 3.12547 0
M  V30 2238 H 244.853 0.4211 0.528821 0
M  V30 2239 H 247.407 1.72111 1.12103 0
M  V30 2240 H 245.637 1.30228 3.64112 0
M  V30 2241 H 247.326 1.71963 3.67673 0
M  V30 2242 H 248.092 4.01294 2.72375 0
M  V30 2243 H 243.971 3.03796 3.4674 0
M  V30 2244 H 247.515 6.41354 2.74429 0
M  V30 2245 H 243.412 5.42988 3.49047 0
M  V30 2246 H 244.18 7.49577 3.28749 0
M  V30 2247 N 246.843 -1.10192 1.12674 0
M  V30 2248 C 248.09 -1.82205 0.883606 0
M  V30 2249 C 248.418 -1.8532 -0.590492 0
M  V30 2250 O 247.673 -1.31137 -1.45264 0
M  V30 2251 C 247.972 -3.28552 1.4067 0
M  V30 2252 C 247.638 -3.45582 2.89627 0
M  V30 2253 C 246.3 -3.49937 3.30299 0
M  V30 2254 C 248.652 -3.50768 3.85501 0
M  V30 2255 C 245.98 -3.57049 4.65546 0
M  V30 2256 C 248.332 -3.59414 5.20581 0
M  V30 2257 C 246.996 -3.62034 5.60792 0
M  V30 2258 H 246.266 -0.666735 0.323334 0
M  V30 2259 H 248.913 -1.29868 1.40736 0
M  V30 2260 H 247.218 -3.83473 0.80347 0
M  V30 2261 H 248.915 -3.82788 1.19475 0
M  V30 2262 H 245.505 -3.42871 2.57172 0
M  V30 2263 H 249.689 -3.46651 3.55171 0
M  V30 2264 H 244.945 -3.57361 4.96088 0
M  V30 2265 H 249.119 -3.62371 5.94693 0
M  V30 2266 H 246.746 -3.67298 6.6558 0
M  V30 2267 N 248.321 -0.919034 -1.28029 0
M  V30 2268 C 249.268 -0.410005 -2.27129 0
M  V30 2269 C 250.238 0.518405 -1.57803 0
M  V30 2270 O 251.423 0.439451 -1.8567 0
M  V30 2271 C 248.563 0.339054 -3.4343 0
M  V30 2272 C 247.676 -0.622468 -4.27492 0
M  V30 2273 C 246.811 0.145567 -5.31001 0
M  V30 2274 C 245.85 -0.809226 -6.06727 0
M  V30 2275 N 244.987 -0.0743728 -7.02061 0
M  V30 2276 H 249.827 -1.26011 -2.70047 0
M  V30 2277 H 247.364 -0.632663 -1.328 0
M  V30 2278 H 249.322 0.789586 -4.0966 0
M  V30 2279 H 247.952 1.15346 -3.01488 0
M  V30 2280 H 247.004 -1.19153 -3.61257 0
M  V30 2281 H 248.316 -1.35252 -4.80113 0
M  V30 2282 H 247.47 0.656417 -6.03139 0
M  V30 2283 H 246.209 0.908643 -4.79161 0
M  V30 2284 H 245.214 -1.3314 -5.33436 0
M  V30 2285 H 246.439 -1.57194 -6.60656 0
M  V30 2286 H 244.385 0.670616 -6.52563 0
M  V30 2287 H 244.302 -0.744157 -7.52329 0
M  V30 2288 H 245.57 0.416109 -7.78389 0
M  V30 2289 N 249.799 1.42003 -0.683588 0
M  V30 2290 C 251.027 2.05746 -0.218182 0
M  V30 2291 C 251.442 1.51396 1.12804 0
M  V30 2292 O 250.799 0.657303 1.70252 0
M  V30 2293 C 250.85 3.61171 -0.154131 0
M  V30 2294 O 250.571 4.13508 -1.44716 0
M  V30 2295 C 252.072 4.42042 0.333713 0
M  V30 2296 H 249.292 0.662888 -0.10402 0
M  V30 2297 H 251.836 1.81987 -0.9328 0
M  V30 2298 H 249.991 3.84012 0.511231 0
M  V30 2299 H 250.405 5.07453 -1.32632 0
M  V30 2300 H 251.879 5.51028 0.327423 0
M  V30 2301 H 252.356 4.17269 1.37053 0
M  V30 2302 H 252.962 4.24239 -0.300222 0
M  V30 2303 N 251.277 0.427512 1.51691 0
M  V30 2304 C 252.526 -0.143679 2.01188 0
M  V30 2305 C 252.839 -1.44642 1.31674 0
M  V30 2306 O 254.045 -2.09997 1.72086 0
M  V30 2307 C 252.501 -0.306602 3.58592 0
M  V30 2308 C 252.109 0.985125 4.37035 0
M  V30 2309 C 253.853 -0.832091 4.16265 0
M  V30 2310 C 251.76 0.788382 5.86122 0
M  V30 2311 H 250.69 -0.0574701 0.751807 0
M  V30 2312 H 253.341 0.555772 1.74881 0
M  V30 2313 H 251.723 -1.06882 3.81303 0
M  V30 2314 H 252.897 1.75492 4.26074 0
M  V30 2315 H 251.212 1.4384 3.90767 0
M  V30 2316 H 253.809 -0.995617 5.25349 0
M  V30 2317 H 254.152 -1.81186 3.74803 0
M  V30 2318 H 254.685 -0.128444 3.97593 0
M  V30 2319 H 251.424 1.74025 6.31978 0
M  V30 2320 H 250.944 0.0582143 5.99772 0
M  V30 2321 H 252.623 0.437722 6.45518 0
M  V30 2322 N 252.755 -1.56801 0.158532 0
M  V30 2323 C 253.665 -2.20916 -0.789518 0
M  V30 2324 C 254.681 -1.1969 -1.26294 0
M  V30 2325 O 255.857 -1.52308 -1.31773 0
M  V30 2326 C 252.922 -2.82727 -2.00665 0
M  V30 2327 C 251.983 -3.99114 -1.58134 0
M  V30 2328 C 251.216 -4.57968 -2.74045 0
M  V30 2329 O 251.439 -4.15704 -3.90572 0
M  V30 2330 O 250.373 -5.48047 -2.48855 0
M  V30 2331 H 254.199 -3.02464 -0.273681 0
M  V30 2332 H 251.784 -1.4924 -0.0690548 0
M  V30 2333 H 253.666 -3.21968 -2.71872 0
M  V30 2334 H 252.341 -2.04184 -2.51179 0
M  V30 2335 H 251.248 -3.64567 -0.839155 0
M  V30 2336 H 252.581 -4.79212 -1.12325 0
M  V30 2337 N 254.233 0.115231 -1.57178 0
M  V30 2338 C 255.51 0.852873 -1.76027 0
M  V30 2339 C 255.89 1.97892 -0.73498 0
M  V30 2340 O 255.238 2.27232 0.24036 0
M  V30 2341 C 255.448 1.36608 -3.21153 0
M  V30 2342 C 256.796 1.81692 -3.83762 0
M  V30 2343 O 257.82 1.46278 -3.24779 0
M  V30 2344 O 256.679 2.47104 -4.87444 0
M  V30 2345 H 253.773 0.405296 -0.720877 0
M  V30 2346 H 256.319 0.0986785 -1.69413 0
M  V30 2347 H 255.091 0.558357 -3.87296 0
M  V30 2348 H 254.714 2.18287 -3.3232 0
M  V30 2349 N 255.711 1.52812 0.385517 0
M  V30 2350 C 256.641 1.80808 1.47752 0
M  V30 2351 C 257.622 0.660318 1.5676 0
M  V30 2352 O 258.807 0.908246 1.71652 0
M  V30 2353 C 255.937 1.98008 2.85324 0
M  V30 2354 C 254.891 3.13709 2.91154 0
M  V30 2355 C 254.217 3.16169 4.31209 0
M  V30 2356 C 255.517 4.52709 2.60483 0
M  V30 2357 H 257.211 2.72253 1.24573 0
M  V30 2358 H 254.757 1.31003 0.597839 0
M  V30 2359 H 256.71 2.16176 3.61726 0
M  V30 2360 H 255.434 1.03255 3.09848 0
M  V30 2361 H 254.093 2.95329 2.17201 0
M  V30 2362 H 253.741 2.19092 4.52778 0
M  V30 2363 H 253.441 3.93894 4.36029 0
M  V30 2364 H 254.965 3.36496 5.09512 0
M  V30 2365 H 256.379 4.71173 3.26602 0
M  V30 2366 H 254.776 5.32528 2.76648 0
M  V30 2367 H 255.846 4.59186 1.55809 0
M  V30 2368 N 257.189 -0.644168 1.43834 0
M  V30 2369 C 258.605 -0.960875 1.27434 0
M  V30 2370 C 258.805 -2.00499 0.200618 0
M  V30 2371 O 257.861 -2.49018 -0.417906 0
M  V30 2372 C 259.174 -1.43653 2.64167 0
M  V30 2373 C 260.722 -1.55271 2.71772 0
M  V30 2374 C 261.197 -2.06224 4.08944 0
M  V30 2375 N 262.688 -2.13513 4.11055 0
M  V30 2376 C 263.423 -2.54081 5.14033 0
M  V30 2377 N 262.919 -2.9388 6.27381 0
M  V30 2378 N 264.712 -2.54101 5.01387 0
M  V30 2379 H 256.863 0.0465779 2.12349 0
M  V30 2380 H 259.126 -0.0417638 0.94708 0
M  V30 2381 H 258.832 -0.743706 3.43747 0
M  V30 2382 H 258.706 -2.40993 2.90176 0
M  V30 2383 H 261.093 -2.23653 1.92519 0
M  V30 2384 H 261.174 -0.563395 2.49519 0
M  V30 2385 H 260.818 -1.38441 4.88668 0
M  V30 2386 H 260.748 -3.06003 4.28567 0
M  V30 2387 H 263.239 -1.85493 3.29242 0
M  V30 2388 H 263.552 -3.2361 7.01781 0
M  V30 2389 H 261.897 -2.91663 6.30839 0
M  V30 2390 H 265.088 -2.22391 4.11898 0
M  V30 2391 H 265.261 -2.85394 5.81768 0
M  V30 2392 N 258.668 -1.30515 -0.883378 0
M  V30 2393 C 259.616 -1.16941 -2.01066 0
M  V30 2394 C 260.61 -0.0809148 -1.69207 0
M  V30 2395 O 261.816 -0.241877 -1.78367 0
M  V30 2396 H 258.191 -0.361705 -0.659298 0
M  V30 2397 H 260.162 -2.12344 -2.09649 0
M  V30 2398 C 258.911 -0.879694 -3.36388 0
M  V30 2399 H 258.234 -1.70936 -3.61415 0
M  V30 2400 H 259.674 -0.82483 -4.159 0
M  V30 2401 C 258.133 0.417409 -3.34304 0
M  V30 2402 O 258.663 1.43843 -3.75063 0
M  V30 2403 N 256.869 0.429141 -2.87414 0
M  V30 2404 H 256.416 -0.402222 -2.5444 0
M  V30 2405 H 256.374 1.29696 -2.86403 0
M  V30 2406 N 260.146 1.09593 -1.13257 0
M  V30 2407 C 261.093 2.1618 -0.808381 0
M  V30 2408 C 262.063 1.64517 0.228754 0
M  V30 2409 O 263.248 1.9053 0.101381 0
M  V30 2410 C 260.388 3.43973 -0.278675 0
M  V30 2411 C 259.501 4.09545 -1.37466 0
M  V30 2412 C 258.636 5.25088 -0.803479 0
M  V30 2413 C 257.675 5.82579 -1.87799 0
M  V30 2414 N 256.812 6.89486 -1.32488 0
M  V30 2415 H 261.652 2.43254 -1.72138 0
M  V30 2416 H 259.189 1.19392 -0.859294 0
M  V30 2417 H 261.147 4.17174 0.0465583 0
M  V30 2418 H 259.777 3.17223 0.597459 0
M  V30 2419 H 258.829 3.34226 -1.81652 0
M  V30 2420 H 260.141 4.48307 -2.18684 0
M  V30 2421 H 259.295 6.05178 -0.429427 0
M  V30 2422 H 258.034 4.87684 0.0397956 0
M  V30 2423 H 257.039 5.01152 -2.26113 0
M  V30 2424 H 258.264 6.22045 -2.72463 0
M  V30 2425 H 256.21 6.54064 -0.503575 0
M  V30 2426 H 256.127 7.27007 -2.07355 0
M  V30 2427 H 257.395 7.73336 -0.978336 0
M  V30 2428 N 261.624 0.925811 1.2754 0
M  V30 2429 C 262.873 0.561084 1.93739 0
M  V30 2430 C 263.186 -0.901685 1.73577 0
M  V30 2431 O 264.392 -1.37511 2.34101 0
M  V30 2432 C 262.848 0.952668 3.47062 0
M  V30 2433 C 262.456 2.43599 3.75983 0
M  V30 2434 C 264.2 0.659103 4.19352 0
M  V30 2435 C 262.107 2.76707 5.22673 0
M  V30 2436 H 261.037 0.206122 0.725279 0
M  V30 2437 H 263.688 1.12637 1.44863 0
M  V30 2438 H 262.07 0.316053 3.94737 0
M  V30 2439 H 263.244 3.12035 3.39073 0
M  V30 2440 H 261.559 2.70125 3.16893 0
M  V30 2441 H 264.156 0.882985 5.27359 0
M  V30 2442 H 264.499 -0.403607 4.14339 0
M  V30 2443 H 265.032 1.25473 3.77494 0
M  V30 2444 H 261.771 3.8188 5.32774 0
M  V30 2445 H 261.291 2.12919 5.60737 0
M  V30 2446 H 262.97 2.6435 5.90532 0
M  V30 2447 N 263.102 -1.41638 0.69111 0
M  V30 2448 C 264.351 -2.00526 0.217318 0
M  V30 2449 C 264.664 -1.55353 -1.18848 0
M  V30 2450 O 265.87 -2.06769 -1.75951 0
M  V30 2451 C 264.326 -3.58313 0.337639 0
M  V30 2452 C 263.934 -4.12469 1.74852 0
M  V30 2453 C 265.678 -4.24431 -0.0766066 0
M  V30 2454 C 263.585 -5.62675 1.82074 0
M  V30 2455 H 262.515 -0.750008 0.0774893 0
M  V30 2456 H 265.166 -1.6217 0.858661 0
M  V30 2457 H 263.548 -3.9425 -0.371879 0
M  V30 2458 H 264.722 -3.8796 2.48644 0
M  V30 2459 H 263.037 -3.58861 2.11205 0
M  V30 2460 H 265.634 -5.34683 -0.0430284 0
M  V30 2461 H 265.977 -4.01101 -1.1146 0
M  V30 2462 H 266.51 -3.93512 0.582476 0
M  V30 2463 H 263.249 -5.90826 2.83911 0
M  V30 2464 H 262.769 -5.89124 1.12661 0
M  V30 2465 H 264.448 -6.27371 1.58159 0
M  V30 2466 N 264.58 -0.43555 -1.51462 0
M  V30 2467 C 265.543 0.365137 -2.26273 0
M  V30 2468 C 266.543 0.951227 -1.29647 0
M  V30 2469 O 267.733 0.825958 -1.53374 0
M  V30 2470 C 264.865 1.51645 -3.05314 0
M  V30 2471 H 266.058 -0.290474 -2.9849 0
M  V30 2472 H 263.611 -0.188676 -1.55157 0
M  V30 2473 H 264.346 2.20816 -2.3751 0
M  V30 2474 H 264.131 1.10238 -3.76284 0
M  V30 2475 H 265.621 2.08218 -3.61987 0
M  V30 2476 N 266.058 1.56714 -0.166846 0
M  V30 2477 C 267.021 2.16539 0.751232 0
M  V30 2478 C 268.021 1.11228 1.16125 0
M  V30 2479 O 269.211 1.36765 1.07894 0
M  V30 2480 C 266.343 2.74462 2.02196 0
M  V30 2481 H 267.536 2.99013 0.230499 0
M  V30 2482 H 265.089 1.56081 0.0826982 0
M  V30 2483 H 265.824 1.95709 2.58589 0
M  V30 2484 H 265.609 3.51527 1.73698 0
M  V30 2485 H 267.099 3.20489 2.67725 0
M  V30 2486 N 267.536 -0.106894 1.57237 0
M  V30 2487 C 268.764 -0.826389 1.8968 0
M  V30 2488 C 269.179 -1.72856 0.759353 0
M  V30 2489 O 268.536 -1.80503 -0.269263 0
M  V30 2490 C 268.587 -1.64967 3.21665 0
M  V30 2491 O 268.308 -0.783804 4.31031 0
M  V30 2492 C 269.809 -2.47326 3.67892 0
M  V30 2493 H 267.029 -0.236927 0.627779 0
M  V30 2494 H 269.573 -0.0876593 2.04312 0
M  V30 2495 H 267.728 -2.34103 3.08666 0
M  V30 2496 H 268.142 -1.35284 5.06753 0
M  V30 2497 H 269.616 -3.00604 4.6297 0
M  V30 2498 H 270.093 -3.25247 2.95146 0
M  V30 2499 H 270.699 -1.83411 3.83719 0
M  V30 2500 N 269.014 -1.53014 -0.377408 0
M  V30 2501 C 270.263 -1.67845 -1.11853 0
M  V30 2502 C 270.576 -0.430625 -1.90801 0
M  V30 2503 O 271.782 -0.459261 -2.67587 0
M  V30 2504 C 270.238 -2.96668 -2.03756 0
M  V30 2505 C 269.846 -4.28671 -1.30175 0
M  V30 2506 C 271.59 -3.20865 -2.77932 0
M  V30 2507 C 269.497 -5.48591 -2.20911 0
M  V30 2508 H 268.427 -0.625343 -0.421263 0
M  V30 2509 H 271.078 -1.79514 -0.380409 0
M  V30 2510 H 269.46 -2.78773 -2.8125 0
M  V30 2511 H 270.634 -4.57157 -0.578259 0
M  V30 2512 H 268.949 -4.10825 -0.679108 0
M  V30 2513 H 271.546 -4.07642 -3.46024 0
M  V30 2514 H 271.889 -2.36424 -3.4265 0
M  V30 2515 H 272.422 -3.39379 -2.07525 0
M  V30 2516 H 269.161 -6.35474 -1.6079 0
M  V30 2517 H 268.681 -5.244 -2.91144 0
M  V30 2518 H 270.36 -5.8292 -2.80736 0
M  V30 2519 N 270.492 0.636531 -1.44174 0
M  V30 2520 C 271.402 1.77754 -1.53103 0
M  V30 2521 C 272.418 1.68928 -0.417034 0
M  V30 2522 O 273.594 1.89801 -0.6736 0
M  V30 2523 C 270.659 3.14115 -1.46741 0
M  V30 2524 C 269.72 3.34612 -2.68948 0
M  V30 2525 C 268.953 4.64467 -2.6288 0
M  V30 2526 O 269.176 5.44919 -1.68581 0
M  V30 2527 O 268.11 4.87049 -3.53648 0
M  V30 2528 H 271.936 1.73174 -2.49489 0
M  V30 2529 H 269.521 0.79709 -1.2636 0
M  V30 2530 H 271.403 3.95412 -1.45696 0
M  V30 2531 H 270.078 3.19249 -0.534975 0
M  V30 2532 H 268.985 2.53014 -2.75562 0
M  V30 2533 H 270.318 3.34336 -3.61221 0
M  V30 2534 N 271.97 1.30982 0.876444 0
M  V30 2535 C 272.918 1.18006 2.00443 0
M  V30 2536 C 273.912 0.0898871 1.69161 0
M  V30 2537 O 275.118 0.251333 1.78237 0
M  V30 2538 H 271.493 0.365196 0.65737 0
M  V30 2539 H 273.464 2.13453 2.0852 0
M  V30 2540 C 272.213 0.897521 3.35916 0
M  V30 2541 H 271.536 1.7285 3.60504 0
M  V30 2542 H 272.976 0.846874 4.15456 0
M  V30 2543 C 271.435 -0.399674 3.34521 0
M  V30 2544 O 271.965 -1.41852 3.7582 0
M  V30 2545 N 270.171 -0.413893 2.87637 0
M  V30 2546 H 269.718 0.41571 2.54224 0
M  V30 2547 H 269.676 -1.28175 2.87086 0
M  V30 2548 N 273.449 -1.08991 1.13837 0
M  V30 2549 C 274.412 -2.13925 0.822715 0
M  V30 2550 C 275.412 -1.599 -0.1699 0
M  V30 2551 O 276.602 -1.74104 0.0577251 0
M  V30 2552 C 273.734 -3.40155 0.225318 0
M  V30 2553 H 274.927 -2.43358 1.75262 0
M  V30 2554 H 272.48 -1.24603 0.943594 0
M  V30 2555 H 273.215 -3.16352 -0.713594 0
M  V30 2556 H 273 -3.80661 0.940193 0
M  V30 2557 H 274.49 -4.17594 0.0214784 0
M  V30 2558 N 274.927 -0.932562 -1.27047 0
M  V30 2559 C 275.859 -0.392734 -2.2581 0
M  V30 2560 C 276.872 0.479241 -1.55586 0
M  V30 2561 O 278.061 0.291078 -1.76111 0
M  V30 2562 C 275.161 0.455456 -3.35826 0
M  V30 2563 C 274.334 -0.398355 -4.35582 0
M  V30 2564 C 273.393 0.387985 -5.24768 0
M  V30 2565 O 272.419 -0.206003 -5.68827 0
M  V30 2566 N 273.621 1.68664 -5.55457 0
M  V30 2567 H 276.386 -1.24173 -2.72766 0
M  V30 2568 H 273.947 -0.800511 -1.40725 0
M  V30 2569 H 275.939 0.988692 -3.92437 0
M  V30 2570 H 274.509 1.20522 -2.88432 0
M  V30 2571 H 273.729 -1.11286 -3.78165 0
M  V30 2572 H 275.017 -0.981889 -4.99236 0
M  V30 2573 H 274.415 2.19147 -5.21528 0
M  V30 2574 H 272.972 2.1663 -6.14748 0
M  V30 2575 N 276.405 1.4127 -0.698611 0
M  V30 2576 C 277.816 1.84187 -0.305289 0
M  V30 2577 C 278.167 1.58449 1.15708 0
M  V30 2578 O 277.292 1.05651 1.88856 0
M  V30 2579 C 277.887 3.3435 -0.547314 0
M  V30 2580 C 276.446 3.75826 -0.207878 0
M  V30 2581 C 275.593 2.64647 -0.828099 0
M  V30 2582 H 278.544 1.30778 -0.89904 0
M  V30 2583 H 278.565 3.8001 0.192998 0
M  V30 2584 H 278.077 3.53051 -1.61172 0
M  V30 2585 H 276.178 3.62725 0.852143 0
M  V30 2586 H 276.291 4.74462 -0.665021 0
M  V30 2587 H 274.655 2.53395 -0.257458 0
M  V30 2588 H 275.438 2.86165 -1.89643 0
M  V30 2589 N 277.883 0.443576 1.51229 0
M  V30 2590 C 279.132 -0.122332 2.01329 0
M  V30 2591 C 279.445 -1.43237 1.33201 0
M  V30 2592 O 280.651 -2.0816 1.74304 0
M  V30 2593 C 279.107 -0.268551 3.58897 0
M  V30 2594 C 278.715 1.03142 4.35965 0
M  V30 2595 C 280.459 -0.787894 4.17124 0
M  V30 2596 C 278.366 0.850504 5.85252 0
M  V30 2597 H 277.296 -0.0494929 0.752374 0
M  V30 2598 H 279.947 0.574289 1.74282 0
M  V30 2599 H 278.329 -1.02832 3.82415 0
M  V30 2600 H 279.503 1.80001 4.24189 0
M  V30 2601 H 277.818 1.47977 3.89219 0
M  V30 2602 H 280.415 -0.939841 5.26375 0
M  V30 2603 H 280.758 -1.77201 3.76703 0
M  V30 2604 H 281.291 -0.0862669 3.97706 0
M  V30 2605 H 278.03 1.80718 6.30096 0
M  V30 2606 H 277.55 0.121825 5.99676 0
M  V30 2607 H 279.229 0.506163 6.45017 0
M  V30 2608 N 279.361 -1.56624 0.175154 0
M  V30 2609 C 280.291 -2.21155 -0.749195 0
M  V30 2610 C 281.272 -1.16836 -1.23626 0
M  V30 2611 O 282.457 -1.45277 -1.28873 0
M  V30 2612 C 279.587 -2.8553 -1.97711 0
M  V30 2613 C 278.541 -3.95921 -1.62575 0
M  V30 2614 C 277.867 -4.47365 -2.92864 0
M  V30 2615 C 279.167 -5.15323 -0.850838 0
M  V30 2616 H 280.861 -2.98653 -0.211295 0
M  V30 2617 H 278.407 -1.43651 -0.100188 0
M  V30 2618 H 280.36 -3.2935 -2.62881 0
M  V30 2619 H 279.084 -2.05406 -2.53921 0
M  V30 2620 H 277.743 -3.52762 -0.997719 0
M  V30 2621 H 277.391 -3.64027 -3.47122 0
M  V30 2622 H 277.091 -5.21839 -2.70106 0
M  V30 2623 H 278.615 -4.93873 -3.59056 0
M  V30 2624 H 280.029 -5.55812 -1.40521 0
M  V30 2625 H 278.426 -5.95739 -0.722154 0
M  V30 2626 H 279.496 -4.84661 0.152082 0
M  V30 2627 N 280.839 0.0985539 -1.57292 0
M  V30 2628 C 281.771 1.14595 -1.98496 0
M  V30 2629 C 282.784 1.36512 -0.887031 0
M  V30 2630 O 283.973 1.35225 -1.16518 0
M  V30 2631 C 281.073 2.50216 -2.28572 0
M  V30 2632 C 280.246 2.48624 -3.59868 0
M  V30 2633 C 279.305 3.66146 -3.7792 0
M  V30 2634 O 278.331 3.48795 -4.49812 0
M  V30 2635 N 279.533 4.85496 -3.18235 0
M  V30 2636 H 282.298 0.795277 -2.88956 0
M  V30 2637 H 279.859 0.287579 -1.59325 0
M  V30 2638 H 281.851 3.27432 -2.37845 0
M  V30 2639 H 280.421 2.77387 -1.44136 0
M  V30 2640 H 279.641 1.56978 -3.61596 0
M  V30 2641 H 280.929 2.44635 -4.46129 0
M  V30 2642 H 280.327 5.02497 -2.59833 0
M  V30 2643 H 278.884 5.60317 -3.32999 0
M  V30 2644 N 282.317 1.53212 0.369288 0
M  V30 2645 C 283.566 1.68436 1.10961 0
M  V30 2646 C 283.879 0.440738 1.9057 0
M  V30 2647 O 285.085 0.473446 2.6734 0
M  V30 2648 C 283.541 2.97744 2.0218 0
M  V30 2649 C 283.149 4.29355 1.279 0
M  V30 2650 C 284.893 3.22334 2.76226 0
M  V30 2651 C 282.8 5.49755 2.17999 0
M  V30 2652 H 281.73 0.627568 0.41794 0
M  V30 2653 H 284.381 1.79713 0.370884 0
M  V30 2654 H 282.763 2.8026 2.79768 0
M  V30 2655 H 283.937 4.57458 0.554007 0
M  V30 2656 H 282.252 4.11179 0.657311 0
M  V30 2657 H 284.849 4.09471 3.43857 0
M  V30 2658 H 285.192 2.38238 3.41392 0
M  V30 2659 H 285.725 3.40475 2.05723 0
M  V30 2660 H 282.464 6.36318 1.57417 0
M  V30 2661 H 281.984 5.25937 2.88359 0
M  V30 2662 H 283.663 5.84401 2.77641 0
M  V30 2663 N 283.795 -0.628877 1.44509 0
M  V30 2664 C 285.072 -1.38733 1.37886 0
M  V30 2665 C 285.452 -2.11065 0.0387008 0
M  V30 2666 O 284.8 -2.06476 -0.97878 0
M  V30 2667 C 285.01 -2.35188 2.57852 0
M  V30 2668 C 286.358 -2.9845 3.02014 0
M  V30 2669 O 287.382 -2.45513 2.58073 0
M  V30 2670 O 286.241 -3.94487 3.78209 0
M  V30 2671 H 283.335 -0.621015 0.54614 0
M  V30 2672 H 285.881 -0.653744 1.56602 0
M  V30 2673 H 284.653 -1.80855 3.46998 0
M  V30 2674 H 284.276 -3.1596 2.4136 0
M  V30 2675 N 285.273 -1.31445 -0.869486 0
M  V30 2676 C 286.221 -1.19067 -1.99814 0
M  V30 2677 C 287.215 -0.0988569 -1.69111 0
M  V30 2678 O 288.421 -0.260781 -1.78101 0
M  V30 2679 H 284.796 -0.368677 -0.655425 0
M  V30 2680 H 286.767 -2.14555 -2.07385 0
M  V30 2681 C 285.516 -0.915323 -3.35436 0
M  V30 2682 H 284.839 -1.74759 -3.59582 0
M  V30 2683 H 286.279 -0.868895 -4.15001 0
M  V30 2684 C 284.738 0.381928 -3.34728 0
M  V30 2685 O 285.268 1.39857 -3.76567 0
M  V30 2686 N 283.474 0.398633 -2.87853 0
M  V30 2687 H 283.021 -0.429186 -2.54 0
M  V30 2688 H 282.979 1.26651 -2.87762 0
M  V30 2689 N 286.751 1.08385 -1.14413 0
M  V30 2690 C 287.714 2.13486 -0.834048 0
M  V30 2691 C 288.714 1.59988 0.161418 0
M  V30 2692 O 289.904 1.74071 -0.0669575 0
M  V30 2693 C 287.036 3.4003 -0.243354 0
M  V30 2694 H 288.229 2.42425 -1.7655 0
M  V30 2695 H 285.782 1.24101 -0.950189 0
M  V30 2696 H 286.517 3.16726 0.696807 0
M  V30 2697 H 286.302 3.80157 -0.960367 0
M  V30 2698 H 287.792 4.17577 -0.0436242 0
M  V30 2699 N 288.23 0.939286 1.26551 0
M  V30 2700 C 289.646 0.641304 1.46149 0
M  V30 2701 C 289.846 -0.805964 1.84679 0
M  V30 2702 O 288.902 -1.58278 1.96734 0
M  V30 2703 C 290.215 1.6011 2.54529 0
M  V30 2704 C 291.763 1.6106 2.68382 0
M  V30 2705 C 292.238 2.55765 3.79932 0
M  V30 2706 N 293.729 2.5404 3.87322 0
M  V30 2707 C 294.464 3.24004 4.73085 0
M  V30 2708 N 293.96 4.03388 5.63249 0
M  V30 2709 N 295.753 3.12965 4.66914 0
M  V30 2710 H 287.904 1.87478 0.998285 0
M  V30 2711 H 290.167 0.805559 0.499779 0
M  V30 2712 H 289.873 2.63412 2.33039 0
M  V30 2713 H 289.747 1.35171 3.52149 0
M  V30 2714 H 292.134 0.584835 2.89247 0
M  V30 2715 H 292.215 1.90053 1.71212 0
M  V30 2716 H 291.859 3.58458 3.5982 0
M  V30 2717 H 291.789 2.24063 4.76554 0
M  V30 2718 H 294.28 1.96396 3.22858 0
M  V30 2719 H 294.593 4.5373 6.25579 0
M  V30 2720 H 292.938 4.07489 5.63008 0
M  V30 2721 H 296.129 2.50432 3.95476 0
M  V30 2722 H 296.302 3.67759 5.33533 0
M  V30 2723 N 289.708 -1.40897 0.706093 0
M  V30 2724 C 290.638 -2.33418 0.0620085 0
M  V30 2725 C 291.619 -1.52385 -0.755827 0
M  V30 2726 O 292.804 -1.80886 -0.706674 0
M  V30 2727 C 289.934 -3.36293 -0.867445 0
M  V30 2728 C 288.888 -4.27716 -0.155932 0
M  V30 2729 C 288.214 -5.2105 -1.20046 0
M  V30 2730 C 289.514 -5.12944 0.984149 0
M  V30 2731 H 291.208 -2.87527 0.83477 0
M  V30 2732 H 288.754 -1.38249 0.402875 0
M  V30 2733 H 290.707 -3.99949 -1.32735 0
M  V30 2734 H 289.431 -2.80556 -1.67199 0
M  V30 2735 H 288.09 -3.65498 0.284047 0
M  V30 2736 H 287.738 -4.61624 -1.99781 0
M  V30 2737 H 287.438 -5.83056 -0.729328 0
M  V30 2738 H 288.962 -5.87584 -1.66066 0
M  V30 2739 H 290.376 -5.70109 0.604048 0
M  V30 2740 H 288.773 -5.83945 1.38304 0
M  V30 2741 H 289.843 -4.49485 1.81911 0
M  V30 2742 N 291.186 -0.45159 -1.50991 0
M  V30 2743 C 292.149 0.341117 -2.26647 0
M  V30 2744 C 293.149 0.937422 -1.30649 0
M  V30 2745 O 294.339 0.809644 -1.54241 0
M  V30 2746 C 291.471 1.48398 -3.06905 0
M  V30 2747 H 292.664 -0.322117 -2.98165 0
M  V30 2748 H 290.217 -0.205122 -1.54948 0
M  V30 2749 H 290.952 2.18284 -2.39838 0
M  V30 2750 H 290.737 1.06241 -3.77432 0
M  V30 2751 H 292.227 2.04367 -3.64176 0
M  V30 2752 N 292.664 1.56529 -0.183458 0
M  V30 2753 C 293.627 2.17324 0.728223 0
M  V30 2754 C 294.627 1.12453 1.14939 0
M  V30 2755 O 295.817 1.37902 1.06437 0
M  V30 2756 C 292.949 2.76591 1.99274 0
M  V30 2757 H 294.142 2.99241 0.198772 0
M  V30 2758 H 291.695 1.5616 0.0661391 0
M  V30 2759 H 292.43 1.98441 2.56499 0
M  V30 2760 H 292.215 3.5335 1.69959 0
M  V30 2761 H 293.705 3.23311 2.6431 0
M  V30 2762 N 294.142 -0.090211 1.57342 0
M  V30 2763 C 295.419 -0.824761 1.77361 0
M  V30 2764 C 295.799 -1.96698 0.76637 0
M  V30 2765 O 295.147 -2.27586 -0.204179 0
M  V30 2766 C 295.357 -1.31481 3.23286 0
M  V30 2767 C 296.705 -1.75563 3.86604 0
M  V30 2768 O 297.729 -1.41093 3.27065 0
M  V30 2769 O 296.588 -2.39317 4.91314 0
M  V30 2770 H 293.682 -0.393776 0.727234 0
M  V30 2771 H 296.228 -0.0717138 1.69548 0
M  V30 2772 H 295 -0.496671 3.88135 0
M  V30 2773 H 294.623 -2.12973 3.35751 0
M  V30 2774 N 295.62 -1.53406 -0.361157 0
M  V30 2775 C 296.897 -1.60411 -1.11927 0
M  V30 2776 C 297.277 -0.414385 -2.06993 0
M  V30 2777 O 296.625 0.594976 -2.20618 0
M  V30 2778 C 296.835 -2.95652 -1.85448 0
M  V30 2779 C 298.183 -3.50386 -2.39823 0
M  V30 2780 O 299.207 -2.97711 -1.95568 0
M  V30 2781 O 298.066 -4.42482 -3.20737 0
M  V30 2782 H 295.16 -0.64811 -0.513695 0
M  V30 2783 H 297.706 -1.65749 -0.364065 0
M  V30 2784 H 296.478 -3.73682 -1.16091 0
M  V30 2785 H 296.101 -2.93825 -2.67866 0
M  V30 2786 N 297.098 0.621204 -1.44841 0
M  V30 2787 C 298.345 1.38055 -1.48145 0
M  V30 2788 C 298.673 1.94143 -0.117867 0
M  V30 2789 O 297.928 1.74713 0.881694 0
M  V30 2790 C 298.227 2.55675 -2.4973 0
M  V30 2791 C 297.893 2.17817 -3.94799 0
M  V30 2792 C 296.555 2.07205 -4.34303 0
M  V30 2793 C 298.907 1.88065 -4.86087 0
M  V30 2794 C 296.235 1.65045 -5.63007 0
M  V30 2795 C 298.587 1.47394 -6.15189 0
M  V30 2796 C 297.251 1.35331 -6.53637 0
M  V30 2797 H 296.521 0.505181 -0.542101 0
M  V30 2798 H 299.168 0.703477 -1.78111 0
M  V30 2799 H 297.473 3.2866 -2.13284 0
M  V30 2800 H 299.17 3.13904 -2.4953 0
M  V30 2801 H 295.76 2.26998 -3.63552 0
M  V30 2802 H 299.944 1.95168 -4.56315 0
M  V30 2803 H 295.2 1.54317 -5.91605 0
M  V30 2804 H 299.374 1.23415 -6.85377 0
M  V30 2805 H 297.001 1.02435 -7.53267 0
M  V30 2806 N 298.576 1.31904 0.862503 0
M  V30 2807 C 299.992 1.10724 1.14945 0
M  V30 2808 C 300.192 -0.117421 2.01158 0
M  V30 2809 O 299.248 -0.804595 2.39338 0
M  V30 2810 C 300.561 2.38267 1.83437 0
M  V30 2811 C 302.109 2.43949 1.96106 0
M  V30 2812 C 302.584 3.71394 2.68013 0
M  V30 2813 N 304.075 3.72331 2.75543 0
M  V30 2814 C 304.81 4.67641 3.31812 0
M  V30 2815 N 304.306 5.73313 3.88953 0
M  V30 2816 N 306.099 4.5515 3.29841 0
M  V30 2817 H 298.25 2.10436 0.288191 0
M  V30 2818 H 300.513 0.928705 0.190292 0
M  V30 2819 H 300.219 3.27759 1.27542 0
M  V30 2820 H 300.093 2.48633 2.83657 0
M  V30 2821 H 302.48 1.54922 2.51164 0
M  V30 2822 H 302.561 2.37543 0.949059 0
M  V30 2823 H 302.205 4.60791 2.13621 0
M  V30 2824 H 302.135 3.75069 3.69636 0
M  V30 2825 H 304.626 2.95947 2.34997 0
M  V30 2826 H 304.939 6.42107 4.30022 0
M  V30 2827 H 303.284 5.77077 3.87308 0
M  V30 2828 H 306.475 3.71766 2.84443 0
M  V30 2829 H 306.648 5.29604 3.73394 0
M  V30 2830 N 300.054 -1.07777 1.14986 0
M  V30 2831 C 301.282 -1.84018 0.945773 0
M  V30 2832 C 301.697 -1.81897 -0.505863 0
M  V30 2833 O 301.054 -1.22726 -1.35072 0
M  V30 2834 C 301.105 -3.31287 1.44677 0
M  V30 2835 O 300.826 -3.33449 2.84154 0
M  V30 2836 C 302.327 -4.24311 1.28355 0
M  V30 2837 H 299.547 -0.580716 0.336169 0
M  V30 2838 H 302.091 -1.36077 1.52654 0
M  V30 2839 H 300.246 -3.76594 0.908625 0
M  V30 2840 H 300.66 -4.25427 3.06777 0
M  V30 2841 H 302.134 -5.2573 1.68261 0
M  V30 2842 H 302.611 -4.38612 0.227184 0
M  V30 2843 H 303.217 -3.84836 1.81056 0
M  V30 2844 N 301.532 -0.945985 -1.26051 0
M  V30 2845 C 302.479 -0.45809 -2.26208 0
M  V30 2846 C 303.449 0.484816 -1.58867 0
M  V30 2847 O 304.634 0.399969 -1.86561 0
M  V30 2848 C 301.774 0.266131 -3.44072 0
M  V30 2849 C 300.887 -0.713005 -4.26075 0
M  V30 2850 C 300.022 0.0329013 -5.3119 0
M  V30 2851 C 299.061 -0.93774 -6.04874 0
M  V30 2852 N 298.198 -0.223274 -7.01745 0
M  V30 2853 H 303.038 -1.3171 -2.67313 0
M  V30 2854 H 300.575 -0.66069 -1.31428 0
M  V30 2855 H 302.533 0.702514 -4.11243 0
M  V30 2856 H 301.163 1.08925 -3.03867 0
M  V30 2857 H 300.215 -1.26789 -3.58648 0
M  V30 2858 H 301.527 -1.45406 -4.77136 0
M  V30 2859 H 300.681 0.528335 -6.04395 0
M  V30 2860 H 299.42 0.806801 -4.8098 0
M  V30 2861 H 298.425 -1.44425 -5.30492 0
M  V30 2862 H 299.65 -1.71172 -6.57173 0
M  V30 2863 H 297.596 0.532046 -6.53839 0
M  V30 2864 H 297.513 -0.90357 -7.50581 0
M  V30 2865 H 298.781 0.250907 -7.79096 0
M  V30 2866 N 303.011 1.40521 -0.713556 0
M  V30 2867 C 304.241 2.0494 -0.261395 0
M  V30 2868 C 304.649 1.53861 1.10107 0
M  V30 2869 O 303.992 0.689321 1.70276 0
M  V30 2870 C 304.054 3.59138 -0.161227 0
M  V30 2871 C 303.718 4.33096 -1.45865 0
M  V30 2872 C 304.715 4.61182 -2.40016 0
M  V30 2873 C 302.4 4.72043 -1.71701 0
M  V30 2874 C 304.394 5.27196 -3.58251 0
M  V30 2875 C 302.081 5.37789 -2.90218 0
M  V30 2876 C 303.079 5.65295 -3.83315 0
M  V30 2877 O 302.767 6.29683 -4.99754 0
M  V30 2878 H 302.499 0.666041 -0.115608 0
M  V30 2879 H 305.053 1.80954 -0.971849 0
M  V30 2880 H 303.283 3.81936 0.605153 0
M  V30 2881 H 304.972 4.05091 0.256105 0
M  V30 2882 H 305.738 4.31559 -2.21318 0
M  V30 2883 H 301.617 4.50003 -1.00092 0
M  V30 2884 H 305.161 5.48582 -4.30934 0
M  V30 2885 H 301.058 5.66831 -3.08825 0
M  V30 2886 H 301.826 6.4818 -4.99805 0
M  V30 2887 N 304.489 0.459591 1.5075 0
M  V30 2888 C 305.399 -0.34613 2.32033 0
M  V30 2889 C 306.415 -1.00686 1.41909 0
M  V30 2890 O 307.591 -0.997361 1.7497 0
M  V30 2891 C 304.656 -1.42029 3.16273 0
M  V30 2892 C 303.717 -0.777362 4.22203 0
M  V30 2893 C 302.95 -1.80034 5.02418 0
M  V30 2894 O 303.173 -3.02544 4.83553 0
M  V30 2895 O 302.107 -1.37853 5.85901 0
M  V30 2896 H 305.933 0.318054 3.0203 0
M  V30 2897 H 303.518 0.221663 1.47746 0
M  V30 2898 H 305.4 -2.04275 3.68578 0
M  V30 2899 H 304.075 -2.06815 2.49016 0
M  V30 2900 H 302.982 -0.116256 3.73919 0
M  V30 2901 H 304.315 -0.172634 4.91897 0
M  V30 2902 N 305.967 -1.56429 0.191757 0
M  V30 2903 C 306.917 -2.15548 -0.743184 0
M  V30 2904 C 307.901 -1.09531 -1.17863 0
M  V30 2905 O 309.093 -1.35602 -1.13759 0
M  V30 2906 C 306.222 -2.81577 -1.96391 0
M  V30 2907 C 305.308 -3.9478 -1.54951 0
M  V30 2908 N 305.699 -4.98677 -0.845876 0
M  V30 2909 C 303.997 -4.06319 -1.83905 0
M  V30 2910 C 304.698 -5.78183 -0.638724 0
M  V30 2911 N 303.674 -5.30495 -1.18643 0
M  V30 2912 H 307.476 -2.9324 -0.196839 0
M  V30 2913 H 304.99 -1.62398 -0.0081603 0
M  V30 2914 H 306.987 -3.22321 -2.64415 0
M  V30 2915 H 305.647 -2.05371 -2.51501 0
M  V30 2916 H 306.658 -5.15464 -0.501704 0
M  V30 2917 H 303.335 -3.41238 -2.40548 0
M  V30 2918 H 304.725 -6.71851 -0.0807929 0
M  V30 2919 N 307.445 0.0818655 -1.57387 0
M  V30 2920 C 308.355 1.11642 -2.06333 0
M  V30 2921 C 309.371 1.43033 -0.99083 0
M  V30 2922 O 310.547 1.53411 -1.30488 0
M  V30 2923 C 307.612 2.41342 -2.48907 0
M  V30 2924 C 306.673 2.17014 -3.7041 0
M  V30 2925 C 305.906 3.4053 -4.10944 0
M  V30 2926 O 306.129 4.4927 -3.51444 0
M  V30 2927 O 305.063 3.29336 -5.03807 0
M  V30 2928 H 308.889 0.730657 -2.9478 0
M  V30 2929 H 306.474 0.295301 -1.46452 0
M  V30 2930 H 308.356 3.17691 -2.76858 0
M  V30 2931 H 307.031 2.79319 -1.63593 0
M  V30 2932 H 305.938 1.38403 -3.47556 0
M  V30 2933 H 307.271 1.83923 -4.56545 0
M  V30 2934 N 308.923 1.53595 0.353017 0
M  V30 2935 C 309.853 1.83902 1.43883 0
M  V30 2936 C 310.834 0.693421 1.55324 0
M  V30 2937 O 312.019 0.944452 1.69687 0
M  V30 2938 C 309.149 2.04016 2.8106 0
M  V30 2939 C 308.103 3.19814 2.84434 0
M  V30 2940 C 307.429 3.25244 4.24406 0
M  V30 2941 C 308.729 4.58133 2.50822 0
M  V30 2942 H 310.423 2.74835 1.1877 0
M  V30 2943 H 307.969 1.32242 0.569917 0
M  V30 2944 H 309.922 2.238 3.57059 0
M  V30 2945 H 308.646 1.09804 3.07588 0
M  V30 2946 H 307.305 2.9987 2.10887 0
M  V30 2947 H 306.953 2.28646 4.48029 0
M  V30 2948 H 306.653 4.03054 4.27576 0
M  V30 2949 H 308.177 3.47228 5.0226 0
M  V30 2950 H 309.591 4.77995 3.16534 0
M  V30 2951 H 307.988 5.38276 2.6529 0
M  V30 2952 H 309.058 4.62387 1.46034 0
M  V30 2953 N 310.401 -0.613514 1.45168 0
M  V30 2954 C 311.364 -1.7065 1.53007 0
M  V30 2955 C 312.364 -1.5548 0.410184 0
M  V30 2956 O 313.554 -1.60656 0.673455 0
M  V30 2957 C 310.686 -3.09875 1.42093 0
M  V30 2958 H 311.879 -1.65068 2.50385 0
M  V30 2959 H 309.432 -0.828728 1.32521 0
M  V30 2960 H 310.167 -3.21039 0.458769 0
M  V30 2961 H 309.952 -3.22293 2.23315 0
M  V30 2962 H 311.442 -3.895 1.50598 0
M  V30 2963 N 311.879 -1.3236 -0.855495 0
M  V30 2964 C 312.809 -1.23833 -1.97958 0
M  V30 2965 C 313.79 -0.122361 -1.69659 0
M  V30 2966 O 314.975 -0.30939 -1.9172 0
M  V30 2967 C 312.105 -0.959772 -3.33775 0
M  V30 2968 C 311.059 -2.03689 -3.76424 0
M  V30 2969 C 310.385 -1.61075 -5.09862 0
M  V30 2970 C 311.685 -3.4518 -3.9198 0
M  V30 2971 H 313.379 -2.1788 -2.0535 0
M  V30 2972 H 310.925 -1.04891 -0.986605 0
M  V30 2973 H 312.878 -0.886678 -4.11966 0
M  V30 2974 H 311.602 0.0163404 -3.26596 0
M  V30 2975 H 310.261 -2.10012 -3.00484 0
M  V30 2976 H 309.909 -0.622107 -4.99138 0
M  V30 2977 H 309.609 -2.33143 -5.39368 0
M  V30 2978 H 311.133 -1.55201 -5.90546 0
M  V30 2979 H 312.547 -3.4145 -4.60526 0
M  V30 2980 H 310.944 -4.1559 -4.32903 0
M  V30 2981 H 312.014 -3.84903 -2.94919 0
M  V30 2982 N 313.357 1.07166 -1.15556 0
M  V30 2983 C 314.773 1.31899 -0.898603 0
M  V30 2984 C 314.973 1.96333 0.453383 0
M  V30 2985 O 314.029 2.22438 1.19489 0
M  V30 2986 C 315.342 2.20826 -2.04099 0
M  V30 2987 C 316.89 2.34269 -2.07574 0
M  V30 2988 C 317.365 3.26546 -3.21141 0
M  V30 2989 N 318.856 3.34127 -3.20801 0
M  V30 2990 C 319.591 4.05595 -4.05315 0
M  V30 2991 N 319.087 4.79661 -4.99897 0
M  V30 2992 N 320.88 4.01555 -3.93332 0
M  V30 2993 H 313.031 0.637302 -2.02613 0
M  V30 2994 H 315.294 0.343468 -0.883591 0
M  V30 2995 H 315 1.80744 -3.01703 0
M  V30 2996 H 314.874 3.21364 -1.97496 0
M  V30 2997 H 317.261 2.73603 -1.10568 0
M  V30 2998 H 317.342 1.33429 -2.18244 0
M  V30 2999 H 316.986 2.87931 -4.184 0
M  V30 3000 H 316.916 4.27345 -3.07708 0
M  V30 3001 H 319.407 2.81336 -2.52306 0
M  V30 3002 H 319.72 5.31694 -5.60822 0
M  V30 3003 H 318.065 4.78671 -5.03884 0
M  V30 3004 H 321.256 3.42806 -3.18751 0
M  V30 3005 H 321.429 4.56987 -4.5942 0
M  V30 3006 N 314.835 0.952656 1.25548 0
M  V30 3007 C 315.767 0.428609 2.25157 0
M  V30 3008 C 316.78 -0.454428 1.56329 0
M  V30 3009 O 317.969 -0.263023 1.76552 0
M  V30 3010 C 315.069 -0.401972 3.36508 0
M  V30 3011 C 314.242 0.467601 4.34893 0
M  V30 3012 C 313.301 -0.30445 5.25319 0
M  V30 3013 O 312.327 0.296473 5.68427 0
M  V30 3014 N 313.529 -1.59805 5.5807 0
M  V30 3015 H 316.294 1.28497 2.70756 0
M  V30 3016 H 313.855 0.822798 1.39433 0
M  V30 3017 H 315.847 -0.926134 3.9396 0
M  V30 3018 H 314.417 -1.15918 2.90313 0
M  V30 3019 H 313.637 1.17288 3.76347 0
M  V30 3020 H 314.925 1.06119 4.97611 0
M  V30 3021 H 314.323 -2.10823 5.24948 0
M  V30 3022 H 312.88 -2.06822 6.18116 0
M  V30 3023 N 316.313 -1.40141 0.720998 0
M  V30 3024 C 317.541 -2.05096 0.272656 0
M  V30 3025 C 317.956 -1.54334 -1.0875 0
M  V30 3026 O 317.313 -0.702211 -1.6845 0
M  V30 3027 C 317.364 -3.60636 0.249835 0
M  V30 3028 O 317.085 -4.09526 1.55629 0
M  V30 3029 C 318.586 -4.42772 -0.216396 0
M  V30 3030 H 315.806 -0.659897 0.121558 0
M  V30 3031 H 318.35 -1.79449 0.980723 0
M  V30 3032 H 316.505 -3.85232 -0.409237 0
M  V30 3033 H 316.919 -5.03758 1.4604 0
M  V30 3034 H 318.393 -5.51702 -0.181212 0
M  V30 3035 H 318.87 -4.20756 -1.25941 0
M  V30 3036 H 319.476 -4.23294 0.412596 0
M  V30 3037 N 317.792 -0.46758 -1.50504 0
M  V30 3038 C 319.038 0.0887532 -2.02606 0
M  V30 3039 C 319.371 1.39686 -1.34913 0
M  V30 3040 O 318.646 1.88644 -0.473694 0
M  V30 3041 C 318.929 0.276206 -3.59039 0
M  V30 3042 C 318.782 -1.05267 -4.37309 0
M  V30 3043 C 320.101 1.03235 -4.27821 0
M  V30 3044 H 317.22 0.0307814 -0.736357 0
M  V30 3045 H 319.862 -0.612485 -1.79857 0
M  V30 3046 H 318.012 0.8735 -3.78553 0
M  V30 3047 H 319.684 -1.68628 -4.29374 0
M  V30 3048 H 317.927 -1.65015 -4.01189 0
M  V30 3049 H 318.598 -0.875197 -5.45018 0
M  V30 3050 H 321.074 0.526111 -4.12761 0
M  V30 3051 H 319.95 1.1323 -5.37094 0
M  V30 3052 H 320.211 2.06806 -3.90748 0
M  V30 3053 N 319.27 1.56325 -0.20005 0
M  V30 3054 C 320.18 2.22931 0.730668 0
M  V30 3055 C 321.196 1.22997 1.23076 0
M  V30 3056 O 322.372 1.55748 1.27689 0
M  V30 3057 C 319.437 2.87948 1.93098 0
M  V30 3058 C 318.498 4.03166 1.47497 0
M  V30 3059 C 317.731 4.65073 2.61807 0
M  V30 3060 O 317.954 4.25913 3.79413 0
M  V30 3061 O 316.888 5.54452 2.34237 0
M  V30 3062 H 320.714 3.03084 0.193391 0
M  V30 3063 H 318.299 1.49371 0.0294621 0
M  V30 3064 H 320.181 3.29063 2.6324 0
M  V30 3065 H 318.856 2.10771 2.45677 0
M  V30 3066 H 317.763 3.66664 0.742201 0
M  V30 3067 H 319.096 4.82022 0.995796 0
M  V30 3068 N 320.748 -0.0735177 1.57428 0
M  V30 3069 C 321.711 -1.07192 2.02589 0
M  V30 3070 C 322.711 -1.31695 0.922661 0
M  V30 3071 O 323.901 -1.27445 1.18758 0
M  V30 3072 C 321.033 -2.41599 2.40506 0
M  V30 3073 H 322.226 -0.682727 2.92025 0
M  V30 3074 H 319.779 -0.319193 1.53006 0
M  V30 3075 H 320.514 -2.85354 1.5409 0
M  V30 3076 H 320.299 -2.25156 3.21009 0
M  V30 3077 H 321.789 -3.13367 2.76027 0
M  V30 3078 N 322.226 -1.5378 -0.344866 0
M  V30 3079 C 323.503 -1.61589 -1.10219 0
M  V30 3080 C 323.883 -0.436316 -2.06542 0
M  V30 3081 O 323.231 0.571543 -2.21237 0
M  V30 3082 C 323.441 -2.97602 -1.82301 0
M  V30 3083 C 324.789 -3.5291 -2.36093 0
M  V30 3084 O 325.813 -2.99768 -1.924 0
M  V30 3085 O 324.672 -4.45859 -3.16026 0
M  V30 3086 H 321.766 -0.653522 -0.506792 0
M  V30 3087 H 324.312 -1.66126 -0.346465 0
M  V30 3088 H 323.084 -3.74893 -1.12121 0
M  V30 3089 H 322.707 -2.9665 -2.64735 0
M  V30 3090 N 323.704 0.605807 -1.45491 0
M  V30 3091 C 324.95 1.36679 -1.49823 0
M  V30 3092 C 325.283 1.93693 -0.140175 0
M  V30 3093 O 324.558 1.75158 0.845581 0
M  V30 3094 C 324.841 2.51337 -2.57879 0
M  V30 3095 C 324.694 1.99508 -4.03134 0
M  V30 3096 C 326.013 3.53463 -2.62205 0
M  V30 3097 H 323.132 0.495617 -0.545466 0
M  V30 3098 H 325.774 0.682732 -1.7731 0
M  V30 3099 H 323.924 3.09691 -2.34571 0
M  V30 3100 H 325.596 1.45789 -4.37656 0
M  V30 3101 H 323.839 1.30496 -4.13707 0
M  V30 3102 H 324.51 2.82169 -4.74431 0
M  V30 3103 H 326.986 3.04953 -2.83095 0
M  V30 3104 H 325.862 4.31178 -3.39672 0
M  V30 3105 H 326.123 4.09197 -1.67363 0
M  V30 3106 N 325.182 1.32811 0.848464 0
M  V30 3107 C 326.13 1.22231 1.97895 0
M  V30 3108 C 327.124 0.125749 1.68933 0
M  V30 3109 O 328.33 0.289083 1.77663 0
M  V30 3110 H 324.705 0.379058 0.649476 0
M  V30 3111 H 326.676 2.17828 2.03945 0
M  V30 3112 C 325.425 0.968572 3.33937 0
M  V30 3113 H 324.748 1.80458 3.56756 0
M  V30 3114 H 326.188 0.934808 4.13567 0
M  V30 3115 C 324.647 -0.328628 3.35293 0
M  V30 3116 O 325.177 -1.33848 3.78745 0
M  V30 3117 N 323.383 -0.352788 2.88451 0
M  V30 3118 H 322.93 0.469541 2.53285 0
M  V30 3119 H 322.888 -1.22057 2.89741 0
M  V30 3120 N 326.66 -1.06551 1.16123 0
M  V30 3121 C 327.908 -1.78947 0.939267 0
M  V30 3122 C 328.229 -1.87532 -0.534476 0
M  V30 3123 O 327.499 -1.38211 -1.38833 0
M  V30 3124 H 326.079 -0.662807 0.344523 0
M  V30 3125 H 328.741 -1.28725 1.46342 0
M  V30 3126 H 327.837 -2.81117 1.35572 0
M  V30 3127 N 328.138 -0.959301 -1.25041 0
M  V30 3128 C 329.068 -0.501388 -2.28053 0
M  V30 3129 C 330.049 0.454673 -1.63911 0
M  V30 3130 O 331.234 0.352618 -1.90972 0
M  V30 3131 C 328.364 0.217224 -3.4662 0
M  V30 3132 C 327.318 -0.654034 -4.22973 0
M  V30 3133 C 326.644 0.195589 -5.34342 0
M  V30 3134 C 327.944 -1.93447 -4.85155 0
M  V30 3135 H 329.638 -1.36238 -2.66608 0
M  V30 3136 H 327.184 -0.656534 -1.28163 0
M  V30 3137 H 329.137 0.548732 -4.17812 0
M  V30 3138 H 327.861 1.1125 -3.07068 0
M  V30 3139 H 326.52 -0.968693 -3.5357 0
M  V30 3140 H 326.168 1.09076 -4.91031 0
M  V30 3141 H 325.868 -0.384091 -5.86343 0
M  V30 3142 H 327.392 0.521958 -6.08365 0
M  V30 3143 H 328.806 -1.66908 -5.48466 0
M  V30 3144 H 327.203 -2.46018 -5.47353 0
M  V30 3145 H 328.273 -2.63466 -4.07079 0
M  V30 3146 N 329.616 1.39756 -0.72842 0
M  V30 3147 C 331.032 1.5442 -0.403308 0
M  V30 3148 C 331.232 1.69694 1.08656 0
M  V30 3149 O 330.288 1.69373 1.87267 0
M  V30 3150 C 331.601 2.76555 -1.18058 0
M  V30 3151 C 333.149 2.90384 -1.16815 0
M  V30 3152 C 333.624 4.15449 -1.92785 0
M  V30 3153 N 335.115 4.22475 -1.89918 0
M  V30 3154 C 335.85 5.1818 -2.45514 0
M  V30 3155 N 335.346 6.19714 -3.09719 0
M  V30 3156 N 337.139 5.1035 -2.35584 0
M  V30 3157 H 329.29 1.28089 -1.69431 0
M  V30 3158 H 331.553 0.620327 -0.716867 0
M  V30 3159 H 331.259 2.7159 -2.23455 0
M  V30 3160 H 331.133 3.69033 -0.780662 0
M  V30 3161 H 333.52 2.94846 -0.12234 0
M  V30 3162 H 333.601 1.98988 -1.6074 0
M  V30 3163 H 333.245 4.11749 -2.97364 0
M  V30 3164 H 333.175 5.05877 -1.46272 0
M  V30 3165 H 335.666 3.49743 -1.43138 0
M  V30 3166 H 335.979 6.8919 -3.49625 0
M  V30 3167 H 334.324 6.20121 -3.13807 0
M  V30 3168 H 337.515 4.2996 -1.85072 0
M  V30 3169 H 337.688 5.84761 -2.79211 0
M  V30 3170 N 331.094 0.475555 1.50254 0
M  V30 3171 C 332.51 0.12997 1.5907 0
M  V30 3172 C 332.71 -1.36385 1.48328 0
M  V30 3173 O 331.766 -2.13754 1.34407 0
M  V30 3174 C 333.079 0.684139 2.92814 0
M  V30 3175 C 334.627 0.647965 3.0622 0
M  V30 3176 C 335.102 1.17975 4.42545 0
M  V30 3177 N 336.593 1.13936 4.48969 0
M  V30 3178 C 337.328 1.52129 5.52851 0
M  V30 3179 N 336.824 1.97793 6.63965 0
M  V30 3180 N 338.617 1.43704 5.4342 0
M  V30 3181 H 330.768 1.44706 1.55479 0
M  V30 3182 H 333.031 0.598691 0.735033 0
M  V30 3183 H 332.737 1.73079 3.06164 0
M  V30 3184 H 332.611 0.130204 3.76975 0
M  V30 3185 H 334.998 -0.38979 2.92514 0
M  V30 3186 H 335.079 1.23876 2.23805 0
M  V30 3187 H 334.723 2.21616 4.57 0
M  V30 3188 H 334.653 0.565138 5.23559 0
M  V30 3189 H 337.144 0.804488 3.69238 0
M  V30 3190 H 337.457 2.25072 7.39299 0
M  V30 3191 H 335.802 2.01749 6.65073 0
M  V30 3192 H 338.993 1.07867 4.55502 0
M  V30 3193 H 339.166 1.73794 6.24259 0
M  V30 3194 N 332.573 -1.56217 0.208337 0
M  V30 3195 C 333.819 -1.98242 -0.427552 0
M  V30 3196 C 334.152 -1.09554 -1.60348 0
M  V30 3197 O 333.427 -0.15035 -1.93918 0
M  V30 3198 C 333.71 -3.4931 -0.874907 0
M  V30 3199 C 333.563 -4.48773 0.303751 0
M  V30 3200 C 334.882 -4.04424 -1.73577 0
M  V30 3201 H 332.001 -0.720744 -0.153936 0
M  V30 3202 H 334.643 -1.87586 0.30192 0
M  V30 3203 H 332.793 -3.58522 -1.49648 0
M  V30 3204 H 334.465 -4.51586 0.941682 0
M  V30 3205 H 332.708 -4.23194 0.953375 0
M  V30 3206 H 333.379 -5.51976 -0.0519883 0
M  V30 3207 H 335.855 -3.98075 -1.21143 0
M  V30 3208 H 334.731 -5.1047 -2.01771 0
M  V30 3209 H 334.992 -3.50494 -2.69456 0
M  V30 3210 N 334.051 0.0651679 -1.57465 0
M  V30 3211 C 334.981 1.07693 -2.07182 0
M  V30 3212 C 335.962 1.39962 -0.966673 0
M  V30 3213 O 337.147 1.49475 -1.2398 0
M  V30 3214 C 334.277 2.3885 -2.52127 0
M  V30 3215 C 333.231 2.20917 -3.66579 0
M  V30 3216 C 332.557 3.57515 -3.97601 0
M  V30 3217 C 333.857 1.62493 -4.9638 0
M  V30 3218 H 335.551 0.663199 -2.91962 0
M  V30 3219 H 333.097 0.317569 -1.40455 0
M  V30 3220 H 335.05 3.09928 -2.85522 0
M  V30 3221 H 333.774 2.82215 -1.64384 0
M  V30 3222 H 332.433 1.52279 -3.33477 0
M  V30 3223 H 332.081 3.98463 -3.06979 0
M  V30 3224 H 331.781 3.46353 -4.74672 0
M  V30 3225 H 333.305 4.30013 -4.33499 0
M  V30 3226 H 334.719 2.23445 -5.27963 0
M  V30 3227 H 333.116 1.62009 -5.77818 0
M  V30 3228 H 334.186 0.587041 -4.81333 0
M  V30 3229 N 335.529 1.53961 0.336706 0
M  V30 3230 C 336.806 1.62171 1.09361 0
M  V30 3231 C 337.186 0.447263 2.06307 0
M  V30 3232 O 336.534 -0.559802 2.21537 0
M  V30 3233 C 336.744 2.98565 1.80721 0
M  V30 3234 C 338.092 3.54157 2.34218 0
M  V30 3235 O 339.116 3.00784 1.90807 0
M  V30 3236 O 337.975 4.47528 3.13657 0
M  V30 3237 H 335.069 0.6562 0.503319 0
M  V30 3238 H 337.615 1.66307 0.33765 0
M  V30 3239 H 336.387 3.75482 1.10132 0
M  V30 3240 H 336.01 2.9805 2.63158 0
M  V30 3241 N 337.007 -0.598083 1.45811 0
M  V30 3242 C 337.917 -1.73632 1.57763 0
M  V30 3243 C 338.933 -1.67763 0.461676 0
M  V30 3244 O 340.109 -1.87949 0.723685 0
M  V30 3245 C 337.174 -3.10114 1.55018 0
M  V30 3246 C 336.235 -3.27364 2.77726 0
M  V30 3247 C 335.468 -4.57334 2.75102 0
M  V30 3248 O 335.691 -5.40258 1.8297 0
M  V30 3249 O 334.625 -4.77502 3.66437 0
M  V30 3250 H 338.451 -1.66498 2.53992 0
M  V30 3251 H 336.036 -0.763308 1.28429 0
M  V30 3252 H 337.918 -3.9141 1.56129 0
M  V30 3253 H 336.593 -3.17718 0.619431 0
M  V30 3254 H 335.5 -2.45619 2.82174 0
M  V30 3255 H 336.833 -3.24641 3.69958 0
M  V30 3256 N 338.485 -1.33259 -0.841409 0
M  V30 3257 C 339.415 -1.25926 -1.96634 0
M  V30 3258 C 340.396 -0.140349 -1.6952 0
M  V30 3259 O 341.581 -0.329707 -1.91381 0
M  V30 3260 C 338.711 -0.99512 -3.32738 0
M  V30 3261 C 337.665 -2.0767 -3.74242 0
M  V30 3262 C 336.991 -1.66474 -5.08125 0
M  V30 3263 C 338.291 -3.49318 -3.88297 0
M  V30 3264 H 339.985 -2.20046 -2.03027 0
M  V30 3265 H 337.531 -1.05931 -0.975425 0
M  V30 3266 H 339.484 -0.930323 -4.11002 0
M  V30 3267 H 338.208 -0.0183004 -3.26595 0
M  V30 3268 H 336.867 -2.13187 -2.98239 0
M  V30 3269 H 336.515 -0.675012 -4.9845 0
M  V30 3270 H 336.215 -2.3885 -5.36865 0
M  V30 3271 H 337.739 -1.61455 -5.88867 0
M  V30 3272 H 339.153 -3.46316 -4.56879 0
M  V30 3273 H 337.55 -4.20158 -4.28471 0
M  V30 3274 H 338.62 -3.8801 -2.9082 0
M  V30 3275 N 339.963 1.05934 -1.16686 0
M  V30 3276 C 341.191 1.8249 -0.974929 0
M  V30 3277 C 341.606 1.82679 0.476861 0
M  V30 3278 O 340.963 1.2486 1.33103 0
M  V30 3279 C 341.014 3.28943 -1.49929 0
M  V30 3280 O 340.735 3.28886 -2.89423 0
M  V30 3281 C 342.236 4.22215 -1.35089 0
M  V30 3282 H 339.456 0.575295 -0.345365 0
M  V30 3283 H 342 1.33631 -1.548 0
M  V30 3284 H 340.155 3.751 -0.968423 0
M  V30 3285 H 340.569 4.20493 -3.13506 0
M  V30 3286 H 342.043 5.22987 -1.76603 0
M  V30 3287 H 342.52 4.38195 -0.296935 0
M  V30 3288 H 343.126 3.81907 -1.87155 0
M  V30 3289 N 341.441 0.965919 1.2453 0
M  V30 3290 C 342.371 0.513476 2.27784 0
M  V30 3291 C 343.352 -0.445974 1.6415 0
M  V30 3292 O 344.537 -0.342485 1.91156 0
M  V30 3293 C 341.667 -0.198839 3.4673 0
M  V30 3294 C 340.621 0.676456 4.2262 0
M  V30 3295 C 339.947 -0.167248 5.34438 0
M  V30 3296 C 341.247 1.96017 4.84123 0
M  V30 3297 H 342.941 1.3765 2.65881 0
M  V30 3298 H 340.487 0.663321 1.27813 0
M  V30 3299 H 342.44 -0.526567 4.18097 0
M  V30 3300 H 341.164 -1.0962 3.07654 0
M  V30 3301 H 339.823 0.98743 3.53052 0
M  V30 3302 H 339.471 -1.0647 4.91603 0
M  V30 3303 H 339.171 0.415181 5.86131 0
M  V30 3304 H 340.695 -0.489688 6.08633 0
M  V30 3305 H 342.109 1.69814 5.47573 0
M  V30 3306 H 340.506 2.48918 5.4604 0
M  V30 3307 H 341.576 2.65622 4.05676 0
M  V30 3308 N 342.919 -1.39368 0.735821 0
M  V30 3309 C 343.882 -2.2896 0.104874 0
M  V30 3310 C 344.882 -1.46347 -0.666274 0
M  V30 3311 O 346.072 -1.67014 -0.49517 0
M  V30 3312 C 343.204 -3.29857 -0.860656 0
M  V30 3313 H 344.397 -2.86259 0.894205 0
M  V30 3314 H 341.95 -1.48029 0.501704 0
M  V30 3315 H 342.685 -2.77615 -1.67631 0
M  V30 3316 H 342.47 -3.9087 -0.310327 0
M  V30 3317 H 343.96 -3.96893 -1.29867 0
M  V30 3318 N 344.397 -0.483516 -1.5 0
M  V30 3319 C 345.813 -0.138404 -1.58999 0
M  V30 3320 C 346.013 1.35597 -1.4905 0
M  V30 3321 O 345.069 2.13039 -1.35539 0
M  V30 3322 C 346.382 -0.699658 -2.92447 0
M  V30 3323 C 347.93 -0.664195 -3.05872 0
M  V30 3324 C 348.405 -1.20321 -4.41913 0
M  V30 3325 N 349.896 -1.16315 -4.48358 0
M  V30 3326 C 350.631 -1.55058 -5.52037 0
M  V30 3327 N 350.127 -2.01311 -6.62907 0
M  V30 3328 N 351.92 -1.46584 -5.42651 0
M  V30 3329 H 344.071 -1.45529 -1.5471 0
M  V30 3330 H 346.334 -0.60258 -0.731848 0
M  V30 3331 H 346.04 -1.747 -3.05242 0
M  V30 3332 H 345.914 -0.150194 -3.76901 0
M  V30 3333 H 348.301 0.374272 -2.92717 0
M  V30 3334 H 348.382 -1.25061 -2.23144 0
M  V30 3335 H 348.026 -2.24037 -4.55818 0
M  V30 3336 H 347.956 -0.592896 -5.23252 0
M  V30 3337 H 350.447 -0.824058 -3.68806 0
M  V30 3338 H 350.76 -2.2899 -7.38095 0
M  V30 3339 H 349.105 -2.05273 -6.63994 0
M  V30 3340 H 352.296 -1.10281 -4.54924 0
M  V30 3341 H 352.469 -1.77103 -6.23329 0
M  V30 3342 N 345.875 1.56104 -0.216619 0
M  V30 3343 C 347.103 2.02563 0.421413 0
M  V30 3344 C 347.518 1.0965 1.53695 0
M  V30 3345 O 346.875 0.10521 1.82196 0
M  V30 3346 C 346.926 3.48584 0.957665 0
M  V30 3347 O 346.647 4.37953 -0.113389 0
M  V30 3348 C 348.148 4.10664 1.66943 0
M  V30 3349 H 345.368 0.662944 0.103665 0
M  V30 3350 H 347.912 2.01793 -0.331629 0
M  V30 3351 H 346.067 3.49985 1.661 0
M  V30 3352 H 346.481 5.23704 0.288932 0
M  V30 3353 H 347.955 5.14622 1.99671 0
M  V30 3354 H 348.432 3.55373 2.58083 0
M  V30 3355 H 349.038 4.13098 1.01142 0
M  V30 3356 N 347.353 -0.0568162 1.57498 0
M  V30 3357 C 348.63 -0.786954 1.79071 0
M  V30 3358 C 349.01 -1.95028 0.80792 0
M  V30 3359 O 348.358 -2.27968 -0.155858 0
M  V30 3360 C 348.568 -1.24594 3.26002 0
M  V30 3361 C 349.916 -1.67323 3.90241 0
M  V30 3362 O 350.94 -1.34124 3.29984 0
M  V30 3363 O 349.799 -2.28842 4.9628 0
M  V30 3364 H 346.893 -0.378262 0.735423 0
M  V30 3365 H 349.439 -0.035734 1.69662 0
M  V30 3366 H 348.211 -0.41423 3.89101 0
M  V30 3367 H 347.834 -2.05803 3.40192 0
M  V30 3368 N 348.832 -1.54138 -0.328536 0
M  V30 3369 C 349.762 -1.86167 -1.40939 0
M  V30 3370 C 350.743 -0.718044 -1.54202 0
M  V30 3371 O 351.928 -0.971328 -1.68163 0
M  V30 3372 C 349.058 -2.08461 -2.77779 0
M  V30 3373 C 348.012 -3.24299 -2.7931 0
M  V30 3374 C 347.338 -3.31955 -4.19178 0
M  V30 3375 C 348.638 -4.62065 -2.43502 0
M  V30 3376 H 350.332 -2.76689 -1.14383 0
M  V30 3377 H 347.878 -1.33132 -0.548806 0
M  V30 3378 H 349.831 -2.29453 -3.53454 0
M  V30 3379 H 348.555 -1.14684 -3.05802 0
M  V30 3380 H 347.214 -3.03187 -2.0609 0
M  V30 3381 H 346.862 -2.35745 -4.44335 0
M  V30 3382 H 346.562 -4.09805 -4.2111 0
M  V30 3383 H 348.086 -3.55175 -4.96672 0
M  V30 3384 H 349.5 -4.8297 -3.08889 0
M  V30 3385 H 347.897 -5.42429 -2.56693 0
M  V30 3386 H 348.967 -4.64652 -1.38659 0
M  V30 3387 N 350.31 0.590341 -1.46126 0
M  V30 3388 C 351.22 1.72793 -1.58681 0
M  V30 3389 C 352.236 1.67516 -0.470566 0
M  V30 3390 O 353.412 1.87562 -0.733642 0
M  V30 3391 C 350.477 3.09287 -1.5666 0
M  V30 3392 C 349.538 3.25886 -2.79458 0
M  V30 3393 C 348.771 4.55869 -2.77524 0
M  V30 3394 O 348.994 5.3928 -1.85832 0
M  V30 3395 O 347.928 4.75552 -3.68964 0
M  V30 3396 H 351.754 1.65149 -2.54872 0
M  V30 3397 H 349.339 0.756486 -1.28832 0
M  V30 3398 H 351.221 3.90577 -1.58202 0
M  V30 3399 H 349.896 3.17385 -0.636271 0
M  V30 3400 H 348.803 2.44119 -2.83472 0
M  V30 3401 H 350.136 3.22675 -3.71674 0
M  V30 3402 N 351.788 1.33704 0.83433 0
M  V30 3403 C 352.721 1.18675 1.94914 0
M  V30 3404 C 353.699 0.0811145 1.62398 0
M  V30 3405 O 354.883 0.244186 1.86912 0
M  V30 3406 C 352.01 0.821231 3.28593 0
M  V30 3407 C 351.056 1.93501 3.80079 0
M  V30 3408 S 351.889 3.54671 4.01209 0
M  V30 3409 C 353.045 3.20136 5.37833 0
M  V30 3410 H 353.278 2.13043 2.07364 0
M  V30 3411 H 350.811 1.18598 0.988624 0
M  V30 3412 H 352.769 0.617123 4.05835 0
M  V30 3413 H 351.43 -0.103927 3.13928 0
M  V30 3414 H 350.623 1.63273 4.76821 0
M  V30 3415 H 350.225 2.09601 3.09747 0
M  V30 3416 H 352.517 2.71242 6.20833 0
M  V30 3417 H 353.46 4.15975 5.73036 0
M  V30 3418 H 353.868 2.56613 5.02802 0
M  V30 3419 N 353.266 -1.05314 1.17247 0
M  V30 3420 C 354.198 -2.13023 0.845812 0
M  V30 3421 C 355.211 -1.62096 -0.151246 0
M  V30 3422 O 356.4 -1.78343 0.0748818 0
M  V30 3423 C 353.5 -3.38047 0.240292 0
M  V30 3424 C 352.673 -4.18255 1.27991 0
M  V30 3425 C 351.732 -5.21625 0.692375 0
M  V30 3426 O 350.758 -5.52619 1.36385 0
M  V30 3427 N 351.96 -5.78201 -0.516178 0
M  V30 3428 H 354.725 -2.41642 1.77283 0
M  V30 3429 H 352.286 -1.21401 1.07115 0
M  V30 3430 H 354.278 -4.04359 -0.16603 0
M  V30 3431 H 352.848 -3.06972 -0.590487 0
M  V30 3432 H 352.068 -3.47451 1.86203 0
M  V30 3433 H 353.356 -4.68643 1.98119 0
M  V30 3434 H 352.754 -5.55301 -1.07969 0
M  V30 3435 H 351.311 -6.4604 -0.86458 0
M  V30 3436 N 354.744 -0.972509 -1.24016 0
M  V30 3437 C 355.993 -0.632603 -1.91523 0
M  V30 3438 C 356.306 0.836641 -1.76804 0
M  V30 3439 O 357.512 1.28728 -2.39043 0
M  V30 3440 C 355.968 -1.08082 -3.43287 0
M  V30 3441 C 355.576 -2.57386 -3.66683 0
M  V30 3442 C 357.32 -0.814288 -4.16617 0
M  V30 3443 C 355.227 -2.95915 -5.12043 0
M  V30 3444 H 354.157 -0.232898 -0.717129 0
M  V30 3445 H 356.808 -1.17936 -1.40582 0
M  V30 3446 H 355.19 -0.462339 -3.93292 0
M  V30 3447 H 356.364 -3.24405 -3.27258 0
M  V30 3448 H 354.679 -2.81701 -3.06649 0
M  V30 3449 H 357.276 -1.0781 -5.23718 0
M  V30 3450 H 357.619 0.24955 -4.15551 0
M  V30 3451 H 358.152 -1.39397 -3.72577 0
M  V30 3452 H 354.891 -4.0139 -5.18234 0
M  V30 3453 H 354.411 -2.33584 -5.52448 0
M  V30 3454 H 356.09 -2.86086 -5.80314 0
M  V30 3455 N 356.222 1.38976 -0.743202 0
M  V30 3456 C 357.132 2.3434 -0.110399 0
M  V30 3457 C 358.148 1.58741 0.712559 0
M  V30 3458 O 359.324 1.9099 0.639125 0
M  V30 3459 C 356.389 3.37812 0.780012 0
M  V30 3460 C 355.45 4.29263 -0.0561319 0
M  V30 3461 C 354.683 5.27793 0.791875 0
M  V30 3462 O 354.906 5.33043 2.03031 0
M  V30 3463 O 353.84 6.01512 0.216183 0
M  V30 3464 H 357.666 2.90129 -0.897714 0
M  V30 3465 H 355.251 1.40643 -0.503966 0
M  V30 3466 H 357.133 4.01194 1.28923 0
M  V30 3467 H 355.808 2.84395 1.546 0
M  V30 3468 H 354.715 3.69076 -0.611056 0
M  V30 3469 H 356.048 4.85907 -0.784531 0
M  V30 3470 N 357.7 0.491464 1.49741 0
M  V30 3471 C 358.948 -0.0563141 2.02022 0
M  V30 3472 C 359.269 -1.38363 1.37407 0
M  V30 3473 O 358.539 -1.88702 0.526166 0
M  V30 3474 H 357.119 -0.0238014 0.746621 0
M  V30 3475 H 359.781 0.646533 1.83864 0
M  V30 3476 H 358.877 -0.192967 3.11503 0
M  V30 3477 N 359.178 -1.55987 0.224894 0
M  V30 3478 C 360.108 -2.23426 -0.678457 0
M  V30 3479 C 361.089 -1.20709 -1.19847 0
M  V30 3480 O 362.274 -1.49304 -1.24186 0
M  V30 3481 C 359.404 -2.91676 -1.88527 0
M  V30 3482 C 358.358 -4.00893 -1.49896 0
M  V30 3483 C 357.684 -4.56455 -2.78483 0
M  V30 3484 C 358.984 -5.17769 -0.686461 0
M  V30 3485 H 360.678 -2.99175 -0.116173 0
M  V30 3486 H 358.224 -1.43897 -0.054436 0
M  V30 3487 H 360.177 -3.37547 -2.5227 0
M  V30 3488 H 358.901 -2.1338 -2.47258 0
M  V30 3489 H 357.56 -3.55758 -0.884985 0
M  V30 3490 H 357.208 -3.74886 -3.35365 0
M  V30 3491 H 356.908 -5.30169 -2.53368 0
M  V30 3492 H 358.432 -5.05047 -3.43162 0
M  V30 3493 H 359.846 -5.60001 -1.22767 0
M  V30 3494 H 358.243 -5.97735 -0.532259 0
M  V30 3495 H 359.313 -4.83932 0.306196 0
M  V30 3496 N 360.656 0.0484629 -1.57525 0
M  V30 3497 C 361.603 1.05504 -2.05275 0
M  V30 3498 C 362.573 1.37084 -0.937927 0
M  V30 3499 O 363.758 1.47754 -1.2072 0
M  V30 3500 C 360.898 2.35676 -2.52093 0
M  V30 3501 C 360.011 2.10423 -3.77288 0
M  V30 3502 C 359.146 3.34327 -4.12794 0
M  V30 3503 C 358.185 3.04542 -5.30962 0
M  V30 3504 N 357.322 4.20841 -5.61994 0
M  V30 3505 H 362.162 0.640885 -2.91027 0
M  V30 3506 H 359.699 0.304854 -1.43906 0
M  V30 3507 H 361.657 3.11709 -2.77297 0
M  V30 3508 H 360.287 2.7485 -1.69285 0
M  V30 3509 H 359.339 1.24976 -3.59284 0
M  V30 3510 H 360.651 1.84438 -4.63448 0
M  V30 3511 H 359.805 4.1874 -4.39024 0
M  V30 3512 H 358.544 3.63408 -3.25247 0
M  V30 3513 H 357.549 2.18528 -5.04505 0
M  V30 3514 H 358.774 2.76758 -6.20146 0
M  V30 3515 H 356.72 4.4991 -4.77406 0
M  V30 3516 H 356.637 3.98212 -6.42622 0
M  V30 3517 H 357.905 5.06184 -5.92789 0
M  V30 3518 N 362.134 1.5431 0.320358 0
M  V30 3519 C 363.044 1.86946 1.41734 0
M  V30 3520 C 364.06 0.761689 1.56443 0
M  V30 3521 O 365.236 1.05629 1.71477 0
M  V30 3522 C 362.301 2.09293 2.76401 0
M  V30 3523 C 361.362 3.33082 2.70841 0
M  V30 3524 C 360.595 3.54353 3.99086 0
M  V30 3525 O 360.818 2.79002 4.97508 0
M  V30 3526 O 359.752 4.47838 4.0215 0
M  V30 3527 H 363.578 2.80232 1.17062 0
M  V30 3528 H 361.163 1.40255 0.514673 0
M  V30 3529 H 363.045 2.25303 3.56113 0
M  V30 3530 H 361.72 1.19194 3.00956 0
M  V30 3531 H 360.627 3.22454 1.89668 0
M  V30 3532 H 361.96 4.23249 2.5124 0
M  V30 3533 N 363.613 -0.582584 1.46437 0
M  V30 3534 C 364.523 -1.71949 1.59595 0
M  V30 3535 C 365.539 -1.67264 0.479443 0
M  V30 3536 O 366.715 -1.87171 0.743579 0
M  V30 3537 C 363.78 -3.08452 1.58298 0
M  V30 3538 C 362.841 -3.244 2.81182 0
M  V30 3539 C 362.074 -4.54391 2.79937 0
M  V30 3540 O 362.297 -5.38287 1.8869 0
M  V30 3541 O 361.231 -4.73588 3.71481 0
M  V30 3542 H 365.057 -1.63795 2.55744 0
M  V30 3543 H 362.642 -0.749643 1.29231 0
M  V30 3544 H 364.524 -3.89732 1.60271 0
M  V30 3545 H 363.199 -3.17043 0.653094 0
M  V30 3546 H 362.106 -2.42613 2.84763 0
M  V30 3547 H 363.439 -3.20699 3.7338 0
M  V30 3548 N 365.091 -1.34144 -0.827227 0
M  V30 3549 C 366.021 -1.28005 -1.95287 0
M  V30 3550 C 367.002 -0.158321 -1.69362 0
M  V30 3551 O 368.187 -0.349987 -1.9102 0
M  V30 3552 C 365.317 -1.03036 -3.31664 0
M  V30 3553 C 364.271 -2.11628 -3.72019 0
M  V30 3554 C 363.597 -1.71854 -5.0633 0
M  V30 3555 C 364.897 -3.53417 -3.8457 0
M  V30 3556 H 366.591 -2.22187 -2.00682 0
M  V30 3557 H 364.137 -1.0696 -0.964135 0
M  V30 3558 H 366.09 -0.973863 -4.09993 0
M  V30 3559 H 364.814 -0.0529391 -3.26557 0
M  V30 3560 H 363.473 -2.16339 -2.95961 0
M  V30 3561 H 363.121 -0.727841 -4.97706 0
M  V30 3562 H 362.821 -2.44531 -5.34302 0
M  V30 3563 H 364.345 -1.67692 -5.87122 0
M  V30 3564 H 365.759 -3.51142 -4.5318 0
M  V30 3565 H 364.156 -4.24679 -4.2399 0
M  V30 3566 H 365.226 -3.91072 -2.86689 0
M  V30 3567 N 366.569 1.04691 -1.17803 0
M  V30 3568 C 367.532 2.10724 -0.901545 0
M  V30 3569 C 368.532 1.6042 0.110437 0
M  V30 3570 O 369.722 1.7377 -0.122303 0
M  V30 3571 C 366.854 3.39084 -0.351409 0
M  V30 3572 H 368.047 2.36686 -1.84174 0
M  V30 3573 H 365.6 1.21015 -0.98919 0
M  V30 3574 H 366.335 3.18782 0.59569 0
M  V30 3575 H 366.12 3.76909 -1.08083 0
M  V30 3576 H 367.61 4.17227 -0.176451 0
M  V30 3577 N 368.047 0.979072 1.23499 0
M  V30 3578 C 369.277 0.664237 1.95631 0
M  V30 3579 C 369.685 -0.772653 1.72704 0
M  V30 3580 O 369.028 -1.53141 1.01457 0
M  V30 3581 C 369.09 0.873115 3.48736 0
M  V30 3582 C 368.754 2.29182 3.95379 0
M  V30 3583 C 369.751 3.2704 4.04155 0
M  V30 3584 C 367.436 2.62256 4.28401 0
M  V30 3585 C 369.43 4.56052 4.45304 0
M  V30 3586 C 367.117 3.91491 4.69231 0
M  V30 3587 C 368.115 4.88201 4.77649 0
M  V30 3588 O 367.803 6.15129 5.17563 0
M  V30 3589 H 367.535 0.245915 0.629684 0
M  V30 3590 H 370.089 1.3127 1.57979 0
M  V30 3591 H 368.319 0.167476 3.86337 0
M  V30 3592 H 370.008 0.555642 4.02079 0
M  V30 3593 H 370.774 3.02819 3.78848 0
M  V30 3594 H 366.653 1.87692 4.21061 0
M  V30 3595 H 370.197 5.31538 4.51789 0
M  V30 3596 H 366.094 4.15508 4.93987 0
M  V30 3597 H 366.862 6.18862 5.35679 0
M  V30 3598 N 369.525 -1.3858 0.750561 0
M  V30 3599 C 370.455 -2.33102 0.136237 0
M  V30 3600 C 371.436 -1.54713 -0.706965 0
M  V30 3601 O 372.621 -1.83043 -0.648769 0
M  V30 3602 C 369.751 -3.38882 -0.760017 0
M  V30 3603 C 368.705 -4.27995 -0.0197785 0
M  V30 3604 C 368.031 -5.24605 -1.03408 0
M  V30 3605 C 369.331 -5.09554 1.14684 0
M  V30 3606 H 371.025 -2.84726 0.925822 0
M  V30 3607 H 368.571 -1.36898 0.446654 0
M  V30 3608 H 370.524 -4.0397 -1.19943 0
M  V30 3609 H 369.248 -2.85734 -1.58189 0
M  V30 3610 H 367.907 -3.64409 0.400184 0
M  V30 3611 H 367.555 -4.67746 -1.84994 0
M  V30 3612 H 367.255 -5.85081 -0.543464 0
M  V30 3613 H 368.779 -5.9257 -1.47288 0
M  V30 3614 H 370.193 -5.67899 0.785118 0
M  V30 3615 H 368.59 -5.7925 1.56812 0
M  V30 3616 H 369.66 -4.4347 1.96118 0
M  V30 3617 N 371.003 -0.499398 -1.49478 0
M  V30 3618 C 372.419 -0.155261 -1.58843 0
M  V30 3619 C 372.619 1.34008 -1.50479 0
M  V30 3620 O 371.675 2.11589 -1.37791 0
M  V30 3621 C 372.988 -0.730636 -2.91689 0
M  V30 3622 C 374.536 -0.696599 -3.0515 0
M  V30 3623 C 375.011 -1.25001 -4.40612 0
M  V30 3624 N 376.502 -1.21064 -4.47099 0
M  V30 3625 C 377.237 -1.60905 -5.50361 0
M  V30 3626 N 376.733 -2.08331 -6.60735 0
M  V30 3627 N 378.526 -1.52331 -5.41065 0
M  V30 3628 H 370.677 -1.47162 -1.53158 0
M  V30 3629 H 372.94 -0.610309 -0.725415 0
M  V30 3630 H 372.646 -1.77928 -3.03372 0
M  V30 3631 H 372.52 -0.190161 -3.7672 0
M  V30 3632 H 374.907 0.343204 -2.93097 0
M  V30 3633 H 374.988 -1.2742 -2.21806 0
M  V30 3634 H 374.632 -2.28859 -4.53416 0
M  V30 3635 H 374.562 -0.64836 -5.22593 0
M  V30 3636 H 377.053 -0.863128 -3.67911 0
M  V30 3637 H 377.366 -2.36805 -7.35624 0
M  V30 3638 H 375.711 -2.12304 -6.6178 0
M  V30 3639 H 378.902 -1.151 -4.53729 0
M  V30 3640 H 379.075 -1.83704 -6.21415 0
M  V30 3641 N 372.481 1.55866 -0.233164 0
M  V30 3642 C 373.428 2.20796 0.67215 0
M  V30 3643 C 374.398 1.16731 1.18166 0
M  V30 3644 O 375.583 1.45129 1.23864 0
M  V30 3645 C 372.723 2.90072 1.86955 0
M  V30 3646 C 371.836 4.08759 1.39786 0
M  V30 3647 C 370.971 4.65787 2.55374 0
M  V30 3648 C 370.01 5.76752 2.04998 0
M  V30 3649 N 369.147 6.28021 3.13901 0
M  V30 3650 H 373.987 2.9779 0.111749 0
M  V30 3651 H 371.524 1.47036 0.0434007 0
M  V30 3652 H 373.482 3.28428 2.57276 0
M  V30 3653 H 372.112 2.15575 2.40265 0
M  V30 3654 H 371.164 3.7581 0.589173 0
M  V30 3655 H 372.476 4.88906 0.98856 0
M  V30 3656 H 371.63 5.06646 3.33758 0
M  V30 3657 H 370.369 3.84828 2.99598 0
M  V30 3658 H 369.374 5.35383 1.25079 0
M  V30 3659 H 370.599 6.59553 1.61759 0
M  V30 3660 H 368.545 5.49971 3.57586 0
M  V30 3661 H 368.462 7.03323 2.7726 0
M  V30 3662 H 369.73 6.73538 3.92386 0
M  V30 3663 N 373.959 -0.0401083 1.57549 0
M  V30 3664 C 374.907 -1.06264 2.06908 0
M  V30 3665 C 375.901 -1.38132 0.980608 0
M  V30 3666 O 377.107 -1.37167 1.16556 0
M  V30 3667 H 373.482 -0.360166 0.660139 0
M  V30 3668 H 375.453 -0.620445 2.91878 0
M  V30 3669 C 374.202 -2.35846 2.55483 0
M  V30 3670 H 373.525 -2.12183 3.38849 0
M  V30 3671 H 374.965 -3.05765 2.93741 0
M  V30 3672 C 373.424 -3.0404 1.45126 0
M  V30 3673 O 373.954 -3.93424 0.811216 0
M  V30 3674 N 372.16 -2.65184 1.18852 0
M  V30 3675 H 371.707 -1.92584 1.71083 0
M  V30 3676 H 371.665 -3.1113 0.452244 0
M  V30 3677 N 375.437 -1.54477 -0.31217 0
M  V30 3678 C 376.387 -1.81037 -1.38598 0
M  V30 3679 C 377.371 -0.666941 -1.46426 0
M  V30 3680 O 378.563 -0.927269 -1.50767 0
M  V30 3681 C 375.692 -2.05127 -2.75277 0
M  V30 3682 C 374.778 -3.25624 -2.71716 0
M  V30 3683 N 375.169 -4.46428 -2.37773 0
M  V30 3684 C 373.467 -3.27427 -3.02833 0
M  V30 3685 C 374.168 -5.28406 -2.43232 0
M  V30 3686 N 373.144 -4.6586 -2.80135 0
M  V30 3687 H 376.946 -2.7201 -1.11301 0
M  V30 3688 H 374.46 -1.53826 -0.520705 0
M  V30 3689 H 376.457 -2.22299 -3.52688 0
M  V30 3690 H 375.117 -1.15416 -3.03495 0
M  V30 3691 H 376.128 -4.73227 -2.1042 0
M  V30 3692 H 372.805 -2.47786 -3.36018 0
M  V30 3693 H 374.195 -6.34903 -2.19882 0
M  V30 3694 N 376.915 0.57481 -1.46744 0
M  V30 3695 C 377.825 1.711 -1.60505 0
M  V30 3696 C 378.841 1.67008 -0.488307 0
M  V30 3697 O 380.017 1.86774 -0.753495 0
M  V30 3698 C 377.082 3.07608 -1.59932 0
M  V30 3699 C 376.143 3.22904 -2.82898 0
M  V30 3700 C 375.376 4.529 -2.82343 0
M  V30 3701 O 375.599 5.37278 -1.91542 0
M  V30 3702 O 374.533 4.71611 -3.73987 0
M  V30 3703 H 378.359 1.62436 -2.56609 0
M  V30 3704 H 375.944 0.742779 -1.29627 0
M  V30 3705 H 377.826 3.88877 -1.62336 0
M  V30 3706 H 376.501 3.16692 -0.669898 0
M  V30 3707 H 375.408 2.41099 -2.86046 0
M  V30 3708 H 376.741 3.18715 -3.75076 0
M  V30 3709 N 378.394 1.34581 0.820102 0
M  V30 3710 C 379.304 1.28471 1.96297 0
M  V30 3711 C 380.32 0.191902 1.72939 0
M  V30 3712 O 381.496 0.418879 1.96996 0
M  V30 3713 C 378.561 1.04281 3.30645 0
M  V30 3714 C 377.622 2.22745 3.66992 0
M  V30 3715 C 376.855 1.997 4.9493 0
M  V30 3716 O 377.078 0.956656 5.6232 0
M  V30 3717 O 376.012 2.86723 5.2922 0
M  V30 3718 H 379.838 2.24624 2.04396 0
M  V30 3719 H 377.423 1.14816 0.955913 0
M  V30 3720 H 379.305 0.925841 4.11104 0
M  V30 3721 H 377.98 0.111697 3.23507 0
M  V30 3722 H 376.887 2.40003 2.86966 0
M  V30 3723 H 378.22 3.14257 3.78819 0
M  V30 3724 N 379.872 -1.04064 1.18357 0
M  V30 3725 C 380.782 -2.15569 0.925596 0
M  V30 3726 C 381.798 -1.7365 -0.110295 0
M  V30 3727 O 382.974 -2.01273 0.0716218 0
M  V30 3728 C 380.039 -3.43704 0.454836 0
M  V30 3729 C 379.1 -4.00004 1.55869 0
M  V30 3730 C 378.333 -5.22023 1.1103 0
M  V30 3731 O 378.556 -5.70392 -0.0309756 0
M  V30 3732 O 377.49 -5.70856 1.90805 0
M  V30 3733 H 381.316 -2.40187 1.8586 0
M  V30 3734 H 378.901 -1.1402 0.965394 0
M  V30 3735 H 380.783 -4.20923 0.200382 0
M  V30 3736 H 379.458 -3.20559 -0.449876 0
M  V30 3737 H 378.365 -3.24172 1.86716 0
M  V30 3738 H 379.698 -4.2749 2.43953 0
M  V30 3739 N 381.35 -0.985608 -1.22978 0
M  V30 3740 C 382.283 -0.47487 -2.23204 0
M  V30 3741 C 383.261 0.460865 -1.55932 0
M  V30 3742 O 384.445 0.388105 -1.84461 0
M  V30 3743 C 381.572 0.312427 -3.37256 0
M  V30 3744 C 380.618 -0.568219 -4.22698 0
M  V30 3745 S 381.451 -2.01919 -4.95973 0
M  V30 3746 C 382.607 -1.24118 -6.1347 0
M  V30 3747 H 382.84 -1.32419 -2.66181 0
M  V30 3748 H 380.373 -0.792005 -1.32539 0
M  V30 3749 H 382.331 0.760645 -4.03391 0
M  V30 3750 H 380.992 1.13693 -2.92801 0
M  V30 3751 H 380.185 0.0371657 -5.03986 0
M  V30 3752 H 379.787 -0.952897 -3.61657 0
M  V30 3753 H 382.079 -0.505121 -6.75614 0
M  V30 3754 H 383.022 -2.02907 -6.78406 0
M  V30 3755 H 383.43 -0.757669 -5.59392 0
M  V30 3756 N 382.828 1.3818 -0.7579 0
M  V30 3757 C 383.758 2.33027 -0.148597 0
M  V30 3758 C 384.739 1.55085 0.69875 0
M  V30 3759 O 385.924 1.83384 0.639053 0
M  V30 3760 C 383.054 3.3928 0.742034 0
M  V30 3761 C 382.008 4.28 -0.00291946 0
M  V30 3762 C 381.334 5.25146 1.00625 0
M  V30 3763 C 382.634 5.08938 -1.17385 0
M  V30 3764 H 384.328 2.84231 -0.940909 0
M  V30 3765 H 381.874 1.36659 -0.453908 0
M  V30 3766 H 383.827 4.046 1.17799 0
M  V30 3767 H 382.551 2.86569 1.56671 0
M  V30 3768 H 381.21 3.64192 -0.419504 0
M  V30 3769 H 380.858 4.68721 1.8251 0
M  V30 3770 H 380.558 5.85361 0.512428 0
M  V30 3771 H 382.082 5.93342 1.44143 0
M  V30 3772 H 383.496 5.67474 -0.815224 0
M  V30 3773 H 381.893 5.7841 -1.59882 0
M  V30 3774 H 382.963 4.42424 -1.98468 0
M  V30 3775 N 384.306 0.507319 1.49211 0
M  V30 3776 C 385.269 -0.256763 2.27757 0
M  V30 3777 C 386.269 -0.888287 1.34038 0
M  V30 3778 O 387.459 -0.751841 1.5714 0
M  V30 3779 C 384.591 -1.36905 3.12202 0
M  V30 3780 H 385.784 0.432557 2.96764 0
M  V30 3781 H 383.337 0.262488 1.5408 0
M  V30 3782 H 384.072 -2.09233 2.47775 0
M  V30 3783 H 383.857 -0.921599 3.81115 0
M  V30 3784 H 385.347 -1.9071 3.7151 0
M  V30 3785 N 385.784 -1.5574 0.241426 0
M  V30 3786 C 386.714 -2.24133 -0.654722 0
M  V30 3787 C 387.695 -1.21974 -1.1856 0
M  V30 3788 O 388.88 -1.50612 -1.22595 0
M  V30 3789 C 386.01 -2.93659 -1.85423 0
M  V30 3790 C 384.964 -4.0246 -1.45636 0
M  V30 3791 C 384.29 -4.59383 -2.73626 0
M  V30 3792 C 385.59 -5.18468 -0.631506 0
M  V30 3793 H 387.284 -2.99281 -0.0844353 0
M  V30 3794 H 384.83 -1.43947 -0.0391707 0
M  V30 3795 H 386.783 -3.40203 -2.48676 0
M  V30 3796 H 385.507 -2.15991 -2.44981 0
M  V30 3797 H 384.166 -3.56676 -0.847202 0
M  V30 3798 H 383.814 -3.78422 -3.3137 0
M  V30 3799 H 383.514 -5.32826 -2.4773 0
M  V30 3800 H 385.038 -5.08658 -3.37786 0
M  V30 3801 H 386.452 -5.61272 -1.1682 0
M  V30 3802 H 384.849 -5.98266 -0.468831 0
M  V30 3803 H 385.919 -4.8358 0.357506 0
M  V30 3804 N 387.262 0.0317525 -1.57568 0
M  V30 3805 C 388.678 0.38735 -1.54828 0
M  V30 3806 C 388.878 1.7677 -0.967187 0
M  V30 3807 O 387.934 2.45581 -0.587063 0
M  V30 3808 C 389.247 0.291667 -2.99282 0
M  V30 3809 C 390.795 0.368946 -3.10818 0
M  V30 3810 C 391.27 0.302741 -4.56998 0
M  V30 3811 N 392.761 0.361617 -4.61786 0
M  V30 3812 C 393.496 0.333238 -5.72431 0
M  V30 3813 N 392.992 0.257308 -6.92322 0
M  V30 3814 N 394.785 0.382769 -5.60795 0
M  V30 3815 H 386.936 -0.871609 -1.93692 0
M  V30 3816 H 389.199 -0.331161 -0.888277 0
M  V30 3817 H 388.905 -0.656794 -3.45513 0
M  V30 3818 H 388.779 1.08638 -3.61217 0
M  V30 3819 H 391.166 1.30784 -2.64536 0
M  V30 3820 H 391.247 -0.455066 -2.5172 0
M  V30 3821 H 390.891 -0.632473 -5.03947 0
M  V30 3822 H 390.821 1.14482 -5.14005 0
M  V30 3823 H 393.312 0.422923 -3.75526 0
M  V30 3824 H 393.625 0.24068 -7.72425 0
M  V30 3825 H 391.97 0.223396 -6.94641 0
M  V30 3826 H 395.161 0.44006 -4.66027 0
M  V30 3827 H 395.334 0.357184 -6.47015 0
M  V30 3828 N 388.74 1.54641 0.303973 0
M  V30 3829 C 389.988 1.73437 1.0375 0
M  V30 3830 C 390.309 0.521449 1.87899 0
M  V30 3831 O 389.579 -0.46432 1.90318 0
M  V30 3832 H 388.159 0.639518 0.386039 0
M  V30 3833 H 390.821 1.91988 0.335675 0
M  V30 3834 H 389.917 2.62235 1.69231 0
M  V30 3835 N 390.218 -0.567019 1.47046 0
M  V30 3836 C 391.15 -1.68985 1.54844 0
M  V30 3837 C 392.163 -1.56869 0.435431 0
M  V30 3838 O 393.352 -1.64006 0.70457 0
M  V30 3839 C 390.452 -3.07373 1.42742 0
M  V30 3840 C 389.625 -3.45339 2.6844 0
M  V30 3841 C 388.684 -4.62849 2.50314 0
M  V30 3842 O 387.71 -4.67922 3.24095 0
M  V30 3843 N 388.912 -5.58726 1.57499 0
M  V30 3844 H 391.677 -1.62745 2.51663 0
M  V30 3845 H 389.238 -0.753411 1.43302 0
M  V30 3846 H 391.23 -3.83803 1.28365 0
M  V30 3847 H 389.8 -3.07893 0.540445 0
M  V30 3848 H 389.02 -2.58455 2.97648 0
M  V30 3849 H 390.308 -3.67476 3.51907 0
M  V30 3850 H 389.706 -5.57376 0.966876 0
M  V30 3851 H 388.263 -6.34523 1.49078 0
M  V30 3852 N 391.696 -1.35014 -0.812953 0
M  V30 3853 C 392.924 -1.31031 -1.6012 0
M  V30 3854 C 393.339 0.113558 -1.88458 0
M  V30 3855 O 392.696 1.06363 -1.48301 0
M  V30 3856 C 392.747 -2.10872 -2.93624 0
M  V30 3857 O 392.468 -3.47706 -2.66518 0
M  V30 3858 C 393.969 -2.14401 -3.88004 0
M  V30 3859 H 391.189 -0.45037 -0.497401 0
M  V30 3860 H 393.733 -1.77775 -1.01076 0
M  V30 3861 H 391.888 -1.67744 -3.492 0
M  V30 3862 H 392.302 -3.89097 -3.51715 0
M  V30 3863 H 393.776 -2.74669 -4.78812 0
M  V30 3864 H 394.253 -1.14105 -4.24119 0
M  V30 3865 H 394.859 -2.57662 -3.38364 0
M  V30 3866 N 393.175 1.03435 -1.18907 0
M  V30 3867 C 394.423 1.76394 -0.986382 0
M  V30 3868 C 394.744 1.88883 0.484567 0
M  V30 3869 O 394.014 1.41843 1.3512 0
M  V30 3870 H 392.594 0.65344 -0.361975 0
M  V30 3871 H 395.256 1.248 -1.49703 0
M  V30 3872 H 394.352 2.77424 -1.42978 0
M  V30 3873 N 394.653 0.992116 1.22453 0
M  V30 3874 C 395.901 0.666215 1.90804 0
M  V30 3875 C 396.222 -0.804152 1.77647 0
M  V30 3876 O 395.492 -1.57629 1.16318 0
M  V30 3877 H 394.072 0.243423 0.706225 0
M  V30 3878 H 396.734 1.25845 1.48825 0
M  V30 3879 H 395.83 0.928069 2.97982 0
M  V30 3880 N 396.131 -1.37776 0.765217 0
M  V30 3881 C 397.408 -1.93975 0.251596 0
M  V30 3882 C 397.788 -1.69949 -1.25222 0
M  V30 3883 O 397.136 -1.04457 -2.03226 0
M  V30 3884 C 397.346 -3.43487 0.617895 0
M  V30 3885 C 398.694 -4.20564 0.584029 0
M  V30 3886 O 399.718 -3.5182 0.556888 0
M  V30 3887 O 398.577 -5.43138 0.605291 0
M  V30 3888 H 395.671 -0.82509 0.0561806 0
M  V30 3889 H 398.217 -1.47101 0.846128 0
M  V30 3890 H 396.989 -3.5453 1.65602 0
M  V30 3891 H 396.612 -3.976 -0.00403411 0
M  V30 3892 N 397.609 -0.515225 -1.4894 0
M  V30 3893 C 398.855 0.0242508 -2.02785 0
M  V30 3894 C 399.188 1.35323 -1.39289 0
M  V30 3895 O 398.463 1.87041 -0.533469 0
M  V30 3896 C 398.746 0.16184 -3.59736 0
M  V30 3897 C 398.599 -1.19127 -4.33738 0
M  V30 3898 C 399.918 0.895719 -4.30888 0
M  V30 3899 H 397.037 0.00733914 -0.736963 0
M  V30 3900 H 399.679 -0.669395 -1.77818 0
M  V30 3901 H 397.829 0.752624 -3.8114 0
M  V30 3902 H 399.501 -1.82202 -4.23792 0
M  V30 3903 H 397.744 -1.77695 -3.95736 0
M  V30 3904 H 398.415 -1.04815 -5.41957 0
M  V30 3905 H 400.891 0.394528 -4.14225 0
M  V30 3906 H 399.767 0.960859 -5.40425 0
M  V30 3907 H 400.028 1.9427 -3.97129 0
M  V30 3908 N 399.087 1.5561 -0.249682 0
M  V30 3909 C 400.035 2.22894 0.664906 0
M  V30 3910 C 401.029 1.21743 1.17792 0
M  V30 3911 O 402.235 1.39748 1.13449 0
M  V30 3912 H 398.61 0.715022 0.232912 0
M  V30 3913 H 400.581 2.98307 0.0742998 0
M  V30 3914 C 399.33 2.94424 1.84959 0
M  V30 3915 H 398.653 3.72031 1.46399 0
M  V30 3916 H 400.093 3.44862 2.4667 0
M  V30 3917 C 398.552 1.98454 2.72245 0
M  V30 3918 O 399.082 1.51939 3.71857 0
M  V30 3919 N 397.288 1.65496 2.38871 0
M  V30 3920 H 396.835 2.03517 1.57919 0
M  V30 3921 H 396.793 1.0155 2.97548 0
M  V30 3922 N 400.565 -0.0233959 1.57583 0
M  V30 3923 C 401.811 -0.714119 1.89811 0
M  V30 3924 C 402.144 -1.74702 0.848113 0
M  V30 3925 O 401.419 -1.94023 -0.136135 0
M  V30 3926 C 401.702 -1.37853 3.32669 0
M  V30 3927 C 401.555 -0.358764 4.48367 0
M  V30 3928 C 402.874 -2.31101 3.7454 0
M  V30 3929 H 399.993 -0.25814 0.690314 0
M  V30 3930 H 402.635 0.0230927 1.89986 0
M  V30 3931 H 400.785 -2.00689 3.3265 0
M  V30 3932 H 402.457 0.268115 4.6052 0
M  V30 3933 H 400.7 0.321387 4.32608 0
M  V30 3934 H 401.371 -0.862242 5.45224 0
M  V30 3935 H 403.847 -1.78304 3.75961 0
M  V30 3936 H 402.723 -2.74567 4.75294 0
M  V30 3937 H 402.984 -3.18018 3.0711 0
M  V30 3938 N 402.043 -1.548 -0.295768 0
M  V30 3939 C 402.953 -1.89177 -1.38742 0
M  V30 3940 C 403.969 -0.786481 -1.55211 0
M  V30 3941 O 405.145 -1.08344 -1.69775 0
M  V30 3942 C 402.21 -2.13663 -2.73036 0
M  V30 3943 C 401.271 -3.37349 -2.65508 0
M  V30 3944 C 400.504 -3.60658 -3.93398 0
M  V30 3945 O 400.727 -2.86882 -4.93006 0
M  V30 3946 O 399.661 -4.54179 -3.94975 0
M  V30 3947 H 403.487 -2.82059 -1.12589 0
M  V30 3948 H 401.072 -1.41056 -0.492295 0
M  V30 3949 H 402.954 -2.3094 -3.52484 0
M  V30 3950 H 401.629 -1.23967 -2.99022 0
M  V30 3951 H 400.536 -3.25431 -1.84514 0
M  V30 3952 H 401.869 -4.27192 -2.44474 0
M  V30 3953 N 403.521 0.559213 -1.47345 0
M  V30 3954 C 404.454 1.68201 -1.5422 0
M  V30 3955 C 405.432 1.57742 -0.394497 0
M  V30 3956 O 406.616 1.78628 -0.60201 0
M  V30 3957 C 403.743 3.0643 -1.44285 0
M  V30 3958 C 402.789 3.3534 -2.63532 0
M  V30 3959 S 403.622 3.24816 -4.25741 0
M  V30 3960 C 404.778 4.65542 -4.18355 0
M  V30 3961 H 405.011 1.62114 -2.49211 0
M  V30 3962 H 402.544 0.739871 -1.35519 0
M  V30 3963 H 404.502 3.86164 -1.3924 0
M  V30 3964 H 403.163 3.09984 -0.506816 0
M  V30 3965 H 402.356 4.36107 -2.52639 0
M  V30 3966 H 401.958 2.63221 -2.65689 0
M  V30 3967 H 404.25 5.56449 -3.86485 0
M  V30 3968 H 405.193 4.81493 -5.19202 0
M  V30 3969 H 405.601 4.43495 -3.49246 0
M  V30 3970 N 404.999 1.35443 0.805782 0
M  V30 3971 C 406.276 1.19325 1.54987 0
M  V30 3972 C 406.656 -0.227294 2.09873 0
M  V30 3973 O 406.004 -1.2309 1.92512 0
M  V30 3974 C 406.214 2.26196 2.65775 0
M  V30 3975 C 407.562 2.62043 3.34094 0
M  V30 3976 O 408.586 2.25115 2.76046 0
M  V30 3977 O 407.445 3.25542 4.38958 0
M  V30 3978 H 404.539 0.463623 0.684823 0
M  V30 3979 H 407.085 1.47127 0.845674 0
M  V30 3980 H 405.857 3.21471 2.23096 0
M  V30 3981 H 405.48 1.99667 3.43829 0
M  V30 3982 N 406.477 -1.02803 1.19454 0
M  V30 3983 C 407.44 -2.09264 0.934955 0
M  V30 3984 C 408.44 -1.60576 -0.0849015 0
M  V30 3985 O 409.63 -1.73554 0.149933 0
M  V30 3986 C 406.762 -3.38482 0.40531 0
M  V30 3987 H 407.955 -2.33726 1.87916 0
M  V30 3988 H 405.508 -1.19426 1.00832 0
M  V30 3989 H 406.243 -3.19689 -0.544899 0
M  V30 3990 H 406.028 -3.75142 1.14065 0
M  V30 3991 H 407.518 -4.16894 0.242806 0
M  V30 3992 N 407.956 -0.998596 -1.21925 0
M  V30 3993 C 408.919 -0.558679 -2.22287 0
M  V30 3994 C 409.919 0.361525 -1.56683 0
M  V30 3995 O 411.109 0.152695 -1.73529 0
M  V30 3996 C 408.241 0.18661 -3.40389 0
M  V30 3997 H 409.434 -1.4463 -2.62721 0
M  V30 3998 H 406.987 -0.786413 -1.35075 0
M  V30 3999 H 407.722 1.08996 -3.05435 0
M  V30 4000 H 407.507 -0.474188 -3.89222 0
M  V30 4001 H 408.997 0.482367 -4.14805 0
M  V30 4002 N 409.434 1.37368 -0.772513 0
M  V30 4003 C 410.845 1.8231 -0.402493 0
M  V30 4004 C 411.196 1.6436 1.07146 0
M  V30 4005 O 410.321 1.15514 1.82991 0
M  V30 4006 C 410.916 3.30979 -0.723776 0
M  V30 4007 C 409.475 3.74195 -0.406802 0
M  V30 4008 C 408.622 2.59885 -0.967218 0
M  V30 4009 H 411.573 1.25829 -0.967099 0
M  V30 4010 H 411.594 3.80499 -0.00870832 0
M  V30 4011 H 411.106 3.44011 -1.7966 0
M  V30 4012 H 409.207 3.66732 0.658673 0
M  V30 4013 H 409.32 4.7027 -0.915588 0
M  V30 4014 H 407.684 2.51674 -0.391416 0
M  V30 4015 H 408.467 2.7571 -2.04546 0
M  V30 4016 N 410.912 0.523116 1.48665 0
M  V30 4017 C 412.16 -0.0134497 2.02096 0
M  V30 4018 C 412.481 -1.35418 1.40311 0
M  V30 4019 O 411.751 -1.87543 0.566074 0
M  V30 4020 H 410.331 -0.00795915 0.746958 0
M  V30 4021 H 412.993 0.685388 1.82451 0
M  V30 4022 H 412.089 -0.126849 3.11842 0
M  V30 4023 N 412.39 -1.55475 0.257931 0
M  V30 4024 C 413.636 -1.99502 -0.364266 0
M  V30 4025 C 413.969 -1.146 -1.56782 0
M  V30 4026 O 413.244 -0.211968 -1.93342 0
M  V30 4027 C 413.527 -3.51917 -0.763333 0
M  V30 4028 C 413.38 -4.4758 0.446371 0
M  V30 4029 C 414.699 -4.09742 -1.60623 0
M  V30 4030 H 411.818 -0.725277 -0.130929 0
M  V30 4031 H 414.46 -1.8653 0.361446 0
M  V30 4032 H 412.61 -3.63101 -1.38166 0
M  V30 4033 H 414.282 -4.48362 1.08487 0
M  V30 4034 H 412.525 -4.19947 1.08753 0
M  V30 4035 H 413.196 -5.51862 0.123645 0
M  V30 4036 H 415.672 -4.01727 -1.08418 0
M  V30 4037 H 414.548 -5.16631 -1.85429 0
M  V30 4038 H 414.809 -3.58889 -2.58169 0
M  V30 4039 N 413.868 0.0150385 -1.57593 0
M  V30 4040 C 415.145 0.7392 -1.81094 0
M  V30 4041 C 415.525 1.92817 -0.859344 0
M  V30 4042 O 414.873 2.28301 0.095362 0
M  V30 4043 C 415.083 1.15907 -3.29191 0
M  V30 4044 C 416.431 1.56918 -3.9454 0
M  V30 4045 O 417.455 1.25328 -3.33424 0
M  V30 4046 O 416.314 2.15604 -5.02173 0
M  V30 4047 H 413.408 0.358631 -0.745193 0
M  V30 4048 H 415.954 -0.00926156 -1.69697 0
M  V30 4049 H 414.726 0.310921 -3.90063 0
M  V30 4050 H 414.349 1.96711 -3.45529 0
M  V30 4051 N 415.346 1.54954 0.287554 0
M  V30 4052 C 416.276 1.89839 1.35954 0
M  V30 4053 C 417.257 0.758675 1.52244 0
M  V30 4054 O 418.442 1.01557 1.65529 0
M  V30 4055 C 415.572 2.15753 2.72154 0
M  V30 4056 C 414.526 3.3159 2.70614 0
M  V30 4057 C 413.852 3.42952 4.10229 0
M  V30 4058 C 415.152 4.68359 2.31165 0
M  V30 4059 H 416.846 2.79625 1.07007 0
M  V30 4060 H 414.392 1.3454 0.513316 0
M  V30 4061 H 416.345 2.38743 3.47246 0
M  V30 4062 H 415.069 1.22752 3.02654 0
M  V30 4063 H 413.728 3.08545 1.97979 0
M  V30 4064 H 413.376 2.47443 4.37928 0
M  V30 4065 H 413.076 4.20826 4.10097 0
M  V30 4066 H 414.6 3.68218 4.87081 0
M  V30 4067 H 416.014 4.9099 2.95976 0
M  V30 4068 H 414.411 5.49044 2.42221 0
M  V30 4069 H 415.481 4.68165 1.26291 0
M  V30 4070 N 416.824 -0.551391 1.4764 0
M  V30 4071 C 418.049 -1.33837 1.58437 0
M  V30 4072 C 418.474 -1.866 0.237063 0
M  V30 4073 O 417.832 -1.6328 -0.787994 0
M  V30 4074 C 417.88 -2.48014 2.61766 0
M  V30 4075 O 416.984 -3.50419 2.1744 0
M  V30 4076 H 416.325 -0.397299 0.532024 0
M  V30 4077 H 418.855 -0.665759 1.93465 0
M  V30 4078 H 418.865 -2.94503 2.82369 0
M  V30 4079 H 417.54 -2.08969 3.5959 0
M  V30 4080 H 416.117 -3.10196 2.06961 0
M  V30 4081 N 418.302 -1.35869 -0.798587 0
M  V30 4082 C 419.718 -1.16082 -1.09532 0
M  V30 4083 C 419.918 0.0213124 -2.01489 0
M  V30 4084 O 418.974 0.689488 -2.42904 0
M  V30 4085 C 420.287 -2.46748 -1.7186 0
M  V30 4086 C 421.835 -2.53028 -1.84244 0
M  V30 4087 C 422.31 -3.83758 -2.49988 0
M  V30 4088 N 423.801 -3.85053 -2.57465 0
M  V30 4089 C 424.536 -4.8294 -3.09122 0
M  V30 4090 N 424.032 -5.91217 -3.61157 0
M  V30 4091 N 425.825 -4.70369 -3.0775 0
M  V30 4092 H 417.976 -2.11571 -0.187461 0
M  V30 4093 H 420.239 -0.936726 -0.145765 0
M  V30 4094 H 419.945 -3.33471 -1.11759 0
M  V30 4095 H 419.819 -2.61883 -2.71472 0
M  V30 4096 H 422.206 -1.66729 -2.43486 0
M  V30 4097 H 422.287 -2.418 -0.834643 0
M  V30 4098 H 421.931 -4.70459 -1.91393 0
M  V30 4099 H 421.861 -3.92278 -3.5132 0
M  V30 4100 H 424.352 -3.06822 -2.20609 0
M  V30 4101 H 424.665 -6.61892 -3.98896 0
M  V30 4102 H 423.01 -5.94899 -3.59333 0
M  V30 4103 H 426.201 -3.84914 -2.66381 0
M  V30 4104 H 426.374 -5.46816 -3.47701 0
M  V30 4105 N 419.78 1.02168 -1.19998 0
M  V30 4106 C 421.029 1.75091 -1.0013 0
M  V30 4107 C 421.342 1.89923 0.467835 0
M  V30 4108 O 422.548 2.59888 0.785515 0
M  V30 4109 C 421.004 3.14892 -1.74273 0
M  V30 4110 C 420.612 3.0809 -3.25245 0
M  V30 4111 C 422.356 3.9206 -1.62755 0
M  V30 4112 C 420.263 4.42867 -3.91948 0
M  V30 4113 H 419.193 0.656394 -0.37103 0
M  V30 4114 H 421.844 1.14284 -1.43567 0
M  V30 4115 H 420.226 3.7621 -1.2362 0
M  V30 4116 H 421.4 2.5611 -3.83072 0
M  V30 4117 H 419.715 2.44416 -3.3712 0
M  V30 4118 H 422.312 4.91764 -2.09934 0
M  V30 4119 H 422.655 4.12199 -0.582894 0
M  V30 4120 H 423.188 3.37359 -2.10793 0
M  V30 4121 H 419.927 4.27931 -4.96543 0
M  V30 4122 H 419.447 4.94874 -3.3891 0
M  V30 4123 H 421.126 5.11728 -3.95909 0
M  V30 4124 N 421.258 1.00505 1.21394 0
M  V30 4125 C 422.188 0.585684 2.26035 0
M  V30 4126 C 423.169 -0.393525 1.65485 0
M  V30 4127 O 424.354 -0.281497 1.92149 0
M  V30 4128 C 421.484 -0.0884283 3.47187 0
M  V30 4129 C 420.438 0.810567 4.20254 0
M  V30 4130 C 419.764 0.00286382 5.347 0
M  V30 4131 C 421.064 2.1132 4.77641 0
M  V30 4132 H 422.758 1.46039 2.61368 0
M  V30 4133 H 420.304 0.703648 1.25638 0
M  V30 4134 H 422.257 -0.393286 4.19561 0
M  V30 4135 H 420.981 -0.997766 3.10986 0
M  V30 4136 H 419.64 1.09925 3.49731 0
M  V30 4137 H 419.288 -0.907765 4.94741 0
M  V30 4138 H 418.988 0.601444 5.84514 0
M  V30 4139 H 420.512 -0.295808 6.09883 0
M  V30 4140 H 421.926 1.87148 5.41893 0
M  V30 4141 H 420.323 2.66164 5.37845 0
M  V30 4142 H 421.393 2.78393 3.9702 0
M  V30 4143 N 422.737 -1.36956 0.779787 0
M  V30 4144 C 423.685 -2.32053 0.15942 0
M  V30 4145 C 424.679 -1.55333 -0.675878 0
M  V30 4146 O 425.885 -1.70668 -0.57204 0
M  V30 4147 H 422.26 -0.751286 0.0327707 0
M  V30 4148 H 424.231 -2.8195 0.977078 0
M  V30 4149 C 422.98 -3.40602 -0.698977 0
M  V30 4150 H 422.303 -3.99746 -0.0655966 0
M  V30 4151 H 423.743 -4.09486 -1.09989 0
M  V30 4152 C 422.202 -2.81359 -1.85307 0
M  V30 4153 O 422.732 -2.72751 -2.94906 0
M  V30 4154 N 420.938 -2.38786 -1.65619 0
M  V30 4155 H 420.485 -2.45987 -0.764725 0
M  V30 4156 H 420.443 -1.99493 -2.43002 0
M  V30 4157 N 424.215 -0.530993 -1.48385 0
M  V30 4158 C 425.125 0.23503 -2.3342 0
M  V30 4159 C 426.141 0.93801 -1.46552 0
M  V30 4160 O 427.317 0.912745 -1.7953 0
M  V30 4161 C 424.382 1.26778 -3.22689 0
M  V30 4162 C 423.443 0.575038 -4.25431 0
M  V30 4163 C 422.676 1.55858 -5.10435 0
M  V30 4164 O 422.899 2.79129 -4.97437 0
M  V30 4165 O 421.833 1.09742 -5.91811 0
M  V30 4166 H 425.659 -0.461794 -3.00169 0
M  V30 4167 H 423.244 -0.291903 -1.46521 0
M  V30 4168 H 425.126 1.86457 -3.77904 0
M  V30 4169 H 423.801 1.94699 -2.586 0
M  V30 4170 H 422.708 -0.0622782 -3.74048 0
M  V30 4171 H 424.041 -0.062253 -4.92161 0
M  V30 4172 N 425.693 1.55336 -0.266172 0
M  V30 4173 C 426.626 2.18256 0.666296 0
M  V30 4174 C 427.604 1.14064 1.1588 0
M  V30 4175 O 428.788 1.42546 1.23341 0
M  V30 4176 C 425.915 2.79867 1.90768 0
M  V30 4177 C 424.961 3.97283 1.55141 0
M  V30 4178 S 425.794 5.31694 0.637313 0
M  V30 4179 C 426.95 5.96769 1.88727 0
M  V30 4180 H 427.183 2.97008 0.131647 0
M  V30 4181 H 424.716 1.54317 -0.0504869 0
M  V30 4182 H 426.674 3.15996 2.62025 0
M  V30 4183 H 425.335 2.01025 2.41346 0
M  V30 4184 H 424.528 4.3905 2.4749 0
M  V30 4185 H 424.13 3.6253 0.919113 0
M  V30 4186 H 426.422 6.15458 2.83227 0
M  V30 4187 H 427.365 6.91752 1.51276 0
M  V30 4188 H 427.773 5.26034 2.04814 0
M  V30 4189 N 427.171 -0.0066808 1.57599 0
M  V30 4190 C 428.587 -0.36267 1.55425 0
M  V30 4191 C 428.787 -1.75209 0.995187 0
M  V30 4192 O 427.843 -2.44616 0.626058 0
M  V30 4193 C 429.156 -0.244017 2.99708 0
M  V30 4194 C 430.704 -0.319451 3.11366 0
M  V30 4195 C 431.179 -0.229998 4.57422 0
M  V30 4196 N 432.67 -0.288105 4.62303 0
M  V30 4197 C 433.405 -0.242127 5.72889 0
M  V30 4198 N 432.901 -0.147133 6.92644 0
M  V30 4199 N 434.694 -0.293502 5.61333 0
M  V30 4200 H 426.845 0.902314 1.92281 0
M  V30 4201 H 429.108 0.34525 0.882896 0
M  V30 4202 H 428.814 0.711678 3.44424 0
M  V30 4203 H 428.688 -1.02877 3.629 0
M  V30 4204 H 431.075 -1.26559 2.66584 0
M  V30 4205 H 431.156 0.495055 2.50964 0
M  V30 4206 H 430.8 0.712566 5.02877 0
M  V30 4207 H 430.73 -1.0629 5.15761 0
M  V30 4208 H 433.221 -0.363126 3.76151 0
M  V30 4209 H 433.534 -0.117763 7.7271 0
M  V30 4210 H 431.879 -0.112857 6.94908 0
M  V30 4211 H 435.07 -0.365864 4.66668 0
M  V30 4212 H 435.243 -0.254204 6.47501 0
M  V30 4213 N 428.649 -1.55105 -0.279332 0
M  V30 4214 C 429.926 -1.66119 -1.03267 0
M  V30 4215 C 430.306 -0.523525 -2.04505 0
M  V30 4216 O 429.654 0.477194 -2.23462 0
M  V30 4217 C 429.864 -3.05067 -1.69515 0
M  V30 4218 C 431.212 -3.62606 -2.20912 0
M  V30 4219 O 432.236 -3.07659 -1.79512 0
M  V30 4220 O 431.095 -4.58861 -2.96831 0
M  V30 4221 H 428.189 -0.674429 -0.478618 0
M  V30 4222 H 430.735 -1.67446 -0.275694 0
M  V30 4223 H 429.507 -3.79311 -0.9612 0
M  V30 4224 H 429.13 -3.07611 -2.51915 0
M  V30 4225 N 430.127 0.543554 -1.4793 0
M  V30 4226 C 431.059 1.665 -1.57513 0
M  V30 4227 C 432.072 1.56156 -0.460333 0
M  V30 4228 O 433.261 1.62865 -0.730573 0
M  V30 4229 C 430.361 3.05063 -1.47614 0
M  V30 4230 C 429.534 3.41024 -2.739 0
M  V30 4231 C 428.593 4.58809 -2.57645 0
M  V30 4232 O 427.619 4.62707 -3.31498 0
M  V30 4233 N 428.821 5.56149 -1.66368 0
M  V30 4234 H 431.586 1.5872 -2.5422 0
M  V30 4235 H 429.147 0.730517 -1.44482 0
M  V30 4236 H 431.139 3.81712 -1.34455 0
M  V30 4237 H 429.709 3.06994 -0.589359 0
M  V30 4238 H 428.929 2.53687 -3.01723 0
M  V30 4239 H 430.217 3.61831 -3.57709 0
M  V30 4240 H 429.615 5.55767 -1.05543 0
M  V30 4241 H 428.172 6.32071 -1.59154 0
M  V30 4242 N 431.605 1.3629 0.791371 0
M  V30 4243 C 432.835 1.33368 1.57786 0
M  V30 4244 C 433.243 -0.0875188 1.88997 0
M  V30 4245 O 432.586 -1.05427 1.50435 0
M  V30 4246 C 432.648 2.08802 2.92646 0
M  V30 4247 C 432.312 3.57903 2.84174 0
M  V30 4248 C 433.309 4.52191 2.56553 0
M  V30 4249 C 430.994 4.00762 3.02812 0
M  V30 4250 C 432.988 5.87315 2.47669 0
M  V30 4251 C 430.675 5.35977 2.93551 0
M  V30 4252 C 431.673 6.29066 2.66017 0
M  V30 4253 O 431.361 7.61798 2.56746 0
M  V30 4254 H 431.093 0.459166 0.496128 0
M  V30 4255 H 433.647 1.79952 0.990269 0
M  V30 4256 H 431.877 1.56878 3.53449 0
M  V30 4257 H 433.566 1.98762 3.53904 0
M  V30 4258 H 434.332 4.20393 2.41858 0
M  V30 4259 H 430.211 3.2868 3.2325 0
M  V30 4260 H 433.755 6.59943 2.26099 0
M  V30 4261 H 429.652 5.67384 3.07808 0
M  V30 4262 H 430.42 7.71898 2.72242 0
M  V30 4263 N 433.083 -1.0153 1.20538 0
M  V30 4264 C 433.993 -2.13557 0.971113 0
M  V30 4265 C 435.009 -1.73845 -0.0734366 0
M  V30 4266 O 436.185 -2.01075 0.114299 0
M  V30 4267 C 433.25 -3.42661 0.527639 0
M  V30 4268 C 432.311 -3.96608 1.64319 0
M  V30 4269 C 431.544 -5.1955 1.22078 0
M  V30 4270 O 431.767 -5.70329 0.0900198 0
M  V30 4271 O 430.701 -5.66681 2.02871 0
M  V30 4272 H 434.527 -2.3619 1.90913 0
M  V30 4273 H 432.112 -1.11946 0.989362 0
M  V30 4274 H 433.994 -4.20404 0.289621 0
M  V30 4275 H 432.669 -3.21441 -0.381779 0
M  V30 4276 H 431.576 -3.20139 1.93551 0
M  V30 4277 H 432.909 -4.22219 2.52966 0
M  V30 4278 N 434.561 -1.01147 -1.20859 0
M  V30 4279 C 435.493 -0.535546 -2.22855 0
M  V30 4280 C 436.506 0.379323 -1.58319 0
M  V30 4281 O 437.695 0.178489 -1.77605 0
M  V30 4282 C 434.795 0.240962 -3.38042 0
M  V30 4283 C 433.968 -0.674562 -4.32167 0
M  V30 4284 C 433.027 0.053467 -5.26173 0
M  V30 4285 O 432.053 -0.567339 -5.66366 0
M  V30 4286 N 433.255 1.32997 -5.65059 0
M  V30 4287 H 436.02 -1.41268 -2.64317 0
M  V30 4288 H 433.581 -0.888386 -1.35349 0
M  V30 4289 H 435.573 0.737115 -3.97931 0
M  V30 4290 H 434.143 1.01935 -2.95513 0
M  V30 4291 H 433.363 -1.35111 -3.70322 0
M  V30 4292 H 434.651 -1.2974 -4.91981 0
M  V30 4293 H 434.049 1.85536 -5.34409 0
M  V30 4294 H 432.606 1.77095 -6.2728 0
M  V30 4295 N 436.039 1.36541 -0.78704 0
M  V30 4296 C 436.972 2.27831 -0.129765 0
M  V30 4297 C 437.95 1.47105 0.692732 0
M  V30 4298 O 439.134 1.7641 0.664222 0
M  V30 4299 C 436.261 3.28577 0.821883 0
M  V30 4300 C 435.307 4.26422 0.0814771 0
M  V30 4301 S 436.14 5.20919 -1.24112 0
M  V30 4302 C 437.296 6.25212 -0.293409 0
M  V30 4303 H 437.529 2.83229 -0.903811 0
M  V30 4304 H 435.062 1.43046 -0.581144 0
M  V30 4305 H 437.02 3.87123 1.3655 0
M  V30 4306 H 435.681 2.72096 1.56916 0
M  V30 4307 H 434.874 4.97554 0.803485 0
M  V30 4308 H 434.476 3.71944 -0.391589 0
M  V30 4309 H 436.768 6.75435 0.528622 0
M  V30 4310 H 437.711 7.01378 -0.973344 0
M  V30 4311 H 438.119 5.64407 0.102196 0
M  V30 4312 N 437.518 0.538854 1.48102 0
M  V30 4313 C 438.481 -0.208395 2.28251 0
M  V30 4314 C 439.481 -0.859656 1.35892 0
M  V30 4315 O 440.671 -0.71834 1.58699 0
M  V30 4316 C 437.803 -1.30252 3.15035 0
M  V30 4317 H 438.996 0.495407 2.9578 0
M  V30 4318 H 436.549 0.295112 1.53489 0
M  V30 4319 H 437.284 -2.0393 2.52157 0
M  V30 4320 H 437.069 -0.840551 3.82985 0
M  V30 4321 H 438.559 -1.82787 3.75471 0
M  V30 4322 N 438.996 -1.55193 0.274407 0
M  V30 4323 C 439.906 -2.26164 -0.623473 0
M  V30 4324 C 440.922 -1.28729 -1.17068 0
M  V30 4325 O 442.098 -1.61663 -1.20112 0
M  V30 4326 C 439.163 -2.96833 -1.7914 0
M  V30 4327 C 438.224 -4.09745 -1.28093 0
M  V30 4328 C 437.457 -4.77034 -2.3932 0
M  V30 4329 O 437.68 -4.4353 -3.5866 0
M  V30 4330 O 436.614 -5.64996 -2.07516 0
M  V30 4331 H 440.44 -3.03661 -0.0485661 0
M  V30 4332 H 438.025 -1.49341 0.0418382 0
M  V30 4333 H 439.907 -3.41248 -2.4724 0
M  V30 4334 H 438.582 -2.22253 -2.35341 0
M  V30 4335 H 437.489 -3.69787 -0.566416 0
M  V30 4336 H 438.822 -4.86224 -0.764683 0
M  V30 4337 N 440.474 -0.00167713 -1.576 0
M  V30 4338 C 441.421 0.989195 -2.08527 0
M  V30 4339 C 442.391 1.34031 -0.981065 0
M  V30 4340 O 443.576 1.43839 -1.2536 0
M  V30 4341 C 440.716 2.27537 -2.59463 0
M  V30 4342 C 439.829 1.98314 -3.83791 0
M  V30 4343 C 438.964 3.21025 -4.23222 0
M  V30 4344 C 438.003 2.87495 -5.40382 0
M  V30 4345 N 437.14 4.02749 -5.75098 0
M  V30 4346 H 441.98 0.547973 -2.92919 0
M  V30 4347 H 439.517 0.258917 -1.44803 0
M  V30 4348 H 441.475 3.02729 -2.87073 0
M  V30 4349 H 440.105 2.69325 -1.77943 0
M  V30 4350 H 439.157 1.13482 -3.63078 0
M  V30 4351 H 440.469 1.69601 -4.69081 0
M  V30 4352 H 439.623 4.04561 -4.52123 0
M  V30 4353 H 438.362 3.52877 -3.36644 0
M  V30 4354 H 437.367 2.02367 -5.11202 0
M  V30 4355 H 438.592 2.56889 -6.28637 0
M  V30 4356 H 436.538 4.34494 -4.91478 0
M  V30 4357 H 436.455 3.77566 -6.54966 0
M  V30 4358 H 437.723 4.87068 -6.08592 0
M  V30 4359 N 441.952 1.55251 0.271103 0
M  V30 4360 C 442.9 1.89054 1.35504 0
M  V30 4361 C 443.894 0.767064 1.51038 0
M  V30 4362 O 445.1 0.951429 1.528 0
M  V30 4363 H 441.475 0.600072 0.45323 0
M  V30 4364 H 443.446 2.79598 1.04247 0
M  V30 4365 C 442.195 2.18068 2.70817 0
M  V30 4366 H 441.518 3.04005 2.59656 0
M  V30 4367 H 442.958 2.4564 3.45597 0
M  V30 4368 C 441.417 0.988901 3.2206 0
M  V30 4369 O 441.947 0.224501 4.01072 0
M  V30 4370 N 440.153 0.786085 2.79766 0
M  V30 4371 H 439.7 1.40937 2.15626 0
M  V30 4372 H 439.658 -0.00969349 3.14399 0
M  V30 4373 N 443.43 -0.535701 1.48216 0
M  V30 4374 C 444.846 -0.863701 1.3421 0
M  V30 4375 C 445.046 -1.98458 0.34879 0
M  V30 4376 O 444.102 -2.51432 -0.23204 0
M  V30 4377 C 445.415 -1.23662 2.74095 0
M  V30 4378 C 446.963 -1.34683 2.82541 0
M  V30 4379 C 447.438 -1.75322 4.23115 0
M  V30 4380 N 448.929 -1.82434 4.2576 0
M  V30 4381 C 449.664 -2.15252 5.31464 0
M  V30 4382 N 449.16 -2.46533 6.47452 0
M  V30 4383 N 450.953 -2.16209 5.18855 0
M  V30 4384 H 443.104 0.203965 2.11418 0
M  V30 4385 H 445.367 0.0286033 0.947568 0
M  V30 4386 H 445.073 -0.486674 3.48316 0
M  V30 4387 H 444.947 -2.18805 3.07253 0
M  V30 4388 H 447.334 -2.08756 2.08579 0
M  V30 4389 H 447.415 -0.376756 2.5301 0
M  V30 4390 H 447.059 -1.01812 4.97591 0
M  V30 4391 H 446.989 -2.7337 4.50085 0
M  V30 4392 H 449.48 -1.6056 3.42095 0
M  V30 4393 H 449.793 -2.70662 7.23852 0
M  V30 4394 H 448.138 -2.44065 6.50736 0
M  V30 4395 H 451.329 -1.91224 4.2726 0
M  V30 4396 H 451.502 -2.41453 6.01335 0
M  V30 4397 N 444.908 -1.36708 -0.784132 0
M  V30 4398 C 446.324 -1.17237 -1.08294 0
M  V30 4399 C 446.524 -5.93947e-05 -2.015 0
M  V30 4400 O 445.58 0.663686 -2.43622 0
M  V30 4401 C 446.893 -2.48557 -1.69233 0
M  V30 4402 C 448.441 -2.54968 -1.8155 0
M  V30 4403 C 448.916 -3.86388 -2.45904 0
M  V30 4404 N 450.407 -3.87762 -2.53367 0
M  V30 4405 C 451.142 -4.86191 -3.03983 0
M  V30 4406 N 450.638 -5.95015 -3.54866 0
M  V30 4407 N 452.431 -4.73606 -3.02743 0
M  V30 4408 H 444.582 -2.11758 -0.16501 0
M  V30 4409 H 446.845 -0.93822 -0.135822 0
M  V30 4410 H 446.551 -3.34638 -1.08215 0
M  V30 4411 H 446.425 -2.64748 -2.68679 0
M  V30 4412 H 448.812 -1.69302 -2.41704 0
M  V30 4413 H 448.893 -2.42672 -0.80895 0
M  V30 4414 H 448.537 -4.72462 -1.86392 0
M  V30 4415 H 448.467 -3.95982 -3.4714 0
M  V30 4416 H 450.958 -3.09145 -2.17343 0
M  V30 4417 H 451.271 -6.66086 -3.91854 0
M  V30 4418 H 449.616 -5.98676 -3.53003 0
M  V30 4419 H 452.807 -3.87717 -2.62284 0
M  V30 4420 H 452.98 -5.50473 -3.41881 0
M  V30 4421 N 446.386 1.0089 -1.21074 0
M  V30 4422 C 447.663 1.71834 -0.934469 0
M  V30 4423 C 448.043 2.0368 0.554753 0
M  V30 4424 O 447.391 1.70742 1.51854 0
M  V30 4425 C 447.601 2.98061 -1.8155 0
M  V30 4426 C 448.949 3.7117 -2.06199 0
M  V30 4427 O 449.973 3.08034 -1.78867 0
M  V30 4428 O 448.832 4.84721 -2.52404 0
M  V30 4429 H 445.926 0.749253 -0.35007 0
M  V30 4430 H 448.472 1.06668 -1.31985 0
M  V30 4431 H 447.244 2.70908 -2.82355 0
M  V30 4432 H 446.867 3.70968 -1.43068 0
M  V30 4433 N 447.864 1.01787 1.20321 0
M  V30 4434 C 448.827 0.593972 2.2137 0
M  V30 4435 C 449.827 -0.336553 1.57239 0
M  V30 4436 O 451.017 -0.125069 1.7375 0
M  V30 4437 C 448.149 -0.132433 3.40643 0
M  V30 4438 H 449.342 1.48791 2.60387 0
M  V30 4439 H 446.895 0.807803 1.33807 0
M  V30 4440 H 447.63 -1.04123 3.0713 0
M  V30 4441 H 447.415 0.53605 3.88418 0
M  V30 4442 H 448.905 -0.416314 4.1552 0
M  V30 4443 N 449.342 -1.36122 0.79427 0
M  V30 4444 C 450.252 -2.33769 0.197296 0
M  V30 4445 C 451.268 -1.61276 -0.653153 0
M  V30 4446 O 452.444 -1.9323 -0.5678 0
M  V30 4447 C 449.509 -3.40474 -0.654098 0
M  V30 4448 C 448.57 -4.28759 0.215411 0
M  V30 4449 C 447.803 -5.30368 -0.595443 0
M  V30 4450 O 448.026 -5.40211 -1.83107 0
M  V30 4451 O 446.96 -6.019 0.00721351 0
M  V30 4452 H 450.786 -2.86597 1.00478 0
M  V30 4453 H 448.371 -1.38676 0.555818 0
M  V30 4454 H 450.253 -4.05703 -1.13944 0
M  V30 4455 H 448.928 -2.89937 -1.43938 0
M  V30 4456 H 447.835 -3.66554 0.747615 0
M  V30 4457 H 449.168 -4.82661 0.964332 0
M  V30 4458 N 450.82 -0.546701 -1.47814 0
M  V30 4459 C 452.048 -0.0232857 -2.06887 0
M  V30 4460 C 452.463 1.26571 -1.4009 0
M  V30 4461 O 451.82 1.7569 -0.493906 0
M  V30 4462 C 451.871 0.186975 -3.61016 0
M  V30 4463 O 451.592 -1.05097 -4.25307 0
M  V30 4464 C 453.093 0.748872 -4.36929 0
M  V30 4465 H 450.313 -0.0410763 -0.669742 0
M  V30 4466 H 452.857 -0.757117 -1.89968 0
M  V30 4467 H 451.012 0.870903 -3.77484 0
M  V30 4468 H 451.426 -0.842121 -5.17695 0
M  V30 4469 H 452.9 0.845334 -5.45489 0
M  V30 4470 H 453.377 1.75772 -4.02493 0
M  V30 4471 H 453.983 0.100979 -4.2518 0
M  V30 4472 N 452.299 1.55045 -0.282633 0
M  V30 4473 C 453.545 2.0078 0.325436 0
M  V30 4474 C 453.9 1.1676 1.52921 0
M  V30 4475 O 453.193 0.231475 1.90197 0
M  V30 4476 C 453.387 3.49422 0.750938 0
M  V30 4477 C 453.216 4.47827 -0.410056 0
M  V30 4478 C 451.986 4.97288 -0.896239 0
M  V30 4479 C 454.184 4.98903 -1.24902 0
M  V30 4480 N 452.166 5.79508 -2.02591 0
M  V30 4481 C 453.537 5.78644 -2.22646 0
M  V30 4482 C 455.592 4.81126 -1.2815 0
M  V30 4483 C 454.295 6.42502 -3.23393 0
M  V30 4484 C 456.321 5.45789 -2.27745 0
M  V30 4485 C 455.683 6.25348 -3.24222 0
M  V30 4486 H 451.782 0.77747 0.08405 0
M  V30 4487 H 454.366 1.90369 -0.408368 0
M  V30 4488 H 452.537 3.60159 1.45395 0
M  V30 4489 H 454.269 3.81978 1.33698 0
M  V30 4490 H 451.024 4.71219 -0.474277 0
M  V30 4491 H 451.448 6.25308 -2.59459 0
M  V30 4492 H 456.09 4.19215 -0.549397 0
M  V30 4493 H 453.808 7.03558 -3.97533 0
M  V30 4494 H 457.394 5.33972 -2.31009 0
M  V30 4495 H 456.274 6.74498 -4.00027 0
M  V30 4496 N 453.777 0.010035 1.57597 0
M  V30 4497 C 455.024 -0.6727 1.91 0
M  V30 4498 C 455.352 -1.73219 0.884614 0
M  V30 4499 O 454.607 -1.95395 -0.109215 0
M  V30 4500 C 454.906 -1.34434 3.31153 0
M  V30 4501 C 454.572 -0.417083 4.48967 0
M  V30 4502 C 453.234 -0.161809 4.80928 0
M  V30 4503 C 455.586 0.220753 5.20732 0
M  V30 4504 C 452.914 0.739426 5.82022 0
M  V30 4505 C 455.266 1.10993 6.22787 0
M  V30 4506 C 453.93 1.37428 6.532 0
M  V30 4507 H 453.2 -0.246158 0.698918 0
M  V30 4508 H 455.847 0.0677145 1.9138 0
M  V30 4509 H 454.152 -2.15905 3.26944 0
M  V30 4510 H 455.849 -1.87883 3.54261 0
M  V30 4511 H 452.439 -0.626217 4.24001 0
M  V30 4512 H 456.623 0.0365643 4.96287 0
M  V30 4513 H 451.879 0.952139 6.03941 0
M  V30 4514 H 456.053 1.61046 6.77523 0
M  V30 4515 H 453.68 2.0743 7.31353 0
M  V30 4516 N 455.255 -1.55392 -0.262866 0
M  V30 4517 C 456.185 -1.91978 -1.32917 0
M  V30 4518 C 457.166 -0.7828 -1.51017 0
M  V30 4519 O 458.351 -1.04178 -1.63892 0
M  V30 4520 C 455.481 -2.20055 -2.68687 0
M  V30 4521 C 454.435 -3.35854 -2.65304 0
M  V30 4522 C 453.761 -3.49435 -4.04721 0
M  V30 4523 C 455.061 -4.71977 -2.23685 0
M  V30 4524 H 456.755 -2.81292 -1.02544 0
M  V30 4525 H 454.301 -1.3534 -0.491846 0
M  V30 4526 H 456.254 -2.44237 -3.43404 0
M  V30 4527 H 454.978 -1.27551 -3.00663 0
M  V30 4528 H 453.637 -3.11655 -1.93045 0
M  V30 4529 H 453.285 -2.54379 -4.33936 0
M  V30 4530 H 452.985 -4.27297 -4.0335 0
M  V30 4531 H 454.509 -3.7592 -4.81161 0
M  V30 4532 H 455.923 -4.95637 -2.88127 0
M  V30 4533 H 454.32 -5.52828 -2.33456 0
M  V30 4534 H 455.39 -4.70115 -1.18827 0
M  V30 4535 N 456.733 0.527833 -1.48498 0
M  V30 4536 C 457.958 1.313 -1.60546 0
M  V30 4537 C 458.383 1.86199 -0.26672 0
M  V30 4538 O 457.741 1.64513 0.761918 0
M  V30 4539 C 457.789 2.43818 -2.65678 0
M  V30 4540 O 456.893 3.46916 -2.22987 0
M  V30 4541 H 456.234 0.388784 -0.538277 0
M  V30 4542 H 458.764 0.634896 -1.945 0
M  V30 4543 H 458.774 2.89973 -2.87018 0
M  V30 4544 H 457.449 2.03222 -3.62869 0
M  V30 4545 H 456.026 3.06864 -2.11869 0
M  V30 4546 N 458.211 1.37122 0.776871 0
M  V30 4547 C 459.158 1.3247 1.88998 0
M  V30 4548 C 460.128 0.191143 1.64997 0
M  V30 4549 O 461.313 0.379683 1.86984 0
M  V30 4550 C 458.453 1.13241 3.25992 0
M  V30 4551 C 457.566 2.35782 3.61982 0
M  V30 4552 C 456.701 2.09465 4.88158 0
M  V30 4553 C 455.74 3.279 5.16864 0
M  V30 4554 N 454.877 3.01167 6.34226 0
M  V30 4555 H 459.717 2.27642 1.9231 0
M  V30 4556 H 457.254 1.13125 0.94027 0
M  V30 4557 H 459.212 1.00115 4.0501 0
M  V30 4558 H 457.842 0.217186 3.22069 0
M  V30 4559 H 456.894 2.59666 2.77989 0
M  V30 4560 H 458.206 3.24125 3.79137 0
M  V30 4561 H 457.36 1.93341 5.75069 0
M  V30 4562 H 456.099 1.18452 4.73097 0
M  V30 4563 H 455.104 3.44569 4.2843 0
M  V30 4564 H 456.329 4.19757 5.33836 0
M  V30 4565 H 454.275 2.12779 6.20533 0
M  V30 4566 H 454.192 3.83052 6.51772 0
M  V30 4567 H 455.46 2.88649 7.24087 0
M  V30 4568 N 459.689 -1.00246 1.21608 0
M  V30 4569 C 460.917 -1.77631 1.06089 0
M  V30 4570 C 461.332 -1.84746 -0.38916 0
M  V30 4571 O 460.689 -1.31068 -1.26994 0
M  V30 4572 C 460.74 -3.21415 1.65453 0
M  V30 4573 O 460.461 -3.14703 3.04785 0
M  V30 4574 C 461.962 -4.15289 1.55079 0
M  V30 4575 H 459.182 -0.558162 0.37242 0
M  V30 4576 H 461.726 -1.26093 1.60999 0
M  V30 4577 H 459.881 -3.70053 1.14629 0
M  V30 4578 H 460.295 -4.05056 3.33212 0
M  V30 4579 H 461.769 -5.13965 2.01355 0
M  V30 4580 H 462.246 -4.36279 0.505665 0
M  V30 4581 H 462.852 -3.72543 2.05163 0
M  V30 4582 N 461.167 -1.02423 -1.1978 0
M  V30 4583 C 462.077 -0.610919 -2.26506 0
M  V30 4584 C 463.093 0.355152 -1.70337 0
M  V30 4585 O 464.269 0.214195 -2.00258 0
M  V30 4586 C 461.334 0.0365921 -3.46681 0
M  V30 4587 C 460.395 -0.976389 -4.18049 0
M  V30 4588 C 459.628 -0.359683 -5.32487 0
M  V30 4589 O 459.851 0.838601 -5.64202 0
M  V30 4590 O 458.785 -1.08022 -5.92127 0
M  V30 4591 H 462.611 -1.49965 -2.64091 0
M  V30 4592 H 460.196 -0.794156 -1.26545 0
M  V30 4593 H 462.078 0.39786 -4.19518 0
M  V30 4594 H 460.753 0.899398 -3.10954 0
M  V30 4595 H 459.66 -1.38916 -3.47352 0
M  V30 4596 H 460.993 -1.80941 -4.57735 0
M  V30 4597 N 462.645 1.35699 -0.801477 0
M  V30 4598 C 463.555 2.33661 -0.209691 0
M  V30 4599 C 464.571 1.6162 0.644591 0
M  V30 4600 O 465.747 1.93529 0.557545 0
M  V30 4601 C 462.812 3.40816 0.636033 0
M  V30 4602 C 461.873 4.28639 -0.238147 0
M  V30 4603 C 461.106 5.30676 0.567307 0
M  V30 4604 O 461.329 5.41174 1.8024 0
M  V30 4605 O 460.263 6.01887 -0.0391336 0
M  V30 4606 H 464.089 2.8606 -1.01996 0
M  V30 4607 H 461.674 1.38379 -0.563164 0
M  V30 4608 H 463.556 4.06301 1.11791 0
M  V30 4609 H 462.231 2.90696 1.42399 0
M  V30 4610 H 461.138 3.66152 -0.767044 0
M  V30 4611 H 462.471 4.82143 -0.989915 0
M  V30 4612 N 464.123 0.554532 1.47522 0
M  V30 4613 C 465.053 -0.182974 2.32782 0
M  V30 4614 C 466.034 -0.911377 1.43624 0
M  V30 4615 O 467.219 -0.892366 1.72483 0
M  V30 4616 C 464.349 -1.21513 3.25349 0
M  V30 4617 C 463.303 -0.603355 4.23726 0
M  V30 4618 C 462.629 -1.73995 5.05598 0
M  V30 4619 C 463.929 0.441121 5.20434 0
M  V30 4620 H 465.623 0.52882 2.94693 0
M  V30 4621 H 463.169 0.255759 1.41711 0
M  V30 4622 H 465.122 -1.73922 3.83835 0
M  V30 4623 H 463.846 -1.95683 2.61487 0
M  V30 4624 H 462.505 -0.10059 3.66462 0
M  V30 4625 H 462.153 -2.47063 4.38143 0
M  V30 4626 H 461.853 -1.3364 5.72201 0
M  V30 4627 H 463.377 -2.26735 5.66942 0
M  V30 4628 H 464.791 0.00319931 5.733 0
M  V30 4629 H 463.188 0.763402 5.95224 0
M  V30 4630 H 464.258 1.33799 4.66075 0
M  V30 4631 N 465.601 -1.54893 0.290851 0
M  V30 4632 C 466.549 -2.24579 -0.605576 0
M  V30 4633 C 467.543 -1.24824 -1.14522 0
M  V30 4634 O 468.749 -1.42706 -1.09704 0
M  V30 4635 H 465.124 -0.720946 -0.213872 0
M  V30 4636 H 467.095 -2.984 0.0048173 0
M  V30 4637 C 465.844 -2.99224 -1.77088 0
M  V30 4638 H 465.167 -3.75782 -1.36484 0
M  V30 4639 H 466.607 -3.51281 -2.3744 0
M  V30 4640 C 465.066 -2.05602 -2.66888 0
M  V30 4641 O 465.596 -1.61745 -3.67698 0
M  V30 4642 N 463.802 -1.71771 -2.34399 0
M  V30 4643 H 463.349 -2.07633 -1.52468 0
M  V30 4644 H 463.307 -1.09403 -2.94751 0
M  V30 4645 N 467.08 -0.0183926 -1.57589 0
M  V30 4646 C 468.027 0.967022 -2.09565 0
M  V30 4647 C 468.997 1.32983 -0.995225 0
M  V30 4648 O 470.182 1.42501 -1.26878 0
M  V30 4649 C 467.322 2.24772 -2.61861 0
M  V30 4650 C 466.435 1.94232 -3.85873 0
M  V30 4651 C 465.57 3.16518 -4.26603 0
M  V30 4652 C 464.609 2.81748 -5.43401 0
M  V30 4653 N 463.746 3.96626 -5.79338 0
M  V30 4654 H 468.586 0.516874 -2.93483 0
M  V30 4655 H 466.123 0.243544 -1.4507 0
M  V30 4656 H 468.081 2.99667 -2.90268 0
M  V30 4657 H 466.711 2.67423 -1.8079 0
M  V30 4658 H 465.763 1.09625 -3.64262 0
M  V30 4659 H 467.075 1.64616 -4.70853 0
M  V30 4660 H 466.229 3.99743 -4.56389 0
M  V30 4661 H 464.968 3.49286 -3.40368 0
M  V30 4662 H 463.973 1.96933 -5.1332 0
M  V30 4663 H 465.198 2.50207 -6.31327 0
M  V30 4664 H 463.144 4.29257 -4.96059 0
M  V30 4665 H 463.061 3.70598 -6.58933 0
M  V30 4666 H 464.329 4.80586 -6.13724 0
M  V30 4667 N 468.558 1.5553 0.254621 0
M  V30 4668 C 469.468 1.92789 1.33677 0
M  V30 4669 C 470.484 0.827356 1.53071 0
M  V30 4670 O 471.66 1.12807 1.66843 0
M  V30 4671 C 468.725 2.20827 2.67275 0
M  V30 4672 C 467.786 3.4427 2.5647 0
M  V30 4673 C 467.019 3.70961 3.83697 0
M  V30 4674 O 467.242 2.99852 4.85227 0
M  V30 4675 O 466.176 4.64491 3.82794 0
M  V30 4676 H 470.002 2.84945 1.05071 0
M  V30 4677 H 467.587 1.42312 0.454723 0
M  V30 4678 H 469.469 2.40204 3.46237 0
M  V30 4679 H 468.144 1.31851 2.9563 0
M  V30 4680 H 467.051 3.30209 1.75821 0
M  V30 4681 H 468.384 4.33524 2.33062 0
M  V30 4682 N 470.036 -0.519951 1.48776 0
M  V30 4683 C 471.282 -1.27711 1.57536 0
M  V30 4684 C 471.615 -1.92547 0.252866 0
M  V30 4685 O 470.89 -1.7979 -0.742021 0
M  V30 4686 C 471.173 -2.35875 2.72094 0
M  V30 4687 C 471.026 -1.75664 4.1408 0
M  V30 4688 C 472.345 -3.37575 2.82367 0
M  V30 4689 H 469.464 -0.462971 0.573434 0
M  V30 4690 H 472.106 -0.578194 1.80989 0
M  V30 4691 H 470.256 -2.95488 2.52228 0
M  V30 4692 H 471.928 -1.20025 4.45412 0
M  V30 4693 H 470.171 -1.06154 4.20611 0
M  V30 4694 H 470.842 -2.54029 4.90075 0
M  V30 4695 H 473.318 -2.87929 3.00393 0
M  V30 4696 H 472.194 -4.1064 3.64233 0
M  V30 4697 H 472.455 -3.98743 1.90936 0
M  V30 4698 N 471.514 -1.37532 -0.769588 0
M  V30 4699 C 472.477 -1.33292 -1.86456 0
M  V30 4700 C 473.477 -0.236537 -1.59051 0
M  V30 4701 O 474.667 -0.492511 -1.67093 0
M  V30 4702 C 471.799 -1.07118 -3.23633 0
M  V30 4703 H 472.992 -2.30692 -1.91628 0
M  V30 4704 H 470.545 -1.22593 -0.969572 0
M  V30 4705 H 471.28 -0.102578 -3.24138 0
M  V30 4706 H 471.065 -1.86479 -3.44917 0
M  V30 4707 H 472.555 -1.06806 -4.03711 0
M  V30 4708 N 472.992 0.995999 -1.22138 0
M  V30 4709 C 474.217 1.77601 -1.0711 0
M  V30 4710 C 474.642 1.84339 0.374264 0
M  V30 4711 O 474 1.29359 1.27028 0
M  V30 4712 C 474.048 3.18897 -1.68336 0
M  V30 4713 O 473.152 4.01663 -0.934928 0
M  V30 4714 H 472.493 0.547011 -0.376397 0
M  V30 4715 H 475.023 1.25137 -1.6187 0
M  V30 4716 H 475.033 3.69539 -1.72931 0
M  V30 4717 H 473.708 3.13308 -2.73516 0
M  V30 4718 H 472.285 3.60204 -0.964751 0
M  V30 4719 N 474.47 1.03057 1.19235 0
M  V30 4720 C 475.418 0.606391 2.24557 0
M  V30 4721 C 476.412 -0.361826 1.65491 0
M  V30 4722 O 477.618 -0.23022 1.78522 0
M  V30 4723 H 473.993 0.177838 0.730669 0
M  V30 4724 H 475.964 1.50529 2.5765 0
M  V30 4725 C 474.713 -0.0252127 3.47691 0
M  V30 4726 H 474.036 0.710838 3.9343 0
M  V30 4727 H 475.476 -0.284931 4.23042 0
M  V30 4728 C 473.935 -1.27229 3.11953 0
M  V30 4729 O 474.465 -2.36416 3.24762 0
M  V30 4730 N 472.671 -1.16169 2.6637 0
M  V30 4731 H 472.218 -0.273189 2.56147 0
M  V30 4732 H 472.176 -1.99703 2.42829 0
M  V30 4733 N 475.948 -1.35272 0.808662 0
M  V30 4734 C 477.173 -2.03477 0.401475 0
M  V30 4735 C 477.598 -1.60537 -0.980279 0
M  V30 4736 O 476.956 -0.78304 -1.63518 0
M  V30 4737 C 477.004 -3.57181 0.495354 0
M  V30 4738 O 476.108 -4.09474 -0.490397 0
M  V30 4739 H 475.449 -0.642561 0.167366 0
M  V30 4740 H 477.979 -1.72824 1.09512 0
M  V30 4741 H 477.989 -4.06356 0.365912 0
M  V30 4742 H 476.664 -3.87784 1.5032 0
M  V30 4743 H 475.241 -3.71516 -0.321023 0
M  V30 4744 N 477.426 -0.562348 -1.47226 0
M  V30 4745 C 478.336 0.185466 -2.33866 0
M  V30 4746 C 479.352 0.906713 -1.48508 0
M  V30 4747 O 480.528 0.874458 -1.81425 0
M  V30 4748 C 477.593 1.19904 -3.25306 0
M  V30 4749 C 476.654 0.484669 -4.26555 0
M  V30 4750 C 475.887 1.44996 -5.13626 0
M  V30 4751 O 476.11 2.68515 -5.03245 0
M  V30 4752 O 475.044 0.971642 -5.94006 0
M  V30 4753 H 478.87 -0.525361 -2.99121 0
M  V30 4754 H 476.455 -0.322916 -1.45868 0
M  V30 4755 H 478.337 1.78399 -3.81774 0
M  V30 4756 H 477.012 1.8917 -2.62672 0
M  V30 4757 H 475.919 -0.141605 -3.73832 0
M  V30 4758 H 477.252 -0.166634 -4.91918 0
M  V30 4759 N 478.904 1.54736 -0.299062 0
M  V30 4760 C 479.834 2.26409 0.571085 0
M  V30 4761 C 480.815 1.2629 1.13951 0
M  V30 4762 O 482 1.55059 1.16921 0
M  V30 4763 C 479.13 3.00338 1.74396 0
M  V30 4764 C 478.084 4.07588 1.30599 0
M  V30 4765 C 477.41 4.69222 2.56387 0
M  V30 4766 C 478.71 5.20455 0.438645 0
M  V30 4767 H 480.404 2.99388 -0.0266991 0
M  V30 4768 H 477.95 1.43993 -0.0142812 0
M  V30 4769 H 479.903 3.49198 2.35878 0
M  V30 4770 H 478.627 2.24934 2.36796 0
M  V30 4771 H 477.286 3.59575 0.71424 0
M  V30 4772 H 476.934 3.9046 3.17097 0
M  V30 4773 H 476.634 5.41653 2.27784 0
M  V30 4774 H 478.158 5.20844 3.18675 0
M  V30 4775 H 479.572 5.65221 0.959085 0
M  V30 4776 H 477.969 5.99594 0.246466 0
M  V30 4777 H 479.039 4.8192 -0.536738 0
M  V30 4778 N 480.382 0.0267497 1.57577 0
M  V30 4779 C 481.628 -0.653371 1.91987 0
M  V30 4780 C 481.961 -1.71915 0.903263 0
M  V30 4781 O 481.236 -1.94358 -0.0743387 0
M  V30 4782 C 481.519 -1.272 3.36886 0
M  V30 4783 C 481.372 -0.215938 4.49281 0
M  V30 4784 C 482.691 -2.19069 3.81703 0
M  V30 4785 H 479.81 -0.236047 0.698177 0
M  V30 4786 H 482.452 0.0835236 1.89816 0
M  V30 4787 H 480.602 -1.90005 3.38866 0
M  V30 4788 H 482.274 0.41449 4.59434 0
M  V30 4789 H 480.517 0.458855 4.31366 0
M  V30 4790 H 481.188 -0.688347 5.47691 0
M  V30 4791 H 483.664 -1.66253 3.81444 0
M  V30 4792 H 482.54 -2.59307 4.83788 0
M  V30 4793 H 482.801 -3.08087 3.17072 0
M  V30 4794 N 481.861 -1.55662 -0.24637 0
M  V30 4795 C 482.793 -1.86811 -1.32794 0
M  V30 4796 C 483.806 -0.754413 -1.44265 0
M  V30 4797 O 484.995 -1.03253 -1.45606 0
M  V30 4798 C 482.095 -2.0397 -2.70646 0
M  V30 4799 C 481.268 -3.34832 -2.81436 0
M  V30 4800 C 480.327 -3.41727 -4.00136 0
M  V30 4801 O 479.353 -4.14934 -3.89639 0
M  V30 4802 N 480.555 -2.71058 -5.1333 0
M  V30 4803 H 483.32 -2.80174 -1.06409 0
M  V30 4804 H 480.881 -1.55906 -0.43647 0
M  V30 4805 H 482.873 -2.05924 -3.48393 0
M  V30 4806 H 481.443 -1.1735 -2.89738 0
M  V30 4807 H 480.663 -3.4519 -1.90361 0
M  V30 4808 H 481.951 -4.21085 -2.85595 0
M  V30 4809 H 481.349 -2.11314 -5.2475 0
M  V30 4810 H 479.906 -2.78704 -5.89209 0
M  V30 4811 N 483.339 0.512053 -1.4905 0
M  V30 4812 C 484.564 1.2959 -1.6193 0
M  V30 4813 C 484.989 1.85906 -0.286454 0
M  V30 4814 O 484.347 1.65312 0.744426 0
M  V30 4815 C 484.395 2.40987 -2.68249 0
M  V30 4816 O 483.499 3.44531 -2.26654 0
M  V30 4817 H 482.84 0.383053 -0.542371 0
M  V30 4818 H 485.37 0.614231 -1.95162 0
M  V30 4819 H 485.38 2.86913 -2.90078 0
M  V30 4820 H 484.055 1.99361 -3.65004 0
M  V30 4821 H 482.632 3.046 -2.15112 0
M  V30 4822 N 484.817 1.37938 0.762283 0
M  V30 4823 C 486.042 1.37059 1.55659 0
M  V30 4824 C 486.467 -0.0396123 1.88058 0
M  V30 4825 O 485.825 -1.01929 1.49934 0
M  V30 4826 C 485.873 2.22494 2.83776 0
M  V30 4827 O 484.977 1.63607 3.78559 0
M  V30 4828 H 484.318 0.467892 0.47114 0
M  V30 4829 H 486.848 1.81587 0.942725 0
M  V30 4830 H 486.858 2.36045 3.32786 0
M  V30 4831 H 485.533 3.24993 2.59524 0
M  V30 4832 H 484.11 1.5915 3.37233 0
M  V30 4833 N 486.295 -0.989507 1.22664 0
M  V30 4834 C 487.711 -1.25395 0.987331 0
M  V30 4835 C 487.911 -1.9899 -0.317056 0
M  V30 4836 O 486.967 -2.30141 -1.03882 0
M  V30 4837 C 488.28 -2.06242 2.18826 0
M  V30 4838 C 489.828 -2.19413 2.23219 0
M  V30 4839 C 490.303 -3.03648 3.42873 0
M  V30 4840 N 491.794 -3.11234 3.43056 0
M  V30 4841 C 492.529 -3.7671 4.32293 0
M  V30 4842 N 492.025 -4.44085 5.31752 0
M  V30 4843 N 493.818 -3.73505 4.2006 0
M  V30 4844 H 485.969 -0.496212 2.06522 0
M  V30 4845 H 488.232 -0.281784 0.905153 0
M  V30 4846 H 487.938 -1.59531 3.13437 0
M  V30 4847 H 487.812 -3.06996 2.19165 0
M  V30 4848 H 490.199 -2.65336 1.29154 0
M  V30 4849 H 490.28 -1.18078 2.26917 0
M  V30 4850 H 489.924 -2.58424 4.37241 0
M  V30 4851 H 489.854 -4.05132 3.36416 0
M  V30 4852 H 492.345 -2.63287 2.71088 0
M  V30 4853 H 492.658 -4.91797 5.96117 0
M  V30 4854 H 491.003 -4.42822 5.35662 0
M  V30 4855 H 494.194 -3.20033 3.41609 0
M  V30 4856 H 494.367 -4.24253 4.8981 0
M  V30 4857 N 487.773 -1.03688 -1.18687 0
M  V30 4858 C 488.998 -0.757819 -1.93059 0
M  V30 4859 C 489.423 0.678353 -1.75442 0
M  V30 4860 O 488.781 1.46938 -1.06203 0
M  V30 4861 C 488.829 -1.12423 -3.42627 0
M  V30 4862 O 487.933 -0.247505 -4.11657 0
M  V30 4863 H 487.274 -0.279245 -0.602427 0
M  V30 4864 H 489.804 -1.3857 -1.5053 0
M  V30 4865 H 489.814 -1.08454 -3.93322 0
M  V30 4866 H 488.489 -2.17049 -3.54771 0
M  V30 4867 H 487.066 -0.34649 -3.71287 0
M  V30 4868 N 489.251 1.34841 -0.815825 0
M  V30 4869 C 490.161 2.33425 -0.234462 0
M  V30 4870 C 491.177 1.62295 0.627413 0
M  V30 4871 O 492.353 1.94109 0.536987 0
M  V30 4872 C 489.418 3.41471 0.599849 0
M  V30 4873 C 488.479 4.28362 -0.283596 0
M  V30 4874 C 487.712 5.31248 0.51099 0
M  V30 4875 O 487.935 5.43056 1.7449 0
M  V30 4876 O 486.869 6.01812 -0.10297 0
M  V30 4877 H 490.695 2.84962 -1.05024 0
M  V30 4878 H 488.28 1.37774 -0.577809 0
M  V30 4879 H 490.162 4.07464 1.07475 0
M  V30 4880 H 488.837 2.9219 1.39308 0
M  V30 4881 H 487.744 3.65318 -0.805836 0
M  V30 4882 H 489.077 4.81066 -1.041 0
M  V30 4883 N 490.729 0.570148 1.46925 0
M  V30 4884 C 491.975 0.0510284 2.02736 0
M  V30 4885 C 492.308 -1.3006 1.44215 0
M  V30 4886 O 491.583 -1.84932 0.602521 0
M  V30 4887 C 491.866 -0.028215 3.60089 0
M  V30 4888 C 491.719 1.35142 4.29018 0
M  V30 4889 C 493.038 -0.735181 4.33916 0
M  V30 4890 H 490.157 0.0200178 0.736728 0
M  V30 4891 H 492.799 0.73493 1.75211 0
M  V30 4892 H 490.949 -0.610648 3.83671 0
M  V30 4893 H 492.621 1.97806 4.16738 0
M  V30 4894 H 490.864 1.9226 3.88868 0
M  V30 4895 H 491.535 1.24857 5.37694 0
M  V30 4896 H 494.011 -0.240519 4.15404 0
M  V30 4897 H 492.887 -0.759622 5.43618 0
M  V30 4898 H 493.148 -1.79397 4.04066 0
M  V30 4899 N 492.207 -1.54576 0.307264 0
M  V30 4900 C 493.435 -2.04675 -0.302597 0
M  V30 4901 C 493.85 -1.18425 -1.47041 0
M  V30 4902 O 493.207 -0.211257 -1.81273 0
M  V30 4903 C 493.258 -3.53575 -0.752801 0
M  V30 4904 O 492.979 -4.36547 0.368536 0
M  V30 4905 C 494.48 -4.19699 -1.42717 0
M  V30 4906 H 491.7 -0.66786 -0.0648374 0
M  V30 4907 H 494.244 -1.99516 0.448716 0
M  V30 4908 H 492.399 -3.59074 -1.45412 0
M  V30 4909 H 492.813 -5.24497 0.0168937 0
M  V30 4910 H 494.287 -5.25388 -1.69327 0
M  V30 4911 H 494.764 -3.69815 -2.36925 0
M  V30 4912 H 495.37 -4.18293 -0.768856 0
M  V30 4913 N 493.685 -0.035106 -1.57561 0
M  V30 4914 C 494.595 0.960295 -2.14046 0
M  V30 4915 C 495.611 1.3529 -1.0942 0
M  V30 4916 O 496.787 1.43309 -1.41508 0
M  V30 4917 C 493.852 2.22214 -2.66124 0
M  V30 4918 C 492.913 1.8894 -3.85487 0
M  V30 4919 C 492.146 3.09109 -4.35072 0
M  V30 4920 O 492.369 4.21963 -3.83802 0
M  V30 4921 O 491.303 2.91058 -5.26848 0
M  V30 4922 H 495.129 0.509983 -2.99387 0
M  V30 4923 H 492.714 0.185853 -1.48239 0
M  V30 4924 H 494.596 2.96279 -2.99661 0
M  V30 4925 H 493.271 2.66414 -1.83862 0
M  V30 4926 H 492.178 1.12241 -3.56865 0
M  V30 4927 H 493.511 1.49551 -4.6893 0
M  V30 4928 N 495.163 1.55791 0.238111 0
M  V30 4929 C 496.093 1.94068 1.29846 0
M  V30 4930 C 497.074 0.806726 1.49753 0
M  V30 4931 O 498.259 1.06772 1.62214 0
M  V30 4932 C 495.389 2.24302 2.65153 0
M  V30 4933 C 494.343 3.40032 2.59927 0
M  V30 4934 C 493.669 3.55829 3.99111 0
M  V30 4935 C 494.969 4.75476 2.16148 0
M  V30 4936 H 496.663 2.82887 0.980563 0
M  V30 4937 H 494.209 1.36105 0.470253 0
M  V30 4938 H 496.162 2.4967 3.39475 0
M  V30 4939 H 494.886 1.32318 2.98596 0
M  V30 4940 H 493.545 3.14687 1.88063 0
M  V30 4941 H 493.193 2.6125 4.29834 0
M  V30 4942 H 492.893 4.3366 3.96501 0
M  V30 4943 H 494.417 3.83528 4.7512 0
M  V30 4944 H 495.831 5.00158 2.80205 0
M  V30 4945 H 494.228 5.56472 2.24631 0
M  V30 4946 H 495.298 4.71946 1.11333 0
M  V30 4947 N 496.642 -0.504142 1.49319 0
M  V30 4948 C 498.058 -0.835039 1.36012 0
M  V30 4949 C 498.258 -1.97674 0.390808 0
M  V30 4950 O 497.314 -2.51867 -0.178655 0
M  V30 4951 C 498.627 -1.17821 2.76656 0
M  V30 4952 C 500.175 -1.2866 2.85334 0
M  V30 4953 C 500.65 -1.66307 4.26739 0
M  V30 4954 N 502.141 -1.73362 4.29534 0
M  V30 4955 C 502.876 -2.0393 5.35911 0
M  V30 4956 N 502.372 -2.32744 6.52535 0
M  V30 4957 N 504.165 -2.05155 5.23324 0
M  V30 4958 H 496.316 0.248764 2.10938 0
M  V30 4959 H 498.579 0.0486962 0.946748 0
M  V30 4960 H 498.285 -0.412682 3.4927 0
M  V30 4961 H 498.159 -2.12239 3.11825 0
M  V30 4962 H 500.546 -2.04285 2.1296 0
M  V30 4963 H 500.627 -0.323004 2.53752 0
M  V30 4964 H 500.271 -0.91234 4.99639 0
M  V30 4965 H 500.201 -2.63761 4.55782 0
M  V30 4966 H 502.692 -1.53268 3.45424 0
M  V30 4967 H 503.005 -2.55248 7.2943 0
M  V30 4968 H 501.35 -2.30207 6.55767 0
M  V30 4969 H 504.541 -1.82119 4.3122 0
M  V30 4970 H 504.714 -2.28644 6.06322 0
M  V30 4971 N 498.12 -1.38341 -0.754957 0
M  V30 4972 C 499.536 -1.19508 -1.05783 0
M  V30 4973 C 499.736 -0.0428005 -2.01455 0
M  V30 4974 O 498.792 0.611861 -2.44975 0
M  V30 4975 C 500.105 -2.52091 -1.63923 0
M  V30 4976 C 501.653 -2.58762 -1.76101 0
M  V30 4977 C 502.128 -3.91517 -2.37652 0
M  V30 4978 N 503.619 -3.93049 -2.45085 0
M  V30 4979 C 504.354 -4.9253 -2.93602 0
M  V30 4980 N 503.85 -6.02408 -3.42165 0
M  V30 4981 N 505.643 -4.79921 -2.92629 0
M  V30 4982 H 497.794 -2.1206 -0.120056 0
M  V30 4983 H 500.057 -0.94089 -0.11589 0
M  V30 4984 H 499.763 -3.36858 -1.01093 0
M  V30 4985 H 499.637 -2.70388 -2.63003 0
M  V30 4986 H 502.024 -1.74391 -2.38058 0
M  V30 4987 H 502.105 -2.44333 -0.757294 0
M  V30 4988 H 501.749 -4.76309 -1.76329 0
M  V30 4989 H 501.679 -4.03256 -3.38662 0
M  V30 4990 H 504.17 -3.13685 -2.10736 0
M  V30 4991 H 504.483 -6.74248 -3.77637 0
M  V30 4992 H 502.828 -6.0603 -3.40225 0
M  V30 4993 H 506.019 -3.93194 -2.54001 0
M  V30 4994 H 506.192 -5.57601 -3.30128 0
M  V30 4995 N 499.598 0.982988 -1.23187 0
M  V30 4996 C 500.844 1.72648 -1.06398 0
M  V30 4997 C 501.177 1.90066 0.398561 0
M  V30 4998 O 500.452 1.45105 1.29518 0
M  V30 4999 C 500.735 3.12627 -1.78707 0
M  V30 5000 C 500.588 3.02795 -3.32618 0
M  V30 5001 C 501.907 4.11997 -1.54747 0
M  V30 5002 H 499.026 0.626649 -0.387918 0
M  V30 5003 H 501.668 1.14455 -1.51658 0
M  V30 5004 H 499.818 3.62308 -1.40234 0
M  V30 5005 H 501.49 2.60659 -3.80598 0
M  V30 5006 H 499.733 2.39362 -3.61785 0
M  V30 5007 H 500.404 4.01893 -3.78399 0
M  V30 5008 H 502.88 3.71114 -1.88186 0
M  V30 5009 H 501.756 5.08037 -2.07821 0
M  V30 5010 H 502.017 4.39462 -0.482249 0
M  V30 5011 N 501.076 1.04316 1.18135 0
M  V30 5012 C 502.006 0.657299 2.24058 0
M  V30 5013 C 502.987 -0.340678 1.66654 0
M  V30 5014 O 504.172 -0.220223 1.92947 0
M  V30 5015 C 501.302 0.0220715 3.47293 0
M  V30 5016 C 500.256 0.943857 4.17463 0
M  V30 5017 C 499.582 0.172973 5.3442 0
M  V30 5018 C 500.882 2.26409 4.70677 0
M  V30 5019 H 502.576 1.5428 2.56589 0
M  V30 5020 H 500.122 0.743263 1.23335 0
M  V30 5021 H 502.075 -0.259607 4.206 0
M  V30 5022 H 500.799 -0.898323 3.14003 0
M  V30 5023 H 499.458 1.20996 3.46057 0
M  V30 5024 H 499.106 -0.749907 4.97379 0
M  V30 5025 H 498.806 0.787098 5.82304 0
M  V30 5026 H 500.33 -0.101628 6.10515 0
M  V30 5027 H 501.744 2.04294 5.35665 0
M  V30 5028 H 500.141 2.8314 5.29105 0
M  V30 5029 H 501.211 2.90883 3.87962 0
M  V30 5030 N 502.554 -1.34406 0.822964 0
M  V30 5031 C 503.486 -2.28305 0.202375 0
M  V30 5032 C 504.499 -1.5103 -0.60777 0
M  V30 5033 O 505.688 -1.73057 -0.437444 0
M  V30 5034 C 502.788 -3.30836 -0.734911 0
M  V30 5035 C 501.961 -4.37388 0.0324177 0
M  V30 5036 C 501.02 -5.1968 -0.825803 0
M  V30 5037 O 500.046 -5.68556 -0.270771 0
M  V30 5038 N 501.248 -5.39393 -2.14558 0
M  V30 5039 H 504.013 -2.82201 1.00909 0
M  V30 5040 H 501.574 -1.4693 0.67993 0
M  V30 5041 H 503.566 -3.82786 -1.31365 0
M  V30 5042 H 502.136 -2.77334 -1.44238 0
M  V30 5043 H 501.356 -3.86152 0.792469 0
M  V30 5044 H 502.644 -5.05702 0.560633 0
M  V30 5045 H 502.042 -5.01357 -2.62025 0
M  V30 5046 H 500.599 -5.94461 -2.67318 0
M  V30 5047 N 504.032 -0.577932 -1.46621 0
M  V30 5048 C 505.28 -0.061566 -2.02006 0
M  V30 5049 C 505.601 1.30117 -1.4524 0
M  V30 5050 O 504.871 1.85313 -0.63529 0
M  V30 5051 H 503.451 -0.0197692 -0.746738 0
M  V30 5052 H 506.113 -0.752631 -1.79782 0
M  V30 5053 H 505.209 0.0110238 -3.12098 0
M  V30 5054 N 505.51 1.54411 -0.315457 0
M  V30 5055 C 506.44 2.27002 0.547039 0
M  V30 5056 C 507.421 1.27492 1.12605 0
M  V30 5057 O 508.606 1.5629 1.15269 0
M  V30 5058 C 505.736 3.02171 1.71201 0
M  V30 5059 C 504.69 4.0895 1.26268 0
M  V30 5060 C 504.016 4.71915 2.51396 0
M  V30 5061 C 505.316 5.20891 0.383419 0
M  V30 5062 H 507.01 2.99343 -0.0584517 0
M  V30 5063 H 504.556 1.4397 -0.0295527 0
M  V30 5064 H 506.509 3.51681 2.32161 0
M  V30 5065 H 505.233 2.27433 2.34397 0
M  V30 5066 H 503.892 3.60312 0.676062 0
M  V30 5067 H 503.54 3.93801 3.12937 0
M  V30 5068 H 503.24 5.44039 2.22026 0
M  V30 5069 H 504.764 5.24195 3.13133 0
M  V30 5070 H 506.178 5.66206 0.899082 0
M  V30 5071 H 504.575 5.99821 0.182857 0
M  V30 5072 H 505.645 4.81324 -0.587821 0
M  V30 5073 N 506.988 0.0434614 1.5754 0
M  V30 5074 C 507.898 -0.94893 2.14552 0
M  V30 5075 C 508.914 -1.34707 1.10136 0
M  V30 5076 O 510.09 -1.42557 1.42266 0
M  V30 5077 C 507.155 -2.208 2.67298 0
M  V30 5078 C 506.216 -1.86893 3.86484 0
M  V30 5079 C 505.449 -3.06797 4.36705 0
M  V30 5080 O 505.672 -4.19921 3.86034 0
M  V30 5081 O 504.606 -2.8826 5.28384 0
M  V30 5082 H 508.432 -0.494099 2.99654 0
M  V30 5083 H 506.017 -0.177989 1.48336 0
M  V30 5084 H 507.899 -2.94686 3.01228 0
M  V30 5085 H 506.574 -2.65436 1.85272 0
M  V30 5086 H 505.481 -1.10347 3.57455 0
M  V30 5087 H 506.814 -1.47062 4.69716 0
M  V30 5088 N 508.466 -1.55915 -0.229846 0
M  V30 5089 C 509.715 -1.77742 -0.953455 0
M  V30 5090 C 510.028 -0.610524 -1.85828 0
M  V30 5091 O 511.234 -0.712219 -2.61992 0
M  V30 5092 C 509.69 -3.14738 -1.74551 0
M  V30 5093 C 509.298 -4.39126 -0.887242 0
M  V30 5094 C 511.042 -3.45895 -2.46084 0
M  V30 5095 C 508.949 -5.67149 -1.67617 0
M  V30 5096 H 507.879 -0.662648 -0.359741 0
M  V30 5097 H 510.53 -1.82322 -0.207576 0
M  V30 5098 H 508.912 -3.04311 -2.53399 0
M  V30 5099 H 510.086 -4.60588 -0.139892 0
M  V30 5100 H 508.401 -4.15427 -0.284443 0
M  V30 5101 H 510.998 -4.38767 -3.05594 0
M  V30 5102 H 511.341 -2.68007 -3.18556 0
M  V30 5103 H 511.874 -3.57614 -1.74233 0
M  V30 5104 H 508.613 -6.47906 -0.994881 0
M  V30 5105 H 508.133 -5.49763 -2.39836 0
M  V30 5106 H 509.812 -6.07025 -2.23898 0
M  V30 5107 N 509.944 0.496216 -1.49584 0
M  V30 5108 C 510.854 1.62352 -1.69349 0
M  V30 5109 C 511.87 1.64184 -0.576147 0
M  V30 5110 O 513.046 1.82517 -0.85144 0
M  V30 5111 C 510.111 2.98698 -1.76013 0
M  V30 5112 C 509.172 3.07454 -2.99617 0
M  V30 5113 C 508.405 4.37296 -3.05953 0
M  V30 5114 O 508.628 5.2637 -2.19752 0
M  V30 5115 O 507.562 4.51124 -3.9846 0
M  V30 5116 H 511.388 1.48606 -2.64859 0
M  V30 5117 H 508.973 0.673022 -1.33382 0
M  V30 5118 H 510.855 3.79725 -1.82721 0
M  V30 5119 H 509.53 3.12696 -0.836828 0
M  V30 5120 H 508.437 2.25597 -2.98424 0
M  V30 5121 H 509.77 2.98385 -3.91443 0
M  V30 5122 N 511.423 1.38739 0.74761 0
M  V30 5123 C 512.353 1.39173 1.87492 0
M  V30 5124 C 513.334 0.256794 1.6815 0
M  V30 5125 O 514.519 0.460762 1.88655 0
M  V30 5126 C 511.649 1.22197 3.25093 0
M  V30 5127 C 510.603 2.32957 3.59047 0
M  V30 5128 C 509.929 2.01082 4.95449 0
M  V30 5129 C 511.229 3.75237 3.6331 0
M  V30 5130 H 512.923 2.3351 1.87386 0
M  V30 5131 H 510.469 1.12399 0.900134 0
M  V30 5132 H 512.422 1.21124 4.03617 0
M  V30 5133 H 511.146 0.243241 3.25693 0
M  V30 5134 H 509.805 2.33226 2.82845 0
M  V30 5135 H 509.453 1.01678 4.92616 0
M  V30 5136 H 509.153 2.75267 5.19136 0
M  V30 5137 H 510.677 2.01638 5.76346 0
M  V30 5138 H 512.091 3.76966 4.31937 0
M  V30 5139 H 510.488 4.48677 3.98509 0
M  V30 5140 H 511.558 4.07122 2.634 0
M  V30 5141 N 512.901 -0.976442 1.23707 0
M  V30 5142 C 513.833 -2.07212 0.979574 0
M  V30 5143 C 514.846 -1.6273 -0.0478528 0
M  V30 5144 O 516.035 -1.77506 0.18815 0
M  V30 5145 C 513.135 -3.35835 0.45479 0
M  V30 5146 C 512.308 -4.09268 1.54331 0
M  V30 5147 C 511.367 -5.16166 1.02271 0
M  V30 5148 O 510.393 -5.42827 1.71254 0
M  V30 5149 N 511.595 -5.80313 -0.147419 0
M  V30 5150 H 514.36 -2.29878 1.92292 0
M  V30 5151 H 511.921 -1.14343 1.14618 0
M  V30 5152 H 513.913 -4.04597 0.0914631 0
M  V30 5153 H 512.483 -3.10106 -0.394068 0
M  V30 5154 H 511.703 -3.34906 2.07923 0
M  V30 5155 H 512.991 -4.55095 2.27522 0
M  V30 5156 H 512.389 -5.61043 -0.724353 0
M  V30 5157 H 510.946 -6.50231 -0.451972 0
M  V30 5158 N 514.379 -1.04941 -1.1758 0
M  V30 5159 C 515.604 -0.778253 -1.92245 0
M  V30 5160 C 516.029 0.659707 -1.76152 0
M  V30 5161 O 515.387 1.45803 -1.07755 0
M  V30 5162 C 515.435 -1.16051 -3.41416 0
M  V30 5163 O 514.539 -0.291153 -4.11371 0
M  V30 5164 H 513.88 -0.285619 -0.599431 0
M  V30 5165 H 516.41 -1.40159 -1.49052 0
M  V30 5166 H 516.42 -1.12619 -3.92149 0
M  V30 5167 H 515.095 -2.208 -3.52449 0
M  V30 5168 H 513.672 -0.385851 -3.70898 0
M  V30 5169 N 515.857 1.33968 -0.830081 0
M  V30 5170 C 516.789 2.28194 -0.21448 0
M  V30 5171 C 517.802 1.5135 0.599752 0
M  V30 5172 O 518.991 1.73286 0.42826 0
M  V30 5173 C 516.091 3.31221 0.717356 0
M  V30 5174 C 515.264 4.37365 -0.055613 0
M  V30 5175 C 514.323 5.2011 0.798231 0
M  V30 5176 O 513.349 5.68691 0.240616 0
M  V30 5177 N 514.551 5.40523 2.11695 0
M  V30 5178 H 517.316 2.81662 -1.02405 0
M  V30 5179 H 514.877 1.46568 -0.687713 0
M  V30 5180 H 516.869 3.83477 1.29334 0
M  V30 5181 H 515.439 2.78095 1.42765 0
M  V30 5182 H 514.659 3.85727 -0.812936 0
M  V30 5183 H 515.947 5.05397 -0.587444 0
M  V30 5184 H 515.345 5.0274 2.59363 0
M  V30 5185 H 513.902 5.95871 2.64162 0
M  V30 5186 N 517.335 0.585699 1.46312 0
M  V30 5187 C 518.265 -0.133556 2.33118 0
M  V30 5188 C 519.246 -0.880707 1.45525 0
M  V30 5189 O 520.431 -0.855579 1.74337 0
M  V30 5190 C 517.561 -1.14585 3.27853 0
M  V30 5191 C 516.515 -0.513341 4.2491 0
M  V30 5192 C 515.841 -1.63231 5.09175 0
M  V30 5193 C 517.141 0.551413 5.19381 0
M  V30 5194 H 518.835 0.59121 2.93505 0
M  V30 5195 H 516.381 0.285761 1.41136 0
M  V30 5196 H 518.334 -1.65741 3.87438 0
M  V30 5197 H 517.058 -1.90093 2.65579 0
M  V30 5198 H 515.717 -0.0228349 3.66593 0
M  V30 5199 H 515.365 -2.37713 4.43285 0
M  V30 5200 H 515.065 -1.21473 5.74907 0
M  V30 5201 H 516.589 -2.14658 5.71624 0
M  V30 5202 H 518.003 0.124804 5.73164 0
M  V30 5203 H 516.4 0.889486 5.93471 0
M  V30 5204 H 517.47 1.43655 4.63132 0
M  V30 5205 N 518.813 -1.54241 0.323641 0
M  V30 5206 C 520.038 -2.05452 -0.283605 0
M  V30 5207 C 520.463 -1.19823 -1.44997 0
M  V30 5208 O 519.821 -0.207358 -1.8011 0
M  V30 5209 C 519.869 -3.53823 -0.695795 0
M  V30 5210 O 518.973 -3.71134 -1.79815 0
M  V30 5211 H 518.314 -0.662024 -0.0511917 0
M  V30 5212 H 520.844 -1.99079 0.472073 0
M  V30 5213 H 520.854 -3.96094 -0.978434 0
M  V30 5214 H 519.529 -4.15602 0.157287 0
M  V30 5215 H 518.106 -3.40768 -1.51431 0
M  V30 5216 N 520.291 -0.0518155 -1.57515 0
M  V30 5217 C 521.224 0.957758 -2.07129 0
M  V30 5218 C 522.202 1.30355 -0.971927 0
M  V30 5219 O 523.386 1.41631 -1.2439 0
M  V30 5220 C 520.513 2.27157 -2.51232 0
M  V30 5221 C 519.559 2.07879 -3.72409 0
M  V30 5222 S 520.392 1.35656 -5.18033 0
M  V30 5223 C 521.548 2.68359 -5.65451 0
M  V30 5224 H 521.781 0.53552 -2.92437 0
M  V30 5225 H 519.314 0.160465 -1.53564 0
M  V30 5226 H 521.272 3.02676 -2.77304 0
M  V30 5227 H 519.933 2.66509 -1.66228 0
M  V30 5228 H 519.126 3.05061 -4.01191 0
M  V30 5229 H 518.728 1.40499 -3.46606 0
M  V30 5230 H 521.02 3.64526 -5.71076 0
M  V30 5231 H 521.963 2.44213 -6.64654 0
M  V30 5232 H 522.371 2.74647 -4.93183 0
M  V30 5233 N 521.769 1.56035 0.221574 0
M  V30 5234 C 522.716 1.92413 1.27459 0
M  V30 5235 C 523.686 0.781323 1.46576 0
M  V30 5236 O 524.871 1.03721 1.60145 0
M  V30 5237 C 522.011 2.24617 2.61995 0
M  V30 5238 C 521.124 3.51831 2.50677 0
M  V30 5239 C 520.259 3.73482 3.77736 0
M  V30 5240 C 519.298 4.94211 3.6114 0
M  V30 5241 N 518.435 5.12252 4.80148 0
M  V30 5242 H 523.275 2.82203 0.957355 0
M  V30 5243 H 520.812 1.39676 0.461415 0
M  V30 5244 H 522.77 2.41298 3.40339 0
M  V30 5245 H 521.4 1.38 2.91815 0
M  V30 5246 H 520.452 3.43343 1.63767 0
M  V30 5247 H 521.764 4.40328 2.34334 0
M  V30 5248 H 520.918 3.9026 4.64523 0
M  V30 5249 H 519.657 2.83266 3.97003 0
M  V30 5250 H 518.662 4.77384 2.72736 0
M  V30 5251 H 519.887 5.85912 3.43343 0
M  V30 5252 H 517.833 4.24978 4.99729 0
M  V30 5253 H 517.75 5.94881 4.66532 0
M  V30 5254 H 519.018 5.33465 5.68362 0
M  V30 5255 N 523.247 -0.488276 1.49845 0
M  V30 5256 C 524.21 -1.57069 1.66919 0
M  V30 5257 C 525.21 -1.51445 0.540479 0
M  V30 5258 O 526.4 -1.5437 0.807188 0
M  V30 5259 C 523.532 -2.96718 1.67844 0
M  V30 5260 H 524.725 -1.43254 2.63474 0
M  V30 5261 H 522.278 -0.713435 1.39068 0
M  V30 5262 H 523.013 -3.15996 0.7292 0
M  V30 5263 H 522.798 -3.02208 2.49826 0
M  V30 5264 H 524.288 -3.75335 1.83066 0
M  V30 5265 N 524.725 -1.39134 -0.740242 0
M  V30 5266 C 525.95 -1.39518 -1.53459 0
M  V30 5267 C 526.375 0.00968883 -1.88098 0
M  V30 5268 O 525.733 0.995312 -1.51536 0
M  V30 5269 C 525.781 -2.26981 -2.802 0
M  V30 5270 O 524.885 -1.69609 -3.75908 0
M  V30 5271 H 524.226 -0.475328 -0.463637 0
M  V30 5272 H 526.756 -1.83064 -0.913717 0
M  V30 5273 H 526.766 -2.41309 -3.28989 0
M  V30 5274 H 525.441 -3.29081 -2.5432 0
M  V30 5275 H 524.018 -1.64495 -3.34658 0
M  V30 5276 N 526.204 0.969867 -1.24223 0
M  V30 5277 C 527.134 2.08191 -1.05729 0
M  V30 5278 C 528.115 1.70075 0.0290765 0
M  V30 5279 O 529.3 1.93712 -0.137583 0
M  V30 5280 C 526.43 3.40991 -0.658995 0
M  V30 5281 C 525.384 3.93054 -1.69389 0
M  V30 5282 C 524.71 5.22171 -1.15072 0
M  V30 5283 C 526.01 4.21137 -3.08935 0
M  V30 5284 H 527.704 2.23921 -1.98746 0
M  V30 5285 H 525.25 1.07602 -0.956967 0
M  V30 5286 H 527.203 4.18221 -0.51662 0
M  V30 5287 H 525.927 3.25155 0.30686 0
M  V30 5288 H 524.586 3.17977 -1.82444 0
M  V30 5289 H 524.234 5.02694 -0.175539 0
M  V30 5290 H 523.934 5.57973 -1.84229 0
M  V30 5291 H 525.458 6.02013 -1.02042 0
M  V30 5292 H 526.872 4.8908 -2.99121 0
M  V30 5293 H 525.269 4.68163 -3.75425 0
M  V30 5294 H 526.339 3.27996 -3.57137 0
M  V30 5295 N 527.682 1.05563 1.17022 0
M  V30 5296 C 528.592 0.670758 2.24807 0
M  V30 5297 C 529.608 -0.309865 1.71219 0
M  V30 5298 O 530.784 -0.161025 2.00755 0
M  V30 5299 C 527.849 0.055337 3.46656 0
M  V30 5300 C 526.91 1.08688 4.15314 0
M  V30 5301 C 526.143 0.500736 5.31346 0
M  V30 5302 O 526.366 -0.688718 5.66227 0
M  V30 5303 O 525.3 1.23683 5.89055 0
M  V30 5304 H 529.126 1.56914 2.60023 0
M  V30 5305 H 526.711 0.827428 1.24395 0
M  V30 5306 H 528.593 -0.286492 4.20425 0
M  V30 5307 H 527.268 -0.816638 3.13229 0
M  V30 5308 H 526.175 1.48077 3.43546 0
M  V30 5309 H 527.508 1.93014 4.52777 0
M  V30 5310 N 529.16 -1.33526 0.837174 0
M  V30 5311 C 530.108 -2.31168 0.257698 0
M  V30 5312 C 531.102 -1.5806 -0.609388 0
M  V30 5313 O 532.308 -1.72941 -0.499139 0
M  V30 5314 H 528.683 -0.74922 0.0646058 0
M  V30 5315 H 530.654 -2.77552 1.09578 0
M  V30 5316 C 529.403 -3.4326 -0.553887 0
M  V30 5317 H 528.726 -3.99665 0.104008 0
M  V30 5318 H 530.166 -4.13782 -0.925219 0
M  V30 5319 C 528.625 -2.88965 -1.73207 0
M  V30 5320 O 529.155 -2.85013 -2.83073 0
M  V30 5321 N 527.361 -2.45596 -1.55342 0
M  V30 5322 H 526.908 -2.49009 -0.659705 0
M  V30 5323 H 526.866 -2.0962 -2.34322 0
M  V30 5324 N 530.638 -0.59345 -1.46 0
M  V30 5325 C 531.863 -0.0872365 -2.07216 0
M  V30 5326 C 532.288 1.2131 -1.43755 0
M  V30 5327 O 531.646 1.73528 -0.525152 0
M  V30 5328 C 531.694 0.0538197 -3.6056 0
M  V30 5329 O 530.798 1.10765 -3.97247 0
M  V30 5330 H 530.139 -0.0676598 -0.660544 0
M  V30 5331 H 532.669 -0.819445 -1.87473 0
M  V30 5332 H 532.679 0.256567 -4.07193 0
M  V30 5333 H 531.354 -0.895739 -4.0614 0
M  V30 5334 H 529.931 0.882501 -3.62307 0
M  V30 5335 N 532.116 1.54067 -0.331816 0
M  V30 5336 C 533.046 2.27569 0.522932 0
M  V30 5337 C 534.027 1.28679 1.11247 0
M  V30 5338 O 535.212 1.57504 1.13605 0
M  V30 5339 C 532.342 3.0397 1.67987 0
M  V30 5340 C 531.296 4.10267 1.21924 0
M  V30 5341 C 530.622 4.74555 2.46377 0
M  V30 5342 C 531.922 5.21268 0.32815 0
M  V30 5343 H 533.616 2.99264 -0.0901977 0
M  V30 5344 H 531.162 1.4393 -0.044821 0
M  V30 5345 H 533.115 3.54123 2.28418 0
M  V30 5346 H 531.839 2.29906 2.31971 0
M  V30 5347 H 530.498 3.61009 0.637809 0
M  V30 5348 H 530.146 3.97098 3.08743 0
M  V30 5349 H 529.846 5.46363 2.16243 0
M  V30 5350 H 531.37 5.27487 3.07555 0
M  V30 5351 H 532.784 5.67128 0.838978 0
M  V30 5352 H 531.181 5.99982 0.119228 0
M  V30 5353 H 532.251 4.80673 -0.638839 0
M  V30 5354 N 533.594 0.0601682 1.57485 0
M  V30 5355 C 534.504 -0.926121 2.15546 0
M  V30 5356 C 535.52 -1.33532 1.11558 0
M  V30 5357 O 536.696 -1.4104 1.4377 0
M  V30 5358 C 533.761 -2.17952 2.69625 0
M  V30 5359 C 532.822 -1.82783 3.88444 0
M  V30 5360 C 532.055 -3.02148 4.39935 0
M  V30 5361 O 532.278 -4.15803 3.90466 0
M  V30 5362 O 531.212 -2.82639 5.31412 0
M  V30 5363 H 535.038 -0.462289 3.00161 0
M  V30 5364 H 532.623 -0.162246 1.48516 0
M  V30 5365 H 534.505 -2.91474 3.04337 0
M  V30 5366 H 533.18 -2.63456 1.88077 0
M  V30 5367 H 532.087 -1.06549 3.58606 0
M  V30 5368 H 533.42 -1.42072 4.7125 0
M  V30 5369 N 535.072 -1.5615 -0.213296 0
M  V30 5370 C 535.982 -1.96265 -1.28519 0
M  V30 5371 C 536.998 -0.86765 -1.50824 0
M  V30 5372 O 538.174 -1.17191 -1.63793 0
M  V30 5373 C 535.239 -2.27836 -2.61327 0
M  V30 5374 C 534.3 -3.50949 -2.47252 0
M  V30 5375 C 533.533 -3.81004 -3.73727 0
M  V30 5376 O 533.756 -3.12612 -4.77106 0
M  V30 5377 O 532.69 -4.74477 -3.70344 0
M  V30 5378 H 536.516 -2.87631 -0.974795 0
M  V30 5379 H 534.101 -1.43467 -0.416832 0
M  V30 5380 H 535.983 -2.49299 -3.39747 0
M  V30 5381 H 534.658 -1.39643 -2.9203 0
M  V30 5382 H 533.565 -3.34754 -1.67004 0
M  V30 5383 H 534.898 -4.39551 -2.21486 0
M  V30 5384 N 536.55 0.480323 -1.50102 0
M  V30 5385 C 537.778 1.25657 -1.64371 0
M  V30 5386 C 538.193 1.86011 -0.323316 0
M  V30 5387 O 537.55 1.68803 0.693682 0
M  V30 5388 C 537.601 2.37197 -2.728 0
M  V30 5389 O 537.322 1.7932 -3.9972 0
M  V30 5390 C 538.823 3.2823 -2.9796 0
M  V30 5391 H 536.043 0.380369 -0.552775 0
M  V30 5392 H 538.587 0.574379 -1.96268 0
M  V30 5393 H 536.742 3.01208 -2.43623 0
M  V30 5394 H 537.156 2.52701 -4.59611 0
M  V30 5395 H 538.63 4.02725 -3.77513 0
M  V30 5396 H 539.107 3.86462 -2.08671 0
M  V30 5397 H 539.713 2.69964 -3.28633 0
M  V30 5398 N 538.028 1.39524 0.732853 0
M  V30 5399 C 538.975 1.38416 1.84688 0
M  V30 5400 C 539.945 0.243539 1.64305 0
M  V30 5401 O 541.13 0.438979 1.85681 0
M  V30 5402 C 538.27 1.23555 3.22224 0
M  V30 5403 C 537.383 2.47179 3.54298 0
M  V30 5404 C 536.518 2.2489 4.81246 0
M  V30 5405 C 535.557 3.44178 5.0617 0
M  V30 5406 N 534.694 3.21192 6.24323 0
M  V30 5407 H 539.534 2.33645 1.84971 0
M  V30 5408 H 537.071 1.16059 0.903804 0
M  V30 5409 H 539.029 1.12949 4.0162 0
M  V30 5410 H 537.659 0.31954 3.21215 0
M  V30 5411 H 536.711 2.68379 2.69587 0
M  V30 5412 H 538.023 3.36022 3.68633 0
M  V30 5413 H 537.177 2.11538 5.68627 0
M  V30 5414 H 535.916 1.33443 4.69089 0
M  V30 5415 H 534.921 3.58025 4.17251 0
M  V30 5416 H 536.146 4.36528 5.20212 0
M  V30 5417 H 534.092 2.32413 6.1345 0
M  V30 5418 H 534.009 4.03594 6.39256 0
M  V30 5419 H 535.277 3.1154 7.14537 0
M  V30 5420 N 539.506 -0.963266 1.24736 0
M  V30 5421 C 540.754 -1.70343 1.08755 0
M  V30 5422 C 541.075 -1.91387 -0.373619 0
M  V30 5423 O 540.345 -1.4948 -1.2662 0
M  V30 5424 H 538.925 -0.631224 0.399456 0
M  V30 5425 H 541.587 -1.15859 1.56725 0
M  V30 5426 H 540.683 -2.68616 1.58909 0
M  V30 5427 N 540.985 -1.06182 -1.16461 0
M  V30 5428 C 542.401 -0.785065 -1.38956 0
M  V30 5429 C 542.601 0.616103 -1.9185 0
M  V30 5430 O 541.657 1.37686 -2.11657 0
M  V30 5431 C 542.97 -1.84902 -2.37132 0
M  V30 5432 C 544.518 -1.8724 -2.50819 0
M  V30 5433 C 544.993 -2.92686 -3.52277 0
M  V30 5434 N 546.484 -2.91712 -3.59803 0
M  V30 5435 C 547.219 -3.69949 -4.38093 0
M  V30 5436 N 546.715 -4.58 -5.19815 0
M  V30 5437 N 548.508 -3.58346 -4.33064 0
M  V30 5438 H 540.659 -1.96569 -0.804634 0
M  V30 5439 H 542.922 -0.851747 -0.416211 0
M  V30 5440 H 542.628 -2.85518 -2.0536 0
M  V30 5441 H 542.502 -1.69908 -3.36766 0
M  V30 5442 H 544.889 -0.872827 -2.81897 0
M  V30 5443 H 544.97 -2.06311 -1.51226 0
M  V30 5444 H 544.614 -3.92835 -3.21937 0
M  V30 5445 H 544.544 -2.70864 -4.51598 0
M  V30 5446 H 547.035 -2.27876 -3.01464 0
M  V30 5447 H 547.348 -5.14357 -5.76764 0
M  V30 5448 H 545.693 -4.62056 -5.19162 0
M  V30 5449 H 548.884 -2.88943 -3.68279 0
M  V30 5450 H 549.057 -4.19563 -4.93833 0
M  V30 5451 N 542.463 1.3308 -0.844243 0
M  V30 5452 C 543.693 2.01515 -0.455541 0
M  V30 5453 C 544.101 1.63655 0.949406 0
M  V30 5454 O 543.444 0.84848 1.62931 0
M  V30 5455 C 543.506 3.55967 -0.502801 0
M  V30 5456 C 543.17 4.17222 -1.86481 0
M  V30 5457 C 544.167 4.36205 -2.8288 0
M  V30 5458 C 541.852 4.53528 -2.15911 0
M  V30 5459 C 543.846 4.90649 -4.06869 0
M  V30 5460 C 541.533 5.07679 -3.40155 0
M  V30 5461 C 542.531 5.26186 -4.35451 0
M  V30 5462 O 542.219 5.79183 -5.57496 0
M  V30 5463 H 541.951 0.65199 -0.178565 0
M  V30 5464 H 544.505 1.70867 -1.1399 0
M  V30 5465 H 542.735 3.85965 0.23836 0
M  V30 5466 H 544.424 4.05688 -0.131169 0
M  V30 5467 H 545.19 4.085 -2.61444 0
M  V30 5468 H 541.069 4.38414 -1.42528 0
M  V30 5469 H 544.613 5.0501 -4.81259 0
M  V30 5470 H 540.51 5.34815 -3.61446 0
M  V30 5471 H 541.278 5.97591 -5.5931 0
M  V30 5472 N 543.941 0.601185 1.45683 0
M  V30 5473 C 545.181 0.0968037 2.04171 0
M  V30 5474 C 545.545 -1.2466 1.46027 0
M  V30 5475 O 546.746 -1.84132 1.95829 0
M  V30 5476 C 545.017 0.051384 3.57363 0
M  V30 5477 S 546.576 -0.392737 4.37039 0
M  V30 5478 H 543.394 0.0464504 0.709481 0
M  V30 5479 H 545.996 0.797846 1.78479 0
M  V30 5480 H 544.7 1.03274 3.97193 0
M  V30 5481 H 544.231 -0.671853 3.87621 0
M  V30 5482 H 546.246 -1.64364 4.68187 0
M  V30 5483 N 545.419 -1.53889 0.339982 0
M  V30 5484 C 546.352 -2.21187 -0.561405 0
M  V30 5485 C 547.33 -1.19463 -1.10306 0
M  V30 5486 O 548.514 -1.48268 -1.164 0
M  V30 5487 C 545.641 -2.8865 -1.77198 0
M  V30 5488 C 544.687 -4.04232 -1.3601 0
M  V30 5489 S 545.52 -5.34129 -0.382909 0
M  V30 5490 C 546.676 -6.05094 -1.60039 0
M  V30 5491 H 546.909 -2.97298 0.0102092 0
M  V30 5492 H 544.442 -1.53901 0.124056 0
M  V30 5493 H 546.4 -3.28138 -2.4665 0
M  V30 5494 H 545.061 -2.12311 -2.3148 0
M  V30 5495 H 544.254 -4.50358 -2.2626 0
M  V30 5496 H 543.856 -3.66503 -0.745098 0
M  V30 5497 H 546.148 -6.2827 -2.53541 0
M  V30 5498 H 547.091 -6.98182 -1.18099 0
M  V30 5499 H 547.499 -5.35207 -1.79483 0
M  V30 5500 N 546.897 -0.0685191 -1.57451 0
M  V30 5501 C 547.829 0.929372 -2.09512 0
M  V30 5502 C 548.842 1.26354 -1.02657 0
M  V30 5503 O 550.031 1.2213 -1.30179 0
M  V30 5504 C 547.131 2.24612 -2.53777 0
M  V30 5505 C 546.304 2.09128 -3.84167 0
M  V30 5506 C 545.363 3.24079 -4.14559 0
M  V30 5507 O 544.389 2.99215 -4.8421 0
M  V30 5508 N 545.591 4.49077 -3.67845 0
M  V30 5509 H 548.356 0.484901 -2.95751 0
M  V30 5510 H 545.917 0.11729 -1.61475 0
M  V30 5511 H 547.909 3.00412 -2.71172 0
M  V30 5512 H 546.479 2.60569 -1.72692 0
M  V30 5513 H 545.699 1.17815 -3.76182 0
M  V30 5514 H 546.987 1.9603 -4.69521 0
M  V30 5515 H 546.385 4.72165 -3.11571 0
M  V30 5516 H 544.942 5.21915 -3.90446 0
M  V30 5517 N 548.375 1.56261 0.205012 0
M  V30 5518 C 549.305 1.96779 1.257 0
M  V30 5519 C 550.286 0.838309 1.48008 0
M  V30 5520 O 551.471 1.10189 1.59913 0
M  V30 5521 C 548.601 2.29876 2.60335 0
M  V30 5522 C 547.555 3.45469 2.52656 0
M  V30 5523 C 546.881 3.64215 3.91473 0
M  V30 5524 C 548.181 4.79954 2.06014 0
M  V30 5525 H 549.875 2.84904 0.920338 0
M  V30 5526 H 547.421 1.37072 0.441277 0
M  V30 5527 H 549.374 2.56814 3.34102 0
M  V30 5528 H 548.098 1.38622 2.95722 0
M  V30 5529 H 546.757 3.18605 1.81345 0
M  V30 5530 H 546.405 2.70309 4.24196 0
M  V30 5531 H 546.105 4.41973 3.87213 0
M  V30 5532 H 547.629 3.93519 4.66878 0
M  V30 5533 H 549.043 5.05989 2.69533 0
M  V30 5534 H 547.44 5.61111 2.12777 0
M  V30 5535 H 548.51 4.74201 1.01297 0
M  V30 5536 N 549.853 -0.472356 1.50355 0
M  V30 5537 C 551.078 -1.25251 1.65309 0
M  V30 5538 C 551.503 -1.85081 0.335643 0
M  V30 5539 O 550.861 -1.67227 -0.700335 0
M  V30 5540 C 550.909 -2.3379 2.74544 0
M  V30 5541 O 550.013 -3.38401 2.35709 0
M  V30 5542 H 549.354 -0.368539 0.552336 0
M  V30 5543 H 551.884 -0.562271 1.96722 0
M  V30 5544 H 551.894 -2.79121 2.97583 0
M  V30 5545 H 550.569 -1.89614 3.70161 0
M  V30 5546 H 549.146 -2.9879 2.23112 0
M  V30 5547 N 551.331 -1.39911 -0.725443 0
M  V30 5548 C 552.263 -1.35301 -1.85003 0
M  V30 5549 C 553.276 -0.260102 -1.60709 0
M  V30 5550 O 554.465 -0.519749 -1.70766 0
M  V30 5551 C 551.565 -1.08039 -3.21218 0
M  V30 5552 C 550.738 -2.28793 -3.7279 0
M  V30 5553 C 549.797 -1.97841 -4.87591 0
M  V30 5554 O 548.823 -2.70616 -5.00755 0
M  V30 5555 N 550.025 -0.950367 -5.72668 0
M  V30 5556 H 552.79 -2.32218 -1.89459 0
M  V30 5557 H 550.351 -1.34137 -0.90658 0
M  V30 5558 H 552.343 -0.853354 -3.95601 0
M  V30 5559 H 550.913 -0.198229 -3.11971 0
M  V30 5560 H 550.133 -2.67388 -2.8965 0
M  V30 5561 H 551.421 -3.09317 -4.03981 0
M  V30 5562 H 550.819 -0.347436 -5.64632 0
M  V30 5563 H 549.376 -0.783232 -6.47077 0
M  V30 5564 N 552.809 0.956637 -1.25245 0
M  V30 5565 C 554.058 1.69537 -1.0927 0
M  V30 5566 C 554.371 1.92136 0.366503 0
M  V30 5567 O 555.577 2.63687 0.64665 0
M  V30 5568 C 554.033 3.05211 -1.9072 0
M  V30 5569 C 553.641 2.90416 -3.41119 0
M  V30 5570 C 555.385 3.82882 -1.83308 0
M  V30 5571 C 553.292 4.21468 -4.14872 0
M  V30 5572 H 552.222 0.635804 -0.405302 0
M  V30 5573 H 554.873 1.06513 -1.49423 0
M  V30 5574 H 553.255 3.69128 -1.43389 0
M  V30 5575 H 554.429 2.35444 -3.9611 0
M  V30 5576 H 552.744 2.26203 -3.49602 0
M  V30 5577 H 555.341 4.79944 -2.35706 0
M  V30 5578 H 555.684 4.0853 -0.800572 0
M  V30 5579 H 556.217 3.25711 -2.28379 0
M  V30 5580 H 552.956 4.01009 -5.18529 0
M  V30 5581 H 552.476 4.76213 -3.64665 0
M  V30 5582 H 554.155 4.90022 -4.22478 0
M  V30 5583 N 554.287 1.06798 1.15896 0
M  V30 5584 C 555.219 0.641263 2.20046 0
M  V30 5585 C 556.232 -0.303355 1.59949 0
M  V30 5586 O 557.421 -0.0935478 1.78255 0
M  V30 5587 C 554.521 -0.0794029 3.38807 0
M  V30 5588 C 553.694 0.879986 4.28457 0
M  V30 5589 C 552.753 0.197638 5.25829 0
M  V30 5590 O 551.779 0.836913 5.63014 0
M  V30 5591 N 552.981 -1.05886 5.70761 0
M  V30 5592 H 555.746 1.53718 2.57276 0
M  V30 5593 H 553.307 0.951951 1.30956 0
M  V30 5594 H 555.299 -0.546418 4.00994 0
M  V30 5595 H 553.869 -0.877193 3.0004 0
M  V30 5596 H 553.089 1.52625 3.63454 0
M  V30 5597 H 554.377 1.53065 4.8523 0
M  V30 5598 H 553.775 -1.59828 5.42652 0
M  V30 5599 H 552.332 -1.46965 6.35015 0
M  V30 5600 N 555.766 -1.3263 0.851289 0
M  V30 5601 C 557.014 -1.96978 0.452128 0
M  V30 5602 C 557.335 -1.67715 -0.99482 0
M  V30 5603 O 556.605 -0.98259 -1.69476 0
M  V30 5604 H 555.185 -0.72873 0.164202 0
M  V30 5605 H 557.847 -1.61774 1.08698 0
M  V30 5606 H 556.943 -3.06387 0.594407 0
M  V30 5607 N 557.244 -0.608902 -1.45362 0
M  V30 5608 C 558.174 0.0964526 -2.33301 0
M  V30 5609 C 559.155 0.857444 -1.46908 0
M  V30 5610 O 560.34 0.827735 -1.75676 0
M  V30 5611 C 557.47 1.09354 -3.29635 0
M  V30 5612 C 556.424 0.445676 -4.25673 0
M  V30 5613 C 555.75 1.5511 -5.11708 0
M  V30 5614 C 557.05 -0.633972 -5.18438 0
M  V30 5615 H 558.744 -0.637829 -2.92527 0
M  V30 5616 H 556.29 -0.308178 -1.40664 0
M  V30 5617 H 558.243 1.59556 -3.90025 0
M  V30 5618 H 556.967 1.85843 -2.6857 0
M  V30 5619 H 555.626 -0.0354897 -3.66583 0
M  V30 5620 H 555.274 2.30631 -4.4701 0
M  V30 5621 H 554.974 1.12311 -5.76767 0
M  V30 5622 H 556.498 2.05537 -5.74967 0
M  V30 5623 H 557.912 -0.215974 -5.72893 0
M  V30 5624 H 556.309 -0.983789 -5.91981 0
M  V30 5625 H 557.379 -1.51005 -4.60788 0
M  V30 5626 N 558.722 1.53707 -0.348139 0
M  V30 5627 C 559.971 2.0017 0.247992 0
M  V30 5628 C 560.284 1.23983 1.51286 0
M  V30 5629 O 561.49 1.60946 2.18652 0
M  V30 5630 C 559.946 3.56515 0.492459 0
M  V30 5631 C 559.554 4.41562 -0.756777 0
M  V30 5632 C 561.298 4.11381 1.0472 0
M  V30 5633 C 559.205 5.89426 -0.482856 0
M  V30 5634 H 558.135 0.747806 0.0964452 0
M  V30 5635 H 560.786 1.77532 -0.464179 0
M  V30 5636 H 559.168 3.75236 1.26545 0
M  V30 5637 H 560.342 4.34615 -1.53122 0
M  V30 5638 H 558.657 3.97711 -1.23348 0
M  V30 5639 H 561.254 5.19468 1.26717 0
M  V30 5640 H 561.597 3.64885 2.00411 0
M  V30 5641 H 562.13 3.96389 0.334801 0
M  V30 5642 H 558.869 6.40164 -1.40962 0
M  V30 5643 H 558.389 5.99264 0.253416 0
M  V30 5644 H 560.068 6.4692 -0.101816 0
M  V30 5645 N 560.2 0.0768682 1.57412 0
M  V30 5646 C 561.448 -0.589918 1.93299 0
M  V30 5647 C 561.769 -1.69842 0.958049 0
M  V30 5648 O 561.039 -1.95899 0.00703261 0
M  V30 5649 H 559.619 -0.220901 0.713591 0
M  V30 5650 H 562.281 0.135917 1.94425 0
M  V30 5651 H 561.377 -1.01195 2.95239 0
M  V30 5652 N 561.678 -1.56367 -0.196722 0
M  V30 5653 C 562.903 -1.84991 -0.937714 0
M  V30 5654 C 563.328 -0.660244 -1.76132 0
M  V30 5655 O 562.686 0.390967 -1.77034 0
M  V30 5656 C 562.734 -3.11828 -1.81096 0
M  V30 5657 O 561.838 -2.92266 -2.90955 0
M  V30 5658 H 561.179 -0.609193 -0.264159 0
M  V30 5659 H 563.709 -2.03595 -0.202529 0
M  V30 5660 H 563.719 -3.42579 -2.21594 0
M  V30 5661 H 562.394 -3.98037 -1.2058 0
M  V30 5662 H 560.971 -2.72809 -2.54224 0
M  V30 5663 N 563.156 0.464375 -1.50603 0
M  V30 5664 C 564.402 1.21776 -1.62168 0
M  V30 5665 C 564.735 1.91476 -0.324154 0
M  V30 5666 O 564.01 1.8242 0.674782 0
M  V30 5667 C 564.293 2.25614 -2.80661 0
M  V30 5668 C 564.146 1.60175 -4.20314 0
M  V30 5669 C 565.465 3.26862 -2.94702 0
M  V30 5670 H 562.584 0.44137 -0.590222 0
M  V30 5671 H 565.226 0.510623 -1.8301 0
M  V30 5672 H 563.376 2.85923 -2.63021 0
M  V30 5673 H 565.048 1.03411 -4.4956 0
M  V30 5674 H 563.291 0.904697 -4.24261 0
M  V30 5675 H 563.962 2.35665 -4.99165 0
M  V30 5676 H 566.438 2.76582 -3.10872 0
M  V30 5677 H 565.314 3.96839 -3.79223 0
M  V30 5678 H 565.575 3.91382 -2.05603 0
M  V30 5679 N 564.634 1.40294 0.718013 0
M  V30 5680 C 565.544 1.42678 1.86226 0
M  V30 5681 C 566.56 0.319655 1.71039 0
M  V30 5682 O 567.736 0.563852 1.93346 0
M  V30 5683 C 564.801 1.2852 3.21999 0
M  V30 5684 C 563.862 2.49354 3.49458 0
M  V30 5685 C 563.095 2.35863 4.78753 0
M  V30 5686 O 563.318 1.37114 5.53675 0
M  V30 5687 O 562.252 3.25189 5.06494 0
M  V30 5688 H 566.078 2.39167 1.87171 0
M  V30 5689 H 563.663 1.2159 0.868112 0
M  V30 5690 H 565.545 1.22824 4.03103 0
M  V30 5691 H 564.22 0.351359 3.21787 0
M  V30 5692 H 563.127 2.60628 2.68373 0
M  V30 5693 H 564.46 3.41491 3.54464 0
M  V30 5694 N 566.112 -0.949982 1.2575 0
M  V30 5695 C 567.022 -2.08109 1.08295 0
M  V30 5696 C 568.038 -1.7399 0.0188181 0
M  V30 5697 O 569.214 -2.00187 0.220724 0
M  V30 5698 C 566.279 -3.39383 0.708534 0
M  V30 5699 C 565.34 -3.8734 1.85111 0
M  V30 5700 C 564.573 -5.12349 1.49447 0
M  V30 5701 O 564.796 -5.6905 0.392212 0
M  V30 5702 O 563.73 -5.5513 2.32624 0
M  V30 5703 H 567.556 -2.25738 2.03165 0
M  V30 5704 H 565.141 -1.06545 1.04731 0
M  V30 5705 H 567.023 -4.18277 0.512061 0
M  V30 5706 H 565.698 -3.23013 -0.210854 0
M  V30 5707 H 564.605 -3.09429 2.10248 0
M  V30 5708 H 565.938 -4.08216 2.74991 0
M  V30 5709 N 567.59 -1.07411 -1.15328 0
M  V30 5710 C 568.522 -0.652924 -2.19703 0
M  V30 5711 C 569.535 0.294869 -1.60107 0
M  V30 5712 O 570.724 0.0840932 -1.78302 0
M  V30 5713 C 567.824 0.061434 -3.38844 0
M  V30 5714 C 566.997 -0.902696 -4.27984 0
M  V30 5715 C 566.056 -0.225521 -5.25717 0
M  V30 5716 O 565.082 -0.86676 -5.62562 0
M  V30 5717 N 566.284 1.02858 -5.71315 0
M  V30 5718 H 569.049 -1.55081 -2.56457 0
M  V30 5719 H 566.61 -0.958883 -1.30449 0
M  V30 5720 H 568.602 0.525145 -4.01278 0
M  V30 5721 H 567.172 0.861269 -3.00501 0
M  V30 5722 H 566.392 -1.54551 -3.6264 0
M  V30 5723 H 567.68 -1.55636 -4.84412 0
M  V30 5724 H 567.078 1.56948 -5.43492 0
M  V30 5725 H 565.635 1.43596 -6.35786 0
M  V30 5726 N 569.068 1.32177 -0.85831 0
M  V30 5727 C 569.998 2.31282 -0.321041 0
M  V30 5728 C 570.979 1.59841 0.581786 0
M  V30 5729 O 572.164 1.87619 0.501262 0
M  V30 5730 C 569.294 3.4385 0.48832 0
M  V30 5731 C 568.248 4.26799 -0.320391 0
M  V30 5732 C 567.574 5.31164 0.613934 0
M  V30 5733 C 568.874 4.98829 -1.54813 0
M  V30 5734 H 570.568 2.76469 -1.14915 0
M  V30 5735 H 568.114 1.32916 -0.554028 0
M  V30 5736 H 570.067 4.12224 0.874626 0
M  V30 5737 H 568.791 2.97401 1.34983 0
M  V30 5738 H 567.45 3.60077 -0.688497 0
M  V30 5739 H 567.098 4.80967 1.47239 0
M  V30 5740 H 566.798 5.8755 0.0768097 0
M  V30 5741 H 568.322 6.024 0.997336 0
M  V30 5742 H 569.736 5.59864 -1.23392 0
M  V30 5743 H 568.133 5.64957 -2.02346 0
M  V30 5744 H 569.203 4.26483 -2.30739 0
M  V30 5745 N 570.547 0.616602 1.45037 0
M  V30 5746 C 571.51 -0.0871112 2.29034 0
M  V30 5747 C 572.51 -0.786414 1.40258 0
M  V30 5748 O 573.7 -0.633207 1.62284 0
M  V30 5749 C 570.832 -1.13369 3.21497 0
M  V30 5750 H 572.025 0.651497 2.92738 0
M  V30 5751 H 569.578 0.376058 1.51709 0
M  V30 5752 H 570.313 -1.90277 2.62612 0
M  V30 5753 H 570.098 -0.636358 3.86902 0
M  V30 5754 H 571.588 -1.62627 3.84633 0
M  V30 5755 N 572.025 -1.5352 0.356285 0
M  V30 5756 C 572.957 -2.23009 -0.529127 0
M  V30 5757 C 573.97 -1.241 -1.05371 0
M  V30 5758 O 575.159 -1.50379 -0.961679 0
M  V30 5759 C 572.259 -2.90685 -1.74229 0
M  V30 5760 C 571.432 -4.16019 -1.35081 0
M  V30 5761 C 570.491 -4.66989 -2.42502 0
M  V30 5762 O 569.517 -5.30895 -2.05279 0
M  V30 5763 N 570.719 -4.44006 -3.7395 0
M  V30 5764 H 573.484 -2.99627 0.0660501 0
M  V30 5765 H 571.045 -1.60885 0.181014 0
M  V30 5766 H 573.037 -3.21695 -2.4555 0
M  V30 5767 H 571.607 -2.17575 -2.24454 0
M  V30 5768 H 570.827 -3.91414 -0.467833 0
M  V30 5769 H 572.115 -4.9752 -1.06542 0
M  V30 5770 H 571.513 -3.92924 -4.06973 0
M  V30 5771 H 570.07 -4.7959 -4.41403 0
M  V30 5772 N 573.503 -0.0852151 -1.57369 0
M  V30 5773 C 574.433 0.874556 -2.16503 0
M  V30 5774 C 575.414 1.30111 -1.09568 0
M  V30 5775 O 576.599 1.36977 -1.37662 0
M  V30 5776 C 573.729 2.13731 -2.73745 0
M  V30 5777 C 572.683 1.84971 -3.85966 0
M  V30 5778 C 572.009 3.17991 -4.29867 0
M  V30 5779 C 573.309 1.14442 -5.09608 0
M  V30 5780 H 575.003 0.381899 -2.96954 0
M  V30 5781 H 572.549 0.18225 -1.42842 0
M  V30 5782 H 574.502 2.81302 -3.13763 0
M  V30 5783 H 573.226 2.65263 -1.90534 0
M  V30 5784 H 571.885 1.19801 -3.46473 0
M  V30 5785 H 571.533 3.6739 -3.4356 0
M  V30 5786 H 571.233 2.99534 -5.05523 0
M  V30 5787 H 572.757 3.86737 -4.72511 0
M  V30 5788 H 574.171 1.72105 -5.46857 0
M  V30 5789 H 572.568 1.06197 -5.90629 0
M  V30 5790 H 573.638 0.12559 -4.84737 0
M  V30 5791 N 574.981 1.5647 0.188427 0
M  V30 5792 C 576.397 1.50204 0.539532 0
M  V30 5793 C 576.597 0.78644 1.85519 0
M  V30 5794 O 575.653 0.339714 2.50204 0
M  V30 5795 C 576.966 2.94893 0.588103 0
M  V30 5796 C 578.514 3.05602 0.67648 0
M  V30 5797 C 578.989 4.51716 0.756101 0
M  V30 5798 N 580.48 4.55894 0.819451 0
M  V30 5799 C 581.215 5.66272 0.90134 0
M  V30 5800 N 580.711 6.86323 0.945118 0
M  V30 5801 N 582.504 5.54201 0.939043 0
M  V30 5802 H 574.655 2.01406 -0.674493 0
M  V30 5803 H 576.918 0.916828 -0.241103 0
M  V30 5804 H 576.624 3.50334 -0.309633 0
M  V30 5805 H 576.498 3.4861 1.44051 0
M  V30 5806 H 578.885 2.50206 1.56465 0
M  V30 5807 H 578.966 2.54999 -0.202262 0
M  V30 5808 H 578.61 5.07739 -0.12774 0
M  V30 5809 H 578.54 5.00058 1.65074 0
M  V30 5810 H 581.031 3.69452 0.794594 0
M  V30 5811 H 581.344 7.66194 1.0083 0
M  V30 5812 H 579.689 6.88968 0.913683 0
M  V30 5813 H 582.88 4.59333 0.901725 0
M  V30 5814 H 583.053 6.40247 0.999402 0
M  V30 5815 N 576.459 -0.456382 1.50847 0
M  V30 5816 C 577.699 -1.21704 1.64218 0
M  V30 5817 C 578.063 -1.88932 0.341859 0
M  V30 5818 O 579.264 -2.66497 0.351137 0
M  V30 5819 C 577.535 -2.22162 2.79962 0
M  V30 5820 S 579.094 -3.0697 3.13552 0
M  V30 5821 H 575.912 -0.412995 0.578754 0
M  V30 5822 H 578.514 -0.511637 1.88686 0
M  V30 5823 H 577.218 -1.71379 3.72904 0
M  V30 5824 H 576.749 -2.9731 2.57624 0
M  V30 5825 H 578.764 -4.23539 2.58513 0
M  V30 5826 N 577.937 -1.40673 -0.710563 0
M  V30 5827 C 578.847 -1.43663 -1.85467 0
M  V30 5828 C 579.863 -0.328721 -1.70867 0
M  V30 5829 O 581.039 -0.574098 -1.93044 0
M  V30 5830 C 578.104 -1.30226 -3.21313 0
M  V30 5831 C 577.165 -2.51204 -3.48131 0
M  V30 5832 C 576.398 -2.38398 -4.77495 0
M  V30 5833 O 576.621 -1.40048 -5.5294 0
M  V30 5834 O 575.555 -3.2787 -5.04762 0
M  V30 5835 H 579.381 -2.40156 -1.859 0
M  V30 5836 H 576.966 -1.22049 -0.861652 0
M  V30 5837 H 578.848 -1.2496 -4.02446 0
M  V30 5838 H 577.523 -0.368419 -3.21597 0
M  V30 5839 H 576.43 -2.62048 -2.66987 0
M  V30 5840 H 577.763 -3.43366 -3.52648 0
M  V30 5841 N 579.415 0.9433 -1.26252 0
M  V30 5842 C 580.348 2.04162 -1.01946 0
M  V30 5843 C 581.326 1.62507 0.0550808 0
M  V30 5844 O 582.51 1.883 -0.0869025 0
M  V30 5845 C 579.637 3.34313 -0.54335 0
M  V30 5846 C 578.683 3.94939 -1.61013 0
M  V30 5847 S 579.516 4.29484 -3.19849 0
M  V30 5848 C 580.672 5.62738 -2.74001 0
M  V30 5849 H 580.905 2.24466 -1.94942 0
M  V30 5850 H 578.438 1.08441 -1.09909 0
M  V30 5851 H 580.396 4.09576 -0.275315 0
M  V30 5852 H 579.057 3.11957 0.36629 0
M  V30 5853 H 578.25 4.88812 -1.22795 0
M  V30 5854 H 577.852 3.26202 -1.82943 0
M  V30 5855 H 580.144 6.41356 -2.18333 0
M  V30 5856 H 581.087 6.05839 -3.66558 0
M  V30 5857 H 581.495 5.22514 -2.13634 0
M  V30 5858 N 580.893 1.08022 1.14757 0
M  V30 5859 C 581.803 0.718292 2.23333 0
M  V30 5860 C 582.819 -0.273477 1.71837 0
M  V30 5861 O 583.995 -0.118406 2.01052 0
M  V30 5862 C 581.06 0.128855 3.4646 0
M  V30 5863 C 580.121 1.17473 4.12915 0
M  V30 5864 C 579.354 0.61333 5.30164 0
M  V30 5865 O 579.577 -0.568458 5.6756 0
M  V30 5866 O 578.511 1.3615 5.86299 0
M  V30 5867 H 582.337 1.62394 2.56636 0
M  V30 5868 H 579.922 0.853628 1.22611 0
M  V30 5869 H 581.804 -0.197249 4.20938 0
M  V30 5870 H 580.479 -0.750014 3.14891 0
M  V30 5871 H 579.386 1.5533 3.40328 0
M  V30 5872 H 580.719 2.02574 4.48581 0
M  V30 5873 N 582.371 -1.3172 0.865308 0
M  V30 5874 C 583.303 -2.27545 0.274906 0
M  V30 5875 C 584.316 -1.52887 -0.559413 0
M  V30 5876 O 585.505 -1.74361 -0.382166 0
M  V30 5877 C 582.605 -3.33006 -0.629286 0
M  V30 5878 C 581.778 -4.37063 0.171553 0
M  V30 5879 C 580.837 -5.22044 -0.660052 0
M  V30 5880 O 579.863 -5.69129 -0.0897527 0
M  V30 5881 N 581.065 -5.45946 -1.97289 0
M  V30 5882 H 583.83 -2.78848 1.09836 0
M  V30 5883 H 581.391 -1.44693 0.726331 0
M  V30 5884 H 583.383 -3.86772 -1.19121 0
M  V30 5885 H 581.953 -2.81782 -1.35342 0
M  V30 5886 H 581.173 -3.83436 0.914919 0
M  V30 5887 H 582.461 -5.03662 0.721235 0
M  V30 5888 H 581.859 -5.0944 -2.45942 0
M  V30 5889 H 580.416 -6.02665 -2.4827 0
M  V30 5890 N 583.85 -0.624285 -1.44708 0
M  V30 5891 C 584.782 0.12305 -2.28869 0
M  V30 5892 C 585.795 0.81557 -1.40898 0
M  V30 5893 O 586.984 0.678162 -1.65116 0
M  V30 5894 C 584.084 1.19612 -3.1709 0
M  V30 5895 C 583.257 0.587452 -4.33437 0
M  V30 5896 C 582.316 1.55358 -5.02743 0
M  V30 5897 O 581.341 1.07338 -5.58988 0
M  V30 5898 N 582.543 2.88798 -5.03563 0
M  V30 5899 H 585.308 -0.599193 -2.93649 0
M  V30 5900 H 582.87 -0.464954 -1.5508 0
M  V30 5901 H 584.861 1.84261 -3.60319 0
M  V30 5902 H 583.432 1.82067 -2.54107 0
M  V30 5903 H 582.652 -0.237509 -3.93484 0
M  V30 5904 H 583.94 0.161326 -5.08544 0
M  V30 5905 H 583.338 3.30399 -4.59188 0
M  V30 5906 H 581.894 3.48826 -5.50603 0
M  V30 5907 N 585.328 1.53329 -0.364422 0
M  V30 5908 C 586.553 2.06132 0.229033 0
M  V30 5909 C 586.978 1.23625 1.41769 0
M  V30 5910 O 586.336 0.255038 1.79497 0
M  V30 5911 C 586.384 3.55544 0.60174 0
M  V30 5912 O 585.488 3.75771 1.69912 0
M  V30 5913 H 584.829 0.663148 0.0336213 0
M  V30 5914 H 587.359 1.97758 -0.524689 0
M  V30 5915 H 587.369 3.98549 0.873073 0
M  V30 5916 H 586.044 4.15039 -0.267421 0
M  V30 5917 H 584.621 3.44663 1.42343 0
M  V30 5918 N 586.806 0.0935595 1.57322 0
M  V30 5919 C 587.738 -0.895923 2.10964 0
M  V30 5920 C 588.751 -1.24705 1.04654 0
M  V30 5921 O 589.94 -1.20044 1.32105 0
M  V30 5922 C 587.04 -2.20546 2.57318 0
M  V30 5923 C 586.213 -2.0299 3.87445 0
M  V30 5924 C 585.272 -3.17443 4.19662 0
M  V30 5925 O 584.298 -2.91474 4.88909 0
M  V30 5926 N 585.5 -4.43168 3.74943 0
M  V30 5927 H 588.265 -0.437788 2.96485 0
M  V30 5928 H 585.826 -0.0915863 1.61641 0
M  V30 5929 H 587.818 -2.9606 2.75917 0
M  V30 5930 H 586.388 -2.57789 1.76816 0
M  V30 5931 H 585.608 -1.11815 3.78009 0
M  V30 5932 H 586.896 -1.88535 4.7258 0
M  V30 5933 H 586.294 -4.67149 3.19043 0
M  V30 5934 H 584.851 -5.15637 3.987 0
M  V30 5935 N 588.284 -1.56567 -0.180126 0
M  V30 5936 C 589.194 -1.98947 -1.24327 0
M  V30 5937 C 590.21 -0.899446 -1.4895 0
M  V30 5938 O 591.386 -1.20639 -1.61271 0
M  V30 5939 C 588.451 -2.33328 -2.56435 0
M  V30 5940 C 587.512 -3.56114 -2.39752 0
M  V30 5941 C 586.745 -3.88845 -3.65561 0
M  V30 5942 O 586.968 -3.22662 -4.70368 0
M  V30 5943 O 585.902 -4.82226 -3.60197 0
M  V30 5944 H 589.728 -2.89634 -0.913565 0
M  V30 5945 H 587.313 -1.44319 -0.386306 0
M  V30 5946 H 589.195 -2.5645 -3.34382 0
M  V30 5947 H 587.87 -1.45806 -2.89002 0
M  V30 5948 H 586.777 -3.38221 -1.59866 0
M  V30 5949 H 588.11 -4.4415 -2.12113 0
M  V30 5950 N 589.762 0.448376 -1.51087 0
M  V30 5951 C 590.992 1.21965 -1.66757 0
M  V30 5952 C 591.4 1.85748 -0.359753 0
M  V30 5953 O 590.743 1.71022 0.670604 0
M  V30 5954 C 590.805 2.35284 -2.71812 0
M  V30 5955 C 590.469 1.91957 -4.1473 0
M  V30 5956 C 591.466 1.42921 -4.9987 0
M  V30 5957 C 589.151 1.99985 -4.60772 0
M  V30 5958 C 591.145 1.02485 -6.29107 0
M  V30 5959 C 588.832 1.5916 -5.90009 0
M  V30 5960 C 589.83 1.10491 -6.74004 0
M  V30 5961 O 589.518 0.702413 -8.00825 0
M  V30 5962 H 589.25 0.374125 -0.563034 0
M  V30 5963 H 591.804 0.538927 -1.98204 0
M  V30 5964 H 590.034 3.06599 -2.35657 0
M  V30 5965 H 591.723 2.97184 -2.76472 0
M  V30 5966 H 592.489 1.36123 -4.65506 0
M  V30 5967 H 588.368 2.36814 -3.95525 0
M  V30 5968 H 591.912 0.644271 -6.94619 0
M  V30 5969 H 587.809 1.65626 -6.2389 0
M  V30 5970 H 588.577 0.829248 -8.14288 0
M  V30 5971 N 591.24 1.41047 0.703093 0
M  V30 5972 C 592.172 1.38228 1.82827 0
M  V30 5973 C 593.185 0.285637 1.60275 0
M  V30 5974 O 594.374 0.54685 1.69917 0
M  V30 5975 C 591.474 1.13136 3.19458 0
M  V30 5976 C 590.647 2.34695 3.69103 0
M  V30 5977 C 589.706 2.05574 4.84382 0
M  V30 5978 O 588.732 2.78549 4.96386 0
M  V30 5979 N 589.934 1.04135 5.71083 0
M  V30 5980 H 592.699 2.35203 1.85741 0
M  V30 5981 H 590.26 1.35562 0.885125 0
M  V30 5982 H 592.252 0.916183 3.94193 0
M  V30 5983 H 590.822 0.247836 3.11616 0
M  V30 5984 H 590.042 2.71963 2.85359 0
M  V30 5985 H 591.33 3.15705 3.99009 0
M  V30 5986 H 590.728 0.43722 5.64008 0
M  V30 5987 H 589.285 0.886078 6.45749 0
M  V30 5988 N 592.718 -0.936591 1.26751 0
M  V30 5989 C 593.967 -1.67778 1.11953 0
M  V30 5990 C 594.28 -1.92694 -0.33589 0
M  V30 5991 O 595.486 -2.64682 -0.604618 0
M  V30 5992 C 593.942 -3.02138 1.95551 0
M  V30 5993 C 593.55 -2.84953 3.45696 0
M  V30 5994 C 595.294 -3.79917 1.89377 0
M  V30 5995 C 593.201 -4.14814 4.21525 0
M  V30 5996 H 592.131 -0.629275 0.415366 0
M  V30 5997 H 594.782 -1.04122 1.51099 0
M  V30 5998 H 593.164 -3.668 1.49243 0
M  V30 5999 H 594.338 -2.29112 3.99805 0
M  V30 6000 H 592.653 -2.20612 3.53156 0
M  V30 6001 H 595.25 -4.76134 2.43312 0
M  V30 6002 H 595.593 -4.07204 0.865464 0
M  V30 6003 H 596.126 -3.22037 2.33532 0
M  V30 6004 H 592.865 -3.92709 5.24843 0
M  V30 6005 H 592.385 -4.70352 3.72195 0
M  V30 6006 H 594.064 -4.83239 4.3022 0
M  V30 6007 N 594.196 -1.08629 -1.14182 0
M  V30 6008 C 595.126 -0.740003 -2.21464 0
M  V30 6009 C 596.107 0.278591 -1.67803 0
M  V30 6010 O 597.292 0.148461 -1.93632 0
M  V30 6011 C 594.422 -0.150952 -3.46972 0
M  V30 6012 C 593.376 -1.09815 -4.13672 0
M  V30 6013 C 592.702 -0.3712 -5.3341 0
M  V30 6014 C 594.002 -2.43722 -4.61949 0
M  V30 6015 H 595.696 -1.63697 -2.50686 0
M  V30 6016 H 593.242 -0.788526 -1.20492 0
M  V30 6017 H 595.195 0.103325 -4.21273 0
M  V30 6018 H 593.919 0.781164 -3.1712 0
M  V30 6019 H 592.578 -1.33756 -3.41328 0
M  V30 6020 H 592.226 0.564792 -4.99819 0
M  V30 6021 H 591.926 -1.00267 -5.78982 0
M  V30 6022 H 593.45 -0.12503 -6.10472 0
M  V30 6023 H 594.864 -2.24034 -5.27714 0
M  V30 6024 H 593.261 -3.02582 -5.18232 0
M  V30 6025 H 594.331 -3.05082 -3.76899 0
M  V30 6026 N 595.674 1.31259 -0.872281 0
M  V30 6027 C 596.604 2.30929 -0.345554 0
M  V30 6028 C 597.585 1.60449 0.5648 0
M  V30 6029 O 598.77 1.8814 0.481335 0
M  V30 6030 C 595.9 3.44348 0.451823 0
M  V30 6031 C 594.854 4.26435 -0.365641 0
M  V30 6032 C 594.18 5.31785 0.557562 0
M  V30 6033 C 595.48 4.97159 -1.60095 0
M  V30 6034 H 597.174 2.75234 -1.17841 0
M  V30 6035 H 594.72 1.3232 -0.568094 0
M  V30 6036 H 596.673 4.13128 0.830854 0
M  V30 6037 H 595.397 2.98816 1.31821 0
M  V30 6038 H 594.056 3.59326 -0.726649 0
M  V30 6039 H 593.704 4.82502 1.4213 0
M  V30 6040 H 593.404 5.87598 0.0144878 0
M  V30 6041 H 594.928 6.03424 0.933387 0
M  V30 6042 H 596.342 5.58523 -1.29323 0
M  V30 6043 H 594.739 5.62779 -2.08327 0
M  V30 6044 H 595.809 4.24012 -2.35249 0
M  V30 6045 N 597.152 0.631951 1.44375 0
M  V30 6046 C 598.429 0.067646 1.95483 0
M  V30 6047 C 598.809 -1.40683 1.57389 0
M  V30 6048 O 598.157 -2.12167 0.848375 0
M  V30 6049 C 598.367 0.291392 3.47781 0
M  V30 6050 C 599.715 0.185028 4.24197 0
M  V30 6051 O 600.739 0.222803 3.55503 0
M  V30 6052 O 599.598 0.0906642 5.46425 0
M  V30 6053 H 596.692 -0.0218379 0.826712 0
M  V30 6054 H 599.238 0.703711 1.54421 0
M  V30 6055 H 598.01 1.31449 3.68561 0
M  V30 6056 H 597.633 -0.378772 3.95792 0
M  V30 6057 N 598.631 -1.53133 0.372548 0
M  V30 6058 C 599.877 -2.01654 -0.215277 0
M  V30 6059 C 600.21 -1.25914 -1.47849 0
M  V30 6060 O 599.485 -0.3548 -1.91237 0
M  V30 6061 C 599.768 -3.56609 -0.500187 0
M  V30 6062 C 599.621 -4.43036 0.777145 0
M  V30 6063 C 600.94 -4.20528 -1.29786 0
M  V30 6064 H 598.059 -0.732991 -0.0767686 0
M  V30 6065 H 600.701 -1.83335 0.498814 0
M  V30 6066 H 598.851 -3.7235 -1.10852 0
M  V30 6067 H 600.523 -4.39079 1.41447 0
M  V30 6068 H 598.766 -4.10723 1.39604 0
M  V30 6069 H 599.437 -5.49424 0.532662 0
M  V30 6070 H 601.913 -4.08663 -0.783198 0
M  V30 6071 H 600.789 -5.28962 -1.46596 0
M  V30 6072 H 601.05 -3.77051 -2.30836 0
M  V30 6073 N 600.109 -0.101901 -1.5727 0
M  V30 6074 C 601.056 0.854577 -2.14396 0
M  V30 6075 C 602.026 1.27521 -1.06432 0
M  V30 6076 O 603.211 1.35575 -1.34253 0
M  V30 6077 C 600.351 2.10576 -2.73408 0
M  V30 6078 C 599.464 1.73504 -3.95626 0
M  V30 6079 C 598.599 2.9346 -4.42781 0
M  V30 6080 C 597.638 2.52547 -5.57572 0
M  V30 6081 N 596.775 3.65359 -5.99547 0
M  V30 6082 H 601.615 0.360578 -2.9581 0
M  V30 6083 H 599.152 0.166303 -1.46157 0
M  V30 6084 H 601.11 2.83859 -3.05745 0
M  V30 6085 H 599.74 2.57463 -1.94711 0
M  V30 6086 H 598.792 0.901622 -3.6956 0
M  V30 6087 H 600.104 1.39426 -4.78917 0
M  V30 6088 H 599.258 3.74988 -4.76937 0
M  V30 6089 H 597.997 3.30753 -3.58404 0
M  V30 6090 H 597.002 1.69446 -5.23037 0
M  V30 6091 H 598.227 2.1639 -6.43702 0
M  V30 6092 H 596.173 4.02358 -5.18116 0
M  V30 6093 H 596.09 3.35148 -6.77652 0
M  V30 6094 H 597.358 4.47378 -6.38336 0
M  V30 6095 N 601.587 1.56661 0.17182 0
M  V30 6096 C 602.815 1.861 0.904115 0
M  V30 6097 C 603.23 0.687227 1.75848 0
M  V30 6098 O 602.587 -0.343671 1.79235 0
M  V30 6099 C 602.638 3.14568 1.78127 0
M  V30 6100 O 602.359 4.27422 0.961366 0
M  V30 6101 C 603.86 3.5735 2.62327 0
M  V30 6102 H 601.08 0.617445 0.262684 0
M  V30 6103 H 603.624 2.03775 0.172068 0
M  V30 6104 H 601.779 2.98721 2.46666 0
M  V30 6105 H 602.193 5.00725 1.56123 0
M  V30 6106 H 603.667 4.50144 3.1949 0
M  V30 6107 H 604.144 2.81445 3.37173 0
M  V30 6108 H 604.75 3.75807 1.99121 0
M  V30 6109 N 603.065 -0.440357 1.51323 0
M  V30 6110 C 604.481 -0.7766 1.39431 0
M  V30 6111 C 604.681 -1.95838 0.474296 0
M  V30 6112 O 603.737 -2.52398 -0.0716692 0
M  V30 6113 C 605.05 -1.05981 2.81405 0
M  V30 6114 C 606.598 -1.16442 2.90534 0
M  V30 6115 C 607.073 -1.48058 4.33408 0
M  V30 6116 N 608.564 -1.54988 4.36501 0
M  V30 6117 C 609.299 -1.81017 5.44078 0
M  V30 6118 N 608.795 -2.04858 6.61819 0
M  V30 6119 N 610.588 -1.82774 5.31554 0
M  V30 6120 H 602.739 0.338006 2.09693 0
M  V30 6121 H 605.002 0.0888072 0.943831 0
M  V30 6122 H 604.708 -0.264173 3.50706 0
M  V30 6123 H 604.582 -1.98822 3.20546 0
M  V30 6124 H 606.969 -1.95068 2.21432 0
M  V30 6125 H 607.05 -0.215088 2.54894 0
M  V30 6126 H 606.694 -0.699605 5.03059 0
M  V30 6127 H 606.624 -2.44192 4.66559 0
M  V30 6128 H 609.115 -1.38479 3.51613 0
M  V30 6129 H 609.428 -2.2408 7.396 0
M  V30 6130 H 607.773 -2.02187 6.6494 0
M  V30 6131 H 610.964 -1.63665 4.38556 0
M  V30 6132 H 611.137 -2.02722 6.15474 0
M  V30 6133 N 604.543 -1.41418 -0.695603 0
M  V30 6134 C 605.473 -1.46035 -1.82197 0
M  V30 6135 C 606.454 -0.319025 -1.67082 0
M  V30 6136 O 607.639 -0.530462 -1.86815 0
M  V30 6137 C 604.769 -1.34179 -3.20333 0
M  V30 6138 C 603.723 -2.46123 -3.50154 0
M  V30 6139 C 603.049 -2.19332 -4.87645 0
M  V30 6140 C 604.349 -3.88463 -3.49133 0
M  V30 6141 H 606.043 -2.40303 -1.78591 0
M  V30 6142 H 603.589 -1.15663 -0.857797 0
M  V30 6143 H 605.542 -1.36021 -3.98844 0
M  V30 6144 H 604.266 -0.363952 -3.24566 0
M  V30 6145 H 602.925 -2.43563 -2.73994 0
M  V30 6146 H 602.573 -1.19891 -4.88503 0
M  V30 6147 H 602.273 -2.94344 -5.08562 0
M  V30 6148 H 603.797 -2.22889 -5.68465 0
M  V30 6149 H 605.211 -3.92738 -4.17648 0
M  V30 6150 H 603.608 -4.63158 -3.81582 0
M  V30 6151 H 604.678 -4.16617 -2.48109 0
M  V30 6152 N 606.021 0.929856 -1.27246 0
M  V30 6153 C 606.931 2.0636 -1.11592 0
M  V30 6154 C 607.947 1.73938 -0.046496 0
M  V30 6155 O 609.123 1.9981 -0.252544 0
M  V30 6156 C 606.188 3.38213 -0.762437 0
M  V30 6157 C 605.249 3.84346 -1.9125 0
M  V30 6158 C 604.482 5.09906 -1.57579 0
M  V30 6159 O 604.705 5.68354 -0.482694 0
M  V30 6160 O 603.639 5.51359 -2.41426 0
M  V30 6161 H 607.465 2.22478 -2.0673 0
M  V30 6162 H 605.05 1.04865 -1.06413 0
M  V30 6163 H 606.932 4.1741 -0.57854 0
M  V30 6164 H 605.607 3.23307 0.159439 0
M  V30 6165 H 604.514 3.06045 -2.15144 0
M  V30 6166 H 605.847 4.0379 -2.81451 0
M  V30 6167 N 607.499 1.09233 1.13605 0
M  V30 6168 C 608.431 0.687794 2.18637 0
M  V30 6169 C 609.444 -0.26936 1.60556 0
M  V30 6170 O 610.633 -0.0557162 1.78413 0
M  V30 6171 C 607.733 -0.00751901 3.38899 0
M  V30 6172 C 606.906 0.97067 4.26494 0
M  V30 6173 C 605.965 0.309129 5.25291 0
M  V30 6174 O 604.991 0.956149 5.61112 0
M  V30 6175 N 606.193 -0.937555 5.72879 0
M  V30 6176 H 608.958 1.59141 2.53957 0
M  V30 6177 H 606.519 0.979515 1.28907 0
M  V30 6178 H 608.511 -0.461238 4.02063 0
M  V30 6179 H 607.081 -0.813353 3.01833 0
M  V30 6180 H 606.301 1.603 3.60135 0
M  V30 6181 H 607.589 1.63323 4.81875 0
M  V30 6182 H 606.987 -1.48281 5.4592 0
M  V30 6183 H 605.544 -1.33463 6.3799 0
M  V30 6184 N 608.977 -1.30795 0.87923 0
M  V30 6185 C 609.887 -2.32041 0.345565 0
M  V30 6186 C 610.903 -1.65103 -0.549265 0
M  V30 6187 O 612.079 -1.9645 -0.443763 0
M  V30 6188 C 609.144 -3.43944 -0.436245 0
M  V30 6189 C 608.205 -4.26521 0.48765 0
M  V30 6190 C 607.438 -5.33081 -0.256943 0
M  V30 6191 O 607.661 -5.50762 -1.48381 0
M  V30 6192 O 606.595 -6.00635 0.389985 0
M  V30 6193 H 610.421 -2.79627 1.18501 0
M  V30 6194 H 608.006 -1.3486 0.642885 0
M  V30 6195 H 609.888 -4.12128 -0.879119 0
M  V30 6196 H 608.563 -2.98504 -1.25208 0
M  V30 6197 H 607.47 -3.61057 0.979216 0
M  V30 6198 H 608.803 -4.75551 1.26933 0
M  V30 6199 N 610.455 -0.639598 -1.44038 0
M  V30 6200 C 611.704 -0.144885 -2.01179 0
M  V30 6201 C 612.017 1.24372 -1.50967 0
M  V30 6202 O 613.223 1.83291 -2.00292 0
M  V30 6203 C 611.679 -0.208244 -3.59297 0
M  V30 6204 C 611.287 -1.59869 -4.18504 0
M  V30 6205 C 613.031 0.229568 -4.23879 0
M  V30 6206 C 610.938 -1.61671 -5.68873 0
M  V30 6207 H 609.868 -0.0504005 -0.752314 0
M  V30 6208 H 612.519 -0.799639 -1.65161 0
M  V30 6209 H 610.901 0.513767 -3.92653 0
M  V30 6210 H 612.075 -2.34496 -3.96671 0
M  V30 6211 H 610.39 -1.98131 -3.66242 0
M  V30 6212 H 612.987 0.235758 -5.3418 0
M  V30 6213 H 613.33 1.25848 -3.96822 0
M  V30 6214 H 613.863 -0.440233 -3.95357 0
M  V30 6215 H 610.602 -2.62427 -6.00677 0
M  V30 6216 H 610.122 -0.913489 -5.92803 0
M  V30 6217 H 611.801 -1.35439 -6.32665 0
M  V30 6218 N 611.933 1.52934 -0.380664 0
M  V30 6219 C 612.896 2.24809 0.446473 0
M  V30 6220 C 613.896 1.26133 0.997347 0
M  V30 6221 O 615.086 1.50297 0.880714 0
M  V30 6222 C 612.218 2.99649 1.62553 0
M  V30 6223 H 613.411 2.99343 -0.182677 0
M  V30 6224 H 610.964 1.55736 -0.132618 0
M  V30 6225 H 611.699 2.29395 2.29235 0
M  V30 6226 H 611.484 3.72066 1.23732 0
M  V30 6227 H 612.974 3.54246 2.21133 0
M  V30 6228 N 613.412 0.11024 1.57214 0
M  V30 6229 C 614.64 -0.557834 1.99238 0
M  V30 6230 C 615.055 -1.60778 0.989734 0
M  V30 6231 O 614.412 -1.82491 -0.0186092 0
M  V30 6232 C 614.463 -1.19189 3.41286 0
M  V30 6233 O 614.184 -0.183919 4.37714 0
M  V30 6234 C 615.685 -1.94413 3.98395 0
M  V30 6235 H 612.905 -0.148392 0.654386 0
M  V30 6236 H 615.449 0.193996 2.03578 0
M  V30 6237 H 613.604 -1.89456 3.37913 0
M  V30 6238 H 614.018 -0.643475 5.20538 0
M  V30 6239 H 615.492 -2.34116 4.99894 0
M  V30 6240 H 615.969 -2.81592 3.3705 0
M  V30 6241 H 616.575 -1.28928 4.05287 0
M  V30 6242 N 614.89 -1.56749 -0.16351 0
M  V30 6243 C 616.12 -1.86307 -0.892936 0
M  V30 6244 C 616.528 -0.6945 -1.75992 0
M  V30 6245 O 615.871 0.345384 -1.80424 0
M  V30 6246 C 615.933 -3.10372 -1.81409 0
M  V30 6247 C 615.597 -4.42913 -1.12593 0
M  V30 6248 C 616.594 -5.17608 -0.487661 0
M  V30 6249 C 614.279 -4.89646 -1.12035 0
M  V30 6250 C 616.273 -6.3723 0.14699 0
M  V30 6251 C 613.96 -6.09197 -0.481883 0
M  V30 6252 C 614.958 -6.82834 0.150678 0
M  V30 6253 O 614.646 -8.00116 0.779065 0
M  V30 6254 H 614.378 -0.622126 -0.264452 0
M  V30 6255 H 616.932 -2.04728 -0.166063 0
M  V30 6256 H 615.162 -2.87917 -2.58148 0
M  V30 6257 H 616.851 -3.26312 -2.41403 0
M  V30 6258 H 617.617 -4.8258 -0.483888 0
M  V30 6259 H 613.496 -4.32265 -1.60212 0
M  V30 6260 H 617.04 -6.94646 0.641325 0
M  V30 6261 H 612.937 -6.43688 -0.483266 0
M  V30 6262 H 613.705 -8.15678 0.679089 0
M  V30 6263 N 616.368 0.432326 -1.51554 0
M  V30 6264 C 617.784 0.769195 -1.39841 0
M  V30 6265 C 617.984 1.95584 -0.484675 0
M  V30 6266 O 617.04 2.52433 0.0582829 0
M  V30 6267 C 618.353 1.04487 -2.81963 0
M  V30 6268 C 619.901 1.149 -2.91148 0
M  V30 6269 C 620.376 1.45758 -4.34187 0
M  V30 6270 N 621.867 1.52671 -4.37317 0
M  V30 6271 C 622.602 1.78129 -5.4503 0
M  V30 6272 N 622.098 2.01345 -6.62897 0
M  V30 6273 N 623.891 1.79953 -5.32516 0
M  V30 6274 H 616.042 -0.349122 -2.09511 0
M  V30 6275 H 618.305 -0.0938113 -0.943347 0
M  V30 6276 H 618.011 0.24557 -3.50842 0
M  V30 6277 H 617.885 1.97119 -3.21596 0
M  V30 6278 H 620.272 1.93891 -2.22464 0
M  V30 6279 H 620.353 0.201568 -2.55005 0
M  V30 6280 H 619.997 0.672917 -5.03423 0
M  V30 6281 H 619.927 2.41715 -4.67848 0
M  V30 6282 H 622.418 1.36612 -3.52343 0
M  V30 6283 H 622.731 2.20155 -7.40778 0
M  V30 6284 H 621.076 1.98657 -6.66003 0
M  V30 6285 H 624.267 1.61337 -4.39418 0
M  V30 6286 H 624.44 1.99455 -6.1654 0
M  V30 6287 N 617.846 1.41785 0.688094 0
M  V30 6288 C 619.262 1.24419 0.999608 0
M  V30 6289 C 619.462 0.138868 2.01021 0
M  V30 6290 O 618.518 -0.494283 2.47615 0
M  V30 6291 C 619.831 2.59625 1.51709 0
M  V30 6292 C 621.379 2.66869 1.63554 0
M  V30 6293 C 621.854 4.0241 2.18702 0
M  V30 6294 N 623.345 4.04295 2.26053 0
M  V30 6295 C 624.08 5.05977 2.69768 0
M  V30 6296 N 623.576 6.18047 3.13033 0
M  V30 6297 N 625.369 4.93336 2.69398 0
M  V30 6298 H 617.52 2.12392 0.0187427 0
M  V30 6299 H 619.783 0.945347 0.0708673 0
M  V30 6300 H 619.489 3.41297 0.849059 0
M  V30 6301 H 619.363 2.82628 2.49803 0
M  V30 6302 H 621.75 1.8555 2.29467 0
M  V30 6303 H 621.831 2.47668 0.639857 0
M  V30 6304 H 621.475 4.8418 1.53402 0
M  V30 6305 H 621.405 4.18955 3.19037 0
M  V30 6306 H 623.896 3.23383 1.9553 0
M  V30 6307 H 624.209 6.91498 3.45038 0
M  V30 6308 H 622.554 6.21572 3.10923 0
M  V30 6309 H 625.745 4.04865 2.34952 0
M  V30 6310 H 625.918 5.72717 3.03148 0
M  V30 6311 N 619.324 -0.923095 1.27737 0
M  V30 6312 C 620.254 -2.04124 1.13383 0
M  V30 6313 C 621.235 -1.70066 0.0340658 0
M  V30 6314 O 622.42 -1.93068 0.209383 0
M  V30 6315 C 619.55 -3.3831 0.785097 0
M  V30 6316 C 618.504 -3.86496 1.8386 0
M  V30 6317 C 617.83 -5.1754 1.34373 0
M  V30 6318 C 619.13 -4.09381 3.24353 0
M  V30 6319 H 620.824 -2.1639 2.06919 0
M  V30 6320 H 618.37 -1.03976 0.996243 0
M  V30 6321 H 620.323 -4.16016 0.671485 0
M  V30 6322 H 619.047 -3.2607 -0.185969 0
M  V30 6323 H 617.706 -3.10987 1.9412 0
M  V30 6324 H 617.354 -5.01696 0.361989 0
M  V30 6325 H 617.054 -5.50751 2.04811 0
M  V30 6326 H 618.578 -5.97811 1.24315 0
M  V30 6327 H 619.992 -4.77641 3.17067 0
M  V30 6328 H 618.389 -4.53906 3.92542 0
M  V30 6329 H 619.459 -3.14515 3.69064 0
M  V30 6330 N 620.802 -1.09834 -1.13024 0
M  V30 6331 C 621.732 -0.763451 -2.20666 0
M  V30 6332 C 622.713 0.260778 -1.68089 0
M  V30 6333 O 623.898 0.127915 -1.93778 0
M  V30 6334 C 621.028 -0.187744 -3.46792 0
M  V30 6335 C 619.982 -1.14196 -4.12484 0
M  V30 6336 C 619.308 -0.427755 -5.32986 0
M  V30 6337 C 620.608 -2.48607 -4.59338 0
M  V30 6338 H 622.302 -1.66347 -2.48936 0
M  V30 6339 H 619.848 -0.801261 -1.19649 0
M  V30 6340 H 621.801 0.0586375 -4.21359 0
M  V30 6341 H 620.525 0.747485 -3.17931 0
M  V30 6342 H 619.184 -1.37369 -3.3989 0
M  V30 6343 H 618.832 0.511747 -5.0039 0
M  V30 6344 H 618.532 -1.06403 -5.77886 0
M  V30 6345 H 620.056 -0.189772 -6.10305 0
M  V30 6346 H 621.47 -2.29618 -5.25308 0
M  V30 6347 H 619.867 -3.08062 -5.14993 0
M  V30 6348 H 620.937 -3.09062 -3.73642 0
M  V30 6349 N 622.28 1.30327 -0.886154 0
M  V30 6350 C 623.19 2.31854 -0.357866 0
M  V30 6351 C 624.206 1.65392 0.540502 0
M  V30 6352 O 625.382 1.96683 0.433339 0
M  V30 6353 C 622.447 3.44171 0.417999 0
M  V30 6354 C 621.508 4.26257 -0.510263 0
M  V30 6355 C 620.741 5.3321 0.228669 0
M  V30 6356 O 620.964 5.51542 1.45458 0
M  V30 6357 O 619.898 6.0042 -0.421832 0
M  V30 6358 H 623.724 2.78995 -1.19982 0
M  V30 6359 H 621.309 1.34518 -0.650028 0
M  V30 6360 H 623.191 4.12588 0.857251 0
M  V30 6361 H 621.866 2.99164 1.23623 0
M  V30 6362 H 620.773 3.60533 -0.99835 0
M  V30 6363 H 622.106 4.74871 -1.29454 0
M  V30 6364 N 623.758 0.647228 1.43697 0
M  V30 6365 C 625.006 0.157876 2.01482 0
M  V30 6366 C 625.327 -1.23039 1.51282 0
M  V30 6367 O 624.597 -1.82071 0.722982 0
M  V30 6368 H 623.177 0.0553745 0.744945 0
M  V30 6369 H 625.839 0.83755 1.75986 0
M  V30 6370 H 624.935 0.137895 3.11795 0
M  V30 6371 N 625.236 -1.5273 0.388769 0
M  V30 6372 C 626.146 -2.30165 -0.453993 0
M  V30 6373 C 627.162 -1.37058 -1.07197 0
M  V30 6374 O 628.338 -1.70127 -1.0779 0
M  V30 6375 C 625.403 -3.09303 -1.56628 0
M  V30 6376 C 624.464 -4.18117 -0.973467 0
M  V30 6377 C 623.697 -4.93472 -2.03275 0
M  V30 6378 O 623.92 -4.68913 -3.24772 0
M  V30 6379 O 622.854 -5.78833 -1.65034 0
M  V30 6380 H 626.68 -3.03185 0.176816 0
M  V30 6381 H 624.265 -1.4862 0.152501 0
M  V30 6382 H 626.147 -3.58648 -2.21246 0
M  V30 6383 H 624.822 -2.39098 -2.18206 0
M  V30 6384 H 623.729 -3.7297 -0.290556 0
M  V30 6385 H 625.062 -4.90556 -0.401908 0
M  V30 6386 N 626.714 -0.118576 -1.57153 0
M  V30 6387 C 627.991 0.583062 -1.86708 0
M  V30 6388 C 628.371 1.84841 -1.01967 0
M  V30 6389 O 627.719 2.28288 -0.0984673 0
M  V30 6390 C 627.929 0.875912 -3.3783 0
M  V30 6391 C 629.277 1.22916 -4.0642 0
M  V30 6392 O 630.301 0.966188 -3.42846 0
M  V30 6393 O 629.16 1.72269 -5.18638 0
M  V30 6394 H 626.254 0.294185 -0.772906 0
M  V30 6395 H 628.8 -0.153048 -1.69008 0
M  V30 6396 H 627.572 -0.0207776 -3.91294 0
M  V30 6397 H 627.195 1.66719 -3.60958 0
M  V30 6398 N 628.193 1.56834 0.155195 0
M  V30 6399 C 629.156 1.96748 1.17571 0
M  V30 6400 C 630.156 0.853006 1.3631 0
M  V30 6401 O 631.346 1.11978 1.33441 0
M  V30 6402 C 628.478 2.27631 2.53765 0
M  V30 6403 H 629.671 2.88085 0.833498 0
M  V30 6404 H 627.224 1.51141 0.398242 0
M  V30 6405 H 627.959 1.39059 2.92973 0
M  V30 6406 H 627.744 3.0888 2.41527 0
M  V30 6407 H 629.234 2.59377 3.27282 0
M  V30 6408 N 629.671 -0.424282 1.51781 0
M  V30 6409 C 630.621 -1.51464 1.70419 0
M  V30 6410 C 631.605 -1.50911 0.558094 0
M  V30 6411 O 632.797 -1.57143 0.814552 0
M  V30 6412 C 629.926 -2.89539 1.84451 0
M  V30 6413 C 629.012 -2.94798 3.04886 0
M  V30 6414 N 629.403 -2.69778 4.27848 0
M  V30 6415 C 627.701 -3.25962 3.04408 0
M  V30 6416 C 628.402 -2.81216 5.09208 0
M  V30 6417 N 627.378 -3.13447 4.44131 0
M  V30 6418 H 631.18 -1.30892 2.63144 0
M  V30 6419 H 628.694 -0.631783 1.49607 0
M  V30 6420 H 630.691 -3.67998 1.95917 0
M  V30 6421 H 629.351 -3.11121 0.929168 0
M  V30 6422 H 630.362 -2.44458 4.56575 0
M  V30 6423 H 627.039 -3.53236 2.22555 0
M  V30 6424 H 628.429 -2.65715 6.17127 0
M  V30 6425 N 631.149 -1.42148 -0.680565 0
M  V30 6426 C 632.079 -1.4796 -1.80638 0
M  V30 6427 C 633.06 -0.336728 -1.66734 0
M  V30 6428 O 634.245 -0.550247 -1.86242 0
M  V30 6429 C 631.375 -1.37569 -3.18892 0
M  V30 6430 C 630.329 -2.49823 -3.47524 0
M  V30 6431 C 629.655 -2.24491 -4.85291 0
M  V30 6432 C 630.955 -3.92144 -3.44994 0
M  V30 6433 H 632.649 -2.42184 -1.76032 0
M  V30 6434 H 630.195 -1.16566 -0.845481 0
M  V30 6435 H 632.148 -1.40243 -3.97379 0
M  V30 6436 H 630.872 -0.398357 -3.24162 0
M  V30 6437 H 629.531 -2.46455 -2.71395 0
M  V30 6438 H 629.179 -1.25066 -4.87204 0
M  V30 6439 H 628.879 -2.99722 -5.05411 0
M  V30 6440 H 630.403 -2.28906 -5.66069 0
M  V30 6441 H 631.817 -3.97145 -4.13459 0
M  V30 6442 H 630.214 -4.67179 -3.76648 0
M  V30 6443 H 631.284 -4.19225 -2.43676 0
M  V30 6444 N 632.627 0.916307 -1.28225 0
M  V30 6445 C 633.852 1.7043 -1.18188 0
M  V30 6446 C 634.277 1.86346 0.256274 0
M  V30 6447 O 633.635 1.37175 1.18544 0
M  V30 6448 C 633.683 3.07546 -1.88275 0
M  V30 6449 O 632.787 3.94904 -1.18848 0
M  V30 6450 H 632.128 0.521967 -0.410423 0
M  V30 6451 H 634.658 1.14589 -1.69501 0
M  V30 6452 H 634.668 3.57793 -1.96082 0
M  V30 6453 H 633.343 2.95279 -2.92887 0
M  V30 6454 H 631.92 3.53339 -1.19187 0
M  V30 6455 N 634.105 1.10431 1.1244 0
M  V30 6456 C 635.33 0.869089 1.88313 0
M  V30 6457 C 635.755 -0.574912 1.79099 0
M  V30 6458 O 635.113 -1.40496 1.14589 0
M  V30 6459 C 635.161 1.32208 3.3549 0
M  V30 6460 O 634.265 0.487092 4.09513 0
M  V30 6461 H 633.606 0.313894 0.585121 0
M  V30 6462 H 636.136 1.47111 1.42195 0
M  V30 6463 H 636.146 1.31201 3.86329 0
M  V30 6464 H 634.821 2.37364 3.41513 0
M  V30 6465 H 633.398 0.562372 3.68635 0
M  V30 6466 N 635.583 -1.29855 0.893053 0
M  V30 6467 C 636.515 -2.26911 0.32311 0
M  V30 6468 C 637.528 -1.54039 -0.526858 0
M  V30 6469 O 638.717 -1.75132 -0.345095 0
M  V30 6470 C 635.817 -3.34266 -0.558509 0
M  V30 6471 C 634.99 -4.36601 0.264222 0
M  V30 6472 C 634.049 -5.23326 -0.549171 0
M  V30 6473 O 633.075 -5.69192 0.0309883 0
M  V30 6474 N 634.277 -5.50008 -1.85664 0
M  V30 6475 H 637.042 -2.76455 1.15726 0
M  V30 6476 H 634.603 -1.4312 0.756859 0
M  V30 6477 H 636.595 -3.89211 -1.1089 0
M  V30 6478 H 635.165 -2.8459 -1.29334 0
M  V30 6479 H 634.385 -3.81409 0.996046 0
M  V30 6480 H 635.673 -5.02019 0.827906 0
M  V30 6481 H 635.071 -5.14542 -2.35081 0
M  V30 6482 H 633.628 -6.07796 -2.35431 0
M  V30 6483 N 637.061 -0.65484 -1.43351 0
M  V30 6484 C 637.993 0.0744757 -2.29079 0
M  V30 6485 C 639.006 0.7855 -1.42596 0
M  V30 6486 O 640.195 0.642986 -1.66517 0
M  V30 6487 C 637.295 1.12859 -3.19556 0
M  V30 6488 C 636.468 0.495381 -4.34586 0
M  V30 6489 C 635.527 1.44659 -5.05925 0
M  V30 6490 O 634.553 0.954567 -5.61139 0
M  V30 6491 N 635.755 2.78051 -5.09576 0
M  V30 6492 H 638.52 -0.661346 -2.92312 0
M  V30 6493 H 636.081 -0.497744 -1.54059 0
M  V30 6494 H 638.073 1.76577 -3.64147 0
M  V30 6495 H 636.643 1.76636 -2.57912 0
M  V30 6496 H 635.863 -0.32092 -3.92892 0
M  V30 6497 H 637.151 0.0534203 -5.08772 0
M  V30 6498 H 636.549 3.20584 -4.66093 0
M  V30 6499 H 635.106 3.37068 -5.57878 0
M  V30 6500 N 638.539 1.52521 -0.396863 0
M  V30 6501 C 639.502 2.2527 0.422604 0
M  V30 6502 C 640.502 1.27184 0.983913 0
M  V30 6503 O 641.692 1.51222 0.864723 0
M  V30 6504 C 638.824 3.01356 1.59365 0
M  V30 6505 H 640.017 2.99133 -0.214416 0
M  V30 6506 H 637.57 1.55587 -0.149128 0
M  V30 6507 H 638.305 2.31813 2.26789 0
M  V30 6508 H 638.09 3.73357 1.19779 0
M  V30 6509 H 639.58 3.56571 2.17363 0
M  V30 6510 N 640.017 0.126909 1.57088 0
M  V30 6511 C 641.242 -0.53997 2.00248 0
M  V30 6512 C 641.667 -1.58927 1.00618 0
M  V30 6513 O 641.025 -1.81288 -0.0210131 0
M  V30 6514 C 641.073 -1.13565 3.4225 0
M  V30 6515 O 640.177 -2.25103 3.45547 0
M  V30 6516 H 639.518 -0.13412 0.650314 0
M  V30 6517 H 642.048 0.217718 2.03438 0
M  V30 6518 H 642.058 -1.46925 3.80627 0
M  V30 6519 H 640.733 -0.367122 4.14277 0
M  V30 6520 H 639.31 -1.93123 3.18995 0
M  V30 6521 N 641.495 -1.56914 -0.146875 0
M  V30 6522 C 642.743 -1.82994 -0.85777 0
M  V30 6523 C 643.064 -0.707814 -1.817 0
M  V30 6524 O 642.334 0.270521 -1.94023 0
M  V30 6525 H 640.914 -0.675106 -0.319751 0
M  V30 6526 H 643.576 -1.9439 -0.140849 0
M  V30 6527 H 642.672 -2.77928 -1.41994 0
M  V30 6528 N 642.974 0.416227 -1.52004 0
M  V30 6529 C 643.906 1.52552 -1.71058 0
M  V30 6530 C 644.919 1.51693 -0.59102 0
M  V30 6531 O 646.108 1.56087 -0.865973 0
M  V30 6532 C 643.208 2.91455 -1.72937 0
M  V30 6533 C 642.381 3.16584 -3.01816 0
M  V30 6534 C 641.44 4.35322 -2.95603 0
M  V30 6535 O 640.466 4.32947 -3.6952 0
M  V30 6536 N 641.668 5.40049 -2.12903 0
M  V30 6537 H 644.433 1.36604 -2.66757 0
M  V30 6538 H 641.994 0.60544 -1.50153 0
M  V30 6539 H 643.986 3.68944 -1.66321 0
M  V30 6540 H 642.556 3.00895 -0.847418 0
M  V30 6541 H 641.776 2.27203 -3.22137 0
M  V30 6542 H 643.064 3.30213 -3.87088 0
M  V30 6543 H 642.462 5.44823 -1.52265 0
M  V30 6544 H 641.019 6.16308 -2.1215 0
M  V30 6545 N 644.452 1.42507 0.673017 0
M  V30 6546 C 645.677 1.4668 1.46627 0
M  V30 6547 C 646.102 0.080066 1.8793 0
M  V30 6548 O 645.46 -0.921879 1.56112 0
M  V30 6549 C 645.508 2.40091 2.69051 0
M  V30 6550 O 644.612 1.8735 3.67387 0
M  V30 6551 H 643.953 0.496908 0.44043 0
M  V30 6552 H 646.483 1.87215 0.825334 0
M  V30 6553 H 646.493 2.56731 3.17101 0
M  V30 6554 H 645.168 3.4084 2.3833 0
M  V30 6555 H 643.745 1.80274 3.26429 0
M  V30 6556 N 645.93 -0.909495 1.28709 0
M  V30 6557 C 647.16 -1.69027 1.188 0
M  V30 6558 C 647.568 -1.87469 -0.255329 0
M  V30 6559 O 646.911 -1.40458 -1.18394 0
M  V30 6560 C 646.973 -3.10064 1.81936 0
M  V30 6561 C 646.637 -3.14891 3.31199 0
M  V30 6562 C 647.634 -2.95768 4.27571 0
M  V30 6563 C 645.319 -3.37269 3.7223 0
M  V30 6564 C 647.313 -2.98942 5.6295 0
M  V30 6565 C 645 -3.40074 5.07733 0
M  V30 6566 C 645.998 -3.20932 6.02903 0
M  V30 6567 O 645.686 -3.23507 7.35934 0
M  V30 6568 H 645.418 -0.535014 0.413203 0
M  V30 6569 H 647.972 -1.14645 1.70428 0
M  V30 6570 H 646.202 -3.66005 1.24808 0
M  V30 6571 H 647.891 -3.70185 1.66486 0
M  V30 6572 H 648.657 -2.78302 3.97206 0
M  V30 6573 H 644.536 -3.51212 2.98615 0
M  V30 6574 H 648.08 -2.83919 6.37209 0
M  V30 6575 H 643.977 -3.5707 5.37747 0
M  V30 6576 H 644.745 -3.3984 7.44615 0
M  V30 6577 N 647.408 -1.11026 -1.11852 0
M  V30 6578 C 648.633 -0.879064 -1.87849 0
M  V30 6579 C 649.058 0.565406 -1.79401 0
M  V30 6580 O 648.416 1.39886 -1.15333 0
M  V30 6581 C 648.464 -1.33985 -3.34784 0
M  V30 6582 O 647.568 -0.508803 -4.09249 0
M  V30 6583 H 646.909 -0.316992 -0.583448 0
M  V30 6584 H 649.439 -1.47863 -1.41413 0
M  V30 6585 H 649.449 -1.33248 -3.85628 0
M  V30 6586 H 648.124 -2.39172 -3.40249 0
M  V30 6587 H 646.701 -0.581913 -3.68332 0
M  V30 6588 N 648.886 1.2938 -0.899927 0
M  V30 6589 C 650.111 2.00228 -0.540692 0
M  V30 6590 C 650.536 1.66909 0.867359 0
M  V30 6591 O 649.894 0.893824 1.57735 0
M  V30 6592 C 649.942 3.52921 -0.740232 0
M  V30 6593 O 649.046 4.11879 0.207154 0
M  V30 6594 H 648.387 0.629505 -0.211233 0
M  V30 6595 H 650.917 1.6487 -1.21158 0
M  V30 6596 H 650.927 4.0287 -0.644973 0
M  V30 6597 H 649.602 3.76508 -1.76677 0
M  V30 6598 H 648.179 3.72845 0.0643315 0
M  V30 6599 N 650.364 0.662433 1.43002 0
M  V30 6600 C 651.78 0.330835 1.56133 0
M  V30 6601 C 651.98 -1.16454 1.64441 0
M  V30 6602 O 651.036 -1.94964 1.60453 0
M  V30 6603 C 652.349 1.05029 2.81761 0
M  V30 6604 C 653.897 1.03142 2.95518 0
M  V30 6605 C 654.372 1.73196 4.2399 0
M  V30 6606 N 655.863 1.70004 4.30875 0
M  V30 6607 C 656.598 2.21074 5.29069 0
M  V30 6608 N 656.094 2.80473 6.33488 0
M  V30 6609 N 657.887 2.1152 5.20784 0
M  V30 6610 H 650.038 1.63272 1.35853 0
M  V30 6611 H 652.301 0.687149 0.653092 0
M  V30 6612 H 652.007 2.10542 2.81718 0
M  V30 6613 H 651.881 0.607664 3.72273 0
M  V30 6614 H 654.268 -0.0153339 2.95096 0
M  V30 6615 H 654.349 1.51282 2.0627 0
M  V30 6616 H 653.993 2.77833 4.25172 0
M  V30 6617 H 653.923 1.22515 5.1215 0
M  V30 6618 H 656.414 1.26667 3.56039 0
M  V30 6619 H 656.727 3.17094 7.04749 0
M  V30 6620 H 655.072 2.84538 6.34085 0
M  V30 6621 H 658.263 1.64814 4.38126 0
M  V30 6622 H 658.436 2.51629 5.97149 0
M  V30 6623 N 651.842 -1.52309 0.404946 0
M  V30 6624 C 652.752 -2.30634 -0.429555 0
M  V30 6625 C 653.768 -1.38187 -1.05737 0
M  V30 6626 O 654.944 -1.71261 -1.05979 0
M  V30 6627 C 652.009 -3.10947 -1.53339 0
M  V30 6628 C 651.07 -4.19126 -0.929065 0
M  V30 6629 C 650.303 -4.95601 -1.9803 0
M  V30 6630 O 650.526 -4.72331 -3.1978 0
M  V30 6631 O 649.46 -5.80551 -1.58886 0
M  V30 6632 H 653.286 -3.0298 0.208963 0
M  V30 6633 H 650.871 -1.4845 0.168255 0
M  V30 6634 H 652.753 -3.60974 -2.1743 0
M  V30 6635 H 651.428 -2.41399 -2.15658 0
M  V30 6636 H 650.335 -3.73257 -0.250982 0
M  V30 6637 H 651.668 -4.90955 -0.349855 0
M  V30 6638 N 653.32 -0.135238 -1.57019 0
M  V30 6639 C 654.566 0.519563 -1.96032 0
M  V30 6640 C 654.899 1.65284 -1.01955 0
M  V30 6641 O 654.174 1.94408 -0.059727 0
M  V30 6642 C 654.457 1.0369 -3.44848 0
M  V30 6643 C 654.31 -0.0940754 -4.49702 0
M  V30 6644 C 655.629 1.92254 -3.95887 0
M  V30 6645 H 652.748 0.18739 -0.712779 0
M  V30 6646 H 655.39 -0.214086 -1.8879 0
M  V30 6647 H 653.54 1.66209 -3.5115 0
M  V30 6648 H 655.212 -0.73 -4.55487 0
M  V30 6649 H 653.455 -0.754924 -4.27181 0
M  V30 6650 H 654.126 0.309419 -5.51132 0
M  V30 6651 H 656.602 1.39581 -3.9199 0
M  V30 6652 H 655.478 2.25364 -5.00502 0
M  V30 6653 H 655.739 2.85513 -3.37543 0
M  V30 6654 N 654.798 1.5699 0.138552 0
M  V30 6655 C 656.045 1.83809 0.849732 0
M  V30 6656 C 656.373 0.717409 1.80786 0
M  V30 6657 O 655.628 -0.292897 1.93496 0
M  V30 6658 C 655.927 3.17007 1.65049 0
M  V30 6659 C 655.593 4.43037 0.838398 0
M  V30 6660 C 654.255 4.77262 0.614385 0
M  V30 6661 C 656.607 5.20495 0.271044 0
M  V30 6662 C 653.935 5.864 -0.187552 0
M  V30 6663 C 656.287 6.30476 -0.517979 0
M  V30 6664 C 654.951 6.63245 -0.75249 0
M  V30 6665 H 654.221 0.672605 0.310939 0
M  V30 6666 H 656.868 1.91166 0.112971 0
M  V30 6667 H 655.173 3.05138 2.4576 0
M  V30 6668 H 656.87 3.34975 2.20437 0
M  V30 6669 H 653.46 4.16211 1.02307 0
M  V30 6670 H 657.644 4.94422 0.431371 0
M  V30 6671 H 652.9 6.10226 -0.378659 0
M  V30 6672 H 657.074 6.89686 -0.964694 0
M  V30 6673 H 654.701 7.47648 -1.37573 0
M  V30 6674 N 656.276 -0.40816 1.52223 0
M  V30 6675 C 657.504 -1.17672 1.70179 0
M  V30 6676 C 657.919 -1.84257 0.411696 0
M  V30 6677 O 657.276 -1.7192 -0.612354 0
M  V30 6678 C 657.327 -2.23911 2.83806 0
M  V30 6679 O 657.048 -1.60044 4.0782 0
M  V30 6680 C 658.549 -3.1364 3.13281 0
M  V30 6681 H 655.769 -0.353562 0.570293 0
M  V30 6682 H 658.313 -0.480083 1.98785 0
M  V30 6683 H 656.468 -2.89242 2.57717 0
M  V30 6684 H 656.882 -2.30484 4.71145 0
M  V30 6685 H 658.356 -3.84255 3.96298 0
M  V30 6686 H 658.833 -3.76066 2.26872 0
M  V30 6687 H 659.439 -2.53977 3.41139 0
M  V30 6688 N 657.755 -1.42862 -0.66545 0
M  V30 6689 C 658.98 -1.47456 -1.45848 0
M  V30 6690 C 659.405 -0.0900312 -1.87884 0
M  V30 6691 O 658.763 0.913587 -1.56599 0
M  V30 6692 C 658.811 -2.41514 -2.67774 0
M  V30 6693 O 657.915 -1.89296 -3.66389 0
M  V30 6694 H 657.256 -0.499236 -0.437789 0
M  V30 6695 H 659.786 -1.8765 -0.815394 0
M  V30 6696 H 659.796 -2.58409 -3.15735 0
M  V30 6697 H 658.471 -3.42099 -2.36519 0
M  V30 6698 H 657.048 -1.82003 -3.25468 0
M  V30 6699 N 659.233 0.902656 -1.29189 0
M  V30 6700 C 660.458 1.69167 -1.19989 0
M  V30 6701 C 660.883 1.86607 0.236495 0
M  V30 6702 O 660.241 1.38425 1.17082 0
M  V30 6703 C 660.289 3.05532 -1.91527 0
M  V30 6704 O 659.393 3.93621 -1.2303 0
M  V30 6705 H 658.734 0.517584 -0.415936 0
M  V30 6706 H 661.264 1.12785 -1.70706 0
M  V30 6707 H 661.274 3.55693 -1.99866 0
M  V30 6708 H 659.949 2.92156 -2.96003 0
M  V30 6709 H 658.526 3.52055 -1.22928 0
M  V30 6710 N 660.711 1.11618 1.11262 0
M  V30 6711 C 661.936 0.889013 1.8738 0
M  V30 6712 C 662.361 -0.555884 1.79698 0
M  V30 6713 O 661.719 -1.39272 1.16073 0
M  V30 6714 C 661.767 1.35759 3.34069 0
M  V30 6715 O 660.871 0.530499 4.08974 0
M  V30 6716 H 660.212 0.320082 0.581759 0
M  V30 6717 H 662.742 1.48611 1.40627 0
M  V30 6718 H 662.752 1.35291 3.84916 0
M  V30 6719 H 661.427 2.40973 3.38976 0
M  V30 6720 H 660.004 0.601439 3.68018 0
M  V30 6721 N 662.189 -1.289 0.906776 0
M  V30 6722 C 663.414 -1.99939 0.551303 0
M  V30 6723 C 663.839 -1.67366 -0.858496 0
M  V30 6724 O 663.197 -0.902176 -1.57259 0
M  V30 6725 C 663.245 -3.52523 0.758937 0
M  V30 6726 O 662.349 -4.11983 -0.185308 0
M  V30 6727 H 661.69 -0.628376 0.214568 0
M  V30 6728 H 664.22 -1.64225 1.2203 0
M  V30 6729 H 664.23 -4.02522 0.666329 0
M  V30 6730 H 662.905 -3.75566 1.78671 0
M  V30 6731 H 661.482 -3.72873 -0.0445577 0
M  V30 6732 N 663.667 -0.670007 -1.42649 0
M  V30 6733 C 664.892 -0.196955 -2.06463 0
M  V30 6734 C 665.317 1.1352 -1.49983 0
M  V30 6735 O 664.675 1.705 -0.616397 0
M  V30 6736 C 664.723 -0.137381 -3.60338 0
M  V30 6737 O 663.827 0.895523 -4.02559 0
M  V30 6738 H 663.168 -0.102579 -0.656029 0
M  V30 6739 H 665.698 -0.917669 -1.82866 0
M  V30 6740 H 665.708 0.0403625 -4.0798 0
M  V30 6741 H 664.383 -1.10977 -4.0082 0
M  V30 6742 H 662.96 0.689209 -3.66476 0
M  V30 6743 N 665.145 1.52092 -0.413018 0
M  V30 6744 C 666.37 2.06756 0.163338 0
M  V30 6745 C 666.795 1.28073 1.37764 0
M  V30 6746 O 666.153 0.312015 1.78595 0
M  V30 6747 C 666.201 3.57278 0.488322 0
M  V30 6748 O 665.305 3.80986 1.57871 0
M  V30 6749 H 664.646 0.663882 0.0125068 0
M  V30 6750 H 667.176 1.95988 -0.587339 0
M  V30 6751 H 667.186 4.01125 0.745836 0
M  V30 6752 H 665.861 4.13978 -0.399327 0
M  V30 6753 H 664.438 3.49017 1.31306 0
M  V30 6754 N 666.623 0.143563 1.56945 0
M  V30 6755 C 667.848 -0.518701 2.00809 0
M  V30 6756 C 668.273 -1.5785 1.02298 0
M  V30 6757 O 667.631 -1.813 -0.0017839 0
M  V30 6758 C 667.679 -1.09929 3.43436 0
M  V30 6759 O 666.783 -2.21425 3.47915 0
M  V30 6760 H 666.124 -0.127215 0.6517 0
M  V30 6761 H 668.654 0.239283 2.03196 0
M  V30 6762 H 668.664 -1.4288 3.82164 0
M  V30 6763 H 667.339 -0.323162 4.14643 0
M  V30 6764 H 665.916 -1.89728 3.21026 0
M  V30 6765 N 668.101 -1.57061 -0.130224 0
M  V30 6766 C 669.517 -1.52103 -0.483413 0
M  V30 6767 C 669.717 -0.854752 -1.82473 0
M  V30 6768 O 668.773 -0.432342 -2.48771 0
M  V30 6769 C 670.086 -2.96872 -0.47825 0
M  V30 6770 C 671.634 -3.07902 -0.562592 0
M  V30 6771 C 672.109 -4.54211 -0.587929 0
M  V30 6772 N 673.6 -4.58621 -0.649684 0
M  V30 6773 C 674.335 -5.69227 -0.690551 0
M  V30 6774 N 673.831 -6.89358 -0.689743 0
M  V30 6775 N 675.624 -5.57304 -0.732708 0
M  V30 6776 H 667.775 -1.98764 0.748779 0
M  V30 6777 H 670.038 -0.907248 0.274965 0
M  V30 6778 H 669.744 -3.48944 0.439444 0
M  V30 6779 H 669.618 -3.53716 -1.31013 0
M  V30 6780 H 672.005 -2.5584 -1.47071 0
M  V30 6781 H 672.086 -2.54073 0.296764 0
M  V30 6782 H 671.73 -5.06915 0.316096 0
M  V30 6783 H 671.66 -5.0584 -1.46401 0
M  V30 6784 H 674.151 -3.72146 -0.656927 0
M  V30 6785 H 674.464 -7.69408 -0.723239 0
M  V30 6786 H 672.809 -6.91884 -0.657347 0
M  V30 6787 H 676 -4.62363 -0.730625 0
M  V30 6788 H 676.173 -6.43515 -0.76109 0
M  V30 6789 N 669.579 0.400081 -1.52437 0
M  V30 6790 C 670.511 1.50729 -1.72666 0
M  V30 6791 C 671.524 1.51058 -0.607075 0
M  V30 6792 O 672.713 1.5516 -0.88248 0
M  V30 6793 C 669.813 2.89604 -1.76019 0
M  V30 6794 C 668.986 3.13365 -3.05157 0
M  V30 6795 C 668.045 4.32163 -3.00203 0
M  V30 6796 O 667.071 4.29004 -3.74092 0
M  V30 6797 N 668.273 5.3776 -2.18619 0
M  V30 6798 H 671.038 1.33767 -2.68191 0
M  V30 6799 H 668.599 0.58948 -1.50787 0
M  V30 6800 H 670.591 3.67159 -1.70225 0
M  V30 6801 H 669.161 2.99979 -0.879284 0
M  V30 6802 H 668.381 2.23774 -3.24529 0
M  V30 6803 H 669.669 3.26089 -3.90568 0
M  V30 6804 H 669.067 5.43177 -1.58035 0
M  V30 6805 H 667.624 6.14023 -2.18674 0
M  V30 6806 N 671.057 1.43213 0.657864 0
M  V30 6807 C 672.285 1.48015 1.44566 0
M  V30 6808 C 672.7 0.0965951 1.88553 0
M  V30 6809 O 672.057 -0.892221 1.59203 0
M  V30 6810 C 672.108 2.42199 2.68369 0
M  V30 6811 O 671.829 3.75173 2.26223 0
M  V30 6812 C 673.33 2.56195 3.61772 0
M  V30 6813 H 670.55 0.502861 0.444266 0
M  V30 6814 H 673.094 1.87907 0.806917 0
M  V30 6815 H 671.249 2.05514 3.28394 0
M  V30 6816 H 671.663 4.25776 3.06293 0
M  V30 6817 H 673.137 3.26182 4.4532 0
M  V30 6818 H 673.614 1.60534 4.0881 0
M  V30 6819 H 674.22 2.93671 3.07632 0
M  V30 6820 N 672.536 -0.895792 1.29666 0
M  V30 6821 C 673.952 -1.17726 1.07763 0
M  V30 6822 C 674.152 -2.00794 -0.168576 0
M  V30 6823 O 673.208 -2.37213 -0.865244 0
M  V30 6824 C 674.521 -1.89441 2.33522 0
M  V30 6825 C 676.069 -2.02251 2.3888 0
M  V30 6826 C 676.544 -2.77378 3.64452 0
M  V30 6827 N 678.035 -2.8493 3.65198 0
M  V30 6828 C 678.77 -3.43606 4.59045 0
M  V30 6829 N 678.266 -4.03417 5.63228 0
M  V30 6830 N 680.059 -3.41317 4.46608 0
M  V30 6831 H 672.21 -0.341652 2.09634 0
M  V30 6832 H 674.473 -0.213865 0.923561 0
M  V30 6833 H 674.179 -1.35842 3.24407 0
M  V30 6834 H 674.053 -2.89893 2.41334 0
M  V30 6835 H 676.44 -2.55025 1.4848 0
M  V30 6836 H 676.521 -1.0092 2.3505 0
M  V30 6837 H 676.165 -2.25279 4.55205 0
M  V30 6838 H 676.095 -3.79062 3.65541 0
M  V30 6839 H 678.586 -2.42453 2.89871 0
M  V30 6840 H 678.899 -4.46224 6.30955 0
M  V30 6841 H 677.244 -4.01868 5.67033 0
M  V30 6842 H 680.435 -2.93812 3.64407 0
M  V30 6843 H 680.608 -3.86751 5.1993 0
M  V30 6844 N 674.014 -1.12206 -1.10668 0
M  V30 6845 C 675.425 -0.890657 -1.64086 0
M  V30 6846 C 675.776 0.575502 -1.8757 0
M  V30 6847 O 674.901 1.4394 -1.61587 0
M  V30 6848 C 675.496 -1.61029 -2.98085 0
M  V30 6849 C 674.055 -1.4251 -3.48379 0
M  V30 6850 C 673.202 -1.64778 -2.23033 0
M  V30 6851 H 676.153 -1.27718 -0.94201 0
M  V30 6852 H 676.174 -1.05993 -3.65439 0
M  V30 6853 H 675.686 -2.67735 -2.80962 0
M  V30 6854 H 673.787 -0.380497 -3.70652 0
M  V30 6855 H 673.9 -2.17959 -4.26651 0
M  V30 6856 H 672.264 -1.07171 -2.31055 0
M  V30 6857 H 673.047 -2.72776 -2.08443 0
M  V30 6858 N 675.492 1.28418 -0.913599 0
M  V30 6859 C 676.741 1.94265 -0.542572 0
M  V30 6860 C 677.054 1.72709 0.918207 0
M  V30 6861 O 678.26 2.32778 1.39738 0
M  V30 6862 C 676.716 3.47956 -0.919507 0
M  V30 6863 C 676.324 3.78291 -2.4 0
M  V30 6864 C 678.068 4.19962 -0.619057 0
M  V30 6865 C 675.975 5.2529 -2.71707 0
M  V30 6866 H 674.905 0.727213 -0.199192 0
M  V30 6867 H 677.556 1.45931 -1.11249 0
M  V30 6868 H 675.938 3.9502 -0.278372 0
M  V30 6869 H 677.112 3.42035 -3.08786 0
M  V30 6870 H 675.427 3.19456 -2.67089 0
M  V30 6871 H 678.024 5.28178 -0.832623 0
M  V30 6872 H 678.367 4.13935 0.443126 0
M  V30 6873 H 678.9 3.78674 -1.21865 0
M  V30 6874 H 675.639 5.36394 -3.76778 0
M  V30 6875 H 675.159 5.62743 -2.07559 0
M  V30 6876 H 676.838 5.93027 -2.58703 0
M  V30 6877 N 676.97 0.677563 1.42291 0
M  V30 6878 C 677.9 0.014968 2.33495 0
M  V30 6879 C 678.881 -0.786376 1.50831 0
M  V30 6880 O 680.066 -0.742975 1.79426 0
M  V30 6881 C 677.196 -0.935023 3.34477 0
M  V30 6882 C 676.15 -0.242074 4.27315 0
M  V30 6883 C 675.476 -1.30519 5.18526 0
M  V30 6884 C 676.776 0.880604 5.14823 0
M  V30 6885 H 678.47 0.776671 2.89151 0
M  V30 6886 H 676.016 0.37494 1.39033 0
M  V30 6887 H 677.969 -1.40766 3.97194 0
M  V30 6888 H 676.693 -1.72818 2.77131 0
M  V30 6889 H 675.352 0.210351 3.65996 0
M  V30 6890 H 675 -2.09041 4.57505 0
M  V30 6891 H 674.7 -0.846652 5.81468 0
M  V30 6892 H 676.224 -1.7787 5.84119 0
M  V30 6893 H 677.638 0.489062 5.7121 0
M  V30 6894 H 676.035 1.26511 5.86613 0
M  V30 6895 H 677.105 1.72818 4.53059 0
M  V30 6896 N 678.448 -1.51871 0.421078 0
M  V30 6897 C 679.395 -2.27334 -0.398508 0
M  V30 6898 C 680.365 -1.30241 -1.03085 0
M  V30 6899 O 681.55 -1.59121 -1.05285 0
M  V30 6900 C 678.69 -3.10664 -1.50272 0
M  V30 6901 C 677.803 -4.2273 -0.890122 0
M  V30 6902 C 676.938 -4.93399 -1.96803 0
M  V30 6903 C 675.977 -5.97409 -1.333 0
M  V30 6904 N 675.114 -6.61548 -2.35156 0
M  V30 6905 H 679.954 -2.96938 0.251411 0
M  V30 6906 H 677.491 -1.46472 0.135825 0
M  V30 6907 H 679.449 -3.57292 -2.15403 0
M  V30 6908 H 678.079 -2.43207 -2.1225 0
M  V30 6909 H 677.131 -3.80186 -0.127537 0
M  V30 6910 H 678.443 -4.97302 -0.386349 0
M  V30 6911 H 677.597 -5.43491 -2.69633 0
M  V30 6912 H 676.336 -4.18421 -2.50549 0
M  V30 6913 H 675.341 -5.46624 -0.59008 0
M  V30 6914 H 676.566 -6.74335 -0.803076 0
M  V30 6915 H 674.512 -5.89394 -2.88012 0
M  V30 6916 H 674.429 -7.31832 -1.89624 0
M  V30 6917 H 675.697 -7.16276 -3.0752 0
M  V30 6918 N 679.926 -0.151884 -1.56866 0
M  V30 6919 C 680.836 0.798876 -2.20579 0
M  V30 6920 C 681.852 1.268 -1.19154 0
M  V30 6921 O 683.028 1.32418 -1.51748 0
M  V30 6922 C 680.093 2.01861 -2.81874 0
M  V30 6923 C 679.154 1.59825 -3.9844 0
M  V30 6924 C 678.387 2.75984 -4.56802 0
M  V30 6925 O 678.61 3.92331 -4.14044 0
M  V30 6926 O 677.544 2.51175 -5.46987 0
M  V30 6927 H 681.37 0.2865 -3.02346 0
M  V30 6928 H 678.955 0.0753806 -1.4921 0
M  V30 6929 H 680.837 2.73235 -3.20813 0
M  V30 6930 H 679.512 2.52042 -2.03117 0
M  V30 6931 H 678.419 0.854601 -3.64208 0
M  V30 6932 H 679.752 1.14355 -4.78731 0
M  V30 6933 N 681.404 1.57128 0.121893 0
M  V30 6934 C 682.336 1.96773 1.17529 0
M  V30 6935 C 683.349 0.866668 1.37814 0
M  V30 6936 O 684.538 1.14497 1.3694 0
M  V30 6937 C 681.638 2.24832 2.53582 0
M  V30 6938 C 680.811 3.56138 2.53939 0
M  V30 6939 C 679.87 3.72443 3.71716 0
M  V30 6940 O 678.896 4.44584 3.55434 0
M  V30 6941 N 680.098 3.10993 4.90167 0
M  V30 6942 H 682.863 2.87743 0.838086 0
M  V30 6943 H 680.424 1.58881 0.311199 0
M  V30 6944 H 682.416 2.32958 3.30927 0
M  V30 6945 H 680.986 1.40002 2.79496 0
M  V30 6946 H 680.206 3.59226 1.62329 0
M  V30 6947 H 681.494 4.42448 2.51231 0
M  V30 6948 H 680.892 2.52345 5.06299 0
M  V30 6949 H 679.449 3.24644 5.65198 0
M  V30 6950 N 682.882 -0.391992 1.52647 0
M  V30 6951 C 684.107 -1.16312 1.71716 0
M  V30 6952 C 684.532 -1.83042 0.433279 0
M  V30 6953 O 683.89 -1.70705 -0.610707 0
M  V30 6954 C 683.938 -2.18908 2.86551 0
M  V30 6955 O 683.042 -3.2543 2.53316 0
M  V30 6956 H 682.383 -0.338743 0.571095 0
M  V30 6957 H 684.913 -0.457202 1.99426 0
M  V30 6958 H 684.923 -2.62954 3.1196 0
M  V30 6959 H 683.598 -1.69726 3.79692 0
M  V30 6960 H 682.175 -2.86543 2.38637 0
M  V30 6961 N 684.36 -1.4356 -0.65026 0
M  V30 6962 C 685.585 -1.48995 -1.44275 0
M  V30 6963 C 686.01 -0.109954 -1.87778 0
M  V30 6964 O 685.368 0.896926 -1.57559 0
M  V30 6965 C 685.416 -2.44341 -2.65198 0
M  V30 6966 O 684.52 -1.93172 -3.6436 0
M  V30 6967 H 683.861 -0.503852 -0.432469 0
M  V30 6968 H 686.391 -1.88504 -0.795446 0
M  V30 6969 H 686.401 -2.61743 -3.12977 0
M  V30 6970 H 685.076 -3.44588 -2.32877 0
M  V30 6971 H 683.653 -1.85445 -3.23519 0
M  V30 6972 N 685.838 0.888903 -1.30139 0
M  V30 6973 C 687.063 1.67884 -1.21777 0
M  V30 6974 C 687.488 1.86848 0.216689 0
M  V30 6975 O 686.846 1.39659 1.15608 0
M  V30 6976 C 686.894 3.03483 -1.94757 0
M  V30 6977 O 685.998 3.92294 -1.27198 0
M  V30 6978 H 685.339 0.513144 -0.421402 0
M  V30 6979 H 687.869 1.10968 -1.71893 0
M  V30 6980 H 687.879 3.53553 -2.03627 0
M  V30 6981 H 686.554 2.89 -2.99085 0
M  V30 6982 H 685.131 3.50732 -1.26655 0
M  V30 6983 N 687.317 1.12792 1.10072 0
M  V30 6984 C 688.542 0.908838 1.86427 0
M  V30 6985 C 688.967 -0.536793 1.80278 0
M  V30 6986 O 688.325 -1.38033 1.17543 0
M  V30 6987 C 688.373 1.39295 3.3261 0
M  V30 6988 O 687.477 0.573846 4.08388 0
M  V30 6989 H 686.818 0.326234 0.578331 0
M  V30 6990 H 689.348 1.50094 1.39043 0
M  V30 6991 H 689.358 1.39366 3.83459 0
M  V30 6992 H 688.033 2.44555 3.36401 0
M  V30 6993 H 686.61 0.640438 3.67359 0
M  V30 6994 N 688.795 -1.27931 0.920396 0
M  V30 6995 C 690.042 -1.94689 0.557007 0
M  V30 6996 C 690.37 -1.724 -0.900476 0
M  V30 6997 O 689.625 -1.04194 -1.65657 0
M  V30 6998 C 689.924 -3.47853 0.820558 0
M  V30 6999 C 689.59 -3.90252 2.25863 0
M  V30 7000 C 688.252 -4.01539 2.65179 0
M  V30 7001 C 690.604 -4.11853 3.19415 0
M  V30 7002 C 687.932 -4.3181 3.97187 0
M  V30 7003 C 690.284 -4.43606 4.50995 0
M  V30 7004 C 688.948 -4.53105 4.90155 0
M  V30 7005 H 688.218 -0.712416 0.203823 0
M  V30 7006 H 690.865 -1.52142 1.16298 0
M  V30 7007 H 689.17 -3.91578 0.131844 0
M  V30 7008 H 690.867 -3.97634 0.51847 0
M  V30 7009 H 687.457 -3.81999 1.94358 0
M  V30 7010 H 691.641 -4.0258 2.90246 0
M  V30 7011 H 686.897 -4.37371 4.2722 0
M  V30 7012 H 691.071 -4.59268 5.23494 0
M  V30 7013 H 688.698 -4.76315 5.92476 0
M  V30 7014 N 690.273 -0.685099 -1.4193 0
M  V30 7015 C 691.498 -0.218842 -2.06242 0
M  V30 7016 C 691.923 1.11923 -1.51178 0
M  V30 7017 O 691.281 1.69837 -0.634446 0
M  V30 7018 C 691.329 -0.175592 -3.60172 0
M  V30 7019 O 690.433 0.852776 -4.03487 0
M  V30 7020 H 689.774 -0.109531 -0.654904 0
M  V30 7021 H 692.304 -0.937013 -1.81882 0
M  V30 7022 H 692.314 -0.00291151 -4.08 0
M  V30 7023 H 690.989 -1.15222 -3.99621 0
M  V30 7024 H 689.566 0.650301 -3.67186 0
M  V30 7025 N 691.751 1.51645 -0.429126 0
M  V30 7026 C 692.683 2.25279 0.422124 0
M  V30 7027 C 693.696 1.28986 0.993299 0
M  V30 7028 O 694.885 1.54797 0.888836 0
M  V30 7029 C 691.985 2.98666 1.60162 0
M  V30 7030 C 691.158 4.2199 1.15078 0
M  V30 7031 C 690.217 4.78028 2.19946 0
M  V30 7032 O 689.243 5.40084 1.79716 0
M  V30 7033 N 690.445 4.61342 3.5234 0
M  V30 7034 H 693.21 2.98971 -0.208931 0
M  V30 7035 H 690.771 1.59838 -0.257568 0
M  V30 7036 H 692.763 3.33044 2.29922 0
M  V30 7037 H 691.333 2.28036 2.13818 0
M  V30 7038 H 690.553 3.932 0.280552 0
M  V30 7039 H 691.841 5.02037 0.826831 0
M  V30 7040 H 691.239 4.11894 3.87763 0
M  V30 7041 H 689.796 5.00104 4.18019 0
M  V30 7042 N 693.229 0.160201 1.56784 0
M  V30 7043 C 694.477 -0.486625 1.96154 0
M  V30 7044 C 694.798 -1.64525 1.04673 0
M  V30 7045 O 694.068 -1.95586 0.110864 0
M  V30 7046 H 692.648 -0.182764 0.724297 0
M  V30 7047 H 695.31 0.238787 1.93432 0
M  V30 7048 H 694.406 -0.854025 3.00188 0
M  V30 7049 N 694.707 -1.5719 -0.113559 0
M  V30 7050 C 695.639 -1.97393 -1.16484 0
M  V30 7051 C 696.652 -0.873964 -1.37352 0
M  V30 7052 O 697.841 -1.15222 -1.36331 0
M  V30 7053 C 694.941 -2.26174 -2.52386 0
M  V30 7054 C 694.114 -3.57479 -2.52046 0
M  V30 7055 C 693.173 -3.74409 -3.69735 0
M  V30 7056 O 692.199 -4.46463 -3.53071 0
M  V30 7057 N 693.401 -3.13588 -4.88511 0
M  V30 7058 H 696.166 -2.88184 -0.822814 0
M  V30 7059 H 693.727 -1.59044 -0.302769 0
M  V30 7060 H 695.719 -2.3471 -3.29687 0
M  V30 7061 H 694.289 -1.41483 -2.7875 0
M  V30 7062 H 693.509 -3.60081 -1.60421 0
M  V30 7063 H 694.797 -4.43775 -2.48881 0
M  V30 7064 H 694.195 -2.55026 -5.04953 0
M  V30 7065 H 692.752 -3.27637 -5.63469 0
M  V30 7066 N 696.185 0.383891 -1.52853 0
M  V30 7067 C 697.41 1.154 -1.7233 0
M  V30 7068 C 697.835 1.82809 -0.44298 0
M  V30 7069 O 697.193 1.71026 0.601645 0
M  V30 7070 C 697.241 2.17386 -2.87708 0
M  V30 7071 O 696.345 3.24082 -2.55038 0
M  V30 7072 H 695.686 0.335709 -0.572883 0
M  V30 7073 H 698.216 0.44662 -1.99666 0
M  V30 7074 H 698.226 2.61296 -3.1335 0
M  V30 7075 H 696.901 1.6771 -3.80587 0
M  V30 7076 H 695.478 2.85273 -2.40153 0
M  V30 7077 N 697.663 1.43903 0.642637 0
M  V30 7078 C 698.888 1.49758 1.43483 0
M  V30 7079 C 699.313 0.119911 1.87717 0
M  V30 7080 O 698.671 -0.888558 1.58033 0
M  V30 7081 C 698.719 2.45744 2.63898 0
M  V30 7082 O 697.823 1.95101 3.63331 0
M  V30 7083 H 697.164 0.506138 0.429791 0
M  V30 7084 H 699.694 1.88923 0.785438 0
M  V30 7085 H 699.704 2.63399 3.11584 0
M  V30 7086 H 698.379 3.45818 2.31046 0
M  V30 7087 H 696.956 1.87158 3.22531 0
M  V30 7088 O 699.18 -0.78588 1.41089 0
M  V30 7089 H 699.871 -1.43226 1.30407 0
M  V30 END ATOM
M  V30 BEGIN BOND
M  V30 END BOND
M  V30 END CTAB
M  END
$$$$
