drugbank_target|P08729 Keratin, type II cytoskeletal 7 (DB01087; DB04959)
 OpenBabel12092120213D

  0  0  0     0  0            999 V3000
M  V30 BEGIN CTAB
M  V30 COUNTS 7214 7249 0 0 0
M  V30 BEGIN ATOM
M  V30 1 H -0.908 1.98254 -0.117106 0
M  V30 2 N 0 1.576 0 0
M  V30 3 C 0.933 2.03868 1.02534 0
M  V30 4 C 1.911 0.928543 1.3348 0
M  V30 5 O 3.095 1.19667 1.45644 0
M  V30 6 C 0.222 2.43627 2.35294 0
M  V30 7 C -0.732 3.65373 2.2001 0
M  V30 8 S 0.101 5.13292 1.52614 0
M  V30 9 C 1.257 5.56322 2.86805 0
M  V30 10 H 1.49 2.90518 0.631377 0
M  V30 11 H -0.977 1.52953 0.210867 0
M  V30 12 H 0.981 2.67203 3.11629 0
M  V30 13 H -0.358 1.57376 2.7183 0
M  V30 14 H -1.165 3.90944 3.18086 0
M  V30 15 H -1.563 3.418 1.51819 0
M  V30 16 H 0.729 5.58782 3.83104 0
M  V30 17 H 1.672 6.56266 2.65933 0
M  V30 18 H 2.08 4.83886 2.90714 0
M  V30 19 N 1.4781 -0.272755 1.55222 0
M  V30 20 C 2.7031 -1.02683 1.80197 0
M  V30 21 C 3.1281 -1.79142 0.573551 0
M  V30 22 O 2.4861 -1.74917 -0.476849 0
M  V30 23 C 2.5341 -1.9609 3.02624 0
M  V30 24 O 1.6381 -3.04863 2.77727 0
M  V30 25 H 0.9791 -0.293557 0.595584 0
M  V30 26 H 3.5091 -0.30159 2.02365 0
M  V30 27 H 3.5191 -2.38039 3.31363 0
M  V30 28 H 2.1941 -1.39851 3.91682 0
M  V30 29 H 0.7711 -2.67228 2.60084 0
M  V30 30 N 2.9562 -1.48159 -0.537278 0
M  V30 31 C 4.2052 -1.5506 -1.28993 0
M  V30 32 C 4.5182 -0.226211 -1.94288 0
M  V30 33 O 5.7242 -0.173395 -2.70946 0
M  V30 34 C 4.1802 -2.73429 -2.34018 0
M  V30 35 C 3.7882 -4.1248 -1.74825 0
M  V30 36 C 5.5322 -2.89638 -3.10339 0
M  V30 37 C 3.4392 -5.22121 -2.77747 0
M  V30 38 H 2.3692 -0.577231 -0.485098 0
M  V30 39 H 5.0202 -1.74478 -0.568317 0
M  V30 40 H 3.4022 -2.47431 -3.09182 0
M  V30 41 H 4.5762 -4.48466 -1.05899 0
M  V30 42 H 2.8912 -4.01327 -1.11022 0
M  V30 43 H 5.4882 -3.68718 -3.87235 0
M  V30 44 H 5.8312 -1.9882 -3.65754 0
M  V30 45 H 6.3642 -3.15502 -2.42288 0
M  V30 46 H 3.1032 -6.1488 -2.27161 0
M  V30 47 H 2.6232 -4.90631 -3.45024 0
M  V30 48 H 4.3022 -5.49924 -3.4087 0
M  V30 49 N 4.4343 0.785586 -1.36625 0
M  V30 50 C 5.3843 1.88822 -1.27789 0
M  V30 51 C 6.3683 1.60014 -0.168579 0
M  V30 52 O 7.5603 1.72381 -0.401737 0
M  V30 53 C 4.6893 3.26092 -1.07327 0
M  V30 54 C 3.7753 3.60897 -2.22743 0
M  V30 55 N 4.1663 3.66982 -3.48077 0
M  V30 56 C 2.4643 3.90981 -2.14593 0
M  V30 57 C 3.1653 3.98137 -4.24101 0
M  V30 58 N 2.1413 4.13319 -3.53084 0
M  V30 59 H 5.9433 1.91759 -2.22723 0
M  V30 60 H 3.4573 0.981311 -1.29399 0
M  V30 61 H 5.4543 4.04954 -0.990842 0
M  V30 62 H 4.1143 3.24428 -0.132977 0
M  V30 63 H 5.1253 3.49531 -3.82163 0
M  V30 64 H 1.8023 3.9722 -1.2854 0
M  V30 65 H 3.1923 4.09737 -5.32509 0
M  V30 66 N 5.9124 1.20967 1.01018 0
M  V30 67 C 7.1594 1.02374 1.74716 0
M  V30 68 C 7.4874 -0.443375 1.89379 0
M  V30 69 O 6.7424 -1.34535 1.42123 0
M  V30 70 C 7.0414 1.65997 3.16512 0
M  V30 71 C 6.7074 3.15831 3.2181 0
M  V30 72 C 5.3694 3.56719 3.22963 0
M  V30 73 C 7.7214 4.11816 3.19464 0
M  V30 74 C 5.0494 4.92107 3.19449 0
M  V30 75 C 7.4014 5.47158 3.17491 0
M  V30 76 C 6.0654 5.87451 3.16951 0
M  V30 77 H 5.3354 0.374614 0.639332 0
M  V30 78 H 7.9824 1.50485 1.18434 0
M  V30 79 H 6.2874 1.10166 3.75993 0
M  V30 80 H 7.9844 1.49119 3.72242 0
M  V30 81 H 4.5744 2.83263 3.21652 0
M  V30 82 H 8.7584 3.81257 3.17737 0
M  V30 83 H 4.0144 5.22579 3.17366 0
M  V30 84 H 8.1884 6.21274 3.14629 0
M  V30 85 H 5.8154 6.92329 3.13983 0
M  V30 86 N 7.3905 -1.2043 1.01659 0
M  V30 87 C 8.6155 -1.94318 0.724942 0
M  V30 88 C 9.0405 -1.74266 -0.708034 0
M  V30 89 O 8.3985 -1.03694 -1.48719 0
M  V30 90 C 8.4465 -3.44486 1.06591 0
M  V30 91 O 7.5505 -4.12017 0.177599 0
M  V30 92 H 6.8915 -0.60708 0.26898 0
M  V30 93 H 9.4215 -1.52861 1.35995 0
M  V30 94 H 9.4315 -3.95106 1.01762 0
M  V30 95 H 8.1065 -3.58404 2.10997 0
M  V30 96 H 6.6835 -3.71821 0.283421 0
M  V30 97 N 8.8686 -0.792821 -1.36206 0
M  V30 98 C 10.0936 -0.377701 -2.03932 0
M  V30 99 C 10.5186 0.998947 -1.59382 0
M  V30 100 O 9.8766 1.64421 -0.763903 0
M  V30 101 C 9.9246 -0.453635 -3.57735 0
M  V30 102 O 9.0286 0.538151 -4.08874 0
M  V30 103 H 8.3696 -0.159855 -0.644471 0
M  V30 104 H 10.8996 -1.07488 -1.7409 0
M  V30 105 H 10.9096 -0.318464 -4.06755 0
M  V30 106 H 9.5846 -1.45784 -3.89512 0
M  V30 107 H 8.1616 0.364359 -3.71116 0
M  V30 108 N 10.3467 1.47872 -0.545128 0
M  V30 109 C 11.7577 1.86384 -0.108581 0
M  V30 110 C 12.1087 1.45309 1.31832 0
M  V30 111 O 11.2337 0.850641 1.9898 0
M  V30 112 C 11.8287 3.38265 -0.190274 0
M  V30 113 C 10.3877 3.75914 0.191164 0
M  V30 114 C 9.5347 2.71926 -0.543273 0
M  V30 115 H 12.4857 1.39561 -0.755537 0
M  V30 116 H 12.5067 3.75831 0.594217 0
M  V30 117 H 12.0187 3.6813 -1.2289 0
M  V30 118 H 10.1197 3.51665 1.23136 0
M  V30 119 H 10.2327 4.78836 -0.158987 0
M  V30 120 H 8.5967 2.54697 0.0122495 0
M  V30 121 H 9.3797 3.04634 -1.58282 0
M  V30 122 N 11.8248 0.280983 1.55075 0
M  V30 123 C 13.0708 -0.33461 2.00021 0
M  V30 124 C 13.4038 -1.55063 1.16915 0
M  V30 125 O 12.6788 -1.93006 0.240646 0
M  V30 126 C 12.9618 -0.711007 3.53011 0
M  V30 127 C 12.8148 0.512766 4.46868 0
M  V30 128 C 14.1338 -1.54522 4.12081 0
M  V30 129 H 11.2528 -0.120147 0.727141 0
M  V30 130 H 13.8948 0.389097 1.85973 0
M  V30 131 H 12.0448 -1.32761 3.65112 0
M  V30 132 H 13.7168 1.15131 4.46702 0
M  V30 133 H 11.9598 1.14975 4.18286 0
M  V30 134 H 12.6308 0.205556 5.51617 0
M  V30 135 H 15.1068 -1.02442 4.03293 0
M  V30 136 H 13.9828 -1.77739 5.19327 0
M  V30 137 H 14.2438 -2.52813 3.62682 0
M  V30 138 N 13.3029 -1.57598 0.00835791 0
M  V30 139 C 14.5499 -1.90928 -0.674732 0
M  V30 140 C 14.8779 -0.88277 -1.73313 0
M  V30 141 O 14.1329 0.111294 -1.95383 0
M  V30 142 C 14.4319 -3.3101 -1.34787 0
M  V30 143 C 14.0979 -4.48922 -0.421861 0
M  V30 144 C 12.7599 -4.8091 -0.166927 0
M  V30 145 C 15.1119 -5.20755 0.215211 0
M  V30 146 C 12.4399 -5.821 0.733232 0
M  V30 147 C 14.7919 -6.22905 1.1033 0
M  V30 148 C 13.4559 -6.53346 1.36733 0
M  V30 149 H 12.7259 -0.698656 -0.246902 0
M  V30 150 H 15.3729 -1.91387 0.0656779 0
M  V30 151 H 13.6779 -3.26714 -2.16253 0
M  V30 152 H 15.3749 -3.54061 -1.8826 0
M  V30 153 H 11.9649 -4.23934 -0.630729 0
M  V30 154 H 16.1489 -4.9629 0.0312829 0
M  V30 155 H 11.4049 -6.04042 0.945712 0
M  V30 156 H 15.5789 -6.77694 1.60325 0
M  V30 157 H 13.2059 -7.31573 2.06652 0
M  V30 158 N 14.781 0.264519 -1.55364 0
M  V30 159 C 16.009 1.013 -1.80405 0
M  V30 160 C 16.424 1.79618 -0.581622 0
M  V30 161 O 15.781 1.76879 0.449468 0
M  V30 162 C 15.832 1.96487 -3.03439 0
M  V30 163 O 15.553 1.21341 -4.20961 0
M  V30 164 C 17.054 2.83079 -3.41147 0
M  V30 165 H 14.274 0.298875 -0.600762 0
M  V30 166 H 16.818 0.292736 -2.02394 0
M  V30 167 H 14.973 2.63965 -2.83551 0
M  V30 168 H 15.387 1.85573 -4.90574 0
M  V30 169 H 16.861 3.4565 -4.30384 0
M  V30 170 H 17.338 3.53286 -2.60932 0
M  V30 171 H 17.944 2.2108 -3.63323 0
M  V30 172 N 16.2591 1.48442 0.529413 0
M  V30 173 C 17.4841 1.60406 1.31471 0
M  V30 174 C 17.9091 0.264738 1.86228 0
M  V30 175 O 17.2671 -0.763668 1.64432 0
M  V30 176 C 17.3151 2.65419 2.44101 0
M  V30 177 O 16.4191 2.22618 3.47153 0
M  V30 178 H 15.7601 0.537863 0.389357 0
M  V30 179 H 18.2901 1.94432 0.636965 0
M  V30 180 H 18.3001 2.86709 2.90279 0
M  V30 181 H 16.9751 3.62652 2.03608 0
M  V30 182 H 15.5521 2.11543 3.0709 0
M  V30 183 N 17.7372 -0.778329 1.37039 0
M  V30 184 C 19.1532 -1.07796 1.17695 0
M  V30 185 C 19.3532 -2.01498 0.00860115 0
M  V30 186 O 18.4092 -2.43901 -0.653352 0
M  V30 187 C 19.7222 -1.68178 2.49272 0
M  V30 188 C 21.2702 -1.80467 2.55735 0
M  V30 189 C 21.7452 -2.44263 3.87427 0
M  V30 190 N 23.2362 -2.51721 3.88833 0
M  V30 191 C 23.9712 -3.01919 4.87476 0
M  V30 192 N 23.4672 -3.5234 5.96513 0
M  V30 193 N 25.2602 -3.00733 4.74885 0
M  V30 194 H 17.4112 -0.156032 2.11826 0
M  V30 195 H 19.6742 -0.131844 0.938787 0
M  V30 196 H 19.3802 -1.06796 3.35093 0
M  V30 197 H 19.2542 -2.67554 2.65885 0
M  V30 198 H 21.6412 -2.40984 1.70325 0
M  V30 199 H 21.7222 -0.798656 2.43013 0
M  V30 200 H 21.3662 -1.84388 4.73248 0
M  V30 201 H 21.2962 -3.45458 3.9745 0
M  V30 202 H 23.7872 -2.1603 3.10063 0
M  V30 203 H 24.1002 -3.89027 6.67741 0
M  V30 204 H 22.4452 -3.50462 6.00168 0
M  V30 205 H 25.6362 -2.60638 3.88826 0
M  V30 206 H 25.8092 -3.39545 5.51918 0
M  V30 207 N 19.2153 -1.21501 -1.00376 0
M  V30 208 C 20.4403 -1.05977 -1.78279 0
M  V30 209 C 20.8653 0.385994 -1.84097 0
M  V30 210 O 20.2233 1.27849 -1.28547 0
M  V30 211 C 20.2713 -1.66302 -3.19963 0
M  V30 212 O 19.3753 -0.909333 -4.0225 0
M  V30 213 H 18.7163 -0.372906 -0.549397 0
M  V30 214 H 21.2463 -1.6107 -1.26165 0
M  V30 215 H 21.2563 -1.70574 -3.70632 0
M  V30 216 H 19.9313 -2.71515 -3.15043 0
M  V30 217 H 18.5083 -0.941795 -3.60811 0
M  V30 218 N 20.6934 1.19889 -1.02296 0
M  V30 219 C 21.6564 2.21116 -0.603351 0
M  V30 220 C 22.6564 1.5738 0.329884 0
M  V30 221 O 23.8464 1.73802 0.117702 0
M  V30 222 C 20.9784 3.40696 0.117992 0
M  V30 223 H 22.1714 2.59754 -1.49893 0
M  V30 224 H 19.7244 1.33463 -0.813468 0
M  V30 225 H 20.4594 3.07569 1.0282 0
M  V30 226 H 20.2444 3.88188 -0.552511 0
M  V30 227 H 21.7344 4.15692 0.398696 0
M  V30 228 N 22.1715 0.800033 1.35784 0
M  V30 229 C 23.1345 0.211565 2.28221 0
M  V30 230 C 24.1345 -0.59728 1.49296 0
M  V30 231 O 25.3245 -0.416721 1.69142 0
M  V30 232 C 22.4565 -0.705846 3.33513 0
M  V30 233 H 23.6495 1.02677 2.81776 0
M  V30 234 H 21.2025 0.570211 1.45528 0
M  V30 235 H 21.9375 -1.54498 2.85133 0
M  V30 236 H 21.7225 -0.127655 3.91892 0
M  V30 237 H 23.2125 -1.11211 4.02519 0
M  V30 238 N 23.6496 -1.47581 0.552962 0
M  V30 239 C 24.8966 -2.02482 0.0273243 0
M  V30 240 C 25.2246 -1.42776 -1.32081 0
M  V30 241 O 24.4796 -0.571393 -1.87173 0
M  V30 242 C 24.7786 -3.57199 -0.119728 0
M  V30 243 C 24.4446 -4.35804 1.15697 0
M  V30 244 C 23.1066 -4.57 1.50681 0
M  V30 245 C 25.4586 -4.81167 2.00319 0
M  V30 246 C 22.7866 -5.20807 2.70142 0
M  V30 247 C 25.1386 -5.46293 3.18978 0
M  V30 248 C 23.8026 -5.65722 3.54281 0
M  V30 249 H 23.0726 -0.740933 0.00999866 0
M  V30 250 H 25.7196 -1.77302 0.72362 0
M  V30 251 H 24.0246 -3.81348 -0.89896 0
M  V30 252 H 25.7216 -3.97324 -0.541718 0
M  V30 253 H 22.3116 -4.19582 0.874561 0
M  V30 254 H 26.4956 -4.64574 1.74599 0
M  V30 255 H 21.7516 -5.34045 2.97668 0
M  V30 256 H 25.9256 -5.80407 3.84838 0
M  V30 257 H 23.5526 -6.14936 4.46942 0
M  V30 258 N 25.1277 -0.289203 -1.54924 0
M  V30 259 C 26.3527 0.329299 -2.04769 0
M  V30 260 C 26.7777 1.4763 -1.16564 0
M  V30 261 O 26.1357 1.80527 -0.167186 0
M  V30 262 C 26.1837 0.774438 -3.52186 0
M  V30 263 O 25.2877 1.88038 -3.67036 0
M  V30 264 H 24.6287 0.0659259 -0.660719 0
M  V30 265 H 27.1587 -0.42761 -2.00082 0
M  V30 266 H 27.1687 1.06642 -3.93816 0
M  V30 267 H 25.8437 -0.0646707 -4.1585 0
M  V30 268 H 24.4207 1.58985 -3.3731 0
M  V30 269 N 26.6058 1.57591 -0.0167156 0
M  V30 270 C 27.8538 1.90906 0.663285 0
M  V30 271 C 28.1748 0.892509 1.73376 0
M  V30 272 O 27.4448 -0.0677623 1.95783 0
M  V30 273 H 26.0248 0.704637 0.247983 0
M  V30 274 H 28.6868 1.94803 -0.0615909 0
M  V30 275 H 27.7828 2.9116 1.12393 0
M  V30 276 N 28.0839 -0.256276 1.55502 0
M  V30 277 C 29.4999 -0.604325 1.47716 0
M  V30 278 C 29.6999 -1.88763 0.705039 0
M  V30 279 O 28.7559 -2.51445 0.230613 0
M  V30 280 C 30.0689 -0.715756 2.92057 0
M  V30 281 C 31.6169 -0.808706 3.02372 0
M  V30 282 C 32.0919 -0.951777 4.48001 0
M  V30 283 N 33.5829 -1.01688 4.519 0
M  V30 284 C 34.3179 -1.14668 5.61817 0
M  V30 285 N 33.8139 -1.24261 6.81565 0
M  V30 286 N 35.6069 -1.1791 5.49594 0
M  V30 287 H 27.7579 0.586291 2.04148 0
M  V30 288 H 30.0209 0.201015 0.926443 0
M  V30 289 H 29.7269 0.157027 3.51349 0
M  V30 290 H 29.6009 -1.59071 3.42018 0
M  V30 291 H 31.9879 -1.67195 2.43166 0
M  V30 292 H 32.0689 0.0912063 2.55637 0
M  V30 293 H 31.7129 -0.0931291 5.07815 0
M  V30 294 H 31.6429 -1.86659 4.92408 0
M  V30 295 H 34.1339 -0.954468 3.65648 0
M  V30 296 H 34.4469 -1.34046 7.61086 0
M  V30 297 H 32.7919 -1.21236 6.84344 0
M  V30 298 H 35.9829 -1.10057 4.54978 0
M  V30 299 H 36.1559 -1.27681 6.35296 0
M  V30 300 N 29.562 -1.4872 -0.521534 0
M  V30 301 C 30.81 -1.56857 -1.27437 0
M  V30 302 C 31.131 -0.247982 -1.93417 0
M  V30 303 O 30.401 0.731151 -1.81744 0
M  V30 304 H 28.981 -0.577885 -0.473347 0
M  V30 305 H 31.643 -1.85233 -0.606205 0
M  V30 306 H 30.739 -2.35402 -2.0492 0
M  V30 307 N 31.0401 0.771051 -1.3745 0
M  V30 308 C 32.0031 1.86598 -1.33093 0
M  V30 309 C 33.0031 1.59076 -0.234845 0
M  V30 310 O 34.1931 1.67145 -0.490732 0
M  V30 311 C 31.3251 3.23747 -1.06773 0
M  V30 312 H 32.5181 1.91873 -2.30488 0
M  V30 313 H 30.0711 0.970876 -1.2249 0
M  V30 314 H 30.8061 3.24148 -0.099129 0
M  V30 315 H 30.5911 3.45115 -1.86112 0
M  V30 316 H 32.0811 4.03824 -1.06377 0
M  V30 317 N 32.5182 1.22032 0.997298 0
M  V30 318 C 33.4502 0.944263 2.08845 0
M  V30 319 C 34.4632 -0.0754663 1.62625 0
M  V30 320 O 35.6522 0.157994 1.77799 0
M  V30 321 C 32.7522 0.397723 3.36558 0
M  V30 322 C 31.9252 1.47362 4.11829 0
M  V30 323 C 30.9842 0.934951 5.17827 0
M  V30 324 O 30.0102 1.62016 5.45655 0
M  V30 325 N 31.2122 -0.245895 5.79979 0
M  V30 326 H 33.9772 1.88363 2.33109 0
M  V30 327 H 31.5382 1.12661 1.16272 0
M  V30 328 H 33.5302 0.0227771 4.04694 0
M  V30 329 H 32.1002 -0.446646 3.09393 0
M  V30 330 H 31.3202 2.02208 3.38386 0
M  V30 331 H 32.6082 2.19764 4.58891 0
M  V30 332 H 32.0062 -0.819475 5.59733 0
M  V30 333 H 30.5632 -0.562272 6.4937 0
M  V30 334 N 33.9963 -1.19345 1.0293 0
M  V30 335 C 35.2423 -1.89318 0.727083 0
M  V30 336 C 35.5753 -1.79446 -0.742483 0
M  V30 337 O 34.8503 -1.1871 -1.54072 0
M  V30 338 C 35.1333 -3.40238 1.17942 0
M  V30 339 C 34.9863 -3.58979 2.71024 0
M  V30 340 C 36.3053 -4.33479 0.760548 0
M  V30 341 H 33.4243 -0.687475 0.265606 0
M  V30 342 H 36.0663 -1.40477 1.2793 0
M  V30 343 H 34.2163 -3.81964 0.709608 0
M  V30 344 H 35.8883 -3.26421 3.25955 0
M  V30 345 H 34.1313 -3.02018 3.11396 0
M  V30 346 H 34.8023 -4.64823 2.9773 0
M  V30 347 H 37.2783 -3.99469 1.16464 0
M  V30 348 H 36.1543 -5.37664 1.10493 0
M  V30 349 H 36.4153 -4.40813 -0.337063 0
M  V30 350 N 35.4744 -0.807222 -1.35358 0
M  V30 351 C 36.8904 -0.491038 -1.51858 0
M  V30 352 C 37.0904 0.987648 -1.75635 0
M  V30 353 O 36.1464 1.77265 -1.79815 0
M  V30 354 C 37.4594 -1.33695 -2.69344 0
M  V30 355 C 39.0074 -1.33246 -2.83222 0
M  V30 356 C 39.4824 -2.1625 -4.03733 0
M  V30 357 N 40.9734 -2.1379 -4.10911 0
M  V30 358 C 41.7084 -2.74772 -5.03277 0
M  V30 359 N 41.2044 -3.44684 -6.0097 0
M  V30 360 N 42.9974 -2.6441 -4.96028 0
M  V30 361 H 35.1484 -1.76485 -1.18181 0
M  V30 362 H 37.4114 -0.751199 -0.578276 0
M  V30 363 H 37.1174 -2.38634 -2.58354 0
M  V30 364 H 36.9914 -0.990618 -3.6396 0
M  V30 365 H 39.3784 -0.290911 -2.93663 0
M  V30 366 H 39.4594 -1.71866 -1.89461 0
M  V30 367 H 39.1034 -3.20445 -3.94052 0
M  V30 368 H 39.0334 -1.74989 -4.96675 0
M  V30 369 H 41.5244 -1.62923 -3.40976 0
M  V30 370 H 41.8374 -3.88501 -6.68047 0
M  V30 371 H 40.1824 -3.48788 -6.01142 0
M  V30 372 H 43.3734 -2.0938 -4.18662 0
M  V30 373 H 43.5464 -3.12225 -5.6782 0
M  V30 374 N 36.9525 1.47285 -0.560781 0
M  V30 375 C 37.8825 2.32857 0.173105 0
M  V30 376 C 38.8635 1.44009 0.905281 0
M  V30 377 O 40.0485 1.7286 0.885046 0
M  V30 378 C 37.1785 3.25861 1.20133 0
M  V30 379 C 36.1325 4.23978 0.585388 0
M  V30 380 C 35.4585 5.06332 1.7185 0
M  V30 381 C 36.7585 5.20242 -0.463178 0
M  V30 382 H 38.4525 2.94466 -0.541307 0
M  V30 383 H 35.9985 1.41601 -0.261764 0
M  V30 384 H 37.9515 3.84569 1.72293 0
M  V30 385 H 36.6755 2.62315 1.94573 0
M  V30 386 H 35.3345 3.66501 0.085054 0
M  V30 387 H 34.9825 4.39186 2.45203 0
M  V30 388 H 34.6825 5.72762 1.31213 0
M  V30 389 H 36.2065 5.67899 2.24329 0
M  V30 390 H 37.6205 5.73293 -0.027502 0
M  V30 391 H 36.0175 5.94896 -0.788627 0
M  V30 392 H 37.0875 4.65504 -1.35773 0
M  V30 393 N 38.4306 0.297415 1.54768 0
M  V30 394 C 39.6556 -0.318435 2.04941 0
M  V30 395 C 40.0806 -1.4701 1.17345 0
M  V30 396 O 39.4386 -1.80436 0.176758 0
M  V30 397 C 39.4866 -0.755749 3.52592 0
M  V30 398 O 38.5906 -1.86088 3.68028 0
M  V30 399 H 37.9316 -0.062421 0.661059 0
M  V30 400 H 40.4616 0.438215 1.99852 0
M  V30 401 H 40.4716 -1.04552 3.94376 0
M  V30 402 H 39.1466 0.0867233 4.1581 0
M  V30 403 H 37.7236 -1.57193 3.38149 0
M  V30 404 N 39.9087 -1.5758 0.0250728 0
M  V30 405 C 41.1337 -1.96337 -0.668317 0
M  V30 406 C 41.5587 -0.901314 -1.651 0
M  V30 407 O 40.9167 0.138187 -1.80773 0
M  V30 408 C 40.9647 -3.34191 -1.35457 0
M  V30 409 O 40.0687 -3.30269 -2.46974 0
M  V30 410 H 39.4097 -0.640281 -0.175887 0
M  V30 411 H 41.9397 -2.0442 0.0857224 0
M  V30 412 H 41.9497 -3.70331 -1.71228 0
M  V30 413 H 40.6247 -4.11036 -0.634218 0
M  V30 414 H 39.2017 -3.05841 -2.13344 0
M  V30 415 N 41.3868 0.248026 -1.55636 0
M  V30 416 C 42.3498 1.29044 -1.89421 0
M  V30 417 C 43.3498 1.41134 -0.770581 0
M  V30 418 O 44.5398 1.39854 -1.03858 0
M  V30 419 C 41.6718 2.66831 -2.12165 0
M  V30 420 H 42.8648 1.00305 -2.82629 0
M  V30 421 H 40.4178 0.487265 -1.48511 0
M  V30 422 H 41.1528 3.00711 -1.21422 0
M  V30 423 H 40.9378 2.59438 -2.93997 0
M  V30 424 H 42.4278 3.42103 -2.3949 0
M  V30 425 N 42.8649 1.48995 0.513639 0
M  V30 426 C 44.2809 1.35478 0.843682 0
M  V30 427 C 44.4809 0.378213 1.97919 0
M  V30 428 O 43.5369 -0.194689 2.51748 0
M  V30 429 C 44.8499 2.75901 1.1958 0
M  V30 430 C 46.3979 2.84509 1.30474 0
M  V30 431 C 46.8729 4.25671 1.69021 0
M  V30 432 N 48.3639 4.28422 1.76094 0
M  V30 433 C 49.0989 5.34601 2.07338 0
M  V30 434 N 48.5949 6.5104 2.36894 0
M  V30 435 N 50.3879 5.22007 2.08483 0
M  V30 436 H 42.5389 2.11092 -0.235328 0
M  V30 437 H 44.8019 0.947039 -0.0426669 0
M  V30 438 H 44.5079 3.49001 0.434913 0
M  V30 439 H 44.3819 3.10467 2.1422 0
M  V30 440 H 46.7689 2.11655 2.05637 0
M  V30 441 H 46.8499 2.53542 0.339155 0
M  V30 442 H 46.4939 4.99048 0.944135 0
M  V30 443 H 46.4239 4.54094 2.66658 0
M  V30 444 H 48.9149 3.44441 1.55464 0
M  V30 445 H 49.2279 7.2779 2.59887 0
M  V30 446 H 47.5729 6.54287 2.34378 0
M  V30 447 H 50.7639 4.30051 1.84861 0
M  V30 448 H 50.9369 6.04854 2.325 0
M  V30 449 N 44.343 -0.763751 1.37857 0
M  V30 450 C 45.754 -1.3405 1.29952 0
M  V30 451 C 46.105 -1.96138 -0.0492898 0
M  V30 452 O 45.23 -1.94372 -0.951239 0
M  V30 453 C 45.825 -2.43729 2.35333 0
M  V30 454 C 44.384 -2.97151 2.31037 0
M  V30 455 C 43.531 -1.70438 2.18738 0
M  V30 456 H 46.482 -0.563396 1.48363 0
M  V30 457 H 46.503 -3.23412 2.00462 0
M  V30 458 H 46.015 -1.9851 3.33489 0
M  V30 459 H 44.116 -3.46724 1.3643 0
M  V30 460 H 44.229 -3.52221 3.24772 0
M  V30 461 H 42.593 -1.93673 1.65418 0
M  V30 462 H 43.376 -1.27312 3.18821 0
M  V30 463 N 45.8211 -1.22559 -0.990812 0
M  V30 464 C 47.0691 -1.04933 -1.72724 0
M  V30 465 C 47.3901 0.416158 -1.90508 0
M  V30 466 O 46.6601 1.29918 -1.46622 0
M  V30 467 H 45.2401 -0.385296 -0.639965 0
M  V30 468 H 47.9021 -1.54105 -1.19322 0
M  V30 469 H 46.9981 -1.52886 -2.72089 0
M  V30 470 N 47.2992 1.18797 -1.03562 0
M  V30 471 C 48.5472 1.88278 -0.734569 0
M  V30 472 C 48.8682 1.8043 0.739586 0
M  V30 473 O 48.1382 1.21925 1.53333 0
M  V30 474 H 46.7182 0.696991 -0.268725 0
M  V30 475 H 49.3802 1.44192 -1.31129 0
M  V30 476 H 48.4762 2.94443 -1.03489 0
M  V30 477 N 48.7773 0.814389 1.34928 0
M  V30 478 C 49.7073 0.244827 2.32213 0
M  V30 479 C 50.6883 -0.634024 1.57842 0
M  V30 480 O 51.8733 -0.562676 1.8587 0
M  V30 481 C 49.0033 -0.601106 3.42058 0
M  V30 482 C 47.9573 0.179896 4.27622 0
M  V30 483 C 47.2833 -0.788237 5.28858 0
M  V30 484 C 48.5833 1.38329 5.03649 0
M  V30 485 H 50.2773 1.05763 2.80097 0
M  V30 486 H 47.8233 0.510029 1.34665 0
M  V30 487 H 49.7763 -1.00968 4.09125 0
M  V30 488 H 48.5003 -1.44688 2.92802 0
M  V30 489 H 47.1593 0.569739 3.62146 0
M  V30 490 H 46.8073 -1.62973 4.75866 0
M  V30 491 H 46.5073 -0.269942 5.8698 0
M  V30 492 H 48.0313 -1.19485 5.98795 0
M  V30 493 H 49.4453 1.04918 5.63618 0
M  V30 494 H 47.8423 1.83662 5.71304 0
M  V30 495 H 48.9123 2.16592 4.33839 0
M  V30 496 N 50.2554 -1.46986 0.568584 0
M  V30 497 C 51.5034 -2.02041 0.0487022 0
M  V30 498 C 51.8244 -1.44408 -1.31039 0
M  V30 499 O 51.0944 -0.623477 -1.85714 0
M  V30 500 H 49.6744 -0.746849 0.015014 0
M  V30 501 H 52.3364 -1.80257 0.741168 0
M  V30 502 H 51.4324 -3.12085 -0.0308961 0
M  V30 503 N 51.7335 -0.305618 -1.54608 0
M  V30 504 C 52.9585 0.307562 -2.05107 0
M  V30 505 C 53.3835 1.46385 -1.18123 0
M  V30 506 O 52.7415 1.8034 -0.186324 0
M  V30 507 C 52.7895 0.73704 -3.52987 0
M  V30 508 O 51.8935 1.84134 -3.6901 0
M  V30 509 H 51.2345 0.0589143 -0.661381 0
M  V30 510 H 53.7645 -0.448807 -1.99617 0
M  V30 511 H 53.7745 1.02459 -3.94925 0
M  V30 512 H 52.4495 -0.108773 -4.15758 0
M  V30 513 H 51.0265 1.55398 -3.38978 0
M  V30 514 N 53.2116 1.57565 -0.0334293 0
M  V30 515 C 54.4366 1.96689 0.657895 0
M  V30 516 C 54.8616 0.910057 1.64619 0
M  V30 517 O 54.2196 -0.128598 1.80843 0
M  V30 518 C 54.2676 3.34905 1.33683 0
M  V30 519 O 53.3716 3.31574 2.45219 0
M  V30 520 H 52.7126 0.641205 0.172489 0
M  V30 521 H 55.2426 2.04372 -0.0965621 0
M  V30 522 H 55.2526 3.71234 1.69262 0
M  V30 523 H 53.9276 4.11366 0.612411 0
M  V30 524 H 52.5046 3.06968 2.11719 0
M  V30 525 N 54.6897 -0.239769 1.55765 0
M  V30 526 C 55.9147 -0.988373 1.82335 0
M  V30 527 C 56.3397 -1.77886 0.611421 0
M  V30 528 O 55.6977 -1.75889 -0.439639 0
M  V30 529 C 55.7457 -1.89627 3.06715 0
M  V30 530 O 54.8497 -2.98904 2.84131 0
M  V30 531 H 54.1907 -0.280858 0.601677 0
M  V30 532 H 56.7207 -0.258597 2.02959 0
M  V30 533 H 56.7307 -2.30957 3.36338 0
M  V30 534 H 55.4057 -1.31511 3.9456 0
M  V30 535 H 53.9827 -2.61651 2.65694 0
M  V30 536 N 56.1678 -1.49265 -0.50573 0
M  V30 537 C 57.0978 -1.68495 -1.61653 0
M  V30 538 C 58.0788 -0.53366 -1.61512 0
M  V30 539 O 59.2638 -0.76897 -1.78327 0
M  V30 540 C 56.3938 -1.74709 -3.00157 0
M  V30 541 C 55.3478 -2.89581 -3.15162 0
M  V30 542 C 54.6738 -2.80903 -4.5497 0
M  V30 543 C 55.9738 -4.30578 -2.95634 0
M  V30 544 H 57.6678 -2.61493 -1.45814 0
M  V30 545 H 55.2138 -1.25838 -0.70005 0
M  V30 546 H 57.1668 -1.86748 -3.77761 0
M  V30 547 H 55.8908 -0.783067 -3.17074 0
M  V30 548 H 54.5498 -2.77136 -2.39982 0
M  V30 549 H 54.1978 -1.82419 -4.68756 0
M  V30 550 H 53.8978 -3.57999 -4.65951 0
M  V30 551 H 55.4218 -2.94944 -5.34641 0
M  V30 552 H 56.8358 -4.4373 -3.63011 0
M  V30 553 H 55.2328 -5.0886 -3.18091 0
M  V30 554 H 56.3028 -4.45352 -1.91806 0
M  V30 555 N 57.6459 0.756429 -1.3826 0
M  V30 556 C 58.8759 1.54341 -1.3734 0
M  V30 557 C 59.2839 1.89159 0.0393917 0
M  V30 558 O 58.6269 1.5307 1.01565 0
M  V30 559 C 58.6889 2.87238 -2.16182 0
M  V30 560 C 58.3529 2.74973 -3.65019 0
M  V30 561 C 59.3499 2.44962 -4.58574 0
M  V30 562 C 57.0349 2.92515 -4.08338 0
M  V30 563 C 59.0289 2.32642 -5.93428 0
M  V30 564 C 56.7159 2.79815 -5.43274 0
M  V30 565 C 57.7139 2.49921 -6.35632 0
M  V30 566 O 57.4019 2.37275 -7.68086 0
M  V30 567 H 57.1339 0.484281 -0.471643 0
M  V30 568 H 59.6879 0.944152 -1.82414 0
M  V30 569 H 57.9179 3.49342 -1.65822 0
M  V30 570 H 59.6069 3.48731 -2.07705 0
M  V30 571 H 60.3729 2.31081 -4.26412 0
M  V30 572 H 56.2519 3.14781 -3.368 0
M  V30 573 H 59.7959 2.0923 -6.65484 0
M  V30 574 H 55.6929 2.93269 -5.75034 0
M  V30 575 H 56.4609 2.52509 -7.78577 0
M  V30 576 N 59.124 1.23083 0.984299 0
M  V30 577 C 60.372 1.05848 1.72165 0
M  V30 578 C 60.693 -0.406049 1.90726 0
M  V30 579 O 59.963 -1.29139 1.47309 0
M  V30 580 H 58.543 0.388685 0.637913 0
M  V30 581 H 61.205 1.54736 1.18503 0
M  V30 582 H 60.301 1.54327 2.71274 0
M  V30 583 N 60.6021 -1.18246 1.0419 0
M  V30 584 C 61.5321 -2.24127 0.654914 0
M  V30 585 C 62.5131 -1.66617 -0.342451 0
M  V30 586 O 63.6981 -1.92924 -0.222277 0
M  V30 587 C 60.8281 -3.47295 0.0183757 0
M  V30 588 C 59.7821 -4.17563 0.939414 0
M  V30 589 C 59.1081 -5.34438 0.167286 0
M  V30 590 C 60.4081 -4.70917 2.25908 0
M  V30 591 H 62.1021 -2.56753 1.54007 0
M  V30 592 H 59.6481 -1.23414 0.74195 0
M  V30 593 H 61.6011 -4.20572 -0.264082 0
M  V30 594 H 60.3251 -3.13907 -0.901664 0
M  V30 595 H 58.9841 -3.46186 1.20628 0
M  V30 596 H 58.6321 -4.97298 -0.7552 0
M  V30 597 H 58.3321 -5.82388 0.780901 0
M  V30 598 H 59.8561 -6.10504 -0.108125 0
M  V30 599 H 61.2701 -5.35882 2.03724 0
M  V30 600 H 59.6671 -5.29406 2.82577 0
M  V30 601 H 60.7371 -3.88272 2.9047 0
M  V30 602 N 62.0802 -0.821533 -1.34494 0
M  V30 603 C 63.3282 -0.408139 -1.97936 0
M  V30 604 C 63.6492 1.03193 -1.65457 0
M  V30 605 O 62.9192 1.71622 -0.944595 0
M  V30 606 H 61.4992 -0.147928 -0.732206 0
M  V30 607 H 64.1612 -1.05067 -1.64155 0
M  V30 608 H 63.2572 -0.52601 -3.07635 0
M  V30 609 N 63.5583 1.46682 -0.576371 0
M  V30 610 C 64.5213 2.28707 0.150239 0
M  V30 611 C 65.5213 1.38035 0.824794 0
M  V30 612 O 66.7113 1.60476 0.677719 0
M  V30 613 C 63.8433 3.18248 1.22192 0
M  V30 614 H 65.0363 2.94423 -0.570521 0
M  V30 615 H 62.5893 1.52688 -0.334078 0
M  V30 616 H 63.3243 2.57265 1.97447 0
M  V30 617 H 63.1093 3.85 0.742812 0
M  V30 618 H 64.5993 3.80001 1.73172 0
M  V30 619 N 65.0364 0.313813 1.54444 0
M  V30 620 C 66.2614 -0.296681 2.05267 0
M  V30 621 C 66.6864 -1.45757 1.18897 0
M  V30 622 O 66.0444 -1.80239 0.195886 0
M  V30 623 C 66.0924 -0.71831 3.53373 0
M  V30 624 O 65.1964 -1.82175 3.69981 0
M  V30 625 H 64.5374 -0.0554061 0.661684 0
M  V30 626 H 67.0674 0.459387 1.99376 0
M  V30 627 H 67.0774 -1.00364 3.95463 0
M  V30 628 H 65.7524 0.130821 4.15694 0
M  V30 629 H 64.3294 -1.53598 3.39797 0
M  V30 630 N 66.5145 -1.57545 0.0417849 0
M  V30 631 C 67.9305 -1.56467 -0.314704 0
M  V30 632 C 68.1305 -1.04859 -1.72066 0
M  V30 633 O 67.1865 -0.700983 -2.42575 0
M  V30 634 C 68.4995 -3.00317 -0.15174 0
M  V30 635 C 70.0475 -3.12201 -0.223553 0
M  V30 636 C 70.5225 -4.57913 -0.0892295 0
M  V30 637 N 72.0135 -4.6297 -0.145808 0
M  V30 638 C 72.7485 -5.73362 -0.0658459 0
M  V30 639 N 72.2445 -6.92769 0.0659282 0
M  V30 640 N 74.0375 -5.6197 -0.12075 0
M  V30 641 H 66.1885 -1.89416 0.961014 0
M  V30 642 H 68.4515 -0.871862 0.372237 0
M  V30 643 H 68.1575 -3.42073 0.817254 0
M  V30 644 H 68.0315 -3.65892 -0.916692 0
M  V30 645 H 70.4185 -2.70349 -1.18301 0
M  V30 646 H 70.4995 -2.49323 0.571994 0
M  V30 647 H 70.1435 -5.00448 0.866867 0
M  V30 648 H 70.0735 -5.18786 -0.903802 0
M  V30 649 H 72.5645 -3.7709 -0.247286 0
M  V30 650 H 72.8775 -7.72707 0.119905 0
M  V30 651 H 71.2225 -6.94927 0.100885 0
M  V30 652 H 74.4135 -4.67572 -0.222187 0
M  V30 653 H 74.5865 -6.47977 -0.0549735 0
M  V30 654 N 67.9926 0.231505 -1.5589 0
M  V30 655 C 69.4036 0.799327 -1.68724 0
M  V30 656 C 69.7546 1.85398 -0.642022 0
M  V30 657 O 68.8796 2.1539 0.208784 0
M  V30 658 C 69.4746 1.45664 -3.05888 0
M  V30 659 C 68.0336 1.97197 -3.20609 0
M  V30 660 C 67.1806 0.828552 -2.64632 0
M  V30 661 H 70.1316 0.00702616 -1.58698 0
M  V30 662 H 70.1526 2.32517 -3.01191 0
M  V30 663 H 69.6646 0.688808 -3.81939 0
M  V30 664 H 67.7656 2.76813 -2.4941 0
M  V30 665 H 67.8786 2.15878 -4.27707 0
M  V30 666 H 66.2426 1.23321 -2.22854 0
M  V30 667 H 67.0256 0.0735544 -3.43221 0
M  V30 668 N 69.4707 1.49531 0.497807 0
M  V30 669 C 70.8867 1.36365 0.829266 0
M  V30 670 C 71.0867 0.399184 1.97506 0
M  V30 671 O 70.1427 -0.167977 2.51941 0
M  V30 672 C 71.4557 2.77153 1.16647 0
M  V30 673 C 73.0037 2.85877 1.27449 0
M  V30 674 C 73.4787 4.2744 1.64497 0
M  V30 675 N 74.9697 4.30265 1.7154 0
M  V30 676 C 75.7047 5.3677 2.01656 0
M  V30 677 N 75.2007 6.53516 2.29976 0
M  V30 678 N 76.9937 5.24189 2.02934 0
M  V30 679 H 69.1447 2.10831 -0.257703 0
M  V30 680 H 71.4077 0.946534 -0.0527091 0
M  V30 681 H 71.1137 3.49442 0.397872 0
M  V30 682 H 70.9877 3.12722 2.10915 0
M  V30 683 H 73.3747 2.13824 2.0338 0
M  V30 684 H 73.4557 2.53887 0.312244 0
M  V30 685 H 73.0997 5.00021 0.891151 0
M  V30 686 H 73.0297 4.56896 2.61827 0
M  V30 687 H 75.5207 3.4607 1.51802 0
M  V30 688 H 75.8337 7.30506 2.52153 0
M  V30 689 H 74.1787 6.56737 2.27425 0
M  V30 690 H 77.3697 4.31988 1.80289 0
M  V30 691 H 77.5427 6.07286 2.26071 0
M  V30 692 N 70.9488 -0.749086 1.3866 0
M  V30 693 C 72.1948 -1.51056 1.35314 0
M  V30 694 C 72.5278 -1.94121 -0.0553751 0
M  V30 695 O 71.8028 -1.65763 -1.01749 0
M  V30 696 C 72.0858 -2.76003 2.31288 0
M  V30 697 C 71.9388 -2.39047 3.8102 0
M  V30 698 C 73.2578 -3.78046 2.2532 0
M  V30 699 H 70.3768 -0.547972 0.492844 0
M  V30 700 H 73.0188 -0.857628 1.69543 0
M  V30 701 H 71.1688 -3.31716 2.02229 0
M  V30 702 H 72.8408 -1.89074 4.20771 0
M  V30 703 H 71.0838 -1.71449 3.98482 0
M  V30 704 H 71.7548 -3.28462 4.4364 0
M  V30 705 H 74.2308 -3.31884 2.50983 0
M  V30 706 H 73.1068 -4.63159 2.94576 0
M  V30 707 H 73.3678 -4.23957 1.25352 0
M  V30 708 N 72.4269 -1.23603 -0.977757 0
M  V30 709 C 73.3899 -1.02069 -2.05218 0
M  V30 710 C 74.3899 0.0184305 -1.60789 0
M  V30 711 O 75.5799 -0.221569 -1.72785 0
M  V30 712 C 72.7119 -0.544926 -3.36517 0
M  V30 713 H 73.9049 -1.9742 -2.25755 0
M  V30 714 H 71.4579 -1.05684 -1.15155 0
M  V30 715 H 72.1929 0.412241 -3.21669 0
M  V30 716 H 71.9779 -1.2948 -3.70105 0
M  V30 717 H 73.4679 -0.414985 -4.15533 0
M  V30 718 N 73.905 1.17692 -1.04816 0
M  V30 719 C 75.151 1.88137 -0.75711 0
M  V30 720 C 75.484 1.80604 0.713841 0
M  V30 721 O 74.759 1.21146 1.52164 0
M  V30 722 C 75.042 3.38318 -1.2334 0
M  V30 723 C 74.895 3.54622 -2.76701 0
M  V30 724 C 76.214 4.32214 -0.829415 0
M  V30 725 H 73.333 0.683163 -0.27651 0
M  V30 726 H 75.975 1.38424 -1.30149 0
M  V30 727 H 74.125 3.80787 -0.770286 0
M  V30 728 H 75.797 3.21194 -3.31107 0
M  V30 729 H 74.04 2.97026 -3.16161 0
M  V30 730 H 74.711 4.60028 -3.05088 0
M  V30 731 H 77.187 3.97565 -1.22805 0
M  V30 732 H 76.063 5.35838 -1.19033 0
M  V30 733 H 76.324 4.41294 0.266891 0
M  V30 734 N 75.3831 0.828654 1.34056 0
M  V30 735 C 76.7991 0.515135 1.51058 0
M  V30 736 C 76.9991 -0.959581 1.77184 0
M  V30 737 O 76.0551 -1.74382 1.82612 0
M  V30 738 C 77.3681 1.37963 2.67183 0
M  V30 739 C 78.9161 1.37735 2.81066 0
M  V30 740 C 79.3911 2.22645 4.00241 0
M  V30 741 N 80.8821 2.203 4.07458 0
M  V30 742 C 81.6171 2.82744 4.98842 0
M  V30 743 N 81.1131 3.54201 5.9541 0
M  V30 744 N 82.9061 2.72268 4.91759 0
M  V30 745 H 75.0571 1.78343 1.15358 0
M  V30 746 H 77.3201 0.760304 0.566252 0
M  V30 747 H 77.0261 2.42714 2.54525 0
M  V30 748 H 76.9001 1.0484 3.62338 0
M  V30 749 H 79.2871 0.337593 2.93163 0
M  V30 750 H 79.3681 1.74859 1.86703 0
M  V30 751 H 79.0121 3.26674 3.88905 0
M  V30 752 H 78.9421 1.82869 4.93829 0
M  V30 753 H 81.4331 1.68327 3.38341 0
M  V30 754 H 81.7461 3.9908 6.61782 0
M  V30 755 H 80.0911 3.58308 5.95517 0
M  V30 756 H 83.2821 2.16014 4.15278 0
M  V30 757 H 83.4551 3.21219 5.62781 0
M  V30 758 N 76.8612 -1.46375 0.584142 0
M  V30 759 C 78.0862 -2.07268 0.0740405 0
M  V30 760 C 78.5112 -1.42979 -1.22223 0
M  V30 761 O 77.8692 -0.514092 -1.73859 0
M  V30 762 C 77.9172 -3.60518 -0.0767769 0
M  V30 763 O 77.0212 -3.96533 -1.13292 0
M  V30 764 H 76.3622 -0.660961 0.0634524 0
M  V30 765 H 78.8922 -1.87991 0.807492 0
M  V30 766 H 78.9022 -4.07021 -0.282489 0
M  V30 767 H 77.5772 -4.06702 0.86986 0
M  V30 768 H 76.1542 -3.61738 -0.905553 0
M  V30 769 N 78.3393 -0.321999 -1.54275 0
M  V30 770 C 79.3023 0.531975 -2.22941 0
M  V30 771 C 80.3023 1.04478 -1.22234 0
M  V30 772 O 81.4923 0.937452 -1.46825 0
M  V30 773 C 78.6243 1.73874 -2.93224 0
M  V30 774 H 79.8173 -0.0682612 -2.99822 0
M  V30 775 H 77.3703 -0.0730644 -1.56129 0
M  V30 776 H 78.1053 2.37825 -2.20476 0
M  V30 777 H 77.8903 1.37847 -3.6707 0
M  V30 778 H 79.3803 2.34496 -3.45545 0
M  V30 779 N 79.8174 1.5752 -0.0501392 0
M  V30 780 C 81.0474 1.96678 0.632573 0
M  V30 781 C 81.4554 0.926298 1.64974 0
M  V30 782 O 80.7984 -0.09802 1.83438 0
M  V30 783 C 80.8604 3.32068 1.37735 0
M  V30 784 C 80.5244 4.54076 0.516131 0
M  V30 785 C 81.5214 5.19445 -0.217357 0
M  V30 786 C 79.2064 5.00304 0.44736 0
M  V30 787 C 81.2004 6.29378 -1.00807 0
M  V30 788 C 78.8874 6.10114 -0.347038 0
M  V30 789 C 79.8854 6.74512 -1.07344 0
M  V30 790 O 79.5734 7.82211 -1.85477 0
M  V30 791 H 79.3054 0.652193 0.177821 0
M  V30 792 H 81.8594 2.05091 -0.112543 0
M  V30 793 H 80.0894 3.20206 2.16807 0
M  V30 794 H 81.7784 3.55981 1.95019 0
M  V30 795 H 82.5444 4.84689 -0.173688 0
M  V30 796 H 78.4234 4.49971 1.00235 0
M  V30 797 H 81.9674 6.79575 -1.57556 0
M  V30 798 H 77.8644 6.44307 -0.392349 0
M  V30 799 H 78.6324 7.98982 -1.77678 0
M  V30 800 N 81.2955 -0.223234 1.56011 0
M  V30 801 C 82.5435 -0.946003 1.78592 0
M  V30 802 C 82.8645 -1.84936 0.618349 0
M  V30 803 O 82.1345 -1.92473 -0.364833 0
M  V30 804 H 80.7145 -0.352298 0.658707 0
M  V30 805 H 83.3765 -0.235494 1.93472 0
M  V30 806 H 82.4725 -1.55381 2.70672 0
M  V30 807 N 82.7736 -1.49793 -0.48987 0
M  V30 808 C 84.0216 -1.59525 -1.24081 0
M  V30 809 C 84.3426 -0.288953 -1.92847 0
M  V30 810 O 83.6126 0.692436 -1.83254 0
M  V30 811 H 82.1926 -0.587796 -0.460983 0
M  V30 812 H 84.8546 -1.86477 -0.566778 0
M  V30 813 H 83.9506 -2.39696 -1.99881 0
M  V30 814 N 84.2517 0.741722 -1.39055 0
M  V30 815 C 85.6627 1.31966 -1.32068 0
M  V30 816 C 86.0137 1.96192 0.0180797 0
M  V30 817 O 85.1387 1.95861 0.920196 0
M  V30 818 C 85.7337 2.39954 -2.39181 0
M  V30 819 C 84.2927 2.93438 -2.35735 0
M  V30 820 C 83.4397 1.66936 -2.21422 0
M  V30 821 H 86.3907 0.539721 -1.4924 0
M  V30 822 H 86.4117 3.20182 -2.05581 0
M  V30 823 H 85.9237 1.9318 -3.36605 0
M  V30 824 H 84.0247 3.4451 -1.41929 0
M  V30 825 H 84.1377 3.4701 -3.30335 0
M  V30 826 H 82.5017 1.91016 -1.68478 0
M  V30 827 H 83.2847 1.22224 -3.20806 0
M  V30 828 N 85.7298 1.2412 0.971189 0
M  V30 829 C 86.9758 1.08041 1.71625 0
M  V30 830 C 87.3088 -0.380407 1.90438 0
M  V30 831 O 86.5838 -1.28127 1.46334 0
M  V30 832 C 86.8668 1.81682 3.10908 0
M  V30 833 C 86.7198 3.35493 2.99608 0
M  V30 834 C 88.0388 1.58671 4.10501 0
M  V30 835 H 85.1578 0.39388 0.622919 0
M  V30 836 H 87.7998 1.52743 1.13003 0
M  V30 837 H 85.9498 1.43684 3.60953 0
M  V30 838 H 87.6218 3.83068 2.57015 0
M  V30 839 H 85.8648 3.64052 2.35899 0
M  V30 840 H 86.5358 3.82217 3.98264 0
M  V30 841 H 89.0118 1.91719 3.69301 0
M  V30 842 H 87.8878 2.1266 5.06031 0
M  V30 843 H 88.1488 0.524161 4.38982 0
M  V30 844 N 87.2079 -1.17134 1.05439 0
M  V30 845 C 88.4559 -1.87085 0.764429 0
M  V30 846 C 88.7769 -1.81584 -0.710787 0
M  V30 847 O 88.0469 -1.24349 -1.51374 0
M  V30 848 H 86.6269 -0.692627 0.279779 0
M  V30 849 H 89.2889 -1.42087 1.33406 0
M  V30 850 H 88.3849 -2.92759 1.0816 0
M  V30 851 N 88.686 -0.835752 -1.33615 0
M  V30 852 C 89.649 -0.272 -2.2758 0
M  V30 853 C 90.649 0.557487 -1.50827 0
M  V30 854 O 91.839 0.37173 -1.70188 0
M  V30 855 C 88.971 0.617173 -3.35267 0
M  V30 856 H 90.164 -1.10111 -2.78954 0
M  V30 857 H 87.717 -0.608594 -1.43965 0
M  V30 858 H 88.452 1.46884 -2.89129 0
M  V30 859 H 88.237 0.0237066 -3.92093 0
M  V30 860 H 89.727 1.005 -4.05326 0
M  V30 861 N 90.1641 1.46063 -0.591896 0
M  V30 862 C 91.4121 2.01938 -0.0808391 0
M  V30 863 C 91.7331 1.46475 1.28725 0
M  V30 864 O 91.0031 0.652944 1.84698 0
M  V30 865 H 89.5831 0.746516 -0.0268938 0
M  V30 866 H 92.2451 1.79055 -0.769752 0
M  V30 867 H 91.3411 3.12094 -0.0187578 0
M  V30 868 N 91.6422 0.330177 1.54103 0
M  V30 869 C 92.8912 -0.271336 1.99867 0
M  V30 870 C 93.2042 -1.52723 1.22209 0
M  V30 871 O 94.4102 -2.20515 1.58383 0
M  V30 872 C 92.8662 -0.534032 3.55916 0
M  V30 873 C 92.4742 0.705193 4.42415 0
M  V30 874 C 94.2182 -1.09514 4.1013 0
M  V30 875 C 92.1252 0.414035 5.89949 0
M  V30 876 H 91.0552 -0.105166 0.74663 0
M  V30 877 H 93.7062 0.443429 1.78062 0
M  V30 878 H 92.0882 -1.30915 3.73734 0
M  V30 879 H 93.2622 1.4804 4.36372 0
M  V30 880 H 91.5772 1.18698 3.99124 0
M  V30 881 H 94.1742 -1.3277 5.17954 0
M  V30 882 H 94.5172 -2.04656 3.62521 0
M  V30 883 H 95.0502 -0.381038 3.95971 0
M  V30 884 H 91.7892 1.33481 6.41766 0
M  V30 885 H 91.3092 -0.323336 5.98928 0
M  V30 886 H 92.9882 0.0263105 6.46995 0
M  V30 887 N 93.1203 -1.57491 0.0584922 0
M  V30 888 C 94.5363 -1.56792 -0.298091 0
M  V30 889 C 94.7363 -1.06679 -1.70944 0
M  V30 890 O 93.7923 -0.726672 -2.41818 0
M  V30 891 C 95.1053 -3.00461 -0.119879 0
M  V30 892 C 96.6533 -3.1242 -0.190428 0
M  V30 893 C 97.1283 -4.57982 -0.0406567 0
M  V30 894 N 98.6193 -4.63099 -0.0966958 0
M  V30 895 C 99.3543 -5.734 -0.00502943 0
M  V30 896 N 98.8503 -6.9266 0.139402 0
M  V30 897 N 100.643 -5.62067 -0.0611391 0
M  V30 898 H 92.7943 -1.88386 0.98105 0
M  V30 899 H 95.0573 -0.867865 0.381463 0
M  V30 900 H 94.7633 -3.41187 0.85349 0
M  V30 901 H 94.6373 -3.66843 -0.877833 0
M  V30 902 H 97.0243 -2.71589 -1.15427 0
M  V30 903 H 97.1053 -2.48702 0.598405 0
M  V30 904 H 96.7493 -4.995 0.919897 0
M  V30 905 H 96.6793 -5.19715 -0.848727 0
M  V30 906 H 99.1703 -3.77331 -0.207277 0
M  V30 907 H 99.4833 -7.72536 0.201855 0
M  V30 908 H 97.8283 -6.94781 0.174586 0
M  V30 909 H 101.019 -4.67782 -0.172583 0
M  V30 910 H 101.192 -6.47999 0.0137562 0
M  V30 911 N 94.5984 0.214957 -1.56127 0
M  V30 912 C 95.5084 1.28727 -1.96129 0
M  V30 913 C 96.5244 1.50916 -0.866044 0
M  V30 914 O 97.7004 1.63918 -1.17016 0
M  V30 915 C 94.7654 2.61569 -2.27558 0
M  V30 916 C 93.8264 2.47625 -3.50685 0
M  V30 917 C 93.0594 3.74132 -3.80606 0
M  V30 918 O 93.2824 4.77438 -3.12104 0
M  V30 919 O 92.2164 3.70849 -4.74083 0
M  V30 920 H 96.0424 0.977855 -2.87527 0
M  V30 921 H 93.6274 0.418358 -1.43423 0
M  V30 922 H 95.5094 3.40012 -2.48938 0
M  V30 923 H 94.1844 2.92178 -1.39332 0
M  V30 924 H 93.0914 1.67361 -3.34576 0
M  V30 925 H 94.4244 2.21954 -4.39315 0
M  V30 926 N 96.0765 1.50051 0.48192 0
M  V30 927 C 97.3225 1.60736 1.2366 0
M  V30 928 C 97.6555 0.301786 1.91841 0
M  V30 929 O 96.9305 -0.696025 1.8162 0
M  V30 930 C 97.2135 2.78009 2.28874 0
M  V30 931 C 97.0665 4.18416 1.65069 0
M  V30 932 C 98.3855 2.90867 3.30279 0
M  V30 933 H 95.5045 0.585031 0.448228 0
M  V30 934 H 98.1465 1.82402 0.531946 0
M  V30 935 H 96.2965 2.59667 2.88973 0
M  V30 936 H 97.9685 4.48322 1.0865 0
M  V30 937 H 96.2115 4.23177 0.954148 0
M  V30 938 H 96.8825 4.96381 2.41474 0
M  V30 939 H 99.3585 3.07623 2.80191 0
M  V30 940 H 98.2345 3.74566 4.01238 0
M  V30 941 H 98.4955 2.01021 3.93755 0
M  V30 942 N 97.5546 -0.734337 1.39446 0
M  V30 943 C 98.7826 -1.52358 1.39981 0
M  V30 944 C 99.1976 -1.88799 -0.0054975 0
M  V30 945 O 98.5546 -1.54146 -0.976998 0
M  V30 946 C 98.6056 -2.81072 2.27333 0
M  V30 947 O 98.3266 -2.46178 3.62392 0
M  V30 948 C 99.8276 -3.75096 2.36259 0
M  V30 949 H 97.0476 -0.470806 0.478103 0
M  V30 950 H 99.5916 -0.907339 1.83269 0
M  V30 951 H 97.7466 -3.39026 1.87457 0
M  V30 952 H 98.1606 -3.28866 4.08592 0
M  V30 953 H 99.6346 -4.62305 3.01626 0
M  V30 954 H 100.112 -4.16892 1.38194 0
M  V30 955 H 100.718 -3.23061 2.76608 0
M  V30 956 N 99.0327 -1.24633 -0.964593 0
M  V30 957 C 100.282 -1.08188 -1.7023 0
M  V30 958 C 100.595 0.37873 -1.91898 0
M  V30 959 O 101.801 0.663427 -2.6327 0
M  V30 960 C 100.257 -1.88773 -3.06419 0
M  V30 961 C 99.8647 -3.39263 -2.92582 0
M  V30 962 C 101.609 -1.80867 -3.84041 0
M  V30 963 C 99.5157 -4.1218 -4.24101 0
M  V30 964 H 98.4457 -0.401245 -0.638372 0
M  V30 965 H 101.097 -1.48742 -1.07462 0
M  V30 966 H 99.4787 -1.41035 -3.70034 0
M  V30 967 H 100.653 -3.94603 -2.37961 0
M  V30 968 H 98.9677 -3.48154 -2.28424 0
M  V30 969 H 101.565 -2.32646 -4.81435 0
M  V30 970 H 101.908 -0.774543 -4.09031 0
M  V30 971 H 102.441 -2.26301 -3.27159 0
M  V30 972 H 99.1797 -5.15965 -4.04303 0
M  V30 973 H 98.6997 -3.61626 -4.78526 0
M  V30 974 H 100.379 -4.19349 -4.92702 0
M  V30 975 N 100.511 1.16574 -1.06058 0
M  V30 976 C 101.459 2.22941 -0.663343 0
M  V30 977 C 102.453 1.66358 0.319593 0
M  V30 978 O 103.659 1.7905 0.184713 0
M  V30 979 H 100.034 0.725907 -0.196376 0
M  V30 980 H 102.005 2.53736 -1.57037 0
M  V30 981 C 100.754 3.47642 -0.0632808 0
M  V30 982 H 100.077 3.91493 -0.810733 0
M  V30 983 H 101.517 4.2363 0.177177 0
M  V30 984 C 99.9758 3.1509 1.19248 0
M  V30 985 O 100.506 3.30673 2.28075 0
M  V30 986 N 98.7118 2.6924 1.09353 0
M  V30 987 H 98.2588 2.5676 0.207912 0
M  V30 988 H 98.2168 2.47833 1.93458 0
M  V30 989 N 101.989 0.842826 1.3317 0
M  V30 990 C 102.921 0.236245 2.27979 0
M  V30 991 C 103.934 -0.585282 1.51915 0
M  V30 992 O 105.123 -0.411705 1.73687 0
M  V30 993 C 102.223 -0.685717 3.3189 0
M  V30 994 C 101.396 0.0973448 4.37292 0
M  V30 995 C 100.455 -0.748565 5.20848 0
M  V30 996 O 99.4809 -0.186339 5.68895 0
M  V30 997 N 100.683 -2.06527 5.42519 0
M  V30 998 H 103.448 1.05088 2.80672 0
M  V30 999 H 101.009 0.701667 1.45905 0
M  V30 1000 H 103.001 -1.25669 3.84694 0
M  V30 1001 H 101.571 -1.40105 2.79445 0
M  V30 1002 H 100.791 0.849706 3.84933 0
M  V30 1003 H 102.079 0.635643 5.04814 0
M  V30 1004 H 101.477 -2.54554 5.05192 0
M  V30 1005 H 100.034 -2.58464 5.98364 0
M  V30 1006 N 103.467 -1.45747 0.599634 0
M  V30 1007 C 104.692 -2.07178 0.0960198 0
M  V30 1008 C 105.117 -1.44268 -1.207 0
M  V30 1009 O 104.475 -0.532503 -1.73303 0
M  V30 1010 C 104.523 -3.60579 -0.0385348 0
M  V30 1011 O 103.627 -3.97713 -1.0908 0
M  V30 1012 H 102.968 -0.660251 0.0704593 0
M  V30 1013 H 105.498 -1.87124 0.827385 0
M  V30 1014 H 105.508 -4.07298 -0.239304 0
M  V30 1015 H 104.183 -4.05756 0.912947 0
M  V30 1016 H 102.76 -3.62678 -0.867135 0
M  V30 1017 N 104.945 -0.338344 -1.53925 0
M  V30 1018 C 105.875 0.51328 -2.27789 0
M  V30 1019 C 106.856 1.107 -1.29149 0
M  V30 1020 O 108.041 1.12937 -1.57984 0
M  V30 1021 C 105.171 1.66697 -3.04679 0
M  V30 1022 C 104.125 1.20183 -4.1078 0
M  V30 1023 C 103.451 2.44363 -4.75595 0
M  V30 1024 C 104.751 0.30605 -5.21403 0
M  V30 1025 H 106.445 -0.102883 -2.99223 0
M  V30 1026 H 103.991 -0.0509219 -1.4391 0
M  V30 1027 H 105.944 2.26915 -3.55088 0
M  V30 1028 H 104.668 2.30995 -2.30887 0
M  V30 1029 H 103.327 0.622499 -3.61276 0
M  V30 1030 H 102.975 3.07057 -3.98403 0
M  V30 1031 H 102.675 2.13925 -5.47275 0
M  V30 1032 H 104.199 3.05317 -5.28786 0
M  V30 1033 H 105.613 0.814929 -5.67478 0
M  V30 1034 H 104.01 0.0937929 -6.00027 0
M  V30 1035 H 105.08 -0.65921 -4.80398 0
M  V30 1036 N 106.423 1.57458 -0.0668435 0
M  V30 1037 C 107.353 2.15468 0.899764 0
M  V30 1038 C 108.334 1.08042 1.31381 0
M  V30 1039 O 109.519 1.36054 1.38574 0
M  V30 1040 C 106.649 2.71232 2.16911 0
M  V30 1041 C 105.603 3.83781 1.89463 0
M  V30 1042 C 104.929 4.26127 3.22986 0
M  V30 1043 C 106.229 5.08238 1.20381 0
M  V30 1044 H 107.923 2.96488 0.416529 0
M  V30 1045 H 105.469 1.4262 0.198908 0
M  V30 1046 H 107.422 3.10458 2.84945 0
M  V30 1047 H 106.146 1.87426 2.67468 0
M  V30 1048 H 104.805 3.45051 1.23836 0
M  V30 1049 H 104.453 3.39249 3.71374 0
M  V30 1050 H 104.153 5.01993 3.05413 0
M  V30 1051 H 105.677 4.67966 3.92225 0
M  V30 1052 H 107.091 5.44811 1.78475 0
M  V30 1053 H 105.488 5.89349 1.13083 0
M  V30 1054 H 106.558 4.84558 0.182153 0
M  V30 1055 N 107.901 -0.206675 1.56239 0
M  V30 1056 C 108.864 -1.23976 1.92776 0
M  V30 1057 C 109.864 -1.39041 0.807729 0
M  V30 1058 O 111.054 -1.37051 1.0753 0
M  V30 1059 C 108.186 -2.61112 2.19165 0
M  V30 1060 H 109.379 -0.927764 2.85189 0
M  V30 1061 H 106.932 -0.447718 1.4975 0
M  V30 1062 H 107.667 -2.97386 1.29352 0
M  V30 1063 H 107.452 -2.51552 3.00772 0
M  V30 1064 H 108.942 -3.35633 2.48476 0
M  V30 1065 N 109.379 -1.50304 -0.473955 0
M  V30 1066 C 110.79 -1.54042 -1.0549 0
M  V30 1067 C 111.141 -0.342248 -1.93192 0
M  V30 1068 O 110.266 0.545157 -2.09421 0
M  V30 1069 C 110.861 -2.79152 -1.91989 0
M  V30 1070 C 109.42 -2.8558 -2.45196 0
M  V30 1071 C 108.567 -2.48295 -1.2347 0
M  V30 1072 H 111.518 -1.5661 -0.256693 0
M  V30 1073 H 111.539 -2.60845 -2.7702 0
M  V30 1074 H 111.051 -3.66339 -1.28131 0
M  V30 1075 H 109.152 -2.02738 -3.12615 0
M  V30 1076 H 109.265 -3.88403 -2.80499 0
M  V30 1077 H 107.629 -2.00669 -1.56856 0
M  V30 1078 H 108.412 -3.37787 -0.612789 0
M  V30 1079 N 110.857 0.726932 -1.39834 0
M  V30 1080 C 111.787 1.85405 -1.41941 0
M  V30 1081 C 112.768 1.67751 -0.281728 0
M  V30 1082 O 113.953 1.8795 -0.488717 0
M  V30 1083 C 111.083 3.23243 -1.2701 0
M  V30 1084 C 110.037 3.55549 -2.38262 0
M  V30 1085 C 109.363 4.9241 -2.08415 0
M  V30 1086 C 110.663 3.577 -3.80589 0
M  V30 1087 H 112.357 1.83899 -2.36266 0
M  V30 1088 H 109.903 0.883349 -1.13723 0
M  V30 1089 H 111.856 4.01775 -1.27103 0
M  V30 1090 H 110.58 3.25296 -0.291564 0
M  V30 1091 H 109.239 2.79351 -2.37399 0
M  V30 1092 H 108.887 4.91052 -1.0898 0
M  V30 1093 H 108.587 5.14992 -2.82943 0
M  V30 1094 H 110.111 5.73289 -2.10171 0
M  V30 1095 H 111.525 4.26293 -3.83337 0
M  V30 1096 H 109.922 3.91804 -4.54543 0
M  V30 1097 H 110.992 2.57328 -4.10987 0
M  V30 1098 N 112.336 1.25143 0.95797 0
M  V30 1099 C 113.752 1.01892 1.22842 0
M  V30 1100 C 113.952 -0.266311 1.99732 0
M  V30 1101 O 113.008 -0.979913 2.3271 0
M  V30 1102 C 114.321 2.24004 2.00606 0
M  V30 1103 C 115.869 2.28731 2.13662 0
M  V30 1104 C 116.344 3.5049 2.94823 0
M  V30 1105 N 117.835 3.50866 3.02403 0
M  V30 1106 C 118.57 4.4174 3.65586 0
M  V30 1107 N 118.066 5.42882 4.30408 0
M  V30 1108 N 119.859 4.29429 3.62694 0
M  V30 1109 H 112.01 2.07718 0.443493 0
M  V30 1110 H 114.273 0.912031 0.258657 0
M  V30 1111 H 113.979 3.17395 1.51503 0
M  V30 1112 H 113.853 2.26907 3.01319 0
M  V30 1113 H 116.24 1.35865 2.61963 0
M  V30 1114 H 116.321 2.29848 1.12265 0
M  V30 1115 H 115.965 4.43676 2.47213 0
M  V30 1116 H 115.895 3.46617 3.96439 0
M  V30 1117 H 118.386 2.777 2.56302 0
M  V30 1118 H 118.699 6.0844 4.76467 0
M  V30 1119 H 117.044 5.46758 4.29047 0
M  V30 1120 H 120.235 3.49643 3.11236 0
M  V30 1121 H 120.408 5.00448 4.1165 0
M  V30 1122 N 113.814 -1.1601 1.06675 0
M  V30 1123 C 114.744 -2.22688 0.702307 0
M  V30 1124 C 115.725 -1.67306 -0.307032 0
M  V30 1125 O 116.91 -1.93352 -0.181305 0
M  V30 1126 C 114.04 -3.47178 0.092038 0
M  V30 1127 C 112.994 -4.15477 1.02777 0
M  V30 1128 C 112.32 -5.33963 0.28061 0
M  V30 1129 C 113.62 -4.66019 2.35846 0
M  V30 1130 H 115.314 -2.53429 1.59419 0
M  V30 1131 H 112.86 -1.21813 0.767961 0
M  V30 1132 H 114.813 -4.21037 -0.174814 0
M  V30 1133 H 113.537 -3.15749 -0.834877 0
M  V30 1134 H 112.196 -3.43549 1.27944 0
M  V30 1135 H 111.844 -4.98788 -0.649545 0
M  V30 1136 H 111.544 -5.806 0.904258 0
M  V30 1137 H 113.068 -6.10596 0.021396 0
M  V30 1138 H 114.482 -5.3144 2.15045 0
M  V30 1139 H 112.879 -5.23293 2.93743 0
M  V30 1140 H 113.949 -3.82023 2.98641 0
M  V30 1141 N 115.292 -0.849877 -1.32721 0
M  V30 1142 C 116.569 -0.372405 -1.92022 0
M  V30 1143 C 116.949 1.1435 -1.77447 0
M  V30 1144 O 116.297 1.96296 -1.16962 0
M  V30 1145 C 116.507 -0.831482 -3.3895 0
M  V30 1146 C 117.855 -0.845882 -4.16089 0
M  V30 1147 O 118.879 -0.775806 -3.47649 0
M  V30 1148 O 117.738 -0.943753 -5.38289 0
M  V30 1149 H 114.832 -0.107667 -0.819961 0
M  V30 1150 H 117.378 -0.93646 -1.41522 0
M  V30 1151 H 116.15 -1.87448 -3.4348 0
M  V30 1152 H 115.773 -0.24461 -3.96847 0
M  V30 1153 N 116.77 1.45427 -0.607355 0
M  V30 1154 C 117.733 2.28974 0.101693 0
M  V30 1155 C 118.733 1.39754 0.795329 0
M  V30 1156 O 119.923 1.61878 0.643527 0
M  V30 1157 C 117.055 3.20768 1.15414 0
M  V30 1158 H 118.248 2.93147 -0.632844 0
M  V30 1159 H 115.801 1.51945 -0.366391 0
M  V30 1160 H 116.536 2.61395 1.91945 0
M  V30 1161 H 116.321 3.86489 0.66098 0
M  V30 1162 H 117.811 3.83589 1.65073 0
M  V30 1163 N 118.248 0.346503 1.53744 0
M  V30 1164 C 119.525 -0.304532 1.93215 0
M  V30 1165 C 119.905 -1.67993 1.27834 0
M  V30 1166 O 119.253 -2.24411 0.430352 0
M  V30 1167 C 119.463 -0.373852 3.46992 0
M  V30 1168 C 120.811 -0.62329 4.2 0
M  V30 1169 O 121.835 -0.455847 3.53271 0
M  V30 1170 O 120.694 -0.947879 5.38217 0
M  V30 1171 H 117.788 -0.178318 0.807547 0
M  V30 1172 H 120.334 0.397895 1.64969 0
M  V30 1173 H 119.106 0.591224 3.86808 0
M  V30 1174 H 118.729 -1.12294 3.81413 0
M  V30 1175 N 119.726 -1.57421 0.075193 0
M  V30 1176 C 121.137 -1.81021 -0.456964 0
M  V30 1177 C 121.488 -0.98936 -1.69429 0
M  V30 1178 O 120.613 -0.212865 -2.15351 0
M  V30 1179 C 121.208 -3.28329 -0.83581 0
M  V30 1180 C 119.767 -3.52764 -1.31281 0
M  V30 1181 C 118.914 -2.75676 -0.299648 0
M  V30 1182 H 121.865 -1.55822 0.300856 0
M  V30 1183 H 121.886 -3.40564 -1.69696 0
M  V30 1184 H 121.398 -3.88046 0.0649238 0
M  V30 1185 H 119.499 -2.98355 -2.23193 0
M  V30 1186 H 119.612 -4.61451 -1.28839 0
M  V30 1187 H 117.976 -2.42538 -0.777641 0
M  V30 1188 H 118.759 -3.38132 0.593417 0
M  V30 1189 N 121.204 0.198386 -1.56346 0
M  V30 1190 C 122.429 0.939682 -1.84891 0
M  V30 1191 C 122.854 1.76202 -0.658369 0
M  V30 1192 O 122.212 1.76993 0.392851 0
M  V30 1193 C 122.26 1.81428 -3.11635 0
M  V30 1194 O 121.364 2.91265 -2.91956 0
M  V30 1195 H 120.705 0.264807 -0.608912 0
M  V30 1196 H 123.235 0.204695 -2.03573 0
M  V30 1197 H 123.245 2.21958 -3.42343 0
M  V30 1198 H 121.92 1.21004 -3.97908 0
M  V30 1199 H 120.497 2.54514 -2.72538 0
M  V30 1200 N 122.682 1.50554 0.465978 0
M  V30 1201 C 123.612 1.72722 1.57128 0
M  V30 1202 C 124.593 0.576294 1.6004 0
M  V30 1203 O 125.778 0.81598 1.76225 0
M  V30 1204 C 122.908 1.82605 2.95419 0
M  V30 1205 C 121.862 2.97835 3.07373 0
M  V30 1206 C 121.188 2.92867 4.47363 0
M  V30 1207 C 122.488 4.38265 2.84114 0
M  V30 1208 H 124.182 2.65267 1.38829 0
M  V30 1209 H 121.728 1.2765 0.666441 0
M  V30 1210 H 123.681 1.96698 3.72677 0
M  V30 1211 H 122.405 0.866858 3.14886 0
M  V30 1212 H 121.064 2.83401 2.3255 0
M  V30 1213 H 120.712 1.94783 4.63755 0
M  V30 1214 H 120.412 3.70227 4.56296 0
M  V30 1215 H 121.936 3.09015 5.26633 0
M  V30 1216 H 123.35 4.53198 3.51118 0
M  V30 1217 H 121.747 5.17115 3.04487 0
M  V30 1218 H 122.817 4.50281 1.7993 0
M  V30 1219 N 124.16 -0.719506 1.40217 0
M  V30 1220 C 125.092 -1.84428 1.36084 0
M  V30 1221 C 126.105 -1.60597 0.266913 0
M  V30 1222 O 127.294 -1.70544 0.526983 0
M  V30 1223 C 124.394 -3.20757 1.094 0
M  V30 1224 C 123.567 -3.71817 2.30372 0
M  V30 1225 C 122.626 -4.86748 1.99907 0
M  V30 1226 O 121.652 -4.99603 2.72737 0
M  V30 1227 N 122.854 -5.7226 0.974635 0
M  V30 1228 H 125.619 -1.88473 2.33019 0
M  V30 1229 H 123.18 -0.900885 1.3452 0
M  V30 1230 H 125.172 -3.95235 0.870116 0
M  V30 1231 H 123.742 -3.11884 0.211452 0
M  V30 1232 H 122.962 -2.88514 2.68614 0
M  V30 1233 H 124.25 -4.02666 3.11026 0
M  V30 1234 H 123.648 -5.6448 0.371368 0
M  V30 1235 H 122.205 -6.46739 0.810656 0
M  V30 1236 N 125.638 -1.25649 -0.95132 0
M  V30 1237 C 127.054 -1.02542 -1.223 0
M  V30 1238 C 127.254 0.255715 -1.99871 0
M  V30 1239 O 126.31 0.967558 -2.33226 0
M  V30 1240 C 127.623 -2.25065 -1.99415 0
M  V30 1241 C 129.171 -2.29861 -2.12446 0
M  V30 1242 C 129.646 -3.52048 -2.92961 0
M  V30 1243 N 131.137 -3.52465 -3.00538 0
M  V30 1244 C 131.872 -4.43672 -3.63239 0
M  V30 1245 N 131.368 -5.45157 -4.27523 0
M  V30 1246 N 133.161 -4.31346 -3.60412 0
M  V30 1247 H 125.312 -2.07951 -0.432471 0
M  V30 1248 H 127.575 -0.91339 -0.253816 0
M  V30 1249 H 127.281 -3.18194 -1.49817 0
M  V30 1250 H 127.155 -2.28502 -3.00111 0
M  V30 1251 H 129.542 -1.37252 -2.61239 0
M  V30 1252 H 129.623 -2.3044 -1.11044 0
M  V30 1253 H 129.267 -4.44981 -2.44856 0
M  V30 1254 H 129.197 -3.48715 -3.94596 0
M  V30 1255 H 131.688 -2.79056 -2.54826 0
M  V30 1256 H 132.001 -6.10958 -4.73234 0
M  V30 1257 H 130.346 -5.49025 -4.26141 0
M  V30 1258 H 133.537 -3.51288 -3.09377 0
M  V30 1259 H 133.71 -5.02624 -4.0899 0
M  V30 1260 N 127.117 1.15442 -1.07289 0
M  V30 1261 C 128.363 1.86489 -0.796846 0
M  V30 1262 C 128.696 1.82078 0.675371 0
M  V30 1263 O 127.971 1.24346 1.4956 0
M  V30 1264 C 128.254 3.35626 -1.30489 0
M  V30 1265 C 128.107 3.48673 -2.84161 0
M  V30 1266 C 129.426 4.30357 -0.920907 0
M  V30 1267 H 126.545 0.677144 -0.290939 0
M  V30 1268 H 129.187 1.35633 -1.33056 0
M  V30 1269 H 127.337 3.79068 -0.850883 0
M  V30 1270 H 129.009 3.14099 -3.37846 0
M  V30 1271 H 127.252 2.90253 -3.22391 0
M  V30 1272 H 127.923 4.53453 -3.14777 0
M  V30 1273 H 130.399 3.94871 -1.3121 0
M  V30 1274 H 129.275 5.33193 -1.30372 0
M  V30 1275 H 129.536 4.4176 0.173226 0
M  V30 1276 N 128.595 0.856903 1.32268 0
M  V30 1277 C 130.011 0.547061 1.49931 0
M  V30 1278 C 130.211 -0.921781 1.7918 0
M  V30 1279 O 129.267 -1.70469 1.8627 0
M  V30 1280 C 130.58 1.43599 2.64196 0
M  V30 1281 C 132.128 1.43665 2.78081 0
M  V30 1282 C 132.603 2.31085 3.95428 0
M  V30 1283 N 134.094 2.28893 4.02694 0
M  V30 1284 C 134.829 2.93262 4.92732 0
M  V30 1285 N 134.325 3.66751 5.87763 0
M  V30 1286 N 136.118 2.82638 4.85873 0
M  V30 1287 H 128.269 1.8075 1.11549 0
M  V30 1288 H 130.532 0.772144 0.549997 0
M  V30 1289 H 130.238 2.48058 2.49319 0
M  V30 1290 H 130.112 1.12502 3.60032 0
M  V30 1291 H 132.499 0.399701 2.92381 0
M  V30 1292 H 132.58 1.7878 1.82952 0
M  V30 1293 H 132.224 3.34849 3.81888 0
M  V30 1294 H 132.154 1.93302 4.89839 0
M  V30 1295 H 134.645 1.75466 3.34694 0
M  V30 1296 H 134.958 4.13027 6.53168 0
M  V30 1297 H 133.303 3.70859 5.87783 0
M  V30 1298 H 136.494 2.24774 4.10602 0
M  V30 1299 H 136.667 3.33084 5.55841 0
M  V30 1300 N 130.073 -1.45103 0.615059 0
M  V30 1301 C 131.005 -2.28786 -0.13762 0
M  V30 1302 C 132.018 -1.40376 -0.824525 0
M  V30 1303 O 133.207 -1.64681 -0.688662 0
M  V30 1304 C 130.307 -3.16322 -1.21628 0
M  V30 1305 C 129.48 -4.33054 -0.615039 0
M  V30 1306 C 128.539 -5.01743 -1.58556 0
M  V30 1307 O 127.565 -5.58293 -1.10895 0
M  V30 1308 N 128.767 -5.01714 -2.91998 0
M  V30 1309 H 131.532 -2.94025 0.580483 0
M  V30 1310 H 129.093 -1.55373 0.45507 0
M  V30 1311 H 131.085 -3.59139 -1.86552 0
M  V30 1312 H 129.655 -2.52943 -1.83681 0
M  V30 1313 H 128.875 -3.93627 0.21245 0
M  V30 1314 H 130.163 -5.08431 -0.193704 0
M  V30 1315 H 129.561 -4.57075 -3.33316 0
M  V30 1316 H 128.118 -5.48371 -3.52325 0
M  V30 1317 N 131.551 -0.354651 -1.53558 0
M  V30 1318 C 132.461 0.50515 -2.29097 0
M  V30 1319 C 133.477 1.10223 -1.34636 0
M  V30 1320 O 134.653 1.11553 -1.67684 0
M  V30 1321 C 131.718 1.63479 -3.05738 0
M  V30 1322 C 130.779 1.06636 -4.15845 0
M  V30 1323 C 130.012 2.14217 -4.88822 0
M  V30 1324 O 130.235 3.35137 -4.61562 0
M  V30 1325 O 129.169 1.77887 -5.75013 0
M  V30 1326 H 132.995 -0.109237 -3.03503 0
M  V30 1327 H 130.58 -0.119357 -1.48922 0
M  V30 1328 H 132.462 2.2918 -3.5363 0
M  V30 1329 H 131.137 2.23478 -2.34178 0
M  V30 1330 H 130.044 0.373565 -3.7223 0
M  V30 1331 H 131.377 0.511081 -4.89539 0
M  V30 1332 N 133.029 1.57378 -0.0835403 0
M  V30 1333 C 133.939 2.16897 0.894021 0
M  V30 1334 C 134.955 1.13528 1.31861 0
M  V30 1335 O 136.131 1.45848 1.3889 0
M  V30 1336 C 133.196 2.72831 2.13925 0
M  V30 1337 C 132.257 3.91115 1.76997 0
M  V30 1338 C 131.49 4.44371 2.95584 0
M  V30 1339 O 131.713 3.96596 4.09961 0
M  V30 1340 O 130.647 5.35549 2.74719 0
M  V30 1341 H 134.473 3.00814 0.417679 0
M  V30 1342 H 132.058 1.48741 0.140181 0
M  V30 1343 H 133.94 3.0863 2.86924 0
M  V30 1344 H 132.615 1.91967 2.60635 0
M  V30 1345 H 131.522 3.60148 1.01214 0
M  V30 1346 H 132.855 4.73307 1.3506 0
M  V30 1347 N 134.507 -0.190092 1.56449 0
M  V30 1348 C 135.732 -0.929864 1.85387 0
M  V30 1349 C 136.157 -1.7585 0.667704 0
M  V30 1350 O 135.515 -1.77198 -0.383459 0
M  V30 1351 C 135.563 -1.79773 3.12593 0
M  V30 1352 O 134.667 -2.89713 2.93496 0
M  V30 1353 H 134.008 -0.261574 0.610307 0
M  V30 1354 H 136.538 -0.193896 2.03679 0
M  V30 1355 H 136.548 -2.20139 3.43515 0
M  V30 1356 H 135.223 -1.18892 3.98544 0
M  V30 1357 H 133.8 -2.53065 2.73884 0
M  V30 1358 N 135.985 -1.50799 -0.457987 0
M  V30 1359 C 136.895 -1.73426 -1.57989 0
M  V30 1360 C 137.911 -0.617745 -1.62665 0
M  V30 1361 O 139.087 -0.897614 -1.80291 0
M  V30 1362 C 136.152 -1.83557 -2.94122 0
M  V30 1363 C 135.213 -3.07345 -2.99729 0
M  V30 1364 C 134.446 -3.16983 -4.29368 0
M  V30 1365 O 134.669 -2.33077 -5.20607 0
M  V30 1366 O 133.603 -4.09812 -4.40837 0
M  V30 1367 H 137.429 -2.68555 -1.41817 0
M  V30 1368 H 135.014 -1.35052 -0.638859 0
M  V30 1369 H 136.896 -1.92326 -3.74952 0
M  V30 1370 H 135.571 -0.916137 -3.10465 0
M  V30 1371 H 134.478 -3.04068 -2.1793 0
M  V30 1372 H 135.811 -3.9891 -2.88326 0
M  V30 1373 N 137.463 0.71206 -1.40597 0
M  V30 1374 C 138.395 1.83704 -1.37061 0
M  V30 1375 C 139.408 1.60453 -0.275426 0
M  V30 1376 O 140.597 1.70262 -0.53602 0
M  V30 1377 C 137.697 3.20172 -1.11099 0
M  V30 1378 C 136.87 3.7059 -2.3234 0
M  V30 1379 C 135.929 4.85681 -2.02485 0
M  V30 1380 O 134.955 4.9815 -2.75382 0
M  V30 1381 N 136.157 5.71735 -1.00497 0
M  V30 1382 H 138.922 1.87235 -2.34016 0
M  V30 1383 H 136.483 0.893739 -1.34996 0
M  V30 1384 H 138.475 3.94768 -0.891064 0
M  V30 1385 H 137.045 3.11767 -0.227989 0
M  V30 1386 H 136.265 2.87085 -2.7014 0
M  V30 1387 H 137.553 4.01011 -3.13157 0
M  V30 1388 H 136.951 5.64275 -0.401298 0
M  V30 1389 H 135.508 6.463 -0.844942 0
M  V30 1390 N 138.941 1.26152 0.944643 0
M  V30 1391 C 140.19 1.10883 1.68487 0
M  V30 1392 C 140.503 -0.348153 1.92477 0
M  V30 1393 O 141.709 -0.621459 2.64292 0
M  V30 1394 C 140.165 1.93624 3.03377 0
M  V30 1395 C 139.773 3.43875 2.87148 0
M  V30 1396 C 141.517 1.86954 3.81115 0
M  V30 1397 C 139.424 4.18875 4.1749 0
M  V30 1398 H 138.354 0.41135 0.631907 0
M  V30 1399 H 141.005 1.50433 1.05082 0
M  V30 1400 H 139.387 1.46904 3.67743 0
M  V30 1401 H 140.561 3.98338 2.31653 0
M  V30 1402 H 138.876 3.51744 2.22856 0
M  V30 1403 H 141.473 2.40275 4.77673 0
M  V30 1404 H 141.816 0.839518 4.07747 0
M  V30 1405 H 142.349 2.31477 3.23517 0
M  V30 1406 H 139.088 5.22332 3.96043 0
M  V30 1407 H 138.608 3.69193 4.72712 0
M  V30 1408 H 140.287 4.27134 4.85968 0
M  V30 1409 N 140.419 -1.14872 1.07899 0
M  V30 1410 C 141.366 -2.19791 0.704319 0
M  V30 1411 C 142.336 -1.63238 -0.306987 0
M  V30 1412 O 143.521 -1.8983 -0.192171 0
M  V30 1413 C 140.661 -3.44911 0.114244 0
M  V30 1414 C 139.774 -4.15637 1.1777 0
M  V30 1415 C 138.909 -5.28324 0.552037 0
M  V30 1416 C 137.948 -5.90875 1.59789 0
M  V30 1417 N 137.085 -6.95022 0.994404 0
M  V30 1418 H 141.925 -2.5119 1.60336 0
M  V30 1419 H 139.462 -1.23356 0.801352 0
M  V30 1420 H 141.42 -4.16477 -0.245544 0
M  V30 1421 H 140.05 -3.14011 -0.74813 0
M  V30 1422 H 139.102 -3.42512 1.65499 0
M  V30 1423 H 140.414 -4.5823 1.97046 0
M  V30 1424 H 139.568 -6.06538 0.1402 0
M  V30 1425 H 138.307 -4.86939 -0.272431 0
M  V30 1426 H 137.312 -5.11369 2.01945 0
M  V30 1427 H 138.537 -6.34337 2.42474 0
M  V30 1428 H 136.483 -6.55722 0.190939 0
M  V30 1429 H 136.4 -7.36073 1.72432 0
M  V30 1430 H 137.668 -7.77123 0.608253 0
M  V30 1431 N 141.898 -0.863906 -1.31812 0
M  V30 1432 C 143.126 -0.486111 -2.01108 0
M  V30 1433 C 143.541 0.919755 -1.64882 0
M  V30 1434 O 142.898 1.60162 -0.874893 0
M  V30 1435 C 142.949 -0.626435 -3.56031 0
M  V30 1436 O 142.67 -1.97693 -3.90959 0
M  V30 1437 C 144.171 -0.248857 -4.42601 0
M  V30 1438 H 141.391 -0.190052 -0.643523 0
M  V30 1439 H 143.935 -1.1634 -1.68182 0
M  V30 1440 H 142.09 0.00322717 -3.874 0
M  V30 1441 H 142.504 -1.98034 -4.85678 0
M  V30 1442 H 143.978 -0.398016 -5.50563 0
M  V30 1443 H 144.455 0.811489 -4.31638 0
M  V30 1444 H 145.061 -0.853971 -4.16638 0
M  V30 1445 N 143.376 1.44774 -0.622745 0
M  V30 1446 C 144.306 2.33382 0.0741861 0
M  V30 1447 C 145.287 1.47719 0.843387 0
M  V30 1448 O 146.472 1.76458 0.810934 0
M  V30 1449 C 143.602 3.30663 1.06204 0
M  V30 1450 C 142.556 4.26079 0.405037 0
M  V30 1451 C 141.882 5.13165 1.5022 0
M  V30 1452 C 143.182 5.1781 -0.683414 0
M  V30 1453 H 144.876 2.91905 -0.665713 0
M  V30 1454 H 142.422 1.40363 -0.321587 0
M  V30 1455 H 144.375 3.9153 1.55827 0
M  V30 1456 H 143.099 2.70331 1.83272 0
M  V30 1457 H 141.758 3.66532 -0.0704683 0
M  V30 1458 H 141.406 4.49191 2.26355 0
M  V30 1459 H 141.106 5.77812 1.06803 0
M  V30 1460 H 142.63 5.76902 2.00041 0
M  V30 1461 H 144.044 5.72661 -0.270631 0
M  V30 1462 H 142.441 5.91015 -1.04023 0
M  V30 1463 H 143.511 4.59326 -1.55395 0
M  V30 1464 N 144.854 0.36279 1.53368 0
M  V30 1465 C 145.802 -0.500155 2.27159 0
M  V30 1466 C 146.796 -1.08575 1.3003 0
M  V30 1467 O 148.002 -1.02927 1.47668 0
M  V30 1468 H 144.377 -0.180009 0.730138 0
M  V30 1469 H 146.348 0.14401 2.98052 0
M  V30 1470 C 145.097 -1.62937 3.07159 0
M  V30 1471 H 144.42 -1.18806 3.8174 0
M  V30 1472 H 145.86 -2.20795 3.61975 0
M  V30 1473 C 144.319 -2.57007 2.17829 0
M  V30 1474 O 144.849 -3.59752 1.78721 0
M  V30 1475 N 143.055 -2.26131 1.82518 0
M  V30 1476 H 142.602 -1.42616 2.14519 0
M  V30 1477 H 142.56 -2.89327 1.23034 0
M  V30 1478 N 146.332 -1.57332 0.0918853 0
M  V30 1479 C 147.28 -2.15075 -0.885747 0
M  V30 1480 C 148.274 -1.09277 -1.29441 0
M  V30 1481 O 149.48 -1.27627 -1.26931 0
M  V30 1482 H 145.855 -0.687966 -0.303656 0
M  V30 1483 H 147.826 -2.96047 -0.373995 0
M  V30 1484 C 146.575 -2.74325 -2.13638 0
M  V30 1485 H 145.898 -3.55418 -1.8308 0
M  V30 1486 H 147.338 -3.183 -2.80109 0
M  V30 1487 C 145.797 -1.70062 -2.90827 0
M  V30 1488 O 146.327 -1.13763 -3.85254 0
M  V30 1489 N 144.533 -1.40628 -2.54307 0
M  V30 1490 H 144.08 -1.866 -1.7759 0
M  V30 1491 H 144.038 -0.711043 -3.06254 0
M  V30 1492 N 147.81 0.181792 -1.56548 0
M  V30 1493 C 148.757 1.22521 -1.95595 0
M  V30 1494 C 149.727 1.4454 -0.818373 0
M  V30 1495 O 150.912 1.57454 -1.07763 0
M  V30 1496 C 148.052 2.56193 -2.31212 0
M  V30 1497 C 147.165 2.41641 -3.58097 0
M  V30 1498 C 146.3 3.68108 -3.82975 0
M  V30 1499 C 145.339 3.48445 -5.03242 0
M  V30 1500 N 144.476 4.66956 -5.24306 0
M  V30 1501 H 149.316 0.885226 -2.84548 0
M  V30 1502 H 146.853 0.425718 -1.40805 0
M  V30 1503 H 148.811 3.34088 -2.49882 0
M  V30 1504 H 147.441 2.88208 -1.45382 0
M  V30 1505 H 146.493 1.54976 -3.474 0
M  V30 1506 H 147.805 2.23052 -4.46149 0
M  V30 1507 H 146.959 4.54441 -4.01956 0
M  V30 1508 H 145.698 3.89666 -2.93278 0
M  V30 1509 H 144.703 2.60499 -4.8417 0
M  V30 1510 H 145.928 3.2832 -5.9446 0
M  V30 1511 H 143.874 4.88752 -4.37559 0
M  V30 1512 H 143.791 4.51242 -6.06561 0
M  V30 1513 H 145.059 5.54602 -5.47756 0
M  V30 1514 N 149.288 1.51039 0.449983 0
M  V30 1515 C 150.535 1.63081 1.20045 0
M  V30 1516 C 150.863 0.341024 1.91487 0
M  V30 1517 O 150.118 -0.674276 1.83717 0
M  V30 1518 C 150.417 2.77556 2.25161 0
M  V30 1519 C 150.083 4.17289 1.70823 0
M  V30 1520 C 148.745 4.55305 1.55725 0
M  V30 1521 C 151.097 5.04536 1.3074 0
M  V30 1522 C 148.425 5.78287 0.989999 0
M  V30 1523 C 150.777 6.28085 0.754482 0
M  V30 1524 C 149.441 6.64885 0.590308 0
M  V30 1525 H 148.711 0.596755 0.439277 0
M  V30 1526 H 151.358 1.85037 0.49333 0
M  V30 1527 H 149.663 2.49771 3.01863 0
M  V30 1528 H 151.36 2.84073 2.83026 0
M  V30 1529 H 147.95 3.8731 1.83546 0
M  V30 1530 H 152.134 4.75782 1.41229 0
M  V30 1531 H 147.39 6.05456 0.850451 0
M  V30 1532 H 151.564 6.95038 0.435324 0
M  V30 1533 H 149.191 7.60055 0.14862 0
M  V30 1534 N 150.766 -0.704594 1.40972 0
M  V30 1535 C 151.729 -1.80035 1.41845 0
M  V30 1536 C 152.729 -1.57774 0.310474 0
M  V30 1537 O 153.919 -1.64613 0.56992 0
M  V30 1538 C 151.051 -3.18284 1.22098 0
M  V30 1539 H 152.244 -1.80658 2.3938 0
M  V30 1540 H 149.797 -0.911329 1.26982 0
M  V30 1541 H 150.532 -3.23306 0.253672 0
M  V30 1542 H 150.317 -3.35843 2.02366 0
M  V30 1543 H 151.807 -3.98289 1.25522 0
M  V30 1544 N 152.244 -1.26651 -0.937939 0
M  V30 1545 C 153.469 -1.15279 -1.72411 0
M  V30 1546 C 153.894 0.287866 -1.85884 0
M  V30 1547 O 153.252 1.20855 -1.35143 0
M  V30 1548 C 153.3 -1.83028 -3.10698 0
M  V30 1549 O 152.404 -1.12128 -3.96864 0
M  V30 1550 H 151.745 -0.401504 -0.528858 0
M  V30 1551 H 154.275 -1.67531 -1.1745 0
M  V30 1552 H 154.285 -1.89981 -3.6107 0
M  V30 1553 H 152.96 -2.87833 -3.00208 0
M  V30 1554 H 151.537 -1.13173 -3.55312 0
M  V30 1555 N 153.722 1.14298 -1.08507 0
M  V30 1556 C 154.969 1.85359 -0.815373 0
M  V30 1557 C 155.297 1.83001 0.658865 0
M  V30 1558 O 154.552 1.25655 1.50031 0
M  V30 1559 C 154.851 3.33547 -1.28379 0
M  V30 1560 C 154.517 3.56093 -2.76602 0
M  V30 1561 C 153.179 3.61955 -3.17084 0
M  V30 1562 C 155.531 3.64834 -3.72217 0
M  V30 1563 C 152.859 3.74082 -4.51973 0
M  V30 1564 C 155.211 3.78487 -5.06883 0
M  V30 1565 C 153.875 3.82598 -5.46969 0
M  V30 1566 H 153.145 0.678276 -0.298366 0
M  V30 1567 H 155.792 1.35002 -1.35819 0
M  V30 1568 H 154.097 3.86191 -0.660593 0
M  V30 1569 H 155.794 3.86959 -1.05186 0
M  V30 1570 H 152.384 3.52179 -2.4427 0
M  V30 1571 H 156.568 3.59595 -3.42061 0
M  V30 1572 H 151.824 3.75527 -4.82483 0
M  V30 1573 H 155.998 3.84193 -5.80834 0
M  V30 1574 H 153.625 3.91747 -6.51489 0
M  V30 1575 N 155.201 0.870884 1.31352 0
M  V30 1576 C 156.45 0.478408 1.95944 0
M  V30 1577 C 156.763 -0.974493 1.69597 0
M  V30 1578 O 157.969 -1.47316 2.28058 0
M  V30 1579 C 156.425 0.804609 3.50791 0
M  V30 1580 C 156.033 2.27433 3.85977 0
M  V30 1581 C 157.777 0.480648 4.2177 0
M  V30 1582 C 155.684 2.5429 5.33939 0
M  V30 1583 H 154.614 0.175175 0.733369 0
M  V30 1584 H 157.265 1.06391 1.4951 0
M  V30 1585 H 155.647 0.148347 3.95722 0
M  V30 1586 H 156.821 2.97373 3.52002 0
M  V30 1587 H 155.136 2.56442 3.28065 0
M  V30 1588 H 157.733 0.658519 5.30629 0
M  V30 1589 H 158.076 -0.578979 4.12254 0
M  V30 1590 H 158.609 1.09349 3.82476 0
M  V30 1591 H 155.348 3.58939 5.48491 0
M  V30 1592 H 154.868 1.88945 5.69263 0
M  V30 1593 H 156.547 2.39066 6.01212 0
M  V30 1594 N 156.679 -1.44442 0.630414 0
M  V30 1595 C 157.956 -1.9549 0.0655657 0
M  V30 1596 C 158.336 -1.5724 -1.40851 0
M  V30 1597 O 157.684 -0.846116 -2.12257 0
M  V30 1598 C 157.894 -3.47812 0.287691 0
M  V30 1599 C 159.242 -4.24216 0.180513 0
M  V30 1600 O 160.266 -3.55526 0.219019 0
M  V30 1601 O 159.125 -5.46434 0.0848493 0
M  V30 1602 H 156.219 -0.826688 -0.0227177 0
M  V30 1603 H 158.765 -1.54496 0.702068 0
M  V30 1604 H 157.537 -3.687 1.31056 0
M  V30 1605 H 157.16 -3.95751 -0.382984 0
M  V30 1606 N 158.157 -0.370918 -1.53173 0
M  V30 1607 C 159.104 0.473035 -2.259 0
M  V30 1608 C 160.074 1.07311 -1.26781 0
M  V30 1609 O 161.259 1.1046 -1.55574 0
M  V30 1610 C 158.399 1.60405 -3.05556 0
M  V30 1611 C 157.512 1.02863 -4.19575 0
M  V30 1612 C 156.647 2.12918 -4.86661 0
M  V30 1613 C 155.686 1.52869 -5.92704 0
M  V30 1614 N 154.823 2.56779 -6.53459 0
M  V30 1615 H 159.663 -0.153649 -2.97604 0
M  V30 1616 H 157.2 -0.0875946 -1.46839 0
M  V30 1617 H 159.158 2.27034 -3.50016 0
M  V30 1618 H 157.788 2.20131 -2.36097 0
M  V30 1619 H 156.84 0.252465 -3.79561 0
M  V30 1620 H 158.152 0.549642 -4.95762 0
M  V30 1621 H 157.306 2.87356 -5.34333 0
M  V30 1622 H 156.045 2.6417 -4.09958 0
M  V30 1623 H 155.05 0.769479 -5.44389 0
M  V30 1624 H 156.275 1.02435 -6.7133 0
M  V30 1625 H 154.221 3.07235 -5.79606 0
M  V30 1626 H 154.138 2.13583 -7.25202 0
M  V30 1627 H 155.406 3.30903 -7.05779 0
M  V30 1628 N 159.635 1.57281 -0.100228 0
M  V30 1629 C 160.881 1.94826 0.563101 0
M  V30 1630 C 161.214 0.982475 1.67514 0
M  V30 1631 O 160.489 0.0164069 1.94493 0
M  V30 1632 C 160.772 3.42453 1.11346 0
M  V30 1633 C 160.625 4.498 0.00612081 0
M  V30 1634 C 161.944 3.91506 2.01024 0
M  V30 1635 H 159.063 0.708428 0.203221 0
M  V30 1636 H 161.705 1.8922 -0.171979 0
M  V30 1637 H 159.855 3.47361 1.7399 0
M  V30 1638 H 161.527 4.57 -0.628357 0
M  V30 1639 H 159.77 4.28756 -0.659581 0
M  V30 1640 H 160.441 5.50306 0.432109 0
M  V30 1641 H 162.917 3.88784 1.48278 0
M  V30 1642 H 161.793 4.95358 2.36457 0
M  V30 1643 H 162.054 3.31099 2.92961 0
M  V30 1644 N 161.113 -0.173488 1.56642 0
M  V30 1645 C 162.529 -0.525174 1.50712 0
M  V30 1646 C 162.729 -1.8476 0.804107 0
M  V30 1647 O 161.785 -2.49869 0.363574 0
M  V30 1648 C 163.098 -0.559937 2.95441 0
M  V30 1649 C 164.646 -0.647288 3.06234 0
M  V30 1650 C 165.121 -0.712963 4.52417 0
M  V30 1651 N 166.612 -0.775911 4.56655 0
M  V30 1652 C 167.347 -0.847264 5.67106 0
M  V30 1653 N 166.843 -0.879585 6.87194 0
M  V30 1654 N 168.636 -0.886117 5.55071 0
M  V30 1655 H 160.787 0.693681 2.00753 0
M  V30 1656 H 163.05 0.249841 0.914485 0
M  V30 1657 H 162.756 0.343049 3.50023 0
M  V30 1658 H 162.63 -1.40718 3.49969 0
M  V30 1659 H 165.017 -1.5407 2.51687 0
M  V30 1660 H 165.098 0.226586 2.54794 0
M  V30 1661 H 164.742 0.176183 5.07594 0
M  V30 1662 H 164.672 -1.60295 5.0161 0
M  V30 1663 H 167.163 -0.759304 3.70193 0
M  V30 1664 H 167.476 -0.935144 7.67121 0
M  V30 1665 H 165.821 -0.847898 6.89808 0
M  V30 1666 H 169.012 -0.857853 4.60172 0
M  V30 1667 H 169.185 -0.938263 6.41171 0
M  V30 1668 N 162.591 -1.51276 -0.441967 0
M  V30 1669 C 163.838 -1.63715 -1.19179 0
M  V30 1670 C 164.166 -0.351175 -1.91303 0
M  V30 1671 O 163.421 0.664524 -1.84072 0
M  V30 1672 C 163.72 -2.78746 -2.23686 0
M  V30 1673 C 163.386 -4.18189 -1.68607 0
M  V30 1674 C 162.048 -4.56125 -1.53308 0
M  V30 1675 C 164.4 -5.05222 -1.28062 0
M  V30 1676 C 161.728 -5.78804 -0.959317 0
M  V30 1677 C 164.08 -6.28476 -0.721162 0
M  V30 1678 C 162.744 -6.65188 -0.55504 0
M  V30 1679 H 162.014 -0.599076 -0.436106 0
M  V30 1680 H 164.661 -1.85296 -0.48351 0
M  V30 1681 H 162.966 -2.51369 -3.00535 0
M  V30 1682 H 164.663 -2.8557 -2.81515 0
M  V30 1683 H 161.253 -3.88277 -1.8149 0
M  V30 1684 H 165.437 -4.76524 -1.38704 0
M  V30 1685 H 160.693 -6.05899 -0.81833 0
M  V30 1686 H 164.867 -6.95259 -0.398458 0
M  V30 1687 H 162.494 -7.60123 -0.108311 0
M  V30 1688 N 164.069 0.697108 -1.41344 0
M  V30 1689 C 164.999 1.82353 -1.45841 0
M  V30 1690 C 165.98 1.67115 -0.317247 0
M  V30 1691 O 167.165 1.86871 -0.528474 0
M  V30 1692 C 164.295 3.20476 -1.33838 0
M  V30 1693 C 163.249 3.50415 -2.4575 0
M  V30 1694 C 162.575 4.87878 -2.18813 0
M  V30 1695 C 163.875 3.49546 -3.88091 0
M  V30 1696 H 165.569 1.78846 -2.40113 0
M  V30 1697 H 163.115 0.859028 -1.15571 0
M  V30 1698 H 165.068 3.98988 -1.35596 0
M  V30 1699 H 163.792 3.24604 -0.360498 0
M  V30 1700 H 162.451 2.74253 -2.43271 0
M  V30 1701 H 162.099 4.8863 -1.19371 0
M  V30 1702 H 161.799 5.08875 -2.93803 0
M  V30 1703 H 163.323 5.68702 -2.22284 0
M  V30 1704 H 164.737 4.18066 -3.92293 0
M  V30 1705 H 163.134 3.82075 -4.62751 0
M  V30 1706 H 164.204 2.48552 -4.16353 0
M  V30 1707 N 165.547 1.27147 0.931209 0
M  V30 1708 C 166.457 1.11372 2.06478 0
M  V30 1709 C 167.473 0.044645 1.73943 0
M  V30 1710 O 168.649 0.250417 1.99837 0
M  V30 1711 C 165.714 0.758838 3.38294 0
M  V30 1712 C 164.775 1.90841 3.84549 0
M  V30 1713 C 164.008 1.57036 5.10074 0
M  V30 1714 O 164.231 0.476645 5.68405 0
M  V30 1715 O 163.165 2.40839 5.51616 0
M  V30 1716 H 166.991 2.06493 2.22698 0
M  V30 1717 H 164.576 1.06301 1.04978 0
M  V30 1718 H 166.458 0.574098 4.17471 0
M  V30 1719 H 165.133 -0.162879 3.2329 0
M  V30 1720 H 164.04 2.14819 3.06274 0
M  V30 1721 H 165.373 2.81021 4.04089 0
M  V30 1722 N 167.025 -1.13721 1.09112 0
M  V30 1723 C 167.957 -2.1871 0.685467 0
M  V30 1724 C 168.97 -1.60527 -0.271068 0
M  V30 1725 O 170.159 -1.78407 -0.0576148 0
M  V30 1726 C 167.259 -3.38898 -0.0111255 0
M  V30 1727 C 166.432 -4.26597 0.966131 0
M  V30 1728 C 165.491 -5.25324 0.303539 0
M  V30 1729 O 164.517 -5.61213 0.950177 0
M  V30 1730 N 165.719 -5.72779 -0.943651 0
M  V30 1731 H 168.484 -2.54126 1.58871 0
M  V30 1732 H 166.045 -1.29012 0.978143 0
M  V30 1733 H 168.037 -4.02014 -0.465517 0
M  V30 1734 H 166.607 -3.01747 -0.816565 0
M  V30 1735 H 165.827 -3.60306 1.59917 0
M  V30 1736 H 167.115 -4.82048 1.6281 0
M  V30 1737 H 166.513 -5.45762 -1.48862 0
M  V30 1738 H 165.07 -6.37847 -1.34142 0
M  V30 1739 N 168.503 -0.877838 -1.30888 0
M  V30 1740 C 169.435 -0.296607 -2.27273 0
M  V30 1741 C 170.448 0.544799 -1.53414 0
M  V30 1742 O 171.637 0.365511 -1.74718 0
M  V30 1743 C 168.737 0.597481 -3.33592 0
M  V30 1744 C 167.91 -0.213251 -4.3688 0
M  V30 1745 C 166.969 0.610208 -5.2265 0
M  V30 1746 O 165.995 0.035441 -5.69189 0
M  V30 1747 N 167.197 1.92071 -5.47804 0
M  V30 1748 H 169.962 -1.12492 -2.77787 0
M  V30 1749 H 167.523 -0.740105 -1.43993 0
M  V30 1750 H 169.515 1.15425 -3.87891 0
M  V30 1751 H 168.085 1.32647 -2.83061 0
M  V30 1752 H 167.305 -0.951466 -3.82545 0
M  V30 1753 H 168.593 -0.769262 -5.02951 0
M  V30 1754 H 167.991 2.4107 -5.11763 0
M  V30 1755 H 166.548 2.42508 -6.05007 0
M  V30 1756 N 169.982 1.44106 -0.638065 0
M  V30 1757 C 170.93 2.3248 0.0748149 0
M  V30 1758 C 171.924 1.47746 0.828702 0
M  V30 1759 O 173.13 1.64049 0.740816 0
M  V30 1760 H 169.505 0.750771 0.0429686 0
M  V30 1761 H 171.476 2.90348 -0.688504 0
M  V30 1762 C 170.225 3.31843 1.03805 0
M  V30 1763 H 169.548 3.97059 0.467375 0
M  V30 1764 H 170.988 3.96345 1.50622 0
M  V30 1765 C 169.447 2.61291 2.1267 0
M  V30 1766 O 169.977 2.41702 3.20847 0
M  V30 1767 N 168.183 2.20915 1.88798 0
M  V30 1768 H 167.73 2.37047 1.00829 0
M  V30 1769 H 167.688 1.74038 2.61836 0
M  V30 1770 N 171.46 0.379036 1.52974 0
M  V30 1771 C 172.407 -0.461048 2.26148 0
M  V30 1772 C 173.377 -1.06637 1.27349 0
M  V30 1773 O 174.562 -1.09633 1.56157 0
M  V30 1774 C 171.702 -1.58782 3.06402 0
M  V30 1775 C 170.815 -1.00636 4.20115 0
M  V30 1776 C 169.95 -2.10334 4.87784 0
M  V30 1777 C 168.989 -1.49724 5.93506 0
M  V30 1778 N 168.126 -2.5331 6.54812 0
M  V30 1779 H 172.966 0.169429 2.97518 0
M  V30 1780 H 170.503 0.0953806 1.4679 0
M  V30 1781 H 172.461 -2.25174 3.51215 0
M  V30 1782 H 171.091 -2.18876 2.37261 0
M  V30 1783 H 170.143 -0.232332 3.7969 0
M  V30 1784 H 171.455 -0.523343 4.96047 0
M  V30 1785 H 170.609 -2.84519 5.35849 0
M  V30 1786 H 169.348 -2.61992 4.11353 0
M  V30 1787 H 168.353 -0.740598 5.44789 0
M  V30 1788 H 169.578 -0.988732 6.71864 0
M  V30 1789 H 167.524 -3.04156 5.81227 0
M  V30 1790 H 167.441 -2.09734 7.26325 0
M  V30 1791 H 168.709 -3.27155 7.07524 0
M  V30 1792 N 172.938 -1.57226 0.108567 0
M  V30 1793 C 173.868 -2.17778 -0.84232 0
M  V30 1794 C 174.849 -1.11487 -1.2847 0
M  V30 1795 O 176.034 -1.39681 -1.34918 0
M  V30 1796 C 173.164 -2.76888 -2.09644 0
M  V30 1797 C 172.118 -3.88669 -1.79221 0
M  V30 1798 C 171.444 -4.34541 -3.11574 0
M  V30 1799 C 172.744 -5.11251 -1.06864 0
M  V30 1800 H 174.438 -2.97489 -0.337774 0
M  V30 1801 H 171.984 -1.43097 -0.161025 0
M  V30 1802 H 173.937 -3.17904 -2.76614 0
M  V30 1803 H 172.661 -1.94451 -2.62405 0
M  V30 1804 H 171.32 -3.48213 -1.14644 0
M  V30 1805 H 170.968 -3.48977 -3.62249 0
M  V30 1806 H 170.668 -5.09914 -2.91996 0
M  V30 1807 H 172.192 -4.782 -3.7968 0
M  V30 1808 H 173.606 -5.49352 -1.63968 0
M  V30 1809 H 172.003 -5.9214 -0.974178 0
M  V30 1810 H 173.073 -4.8487 -0.0536168 0
M  V30 1811 N 174.416 0.165178 -1.56732 0
M  V30 1812 C 175.346 1.20651 -1.99914 0
M  V30 1813 C 176.327 1.45827 -0.875705 0
M  V30 1814 O 177.512 1.57057 -1.14223 0
M  V30 1815 C 174.642 2.54401 -2.36427 0
M  V30 1816 C 173.596 2.43782 -3.51787 0
M  V30 1817 C 172.922 3.82078 -3.7406 0
M  V30 1818 C 174.222 1.93732 -4.85041 0
M  V30 1819 H 175.916 0.847534 -2.87154 0
M  V30 1820 H 173.462 0.40625 -1.38151 0
M  V30 1821 H 175.415 3.27458 -2.65234 0
M  V30 1822 H 174.139 2.92098 -1.46103 0
M  V30 1823 H 172.798 1.73178 -3.23117 0
M  V30 1824 H 172.446 4.17179 -2.81017 0
M  V30 1825 H 172.146 3.7584 -4.51684 0
M  V30 1826 H 173.67 4.56712 -4.05274 0
M  V30 1827 H 175.084 2.56569 -5.12684 0
M  V30 1828 H 173.481 1.98428 -5.66345 0
M  V30 1829 H 174.551 0.891962 -4.76626 0
M  V30 1830 N 175.894 1.51508 0.433938 0
M  V30 1831 C 176.804 1.75917 1.5521 0
M  V30 1832 C 177.82 0.643545 1.61662 0
M  V30 1833 O 178.996 0.926183 1.7884 0
M  V30 1834 C 176.061 1.88213 2.91164 0
M  V30 1835 C 175.122 3.12074 2.94802 0
M  V30 1836 C 174.355 3.23774 4.24271 0
M  V30 1837 O 174.578 2.4133 5.16833 0
M  V30 1838 O 173.512 4.16774 4.34262 0
M  V30 1839 H 177.338 2.70777 1.37527 0
M  V30 1840 H 174.923 1.36051 0.617293 0
M  V30 1841 H 176.805 1.98267 3.71845 0
M  V30 1842 H 175.48 0.965413 3.08968 0
M  V30 1843 H 174.387 3.07497 2.13065 0
M  V30 1844 H 175.72 4.03446 2.81943 0
M  V30 1845 N 177.372 -0.689602 1.41712 0
M  V30 1846 C 178.6 -1.47827 1.44758 0
M  V30 1847 C 179.015 -1.88721 0.0545703 0
M  V30 1848 O 178.372 -1.57176 -0.927463 0
M  V30 1849 C 178.423 -2.73698 2.3616 0
M  V30 1850 O 178.144 -2.34524 3.7004 0
M  V30 1851 C 179.645 -3.67389 2.48072 0
M  V30 1852 H 176.865 -0.455357 0.49284 0
M  V30 1853 H 179.409 -0.848574 1.86063 0
M  V30 1854 H 177.564 -3.32891 1.98148 0
M  V30 1855 H 177.978 -3.15701 4.18847 0
M  V30 1856 H 179.452 -4.52475 3.16181 0
M  V30 1857 H 179.929 -4.12284 1.51388 0
M  V30 1858 H 180.535 -3.14097 2.86746 0
M  V30 1859 N 178.85 -1.27639 -0.924453 0
M  V30 1860 C 179.797 -1.10644 -2.0255 0
M  V30 1861 C 180.767 -0.00658438 -1.66099 0
M  V30 1862 O 181.952 -0.16952 -1.90045 0
M  V30 1863 C 179.092 -0.76309 -3.36557 0
M  V30 1864 C 178.205 -1.94091 -3.85944 0
M  V30 1865 C 177.34 -1.53914 -5.08413 0
M  V30 1866 C 176.379 -2.68425 -5.50104 0
M  V30 1867 N 175.516 -2.28815 -6.63768 0
M  V30 1868 H 180.356 -2.04858 -2.16419 0
M  V30 1869 H 177.893 -1.01974 -1.06017 0
M  V30 1870 H 179.851 -0.544822 -4.13627 0
M  V30 1871 H 178.481 0.142102 -3.22487 0
M  V30 1872 H 177.533 -2.27162 -3.05125 0
M  V30 1873 H 178.845 -2.7998 -4.12811 0
M  V30 1874 H 177.999 -1.28231 -5.92994 0
M  V30 1875 H 176.738 -0.651391 -4.8333 0
M  V30 1876 H 175.743 -2.94819 -4.64071 0
M  V30 1877 H 176.968 -3.57826 -5.7718 0
M  V30 1878 H 174.914 -1.42495 -6.40337 0
M  V30 1879 H 174.831 -3.08242 -6.90306 0
M  V30 1880 H 176.099 -2.06387 -7.51681 0
M  V30 1881 N 180.328 1.1314 -1.09713 0
M  V30 1882 C 181.574 1.84967 -0.846104 0
M  V30 1883 C 181.929 1.82082 0.621601 0
M  V30 1884 O 181.222 1.2501 1.452 0
M  V30 1885 C 181.416 3.32167 -1.3191 0
M  V30 1886 C 181.245 3.49386 -2.83125 0
M  V30 1887 C 180.015 3.63456 -3.51038 0
M  V30 1888 C 182.213 3.45179 -3.81256 0
M  V30 1889 N 180.195 3.68966 -4.9065 0
M  V30 1890 C 181.566 3.57094 -5.06837 0
M  V30 1891 C 183.621 3.28598 -3.74069 0
M  V30 1892 C 182.324 3.5414 -6.26081 0
M  V30 1893 C 184.35 3.26953 -4.92804 0
M  V30 1894 C 183.712 3.39422 -6.17229 0
M  V30 1895 H 179.811 0.692899 -0.362512 0
M  V30 1896 H 182.395 1.35506 -1.39808 0
M  V30 1897 H 180.566 3.80186 -0.794535 0
M  V30 1898 H 182.298 3.91815 -1.01308 0
M  V30 1899 H 179.053 3.65256 -3.01471 0
M  V30 1900 H 179.477 3.75404 -5.63383 0
M  V30 1901 H 184.119 3.17858 -2.78794 0
M  V30 1902 H 181.837 3.63653 -7.21653 0
M  V30 1903 H 185.423 3.15316 -4.88945 0
M  V30 1904 H 184.303 3.38114 -7.07565 0
M  V30 1905 N 181.806 0.884767 1.30421 0
M  V30 1906 C 183.034 0.518044 2.0031 0
M  V30 1907 C 183.449 -0.893408 1.66324 0
M  V30 1908 O 182.806 -1.5875 0.900262 0
M  V30 1909 C 182.857 0.682997 3.54989 0
M  V30 1910 O 182.578 2.03888 3.87764 0
M  V30 1911 C 184.079 0.31924 4.42149 0
M  V30 1912 H 181.299 0.200265 0.640418 0
M  V30 1913 H 183.843 1.19001 1.6631 0
M  V30 1914 H 181.998 0.0584052 3.87356 0
M  V30 1915 H 182.412 2.05735 4.82466 0
M  V30 1916 H 183.886 0.485555 5.4986 0
M  V30 1917 H 184.363 -0.742717 4.32875 0
M  V30 1918 H 184.969 0.920147 4.15227 0
M  V30 1919 N 183.284 -1.43765 0.645699 0
M  V30 1920 C 184.214 -2.33471 -0.0370477 0
M  V30 1921 C 185.195 -1.49042 -0.819779 0
M  V30 1922 O 186.38 -1.77726 -0.782758 0
M  V30 1923 C 183.51 -3.32311 -1.0093 0
M  V30 1924 C 182.464 -4.2667 -0.337201 0
M  V30 1925 C 181.79 -5.1549 -1.42037 0
M  V30 1926 C 183.09 -5.16657 0.765706 0
M  V30 1927 H 184.784 -2.90809 0.712069 0
M  V30 1928 H 182.33 -1.39834 0.343876 0
M  V30 1929 H 184.283 -3.9396 -1.49578 0
M  V30 1930 H 183.007 -2.73213 -1.78948 0
M  V30 1931 H 181.666 -3.66374 0.128771 0
M  V30 1932 H 181.314 -4.52735 -2.1918 0
M  V30 1933 H 181.014 -5.79438 -0.975966 0
M  V30 1934 H 182.538 -5.80012 -1.90838 0
M  V30 1935 H 183.952 -5.72158 0.361702 0
M  V30 1936 H 182.349 -5.89286 1.13413 0
M  V30 1937 H 183.419 -4.56796 1.62683 0
M  V30 1938 N 184.763 -0.387143 -1.52771 0
M  V30 1939 C 185.693 0.440551 -2.29306 0
M  V30 1940 C 186.674 1.06535 -1.32606 0
M  V30 1941 O 187.859 1.07853 -1.61497 0
M  V30 1942 C 184.989 1.56919 -3.09829 0
M  V30 1943 C 183.943 1.07054 -4.14395 0
M  V30 1944 C 183.269 2.29109 -4.83129 0
M  V30 1945 C 184.569 0.140015 -5.22112 0
M  V30 1946 H 186.263 -0.198026 -2.98744 0
M  V30 1947 H 183.809 -0.09668 -1.43675 0
M  V30 1948 H 185.762 2.15503 -3.62128 0
M  V30 1949 H 184.486 2.23532 -2.3812 0
M  V30 1950 H 183.145 0.507247 -3.63074 0
M  V30 1951 H 182.793 2.94227 -4.0797 0
M  V30 1952 H 182.493 1.96406 -5.53804 0
M  V30 1953 H 184.017 2.88339 -5.38231 0
M  V30 1954 H 185.431 0.633978 -5.69784 0
M  V30 1955 H 183.828 -0.0971485 -6.00021 0
M  V30 1956 H 184.898 -0.811711 -4.78058 0
M  V30 1957 N 186.241 1.57166 -0.116904 0
M  V30 1958 C 187.173 2.12271 0.864507 0
M  V30 1959 C 188.186 1.06494 1.23138 0
M  V30 1960 O 189.375 1.33873 1.18069 0
M  V30 1961 C 186.475 2.60564 2.16702 0
M  V30 1962 C 185.648 3.90416 1.97216 0
M  V30 1963 C 184.707 4.24329 3.11178 0
M  V30 1964 O 183.733 4.93182 2.84184 0
M  V30 1965 N 184.935 3.8148 4.37554 0
M  V30 1966 H 187.7 2.97102 0.393726 0
M  V30 1967 H 185.261 1.61759 0.0675805 0
M  V30 1968 H 187.253 2.80282 2.91932 0
M  V30 1969 H 185.823 1.80623 2.55135 0
M  V30 1970 H 185.043 3.79627 1.06192 0
M  V30 1971 H 186.331 4.75327 1.81499 0
M  V30 1972 H 185.729 3.25943 4.62361 0
M  V30 1973 H 184.286 4.06311 5.09661 0
M  V30 1974 N 187.719 -0.156864 1.56817 0
M  V30 1975 C 188.629 -1.2136 2.00771 0
M  V30 1976 C 189.645 -1.47598 0.921459 0
M  V30 1977 O 190.821 -1.59462 1.2302 0
M  V30 1978 C 187.886 -2.52943 2.37109 0
M  V30 1979 C 186.947 -2.34439 3.59634 0
M  V30 1980 C 186.18 -3.59748 3.94229 0
M  V30 1981 O 186.403 -4.65526 3.29609 0
M  V30 1982 O 185.337 -3.52998 4.8752 0
M  V30 1983 H 189.163 -0.870468 2.90958 0
M  V30 1984 H 186.748 -0.36484 1.44877 0
M  V30 1985 H 188.63 -3.30538 2.61386 0
M  V30 1986 H 187.305 -2.86806 1.5008 0
M  V30 1987 H 186.212 -1.54828 3.40557 0
M  V30 1988 H 187.545 -2.05496 4.4725 0
M  V30 1989 N 189.197 -1.51736 -0.425897 0
M  V30 1990 C 190.129 -1.70083 -1.53638 0
M  V30 1991 C 191.142 -0.581349 -1.52066 0
M  V30 1992 O 192.331 -0.856017 -1.56635 0
M  V30 1993 C 189.431 -1.71078 -2.9255 0
M  V30 1994 C 188.604 -2.99795 -3.185 0
M  V30 1995 C 187.663 -2.92825 -4.37196 0
M  V30 1996 O 186.689 -3.66756 -4.35291 0
M  V30 1997 N 187.891 -2.0946 -5.41393 0
M  V30 1998 H 190.656 -2.65882 -1.383 0
M  V30 1999 H 188.217 -1.49765 -0.614988 0
M  V30 2000 H 190.209 -1.63969 -3.69995 0
M  V30 2001 H 188.779 -0.828242 -3.01428 0
M  V30 2002 H 187.999 -3.20684 -2.2925 0
M  V30 2003 H 189.287 -3.84977 -3.32671 0
M  V30 2004 H 188.685 -1.48792 -5.45781 0
M  V30 2005 H 187.242 -2.08221 -6.17647 0
M  V30 2006 N 190.675 0.682077 -1.42076 0
M  V30 2007 C 191.622 1.79578 -1.44984 0
M  V30 2008 C 192.592 1.6332 -0.302614 0
M  V30 2009 O 193.777 1.83978 -0.505633 0
M  V30 2010 C 190.917 3.1756 -1.35091 0
M  V30 2011 C 190.03 3.45156 -2.59791 0
M  V30 2012 C 189.165 4.72826 -2.42093 0
M  V30 2013 C 188.204 4.93433 -3.62202 0
M  V30 2014 N 187.341 6.12338 -3.43491 0
M  V30 2015 H 192.181 1.76427 -2.40161 0
M  V30 2016 H 189.718 0.861376 -1.19242 0
M  V30 2017 H 191.676 3.97287 -1.27354 0
M  V30 2018 H 190.306 3.19854 -0.435133 0
M  V30 2019 H 189.358 2.59736 -2.77923 0
M  V30 2020 H 190.67 3.5628 -3.49094 0
M  V30 2021 H 189.824 5.60631 -2.319 0
M  V30 2022 H 188.563 4.63973 -1.50268 0
M  V30 2023 H 187.568 4.04073 -3.72834 0
M  V30 2024 H 188.793 5.04136 -4.54998 0
M  V30 2025 H 186.739 6.04672 -2.54377 0
M  V30 2026 H 186.656 6.2429 -4.26377 0
M  V30 2027 H 187.924 7.02841 -3.37097 0
M  V30 2028 N 192.153 1.28127 0.917671 0
M  V30 2029 C 193.378 1.18007 1.70555 0
M  V30 2030 C 193.803 -0.258257 1.86319 0
M  V30 2031 O 193.161 -1.1869 1.37049 0
M  V30 2032 C 193.209 1.87948 3.07746 0
M  V30 2033 O 192.313 1.18427 3.9503 0
M  V30 2034 H 191.654 0.409867 0.522403 0
M  V30 2035 H 194.184 1.69379 1.1477 0
M  V30 2036 H 194.194 1.95701 3.58001 0
M  V30 2037 H 192.869 2.92573 2.95591 0
M  V30 2038 H 191.446 1.18811 3.53466 0
M  V30 2039 N 193.631 -1.12557 1.10312 0
M  V30 2040 C 194.594 -2.16434 0.75424 0
M  V30 2041 C 195.594 -1.59278 -0.220685 0
M  V30 2042 O 196.784 -1.742 0.00230591 0
M  V30 2043 C 193.916 -3.40699 0.116987 0
M  V30 2044 H 195.109 -2.48811 1.67431 0
M  V30 2045 H 192.662 -1.27542 0.903475 0
M  V30 2046 H 193.397 -3.13921 -0.813877 0
M  V30 2047 H 193.182 -3.83459 0.818613 0
M  V30 2048 H 194.672 -4.17451 -0.111387 0
M  V30 2049 N 195.109 -0.891671 -1.2995 0
M  V30 2050 C 196.056 -0.361736 -2.27948 0
M  V30 2051 C 197.026 0.551761 -1.56668 0
M  V30 2052 O 198.211 0.478736 -1.84696 0
M  V30 2053 C 195.351 0.411825 -3.42634 0
M  V30 2054 C 194.464 -0.531651 -4.28716 0
M  V30 2055 C 193.599 0.258167 -5.30572 0
M  V30 2056 C 192.638 -0.680349 -6.08307 0
M  V30 2057 N 191.775 0.0745613 -7.0206 0
M  V30 2058 H 196.615 -1.20254 -2.72659 0
M  V30 2059 H 194.152 -0.604352 -1.34112 0
M  V30 2060 H 196.11 0.876304 -4.07893 0
M  V30 2061 H 194.74 1.21715 -2.98974 0
M  V30 2062 H 193.792 -1.11463 -3.63703 0
M  V30 2063 H 195.104 -1.25038 -4.82874 0
M  V30 2064 H 194.258 0.784204 -6.0161 0
M  V30 2065 H 192.997 1.01008 -4.77126 0
M  V30 2066 H 192.002 -1.21796 -5.3614 0
M  V30 2067 H 193.227 -1.43145 -6.63842 0
M  V30 2068 H 191.173 0.808883 -6.50994 0
M  V30 2069 H 191.09 -0.584409 -7.53738 0
M  V30 2070 H 192.358 0.581123 -7.77331 0
M  V30 2071 N 196.587 1.43421 -0.653314 0
M  V30 2072 C 197.812 2.06678 -0.172846 0
M  V30 2073 C 198.237 1.48648 1.15262 0
M  V30 2074 O 197.595 0.596457 1.71208 0
M  V30 2075 C 197.643 3.60474 -0.0953184 0
M  V30 2076 O 196.747 4.01487 0.942442 0
M  V30 2077 H 196.088 0.657181 -0.0949155 0
M  V30 2078 H 198.618 1.83925 -0.896265 0
M  V30 2079 H 198.628 4.07905 0.0879728 0
M  V30 2080 H 197.303 4.02088 -1.06291 0
M  V30 2081 H 195.88 3.65646 0.731932 0
M  V30 2082 N 198.065 0.39524 1.52563 0
M  V30 2083 C 199.29 -0.187456 2.06551 0
M  V30 2084 C 199.715 -1.39249 1.26457 0
M  V30 2085 O 199.073 -1.78947 0.291151 0
M  V30 2086 C 199.121 -0.529985 3.56684 0
M  V30 2087 O 198.225 -1.62307 3.79118 0
M  V30 2088 H 197.566 -0.0202537 0.663691 0
M  V30 2089 H 200.096 0.564426 1.96661 0
M  V30 2090 H 200.106 -0.792598 4.00227 0
M  V30 2091 H 198.781 0.350987 4.14416 0
M  V30 2092 H 197.358 -1.3537 3.47461 0
M  V30 2093 N 199.544 -1.57102 0.125237 0
M  V30 2094 C 200.96 -1.57915 -0.231322 0
M  V30 2095 C 201.16 -1.13833 -1.66266 0
M  V30 2096 O 200.216 -0.828581 -2.38518 0
M  V30 2097 C 201.529 -3.00699 0.00766489 0
M  V30 2098 C 203.077 -3.12947 -0.0577483 0
M  V30 2099 C 203.552 -4.57742 0.153626 0
M  V30 2100 N 205.043 -4.63092 0.0998073 0
M  V30 2101 C 205.778 -5.72905 0.238174 0
M  V30 2102 N 205.274 -6.91445 0.433057 0
M  V30 2103 N 207.067 -5.6182 0.177308 0
M  V30 2104 H 199.218 -1.84055 1.06007 0
M  V30 2105 H 201.481 -0.850905 0.417929 0
M  V30 2106 H 201.187 -3.3726 0.997431 0
M  V30 2107 H 201.061 -3.70236 -0.721452 0
M  V30 2108 H 203.448 -2.7624 -1.03804 0
M  V30 2109 H 203.529 -2.4594 0.70335 0
M  V30 2110 H 203.173 -4.95149 1.13092 0
M  V30 2111 H 203.103 -5.22848 -0.627534 0
M  V30 2112 H 205.594 -3.77871 -0.047051 0
M  V30 2113 H 205.907 -7.70985 0.529332 0
M  V30 2114 H 204.252 -6.93415 0.469109 0
M  V30 2115 H 207.443 -4.68093 0.0259748 0
M  V30 2116 H 207.616 -6.47357 0.288582 0
M  V30 2117 N 201.022 0.148545 -1.56898 0
M  V30 2118 C 201.952 1.18524 -2.01182 0
M  V30 2119 C 202.933 1.4489 -0.891123 0
M  V30 2120 O 204.118 1.55836 -1.15882 0
M  V30 2121 C 201.248 2.51879 -2.39112 0
M  V30 2122 C 200.202 2.40038 -3.54353 0
M  V30 2123 C 199.528 3.78089 -3.78091 0
M  V30 2124 C 200.828 1.88577 -4.87069 0
M  V30 2125 H 202.522 0.817029 -2.88036 0
M  V30 2126 H 200.068 0.391575 -1.38574 0
M  V30 2127 H 202.021 3.24627 -2.68692 0
M  V30 2128 H 200.745 2.90532 -1.49193 0
M  V30 2129 H 199.404 1.69742 -3.24936 0
M  V30 2130 H 199.052 4.14175 -2.85426 0
M  V30 2131 H 198.752 3.71028 -4.55645 0
M  V30 2132 H 200.276 4.52387 -4.10095 0
M  V30 2133 H 201.69 2.51117 -5.15377 0
M  V30 2134 H 200.087 1.9241 -5.68417 0
M  V30 2135 H 201.157 0.84136 -4.77545 0
M  V30 2136 N 202.5 1.5196 0.417844 0
M  V30 2137 C 203.911 1.57851 0.997 0
M  V30 2138 C 204.262 0.413714 1.91789 0
M  V30 2139 O 203.387 -0.467057 2.113 0
M  V30 2140 C 203.982 2.86085 1.81496 0
M  V30 2141 C 202.541 2.94483 2.34428 0
M  V30 2142 C 201.688 2.52707 1.14169 0
M  V30 2143 H 204.639 1.57455 0.198392 0
M  V30 2144 H 204.66 2.70947 2.67148 0
M  V30 2145 H 204.172 3.70842 1.14446 0
M  V30 2146 H 202.273 2.142 3.04875 0
M  V30 2147 H 202.386 3.98546 2.65891 0
M  V30 2148 H 200.75 2.06353 1.49301 0
M  V30 2149 H 201.533 3.39828 0.486999 0
M  V30 2150 N 203.978 -0.674533 1.42435 0
M  V30 2151 C 205.255 -1.4305 1.33402 0
M  V30 2152 C 205.635 -2.11081 -0.0284674 0
M  V30 2153 O 204.983 -2.03257 -1.04397 0
M  V30 2154 C 205.193 -2.43272 2.50239 0
M  V30 2155 C 206.541 -3.07907 2.92367 0
M  V30 2156 O 207.565 -2.53599 2.50132 0
M  V30 2157 O 206.424 -4.0632 3.65467 0
M  V30 2158 H 203.518 -0.638076 0.526106 0
M  V30 2159 H 206.064 -0.703235 1.54443 0
M  V30 2160 H 204.836 -1.91803 3.41068 0
M  V30 2161 H 204.459 -3.23479 2.31186 0
M  V30 2162 N 205.456 -1.28612 -0.910864 0
M  V30 2163 C 206.705 -1.15311 -1.65488 0
M  V30 2164 C 207.018 0.296999 -1.93332 0
M  V30 2165 O 208.224 0.551168 -2.65847 0
M  V30 2166 C 206.68 -2.01599 -2.98137 0
M  V30 2167 C 206.288 -3.51367 -2.7793 0
M  V30 2168 C 208.032 -1.96993 -3.76024 0
M  V30 2169 C 205.939 -4.29797 -4.06237 0
M  V30 2170 H 204.869 -0.42796 -0.620779 0
M  V30 2171 H 207.52 -1.53166 -1.01057 0
M  V30 2172 H 205.902 -1.56603 -3.63719 0
M  V30 2173 H 207.076 -4.0434 -2.21011 0
M  V30 2174 H 205.391 -3.57529 -2.13452 0
M  V30 2175 H 207.988 -2.52856 -4.71135 0
M  V30 2176 H 208.331 -0.94733 -4.05378 0
M  V30 2177 H 208.864 -2.39973 -3.17266 0
M  V30 2178 H 205.603 -5.32648 -3.82055 0
M  V30 2179 H 205.123 -3.81596 -4.62757 0
M  V30 2180 H 206.802 -4.39869 -4.74473 0
M  V30 2181 N 206.934 1.1197 -1.10907 0
M  V30 2182 C 208.181 1.83588 -0.854507 0
M  V30 2183 C 208.509 1.84357 0.6199 0
M  V30 2184 O 207.764 1.28809 1.47332 0
M  V30 2185 C 208.063 3.30749 -1.35425 0
M  V30 2186 C 207.729 3.50146 -2.84093 0
M  V30 2187 C 206.391 3.55148 -3.2469 0
M  V30 2188 C 208.743 3.56857 -3.79872 0
M  V30 2189 C 206.071 3.6441 -4.59806 0
M  V30 2190 C 208.423 3.6765 -5.14797 0
M  V30 2191 C 207.087 3.7091 -5.54961 0
M  V30 2192 H 206.357 0.671795 -0.312686 0
M  V30 2193 H 209.004 1.32091 -1.38652 0
M  V30 2194 H 207.309 3.84703 -0.742361 0
M  V30 2195 H 209.006 3.8464 -1.1337 0
M  V30 2196 H 205.596 3.46919 -2.51685 0
M  V30 2197 H 209.78 3.52258 -3.49611 0
M  V30 2198 H 205.036 3.65208 -4.9034 0
M  V30 2199 H 209.21 3.71786 -5.88853 0
M  V30 2200 H 206.837 3.7784 -6.59652 0
M  V30 2201 N 208.412 0.89855 1.29475 0
M  V30 2202 C 209.322 0.379974 2.31502 0
M  V30 2203 C 210.338 -0.524695 1.659 0
M  V30 2204 O 211.514 -0.414551 1.97087 0
M  V30 2205 C 208.579 -0.385138 3.44554 0
M  V30 2206 C 207.64 0.550914 4.2575 0
M  V30 2207 C 206.873 -0.177778 5.33404 0
M  V30 2208 O 207.096 -1.40189 5.52904 0
M  V30 2209 O 206.03 0.479106 5.9999 0
M  V30 2210 H 209.856 1.22639 2.77837 0
M  V30 2211 H 207.441 0.662834 1.33891 0
M  V30 2212 H 209.323 -0.817841 4.13388 0
M  V30 2213 H 207.998 -1.20763 3.0033 0
M  V30 2214 H 206.905 1.03271 3.59564 0
M  V30 2215 H 208.238 1.33979 4.73614 0
M  V30 2216 N 209.89 -1.43072 0.660911 0
M  V30 2217 C 210.853 -2.29194 -0.0166406 0
M  V30 2218 C 211.853 -1.42609 -0.742912 0
M  V30 2219 O 213.043 -1.64155 -0.583004 0
M  V30 2220 C 210.175 -3.24831 -1.0343 0
M  V30 2221 H 211.368 -2.90596 0.741208 0
M  V30 2222 H 208.921 -1.5048 0.422532 0
M  V30 2223 H 209.656 -2.68339 -1.82111 0
M  V30 2224 H 209.441 -3.88676 -0.517082 0
M  V30 2225 H 210.931 -3.89451 -1.50723 0
M  V30 2226 N 211.368 -0.403325 -1.52352 0
M  V30 2227 C 212.3 0.4603 -2.2453 0
M  V30 2228 C 213.313 1.01505 -1.27282 0
M  V30 2229 O 214.502 0.914982 -1.53266 0
M  V30 2230 C 211.602 1.65208 -2.95905 0
M  V30 2231 C 210.775 1.22224 -4.19976 0
M  V30 2232 C 209.834 2.28028 -4.74226 0
M  V30 2233 O 208.86 1.88857 -5.36956 0
M  V30 2234 N 210.062 3.6012 -4.55295 0
M  V30 2235 H 212.827 -0.158156 -2.99282 0
M  V30 2236 H 210.388 -0.230402 -1.60252 0
M  V30 2237 H 212.38 2.35541 -3.29093 0
M  V30 2238 H 210.95 2.17658 -2.24374 0
M  V30 2239 H 210.17 0.34725 -3.92668 0
M  V30 2240 H 211.458 0.911924 -5.00561 0
M  V30 2241 H 210.856 3.94698 -4.05253 0
M  V30 2242 H 209.413 4.26447 -4.92936 0
M  V30 2243 N 212.846 1.57033 -0.133567 0
M  V30 2244 C 214.095 1.94861 0.520768 0
M  V30 2245 C 214.408 1.02012 1.66892 0
M  V30 2246 O 215.614 1.29365 2.38699 0
M  V30 2247 C 214.07 3.46362 0.977809 0
M  V30 2248 C 213.678 4.47773 -0.142674 0
M  V30 2249 C 215.422 3.93083 1.60269 0
M  V30 2250 C 213.329 5.90468 0.331883 0
M  V30 2251 H 212.259 0.727453 0.198315 0
M  V30 2252 H 214.91 1.82227 -0.215759 0
M  V30 2253 H 213.292 3.54282 1.7692 0
M  V30 2254 H 214.466 4.51536 -0.919317 0
M  V30 2255 H 212.781 4.10891 -0.675124 0
M  V30 2256 H 215.378 4.97121 1.96914 0
M  V30 2257 H 215.721 3.33876 2.48662 0
M  V30 2258 H 216.254 3.88025 0.876453 0
M  V30 2259 H 212.993 6.53463 -0.516341 0
M  V30 2260 H 212.513 5.90094 1.07469 0
M  V30 2261 H 214.192 6.42179 0.788332 0
M  V30 2262 N 214.325 -0.140222 1.56975 0
M  V30 2263 C 215.288 -1.15689 1.97861 0
M  V30 2264 C 216.288 -1.3549 0.865974 0
M  V30 2265 O 217.478 -1.32367 1.13246 0
M  V30 2266 C 214.61 -2.51582 2.30042 0
M  V30 2267 H 215.803 -0.805971 2.88867 0
M  V30 2268 H 213.356 -0.383801 1.51515 0
M  V30 2269 H 214.091 -2.91632 1.41849 0
M  V30 2270 H 213.876 -2.38569 3.11171 0
M  V30 2271 H 215.366 -3.24792 2.62488 0
M  V30 2272 N 215.803 -1.52179 -0.40978 0
M  V30 2273 C 217.051 -1.65878 -1.15451 0
M  V30 2274 C 217.372 -0.390771 -1.91044 0
M  V30 2275 O 216.642 0.594323 -1.86667 0
M  V30 2276 H 215.222 -0.611405 -0.429177 0
M  V30 2277 H 217.884 -1.89219 -0.467134 0
M  V30 2278 H 216.98 -2.49954 -1.86894 0
M  V30 2279 N 217.281 0.66697 -1.42791 0
M  V30 2280 C 218.211 1.79218 -1.49677 0
M  V30 2281 C 219.192 1.66405 -0.352623 0
M  V30 2282 O 220.377 1.85708 -0.567993 0
M  V30 2283 C 217.507 3.17565 -1.40605 0
M  V30 2284 C 216.461 3.45124 -2.53127 0
M  V30 2285 C 215.787 4.83127 -2.29112 0
M  V30 2286 C 217.087 3.41236 -3.95418 0
M  V30 2287 H 218.781 1.73713 -2.43853 0
M  V30 2288 H 216.327 0.83432 -1.17367 0
M  V30 2289 H 218.28 3.96022 -1.44029 0
M  V30 2290 H 217.004 3.23767 -0.429271 0
M  V30 2291 H 215.663 2.69031 -2.49034 0
M  V30 2292 H 215.311 4.85988 -1.29709 0
M  V30 2293 H 215.011 5.02528 -3.04531 0
M  V30 2294 H 216.535 5.63859 -2.34297 0
M  V30 2295 H 217.949 4.09651 -4.01073 0
M  V30 2296 H 216.346 3.72173 -4.70752 0
M  V30 2297 H 217.416 2.39665 -4.21532 0
M  V30 2298 N 218.759 1.29093 0.90403 0
M  V30 2299 C 220.175 1.07011 1.1841 0
M  V30 2300 C 220.375 -0.181358 2.00682 0
M  V30 2301 O 219.431 -0.880331 2.36657 0
M  V30 2302 C 220.744 2.32311 1.90924 0
M  V30 2303 C 222.292 2.37587 2.03768 0
M  V30 2304 C 222.767 3.62679 2.79693 0
M  V30 2305 N 224.258 3.63376 2.87249 0
M  V30 2306 C 224.993 4.56848 3.46522 0
M  V30 2307 N 224.489 5.60648 4.06996 0
M  V30 2308 N 226.282 4.44426 3.44154 0
M  V30 2309 H 218.433 2.09412 0.354993 0
M  V30 2310 H 220.696 0.922181 0.219742 0
M  V30 2311 H 220.402 3.23536 1.37905 0
M  V30 2312 H 220.276 2.39483 2.91424 0
M  V30 2313 H 222.663 1.46853 2.55965 0
M  V30 2314 H 222.744 2.34403 1.02415 0
M  V30 2315 H 222.388 4.53762 2.28173 0
M  V30 2316 H 222.318 3.63119 3.81381 0
M  V30 2317 H 224.809 2.88321 2.44293 0
M  V30 2318 H 225.122 6.28101 4.50232 0
M  V30 2319 H 223.467 5.64463 4.05471 0
M  V30 2320 H 226.658 3.62529 2.96126 0
M  V30 2321 H 226.831 5.17457 3.90054 0
M  V30 2322 N 220.237 -1.11381 1.11499 0
M  V30 2323 C 221.485 -1.8277 0.862524 0
M  V30 2324 C 221.806 -1.85097 -0.613534 0
M  V30 2325 O 221.076 -1.32198 -1.4457 0
M  V30 2326 H 219.656 -0.676823 0.316101 0
M  V30 2327 H 222.318 -1.34816 1.4075 0
M  V30 2328 H 221.414 -2.86614 1.23527 0
M  V30 2329 N 221.715 -0.905404 -1.28997 0
M  V30 2330 C 222.647 -0.344748 -2.26592 0
M  V30 2331 C 223.66 0.512135 -1.54535 0
M  V30 2332 O 224.849 0.328368 -1.75454 0
M  V30 2333 C 221.949 0.526587 -3.34784 0
M  V30 2334 C 221.122 -0.305871 -4.36329 0
M  V30 2335 C 220.181 0.499209 -5.23827 0
M  V30 2336 O 219.207 -0.0853004 -5.69136 0
M  V30 2337 N 220.409 1.80408 -5.51755 0
M  V30 2338 H 223.174 -1.18359 -2.75338 0
M  V30 2339 H 220.735 -0.770481 -1.42391 0
M  V30 2340 H 222.727 1.07171 -3.90252 0
M  V30 2341 H 221.297 1.26613 -2.85811 0
M  V30 2342 H 220.517 -1.0324 -3.80441 0
M  V30 2343 H 221.805 -0.875773 -5.01206 0
M  V30 2344 H 221.203 2.3016 -5.16762 0
M  V30 2345 H 219.76 2.29621 -6.10014 0
M  V30 2346 N 223.193 1.4272 -0.668489 0
M  V30 2347 C 224.123 2.335 -0.000100175 0
M  V30 2348 C 225.104 1.50328 0.795964 0
M  V30 2349 O 226.289 1.78949 0.754385 0
M  V30 2350 C 223.419 3.33874 0.956302 0
M  V30 2351 C 222.373 4.27152 0.269278 0
M  V30 2352 C 221.699 5.17684 1.33818 0
M  V30 2353 C 222.999 5.15373 -0.847805 0
M  V30 2354 H 224.693 2.89639 -0.758244 0
M  V30 2355 H 222.239 1.39269 -0.366079 0
M  V30 2356 H 224.192 3.9629 1.43292 0
M  V30 2357 H 222.916 2.76025 1.74579 0
M  V30 2358 H 221.575 3.66123 -0.187042 0
M  V30 2359 H 221.223 4.56165 2.1195 0
M  V30 2360 H 220.923 5.80918 0.883659 0
M  V30 2361 H 222.447 5.82974 1.81586 0
M  V30 2362 H 223.861 5.7151 -0.452681 0
M  V30 2363 H 222.258 5.87407 -1.22773 0
M  V30 2364 H 223.328 4.5415 -1.69929 0
M  V30 2365 N 224.671 0.411399 1.52136 0
M  V30 2366 C 225.581 -0.419774 2.30814 0
M  V30 2367 C 226.597 -1.0515 1.38634 0
M  V30 2368 O 227.773 -1.05252 1.71709 0
M  V30 2369 C 224.838 -1.52019 3.11594 0
M  V30 2370 C 223.899 -0.91129 4.19516 0
M  V30 2371 C 223.132 -1.95927 4.96436 0
M  V30 2372 O 223.355 -3.17775 4.73683 0
M  V30 2373 O 222.289 -1.56423 5.81219 0
M  V30 2374 H 226.115 0.221805 3.02889 0
M  V30 2375 H 223.7 0.174547 1.48377 0
M  V30 2376 H 225.582 -2.15898 3.61892 0
M  V30 2377 H 224.257 -2.14633 2.42311 0
M  V30 2378 H 223.164 -0.235157 3.7336 0
M  V30 2379 H 224.497 -0.32904 4.91099 0
M  V30 2380 N 226.149 -1.5696 0.141893 0
M  V30 2381 C 227.112 -2.15316 -0.785587 0
M  V30 2382 C 228.112 -1.09366 -1.1788 0
M  V30 2383 O 229.302 -1.35031 -1.10056 0
M  V30 2384 C 226.434 -2.71211 -2.06537 0
M  V30 2385 H 227.627 -2.98608 -0.278041 0
M  V30 2386 H 225.18 -1.5593 -0.107519 0
M  V30 2387 H 225.915 -1.91571 -2.6167 0
M  V30 2388 H 225.7 -3.4872 -1.79268 0
M  V30 2389 H 227.19 -3.16189 -2.72789 0
M  V30 2390 N 227.627 0.131896 -1.57047 0
M  V30 2391 C 228.557 1.16384 -2.02428 0
M  V30 2392 C 229.538 1.43936 -0.90644 0
M  V30 2393 O 230.723 1.54599 -1.17528 0
M  V30 2394 C 227.853 2.49328 -2.4177 0
M  V30 2395 C 226.807 2.36266 -3.56879 0
M  V30 2396 C 226.133 3.74057 -3.8208 0
M  V30 2397 C 227.433 1.834 -4.89042 0
M  V30 2398 H 229.127 0.786433 -2.88887 0
M  V30 2399 H 226.673 0.376855 -1.38981 0
M  V30 2400 H 228.626 3.21759 -2.7212 0
M  V30 2401 H 227.35 2.88934 -1.52266 0
M  V30 2402 H 226.009 1.66286 -3.26718 0
M  V30 2403 H 225.657 4.11125 -2.89803 0
M  V30 2404 H 225.357 3.66174 -4.59554 0
M  V30 2405 H 226.881 4.48012 -4.1487 0
M  V30 2406 H 228.295 2.45636 -5.18011 0
M  V30 2407 H 226.692 1.8637 -5.70426 0
M  V30 2408 H 227.762 0.790662 -4.7841 0
M  V30 2409 N 229.106 1.52395 0.401703 0
M  V30 2410 C 230.038 1.72505 1.50912 0
M  V30 2411 C 231.051 0.605468 1.51122 0
M  V30 2412 O 232.24 0.880828 1.55254 0
M  V30 2413 C 229.34 1.75711 2.89791 0
M  V30 2414 C 228.513 3.04824 3.1369 0
M  V30 2415 C 227.572 2.99743 4.32482 0
M  V30 2416 O 226.598 3.73635 4.29402 0
M  V30 2417 N 227.8 2.18047 5.37992 0
M  V30 2418 H 230.565 2.68049 1.34052 0
M  V30 2419 H 228.126 1.50724 0.591084 0
M  V30 2420 H 230.118 1.69834 3.6734 0
M  V30 2421 H 228.688 0.876092 3.00072 0
M  V30 2422 H 227.908 3.2429 2.24119 0
M  V30 2423 H 229.196 3.90221 3.26504 0
M  V30 2424 H 228.594 1.57456 5.43345 0
M  V30 2425 H 227.151 2.18021 6.14256 0
M  V30 2426 N 230.584 -0.659388 1.43143 0
M  V30 2427 C 231.83 -1.42145 1.44647 0
M  V30 2428 C 232.163 -1.9408 0.0681907 0
M  V30 2429 O 231.438 -1.71899 -0.910007 0
M  V30 2430 C 231.721 -2.60735 2.48373 0
M  V30 2431 C 231.574 -2.14332 3.95451 0
M  V30 2432 C 232.893 -3.62951 2.48906 0
M  V30 2433 H 230.012 -0.51552 0.526696 0
M  V30 2434 H 232.654 -0.748069 1.74654 0
M  V30 2435 H 230.804 -3.18184 2.22916 0
M  V30 2436 H 232.476 -1.61932 4.31944 0
M  V30 2437 H 230.719 -1.4576 4.08578 0
M  V30 2438 H 231.39 -2.99583 4.63631 0
M  V30 2439 H 233.866 -3.1525 2.71582 0
M  V30 2440 H 232.742 -4.43487 3.23435 0
M  V30 2441 H 233.003 -4.15126 1.52061 0
M  V30 2442 N 232.062 -1.29571 -0.897171 0
M  V30 2443 C 233.339 -1.08365 -1.62839 0
M  V30 2444 C 233.719 0.371331 -2.07808 0
M  V30 2445 O 233.067 1.3606 -1.83576 0
M  V30 2446 C 233.277 -2.0735 -2.80726 0
M  V30 2447 C 234.625 -2.38406 -3.51351 0
M  V30 2448 O 235.649 -2.05564 -2.90898 0
M  V30 2449 O 234.508 -2.9453 -4.60341 0
M  V30 2450 H 231.602 -0.415345 -0.715134 0
M  V30 2451 H 234.148 -1.40952 -0.945018 0
M  V30 2452 H 232.92 -3.05339 -2.44711 0
M  V30 2453 H 232.543 -1.75507 -3.56767 0
M  V30 2454 N 233.54 1.10788 -1.12088 0
M  V30 2455 C 234.788 1.8231 -0.872205 0
M  V30 2456 C 235.109 1.85419 0.603709 0
M  V30 2457 O 234.379 1.32963 1.43867 0
M  V30 2458 H 232.959 0.675137 -0.319686 0
M  V30 2459 H 235.621 1.34068 -1.41463 0
M  V30 2460 H 234.717 2.85955 -1.25045 0
M  V30 2461 N 235.018 0.912232 1.28515 0
M  V30 2462 C 236.266 0.543523 1.94654 0
M  V30 2463 C 236.587 -0.9155 1.72173 0
M  V30 2464 O 235.857 -1.64708 1.06058 0
M  V30 2465 H 234.437 0.198017 0.720277 0
M  V30 2466 H 237.099 1.16126 1.56527 0
M  V30 2467 H 236.195 0.736684 3.03281 0
M  V30 2468 N 236.496 -1.42363 0.676048 0
M  V30 2469 C 237.912 -1.55811 0.345718 0
M  V30 2470 C 238.112 -1.65544 -1.14879 0
M  V30 2471 O 237.168 -1.62306 -1.93424 0
M  V30 2472 C 238.481 -2.80746 1.07713 0
M  V30 2473 C 240.029 -2.9452 1.05958 0
M  V30 2474 C 240.504 -4.22318 1.77233 0
M  V30 2475 N 241.995 -4.29233 1.74108 0
M  V30 2476 C 242.73 -5.26935 2.26113 0
M  V30 2477 N 242.226 -6.30783 2.86505 0
M  V30 2478 N 244.019 -5.18741 2.1648 0
M  V30 2479 H 236.17 -1.34289 1.6456 0
M  V30 2480 H 238.433 -0.646506 0.69335 0
M  V30 2481 H 238.139 -2.79696 2.13221 0
M  V30 2482 H 238.013 -3.71676 0.64316 0
M  V30 2483 H 240.4 -2.95097 0.0128255 0
M  V30 2484 H 240.481 -2.04817 1.53244 0
M  V30 2485 H 240.125 -4.22502 2.81877 0
M  V30 2486 H 240.055 -5.10958 1.27396 0
M  V30 2487 H 242.546 -3.54814 1.30059 0
M  V30 2488 H 242.859 -7.01691 3.23805 0
M  V30 2489 H 241.204 -6.31341 2.90575 0
M  V30 2490 H 244.395 -4.36533 1.68987 0
M  V30 2491 H 244.568 -5.94721 2.57316 0
M  V30 2492 N 237.974 -0.419461 -1.51915 0
M  V30 2493 C 238.904 0.391813 -2.30189 0
M  V30 2494 C 239.885 1.03699 -1.34836 0
M  V30 2495 O 241.07 1.04403 -1.63748 0
M  V30 2496 C 238.2 1.50312 -3.13087 0
M  V30 2497 C 237.154 0.9824 -4.16573 0
M  V30 2498 C 236.48 2.18809 -4.8788 0
M  V30 2499 C 237.78 0.0292356 -5.22292 0
M  V30 2500 H 239.474 -0.26135 -2.98257 0
M  V30 2501 H 237.02 -0.127134 -1.43438 0
M  V30 2502 H 238.973 2.07773 -3.66617 0
M  V30 2503 H 237.697 2.18431 -2.42807 0
M  V30 2504 H 236.356 0.430119 -3.64068 0
M  V30 2505 H 236.004 2.85507 -4.14119 0
M  V30 2506 H 235.704 1.84615 -5.57845 0
M  V30 2507 H 237.228 2.76858 -5.44226 0
M  V30 2508 H 238.642 0.512976 -5.71 0
M  V30 2509 H 237.039 -0.2244 -5.9968 0
M  V30 2510 H 238.109 -0.912931 -4.76228 0
M  V30 2511 N 239.452 1.56882 -0.150215 0
M  V30 2512 C 240.362 2.20494 0.801222 0
M  V30 2513 C 241.378 1.19019 1.26927 0
M  V30 2514 O 242.554 1.51607 1.32579 0
M  V30 2515 C 239.619 2.81659 2.02161 0
M  V30 2516 C 238.68 3.9827 1.60249 0
M  V30 2517 C 237.913 4.56508 2.7647 0
M  V30 2518 O 238.136 4.13627 3.92771 0
M  V30 2519 O 237.07 5.46719 2.51757 0
M  V30 2520 H 240.896 3.02315 0.289717 0
M  V30 2521 H 238.481 1.49202 0.0769684 0
M  V30 2522 H 240.363 3.20522 2.73576 0
M  V30 2523 H 239.038 2.02849 2.52258 0
M  V30 2524 H 237.945 3.64117 0.858477 0
M  V30 2525 H 239.278 4.78609 1.14864 0
M  V30 2526 N 240.93 -0.123565 1.57115 0
M  V30 2527 C 241.893 -1.13583 1.99076 0
M  V30 2528 C 242.893 -1.34564 0.880296 0
M  V30 2529 O 244.083 -1.31158 1.14644 0
M  V30 2530 C 241.215 -2.49128 2.32698 0
M  V30 2531 H 242.408 -0.775287 2.89706 0
M  V30 2532 H 239.961 -0.36771 1.51913 0
M  V30 2533 H 240.696 -2.90111 1.44934 0
M  V30 2534 H 240.481 -2.35255 3.13684 0
M  V30 2535 H 241.971 -3.2199 2.65918 0
M  V30 2536 N 242.408 -1.52605 -0.393616 0
M  V30 2537 C 243.318 -1.79971 -1.50492 0
M  V30 2538 C 244.334 -0.686181 -1.59899 0
M  V30 2539 O 245.51 -0.973274 -1.76322 0
M  V30 2540 C 242.575 -1.95867 -2.86072 0
M  V30 2541 C 241.636 -3.19781 -2.86424 0
M  V30 2542 C 240.869 -3.34909 -4.15538 0
M  V30 2543 O 241.092 -2.54948 -5.10253 0
M  V30 2544 O 240.026 -4.28141 -4.23059 0
M  V30 2545 H 243.852 -2.74328 -1.30299 0
M  V30 2546 H 241.437 -1.3764 -0.581005 0
M  V30 2547 H 243.319 -2.08056 -3.66457 0
M  V30 2548 H 241.994 -1.04699 -3.063 0
M  V30 2549 H 240.901 -3.13038 -2.04837 0
M  V30 2550 H 242.234 -4.1078 -2.71147 0
M  V30 2551 N 243.887 0.651787 -1.4349 0
M  V30 2552 C 244.817 1.77621 -1.51569 0
M  V30 2553 C 245.798 1.66022 -0.370253 0
M  V30 2554 O 246.983 1.85095 -0.587658 0
M  V30 2555 C 244.113 3.16056 -1.43966 0
M  V30 2556 C 243.067 3.4242 -2.56774 0
M  V30 2557 C 242.393 4.8067 -2.34223 0
M  V30 2558 C 243.693 3.37023 -3.99015 0
M  V30 2559 H 245.387 1.71117 -2.45681 0
M  V30 2560 H 242.933 0.821825 -1.18246 0
M  V30 2561 H 244.886 3.94472 -1.48221 0
M  V30 2562 H 243.61 3.23293 -0.463586 0
M  V30 2563 H 242.269 2.66375 -2.51873 0
M  V30 2564 H 241.917 4.84585 -1.34856 0
M  V30 2565 H 241.617 4.9927 -3.09844 0
M  V30 2566 H 243.141 5.61342 -2.40265 0
M  V30 2567 H 244.555 4.05374 -4.05395 0
M  V30 2568 H 242.952 3.67159 -4.74673 0
M  V30 2569 H 244.022 2.3518 -4.2405 0
M  V30 2570 N 245.365 1.30045 0.890287 0
M  V30 2571 C 246.781 1.08261 1.17268 0
M  V30 2572 C 246.981 -0.160063 2.00863 0
M  V30 2573 O 246.037 -0.855181 2.37577 0
M  V30 2574 C 247.35 2.34323 1.8845 0
M  V30 2575 C 248.898 2.39735 2.01237 0
M  V30 2576 C 249.373 3.65625 2.7583 0
M  V30 2577 N 250.864 3.66402 2.83379 0
M  V30 2578 C 251.599 4.60498 3.41657 0
M  V30 2579 N 251.095 5.64933 4.01026 0
M  V30 2580 N 252.888 4.48051 3.39421 0
M  V30 2581 H 245.039 2.09777 0.332762 0
M  V30 2582 H 247.302 0.92446 0.209948 0
M  V30 2583 H 247.008 3.2498 1.34465 0
M  V30 2584 H 246.882 2.4256 2.88867 0
M  V30 2585 H 249.269 1.4956 2.54393 0
M  V30 2586 H 249.35 2.35476 0.999232 0
M  V30 2587 H 248.994 4.56156 2.23347 0
M  V30 2588 H 248.924 3.67144 3.77509 0
M  V30 2589 H 251.415 2.90896 2.41222 0
M  V30 2590 H 251.728 6.32841 4.43545 0
M  V30 2591 H 250.073 5.68732 3.99461 0
M  V30 2592 H 253.264 3.65649 2.92264 0
M  V30 2593 H 253.437 5.21565 3.84544 0
M  V30 2594 N 246.843 -1.10192 1.12674 0
M  V30 2595 C 248.068 -1.86523 0.906853 0
M  V30 2596 C 248.493 -1.80221 -0.538711 0
M  V30 2597 O 247.851 -1.17396 -1.38158 0
M  V30 2598 C 247.899 -3.32758 1.3894 0
M  V30 2599 O 247.003 -4.08449 0.5695 0
M  V30 2600 H 246.344 -0.578678 0.325619 0
M  V30 2601 H 248.874 -1.39203 1.49946 0
M  V30 2602 H 248.884 -3.83608 1.38958 0
M  V30 2603 H 247.559 -3.36661 2.44197 0
M  V30 2604 H 246.136 -3.67427 0.636528 0
M  V30 2605 N 248.321 -0.919034 -1.28029 0
M  V30 2606 C 249.254 -0.355887 -2.25408 0
M  V30 2607 C 250.232 0.542874 -1.5327 0
M  V30 2608 O 251.416 0.485338 -1.82145 0
M  V30 2609 C 248.543 0.490759 -3.35126 0
M  V30 2610 C 247.589 -0.343358 -4.25116 0
M  V30 2611 S 248.422 -1.75344 -5.05979 0
M  V30 2612 C 249.578 -0.914244 -6.19187 0
M  V30 2613 H 249.811 -1.18123 -2.72826 0
M  V30 2614 H 247.344 -0.720636 -1.36551 0
M  V30 2615 H 249.302 0.973404 -3.98792 0
M  V30 2616 H 247.963 1.29054 -2.86363 0
M  V30 2617 H 247.156 0.304266 -5.03081 0
M  V30 2618 H 246.758 -0.759851 -3.662 0
M  V30 2619 H 249.05 -0.146282 -6.77342 0
M  V30 2620 H 249.993 -1.66661 -6.88208 0
M  V30 2621 H 250.401 -0.460082 -5.62622 0
M  V30 2622 N 249.799 1.42003 -0.683588 0
M  V30 2623 C 250.731 2.29183 0.0283068 0
M  V30 2624 C 251.744 1.4415 0.756611 0
M  V30 2625 O 252.933 1.67779 0.609306 0
M  V30 2626 C 250.033 3.21765 1.06398 0
M  V30 2627 C 249.206 4.35496 0.407723 0
M  V30 2628 C 248.265 5.08737 1.34437 0
M  V30 2629 O 247.291 5.62948 0.841318 0
M  V30 2630 N 248.493 5.15075 2.67728 0
M  V30 2631 H 251.258 2.9092 -0.720105 0
M  V30 2632 H 248.819 1.53025 -0.528682 0
M  V30 2633 H 250.811 3.6763 1.69204 0
M  V30 2634 H 249.381 2.61418 1.71404 0
M  V30 2635 H 248.601 3.92165 -0.400012 0
M  V30 2636 H 249.889 5.08776 -0.0490956 0
M  V30 2637 H 249.287 4.72457 3.11129 0
M  V30 2638 H 247.844 5.64556 3.2576 0
M  V30 2639 N 251.277 0.427512 1.51691 0
M  V30 2640 C 252.554 -0.201684 1.94557 0
M  V30 2641 C 252.934 -1.60981 1.36559 0
M  V30 2642 O 252.282 -2.21814 0.548702 0
M  V30 2643 C 252.492 -0.189394 3.48486 0
M  V30 2644 C 253.84 -0.39978 4.22714 0
M  V30 2645 O 254.864 -0.267945 3.55191 0
M  V30 2646 O 253.723 -0.661249 5.42485 0
M  V30 2647 H 250.817 -0.135261 0.815864 0
M  V30 2648 H 253.363 0.484782 1.62628 0
M  V30 2649 H 252.135 0.795431 3.8313 0
M  V30 2650 H 251.758 -0.919187 3.86829 0
M  V30 2651 N 252.755 -1.56801 0.158532 0
M  V30 2652 C 254.001 -1.96781 -0.490405 0
M  V30 2653 C 254.334 -1.04397 -1.63753 0
M  V30 2654 O 253.609 -0.0885805 -1.94298 0
M  V30 2655 C 253.892 -3.4635 -0.985594 0
M  V30 2656 C 253.745 -4.49512 0.160824 0
M  V30 2657 C 255.064 -3.98697 -1.86355 0
M  V30 2658 H 252.183 -0.715482 -0.176788 0
M  V30 2659 H 254.825 -1.88451 0.242088 0
M  V30 2660 H 252.975 -3.53579 -1.60978 0
M  V30 2661 H 254.647 -4.54353 0.797537 0
M  V30 2662 H 252.89 -4.26013 0.818256 0
M  V30 2663 H 253.561 -5.51531 -0.227569 0
M  V30 2664 H 256.037 -3.94019 -1.33746 0
M  V30 2665 H 254.913 -5.03792 -2.17909 0
M  V30 2666 H 255.174 -3.41744 -2.8047 0
M  V30 2667 N 254.233 0.115231 -1.57178 0
M  V30 2668 C 255.479 0.82357 -1.85325 0
M  V30 2669 C 255.812 1.79349 -0.744814 0
M  V30 2670 O 255.087 1.92899 0.249024 0
M  V30 2671 C 255.37 1.57014 -3.24066 0
M  V30 2672 C 255.223 0.619565 -4.45513 0
M  V30 2673 C 256.542 2.52545 -3.60429 0
M  V30 2674 H 253.661 0.297948 -0.674089 0
M  V30 2675 H 256.303 0.0877138 -1.89797 0
M  V30 2676 H 254.453 2.19742 -3.20383 0
M  V30 2677 H 256.125 0.000837639 -4.613 0
M  V30 2678 H 254.368 -0.0686174 -4.33746 0
M  V30 2679 H 255.039 1.17866 -5.3927 0
M  V30 2680 H 257.515 1.9992 -3.64926 0
M  V30 2681 H 256.391 3.01811 -4.58477 0
M  V30 2682 H 256.652 3.35383 -2.88047 0
M  V30 2683 N 255.711 1.52812 0.385517 0
M  V30 2684 C 256.621 1.80766 1.49535 0
M  V30 2685 C 257.637 0.694651 1.59532 0
M  V30 2686 O 258.813 0.982611 1.75803 0
M  V30 2687 C 255.878 1.97381 2.85029 0
M  V30 2688 C 254.939 3.21295 2.84724 0
M  V30 2689 C 254.172 3.37108 4.13756 0
M  V30 2690 O 254.395 2.5765 5.08893 0
M  V30 2691 O 253.329 4.30378 4.20783 0
M  V30 2692 H 257.155 2.75015 1.28842 0
M  V30 2693 H 254.74 1.37946 0.573697 0
M  V30 2694 H 256.622 2.09996 3.65349 0
M  V30 2695 H 255.297 1.06322 3.05741 0
M  V30 2696 H 254.204 3.1412 2.03174 0
M  V30 2697 H 255.537 4.12212 2.68965 0
M  V30 2698 N 257.189 -0.644168 1.43834 0
M  V30 2699 C 258.466 -1.40188 1.36406 0
M  V30 2700 C 258.846 -2.11094 0.0163124 0
M  V30 2701 O 258.194 -2.05426 -1.00062 0
M  V30 2702 C 258.404 -2.3791 2.55343 0
M  V30 2703 C 259.752 -3.01637 2.98832 0
M  V30 2704 O 260.776 -2.48237 2.55455 0
M  V30 2705 O 259.635 -3.98477 3.74003 0
M  V30 2706 H 256.729 -0.626773 0.539523 0
M  V30 2707 H 259.275 -0.670317 1.559 0
M  V30 2708 H 258.047 -1.84525 3.4506 0
M  V30 2709 H 257.67 -3.18503 2.37995 0
M  V30 2710 N 258.668 -1.30515 -0.883378 0
M  V30 2711 C 259.915 -1.1943 -1.63532 0
M  V30 2712 C 260.243 0.250627 -1.92878 0
M  V30 2713 O 259.498 1.19556 -1.54935 0
M  V30 2714 C 259.797 -1.96994 -2.98209 0
M  V30 2715 C 259.463 -3.466 -2.88408 0
M  V30 2716 C 258.125 -3.87397 -2.85442 0
M  V30 2717 C 260.477 -4.41863 -2.76418 0
M  V30 2718 C 257.805 -5.21745 -2.68327 0
M  V30 2719 C 260.157 -5.7632 -2.60841 0
M  V30 2720 C 258.821 -6.16354 -2.56251 0
M  V30 2721 H 258.091 -0.437025 -0.598406 0
M  V30 2722 H 260.738 -1.61635 -1.02696 0
M  V30 2723 H 259.043 -1.47429 -3.63004 0
M  V30 2724 H 260.74 -1.85808 -3.55354 0
M  V30 2725 H 257.33 -3.14182 -2.91527 0
M  V30 2726 H 261.514 -4.11285 -2.77775 0
M  V30 2727 H 256.77 -5.51853 -2.63189 0
M  V30 2728 H 260.944 -6.49772 -2.50538 0
M  V30 2729 H 258.571 -7.20401 -2.42748 0
M  V30 2730 N 260.146 1.09593 -1.13257 0
M  V30 2731 C 261.093 2.1618 -0.808381 0
M  V30 2732 C 262.063 1.64517 0.228754 0
M  V30 2733 O 263.248 1.9053 0.101381 0
M  V30 2734 C 260.388 3.43973 -0.278675 0
M  V30 2735 C 259.501 4.09545 -1.37466 0
M  V30 2736 C 258.636 5.25088 -0.803479 0
M  V30 2737 C 257.675 5.82579 -1.87799 0
M  V30 2738 N 256.812 6.89486 -1.32488 0
M  V30 2739 H 261.652 2.43254 -1.72138 0
M  V30 2740 H 259.189 1.19392 -0.859294 0
M  V30 2741 H 261.147 4.17174 0.0465583 0
M  V30 2742 H 259.777 3.17223 0.597459 0
M  V30 2743 H 258.829 3.34226 -1.81652 0
M  V30 2744 H 260.141 4.48307 -2.18684 0
M  V30 2745 H 259.295 6.05178 -0.429427 0
M  V30 2746 H 258.034 4.87684 0.0397956 0
M  V30 2747 H 257.039 5.01152 -2.26113 0
M  V30 2748 H 258.264 6.22045 -2.72463 0
M  V30 2749 H 256.21 6.54064 -0.503575 0
M  V30 2750 H 256.127 7.27007 -2.07355 0
M  V30 2751 H 257.395 7.73336 -0.978336 0
M  V30 2752 N 261.624 0.925811 1.2754 0
M  V30 2753 C 262.572 0.413897 2.28888 0
M  V30 2754 C 263.566 -0.500779 1.61829 0
M  V30 2755 O 264.772 -0.38069 1.75928 0
M  V30 2756 H 261.147 0.115274 0.743112 0
M  V30 2757 H 263.118 1.28151 2.69481 0
M  V30 2758 C 261.867 -0.319792 3.46226 0
M  V30 2759 H 261.19 0.374846 3.98039 0
M  V30 2760 H 262.63 -0.642435 4.19105 0
M  V30 2761 C 261.089 -1.53209 3.00048 0
M  V30 2762 O 261.619 -2.6309 3.03557 0
M  V30 2763 N 259.825 -1.38326 2.55566 0
M  V30 2764 H 259.372 -0.489292 2.5291 0
M  V30 2765 H 259.33 -2.19564 2.25031 0
M  V30 2766 N 263.102 -1.41638 0.69111 0
M  V30 2767 C 264.049 -2.30789 0.0229705 0
M  V30 2768 C 265.019 -1.46863 -0.775911 0
M  V30 2769 O 266.204 -1.75661 -0.74485 0
M  V30 2770 C 263.344 -3.32868 -0.910666 0
M  V30 2771 C 262.457 -4.31875 -0.103874 0
M  V30 2772 C 261.592 -5.21024 -1.03475 0
M  V30 2773 C 260.631 -6.11702 -0.220598 0
M  V30 2774 N 259.768 -6.93349 -1.10504 0
M  V30 2775 H 264.608 -2.87366 0.788978 0
M  V30 2776 H 262.145 -1.41535 0.400794 0
M  V30 2777 H 264.103 -3.90596 -1.46597 0
M  V30 2778 H 262.733 -2.77851 -1.64312 0
M  V30 2779 H 261.785 -3.76131 0.568285 0
M  V30 2780 H 263.097 -4.96003 0.527504 0
M  V30 2781 H 262.251 -5.83565 -1.65943 0
M  V30 2782 H 260.99 -4.57112 -1.69999 0
M  V30 2783 H 259.995 -5.48215 0.417187 0
M  V30 2784 H 261.22 -6.77668 0.440784 0
M  V30 2785 H 259.166 -6.3205 -1.75638 0
M  V30 2786 H 259.083 -7.54146 -0.529125 0
M  V30 2787 H 260.351 -7.60362 -1.71667 0
M  V30 2788 N 264.58 -0.43555 -1.51462 0
M  V30 2789 C 265.81 0.130053 -2.0619 0
M  V30 2790 C 266.218 1.37164 -1.30317 0
M  V30 2791 O 265.561 1.80225 -0.355598 0
M  V30 2792 C 265.623 0.519418 -3.55728 0
M  V30 2793 C 265.287 -0.615119 -4.52841 0
M  V30 2794 C 266.284 -1.48671 -4.9819 0
M  V30 2795 C 263.969 -0.795341 -4.95963 0
M  V30 2796 C 265.963 -2.52324 -5.8533 0
M  V30 2797 C 263.65 -1.83514 -5.82894 0
M  V30 2798 C 264.648 -2.69748 -6.27475 0
M  V30 2799 O 264.336 -3.71944 -7.1268 0
M  V30 2800 H 264.068 0.0121612 -0.675891 0
M  V30 2801 H 266.622 -0.6129 -1.96043 0
M  V30 2802 H 264.852 1.31505 -3.63653 0
M  V30 2803 H 266.541 1.01597 -3.92979 0
M  V30 2804 H 267.307 -1.359 -4.65571 0
M  V30 2805 H 263.186 -0.133713 -4.60806 0
M  V30 2806 H 266.73 -3.19665 -6.20048 0
M  V30 2807 H 262.627 -1.96306 -6.14926 0
M  V30 2808 H 263.395 -3.68503 -7.30854 0
M  V30 2809 N 266.058 1.56714 -0.166846 0
M  V30 2810 C 266.968 2.21331 0.777791 0
M  V30 2811 C 267.984 1.20358 1.25658 0
M  V30 2812 O 269.16 1.53005 1.30964 0
M  V30 2813 C 266.225 2.83787 1.99163 0
M  V30 2814 C 265.286 3.99947 1.56016 0
M  V30 2815 C 264.519 4.59415 2.71613 0
M  V30 2816 O 264.742 4.17769 3.88362 0
M  V30 2817 O 263.676 5.49359 2.45945 0
M  V30 2818 H 267.502 3.02605 0.257636 0
M  V30 2819 H 265.087 1.49275 0.0611393 0
M  V30 2820 H 266.969 3.23405 2.70161 0
M  V30 2821 H 265.644 2.05513 2.50092 0
M  V30 2822 H 264.551 3.65007 0.819809 0
M  V30 2823 H 265.884 4.79801 1.09782 0
M  V30 2824 N 267.536 -0.106894 1.57237 0
M  V30 2825 C 268.813 -0.843526 1.76477 0
M  V30 2826 C 269.193 -1.97499 0.745464 0
M  V30 2827 O 268.541 -2.27357 -0.228306 0
M  V30 2828 C 268.751 -1.34903 3.21873 0
M  V30 2829 C 270.099 -1.79654 3.8472 0
M  V30 2830 O 271.123 -1.44554 3.2555 0
M  V30 2831 O 269.982 -2.44515 4.88748 0
M  V30 2832 H 267.076 -0.401468 0.723016 0
M  V30 2833 H 269.622 -0.0896927 1.69463 0
M  V30 2834 H 268.394 -0.53781 3.87586 0
M  V30 2835 H 268.017 -2.16522 3.33473 0
M  V30 2836 N 269.014 -1.53014 -0.377408 0
M  V30 2837 C 269.924 -1.81557 -1.48574 0
M  V30 2838 C 270.94 -0.703102 -1.59162 0
M  V30 2839 O 272.116 -0.99192 -1.75279 0
M  V30 2840 C 269.181 -1.9889 -2.83978 0
M  V30 2841 C 268.242 -3.22801 -2.83016 0
M  V30 2842 C 267.475 -3.39298 -4.11962 0
M  V30 2843 O 267.698 -2.60345 -5.0752 0
M  V30 2844 O 266.632 -4.32604 -4.18494 0
M  V30 2845 H 270.458 -2.75695 -1.27382 0
M  V30 2846 H 268.043 -1.38248 -0.566373 0
M  V30 2847 H 269.925 -2.11931 -3.6423 0
M  V30 2848 H 268.6 -1.07942 -3.05172 0
M  V30 2849 H 267.507 -3.15193 -2.01505 0
M  V30 2850 H 268.84 -4.13632 -2.66775 0
M  V30 2851 N 270.492 0.636531 -1.44174 0
M  V30 2852 C 271.741 1.39213 -1.45954 0
M  V30 2853 C 272.054 1.95374 -0.0939119 0
M  V30 2854 O 273.26 2.71498 0.0107767 0
M  V30 2855 C 271.716 2.52025 -2.56927 0
M  V30 2856 C 271.324 2.024 -3.99673 0
M  V30 2857 C 273.068 3.29269 -2.67922 0
M  V30 2858 C 270.975 3.12521 -5.0208 0
M  V30 2859 H 269.905 0.523132 -0.542999 0
M  V30 2860 H 272.556 0.685349 -1.70221 0
M  V30 2861 H 270.938 3.25253 -2.25891 0
M  V30 2862 H 272.112 1.36073 -4.40251 0
M  V30 2863 H 270.427 1.37987 -3.92872 0
M  V30 2864 H 273.024 4.11352 -3.41605 0
M  V30 2865 H 273.367 3.78397 -1.73555 0
M  V30 2866 H 273.9 2.63129 -2.98342 0
M  V30 2867 H 270.639 2.68343 -5.98057 0
M  V30 2868 H 270.159 3.77507 -4.66099 0
M  V30 2869 H 271.838 3.77385 -5.25538 0
M  V30 2870 N 271.97 1.30982 0.876444 0
M  V30 2871 C 272.918 1.18006 2.00443 0
M  V30 2872 C 273.912 0.0898871 1.69161 0
M  V30 2873 O 275.118 0.251333 1.78237 0
M  V30 2874 H 271.493 0.365196 0.65737 0
M  V30 2875 H 273.464 2.13453 2.0852 0
M  V30 2876 C 272.213 0.897521 3.35916 0
M  V30 2877 H 271.536 1.7285 3.60504 0
M  V30 2878 H 272.976 0.846874 4.15456 0
M  V30 2879 C 271.435 -0.399674 3.34521 0
M  V30 2880 O 271.965 -1.41852 3.7582 0
M  V30 2881 N 270.171 -0.413893 2.87637 0
M  V30 2882 H 269.718 0.41571 2.54224 0
M  V30 2883 H 269.676 -1.28175 2.87086 0
M  V30 2884 N 273.449 -1.08991 1.13837 0
M  V30 2885 C 274.399 -2.1393 0.788535 0
M  V30 2886 C 275.383 -1.59396 -0.219516 0
M  V30 2887 O 276.575 -1.76985 -0.0227557 0
M  V30 2888 C 273.704 -3.42305 0.261147 0
M  V30 2889 C 272.79 -4.03736 1.29837 0
M  V30 2890 N 273.181 -4.39659 2.50067 0
M  V30 2891 C 271.479 -4.30993 1.1472 0
M  V30 2892 C 272.18 -4.88113 3.16419 0
M  V30 2893 N 271.156 -4.85846 2.43832 0
M  V30 2894 H 274.958 -2.39516 1.70322 0
M  V30 2895 H 272.472 -1.26263 1.02134 0
M  V30 2896 H 274.469 -4.16899 -0.0077405 0
M  V30 2897 H 273.129 -3.18172 -0.647805 0
M  V30 2898 H 274.14 -4.30878 2.8734 0
M  V30 2899 H 270.817 -4.16444 0.296773 0
M  V30 2900 H 272.207 -5.25336 4.18894 0
M  V30 2901 N 274.927 -0.932562 -1.27047 0
M  V30 2902 C 276.343 -0.633544 -1.46487 0
M  V30 2903 C 276.543 0.815746 -1.84249 0
M  V30 2904 O 275.599 1.59319 -1.95892 0
M  V30 2905 C 276.912 -1.58758 -2.55375 0
M  V30 2906 C 278.46 -1.59634 -2.69232 0
M  V30 2907 C 278.935 -2.53747 -3.81283 0
M  V30 2908 N 280.426 -2.51982 -3.88664 0
M  V30 2909 C 281.161 -3.21491 -4.74796 0
M  V30 2910 N 280.657 -4.00395 -5.65381 0
M  V30 2911 N 282.45 -3.10485 -4.68568 0
M  V30 2912 H 274.601 -1.86946 -1.00821 0
M  V30 2913 H 276.864 -0.802897 -0.504044 0
M  V30 2914 H 276.57 -2.62172 -2.34432 0
M  V30 2915 H 276.444 -1.33301 -3.52861 0
M  V30 2916 H 278.831 -0.569488 -2.89553 0
M  V30 2917 H 278.912 -1.89142 -1.72218 0
M  V30 2918 H 278.556 -3.56545 -3.61715 0
M  V30 2919 H 278.486 -2.21532 -4.77735 0
M  V30 2920 H 280.977 -1.94681 -3.23895 0
M  V30 2921 H 281.29 -4.50406 -6.27976 0
M  V30 2922 H 279.635 -4.04498 -5.65161 0
M  V30 2923 H 282.826 -2.48331 -3.96799 0
M  V30 2924 H 282.999 -3.64925 -5.35475 0
M  V30 2925 N 276.405 1.4127 -0.698611 0
M  V30 2926 C 277.633 2.05503 -0.239992 0
M  V30 2927 C 278.048 1.52584 1.11191 0
M  V30 2928 O 277.405 0.675323 1.69545 0
M  V30 2929 C 277.456 3.60987 -0.192429 0
M  V30 2930 O 277.177 4.1195 -1.49094 0
M  V30 2931 C 278.678 4.42371 0.28681 0
M  V30 2932 H 275.898 0.661748 -0.111045 0
M  V30 2933 H 278.442 1.80987 -0.95205 0
M  V30 2934 H 276.597 3.84533 0.470472 0
M  V30 2935 H 277.011 5.06018 -1.38007 0
M  V30 2936 H 278.485 5.51344 0.26896 0
M  V30 2937 H 278.962 4.18699 1.32619 0
M  V30 2938 H 279.568 4.23897 -0.345201 0
M  V30 2939 N 277.883 0.443576 1.51229 0
M  V30 2940 C 278.846 -0.353132 2.26463 0
M  V30 2941 C 279.846 -0.944338 1.3015 0
M  V30 2942 O 281.036 -0.817813 1.5381 0
M  V30 2943 C 278.168 -1.50023 3.06114 0
M  V30 2944 H 279.361 0.3063 2.98332 0
M  V30 2945 H 276.914 0.196902 1.55055 0
M  V30 2946 H 277.649 -2.19553 2.38677 0
M  V30 2947 H 277.434 -1.08241 3.76864 0
M  V30 2948 H 278.924 -2.06296 3.63087 0
M  V30 2949 N 279.361 -1.56624 0.175154 0
M  V30 2950 C 280.324 -2.16934 -0.739738 0
M  V30 2951 C 281.324 -1.11842 -1.15533 0
M  V30 2952 O 282.514 -1.37335 -1.07167 0
M  V30 2953 C 279.646 -2.75531 -2.00738 0
M  V30 2954 H 280.839 -2.99131 -0.214639 0
M  V30 2955 H 278.392 -1.56123 -0.0744197 0
M  V30 2956 H 279.127 -1.97078 -2.57548 0
M  V30 2957 H 278.912 -3.52444 -1.71831 0
M  V30 2958 H 280.402 -3.21904 -2.66021 0
M  V30 2959 N 280.839 0.0985539 -1.57292 0
M  V30 2960 C 281.749 1.13824 -2.05137 0
M  V30 2961 C 282.765 1.44076 -0.975604 0
M  V30 2962 O 283.941 1.54786 -1.28853 0
M  V30 2963 C 281.006 2.43969 -2.46333 0
M  V30 2964 C 280.067 2.2093 -3.68087 0
M  V30 2965 C 279.3 3.44869 -4.0731 0
M  V30 2966 O 279.523 4.52972 -3.46659 0
M  V30 2967 O 278.457 3.34661 -5.00285 0
M  V30 2968 H 282.283 0.761881 -2.93988 0
M  V30 2969 H 279.868 0.310818 -1.46131 0
M  V30 2970 H 281.75 3.20609 -2.73473 0
M  V30 2971 H 280.425 2.81038 -1.60621 0
M  V30 2972 H 279.332 1.42081 -3.46069 0
M  V30 2973 H 280.665 1.88755 -4.54568 0
M  V30 2974 N 282.317 1.53212 0.369288 0
M  V30 2975 C 283.265 1.80054 1.47253 0
M  V30 2976 C 284.259 0.669456 1.55611 0
M  V30 2977 O 285.465 0.852328 1.58541 0
M  V30 2978 H 281.84 0.570034 0.490475 0
M  V30 2979 H 283.811 2.72403 1.21817 0
M  V30 2980 C 282.56 2.00403 2.84137 0
M  V30 2981 H 281.883 2.86876 2.78464 0
M  V30 2982 H 283.323 2.23164 3.60519 0
M  V30 2983 C 281.782 0.782081 3.27697 0
M  V30 2984 O 282.312 -0.0310205 4.01688 0
M  V30 2985 N 280.518 0.606573 2.84199 0
M  V30 2986 H 280.065 1.26939 2.24152 0
M  V30 2987 H 280.023 -0.20962 3.137 0
M  V30 2988 N 283.795 -0.628877 1.44509 0
M  V30 2989 C 284.705 -1.7694 1.54044 0
M  V30 2990 C 285.721 -1.68705 0.425987 0
M  V30 2991 O 286.897 -1.89442 0.683656 0
M  V30 2992 C 283.962 -3.13332 1.48405 0
M  V30 2993 C 283.023 -3.33181 2.70719 0
M  V30 2994 C 282.256 -4.63067 2.6534 0
M  V30 2995 O 282.479 -5.44017 1.71469 0
M  V30 2996 O 281.413 -4.85167 3.56226 0
M  V30 2997 H 285.239 -1.71848 2.50403 0
M  V30 2998 H 282.824 -0.790378 1.26781 0
M  V30 2999 H 284.706 -3.94634 1.47791 0
M  V30 3000 H 283.381 -3.1896 0.551898 0
M  V30 3001 H 282.288 -2.51549 2.769 0
M  V30 3002 H 283.621 -3.32416 3.62988 0
M  V30 3003 N 285.273 -1.31445 -0.869486 0
M  V30 3004 C 286.52 -1.21158 -1.62256 0
M  V30 3005 C 286.848 0.230155 -1.93133 0
M  V30 3006 O 286.103 1.17906 -1.56194 0
M  V30 3007 C 286.402 -2.00145 -2.96102 0
M  V30 3008 C 286.068 -3.4964 -2.84715 0
M  V30 3009 C 284.73 -3.90403 -2.81317 0
M  V30 3010 C 287.082 -4.44769 -2.71716 0
M  V30 3011 C 284.41 -5.24561 -2.62778 0
M  V30 3012 C 286.762 -5.79054 -2.54714 0
M  V30 3013 C 285.426 -6.19037 -2.49699 0
M  V30 3014 H 284.696 -0.443348 -0.593737 0
M  V30 3015 H 287.343 -1.62715 -1.00976 0
M  V30 3016 H 285.648 -1.5127 -3.6142 0
M  V30 3017 H 287.345 -1.89566 -3.53363 0
M  V30 3018 H 283.935 -3.17256 -2.88178 0
M  V30 3019 H 288.119 -4.14208 -2.73397 0
M  V30 3020 H 283.375 -5.54613 -2.57321 0
M  V30 3021 H 287.549 -6.52393 -2.43632 0
M  V30 3022 H 285.176 -7.22935 -2.35093 0
M  V30 3023 N 286.751 1.08385 -1.14413 0
M  V30 3024 C 287.997 1.81044 -0.913834 0
M  V30 3025 C 288.33 1.86004 0.558209 0
M  V30 3026 O 287.605 1.33606 1.4135 0
M  V30 3027 C 287.888 3.26648 -1.51569 0
M  V30 3028 C 287.741 3.29895 -3.0576 0
M  V30 3029 C 289.06 4.23629 -1.19273 0
M  V30 3030 H 286.179 0.65727 -0.333414 0
M  V30 3031 H 288.821 1.26896 -1.41412 0
M  V30 3032 H 286.971 3.72889 -1.09023 0
M  V30 3033 H 288.643 2.91977 -3.57137 0
M  V30 3034 H 286.886 2.69163 -3.40197 0
M  V30 3035 H 287.557 4.32516 -3.42977 0
M  V30 3036 H 290.033 3.85727 -1.56057 0
M  V30 3037 H 288.909 5.23822 -1.64017 0
M  V30 3038 H 289.17 4.41968 -0.108068 0
M  V30 3039 N 288.23 0.939286 1.26551 0
M  V30 3040 C 289.476 0.586715 1.94128 0
M  V30 3041 C 289.809 -0.8717 1.73537 0
M  V30 3042 O 289.084 -1.62339 1.07127 0
M  V30 3043 C 289.367 0.927497 3.4795 0
M  V30 3044 C 289.22 2.44052 3.77834 0
M  V30 3045 C 290.539 0.441569 4.37879 0
M  V30 3046 H 287.658 0.21463 0.705055 0
M  V30 3047 H 290.3 1.17316 1.49455 0
M  V30 3048 H 288.45 0.428431 3.8613 0
M  V30 3049 H 290.122 3.01216 3.4938 0
M  V30 3050 H 288.365 2.8848 3.23978 0
M  V30 3051 H 289.036 2.62947 4.85348 0
M  V30 3052 H 291.512 0.869448 4.06915 0
M  V30 3053 H 290.388 0.708856 5.44304 0
M  V30 3054 H 290.649 -0.658467 4.37169 0
M  V30 3055 N 289.708 -1.40897 0.706093 0
M  V30 3056 C 290.638 -2.33418 0.0620085 0
M  V30 3057 C 291.619 -1.52385 -0.755827 0
M  V30 3058 O 292.804 -1.80886 -0.706674 0
M  V30 3059 C 289.934 -3.36293 -0.867445 0
M  V30 3060 C 288.888 -4.27716 -0.155932 0
M  V30 3061 C 288.214 -5.2105 -1.20046 0
M  V30 3062 C 289.514 -5.12944 0.984149 0
M  V30 3063 H 291.208 -2.87527 0.83477 0
M  V30 3064 H 288.754 -1.38249 0.402875 0
M  V30 3065 H 290.707 -3.99949 -1.32735 0
M  V30 3066 H 289.431 -2.80556 -1.67199 0
M  V30 3067 H 288.09 -3.65498 0.284047 0
M  V30 3068 H 287.738 -4.61624 -1.99781 0
M  V30 3069 H 287.438 -5.83056 -0.729328 0
M  V30 3070 H 288.962 -5.87584 -1.66066 0
M  V30 3071 H 290.376 -5.70109 0.604048 0
M  V30 3072 H 288.773 -5.83945 1.38304 0
M  V30 3073 H 289.843 -4.49485 1.81911 0
M  V30 3074 N 291.186 -0.45159 -1.50991 0
M  V30 3075 C 292.133 0.352625 -2.2809 0
M  V30 3076 C 293.103 1.0044 -1.32291 0
M  V30 3077 O 294.288 1.02058 -1.6121 0
M  V30 3078 C 291.428 1.43983 -3.13629 0
M  V30 3079 C 290.541 0.804772 -4.24438 0
M  V30 3080 C 289.676 1.86822 -4.97263 0
M  V30 3081 C 288.715 1.21236 -5.99973 0
M  V30 3082 N 287.852 2.2178 -6.66152 0
M  V30 3083 H 292.692 -0.311186 -2.96371 0
M  V30 3084 H 290.229 -0.165308 -1.46168 0
M  V30 3085 H 292.187 2.08161 -3.61559 0
M  V30 3086 H 290.817 2.07307 -2.47434 0
M  V30 3087 H 289.869 0.0509129 -3.80366 0
M  V30 3088 H 291.181 0.286076 -4.97979 0
M  V30 3089 H 290.335 2.58628 -5.48813 0
M  V30 3090 H 289.074 2.42068 -4.23385 0
M  V30 3091 H 288.079 0.479828 -5.47702 0
M  V30 3092 H 289.304 0.667051 -6.75816 0
M  V30 3093 H 287.25 2.76079 -5.95077 0
M  V30 3094 H 287.167 1.74841 -7.35504 0
M  V30 3095 H 288.435 2.93026 -7.22327 0
M  V30 3096 N 292.664 1.56529 -0.183458 0
M  V30 3097 C 293.611 2.18546 0.742055 0
M  V30 3098 C 294.581 1.12912 1.2182 0
M  V30 3099 O 295.766 1.41115 1.28418 0
M  V30 3100 C 292.906 2.83977 1.96089 0
M  V30 3101 C 292.019 4.04105 1.52719 0
M  V30 3102 C 291.154 4.57427 2.70063 0
M  V30 3103 C 290.193 5.69938 2.23243 0
M  V30 3104 N 289.33 6.17717 3.33722 0
M  V30 3105 H 294.17 2.97284 0.206432 0
M  V30 3106 H 291.707 1.46823 0.0901571 0
M  V30 3107 H 293.665 3.20077 2.67594 0
M  V30 3108 H 292.295 2.07822 2.47002 0
M  V30 3109 H 291.347 3.73745 0.708436 0
M  V30 3110 H 292.659 4.85513 1.1436 0
M  V30 3111 H 291.813 4.95772 3.49708 0
M  V30 3112 H 290.552 3.75101 3.11689 0
M  V30 3113 H 289.557 5.31133 1.42048 0
M  V30 3114 H 290.782 6.54073 1.82661 0
M  V30 3115 H 288.728 5.38317 3.74902 0
M  V30 3116 H 288.645 6.94146 2.99495 0
M  V30 3117 H 289.913 6.60713 4.13616 0
M  V30 3118 N 294.142 -0.090211 1.57342 0
M  V30 3119 C 295.419 -0.824761 1.77361 0
M  V30 3120 C 295.799 -1.96698 0.76637 0
M  V30 3121 O 295.147 -2.27586 -0.204179 0
M  V30 3122 C 295.357 -1.31481 3.23286 0
M  V30 3123 C 296.705 -1.75563 3.86604 0
M  V30 3124 O 297.729 -1.41093 3.27065 0
M  V30 3125 O 296.588 -2.39317 4.91314 0
M  V30 3126 H 293.682 -0.393776 0.727234 0
M  V30 3127 H 296.228 -0.0717138 1.69548 0
M  V30 3128 H 295 -0.496671 3.88135 0
M  V30 3129 H 294.623 -2.12973 3.35751 0
M  V30 3130 N 295.62 -1.53406 -0.361157 0
M  V30 3131 C 296.866 -1.70054 -1.10496 0
M  V30 3132 C 297.199 -0.453278 -1.88836 0
M  V30 3133 O 296.474 0.5495 -1.86576 0
M  V30 3134 C 296.757 -2.95317 -2.06058 0
M  V30 3135 C 296.61 -4.3021 -1.31298 0
M  V30 3136 C 297.929 -3.16193 -3.06121 0
M  V30 3137 H 295.048 -0.618799 -0.400321 0
M  V30 3138 H 297.69 -1.86052 -0.385318 0
M  V30 3139 H 295.84 -2.81809 -2.67425 0
M  V30 3140 H 297.512 -4.55538 -0.726807 0
M  V30 3141 H 295.755 -4.29421 -0.614853 0
M  V30 3142 H 296.426 -5.14 -2.01265 0
M  V30 3143 H 298.902 -3.28916 -2.5486 0
M  V30 3144 H 297.778 -4.05266 -3.70204 0
M  V30 3145 H 298.039 -2.31676 -3.76535 0
M  V30 3146 N 297.098 0.621204 -1.44841 0
M  V30 3147 C 298.375 1.38 -1.38619 0
M  V30 3148 C 298.755 2.11041 -0.0498935 0
M  V30 3149 O 298.103 2.06992 0.967816 0
M  V30 3150 C 298.313 2.33817 -2.59096 0
M  V30 3151 C 299.661 2.96844 -3.03593 0
M  V30 3152 O 300.685 2.44141 -2.59371 0
M  V30 3153 O 299.544 3.92476 -3.80296 0
M  V30 3154 H 296.638 0.61811 -0.549426 0
M  V30 3155 H 299.184 0.645429 -1.56947 0
M  V30 3156 H 297.956 1.79012 -3.47952 0
M  V30 3157 H 297.579 3.14676 -2.43032 0
M  V30 3158 N 298.576 1.31904 0.862503 0
M  V30 3159 C 299.539 1.20131 1.95195 0
M  V30 3160 C 300.539 0.126409 1.60302 0
M  V30 3161 O 301.729 0.376234 1.70089 0
M  V30 3162 C 298.861 0.845691 3.30244 0
M  V30 3163 H 300.054 2.16943 2.07064 0
M  V30 3164 H 297.607 1.15622 1.05172 0
M  V30 3165 H 298.342 -0.120957 3.24074 0
M  V30 3166 H 298.127 1.62276 3.56944 0
M  V30 3167 H 299.617 0.787418 4.10109 0
M  V30 3168 N 300.054 -1.07777 1.14986 0
M  V30 3169 C 301.017 -2.13041 0.845358 0
M  V30 3170 C 302.017 -1.60071 -0.152931 0
M  V30 3171 O 303.207 -1.74033 0.0761879 0
M  V30 3172 C 300.339 -3.39896 0.261383 0
M  V30 3173 H 301.532 -2.41485 1.77834 0
M  V30 3174 H 299.085 -1.23595 0.956757 0
M  V30 3175 H 299.82 -3.17091 -0.68 0
M  V30 3176 H 299.605 -3.79642 0.980514 0
M  V30 3177 H 301.095 -4.17548 0.0657687 0
M  V30 3178 N 301.532 -0.945985 -1.26051 0
M  V30 3179 C 302.762 -0.612136 -1.97323 0
M  V30 3180 C 303.17 0.818171 -1.70595 0
M  V30 3181 O 302.513 1.55777 -0.973613 0
M  V30 3182 C 302.575 -0.780347 -3.50929 0
M  V30 3183 C 302.239 -2.18619 -4.01317 0
M  V30 3184 C 303.236 -3.16209 -4.12683 0
M  V30 3185 C 300.921 -2.50805 -4.35203 0
M  V30 3186 C 302.915 -4.44085 -4.57238 0
M  V30 3187 C 300.602 -3.78912 -4.79446 0
M  V30 3188 C 301.6 -4.75365 -4.90425 0
M  V30 3189 O 301.288 -6.01191 -5.3369 0
M  V30 3190 H 301.02 -0.229134 -0.635982 0
M  V30 3191 H 303.574 -1.27036 -1.61404 0
M  V30 3192 H 301.804 -0.0649864 -3.86645 0
M  V30 3193 H 303.493 -0.448842 -4.03411 0
M  V30 3194 H 304.259 -2.92668 -3.86744 0
M  V30 3195 H 300.138 -1.76463 -4.2589 0
M  V30 3196 H 303.682 -5.19373 -4.65723 0
M  V30 3197 H 299.579 -4.02265 -5.0483 0
M  V30 3198 H 300.347 -6.04442 -5.51899 0
M  V30 3199 N 303.011 1.40521 -0.713556 0
M  V30 3200 C 303.944 2.28198 -0.00881422 0
M  V30 3201 C 304.922 1.43227 0.769735 0
M  V30 3202 O 306.106 1.72641 0.756799 0
M  V30 3203 C 303.233 3.23758 0.994899 0
M  V30 3204 C 302.279 4.25391 0.3074 0
M  V30 3205 S 303.112 5.26765 -0.963247 0
M  V30 3206 C 304.268 6.25888 0.0384143 0
M  V30 3207 H 304.501 2.87622 -0.752407 0
M  V30 3208 H 302.034 1.45925 -0.504502 0
M  V30 3209 H 303.992 3.79341 1.56879 0
M  V30 3210 H 302.653 2.63396 1.71118 0
M  V30 3211 H 301.846 4.92596 1.0661 0
M  V30 3212 H 301.448 3.73497 -0.193879 0
M  V30 3213 H 303.74 6.71683 0.885912 0
M  V30 3214 H 304.683 7.05552 -0.60019 0
M  V30 3215 H 305.091 5.63072 0.401233 0
M  V30 3216 N 304.489 0.459591 1.5075 0
M  V30 3217 C 305.714 -0.0996819 2.0716 0
M  V30 3218 C 306.139 -1.33761 1.32249 0
M  V30 3219 O 305.497 -1.77551 0.366786 0
M  V30 3220 C 305.545 -0.378226 3.58611 0
M  V30 3221 O 304.649 -1.46081 3.85661 0
M  V30 3222 H 303.99 0.00791392 0.663953 0
M  V30 3223 H 306.52 0.647329 1.9409 0
M  V30 3224 H 306.53 -0.622135 4.03229 0
M  V30 3225 H 305.205 0.526439 4.12555 0
M  V30 3226 H 303.782 -1.20511 3.5289 0
M  V30 3227 N 305.967 -1.56429 0.191757 0
M  V30 3228 C 306.914 -2.18936 -0.730454 0
M  V30 3229 C 307.884 -1.13557 -1.21219 0
M  V30 3230 O 309.069 -1.41794 -1.27668 0
M  V30 3231 C 306.209 -2.85013 -1.9458 0
M  V30 3232 C 305.322 -4.04909 -1.50574 0
M  V30 3233 C 304.457 -4.58853 -2.67634 0
M  V30 3234 C 303.496 -5.71114 -2.20217 0
M  V30 3235 N 302.633 -6.19478 -3.30442 0
M  V30 3236 H 307.473 -2.97389 -0.190664 0
M  V30 3237 H 305.01 -1.46869 -0.0823694 0
M  V30 3238 H 306.968 -3.21492 -2.65893 0
M  V30 3239 H 305.598 -2.09129 -2.45896 0
M  V30 3240 H 304.65 -3.74115 -0.688605 0
M  V30 3241 H 305.962 -4.86113 -1.11784 0
M  V30 3242 H 305.116 -4.97619 -3.47074 0
M  V30 3243 H 303.855 -3.76749 -3.09696 0
M  V30 3244 H 302.86 -5.31879 -1.3923 0
M  V30 3245 H 304.085 -6.55033 -1.79189 0
M  V30 3246 H 302.031 -5.40297 -3.72041 0
M  V30 3247 H 301.948 -6.95725 -2.9581 0
M  V30 3248 H 303.216 -6.62898 -4.10106 0
M  V30 3249 N 307.445 0.0818655 -1.57387 0
M  V30 3250 C 308.691 0.784074 -1.8703 0
M  V30 3251 C 309.024 1.77729 -0.782689 0
M  V30 3252 O 308.299 1.93384 0.208051 0
M  V30 3253 C 308.582 1.50105 -3.27323 0
M  V30 3254 C 308.435 0.524925 -4.46727 0
M  V30 3255 C 309.754 2.44843 -3.65705 0
M  V30 3256 H 306.873 0.283582 -0.680257 0
M  V30 3257 H 309.515 0.0474352 -1.89941 0
M  V30 3258 H 307.665 2.12897 -3.24972 0
M  V30 3259 H 309.337 -0.0970111 -4.61198 0
M  V30 3260 H 307.58 -0.160606 -4.33503 0
M  V30 3261 H 308.251 1.064 -5.41648 0
M  V30 3262 H 310.727 1.92135 -3.69085 0
M  V30 3263 H 309.603 2.92018 -4.64776 0
M  V30 3264 H 309.864 3.29197 -2.95096 0
M  V30 3265 N 308.923 1.53595 0.353017 0
M  V30 3266 C 309.833 1.83897 1.45667 0
M  V30 3267 C 310.849 0.728334 1.58023 0
M  V30 3268 O 312.025 1.01968 1.73679 0
M  V30 3269 C 309.09 2.03383 2.80778 0
M  V30 3270 C 308.151 3.27262 2.77845 0
M  V30 3271 C 307.384 3.45809 4.06512 0
M  V30 3272 O 307.607 2.68387 5.03314 0
M  V30 3273 O 306.541 4.39207 4.11559 0
M  V30 3274 H 310.367 2.77686 1.2298 0
M  V30 3275 H 307.952 1.39132 0.544308 0
M  V30 3276 H 309.834 2.17698 3.60812 0
M  V30 3277 H 308.509 1.12783 3.03417 0
M  V30 3278 H 307.416 3.18359 1.96465 0
M  V30 3279 H 308.749 4.17824 2.60161 0
M  V30 3280 N 310.401 -0.613514 1.45168 0
M  V30 3281 C 311.331 -1.7354 1.56225 0
M  V30 3282 C 312.312 -1.64981 0.41414 0
M  V30 3283 O 313.497 -1.83472 0.636526 0
M  V30 3284 C 310.627 -3.12128 1.52295 0
M  V30 3285 C 309.581 -3.35491 2.65762 0
M  V30 3286 C 308.907 -4.74291 2.46885 0
M  V30 3287 C 310.207 -3.26325 4.0781 0
M  V30 3288 H 311.901 -1.64543 2.50132 0
M  V30 3289 H 309.447 -0.790185 1.20383 0
M  V30 3290 H 311.4 -3.90404 1.58628 0
M  V30 3291 H 310.124 -3.2195 0.549139 0
M  V30 3292 H 308.783 -2.59603 2.58847 0
M  V30 3293 H 308.431 -4.80839 1.47657 0
M  V30 3294 H 308.131 -4.9088 3.22972 0
M  V30 3295 H 309.655 -5.54775 2.55063 0
M  V30 3296 H 311.069 -3.94483 4.16 0
M  V30 3297 H 309.466 -3.54445 4.8424 0
M  V30 3298 H 310.536 -2.23855 4.30136 0
M  V30 3299 N 311.879 -1.3236 -0.855495 0
M  V30 3300 C 312.789 -1.23221 -1.99634 0
M  V30 3301 C 313.805 -0.145983 -1.73387 0
M  V30 3302 O 314.981 -0.366502 -1.98037 0
M  V30 3303 C 312.046 -0.954782 -3.33294 0
M  V30 3304 C 311.107 -2.12937 -3.72769 0
M  V30 3305 C 310.34 -1.86508 -5.00051 0
M  V30 3306 O 310.563 -0.807231 -5.64659 0
M  V30 3307 O 309.497 -2.72591 -5.36636 0
M  V30 3308 H 313.323 -2.19126 -2.1028 0
M  V30 3309 H 310.908 -1.12241 -0.986018 0
M  V30 3310 H 312.79 -0.816519 -4.13414 0
M  V30 3311 H 311.465 -0.0258854 -3.2369 0
M  V30 3312 H 310.372 -2.3231 -2.93228 0
M  V30 3313 H 311.705 -3.04102 -3.87018 0
M  V30 3314 N 313.357 1.07166 -1.15556 0
M  V30 3315 C 314.32 2.12589 -0.856644 0
M  V30 3316 C 315.32 1.6015 0.14444 0
M  V30 3317 O 316.51 1.7399 -0.0854163 0
M  V30 3318 C 313.642 3.39753 -0.279405 0
M  V30 3319 H 314.835 2.40539 -1.79112 0
M  V30 3320 H 312.388 1.23086 -0.963298 0
M  V30 3321 H 313.123 3.17447 0.663174 0
M  V30 3322 H 312.908 3.79117 -1.00063 0
M  V30 3323 H 314.398 4.17507 -0.0879113 0
M  V30 3324 N 314.835 0.952656 1.25548 0
M  V30 3325 C 315.782 0.47008 2.25962 0
M  V30 3326 C 316.752 -0.476384 1.59122 0
M  V30 3327 O 317.937 -0.39007 1.8677 0
M  V30 3328 C 315.077 -0.247881 3.44209 0
M  V30 3329 C 314.19 0.735591 4.25691 0
M  V30 3330 C 313.325 -0.0047306 5.312 0
M  V30 3331 C 312.364 0.969805 6.04368 0
M  V30 3332 N 311.501 0.260486 7.01617 0
M  V30 3333 H 316.341 1.33126 2.66611 0
M  V30 3334 H 313.878 0.66765 1.31076 0
M  V30 3335 H 315.836 -0.680695 4.1161 0
M  V30 3336 H 314.466 -1.07312 3.0444 0
M  V30 3337 H 313.518 1.28689 3.57971 0
M  V30 3338 H 314.83 1.47934 4.76358 0
M  V30 3339 H 313.984 -0.496275 6.04667 0
M  V30 3340 H 312.723 -0.781282 4.81401 0
M  V30 3341 H 311.728 1.47237 5.29718 0
M  V30 3342 H 312.953 1.74655 6.56256 0
M  V30 3343 H 310.899 -0.497364 6.54112 0
M  V30 3344 H 310.816 0.943362 7.50091 0
M  V30 3345 H 312.084 -0.209587 7.79218 0
M  V30 3346 N 316.313 -1.40141 0.720998 0
M  V30 3347 C 317.559 -2.01084 0.263231 0
M  V30 3348 C 317.892 -1.57052 -1.14229 0
M  V30 3349 O 317.167 -0.793027 -1.77599 0
M  V30 3350 C 317.45 -3.58401 0.349344 0
M  V30 3351 C 317.303 -4.12491 1.79363 0
M  V30 3352 C 318.622 -4.39231 -0.276351 0
M  V30 3353 H 315.741 -0.730572 0.0971228 0
M  V30 3354 H 318.383 -1.66543 0.914518 0
M  V30 3355 H 316.533 -3.87958 -0.205165 0
M  V30 3356 H 318.205 -3.93711 2.40394 0
M  V30 3357 H 316.448 -3.66576 2.31958 0
M  V30 3358 H 317.119 -5.21646 1.80524 0
M  V30 3359 H 319.595 -4.15637 0.196184 0
M  V30 3360 H 318.471 -5.48586 -0.185681 0
M  V30 3361 H 318.732 -4.20643 -1.36059 0
M  V30 3362 N 317.792 -0.46758 -1.50504 0
M  V30 3363 C 319.069 0.15003 -1.95024 0
M  V30 3364 C 319.449 1.57304 -1.40779 0
M  V30 3365 O 318.797 2.20281 -0.607319 0
M  V30 3366 C 319.007 0.0969324 -3.48865 0
M  V30 3367 C 320.355 0.287565 -4.23625 0
M  V30 3368 O 321.379 0.173678 -3.55776 0
M  V30 3369 O 320.238 0.517186 -5.44047 0
M  V30 3370 H 317.332 0.113582 -0.819163 0
M  V30 3371 H 319.878 -0.52773 -1.61286 0
M  V30 3372 H 318.65 -0.896732 -3.80886 0
M  V30 3373 H 318.273 0.816303 -3.8913 0
M  V30 3374 N 319.27 1.56325 -0.20005 0
M  V30 3375 C 320.233 2.18084 0.705132 0
M  V30 3376 C 321.233 1.13666 1.1374 0
M  V30 3377 O 322.423 1.39023 1.04968 0
M  V30 3378 C 319.555 2.78689 1.96329 0
M  V30 3379 H 320.748 2.99435 0.167023 0
M  V30 3380 H 318.301 1.56221 0.0495725 0
M  V30 3381 H 319.036 2.0115 2.5438 0
M  V30 3382 H 318.821 3.55133 1.66202 0
M  V30 3383 H 320.311 3.26096 2.60866 0
M  V30 3384 N 320.748 -0.0735177 1.57428 0
M  V30 3385 C 321.678 -1.0879 2.06608 0
M  V30 3386 C 322.659 -1.40473 0.959237 0
M  V30 3387 O 323.844 -1.5013 1.23185 0
M  V30 3388 C 320.974 -2.40183 2.50857 0
M  V30 3389 C 319.928 -2.22858 3.65402 0
M  V30 3390 C 319.254 -3.59619 3.957 0
M  V30 3391 C 320.554 -1.65123 4.95511 0
M  V30 3392 H 322.248 -0.678673 2.91607 0
M  V30 3393 H 319.794 -0.325013 1.40284 0
M  V30 3394 H 321.747 -3.11437 2.83874 0
M  V30 3395 H 320.471 -2.83083 1.62885 0
M  V30 3396 H 319.13 -1.54045 3.32664 0
M  V30 3397 H 318.778 -4.00086 3.04861 0
M  V30 3398 H 318.478 -3.48866 4.72828 0
M  V30 3399 H 320.002 -4.32306 4.31212 0
M  V30 3400 H 321.416 -2.26241 5.26771 0
M  V30 3401 H 319.813 -1.65071 5.7695 0
M  V30 3402 H 320.883 -0.612559 4.81015 0
M  V30 3403 N 322.226 -1.5378 -0.344866 0
M  V30 3404 C 323.174 -1.82373 -1.4437 0
M  V30 3405 C 324.168 -0.694128 -1.54526 0
M  V30 3406 O 325.374 -0.877442 -1.57165 0
M  V30 3407 H 321.749 -0.577765 -0.481344 0
M  V30 3408 H 323.72 -2.74306 -1.17468 0
M  V30 3409 C 322.469 -2.04898 -2.80913 0
M  V30 3410 H 321.792 -2.9127 -2.73865 0
M  V30 3411 H 323.232 -2.28871 -3.56923 0
M  V30 3412 C 321.691 -0.834116 -3.26411 0
M  V30 3413 O 322.221 -0.0328885 -4.01687 0
M  V30 3414 N 320.427 -0.65171 -2.83198 0
M  V30 3415 H 319.974 -1.30489 -2.22104 0
M  V30 3416 H 319.932 0.159686 -3.13994 0
M  V30 3417 N 323.704 0.605807 -1.45491 0
M  V30 3418 C 324.981 1.36522 -1.40075 0
M  V30 3419 C 325.361 2.10976 -0.0722744 0
M  V30 3420 O 324.709 2.08007 0.945808 0
M  V30 3421 C 324.919 2.31056 -2.61561 0
M  V30 3422 C 326.267 2.93608 -3.06724 0
M  V30 3423 O 327.291 2.41376 -2.61946 0
M  V30 3424 O 326.15 3.88421 -3.84437 0
M  V30 3425 H 323.244 0.612248 -0.555951 0
M  V30 3426 H 325.79 0.628747 -1.57623 0
M  V30 3427 H 324.562 1.75311 -3.49831 0
M  V30 3428 H 324.185 3.12081 -2.46356 0
M  V30 3429 N 325.182 1.32811 0.848464 0
M  V30 3430 C 326.092 1.24278 1.98978 0
M  V30 3431 C 327.108 0.155176 1.73307 0
M  V30 3432 O 328.284 0.376999 1.9784 0
M  V30 3433 C 325.349 0.972444 3.32783 0
M  V30 3434 C 324.41 2.14911 3.71634 0
M  V30 3435 C 323.643 1.89157 4.99054 0
M  V30 3436 O 323.866 0.837165 5.64223 0
M  V30 3437 O 322.8 2.75433 5.35183 0
M  V30 3438 H 326.626 2.20238 2.09115 0
M  V30 3439 H 324.211 1.12762 0.980052 0
M  V30 3440 H 326.093 0.838432 4.12975 0
M  V30 3441 H 324.768 0.043051 3.23671 0
M  V30 3442 H 323.675 2.33862 2.91992 0
M  V30 3443 H 325.008 3.06151 3.85399 0
M  V30 3444 N 326.66 -1.06551 1.16123 0
M  V30 3445 C 327.909 -1.78687 0.935622 0
M  V30 3446 C 328.222 -1.88056 -0.538001 0
M  V30 3447 O 329.428 -2.56794 -0.88143 0
M  V30 3448 C 327.884 -3.21143 1.62466 0
M  V30 3449 C 327.492 -3.19949 3.13587 0
M  V30 3450 C 329.236 -3.9783 1.48092 0
M  V30 3451 C 327.143 -4.57108 3.75241 0
M  V30 3452 H 326.073 -0.669712 0.346412 0
M  V30 3453 H 328.724 -1.19534 1.39226 0
M  V30 3454 H 327.106 -3.80539 1.09572 0
M  V30 3455 H 328.28 -2.70151 3.73303 0
M  V30 3456 H 326.595 -2.5676 3.27816 0
M  V30 3457 H 329.192 -4.99217 1.91538 0
M  V30 3458 H 329.535 -4.14078 0.429507 0
M  V30 3459 H 330.068 -3.4495 1.98127 0
M  V30 3460 H 326.807 -4.46065 4.80319 0
M  V30 3461 H 326.327 -5.07111 3.20309 0
M  V30 3462 H 328.006 -5.26069 3.76644 0
M  V30 3463 N 328.138 -0.959301 -1.25041 0
M  V30 3464 C 329.086 -0.474437 -2.2771 0
M  V30 3465 C 330.08 0.457697 -1.631 0
M  V30 3466 O 331.286 0.333912 -1.76876 0
M  V30 3467 H 327.661 -0.134936 -0.739795 0
M  V30 3468 H 329.632 -1.35251 -2.65988 0
M  V30 3469 C 328.381 0.227884 -3.46952 0
M  V30 3470 H 327.704 -0.480248 -3.96905 0
M  V30 3471 H 329.144 0.531091 -4.20661 0
M  V30 3472 C 327.603 1.452 -3.04004 0
M  V30 3473 O 328.133 2.54949 -3.10426 0
M  V30 3474 N 326.339 1.31502 -2.59144 0
M  V30 3475 H 325.886 0.422065 -2.54119 0
M  V30 3476 H 325.844 2.13521 -2.30773 0
M  V30 3477 N 329.616 1.39756 -0.72842 0
M  V30 3478 C 330.863 2.00645 -0.273487 0
M  V30 3479 C 331.191 1.57786 1.13727 0
M  V30 3480 O 330.446 0.794886 1.7883 0
M  V30 3481 C 330.745 3.56002 -0.315776 0
M  V30 3482 C 330.411 4.18489 -1.67863 0
M  V30 3483 C 329.073 4.3527 -2.05166 0
M  V30 3484 C 331.425 4.53219 -2.57375 0
M  V30 3485 C 328.753 4.84069 -3.31503 0
M  V30 3486 C 331.105 5.03423 -3.83077 0
M  V30 3487 C 329.769 5.18413 -4.20481 0
M  V30 3488 H 329.039 0.734211 -0.100076 0
M  V30 3489 H 331.686 1.6718 -0.933972 0
M  V30 3490 H 329.991 3.89452 0.428285 0
M  V30 3491 H 331.688 4.00963 0.0542575 0
M  V30 3492 H 328.278 4.05824 -1.37858 0
M  V30 3493 H 332.462 4.39878 -2.29827 0
M  V30 3494 H 327.718 4.93859 -3.60435 0
M  V30 3495 H 331.892 5.2927 -4.52599 0
M  V30 3496 H 329.519 5.55987 -5.18443 0
M  V30 3497 N 331.094 0.475555 1.50254 0
M  V30 3498 C 332.024 -0.30611 2.31485 0
M  V30 3499 C 333.005 -0.986228 1.38591 0
M  V30 3500 O 334.19 -0.982541 1.67511 0
M  V30 3501 C 331.32 -1.38588 3.1845 0
M  V30 3502 C 330.274 -0.827115 4.19932 0
M  V30 3503 C 329.6 -2.00551 4.95665 0
M  V30 3504 C 330.9 0.16463 5.2204 0
M  V30 3505 H 332.594 0.371866 2.97082 0
M  V30 3506 H 330.14 0.180282 1.42867 0
M  V30 3507 H 332.093 -1.94023 3.74076 0
M  V30 3508 H 330.817 -2.09269 2.50747 0
M  V30 3509 H 329.476 -0.294702 3.65414 0
M  V30 3510 H 329.124 -2.6994 4.2443 0
M  V30 3511 H 328.824 -1.63784 5.64313 0
M  V30 3512 H 330.348 -2.56468 5.54127 0
M  V30 3513 H 331.762 -0.300699 5.72511 0
M  V30 3514 H 330.159 0.446813 5.98434 0
M  V30 3515 H 331.229 1.08905 4.72512 0
M  V30 3516 N 332.573 -1.56217 0.208337 0
M  V30 3517 C 333.989 -1.58919 -0.14729 0
M  V30 3518 C 334.189 -1.22486 -1.59998 0
M  V30 3519 O 333.245 -0.953849 -2.3379 0
M  V30 3520 C 334.558 -3.00236 0.167048 0
M  V30 3521 C 336.106 -3.12813 0.108219 0
M  V30 3522 C 336.581 -4.56284 0.396049 0
M  V30 3523 N 338.072 -4.61912 0.345142 0
M  V30 3524 C 338.807 -5.70837 0.541523 0
M  V30 3525 N 338.303 -6.88178 0.798968 0
M  V30 3526 N 340.096 -5.60091 0.474867 0
M  V30 3527 H 332.247 -1.78177 1.15614 0
M  V30 3528 H 334.51 -0.827555 0.462446 0
M  V30 3529 H 334.216 -3.31499 1.1748 0
M  V30 3530 H 334.09 -3.7354 -0.524184 0
M  V30 3531 H 336.477 -2.81354 -0.890157 0
M  V30 3532 H 336.558 -2.41866 0.832729 0
M  V30 3533 H 336.202 -4.88458 1.3918 0
M  V30 3534 H 336.132 -5.25439 -0.349502 0
M  V30 3535 H 338.623 -3.77589 0.153316 0
M  V30 3536 H 338.936 -7.67095 0.93727 0
M  V30 3537 H 337.281 -6.89953 0.836013 0
M  V30 3538 H 340.472 -4.67297 0.274064 0
M  V30 3539 H 340.645 -6.44917 0.631326 0
M  V30 3540 N 334.051 0.0651679 -1.57465 0
M  V30 3541 C 335.279 0.775808 -1.91804 0
M  V30 3542 C 335.694 1.70782 -0.804916 0
M  V30 3543 O 335.051 1.81153 0.221311 0
M  V30 3544 C 335.102 1.56381 -3.25925 0
M  V30 3545 O 334.823 0.669248 -4.32958 0
M  V30 3546 C 336.324 2.37485 -3.7432 0
M  V30 3547 H 333.544 0.2202 -0.63384 0
M  V30 3548 H 336.088 0.0334587 -2.04473 0
M  V30 3549 H 334.243 2.25837 -3.14764 0
M  V30 3550 H 334.657 1.21801 -5.10162 0
M  V30 3551 H 336.131 2.88223 -4.70778 0
M  V30 3552 H 336.608 3.17307 -3.03666 0
M  V30 3553 H 337.214 1.73173 -3.88447 0
M  V30 3554 N 335.529 1.53961 0.336706 0
M  V30 3555 C 336.459 1.85417 1.41925 0
M  V30 3556 C 337.44 0.709856 1.5458 0
M  V30 3557 O 338.625 0.962396 1.68676 0
M  V30 3558 C 335.755 2.06985 2.78881 0
M  V30 3559 C 334.709 3.22813 2.81026 0
M  V30 3560 C 334.035 3.29727 4.20932 0
M  V30 3561 C 335.335 4.60767 2.45949 0
M  V30 3562 H 337.029 2.76079 1.15848 0
M  V30 3563 H 334.575 1.32839 0.555859 0
M  V30 3564 H 336.528 2.27575 3.54665 0
M  V30 3565 H 335.252 1.13061 3.06406 0
M  V30 3566 H 333.911 3.0209 2.07695 0
M  V30 3567 H 333.559 2.33385 4.45579 0
M  V30 3568 H 333.259 4.07566 4.23277 0
M  V30 3569 H 334.783 3.52536 4.98549 0
M  V30 3570 H 336.197 4.81325 3.11446 0
M  V30 3571 H 334.594 5.4106 2.59566 0
M  V30 3572 H 335.664 4.6391 1.41122 0
M  V30 3573 N 337.007 -0.598083 1.45811 0
M  V30 3574 C 337.955 -1.72932 1.55555 0
M  V30 3575 C 338.949 -1.63984 0.424921 0
M  V30 3576 O 340.155 -1.69663 0.601205 0
M  V30 3577 H 336.53 -0.571489 0.488779 0
M  V30 3578 H 338.501 -1.61842 2.50699 0
M  V30 3579 C 337.25 -3.11318 1.54843 0
M  V30 3580 H 336.573 -3.18867 2.41172 0
M  V30 3581 H 338.013 -3.90274 1.65717 0
M  V30 3582 C 336.472 -3.3578 0.274427 0
M  V30 3583 O 337.002 -3.9654 -0.641778 0
M  V30 3584 N 335.208 -2.90119 0.167139 0
M  V30 3585 H 334.755 -2.40855 0.913596 0
M  V30 3586 H 334.713 -3.0686 -0.684435 0
M  V30 3587 N 338.485 -1.33259 -0.841409 0
M  V30 3588 C 339.395 -1.25332 -1.98316 0
M  V30 3589 C 340.411 -0.164364 -1.73222 0
M  V30 3590 O 341.587 -0.387486 -1.97637 0
M  V30 3591 C 338.652 -0.990078 -3.32262 0
M  V30 3592 C 337.713 -2.16879 -3.70489 0
M  V30 3593 C 336.946 -1.91801 -4.98044 0
M  V30 3594 O 337.169 -0.867075 -5.63771 0
M  V30 3595 O 336.103 -2.78267 -5.33714 0
M  V30 3596 H 339.929 -2.21344 -2.07944 0
M  V30 3597 H 337.514 -1.1328 -0.974058 0
M  V30 3598 H 339.396 -0.860321 -4.12524 0
M  V30 3599 H 338.071 -0.0602155 -3.23644 0
M  V30 3600 H 336.978 -2.35407 -2.90748 0
M  V30 3601 H 338.311 -3.0819 -3.8377 0
M  V30 3602 N 339.963 1.05934 -1.16686 0
M  V30 3603 C 341.191 1.8249 -0.974929 0
M  V30 3604 C 341.606 1.82679 0.476861 0
M  V30 3605 O 340.963 1.2486 1.33103 0
M  V30 3606 C 341.014 3.28943 -1.49929 0
M  V30 3607 O 340.735 3.28886 -2.89423 0
M  V30 3608 C 342.236 4.22215 -1.35089 0
M  V30 3609 H 339.456 0.575295 -0.345365 0
M  V30 3610 H 342 1.33631 -1.548 0
M  V30 3611 H 340.155 3.751 -0.968423 0
M  V30 3612 H 340.569 4.20493 -3.13506 0
M  V30 3613 H 342.043 5.22987 -1.76603 0
M  V30 3614 H 342.52 4.38195 -0.296935 0
M  V30 3615 H 343.126 3.81907 -1.87155 0
M  V30 3616 N 341.441 0.965919 1.2453 0
M  V30 3617 C 342.351 0.502154 2.29163 0
M  V30 3618 C 343.367 -0.436017 1.68448 0
M  V30 3619 O 344.543 -0.309497 1.99008 0
M  V30 3620 C 341.608 -0.201956 3.46111 0
M  V30 3621 C 340.669 0.775821 4.22232 0
M  V30 3622 C 339.902 0.105217 5.33596 0
M  V30 3623 O 340.125 -1.10683 5.59558 0
M  V30 3624 O 339.059 0.796475 5.96607 0
M  V30 3625 H 342.885 1.37194 2.70946 0
M  V30 3626 H 340.47 0.732875 1.30189 0
M  V30 3627 H 342.352 -0.597564 4.17142 0
M  V30 3628 H 341.027 -1.04673 3.06309 0
M  V30 3629 H 339.934 1.22185 3.53584 0
M  V30 3630 H 341.267 1.58896 4.65846 0
M  V30 3631 N 342.919 -1.39368 0.735821 0
M  V30 3632 C 343.849 -2.33234 0.111506 0
M  V30 3633 C 344.83 -1.53954 -0.723334 0
M  V30 3634 O 346.015 -1.82344 -0.668147 0
M  V30 3635 C 343.145 -3.38057 -0.795917 0
M  V30 3636 C 342.099 -4.2795 -0.065172 0
M  V30 3637 C 341.425 -5.23479 -1.08967 0
M  V30 3638 C 342.725 -5.10741 1.09273 0
M  V30 3639 H 344.419 -2.85692 0.895571 0
M  V30 3640 H 341.965 -1.37364 0.432109 0
M  V30 3641 H 343.918 -4.02675 -1.24221 0
M  V30 3642 H 342.642 -2.8404 -1.61211 0
M  V30 3643 H 341.301 -3.64813 0.361511 0
M  V30 3644 H 340.949 -4.65758 -1.89944 0
M  V30 3645 H 340.649 -5.84472 -0.605489 0
M  V30 3646 H 342.173 -5.90974 -1.53565 0
M  V30 3647 H 343.587 -5.68699 0.724841 0
M  V30 3648 H 341.984 -5.8088 1.50659 0
M  V30 3649 H 343.054 -4.45525 1.91404 0
M  V30 3650 N 344.397 -0.483516 -1.5 0
M  V30 3651 C 345.625 0.0644831 -2.06799 0
M  V30 3652 C 346.04 1.32399 -1.34596 0
M  V30 3653 O 345.397 1.77626 -0.418946 0
M  V30 3654 C 345.448 0.339927 -3.59898 0
M  V30 3655 O 345.169 -0.869635 -4.29382 0
M  V30 3656 C 346.67 0.933515 -4.33359 0
M  V30 3657 H 343.89 -0.0126333 -0.670881 0
M  V30 3658 H 346.434 -0.675864 -1.93009 0
M  V30 3659 H 344.589 1.03022 -3.7345 0
M  V30 3660 H 345.003 -0.62179 -5.20801 0
M  V30 3661 H 346.477 1.07593 -5.41413 0
M  V30 3662 H 346.954 1.92685 -3.94676 0
M  V30 3663 H 347.56 0.281221 -4.24369 0
M  V30 3664 N 345.875 1.56104 -0.216619 0
M  V30 3665 C 346.785 2.23694 0.706982 0
M  V30 3666 C 347.801 1.24295 1.21765 0
M  V30 3667 O 348.977 1.57094 1.2603 0
M  V30 3668 C 346.042 2.8998 1.90033 0
M  V30 3669 C 345.103 4.04708 1.43213 0
M  V30 3670 C 344.336 4.67824 2.56859 0
M  V30 3671 O 344.559 4.29913 3.74874 0
M  V30 3672 O 343.493 5.56905 2.28343 0
M  V30 3673 H 347.319 3.03272 0.161235 0
M  V30 3674 H 344.904 1.49394 0.0136177 0
M  V30 3675 H 346.786 3.31837 2.59735 0
M  V30 3676 H 345.461 2.13365 2.43428 0
M  V30 3677 H 344.368 3.6743 0.70327 0
M  V30 3678 H 345.701 4.83051 0.944615 0
M  V30 3679 N 347.353 -0.0568162 1.57498 0
M  V30 3680 C 348.283 -1.06593 2.0775 0
M  V30 3681 C 349.264 -1.39448 0.974082 0
M  V30 3682 O 350.449 -1.48815 1.24771 0
M  V30 3683 C 347.579 -2.37509 2.5339 0
M  V30 3684 C 346.533 -2.1897 3.67745 0
M  V30 3685 C 345.859 -3.55402 3.99492 0
M  V30 3686 C 347.159 -1.59859 4.97235 0
M  V30 3687 H 348.853 -0.647706 2.9231 0
M  V30 3688 H 346.399 -0.310116 1.40621 0
M  V30 3689 H 348.352 -3.08409 2.87162 0
M  V30 3690 H 347.076 -2.8134 1.65878 0
M  V30 3691 H 345.735 -1.50508 3.3428 0
M  V30 3692 H 345.383 -3.9683 3.09088 0
M  V30 3693 H 345.083 -3.43831 4.76502 0
M  V30 3694 H 346.607 -4.27708 4.35773 0
M  V30 3695 H 348.021 -2.20642 5.29141 0
M  V30 3696 H 346.418 -1.58942 5.78669 0
M  V30 3697 H 347.488 -0.561506 4.81638 0
M  V30 3698 N 348.832 -1.54138 -0.328536 0
M  V30 3699 C 349.764 -1.79509 -1.4251 0
M  V30 3700 C 350.777 -0.67688 -1.48061 0
M  V30 3701 O 351.966 -0.953898 -1.50874 0
M  V30 3702 C 349.066 -1.89337 -2.81078 0
M  V30 3703 C 348.239 -3.19443 -2.98789 0
M  V30 3704 C 347.298 -3.20036 -4.17688 0
M  V30 3705 O 346.324 -3.93697 -4.11086 0
M  V30 3706 N 347.526 -2.43467 -5.26976 0
M  V30 3707 H 350.291 -2.74139 -1.21111 0
M  V30 3708 H 347.852 -1.53373 -0.518499 0
M  V30 3709 H 349.844 -1.87167 -3.58818 0
M  V30 3710 H 348.414 -1.01826 -2.95551 0
M  V30 3711 H 347.634 -3.34614 -2.08391 0
M  V30 3712 H 348.922 -4.05354 -3.07515 0
M  V30 3713 H 348.32 -1.83201 -5.35214 0
M  V30 3714 H 346.877 -2.4708 -6.03154 0
M  V30 3715 N 350.31 0.590341 -1.46126 0
M  V30 3716 C 351.535 1.37991 -1.54833 0
M  V30 3717 C 351.96 1.87163 -0.187506 0
M  V30 3718 O 351.318 1.61133 0.831008 0
M  V30 3719 C 351.366 2.54867 -2.55098 0
M  V30 3720 O 350.47 3.56061 -2.08073 0
M  V30 3721 H 349.811 0.411265 -0.521303 0
M  V30 3722 H 352.341 0.716819 -1.91632 0
M  V30 3723 H 352.351 3.01886 -2.74461 0
M  V30 3724 H 351.026 2.18429 -3.53923 0
M  V30 3725 H 349.603 3.15574 -1.98664 0
M  V30 3726 N 351.788 1.33704 0.83433 0
M  V30 3727 C 352.72 1.20172 1.9517 0
M  V30 3728 C 353.733 0.131572 1.62267 0
M  V30 3729 O 354.922 0.382406 1.74356 0
M  V30 3730 C 352.022 0.821716 3.28787 0
M  V30 3731 C 351.195 1.98446 3.89792 0
M  V30 3732 C 350.254 1.58469 5.01771 0
M  V30 3733 O 349.28 2.29968 5.20676 0
M  V30 3734 N 350.482 0.492291 5.78409 0
M  V30 3735 H 353.247 2.16429 2.07313 0
M  V30 3736 H 350.808 1.26509 1.0103 0
M  V30 3737 H 352.8 0.536291 4.01131 0
M  V30 3738 H 351.37 -0.0503058 3.1256 0
M  V30 3739 H 350.59 2.43526 3.09982 0
M  V30 3740 H 351.878 2.76236 4.27283 0
M  V30 3741 H 351.276 -0.102349 5.65607 0
M  V30 3742 H 349.833 0.266555 6.51255 0
M  V30 3743 N 353.266 -1.05314 1.17247 0
M  V30 3744 C 354.515 -1.77685 0.954521 0
M  V30 3745 C 354.828 -1.88616 -0.518025 0
M  V30 3746 O 356.034 -2.57714 -0.854144 0
M  V30 3747 C 354.49 -3.19402 1.65863 0
M  V30 3748 C 354.098 -3.16605 3.16963 0
M  V30 3749 C 355.842 -3.96237 1.52303 0
M  V30 3750 C 353.749 -4.53103 3.80068 0
M  V30 3751 H 352.679 -0.666 0.353496 0
M  V30 3752 H 355.33 -1.1805 1.40486 0
M  V30 3753 H 353.712 -3.79355 1.13602 0
M  V30 3754 H 354.886 -2.66176 3.76148 0
M  V30 3755 H 353.201 -2.53268 3.30521 0
M  V30 3756 H 355.798 -4.97157 1.96822 0
M  V30 3757 H 356.141 -4.136 0.473401 0
M  V30 3758 H 356.674 -3.42829 2.01775 0
M  V30 3759 H 353.413 -4.40946 4.85023 0
M  V30 3760 H 352.933 -5.03686 3.2567 0
M  V30 3761 H 354.612 -5.22045 3.82202 0
M  V30 3762 N 354.744 -0.972509 -1.24016 0
M  V30 3763 C 355.969 -0.654417 -1.96805 0
M  V30 3764 C 356.394 0.770398 -1.716 0
M  V30 3765 O 355.752 1.52361 -0.982647 0
M  V30 3766 C 355.8 -0.941031 -3.48105 0
M  V30 3767 O 354.904 -0.0289472 -4.1239 0
M  V30 3768 H 354.245 -0.24692 -0.616382 0
M  V30 3769 H 356.775 -1.30396 -1.57664 0
M  V30 3770 H 356.785 -0.87452 -3.98517 0
M  V30 3771 H 355.46 -1.97939 -3.65777 0
M  V30 3772 H 354.037 -0.149192 -3.72601 0
M  V30 3773 N 356.222 1.38976 -0.743202 0
M  V30 3774 C 357.499 1.94351 -0.220705 0
M  V30 3775 C 357.879 1.67935 1.2791 0
M  V30 3776 O 357.227 1.01211 2.04862 0
M  V30 3777 C 357.437 3.44426 -0.563171 0
M  V30 3778 C 358.785 4.2144 -0.517046 0
M  V30 3779 O 359.809 3.52661 -0.500846 0
M  V30 3780 O 358.668 5.44032 -0.518806 0
M  V30 3781 H 355.762 0.825879 -0.043047 0
M  V30 3782 H 358.308 1.48429 -0.822618 0
M  V30 3783 H 357.08 3.5712 -1.59941 0
M  V30 3784 H 356.703 3.97543 0.0672883 0
M  V30 3785 N 357.7 0.491464 1.49741 0
M  V30 3786 C 358.928 -0.0535151 2.06831 0
M  V30 3787 C 359.343 -1.31683 1.35296 0
M  V30 3788 O 358.7 -1.77402 0.42836 0
M  V30 3789 C 358.751 -0.320835 3.60073 0
M  V30 3790 O 358.472 0.892394 4.28915 0
M  V30 3791 C 359.973 -0.910519 4.33848 0
M  V30 3792 H 357.193 0.0161909 0.670805 0
M  V30 3793 H 359.737 0.68609 1.92647 0
M  V30 3794 H 357.892 -1.0104 3.73991 0
M  V30 3795 H 358.306 0.649401 5.20464 0
M  V30 3796 H 359.78 -1.04721 5.41976 0
M  V30 3797 H 360.257 -1.90589 3.95692 0
M  V30 3798 H 360.863 -0.258712 4.24512 0
M  V30 3799 N 359.178 -1.55987 0.224894 0
M  V30 3800 C 360.403 -2.03232 -0.41369 0
M  V30 3801 C 360.828 -1.10359 -1.52323 0
M  V30 3802 O 360.186 -0.092395 -1.81064 0
M  V30 3803 C 360.234 -3.48682 -0.919405 0
M  V30 3804 O 359.338 -3.58947 -2.03054 0
M  V30 3805 H 358.679 -0.657428 -0.0931903 0
M  V30 3806 H 361.209 -2.01679 0.34451 0
M  V30 3807 H 361.219 -3.8907 -1.22835 0
M  V30 3808 H 359.894 -4.15761 -0.107339 0
M  V30 3809 H 358.471 -3.30448 -1.72796 0
M  V30 3810 N 360.656 0.0484629 -1.57525 0
M  V30 3811 C 361.902 0.744226 -1.88651 0
M  V30 3812 C 362.235 1.76029 -0.820212 0
M  V30 3813 O 361.51 1.93782 0.166985 0
M  V30 3814 C 361.793 1.43128 -3.30434 0
M  V30 3815 C 361.646 0.43005 -4.47739 0
M  V30 3816 C 362.965 2.37031 -3.70816 0
M  V30 3817 H 360.084 0.269089 -0.68612 0
M  V30 3818 H 362.726 0.00713532 -1.89999 0
M  V30 3819 H 360.876 2.05956 -3.29415 0
M  V30 3820 H 362.548 -0.194816 -4.60888 0
M  V30 3821 H 360.791 -0.252522 -4.33064 0
M  V30 3822 H 361.462 0.948874 -5.43783 0
M  V30 3823 H 363.938 1.84263 -3.73077 0
M  V30 3824 H 362.814 2.82094 -4.70865 0
M  V30 3825 H 363.075 3.22864 -3.02012 0
M  V30 3826 N 362.134 1.5431 0.320358 0
M  V30 3827 C 363.38 1.72924 1.05949 0
M  V30 3828 C 363.713 0.503185 1.87568 0
M  V30 3829 O 362.988 -0.499839 1.87968 0
M  V30 3830 C 363.271 3.00676 1.98156 0
M  V30 3831 C 363.124 4.3354 1.19845 0
M  V30 3832 C 364.443 3.24198 2.9763 0
M  V30 3833 H 361.562 0.629195 0.383774 0
M  V30 3834 H 364.204 1.87008 0.335854 0
M  V30 3835 H 362.354 2.888 2.59859 0
M  V30 3836 H 364.026 4.57305 0.605773 0
M  V30 3837 H 362.269 4.309 0.500784 0
M  V30 3838 H 362.94 5.19156 1.87567 0
M  V30 3839 H 365.416 3.35557 2.4605 0
M  V30 3840 H 364.292 4.14938 3.59329 0
M  V30 3841 H 364.553 2.41577 3.7026 0
M  V30 3842 N 363.613 -0.582584 1.46437 0
M  V30 3843 C 364.543 -1.70187 1.59871 0
M  V30 3844 C 365.524 -1.64066 0.449042 0
M  V30 3845 O 366.709 -1.82081 0.6753 0
M  V30 3846 C 363.839 -3.08827 1.58881 0
M  V30 3847 C 362.793 -3.29779 2.72819 0
M  V30 3848 C 362.119 -4.68947 2.5689 0
M  V30 3849 C 363.419 -3.17601 4.1464 0
M  V30 3850 H 365.113 -1.592 2.53566 0
M  V30 3851 H 362.659 -0.764472 1.22032 0
M  V30 3852 H 364.612 -3.86951 1.66873 0
M  V30 3853 H 363.336 -3.20713 0.617306 0
M  V30 3854 H 361.995 -2.54054 2.64296 0
M  V30 3855 H 361.643 -4.77599 1.57823 0
M  V30 3856 H 361.343 -4.83919 3.33312 0
M  V30 3857 H 362.867 -5.4924 2.66773 0
M  V30 3858 H 364.281 -3.8557 4.24274 0
M  V30 3859 H 362.678 -3.44094 4.9165 0
M  V30 3860 H 363.748 -2.14681 4.34788 0
M  V30 3861 N 365.091 -1.34144 -0.827227 0
M  V30 3862 C 366.316 -1.29476 -1.62021 0
M  V30 3863 C 366.741 0.129292 -1.87655 0
M  V30 3864 O 366.099 1.08967 -1.449 0
M  V30 3865 C 366.147 -2.08702 -2.94068 0
M  V30 3866 O 365.251 -1.45359 -3.85933 0
M  V30 3867 H 364.592 -0.444881 -0.492927 0
M  V30 3868 H 367.122 -1.76882 -1.02829 0
M  V30 3869 H 367.132 -2.19898 -3.43669 0
M  V30 3870 H 365.807 -3.12241 -2.74734 0
M  V30 3871 H 364.384 -1.42879 -3.44442 0
M  V30 3872 N 366.569 1.04691 -1.17803 0
M  V30 3873 C 367.502 2.12068 -0.842765 0
M  V30 3874 C 368.48 1.61455 0.192608 0
M  V30 3875 O 369.664 1.88359 0.072995 0
M  V30 3876 C 366.791 3.37715 -0.258063 0
M  V30 3877 C 365.837 4.07164 -1.26962 0
M  V30 3878 S 366.67 4.55047 -2.82299 0
M  V30 3879 C 367.826 5.83935 -2.25323 0
M  V30 3880 H 368.059 2.4018 -1.75217 0
M  V30 3881 H 365.592 1.17366 -1.00323 0
M  V30 3882 H 367.55 4.10435 0.0727935 0
M  V30 3883 H 366.211 3.0773 0.629357 0
M  V30 3884 H 365.404 4.9746 -0.809263 0
M  V30 3885 H 365.006 3.40533 -1.54639 0
M  V30 3886 H 367.298 6.57552 -1.63192 0
M  V30 3887 H 368.241 6.34725 -3.13894 0
M  V30 3888 H 368.649 5.3874 -1.68582 0
M  V30 3889 N 368.047 0.979072 1.23499 0
M  V30 3890 C 369.324 0.563674 1.87302 0
M  V30 3891 C 369.704 -0.959199 1.88049 0
M  V30 3892 O 369.052 -1.83535 1.36114 0
M  V30 3893 C 369.262 1.16822 3.28867 0
M  V30 3894 C 370.61 1.26014 4.0547 0
M  V30 3895 O 371.634 1.12158 3.38082 0
M  V30 3896 O 370.493 1.48044 5.26066 0
M  V30 3897 H 367.587 0.189602 0.804972 0
M  V30 3898 H 370.133 1.07407 1.31384 0
M  V30 3899 H 368.905 2.21049 3.22883 0
M  V30 3900 H 368.528 0.642564 3.92373 0
M  V30 3901 N 369.525 -1.3858 0.750561 0
M  V30 3902 C 370.473 -2.32339 0.110162 0
M  V30 3903 C 371.467 -1.53864 -0.708674 0
M  V30 3904 O 372.673 -1.69417 -0.608112 0
M  V30 3905 H 369.048 -0.751812 0.0168275 0
M  V30 3906 H 371.019 -2.83959 0.917053 0
M  V30 3907 C 369.768 -3.39043 -0.771067 0
M  V30 3908 H 369.091 -3.99517 -0.150374 0
M  V30 3909 H 370.531 -4.07061 -1.1865 0
M  V30 3910 C 368.99 -2.77365 -1.91234 0
M  V30 3911 O 369.52 -2.66434 -3.00626 0
M  V30 3912 N 367.726 -2.35219 -1.70646 0
M  V30 3913 H 367.273 -2.4431 -0.81673 0
M  V30 3914 H 367.231 -1.94294 -2.47178 0
M  V30 3915 N 371.003 -0.499398 -1.49478 0
M  V30 3916 C 372.228 0.044722 -2.07352 0
M  V30 3917 C 372.653 1.30207 -1.35749 0
M  V30 3918 O 372.011 1.76516 -0.413732 0
M  V30 3919 C 372.059 0.283013 -3.59488 0
M  V30 3920 O 371.163 1.35804 -3.89398 0
M  V30 3921 H 370.504 -0.0255147 -0.66351 0
M  V30 3922 H 373.034 -0.698561 -1.92305 0
M  V30 3923 H 373.044 0.515007 -4.04737 0
M  V30 3924 H 371.719 -0.635636 -4.11014 0
M  V30 3925 H 370.296 1.11113 -3.55961 0
M  V30 3926 N 372.481 1.55866 -0.233164 0
M  V30 3927 C 373.897 1.59133 0.121988 0
M  V30 3928 C 374.097 1.25016 1.58029 0
M  V30 3929 O 373.153 0.990922 2.32243 0
M  V30 3930 C 374.466 2.99932 -0.214792 0
M  V30 3931 C 376.014 3.12601 -0.157971 0
M  V30 3932 C 376.489 4.55597 -0.46859 0
M  V30 3933 N 377.98 4.61305 -0.418585 0
M  V30 3934 C 378.715 5.69903 -0.63227 0
M  V30 3935 N 378.211 6.86819 -0.90835 0
M  V30 3936 N 380.004 5.59264 -0.563913 0
M  V30 3937 H 372.155 1.76315 -1.18434 0
M  V30 3938 H 374.418 0.820093 -0.475553 0
M  V30 3939 H 374.124 3.29588 -1.22739 0
M  V30 3940 H 373.998 3.74327 0.464691 0
M  V30 3941 H 376.385 2.82735 0.845283 0
M  V30 3942 H 376.466 2.40511 -0.871102 0
M  V30 3943 H 376.11 4.86182 -1.46934 0
M  V30 3944 H 376.04 5.25928 0.265865 0
M  V30 3945 H 378.531 3.77297 -0.213368 0
M  V30 3946 H 378.844 7.65507 -1.05919 0
M  V30 3947 H 377.189 6.88536 -0.945673 0
M  V30 3948 H 380.38 4.66802 -0.348372 0
M  V30 3949 H 380.553 6.43831 -0.733847 0
M  V30 3950 N 373.959 -0.0401083 1.57549 0
M  V30 3951 C 375.184 -0.748931 1.93406 0
M  V30 3952 C 375.609 -1.68686 0.832274 0
M  V30 3953 O 374.967 -1.80047 -0.212818 0
M  V30 3954 C 375.015 -1.4916 3.28304 0
M  V30 3955 O 374.119 -2.6042 3.19774 0
M  V30 3956 H 373.46 -0.202212 0.63246 0
M  V30 3957 H 375.99 0.00112086 2.046 0
M  V30 3958 H 376 -1.86395 3.62934 0
M  V30 3959 H 374.675 -0.80364 4.08062 0
M  V30 3960 H 373.252 -2.25808 2.96758 0
M  V30 3961 N 375.437 -1.54477 -0.31217 0
M  V30 3962 C 376.367 -1.87652 -1.38957 0
M  V30 3963 C 377.348 -0.734358 -1.53431 0
M  V30 3964 O 378.533 -0.98911 -1.67123 0
M  V30 3965 C 375.663 -2.11396 -2.75552 0
M  V30 3966 C 374.617 -3.27243 -2.75855 0
M  V30 3967 C 373.943 -3.36382 -4.15633 0
M  V30 3968 C 375.243 -4.64622 -2.38587 0
M  V30 3969 H 376.937 -2.77887 -1.11442 0
M  V30 3970 H 374.483 -1.33707 -0.534655 0
M  V30 3971 H 376.436 -2.33189 -3.51 0
M  V30 3972 H 375.16 -1.17921 -3.04569 0
M  V30 3973 H 373.819 -3.05356 -2.02863 0
M  V30 3974 H 373.467 -2.40445 -4.41809 0
M  V30 3975 H 373.167 -4.14249 -4.1674 0
M  V30 3976 H 374.691 -3.60422 -4.92877 0
M  V30 3977 H 376.105 -4.86219 -3.03749 0
M  V30 3978 H 374.502 -5.45121 -2.50925 0
M  V30 3979 H 375.572 -4.66097 -1.33723 0
M  V30 3980 N 376.915 0.57481 -1.46744 0
M  V30 3981 C 378.192 1.3352 -1.4294 0
M  V30 3982 C 378.572 2.10775 -0.117009 0
M  V30 3983 O 377.92 2.09966 0.901474 0
M  V30 3984 C 378.13 2.25456 -2.66403 0
M  V30 3985 C 379.478 2.87035 -3.12883 0
M  V30 3986 O 380.502 2.35766 -2.67007 0
M  V30 3987 O 379.361 3.80179 -3.92589 0
M  V30 3988 H 376.455 0.600318 -0.568812 0
M  V30 3989 H 379.001 0.595171 -1.58921 0
M  V30 3990 H 377.773 1.67851 -3.53471 0
M  V30 3991 H 377.396 3.06785 -2.52921 0
M  V30 3992 N 378.394 1.34581 0.820102 0
M  V30 3993 C 379.324 1.29038 1.94606 0
M  V30 3994 C 380.305 0.1673 1.69275 0
M  V30 3995 O 381.49 0.360112 1.90832 0
M  V30 3996 C 378.62 1.04793 3.31113 0
M  V30 3997 C 377.574 2.13597 3.70891 0
M  V30 3998 C 376.9 1.74537 5.05412 0
M  V30 3999 C 378.2 3.55451 3.8269 0
M  V30 4000 H 379.894 2.23248 1.99501 0
M  V30 4001 H 377.44 1.0747 0.958449 0
M  V30 4002 H 379.393 0.995592 4.0947 0
M  V30 4003 H 378.117 0.0702565 3.26524 0
M  V30 4004 H 376.776 2.17905 2.9481 0
M  V30 4005 H 376.424 0.754226 4.97313 0
M  V30 4006 H 376.124 2.47361 5.32997 0
M  V30 4007 H 377.648 1.70803 5.86224 0
M  V30 4008 H 379.062 3.5354 4.51312 0
M  V30 4009 H 377.459 4.26922 4.21732 0
M  V30 4010 H 378.529 3.92587 2.84611 0
M  V30 4011 N 379.872 -1.04064 1.18357 0
M  V30 4012 C 381.149 -1.74252 0.888581 0
M  V30 4013 C 381.529 -2.02138 -0.60856 0
M  V30 4014 O 380.877 -1.66656 -1.56327 0
M  V30 4015 C 381.087 -3.0277 1.73584 0
M  V30 4016 C 382.435 -3.76506 1.96286 0
M  V30 4017 O 383.459 -3.12668 1.70637 0
M  V30 4018 O 382.318 -4.91243 2.39464 0
M  V30 4019 H 379.412 -0.758271 0.330082 0
M  V30 4020 H 381.958 -1.1013 1.2911 0
M  V30 4021 H 380.73 -2.78299 2.75073 0
M  V30 4022 H 380.353 -3.74631 1.33183 0
M  V30 4023 N 381.35 -0.985608 -1.22978 0
M  V30 4024 C 382.598 -0.656087 -1.91154 0
M  V30 4025 C 382.919 0.813561 -1.77218 0
M  V30 4026 O 382.189 1.58244 -1.1548 0
M  V30 4027 H 380.769 -0.239674 -0.707506 0
M  V30 4028 H 383.431 -1.25054 -1.49491 0
M  V30 4029 H 382.527 -0.912253 -2.9847 0
M  V30 4030 N 382.828 1.3818 -0.7579 0
M  V30 4031 C 384.077 1.99261 -0.312744 0
M  V30 4032 C 384.39 1.60846 1.11301 0
M  V30 4033 O 385.596 2.14929 1.65885 0
M  V30 4034 C 384.052 3.56294 -0.50821 0
M  V30 4035 C 383.66 4.03657 -1.94333 0
M  V30 4036 C 385.404 4.24313 -0.125982 0
M  V30 4037 C 383.311 5.53347 -2.08712 0
M  V30 4038 H 382.241 0.745456 -0.113185 0
M  V30 4039 H 384.892 1.57889 -0.935056 0
M  V30 4040 H 383.274 3.95575 0.183353 0
M  V30 4041 H 384.448 3.75655 -2.66871 0
M  V30 4042 H 382.763 3.48376 -2.28086 0
M  V30 4043 H 385.36 5.34279 -0.212125 0
M  V30 4044 H 385.703 4.05962 0.921964 0
M  V30 4045 H 386.236 3.90285 -0.769563 0
M  V30 4046 H 382.975 5.76607 -3.11777 0
M  V30 4047 H 382.495 5.83078 -1.4064 0
M  V30 4048 H 384.174 6.19111 -1.87912 0
M  V30 4049 N 384.306 0.507319 1.49211 0
M  V30 4050 C 385.555 -0.0368315 2.01666 0
M  V30 4051 C 385.868 -1.37459 1.39156 0
M  V30 4052 O 387.074 -2.00579 1.82976 0
M  V30 4053 C 385.53 -0.116089 3.59713 0
M  V30 4054 C 385.138 1.2154 4.31198 0
M  V30 4055 C 386.882 -0.610268 4.2009 0
M  V30 4056 C 384.789 1.09796 5.81119 0
M  V30 4057 H 383.719 -0.0175376 0.753796 0
M  V30 4058 H 386.37 0.647691 1.71689 0
M  V30 4059 H 384.752 -0.8652 3.86433 0
M  V30 4060 H 385.926 1.9783 4.16173 0
M  V30 4061 H 384.241 1.64352 3.82593 0
M  V30 4062 H 386.838 -0.715742 5.29888 0
M  V30 4063 H 387.181 -1.61064 3.8388 0
M  V30 4064 H 387.714 0.0824916 3.97714 0
M  V30 4065 H 384.453 2.0728 6.21864 0
M  V30 4066 H 383.973 0.376058 5.9862 0
M  V30 4067 H 385.652 0.779281 6.4229 0
M  V30 4068 N 385.784 -1.5574 0.241426 0
M  V30 4069 C 386.747 -2.19877 -0.647063 0
M  V30 4070 C 387.747 -1.16642 -1.10686 0
M  V30 4071 O 388.937 -1.41757 -1.01245 0
M  V30 4072 C 386.069 -2.83797 -1.88871 0
M  V30 4073 H 387.262 -2.99772 -0.087574 0
M  V30 4074 H 384.815 -1.56298 -0.00813574 0
M  V30 4075 H 385.55 -2.07824 -2.48957 0
M  V30 4076 H 385.335 -3.59414 -1.56728 0
M  V30 4077 H 386.825 -3.32898 -2.52129 0
M  V30 4078 N 387.262 0.0317525 -1.57568 0
M  V30 4079 C 388.172 1.05021 -2.0978 0
M  V30 4080 C 389.188 1.39809 -1.03583 0
M  V30 4081 O 390.364 1.49182 -1.35302 0
M  V30 4082 C 387.429 2.33301 -2.56459 0
M  V30 4083 C 386.49 2.0512 -3.77127 0
M  V30 4084 C 385.723 3.27283 -4.2157 0
M  V30 4085 O 385.946 4.37861 -3.65559 0
M  V30 4086 O 384.88 3.13141 -5.14029 0
M  V30 4087 H 388.706 0.636505 -2.96955 0
M  V30 4088 H 386.291 0.248559 -1.47318 0
M  V30 4089 H 388.173 3.08722 -2.86825 0
M  V30 4090 H 386.848 2.73973 -1.72397 0
M  V30 4091 H 385.755 1.27276 -3.51784 0
M  V30 4092 H 387.088 1.69305 -4.62165 0
M  V30 4093 N 388.74 1.54641 0.303973 0
M  V30 4094 C 389.986 1.74038 1.04109 0
M  V30 4095 C 390.319 0.523051 1.87024 0
M  V30 4096 O 389.594 -0.479874 1.88487 0
M  V30 4097 C 389.877 3.02761 1.94955 0
M  V30 4098 C 389.73 4.34787 1.1524 0
M  V30 4099 C 391.049 3.27336 2.94175 0
M  V30 4100 H 388.168 0.63323 0.377079 0
M  V30 4101 H 390.81 1.87354 0.316001 0
M  V30 4102 H 388.96 2.9154 2.56782 0
M  V30 4103 H 390.632 4.57922 0.557236 0
M  V30 4104 H 388.875 4.31407 0.455053 0
M  V30 4105 H 389.546 5.21116 1.8205 0
M  V30 4106 H 392.022 3.38148 2.42477 0
M  V30 4107 H 390.898 4.18726 3.54908 0
M  V30 4108 H 391.159 2.45491 3.67677 0
M  V30 4109 N 390.218 -0.567019 1.47046 0
M  V30 4110 C 391.165 -1.67489 1.58796 0
M  V30 4111 C 392.135 -1.60399 0.43144 0
M  V30 4112 O 393.32 -1.79378 0.650233 0
M  V30 4113 C 390.46 -3.05821 1.59899 0
M  V30 4114 C 389.573 -3.2342 2.86397 0
M  V30 4115 C 388.708 -4.52093 2.789 0
M  V30 4116 C 387.747 -4.6309 4.00267 0
M  V30 4117 N 386.884 -5.83106 3.91064 0
M  V30 4118 H 391.724 -1.56785 2.53422 0
M  V30 4119 H 389.261 -0.763896 1.2571 0
M  V30 4120 H 391.219 -3.8591 1.58522 0
M  V30 4121 H 389.849 -3.15384 0.687929 0
M  V30 4122 H 388.901 -2.3683 2.97684 0
M  V30 4123 H 390.213 -3.27412 3.76301 0
M  V30 4124 H 389.367 -5.4043 2.75718 0
M  V30 4125 H 388.106 -4.50565 1.86662 0
M  V30 4126 H 387.111 -3.73168 4.03765 0
M  V30 4127 H 388.336 -4.66386 4.93621 0
M  V30 4128 H 386.282 -5.82546 3.01623 0
M  V30 4129 H 386.199 -5.88434 4.74638 0
M  V30 4130 H 387.467 -6.73831 3.91882 0
M  V30 4131 N 391.696 -1.35014 -0.812953 0
M  V30 4132 C 392.659 -1.27292 -1.90602 0
M  V30 4133 C 393.659 -0.185817 -1.59723 0
M  V30 4134 O 394.849 -0.439102 -1.68575 0
M  V30 4135 C 391.981 -0.967676 -3.26877 0
M  V30 4136 H 393.174 -2.24479 -1.9887 0
M  V30 4137 H 390.727 -1.19446 -1.00808 0
M  V30 4138 H 391.462 0.0005954 -3.243 0
M  V30 4139 H 391.247 -1.75412 -3.50675 0
M  V30 4140 H 392.737 -0.939085 -4.06904 0
M  V30 4141 N 393.175 1.03435 -1.18907 0
M  V30 4142 C 394.107 2.1165 -0.879595 0
M  V30 4143 C 395.12 1.62316 0.125439 0
M  V30 4144 O 396.309 1.78201 -0.103245 0
M  V30 4145 C 393.409 3.37622 -0.294042 0
M  V30 4146 C 392.582 4.16166 -1.34629 0
M  V30 4147 C 391.641 5.20457 -0.775274 0
M  V30 4148 O 390.667 5.50379 -1.4516 0
M  V30 4149 N 391.869 5.78949 0.424126 0
M  V30 4150 H 394.634 2.38791 -1.81105 0
M  V30 4151 H 392.195 1.19681 -1.09032 0
M  V30 4152 H 394.187 4.04572 0.101679 0
M  V30 4153 H 392.757 3.07873 0.541575 0
M  V30 4154 H 391.977 3.44444 -1.91707 0
M  V30 4155 H 393.265 4.65432 -2.05549 0
M  V30 4156 H 392.663 5.56948 0.991209 0
M  V30 4157 H 391.22 6.47334 0.761691 0
M  V30 4158 N 394.653 0.992116 1.22453 0
M  V30 4159 C 395.883 0.684949 1.94915 0
M  V30 4160 C 396.291 -0.754292 1.73514 0
M  V30 4161 O 395.634 -1.52056 1.03076 0
M  V30 4162 C 395.696 0.910054 3.47791 0
M  V30 4163 C 395.36 2.33363 3.92926 0
M  V30 4164 C 396.357 3.31308 4.00663 0
M  V30 4165 C 394.042 2.66785 4.25595 0
M  V30 4166 C 396.036 4.6075 4.40441 0
M  V30 4167 C 393.723 3.96446 4.65053 0
M  V30 4168 C 394.721 4.9324 4.72444 0
M  V30 4169 O 394.409 6.20584 5.1101 0
M  V30 4170 H 394.141 0.25258 0.62704 0
M  V30 4171 H 396.695 1.32939 1.56577 0
M  V30 4172 H 394.925 0.208443 3.86138 0
M  V30 4173 H 396.614 0.598257 4.01467 0
M  V30 4174 H 397.38 3.0682 3.75615 0
M  V30 4175 H 393.259 1.92148 4.19047 0
M  V30 4176 H 396.803 5.363 4.46126 0
M  V30 4177 H 392.7 4.20724 4.89552 0
M  V30 4178 H 393.468 6.24509 5.29085 0
M  V30 4179 N 396.131 -1.37776 0.765217 0
M  V30 4180 C 397.041 -2.34135 0.147666 0
M  V30 4181 C 398.057 -1.59854 -0.687215 0
M  V30 4182 O 399.233 -1.91983 -0.608659 0
M  V30 4183 C 396.298 -3.3901 -0.72617 0
M  V30 4184 C 395.359 -4.2912 0.124417 0
M  V30 4185 C 394.592 -5.28986 -0.707807 0
M  V30 4186 O 394.815 -5.36205 -1.94525 0
M  V30 4187 O 393.749 -6.01779 -0.12046 0
M  V30 4188 H 397.575 -2.88664 0.943758 0
M  V30 4189 H 395.16 -1.39824 0.526277 0
M  V30 4190 H 397.042 -4.03195 -1.22524 0
M  V30 4191 H 395.717 -2.86819 -1.50056 0
M  V30 4192 H 394.624 -3.68057 0.669696 0
M  V30 4193 H 395.957 -4.84598 0.861736 0
M  V30 4194 N 397.609 -0.515225 -1.4894 0
M  V30 4195 C 398.519 0.259774 -2.33157 0
M  V30 4196 C 399.535 0.953501 -1.45548 0
M  V30 4197 O 400.711 0.931735 -1.78552 0
M  V30 4198 C 397.776 1.30193 -3.21326 0
M  V30 4199 C 396.837 0.620129 -4.24797 0
M  V30 4200 C 396.07 1.61263 -5.08753 0
M  V30 4201 O 396.293 2.84389 -4.94448 0
M  V30 4202 O 395.227 1.16013 -5.90614 0
M  V30 4203 H 399.053 -0.429932 -3.00641 0
M  V30 4204 H 396.638 -0.276346 -1.46822 0
M  V30 4205 H 398.52 1.90455 -3.75905 0
M  V30 4206 H 397.195 1.97431 -2.56521 0
M  V30 4207 H 396.102 -0.0226019 -3.74093 0
M  V30 4208 H 397.435 -0.0100493 -4.92199 0
M  V30 4209 N 399.087 1.5561 -0.249682 0
M  V30 4210 C 400.02 2.17537 0.689408 0
M  V30 4211 C 400.998 1.12829 1.17083 0
M  V30 4212 O 402.182 1.41229 1.24846 0
M  V30 4213 C 399.309 2.77828 1.93725 0
M  V30 4214 C 398.355 3.95615 1.59346 0
M  V30 4215 S 399.188 5.30988 0.69367 0
M  V30 4216 C 400.344 5.94734 1.95046 0
M  V30 4217 H 400.577 2.96852 0.163142 0
M  V30 4218 H 398.11 1.54362 -0.0341166 0
M  V30 4219 H 400.068 3.13199 2.65361 0
M  V30 4220 H 398.729 1.98454 2.43465 0
M  V30 4221 H 397.922 4.364 2.52132 0
M  V30 4222 H 397.524 3.61535 0.957512 0
M  V30 4223 H 399.816 6.12419 2.89739 0
M  V30 4224 H 400.759 6.90109 1.58604 0
M  V30 4225 H 401.167 5.23832 2.10381 0
M  V30 4226 N 400.565 -0.0233959 1.57583 0
M  V30 4227 C 401.528 -1.00693 2.05897 0
M  V30 4228 C 402.528 -1.28693 0.964092 0
M  V30 4229 O 403.718 -1.23602 1.22753 0
M  V30 4230 C 400.85 -2.33825 2.4807 0
M  V30 4231 H 402.043 -0.589476 2.9405 0
M  V30 4232 H 399.596 -0.270354 1.53944 0
M  V30 4233 H 400.331 -2.80307 1.6309 0
M  V30 4234 H 400.116 -2.1483 3.2801 0
M  V30 4235 H 401.606 -3.04426 2.85857 0
M  V30 4236 N 402.043 -1.548 -0.295768 0
M  V30 4237 C 402.99 -1.86113 -1.36494 0
M  V30 4238 C 403.96 -0.7105 -1.50137 0
M  V30 4239 O 405.145 -0.959626 -1.64912 0
M  V30 4240 C 402.285 -2.11861 -2.72413 0
M  V30 4241 C 401.398 -3.39471 -2.67177 0
M  V30 4242 C 400.533 -3.55035 -3.95125 0
M  V30 4243 C 399.572 -4.76418 -3.84308 0
M  V30 4244 N 398.709 -4.8876 -5.04042 0
M  V30 4245 H 403.549 -2.77314 -1.09091 0
M  V30 4246 H 401.086 -1.37315 -0.52753 0
M  V30 4247 H 403.044 -2.24786 -3.51464 0
M  V30 4248 H 401.674 -1.2392 -2.98066 0
M  V30 4249 H 400.726 -3.35139 -1.79962 0
M  V30 4250 H 402.038 -4.28646 -2.55076 0
M  V30 4251 H 401.192 -3.67653 -4.82614 0
M  V30 4252 H 399.931 -2.64002 -4.10066 0
M  V30 4253 H 398.936 -4.63827 -2.95202 0
M  V30 4254 H 400.161 -5.68863 -3.70906 0
M  V30 4255 H 398.107 -4.00652 -5.19436 0
M  V30 4256 H 398.024 -5.71945 -4.94384 0
M  V30 4257 H 399.292 -5.0574 -5.93167 0
M  V30 4258 N 403.521 0.559213 -1.47345 0
M  V30 4259 C 404.761 1.32728 -1.55444 0
M  V30 4260 C 405.125 1.90838 -0.210895 0
M  V30 4261 O 406.326 2.68282 -0.166719 0
M  V30 4262 C 404.597 2.4092 -2.63993 0
M  V30 4263 S 406.156 3.2784 -2.91661 0
M  V30 4264 H 402.974 0.451883 -0.548929 0
M  V30 4265 H 405.576 0.640404 -1.84714 0
M  V30 4266 H 404.28 1.9666 -3.60212 0
M  V30 4267 H 403.811 3.14351 -2.36531 0
M  V30 4268 H 405.826 4.40341 -2.28722 0
M  V30 4269 N 404.999 1.35443 0.805782 0
M  V30 4270 C 406.224 1.32037 1.59941 0
M  V30 4271 C 406.649 -0.0994215 1.87837 0
M  V30 4272 O 406.007 -1.06648 1.46615 0
M  V30 4273 C 406.055 2.13354 2.90711 0
M  V30 4274 O 405.159 1.5148 3.83572 0
M  V30 4275 H 404.5 0.452666 0.485787 0
M  V30 4276 H 407.03 1.78496 1.00002 0
M  V30 4277 H 407.04 2.25338 3.40128 0
M  V30 4278 H 405.715 3.16572 2.69732 0
M  V30 4279 H 404.292 1.4834 3.42125 0
M  V30 4280 N 406.477 -1.02803 1.19454 0
M  V30 4281 C 407.893 -1.28473 0.946937 0
M  V30 4282 C 408.093 -1.97881 -0.380202 0
M  V30 4283 O 407.149 -2.26719 -1.11151 0
M  V30 4284 C 408.462 -2.13099 2.12154 0
M  V30 4285 C 410.01 -2.26404 2.16126 0
M  V30 4286 C 410.485 -3.14402 3.33039 0
M  V30 4287 N 411.976 -3.21991 3.32981 0
M  V30 4288 C 412.711 -3.90272 4.20089 0
M  V30 4289 N 412.207 -4.60777 5.17355 0
M  V30 4290 N 414 -3.8668 4.07964 0
M  V30 4291 H 406.151 -0.561665 2.04839 0
M  V30 4292 H 408.414 -0.310438 0.89573 0
M  V30 4293 H 408.12 -1.69422 3.08203 0
M  V30 4294 H 407.994 -3.13813 2.09287 0
M  V30 4295 H 410.381 -2.69311 1.20647 0
M  V30 4296 H 410.462 -1.25237 2.23045 0
M  V30 4297 H 410.106 -2.72204 4.28798 0
M  V30 4298 H 410.036 -4.1563 3.23356 0
M  V30 4299 H 412.527 -2.71778 2.62574 0
M  V30 4300 H 412.84 -5.10513 5.80169 0
M  V30 4301 H 411.185 -4.5964 5.21302 0
M  V30 4302 H 414.376 -3.30739 3.31254 0
M  V30 4303 H 414.549 -4.39621 4.76064 0
M  V30 4304 N 407.956 -0.998596 -1.21925 0
M  V30 4305 C 408.919 -0.558679 -2.22287 0
M  V30 4306 C 409.919 0.361525 -1.56683 0
M  V30 4307 O 411.109 0.152695 -1.73529 0
M  V30 4308 C 408.241 0.18661 -3.40389 0
M  V30 4309 H 409.434 -1.4463 -2.62721 0
M  V30 4310 H 406.987 -0.786413 -1.35075 0
M  V30 4311 H 407.722 1.08996 -3.05435 0
M  V30 4312 H 407.507 -0.474188 -3.89222 0
M  V30 4313 H 408.997 0.482367 -4.14805 0
M  V30 4314 N 409.434 1.37368 -0.772513 0
M  V30 4315 C 410.344 2.34053 -0.160081 0
M  V30 4316 C 411.36 1.60216 0.678728 0
M  V30 4317 O 412.536 1.92303 0.59847 0
M  V30 4318 C 409.601 3.3939 0.708182 0
M  V30 4319 C 408.662 4.29048 -0.147172 0
M  V30 4320 C 407.895 5.29354 0.679744 0
M  V30 4321 O 408.118 5.3723 1.91678 0
M  V30 4322 O 407.052 6.01835 0.0885444 0
M  V30 4323 H 410.878 2.88159 -0.959053 0
M  V30 4324 H 408.463 1.39543 -0.533685 0
M  V30 4325 H 410.345 4.03839 1.20384 0
M  V30 4326 H 409.02 2.8761 1.48533 0
M  V30 4327 H 407.927 3.67697 -0.689205 0
M  V30 4328 H 409.26 4.84134 -0.887423 0
M  V30 4329 N 410.912 0.523116 1.48665 0
M  V30 4330 C 411.875 -0.232592 2.28017 0
M  V30 4331 C 412.875 -0.874021 1.34972 0
M  V30 4332 O 414.065 -0.735132 1.57929 0
M  V30 4333 C 411.197 -1.33586 3.13636 0
M  V30 4334 H 412.39 0.464008 2.96289 0
M  V30 4335 H 409.943 0.278816 1.53793 0
M  V30 4336 H 410.678 -2.06593 2.4998 0
M  V30 4337 H 410.463 -0.881125 3.82071 0
M  V30 4338 H 411.953 -1.86759 3.73511 0
M  V30 4339 N 412.39 -1.55475 0.257931 0
M  V30 4340 C 413.3 -2.2549 -0.647425 0
M  V30 4341 C 414.316 -1.2748 -1.18427 0
M  V30 4342 O 415.492 -1.6038 -1.2182 0
M  V30 4343 C 412.557 -2.94916 -1.82278 0
M  V30 4344 C 411.618 -4.08363 -1.32432 0
M  V30 4345 C 410.851 -4.74469 -2.44366 0
M  V30 4346 O 411.074 -4.39701 -3.63344 0
M  V30 4347 O 410.008 -5.62763 -2.13497 0
M  V30 4348 H 413.834 -3.03593 -0.0807707 0
M  V30 4349 H 411.419 -1.49377 0.0259962 0
M  V30 4350 H 413.301 -3.38606 -2.50846 0
M  V30 4351 H 411.976 -2.19744 -2.37685 0
M  V30 4352 H 410.883 -3.69166 -0.605605 0
M  V30 4353 H 412.216 -4.85385 -0.816211 0
M  V30 4354 N 413.868 0.0150385 -1.57593 0
M  V30 4355 C 414.831 0.995996 -2.06428 0
M  V30 4356 C 415.831 1.2818 -0.970903 0
M  V30 4357 O 417.021 1.22949 -1.23406 0
M  V30 4358 C 414.153 2.32506 -2.49307 0
M  V30 4359 H 415.346 0.573873 -2.94358 0
M  V30 4360 H 412.899 0.262186 -1.54085 0
M  V30 4361 H 413.634 2.79438 -1.64575 0
M  V30 4362 H 413.419 2.13087 -3.29145 0
M  V30 4363 H 414.909 3.02906 -2.87468 0
M  V30 4364 N 415.346 1.54954 0.287554 0
M  V30 4365 C 416.592 1.76059 1.01856 0
M  V30 4366 C 416.947 0.547056 1.84459 0
M  V30 4367 O 416.24 -0.460442 1.85985 0
M  V30 4368 C 416.434 2.99833 1.94512 0
M  V30 4369 C 416.263 4.33108 1.21026 0
M  V30 4370 C 415.033 4.96632 0.931896 0
M  V30 4371 C 417.231 5.10694 0.607949 0
M  V30 4372 N 415.213 6.13668 0.168716 0
M  V30 4373 C 416.584 6.19996 -0.0217865 0
M  V30 4374 C 418.639 4.95236 0.514338 0
M  V30 4375 C 417.342 7.15524 -0.736092 0
M  V30 4376 C 419.368 5.91106 -0.186343 0
M  V30 4377 C 418.73 6.99786 -0.804875 0
M  V30 4378 H 414.829 0.696679 0.355193 0
M  V30 4379 H 417.413 1.92441 0.295741 0
M  V30 4380 H 415.584 2.84853 2.64033 0
M  V30 4381 H 417.316 3.09405 2.60865 0
M  V30 4382 H 414.071 4.57255 1.23348 0
M  V30 4383 H 414.495 6.76705 -0.199781 0
M  V30 4384 H 419.137 4.11328 0.978234 0
M  V30 4385 H 416.855 7.98964 -1.21172 0
M  V30 4386 H 420.441 5.81224 -0.258897 0
M  V30 4387 H 419.321 7.72694 -1.33843 0
M  V30 4388 N 416.824 -0.551391 1.4764 0
M  V30 4389 C 418.054 -1.33163 1.57959 0
M  V30 4390 C 418.462 -1.87785 0.23094 0
M  V30 4391 O 417.805 -1.65996 -0.786825 0
M  V30 4392 C 417.867 -2.53449 2.54958 0
M  V30 4393 C 417.531 -2.20071 4.00522 0
M  V30 4394 C 418.528 -1.77017 4.88836 0
M  V30 4395 C 416.213 -2.31252 4.45901 0
M  V30 4396 C 418.207 -1.4558 6.20552 0
M  V30 4397 C 415.894 -1.99427 5.77644 0
M  V30 4398 C 416.892 -1.56659 6.64791 0
M  V30 4399 O 416.58 -1.25242 7.94084 0
M  V30 4400 H 416.312 -0.412022 0.535923 0
M  V30 4401 H 418.866 -0.674186 1.9402 0
M  V30 4402 H 417.096 -3.22104 2.13976 0
M  V30 4403 H 418.785 -3.15523 2.55343 0
M  V30 4404 H 419.551 -1.67867 4.55023 0
M  V30 4405 H 415.43 -2.63498 3.78272 0
M  V30 4406 H 418.974 -1.12125 6.8853 0
M  V30 4407 H 414.871 -2.08211 6.10998 0
M  V30 4408 H 415.639 -1.38822 8.06642 0
M  V30 4409 N 418.302 -1.35869 -0.798587 0
M  V30 4410 C 419.234 -1.25305 -1.91915 0
M  V30 4411 C 420.247 -0.174548 -1.61862 0
M  V30 4412 O 421.436 -0.428499 -1.73281 0
M  V30 4413 C 418.536 -0.9086 -3.26493 0
M  V30 4414 C 417.709 -2.08711 -3.84394 0
M  V30 4415 C 416.768 -1.71717 -4.97393 0
M  V30 4416 O 415.794 -2.43692 -5.14396 0
M  V30 4417 N 416.996 -0.645473 -5.769 0
M  V30 4418 H 419.761 -2.21849 -2.01502 0
M  V30 4419 H 417.322 -1.29143 -0.976408 0
M  V30 4420 H 419.314 -0.642455 -3.99568 0
M  V30 4421 H 417.884 -0.0325815 -3.12583 0
M  V30 4422 H 417.104 -2.51659 -3.03416 0
M  V30 4423 H 418.392 -2.87468 -4.19809 0
M  V30 4424 H 417.79 -0.047648 -5.6568 0
M  V30 4425 H 416.347 -0.43913 -6.50319 0
M  V30 4426 N 419.78 1.02168 -1.19998 0
M  V30 4427 C 421.008 1.79296 -1.03249 0
M  V30 4428 C 421.423 1.84103 0.418502 0
M  V30 4429 O 420.78 1.29031 1.29063 0
M  V30 4430 C 420.831 3.24007 -1.60319 0
M  V30 4431 O 420.552 3.19512 -2.99739 0
M  V30 4432 C 422.053 4.17704 -1.48453 0
M  V30 4433 H 419.273 0.564016 -0.363493 0
M  V30 4434 H 421.817 1.28639 -1.58973 0
M  V30 4435 H 419.972 3.7183 -1.08727 0
M  V30 4436 H 420.386 4.10306 -3.26725 0
M  V30 4437 H 421.86 5.17104 -1.93153 0
M  V30 4438 H 422.337 4.37029 -0.436193 0
M  V30 4439 H 422.943 3.7576 -1.99211 0
M  V30 4440 N 421.258 1.00505 1.21394 0
M  V30 4441 C 422.205 0.565496 2.23765 0
M  V30 4442 C 423.175 -0.408466 1.60999 0
M  V30 4443 O 424.36 -0.310503 1.88257 0
M  V30 4444 C 421.5 -0.101667 3.4495 0
M  V30 4445 C 420.613 0.915479 4.22188 0
M  V30 4446 C 419.748 0.220574 5.30742 0
M  V30 4447 C 418.787 1.22527 5.99711 0
M  V30 4448 N 417.924 0.557831 6.9988 0
M  V30 4449 H 422.764 1.44314 2.60725 0
M  V30 4450 H 420.301 0.722643 1.28126 0
M  V30 4451 H 422.259 -0.505504 4.14126 0
M  V30 4452 H 420.889 -0.94303 3.08718 0
M  V30 4453 H 419.941 1.43756 3.52191 0
M  V30 4454 H 421.253 1.68005 4.69655 0
M  V30 4455 H 420.407 -0.239368 6.06228 0
M  V30 4456 H 419.146 -0.576401 4.84282 0
M  V30 4457 H 418.151 1.69571 5.22997 0
M  V30 4458 H 419.376 2.02332 6.48258 0
M  V30 4459 H 417.322 -0.219486 6.55633 0
M  V30 4460 H 417.239 1.26065 7.45415 0
M  V30 4461 H 418.507 0.121095 7.79406 0
M  V30 4462 N 422.737 -1.36956 0.779787 0
M  V30 4463 C 423.984 -1.99491 0.347766 0
M  V30 4464 C 424.312 -1.61898 -1.07793 0
M  V30 4465 O 423.567 -0.86071 -1.75756 0
M  V30 4466 C 423.866 -3.54585 0.447686 0
M  V30 4467 C 423.532 -4.1197 1.83279 0
M  V30 4468 C 422.194 -4.27356 2.2118 0
M  V30 4469 C 424.546 -4.43354 2.74019 0
M  V30 4470 C 421.874 -4.71432 3.4924 0
M  V30 4471 C 424.226 -4.88858 4.01497 0
M  V30 4472 C 422.89 -5.0245 4.39432 0
M  V30 4473 H 422.16 -0.729991 0.127257 0
M  V30 4474 H 424.807 -1.63599 0.995376 0
M  V30 4475 H 423.112 -3.90773 -0.283447 0
M  V30 4476 H 424.809 -4.00888 0.0945948 0
M  V30 4477 H 421.399 -4.00428 1.52825 0
M  V30 4478 H 425.583 -4.31045 2.45995 0
M  V30 4479 H 420.839 -4.80141 3.78516 0
M  V30 4480 H 425.013 -5.12108 4.71931 0
M  V30 4481 H 422.64 -5.36362 5.38721 0
M  V30 4482 N 424.215 -0.530993 -1.48385 0
M  V30 4483 C 425.125 0.23503 -2.3342 0
M  V30 4484 C 426.141 0.93801 -1.46552 0
M  V30 4485 O 427.317 0.912745 -1.7953 0
M  V30 4486 C 424.382 1.26778 -3.22689 0
M  V30 4487 C 423.443 0.575038 -4.25431 0
M  V30 4488 C 422.676 1.55858 -5.10435 0
M  V30 4489 O 422.899 2.79129 -4.97437 0
M  V30 4490 O 421.833 1.09742 -5.91811 0
M  V30 4491 H 425.659 -0.461794 -3.00169 0
M  V30 4492 H 423.244 -0.291903 -1.46521 0
M  V30 4493 H 425.126 1.86457 -3.77904 0
M  V30 4494 H 423.801 1.94699 -2.586 0
M  V30 4495 H 422.708 -0.0622782 -3.74048 0
M  V30 4496 H 424.041 -0.062253 -4.92161 0
M  V30 4497 N 425.693 1.55336 -0.266172 0
M  V30 4498 C 426.921 2.03801 0.356756 0
M  V30 4499 C 427.336 1.14485 1.50129 0
M  V30 4500 O 426.693 0.163121 1.8177 0
M  V30 4501 C 426.744 3.51455 0.846281 0
M  V30 4502 O 426.465 4.37371 -0.252663 0
M  V30 4503 C 427.966 4.15767 1.53794 0
M  V30 4504 H 425.186 0.665906 0.0825218 0
M  V30 4505 H 427.73 2.00636 -0.39566 0
M  V30 4506 H 425.885 3.55092 1.54881 0
M  V30 4507 H 426.299 5.24358 0.122173 0
M  V30 4508 H 427.773 5.20714 1.83198 0
M  V30 4509 H 428.25 3.63404 2.46646 0
M  V30 4510 H 428.856 4.16107 0.879488 0
M  V30 4511 N 427.171 -0.0066808 1.57599 0
M  V30 4512 C 428.101 -0.999296 2.11036 0
M  V30 4513 C 429.082 -1.36278 1.01795 0
M  V30 4514 O 430.267 -1.4477 1.29442 0
M  V30 4515 C 427.397 -2.29328 2.60818 0
M  V30 4516 C 426.351 -2.07159 3.74525 0
M  V30 4517 C 425.677 -3.42512 4.10596 0
M  V30 4518 C 426.977 -1.43959 5.02069 0
M  V30 4519 H 428.671 -0.554382 2.94223 0
M  V30 4520 H 426.217 -0.265221 1.41536 0
M  V30 4521 H 428.17 -2.99117 2.96828 0
M  V30 4522 H 426.894 -2.7592 1.74745 0
M  V30 4523 H 425.553 -1.39797 3.38899 0
M  V30 4524 H 425.201 -3.86795 3.21556 0
M  V30 4525 H 424.901 -3.28498 4.87199 0
M  V30 4526 H 426.425 -4.13628 4.4916 0
M  V30 4527 H 427.839 -2.03696 5.35893 0
M  V30 4528 H 426.236 -1.40452 5.83432 0
M  V30 4529 H 427.306 -0.407992 4.83181 0
M  V30 4530 N 428.649 -1.55105 -0.279332 0
M  V30 4531 C 429.581 -1.83952 -1.36727 0
M  V30 4532 C 430.594 -0.723642 -1.45833 0
M  V30 4533 O 431.783 -1.00141 -1.47763 0
M  V30 4534 C 428.883 -1.98183 -2.74912 0
M  V30 4535 C 428.056 -3.28787 -2.88475 0
M  V30 4536 C 427.115 -3.33162 -4.07295 0
M  V30 4537 O 426.141 -4.06576 -3.98353 0
M  V30 4538 N 427.343 -2.60109 -5.18964 0
M  V30 4539 H 430.108 -2.77853 -1.12328 0
M  V30 4540 H 427.669 -1.54945 -0.469442 0
M  V30 4541 H 429.661 -1.98488 -3.52682 0
M  V30 4542 H 428.231 -1.11177 -2.92162 0
M  V30 4543 H 427.451 -3.41075 -1.97641 0
M  V30 4544 H 428.739 -4.14933 -2.94463 0
M  V30 4545 H 428.137 -2.00136 -5.29115 0
M  V30 4546 H 426.694 -2.66143 -5.94988 0
M  V30 4547 N 430.127 0.543554 -1.4793 0
M  V30 4548 C 431.09 1.63156 -1.60975 0
M  V30 4549 C 432.09 1.53346 -0.483899 0
M  V30 4550 O 433.28 1.5726 -0.749339 0
M  V30 4551 C 430.412 3.02743 -1.56716 0
M  V30 4552 H 431.605 1.52934 -2.57975 0
M  V30 4553 H 429.158 0.764557 -1.36324 0
M  V30 4554 H 429.893 3.18484 -0.611418 0
M  V30 4555 H 429.678 3.11272 -2.38438 0
M  V30 4556 H 431.168 3.81871 -1.6901 0
M  V30 4557 N 431.605 1.3629 0.791371 0
M  V30 4558 C 432.537 1.26321 1.91248 0
M  V30 4559 C 433.55 0.18313 1.61767 0
M  V30 4560 O 434.739 0.437682 1.73051 0
M  V30 4561 C 431.839 0.925901 3.26007 0
M  V30 4562 C 431.012 2.10746 3.83281 0
M  V30 4563 C 430.071 1.74352 4.96475 0
M  V30 4564 O 429.097 2.46416 5.13096 0
M  V30 4565 N 430.299 0.676058 5.7655 0
M  V30 4566 H 433.064 2.22915 2.00323 0
M  V30 4567 H 430.625 1.29659 0.969546 0
M  V30 4568 H 432.617 0.663636 3.99222 0
M  V30 4569 H 431.187 0.0491581 3.12561 0
M  V30 4570 H 430.407 2.53264 3.02077 0
M  V30 4571 H 431.695 2.8969 4.18279 0
M  V30 4572 H 431.093 0.0776467 5.65647 0
M  V30 4573 H 429.65 0.473612 6.50077 0
M  V30 4574 N 433.083 -1.0153 1.20538 0
M  V30 4575 C 434.046 -2.0826 0.957098 0
M  V30 4576 C 435.046 -1.60657 -0.0678655 0
M  V30 4577 O 436.236 -1.73385 0.168332 0
M  V30 4578 C 433.368 -3.38033 0.441188 0
M  V30 4579 H 434.561 -2.31719 1.90384 0
M  V30 4580 H 432.114 -1.1835 1.02093 0
M  V30 4581 H 432.849 -3.20249 -0.510961 0
M  V30 4582 H 432.634 -3.73911 1.18038 0
M  V30 4583 H 434.124 -4.16613 0.287009 0
M  V30 4584 N 434.561 -1.01147 -1.20859 0
M  V30 4585 C 435.809 -0.696486 -1.89719 0
M  V30 4586 C 436.13 0.775788 -1.78904 0
M  V30 4587 O 435.4 1.55759 -1.18811 0
M  V30 4588 H 433.98 -0.254628 -0.702263 0
M  V30 4589 H 436.642 -1.28197 -1.46804 0
M  V30 4590 H 435.738 -0.975357 -2.96468 0
M  V30 4591 N 436.039 1.36541 -0.78704 0
M  V30 4592 C 436.986 2.30082 -0.181901 0
M  V30 4593 C 437.956 1.5186 0.672896 0
M  V30 4594 O 439.141 1.80374 0.622072 0
M  V30 4595 C 436.281 3.3835 0.679197 0
M  V30 4596 C 435.394 4.31565 -0.193882 0
M  V30 4597 C 434.529 5.26915 0.673364 0
M  V30 4598 C 433.568 6.11769 -0.201315 0
M  V30 4599 N 432.705 6.99315 0.624777 0
M  V30 4600 H 437.545 2.81248 -0.985064 0
M  V30 4601 H 435.082 1.38437 -0.497342 0
M  V30 4602 H 437.04 3.99767 1.19341 0
M  V30 4603 H 435.67 2.8851 1.44781 0
M  V30 4604 H 434.722 3.71323 -0.826044 0
M  V30 4605 H 436.034 4.91191 -0.867937 0
M  V30 4606 H 435.188 5.9361 1.25348 0
M  V30 4607 H 433.927 4.67737 1.38105 0
M  V30 4608 H 432.932 5.44039 -0.793849 0
M  V30 4609 H 434.157 6.73022 -0.906568 0
M  V30 4610 H 432.103 6.42648 1.3168 0
M  V30 4611 H 432.02 7.56 0.00835237 0
M  V30 4612 H 433.288 7.70382 1.18879 0
M  V30 4613 N 437.518 0.538854 1.48102 0
M  V30 4614 C 438.468 -0.23907 2.26743 0
M  V30 4615 C 439.452 -0.901923 1.33245 0
M  V30 4616 O 440.644 -0.803263 1.57723 0
M  V30 4617 C 437.773 -1.2799 3.18549 0
M  V30 4618 C 436.859 -0.621388 4.19523 0
M  V30 4619 N 437.25 0.298004 5.04921 0
M  V30 4620 C 435.548 -0.877533 4.37282 0
M  V30 4621 C 436.249 0.678757 5.77726 0
M  V30 4622 N 435.225 0.0377881 5.43587 0
M  V30 4623 H 439.027 0.468096 2.90148 0
M  V30 4624 H 436.541 0.357497 1.58416 0
M  V30 4625 H 438.538 -1.851 3.73555 0
M  V30 4626 H 437.198 -1.98835 2.567 0
M  V30 4627 H 438.209 0.671126 5.13533 0
M  V30 4628 H 434.886 -1.57588 3.86616 0
M  V30 4629 H 436.276 1.43316 6.56437 0
M  V30 4630 N 438.996 -1.55193 0.274407 0
M  V30 4631 C 440.244 -1.99187 -0.341902 0
M  V30 4632 C 440.565 -1.16422 -1.56431 0
M  V30 4633 O 439.835 -0.253573 -1.94252 0
M  V30 4634 H 438.415 -0.735721 -0.129317 0
M  V30 4635 H 441.077 -1.91168 0.379578 0
M  V30 4636 H 440.173 -3.05629 -0.632253 0
M  V30 4637 N 440.474 -0.00167713 -1.576 0
M  V30 4638 C 441.751 0.719951 -1.81868 0
M  V30 4639 C 442.131 1.91895 -0.879747 0
M  V30 4640 O 441.479 2.28389 0.0711423 0
M  V30 4641 C 441.689 1.12409 -3.30402 0
M  V30 4642 C 443.037 1.52724 -3.96182 0
M  V30 4643 O 444.061 1.21784 -3.34734 0
M  V30 4644 O 442.92 2.10265 -5.04431 0
M  V30 4645 H 440.014 0.350707 -0.748955 0
M  V30 4646 H 442.56 -0.0272597 -1.69678 0
M  V30 4647 H 441.332 0.269532 -3.90371 0
M  V30 4648 H 440.955 1.93035 -3.47596 0
M  V30 4649 N 441.952 1.55251 0.271103 0
M  V30 4650 C 443.229 1.66664 1.02384 0
M  V30 4651 C 443.609 0.534363 2.04225 0
M  V30 4652 O 442.957 -0.465337 2.23712 0
M  V30 4653 C 443.167 3.05961 1.67895 0
M  V30 4654 C 444.515 3.63772 2.18986 0
M  V30 4655 O 445.539 3.08606 1.77878 0
M  V30 4656 O 444.398 4.60429 2.94393 0
M  V30 4657 H 441.492 0.676957 0.475035 0
M  V30 4658 H 444.038 1.67589 0.26681 0
M  V30 4659 H 442.81 3.79815 0.941071 0
M  V30 4660 H 442.433 3.08943 2.5028 0
M  V30 4661 N 443.43 -0.535701 1.48216 0
M  V30 4662 C 444.36 -1.65014 1.65204 0
M  V30 4663 C 445.341 -1.62554 0.501011 0
M  V30 4664 O 446.526 -1.7984 0.732886 0
M  V30 4665 C 443.656 -3.03616 1.68626 0
M  V30 4666 C 442.61 -3.20932 2.83172 0
M  V30 4667 C 441.936 -4.60537 2.71679 0
M  V30 4668 C 443.236 -3.04249 4.24535 0
M  V30 4669 H 444.93 -1.51053 2.58502 0
M  V30 4670 H 442.476 -0.725262 1.24402 0
M  V30 4671 H 444.429 -3.81446 1.79099 0
M  V30 4672 H 443.153 -3.18587 0.719026 0
M  V30 4673 H 441.812 -2.45517 2.72244 0
M  V30 4674 H 441.46 -4.72336 1.72937 0
M  V30 4675 H 441.16 -4.73069 3.48538 0
M  V30 4676 H 442.684 -5.40475 2.84112 0
M  V30 4677 H 444.098 -3.71877 4.36326 0
M  V30 4678 H 442.495 -3.28278 5.02348 0
M  V30 4679 H 443.565 -2.00739 4.41397 0
M  V30 4680 N 444.908 -1.36708 -0.784132 0
M  V30 4681 C 446.324 -1.17237 -1.08294 0
M  V30 4682 C 446.524 -5.93947e-05 -2.015 0
M  V30 4683 O 445.58 0.663686 -2.43622 0
M  V30 4684 C 446.893 -2.48557 -1.69233 0
M  V30 4685 C 448.441 -2.54968 -1.8155 0
M  V30 4686 C 448.916 -3.86388 -2.45904 0
M  V30 4687 N 450.407 -3.87762 -2.53367 0
M  V30 4688 C 451.142 -4.86191 -3.03983 0
M  V30 4689 N 450.638 -5.95015 -3.54866 0
M  V30 4690 N 452.431 -4.73606 -3.02743 0
M  V30 4691 H 444.582 -2.11758 -0.16501 0
M  V30 4692 H 446.845 -0.93822 -0.135822 0
M  V30 4693 H 446.551 -3.34638 -1.08215 0
M  V30 4694 H 446.425 -2.64748 -2.68679 0
M  V30 4695 H 448.812 -1.69302 -2.41704 0
M  V30 4696 H 448.893 -2.42672 -0.80895 0
M  V30 4697 H 448.537 -4.72462 -1.86392 0
M  V30 4698 H 448.467 -3.95982 -3.4714 0
M  V30 4699 H 450.958 -3.09145 -2.17343 0
M  V30 4700 H 451.271 -6.66086 -3.91854 0
M  V30 4701 H 449.616 -5.98676 -3.53003 0
M  V30 4702 H 452.807 -3.87717 -2.62284 0
M  V30 4703 H 452.98 -5.50473 -3.41881 0
M  V30 4704 N 446.386 1.0089 -1.21074 0
M  V30 4705 C 447.334 2.11707 -0.963476 0
M  V30 4706 C 448.328 1.69172 0.0879032 0
M  V30 4707 O 449.534 1.79889 -0.0631415 0
M  V30 4708 H 445.909 0.692026 -0.294287 0
M  V30 4709 H 447.88 2.29743 -1.90422 0
M  V30 4710 C 446.629 3.43473 -0.540509 0
M  V30 4711 H 445.952 3.76634 -1.34114 0
M  V30 4712 H 447.392 4.22044 -0.406777 0
M  V30 4713 C 445.851 3.2849 0.748079 0
M  V30 4714 O 446.381 3.58883 1.8046 0
M  V30 4715 N 444.587 2.81715 0.713081 0
M  V30 4716 H 444.134 2.5718 -0.146973 0
M  V30 4717 H 444.092 2.72071 1.57558 0
M  V30 4718 N 447.864 1.01787 1.20321 0
M  V30 4719 C 449.092 0.727194 1.937 0
M  V30 4720 C 449.507 -0.712305 1.74848 0
M  V30 4721 O 448.864 -1.48327 1.06327 0
M  V30 4722 C 448.915 1.05497 3.45764 0
M  V30 4723 O 448.636 2.43794 3.64 0
M  V30 4724 C 450.137 0.785534 4.36285 0
M  V30 4725 H 447.357 0.266939 0.615617 0
M  V30 4726 H 449.901 1.35939 1.52777 0
M  V30 4727 H 448.056 0.468158 3.84561 0
M  V30 4728 H 448.47 2.55656 4.57974 0
M  V30 4729 H 449.944 1.06495 5.4163 0
M  V30 4730 H 450.421 -0.280273 4.38305 0
M  V30 4731 H 451.027 1.35456 4.03152 0
M  V30 4732 N 449.342 -1.36122 0.79427 0
M  V30 4733 C 450.758 -1.5232 0.476525 0
M  V30 4734 C 450.958 -1.74685 -1.00436 0
M  V30 4735 O 450.014 -1.78115 -1.78973 0
M  V30 4736 C 451.327 -2.70607 1.31119 0
M  V30 4737 C 452.875 -2.8448 1.30537 0
M  V30 4738 C 453.35 -4.05778 2.12387 0
M  V30 4739 N 454.841 -4.12933 2.09859 0
M  V30 4740 C 455.576 -5.05876 2.69957 0
M  V30 4741 N 455.072 -6.04232 3.38934 0
M  V30 4742 N 456.865 -4.98528 2.59665 0
M  V30 4743 H 449.016 -1.1986 1.75349 0
M  V30 4744 H 451.279 -0.585418 0.745647 0
M  V30 4745 H 450.985 -2.60619 2.36158 0
M  V30 4746 H 450.859 -3.64888 0.955843 0
M  V30 4747 H 453.246 -2.93927 0.262876 0
M  V30 4748 H 453.327 -1.91093 1.70051 0
M  V30 4749 H 452.971 -3.97092 3.1667 0
M  V30 4750 H 452.901 -4.98323 1.70242 0
M  V30 4751 H 455.392 -3.42515 1.59662 0
M  V30 4752 H 455.705 -6.71724 3.82109 0
M  V30 4753 H 454.05 -6.04443 3.43036 0
M  V30 4754 H 457.241 -4.20641 2.05375 0
M  V30 4755 H 457.414 -5.70773 3.06793 0
M  V30 4756 N 450.82 -0.546701 -1.47814 0
M  V30 4757 C 451.768 0.220048 -2.31557 0
M  V30 4758 C 452.762 0.919472 -1.42275 0
M  V30 4759 O 453.968 0.841953 -1.59095 0
M  V30 4760 H 450.343 0.0898334 -0.746615 0
M  V30 4761 H 452.314 -0.505589 -2.94086 0
M  V30 4762 C 451.063 1.24353 -3.24702 0
M  V30 4763 H 450.386 0.714758 -3.93359 0
M  V30 4764 H 451.826 1.75112 -3.8615 0
M  V30 4765 C 450.285 2.28593 -2.47481 0
M  V30 4766 O 450.815 3.35334 -2.21165 0
M  V30 4767 N 449.021 2.02244 -2.08676 0
M  V30 4768 H 448.568 1.15455 -2.30278 0
M  V30 4769 H 448.526 2.72207 -1.57323 0
M  V30 4770 N 452.299 1.55045 -0.282633 0
M  V30 4771 C 453.209 2.26491 0.61147 0
M  V30 4772 C 454.225 1.29348 1.16384 0
M  V30 4773 O 455.401 1.62298 1.19253 0
M  V30 4774 C 452.466 2.97779 1.77563 0
M  V30 4775 C 451.527 4.10418 1.25919 0
M  V30 4776 C 450.76 4.78297 2.36786 0
M  V30 4777 O 450.983 4.45426 3.56303 0
M  V30 4778 O 449.917 5.66089 2.04517 0
M  V30 4779 H 453.743 3.03683 0.0324615 0
M  V30 4780 H 451.328 1.49317 -0.0497576 0
M  V30 4781 H 453.21 3.42554 2.45427 0
M  V30 4782 H 451.885 2.23498 2.34159 0
M  V30 4783 H 450.792 3.70082 0.546797 0
M  V30 4784 H 452.125 4.86622 0.738887 0
M  V30 4785 N 453.777 0.010035 1.57597 0
M  V30 4786 C 455.026 -0.671945 1.90178 0
M  V30 4787 C 455.339 -1.74376 0.886131 0
M  V30 4788 O 456.545 -2.48107 1.10252 0
M  V30 4789 C 455.001 -1.24636 3.3763 0
M  V30 4790 C 454.609 -0.208838 4.47513 0
M  V30 4791 C 456.353 -1.90595 3.79307 0
M  V30 4792 C 454.26 -0.793814 5.86048 0
M  V30 4793 H 453.19 -0.25474 0.709665 0
M  V30 4794 H 455.841 0.0722206 1.83358 0
M  V30 4795 H 454.223 -2.04152 3.3932 0
M  V30 4796 H 455.397 0.562463 4.57354 0
M  V30 4797 H 453.712 0.350889 4.14919 0
M  V30 4798 H 456.309 -2.35284 4.80151 0
M  V30 4799 H 456.652 -2.74074 3.13352 0
M  V30 4800 H 457.185 -1.17798 3.79958 0
M  V30 4801 H 453.924 0.00240855 6.555 0
M  V30 4802 H 453.444 -1.53404 5.79851 0
M  V30 4803 H 455.123 -1.2894 6.34022 0
M  V30 4804 N 455.255 -1.55392 -0.262866 0
M  V30 4805 C 456.48 -1.80847 -1.01533 0
M  V30 4806 C 456.905 -0.584946 -1.78774 0
M  V30 4807 O 456.263 0.465701 -1.75217 0
M  V30 4808 C 456.311 -3.03866 -1.94159 0
M  V30 4809 O 455.415 -2.79662 -3.03089 0
M  V30 4810 H 454.756 -0.597441 -0.289759 0
M  V30 4811 H 457.286 -2.02553 -0.288698 0
M  V30 4812 H 457.296 -3.32872 -2.35924 0
M  V30 4813 H 455.971 -3.92564 -1.37354 0
M  V30 4814 H 454.548 -2.61781 -2.65566 0
M  V30 4815 N 456.733 0.527833 -1.48498 0
M  V30 4816 C 457.643 1.65907 -1.65867 0
M  V30 4817 C 458.659 1.6537 -0.541192 0
M  V30 4818 O 459.835 1.84282 -0.812534 0
M  V30 4819 C 456.9 3.02364 -1.69637 0
M  V30 4820 C 455.961 3.1374 -2.93028 0
M  V30 4821 C 455.194 4.43688 -2.96609 0
M  V30 4822 O 455.417 5.30913 -2.08538 0
M  V30 4823 O 454.351 4.59475 -3.88802 0
M  V30 4824 H 458.177 1.5419 -2.61647 0
M  V30 4825 H 455.762 0.701163 -1.31924 0
M  V30 4826 H 457.644 3.83515 -1.74625 0
M  V30 4827 H 456.319 3.14401 -0.770312 0
M  V30 4828 H 455.226 2.31877 -2.93571 0
M  V30 4829 H 456.559 3.06621 -3.85026 0
M  V30 4830 N 458.211 1.37122 0.776871 0
M  V30 4831 C 459.144 1.26835 1.89705 0
M  V30 4832 C 460.122 0.14992 1.61907 0
M  V30 4833 O 461.306 0.323242 1.85708 0
M  V30 4834 C 458.433 0.95986 3.24814 0
M  V30 4835 C 457.479 2.09447 3.7153 0
M  V30 4836 S 458.312 3.71368 3.85806 0
M  V30 4837 C 459.468 3.42659 5.23771 0
M  V30 4838 H 459.701 2.21647 1.98141 0
M  V30 4839 H 457.234 1.22685 0.937433 0
M  V30 4840 H 459.192 0.788696 4.02852 0
M  V30 4841 H 457.853 0.0293137 3.14086 0
M  V30 4842 H 457.046 1.8335 4.69467 0
M  V30 4843 H 456.648 2.2255 3.00578 0
M  V30 4844 H 458.94 2.9733 6.0877 0
M  V30 4845 H 459.883 4.39905 5.54878 0
M  V30 4846 H 460.291 2.77708 4.91466 0
M  V30 4847 N 459.689 -1.00246 1.21608 0
M  V30 4848 C 460.637 -2.11193 0.97469 0
M  V30 4849 C 461.631 -1.69216 -0.0789303 0
M  V30 4850 O 462.837 -1.79853 0.0726806 0
M  V30 4851 H 459.212 -0.690455 0.297953 0
M  V30 4852 H 461.183 -2.2873 1.91638 0
M  V30 4853 C 459.932 -3.43182 0.558717 0
M  V30 4854 H 459.255 -3.75918 1.3611 0
M  V30 4855 H 460.695 -4.21823 0.429154 0
M  V30 4856 C 459.154 -3.28882 -0.730648 0
M  V30 4857 O 459.684 -3.59835 -1.78554 0
M  V30 4858 N 457.89 -2.8209 -0.698131 0
M  V30 4859 H 457.437 -2.57099 0.16061 0
M  V30 4860 H 457.395 -2.72903 -1.56113 0
M  V30 4861 N 461.167 -1.02423 -1.1978 0
M  V30 4862 C 462.583 -0.740459 -1.41384 0
M  V30 4863 C 462.783 0.676827 -1.89793 0
M  V30 4864 O 461.839 1.4435 -2.0717 0
M  V30 4865 C 463.152 -1.77264 -2.42895 0
M  V30 4866 C 464.7 -1.79165 -2.56649 0
M  V30 4867 C 465.175 -2.8133 -3.6141 0
M  V30 4868 N 466.666 -2.80118 -3.68901 0
M  V30 4869 C 467.401 -3.55824 -4.49641 0
M  V30 4870 N 466.897 -4.41231 -5.34123 0
M  V30 4871 N 468.69 -3.44387 -4.44246 0
M  V30 4872 H 460.841 -1.9391 -0.866764 0
M  V30 4873 H 463.104 -0.838074 -0.443098 0
M  V30 4874 H 462.81 -2.7884 -2.14339 0
M  V30 4875 H 462.684 -1.59108 -3.42001 0
M  V30 4876 H 465.071 -0.782702 -2.84531 0
M  V30 4877 H 465.152 -2.01396 -1.57713 0
M  V30 4878 H 464.796 -3.82394 -3.34271 0
M  V30 4879 H 464.726 -2.56359 -4.59986 0
M  V30 4880 H 467.217 -2.1817 -3.08562 0
M  V30 4881 H 467.53 -4.95747 -5.92836 0
M  V30 4882 H 465.875 -4.45306 -5.33599 0
M  V30 4883 H 469.066 -2.7708 -3.77285 0
M  V30 4884 H 469.239 -4.0364 -5.06931 0
M  V30 4885 N 462.645 1.35699 -0.801477 0
M  V30 4886 C 463.608 2.28199 -0.213994 0
M  V30 4887 C 464.608 1.49359 0.595691 0
M  V30 4888 O 465.798 1.69186 0.414921 0
M  V30 4889 C 462.93 3.33587 0.702297 0
M  V30 4890 H 464.123 2.81666 -1.02976 0
M  V30 4891 H 461.676 1.45467 -0.571759 0
M  V30 4892 H 462.411 2.85297 1.54195 0
M  V30 4893 H 462.196 3.91906 0.123484 0
M  V30 4894 H 463.686 4.02638 1.10783 0
M  V30 4895 N 464.123 0.554532 1.47522 0
M  V30 4896 C 465.372 0.0273458 2.01681 0
M  V30 4897 C 465.685 -1.32962 1.43459 0
M  V30 4898 O 466.891 -1.94657 1.89265 0
M  V30 4899 C 465.347 -0.00159057 3.599 0
M  V30 4900 C 464.955 1.35197 4.27113 0
M  V30 4901 C 466.699 -0.476311 4.21819 0
M  V30 4902 C 464.606 1.28229 5.77331 0
M  V30 4903 H 463.536 0.00645269 0.753972 0
M  V30 4904 H 466.187 0.701985 1.69542 0
M  V30 4905 H 464.569 -0.741821 3.8899 0
M  V30 4906 H 465.743 2.1097 4.09668 0
M  V30 4907 H 464.058 1.76441 3.77171 0
M  V30 4908 H 466.655 -0.5468 5.31897 0
M  V30 4909 H 466.998 -1.4877 3.8881 0
M  V30 4910 H 467.531 0.20898 3.97251 0
M  V30 4911 H 464.27 2.26959 6.14955 0
M  V30 4912 H 463.79 0.566314 5.97121 0
M  V30 4913 H 465.469 0.983226 6.39485 0
M  V30 4914 N 465.601 -1.54893 0.290851 0
M  V30 4915 C 466.533 -2.20564 -0.623236 0
M  V30 4916 C 467.546 -1.19519 -1.1054 0
M  V30 4917 O 468.735 -1.46165 -1.02459 0
M  V30 4918 C 465.835 -2.83033 -1.86401 0
M  V30 4919 C 465.008 -4.09916 -1.52604 0
M  V30 4920 C 464.067 -4.56284 -2.62091 0
M  V30 4921 O 463.093 -5.2171 -2.27612 0
M  V30 4922 N 464.295 -4.27746 -3.92446 0
M  V30 4923 H 467.06 -2.99638 -0.0610915 0
M  V30 4924 H 464.621 -1.61508 0.112615 0
M  V30 4925 H 466.613 -3.1099 -2.58973 0
M  V30 4926 H 465.183 -2.0786 -2.33481 0
M  V30 4927 H 464.403 -3.89078 -0.633424 0
M  V30 4928 H 465.691 -4.92554 -1.27547 0
M  V30 4929 H 465.089 -3.7531 -4.23272 0
M  V30 4930 H 463.646 -4.60437 -4.61347 0
M  V30 4931 N 467.08 -0.0183926 -1.57589 0
M  V30 4932 C 468.496 0.337897 -1.55982 0
M  V30 4933 C 468.696 1.73604 -1.02294 0
M  V30 4934 O 467.752 2.43589 -0.664895 0
M  V30 4935 C 469.065 0.196305 -3.00059 0
M  V30 4936 C 470.613 0.269875 -3.11834 0
M  V30 4937 C 471.088 0.157197 -4.5773 0
M  V30 4938 N 472.579 0.214521 -4.62703 0
M  V30 4939 C 473.314 0.150955 -5.73201 0
M  V30 4940 N 472.81 0.0369212 -6.9279 0
M  V30 4941 N 474.603 0.204162 -5.61729 0
M  V30 4942 H 466.754 -0.93279 -1.90821 0
M  V30 4943 H 469.017 -0.359253 -0.877292 0
M  V30 4944 H 468.723 -0.766383 -3.43248 0
M  V30 4945 H 468.597 0.970908 -3.6449 0
M  V30 4946 H 470.984 1.22302 -2.68563 0
M  V30 4947 H 471.065 -0.534918 -2.50144 0
M  V30 4948 H 470.709 -0.792479 -5.01679 0
M  V30 4949 H 470.639 0.980717 -5.17387 0
M  V30 4950 H 473.13 0.303238 -3.76681 0
M  V30 4951 H 473.443 -0.00518321 -7.728 0
M  V30 4952 H 471.788 0.0022886 -6.95 0
M  V30 4953 H 474.979 0.291575 -4.67191 0
M  V30 4954 H 475.152 0.15116 -6.47824 0
M  V30 4955 N 468.558 1.5553 0.254621 0
M  V30 4956 C 469.488 1.9268 1.31897 0
M  V30 4957 C 470.469 0.790797 1.506 0
M  V30 4958 O 471.654 1.05045 1.63337 0
M  V30 4959 C 468.784 2.21477 2.67517 0
M  V30 4960 C 467.738 3.37256 2.63519 0
M  V30 4961 C 467.064 3.51576 4.02862 0
M  V30 4962 C 468.364 4.73157 2.21179 0
M  V30 4963 H 470.058 2.81832 1.01051 0
M  V30 4964 H 467.604 1.35599 0.484662 0
M  V30 4965 H 469.557 2.46055 3.42104 0
M  V30 4966 H 468.281 1.29144 2.99982 0
M  V30 4967 H 466.94 3.12675 1.9139 0
M  V30 4968 H 466.588 2.56676 4.32581 0
M  V30 4969 H 466.288 4.2943 4.01078 0
M  V30 4970 H 467.812 3.78467 4.79161 0
M  V30 4971 H 469.226 4.97158 2.85494 0
M  V30 4972 H 467.623 5.54058 2.30521 0
M  V30 4973 H 468.693 4.70739 1.16332 0
M  V30 4974 N 470.036 -0.519951 1.48776 0
M  V30 4975 C 470.968 -1.63973 1.60142 0
M  V30 4976 C 471.981 -1.55404 0.485117 0
M  V30 4977 O 473.17 -1.61682 0.756391 0
M  V30 4978 C 470.27 -3.02676 1.52449 0
M  V30 4979 C 469.443 -3.36624 2.79291 0
M  V30 4980 C 468.502 -4.54652 2.64912 0
M  V30 4981 O 467.528 -4.57374 3.38818 0
M  V30 4982 N 468.73 -5.53432 1.75195 0
M  V30 4983 H 471.495 -1.54656 2.56713 0
M  V30 4984 H 469.056 -0.707439 1.45626 0
M  V30 4985 H 471.048 -3.79525 1.4051 0
M  V30 4986 H 469.618 -3.06018 0.638125 0
M  V30 4987 H 468.838 -2.48855 3.0572 0
M  V30 4988 H 470.126 -3.56094 3.6342 0
M  V30 4989 H 469.524 -5.54018 1.14371 0
M  V30 4990 H 468.081 -6.29459 1.69189 0
M  V30 4991 N 471.514 -1.37532 -0.769588 0
M  V30 4992 C 472.477 -1.33292 -1.86456 0
M  V30 4993 C 473.477 -0.236537 -1.59051 0
M  V30 4994 O 474.667 -0.492511 -1.67093 0
M  V30 4995 C 471.799 -1.07118 -3.23633 0
M  V30 4996 H 472.992 -2.30692 -1.91628 0
M  V30 4997 H 470.545 -1.22593 -0.969572 0
M  V30 4998 H 471.28 -0.102578 -3.24138 0
M  V30 4999 H 471.065 -1.86479 -3.44917 0
M  V30 5000 H 472.555 -1.06806 -4.03711 0
M  V30 5001 N 472.992 0.995999 -1.22138 0
M  V30 5002 C 473.902 2.11985 -1.00496 0
M  V30 5003 C 474.918 1.7394 0.0457701 0
M  V30 5004 O 476.094 2.00868 -0.146273 0
M  V30 5005 C 473.159 3.41779 -0.582086 0
M  V30 5006 C 472.22 3.93943 -1.70608 0
M  V30 5007 C 471.453 5.17542 -1.30328 0
M  V30 5008 O 471.676 5.70114 -0.180743 0
M  V30 5009 O 470.61 5.63382 -2.11861 0
M  V30 5010 H 474.436 2.33123 -1.94647 0
M  V30 5011 H 472.021 1.10358 -1.00705 0
M  V30 5012 H 473.903 4.1989 -0.356467 0
M  V30 5013 H 472.578 3.22007 0.330592 0
M  V30 5014 H 471.485 3.17019 -1.98619 0
M  V30 5015 H 472.818 4.18141 -2.59651 0
M  V30 5016 N 474.47 1.03057 1.19235 0
M  V30 5017 C 475.719 0.72326 1.88287 0
M  V30 5018 C 476.032 -0.751333 1.80594 0
M  V30 5019 O 477.238 -1.17176 2.44912 0
M  V30 5020 C 475.694 1.24338 3.3774 0
M  V30 5021 C 475.302 2.74587 3.53986 0
M  V30 5022 C 477.046 1.01213 4.12257 0
M  V30 5023 C 474.953 3.20009 4.97341 0
M  V30 5024 H 473.883 0.266848 0.705201 0
M  V30 5025 H 476.534 1.24509 1.34795 0
M  V30 5026 H 474.916 0.649457 3.90638 0
M  V30 5027 H 476.09 3.39649 3.11408 0
M  V30 5028 H 474.405 2.9601 2.9286 0
M  V30 5029 H 477.002 1.32675 5.17978 0
M  V30 5030 H 477.345 -0.051001 4.16269 0
M  V30 5031 H 477.878 1.57014 3.65501 0
M  V30 5032 H 474.617 4.25659 4.98493 0
M  V30 5033 H 474.137 2.59676 5.40674 0
M  V30 5034 H 475.816 3.13447 5.66003 0
M  V30 5035 N 475.948 -1.35272 0.808662 0
M  V30 5036 C 477.225 -1.93077 0.313181 0
M  V30 5037 C 477.605 -1.73847 -1.19752 0
M  V30 5038 O 476.953 -1.1087 -1.998 0
M  V30 5039 C 477.163 -3.41347 0.726859 0
M  V30 5040 C 478.511 -4.18493 0.717532 0
M  V30 5041 O 479.535 -3.4987 0.668535 0
M  V30 5042 O 478.394 -5.40937 0.777779 0
M  V30 5043 H 475.488 -0.822885 0.0824018 0
M  V30 5044 H 478.034 -1.44335 0.892499 0
M  V30 5045 H 476.806 -3.49082 1.76797 0
M  V30 5046 H 476.429 -3.97411 0.122461 0
M  V30 5047 N 477.426 -0.562348 -1.47226 0
M  V30 5048 C 478.374 0.195476 -2.31777 0
M  V30 5049 C 479.368 0.90433 -1.43242 0
M  V30 5050 O 480.574 0.825031 -1.59979 0
M  V30 5051 H 476.949 0.0819095 -0.747526 0
M  V30 5052 H 478.92 -0.536753 -2.93533 0
M  V30 5053 C 477.669 1.20902 -3.26003 0
M  V30 5054 H 476.992 0.672997 -3.94095 0
M  V30 5055 H 478.432 1.71006 -3.87986 0
M  V30 5056 C 476.891 2.25955 -2.49891 0
M  V30 5057 O 477.421 3.32969 -2.2471 0
M  V30 5058 N 475.627 2.00019 -2.1081 0
M  V30 5059 H 475.174 1.13006 -2.31489 0
M  V30 5060 H 475.132 2.70523 -1.60201 0
M  V30 5061 N 478.904 1.54736 -0.299062 0
M  V30 5062 C 480.153 1.99279 0.311549 0
M  V30 5063 C 480.466 1.19107 1.55154 0
M  V30 5064 O 481.672 1.53908 2.23662 0
M  V30 5065 C 480.128 3.54768 0.605632 0
M  V30 5066 C 479.736 4.43746 -0.615914 0
M  V30 5067 C 481.48 4.07841 1.17754 0
M  V30 5068 C 479.387 5.90663 -0.29509 0
M  V30 5069 H 478.317 0.744359 0.120187 0
M  V30 5070 H 480.968 1.78919 -0.407464 0
M  V30 5071 H 479.35 3.71021 1.38419 0
M  V30 5072 H 480.524 4.39267 -1.39218 0
M  V30 5073 H 478.839 4.01434 -1.10633 0
M  V30 5074 H 481.436 5.15174 1.43179 0
M  V30 5075 H 481.779 3.58324 2.11918 0
M  V30 5076 H 482.312 3.95123 0.460739 0
M  V30 5077 H 479.051 6.44325 -1.20524 0
M  V30 5078 H 478.571 5.98155 0.44394 0
M  V30 5079 H 480.25 6.46916 0.104048 0
M  V30 5080 N 480.382 0.0267497 1.57577 0
M  V30 5081 C 481.329 -0.955894 2.10075 0
M  V30 5082 C 482.299 -1.32453 1.00226 0
M  V30 5083 O 483.484 -1.41826 1.27632 0
M  V30 5084 C 480.624 -2.2338 2.6305 0
M  V30 5085 C 479.737 -1.92183 3.86898 0
M  V30 5086 C 478.872 -3.14251 4.28275 0
M  V30 5087 C 477.911 -2.78862 5.44888 0
M  V30 5088 N 477.048 -3.93548 5.81433 0
M  V30 5089 H 481.888 -0.501303 2.93753 0
M  V30 5090 H 479.425 -0.235847 1.45197 0
M  V30 5091 H 481.383 -2.98124 2.91853 0
M  V30 5092 H 480.013 -2.6646 1.82205 0
M  V30 5093 H 479.065 -1.07692 3.64838 0
M  V30 5094 H 480.377 -1.62117 4.7172 0
M  V30 5095 H 479.531 -3.97317 4.58502 0
M  V30 5096 H 478.27 -3.47476 3.42215 0
M  V30 5097 H 477.275 -1.94208 5.14357 0
M  V30 5098 H 478.5 -2.46855 6.32645 0
M  V30 5099 H 476.446 -4.2662 4.98328 0
M  V30 5100 H 476.363 -3.67098 6.6089 0
M  V30 5101 H 477.631 -4.77325 6.16264 0
M  V30 5102 N 481.861 -1.55662 -0.24637 0
M  V30 5103 C 482.809 -1.91186 -1.3248 0
M  V30 5104 C 483.803 -0.790996 -1.49799 0
M  V30 5105 O 485.009 -0.975617 -1.51267 0
M  V30 5106 H 481.384 -0.607207 -0.443626 0
M  V30 5107 H 483.355 -2.81221 -0.997853 0
M  V30 5108 C 482.104 -2.22349 -2.67313 0
M  V30 5109 H 481.427 -3.08097 -2.54786 0
M  V30 5110 H 482.867 -2.51107 -3.41645 0
M  V30 5111 C 481.326 -1.04001 -3.20446 0
M  V30 5112 O 481.856 -0.28828 -4.00664 0
M  V30 5113 N 480.062 -0.830494 -2.7848 0
M  V30 5114 H 479.609 -1.4435 -2.13356 0
M  V30 5115 H 479.567 -0.0403258 -3.14374 0
M  V30 5116 N 483.339 0.512053 -1.4905 0
M  V30 5117 C 484.271 1.63121 -1.6101 0
M  V30 5118 C 485.284 1.55145 -0.493352 0
M  V30 5119 O 486.473 1.61278 -0.764955 0
M  V30 5120 C 483.573 3.01863 -1.54052 0
M  V30 5121 C 482.746 3.35138 -2.81072 0
M  V30 5122 C 481.805 4.5324 -2.67319 0
M  V30 5123 O 480.831 4.55571 -3.41238 0
M  V30 5124 N 482.033 5.52495 -1.78127 0
M  V30 5125 H 484.798 1.53292 -2.5753 0
M  V30 5126 H 482.359 0.699706 -1.45999 0
M  V30 5127 H 484.351 3.78774 -1.42521 0
M  V30 5128 H 482.921 3.05675 -0.654345 0
M  V30 5129 H 482.141 2.4723 -3.07036 0
M  V30 5130 H 483.429 3.54162 -3.65304 0
M  V30 5131 H 482.827 5.53403 -1.17308 0
M  V30 5132 H 481.384 6.28553 -1.72525 0
M  V30 5133 N 484.817 1.37938 0.762283 0
M  V30 5134 C 486.233 1.18945 1.06415 0
M  V30 5135 C 486.433 0.0321163 2.01474 0
M  V30 5136 O 485.489 -0.624844 2.44647 0
M  V30 5137 C 486.802 2.51218 1.65258 0
M  V30 5138 C 488.35 2.57824 1.7747 0
M  V30 5139 C 488.825 3.90251 2.39725 0
M  V30 5140 N 490.316 3.91744 2.47166 0
M  V30 5141 C 491.051 4.90966 2.96209 0
M  V30 5142 N 490.547 6.00585 3.45354 0
M  V30 5143 N 492.34 4.78363 2.9517 0
M  V30 5144 H 484.491 2.11994 0.131301 0
M  V30 5145 H 486.754 0.940262 0.120879 0
M  V30 5146 H 486.46 3.36317 1.02878 0
M  V30 5147 H 486.334 2.68989 2.64433 0
M  V30 5148 H 488.721 1.73126 2.3898 0
M  V30 5149 H 488.802 2.43928 0.770241 0
M  V30 5150 H 488.446 4.75368 1.78852 0
M  V30 5151 H 488.376 4.01454 3.40796 0
M  V30 5152 H 490.867 3.12563 2.12397 0
M  V30 5153 H 491.18 6.72236 3.81207 0
M  V30 5154 H 489.525 6.04217 3.43434 0
M  V30 5155 H 492.716 3.91841 2.56082 0
M  V30 5156 H 492.889 5.55843 3.33081 0
M  V30 5157 N 486.295 -0.989507 1.22664 0
M  V30 5158 C 487.258 -2.06183 1.00106 0
M  V30 5159 C 488.258 -1.60765 -0.0337726 0
M  V30 5160 O 489.448 -1.72989 0.205072 0
M  V30 5161 C 486.58 -3.37021 0.51279 0
M  V30 5162 H 487.773 -2.27629 1.95256 0
M  V30 5163 H 485.326 -1.16158 1.0458 0
M  V30 5164 H 486.061 -3.21261 -0.442917 0
M  V30 5165 H 485.846 -3.71323 1.25942 0
M  V30 5166 H 487.336 -4.1591 0.375315 0
M  V30 5167 N 487.773 -1.03688 -1.18687 0
M  V30 5168 C 488.72 -0.624624 -2.22187 0
M  V30 5169 C 489.69 0.365636 -1.62026 0
M  V30 5170 O 490.875 0.260481 -1.89014 0
M  V30 5171 C 488.015 0.0101738 -3.45099 0
M  V30 5172 C 487.128 -1.02709 -4.19613 0
M  V30 5173 C 486.263 -0.361213 -5.2997 0
M  V30 5174 C 485.302 -1.38384 -5.96252 0
M  V30 5175 N 484.439 -0.743196 -6.98155 0
M  V30 5176 H 489.279 -1.51176 -2.56807 0
M  V30 5177 H 486.816 -0.75636 -1.26165 0
M  V30 5178 H 488.774 0.395528 -4.15321 0
M  V30 5179 H 487.404 0.860848 -3.1111 0
M  V30 5180 H 486.456 -1.53043 -3.48256 0
M  V30 5181 H 487.768 -1.80398 -4.65036 0
M  V30 5182 H 486.922 0.0785537 -6.06649 0
M  V30 5183 H 485.661 0.447799 -4.8564 0
M  V30 5184 H 484.666 -1.83378 -5.18317 0
M  V30 5185 H 485.891 -2.19448 -6.42666 0
M  V30 5186 H 483.837 0.0455789 -6.55984 0
M  V30 5187 H 483.754 -1.45784 -7.41811 0
M  V30 5188 H 485.022 -0.327698 -7.78811 0
M  V30 5189 N 489.251 1.34841 -0.815825 0
M  V30 5190 C 490.181 2.32187 -0.247298 0
M  V30 5191 C 491.162 1.5791 0.632344 0
M  V30 5192 O 492.347 1.8593 0.560698 0
M  V30 5193 C 489.477 3.42122 0.597466 0
M  V30 5194 C 488.431 4.27602 -0.184446 0
M  V30 5195 C 487.757 5.28942 0.782609 0
M  V30 5196 C 489.057 5.03502 -1.38865 0
M  V30 5197 H 490.751 2.79985 -1.06061 0
M  V30 5198 H 488.297 1.34611 -0.511461 0
M  V30 5199 H 490.25 4.09232 1.00533 0
M  V30 5200 H 488.974 2.92956 1.44376 0
M  V30 5201 H 487.633 3.62085 -0.573592 0
M  V30 5202 H 487.281 4.7604 1.62466 0
M  V30 5203 H 486.981 5.87008 0.263695 0
M  V30 5204 H 488.505 5.98922 1.18848 0
M  V30 5205 H 489.919 5.63506 -1.05518 0
M  V30 5206 H 488.316 5.71108 -1.8427 0
M  V30 5207 H 489.386 4.33608 -2.17054 0
M  V30 5208 N 490.729 0.570148 1.46925 0
M  V30 5209 C 491.639 -0.173061 2.33961 0
M  V30 5210 C 492.655 -0.898825 1.48987 0
M  V30 5211 O 493.831 -0.864825 1.81887 0
M  V30 5212 C 490.896 -1.18177 3.25937 0
M  V30 5213 C 489.957 -0.462041 4.26806 0
M  V30 5214 C 489.19 -1.4227 5.14388 0
M  V30 5215 O 489.413 -2.65842 5.04662 0
M  V30 5216 O 488.347 -0.940127 5.94513 0
M  V30 5217 H 492.173 0.541216 2.98839 0
M  V30 5218 H 489.758 0.330647 1.45695 0
M  V30 5219 H 491.64 -1.76372 3.82715 0
M  V30 5220 H 490.315 -1.87774 2.63671 0
M  V30 5221 H 489.222 0.161429 3.73752 0
M  V30 5222 H 490.555 0.192719 4.91823 0
M  V30 5223 N 492.207 -1.54576 0.307264 0
M  V30 5224 C 493.17 -2.22423 -0.553224 0
M  V30 5225 C 494.17 -1.21231 -1.05639 0
M  V30 5226 O 495.36 -1.45923 -0.951419 0
M  V30 5227 C 492.492 -2.91552 -1.76664 0
M  V30 5228 H 493.685 -2.99874 0.0396484 0
M  V30 5229 H 491.238 -1.56192 0.0581629 0
M  V30 5230 H 491.973 -2.18196 -2.39918 0
M  V30 5231 H 491.758 -3.65738 -1.41343 0
M  V30 5232 H 493.248 -3.43292 -2.37783 0
M  V30 5233 N 493.685 -0.035106 -1.57561 0
M  V30 5234 C 494.648 0.929819 -2.09492 0
M  V30 5235 C 495.648 1.25026 -1.01119 0
M  V30 5236 O 496.838 1.18961 -1.27255 0
M  V30 5237 C 493.97 2.24457 -2.56577 0
M  V30 5238 H 495.163 0.479935 -2.96035 0
M  V30 5239 H 492.716 0.213033 -1.54841 0
M  V30 5240 H 493.451 2.74061 -1.73382 0
M  V30 5241 H 493.236 2.02508 -3.35757 0
M  V30 5242 H 494.726 2.93607 -2.96959 0
M  V30 5243 N 495.163 1.55791 0.238111 0
M  V30 5244 C 496.412 1.77234 0.962868 0
M  V30 5245 C 496.725 0.600661 1.86149 0
M  V30 5246 O 497.931 0.698315 2.62366 0
M  V30 5247 C 496.387 3.13808 1.76218 0
M  V30 5248 C 495.995 4.3865 0.910518 0
M  V30 5249 C 497.739 3.44585 2.47914 0
M  V30 5250 C 495.646 5.66252 1.70623 0
M  V30 5251 H 494.576 0.660731 0.36325 0
M  V30 5252 H 497.227 1.8221 0.217242 0
M  V30 5253 H 495.609 3.02963 2.55009 0
M  V30 5254 H 496.783 4.60507 0.164316 0
M  V30 5255 H 495.098 4.15271 0.30647 0
M  V30 5256 H 497.695 4.3714 3.07917 0
M  V30 5257 H 498.038 2.66314 3.19973 0
M  V30 5258 H 498.571 3.56685 1.76127 0
M  V30 5259 H 495.31 6.47369 1.02923 0
M  V30 5260 H 494.83 5.48483 2.42748 0
M  V30 5261 H 496.509 6.05829 2.27114 0
M  V30 5262 N 496.642 -0.504142 1.49319 0
M  V30 5263 C 497.605 -1.5883 1.65244 0
M  V30 5264 C 498.605 -1.52009 0.524386 0
M  V30 5265 O 499.795 -1.55218 0.79077 0
M  V30 5266 C 496.927 -2.98481 1.64687 0
M  V30 5267 H 498.12 -1.4604 2.61939 0
M  V30 5268 H 495.673 -0.728144 1.38303 0
M  V30 5269 H 496.408 -3.16751 0.695644 0
M  V30 5270 H 496.193 -3.0484 2.46607 0
M  V30 5271 H 497.683 -3.77256 1.79075 0
M  V30 5272 N 498.12 -1.38341 -0.754957 0
M  V30 5273 C 499.03 -1.3769 -1.89944 0
M  V30 5274 C 500.046 -0.274194 -1.71826 0
M  V30 5275 O 501.222 -0.512391 -1.94773 0
M  V30 5276 C 498.287 -1.19938 -3.25293 0
M  V30 5277 C 497.348 -2.40001 -3.55946 0
M  V30 5278 C 496.581 -2.23087 -4.84838 0
M  V30 5279 O 496.804 -1.22386 -5.57116 0
M  V30 5280 O 495.738 -3.11646 -5.14937 0
M  V30 5281 H 499.564 -2.3412 -1.93446 0
M  V30 5282 H 497.149 -1.19246 -0.900044 0
M  V30 5283 H 499.031 -1.12093 -4.06218 0
M  V30 5284 H 497.706 -0.265919 -3.22606 0
M  V30 5285 H 496.613 -2.53421 -2.75188 0
M  V30 5286 H 497.946 -3.31973 -3.63394 0
M  V30 5287 N 499.598 0.982988 -1.23187 0
M  V30 5288 C 500.561 2.05649 -1.01198 0
M  V30 5289 C 501.561 1.6078 0.0252464 0
M  V30 5290 O 502.751 1.72878 -0.214243 0
M  V30 5291 C 499.883 3.36744 -0.530656 0
M  V30 5292 H 501.076 2.2659 -1.96461 0
M  V30 5293 H 498.629 1.15602 -1.05195 0
M  V30 5294 H 499.364 3.21492 0.425873 0
M  V30 5295 H 499.149 3.7065 -1.2791 0
M  V30 5296 H 500.639 4.15705 -0.397366 0
M  V30 5297 N 501.076 1.04316 1.18135 0
M  V30 5298 C 501.986 0.646876 2.25505 0
M  V30 5299 C 503.002 -0.328008 1.7088 0
M  V30 5300 O 504.178 -0.182309 2.00573 0
M  V30 5301 C 501.243 0.0185664 3.46695 0
M  V30 5302 C 500.304 1.04277 4.16443 0
M  V30 5303 C 499.537 0.444352 5.31847 0
M  V30 5304 O 499.76 -0.748735 5.65465 0
M  V30 5305 O 498.694 1.17428 5.90334 0
M  V30 5306 H 502.52 1.54147 2.61672 0
M  V30 5307 H 500.105 0.814188 1.25265 0
M  V30 5308 H 501.987 -0.331068 4.20097 0
M  V30 5309 H 500.662 -0.849814 3.12346 0
M  V30 5310 H 499.569 1.44425 3.45098 0
M  V30 5311 H 500.902 1.882 4.54798 0
M  V30 5312 N 502.554 -1.34406 0.822964 0
M  V30 5313 C 503.464 -2.33298 0.246838 0
M  V30 5314 C 504.48 -1.62625 -0.618797 0
M  V30 5315 O 505.656 -1.94391 -0.526685 0
M  V30 5316 C 502.721 -3.41785 -0.581731 0
M  V30 5317 C 501.782 -4.28206 0.306309 0
M  V30 5318 C 501.015 -5.31512 -0.48281 0
M  V30 5319 O 501.238 -5.43973 -1.71607 0
M  V30 5320 O 500.172 -6.01749 0.134884 0
M  V30 5321 H 503.998 -2.84401 1.06534 0
M  V30 5322 H 501.583 -1.37466 0.585108 0
M  V30 5323 H 503.465 -4.08028 -1.05313 0
M  V30 5324 H 502.14 -2.92925 -1.37756 0
M  V30 5325 H 501.047 -3.64885 0.825199 0
M  V30 5326 H 502.38 -4.80507 1.06649 0
M  V30 5327 N 504.032 -0.577932 -1.46621 0
M  V30 5328 C 505.448 -0.239242 -1.57797 0
M  V30 5329 C 505.648 1.25843 -1.57371 0
M  V30 5330 O 504.704 2.03988 -1.48813 0
M  V30 5331 C 506.017 -0.884227 -2.87405 0
M  V30 5332 C 507.565 -0.857373 -3.01028 0
M  V30 5333 C 508.04 -1.48181 -4.33366 0
M  V30 5334 N 509.531 -1.44593 -4.40053 0
M  V30 5335 C 510.266 -1.89852 -5.41058 0
M  V30 5336 N 509.762 -2.43062 -6.48762 0
M  V30 5337 N 511.555 -1.80797 -5.3223 0
M  V30 5338 H 503.706 -1.55073 -1.45142 0
M  V30 5339 H 505.969 -0.647903 -0.692044 0
M  V30 5340 H 505.675 -1.93759 -2.93514 0
M  V30 5341 H 505.549 -0.389585 -3.75183 0
M  V30 5342 H 507.936 0.187357 -2.94505 0
M  V30 5343 H 508.017 -1.38999 -2.14739 0
M  V30 5344 H 507.661 -2.52572 -4.40647 0
M  V30 5345 H 507.591 -0.924464 -5.18422 0
M  V30 5346 H 510.082 -1.05694 -3.62819 0
M  V30 5347 H 510.395 -2.75466 -7.22038 0
M  V30 5348 H 508.74 -2.47085 -6.49595 0
M  V30 5349 H 511.931 -1.38989 -4.46989 0
M  V30 5350 H 512.104 -2.16385 -6.10804 0
M  V30 5351 N 505.51 1.54411 -0.315457 0
M  V30 5352 C 506.758 2.00023 0.288971 0
M  V30 5353 C 507.079 1.20529 1.5329 0
M  V30 5354 O 506.349 0.304986 1.93511 0
M  V30 5355 H 504.929 0.738891 0.109766 0
M  V30 5356 H 507.591 1.90094 -0.430129 0
M  V30 5357 H 506.687 3.07198 0.550999 0
M  V30 5358 N 506.988 0.0434614 1.5754 0
M  V30 5359 C 507.898 -0.94893 2.14552 0
M  V30 5360 C 508.914 -1.34707 1.10136 0
M  V30 5361 O 510.09 -1.42557 1.42266 0
M  V30 5362 C 507.155 -2.208 2.67298 0
M  V30 5363 C 506.216 -1.86893 3.86484 0
M  V30 5364 C 505.449 -3.06797 4.36705 0
M  V30 5365 O 505.672 -4.19921 3.86034 0
M  V30 5366 O 504.606 -2.8826 5.28384 0
M  V30 5367 H 508.432 -0.494099 2.99654 0
M  V30 5368 H 506.017 -0.177989 1.48336 0
M  V30 5369 H 507.899 -2.94686 3.01228 0
M  V30 5370 H 506.574 -2.65436 1.85272 0
M  V30 5371 H 505.481 -1.10347 3.57455 0
M  V30 5372 H 506.814 -1.47062 4.69716 0
M  V30 5373 N 508.466 -1.55915 -0.229846 0
M  V30 5374 C 509.396 -1.94754 -1.28815 0
M  V30 5375 C 510.377 -0.814657 -1.49323 0
M  V30 5376 O 511.562 -1.07631 -1.61645 0
M  V30 5377 C 508.692 -2.25705 -2.63959 0
M  V30 5378 C 507.646 -3.41406 -2.5812 0
M  V30 5379 C 506.972 -3.57941 -3.97218 0
M  V30 5380 C 508.272 -4.76616 -2.13623 0
M  V30 5381 H 509.966 -2.83404 -0.965547 0
M  V30 5382 H 507.512 -1.36353 -0.463028 0
M  V30 5383 H 509.465 -2.51467 -3.38146 0
M  V30 5384 H 508.189 -1.339 -2.9789 0
M  V30 5385 H 506.848 -3.1568 -1.86391 0
M  V30 5386 H 506.496 -2.63526 -4.28443 0
M  V30 5387 H 506.196 -4.35757 -3.94195 0
M  V30 5388 H 507.72 -3.86042 -4.73079 0
M  V30 5389 H 509.134 -5.01637 -2.77549 0
M  V30 5390 H 507.531 -5.57655 -2.21677 0
M  V30 5391 H 508.601 -4.7253 -1.08829 0
M  V30 5392 N 509.944 0.496216 -1.49584 0
M  V30 5393 C 510.907 1.57952 -1.66084 0
M  V30 5394 C 511.907 1.51729 -0.53244 0
M  V30 5395 O 513.097 1.54796 -0.79899 0
M  V30 5396 C 510.229 2.97604 -1.66268 0
M  V30 5397 H 511.422 1.44649 -2.6271 0
M  V30 5398 H 508.975 0.7208 -1.38687 0
M  V30 5399 H 509.71 3.16378 -0.712432 0
M  V30 5400 H 509.495 3.03528 -2.4822 0
M  V30 5401 H 510.985 3.76301 -1.81073 0
M  V30 5402 N 511.423 1.38739 0.74761 0
M  V30 5403 C 512.353 1.39173 1.87492 0
M  V30 5404 C 513.334 0.256794 1.6815 0
M  V30 5405 O 514.519 0.460762 1.88655 0
M  V30 5406 C 511.649 1.22197 3.25093 0
M  V30 5407 C 510.603 2.32957 3.59047 0
M  V30 5408 C 509.929 2.01082 4.95449 0
M  V30 5409 C 511.229 3.75237 3.6331 0
M  V30 5410 H 512.923 2.3351 1.87386 0
M  V30 5411 H 510.469 1.12399 0.900134 0
M  V30 5412 H 512.422 1.21124 4.03617 0
M  V30 5413 H 511.146 0.243241 3.25693 0
M  V30 5414 H 509.805 2.33226 2.82845 0
M  V30 5415 H 509.453 1.01678 4.92616 0
M  V30 5416 H 509.153 2.75267 5.19136 0
M  V30 5417 H 510.677 2.01638 5.76346 0
M  V30 5418 H 512.091 3.76966 4.31937 0
M  V30 5419 H 510.488 4.48677 3.98509 0
M  V30 5420 H 511.558 4.07122 2.634 0
M  V30 5421 N 512.901 -0.976442 1.23707 0
M  V30 5422 C 513.848 -2.06952 1.02174 0
M  V30 5423 C 514.818 -1.65984 -0.0621034 0
M  V30 5424 O 516.003 -1.90584 0.0907906 0
M  V30 5425 C 513.143 -3.39425 0.62327 0
M  V30 5426 C 512.256 -3.9364 1.77966 0
M  V30 5427 C 511.391 -5.14343 1.3276 0
M  V30 5428 C 510.43 -5.60733 2.45449 0
M  V30 5429 N 509.567 -6.72662 2.01172 0
M  V30 5430 H 514.407 -2.24704 1.95734 0
M  V30 5431 H 511.944 -1.10143 0.975034 0
M  V30 5432 H 513.902 -4.15526 0.37332 0
M  V30 5433 H 512.532 -3.21624 -0.275329 0
M  V30 5434 H 511.584 -3.14258 2.14351 0
M  V30 5435 H 512.896 -4.24035 2.62671 0
M  V30 5436 H 512.05 -5.97789 1.03601 0
M  V30 5437 H 510.789 -4.8561 0.450975 0
M  V30 5438 H 509.794 -4.75865 2.75378 0
M  V30 5439 H 511.019 -5.91483 3.33654 0
M  V30 5440 H 508.965 -6.45681 1.15895 0
M  V30 5441 H 508.882 -7.02462 2.79434 0
M  V30 5442 H 510.15 -7.59572 1.75129 0
M  V30 5443 N 514.379 -1.04941 -1.1758 0
M  V30 5444 C 515.656 -0.671918 -1.83697 0
M  V30 5445 C 516.036 0.847929 -1.93322 0
M  V30 5446 O 515.384 1.75287 -1.46583 0
M  V30 5447 C 515.594 -1.35797 -3.21497 0
M  V30 5448 C 516.942 -1.4944 -3.97433 0
M  V30 5449 O 517.966 -1.31678 -3.30967 0
M  V30 5450 O 516.825 -1.78463 -5.1654 0
M  V30 5451 H 513.919 -0.236212 -0.792548 0
M  V30 5452 H 516.465 -1.14884 -1.24899 0
M  V30 5453 H 515.237 -2.39498 -3.09446 0
M  V30 5454 H 514.86 -0.870236 -3.8796 0
M  V30 5455 N 515.857 1.33968 -0.830081 0
M  V30 5456 C 516.82 2.27694 -0.26235 0
M  V30 5457 C 517.82 1.50589 0.563876 0
M  V30 5458 O 519.01 1.70028 0.378941 0
M  V30 5459 C 516.142 3.35002 0.63138 0
M  V30 5460 H 517.335 2.79419 -1.08928 0
M  V30 5461 H 514.888 1.44221 -0.602486 0
M  V30 5462 H 515.623 2.88504 1.48109 0
M  V30 5463 H 515.408 3.92079 0.0403276 0
M  V30 5464 H 516.898 4.04897 1.02217 0
M  V30 5465 N 517.335 0.585699 1.46312 0
M  V30 5466 C 518.751 0.247607 1.57668 0
M  V30 5467 C 518.951 -1.25007 1.58037 0
M  V30 5468 O 518.007 -2.03196 1.49893 0
M  V30 5469 C 519.32 0.899456 2.86933 0
M  V30 5470 C 520.868 0.873326 3.00569 0
M  V30 5471 C 521.343 1.50477 4.32574 0
M  V30 5472 N 522.834 1.46925 4.3928 0
M  V30 5473 C 523.569 1.92719 5.40044 0
M  V30 5474 N 523.065 2.46499 6.47464 0
M  V30 5475 N 524.858 1.83617 5.31264 0
M  V30 5476 H 517.009 1.55841 1.44317 0
M  V30 5477 H 519.272 0.651564 0.688599 0
M  V30 5478 H 518.978 1.95313 2.92482 0
M  V30 5479 H 518.852 0.409476 3.74971 0
M  V30 5480 H 521.239 -0.171736 2.946 0
M  V30 5481 H 521.32 1.40136 2.13999 0
M  V30 5482 H 520.964 2.54905 4.39302 0
M  V30 5483 H 520.894 0.951944 5.17924 0
M  V30 5484 H 523.385 1.07616 3.62253 0
M  V30 5485 H 523.698 2.79291 7.20567 0
M  V30 5486 H 522.043 2.50526 6.48276 0
M  V30 5487 H 525.234 1.41358 4.46246 0
M  V30 5488 H 525.407 2.19622 6.09648 0
M  V30 5489 N 518.813 -1.54241 0.323641 0
M  V30 5490 C 519.776 -2.22997 -0.529602 0
M  V30 5491 C 520.776 -1.22345 -1.04347 0
M  V30 5492 O 521.966 -1.46924 -0.935889 0
M  V30 5493 C 519.098 -2.93409 -1.73562 0
M  V30 5494 H 520.291 -2.99815 0.0714518 0
M  V30 5495 H 517.844 -1.56121 0.0747258 0
M  V30 5496 H 518.579 -2.20729 -2.37591 0
M  V30 5497 H 518.364 -3.67217 -1.37456 0
M  V30 5498 H 519.854 -3.45794 -2.34128 0
M  V30 5499 N 520.291 -0.0518155 -1.57515 0
M  V30 5500 C 521.238 0.922352 -2.11569 0
M  V30 5501 C 522.208 1.30842 -1.02321 0
M  V30 5502 O 523.393 1.39778 -1.29872 0
M  V30 5503 C 520.533 2.19167 -2.6657 0
M  V30 5504 C 519.646 1.86003 -3.89906 0
M  V30 5505 C 518.781 3.07398 -4.33221 0
M  V30 5506 C 517.82 2.70158 -5.49255 0
M  V30 5507 N 516.957 3.84248 -5.8762 0
M  V30 5508 H 521.797 0.454506 -2.94514 0
M  V30 5509 H 519.334 0.212718 -1.45554 0
M  V30 5510 H 521.292 2.93443 -2.96559 0
M  V30 5511 H 519.922 2.63528 -1.86421 0
M  V30 5512 H 518.974 1.01874 -3.66505 0
M  V30 5513 H 520.286 1.54592 -4.74239 0
M  V30 5514 H 519.44 3.89972 -4.64765 0
M  V30 5515 H 518.179 3.41988 -3.477 0
M  V30 5516 H 517.184 1.86001 -5.17382 0
M  V30 5517 H 518.409 2.36759 -6.36492 0
M  V30 5518 H 516.355 4.18638 -5.05053 0
M  V30 5519 H 516.272 3.56538 -6.66646 0
M  V30 5520 H 517.54 4.6746 -6.2378 0
M  V30 5521 N 521.769 1.56035 0.221574 0
M  V30 5522 C 522.701 1.889 1.29805 0
M  V30 5523 C 523.714 0.777269 1.43047 0
M  V30 5524 O 524.903 1.05557 1.43945 0
M  V30 5525 C 522.003 2.0825 2.67367 0
M  V30 5526 C 521.176 3.39267 2.76073 0
M  V30 5527 C 520.235 3.48049 3.94649 0
M  V30 5528 O 519.261 4.2108 3.82988 0
M  V30 5529 N 520.463 2.79191 5.08953 0
M  V30 5530 H 523.228 2.81831 1.01938 0
M  V30 5531 H 520.789 1.5658 0.411612 0
M  V30 5532 H 522.781 2.11441 3.45072 0
M  V30 5533 H 521.351 1.21944 2.87834 0
M  V30 5534 H 520.571 3.48175 1.84846 0
M  V30 5535 H 521.859 4.25575 2.7886 0
M  V30 5536 H 521.257 2.19635 5.21322 0
M  V30 5537 H 519.814 2.88043 5.84701 0
M  V30 5538 N 523.247 -0.488276 1.49845 0
M  V30 5539 C 524.157 -1.61451 1.70207 0
M  V30 5540 C 525.173 -1.63877 0.584846 0
M  V30 5541 O 526.349 -1.82063 0.861107 0
M  V30 5542 C 523.414 -2.9776 1.77594 0
M  V30 5543 C 522.475 -3.05861 3.01243 0
M  V30 5544 C 521.708 -4.35668 3.08268 0
M  V30 5545 O 521.931 -5.25197 2.22541 0
M  V30 5546 O 520.865 -4.49005 4.00847 0
M  V30 5547 H 524.691 -1.47199 2.65643 0
M  V30 5548 H 522.276 -0.665939 1.33737 0
M  V30 5549 H 524.158 -3.7875 1.84732 0
M  V30 5550 H 522.833 -3.12248 0.8534 0
M  V30 5551 H 521.74 -2.24012 2.99616 0
M  V30 5552 H 523.073 -2.96304 3.9302 0
M  V30 5553 N 524.725 -1.39134 -0.740242 0
M  V30 5554 C 525.635 -1.39697 -1.88473 0
M  V30 5555 C 526.651 -0.292403 -1.71526 0
M  V30 5556 O 527.827 -0.533021 -1.94219 0
M  V30 5557 C 524.892 -1.23382 -3.24003 0
M  V30 5558 C 523.953 -2.43763 -3.53381 0
M  V30 5559 C 523.186 -2.28216 -4.82445 0
M  V30 5560 O 523.409 -1.28288 -5.55786 0
M  V30 5561 O 522.343 -3.1709 -5.11603 0
M  V30 5562 H 526.169 -2.36159 -1.90952 0
M  V30 5563 H 523.754 -1.20194 -0.887346 0
M  V30 5564 H 525.636 -1.16395 -4.05006 0
M  V30 5565 H 524.311 -0.300121 -3.22306 0
M  V30 5566 H 523.218 -2.56325 -2.72485 0
M  V30 5567 H 524.551 -3.35808 -3.59852 0
M  V30 5568 N 526.204 0.969867 -1.24223 0
M  V30 5569 C 527.134 2.08191 -1.05729 0
M  V30 5570 C 528.115 1.70075 0.0290765 0
M  V30 5571 O 529.3 1.93712 -0.137583 0
M  V30 5572 C 526.43 3.40991 -0.658995 0
M  V30 5573 C 525.384 3.93054 -1.69389 0
M  V30 5574 C 524.71 5.22171 -1.15072 0
M  V30 5575 C 526.01 4.21137 -3.08935 0
M  V30 5576 H 527.704 2.23921 -1.98746 0
M  V30 5577 H 525.25 1.07602 -0.956967 0
M  V30 5578 H 527.203 4.18221 -0.51662 0
M  V30 5579 H 525.927 3.25155 0.30686 0
M  V30 5580 H 524.586 3.17977 -1.82444 0
M  V30 5581 H 524.234 5.02694 -0.175539 0
M  V30 5582 H 523.934 5.57973 -1.84229 0
M  V30 5583 H 525.458 6.02013 -1.02042 0
M  V30 5584 H 526.872 4.8908 -2.99121 0
M  V30 5585 H 525.269 4.68163 -3.75425 0
M  V30 5586 H 526.339 3.27996 -3.57137 0
M  V30 5587 N 527.682 1.05563 1.17022 0
M  V30 5588 C 528.592 0.670758 2.24807 0
M  V30 5589 C 529.608 -0.309865 1.71219 0
M  V30 5590 O 530.784 -0.161025 2.00755 0
M  V30 5591 C 527.849 0.055337 3.46656 0
M  V30 5592 C 526.91 1.08688 4.15314 0
M  V30 5593 C 526.143 0.500736 5.31346 0
M  V30 5594 O 526.366 -0.688718 5.66227 0
M  V30 5595 O 525.3 1.23683 5.89055 0
M  V30 5596 H 529.126 1.56914 2.60023 0
M  V30 5597 H 526.711 0.827428 1.24395 0
M  V30 5598 H 528.593 -0.286492 4.20425 0
M  V30 5599 H 527.268 -0.816638 3.13229 0
M  V30 5600 H 526.175 1.48077 3.43546 0
M  V30 5601 H 527.508 1.93014 4.52777 0
M  V30 5602 N 529.16 -1.33526 0.837174 0
M  V30 5603 C 530.123 -2.27551 0.274421 0
M  V30 5604 C 531.123 -1.50886 -0.555881 0
M  V30 5605 O 532.313 -1.70227 -0.369918 0
M  V30 5606 C 529.445 -3.35332 -0.613605 0
M  V30 5607 H 530.638 -2.78837 1.10408 0
M  V30 5608 H 528.191 -1.439 0.610126 0
M  V30 5609 H 528.926 -2.89285 -1.46577 0
M  V30 5610 H 528.711 -3.92095 -0.0195341 0
M  V30 5611 H 530.201 -4.05433 -1.00068 0
M  V30 5612 N 530.638 -0.59345 -1.46 0
M  V30 5613 C 531.601 0.123538 -2.28867 0
M  V30 5614 C 532.601 0.808628 -1.38989 0
M  V30 5615 O 533.791 0.658945 -1.61256 0
M  V30 5616 C 530.923 1.1847 -3.19653 0
M  V30 5617 H 532.116 -0.604843 -2.93737 0
M  V30 5618 H 529.669 -0.351875 -1.52288 0
M  V30 5619 H 530.404 1.94431 -2.59552 0
M  V30 5620 H 530.189 0.69783 -3.8584 0
M  V30 5621 H 531.679 1.68726 -3.81997 0
M  V30 5622 N 532.116 1.54067 -0.331816 0
M  V30 5623 C 533.046 2.27569 0.522932 0
M  V30 5624 C 534.027 1.28679 1.11247 0
M  V30 5625 O 535.212 1.57504 1.13605 0
M  V30 5626 C 532.342 3.0397 1.67987 0
M  V30 5627 C 531.296 4.10267 1.21924 0
M  V30 5628 C 530.622 4.74555 2.46377 0
M  V30 5629 C 531.922 5.21268 0.32815 0
M  V30 5630 H 533.616 2.99264 -0.0901977 0
M  V30 5631 H 531.162 1.4393 -0.044821 0
M  V30 5632 H 533.115 3.54123 2.28418 0
M  V30 5633 H 531.839 2.29906 2.31971 0
M  V30 5634 H 530.498 3.61009 0.637809 0
M  V30 5635 H 530.146 3.97098 3.08743 0
M  V30 5636 H 529.846 5.46363 2.16243 0
M  V30 5637 H 531.37 5.27487 3.07555 0
M  V30 5638 H 532.784 5.67128 0.838978 0
M  V30 5639 H 531.181 5.99982 0.119228 0
M  V30 5640 H 532.251 4.80673 -0.638839 0
M  V30 5641 N 533.594 0.0601682 1.57485 0
M  V30 5642 C 534.526 -0.94047 2.09016 0
M  V30 5643 C 535.539 -1.26897 1.01985 0
M  V30 5644 O 536.728 -1.22819 1.29529 0
M  V30 5645 C 533.828 -2.25955 2.52582 0
M  V30 5646 C 533.001 -2.11163 3.83052 0
M  V30 5647 C 532.06 -3.26273 4.12835 0
M  V30 5648 O 531.086 -3.01779 4.82616 0
M  V30 5649 N 532.288 -4.51022 3.65458 0
M  V30 5650 H 535.053 -0.500578 2.9549 0
M  V30 5651 H 532.614 -0.125852 1.6141 0
M  V30 5652 H 534.606 -3.01846 2.69575 0
M  V30 5653 H 533.176 -2.61481 1.71308 0
M  V30 5654 H 532.396 -1.19808 3.75552 0
M  V30 5655 H 533.684 -1.98517 4.68475 0
M  V30 5656 H 533.082 -4.73811 3.09062 0
M  V30 5657 H 531.639 -5.23978 3.87673 0
M  V30 5658 N 535.072 -1.5615 -0.213296 0
M  V30 5659 C 536.488 -1.49327 -0.56336 0
M  V30 5660 C 536.688 -0.756826 -1.86747 0
M  V30 5661 O 535.744 -0.299866 -2.50713 0
M  V30 5662 C 537.057 -2.9392 -0.634944 0
M  V30 5663 C 538.605 -3.04487 -0.725013 0
M  V30 5664 C 539.08 -4.50456 -0.82787 0
M  V30 5665 N 540.571 -4.54533 -0.891876 0
M  V30 5666 C 541.306 -5.64766 -0.991315 0
M  V30 5667 N 540.802 -6.84733 -1.05419 0
M  V30 5668 N 542.595 -5.52637 -1.02709 0
M  V30 5669 H 534.746 -2.02453 0.642366 0
M  V30 5670 H 537.009 -0.920548 0.226487 0
M  V30 5671 H 536.715 -3.50783 0.253859 0
M  V30 5672 H 536.589 -3.46274 -1.49579 0
M  V30 5673 H 538.976 -2.47685 -1.60425 0
M  V30 5674 H 539.057 -2.55289 0.161669 0
M  V30 5675 H 538.701 -5.07878 0.0469464 0
M  V30 5676 H 538.631 -4.97369 -1.73009 0
M  V30 5677 H 541.122 -3.68141 -0.85327 0
M  V30 5678 H 541.435 -7.64493 -1.13007 0
M  V30 5679 H 539.78 -6.87427 -1.02318 0
M  V30 5680 H 542.971 -4.5784 -0.974687 0
M  V30 5681 H 543.144 -6.38576 -1.10113 0
M  V30 5682 N 536.55 0.480323 -1.50102 0
M  V30 5683 C 537.798 1.23063 -1.60312 0
M  V30 5684 C 538.119 1.92659 -0.301226 0
M  V30 5685 O 537.389 1.83691 0.680753 0
M  V30 5686 H 535.969 0.457231 -0.590719 0
M  V30 5687 H 538.631 0.554893 -1.86834 0
M  V30 5688 H 537.727 1.9835 -2.40964 0
M  V30 5689 N 538.028 1.39524 0.732853 0
M  V30 5690 C 538.975 1.38416 1.84688 0
M  V30 5691 C 539.945 0.243539 1.64305 0
M  V30 5692 O 541.13 0.438979 1.85681 0
M  V30 5693 C 538.27 1.23555 3.22224 0
M  V30 5694 C 537.383 2.47179 3.54298 0
M  V30 5695 C 536.518 2.2489 4.81246 0
M  V30 5696 C 535.557 3.44178 5.0617 0
M  V30 5697 N 534.694 3.21192 6.24323 0
M  V30 5698 H 539.534 2.33645 1.84971 0
M  V30 5699 H 537.071 1.16059 0.903804 0
M  V30 5700 H 539.029 1.12949 4.0162 0
M  V30 5701 H 537.659 0.31954 3.21215 0
M  V30 5702 H 536.711 2.68379 2.69587 0
M  V30 5703 H 538.023 3.36022 3.68633 0
M  V30 5704 H 537.177 2.11538 5.68627 0
M  V30 5705 H 535.916 1.33443 4.69089 0
M  V30 5706 H 534.921 3.58025 4.17251 0
M  V30 5707 H 536.146 4.36528 5.20212 0
M  V30 5708 H 534.092 2.32413 6.1345 0
M  V30 5709 H 534.009 4.03594 6.39256 0
M  V30 5710 H 535.277 3.1154 7.14537 0
M  V30 5711 N 539.506 -0.963266 1.24736 0
M  V30 5712 C 540.438 -2.06162 1.0015 0
M  V30 5713 C 541.451 -1.62771 -0.0305905 0
M  V30 5714 O 542.64 -1.77296 0.206966 0
M  V30 5715 C 539.74 -3.35333 0.490385 0
M  V30 5716 C 538.913 -4.07609 1.58663 0
M  V30 5717 C 537.972 -5.15052 1.0774 0
M  V30 5718 O 536.998 -5.4098 1.77002 0
M  V30 5719 N 538.2 -5.80436 -0.0858605 0
M  V30 5720 H 540.965 -2.27825 1.94719 0
M  V30 5721 H 538.526 -1.13121 1.15825 0
M  V30 5722 H 540.518 -4.04477 0.134371 0
M  V30 5723 H 539.088 -3.10507 -0.361155 0
M  V30 5724 H 538.308 -3.32681 2.11463 0
M  V30 5725 H 539.596 -4.52656 2.32336 0
M  V30 5726 H 538.994 -5.6178 -0.664806 0
M  V30 5727 H 537.551 -6.50674 -0.382981 0
M  V30 5728 N 540.985 -1.06182 -1.16461 0
M  V30 5729 C 542.262 -0.691364 -1.82974 0
M  V30 5730 C 542.642 0.827377 -1.9421 0
M  V30 5731 O 541.99 1.73723 -1.48434 0
M  V30 5732 C 542.2 -1.39199 -3.20038 0
M  V30 5733 C 543.548 -1.53647 -3.95825 0
M  V30 5734 O 544.572 -1.35181 -3.29552 0
M  V30 5735 O 543.431 -1.83932 -5.14618 0
M  V30 5736 H 540.525 -0.244605 -0.789998 0
M  V30 5737 H 543.071 -1.16203 -1.23673 0
M  V30 5738 H 541.843 -2.42766 -3.06888 0
M  V30 5739 H 541.466 -0.911335 -3.87015 0
M  V30 5740 N 542.463 1.3308 -0.844243 0
M  V30 5741 C 543.396 2.27075 -0.226279 0
M  V30 5742 C 544.374 1.49911 0.629716 0
M  V30 5743 O 545.558 1.79068 0.588803 0
M  V30 5744 C 542.685 3.31767 0.681782 0
M  V30 5745 C 541.731 4.26384 -0.0994565 0
M  V30 5746 S 542.564 5.15186 -1.46094 0
M  V30 5747 C 543.72 6.23405 -0.558319 0
M  V30 5748 H 543.953 2.79141 -1.02312 0
M  V30 5749 H 541.486 1.40452 -0.641292 0
M  V30 5750 H 543.444 3.92566 1.20008 0
M  V30 5751 H 542.105 2.78507 1.45234 0
M  V30 5752 H 541.298 5.00514 0.591733 0
M  V30 5753 H 540.9 3.69949 -0.548991 0
M  V30 5754 H 543.192 6.77069 0.241672 0
M  V30 5755 H 544.135 6.96619 -1.26995 0
M  V30 5756 H 544.543 5.64333 -0.13728 0
M  V30 5757 N 543.941 0.601185 1.45683 0
M  V30 5758 C 544.904 -0.111398 2.28929 0
M  V30 5759 C 545.904 -0.801246 1.39416 0
M  V30 5760 O 547.094 -0.650383 1.61603 0
M  V30 5761 C 544.226 -1.16773 3.20276 0
M  V30 5762 H 545.419 0.620412 2.93413 0
M  V30 5763 H 542.972 0.359946 1.52099 0
M  V30 5764 H 543.707 -1.93051 2.60579 0
M  V30 5765 H 543.492 -0.677358 3.86205 0
M  V30 5766 H 544.982 -1.66698 3.82886 0
M  V30 5767 N 545.419 -1.53889 0.339982 0
M  V30 5768 C 546.835 -1.59595 -0.0120752 0
M  V30 5769 C 547.035 -1.35605 -1.49042 0
M  V30 5770 O 546.091 -1.14856 -2.24865 0
M  V30 5771 C 547.404 -2.9774 0.420898 0
M  V30 5772 C 548.952 -3.1077 0.37294 0
M  V30 5773 C 549.427 -4.51286 0.781327 0
M  V30 5774 N 550.918 -4.57325 0.735374 0
M  V30 5775 C 551.653 -5.64194 1.02336 0
M  V30 5776 N 551.149 -6.7893 1.37933 0
M  V30 5777 N 552.942 -5.54051 0.947838 0
M  V30 5778 H 545.093 -1.67738 1.30299 0
M  V30 5779 H 547.356 -0.785385 0.530918 0
M  V30 5780 H 547.062 -3.20349 1.45152 0
M  V30 5781 H 546.936 -3.76639 -0.205721 0
M  V30 5782 H 549.323 -2.87886 -0.648505 0
M  V30 5783 H 549.404 -2.33939 1.03472 0
M  V30 5784 H 549.048 -4.74905 1.80077 0
M  V30 5785 H 548.978 -5.26511 0.0970679 0
M  V30 5786 H 551.469 -3.74931 0.472773 0
M  V30 5787 H 551.782 -7.56392 1.58402 0
M  V30 5788 H 550.127 -6.80386 1.41774 0
M  V30 5789 H 553.318 -4.63293 0.669115 0
M  V30 5790 H 553.491 -6.37246 1.17563 0
M  V30 5791 N 546.897 -0.0685191 -1.57451 0
M  V30 5792 C 547.829 0.929372 -2.09512 0
M  V30 5793 C 548.842 1.26354 -1.02657 0
M  V30 5794 O 550.031 1.2213 -1.30179 0
M  V30 5795 C 547.131 2.24612 -2.53777 0
M  V30 5796 C 546.304 2.09128 -3.84167 0
M  V30 5797 C 545.363 3.24079 -4.14559 0
M  V30 5798 O 544.389 2.99215 -4.8421 0
M  V30 5799 N 545.591 4.49077 -3.67845 0
M  V30 5800 H 548.356 0.484901 -2.95751 0
M  V30 5801 H 545.917 0.11729 -1.61475 0
M  V30 5802 H 547.909 3.00412 -2.71172 0
M  V30 5803 H 546.479 2.60569 -1.72692 0
M  V30 5804 H 545.699 1.17815 -3.76182 0
M  V30 5805 H 546.987 1.9603 -4.69521 0
M  V30 5806 H 546.385 4.72165 -3.11571 0
M  V30 5807 H 544.942 5.21915 -3.90446 0
M  V30 5808 N 548.375 1.56261 0.205012 0
M  V30 5809 C 549.305 1.96779 1.257 0
M  V30 5810 C 550.286 0.838309 1.48008 0
M  V30 5811 O 551.471 1.10189 1.59913 0
M  V30 5812 C 548.601 2.29876 2.60335 0
M  V30 5813 C 547.555 3.45469 2.52656 0
M  V30 5814 C 546.881 3.64215 3.91473 0
M  V30 5815 C 548.181 4.79954 2.06014 0
M  V30 5816 H 549.875 2.84904 0.920338 0
M  V30 5817 H 547.421 1.37072 0.441277 0
M  V30 5818 H 549.374 2.56814 3.34102 0
M  V30 5819 H 548.098 1.38622 2.95722 0
M  V30 5820 H 546.757 3.18605 1.81345 0
M  V30 5821 H 546.405 2.70309 4.24196 0
M  V30 5822 H 546.105 4.41973 3.87213 0
M  V30 5823 H 547.629 3.93519 4.66878 0
M  V30 5824 H 549.043 5.05989 2.69533 0
M  V30 5825 H 547.44 5.61111 2.12777 0
M  V30 5826 H 548.51 4.74201 1.01297 0
M  V30 5827 N 549.853 -0.472356 1.50355 0
M  V30 5828 C 551.269 -0.806001 1.37753 0
M  V30 5829 C 551.469 -1.968 0.432649 0
M  V30 5830 O 550.525 -2.52189 -0.12519 0
M  V30 5831 C 551.838 -1.11926 2.79093 0
M  V30 5832 C 553.386 -1.22579 2.87999 0
M  V30 5833 C 553.861 -1.57218 4.3017 0
M  V30 5834 N 555.352 -1.64212 4.33115 0
M  V30 5835 C 556.087 -1.92517 5.40116 0
M  V30 5836 N 555.583 -2.1885 6.57325 0
M  V30 5837 N 557.376 -1.94008 5.27558 0
M  V30 5838 H 549.527 0.293451 2.10363 0
M  V30 5839 H 551.79 0.0687672 0.945503 0
M  V30 5840 H 551.496 -0.338504 3.50067 0
M  V30 5841 H 551.37 -2.05577 3.16256 0
M  V30 5842 H 553.757 -1.99722 2.17245 0
M  V30 5843 H 553.838 -0.269107 2.54381 0
M  V30 5844 H 553.482 -0.806154 5.01461 0
M  V30 5845 H 553.412 -2.54034 4.61275 0
M  V30 5846 H 555.903 -1.45906 3.48597 0
M  V30 5847 H 556.216 -2.39718 7.3468 0
M  V30 5848 H 554.561 -2.16245 6.60502 0
M  V30 5849 H 557.752 -1.72931 4.34986 0
M  V30 5850 H 557.925 -2.15731 6.11035 0
M  V30 5851 N 551.331 -1.39911 -0.725443 0
M  V30 5852 C 552.241 -1.41688 -1.8698 0
M  V30 5853 C 553.257 -0.310579 -1.71206 0
M  V30 5854 O 554.433 -0.55359 -1.93642 0
M  V30 5855 C 551.498 -1.26811 -3.22676 0
M  V30 5856 C 550.559 -2.47497 -3.50776 0
M  V30 5857 C 549.792 -2.3332 -4.79997 0
M  V30 5858 O 550.015 -1.34175 -5.54394 0
M  V30 5859 O 548.949 -3.22498 -5.08211 0
M  V30 5860 H 552.775 -2.38171 -1.88436 0
M  V30 5861 H 550.36 -1.21128 -0.874548 0
M  V30 5862 H 552.242 -1.20684 -4.03749 0
M  V30 5863 H 550.917 -0.334289 -3.21969 0
M  V30 5864 H 549.824 -2.59201 -2.69751 0
M  V30 5865 H 551.157 -3.39606 -3.5627 0
M  V30 5866 N 552.809 0.956637 -1.25245 0
M  V30 5867 C 554.039 1.7332 -1.12445 0
M  V30 5868 C 554.447 1.86392 0.324732 0
M  V30 5869 O 553.79 1.35967 1.23526 0
M  V30 5870 C 553.852 3.16603 -1.70303 0
M  V30 5871 C 553.516 3.26966 -3.19284 0
M  V30 5872 C 554.513 3.11434 -4.16299 0
M  V30 5873 C 552.198 3.50851 -3.59456 0
M  V30 5874 C 554.192 3.1963 -5.51467 0
M  V30 5875 C 551.879 3.58684 -4.94761 0
M  V30 5876 C 552.877 3.43087 -5.90576 0
M  V30 5877 O 552.565 3.50598 -7.2342 0
M  V30 5878 H 552.297 0.549981 -0.393061 0
M  V30 5879 H 554.851 1.20892 -1.66055 0
M  V30 5880 H 553.081 3.70385 -1.11138 0
M  V30 5881 H 554.77 3.76109 -1.52632 0
M  V30 5882 H 555.536 2.92853 -3.86604 0
M  V30 5883 H 551.415 3.62053 -2.85375 0
M  V30 5884 H 554.959 3.07373 -6.26233 0
M  V30 5885 H 550.856 3.76782 -5.24124 0
M  V30 5886 H 551.624 3.67242 -7.31489 0
M  V30 5887 N 554.287 1.06798 1.15896 0
M  V30 5888 C 555.219 0.641263 2.20046 0
M  V30 5889 C 556.232 -0.303355 1.59949 0
M  V30 5890 O 557.421 -0.0935478 1.78255 0
M  V30 5891 C 554.521 -0.0794029 3.38807 0
M  V30 5892 C 553.694 0.879986 4.28457 0
M  V30 5893 C 552.753 0.197638 5.25829 0
M  V30 5894 O 551.779 0.836913 5.63014 0
M  V30 5895 N 552.981 -1.05886 5.70761 0
M  V30 5896 H 555.746 1.53718 2.57276 0
M  V30 5897 H 553.307 0.951951 1.30956 0
M  V30 5898 H 555.299 -0.546418 4.00994 0
M  V30 5899 H 553.869 -0.877193 3.0004 0
M  V30 5900 H 553.089 1.52625 3.63454 0
M  V30 5901 H 554.377 1.53065 4.8523 0
M  V30 5902 H 553.775 -1.59828 5.42652 0
M  V30 5903 H 552.332 -1.46965 6.35015 0
M  V30 5904 N 555.766 -1.3263 0.851289 0
M  V30 5905 C 556.676 -2.32722 0.296268 0
M  V30 5906 C 557.692 -1.63901 -0.584162 0
M  V30 5907 O 558.868 -1.95465 -0.485334 0
M  V30 5908 C 555.933 -3.42942 -0.509103 0
M  V30 5909 C 554.994 -4.2746 0.397069 0
M  V30 5910 C 554.227 -5.32416 -0.36996 0
M  V30 5911 O 554.45 -5.47491 -1.6003 0
M  V30 5912 O 553.384 -6.01327 0.262493 0
M  V30 5913 H 557.21 -2.82078 1.12543 0
M  V30 5914 H 554.795 -1.36194 0.614135 0
M  V30 5915 H 556.677 -4.1017 -0.96634 0
M  V30 5916 H 555.352 -2.95781 -1.31512 0
M  V30 5917 H 554.259 -3.63053 0.902411 0
M  V30 5918 H 555.592 -4.78136 1.16818 0
M  V30 5919 N 557.244 -0.608902 -1.45362 0
M  V30 5920 C 558.174 0.0964526 -2.33301 0
M  V30 5921 C 559.155 0.857444 -1.46908 0
M  V30 5922 O 560.34 0.827735 -1.75676 0
M  V30 5923 C 557.47 1.09354 -3.29635 0
M  V30 5924 C 556.424 0.445676 -4.25673 0
M  V30 5925 C 555.75 1.5511 -5.11708 0
M  V30 5926 C 557.05 -0.633972 -5.18438 0
M  V30 5927 H 558.744 -0.637829 -2.92527 0
M  V30 5928 H 556.29 -0.308178 -1.40664 0
M  V30 5929 H 558.243 1.59556 -3.90025 0
M  V30 5930 H 556.967 1.85843 -2.6857 0
M  V30 5931 H 555.626 -0.0354897 -3.66583 0
M  V30 5932 H 555.274 2.30631 -4.4701 0
M  V30 5933 H 554.974 1.12311 -5.76767 0
M  V30 5934 H 556.498 2.05537 -5.74967 0
M  V30 5935 H 557.912 -0.215974 -5.72893 0
M  V30 5936 H 556.309 -0.983789 -5.91981 0
M  V30 5937 H 557.379 -1.51005 -4.60788 0
M  V30 5938 N 558.722 1.53707 -0.348139 0
M  V30 5939 C 559.655 2.21481 0.549667 0
M  V30 5940 C 560.633 1.20046 1.09671 0
M  V30 5941 O 561.817 1.48883 1.15612 0
M  V30 5942 C 558.944 2.89585 1.75664 0
M  V30 5943 C 557.99 4.04948 1.33864 0
M  V30 5944 S 558.823 5.34325 0.354577 0
M  V30 5945 C 559.979 6.05934 1.56828 0
M  V30 5946 H 560.212 2.97289 -0.0259755 0
M  V30 5947 H 557.745 1.53833 -0.132216 0
M  V30 5948 H 559.703 3.29441 2.44906 0
M  V30 5949 H 558.364 2.13535 2.30351 0
M  V30 5950 H 557.557 4.51552 2.23868 0
M  V30 5951 H 557.159 3.66893 0.725651 0
M  V30 5952 H 559.451 6.29606 2.50205 0
M  V30 5953 H 560.394 6.98799 1.14395 0
M  V30 5954 H 560.802 5.36151 1.76642 0
M  V30 5955 N 560.2 0.0768682 1.57412 0
M  V30 5956 C 561.425 -0.603404 1.98428 0
M  V30 5957 C 561.85 -1.62047 0.955108 0
M  V30 5958 O 561.208 -1.81129 -0.0786778 0
M  V30 5959 C 561.256 -1.24396 3.38464 0
M  V30 5960 O 560.36 -2.35982 3.3821 0
M  V30 5961 H 559.701 -0.154741 0.645718 0
M  V30 5962 H 562.231 0.152885 2.04028 0
M  V30 5963 H 562.241 -1.5896 3.7576 0
M  V30 5964 H 560.916 -0.498735 4.12899 0
M  V30 5965 H 559.493 -2.03173 3.1269 0
M  V30 5966 N 561.678 -1.56367 -0.196722 0
M  V30 5967 C 562.924 -1.80796 -0.918725 0
M  V30 5968 C 563.257 -0.650645 -1.82976 0
M  V30 5969 O 562.532 0.348889 -1.91345 0
M  V30 5970 C 562.815 -3.15472 -1.73636 0
M  V30 5971 C 562.668 -4.41693 -0.85015 0
M  V30 5972 C 563.987 -3.46824 -2.70927 0
M  V30 5973 H 561.106 -0.657702 -0.332561 0
M  V30 5974 H 563.748 -1.89086 -0.186186 0
M  V30 5975 H 561.898 -3.08536 -2.36088 0
M  V30 5976 H 563.57 -4.60673 -0.240459 0
M  V30 5977 H 561.813 -4.33517 -0.156785 0
M  V30 5978 H 562.484 -5.32419 -1.45719 0
M  V30 5979 H 564.96 -3.54049 -2.18607 0
M  V30 5980 H 563.836 -4.4218 -3.25219 0
M  V30 5981 H 564.097 -2.70236 -3.49893 0
M  V30 5982 N 563.156 0.464375 -1.50603 0
M  V30 5983 C 564.103 1.56152 -1.69956 0
M  V30 5984 C 565.073 1.57046 -0.54091 0
M  V30 5985 O 566.258 1.74473 -0.772258 0
M  V30 5986 C 563.398 2.94079 -1.80586 0
M  V30 5987 C 562.511 3.02923 -3.07996 0
M  V30 5988 C 561.646 4.31806 -3.09382 0
M  V30 5989 C 560.685 4.34417 -4.31218 0
M  V30 5990 N 559.822 5.54782 -4.30304 0
M  V30 5991 H 564.662 1.38955 -2.6362 0
M  V30 5992 H 562.199 0.675482 -1.30674 0
M  V30 5993 H 564.157 3.74073 -1.8473 0
M  V30 5994 H 562.787 3.09896 -0.903556 0
M  V30 5995 H 561.839 2.1576 -3.13292 0
M  V30 5996 H 563.151 3.00712 -3.97962 0
M  V30 5997 H 562.305 5.20153 -3.12292 0
M  V30 5998 H 561.044 4.36636 -2.17257 0
M  V30 5999 H 560.049 3.44467 -4.28512 0
M  V30 6000 H 561.274 4.31273 -5.24576 0
M  V30 6001 H 559.22 5.60384 -3.41037 0
M  V30 6002 H 559.137 5.54339 -5.14047 0
M  V30 6003 H 560.405 6.45235 -4.3737 0
M  V30 6004 N 564.634 1.40294 0.718013 0
M  V30 6005 C 565.564 1.43118 1.84498 0
M  V30 6006 C 566.545 0.292403 1.67568 0
M  V30 6007 O 567.73 0.500675 1.87635 0
M  V30 6008 C 564.86 1.29065 3.22427 0
M  V30 6009 C 563.814 2.40521 3.54025 0
M  V30 6010 C 563.14 2.11546 4.91073 0
M  V30 6011 C 564.44 3.82859 3.55269 0
M  V30 6012 H 566.134 2.37432 1.82391 0
M  V30 6013 H 563.68 1.14283 0.87609 0
M  V30 6014 H 565.633 1.29658 4.00957 0
M  V30 6015 H 564.357 0.312271 3.25104 0
M  V30 6016 H 563.016 2.39173 2.77834 0
M  V30 6017 H 562.664 1.12104 4.90348 0
M  V30 6018 H 562.364 2.86216 5.1318 0
M  V30 6019 H 563.888 2.13817 5.71939 0
M  V30 6020 H 565.302 3.86044 4.23843 0
M  V30 6021 H 563.699 4.57029 3.88902 0
M  V30 6022 H 564.769 4.12617 2.54706 0
M  V30 6023 N 566.112 -0.949982 1.2575 0
M  V30 6024 C 567.075 -2.02894 1.06615 0
M  V30 6025 C 568.075 -1.60791 0.0173905 0
M  V30 6026 O 569.265 -1.72249 0.260003 0
M  V30 6027 C 566.397 -3.35219 0.619751 0
M  V30 6028 H 567.59 -2.21302 2.02399 0
M  V30 6029 H 565.143 -1.12772 1.08223 0
M  V30 6030 H 565.878 -3.22508 -0.340486 0
M  V30 6031 H 565.663 -3.67129 1.37692 0
M  V30 6032 H 567.153 -4.14505 0.507443 0
M  V30 6033 N 567.59 -1.07411 -1.15328 0
M  V30 6034 C 568.52 -0.716472 -2.22236 0
M  V30 6035 C 569.501 0.296373 -1.67498 0
M  V30 6036 O 570.686 0.168989 -1.93463 0
M  V30 6037 C 567.816 -0.114142 -3.47112 0
M  V30 6038 C 566.77 -1.05421 -4.14814 0
M  V30 6039 C 566.096 -0.314604 -5.33774 0
M  V30 6040 C 567.396 -2.38808 -4.64508 0
M  V30 6041 H 569.09 -1.61029 -2.52408 0
M  V30 6042 H 566.636 -0.775702 -1.21321 0
M  V30 6043 H 568.589 0.148001 -4.2114 0
M  V30 6044 H 567.313 0.814755 -3.16274 0
M  V30 6045 H 565.972 -1.30128 -3.42728 0
M  V30 6046 H 565.62 0.617772 -4.99192 0
M  V30 6047 H 565.32 -0.941209 -5.80013 0
M  V30 6048 H 566.844 -0.0602747 -6.1057 0
M  V30 6049 H 568.258 -2.18424 -5.3006 0
M  V30 6050 H 566.655 -2.97069 -5.21412 0
M  V30 6051 H 567.725 -3.01067 -3.80114 0
M  V30 6052 N 569.068 1.32177 -0.85831 0
M  V30 6053 C 570.345 1.91781 -0.384624 0
M  V30 6054 C 570.725 1.78171 1.13217 0
M  V30 6055 O 570.073 1.18209 1.95548 0
M  V30 6056 C 570.283 3.38414 -0.853047 0
M  V30 6057 C 571.631 4.15542 -0.872359 0
M  V30 6058 O 572.655 3.47148 -0.797926 0
M  V30 6059 O 571.514 5.37678 -0.978009 0
M  V30 6060 H 568.608 0.819259 -0.112886 0
M  V30 6061 H 571.154 1.40923 -0.945453 0
M  V30 6062 H 569.926 3.4228 -1.89632 0
M  V30 6063 H 569.549 3.96683 -0.269874 0
M  V30 6064 N 570.547 0.616602 1.45037 0
M  V30 6065 C 571.796 0.112861 2.01384 0
M  V30 6066 C 572.109 -1.26758 1.48969 0
M  V30 6067 O 573.315 -1.86454 1.9735 0
M  V30 6068 C 571.771 0.151057 3.59583 0
M  V30 6069 C 571.379 1.53191 4.20995 0
M  V30 6070 C 573.123 -0.296974 4.2346 0
M  V30 6071 C 571.03 1.526 5.71373 0
M  V30 6072 H 569.96 0.0384254 0.75302 0
M  V30 6073 H 572.611 0.773262 1.66412 0
M  V30 6074 H 570.993 -0.57617 3.91786 0
M  V30 6075 H 572.167 2.28156 4.00352 0
M  V30 6076 H 570.482 1.92279 3.69348 0
M  V30 6077 H 573.079 -0.320712 5.33737 0
M  V30 6078 H 573.422 -1.32145 3.9477 0
M  V30 6079 H 573.955 0.377279 3.96007 0
M  V30 6080 H 570.694 2.52837 6.04776 0
M  V30 6081 H 570.214 0.819064 5.94181 0
M  V30 6082 H 571.893 1.25357 6.3474 0
M  V30 6083 N 572.025 -1.5352 0.356285 0
M  V30 6084 C 572.935 -2.29151 -0.502712 0
M  V30 6085 C 573.951 -1.34753 -1.1008 0
M  V30 6086 O 575.127 -1.67803 -1.11374 0
M  V30 6087 C 572.192 -3.05911 -1.63154 0
M  V30 6088 C 571.253 -4.15958 -1.06194 0
M  V30 6089 C 570.486 -4.8905 -2.13696 0
M  V30 6090 O 570.709 -4.61919 -3.34645 0
M  V30 6091 O 569.643 -5.75202 -1.77275 0
M  V30 6092 H 573.469 -3.03492 0.112466 0
M  V30 6093 H 571.054 -1.4891 0.120942 0
M  V30 6094 H 572.936 -3.53874 -2.28804 0
M  V30 6095 H 571.611 -2.34415 -2.23229 0
M  V30 6096 H 570.518 -3.7227 -0.369603 0
M  V30 6097 H 571.851 -4.89593 -0.505872 0
M  V30 6098 N 573.503 -0.0852151 -1.57369 0
M  V30 6099 C 574.752 0.580443 -1.93168 0
M  V30 6100 C 575.065 1.6995 -0.968319 0
M  V30 6101 O 576.271 2.42564 -1.21963 0
M  V30 6102 C 574.727 1.08386 -3.43192 0
M  V30 6103 C 574.335 -0.00491388 -4.48 0
M  V30 6104 C 576.079 1.72281 -3.87968 0
M  V30 6105 C 573.986 0.513299 -5.89168 0
M  V30 6106 H 572.916 0.22059 -0.72101 0
M  V30 6107 H 575.567 -0.159621 -1.82804 0
M  V30 6108 H 573.949 1.8773 -3.48674 0
M  V30 6109 H 575.123 -0.780032 -4.5415 0
M  V30 6110 H 573.438 -0.548453 -4.12772 0
M  V30 6111 H 576.035 2.12108 -4.9083 0
M  V30 6112 H 576.378 2.58811 -3.26071 0
M  V30 6113 H 576.911 0.995359 -3.85146 0
M  V30 6114 H 573.65 -0.315153 -6.54742 0
M  V30 6115 H 573.17 1.25564 -5.8651 0
M  V30 6116 H 574.849 0.985433 -6.39451 0
M  V30 6117 N 574.981 1.5647 0.188427 0
M  V30 6118 C 575.944 1.9421 1.21718 0
M  V30 6119 C 576.944 0.823901 1.38089 0
M  V30 6120 O 578.134 1.09122 1.35787 0
M  V30 6121 C 575.266 2.22197 2.58537 0
M  V30 6122 H 576.459 2.86252 0.894418 0
M  V30 6123 H 574.012 1.50263 0.430211 0
M  V30 6124 H 574.747 1.32814 2.95856 0
M  V30 6125 H 574.532 3.03688 2.48025 0
M  V30 6126 H 576.022 2.52376 3.3271 0
M  V30 6127 N 576.459 -0.456382 1.50847 0
M  V30 6128 C 577.687 -1.23026 1.66349 0
M  V30 6129 C 578.102 -1.85473 0.352868 0
M  V30 6130 O 577.459 -1.69885 -0.666739 0
M  V30 6131 C 577.51 -2.32827 2.76539 0
M  V30 6132 O 577.231 -1.72938 4.02522 0
M  V30 6133 C 578.732 -3.23448 3.03144 0
M  V30 6134 H 575.952 -0.371527 0.558756 0
M  V30 6135 H 578.496 -0.543082 1.97157 0
M  V30 6136 H 576.651 -2.97294 2.48384 0
M  V30 6137 H 577.065 -2.45357 4.63573 0
M  V30 6138 H 578.539 -3.96669 3.83872 0
M  V30 6139 H 579.016 -3.83094 2.14793 0
M  V30 6140 H 579.622 -2.64702 3.32886 0
M  V30 6141 N 577.937 -1.40673 -0.710563 0
M  V30 6142 C 579.167 -1.4234 -1.49742 0
M  V30 6143 C 579.575 -0.022821 -1.89186 0
M  V30 6144 O 578.918 0.964773 -1.56326 0
M  V30 6145 C 578.98 -2.25509 -2.79975 0
M  V30 6146 C 578.644 -3.73862 -2.62824 0
M  V30 6147 C 579.641 -4.66379 -2.29752 0
M  V30 6148 C 577.326 -4.17735 -2.78932 0
M  V30 6149 C 579.32 -6.00756 -2.13006 0
M  V30 6150 C 577.007 -5.5218 -2.61802 0
M  V30 6151 C 578.005 -6.43505 -2.28888 0
M  V30 6152 O 577.693 -7.75472 -2.11894 0
M  V30 6153 H 577.425 -0.487311 -0.468513 0
M  V30 6154 H 579.979 -1.8542 -0.883668 0
M  V30 6155 H 578.209 -1.77218 -3.43701 0
M  V30 6156 H 579.898 -2.19058 -3.41714 0
M  V30 6157 H 580.664 -4.33778 -2.16936 0
M  V30 6158 H 576.543 -3.46967 -3.03537 0
M  V30 6159 H 580.087 -6.72003 -1.87237 0
M  V30 6160 H 575.984 -5.84365 -2.74204 0
M  V30 6161 H 576.752 -7.86458 -2.26775 0
M  V30 6162 N 579.415 0.9433 -1.26252 0
M  V30 6163 C 580.831 1.21644 -1.03319 0
M  V30 6164 C 581.031 2.0003 0.242983 0
M  V30 6165 O 580.087 2.33838 0.952688 0
M  V30 6166 C 581.4 1.97978 -2.2633 0
M  V30 6167 C 582.948 2.10978 -2.31209 0
M  V30 6168 C 583.423 2.90713 -3.53907 0
M  V30 6169 N 584.914 2.98287 -3.54371 0
M  V30 6170 C 585.649 3.60406 -4.45976 0
M  V30 6171 N 585.145 4.24043 -5.47868 0
M  V30 6172 N 586.938 3.57658 -4.33633 0
M  V30 6173 H 579.089 0.419221 -2.08222 0
M  V30 6174 H 581.352 0.247995 -0.914988 0
M  V30 6175 H 581.058 1.47788 -3.19142 0
M  V30 6176 H 580.932 2.9865 -2.30408 0
M  V30 6177 H 583.319 2.6036 -1.38913 0
M  V30 6178 H 583.4 1.09575 -2.31143 0
M  V30 6179 H 583.044 2.42018 -4.46531 0
M  V30 6180 H 582.974 3.92367 -3.5122 0
M  V30 6181 H 585.465 2.53044 -2.80673 0
M  V30 6182 H 585.778 4.69334 -6.13959 0
M  V30 6183 H 584.123 4.22637 -5.51728 0
M  V30 6184 H 587.314 3.07134 -3.53251 0
M  V30 6185 H 587.487 4.05782 -5.05218 0
M  V30 6186 N 580.893 1.08022 1.14757 0
M  V30 6187 C 581.84 0.706657 2.19716 0
M  V30 6188 C 582.81 -0.30525 1.63271 0
M  V30 6189 O 583.995 -0.19015 1.8985 0
M  V30 6190 C 581.135 0.117914 3.44898 0
M  V30 6191 C 580.248 1.18212 4.15512 0
M  V30 6192 C 579.383 0.557659 5.28265 0
M  V30 6193 C 578.422 1.60418 5.90705 0
M  V30 6194 N 577.559 1.0018 6.94916 0
M  V30 6195 H 582.399 1.60603 2.51019 0
M  V30 6196 H 579.936 0.802664 1.23271 0
M  V30 6197 H 581.894 -0.241112 4.16503 0
M  V30 6198 H 580.524 -0.744788 3.1409 0
M  V30 6199 H 579.576 1.65863 3.42335 0
M  V30 6200 H 580.888 1.97533 4.5802 0
M  V30 6201 H 580.042 0.146654 6.06523 0
M  V30 6202 H 578.781 -0.267249 4.86967 0
M  V30 6203 H 577.786 2.02489 5.11154 0
M  V30 6204 H 579.011 2.43149 6.34078 0
M  V30 6205 H 576.957 0.197917 6.55701 0
M  V30 6206 H 576.874 1.73216 7.35889 0
M  V30 6207 H 578.142 0.616523 7.77058 0
M  V30 6208 N 582.371 -1.3172 0.865308 0
M  V30 6209 C 583.301 -2.31109 0.333302 0
M  V30 6210 C 584.282 -1.60148 -0.573301 0
M  V30 6211 O 585.467 -1.87882 -0.491305 0
M  V30 6212 C 582.597 -3.44104 -0.470078 0
M  V30 6213 C 581.551 -4.26623 0.343021 0
M  V30 6214 C 580.877 -5.31482 -0.585756 0
M  V30 6215 C 582.177 -4.98001 1.57456 0
M  V30 6216 H 583.871 -2.75855 1.1638 0
M  V30 6217 H 581.417 -1.3262 0.561069 0
M  V30 6218 H 583.37 -4.12682 -0.852752 0
M  V30 6219 H 582.094 -2.98112 -1.33404 0
M  V30 6220 H 580.753 -3.59707 0.707583 0
M  V30 6221 H 580.401 -4.81741 -1.44686 0
M  V30 6222 H 580.101 -5.87582 -0.0456494 0
M  V30 6223 H 581.625 -6.0292 -0.965375 0
M  V30 6224 H 583.039 -5.59201 1.26359 0
M  V30 6225 H 581.436 -5.63876 2.05339 0
M  V30 6226 H 582.506 -4.25253 2.32997 0
M  V30 6227 N 583.85 -0.624285 -1.44708 0
M  V30 6228 C 584.779 0.0717025 -2.3339 0
M  V30 6229 C 585.76 0.841814 -1.47809 0
M  V30 6230 O 586.946 0.809056 -1.76544 0
M  V30 6231 C 584.076 1.05852 -3.30776 0
M  V30 6232 C 583.029 0.400503 -4.26122 0
M  V30 6233 C 582.356 1.49674 -5.13324 0
M  V30 6234 C 583.656 -0.688924 -5.17737 0
M  V30 6235 H 585.35 -0.668819 -2.91834 0
M  V30 6236 H 582.896 -0.32308 -1.40329 0
M  V30 6237 H 584.849 1.5541 -3.91696 0
M  V30 6238 H 583.572 1.82984 -2.70526 0
M  V30 6239 H 582.231 -0.0743687 -3.66525 0
M  V30 6240 H 581.88 2.25877 -4.49431 0
M  V30 6241 H 581.58 1.06188 -5.77926 0
M  V30 6242 H 583.104 1.99427 -5.77115 0
M  V30 6243 H 584.518 -0.276724 -5.72632 0
M  V30 6244 H 582.915 -1.04652 -5.90904 0
M  V30 6245 H 583.985 -1.55884 -4.5916 0
M  V30 6246 N 585.328 1.53329 -0.364422 0
M  V30 6247 C 586.238 2.29414 0.490552 0
M  V30 6248 C 587.254 1.35335 1.09363 0
M  V30 6249 O 588.43 1.68391 1.10483 0
M  V30 6250 C 585.495 3.06772 1.61529 0
M  V30 6251 C 584.556 4.16516 1.03986 0
M  V30 6252 C 583.789 4.90176 2.111 0
M  V30 6253 O 584.012 4.63687 3.32191 0
M  V30 6254 O 582.946 5.76134 1.74222 0
M  V30 6255 H 586.772 3.03428 -0.12856 0
M  V30 6256 H 584.357 1.48843 -0.128837 0
M  V30 6257 H 586.239 3.55082 2.26924 0
M  V30 6258 H 584.914 2.35596 2.21983 0
M  V30 6259 H 583.821 3.7246 0.349856 0
M  V30 6260 H 585.154 4.89855 0.4799 0
M  V30 6261 N 586.806 0.0935595 1.57322 0
M  V30 6262 C 588.054 -0.569383 1.93913 0
M  V30 6263 C 588.375 -1.68817 0.976009 0
M  V30 6264 O 587.645 -1.9588 0.0278099 0
M  V30 6265 H 586.225 -0.21332 0.715894 0
M  V30 6266 H 588.887 0.156531 1.9427 0
M  V30 6267 H 587.983 -0.980577 2.96296 0
M  V30 6268 N 588.284 -1.56567 -0.180126 0
M  V30 6269 C 589.194 -1.98947 -1.24327 0
M  V30 6270 C 590.21 -0.899446 -1.4895 0
M  V30 6271 O 591.386 -1.20639 -1.61271 0
M  V30 6272 C 588.451 -2.33328 -2.56435 0
M  V30 6273 C 587.512 -3.56114 -2.39752 0
M  V30 6274 C 586.745 -3.88845 -3.65561 0
M  V30 6275 O 586.968 -3.22662 -4.70368 0
M  V30 6276 O 585.902 -4.82226 -3.60197 0
M  V30 6277 H 589.728 -2.89634 -0.913565 0
M  V30 6278 H 587.313 -1.44319 -0.386306 0
M  V30 6279 H 589.195 -2.5645 -3.34382 0
M  V30 6280 H 587.87 -1.45806 -2.89002 0
M  V30 6281 H 586.777 -3.38221 -1.59866 0
M  V30 6282 H 588.11 -4.4415 -2.12113 0
M  V30 6283 N 589.762 0.448376 -1.51087 0
M  V30 6284 C 590.672 1.56882 -1.74428 0
M  V30 6285 C 591.688 1.62268 -0.62809 0
M  V30 6286 O 592.864 1.79716 -0.909075 0
M  V30 6287 C 589.929 2.92947 -1.85426 0
M  V30 6288 C 588.99 2.97766 -3.09247 0
M  V30 6289 C 588.223 4.27341 -3.19711 0
M  V30 6290 O 588.446 5.19112 -2.36387 0
M  V30 6291 O 587.38 4.38219 -4.12611 0
M  V30 6292 H 591.206 1.40104 -2.69452 0
M  V30 6293 H 588.791 0.630247 -1.35456 0
M  V30 6294 H 590.673 3.73719 -1.94709 0
M  V30 6295 H 589.348 3.09876 -0.935887 0
M  V30 6296 H 588.255 2.15989 -3.0545 0
M  V30 6297 H 589.588 2.8578 -4.00738 0
M  V30 6298 N 591.24 1.41047 0.703093 0
M  V30 6299 C 592.465 1.43537 1.49706 0
M  V30 6300 C 592.89 0.0401853 1.88057 0
M  V30 6301 O 592.248 -0.954785 1.54122 0
M  V30 6302 C 592.296 2.3433 2.74084 0
M  V30 6303 O 591.4 1.79515 3.71279 0
M  V30 6304 H 590.741 0.487454 0.450871 0
M  V30 6305 H 593.271 1.85422 0.86486 0
M  V30 6306 H 593.281 2.49947 3.22476 0
M  V30 6307 H 591.956 3.35708 2.45506 0
M  V30 6308 H 590.533 1.7331 3.30179 0
M  V30 6309 N 592.718 -0.936591 1.26751 0
M  V30 6310 C 594.134 -1.21095 1.03963 0
M  V30 6311 C 594.334 -2.00156 -0.232372 0
M  V30 6312 O 593.39 -2.3434 -0.940274 0
M  V30 6313 C 594.703 -1.96775 2.27377 0
M  V30 6314 C 596.251 -2.09749 2.32324 0
M  V30 6315 C 596.726 -2.88832 3.55443 0
M  V30 6316 N 598.217 -2.96404 3.55948 0
M  V30 6317 C 598.952 -3.58036 4.47881 0
M  V30 6318 N 598.448 -4.21132 5.50109 0
M  V30 6319 N 600.241 -3.55353 4.35523 0
M  V30 6320 H 592.392 -0.408173 2.08441 0
M  V30 6321 H 594.655 -0.243139 0.91629 0
M  V30 6322 H 594.361 -1.46094 3.19921 0
M  V30 6323 H 594.235 -2.97424 2.31989 0
M  V30 6324 H 596.622 -2.5962 1.40291 0
M  V30 6325 H 596.703 -1.08347 2.31721 0
M  V30 6326 H 596.347 -2.39647 4.47808 0
M  V30 6327 H 596.277 -3.90499 3.53296 0
M  V30 6328 H 598.768 -2.51552 2.82011 0
M  V30 6329 H 599.081 -4.66071 6.16439 0
M  V30 6330 H 597.426 -4.19705 5.53961 0
M  V30 6331 H 600.617 -3.05256 3.54875 0
M  V30 6332 H 600.79 -4.03097 5.07363 0
M  V30 6333 N 594.196 -1.08629 -1.14182 0
M  V30 6334 C 595.126 -0.740003 -2.21464 0
M  V30 6335 C 596.107 0.278591 -1.67803 0
M  V30 6336 O 597.292 0.148461 -1.93632 0
M  V30 6337 C 594.422 -0.150952 -3.46972 0
M  V30 6338 C 593.376 -1.09815 -4.13672 0
M  V30 6339 C 592.702 -0.3712 -5.3341 0
M  V30 6340 C 594.002 -2.43722 -4.61949 0
M  V30 6341 H 595.696 -1.63697 -2.50686 0
M  V30 6342 H 593.242 -0.788526 -1.20492 0
M  V30 6343 H 595.195 0.103325 -4.21273 0
M  V30 6344 H 593.919 0.781164 -3.1712 0
M  V30 6345 H 592.578 -1.33756 -3.41328 0
M  V30 6346 H 592.226 0.564792 -4.99819 0
M  V30 6347 H 591.926 -1.00267 -5.78982 0
M  V30 6348 H 593.45 -0.12503 -6.10472 0
M  V30 6349 H 594.864 -2.24034 -5.27714 0
M  V30 6350 H 593.261 -3.02582 -5.18232 0
M  V30 6351 H 594.331 -3.05082 -3.76899 0
M  V30 6352 N 595.674 1.31259 -0.872281 0
M  V30 6353 C 596.637 2.26744 -0.334656 0
M  V30 6354 C 597.637 1.52307 0.515681 0
M  V30 6355 O 598.827 1.71148 0.324656 0
M  V30 6356 C 595.959 3.36841 0.524482 0
M  V30 6357 H 597.152 2.75812 -1.17762 0
M  V30 6358 H 594.705 1.42232 -0.648064 0
M  V30 6359 H 595.44 2.93069 1.38855 0
M  V30 6360 H 595.225 3.92009 -0.0844299 0
M  V30 6361 H 596.715 4.07944 0.892838 0
M  V30 6362 N 597.152 0.631951 1.44375 0
M  V30 6363 C 598.4 0.136497 2.01639 0
M  V30 6364 C 598.721 -1.24637 1.49969 0
M  V30 6365 O 597.991 -1.82827 0.70363 0
M  V30 6366 H 596.571 0.0474703 0.74549 0
M  V30 6367 H 599.233 0.818837 1.76865 0
M  V30 6368 H 598.329 0.104817 3.11924 0
M  V30 6369 N 598.631 -1.53133 0.372548 0
M  V30 6370 C 599.908 -1.93704 -0.271693 0
M  V30 6371 C 600.288 -1.30667 -1.65799 0
M  V30 6372 O 599.636 -0.46838 -2.23648 0
M  V30 6373 C 599.846 -3.47576 -0.314903 0
M  V30 6374 C 601.194 -4.20998 -0.551912 0
M  V30 6375 O 602.218 -3.53994 -0.39582 0
M  V30 6376 O 601.077 -5.39748 -0.85639 0
M  V30 6377 H 598.171 -0.810457 -0.164586 0
M  V30 6378 H 600.717 -1.6427 0.425838 0
M  V30 6379 H 599.489 -3.85749 0.656792 0
M  V30 6380 H 599.112 -3.83264 -1.05804 0
M  V30 6381 N 600.109 -0.101901 -1.5727 0
M  V30 6382 C 601.357 0.559091 -1.94213 0
M  V30 6383 C 601.678 1.68297 -0.984948 0
M  V30 6384 O 600.948 1.95863 -0.0381975 0
M  V30 6385 H 599.528 0.20952 -0.717015 0
M  V30 6386 H 602.19 -0.166831 -1.94185 0
M  V30 6387 H 601.286 0.96485 -2.96811 0
M  V30 6388 N 601.587 1.56661 0.17182 0
M  V30 6389 C 602.833 1.82235 0.889845 0
M  V30 6390 C 603.166 0.679673 1.81918 0
M  V30 6391 O 602.441 -0.318404 1.91876 0
M  V30 6392 C 602.724 3.18195 1.68595 0
M  V30 6393 C 602.577 4.42989 0.779773 0
M  V30 6394 C 603.896 3.5109 2.65375 0
M  V30 6395 H 601.015 0.66291 0.322056 0
M  V30 6396 H 603.657 1.89358 0.15608 0
M  V30 6397 H 601.807 3.12253 2.3115 0
M  V30 6398 H 603.479 4.60997 0.16714 0
M  V30 6399 H 601.722 4.33711 0.0877964 0
M  V30 6400 H 602.393 5.3467 1.3723 0
M  V30 6401 H 604.869 3.57482 2.12946 0
M  V30 6402 H 603.745 4.47298 3.18144 0
M  V30 6403 H 604.006 2.75768 3.45549 0
M  V30 6404 N 603.065 -0.440357 1.51323 0
M  V30 6405 C 604.313 -1.18769 1.63518 0
M  V30 6406 C 604.634 -1.91793 0.352201 0
M  V30 6407 O 603.904 -1.85432 -0.631811 0
M  V30 6408 H 602.484 -0.441408 0.602634 0
M  V30 6409 H 605.146 -0.505162 1.8824 0
M  V30 6410 H 604.242 -1.91892 2.46138 0
M  V30 6411 N 604.543 -1.41418 -0.695603 0
M  V30 6412 C 605.506 -1.42988 -1.79129 0
M  V30 6413 C 606.506 -0.320514 -1.57573 0
M  V30 6414 O 607.696 -0.58039 -1.64247 0
M  V30 6415 C 604.828 -1.24122 -3.175 0
M  V30 6416 H 606.021 -2.40526 -1.7913 0
M  V30 6417 H 603.574 -1.2756 -0.903225 0
M  V30 6418 H 604.309 -0.274253 -3.23138 0
M  V30 6419 H 604.094 -2.045 -3.34547 0
M  V30 6420 H 605.584 -1.28056 -3.97481 0
M  V30 6421 N 606.021 0.929856 -1.27246 0
M  V30 6422 C 607.267 1.6798 -1.13625 0
M  V30 6423 C 607.6 1.91586 0.317589 0
M  V30 6424 O 606.875 1.50467 1.23247 0
M  V30 6425 C 607.158 3.04766 -1.91806 0
M  V30 6426 C 607.011 2.88415 -3.45162 0
M  V30 6427 C 608.33 4.05063 -1.72082 0
M  V30 6428 H 605.449 0.609632 -0.414147 0
M  V30 6429 H 608.091 1.0792 -1.56376 0
M  V30 6430 H 606.241 3.56034 -1.55474 0
M  V30 6431 H 607.913 2.44282 -3.91311 0
M  V30 6432 H 606.156 2.23802 -3.71611 0
M  V30 6433 H 606.827 3.85482 -3.95105 0
M  V30 6434 H 609.303 3.62798 -2.03757 0
M  V30 6435 H 608.179 4.98765 -2.29182 0
M  V30 6436 H 608.44 4.37021 -0.668206 0
M  V30 6437 N 607.499 1.09233 1.13605 0
M  V30 6438 C 608.447 0.724572 2.21027 0
M  V30 6439 C 609.441 -0.273595 1.67176 0
M  V30 6440 O 610.647 -0.135266 1.79491 0
M  V30 6441 H 607.022 0.216319 0.720215 0
M  V30 6442 H 608.993 1.63975 2.49309 0
M  V30 6443 C 607.742 0.159126 3.47336 0
M  V30 6444 H 607.065 0.918387 3.89109 0
M  V30 6445 H 608.505 -0.0602851 4.23957 0
M  V30 6446 C 606.964 -1.10514 3.18258 0
M  V30 6447 O 607.494 -2.18869 3.36837 0
M  V30 6448 N 605.7 -1.01886 2.72154 0
M  V30 6449 H 605.247 -0.137027 2.57235 0
M  V30 6450 H 605.205 -1.8655 2.53074 0
M  V30 6451 N 608.977 -1.30795 0.87923 0
M  V30 6452 C 610.226 -1.95636 0.490875 0
M  V30 6453 C 610.539 -1.70214 -0.963674 0
M  V30 6454 O 611.745 -2.28991 -1.45861 0
M  V30 6455 C 610.201 -3.50271 0.826929 0
M  V30 6456 C 609.809 -3.84521 2.29886 0
M  V30 6457 C 611.553 -4.21456 0.507494 0
M  V30 6458 C 609.46 -5.32309 2.57685 0
M  V30 6459 H 608.39 -0.732238 0.179841 0
M  V30 6460 H 611.041 -1.48829 1.07341 0
M  V30 6461 H 609.423 -3.9562 0.173542 0
M  V30 6462 H 610.597 -3.50102 2.99609 0
M  V30 6463 H 608.912 -3.26425 2.58526 0
M  V30 6464 H 611.509 -5.30199 0.692293 0
M  V30 6465 H 611.852 -4.12614 -0.552718 0
M  V30 6466 H 612.385 -3.81772 1.11782 0
M  V30 6467 H 609.124 -5.46195 3.62424 0
M  V30 6468 H 608.644 -5.68048 1.92566 0
M  V30 6469 H 610.323 -5.99678 2.42889 0
M  V30 6470 N 610.455 -0.639598 -1.44038 0
M  V30 6471 C 611.68 -0.153117 -2.06834 0
M  V30 6472 C 612.105 1.16676 -1.47541 0
M  V30 6473 O 611.463 1.71769 -0.580093 0
M  V30 6474 C 611.511 -0.0609169 -3.60549 0
M  V30 6475 O 610.615 0.98071 -4.00569 0
M  V30 6476 H 609.956 -0.0886402 -0.658057 0
M  V30 6477 H 612.486 -0.878674 -1.84771 0
M  V30 6478 H 612.496 0.126892 -4.07803 0
M  V30 6479 H 611.171 -1.0245 -4.03084 0
M  V30 6480 H 609.748 0.766789 -3.64931 0
M  V30 6481 N 611.933 1.52934 -0.380664 0
M  V30 6482 C 613.179 2.01765 0.20458 0
M  V30 6483 C 613.512 1.26696 1.47179 0
M  V30 6484 O 612.787 0.364936 1.91046 0
M  V30 6485 C 613.07 3.56869 0.481269 0
M  V30 6486 C 612.923 4.42617 -0.800629 0
M  V30 6487 C 614.242 4.2121 1.27554 0
M  V30 6488 H 611.361 0.733388 0.0728803 0
M  V30 6489 H 614.003 1.83068 -0.50853 0
M  V30 6490 H 612.153 3.72932 1.08875 0
M  V30 6491 H 613.825 4.38323 -1.43773 0
M  V30 6492 H 612.068 4.09977 -1.4178 0
M  V30 6493 H 612.739 5.49134 -0.561791 0
M  V30 6494 H 615.215 4.09072 0.761514 0
M  V30 6495 H 614.091 5.29732 1.43788 0
M  V30 6496 H 614.352 3.78269 2.28833 0
M  V30 6497 N 613.412 0.11024 1.57214 0
M  V30 6498 C 614.345 -0.880224 2.1054 0
M  V30 6499 C 615.323 -1.26658 1.01964 0
M  V30 6500 O 616.507 -1.36917 1.29561 0
M  V30 6501 C 613.634 -2.17676 2.59489 0
M  V30 6502 C 612.68 -1.93914 3.79868 0
M  V30 6503 S 613.513 -1.16336 5.2271 0
M  V30 6504 C 614.669 -2.47188 5.75021 0
M  V30 6505 H 614.902 -0.426614 2.94223 0
M  V30 6506 H 612.435 -0.10336 1.54054 0
M  V30 6507 H 614.393 -2.92175 2.88347 0
M  V30 6508 H 613.054 -2.60156 1.76005 0
M  V30 6509 H 612.247 -2.8996 4.12236 0
M  V30 6510 H 611.849 -1.27539 3.51582 0
M  V30 6511 H 614.141 -3.43079 5.84211 0
M  V30 6512 H 615.084 -2.19377 6.7326 0
M  V30 6513 H 615.492 -2.56154 5.03036 0
M  V30 6514 N 614.89 -1.56749 -0.16351 0
M  V30 6515 C 615.838 -1.97939 -1.22159 0
M  V30 6516 C 616.832 -0.869288 -1.45395 0
M  V30 6517 O 618.038 -1.05443 -1.45883 0
M  V30 6518 H 614.413 -0.629869 -0.410815 0
M  V30 6519 H 616.384 -2.86115 -0.847381 0
M  V30 6520 C 615.133 -2.36206 -2.55151 0
M  V30 6521 H 614.456 -3.2117 -2.38097 0
M  V30 6522 H 615.896 -2.68863 -3.27854 0
M  V30 6523 C 614.355 -1.20841 -3.14482 0
M  V30 6524 O 614.885 -0.500258 -3.98573 0
M  V30 6525 N 613.091 -0.976943 -2.73686 0
M  V30 6526 H 612.638 -1.55457 -2.05404 0
M  V30 6527 H 612.596 -0.206912 -3.13718 0
M  V30 6528 N 616.368 0.432326 -1.51554 0
M  V30 6529 C 617.593 1.20824 -1.68571 0
M  V30 6530 C 618.018 1.84126 -0.384596 0
M  V30 6531 O 617.376 1.69025 0.655751 0
M  V30 6532 C 617.424 2.26429 -2.80646 0
M  V30 6533 O 616.528 3.32032 -2.44598 0
M  V30 6534 H 615.869 0.353765 -0.561913 0
M  V30 6535 H 618.399 0.509916 -1.98144 0
M  V30 6536 H 618.409 2.71133 -3.04878 0
M  V30 6537 H 617.084 1.79733 -3.75058 0
M  V30 6538 H 615.661 2.92769 -2.30956 0
M  V30 6539 N 617.846 1.41785 0.688094 0
M  V30 6540 C 619.074 1.44915 1.47673 0
M  V30 6541 C 619.489 0.0565786 1.88715 0
M  V30 6542 O 618.846 -0.92579 1.57275 0
M  V30 6543 C 618.897 2.36452 2.73446 0
M  V30 6544 O 618.618 3.7029 2.34131 0
M  V30 6545 C 620.119 2.48463 3.67125 0
M  V30 6546 H 617.339 0.493324 0.454832 0
M  V30 6547 H 619.883 1.86153 0.846594 0
M  V30 6548 H 618.038 1.98502 3.3268 0
M  V30 6549 H 618.452 4.19183 3.15255 0
M  V30 6550 H 619.926 3.16662 4.52138 0
M  V30 6551 H 620.403 1.51826 4.12123 0
M  V30 6552 H 621.009 2.8708 3.13792 0
M  V30 6553 N 619.324 -0.923095 1.27737 0
M  V30 6554 C 620.572 -1.66797 1.14119 0
M  V30 6555 C 620.893 -1.92479 -0.312541 0
M  V30 6556 O 620.163 -1.53432 -1.218 0
M  V30 6557 H 618.743 -0.618196 0.419336 0
M  V30 6558 H 621.405 -1.10815 1.60331 0
M  V30 6559 H 620.501 -2.63424 1.67374 0
M  V30 6560 N 620.802 -1.09834 -1.13024 0
M  V30 6561 C 622.05 -0.835297 -1.8403 0
M  V30 6562 C 622.371 0.640944 -1.84165 0
M  V30 6563 O 621.641 1.46517 -1.30037 0
M  V30 6564 H 620.221 -0.306018 -0.681441 0
M  V30 6565 H 622.883 -1.38734 -1.36891 0
M  V30 6566 H 621.979 -1.19258 -2.88416 0
M  V30 6567 N 622.28 1.30327 -0.886154 0
M  V30 6568 C 623.505 2.0079 -0.519425 0
M  V30 6569 C 623.93 1.65979 0.885013 0
M  V30 6570 O 623.288 0.877043 1.58675 0
M  V30 6571 C 623.336 3.53686 -0.702758 0
M  V30 6572 O 622.44 4.11637 0.250828 0
M  V30 6573 H 621.781 0.63171 -0.204544 0
M  V30 6574 H 624.311 1.66145 -1.19402 0
M  V30 6575 H 624.321 4.03531 -0.602207 0
M  V30 6576 H 622.996 3.78361 -1.72673 0
M  V30 6577 H 621.573 3.72755 0.103873 0
M  V30 6578 N 623.758 0.647228 1.43697 0
M  V30 6579 C 624.983 0.164083 2.0675 0
M  V30 6580 C 625.408 -1.15892 1.48158 0
M  V30 6581 O 624.766 -1.71459 0.589194 0
M  V30 6582 C 624.814 0.0800368 3.60511 0
M  V30 6583 O 623.918 -0.959453 4.01084 0
M  V30 6584 H 623.259 0.0921288 0.657578 0
M  V30 6585 H 625.789 0.88846 1.84303 0
M  V30 6586 H 625.799 -0.105263 4.07864 0
M  V30 6587 H 624.474 1.04586 4.02535 0
M  V30 6588 H 623.051 -0.747425 3.65333 0
M  V30 6589 N 625.236 -1.5273 0.388769 0
M  V30 6590 C 626.461 -2.0647 -0.19621 0
M  V30 6591 C 626.886 -1.25865 -1.39784 0
M  V30 6592 O 626.244 -0.283562 -1.79069 0
M  V30 6593 C 626.292 -3.56456 -0.5451 0
M  V30 6594 O 625.396 -3.78426 -1.63912 0
M  V30 6595 H 624.737 -0.663599 -0.023067 0
M  V30 6596 H 627.267 -1.96898 0.556084 0
M  V30 6597 H 627.277 -3.99888 -0.809557 0
M  V30 6598 H 625.952 -4.14561 0.333417 0
M  V30 6599 H 624.529 -3.46884 -1.36842 0
M  V30 6600 N 626.714 -0.118576 -1.57153 0
M  V30 6601 C 627.962 0.538461 -1.94795 0
M  V30 6602 C 628.283 1.67243 -1.00274 0
M  V30 6603 O 627.553 1.95811 -0.0589692 0
M  V30 6604 H 626.133 0.201904 -0.719197 0
M  V30 6605 H 628.795 -0.187418 -1.93997 0
M  V30 6606 H 627.891 0.933315 -2.97818 0
M  V30 6607 N 628.193 1.56834 0.155195 0
M  V30 6608 C 629.441 1.82536 0.867462 0
M  V30 6609 C 629.762 0.698168 1.82073 0
M  V30 6610 O 629.032 -0.280807 1.93877 0
M  V30 6611 H 627.612 0.673401 0.323327 0
M  V30 6612 H 630.274 1.94313 0.151156 0
M  V30 6613 H 629.37 2.77171 1.43466 0
M  V30 6614 N 629.671 -0.424282 1.51781 0
M  V30 6615 C 630.919 -1.17028 1.64769 0
M  V30 6616 C 631.24 -1.91409 0.372523 0
M  V30 6617 O 630.51 -1.86091 -0.612108 0
M  V30 6618 H 629.09 -0.434992 0.607282 0
M  V30 6619 H 631.752 -0.485169 1.88765 0
M  V30 6620 H 630.848 -1.8927 2.4816 0
M  V30 6621 N 631.149 -1.42148 -0.680565 0
M  V30 6622 C 632.398 -1.41604 -1.43636 0
M  V30 6623 C 632.711 -0.0337887 -1.95571 0
M  V30 6624 O 633.917 0.0942588 -2.71336 0
M  V30 6625 C 632.373 -2.49056 -2.59806 0
M  V30 6626 C 631.981 -3.9326 -2.14594 0
M  V30 6627 C 633.725 -2.5767 -3.37352 0
M  V30 6628 C 631.632 -4.92232 -3.27813 0
M  V30 6629 H 630.562 -0.526656 -0.539583 0
M  V30 6630 H 633.213 -1.68033 -0.737369 0
M  V30 6631 H 631.595 -2.15782 -3.32045 0
M  V30 6632 H 632.769 -4.35858 -1.49546 0
M  V30 6633 H 631.084 -3.88443 -1.50002 0
M  V30 6634 H 633.681 -3.28794 -4.21662 0
M  V30 6635 H 634.024 -1.61837 -3.83555 0
M  V30 6636 H 634.557 -2.90109 -2.72179 0
M  V30 6637 H 631.296 -5.89522 -2.86607 0
M  V30 6638 H 630.816 -4.5427 -3.91661 0
M  V30 6639 H 632.495 -5.13684 -3.93367 0
M  V30 6640 N 632.627 0.916307 -1.28225 0
M  V30 6641 C 633.875 1.6619 -1.15002 0
M  V30 6642 C 634.196 1.92642 0.302329 0
M  V30 6643 O 633.466 1.54076 1.20985 0
M  V30 6644 H 632.046 0.615964 -0.422608 0
M  V30 6645 H 634.708 1.09963 -1.60917 0
M  V30 6646 H 633.804 2.62533 -1.68769 0
M  V30 6647 N 634.105 1.10431 1.1244 0
M  V30 6648 C 635.035 0.775143 2.20258 0
M  V30 6649 C 636.016 -0.25186 1.68225 0
M  V30 6650 O 637.201 -0.117637 1.93843 0
M  V30 6651 C 634.331 0.206133 3.46688 0
M  V30 6652 C 633.285 1.16382 4.11873 0
M  V30 6653 C 632.611 0.456014 5.32752 0
M  V30 6654 C 633.911 2.5104 4.58013 0
M  V30 6655 H 635.605 1.67665 2.4805 0
M  V30 6656 H 633.151 0.807595 1.19222 0
M  V30 6657 H 635.104 -0.036291 4.21384 0
M  V30 6658 H 633.828 -0.730614 3.18323 0
M  V30 6659 H 632.487 1.39169 3.39157 0
M  V30 6660 H 632.135 -0.485203 5.00654 0
M  V30 6661 H 631.835 1.09466 5.77314 0
M  V30 6662 H 633.359 0.222135 6.10196 0
M  V30 6663 H 634.773 2.32401 5.24083 0
M  V30 6664 H 633.17 3.10789 5.13352 0
M  V30 6665 H 634.24 3.11039 3.71998 0
M  V30 6666 N 635.583 -1.29855 0.893053 0
M  V30 6667 C 636.811 -1.99976 0.530788 0
M  V30 6668 C 637.226 -1.66889 -0.882799 0
M  V30 6669 O 636.583 -0.910352 -1.58173 0
M  V30 6670 C 636.634 -3.54547 0.705587 0
M  V30 6671 O 636.355 -3.86458 2.06353 0
M  V30 6672 C 637.856 -4.41937 0.347387 0
M  V30 6673 H 635.076 -0.639129 0.204339 0
M  V30 6674 H 637.62 -1.65549 1.20057 0
M  V30 6675 H 635.775 -3.87311 0.0830685 0
M  V30 6676 H 636.189 -4.81146 2.08803 0
M  V30 6677 H 637.663 -5.4954 0.520557 0
M  V30 6678 H 638.14 -4.33339 -0.715139 0
M  V30 6679 H 638.746 -4.14633 0.946567 0
M  V30 6680 N 637.061 -0.65484 -1.43351 0
M  V30 6681 C 637.991 0.0221809 -2.33489 0
M  V30 6682 C 638.972 0.810272 -1.49561 0
M  V30 6683 O 640.157 0.771426 -1.78221 0
M  V30 6684 C 637.287 0.988117 -3.32947 0
M  V30 6685 C 636.241 0.310026 -4.26876 0
M  V30 6686 C 635.567 1.38752 -5.16384 0
M  V30 6687 C 636.867 -0.798589 -5.16159 0
M  V30 6688 H 638.561 -0.730571 -2.9035 0
M  V30 6689 H 636.107 -0.352773 -1.39612 0
M  V30 6690 H 638.06 1.47067 -3.94904 0
M  V30 6691 H 636.784 1.77205 -2.74346 0
M  V30 6692 H 635.443 -0.152097 -3.66284 0
M  V30 6693 H 635.091 2.16293 -4.54121 0
M  V30 6694 H 634.791 0.939051 -5.80048 0
M  V30 6695 H 636.315 1.87141 -5.81215 0
M  V30 6696 H 637.729 -0.398126 -5.71916 0
M  V30 6697 H 636.126 -1.17163 -5.88552 0
M  V30 6698 H 637.196 -1.65588 -4.55751 0
M  V30 6699 N 638.539 1.52521 -0.396863 0
M  V30 6700 C 639.787 2.01274 0.182536 0
M  V30 6701 C 640.108 1.28485 1.46685 0
M  V30 6702 O 639.378 0.407134 1.91623 0
M  V30 6703 H 637.958 0.743671 0.0704442 0
M  V30 6704 H 640.62 1.87547 -0.530289 0
M  V30 6705 H 639.716 3.09687 0.387385 0
M  V30 6706 N 640.017 0.126909 1.57088 0
M  V30 6707 C 641.265 -0.528123 1.95078 0
M  V30 6708 C 641.586 -1.66708 1.0116 0
M  V30 6709 O 640.856 -1.95777 0.0693527 0
M  V30 6710 H 639.436 -0.198087 0.720257 0
M  V30 6711 H 642.098 0.197703 1.93895 0
M  V30 6712 H 641.194 -0.917507 2.98309 0
M  V30 6713 N 641.495 -1.56914 -0.146875 0
M  V30 6714 C 642.723 -1.87515 -0.874394 0
M  V30 6715 C 643.138 -0.715116 -1.74733 0
M  V30 6716 O 642.495 0.315113 -1.79759 0
M  V30 6717 C 642.546 -3.17362 -1.731 0
M  V30 6718 O 642.267 -4.28897 -0.893245 0
M  V30 6719 C 643.768 -3.61479 -2.56609 0
M  V30 6720 H 640.988 -0.621546 -0.252827 0
M  V30 6721 H 643.532 -2.04023 -0.139627 0
M  V30 6722 H 641.687 -3.02608 -2.41883 0
M  V30 6723 H 642.101 -5.03146 -1.48137 0
M  V30 6724 H 643.575 -4.5517 -3.12289 0
M  V30 6725 H 644.052 -2.86773 -3.32653 0
M  V30 6726 H 644.658 -3.78927 -1.93117 0
M  V30 6727 N 642.974 0.416227 -1.52004 0
M  V30 6728 C 643.907 1.52736 -1.6955 0
M  V30 6729 C 644.885 1.53264 -0.54305 0
M  V30 6730 O 646.069 1.72077 -0.769527 0
M  V30 6731 C 643.196 2.91283 -1.72835 0
M  V30 6732 C 642.242 3.08695 -2.94295 0
M  V30 6733 S 643.075 2.82758 -4.54762 0
M  V30 6734 C 644.231 4.23548 -4.60823 0
M  V30 6735 H 644.464 1.37623 -2.63528 0
M  V30 6736 H 641.997 0.607335 -1.41954 0
M  V30 6737 H 643.955 3.71134 -1.75413 0
M  V30 6738 H 642.616 3.03742 -0.799966 0
M  V30 6739 H 641.809 4.10042 -2.93056 0
M  V30 6740 H 641.411 2.36699 -2.89568 0
M  V30 6741 H 643.703 5.17078 -4.37763 0
M  V30 6742 H 644.646 4.29813 -5.62731 0
M  V30 6743 H 645.054 4.08188 -3.89927 0
M  V30 6744 N 644.452 1.42507 0.673017 0
M  V30 6745 C 645.7 1.42789 1.43023 0
M  V30 6746 C 646.021 0.0459738 1.94946 0
M  V30 6747 O 645.291 -0.915765 1.73178 0
M  V30 6748 H 643.871 0.525657 0.530748 0
M  V30 6749 H 646.533 1.77944 0.795113 0
M  V30 6750 H 645.629 2.12872 2.28237 0
M  V30 6751 N 645.93 -0.909495 1.28709 0
M  V30 6752 C 647.155 -1.69801 1.1909 0
M  V30 6753 C 647.58 -1.86479 -0.246388 0
M  V30 6754 O 646.938 -1.37802 -1.17815 0
M  V30 6755 C 646.986 -3.06543 1.89904 0
M  V30 6756 O 646.09 -3.94268 1.2094 0
M  V30 6757 H 645.431 -0.519783 0.413185 0
M  V30 6758 H 647.961 -1.13689 1.70106 0
M  V30 6759 H 647.971 -3.56748 1.97977 0
M  V30 6760 H 646.646 -2.93722 2.94449 0
M  V30 6761 H 645.223 -3.52702 1.2106 0
M  V30 6762 N 647.408 -1.11026 -1.11852 0
M  V30 6763 C 648.356 -0.759643 -2.19846 0
M  V30 6764 C 649.35 0.246964 -1.6759 0
M  V30 6765 O 650.556 0.106693 -1.79684 0
M  V30 6766 H 646.931 -0.22775 -0.716683 0
M  V30 6767 H 648.902 -1.6792 -2.46669 0
M  V30 6768 C 647.651 -0.214364 -3.47039 0
M  V30 6769 H 646.974 -0.980175 -3.87599 0
M  V30 6770 H 648.414 -0.00717047 -4.23999 0
M  V30 6771 C 646.873 1.05436 -3.19976 0
M  V30 6772 O 647.403 2.13483 -3.40276 0
M  V30 6773 N 645.609 0.975436 -2.7374 0
M  V30 6774 H 645.156 0.0960853 -2.57421 0
M  V30 6775 H 645.114 1.82501 -2.5601 0
M  V30 6776 N 648.886 1.2938 -0.899927 0
M  V30 6777 C 649.849 2.25983 -0.382677 0
M  V30 6778 C 650.849 1.53366 0.483259 0
M  V30 6779 O 652.039 1.71798 0.28828 0
M  V30 6780 C 649.171 3.37878 0.452915 0
M  V30 6781 H 650.364 2.73252 -1.23586 0
M  V30 6782 H 647.917 1.40825 -0.678088 0
M  V30 6783 H 648.652 2.95949 1.32608 0
M  V30 6784 H 648.437 3.91742 -0.167562 0
M  V30 6785 H 649.927 4.09746 0.806107 0
M  V30 6786 N 650.364 0.662433 1.43002 0
M  V30 6787 C 651.294 -0.00979809 2.33498 0
M  V30 6788 C 652.275 -0.802329 1.49989 0
M  V30 6789 O 653.46 -0.761964 1.78627 0
M  V30 6790 C 650.59 -0.970446 3.33466 0
M  V30 6791 C 649.544 -0.287383 4.27034 0
M  V30 6792 C 648.87 -1.36012 5.17112 0
M  V30 6793 C 650.17 0.82595 5.15728 0
M  V30 6794 H 651.864 0.745959 2.89958 0
M  V30 6795 H 649.41 0.360172 1.39423 0
M  V30 6796 H 651.363 -1.44971 3.95679 0
M  V30 6797 H 650.087 -1.75748 2.75282 0
M  V30 6798 H 648.746 0.17152 3.66199 0
M  V30 6799 H 648.394 -2.13882 4.55262 0
M  V30 6800 H 648.094 -0.908276 5.80538 0
M  V30 6801 H 649.618 -1.84056 5.82199 0
M  V30 6802 H 651.032 0.42845 5.71697 0
M  V30 6803 H 649.429 1.20282 5.87922 0
M  V30 6804 H 650.499 1.68003 4.54866 0
M  V30 6805 N 651.842 -1.52309 0.404946 0
M  V30 6806 C 653.067 -2.06666 -0.1743 0
M  V30 6807 C 653.492 -1.27341 -1.38441 0
M  V30 6808 O 652.85 -0.302539 -1.78758 0
M  V30 6809 C 652.898 -3.57014 -0.507262 0
M  V30 6810 O 652.002 -3.80144 -1.59889 0
M  V30 6811 H 651.343 -0.663807 -0.0160273 0
M  V30 6812 H 653.873 -1.96297 0.576937 0
M  V30 6813 H 653.883 -4.00724 -0.767098 0
M  V30 6814 H 652.558 -4.14184 0.377368 0
M  V30 6815 H 651.135 -3.48316 -1.33155 0
M  V30 6816 N 653.32 -0.135238 -1.57019 0
M  V30 6817 C 654.567 0.518794 -1.95742 0
M  V30 6818 C 654.895 1.65642 -1.01947 0
M  V30 6819 O 654.15 1.95645 -0.0464016 0
M  V30 6820 C 654.449 1.07694 -3.40788 0
M  V30 6821 C 654.115 0.058992 -4.50861 0
M  V30 6822 C 652.777 -0.220872 -4.80693 0
M  V30 6823 C 655.129 -0.633856 -5.17331 0
M  V30 6824 C 652.457 -1.19959 -5.74305 0
M  V30 6825 C 654.809 -1.60131 -6.11997 0
M  V30 6826 C 653.473 -1.889 -6.40213 0
M  V30 6827 H 652.743 0.18984 -0.716269 0
M  V30 6828 H 655.39 -0.219581 -1.90237 0
M  V30 6829 H 653.695 1.89241 -3.43067 0
M  V30 6830 H 655.392 1.59137 -3.68071 0
M  V30 6831 H 651.982 0.287304 -4.27636 0
M  V30 6832 H 656.166 -0.430823 -4.94427 0
M  V30 6833 H 651.422 -1.42905 -5.94465 0
M  V30 6834 H 655.596 -2.14376 -6.62583 0
M  V30 6835 H 653.223 -2.64891 -7.12556 0
M  V30 6836 N 654.798 1.5699 0.138552 0
M  V30 6837 C 656.023 1.88344 0.86841 0
M  V30 6838 C 656.448 0.725159 1.7356 0
M  V30 6839 O 655.806 -0.324992 1.78363 0
M  V30 6840 C 655.854 3.18334 1.69398 0
M  V30 6841 O 654.958 3.02863 2.79907 0
M  V30 6842 H 654.299 0.618577 0.241367 0
M  V30 6843 H 656.829 2.04207 0.126826 0
M  V30 6844 H 656.839 3.50567 2.08726 0
M  V30 6845 H 655.514 4.02238 1.05725 0
M  V30 6846 H 654.091 2.82056 2.43924 0
M  V30 6847 N 656.276 -0.40816 1.52223 0
M  V30 6848 C 657.501 -1.18127 1.70472 0
M  V30 6849 C 657.926 -1.83491 0.41384 0
M  V30 6850 O 657.284 -1.70047 -0.628778 0
M  V30 6851 C 657.332 -2.21935 2.84213 0
M  V30 6852 O 656.436 -3.28099 2.4985 0
M  V30 6853 H 655.777 -0.344781 0.56747 0
M  V30 6854 H 658.307 -0.478328 1.9893 0
M  V30 6855 H 658.317 -2.66248 3.09153 0
M  V30 6856 H 656.992 -1.73744 3.7787 0
M  V30 6857 H 655.569 -2.89058 2.35584 0
M  V30 6858 N 657.755 -1.42862 -0.66545 0
M  V30 6859 C 658.98 -1.47456 -1.45848 0
M  V30 6860 C 659.405 -0.0900312 -1.87884 0
M  V30 6861 O 658.763 0.913587 -1.56599 0
M  V30 6862 C 658.811 -2.41514 -2.67774 0
M  V30 6863 O 657.915 -1.89296 -3.66389 0
M  V30 6864 H 657.256 -0.499236 -0.437789 0
M  V30 6865 H 659.786 -1.8765 -0.815394 0
M  V30 6866 H 659.796 -2.58409 -3.15735 0
M  V30 6867 H 658.471 -3.42099 -2.36519 0
M  V30 6868 H 657.048 -1.82003 -3.25468 0
M  V30 6869 N 659.233 0.902656 -1.29189 0
M  V30 6870 C 660.196 1.98797 -1.14071 0
M  V30 6871 C 661.196 1.60615 -0.0770549 0
M  V30 6872 O 662.386 1.71165 -0.323753 0
M  V30 6873 C 659.518 3.32688 -0.743739 0
M  V30 6874 H 660.711 2.13637 -2.10473 0
M  V30 6875 H 658.264 1.08678 -1.12334 0
M  V30 6876 H 658.999 3.23549 0.220554 0
M  V30 6877 H 658.784 3.61765 -1.51223 0
M  V30 6878 H 660.274 4.12337 -0.660935 0
M  V30 6879 N 660.711 1.11618 1.11262 0
M  V30 6880 C 661.959 0.864469 1.82678 0
M  V30 6881 C 662.28 -0.611564 1.85162 0
M  V30 6882 O 661.55 -1.44429 1.32352 0
M  V30 6883 H 660.13 0.316821 0.676486 0
M  V30 6884 H 662.792 1.40894 1.34666 0
M  V30 6885 H 661.888 1.23832 2.86482 0
M  V30 6886 N 662.189 -1.289 0.906776 0
M  V30 6887 C 663.6 -1.77336 0.58384 0
M  V30 6888 C 663.951 -1.74304 -0.900697 0
M  V30 6889 O 663.076 -1.33335 -1.70443 0
M  V30 6890 C 663.671 -3.22019 1.05304 0
M  V30 6891 C 662.23 -3.68205 0.781148 0
M  V30 6892 C 661.377 -2.48837 1.22373 0
M  V30 6893 H 664.328 -1.15462 1.08877 0
M  V30 6894 H 664.349 -3.78481 0.391414 0
M  V30 6895 H 663.861 -3.24194 2.13353 0
M  V30 6896 H 661.962 -3.71497 -0.28643 0
M  V30 6897 H 662.075 -4.58675 1.384 0
M  V30 6898 H 660.439 -2.46461 0.642594 0
M  V30 6899 H 661.222 -2.53736 2.31242 0
M  V30 6900 N 663.667 -0.670007 -1.42649 0
M  V30 6901 C 664.915 -0.18991 -2.01206 0
M  V30 6902 C 665.236 1.20617 -1.53221 0
M  V30 6903 O 664.506 1.80898 -0.751856 0
M  V30 6904 H 663.086 -0.0672189 -0.743969 0
M  V30 6905 H 665.748 -0.865442 -1.74631 0
M  V30 6906 H 664.844 -0.187481 -3.11536 0
M  V30 6907 N 665.145 1.52092 -0.413018 0
M  V30 6908 C 666.075 2.30021 0.401567 0
M  V30 6909 C 667.056 1.34395 1.04269 0
M  V30 6910 O 668.241 1.63304 1.05097 0
M  V30 6911 C 665.371 3.12447 1.51638 0
M  V30 6912 C 664.325 4.16153 1.00005 0
M  V30 6913 C 663.651 4.86948 2.20875 0
M  V30 6914 C 664.951 5.22275 0.0513757 0
M  V30 6915 H 666.645 2.98365 -0.248704 0
M  V30 6916 H 664.191 1.4349 -0.121052 0
M  V30 6917 H 666.144 3.65733 2.09326 0
M  V30 6918 H 664.868 2.41879 2.19458 0
M  V30 6919 H 663.527 3.63882 0.445549 0
M  V30 6920 H 663.175 4.12905 2.8726 0
M  V30 6921 H 662.875 5.57057 1.86978 0
M  V30 6922 H 664.399 5.43048 2.79162 0
M  V30 6923 H 665.813 5.70778 0.537176 0
M  V30 6924 H 664.21 5.9977 -0.198977 0
M  V30 6925 H 665.28 4.76611 -0.892736 0
M  V30 6926 N 666.623 0.143563 1.56945 0
M  V30 6927 C 667.553 -0.7936 2.196 0
M  V30 6928 C 668.534 -1.25955 1.14321 0
M  V30 6929 O 669.719 -1.31773 1.42651 0
M  V30 6930 C 666.849 -2.03424 2.81489 0
M  V30 6931 C 665.803 -1.70519 3.92565 0
M  V30 6932 C 665.129 -3.01817 4.41373 0
M  V30 6933 C 666.429 -0.95449 5.13504 0
M  V30 6934 H 668.123 -0.271423 2.98167 0
M  V30 6935 H 665.669 -0.12911 1.4342 0
M  V30 6936 H 667.622 -2.69463 3.23987 0
M  V30 6937 H 666.346 -2.58008 2.00248 0
M  V30 6938 H 665.005 -1.06859 3.5068 0
M  V30 6939 H 664.653 -3.54386 3.56959 0
M  V30 6940 H 664.353 -2.80565 5.16292 0
M  V30 6941 H 665.877 -3.68934 4.86539 0
M  V30 6942 H 667.291 -1.5169 5.52868 0
M  V30 6943 H 665.688 -0.842035 5.94163 0
M  V30 6944 H 666.758 0.0544033 4.84869 0
M  V30 6945 N 668.101 -1.57061 -0.130224 0
M  V30 6946 C 669.048 -1.99517 -1.16024 0
M  V30 6947 C 670.018 -0.865452 -1.41771 0
M  V30 6948 O 671.203 -1.12882 -1.53826 0
M  V30 6949 C 668.343 -2.3951 -2.48453 0
M  V30 6950 C 667.456 -3.65848 -2.29737 0
M  V30 6951 C 666.591 -3.9487 -3.55318 0
M  V30 6952 C 665.63 -5.14426 -3.31711 0
M  V30 6953 N 664.767 -5.39375 -4.49466 0
M  V30 6954 H 669.607 -2.87305 -0.791194 0
M  V30 6955 H 667.144 -1.42129 -0.379195 0
M  V30 6956 H 669.102 -2.60731 -3.25692 0
M  V30 6957 H 667.732 -1.54779 -2.83272 0
M  V30 6958 H 666.784 -3.52307 -1.4347 0
M  V30 6959 H 668.096 -4.53241 -2.08263 0
M  V30 6960 H 667.25 -4.16679 -4.4098 0
M  V30 6961 H 665.989 -3.05931 -3.79813 0
M  V30 6962 H 664.994 -4.92473 -2.44439 0
M  V30 6963 H 666.219 -6.04933 -3.08598 0
M  V30 6964 H 664.165 -4.53391 -4.74102 0
M  V30 6965 H 664.082 -6.21069 -4.31055 0
M  V30 6966 H 665.35 -5.65694 -5.36293 0
M  V30 6967 N 669.579 0.400081 -1.52437 0
M  V30 6968 C 670.542 1.4707 -1.75793 0
M  V30 6969 C 671.542 1.48036 -0.627856 0
M  V30 6970 O 672.732 1.49401 -0.895817 0
M  V30 6971 C 669.864 2.86427 -1.84858 0
M  V30 6972 H 671.057 1.27649 -2.71377 0
M  V30 6973 H 668.61 0.631141 -1.42991 0
M  V30 6974 H 669.345 3.11207 -0.912194 0
M  V30 6975 H 669.13 2.87128 -2.6702 0
M  V30 6976 H 670.62 3.64023 -2.04638 0
M  V30 6977 N 671.057 1.43213 0.657864 0
M  V30 6978 C 672.287 1.478 1.44356 0
M  V30 6979 C 672.695 0.0930206 1.88971 0
M  V30 6980 O 672.038 -0.906089 1.59799 0
M  V30 6981 C 672.1 2.35745 2.71412 0
M  V30 6982 C 671.764 3.83359 2.48767 0
M  V30 6983 C 672.761 4.74585 2.12285 0
M  V30 6984 C 670.446 4.27799 2.63235 0
M  V30 6985 C 672.44 6.08247 1.90562 0
M  V30 6986 C 670.127 5.61516 2.41128 0
M  V30 6987 C 671.125 6.51557 2.04847 0
M  V30 6988 O 670.813 7.82802 1.82967 0
M  V30 6989 H 670.545 0.504363 0.450104 0
M  V30 6990 H 673.099 1.88572 0.814241 0
M  V30 6991 H 671.329 1.89852 3.36887 0
M  V30 6992 H 673.018 2.31589 3.33348 0
M  V30 6993 H 673.784 4.41531 2.00687 0
M  V30 6994 H 669.663 3.57993 2.90451 0
M  V30 6995 H 673.207 6.78489 1.62168 0
M  V30 6996 H 669.104 5.94139 2.52327 0
M  V30 6997 H 669.872 7.94332 1.97429 0
M  V30 6998 N 672.536 -0.895792 1.29666 0
M  V30 6999 C 673.761 -1.68528 1.20885 0
M  V30 7000 C 674.186 -1.8673 -0.226595 0
M  V30 7001 O 673.544 -1.39044 -1.16347 0
M  V30 7002 C 673.592 -3.04512 1.93144 0
M  V30 7003 O 672.696 -3.92963 1.25115 0
M  V30 7004 H 672.037 -0.515371 0.418675 0
M  V30 7005 H 674.567 -1.11878 1.71302 0
M  V30 7006 H 674.577 -3.54628 2.0175 0
M  V30 7007 H 673.252 -2.90582 2.97548 0
M  V30 7008 H 671.829 -3.51399 1.24794 0
M  V30 7009 N 674.014 -1.12206 -1.10668 0
M  V30 7010 C 675.263 -0.870595 -1.81944 0
M  V30 7011 C 675.576 0.605447 -1.85994 0
M  V30 7012 O 676.782 0.973433 -2.53449 0
M  V30 7013 C 675.238 -1.50783 -3.26791 0
M  V30 7014 C 674.846 -3.01849 -3.31046 0
M  V30 7015 C 676.59 -1.33653 -4.02911 0
M  V30 7016 C 674.497 -3.58518 -4.70339 0
M  V30 7017 H 673.427 -0.322043 -0.681765 0
M  V30 7018 H 676.078 -1.34827 -1.24475 0
M  V30 7019 H 674.46 -0.957825 -3.84242 0
M  V30 7020 H 675.634 -3.63321 -2.83433 0
M  V30 7021 H 673.949 -3.18346 -2.68411 0
M  V30 7022 H 676.546 -1.73416 -5.05797 0
M  V30 7023 H 676.889 -0.279949 -4.15358 0
M  V30 7024 H 677.422 -1.85562 -3.51868 0
M  V30 7025 H 674.161 -4.63925 -4.63091 0
M  V30 7026 H 673.681 -3.01819 -5.18329 0
M  V30 7027 H 675.36 -3.57434 -5.39305 0
M  V30 7028 N 675.492 1.28418 -0.913599 0
M  V30 7029 C 676.908 1.47411 -0.611728 0
M  V30 7030 C 677.108 1.83018 0.843008 0
M  V30 7031 O 676.164 1.93505 1.6221 0
M  V30 7032 C 677.477 2.57703 -1.5495 0
M  V30 7033 C 679.025 2.71572 -1.5562 0
M  V30 7034 C 679.5 3.85008 -2.48058 0
M  V30 7035 N 680.991 3.92361 -2.46184 0
M  V30 7036 C 681.726 4.79516 -3.14407 0
M  V30 7037 N 681.222 5.71262 -3.91958 0
M  V30 7038 N 683.015 4.73125 -3.03495 0
M  V30 7039 H 675.166 1.03585 -1.85429 0
M  V30 7040 H 677.429 0.515907 -0.795326 0
M  V30 7041 H 677.135 2.38298 -2.58663 0
M  V30 7042 H 677.009 3.54801 -1.28048 0
M  V30 7043 H 679.396 2.90366 -0.526441 0
M  V30 7044 H 679.477 1.75006 -1.86565 0
M  V30 7045 H 679.121 3.66969 -3.51136 0
M  V30 7046 H 679.051 4.80971 -2.14416 0
M  V30 7047 H 681.542 3.26749 -1.89851 0
M  V30 7048 H 681.855 6.34593 -4.41034 0
M  V30 7049 H 680.2 5.71103 -3.96063 0
M  V30 7050 H 683.391 4.00442 -2.42413 0
M  V30 7051 H 683.564 5.40834 -3.56935 0
M  V30 7052 N 676.97 0.677563 1.42291 0
M  V30 7053 C 678.198 0.209459 2.05837 0
M  V30 7054 C 678.613 -1.13444 1.50917 0
M  V30 7055 O 677.97 -1.70529 0.65008 0
M  V30 7056 C 678.021 0.138819 3.61233 0
M  V30 7057 O 677.742 1.42962 4.14118 0
M  V30 7058 C 679.243 -0.352449 4.41897 0
M  V30 7059 H 676.463 0.101209 0.663323 0
M  V30 7060 H 679.007 0.925077 1.8238 0
M  V30 7061 H 677.162 -0.527505 3.83792 0
M  V30 7062 H 677.576 1.3048 5.08011 0
M  V30 7063 H 679.05 -0.350778 5.50884 0
M  V30 7064 H 679.527 -1.3882 4.16684 0
M  V30 7065 H 680.133 0.282236 4.24362 0
M  V30 7066 N 678.448 -1.51871 0.421078 0
M  V30 7067 C 679.411 -2.25914 -0.386712 0
M  V30 7068 C 680.411 -1.28733 -0.963555 0
M  V30 7069 O 681.601 -1.52579 -0.840556 0
M  V30 7070 C 678.733 -3.03853 -1.54551 0
M  V30 7071 H 679.926 -2.98754 0.261978 0
M  V30 7072 H 677.479 -1.5533 0.173862 0
M  V30 7073 H 678.214 -2.35392 -2.23072 0
M  V30 7074 H 677.999 -3.75215 -1.13824 0
M  V30 7075 H 679.489 -3.59984 -2.11663 0
M  V30 7076 N 679.926 -0.151884 -1.56866 0
M  V30 7077 C 681.151 0.508044 -2.01081 0
M  V30 7078 C 681.576 1.57306 -1.03134 0
M  V30 7079 O 680.934 1.81298 -0.0078309 0
M  V30 7080 C 680.982 1.08106 -3.44014 0
M  V30 7081 O 680.086 2.19577 -3.49084 0
M  V30 7082 H 679.427 0.123757 -0.652365 0
M  V30 7083 H 681.957 -0.250055 -2.03066 0
M  V30 7084 H 681.967 1.40851 -3.82916 0
M  V30 7085 H 680.642 0.301168 -4.14808 0
M  V30 7086 H 679.219 1.88023 -3.22027 0
M  V30 7087 N 681.404 1.57128 0.121893 0
M  V30 7088 C 682.367 1.99197 1.13372 0
M  V30 7089 C 683.367 0.881728 1.3447 0
M  V30 7090 O 684.557 1.14783 1.31036 0
M  V30 7091 C 681.689 2.32963 2.4888 0
M  V30 7092 H 682.882 2.89788 0.772204 0
M  V30 7093 H 680.435 1.51952 0.366093 0
M  V30 7094 H 681.17 1.45243 2.89957 0
M  V30 7095 H 680.955 3.13934 2.34921 0
M  V30 7096 H 682.445 2.66261 3.21706 0
M  V30 7097 N 682.882 -0.391992 1.52647 0
M  V30 7098 C 684.107 -1.16312 1.71716 0
M  V30 7099 C 684.532 -1.83042 0.433279 0
M  V30 7100 O 683.89 -1.70705 -0.610707 0
M  V30 7101 C 683.938 -2.18908 2.86551 0
M  V30 7102 O 683.042 -3.2543 2.53316 0
M  V30 7103 H 682.383 -0.338743 0.571095 0
M  V30 7104 H 684.913 -0.457202 1.99426 0
M  V30 7105 H 684.923 -2.62954 3.1196 0
M  V30 7106 H 683.598 -1.69726 3.79692 0
M  V30 7107 H 682.175 -2.86543 2.38637 0
M  V30 7108 N 684.36 -1.4356 -0.65026 0
M  V30 7109 C 685.776 -1.27025 -0.966269 0
M  V30 7110 C 685.976 -0.192117 -2.00582 0
M  V30 7111 O 685.032 0.428459 -2.48838 0
M  V30 7112 C 686.345 -2.63556 -1.44772 0
M  V30 7113 C 687.893 -2.71111 -1.56421 0
M  V30 7114 C 688.368 -4.08067 -2.07956 0
M  V30 7115 N 689.859 -4.10146 -2.15254 0
M  V30 7116 C 690.594 -5.12952 -2.56258 0
M  V30 7117 N 690.09 -6.26129 -2.96537 0
M  V30 7118 N 691.883 -5.00306 -2.56224 0
M  V30 7119 H 684.034 -2.12367 0.0375758 0
M  V30 7120 H 686.297 -0.946894 -0.0457782 0
M  V30 7121 H 686.003 -3.43429 -0.758271 0
M  V30 7122 H 685.877 -2.89152 -2.42221 0
M  V30 7123 H 688.264 -1.91569 -2.24467 0
M  V30 7124 H 688.345 -2.49277 -0.573967 0
M  V30 7125 H 687.989 -4.88077 -1.40511 0
M  V30 7126 H 687.919 -4.27266 -3.07817 0
M  V30 7127 H 690.41 -3.28453 -1.86887 0
M  V30 7128 H 690.723 -7.00403 -3.26582 0
M  V30 7129 H 689.068 -6.29597 -2.94334 0
M  V30 7130 H 692.259 -4.10952 -2.24135 0
M  V30 7131 H 692.432 -5.80553 -2.87857 0
M  V30 7132 N 685.838 0.888903 -1.30139 0
M  V30 7133 C 687.254 1.17153 -1.08385 0
M  V30 7134 C 687.454 2.0088 0.157925 0
M  V30 7135 O 686.51 2.37668 0.852652 0
M  V30 7136 C 687.823 1.882 -2.34523 0
M  V30 7137 C 689.371 2.00981 -2.39949 0
M  V30 7138 C 689.846 2.75441 -3.65918 0
M  V30 7139 N 691.337 2.82989 -3.66704 0
M  V30 7140 C 692.072 3.41167 -4.60861 0
M  V30 7141 N 691.568 4.00425 -5.6536 0
M  V30 7142 N 693.361 3.38944 -4.48412 0
M  V30 7143 H 685.512 0.33053 -2.09812 0
M  V30 7144 H 687.775 0.208964 -0.924683 0
M  V30 7145 H 687.481 1.34119 -3.25123 0
M  V30 7146 H 687.355 2.88609 -2.42868 0
M  V30 7147 H 689.742 2.54234 -1.4983 0
M  V30 7148 H 689.823 0.996725 -2.35582 0
M  V30 7149 H 689.467 2.22861 -4.56394 0
M  V30 7150 H 689.397 3.77118 -3.67546 0
M  V30 7151 H 691.888 2.40912 -2.91153 0
M  V30 7152 H 692.201 4.42871 -6.33313 0
M  V30 7153 H 690.546 3.98856 -5.69157 0
M  V30 7154 H 693.737 2.91875 -3.6596 0
M  V30 7155 H 693.91 3.83989 -5.21974 0
M  V30 7156 N 687.317 1.12792 1.10072 0
M  V30 7157 C 688.542 0.908838 1.86427 0
M  V30 7158 C 688.967 -0.536793 1.80278 0
M  V30 7159 O 688.325 -1.38033 1.17543 0
M  V30 7160 C 688.373 1.39295 3.3261 0
M  V30 7161 O 687.477 0.573846 4.08388 0
M  V30 7162 H 686.818 0.326234 0.578331 0
M  V30 7163 H 689.348 1.50094 1.39043 0
M  V30 7164 H 689.358 1.39366 3.83459 0
M  V30 7165 H 688.033 2.44555 3.36401 0
M  V30 7166 H 686.61 0.640438 3.67359 0
M  V30 7167 N 688.795 -1.27931 0.920396 0
M  V30 7168 C 689.758 -2.25345 0.41858 0
M  V30 7169 C 690.758 -1.54116 -0.458798 0
M  V30 7170 O 691.948 -1.72235 -0.260912 0
M  V30 7171 C 689.08 -3.38556 -0.399104 0
M  V30 7172 H 690.273 -2.71251 1.27918 0
M  V30 7173 H 687.826 -1.39728 0.700406 0
M  V30 7174 H 688.561 -2.98021 -1.27882 0
M  V30 7175 H 688.346 -3.91426 0.229863 0
M  V30 7176 H 689.836 -4.10976 -0.740817 0
M  V30 7177 N 690.273 -0.685099 -1.4193 0
M  V30 7178 C 691.689 -0.355632 -1.55587 0
M  V30 7179 C 691.889 1.13823 -1.66273 0
M  V30 7180 O 690.945 1.92387 -1.63534 0
M  V30 7181 C 692.258 -1.09498 -2.80055 0
M  V30 7182 C 693.806 -1.07831 -2.93839 0
M  V30 7183 C 694.281 -1.79919 -4.21181 0
M  V30 7184 N 695.772 -1.76837 -4.28115 0
M  V30 7185 C 696.507 -2.29463 -5.25485 0
M  V30 7186 N 696.003 -2.90516 -6.28945 0
M  V30 7187 N 697.796 -2.19779 -5.17353 0
M  V30 7188 H 689.947 -1.65412 -1.33239 0
M  V30 7189 H 692.21 -0.697453 -0.642078 0
M  V30 7190 H 691.916 -2.14997 -2.78333 0
M  V30 7191 H 691.79 -0.666813 -3.71259 0
M  V30 7192 H 694.177 -0.0316152 -2.95083 0
M  V30 7193 H 694.258 -1.54545 -2.03837 0
M  V30 7194 H 693.902 -2.84562 -4.20698 0
M  V30 7195 H 693.832 -1.30647 -5.10136 0
M  V30 7196 H 696.323 -1.32315 -3.53979 0
M  V30 7197 H 696.636 -3.28266 -6.99615 0
M  V30 7198 H 694.981 -2.94589 -6.29478 0
M  V30 7199 H 698.172 -1.71763 -4.35448 0
M  V30 7200 H 698.345 -2.61097 -5.9307 0
M  V30 7201 N 691.751 1.51645 -0.429126 0
M  V30 7202 C 693.028 1.94579 0.199614 0
M  V30 7203 C 693.408 1.3673 1.60836 0
M  V30 7204 O 692.756 0.551062 2.21756 0
M  V30 7205 C 692.966 3.48506 0.185685 0
M  V30 7206 C 694.314 4.22756 0.395282 0
M  V30 7207 O 695.338 3.55219 0.264165 0
M  V30 7208 O 694.197 5.42555 0.655475 0
M  V30 7209 H 691.291 0.816007 0.134393 0
M  V30 7210 H 693.837 1.62577 -0.486513 0
M  V30 7211 H 692.609 3.83045 -0.799508 0
M  V30 7212 H 692.232 3.86927 0.91507 0
M  V30 7213 O 693.268 0.301146 1.58667 0
M  V30 7214 H 693.959 -0.263453 1.919 0
M  V30 END ATOM
M  V30 BEGIN BOND
M  V30 END BOND
M  V30 END CTAB
M  END
$$$$
