drugbank_target|P08773 Deoxycytidylate 5-hydroxymethyltransferase (DB03798)
 OpenBabel12092120283D

  0  0  0     0  0            999 V3000
M  V30 BEGIN CTAB
M  V30 COUNTS 3957 4007 0 0 0
M  V30 BEGIN ATOM
M  V30 1 H -0.908 1.98254 -0.117106 0
M  V30 2 N 0 1.576 0 0
M  V30 3 C 0.933 2.03868 1.02534 0
M  V30 4 C 1.911 0.928543 1.3348 0
M  V30 5 O 3.095 1.19667 1.45644 0
M  V30 6 C 0.222 2.43627 2.35294 0
M  V30 7 C -0.732 3.65373 2.2001 0
M  V30 8 S 0.101 5.13292 1.52614 0
M  V30 9 C 1.257 5.56322 2.86805 0
M  V30 10 H 1.49 2.90518 0.631377 0
M  V30 11 H -0.977 1.52953 0.210867 0
M  V30 12 H 0.981 2.67203 3.11629 0
M  V30 13 H -0.358 1.57376 2.7183 0
M  V30 14 H -1.165 3.90944 3.18086 0
M  V30 15 H -1.563 3.418 1.51819 0
M  V30 16 H 0.729 5.58782 3.83104 0
M  V30 17 H 1.672 6.56266 2.65933 0
M  V30 18 H 2.08 4.83886 2.90714 0
M  V30 19 N 1.4781 -0.272755 1.55222 0
M  V30 20 C 2.7271 -1.00211 1.75045 0
M  V30 21 C 3.0401 -1.87441 0.559046 0
M  V30 22 O 4.2461 -2.63856 0.639698 0
M  V30 23 C 2.7021 -1.83165 3.09804 0
M  V30 24 C 2.3101 -1.008 4.36513 0
M  V30 25 C 4.0541 -2.55529 3.38977 0
M  V30 26 C 1.9611 -1.83194 5.62311 0
M  V30 27 H 0.8911 -0.377878 0.652476 0
M  V30 28 H 3.5421 -0.257776 1.8168 0
M  V30 29 H 1.9241 -2.61694 2.97207 0
M  V30 30 H 3.0981 -0.266855 4.60027 0
M  V30 31 H 1.4131 -0.398897 4.14485 0
M  V30 32 H 4.0101 -3.17578 4.30172 0
M  V30 33 H 4.3531 -3.25825 2.59121 0
M  V30 34 H 4.8861 -1.84029 3.52673 0
M  V30 35 H 1.6251 -1.17318 6.44916 0
M  V30 36 H 1.1451 -2.54905 5.4294 0
M  V30 37 H 2.8241 -2.40552 6.00619 0
M  V30 38 N 2.9562 -1.48159 -0.537278 0
M  V30 39 C 4.1812 -1.59707 -1.32319 0
M  V30 40 C 4.6062 -0.254859 -1.86365 0
M  V30 41 O 3.9642 0.772378 -1.64024 0
M  V30 42 C 4.0122 -2.6412 -2.45505 0
M  V30 43 O 3.1162 -2.20774 -3.48328 0
M  V30 44 H 2.4572 -0.535791 -0.392204 0
M  V30 45 H 4.9872 -1.94092 -0.647268 0
M  V30 46 H 4.9972 -2.85166 -2.91795 0
M  V30 47 H 3.6722 -3.61567 -2.05528 0
M  V30 48 H 2.2492 -2.09911 -3.08207 0
M  V30 49 N 4.4343 0.785586 -1.36625 0
M  V30 50 C 5.7113 1.53198 -1.21613 0
M  V30 51 C 6.0913 2.10187 0.196113 0
M  V30 52 O 5.4393 1.94318 1.20219 0
M  V30 53 C 5.6493 2.62388 -2.30116 0
M  V30 54 C 6.9973 3.30167 -2.66974 0
M  V30 55 O 8.0213 2.72674 -2.29188 0
M  V30 56 O 6.8803 4.34077 -3.32023 0
M  V30 57 H 3.9743 0.677865 -0.473738 0
M  V30 58 H 6.5203 0.823739 -1.48367 0
M  V30 59 H 5.2923 2.18299 -3.24748 0
M  V30 60 H 4.9153 3.40827 -2.0475 0
M  V30 61 N 5.9124 1.20967 1.01018 0
M  V30 62 C 7.1374 1.0503 1.78839 0
M  V30 63 C 7.5624 -0.395752 1.8389 0
M  V30 64 O 6.9204 -1.28529 1.27867 0
M  V30 65 C 6.9684 1.64602 3.2084 0
M  V30 66 O 6.0724 0.887988 4.02726 0
M  V30 67 H 5.4134 0.369987 0.551367 0
M  V30 68 H 7.9434 1.60399 1.27018 0
M  V30 69 H 7.9534 1.68607 3.71532 0
M  V30 70 H 6.6284 2.69841 3.16479 0
M  V30 71 H 5.2054 0.922648 3.61305 0
M  V30 72 N 7.3905 -1.2043 1.01659 0
M  V30 73 C 8.3235 -2.21924 0.531521 0
M  V30 74 C 9.3015 -1.57054 -0.421032 0
M  V30 75 O 10.4855 -1.85389 -0.341035 0
M  V30 76 C 7.6125 -3.37942 -0.226496 0
M  V30 77 C 6.6585 -4.21115 0.67561 0
M  V30 78 S 7.4915 -4.90674 2.14475 0
M  V30 79 C 8.6475 -6.10113 1.3969 0
M  V30 80 H 8.8805 -2.62725 1.3915 0
M  V30 81 H 6.4135 -1.30481 0.825479 0
M  V30 82 H 8.3715 -4.05196 -0.657738 0
M  V30 83 H 7.0325 -2.956 -1.06205 0
M  V30 84 H 6.2255 -5.03918 0.091108 0
M  V30 85 H 5.8275 -3.59115 1.04463 0
M  V30 86 H 8.1195 -6.7411 0.676897 0
M  V30 87 H 9.0625 -6.73022 2.20107 0
M  V30 88 H 9.4705 -5.57283 0.899786 0
M  V30 89 N 8.8686 -0.792821 -1.36206 0
M  V30 90 C 10.0966 -0.378825 -2.03402 0
M  V30 91 C 10.5116 1.00586 -1.59774 0
M  V30 92 O 9.8686 1.64574 -0.788764 0
M  V30 93 C 9.9196 -0.43683 -3.58851 0
M  V30 94 O 9.6406 -1.76691 -4.00889 0
M  V30 95 C 11.1416 -0.0138943 -4.43298 0
M  V30 96 H 8.3616 -0.155673 -0.652692 0
M  V30 97 H 10.9056 -1.07261 -1.74113 0
M  V30 98 H 9.0606 0.208575 -3.86838 0
M  V30 99 H 9.4746 -1.72011 -4.95492 0
M  V30 100 H 10.9486 -0.105615 -5.51899 0
M  V30 101 H 11.4256 1.03915 -4.2673 0
M  V30 102 H 12.0316 -0.63192 -4.20579 0
M  V30 103 N 10.3467 1.47872 -0.545128 0
M  V30 104 C 11.5927 2.02793 -0.0166104 0
M  V30 105 C 11.9257 1.41987 1.32489 0
M  V30 106 O 11.2007 0.571045 1.85928 0
M  V30 107 C 11.4837 3.59989 0.0893294 0
M  V30 108 C 11.3367 4.3125 -1.27841 0
M  V30 109 C 12.6557 4.32606 0.808724 0
M  V30 110 H 9.7747 0.736962 -0.00751035 0
M  V30 111 H 12.4167 1.76433 -0.705085 0
M  V30 112 H 10.5667 3.82579 0.675681 0
M  V30 113 H 12.2387 4.20035 -1.90704 0
M  V30 114 H 10.4817 3.92076 -1.85632 0
M  V30 115 H 11.1527 5.39736 -1.15713 0
M  V30 116 H 13.6287 4.14936 0.310992 0
M  V30 117 H 12.5047 5.42251 0.851782 0
M  V30 118 H 12.7657 4.00963 1.86229 0
M  V30 119 N 11.8248 0.280983 1.55075 0
M  V30 120 C 12.7348 -0.61388 2.26426 0
M  V30 121 C 13.7508 -1.16521 1.29224 0
M  V30 122 O 14.9268 -1.19426 1.62171 0
M  V30 123 C 11.9918 -1.7788 2.9759 0
M  V30 124 C 11.0528 -1.26355 4.10284 0
M  V30 125 C 10.2858 -2.37295 4.78045 0
M  V30 126 O 10.5088 -3.56777 4.45047 0
M  V30 127 O 9.4428 -2.05119 5.65871 0
M  V30 128 H 13.2688 -0.0356932 3.03679 0
M  V30 129 H 10.8538 0.0481686 1.49322 0
M  V30 130 H 12.7358 -2.45791 3.42293 0
M  V30 131 H 11.4108 -2.34397 2.23249 0
M  V30 132 H 10.3178 -0.550735 3.70024 0
M  V30 133 H 11.6508 -0.744065 4.86543 0
M  V30 134 N 13.3029 -1.57598 0.00835791 0
M  V30 135 C 14.2129 -2.12385 -0.996487 0
M  V30 136 C 15.2289 -1.07108 -1.37127 0
M  V30 137 O 16.4049 -1.39055 -1.4569 0
M  V30 138 C 13.4699 -2.62314 -2.26699 0
M  V30 139 C 12.5309 -3.82225 -1.95456 0
M  V30 140 C 11.7639 -4.29763 -3.16449 0
M  V30 141 O 11.9869 -3.76584 -4.28416 0
M  V30 142 O 10.9209 -5.21832 -2.99958 0
M  V30 143 H 14.7469 -2.98479 -0.560725 0
M  V30 144 H 12.3319 -1.47903 -0.210987 0
M  V30 145 H 14.2139 -2.94589 -3.01322 0
M  V30 146 H 12.8889 -1.79313 -2.69497 0
M  V30 147 H 11.7959 -3.54909 -1.18282 0
M  V30 148 H 13.1289 -4.66324 -1.57489 0
M  V30 149 N 14.781 0.264519 -1.55364 0
M  V30 150 C 16.03 0.992812 -1.75574 0
M  V30 151 C 16.343 1.87142 -0.568979 0
M  V30 152 O 17.549 2.63513 -0.653682 0
M  V30 153 C 16.005 1.81519 -3.10771 0
M  V30 154 C 15.613 0.984839 -4.37041 0
M  V30 155 C 17.357 2.53727 -3.40327 0
M  V30 156 C 15.264 1.80209 -5.63275 0
M  V30 157 H 14.194 0.374412 -0.65447 0
M  V30 158 H 16.845 0.248138 -1.81815 0
M  V30 159 H 15.227 2.60115 -2.98591 0
M  V30 160 H 16.401 0.242455 -4.60162 0
M  V30 161 H 14.716 0.37691 -4.14691 0
M  V30 162 H 17.313 3.15292 -4.3185 0
M  V30 163 H 17.656 3.24447 -2.60845 0
M  V30 164 H 18.189 1.82156 -3.53644 0
M  V30 165 H 14.928 1.13896 -6.45529 0
M  V30 166 H 14.448 2.52022 -5.44284 0
M  V30 167 H 16.127 2.37364 -6.01887 0
M  V30 168 N 16.2591 1.48442 0.529413 0
M  V30 169 C 17.6751 1.34575 0.858004 0
M  V30 170 C 17.8751 0.3572 1.98309 0
M  V30 171 O 16.9311 -0.221379 2.51528 0
M  V30 172 C 18.2441 2.74617 1.22499 0
M  V30 173 C 19.7921 2.83109 1.33484 0
M  V30 174 C 20.2671 4.23854 1.73526 0
M  V30 175 N 21.7581 4.2653 1.80628 0
M  V30 176 C 22.4931 5.32372 2.12997 0
M  V30 177 N 21.9891 6.48491 2.43786 0
M  V30 178 N 23.7821 5.19766 2.14008 0
M  V30 179 H 15.9331 2.1133 -0.212925 0
M  V30 180 H 18.1961 0.947439 -0.0326199 0
M  V30 181 H 17.9021 3.4852 0.471905 0
M  V30 182 H 17.7761 3.08177 2.17501 0
M  V30 183 H 20.1631 2.09462 2.0787 0
M  V30 184 H 20.2441 2.53168 0.366027 0
M  V30 185 H 19.8881 4.98018 0.997013 0
M  V30 186 H 19.8181 4.5124 2.71459 0
M  V30 187 H 22.3091 3.42772 1.59108 0
M  V30 188 H 22.6221 7.24993 2.67592 0
M  V30 189 H 20.9671 6.51765 2.41304 0
M  V30 190 H 24.1581 4.28066 1.89412 0
M  V30 191 H 24.3311 6.02354 2.38902 0
M  V30 192 N 17.7372 -0.778329 1.37039 0
M  V30 193 C 18.6672 -1.90546 1.34962 0
M  V30 194 C 19.6482 -1.68681 0.219274 0
M  V30 195 O 20.8332 -1.89634 0.418624 0
M  V30 196 C 17.9632 -3.27734 1.14925 0
M  V30 197 C 16.9172 -3.64147 2.24902 0
M  V30 198 C 16.2432 -4.99806 1.89996 0
M  V30 199 C 17.5432 -3.71579 3.67051 0
M  V30 200 H 19.2372 -1.92541 2.29277 0
M  V30 201 H 16.7832 -0.924948 1.10366 0
M  V30 202 H 18.7362 -4.06215 1.12104 0
M  V30 203 H 17.4602 -3.26154 0.170631 0
M  V30 204 H 16.1192 -2.8797 2.26868 0
M  V30 205 H 15.7672 -4.94759 0.906796 0
M  V30 206 H 15.4672 -5.25139 2.63634 0
M  V30 207 H 16.9912 -5.80694 1.88749 0
M  V30 208 H 18.4052 -4.40227 3.67251 0
M  V30 209 H 16.8022 -4.08405 4.39688 0
M  V30 210 H 17.8722 -2.72404 4.01154 0
M  V30 211 N 19.2153 -1.21501 -1.00376 0
M  V30 212 C 20.1653 -0.942843 -2.07592 0
M  V30 213 C 21.1493 0.102384 -1.60574 0
M  V30 214 O 22.3413 -0.10671 -1.76678 0
M  V30 215 C 19.4703 -0.510729 -3.3948 0
M  V30 216 C 18.5563 -1.59009 -3.93163 0
M  V30 217 N 18.9473 -2.81544 -4.20198 0
M  V30 218 C 17.2453 -1.45925 -4.21452 0
M  V30 219 C 17.9463 -3.51261 -4.63671 0
M  V30 220 N 16.9223 -2.78703 -4.66718 0
M  V30 221 H 20.7243 -1.87378 -2.26421 0
M  V30 222 H 18.2383 -1.11093 -1.18458 0
M  V30 223 H 20.2353 -0.297101 -4.1584 0
M  V30 224 H 18.8953 0.413436 -3.22057 0
M  V30 225 H 19.9063 -3.18075 -4.08716 0
M  V30 226 H 16.5833 -0.600467 -4.13159 0
M  V30 227 H 17.9733 -4.56183 -4.93302 0
M  V30 228 N 20.6934 1.19889 -1.02296 0
M  V30 229 C 21.6234 2.25141 -0.619174 0
M  V30 230 C 22.6044 1.66051 0.368915 0
M  V30 231 O 23.7894 1.92546 0.252941 0
M  V30 232 C 20.9194 3.4728 0.0368783 0
M  V30 233 C 19.8734 4.19005 -0.872865 0
M  V30 234 C 19.1994 5.34637 -0.0822402 0
M  V30 235 C 20.4994 4.74452 -2.18387 0
M  V30 236 H 22.1934 2.59171 -1.49903 0
M  V30 237 H 19.7394 1.24579 -0.722222 0
M  V30 238 H 21.6924 4.20098 0.330958 0
M  V30 239 H 20.4164 3.12433 0.95149 0
M  V30 240 H 19.0754 3.48061 -1.15105 0
M  V30 241 H 18.7234 4.96034 0.83422 0
M  V30 242 H 18.4234 5.83557 -0.688149 0
M  V30 243 H 19.9474 6.10255 0.205238 0
M  V30 244 H 21.3614 5.39055 -1.95172 0
M  V30 245 H 19.7584 5.33834 -2.74119 0
M  V30 246 H 20.8284 3.92844 -2.84257 0
M  V30 247 N 22.1715 0.800033 1.35784 0
M  V30 248 C 23.4195 0.376597 1.9856 0
M  V30 249 C 23.7405 -1.05812 1.63795 0
M  V30 250 O 23.0105 -1.73103 0.917171 0
M  V30 251 H 21.5905 0.136261 0.734467 0
M  V30 252 H 24.2525 1.02442 1.65806 0
M  V30 253 H 23.3485 0.477002 3.08433 0
M  V30 254 N 23.6496 -1.47581 0.552962 0
M  V30 255 C 24.5796 -2.32762 -0.185451 0
M  V30 256 C 25.5606 -1.43527 -0.912905 0
M  V30 257 O 26.7456 -1.72388 -0.894201 0
M  V30 258 C 23.8756 -3.25219 -1.21859 0
M  V30 259 C 22.8296 -4.23661 -0.607864 0
M  V30 260 C 22.1556 -5.05413 -1.74533 0
M  V30 261 C 23.4556 -5.20481 0.435582 0
M  V30 262 H 25.1496 -2.94749 0.525684 0
M  V30 263 H 22.6956 -1.41738 0.254251 0
M  V30 264 H 24.6486 -3.8365 -1.7433 0
M  V30 265 H 23.3726 -2.61279 -1.95961 0
M  V30 266 H 22.0316 -3.66451 -0.104489 0
M  V30 267 H 21.6796 -4.3788 -2.47529 0
M  V30 268 H 21.3796 -5.72059 -1.34249 0
M  V30 269 H 22.9036 -5.66701 -2.27338 0
M  V30 270 H 24.3176 -5.733 -0.00290157 0
M  V30 271 H 22.7146 -5.95305 0.757067 0
M  V30 272 H 23.7846 -4.66217 1.33303 0
M  V30 273 N 25.1277 -0.289203 -1.54924 0
M  V30 274 C 26.0907 0.579144 -2.21762 0
M  V30 275 C 27.0907 1.07047 -1.1999 0
M  V30 276 O 28.2807 0.968384 -1.44803 0
M  V30 277 C 25.4127 1.80055 -2.8947 0
M  V30 278 H 26.6057 -0.00464908 -2.999 0
M  V30 279 H 24.1587 -0.0399306 -1.56249 0
M  V30 280 H 24.8937 2.42449 -2.15381 0
M  V30 281 H 24.6787 1.45602 -3.64064 0
M  V30 282 H 26.1687 2.41773 -3.40493 0
M  V30 283 N 26.6058 1.57591 -0.0167156 0
M  V30 284 C 27.5358 2.12496 0.967858 0
M  V30 285 C 28.5168 1.03807 1.34752 0
M  V30 286 O 29.7018 1.31577 1.42833 0
M  V30 287 C 26.8318 2.64194 2.25431 0
M  V30 288 C 25.7858 3.77559 2.01576 0
M  V30 289 C 25.1118 4.15636 3.36379 0
M  V30 290 C 26.4118 5.04151 1.36489 0
M  V30 291 H 28.1058 2.95013 0.510643 0
M  V30 292 H 25.6518 1.41915 0.244181 0
M  V30 293 H 27.6048 3.01236 2.94678 0
M  V30 294 H 26.3288 1.78821 2.73296 0
M  V30 295 H 24.9878 3.40937 1.34751 0
M  V30 296 H 24.6358 3.27263 3.81979 0
M  V30 297 H 24.3358 4.92022 3.21229 0
M  V30 298 H 25.8598 4.5525 4.06915 0
M  V30 299 H 27.2738 5.38857 1.95718 0
M  V30 300 H 25.6708 5.85453 1.31776 0
M  V30 301 H 26.7408 4.83733 0.336219 0
M  V30 302 N 28.0839 -0.256276 1.55502 0
M  V30 303 C 29.0309 -1.31714 1.89526 0
M  V30 304 C 30.0009 -1.4828 0.748479 0
M  V30 305 O 31.1859 -1.62416 1.00128 0
M  V30 306 C 28.3259 -2.66933 2.18725 0
M  V30 307 C 27.4389 -2.58452 3.4616 0
M  V30 308 C 26.5739 -3.85961 3.64976 0
M  V30 309 C 25.6129 -3.72059 4.86044 0
M  V30 310 N 24.7499 -4.9144 5.01429 0
M  V30 311 H 29.5899 -1.01998 2.80001 0
M  V30 312 H 27.1269 -0.492413 1.38613 0
M  V30 313 H 29.0849 -3.4563 2.33657 0
M  V30 314 H 27.7149 -2.94816 1.31466 0
M  V30 315 H 26.7669 -1.71374 3.3961 0
M  V30 316 H 28.0789 -2.44085 4.34999 0
M  V30 317 H 27.2329 -4.73101 3.79816 0
M  V30 318 H 25.9719 -4.03215 2.74353 0
M  V30 319 H 24.9769 -2.83302 4.7119 0
M  V30 320 H 26.2019 -3.56309 5.78118 0
M  V30 321 H 24.1479 -5.09072 4.13741 0
M  V30 322 H 24.0649 -4.79668 5.84341 0
M  V30 323 H 25.3329 -5.80104 5.20672 0
M  V30 324 N 29.562 -1.4872 -0.521534 0
M  V30 325 C 30.472 -1.66569 -1.65203 0
M  V30 326 C 31.488 -0.548197 -1.65139 0
M  V30 327 O 32.664 -0.820339 -1.83936 0
M  V30 328 C 29.729 -1.70917 -3.01642 0
M  V30 329 C 28.79 -2.94356 -3.12495 0
M  V30 330 C 28.023 -2.98487 -4.42426 0
M  V30 331 O 28.246 -2.10786 -5.30024 0
M  V30 332 O 27.18 -3.90746 -4.57822 0
M  V30 333 H 31.006 -2.62298 -1.5308 0
M  V30 334 H 28.591 -1.3222 -0.695565 0
M  V30 335 H 30.473 -1.7625 -3.82771 0
M  V30 336 H 29.148 -0.783633 -3.14071 0
M  V30 337 H 28.055 -2.94552 -2.3063 0
M  V30 338 H 29.388 -3.86322 -3.04986 0
M  V30 339 N 31.0401 0.771051 -1.3745 0
M  V30 340 C 31.9871 1.88435 -1.3327 0
M  V30 341 C 32.9571 1.64914 -0.198136 0
M  V30 342 O 34.1421 1.86821 -0.387606 0
M  V30 343 C 31.2821 3.25509 -1.14622 0
M  V30 344 C 30.3951 3.60979 -2.37314 0
M  V30 345 C 29.5301 4.87265 -2.11533 0
M  V30 346 C 28.5691 5.15469 -3.30088 0
M  V30 347 N 27.7061 6.32944 -3.03853 0
M  V30 348 H 32.5461 1.91344 -2.28455 0
M  V30 349 H 30.0831 0.935466 -1.13523 0
M  V30 350 H 32.0411 4.04582 -1.01831 0
M  V30 351 H 30.6711 3.21974 -0.230837 0
M  V30 352 H 29.7231 2.76885 -2.60842 0
M  V30 353 H 31.0351 3.77759 -3.25729 0
M  V30 354 H 30.1891 5.74244 -1.95777 0
M  V30 355 H 28.9281 4.7259 -1.20457 0
M  V30 356 H 27.9331 4.26966 -3.46382 0
M  V30 357 H 29.1581 5.32052 -4.22016 0
M  V30 358 H 27.1041 6.19625 -2.15407 0
M  V30 359 H 27.0211 6.50143 -3.85812 0
M  V30 360 H 28.2891 7.22857 -2.91716 0
M  V30 361 N 32.5182 1.22032 0.997298 0
M  V30 362 C 33.7952 0.950823 1.70935 0
M  V30 363 C 34.1752 -0.535292 2.042 0
M  V30 364 O 33.5232 -1.50217 1.72183 0
M  V30 365 C 33.7332 1.84386 2.96315 0
M  V30 366 C 35.0812 2.09732 3.69185 0
M  V30 367 O 36.1052 1.81798 3.06314 0
M  V30 368 O 34.9642 2.57018 4.82291 0
M  V30 369 H 32.0582 0.357204 0.745878 0
M  V30 370 H 34.6042 1.32997 1.05404 0
M  V30 371 H 33.3762 2.84928 2.68201 0
M  V30 372 H 32.9992 1.46602 3.69586 0
M  V30 373 N 33.9963 -1.19345 1.0293 0
M  V30 374 C 35.2433 -1.89038 0.726008 0
M  V30 375 C 35.5713 -1.79649 -0.745427 0
M  V30 376 O 34.8263 -1.18354 -1.55855 0
M  V30 377 C 35.1253 -3.39292 1.12319 0
M  V30 378 C 34.7913 -3.68885 2.59297 0
M  V30 379 C 33.4533 -3.76671 2.99453 0
M  V30 380 C 35.8053 -3.82178 3.54386 0
M  V30 381 C 33.1333 -3.9522 4.33611 0
M  V30 382 C 35.4853 -4.0224 4.88248 0
M  V30 383 C 34.1493 -4.08259 5.28092 0
M  V30 384 H 33.4193 -0.691739 0.265665 0
M  V30 385 H 36.0663 -1.41328 1.29223 0
M  V30 386 H 34.3713 -3.88903 0.475584 0
M  V30 387 H 36.0683 -3.91536 0.866037 0
M  V30 388 H 32.6583 -3.63433 2.27189 0
M  V30 389 H 36.8423 -3.75505 3.24514 0
M  V30 390 H 32.0983 -3.98119 4.64016 0
M  V30 391 H 36.2723 -4.11468 5.61843 0
M  V30 392 H 33.8993 -4.22384 6.32057 0
M  V30 393 N 35.4744 -0.807222 -1.35358 0
M  V30 394 C 36.7204 -0.388463 -1.99045 0
M  V30 395 C 37.0534 1.04184 -1.63888 0
M  V30 396 O 36.3284 1.72292 -0.902535 0
M  V30 397 C 36.6114 -0.572783 -3.55515 0
M  V30 398 C 36.4644 -2.04807 -4.00468 0
M  V30 399 C 37.7834 0.00114064 -4.401 0
M  V30 400 H 34.9024 -0.142619 -0.723069 0
M  V30 401 H 37.5444 -1.01687 -1.60498 0
M  V30 402 H 35.6944 -0.0378425 -3.88482 0
M  V30 403 H 37.3664 -2.64544 -3.77908 0
M  V30 404 H 35.6094 -2.54427 -3.51353 0
M  V30 405 H 36.2804 -2.12792 -5.09337 0
M  V30 406 H 38.7564 -0.455716 -4.13597 0
M  V30 407 H 37.6324 -0.157737 -5.48673 0
M  V30 408 H 37.8934 1.09488 -4.28328 0
M  V30 409 N 36.9525 1.47285 -0.560781 0
M  V30 410 C 38.1985 2.02764 -0.0381184 0
M  V30 411 C 38.5315 1.43384 1.30976 0
M  V30 412 O 37.8065 0.590733 1.85312 0
M  V30 413 C 38.0895 3.60064 0.0511427 0
M  V30 414 C 37.9425 4.2987 -1.32408 0
M  V30 415 C 39.2615 4.33439 0.762795 0
M  V30 416 H 36.3805 0.736841 -0.0153264 0
M  V30 417 H 39.0225 1.75675 -0.723759 0
M  V30 418 H 37.1725 3.83274 0.635065 0
M  V30 419 H 38.8445 4.17989 -1.95148 0
M  V30 420 H 37.0875 3.90085 -1.8978 0
M  V30 421 H 37.7585 5.38478 -1.21431 0
M  V30 422 H 40.2345 4.15243 0.266965 0
M  V30 423 H 39.1105 5.43124 0.794221 0
M  V30 424 H 39.3715 4.02915 1.81966 0
M  V30 425 N 38.4306 0.297415 1.54768 0
M  V30 426 C 39.7076 -0.365847 1.92148 0
M  V30 427 C 40.0876 -1.71975 1.22424 0
M  V30 428 O 39.4356 -2.25666 0.358739 0
M  V30 429 C 39.6456 -0.484056 3.45627 0
M  V30 430 C 40.9936 -0.756594 4.17805 0
M  V30 431 O 42.0176 -0.568007 3.51642 0
M  V30 432 O 40.8766 -1.11863 5.34929 0
M  V30 433 H 37.9706 -0.203919 0.801465 0
M  V30 434 H 40.5166 0.34521 1.66152 0
M  V30 435 H 39.2886 0.467865 3.88493 0
M  V30 436 H 38.9116 -1.24372 3.77647 0
M  V30 437 N 39.9087 -1.5758 0.0250728 0
M  V30 438 C 40.8557 -2.09973 -0.958129 0
M  V30 439 C 41.8257 -1.00085 -1.3256 0
M  V30 440 O 43.0107 -1.27481 -1.41962 0
M  V30 441 C 40.1507 -2.62812 -2.2366 0
M  V30 442 C 39.2637 -3.86693 -1.92594 0
M  V30 443 C 38.3987 -4.27941 -3.14707 0
M  V30 444 C 37.4377 -5.44591 -2.79442 0
M  V30 445 N 36.5747 -5.81014 -3.94167 0
M  V30 446 H 41.4147 -2.937 -0.504428 0
M  V30 447 H 38.9517 -1.45172 -0.237392 0
M  V30 448 H 40.9097 -2.91536 -2.98434 0
M  V30 449 H 39.5397 -1.81922 -2.66654 0
M  V30 450 H 38.5917 -3.64723 -1.0808 0
M  V30 451 H 39.9037 -4.71547 -1.62619 0
M  V30 452 H 39.0577 -4.58079 -3.97804 0
M  V30 453 H 37.7967 -3.41845 -3.4784 0
M  V30 454 H 36.8017 -5.1415 -1.94755 0
M  V30 455 H 38.0267 -6.32382 -2.47528 0
M  V30 456 H 35.9727 -4.97874 -4.2715 0
M  V30 457 H 35.8897 -6.60498 -3.67801 0
M  V30 458 H 37.1577 -6.15756 -4.7798 0
M  V30 459 N 41.3868 0.248026 -1.55636 0
M  V30 460 C 42.6148 0.993808 -1.81469 0
M  V30 461 C 43.0298 1.78991 -0.60064 0
M  V30 462 O 42.3868 1.77345 0.430682 0
M  V30 463 C 42.4378 1.93258 -3.05506 0
M  V30 464 O 42.1588 1.16869 -4.22224 0
M  V30 465 C 43.6598 2.79444 -3.4413 0
M  V30 466 H 40.8798 0.292486 -0.603898 0
M  V30 467 H 43.4238 0.271253 -2.02693 0
M  V30 468 H 41.5788 2.60943 -2.86335 0
M  V30 469 H 41.9928 1.80359 -4.92515 0
M  V30 470 H 43.4668 3.41066 -4.34026 0
M  V30 471 H 43.9438 3.50499 -2.64665 0
M  V30 472 H 44.5498 2.17214 -3.65648 0
M  V30 473 N 42.8649 1.48995 0.513639 0
M  V30 474 C 44.1129 1.57531 1.26604 0
M  V30 475 C 44.4339 0.258236 1.93283 0
M  V30 476 O 43.7039 -0.721502 1.8213 0
M  V30 477 H 42.2839 0.580387 0.470276 0
M  V30 478 H 44.9459 1.85552 0.596373 0
M  V30 479 H 44.0419 2.36486 2.03669 0
M  V30 480 N 44.343 -0.763751 1.37857 0
M  V30 481 C 45.589 -1.52483 1.33704 0
M  V30 482 C 45.922 -1.94051 -0.0759612 0
M  V30 483 O 45.197 -1.64675 -1.03501 0
M  V30 484 C 45.48 -2.78441 2.28348 0
M  V30 485 C 45.333 -2.43075 3.78463 0
M  V30 486 C 46.652 -3.80415 2.21298 0
M  V30 487 H 43.771 -0.553169 0.487005 0
M  V30 488 H 46.413 -0.875562 1.68624 0
M  V30 489 H 44.563 -3.33842 1.987 0
M  V30 490 H 46.235 -1.93527 4.18742 0
M  V30 491 H 44.478 -1.75666 3.96641 0
M  V30 492 H 45.149 -3.33149 4.40132 0
M  V30 493 H 47.625 -3.34527 2.47449 0
M  V30 494 H 46.501 -4.66257 2.89647 0
M  V30 495 H 46.762 -4.25262 1.20849 0
M  V30 496 N 45.8211 -1.22559 -0.990812 0
M  V30 497 C 46.7681 -0.997519 -2.0813 0
M  V30 498 C 47.7381 0.0814702 -1.659 0
M  V30 499 O 48.9231 -0.0685424 -1.90677 0
M  V30 500 C 46.0631 -0.583615 -3.40129 0
M  V30 501 C 45.1761 -1.7336 -3.9569 0
M  V30 502 C 44.3111 -1.26748 -5.15857 0
M  V30 503 C 43.3501 -2.38888 -5.63559 0
M  V30 504 N 42.4871 -1.93308 -6.74964 0
M  V30 505 H 47.3271 -1.93099 -2.26973 0
M  V30 506 H 44.8641 -0.962114 -1.11273 0
M  V30 507 H 46.8221 -0.324801 -4.15934 0
M  V30 508 H 45.4521 0.312845 -3.2128 0
M  V30 509 H 44.5041 -2.10669 -3.16738 0
M  V30 510 H 45.8161 -2.57704 -4.27071 0
M  V30 511 H 44.9701 -0.966173 -5.98957 0
M  V30 512 H 43.7091 -0.394272 -4.86104 0
M  V30 513 H 42.7141 -2.69805 -4.79046 0
M  V30 514 H 43.9391 -3.26728 -5.95336 0
M  V30 515 H 41.8851 -1.08352 -6.4699 0
M  V30 516 H 41.8021 -2.71217 -7.05675 0
M  V30 517 H 43.0701 -1.66252 -7.61564 0
M  V30 518 N 47.2992 1.18797 -1.03562 0
M  V30 519 C 48.5272 1.92599 -0.755869 0
M  V30 520 C 48.9422 1.75886 0.686271 0
M  V30 521 O 48.2992 1.08517 1.46732 0
M  V30 522 C 48.3502 3.44159 -1.10619 0
M  V30 523 O 48.0712 3.60341 -2.4917 0
M  V30 524 C 49.5722 4.3507 -0.850214 0
M  V30 525 H 46.7922 0.611587 -0.276048 0
M  V30 526 H 49.3362 1.50742 -1.38192 0
M  V30 527 H 47.4912 3.83823 -0.525194 0
M  V30 528 H 47.9052 4.54128 -2.62427 0
M  V30 529 H 49.3792 5.39989 -1.14523 0
M  V30 530 H 49.8562 4.38673 0.215176 0
M  V30 531 H 50.4622 4.01097 -1.41426 0
M  V30 532 N 48.7773 0.814389 1.34928 0
M  V30 533 C 50.0263 0.394871 1.97797 0
M  V30 534 C 50.3393 -1.04555 1.65311 0
M  V30 535 O 51.5453 -1.56856 2.21604 0
M  V30 536 C 50.0013 0.655103 3.53888 0
M  V30 537 C 49.6093 2.10858 3.95276 0
M  V30 538 C 51.3533 0.301329 4.23429 0
M  V30 539 C 49.2603 2.31415 5.44244 0
M  V30 540 H 48.1903 0.143913 0.740139 0
M  V30 541 H 50.8413 0.999544 1.53888 0
M  V30 542 H 49.2233 -0.0196253 3.95995 0
M  V30 543 H 50.3973 2.82176 3.64298 0
M  V30 544 H 48.7123 2.42297 3.38646 0
M  V30 545 H 51.3093 0.432869 5.32945 0
M  V30 546 H 51.6523 -0.75331 4.09428 0
M  V30 547 H 52.1853 0.930288 3.86769 0
M  V30 548 H 48.9243 3.35353 5.63222 0
M  V30 549 H 48.4443 1.6463 5.76764 0
M  V30 550 H 50.1233 2.13352 6.10811 0
M  V30 551 N 50.2554 -1.46986 0.568584 0
M  V30 552 C 51.1654 -2.33942 -0.17555 0
M  V30 553 C 52.1814 -1.48891 -0.90041 0
M  V30 554 O 53.3574 -1.81794 -0.86676 0
M  V30 555 C 50.4224 -3.25811 -1.18524 0
M  V30 556 C 49.4834 -4.26757 -0.466582 0
M  V30 557 C 48.7164 -5.14236 -1.42817 0
M  V30 558 O 48.9394 -5.04379 -2.66379 0
M  V30 559 O 47.8734 -5.94412 -0.946453 0
M  V30 560 H 51.6994 -2.98896 0.538036 0
M  V30 561 H 49.2844 -1.4573 0.329097 0
M  V30 562 H 51.1664 -3.82527 -1.76779 0
M  V30 563 H 49.8414 -2.63471 -1.88055 0
M  V30 564 H 48.7484 -3.73769 0.157451 0
M  V30 565 H 50.0814 -4.91843 0.187485 0
M  V30 566 N 51.7335 -0.305618 -1.54608 0
M  V30 567 C 52.9825 0.303098 -1.9941 0
M  V30 568 C 53.2955 1.54648 -1.19764 0
M  V30 569 O 54.5015 2.23007 -1.54855 0
M  V30 570 C 52.9575 0.590588 -3.55021 0
M  V30 571 C 52.5655 -0.634719 -4.43481 0
M  V30 572 C 54.3095 1.16025 -4.08336 0
M  V30 573 C 52.2165 -0.320126 -5.90533 0
M  V30 574 H 51.1465 0.117031 -0.744862 0
M  V30 575 H 53.7975 -0.415045 -1.78745 0
M  V30 576 H 52.1795 1.36845 -3.71604 0
M  V30 577 H 53.3535 -1.41079 -4.38672 0
M  V30 578 H 51.6685 -1.12333 -4.00962 0
M  V30 579 H 54.2655 1.40994 -5.15776 0
M  V30 580 H 54.6085 2.10397 -3.5922 0
M  V30 581 H 55.1415 0.443985 -3.95315 0
M  V30 582 H 51.8805 -1.23254 -6.43808 0
M  V30 583 H 51.4005 0.418579 -5.98338 0
M  V30 584 H 53.0795 0.0766241 -6.46955 0
M  V30 585 N 53.2116 1.57565 -0.0334293 0
M  V30 586 C 54.4606 1.91155 0.643639 0
M  V30 587 C 54.7736 0.91192 1.73042 0
M  V30 588 O 55.9796 1.13923 2.46442 0
M  V30 589 C 54.4356 3.39443 1.1961 0
M  V30 590 C 54.0436 4.47774 0.142381 0
M  V30 591 C 55.7876 3.82094 1.84944 0
M  V30 592 C 53.6946 5.87162 0.706727 0
M  V30 593 H 52.6246 0.713368 0.244176 0
M  V30 594 H 55.2756 1.8323 -0.0994323 0
M  V30 595 H 53.6576 3.42313 1.99092 0
M  V30 596 H 54.8316 4.56469 -0.630296 0
M  V30 597 H 53.1466 4.14352 -0.412446 0
M  V30 598 H 55.7436 4.83591 2.2813 0
M  V30 599 H 56.0866 3.17386 2.69392 0
M  V30 600 H 56.6196 3.81665 1.12145 0
M  V30 601 H 53.3586 6.55424 -0.0997178 0
M  V30 602 H 52.8786 5.82064 1.44779 0
M  V30 603 H 54.5576 6.35866 1.19514 0
M  V30 604 N 54.6897 -0.239769 1.55765 0
M  V30 605 C 55.9377 -0.964892 1.77579 0
M  V30 606 C 56.2587 -1.85582 0.598699 0
M  V30 607 O 55.5287 -1.92075 -0.385226 0
M  V30 608 H 54.1087 -0.359265 0.654933 0
M  V30 609 H 56.7707 -0.256001 1.93211 0
M  V30 610 H 55.8667 -1.58243 2.69009 0
M  V30 611 N 56.1678 -1.49265 -0.50573 0
M  V30 612 C 57.1308 -1.65075 -1.59006 0
M  V30 613 C 58.1308 -0.522768 -1.52065 0
M  V30 614 O 59.3208 -0.789117 -1.55302 0
M  V30 615 C 56.4528 -1.64369 -2.98656 0
M  V30 616 H 57.6458 -2.61784 -1.46319 0
M  V30 617 H 55.1988 -1.38226 -0.729616 0
M  V30 618 H 55.9338 -0.692272 -3.16825 0
M  V30 619 H 55.7188 -2.46282 -3.05103 0
M  V30 620 H 57.2088 -1.78674 -3.77446 0
M  V30 621 N 57.6459 0.756429 -1.3826 0
M  V30 622 C 58.8709 1.55077 -1.37717 0
M  V30 623 C 59.2959 1.88073 0.03164 0
M  V30 624 O 58.6539 1.50364 1.01293 0
M  V30 625 C 58.7019 2.8283 -2.23695 0
M  V30 626 O 57.8059 3.77862 -1.6521 0
M  V30 627 H 57.1469 0.469152 -0.469885 0
M  V30 628 H 59.6769 0.935019 -1.81985 0
M  V30 629 H 59.6869 3.31783 -2.37453 0
M  V30 630 H 58.3619 2.58144 -3.2609 0
M  V30 631 H 56.9389 3.36555 -1.60578 0
M  V30 632 N 59.124 1.23083 0.984299 0
M  V30 633 C 60.371 1.06057 1.72505 0
M  V30 634 C 60.699 -0.403105 1.90277 0
M  V30 635 O 59.954 -1.3149 1.44944 0
M  V30 636 C 60.253 1.72673 3.1292 0
M  V30 637 C 59.919 3.22586 3.15038 0
M  V30 638 C 58.581 3.63489 3.15324 0
M  V30 639 C 60.933 4.185 3.10657 0
M  V30 640 C 58.261 4.98772 3.08939 0
M  V30 641 C 60.613 5.53769 3.05814 0
M  V30 642 C 59.277 5.94041 3.04419 0
M  V30 643 H 58.547 0.388091 0.631242 0
M  V30 644 H 61.194 1.52963 1.15215 0
M  V30 645 H 59.499 1.18116 3.73572 0
M  V30 646 H 61.196 1.56982 3.68996 0
M  V30 647 H 57.786 2.90022 3.15571 0
M  V30 648 H 61.97 3.87911 3.09579 0
M  V30 649 H 57.226 5.29193 3.0621 0
M  V30 650 H 61.4 6.27808 3.0138 0
M  V30 651 H 59.027 6.98833 2.99227 0
M  V30 652 N 60.6021 -1.18246 1.0419 0
M  V30 653 C 61.8481 -1.88536 0.747122 0
M  V30 654 C 62.1811 -1.80223 -0.723409 0
M  V30 655 O 61.4561 -1.20337 -1.52804 0
M  V30 656 C 61.7391 -3.38968 1.21544 0
M  V30 657 C 61.5921 -3.56084 2.74816 0
M  V30 658 C 62.9111 -4.32648 0.806482 0
M  V30 659 H 60.0301 -0.684619 0.272883 0
M  V30 660 H 62.6721 -1.39113 1.29413 0
M  V30 661 H 60.8221 -3.8119 0.750081 0
M  V30 662 H 62.4941 -3.22946 3.29399 0
M  V30 663 H 60.7371 -2.98699 3.14582 0
M  V30 664 H 61.4081 -4.61639 3.02644 0
M  V30 665 H 63.8841 -3.98211 1.20695 0
M  V30 666 H 62.7601 -5.36462 1.1619 0
M  V30 667 H 63.0211 -4.41146 -0.29029 0
M  V30 668 N 62.0802 -0.821533 -1.34494 0
M  V30 669 C 63.0432 -0.247847 -2.27856 0
M  V30 670 C 64.0432 0.573453 -1.50227 0
M  V30 671 O 65.2332 0.389759 -1.69784 0
M  V30 672 C 62.3652 0.652698 -3.34593 0
M  V30 673 H 63.5582 -1.07146 -2.80107 0
M  V30 674 H 61.1112 -0.593291 -1.44602 0
M  V30 675 H 61.8462 1.49943 -2.87555 0
M  V30 676 H 61.6312 0.065292 -3.92046 0
M  V30 677 H 63.1212 1.04793 -4.04238 0
M  V30 678 N 63.5583 1.46682 -0.576371 0
M  V30 679 C 64.8353 1.95599 0.00703437 0
M  V30 680 C 65.2153 1.51904 1.46589 0
M  V30 681 O 64.5633 0.766755 2.15251 0
M  V30 682 C 64.7733 3.4864 -0.158404 0
M  V30 683 C 66.1213 4.24594 -0.0229439 0
M  V30 684 O 67.1453 3.56094 -0.0869173 0
M  V30 685 O 66.0043 5.46373 0.118015 0
M  V30 686 H 63.0983 0.825275 0.053384 0
M  V30 687 H 65.6443 1.56996 -0.644244 0
M  V30 688 H 64.4163 3.7331 -1.17282 0
M  V30 689 H 64.0393 3.94057 0.5296 0
M  V30 690 N 65.0364 0.313813 1.54444 0
M  V30 691 C 65.9464 -0.565714 2.27677 0
M  V30 692 C 66.9624 -1.13754 1.31666 0
M  V30 693 O 68.1384 -1.15959 1.64668 0
M  V30 694 C 65.2034 -1.71528 3.01296 0
M  V30 695 C 64.2644 -1.17624 4.12872 0
M  V30 696 C 63.4974 -2.27102 4.8297 0
M  V30 697 O 63.7204 -3.47256 4.52514 0
M  V30 698 O 62.6544 -1.9307 5.70094 0
M  V30 699 H 66.4804 0.0287296 3.03686 0
M  V30 700 H 64.0654 0.0798312 1.49187 0
M  V30 701 H 65.9474 -2.38476 3.4743 0
M  V30 702 H 64.6224 -2.29608 2.2817 0
M  V30 703 H 63.5294 -0.472124 3.71109 0
M  V30 704 H 64.8624 -0.640695 4.88012 0
M  V30 705 N 66.5145 -1.57545 0.0417849 0
M  V30 706 C 67.9255 -1.80011 -0.495259 0
M  V30 707 C 68.2765 -0.953199 -1.71489 0
M  V30 708 O 67.4015 -0.167138 -2.15754 0
M  V30 709 C 67.9965 -3.26482 -0.905265 0
M  V30 710 C 66.5555 -3.499 -1.38734 0
M  V30 711 C 65.7025 -2.74979 -0.358056 0
M  V30 712 H 68.6535 -1.56425 0.267736 0
M  V30 713 H 68.6745 -3.36887 -1.76882 0
M  V30 714 H 68.1865 -3.88096 -0.017401 0
M  V30 715 H 66.2875 -2.93553 -2.29471 0
M  V30 716 H 66.4005 -4.58615 -1.38598 0
M  V30 717 H 64.7645 -2.40834 -0.828912 0
M  V30 718 H 65.5475 -3.39315 0.521561 0
M  V30 719 N 67.9926 0.231505 -1.5589 0
M  V30 720 C 69.2396 0.957352 -1.78441 0
M  V30 721 C 69.5676 1.84726 -0.60882 0
M  V30 722 O 68.8226 1.91416 0.40725 0
M  V30 723 C 69.1216 1.83577 -3.0665 0
M  V30 724 C 68.7876 1.09993 -4.37278 0
M  V30 725 C 67.4496 0.896629 -4.72773 0
M  V30 726 C 69.8016 0.579558 -5.17968 0
M  V30 727 C 67.1296 0.160896 -5.86479 0
M  V30 728 C 69.4816 -0.142783 -6.32439 0
M  V30 729 C 68.1456 -0.357427 -6.66542 0
M  V30 730 H 67.4156 0.35032 -0.65296 0
M  V30 731 H 70.0626 0.226259 -1.90159 0
M  V30 732 H 68.3676 2.63441 -2.90011 0
M  V30 733 H 70.0646 2.39934 -3.21298 0
M  V30 734 H 66.6546 1.26835 -4.09403 0
M  V30 735 H 70.8386 0.724125 -4.90989 0
M  V30 736 H 66.0946 -0.0157293 -6.11398 0
M  V30 737 H 70.2686 -0.553559 -6.94196 0
M  V30 738 H 67.8956 -0.929466 -7.54497 0
M  V30 739 N 69.4707 1.49531 0.497807 0
M  V30 740 C 70.7197 1.58426 1.24837 0
M  V30 741 C 71.0327 0.277643 1.93619 0
M  V30 742 O 72.2387 0.24517 2.70391 0
M  V30 743 C 70.6947 2.79538 2.26686 0
M  V30 744 C 70.3027 4.16971 1.63828 0
M  V30 745 C 72.0467 2.97764 3.0255 0
M  V30 746 C 69.9537 5.29301 2.63807 0
M  V30 747 H 68.8837 0.58989 0.469623 0
M  V30 748 H 71.5347 1.75923 0.521857 0
M  V30 749 H 69.9167 2.55542 3.02514 0
M  V30 750 H 71.0907 4.51116 0.939711 0
M  V30 751 H 69.4057 4.04129 1.00342 0
M  V30 752 H 72.0027 3.78856 3.77323 0
M  V30 753 H 72.3457 2.08448 3.60354 0
M  V30 754 H 72.8787 3.21815 2.33838 0
M  V30 755 H 69.6177 6.20687 2.10779 0
M  V30 756 H 69.1377 4.99606 3.31894 0
M  V30 757 H 70.8167 5.58768 3.2617 0
M  V30 758 N 70.9488 -0.749086 1.3866 0
M  V30 759 C 72.1958 -1.50833 1.35114 0
M  V30 760 C 72.5238 -1.94415 -0.0574049 0
M  V30 761 O 71.7788 -1.66065 -1.03541 0
M  V30 762 C 72.0778 -2.7712 2.25697 0
M  V30 763 C 71.7438 -2.52477 3.73585 0
M  V30 764 C 70.4058 -2.45466 4.13884 0
M  V30 765 C 72.7578 -2.31066 4.67181 0
M  V30 766 C 70.0858 -2.15064 5.45861 0
M  V30 767 C 72.4378 -2.02183 5.9942 0
M  V30 768 C 71.1018 -1.93631 6.38798 0
M  V30 769 H 70.3718 -0.551936 0.494416 0
M  V30 770 H 73.0188 -0.860979 1.71054 0
M  V30 771 H 71.3238 -3.46528 1.82827 0
M  V30 772 H 73.0208 -3.35096 2.20254 0
M  V30 773 H 69.6108 -2.58807 3.41638 0
M  V30 774 H 73.7948 -2.35459 4.3689 0
M  V30 775 H 69.0508 -2.06954 5.75308 0
M  V30 776 H 73.2248 -1.8462 6.71482 0
M  V30 777 H 70.8518 -1.69839 7.40985 0
M  V30 778 N 72.4269 -1.23603 -0.977757 0
M  V30 779 C 73.6749 -1.06759 -1.71601 0
M  V30 780 C 73.9959 0.395929 -1.90938 0
M  V30 781 O 73.2659 1.28356 -1.47992 0
M  V30 782 H 71.8459 -0.392062 -0.635843 0
M  V30 783 H 74.5079 -1.55362 -1.1768 0
M  V30 784 H 73.6039 -1.55763 -2.70452 0
M  V30 785 N 73.905 1.17692 -1.04816 0
M  V30 786 C 74.868 2.19787 -0.650117 0
M  V30 787 C 75.868 1.58044 0.296427 0
M  V30 788 O 77.058 1.74012 0.0808097 0
M  V30 789 C 74.19 3.40869 0.0456987 0
M  V30 790 H 75.383 2.56516 -1.5537 0
M  V30 791 H 72.936 1.31708 -0.841594 0
M  V30 792 H 73.671 3.09681 0.962726 0
M  V30 793 H 73.456 3.86928 -0.634727 0
M  V30 794 H 74.946 4.16445 0.310432 0
M  V30 795 N 75.3831 0.828654 1.34056 0
M  V30 796 C 76.3131 0.269443 2.3194 0
M  V30 797 C 77.2941 -0.617247 1.58506 0
M  V30 798 O 78.4791 -0.542931 1.86456 0
M  V30 799 C 75.6091 -0.564793 3.42677 0
M  V30 800 C 74.5631 0.225241 4.27407 0
M  V30 801 C 73.8891 -0.7321 5.29664 0
M  V30 802 C 75.1891 1.43663 5.02154 0
M  V30 803 H 76.8831 1.08728 2.7896 0
M  V30 804 H 74.4291 0.524283 1.34117 0
M  V30 805 H 76.3821 -0.966233 4.10173 0
M  V30 806 H 75.1061 -1.41574 2.9432 0
M  V30 807 H 73.7651 0.608117 3.61521 0
M  V30 808 H 73.4131 -1.57916 4.77568 0
M  V30 809 H 73.1131 -0.20767 5.87233 0
M  V30 810 H 74.6371 -1.13128 6.00029 0
M  V30 811 H 76.0511 1.1089 5.62473 0
M  V30 812 H 74.4481 1.89711 5.69324 0
M  V30 813 H 75.5181 2.21181 4.31517 0
M  V30 814 N 76.8612 -1.46375 0.584142 0
M  V30 815 C 77.8092 -2.32042 -0.161047 0
M  V30 816 C 78.8032 -1.44569 -0.882966 0
M  V30 817 O 80.0092 -1.61186 -0.801191 0
M  V30 818 H 76.3842 -0.748659 -0.0708033 0
M  V30 819 H 78.3552 -2.92704 0.580269 0
M  V30 820 C 77.1042 -3.27762 -1.1605 0
M  V30 821 H 76.4272 -3.95051 -0.614419 0
M  V30 822 H 77.8672 -3.90481 -1.65228 0
M  V30 823 C 76.3262 -2.53218 -2.22221 0
M  V30 824 O 76.8562 -2.29628 -3.29597 0
M  V30 825 N 75.0622 -2.13756 -1.96868 0
M  V30 826 H 74.6092 -2.33142 -1.09557 0
M  V30 827 H 74.5672 -1.642 -2.68115 0
M  V30 828 N 78.3393 -0.321999 -1.54275 0
M  V30 829 C 79.6163 0.335232 -1.92706 0
M  V30 830 C 79.9963 1.70006 -1.25145 0
M  V30 831 O 79.3443 2.25067 -0.394596 0
M  V30 832 C 79.5543 0.429008 -3.46353 0
M  V30 833 C 80.9023 0.690029 -4.18956 0
M  V30 834 O 81.9263 0.511992 -3.52501 0
M  V30 835 O 80.7853 1.03338 -5.36641 0
M  V30 836 H 77.8793 0.191143 -0.804608 0
M  V30 837 H 80.4253 -0.3716 -1.65581 0
M  V30 838 H 79.1973 -0.529611 -3.87699 0
M  V30 839 H 78.8203 1.18348 -3.79578 0
M  V30 840 N 79.8174 1.5752 -0.0501392 0
M  V30 841 C 80.7274 2.14952 0.939827 0
M  V30 842 C 81.7434 1.10706 1.34239 0
M  V30 843 O 82.9194 1.42869 1.41952 0
M  V30 844 C 79.9844 2.68232 2.19665 0
M  V30 845 C 79.0454 3.87272 1.85253 0
M  V30 846 C 78.2784 4.38002 3.04943 0
M  V30 847 O 78.5014 3.87811 4.18281 0
M  V30 848 O 77.4354 5.29602 2.86017 0
M  V30 849 H 81.2614 2.9986 0.481392 0
M  V30 850 H 78.8464 1.4841 0.171699 0
M  V30 851 H 80.7284 3.02475 2.93406 0
M  V30 852 H 79.4034 1.86395 2.64648 0
M  V30 853 H 78.3104 3.5792 1.0883 0
M  V30 854 H 79.6434 4.70336 1.4507 0
M  V30 855 N 81.2955 -0.223234 1.56011 0
M  V30 856 C 82.5255 -0.963413 1.82762 0
M  V30 857 C 82.9335 -1.78516 0.626804 0
M  V30 858 O 82.2765 -1.78974 -0.414014 0
M  V30 859 C 82.3385 -1.93126 3.0322 0
M  V30 860 C 82.0025 -1.2942 4.38291 0
M  V30 861 C 82.9995 -0.684916 5.15369 0
M  V30 862 C 80.6845 -1.30647 4.85012 0
M  V30 863 C 82.6785 -0.0963971 6.37327 0
M  V30 864 C 80.3655 -0.71411 6.06913 0
M  V30 865 C 81.3635 -0.110123 6.82911 0
M  V30 866 O 81.0515 0.47303 8.02507 0
M  V30 867 H 80.7835 -0.288011 0.611576 0
M  V30 868 H 83.3375 -0.244103 2.03944 0
M  V30 869 H 81.5675 -2.68952 2.77852 0
M  V30 870 H 83.2565 -2.53685 3.16857 0
M  V30 871 H 84.0225 -0.667774 4.80381 0
M  V30 872 H 79.9015 -1.76598 4.25833 0
M  V30 873 H 83.4455 0.375657 6.96588 0
M  V30 874 H 79.3425 -0.728659 6.41374 0
M  V30 875 H 80.1105 0.367186 8.17676 0
M  V30 876 N 82.7736 -1.49793 -0.48987 0
M  V30 877 C 84.0226 -1.59085 -1.23995 0
M  V30 878 C 84.3356 -0.287907 -1.9347 0
M  V30 879 O 85.5416 -0.259506 -2.70257 0
M  V30 880 C 83.9976 -2.80736 -2.252 0
M  V30 881 C 83.6056 -4.17833 -1.61614 0
M  V30 882 C 85.3496 -2.99364 -3.00967 0
M  V30 883 C 83.2566 -5.30693 -2.60996 0
M  V30 884 H 82.1866 -0.592372 -0.466488 0
M  V30 885 H 84.8376 -1.76197 -0.51252 0
M  V30 886 H 83.2196 -2.57142 -3.01154 0
M  V30 887 H 84.3936 -4.51608 -0.915774 0
M  V30 888 H 82.7086 -4.04656 -0.981977 0
M  V30 889 H 85.3056 -3.80851 -3.75308 0
M  V30 890 H 85.6486 -2.10356 -3.59244 0
M  V30 891 H 86.1816 -3.2305 -2.32128 0
M  V30 892 H 82.9206 -6.21796 -2.07485 0
M  V30 893 H 82.4406 -5.01359 -3.2924 0
M  V30 894 H 84.1196 -5.6049 -3.23202 0
M  V30 895 N 84.2517 0.741722 -1.39055 0
M  V30 896 C 85.1837 1.8657 -1.33133 0
M  V30 897 C 86.1967 1.61001 -0.241329 0
M  V30 898 O 87.3857 1.7136 -0.499784 0
M  V30 899 C 84.4857 3.22457 -1.04283 0
M  V30 900 C 83.6587 3.75435 -2.24427 0
M  V30 901 C 82.7177 4.89867 -1.92138 0
M  V30 902 O 81.7437 5.03879 -2.64754 0
M  V30 903 N 82.9457 5.73738 -0.88347 0
M  V30 904 H 85.7107 1.92156 -2.29991 0
M  V30 905 H 83.2717 0.922172 -1.3307 0
M  V30 906 H 85.2637 3.9657 -0.807128 0
M  V30 907 H 83.8337 3.12181 -0.161807 0
M  V30 908 H 83.0537 2.92751 -2.6399 0
M  V30 909 H 84.3417 4.07563 -3.04581 0
M  V30 910 H 83.7397 5.64999 -0.281517 0
M  V30 911 H 82.2967 6.47947 -0.707662 0
M  V30 912 N 85.7298 1.2412 0.971189 0
M  V30 913 C 87.1458 1.00584 1.23916 0
M  V30 914 C 87.3458 -0.287481 1.99439 0
M  V30 915 O 86.4018 -1.00454 2.31658 0
M  V30 916 C 87.7148 2.21864 2.0297 0
M  V30 917 C 89.2628 2.26452 2.16076 0
M  V30 918 C 89.7378 3.47343 2.98524 0
M  V30 919 N 91.2288 3.47639 3.06107 0
M  V30 920 C 91.9638 4.37837 3.70251 0
M  V30 921 N 91.4598 5.38286 4.36142 0
M  V30 922 N 93.2528 4.25558 3.67228 0
M  V30 923 H 85.4038 2.07236 0.465499 0
M  V30 924 H 87.6668 0.909236 0.268315 0
M  V30 925 H 87.3728 3.15771 1.54861 0
M  V30 926 H 87.2468 2.23698 3.03709 0
M  V30 927 H 89.6338 1.33078 2.6339 0
M  V30 928 H 89.7148 2.28645 1.14696 0
M  V30 929 H 89.3588 4.41029 2.51905 0
M  V30 930 H 89.2888 3.42393 4.00093 0
M  V30 931 H 91.7798 2.74966 2.59233 0
M  V30 932 H 92.0928 6.03352 4.82894 0
M  V30 933 H 90.4378 5.42176 4.34822 0
M  V30 934 H 93.6288 3.46322 3.14927 0
M  V30 935 H 93.8018 4.96054 4.16935 0
M  V30 936 N 87.2079 -1.17134 1.05439 0
M  V30 937 C 88.1179 -2.24878 0.668365 0
M  V30 938 C 89.1339 -1.71186 -0.311687 0
M  V30 939 O 90.3099 -2.00738 -0.163161 0
M  V30 940 C 87.3749 -3.46662 0.051648 0
M  V30 941 C 86.4359 -4.15429 1.08246 0
M  V30 942 C 85.6689 -5.31399 0.495082 0
M  V30 943 O 85.8919 -5.66153 -0.694743 0
M  V30 944 O 84.8259 -5.89187 1.23056 0
M  V30 945 H 88.6519 -2.60189 1.56637 0
M  V30 946 H 86.2369 -1.24482 0.826104 0
M  V30 947 H 88.1189 -4.20394 -0.290966 0
M  V30 948 H 86.7939 -3.13142 -0.819971 0
M  V30 949 H 85.7009 -3.43704 1.47711 0
M  V30 950 H 87.0339 -4.52982 1.92532 0
M  V30 951 N 88.686 -0.835752 -1.33615 0
M  V30 952 C 89.616 -0.281739 -2.31794 0
M  V30 953 C 90.597 0.608833 -1.58831 0
M  V30 954 O 91.782 0.533035 -1.86741 0
M  V30 955 C 88.912 0.546612 -3.42971 0
M  V30 956 C 87.866 -0.247904 -4.27281 0
M  V30 957 C 87.192 0.704001 -5.30045 0
M  V30 958 C 88.492 -1.46324 -5.01385 0
M  V30 959 H 90.186 -1.10206 -2.78379 0
M  V30 960 H 87.732 -0.531388 -1.33837 0
M  V30 961 H 89.685 0.944467 -4.1068 0
M  V30 962 H 88.409 1.40011 -2.95067 0
M  V30 963 H 87.068 -0.627281 -3.61194 0
M  V30 964 H 86.716 1.55381 -4.78399 0
M  V30 965 H 86.416 0.176524 -5.87335 0
M  V30 966 H 87.94 1.09944 -6.0062 0
M  V30 967 H 89.354 -1.13871 -5.61877 0
M  V30 968 H 87.751 -1.92728 -5.6831 0
M  V30 969 H 88.821 -2.23467 -4.30338 0
M  V30 970 N 90.1641 1.46063 -0.591896 0
M  V30 971 C 91.0741 2.34192 0.13831 0
M  V30 972 C 92.0901 1.50305 0.876608 0
M  V30 973 O 93.2661 1.8315 0.837728 0
M  V30 974 C 90.3311 3.27656 1.13326 0
M  V30 975 C 89.3921 4.27445 0.39863 0
M  V30 976 C 88.6251 5.16443 1.34618 0
M  V30 977 O 88.8481 5.08553 2.58321 0
M  V30 978 O 87.7821 5.95843 0.851768 0
M  V30 979 H 91.6081 2.98002 -0.58552 0
M  V30 980 H 89.1931 1.45188 -0.352239 0
M  V30 981 H 91.0751 3.85291 1.70671 0
M  V30 982 H 89.7501 2.6643 1.83839 0
M  V30 983 H 88.6571 3.73471 -0.216895 0
M  V30 984 H 89.9901 4.91482 -0.265709 0
M  V30 985 N 91.6422 0.330177 1.54103 0
M  V30 986 C 92.8882 -0.263542 2.01685 0
M  V30 987 C 93.2432 -1.49258 1.21408 0
M  V30 988 O 92.5362 -1.89395 0.289852 0
M  V30 989 C 92.7302 -0.643134 3.51566 0
M  V30 990 C 92.5592 0.547571 4.46354 0
M  V30 991 C 91.3292 1.04873 4.94297 0
M  V30 992 C 93.5272 1.40184 4.94826 0
M  V30 993 N 91.5092 2.20316 5.73005 0
M  V30 994 C 92.8802 2.40335 5.71524 0
M  V30 995 C 94.9352 1.42884 4.76958 0
M  V30 996 C 93.6382 3.42998 6.32254 0
M  V30 997 C 95.6642 2.44421 5.38528 0
M  V30 998 C 95.0262 3.43298 6.15082 0
M  V30 999 H 91.1252 -0.0601026 0.779687 0
M  V30 1000 H 93.7092 0.466714 1.89023 0
M  V30 1001 H 91.8802 -1.34251 3.6446 0
M  V30 1002 H 93.6122 -1.21889 3.85908 0
M  V30 1003 H 90.3672 0.618956 4.69538 0
M  V30 1004 H 90.7912 2.78565 6.17034 0
M  V30 1005 H 95.4332 0.678049 4.17328 0
M  V30 1006 H 93.1512 4.1898 6.91 0
M  V30 1007 H 96.7372 2.4732 5.26616 0
M  V30 1008 H 95.6172 4.20579 6.61878 0
M  V30 1009 N 93.1203 -1.57491 0.0584922 0
M  V30 1010 C 94.3503 -1.9701 -0.622134 0
M  V30 1011 C 94.7583 -0.935034 -1.6448 0
M  V30 1012 O 94.1013 0.0882904 -1.83488 0
M  V30 1013 C 94.1633 -3.32794 -1.35972 0
M  V30 1014 C 93.8273 -4.54343 -0.492043 0
M  V30 1015 C 94.8243 -5.19323 0.244901 0
M  V30 1016 C 92.5093 -5.00534 -0.420821 0
M  V30 1017 C 94.5033 -6.28835 1.04143 0
M  V30 1018 C 92.1903 -6.09921 0.379389 0
M  V30 1019 C 93.1883 -6.73933 1.10919 0
M  V30 1020 O 92.8763 -7.81216 1.89623 0
M  V30 1021 H 92.6083 -0.653127 -0.174359 0
M  V30 1022 H 95.1623 -2.05029 0.123418 0
M  V30 1023 H 93.3923 -3.21351 -2.15105 0
M  V30 1024 H 95.0813 -3.5701 -1.93129 0
M  V30 1025 H 95.8473 -4.8459 0.19939 0
M  V30 1026 H 91.7263 -4.50496 -0.978474 0
M  V30 1027 H 95.2703 -6.7873 1.61157 0
M  V30 1028 H 91.1673 -6.44089 0.426512 0
M  V30 1029 H 91.9353 -7.98029 1.81913 0
M  V30 1030 N 94.5984 0.214957 -1.56127 0
M  V30 1031 C 95.5454 1.26642 -1.92952 0
M  V30 1032 C 96.5154 1.46244 -0.78753 0
M  V30 1033 O 97.7004 1.59704 -1.04399 0
M  V30 1034 C 94.8404 2.6104 -2.25726 0
M  V30 1035 C 93.9534 2.49183 -3.52891 0
M  V30 1036 C 93.0884 3.76149 -3.7508 0
M  V30 1037 C 92.1274 3.59041 -4.95738 0
M  V30 1038 N 91.2644 4.77972 -5.14283 0
M  V30 1039 H 96.1044 0.945384 -2.82607 0
M  V30 1040 H 93.6414 0.455489 -1.3987 0
M  V30 1041 H 95.5994 3.39313 -2.42739 0
M  V30 1042 H 94.2294 2.91227 -1.39236 0
M  V30 1043 H 93.2814 1.6231 -3.44034 0
M  V30 1044 H 94.5934 2.32466 -4.41318 0
M  V30 1045 H 93.7474 4.62865 -3.92226 0
M  V30 1046 H 92.4864 3.95799 -2.84947 0
M  V30 1047 H 91.4914 2.7071 -4.78535 0
M  V30 1048 H 92.7164 3.40856 -5.87362 0
M  V30 1049 H 90.6624 4.97923 -4.27093 0
M  V30 1050 H 90.5794 4.64006 -5.96853 0
M  V30 1051 H 91.8474 5.66096 -5.35869 0
M  V30 1052 N 96.0765 1.50051 0.48192 0
M  V30 1053 C 97.3015 1.64508 1.26301 0
M  V30 1054 C 97.7265 0.323851 1.85291 0
M  V30 1055 O 97.0845 -0.710969 1.66778 0
M  V30 1056 C 97.1325 2.7305 2.35533 0
M  V30 1057 O 96.2365 2.3355 3.39895 0
M  V30 1058 H 95.5775 0.549978 0.372048 0
M  V30 1059 H 98.1075 1.9636 0.574786 0
M  V30 1060 H 98.1175 2.95799 2.8101 0
M  V30 1061 H 96.7925 3.68946 1.91967 0
M  V30 1062 H 95.3695 2.21205 3.00204 0
M  V30 1063 N 97.5546 -0.734337 1.39446 0
M  V30 1064 C 98.5016 -1.84835 1.38219 0
M  V30 1065 C 99.4716 -1.64331 0.24179 0
M  V30 1066 O 100.657 -1.85728 0.437002 0
M  V30 1067 C 97.7966 -3.22355 1.23212 0
M  V30 1068 C 96.9096 -3.5456 2.46801 0
M  V30 1069 C 96.0446 -4.81485 2.24377 0
M  V30 1070 C 95.0836 -5.06536 3.43639 0
M  V30 1071 N 94.2206 -6.24665 3.20528 0
M  V30 1072 H 99.0606 -1.85219 2.33448 0
M  V30 1073 H 96.5976 -0.905039 1.15963 0
M  V30 1074 H 98.5556 -4.0174 1.12522 0
M  V30 1075 H 97.1856 -3.21248 0.316121 0
M  V30 1076 H 96.2376 -2.69872 2.68092 0
M  V30 1077 H 97.5496 -3.6899 3.3563 0
M  V30 1078 H 96.7036 -5.68852 2.10933 0
M  V30 1079 H 95.4426 -4.6923 1.32944 0
M  V30 1080 H 94.4476 -4.17632 3.5758 0
M  V30 1081 H 95.6726 -5.20676 4.35974 0
M  V30 1082 H 93.6186 -6.13696 2.3176 0
M  V30 1083 H 93.5356 -6.39685 4.02913 0
M  V30 1084 H 94.8036 -7.14868 3.10779 0
M  V30 1085 N 99.0327 -1.24633 -0.964593 0
M  V30 1086 C 100.258 -1.11596 -1.74818 0
M  V30 1087 C 100.683 0.32723 -1.85232 0
M  V30 1088 O 100.041 1.23695 -1.32549 0
M  V30 1089 C 100.089 -1.76397 -3.1451 0
M  V30 1090 O 99.1927 -1.03685 -3.99153 0
M  V30 1091 H 98.5337 -0.390196 -0.537255 0
M  V30 1092 H 101.064 -1.65002 -1.20977 0
M  V30 1093 H 101.074 -1.8228 -3.65018 0
M  V30 1094 H 99.7487 -2.81401 -3.06246 0
M  V30 1095 H 98.3257 -1.05611 -3.57632 0
M  V30 1096 N 100.511 1.16574 -1.06058 0
M  V30 1097 C 101.441 2.23057 -0.690488 0
M  V30 1098 C 102.422 1.67141 0.315901 0
M  V30 1099 O 103.607 1.93253 0.191556 0
M  V30 1100 C 100.737 3.47222 -0.073625 0
M  V30 1101 C 99.6908 4.16016 -1.00573 0
M  V30 1102 C 99.0168 5.34104 -0.252289 0
M  V30 1103 C 100.317 4.67264 -2.33371 0
M  V30 1104 H 102.011 2.54271 -1.58072 0
M  V30 1105 H 99.5568 1.22218 -0.76149 0
M  V30 1106 H 101.51 4.20939 0.19714 0
M  V30 1107 H 100.234 3.15302 0.85161 0
M  V30 1108 H 98.8928 3.44223 -1.2612 0
M  V30 1109 H 98.5408 4.98437 0.675988 0
M  V30 1110 H 98.2408 5.81072 -0.873455 0
M  V30 1111 H 99.7648 6.10599 0.0109857 0
M  V30 1112 H 101.179 5.32573 -2.12223 0
M  V30 1113 H 99.5758 5.24843 -2.90963 0
M  V30 1114 H 100.646 3.83602 -2.96611 0
M  V30 1115 N 101.989 0.842826 1.3317 0
M  V30 1116 C 103.236 0.440447 1.97652 0
M  V30 1117 C 103.564 -1.00123 1.6675 0
M  V30 1118 O 102.819 -1.7155 0.941761 0
M  V30 1119 C 103.118 0.612607 3.52111 0
M  V30 1120 C 102.784 2.02297 4.02972 0
M  V30 1121 C 101.446 2.40874 4.16573 0
M  V30 1122 C 103.798 2.94402 4.30089 0
M  V30 1123 C 101.126 3.70852 4.54627 0
M  V30 1124 C 103.478 4.23865 4.69597 0
M  V30 1125 C 102.142 4.62392 4.81404 0
M  V30 1126 H 101.412 0.161171 0.72326 0
M  V30 1127 H 104.059 1.07061 1.58777 0
M  V30 1128 H 102.364 -0.100849 3.9167 0
M  V30 1129 H 104.061 0.2815 4.00011 0
M  V30 1130 H 100.651 1.71338 3.92863 0
M  V30 1131 H 104.835 2.65835 4.19101 0
M  V30 1132 H 100.091 4.00501 4.61962 0
M  V30 1133 H 104.265 4.95306 4.89536 0
M  V30 1134 H 101.892 5.63154 5.10648 0
M  V30 1135 N 103.467 -1.45747 0.599634 0
M  V30 1136 C 104.713 -2.02592 0.0918643 0
M  V30 1137 C 105.046 -1.46806 -1.27128 0
M  V30 1138 O 104.321 -0.639658 -1.83681 0
M  V30 1139 C 104.604 -3.60073 0.0443398 0
M  V30 1140 C 104.457 -4.26208 1.43759 0
M  V30 1141 C 105.776 -4.35309 -0.647608 0
M  V30 1142 H 102.895 -0.736175 0.034857 0
M  V30 1143 H 105.537 -1.73694 0.770081 0
M  V30 1144 H 103.687 -3.84823 -0.533224 0
M  V30 1145 H 105.359 -4.12668 2.06162 0
M  V30 1146 H 103.602 -3.84916 2.00056 0
M  V30 1147 H 104.273 -5.35069 1.35665 0
M  V30 1148 H 106.749 -4.15805 -0.156776 0
M  V30 1149 H 105.625 -5.45038 -0.649942 0
M  V30 1150 H 105.886 -4.07598 -1.71219 0
M  V30 1151 N 104.945 -0.338344 -1.53925 0
M  V30 1152 C 105.892 0.520845 -2.24846 0
M  V30 1153 C 106.862 1.09976 -1.24477 0
M  V30 1154 O 108.047 1.13735 -1.53196 0
M  V30 1155 C 105.187 1.6685 -3.02084 0
M  V30 1156 C 104.3 1.11739 -4.17299 0
M  V30 1157 C 103.435 2.23193 -4.82036 0
M  V30 1158 C 102.474 1.65407 -5.89328 0
M  V30 1159 N 101.611 2.70582 -6.47866 0
M  V30 1160 H 106.451 -0.0904881 -2.97863 0
M  V30 1161 H 103.988 -0.0564282 -1.46992 0
M  V30 1162 H 105.946 2.34407 -3.45122 0
M  V30 1163 H 104.576 2.2509 -2.31375 0
M  V30 1164 H 103.628 0.332919 -3.7894 0
M  V30 1165 H 104.94 0.654677 -4.94485 0
M  V30 1166 H 104.094 2.98626 -5.28117 0
M  V30 1167 H 102.833 2.72807 -4.04262 0
M  V30 1168 H 101.838 0.884779 -5.42634 0
M  V30 1169 H 103.063 1.16652 -6.69006 0
M  V30 1170 H 101.009 3.1946 -5.72959 0
M  V30 1171 H 100.926 2.28917 -7.20509 0
M  V30 1172 H 102.194 3.45799 -6.98601 0
M  V30 1173 N 106.423 1.57458 -0.0668435 0
M  V30 1174 C 107.7 1.8469 0.644132 0
M  V30 1175 C 108.08 0.958343 1.88093 0
M  V30 1176 O 107.428 0.0233579 2.28488 0
M  V30 1177 C 107.638 3.34767 0.986509 0
M  V30 1178 C 108.986 4.02159 1.36212 0
M  V30 1179 O 110.01 3.39484 1.07839 0
M  V30 1180 O 108.869 5.12694 1.89227 0
M  V30 1181 H 105.963 0.762816 0.319437 0
M  V30 1182 H 108.509 1.6942 -0.0973986 0
M  V30 1183 H 107.281 3.91151 0.107883 0
M  V30 1184 H 106.904 3.55281 1.78497 0
M  V30 1185 N 107.901 -0.206675 1.56239 0
M  V30 1186 C 109.15 -0.926964 1.79138 0
M  V30 1187 C 109.463 -1.84901 0.638043 0
M  V30 1188 O 110.669 -2.60906 0.751033 0
M  V30 1189 C 109.125 -1.6986 3.17294 0
M  V30 1190 C 108.733 -0.821956 4.40395 0
M  V30 1191 C 110.477 -2.40922 3.4951 0
M  V30 1192 C 108.384 -1.59179 5.69575 0
M  V30 1193 H 107.314 -0.349864 0.667915 0
M  V30 1194 H 109.965 -0.180487 1.8261 0
M  V30 1195 H 108.347 -2.48853 3.08039 0
M  V30 1196 H 109.521 -0.0715019 4.60745 0
M  V30 1197 H 107.836 -0.222741 4.15804 0
M  V30 1198 H 110.433 -2.99047 4.43255 0
M  V30 1199 H 110.776 -3.14542 2.72707 0
M  V30 1200 H 111.309 -1.68905 3.60161 0
M  V30 1201 H 108.048 -0.898589 6.49312 0
M  V30 1202 H 107.568 -2.31648 5.53262 0
M  V30 1203 H 109.247 -2.14862 6.10281 0
M  V30 1204 N 109.379 -1.50304 -0.473955 0
M  V30 1205 C 110.79 -1.54042 -1.0549 0
M  V30 1206 C 111.141 -0.342248 -1.93192 0
M  V30 1207 O 110.266 0.545157 -2.09421 0
M  V30 1208 C 110.861 -2.79152 -1.91989 0
M  V30 1209 C 109.42 -2.8558 -2.45196 0
M  V30 1210 C 108.567 -2.48295 -1.2347 0
M  V30 1211 H 111.518 -1.5661 -0.256693 0
M  V30 1212 H 111.539 -2.60845 -2.7702 0
M  V30 1213 H 111.051 -3.66339 -1.28131 0
M  V30 1214 H 109.152 -2.02738 -3.12615 0
M  V30 1215 H 109.265 -3.88403 -2.80499 0
M  V30 1216 H 107.629 -2.00669 -1.56856 0
M  V30 1217 H 108.412 -3.37787 -0.612789 0
M  V30 1218 N 110.857 0.726932 -1.39834 0
M  V30 1219 C 112.105 1.4837 -1.37225 0
M  V30 1220 C 112.426 1.94979 0.0284857 0
M  V30 1221 O 111.696 1.69555 0.981213 0
M  V30 1222 H 110.276 0.55043 -0.505011 0
M  V30 1223 H 112.938 0.862468 -1.74778 0
M  V30 1224 H 112.034 2.36198 -2.04003 0
M  V30 1225 N 112.336 1.25143 0.95797 0
M  V30 1226 C 113.246 1.06968 2.08794 0
M  V30 1227 C 114.262 0.00773911 1.73998 0
M  V30 1228 O 115.438 0.207972 2.00323 0
M  V30 1229 C 112.503 0.68691 3.39827 0
M  V30 1230 C 111.564 1.82641 3.88511 0
M  V30 1231 C 110.797 1.46181 5.1329 0
M  V30 1232 O 111.02 0.355971 5.69288 0
M  V30 1233 O 109.954 2.29085 5.566 0
M  V30 1234 H 113.78 2.01723 2.27027 0
M  V30 1235 H 111.365 1.04051 1.07209 0
M  V30 1236 H 113.247 0.485417 4.18595 0
M  V30 1237 H 111.922 -0.231417 3.22872 0
M  V30 1238 H 110.829 2.08274 3.10762 0
M  V30 1239 H 112.162 2.72386 4.09959 0
M  V30 1240 N 113.814 -1.1601 1.06675 0
M  V30 1241 C 115.042 -1.90527 0.806667 0
M  V30 1242 C 115.457 -1.77643 -0.639396 0
M  V30 1243 O 114.814 -1.12369 -1.43803 0
M  V30 1244 C 114.865 -3.41106 1.19705 0
M  V30 1245 O 114.586 -3.53608 2.58636 0
M  V30 1246 C 116.087 -4.32663 0.965266 0
M  V30 1247 H 113.307 -0.604053 0.292166 0
M  V30 1248 H 115.851 -1.47026 1.4214 0
M  V30 1249 H 114.006 -3.82296 0.626774 0
M  V30 1250 H 114.42 -4.47011 2.74375 0
M  V30 1251 H 115.894 -5.36763 1.288 0
M  V30 1252 H 116.371 -4.39089 -0.0987936 0
M  V30 1253 H 116.977 -3.97206 1.52011 0
M  V30 1254 N 115.292 -0.849877 -1.32721 0
M  V30 1255 C 116.703 -0.506188 -1.79707 0
M  V30 1256 C 117.054 0.975627 -1.70223 0
M  V30 1257 O 116.179 1.76078 -1.25799 0
M  V30 1258 C 116.774 -0.912044 -3.26293 0
M  V30 1259 C 115.333 -0.620326 -3.71253 0
M  V30 1260 C 114.48 -1.11439 -2.53922 0
M  V30 1261 H 117.431 -1.03754 -1.20087 0
M  V30 1262 H 117.452 -0.226493 -3.79825 0
M  V30 1263 H 116.964 -1.99057 -3.33164 0
M  V30 1264 H 115.065 0.447674 -3.69901 0
M  V30 1265 H 115.178 -1.18327 -4.64258 0
M  V30 1266 H 113.542 -0.534834 -2.49021 0
M  V30 1267 H 114.325 -2.19992 -2.6355 0
M  V30 1268 N 116.77 1.45427 -0.607355 0
M  V30 1269 C 117.717 2.3053 0.111625 0
M  V30 1270 C 118.687 1.4209 0.860216 0
M  V30 1271 O 119.872 1.71019 0.845998 0
M  V30 1272 C 117.012 3.26992 1.10319 0
M  V30 1273 C 116.125 4.30535 0.355493 0
M  V30 1274 C 115.26 5.14105 1.33676 0
M  V30 1275 C 114.299 6.09376 0.576862 0
M  V30 1276 N 113.436 6.85727 1.5074 0
M  V30 1277 H 118.276 2.91477 -0.620093 0
M  V30 1278 H 115.813 1.43631 -0.317594 0
M  V30 1279 H 117.771 3.81385 1.6912 0
M  V30 1280 H 116.401 2.67799 1.80232 0
M  V30 1281 H 115.453 3.78805 -0.348023 0
M  V30 1282 H 116.765 4.98235 -0.237423 0
M  V30 1283 H 115.919 5.72897 1.99684 0
M  V30 1284 H 114.658 4.46423 1.9636 0
M  V30 1285 H 113.663 5.49715 -0.0968519 0
M  V30 1286 H 114.888 6.79085 -0.0449341 0
M  V30 1287 H 112.834 6.20735 2.12189 0
M  V30 1288 H 112.751 7.49778 0.967913 0
M  V30 1289 H 114.019 7.4906 2.15706 0
M  V30 1290 N 118.248 0.346503 1.53744 0
M  V30 1291 C 119.497 -0.250122 2.00143 0
M  V30 1292 C 119.81 -1.51418 1.23822 0
M  V30 1293 O 121.016 -2.18823 1.60713 0
M  V30 1294 C 119.472 -0.496252 3.56462 0
M  V30 1295 C 119.08 0.752077 4.41642 0
M  V30 1296 C 120.824 -1.05157 4.11269 0
M  V30 1297 C 118.731 0.476583 5.89477 0
M  V30 1298 H 117.661 -0.0972409 0.747703 0
M  V30 1299 H 120.312 0.46229 1.77581 0
M  V30 1300 H 118.694 -1.26944 3.75102 0
M  V30 1301 H 119.868 1.5266 4.34778 0
M  V30 1302 H 118.183 1.22925 3.97842 0
M  V30 1303 H 120.78 -1.27269 5.19333 0
M  V30 1304 H 121.123 -2.00799 3.64672 0
M  V30 1305 H 121.656 -0.339019 3.96353 0
M  V30 1306 H 118.395 1.4028 6.40314 0
M  V30 1307 H 117.915 -0.259794 5.99237 0
M  V30 1308 H 119.594 0.0949315 6.4693 0
M  V30 1309 N 119.726 -1.57421 0.075193 0
M  V30 1310 C 120.972 -1.94716 -0.587998 0
M  V30 1311 C 121.327 -0.955205 -1.67014 0
M  V30 1312 O 120.62 0.0219842 -1.91587 0
M  V30 1313 C 120.814 -3.36428 -1.20626 0
M  V30 1314 C 120.643 -4.49317 -0.185541 0
M  V30 1315 C 119.413 -5.04772 0.23099 0
M  V30 1316 C 121.611 -5.11036 0.57854 0
M  V30 1317 N 119.593 -6.01204 1.24206 0
M  V30 1318 C 120.964 -6.02998 1.44199 0
M  V30 1319 C 123.019 -4.93844 0.634237 0
M  V30 1320 C 121.722 -6.79614 2.3562 0
M  V30 1321 C 123.748 -5.71106 1.53597 0
M  V30 1322 C 123.11 -6.6272 2.38709 0
M  V30 1323 H 119.209 -0.759536 -0.186089 0
M  V30 1324 H 121.793 -1.94097 0.153128 0
M  V30 1325 H 119.964 -3.37778 -1.9173 0
M  V30 1326 H 121.696 -3.60951 -1.8302 0
M  V30 1327 H 118.451 -4.73353 -0.152807 0
M  V30 1328 H 118.875 -6.54119 1.74521 0
M  V30 1329 H 123.517 -4.22799 -0.00960004 0
M  V30 1330 H 121.235 -7.49934 3.01038 0
M  V30 1331 H 124.821 -5.59824 1.58394 0
M  V30 1332 H 123.701 -7.2146 3.07352 0
M  V30 1333 N 121.204 0.198386 -1.56346 0
M  V30 1334 C 122.136 1.26987 -1.90806 0
M  V30 1335 C 123.149 1.41877 -0.798419 0
M  V30 1336 O 124.338 1.42362 -1.07682 0
M  V30 1337 C 121.438 2.64246 -2.12196 0
M  V30 1338 C 120.611 2.71007 -3.43328 0
M  V30 1339 C 119.67 3.89439 -3.5387 0
M  V30 1340 O 118.696 3.76695 -4.26719 0
M  V30 1341 N 119.898 5.04752 -2.86715 0
M  V30 1342 H 122.663 0.977433 -2.83313 0
M  V30 1343 H 120.224 0.388322 -1.57174 0
M  V30 1344 H 122.216 3.41896 -2.1654 0
M  V30 1345 H 120.786 2.85992 -1.26204 0
M  V30 1346 H 120.006 1.79657 -3.50881 0
M  V30 1347 H 121.294 2.72512 -4.29668 0
M  V30 1348 H 120.692 5.18004 -2.2735 0
M  V30 1349 H 119.249 5.8036 -2.96691 0
M  V30 1350 N 122.682 1.50554 0.465978 0
M  V30 1351 C 123.614 1.65949 1.58093 0
M  V30 1352 C 124.627 0.540827 1.53554 0
M  V30 1353 O 125.816 0.814187 1.5885 0
M  V30 1354 C 122.916 1.63261 2.96983 0
M  V30 1355 C 122.089 2.91245 3.26336 0
M  V30 1356 C 121.148 2.8113 4.44806 0
M  V30 1357 O 120.174 3.55086 4.44862 0
M  V30 1358 N 121.376 1.95032 5.46756 0
M  V30 1359 H 124.141 2.62122 1.45301 0
M  V30 1360 H 121.702 1.48082 0.65448 0
M  V30 1361 H 123.694 1.54101 3.74212 0
M  V30 1362 H 122.264 0.748032 3.03518 0
M  V30 1363 H 121.484 3.14493 2.37672 0
M  V30 1364 H 122.772 3.76022 3.42761 0
M  V30 1365 H 122.17 1.3427 5.49534 0
M  V30 1366 H 120.727 1.91772 6.2295 0
M  V30 1367 N 124.16 -0.719506 1.40217 0
M  V30 1368 C 125.406 -1.48152 1.38488 0
M  V30 1369 C 125.739 -1.94195 -0.0141867 0
M  V30 1370 O 125.014 -1.67884 -0.982096 0
M  V30 1371 C 125.297 -2.71035 2.37091 0
M  V30 1372 C 125.15 -2.30912 3.86005 0
M  V30 1373 C 126.469 -3.73182 2.33288 0
M  V30 1374 H 123.588 -0.537395 0.504357 0
M  V30 1375 H 126.23 -0.821472 1.71324 0
M  V30 1376 H 124.38 -3.27352 2.0922 0
M  V30 1377 H 126.052 -1.80107 4.24687 0
M  V30 1378 H 124.295 -1.62958 4.02029 0
M  V30 1379 H 124.966 -3.18978 4.50508 0
M  V30 1380 H 127.442 -3.26485 2.57966 0
M  V30 1381 H 126.318 -4.56806 3.04334 0
M  V30 1382 H 126.579 -4.21202 1.34317 0
M  V30 1383 N 125.638 -1.25649 -0.95132 0
M  V30 1384 C 126.601 -1.06399 -2.03007 0
M  V30 1385 C 127.601 -0.0156794 -1.60792 0
M  V30 1386 O 128.791 -0.25817 -1.72276 0
M  V30 1387 C 125.923 -0.616184 -3.35285 0
M  V30 1388 H 127.116 -2.02164 -2.21517 0
M  V30 1389 H 124.669 -1.08103 -1.12887 0
M  V30 1390 H 125.404 0.343917 -3.22471 0
M  V30 1391 H 125.189 -1.37301 -3.67275 0
M  V30 1392 H 126.679 -0.503032 -4.14559 0
M  V30 1393 N 127.117 1.15442 -1.07289 0
M  V30 1394 C 128.342 1.90638 -0.816828 0
M  V30 1395 C 128.767 1.77445 0.624083 0
M  V30 1396 O 128.125 1.10671 1.43602 0
M  V30 1397 C 128.173 3.39008 -1.22906 0
M  V30 1398 O 127.277 4.10701 -0.373975 0
M  V30 1399 H 126.618 0.593555 -0.297638 0
M  V30 1400 H 129.148 1.46198 -1.43134 0
M  V30 1401 H 129.158 3.89801 -1.20497 0
M  V30 1402 H 127.833 3.47929 -2.27856 0
M  V30 1403 H 126.41 3.70046 -0.460499 0
M  V30 1404 N 128.595 0.856903 1.32268 0
M  V30 1405 C 129.82 0.474569 2.01897 0
M  V30 1406 C 130.245 -0.921766 1.63967 0
M  V30 1407 O 129.603 -1.60589 0.84148 0
M  V30 1408 C 129.651 0.623799 3.55164 0
M  V30 1409 O 128.755 -0.342459 4.10976 0
M  V30 1410 H 128.096 0.190422 0.63611 0
M  V30 1411 H 130.626 1.15672 1.68764 0
M  V30 1412 H 130.636 0.512169 4.04773 0
M  V30 1413 H 129.311 1.64202 3.82113 0
M  V30 1414 H 127.888 -0.18688 3.72431 0
M  V30 1415 N 130.073 -1.45103 0.615059 0
M  V30 1416 C 131.02 -2.30586 -0.0993978 0
M  V30 1417 C 131.99 -1.42544 -0.852669 0
M  V30 1418 O 133.175 -1.71465 -0.836917 0
M  V30 1419 C 130.315 -3.27572 -1.08583 0
M  V30 1420 C 129.428 -4.30717 -0.332656 0
M  V30 1421 C 128.563 -5.14807 -1.30947 0
M  V30 1422 C 127.602 -6.09673 -0.544538 0
M  V30 1423 N 126.739 -6.86517 -1.47101 0
M  V30 1424 H 131.579 -2.91144 0.635542 0
M  V30 1425 H 129.116 -1.4346 0.325206 0
M  V30 1426 H 131.074 -3.82276 -1.67095 0
M  V30 1427 H 129.704 -2.68751 -1.78809 0
M  V30 1428 H 128.756 -3.78615 0.368107 0
M  V30 1429 H 130.068 -4.98102 0.263842 0
M  V30 1430 H 129.222 -5.73948 -1.96643 0
M  V30 1431 H 127.961 -4.47458 -1.9399 0
M  V30 1432 H 126.966 -5.49656 0.126003 0
M  V30 1433 H 128.191 -6.79052 0.080947 0
M  V30 1434 H 126.137 -6.21851 -2.08895 0
M  V30 1435 H 126.054 -7.50281 -0.928137 0
M  V30 1436 H 127.322 -7.50194 -2.11731 0
M  V30 1437 N 131.551 -0.354651 -1.53558 0
M  V30 1438 C 132.799 0.237972 -2.00694 0
M  V30 1439 C 133.12 1.50173 -1.24391 0
M  V30 1440 O 132.39 1.92673 -0.354135 0
M  V30 1441 H 130.97 0.0909256 -0.741446 0
M  V30 1442 H 133.632 -0.478368 -1.88938 0
M  V30 1443 H 132.728 0.47264 -3.085 0
M  V30 1444 N 133.029 1.57378 -0.0835403 0
M  V30 1445 C 133.939 2.16897 0.894021 0
M  V30 1446 C 134.955 1.13528 1.31861 0
M  V30 1447 O 136.131 1.45848 1.3889 0
M  V30 1448 C 133.196 2.72831 2.13925 0
M  V30 1449 C 132.257 3.91115 1.76997 0
M  V30 1450 C 131.49 4.44371 2.95584 0
M  V30 1451 O 131.713 3.96596 4.09961 0
M  V30 1452 O 130.647 5.35549 2.74719 0
M  V30 1453 H 134.473 3.00814 0.417679 0
M  V30 1454 H 132.058 1.48741 0.140181 0
M  V30 1455 H 133.94 3.0863 2.86924 0
M  V30 1456 H 132.615 1.91967 2.60635 0
M  V30 1457 H 131.522 3.60148 1.01214 0
M  V30 1458 H 132.855 4.73307 1.3506 0
M  V30 1459 N 134.507 -0.190092 1.56449 0
M  V30 1460 C 135.756 -0.907912 1.80111 0
M  V30 1461 C 136.069 -1.84214 0.657619 0
M  V30 1462 O 137.275 -2.60094 0.778663 0
M  V30 1463 C 135.731 -1.66485 3.19078 0
M  V30 1464 C 135.339 -0.7752 4.41242 0
M  V30 1465 C 137.083 -2.37201 3.52045 0
M  V30 1466 C 134.99 -1.53129 5.71231 0
M  V30 1467 H 133.92 -0.34276 0.671589 0
M  V30 1468 H 136.571 -0.161109 1.82791 0
M  V30 1469 H 134.953 -2.45572 3.10661 0
M  V30 1470 H 136.127 -0.0226298 4.60794 0
M  V30 1471 H 134.442 -0.178627 4.16017 0
M  V30 1472 H 137.039 -2.94329 4.46402 0
M  V30 1473 H 137.382 -3.11632 2.76028 0
M  V30 1474 H 137.915 -1.65075 3.61932 0
M  V30 1475 H 134.654 -0.82967 6.50228 0
M  V30 1476 H 134.174 -2.25767 5.55688 0
M  V30 1477 H 135.853 -2.08377 6.12526 0
M  V30 1478 N 135.985 -1.50799 -0.457987 0
M  V30 1479 C 136.933 -1.71162 -1.575 0
M  V30 1480 C 137.927 -0.577592 -1.59249 0
M  V30 1481 O 139.133 -0.758443 -1.63241 0
M  V30 1482 H 135.508 -0.540468 -0.522875 0
M  V30 1483 H 137.479 -2.64837 -1.37492 0
M  V30 1484 C 136.228 -1.83496 -2.95338 0
M  V30 1485 H 135.551 -2.70153 -2.94716 0
M  V30 1486 H 136.991 -2.01765 -3.72917 0
M  V30 1487 C 135.45 -0.589694 -3.31699 0
M  V30 1488 O 135.98 0.265163 -4.00824 0
M  V30 1489 N 134.186 -0.439845 -2.87252 0
M  V30 1490 H 133.733 -1.13655 -2.31172 0
M  V30 1491 H 133.691 0.392159 -3.11945 0
M  V30 1492 N 137.463 0.71206 -1.40597 0
M  V30 1493 C 138.688 1.50617 -1.42581 0
M  V30 1494 C 139.113 1.88079 -0.0282102 0
M  V30 1495 O 138.471 1.53511 0.964579 0
M  V30 1496 C 138.519 2.7557 -2.3258 0
M  V30 1497 O 137.623 3.72414 -1.77148 0
M  V30 1498 H 136.964 0.453966 -0.484573 0
M  V30 1499 H 139.494 0.876649 -1.84868 0
M  V30 1500 H 139.504 3.2406 -2.47889 0
M  V30 1501 H 138.179 2.47639 -3.34138 0
M  V30 1502 H 136.756 3.31276 -1.71204 0
M  V30 1503 N 138.941 1.26152 0.944643 0
M  V30 1504 C 139.889 1.07215 2.06417 0
M  V30 1505 C 140.883 9.2007e-05 1.694 0
M  V30 1506 O 142.089 0.1565 1.79318 0
M  V30 1507 H 138.464 0.329837 0.675805 0
M  V30 1508 H 140.435 2.02099 2.19541 0
M  V30 1509 C 139.184 0.718197 3.40202 0
M  V30 1510 H 138.507 1.53497 3.69159 0
M  V30 1511 H 139.947 0.625459 4.19361 0
M  V30 1512 C 138.406 -0.576435 3.31932 0
M  V30 1513 O 138.936 -1.61574 3.67773 0
M  V30 1514 N 137.142 -0.565781 2.85039 0
M  V30 1515 H 136.689 0.280367 2.5607 0
M  V30 1516 H 136.647 -1.43213 2.79888 0
M  V30 1517 N 140.419 -1.14872 1.07899 0
M  V30 1518 C 141.649 -1.89386 0.825631 0
M  V30 1519 C 142.057 -1.78565 -0.625406 0
M  V30 1520 O 141.4 -1.13918 -1.44113 0
M  V30 1521 C 141.462 -3.40206 1.16191 0
M  V30 1522 C 141.126 -3.74812 2.61467 0
M  V30 1523 C 142.123 -3.75367 3.59716 0
M  V30 1524 C 139.808 -4.0495 2.97189 0
M  V30 1525 C 141.802 -4.05574 4.9172 0
M  V30 1526 C 139.489 -4.34821 4.29388 0
M  V30 1527 C 140.487 -4.35116 5.26463 0
M  V30 1528 O 140.175 -4.64267 6.56286 0
M  V30 1529 H 139.907 -0.606894 0.297751 0
M  V30 1530 H 142.461 -1.46438 1.44031 0
M  V30 1531 H 140.691 -3.8358 0.490214 0
M  V30 1532 H 142.38 -3.96018 0.890193 0
M  V30 1533 H 143.146 -3.52176 3.33462 0
M  V30 1534 H 139.025 -4.03876 2.22273 0
M  V30 1535 H 142.569 -4.05719 5.67484 0
M  V30 1536 H 138.466 -4.5748 4.55392 0
M  V30 1537 H 139.234 -4.82007 6.61522 0
M  V30 1538 N 141.898 -0.863906 -1.31812 0
M  V30 1539 C 143.146 -0.470904 -1.96537 0
M  V30 1540 C 143.467 0.978771 -1.68657 0
M  V30 1541 O 142.737 1.6853 -0.998717 0
M  V30 1542 H 141.317 -0.171148 -0.72713 0
M  V30 1543 H 143.979 -1.10236 -1.60729 0
M  V30 1544 H 143.075 -0.623616 -3.05806 0
M  V30 1545 N 143.376 1.44774 -0.622745 0
M  V30 1546 C 144.622 2.02968 -0.13257 0
M  V30 1547 C 144.977 1.48047 1.22881 0
M  V30 1548 O 144.27 0.651625 1.80179 0
M  V30 1549 C 144.464 3.57364 -0.0508323 0
M  V30 1550 C 144.293 4.27262 -1.40275 0
M  V30 1551 C 143.063 4.64577 -1.98737 0
M  V30 1552 C 145.261 4.58248 -2.3348 0
M  V30 1553 N 143.243 5.19404 -3.27251 0
M  V30 1554 C 144.614 5.14069 -3.46603 0
M  V30 1555 C 146.669 4.40195 -2.32664 0
M  V30 1556 C 145.372 5.53738 -4.59093 0
M  V30 1557 C 147.398 4.80907 -3.44213 0
M  V30 1558 C 146.76 5.36834 -4.56058 0
M  V30 1559 H 142.859 0.776541 -0.0922354 0
M  V30 1560 H 145.443 1.76385 -0.82441 0
M  V30 1561 H 143.614 3.83576 0.610265 0
M  V30 1562 H 145.346 4.02219 0.447397 0
M  V30 1563 H 142.101 4.48622 -1.51774 0
M  V30 1564 H 142.525 5.51301 -3.92933 0
M  V30 1565 H 147.167 3.96257 -1.47446 0
M  V30 1566 H 144.885 5.96635 -5.45025 0
M  V30 1567 H 148.471 4.68659 -3.44747 0
M  V30 1568 H 147.351 5.67755 -5.40947 0
M  V30 1569 N 144.854 0.36279 1.53368 0
M  V30 1570 C 145.817 -0.472679 2.24273 0
M  V30 1571 C 146.817 -1.012 1.24961 0
M  V30 1572 O 148.007 -0.898194 1.49259 0
M  V30 1573 C 145.139 -1.66039 2.97731 0
M  V30 1574 H 146.332 0.14773 2.99536 0
M  V30 1575 H 143.885 0.114434 1.55881 0
M  V30 1576 H 144.62 -2.31896 2.26704 0
M  V30 1577 H 144.405 -1.28066 3.70596 0
M  V30 1578 H 145.895 -2.25252 3.51641 0
M  V30 1579 N 146.332 -1.57332 0.0918853 0
M  V30 1580 C 147.581 -1.93412 -0.572249 0
M  V30 1581 C 147.894 -0.975515 -1.69538 0
M  V30 1582 O 149.1 -1.22991 -2.42045 0
M  V30 1583 C 147.556 -3.43648 -1.0693 0
M  V30 1584 C 147.164 -4.47994 0.0239049 0
M  V30 1585 C 148.908 -3.88695 -1.70635 0
M  V30 1586 C 146.815 -5.89381 -0.488319 0
M  V30 1587 H 145.745 -0.721939 -0.217532 0
M  V30 1588 H 148.396 -1.82735 0.167369 0
M  V30 1589 H 146.778 -3.49466 -1.8625 0
M  V30 1590 H 147.952 -4.53815 0.799277 0
M  V30 1591 H 146.267 -4.12536 0.565946 0
M  V30 1592 H 148.864 -4.91725 -2.10025 0
M  V30 1593 H 149.207 -3.27166 -2.57426 0
M  V30 1594 H 149.74 -3.85564 -0.979023 0
M  V30 1595 H 146.479 -6.54602 0.342906 0
M  V30 1596 H 145.999 -5.87037 -1.23077 0
M  V30 1597 H 147.678 -6.39863 -0.958317 0
M  V30 1598 N 147.81 0.181792 -1.56548 0
M  V30 1599 C 149.056 0.896803 -1.82562 0
M  V30 1600 C 149.411 1.80324 -0.670908 0
M  V30 1601 O 148.704 1.8868 0.333235 0
M  V30 1602 C 148.898 1.73728 -3.12335 0
M  V30 1603 C 148.727 0.913714 -4.4032 0
M  V30 1604 C 147.497 0.592903 -5.01809 0
M  V30 1605 C 149.695 0.260164 -5.13642 0
M  V30 1606 N 147.677 -0.247901 -6.13399 0
M  V30 1607 C 149.048 -0.442256 -6.18421 0
M  V30 1608 C 151.103 0.177253 -4.97584 0
M  V30 1609 C 149.806 -1.21971 -7.08883 0
M  V30 1610 C 151.832 -0.586839 -5.88481 0
M  V30 1611 C 151.194 -1.27766 -6.92716 0
M  V30 1612 H 147.293 0.307122 -0.719166 0
M  V30 1613 H 149.877 0.164535 -1.94004 0
M  V30 1614 H 148.048 2.44105 -3.02105 0
M  V30 1615 H 149.78 2.39279 -3.26386 0
M  V30 1616 H 146.535 0.920502 -4.64568 0
M  V30 1617 H 146.959 -0.658304 -6.73792 0
M  V30 1618 H 151.601 0.696993 -4.17015 0
M  V30 1619 H 149.319 -1.75083 -7.88905 0
M  V30 1620 H 152.905 -0.652522 -5.78129 0
M  V30 1621 H 151.785 -1.85943 -7.61836 0
M  V30 1622 N 149.288 1.51039 0.449983 0
M  V30 1623 C 150.513 1.6715 1.22783 0
M  V30 1624 C 150.938 0.363081 1.84563 0
M  V30 1625 O 150.296 -0.675433 1.68249 0
M  V30 1626 C 150.344 2.77985 2.29689 0
M  V30 1627 O 149.448 2.40707 3.34864 0
M  V30 1628 H 148.789 0.557746 0.360299 0
M  V30 1629 H 151.319 1.97535 0.533005 0
M  V30 1630 H 151.329 3.01693 2.74673 0
M  V30 1631 H 150.004 3.72935 1.84098 0
M  V30 1632 H 148.581 2.27523 2.95445 0
M  V30 1633 N 150.766 -0.704594 1.40972 0
M  V30 1634 C 151.676 -1.84856 1.44448 0
M  V30 1635 C 152.692 -1.70726 0.335961 0
M  V30 1636 O 153.868 -1.92799 0.582276 0
M  V30 1637 C 150.933 -3.20758 1.31587 0
M  V30 1638 C 149.994 -3.47063 2.52677 0
M  V30 1639 C 149.227 -4.76481 2.4042 0
M  V30 1640 O 149.45 -5.52341 1.42391 0
M  V30 1641 O 148.384 -5.03367 3.30007 0
M  V30 1642 H 152.21 -1.8488 2.40942 0
M  V30 1643 H 149.795 -0.85647 1.22413 0
M  V30 1644 H 151.677 -4.01913 1.26665 0
M  V30 1645 H 150.352 -3.21438 0.382049 0
M  V30 1646 H 149.259 -2.65873 2.63177 0
M  V30 1647 H 150.592 -3.5119 3.44858 0
M  V30 1648 N 152.244 -1.26651 -0.937939 0
M  V30 1649 C 153.521 -1.0313 -1.66204 0
M  V30 1650 C 153.901 0.437256 -2.06522 0
M  V30 1651 O 153.249 1.41831 -1.79154 0
M  V30 1652 C 153.459 -1.98314 -2.87181 0
M  V30 1653 C 154.807 -2.27107 -3.58758 0
M  V30 1654 O 155.831 -1.96205 -2.97291 0
M  V30 1655 O 154.69 -2.79736 -4.69479 0
M  V30 1656 H 151.784 -0.392384 -0.727986 0
M  V30 1657 H 154.33 -1.37874 -0.989382 0
M  V30 1658 H 153.102 -2.97399 -2.54302 0
M  V30 1659 H 152.725 -1.64068 -3.6217 0
M  V30 1660 N 153.722 1.14298 -1.08507 0
M  V30 1661 C 154.67 2.21483 -0.710483 0
M  V30 1662 C 155.664 1.66998 0.284234 0
M  V30 1663 O 156.87 1.79401 0.146692 0
M  V30 1664 H 153.245 0.721578 -0.211729 0
M  V30 1665 H 155.216 2.50348 -1.62384 0
M  V30 1666 C 153.965 3.4743 -0.137007 0
M  V30 1667 H 153.288 3.89686 -0.893592 0
M  V30 1668 H 154.728 4.2391 0.0872789 0
M  V30 1669 C 153.187 3.17548 1.12538 0
M  V30 1670 O 153.717 3.35437 2.21009 0
M  V30 1671 N 151.923 2.71499 1.03617 0
M  V30 1672 H 151.47 2.57143 0.153403 0
M  V30 1673 H 151.428 2.51881 1.88158 0
M  V30 1674 N 155.201 0.870884 1.31352 0
M  V30 1675 C 156.431 0.496049 2.00557 0
M  V30 1676 C 156.839 -0.916241 1.65534 0
M  V30 1677 O 156.182 -1.61188 0.881134 0
M  V30 1678 C 156.244 0.574418 3.54881 0
M  V30 1679 C 155.908 1.94849 4.1338 0
M  V30 1680 C 156.905 2.91611 4.30417 0
M  V30 1681 C 154.59 2.25005 4.49086 0
M  V30 1682 C 156.584 4.16672 4.82352 0
M  V30 1683 C 154.271 3.50315 5.00722 0
M  V30 1684 C 155.269 4.45964 5.17306 0
M  V30 1685 O 154.957 5.69052 5.67833 0
M  V30 1686 H 154.689 0.191664 0.64826 0
M  V30 1687 H 157.243 1.17409 1.68536 0
M  V30 1688 H 155.473 -0.160549 3.86367 0
M  V30 1689 H 157.162 0.212879 4.05341 0
M  V30 1690 H 157.928 2.69622 4.03149 0
M  V30 1691 H 153.807 1.51332 4.35453 0
M  V30 1692 H 157.351 4.91336 4.95211 0
M  V30 1693 H 153.248 3.72147 5.27424 0
M  V30 1694 H 154.016 5.71236 5.86201 0
M  V30 1695 N 156.679 -1.44442 0.630414 0
M  V30 1696 C 157.642 -2.29107 -0.0652523 0
M  V30 1697 C 158.642 -1.41002 -0.772995 0
M  V30 1698 O 159.832 -1.62881 -0.617692 0
M  V30 1699 C 156.964 -3.22564 -1.10296 0
M  V30 1700 H 158.157 -2.92103 0.679401 0
M  V30 1701 H 155.71 -1.51343 0.390517 0
M  V30 1702 H 156.445 -2.64416 -1.87762 0
M  V30 1703 H 156.23 -3.87491 -0.59941 0
M  V30 1704 H 157.72 -3.86167 -1.5895 0
M  V30 1705 N 158.157 -0.370918 -1.53173 0
M  V30 1706 C 159.089 0.507823 -2.23503 0
M  V30 1707 C 160.102 1.04182 -1.251 0
M  V30 1708 O 161.291 0.947286 -1.5129 0
M  V30 1709 C 158.391 1.71447 -2.92334 0
M  V30 1710 C 157.564 1.31105 -4.17289 0
M  V30 1711 C 156.623 2.38035 -4.69282 0
M  V30 1712 O 155.649 2.00204 -5.32829 0
M  V30 1713 N 156.851 3.69697 -4.47554 0
M  V30 1714 H 159.616 -0.0946382 -2.99551 0
M  V30 1715 H 157.177 -0.196358 -1.60705 0
M  V30 1716 H 159.169 2.42469 -3.24023 0
M  V30 1717 H 157.739 2.22368 -2.19707 0
M  V30 1718 H 156.959 0.430462 -3.91843 0
M  V30 1719 H 158.247 1.0179 -4.98514 0
M  V30 1720 H 157.645 4.03205 -3.9679 0
M  V30 1721 H 156.202 4.36807 -4.8378 0
M  V30 1722 N 159.635 1.57281 -0.100228 0
M  V30 1723 C 160.865 1.98591 0.569681 0
M  V30 1724 C 161.273 0.978315 1.61943 0
M  V30 1725 O 160.616 -0.0396108 1.83657 0
M  V30 1726 C 160.678 3.36282 1.271 0
M  V30 1727 C 160.342 4.55488 0.371409 0
M  V30 1728 C 161.339 5.18491 -0.382504 0
M  V30 1729 C 159.024 5.01474 0.287965 0
M  V30 1730 C 161.018 6.25852 -1.20779 0
M  V30 1731 C 158.705 6.08701 -0.540965 0
M  V30 1732 C 159.703 6.70755 -1.28749 0
M  V30 1733 O 159.391 7.75914 -2.10269 0
M  V30 1734 H 159.123 0.65752 0.156982 0
M  V30 1735 H 161.677 2.0463 -0.177734 0
M  V30 1736 H 159.907 3.26941 2.0651 0
M  V30 1737 H 161.596 3.62005 1.83595 0
M  V30 1738 H 162.362 4.83891 -0.3278 0
M  V30 1739 H 158.241 4.52932 0.858689 0
M  V30 1740 H 161.785 6.74218 -1.79096 0
M  V30 1741 H 157.682 6.42732 -0.597131 0
M  V30 1742 H 158.45 7.92925 -2.03007 0
M  V30 1743 N 161.113 -0.173488 1.56642 0
M  V30 1744 C 162.39 -0.917617 1.7274 0
M  V30 1745 C 162.77 -2.00484 0.661027 0
M  V30 1746 O 162.118 -2.26184 -0.32453 0
M  V30 1747 C 162.328 -1.48433 3.15862 0
M  V30 1748 C 163.676 -1.95809 3.76754 0
M  V30 1749 O 164.7 -1.58231 3.19126 0
M  V30 1750 O 163.559 -2.65024 4.77938 0
M  V30 1751 H 160.653 -0.431772 0.705338 0
M  V30 1752 H 163.199 -0.161487 1.6893 0
M  V30 1753 H 161.971 -0.701715 3.84957 0
M  V30 1754 H 161.594 -2.30471 3.23989 0
M  V30 1755 N 162.591 -1.51276 -0.441967 0
M  V30 1756 C 163.524 -1.66933 -1.55591 0
M  V30 1757 C 164.502 -0.516958 -1.54163 0
M  V30 1758 O 165.686 -0.740209 -1.73358 0
M  V30 1759 C 162.813 -1.67866 -2.94174 0
M  V30 1760 C 161.859 -2.89013 -3.13646 0
M  V30 1761 S 162.692 -4.49897 -2.90436 0
M  V30 1762 C 163.848 -4.53568 -4.31308 0
M  V30 1763 H 164.081 -2.61155 -1.42076 0
M  V30 1764 H 161.614 -1.40902 -0.631341 0
M  V30 1765 H 163.572 -1.69089 -3.74058 0
M  V30 1766 H 162.233 -0.748296 -3.05056 0
M  V30 1767 H 161.426 -2.86054 -4.14957 0
M  V30 1768 H 161.028 -2.85509 -2.4158 0
M  V30 1769 H 163.32 -4.28924 -5.24434 0
M  V30 1770 H 164.263 -5.55355 -4.39303 0
M  V30 1771 H 164.671 -3.82943 -4.14747 0
M  V30 1772 N 164.069 0.697108 -1.41344 0
M  V30 1773 C 165.309 1.46939 -1.42085 0
M  V30 1774 C 165.673 1.9198 -0.0280397 0
M  V30 1775 O 166.874 2.6865 0.0897504 0
M  V30 1776 C 165.145 2.64985 -2.39828 0
M  V30 1777 S 166.704 3.54147 -2.59085 0
M  V30 1778 H 163.522 0.502146 -0.503359 0
M  V30 1779 H 166.124 0.813546 -1.77769 0
M  V30 1780 H 164.828 2.30098 -3.39828 0
M  V30 1781 H 164.359 3.35464 -2.05493 0
M  V30 1782 H 166.374 4.60137 -1.85711 0
M  V30 1783 N 165.547 1.27147 0.931209 0
M  V30 1784 C 166.477 1.12081 2.04842 0
M  V30 1785 C 167.458 0.0232364 1.70084 0
M  V30 1786 O 168.643 0.197085 1.93197 0
M  V30 1787 C 165.773 0.76354 3.38803 0
M  V30 1788 C 164.727 1.81396 3.87659 0
M  V30 1789 C 164.053 1.31075 5.18385 0
M  V30 1790 C 165.353 3.21739 4.11438 0
M  V30 1791 H 167.047 2.05537 2.17703 0
M  V30 1792 H 164.593 0.989603 1.04608 0
M  V30 1793 H 166.546 0.644982 4.16435 0
M  V30 1794 H 165.27 -0.206727 3.25945 0
M  V30 1795 H 163.929 1.92136 3.12217 0
M  V30 1796 H 163.577 0.330037 5.01916 0
M  V30 1797 H 163.277 2.013 5.52044 0
M  V30 1798 H 164.801 1.20506 5.98591 0
M  V30 1799 H 166.215 3.14019 4.79651 0
M  V30 1800 H 164.612 3.89644 4.56397 0
M  V30 1801 H 165.682 3.67054 3.16859 0
M  V30 1802 N 167.025 -1.13721 1.09112 0
M  V30 1803 C 167.988 -2.17222 0.731241 0
M  V30 1804 C 168.988 -1.59035 -0.237566 0
M  V30 1805 O 170.178 -1.74192 -0.0161704 0
M  V30 1806 C 167.31 -3.40804 0.0808443 0
M  V30 1807 H 168.503 -2.50573 1.64783 0
M  V30 1808 H 166.056 -1.28493 0.889897 0
M  V30 1809 H 166.791 -3.1304 -0.847127 0
M  V30 1810 H 166.576 -3.84306 0.777896 0
M  V30 1811 H 168.066 -4.1731 -0.155657 0
M  V30 1812 N 168.503 -0.877838 -1.30888 0
M  V30 1813 C 169.413 -0.343096 -2.32078 0
M  V30 1814 C 170.429 0.551022 -1.65045 0
M  V30 1815 O 171.605 0.445854 -1.96403 0
M  V30 1816 C 168.67 0.439905 -3.43898 0
M  V30 1817 C 167.731 -0.483111 -4.26573 0
M  V30 1818 C 166.964 0.262616 -5.33053 0
M  V30 1819 O 167.187 1.48967 -5.50604 0
M  V30 1820 O 166.121 -0.383593 -6.00676 0
M  V30 1821 H 169.947 -1.18203 -2.79753 0
M  V30 1822 H 167.532 -0.64145 -1.34929 0
M  V30 1823 H 169.414 0.883504 -4.12034 0
M  V30 1824 H 168.089 1.25526 -2.98371 0
M  V30 1825 H 166.996 -0.975374 -3.61161 0
M  V30 1826 H 168.329 -1.26427 -4.75686 0
M  V30 1827 N 169.982 1.44106 -0.638065 0
M  V30 1828 C 170.912 2.33448 0.0494287 0
M  V30 1829 C 171.893 1.48606 0.827672 0
M  V30 1830 O 173.078 1.77308 0.792173 0
M  V30 1831 C 170.208 3.31771 1.02691 0
M  V30 1832 C 169.162 4.26485 0.359823 0
M  V30 1833 C 168.488 5.14729 1.44769 0
M  V30 1834 C 169.788 5.17056 -0.738296 0
M  V30 1835 H 171.482 2.91183 -0.696636 0
M  V30 1836 H 169.028 1.40014 -0.336456 0
M  V30 1837 H 170.981 3.93161 1.51666 0
M  V30 1838 H 169.705 2.7226 1.80395 0
M  V30 1839 H 168.364 3.66437 -0.10934 0
M  V30 1840 H 168.012 4.51566 2.21578 0
M  V30 1841 H 167.712 5.78913 1.00668 0
M  V30 1842 H 169.236 5.78991 1.93911 0
M  V30 1843 H 170.65 5.72342 -0.331354 0
M  V30 1844 H 169.047 5.89879 -1.10286 0
M  V30 1845 H 170.117 4.57652 -1.60258 0
M  V30 1846 N 171.46 0.379036 1.52974 0
M  V30 1847 C 172.708 -0.206014 2.01047 0
M  V30 1848 C 173.029 -1.48175 1.26765 0
M  V30 1849 O 172.299 -1.92085 0.384743 0
M  V30 1850 H 170.879 -0.0791184 0.742798 0
M  V30 1851 H 173.541 0.508366 1.88153 0
M  V30 1852 H 172.637 -0.423501 3.09213 0
M  V30 1853 N 172.938 -1.57226 0.108567 0
M  V30 1854 C 173.87 -2.11809 -0.875752 0
M  V30 1855 C 174.883 -1.05839 -1.23701 0
M  V30 1856 O 176.072 -1.33245 -1.18778 0
M  V30 1857 C 173.172 -2.59411 -2.18081 0
M  V30 1858 C 172.345 -3.89364 -1.99284 0
M  V30 1859 C 171.404 -4.22672 -3.13424 0
M  V30 1860 O 170.43 -4.91668 -2.86795 0
M  V30 1861 N 171.632 -3.79154 -4.3957 0
M  V30 1862 H 174.397 -2.9689 -0.409477 0
M  V30 1863 H 171.958 -1.61721 -0.076158 0
M  V30 1864 H 173.95 -2.7873 -2.93414 0
M  V30 1865 H 172.52 -1.79268 -2.5609 0
M  V30 1866 H 171.74 -3.79059 -1.08203 0
M  V30 1867 H 173.028 -4.74358 -1.84017 0
M  V30 1868 H 172.426 -3.23486 -4.64083 0
M  V30 1869 H 170.983 -4.03602 -5.11809 0
M  V30 1870 N 174.416 0.165178 -1.56732 0
M  V30 1871 C 175.364 1.22369 -1.97809 0
M  V30 1872 C 176.358 1.45488 -0.867741 0
M  V30 1873 O 177.564 1.45995 -1.05288 0
M  V30 1874 H 173.939 0.411486 -0.629431 0
M  V30 1875 H 175.91 0.850425 -2.86025 0
M  V30 1876 C 174.659 2.55403 -2.35934 0
M  V30 1877 H 173.982 2.38438 -3.20916 0
M  V30 1878 H 175.422 3.2814 -2.68514 0
M  V30 1879 C 173.881 3.14611 -1.20506 0
M  V30 1880 O 174.411 3.98626 -0.496016 0
M  V30 1881 N 172.617 2.7379 -0.97403 0
M  V30 1882 H 172.164 2.0557 -1.55238 0
M  V30 1883 H 172.122 3.1374 -0.203573 0
M  V30 1884 N 175.894 1.51508 0.433938 0
M  V30 1885 C 177.305 1.56784 1.01369 0
M  V30 1886 C 177.656 0.393349 1.92217 0
M  V30 1887 O 176.781 -0.489441 2.10792 0
M  V30 1888 C 177.376 2.84144 1.8452 0
M  V30 1889 C 175.935 2.9198 2.37539 0
M  V30 1890 C 175.082 2.51482 1.16843 0
M  V30 1891 H 178.033 1.57236 0.215081 0
M  V30 1892 H 178.054 2.68098 2.70007 0
M  V30 1893 H 177.566 3.69607 1.18373 0
M  V30 1894 H 175.667 2.10955 3.0713 0
M  V30 1895 H 175.78 3.95704 2.70103 0
M  V30 1896 H 174.144 2.04758 1.51481 0
M  V30 1897 H 174.927 3.39293 0.523015 0
M  V30 1898 N 177.372 -0.689602 1.41712 0
M  V30 1899 C 178.649 -1.44457 1.31877 0
M  V30 1900 C 179.029 -2.11039 -0.0508537 0
M  V30 1901 O 178.377 -2.02138 -1.06547 0
M  V30 1902 C 178.587 -2.45913 2.47645 0
M  V30 1903 C 179.935 -3.10991 2.89084 0
M  V30 1904 O 180.959 -2.56238 2.47428 0
M  V30 1905 O 179.818 -4.10174 3.61137 0
M  V30 1906 H 176.912 -0.64362 0.519309 0
M  V30 1907 H 179.458 -0.719576 1.53689 0
M  V30 1908 H 178.23 -1.95409 3.39015 0
M  V30 1909 H 177.853 -3.25913 2.27742 0
M  V30 1910 N 178.85 -1.27639 -0.924453 0
M  V30 1911 C 180.075 -1.17101 -1.71179 0
M  V30 1912 C 180.5 0.268134 -1.86179 0
M  V30 1913 O 179.858 1.19415 -1.36418 0
M  V30 1914 C 179.906 -1.86313 -3.08739 0
M  V30 1915 O 179.01 -1.16331 -3.95652 0
M  V30 1916 H 178.351 -0.407091 -0.524569 0
M  V30 1917 H 180.881 -1.68767 -1.15666 0
M  V30 1918 H 180.891 -1.938 -3.59034 0
M  V30 1919 H 179.566 -2.91001 -2.97138 0
M  V30 1920 H 178.143 -1.16935 -3.54091 0
M  V30 1921 N 180.328 1.1314 -1.09713 0
M  V30 1922 C 181.744 1.36477 -0.827423 0
M  V30 1923 C 181.944 1.93654 0.556817 0
M  V30 1924 O 181 2.15791 1.31112 0
M  V30 1925 C 182.313 2.31334 -1.92106 0
M  V30 1926 C 183.861 2.44943 -1.94864 0
M  V30 1927 C 184.336 3.4311 -3.0338 0
M  V30 1928 N 185.827 3.50662 -3.02639 0
M  V30 1929 C 186.562 4.2651 -3.83246 0
M  V30 1930 N 186.058 5.05485 -4.73768 0
M  V30 1931 N 187.851 4.2184 -3.71493 0
M  V30 1932 H 180.002 0.743807 -1.9895 0
M  V30 1933 H 182.265 0.389823 -0.864143 0
M  V30 1934 H 181.971 1.96483 -2.91698 0
M  V30 1935 H 181.845 3.31381 -1.80184 0
M  V30 1936 H 184.232 2.79079 -0.959099 0
M  V30 1937 H 184.313 1.4481 -2.10864 0
M  V30 1938 H 183.957 3.09704 -4.02549 0
M  V30 1939 H 183.887 4.43055 -2.84622 0
M  V30 1940 H 186.378 2.94315 -2.37039 0
M  V30 1941 H 186.691 5.60675 -5.3185 0
M  V30 1942 H 185.036 5.04708 -4.77802 0
M  V30 1943 H 188.227 3.5922 -3.00131 0
M  V30 1944 H 188.4 4.80697 -4.3455 0
M  V30 1945 N 181.806 0.884767 1.30421 0
M  V30 1946 C 183.222 0.57874 1.48737 0
M  V30 1947 C 183.422 -0.883567 1.81095 0
M  V30 1948 O 182.478 -1.6648 1.89844 0
M  V30 1949 C 183.791 1.49171 2.61091 0
M  V30 1950 C 185.339 1.49532 2.74971 0
M  V30 1951 C 185.814 2.39421 3.90438 0
M  V30 1952 N 187.305 2.37383 3.97748 0
M  V30 1953 C 188.04 3.03647 4.86401 0
M  V30 1954 N 187.536 3.79136 5.79852 0
M  V30 1955 N 189.329 2.9288 4.79768 0
M  V30 1956 H 181.48 1.83075 1.0769 0
M  V30 1957 H 183.743 0.783637 0.533495 0
M  V30 1958 H 183.449 2.53291 2.44001 0
M  V30 1959 H 183.323 1.20113 3.57565 0
M  V30 1960 H 185.71 0.46163 2.91467 0
M  V30 1961 H 185.791 1.8262 1.79119 0
M  V30 1962 H 185.435 3.42874 3.74699 0
M  V30 1963 H 185.365 2.03649 4.85628 0
M  V30 1964 H 187.856 1.82525 3.30897 0
M  V30 1965 H 188.169 4.26789 6.4426 0
M  V30 1966 H 186.514 3.83243 5.79784 0
M  V30 1967 H 189.705 2.33433 4.05742 0
M  V30 1968 H 189.878 3.448 5.4865 0
M  V30 1969 N 183.284 -1.43765 0.645699 0
M  V30 1970 C 184.532 -2.01499 0.155731 0
M  V30 1971 C 184.853 -1.51151 -1.232 0
M  V30 1972 O 184.123 -0.721044 -1.82148 0
M  V30 1973 H 182.703 -0.745003 0.0545817 0
M  V30 1974 H 185.365 -1.76075 0.835677 0
M  V30 1975 H 184.461 -3.1181 0.134577 0
M  V30 1976 N 184.763 -0.387143 -1.52771 0
M  V30 1977 C 186.012 0.19697 -2.00736 0
M  V30 1978 C 186.325 1.48082 -1.27793 0
M  V30 1979 O 187.531 2.14485 -1.66458 0
M  V30 1980 C 185.987 0.401568 -3.57653 0
M  V30 1981 C 185.595 -0.868907 -4.39493 0
M  V30 1982 C 187.339 0.942164 -4.13912 0
M  V30 1983 C 185.246 -0.632705 -5.88006 0
M  V30 1984 H 184.176 0.0773827 -0.750019 0
M  V30 1985 H 186.827 -0.50921 -1.76293 0
M  V30 1986 H 185.209 1.16954 -3.78335 0
M  V30 1987 H 186.383 -1.64133 -4.30577 0
M  V30 1988 H 184.698 -1.33429 -3.94443 0
M  V30 1989 H 187.295 1.13455 -5.22525 0
M  V30 1990 H 187.638 1.9106 -3.69867 0
M  V30 1991 H 188.171 0.233814 -3.97112 0
M  V30 1992 H 184.91 -1.57208 -6.36369 0
M  V30 1993 H 184.43 0.100825 -5.99715 0
M  V30 1994 H 186.109 -0.26642 -6.46451 0
M  V30 1995 N 186.241 1.57166 -0.116904 0
M  V30 1996 C 187.174 2.10912 0.871291 0
M  V30 1997 C 188.152 1.025 1.26224 0
M  V30 1998 O 189.336 1.3014 1.36366 0
M  V30 1999 C 186.463 2.6041 2.16574 0
M  V30 2000 C 185.509 3.80687 1.92302 0
M  V30 2001 S 186.342 5.23199 1.14119 0
M  V30 2002 C 187.498 5.76064 2.44748 0
M  V30 2003 H 187.731 2.94401 0.414138 0
M  V30 2004 H 185.264 1.54096 0.096829 0
M  V30 2005 H 187.222 2.89583 2.9095 0
M  V30 2006 H 185.883 1.77106 2.59408 0
M  V30 2007 H 185.076 4.13462 2.8821 0
M  V30 2008 H 184.678 3.5212 1.26047 0
M  V30 2009 H 186.97 5.8566 3.406 0
M  V30 2010 H 187.913 6.74184 2.16521 0
M  V30 2011 H 188.321 5.04117 2.54019 0
M  V30 2012 N 187.719 -0.156864 1.56817 0
M  V30 2013 C 188.968 -0.869504 1.81996 0
M  V30 2014 C 189.281 -1.82777 0.696545 0
M  V30 2015 O 190.487 -2.58384 0.833658 0
M  V30 2016 C 188.943 -1.59679 3.22538 0
M  V30 2017 C 188.551 -0.681431 4.42787 0
M  V30 2018 C 190.295 -2.2968 3.56997 0
M  V30 2019 C 188.202 -1.40978 5.74351 0
M  V30 2020 H 187.132 -0.328438 0.678708 0
M  V30 2021 H 189.783 -0.1223 1.83092 0
M  V30 2022 H 188.165 -2.38927 3.158 0
M  V30 2023 H 189.339 0.0751166 4.60739 0
M  V30 2024 H 187.654 -0.0903431 4.16302 0
M  V30 2025 H 190.251 -2.84794 4.52544 0
M  V30 2026 H 190.594 -3.05707 2.82576 0
M  V30 2027 H 191.127 -1.57361 3.65352 0
M  V30 2028 H 187.866 -0.691561 6.51842 0
M  V30 2029 H 187.386 -2.13929 5.60352 0
M  V30 2030 H 189.065 -1.95337 6.16808 0
M  V30 2031 N 189.197 -1.51736 -0.425897 0
M  V30 2032 C 190.427 -1.68549 -1.19476 0
M  V30 2033 C 190.835 -0.387288 -1.85194 0
M  V30 2034 O 190.178 0.645142 -1.71999 0
M  V30 2035 C 190.24 -2.75275 -2.31223 0
M  V30 2036 C 189.904 -4.17534 -1.8578 0
M  V30 2037 C 190.901 -5.01936 -1.35485 0
M  V30 2038 C 188.586 -4.6369 -1.93123 0
M  V30 2039 C 190.58 -6.30559 -0.931347 0
M  V30 2040 C 188.267 -5.92307 -1.50384 0
M  V30 2041 C 189.265 -6.75569 -1.00473 0
M  V30 2042 O 188.953 -8.0178 -0.583452 0
M  V30 2043 H 188.685 -0.568525 -0.365725 0
M  V30 2044 H 191.239 -1.98982 -0.509444 0
M  V30 2045 H 189.469 -2.40182 -3.03067 0
M  V30 2046 H 191.158 -2.80853 -2.93047 0
M  V30 2047 H 191.924 -4.67475 -1.29197 0
M  V30 2048 H 187.803 -3.98997 -2.30916 0
M  V30 2049 H 191.347 -6.95498 -0.541084 0
M  V30 2050 H 187.244 -6.2628 -1.56346 0
M  V30 2051 H 188.012 -8.1543 -0.708275 0
M  V30 2052 N 190.675 0.682077 -1.42076 0
M  V30 2053 C 191.903 1.47057 -1.4554 0
M  V30 2054 C 192.318 1.8869 -0.0645779 0
M  V30 2055 O 191.675 1.57666 0.919115 0
M  V30 2056 C 191.726 2.72442 -2.37609 0
M  V30 2057 O 191.447 2.32559 -3.71279 0
M  V30 2058 C 192.948 3.66069 -2.50017 0
M  V30 2059 H 190.168 0.452737 -0.495248 0
M  V30 2060 H 192.712 0.838695 -1.8651 0
M  V30 2061 H 190.867 3.31835 -1.9991 0
M  V30 2062 H 191.281 3.13475 -4.20516 0
M  V30 2063 H 192.755 4.50792 -3.18576 0
M  V30 2064 H 193.232 4.11476 -1.53572 0
M  V30 2065 H 193.838 3.12572 -2.88407 0
M  V30 2066 N 192.153 1.28127 0.917671 0
M  V30 2067 C 193.569 1.05749 1.19538 0
M  V30 2068 C 193.769 -0.202633 2.00479 0
M  V30 2069 O 192.825 -0.905382 2.3571 0
M  V30 2070 C 194.138 2.30273 1.93378 0
M  V30 2071 C 195.686 2.35412 2.06277 0
M  V30 2072 C 196.161 3.59692 2.83524 0
M  V30 2073 N 197.652 3.60309 2.91087 0
M  V30 2074 C 198.387 4.53147 3.51348 0
M  V30 2075 N 197.883 5.563 4.12919 0
M  V30 2076 N 199.676 4.40751 3.48849 0
M  V30 2077 H 191.827 2.09024 0.377184 0
M  V30 2078 H 194.09 0.919798 0.22951 0
M  V30 2079 H 193.796 3.22055 1.41328 0
M  V30 2080 H 193.67 2.36378 2.93947 0
M  V30 2081 H 196.057 1.4413 2.57508 0
M  V30 2082 H 196.138 2.33304 1.04895 0
M  V30 2083 H 195.782 4.51316 2.32973 0
M  V30 2084 H 195.712 3.59054 3.85211 0
M  V30 2085 H 198.203 2.85714 2.47338 0
M  V30 2086 H 198.516 6.2329 4.56869 0
M  V30 2087 H 196.861 5.60131 4.11435 0
M  V30 2088 H 200.052 3.59367 2.99955 0
M  V30 2089 H 200.225 5.13291 3.9552 0
M  V30 2090 N 193.631 -1.12557 1.10312 0
M  V30 2091 C 195.042 -1.65574 0.862678 0
M  V30 2092 C 195.393 -1.86566 -0.607256 0
M  V30 2093 O 194.518 -1.59121 -1.46662 0
M  V30 2094 C 195.113 -3.00776 1.55947 0
M  V30 2095 C 193.672 -3.50748 1.36576 0
M  V30 2096 C 192.819 -2.25797 1.60968 0
M  V30 2097 H 195.77 -0.963552 1.26101 0
M  V30 2098 H 195.791 -3.67185 0.997753 0
M  V30 2099 H 195.303 -2.85465 2.62928 0
M  V30 2100 H 193.404 -3.71245 0.317531 0
M  V30 2101 H 193.517 -4.30289 2.10686 0
M  V30 2102 H 191.881 -2.32841 1.03234 0
M  V30 2103 H 192.664 -2.13043 2.69198 0
M  V30 2104 N 195.109 -0.891671 -1.2995 0
M  V30 2105 C 196.334 -0.527932 -2.00568 0
M  V30 2106 C 196.759 0.877969 -1.66353 0
M  V30 2107 O 196.117 1.58301 -0.883762 0
M  V30 2108 C 196.165 -0.717745 -3.53385 0
M  V30 2109 O 195.269 0.233376 -4.11739 0
M  V30 2110 H 194.61 -0.20722 -0.630837 0
M  V30 2111 H 197.14 -1.20105 -1.65638 0
M  V30 2112 H 197.15 -0.619307 -4.03272 0
M  V30 2113 H 195.825 -1.74276 -3.77625 0
M  V30 2114 H 194.402 0.0880706 -3.72796 0
M  V30 2115 N 196.587 1.43421 -0.653314 0
M  V30 2116 C 197.52 2.2803 0.0879804 0
M  V30 2117 C 198.498 1.39833 0.82979 0
M  V30 2118 O 199.682 1.69275 0.829341 0
M  V30 2119 C 196.809 3.19247 1.13132 0
M  V30 2120 C 195.855 4.23704 0.487546 0
M  V30 2121 S 196.688 5.30377 -0.738961 0
M  V30 2122 C 197.844 6.25162 0.30384 0
M  V30 2123 H 198.077 2.90554 -0.629739 0
M  V30 2124 H 195.61 1.47934 -0.442156 0
M  V30 2125 H 197.568 3.72346 1.72827 0
M  V30 2126 H 196.229 2.55901 1.82136 0
M  V30 2127 H 195.422 4.87631 1.27407 0
M  V30 2128 H 195.024 3.73983 -0.0352915 0
M  V30 2129 H 197.316 6.67321 1.17 0
M  V30 2130 H 198.259 7.07463 -0.300402 0
M  V30 2131 H 198.667 5.60864 0.63969 0
M  V30 2132 N 198.065 0.39524 1.52563 0
M  V30 2133 C 198.997 -0.472201 2.24283 0
M  V30 2134 C 200.01 -1.02178 1.26742 0
M  V30 2135 O 201.199 -0.923097 1.52778 0
M  V30 2136 C 198.299 -1.66775 2.95024 0
M  V30 2137 C 197.472 -1.2445 4.19322 0
M  V30 2138 C 196.531 -2.30539 4.7301 0
M  V30 2139 O 195.557 -1.91702 5.35947 0
M  V30 2140 N 196.759 -3.6253 4.53379 0
M  V30 2141 H 199.524 0.142282 2.99362 0
M  V30 2142 H 197.085 0.2219 1.60372 0
M  V30 2143 H 199.077 -2.37283 3.27839 0
M  V30 2144 H 197.647 -2.18845 2.23217 0
M  V30 2145 H 196.867 -0.368069 3.92478 0
M  V30 2146 H 198.155 -0.938457 5.0007 0
M  V30 2147 H 197.553 -3.96841 4.03154 0
M  V30 2148 H 196.11 -4.29055 4.90668 0
M  V30 2149 N 199.544 -1.57102 0.125237 0
M  V30 2150 C 200.791 -1.95407 -0.531248 0
M  V30 2151 C 201.119 -1.0089 -1.66287 0
M  V30 2152 O 200.374 -0.0339431 -1.95671 0
M  V30 2153 C 200.673 -3.40096 -1.09862 0
M  V30 2154 C 200.339 -4.50815 -0.0876989 0
M  V30 2155 C 199.001 -4.80824 0.19026 0
M  V30 2156 C 201.353 -5.17724 0.600902 0
M  V30 2157 C 198.681 -5.75058 1.163 0
M  V30 2158 C 201.033 -6.13005 1.56231 0
M  V30 2159 C 199.697 -6.41403 1.8482 0
M  V30 2160 H 198.967 -0.715046 -0.194397 0
M  V30 2161 H 201.614 -1.90373 0.207463 0
M  V30 2162 H 199.919 -3.41855 -1.91422 0
M  V30 2163 H 201.616 -3.6705 -1.61478 0
M  V30 2164 H 198.206 -4.27444 -0.314528 0
M  V30 2165 H 202.39 -4.94691 0.399333 0
M  V30 2166 H 197.646 -5.95362 1.39117 0
M  V30 2167 H 201.82 -6.63934 2.10153 0
M  V30 2168 H 199.447 -7.14229 2.60349 0
M  V30 2169 N 201.022 0.148545 -1.56898 0
M  V30 2170 C 202.299 0.890019 -1.74178 0
M  V30 2171 C 202.679 1.99407 -0.692839 0
M  V30 2172 O 202.027 2.26671 0.288505 0
M  V30 2173 C 202.237 1.43389 -3.18183 0
M  V30 2174 C 203.585 1.89791 -3.79822 0
M  V30 2175 O 204.609 1.53134 -3.21603 0
M  V30 2176 O 203.468 2.57387 -4.82093 0
M  V30 2177 H 200.562 0.420496 -0.712118 0
M  V30 2178 H 203.108 0.134591 -1.69165 0
M  V30 2179 H 201.88 0.640383 -3.86024 0
M  V30 2180 H 201.503 2.25287 -3.27615 0
M  V30 2181 N 202.5 1.5196 0.417844 0
M  V30 2182 C 203.73 1.69181 1.18581 0
M  V30 2183 C 204.138 0.397104 1.84986 0
M  V30 2184 O 203.481 -0.636011 1.72339 0
M  V30 2185 C 203.543 2.76497 2.29759 0
M  V30 2186 C 203.207 4.18514 1.83563 0
M  V30 2187 C 204.204 5.02648 1.32821 0
M  V30 2188 C 201.889 4.64708 1.90661 0
M  V30 2189 C 203.883 6.31044 0.897894 0
M  V30 2190 C 201.57 5.93096 1.47241 0
M  V30 2191 C 202.568 6.76093 0.968891 0
M  V30 2192 O 202.256 8.02078 0.540924 0
M  V30 2193 H 201.988 0.570457 0.362705 0
M  V30 2194 H 204.542 1.99249 0.498885 0
M  V30 2195 H 202.772 2.41786 3.01789 0
M  V30 2196 H 204.461 2.82403 2.91553 0
M  V30 2197 H 205.227 4.68154 1.26716 0
M  V30 2198 H 201.106 4.00216 2.28797 0
M  V30 2199 H 204.65 6.95776 0.504192 0
M  V30 2200 H 200.547 6.271 1.53022 0
M  V30 2201 H 201.315 8.15794 0.66502 0
M  V30 2202 N 203.978 -0.674533 1.42435 0
M  V30 2203 C 204.926 -1.80934 1.46169 0
M  V30 2204 C 205.92 -1.66006 0.3374 0
M  V30 2205 O 207.126 -1.72611 0.510425 0
M  V30 2206 H 203.501 -0.596594 0.457798 0
M  V30 2207 H 205.472 -1.74903 2.41767 0
M  V30 2208 C 204.221 -3.19088 1.38123 0
M  V30 2209 H 203.544 -3.31203 2.23931 0
M  V30 2210 H 204.984 -3.9851 1.44797 0
M  V30 2211 C 203.443 -3.36763 0.0960517 0
M  V30 2212 O 203.973 -3.92581 -0.851073 0
M  V30 2213 N 202.179 -2.90597 0.0131186 0
M  V30 2214 H 201.726 -2.45359 0.784639 0
M  V30 2215 H 201.684 -3.028 -0.846133 0
M  V30 2216 N 205.456 -1.28612 -0.910864 0
M  V30 2217 C 206.403 -1.12786 -2.01365 0
M  V30 2218 C 207.373 -0.024201 -1.66082 0
M  V30 2219 O 208.558 -0.189667 -1.89855 0
M  V30 2220 C 205.698 -0.798743 -3.35729 0
M  V30 2221 C 204.811 -1.98173 -3.83864 0
M  V30 2222 C 203.946 -1.59298 -5.06752 0
M  V30 2223 C 202.985 -2.74245 -5.47226 0
M  V30 2224 N 202.122 -2.35842 -6.61304 0
M  V30 2225 H 206.962 -2.07142 -2.14234 0
M  V30 2226 H 204.499 -1.03093 -1.0493 0
M  V30 2227 H 206.457 -0.588662 -4.13026 0
M  V30 2228 H 205.087 0.10789 -3.2262 0
M  V30 2229 H 204.139 -2.30386 -3.02699 0
M  V30 2230 H 205.451 -2.84343 -4.09818 0
M  V30 2231 H 204.605 -1.34513 -5.916 0
M  V30 2232 H 203.344 -0.702618 -4.82612 0
M  V30 2233 H 202.349 -2.99725 -4.60918 0
M  V30 2234 H 203.574 -3.63928 -5.73353 0
M  V30 2235 H 201.52 -1.49279 -6.38789 0
M  V30 2236 H 201.437 -3.15546 -6.86998 0
M  V30 2237 H 202.705 -2.14348 -7.4945 0
M  V30 2238 N 206.934 1.1197 -1.10907 0
M  V30 2239 C 208.211 1.79959 -0.766432 0
M  V30 2240 C 208.591 1.97466 0.746363 0
M  V30 2241 O 207.939 1.55491 1.67436 0
M  V30 2242 C 208.149 3.14009 -1.52314 0
M  V30 2243 C 209.497 3.89134 -1.69883 0
M  V30 2244 O 210.521 3.2368 -1.48692 0
M  V30 2245 O 209.38 5.06572 -2.05054 0
M  V30 2246 H 206.474 0.779208 -0.277062 0
M  V30 2247 H 209.02 1.18762 -1.21217 0
M  V30 2248 H 207.792 2.96587 -2.55249 0
M  V30 2249 H 207.415 3.82915 -1.07059 0
M  V30 2250 N 208.412 0.89855 1.29475 0
M  V30 2251 C 209.66 0.522847 1.9522 0
M  V30 2252 C 209.981 -0.93371 1.71192 0
M  V30 2253 O 209.251 -1.65823 1.04305 0
M  V30 2254 H 207.831 0.190366 0.722336 0
M  V30 2255 H 210.493 1.14459 1.5775 0
M  V30 2256 H 209.589 0.704476 3.04045 0
M  V30 2257 N 209.89 -1.43072 0.660911 0
M  V30 2258 C 210.823 -2.28074 -0.0758862 0
M  V30 2259 C 211.801 -1.40271 -0.822362 0
M  V30 2260 O 212.985 -1.69713 -0.820352 0
M  V30 2261 C 210.112 -3.19843 -1.11437 0
M  V30 2262 C 209.158 -4.23957 -0.465069 0
M  V30 2263 S 209.991 -5.29978 0.767078 0
M  V30 2264 C 211.147 -6.25314 -0.270682 0
M  V30 2265 H 211.38 -2.90216 0.645139 0
M  V30 2266 H 208.913 -1.47697 0.449995 0
M  V30 2267 H 210.871 -3.73257 -1.70849 0
M  V30 2268 H 209.532 -2.56863 -1.80776 0
M  V30 2269 H 208.725 -4.88299 -1.24819 0
M  V30 2270 H 208.327 -3.73959 0.0551242 0
M  V30 2271 H 210.619 -6.67932 -1.13459 0
M  V30 2272 H 211.562 -7.07293 0.337916 0
M  V30 2273 H 211.97 -5.61195 -0.609937 0
M  V30 2274 N 211.368 -0.403325 -1.52352 0
M  V30 2275 C 212.593 0.176499 -2.06648 0
M  V30 2276 C 213.018 1.38577 -1.27193 0
M  V30 2277 O 212.376 1.7879 -0.300637 0
M  V30 2278 C 212.424 0.511061 -3.5696 0
M  V30 2279 O 211.528 1.60294 -3.79973 0
M  V30 2280 H 210.869 0.0167337 -0.663789 0
M  V30 2281 H 213.399 -0.574848 -1.96359 0
M  V30 2282 H 213.409 0.771362 -4.00642 0
M  V30 2283 H 212.084 -0.37296 -4.14224 0
M  V30 2284 H 210.661 1.33526 -3.48174 0
M  V30 2285 N 212.846 1.57033 -0.133567 0
M  V30 2286 C 214.123 1.87256 0.56522 0
M  V30 2287 C 214.503 1.03726 1.83859 0
M  V30 2288 O 213.851 0.120247 2.28183 0
M  V30 2289 C 214.061 3.3865 0.843636 0
M  V30 2290 C 215.409 4.07574 1.19032 0
M  V30 2291 O 216.433 3.43752 0.933429 0
M  V30 2292 O 215.292 5.20259 1.67312 0
M  V30 2293 H 212.386 0.775678 0.286796 0
M  V30 2294 H 214.932 1.68855 -0.169168 0
M  V30 2295 H 213.704 3.91257 -0.0581149 0
M  V30 2296 H 213.327 3.62532 1.63268 0
M  V30 2297 N 214.325 -0.140222 1.56975 0
M  V30 2298 C 215.572 -0.851687 1.83719 0
M  V30 2299 C 215.9 -1.80862 0.715485 0
M  V30 2300 O 215.155 -1.93464 -0.294956 0
M  V30 2301 C 215.454 -1.65386 3.16832 0
M  V30 2302 C 215.12 -0.843112 4.42947 0
M  V30 2303 C 213.782 -0.619464 4.77196 0
M  V30 2304 C 216.134 -0.276582 5.20466 0
M  V30 2305 C 213.462 0.181312 5.8642 0
M  V30 2306 C 215.814 0.51127 6.30531 0
M  V30 2307 C 214.478 0.745432 6.63325 0
M  V30 2308 H 213.748 -0.311654 0.672274 0
M  V30 2309 H 216.395 -0.115006 1.91154 0
M  V30 2310 H 214.7 -2.46084 3.04877 0
M  V30 2311 H 216.397 -2.20793 3.34741 0
M  V30 2312 H 212.987 -1.0275 4.16101 0
M  V30 2313 H 217.171 -0.436632 4.94376 0
M  V30 2314 H 212.427 0.372165 6.10266 0
M  V30 2315 H 216.601 0.957354 6.89788 0
M  V30 2316 H 214.228 1.36778 7.47794 0
M  V30 2317 N 215.803 -1.52179 -0.40978 0
M  V30 2318 C 216.736 -1.70196 -1.52015 0
M  V30 2319 C 217.714 -0.549542 -1.53032 0
M  V30 2320 O 218.898 -0.776815 -1.71749 0
M  V30 2321 C 216.025 -1.74069 -2.90547 0
M  V30 2322 C 215.071 -2.95601 -3.07445 0
M  V30 2323 S 215.904 -4.55956 -2.80827 0
M  V30 2324 C 217.06 -4.62614 -4.21591 0
M  V30 2325 H 217.293 -2.64109 -1.36504 0
M  V30 2326 H 214.826 -1.4221 -0.601312 0
M  V30 2327 H 216.784 -1.76985 -3.70387 0
M  V30 2328 H 215.445 -0.812835 -3.034 0
M  V30 2329 H 214.638 -2.94791 -4.08796 0
M  V30 2330 H 214.24 -2.90569 -2.35469 0
M  V30 2331 H 216.532 -4.39951 -5.15218 0
M  V30 2332 H 217.475 -5.64548 -4.27424 0
M  V30 2333 H 217.883 -3.91654 -4.06531 0
M  V30 2334 N 217.281 0.66697 -1.42791 0
M  V30 2335 C 218.521 1.43892 -1.4517 0
M  V30 2336 C 218.885 1.91877 -0.0687551 0
M  V30 2337 O 220.086 2.6878 0.0327455 0
M  V30 2338 C 218.357 2.59839 -2.45395 0
M  V30 2339 S 219.916 3.48572 -2.66539 0
M  V30 2340 H 216.734 0.491356 -0.513897 0
M  V30 2341 H 219.336 0.775656 -1.79454 0
M  V30 2342 H 218.04 2.22838 -3.44632 0
M  V30 2343 H 217.571 3.3103 -2.12562 0
M  V30 2344 H 219.586 4.56094 -1.95429 0
M  V30 2345 N 218.759 1.29093 0.90403 0
M  V30 2346 C 219.987 1.19689 1.68766 0
M  V30 2347 C 220.402 -0.243113 1.87228 0
M  V30 2348 O 219.759 -1.16326 1.40621 0
M  V30 2349 C 219.81 1.90144 3.07453 0
M  V30 2350 O 219.531 3.2852 2.89838 0
M  V30 2351 C 221.032 1.87162 4.01852 0
M  V30 2352 H 218.252 0.415035 0.527244 0
M  V30 2353 H 220.796 1.7039 1.13082 0
M  V30 2354 H 218.951 1.43289 3.59926 0
M  V30 2355 H 219.365 3.63944 3.77684 0
M  V30 2356 H 220.839 2.41032 4.96596 0
M  V30 2357 H 221.316 0.84617 4.30972 0
M  V30 2358 H 221.922 2.33741 3.5531 0
M  V30 2359 N 220.237 -1.11381 1.11499 0
M  V30 2360 C 221.185 -2.19522 0.768956 0
M  V30 2361 C 222.179 -1.67693 -0.239857 0
M  V30 2362 O 223.385 -1.79727 -0.0990755 0
M  V30 2363 H 219.76 -0.715711 0.230786 0
M  V30 2364 H 221.731 -2.45954 1.68964 0
M  V30 2365 C 220.48 -3.46945 0.229073 0
M  V30 2366 H 219.803 -3.8718 0.996596 0
M  V30 2367 H 221.243 -4.23993 0.0251441 0
M  V30 2368 C 219.702 -3.2042 -1.04079 0
M  V30 2369 O 220.232 -3.41178 -2.12038 0
M  V30 2370 N 218.438 -2.74151 -0.963823 0
M  V30 2371 H 217.985 -2.57459 -0.0851722 0
M  V30 2372 H 217.943 -2.56781 -1.81414 0
M  V30 2373 N 221.715 -0.905404 -1.28997 0
M  V30 2374 C 222.943 -0.549846 -1.9946 0
M  V30 2375 C 223.358 0.866834 -1.67724 0
M  V30 2376 O 222.715 1.57298 -0.925404 0
M  V30 2377 C 222.766 -0.739387 -3.53858 0
M  V30 2378 O 222.487 -2.10031 -3.84472 0
M  V30 2379 C 223.988 -0.389541 -4.41585 0
M  V30 2380 H 221.208 -0.210429 -0.637151 0
M  V30 2381 H 223.752 -1.21632 -1.64396 0
M  V30 2382 H 221.907 -0.120023 -3.87214 0
M  V30 2383 H 222.321 -2.13385 -4.79132 0
M  V30 2384 H 223.795 -0.572972 -5.49018 0
M  V30 2385 H 224.272 0.673756 -4.34001 0
M  V30 2386 H 224.878 -0.986089 -4.1371 0
M  V30 2387 N 223.193 1.4272 -0.668489 0
M  V30 2388 C 224.439 2.01923 -0.188419 0
M  V30 2389 C 224.772 1.52704 1.19979 0
M  V30 2390 O 224.047 0.726566 1.8042 0
M  V30 2391 C 224.33 3.59451 -0.216085 0
M  V30 2392 C 224.183 4.18864 -1.6393 0
M  V30 2393 C 225.502 4.37903 0.439179 0
M  V30 2394 H 222.621 0.733674 -0.0699412 0
M  V30 2395 H 225.263 1.69822 -0.852076 0
M  V30 2396 H 223.413 3.86929 0.349012 0
M  V30 2397 H 225.085 4.02362 -2.25616 0
M  V30 2398 H 223.328 3.74933 -2.18193 0
M  V30 2399 H 223.999 5.27987 -1.61039 0
M  V30 2400 H 226.475 4.16079 -0.0417878 0
M  V30 2401 H 225.351 5.47519 0.389157 0
M  V30 2402 H 225.612 4.15303 1.51577 0
M  V30 2403 N 224.671 0.411399 1.52136 0
M  V30 2404 C 225.603 -0.448386 2.24771 0
M  V30 2405 C 226.616 -1.00828 1.27818 0
M  V30 2406 O 227.805 -0.906841 1.53749 0
M  V30 2407 C 224.905 -1.63636 2.96777 0
M  V30 2408 C 224.078 -1.19995 4.20618 0
M  V30 2409 C 223.137 -2.25509 4.75428 0
M  V30 2410 O 222.163 -1.86007 5.3795 0
M  V30 2411 N 223.365 -3.577 4.57199 0
M  V30 2412 H 226.13 0.174025 2.99194 0
M  V30 2413 H 223.691 0.238897 1.60128 0
M  V30 2414 H 225.683 -2.33793 3.30338 0
M  V30 2415 H 224.253 -2.16465 2.25526 0
M  V30 2416 H 223.473 -0.326421 3.92846 0
M  V30 2417 H 224.761 -0.885365 5.01038 0
M  V30 2418 H 224.159 -3.92543 4.07341 0
M  V30 2419 H 222.716 -4.23827 4.95191 0
M  V30 2420 N 226.149 -1.5696 0.141893 0
M  V30 2421 C 227.379 -2.00031 -0.516828 0
M  V30 2422 C 227.787 -1.02091 -1.59293 0
M  V30 2423 O 227.13 -0.00909657 -1.83698 0
M  V30 2424 C 227.192 -3.39534 -1.1814 0
M  V30 2425 C 226.856 -4.56313 -0.250513 0
M  V30 2426 C 227.853 -5.17295 0.519839 0
M  V30 2427 C 225.538 -5.02061 -0.154907 0
M  V30 2428 C 227.532 -6.2243 1.3733 0
M  V30 2429 C 225.219 -6.07053 0.702161 0
M  V30 2430 C 226.217 -6.67106 1.46487 0
M  V30 2431 O 225.905 -7.70066 2.30767 0
M  V30 2432 H 225.637 -0.661451 -0.139493 0
M  V30 2433 H 228.191 -2.04086 0.231926 0
M  V30 2434 H 226.421 -3.32302 -1.97769 0
M  V30 2435 H 228.11 -3.66745 -1.73933 0
M  V30 2436 H 228.876 -4.82852 0.45598 0
M  V30 2437 H 224.755 -4.5505 -0.7383 0
M  V30 2438 H 228.299 -6.69233 1.96909 0
M  V30 2439 H 224.196 -6.40923 0.76733 0
M  V30 2440 H 224.964 -7.87264 2.23959 0
M  V30 2441 N 227.627 0.131896 -1.57047 0
M  V30 2442 C 228.557 1.16384 -2.02428 0
M  V30 2443 C 229.538 1.43936 -0.90644 0
M  V30 2444 O 230.723 1.54599 -1.17528 0
M  V30 2445 C 227.853 2.49328 -2.4177 0
M  V30 2446 C 226.807 2.36266 -3.56879 0
M  V30 2447 C 226.133 3.74057 -3.8208 0
M  V30 2448 C 227.433 1.834 -4.89042 0
M  V30 2449 H 229.127 0.786433 -2.88887 0
M  V30 2450 H 226.673 0.376855 -1.38981 0
M  V30 2451 H 228.626 3.21759 -2.7212 0
M  V30 2452 H 227.35 2.88934 -1.52266 0
M  V30 2453 H 226.009 1.66286 -3.26718 0
M  V30 2454 H 225.657 4.11125 -2.89803 0
M  V30 2455 H 225.357 3.66174 -4.59554 0
M  V30 2456 H 226.881 4.48012 -4.1487 0
M  V30 2457 H 228.295 2.45636 -5.18011 0
M  V30 2458 H 226.692 1.8637 -5.70426 0
M  V30 2459 H 227.762 0.790662 -4.7841 0
M  V30 2460 N 229.106 1.52395 0.401703 0
M  V30 2461 C 230.355 1.66044 1.14509 0
M  V30 2462 C 230.668 0.400216 1.91462 0
M  V30 2463 O 231.874 0.416632 2.68284 0
M  V30 2464 C 230.33 2.93388 2.0845 0
M  V30 2465 C 229.938 4.26545 1.36978 0
M  V30 2466 C 231.682 3.16402 2.83001 0
M  V30 2467 C 229.589 5.45007 2.29611 0
M  V30 2468 H 228.519 0.618562 0.431158 0
M  V30 2469 H 231.17 1.78886 0.40892 0
M  V30 2470 H 229.552 2.74263 2.8565 0
M  V30 2471 H 230.726 4.56179 0.650916 0
M  V30 2472 H 229.041 4.09692 0.74438 0
M  V30 2473 H 231.638 4.02085 3.52465 0
M  V30 2474 H 231.981 2.30943 3.46368 0
M  V30 2475 H 232.514 3.36034 2.12898 0
M  V30 2476 H 229.253 6.32835 1.70879 0
M  V30 2477 H 228.773 5.19702 2.9945 0
M  V30 2478 H 230.452 5.7838 2.89974 0
M  V30 2479 N 230.584 -0.659388 1.43143 0
M  V30 2480 C 232 -0.974337 1.26407 0
M  V30 2481 C 232.2 -2.007 0.179341 0
M  V30 2482 O 231.256 -2.4856 -0.444295 0
M  V30 2483 C 232.569 -1.46447 2.62628 0
M  V30 2484 C 234.117 -1.58144 2.7011 0
M  V30 2485 C 234.592 -2.1055 4.06734 0
M  V30 2486 N 236.083 -2.17861 4.08767 0
M  V30 2487 C 236.818 -2.59519 5.1131 0
M  V30 2488 N 236.314 -3.00518 6.24228 0
M  V30 2489 N 238.107 -2.59404 4.98664 0
M  V30 2490 H 230.258 0.0240528 2.12386 0
M  V30 2491 H 232.521 -0.0518065 0.946583 0
M  V30 2492 H 232.227 -0.780123 3.42939 0
M  V30 2493 H 232.101 -2.44058 2.87603 0
M  V30 2494 H 234.488 -2.25682 1.90136 0
M  V30 2495 H 234.569 -0.589828 2.48907 0
M  V30 2496 H 234.213 -1.43616 4.87172 0
M  V30 2497 H 234.143 -3.10531 4.25298 0
M  V30 2498 H 236.634 -1.88975 3.27257 0
M  V30 2499 H 236.947 -3.31036 6.98309 0
M  V30 2500 H 235.292 -2.98337 6.2771 0
M  V30 2501 H 238.483 -2.26747 4.09516 0
M  V30 2502 H 238.656 -2.91548 5.78709 0
M  V30 2503 N 232.062 -1.29571 -0.897171 0
M  V30 2504 C 233.339 -1.08365 -1.62839 0
M  V30 2505 C 233.719 0.371331 -2.07808 0
M  V30 2506 O 233.067 1.3606 -1.83576 0
M  V30 2507 C 233.277 -2.0735 -2.80726 0
M  V30 2508 C 234.625 -2.38406 -3.51351 0
M  V30 2509 O 235.649 -2.05564 -2.90898 0
M  V30 2510 O 234.508 -2.9453 -4.60341 0
M  V30 2511 H 231.602 -0.415345 -0.715134 0
M  V30 2512 H 234.148 -1.40952 -0.945018 0
M  V30 2513 H 232.92 -3.05339 -2.44711 0
M  V30 2514 H 232.543 -1.75507 -3.56767 0
M  V30 2515 N 233.54 1.10788 -1.12088 0
M  V30 2516 C 234.487 2.17025 -0.785407 0
M  V30 2517 C 235.457 1.64265 0.246191 0
M  V30 2518 O 236.642 1.90412 0.121584 0
M  V30 2519 C 233.782 3.44249 -0.242177 0
M  V30 2520 C 232.895 4.1098 -1.33115 0
M  V30 2521 C 232.03 5.25911 -0.747741 0
M  V30 2522 C 231.069 5.84538 -1.81609 0
M  V30 2523 N 230.206 6.90853 -1.25167 0
M  V30 2524 H 235.046 2.45066 -1.69548 0
M  V30 2525 H 232.583 1.20297 -0.846582 0
M  V30 2526 H 234.541 4.17101 0.0908026 0
M  V30 2527 H 233.171 3.16571 0.631072 0
M  V30 2528 H 232.223 3.36133 -1.78097 0
M  V30 2529 H 233.535 4.50601 -2.13917 0
M  V30 2530 H 232.689 6.056 -0.365216 0
M  V30 2531 H 231.428 4.87614 0.0915188 0
M  V30 2532 H 230.433 5.03522 -2.20785 0
M  V30 2533 H 231.658 6.249 -2.6585 0
M  V30 2534 H 229.604 6.54562 -0.434174 0
M  V30 2535 H 229.521 7.29166 -1.99633 0
M  V30 2536 H 230.789 7.7433 -0.896259 0
M  V30 2537 N 235.018 0.912232 1.28515 0
M  V30 2538 C 235.965 0.397954 2.27343 0
M  V30 2539 C 236.935 -0.526766 1.57526 0
M  V30 2540 O 238.12 -0.449292 1.85435 0
M  V30 2541 C 235.26 -0.357263 3.43246 0
M  V30 2542 C 234.373 0.599788 4.27816 0
M  V30 2543 C 233.508 -0.173725 5.30916 0
M  V30 2544 C 232.547 0.777039 6.07148 0
M  V30 2545 N 231.684 0.0371398 7.0209 0
M  V30 2546 H 236.524 1.24577 2.70711 0
M  V30 2547 H 234.061 0.625612 1.33133 0
M  V30 2548 H 236.019 -0.8113 4.09236 0
M  V30 2549 H 234.649 -1.16943 3.00872 0
M  V30 2550 H 233.701 1.17235 3.61884 0
M  V30 2551 H 235.013 1.32704 4.80823 0
M  V30 2552 H 234.167 -0.688394 6.02782 0
M  V30 2553 H 232.906 -0.934041 4.78672 0
M  V30 2554 H 231.911 1.3031 5.34134 0
M  V30 2555 H 233.136 1.53689 6.61481 0
M  V30 2556 H 231.082 -0.705213 6.52198 0
M  V30 2557 H 230.999 0.704249 7.52713 0
M  V30 2558 H 232.267 -0.457383 7.78157 0
M  V30 2559 N 236.496 -1.42363 0.676048 0
M  V30 2560 C 237.745 -2.00745 0.196037 0
M  V30 2561 C 238.058 -1.54083 -1.20489 0
M  V30 2562 O 239.264 -2.04891 -1.78134 0
M  V30 2563 C 237.72 -3.58651 0.299616 0
M  V30 2564 C 237.328 -4.143 1.70468 0
M  V30 2565 C 239.072 -4.24326 -0.121619 0
M  V30 2566 C 236.979 -5.64574 1.76096 0
M  V30 2567 H 235.909 -0.750787 0.0695301 0
M  V30 2568 H 238.56 -1.63072 0.841412 0
M  V30 2569 H 236.942 -3.93833 -0.413673 0
M  V30 2570 H 238.116 -3.90575 2.44515 0
M  V30 2571 H 236.431 -3.61081 2.07387 0
M  V30 2572 H 239.028 -5.34607 -0.0997362 0
M  V30 2573 H 239.371 -3.99897 -1.15708 0
M  V30 2574 H 239.904 -3.94108 0.540706 0
M  V30 2575 H 236.643 -5.93804 2.77628 0
M  V30 2576 H 236.163 -5.90286 1.06406 0
M  V30 2577 H 237.842 -6.29013 1.51496 0
M  V30 2578 N 237.974 -0.419461 -1.51915 0
M  V30 2579 C 238.922 0.415502 -2.28859 0
M  V30 2580 C 239.916 1.03674 -1.3397 0
M  V30 2581 O 241.122 0.973757 -1.51387 0
M  V30 2582 H 237.497 0.152786 -0.736315 0
M  V30 2583 H 239.468 -0.254531 -2.97312 0
M  V30 2584 C 238.217 1.51425 -3.12995 0
M  V30 2585 H 237.54 1.04556 -3.85886 0
M  V30 2586 H 238.98 2.07208 -3.6992 0
M  V30 2587 C 237.439 2.48745 -2.27217 0
M  V30 2588 O 237.969 3.52871 -1.9195 0
M  V30 2589 N 236.175 2.19202 -1.90785 0
M  V30 2590 H 235.722 1.34556 -2.19664 0
M  V30 2591 H 235.68 2.84561 -1.33687 0
M  V30 2592 N 239.452 1.56882 -0.150215 0
M  V30 2593 C 240.415 2.1573 0.774157 0
M  V30 2594 C 241.415 1.0999 1.17298 0
M  V30 2595 O 242.605 1.35613 1.09338 0
M  V30 2596 C 239.737 2.72302 2.05096 0
M  V30 2597 H 240.93 2.98752 0.262201 0
M  V30 2598 H 238.483 1.55985 0.099248 0
M  V30 2599 H 239.218 1.92956 2.6065 0
M  V30 2600 H 239.003 3.49665 1.77416 0
M  V30 2601 H 240.493 3.17632 2.71109 0
M  V30 2602 N 240.93 -0.123565 1.57115 0
M  V30 2603 C 242.176 -0.833386 1.84885 0
M  V30 2604 C 242.509 -1.79742 0.735292 0
M  V30 2605 O 241.784 -1.92764 -0.25925 0
M  V30 2606 C 242.067 -1.5873 3.23228 0
M  V30 2607 C 241.92 -0.643183 4.45178 0
M  V30 2608 C 243.239 -2.54453 3.59085 0
M  V30 2609 H 240.358 -0.301518 0.6725 0
M  V30 2610 H 243 -0.097778 1.89748 0
M  V30 2611 H 241.15 -2.21438 3.19214 0
M  V30 2612 H 242.822 -0.0253015 4.61293 0
M  V30 2613 H 241.065 0.0456139 4.33776 0
M  V30 2614 H 241.736 -1.20724 5.38637 0
M  V30 2615 H 244.212 -2.01853 3.63861 0
M  V30 2616 H 243.088 -3.04238 4.5687 0
M  V30 2617 H 243.349 -3.36906 2.86264 0
M  V30 2618 N 242.408 -1.52605 -0.393616 0
M  V30 2619 C 243.654 -1.67672 -1.14079 0
M  V30 2620 C 243.987 -0.413121 -1.89755 0
M  V30 2621 O 243.262 0.588952 -1.85369 0
M  V30 2622 C 243.545 -2.9088 -2.12276 0
M  V30 2623 C 243.398 -4.27329 -1.40394 0
M  V30 2624 C 244.717 -3.09628 -3.12759 0
M  V30 2625 H 241.836 -0.610168 -0.413356 0
M  V30 2626 H 244.478 -1.85193 -0.424696 0
M  V30 2627 H 242.628 -2.76073 -2.73342 0
M  V30 2628 H 244.3 -4.53894 -0.82327 0
M  V30 2629 H 242.543 -4.2802 -0.705801 0
M  V30 2630 H 243.214 -5.09615 -2.12123 0
M  V30 2631 H 245.69 -3.23436 -2.61779 0
M  V30 2632 H 244.566 -3.97322 -3.78717 0
M  V30 2633 H 244.827 -2.23637 -3.81365 0
M  V30 2634 N 243.887 0.651787 -1.4349 0
M  V30 2635 C 244.835 1.78586 -1.49029 0
M  V30 2636 C 245.829 1.65448 -0.363767 0
M  V30 2637 O 247.035 1.71777 -0.537821 0
M  V30 2638 H 243.41 0.589236 -0.467231 0
M  V30 2639 H 245.381 1.71035 -2.44519 0
M  V30 2640 C 244.13 3.16851 -1.43181 0
M  V30 2641 H 243.453 3.27598 -2.29171 0
M  V30 2642 H 244.893 3.96156 -1.51118 0
M  V30 2643 C 243.352 3.36568 -0.149616 0
M  V30 2644 O 243.882 3.93885 0.788509 0
M  V30 2645 N 242.088 2.90539 -0.0593484 0
M  V30 2646 H 241.635 2.4408 -0.823575 0
M  V30 2647 H 241.593 3.04108 0.797853 0
M  V30 2648 N 245.365 1.30045 0.890287 0
M  V30 2649 C 246.298 1.10301 1.99772 0
M  V30 2650 C 247.276 0.0121631 1.62595 0
M  V30 2651 O 248.46 0.16469 1.87779 0
M  V30 2652 C 245.587 0.681125 3.31781 0
M  V30 2653 C 244.633 1.77206 3.87944 0
M  V30 2654 S 245.466 3.37335 4.15891 0
M  V30 2655 C 246.622 2.97036 5.50927 0
M  V30 2656 H 246.855 2.04057 2.16213 0
M  V30 2657 H 244.388 1.14299 1.03804 0
M  V30 2658 H 246.346 0.444439 4.08087 0
M  V30 2659 H 245.007 -0.236981 3.13205 0
M  V30 2660 H 244.2 1.42903 4.83316 0
M  V30 2661 H 243.802 1.96275 3.18358 0
M  V30 2662 H 246.094 2.44666 6.31779 0
M  V30 2663 H 247.037 3.91296 5.90164 0
M  V30 2664 H 247.445 2.35057 5.13233 0
M  V30 2665 N 246.843 -1.10192 1.12674 0
M  V30 2666 C 248.259 -1.34235 0.863317 0
M  V30 2667 C 248.459 -1.95062 -0.505277 0
M  V30 2668 O 247.515 -2.19192 -1.25345 0
M  V30 2669 C 248.828 -2.2616 1.98172 0
M  V30 2670 C 250.376 -2.3969 2.0129 0
M  V30 2671 C 250.851 -3.34946 3.1237 0
M  V30 2672 N 252.342 -3.42515 3.11829 0
M  V30 2673 C 253.077 -4.16199 3.94419 0
M  V30 2674 N 252.573 -4.92747 4.87004 0
M  V30 2675 N 254.366 -4.11843 3.82547 0
M  V30 2676 H 246.517 -0.690798 2.00853 0
M  V30 2677 H 248.78 -0.366774 0.874174 0
M  V30 2678 H 248.486 -1.8868 2.96804 0
M  V30 2679 H 248.36 -3.26488 1.88906 0
M  V30 2680 H 250.747 -2.76438 1.03276 0
M  V30 2681 H 250.828 -1.39169 2.14629 0
M  V30 2682 H 250.472 -2.98923 4.10619 0
M  V30 2683 H 250.402 -4.35353 2.96269 0
M  V30 2684 H 252.893 -2.87926 2.44759 0
M  V30 2685 H 253.206 -5.46376 5.46528 0
M  V30 2686 H 251.551 -4.91862 4.91016 0
M  V30 2687 H 254.742 -3.51136 3.0955 0
M  V30 2688 H 254.915 -4.69007 4.47142 0
M  V30 2689 N 248.321 -0.919034 -1.28029 0
M  V30 2690 C 249.546 -0.570357 -1.99403 0
M  V30 2691 C 249.971 0.842486 -1.68178 0
M  V30 2692 O 249.329 1.56391 -0.917141 0
M  V30 2693 C 249.377 -0.792541 -3.51783 0
M  V30 2694 O 248.481 0.145988 -4.12142 0
M  V30 2695 H 247.822 -0.220555 -0.6263 0
M  V30 2696 H 250.352 -1.23592 -1.63053 0
M  V30 2697 H 250.362 -0.704708 -4.01868 0
M  V30 2698 H 249.037 -1.82247 -3.73844 0
M  V30 2699 H 247.614 0.00897528 -3.72899 0
M  V30 2700 N 249.799 1.42003 -0.683588 0
M  V30 2701 C 250.747 2.326 0.000815408 0
M  V30 2702 C 251.741 1.50308 0.781278 0
M  V30 2703 O 252.947 1.66322 0.688251 0
M  V30 2704 H 249.322 0.751758 0.0190616 0
M  V30 2705 H 251.293 2.88011 -0.780528 0
M  V30 2706 C 250.042 3.34978 0.93195 0
M  V30 2707 H 249.365 3.98345 0.340817 0
M  V30 2708 H 250.805 4.00936 1.37936 0
M  V30 2709 C 249.264 2.67925 2.04249 0
M  V30 2710 O 249.794 2.51788 3.12995 0
M  V30 2711 N 248 2.2681 1.81675 0
M  V30 2712 H 247.547 2.40135 0.932363 0
M  V30 2713 H 247.505 1.8228 2.56167 0
M  V30 2714 N 251.277 0.427512 1.51691 0
M  V30 2715 C 252.554 -0.201684 1.94557 0
M  V30 2716 C 252.934 -1.60981 1.36559 0
M  V30 2717 O 252.282 -2.21814 0.548702 0
M  V30 2718 C 252.492 -0.189394 3.48486 0
M  V30 2719 C 253.84 -0.39978 4.22714 0
M  V30 2720 O 254.864 -0.267945 3.55191 0
M  V30 2721 O 253.723 -0.661249 5.42485 0
M  V30 2722 H 250.817 -0.135261 0.815864 0
M  V30 2723 H 253.363 0.484782 1.62628 0
M  V30 2724 H 252.135 0.795431 3.8313 0
M  V30 2725 H 251.758 -0.919187 3.86829 0
M  V30 2726 N 252.755 -1.56801 0.158532 0
M  V30 2727 C 254.001 -1.96781 -0.490405 0
M  V30 2728 C 254.334 -1.04397 -1.63753 0
M  V30 2729 O 253.609 -0.0885805 -1.94298 0
M  V30 2730 C 253.892 -3.4635 -0.985594 0
M  V30 2731 C 253.745 -4.49512 0.160824 0
M  V30 2732 C 255.064 -3.98697 -1.86355 0
M  V30 2733 H 252.183 -0.715482 -0.176788 0
M  V30 2734 H 254.825 -1.88451 0.242088 0
M  V30 2735 H 252.975 -3.53579 -1.60978 0
M  V30 2736 H 254.647 -4.54353 0.797537 0
M  V30 2737 H 252.89 -4.26013 0.818256 0
M  V30 2738 H 253.561 -5.51531 -0.227569 0
M  V30 2739 H 256.037 -3.94019 -1.33746 0
M  V30 2740 H 254.913 -5.03792 -2.17909 0
M  V30 2741 H 255.174 -3.41744 -2.8047 0
M  V30 2742 N 254.233 0.115231 -1.57178 0
M  V30 2743 C 255.479 0.82357 -1.85325 0
M  V30 2744 C 255.812 1.79349 -0.744814 0
M  V30 2745 O 255.087 1.92899 0.249024 0
M  V30 2746 C 255.37 1.57014 -3.24066 0
M  V30 2747 C 255.223 0.619565 -4.45513 0
M  V30 2748 C 256.542 2.52545 -3.60429 0
M  V30 2749 H 253.661 0.297948 -0.674089 0
M  V30 2750 H 256.303 0.0877138 -1.89797 0
M  V30 2751 H 254.453 2.19742 -3.20383 0
M  V30 2752 H 256.125 0.000837639 -4.613 0
M  V30 2753 H 254.368 -0.0686174 -4.33746 0
M  V30 2754 H 255.039 1.17866 -5.3927 0
M  V30 2755 H 257.515 1.9992 -3.64926 0
M  V30 2756 H 256.391 3.01811 -4.58477 0
M  V30 2757 H 256.652 3.35383 -2.88047 0
M  V30 2758 N 255.711 1.52812 0.385517 0
M  V30 2759 C 256.958 1.68026 1.1302 0
M  V30 2760 C 257.286 0.421934 1.89868 0
M  V30 2761 O 256.541 -0.595749 1.86412 0
M  V30 2762 C 256.84 2.86856 2.13187 0
M  V30 2763 C 256.506 4.24159 1.5297 0
M  V30 2764 C 255.168 4.61501 1.36274 0
M  V30 2765 C 257.52 5.09627 1.09223 0
M  V30 2766 C 254.848 5.81966 0.743837 0
M  V30 2767 C 257.2 6.30719 0.487411 0
M  V30 2768 C 255.864 6.6679 0.307777 0
M  V30 2769 H 255.134 0.614849 0.413571 0
M  V30 2770 H 257.781 1.86962 0.414405 0
M  V30 2771 H 256.086 2.6235 2.90998 0
M  V30 2772 H 257.783 2.95821 2.70722 0
M  V30 2773 H 254.373 3.94746 1.66954 0
M  V30 2774 H 258.557 4.81343 1.20922 0
M  V30 2775 H 253.813 6.08519 0.592891 0
M  V30 2776 H 257.987 6.96259 0.140143 0
M  V30 2777 H 255.614 7.60001 -0.173879 0
M  V30 2778 N 257.189 -0.644168 1.43834 0
M  V30 2779 C 258.437 -1.40117 1.45642 0
M  V30 2780 C 258.758 -1.94814 0.0852413 0
M  V30 2781 O 258.028 -1.74988 -0.880688 0
M  V30 2782 H 256.608 -0.52005 0.536243 0
M  V30 2783 H 259.27 -0.7591 1.7951 0
M  V30 2784 H 258.366 -2.23902 2.17427 0
M  V30 2785 N 258.668 -1.30515 -0.883378 0
M  V30 2786 C 259.915 -1.1943 -1.63532 0
M  V30 2787 C 260.243 0.250627 -1.92878 0
M  V30 2788 O 259.498 1.19556 -1.54935 0
M  V30 2789 C 259.797 -1.96994 -2.98209 0
M  V30 2790 C 259.463 -3.466 -2.88408 0
M  V30 2791 C 258.125 -3.87397 -2.85442 0
M  V30 2792 C 260.477 -4.41863 -2.76418 0
M  V30 2793 C 257.805 -5.21745 -2.68327 0
M  V30 2794 C 260.157 -5.7632 -2.60841 0
M  V30 2795 C 258.821 -6.16354 -2.56251 0
M  V30 2796 H 258.091 -0.437025 -0.598406 0
M  V30 2797 H 260.738 -1.61635 -1.02696 0
M  V30 2798 H 259.043 -1.47429 -3.63004 0
M  V30 2799 H 260.74 -1.85808 -3.55354 0
M  V30 2800 H 257.33 -3.14182 -2.91527 0
M  V30 2801 H 261.514 -4.11285 -2.77775 0
M  V30 2802 H 256.77 -5.51853 -2.63189 0
M  V30 2803 H 260.944 -6.49772 -2.50538 0
M  V30 2804 H 258.571 -7.20401 -2.42748 0
M  V30 2805 N 260.146 1.09593 -1.13257 0
M  V30 2806 C 261.562 1.33775 -0.870423 0
M  V30 2807 C 261.762 1.95327 0.494926 0
M  V30 2808 O 260.818 2.19853 1.2418 0
M  V30 2809 C 262.131 2.25106 -1.99369 0
M  V30 2810 C 263.679 2.3862 -2.02558 0
M  V30 2811 C 264.154 3.33285 -3.14142 0
M  V30 2812 N 265.645 3.40857 -3.13641 0
M  V30 2813 C 266.38 4.14101 -3.96621 0
M  V30 2814 N 265.876 4.90157 -4.8961 0
M  V30 2815 N 267.669 4.09808 -3.84726 0
M  V30 2816 H 259.82 0.680136 -2.01216 0
M  V30 2817 H 262.083 0.362133 -0.876107 0
M  V30 2818 H 261.789 1.87103 -2.97801 0
M  V30 2819 H 261.663 3.25481 -1.90635 0
M  V30 2820 H 264.05 2.75887 -1.0474 0
M  V30 2821 H 264.131 1.38028 -2.15364 0
M  V30 2822 H 263.775 2.96741 -4.12198 0
M  V30 2823 H 263.705 4.33776 -2.98574 0
M  V30 2824 H 266.196 2.86624 -2.46282 0
M  V30 2825 H 266.509 5.4347 -5.49418 0
M  V30 2826 H 264.854 4.89251 -4.93617 0
M  V30 2827 H 268.045 3.4949 -3.11408 0
M  V30 2828 H 268.218 4.66629 -4.49623 0
M  V30 2829 N 261.624 0.925811 1.2754 0
M  V30 2830 C 262.572 0.413897 2.28888 0
M  V30 2831 C 263.566 -0.500779 1.61829 0
M  V30 2832 O 264.772 -0.38069 1.75928 0
M  V30 2833 H 261.147 0.115274 0.743112 0
M  V30 2834 H 263.118 1.28151 2.69481 0
M  V30 2835 C 261.867 -0.319792 3.46226 0
M  V30 2836 H 261.19 0.374846 3.98039 0
M  V30 2837 H 262.63 -0.642435 4.19105 0
M  V30 2838 C 261.089 -1.53209 3.00048 0
M  V30 2839 O 261.619 -2.6309 3.03557 0
M  V30 2840 N 259.825 -1.38326 2.55566 0
M  V30 2841 H 259.372 -0.489292 2.5291 0
M  V30 2842 H 259.33 -2.19564 2.25031 0
M  V30 2843 N 263.102 -1.41638 0.69111 0
M  V30 2844 C 264.379 -1.95036 0.148421 0
M  V30 2845 C 264.759 -1.63072 -1.34055 0
M  V30 2846 O 264.107 -0.93538 -2.08478 0
M  V30 2847 C 264.317 -3.46279 0.434951 0
M  V30 2848 C 265.665 -4.23069 0.360275 0
M  V30 2849 O 266.689 -3.54277 0.369613 0
M  V30 2850 O 265.548 -5.45583 0.316534 0
M  V30 2851 H 262.642 -0.826908 0.0123654 0
M  V30 2852 H 265.188 -1.5138 0.766963 0
M  V30 2853 H 263.96 -3.6281 1.46576 0
M  V30 2854 H 263.583 -3.97019 -0.214787 0
M  V30 2855 N 264.58 -0.43555 -1.51462 0
M  V30 2856 C 265.81 0.130053 -2.0619 0
M  V30 2857 C 266.218 1.37164 -1.30317 0
M  V30 2858 O 265.561 1.80225 -0.355598 0
M  V30 2859 C 265.623 0.519418 -3.55728 0
M  V30 2860 C 265.287 -0.615119 -4.52841 0
M  V30 2861 C 266.284 -1.48671 -4.9819 0
M  V30 2862 C 263.969 -0.795341 -4.95963 0
M  V30 2863 C 265.963 -2.52324 -5.8533 0
M  V30 2864 C 263.65 -1.83514 -5.82894 0
M  V30 2865 C 264.648 -2.69748 -6.27475 0
M  V30 2866 O 264.336 -3.71944 -7.1268 0
M  V30 2867 H 264.068 0.0121612 -0.675891 0
M  V30 2868 H 266.622 -0.6129 -1.96043 0
M  V30 2869 H 264.852 1.31505 -3.63653 0
M  V30 2870 H 266.541 1.01597 -3.92979 0
M  V30 2871 H 267.307 -1.359 -4.65571 0
M  V30 2872 H 263.186 -0.133713 -4.60806 0
M  V30 2873 H 266.73 -3.19665 -6.20048 0
M  V30 2874 H 262.627 -1.96306 -6.14926 0
M  V30 2875 H 263.395 -3.68503 -7.30854 0
M  V30 2876 N 266.058 1.56714 -0.166846 0
M  V30 2877 C 267.021 2.16539 0.751232 0
M  V30 2878 C 268.021 1.11228 1.16125 0
M  V30 2879 O 269.211 1.36765 1.07894 0
M  V30 2880 C 266.343 2.74462 2.02196 0
M  V30 2881 H 267.536 2.99013 0.230499 0
M  V30 2882 H 265.089 1.56081 0.0826982 0
M  V30 2883 H 265.824 1.95709 2.58589 0
M  V30 2884 H 265.609 3.51527 1.73698 0
M  V30 2885 H 267.099 3.20489 2.67725 0
M  V30 2886 N 267.536 -0.106894 1.57237 0
M  V30 2887 C 268.782 -0.808678 1.86633 0
M  V30 2888 C 269.137 -1.76917 0.756178 0
M  V30 2889 O 268.43 -1.90055 -0.242834 0
M  V30 2890 C 268.624 -1.58628 3.20268 0
M  V30 2891 C 268.453 -0.702592 4.44178 0
M  V30 2892 C 267.223 -0.352808 5.04067 0
M  V30 2893 C 269.421 -0.0148031 5.14298 0
M  V30 2894 N 267.403 0.540279 6.11518 0
M  V30 2895 C 268.774 0.736809 6.15606 0
M  V30 2896 C 270.829 0.0603524 4.97863 0
M  V30 2897 C 269.532 1.55654 7.02257 0
M  V30 2898 C 271.558 0.866942 5.85011 0
M  V30 2899 C 270.92 1.60671 6.85831 0
M  V30 2900 H 267.019 -0.27246 0.733001 0
M  V30 2901 H 269.603 -0.0717858 1.94568 0
M  V30 2902 H 267.774 -2.29413 3.13408 0
M  V30 2903 H 269.506 -2.23434 3.3743 0
M  V30 2904 H 266.261 -0.697802 4.68431 0
M  V30 2905 H 266.685 0.979029 6.69884 0
M  V30 2906 H 271.327 -0.497236 4.19866 0
M  V30 2907 H 269.045 2.12524 7.79653 0
M  V30 2908 H 272.631 0.927612 5.74358 0
M  V30 2909 H 271.511 2.2208 7.52097 0
M  V30 2910 N 269.014 -1.53014 -0.377408 0
M  V30 2911 C 269.946 -1.74884 -1.48149 0
M  V30 2912 C 270.959 -0.629433 -1.5014 0
M  V30 2913 O 272.148 -0.905416 -1.53833 0
M  V30 2914 C 269.248 -1.80299 -2.86959 0
M  V30 2915 C 268.421 -3.09776 -3.08801 0
M  V30 2916 C 267.48 -3.06586 -4.27658 0
M  V30 2917 O 266.506 -3.80419 -4.23403 0
M  V30 2918 N 267.708 -2.26578 -5.34455 0
M  V30 2919 H 270.473 -2.70147 -1.29771 0
M  V30 2920 H 268.034 -1.51646 -0.56703 0
M  V30 2921 H 270.026 -1.75657 -3.64591 0
M  V30 2922 H 268.596 -0.92372 -2.98641 0
M  V30 2923 H 267.816 -3.27815 -2.18931 0
M  V30 2924 H 269.104 -3.95366 -3.20255 0
M  V30 2925 H 268.502 -1.66081 -5.40771 0
M  V30 2926 H 267.059 -2.27766 -6.10709 0
M  V30 2927 N 270.492 0.636531 -1.44174 0
M  V30 2928 C 271.439 1.74875 -1.50624 0
M  V30 2929 C 272.409 1.62275 -0.35442 0
M  V30 2930 O 273.594 1.82276 -0.563908 0
M  V30 2931 C 270.734 3.13102 -1.45125 0
M  V30 2932 C 269.847 3.36717 -2.7064 0
M  V30 2933 C 268.982 4.64885 -2.57013 0
M  V30 2934 C 268.021 4.8166 -3.77717 0
M  V30 2935 N 267.158 6.01101 -3.62798 0
M  V30 2936 H 271.998 1.68697 -2.45653 0
M  V30 2937 H 269.535 0.823004 -1.21922 0
M  V30 2938 H 271.493 3.93034 -1.39929 0
M  V30 2939 H 270.123 3.18308 -0.536671 0
M  V30 2940 H 269.175 2.50763 -2.86046 0
M  V30 2941 H 270.487 3.44993 -3.60252 0
M  V30 2942 H 269.641 5.52969 -2.49619 0
M  V30 2943 H 268.38 4.58957 -1.64953 0
M  V30 2944 H 267.385 3.92007 -3.85501 0
M  V30 2945 H 268.61 4.89406 -4.70807 0
M  V30 2946 H 266.556 5.96273 -2.73486 0
M  V30 2947 H 266.473 6.10409 -4.46023 0
M  V30 2948 H 267.741 6.91761 -3.59286 0
M  V30 2949 N 271.97 1.30982 0.876444 0
M  V30 2950 C 273.2 1.23063 1.65949 0
M  V30 2951 C 273.608 -0.207537 1.88058 0
M  V30 2952 O 272.951 -1.14781 1.43426 0
M  V30 2953 C 273.013 1.89768 3.05333 0
M  V30 2954 C 272.677 3.39106 3.0636 0
M  V30 2955 C 273.674 4.3496 2.84791 0
M  V30 2956 C 271.359 3.80693 3.27686 0
M  V30 2957 C 273.353 5.70375 2.84519 0
M  V30 2958 C 271.04 5.16223 3.27043 0
M  V30 2959 C 272.038 6.10875 3.05485 0
M  V30 2960 O 271.726 7.43928 3.04674 0
M  V30 2961 H 271.458 0.426685 0.524324 0
M  V30 2962 H 274.012 1.7329 1.10271 0
M  V30 2963 H 272.242 1.34082 3.6271 0
M  V30 2964 H 273.931 1.75853 3.65829 0
M  V30 2965 H 274.697 4.0416 2.68103 0
M  V30 2966 H 270.576 3.07457 3.43499 0
M  V30 2967 H 274.12 6.44228 2.67611 0
M  V30 2968 H 270.017 5.4666 3.43269 0
M  V30 2969 H 270.785 7.53022 3.2078 0
M  V30 2970 N 273.449 -1.08991 1.13837 0
M  V30 2971 C 274.695 -1.81526 0.90422 0
M  V30 2972 C 275.028 -1.85706 -0.568066 0
M  V30 2973 O 274.303 -1.32855 -1.42056 0
M  V30 2974 C 274.586 -3.27447 1.49835 0
M  V30 2975 C 274.439 -3.31512 3.04006 0
M  V30 2976 C 275.758 -4.24256 1.17025 0
M  V30 2977 H 272.877 -0.659029 0.329923 0
M  V30 2978 H 275.519 -1.27644 1.40737 0
M  V30 2979 H 273.669 -3.73462 1.07044 0
M  V30 2980 H 275.341 -2.93867 3.55584 0
M  V30 2981 H 273.584 -2.70963 3.38765 0
M  V30 2982 H 274.255 -4.34329 3.40679 0
M  V30 2983 H 276.731 -3.86549 1.54009 0
M  V30 2984 H 275.607 -5.24684 1.61237 0
M  V30 2985 H 275.868 -4.42019 0.0846274 0
M  V30 2986 N 274.927 -0.932562 -1.27047 0
M  V30 2987 C 275.857 -0.452902 -2.29066 0
M  V30 2988 C 276.838 0.489338 -1.62909 0
M  V30 2989 O 278.023 0.393046 -1.90181 0
M  V30 2990 C 275.153 0.290698 -3.46081 0
M  V30 2991 C 274.107 -0.564168 -4.24265 0
M  V30 2992 C 273.433 0.308886 -5.33807 0
M  V30 2993 C 274.733 -1.83112 -4.89149 0
M  V30 2994 H 276.427 -1.30552 -2.69437 0
M  V30 2995 H 273.973 -0.629201 -1.29526 0
M  V30 2996 H 275.926 0.637233 -4.16554 0
M  V30 2997 H 274.65 1.17738 -3.0464 0
M  V30 2998 H 273.309 -0.893477 -3.55545 0
M  V30 2999 H 272.957 1.19467 -4.88607 0
M  V30 3000 H 272.657 -0.259633 -5.87026 0
M  V30 3001 H 274.181 0.650884 -6.07121 0
M  V30 3002 H 275.595 -1.55236 -5.51883 0
M  V30 3003 H 273.992 -2.34353 -5.52448 0
M  V30 3004 H 275.062 -2.54772 -4.12576 0
M  V30 3005 N 276.405 1.4127 -0.698611 0
M  V30 3006 C 277.682 1.94955 -0.158762 0
M  V30 3007 C 278.062 1.63781 1.33188 0
M  V30 3008 O 277.41 0.946423 2.07979 0
M  V30 3009 C 277.62 3.46044 -0.453309 0
M  V30 3010 C 278.968 4.22872 -0.382707 0
M  V30 3011 O 279.992 3.54076 -0.388396 0
M  V30 3012 O 278.851 5.45407 -0.345463 0
M  V30 3013 H 275.945 0.82683 -0.0167505 0
M  V30 3014 H 278.491 1.50971 -0.77498 0
M  V30 3015 H 277.263 3.62028 -1.48498 0
M  V30 3016 H 276.886 3.97128 0.19373 0
M  V30 3017 N 277.883 0.443576 1.51229 0
M  V30 3018 C 278.83 -0.364716 2.279 0
M  V30 3019 C 279.8 -1.0114 1.31757 0
M  V30 3020 O 280.985 -1.02912 1.60667 0
M  V30 3021 C 278.125 -1.45644 3.12861 0
M  V30 3022 C 277.238 -0.827269 4.24005 0
M  V30 3023 C 276.373 -1.89456 4.96266 0
M  V30 3024 C 275.412 -1.24416 5.99322 0
M  V30 3025 N 274.549 -2.25309 6.64966 0
M  V30 3026 H 279.389 0.295464 2.96532 0
M  V30 3027 H 276.926 0.157554 1.46254 0
M  V30 3028 H 278.884 -2.10076 3.6045 0
M  V30 3029 H 277.514 -2.08616 2.46331 0
M  V30 3030 H 276.566 -0.0710839 3.80334 0
M  V30 3031 H 277.878 -0.312481 4.9782 0
M  V30 3032 H 277.032 -2.61535 5.47434 0
M  V30 3033 H 275.771 -2.4431 4.22095 0
M  V30 3034 H 274.776 -0.508868 5.4744 0
M  V30 3035 H 276.001 -0.702882 6.75453 0
M  V30 3036 H 273.947 -2.79231 5.93604 0
M  V30 3037 H 273.864 -1.78739 7.34567 0
M  V30 3038 H 275.132 -2.96853 7.20763 0
M  V30 3039 N 279.361 -1.56624 0.175154 0
M  V30 3040 C 280.291 -2.21155 -0.749195 0
M  V30 3041 C 281.272 -1.16836 -1.23626 0
M  V30 3042 O 282.457 -1.45277 -1.28873 0
M  V30 3043 C 279.587 -2.8553 -1.97711 0
M  V30 3044 C 278.541 -3.95921 -1.62575 0
M  V30 3045 C 277.867 -4.47365 -2.92864 0
M  V30 3046 C 279.167 -5.15323 -0.850838 0
M  V30 3047 H 280.861 -2.98653 -0.211295 0
M  V30 3048 H 278.407 -1.43651 -0.100188 0
M  V30 3049 H 280.36 -3.2935 -2.62881 0
M  V30 3050 H 279.084 -2.05406 -2.53921 0
M  V30 3051 H 277.743 -3.52762 -0.997719 0
M  V30 3052 H 277.391 -3.64027 -3.47122 0
M  V30 3053 H 277.091 -5.21839 -2.70106 0
M  V30 3054 H 278.615 -4.93873 -3.59056 0
M  V30 3055 H 280.029 -5.55812 -1.40521 0
M  V30 3056 H 278.426 -5.95739 -0.722154 0
M  V30 3057 H 279.496 -4.84661 0.152082 0
M  V30 3058 N 280.839 0.0985539 -1.57292 0
M  V30 3059 C 282.085 0.803867 -1.86188 0
M  V30 3060 C 282.418 1.78549 -0.763794 0
M  V30 3061 O 281.693 1.93153 0.22855 0
M  V30 3062 C 281.976 1.53568 -3.25713 0
M  V30 3063 C 281.829 0.572277 -4.46145 0
M  V30 3064 C 283.148 2.48708 -3.63087 0
M  V30 3065 H 280.267 0.290781 -0.677211 0
M  V30 3066 H 282.909 0.0675783 -1.8988 0
M  V30 3067 H 281.059 2.16332 -3.22696 0
M  V30 3068 H 282.731 -0.0480894 -4.61275 0
M  V30 3069 H 280.974 -0.114618 -4.33649 0
M  V30 3070 H 281.645 1.12139 -5.40489 0
M  V30 3071 H 284.121 1.96039 -3.67026 0
M  V30 3072 H 282.997 2.96932 -4.61652 0
M  V30 3073 H 283.258 3.32309 -2.91588 0
M  V30 3074 N 282.317 1.53212 0.369288 0
M  V30 3075 C 283.542 1.73423 1.1375 0
M  V30 3076 C 283.967 0.460404 1.82378 0
M  V30 3077 O 283.325 -0.585298 1.71592 0
M  V30 3078 C 283.373 2.89769 2.1463 0
M  V30 3079 O 282.477 2.58119 3.21634 0
M  V30 3080 H 281.818 0.576061 0.330227 0
M  V30 3081 H 284.348 2.00083 0.427547 0
M  V30 3082 H 284.358 3.15829 2.58294 0
M  V30 3083 H 283.033 3.8217 1.64071 0
M  V30 3084 H 281.61 2.42864 2.82969 0
M  V30 3085 N 283.795 -0.628877 1.44509 0
M  V30 3086 C 285.072 -1.38733 1.37886 0
M  V30 3087 C 285.452 -2.11065 0.0387008 0
M  V30 3088 O 284.8 -2.06476 -0.97878 0
M  V30 3089 C 285.01 -2.35188 2.57852 0
M  V30 3090 C 286.358 -2.9845 3.02014 0
M  V30 3091 O 287.382 -2.45513 2.58073 0
M  V30 3092 O 286.241 -3.94487 3.78209 0
M  V30 3093 H 283.335 -0.621015 0.54614 0
M  V30 3094 H 285.881 -0.653744 1.56602 0
M  V30 3095 H 284.653 -1.80855 3.46998 0
M  V30 3096 H 284.276 -3.1596 2.4136 0
M  V30 3097 N 285.273 -1.31445 -0.869486 0
M  V30 3098 C 286.203 -1.21727 -1.99261 0
M  V30 3099 C 287.184 -0.104359 -1.6978 0
M  V30 3100 O 288.369 -0.289038 -1.92037 0
M  V30 3101 C 285.499 -0.924317 -3.34774 0
M  V30 3102 C 284.453 -1.99685 -3.78563 0
M  V30 3103 C 283.779 -1.55658 -5.11541 0
M  V30 3104 C 285.079 -3.41003 -3.95619 0
M  V30 3105 H 286.773 -2.1569 -2.07649 0
M  V30 3106 H 284.319 -1.03839 -0.997675 0
M  V30 3107 H 286.272 -0.842934 -4.12883 0
M  V30 3108 H 284.996 0.0509793 -3.2656 0
M  V30 3109 H 283.655 -2.06813 -3.02694 0
M  V30 3110 H 283.303 -0.569132 -4.9977 0
M  V30 3111 H 283.003 -2.27409 -5.41811 0
M  V30 3112 H 284.527 -1.48928 -5.92159 0
M  V30 3113 H 285.941 -3.36547 -4.64122 0
M  V30 3114 H 284.338 -4.10975 -4.37286 0
M  V30 3115 H 285.408 -3.81754 -2.98985 0
M  V30 3116 N 286.751 1.08385 -1.14413 0
M  V30 3117 C 287.699 2.17406 -0.826888 0
M  V30 3118 C 288.693 1.6827 0.195312 0
M  V30 3119 O 289.899 1.79927 0.0513892 0
M  V30 3120 H 286.274 0.70934 -0.249681 0
M  V30 3121 H 288.245 2.41388 -1.75426 0
M  V30 3122 C 286.994 3.46215 -0.320979 0
M  V30 3123 H 286.317 3.84401 -1.0989 0
M  V30 3124 H 287.757 4.23777 -0.137549 0
M  V30 3125 C 286.216 3.23067 0.955472 0
M  V30 3126 O 286.746 3.4668 2.02918 0
M  V30 3127 N 284.952 2.7661 0.890798 0
M  V30 3128 H 284.499 2.57594 0.0168815 0
M  V30 3129 H 284.457 2.61501 1.74542 0
M  V30 3130 N 288.23 0.939286 1.26551 0
M  V30 3131 C 289.193 0.451987 2.24699 0
M  V30 3132 C 290.193 -0.435869 1.5478 0
M  V30 3133 O 291.383 -0.235314 1.72603 0
M  V30 3134 C 288.515 -0.348801 3.39111 0
M  V30 3135 H 289.708 1.3193 2.69322 0
M  V30 3136 H 287.261 0.721072 1.38673 0
M  V30 3137 H 287.996 -1.23444 2.99887 0
M  V30 3138 H 287.781 0.287945 3.91041 0
M  V30 3139 H 289.271 -0.679726 4.12031 0
M  V30 3140 N 289.708 -1.40897 0.706093 0
M  V30 3141 C 290.956 -2.00657 0.241054 0
M  V30 3142 C 291.277 -1.56241 -1.16678 0
M  V30 3143 O 290.547 -0.79765 -1.78926 0
M  V30 3144 H 289.127 -0.742018 0.0861308 0
M  V30 3145 H 291.789 -1.72372 0.909604 0
M  V30 3146 H 290.885 -3.10958 0.266705 0
M  V30 3147 N 291.186 -0.45159 -1.50991 0
M  V30 3148 C 292.463 0.170707 -1.94854 0
M  V30 3149 C 292.843 1.58788 -1.39103 0
M  V30 3150 O 292.191 2.20913 -0.583921 0
M  V30 3151 C 292.401 0.133929 -3.48743 0
M  V30 3152 C 293.749 0.33248 -4.23296 0
M  V30 3153 O 294.773 0.211403 -3.55572 0
M  V30 3154 O 293.632 0.57486 -5.43468 0
M  V30 3155 H 290.726 0.122264 -0.817912 0
M  V30 3156 H 293.272 -0.510594 -1.61836 0
M  V30 3157 H 292.044 -0.856283 -3.81816 0
M  V30 3158 H 291.667 0.857529 -3.88242 0
M  V30 3159 N 292.664 1.56529 -0.183458 0
M  V30 3160 C 293.889 2.02064 0.467428 0
M  V30 3161 C 294.314 1.06282 1.55196 0
M  V30 3162 O 293.672 0.0443565 1.81246 0
M  V30 3163 C 293.72 3.46122 1.01153 0
M  V30 3164 O 292.824 3.53437 2.12499 0
M  V30 3165 H 292.165 0.654726 0.110588 0
M  V30 3166 H 294.695 2.02521 -0.290917 0
M  V30 3167 H 294.705 3.85676 1.33108 0
M  V30 3168 H 293.38 4.15331 0.217533 0
M  V30 3169 H 291.957 3.2575 1.81497 0
M  V30 3170 N 294.142 -0.090211 1.57342 0
M  V30 3171 C 295.37 -0.806224 1.90546 0
M  V30 3172 C 295.785 -1.72041 0.777644 0
M  V30 3173 O 295.142 -1.80778 -0.250103 0
M  V30 3174 C 295.193 -1.61546 3.23396 0
M  V30 3175 O 294.914 -0.738043 4.31839 0
M  V30 3176 C 296.415 -2.4341 3.70495 0
M  V30 3177 H 293.635 -0.230256 0.630257 0
M  V30 3178 H 296.179 -0.0659843 2.04394 0
M  V30 3179 H 294.334 -2.30816 3.11131 0
M  V30 3180 H 294.748 -1.29901 5.08159 0
M  V30 3181 H 296.222 -2.95676 4.66133 0
M  V30 3182 H 296.699 -3.22098 2.98579 0
M  V30 3183 H 297.305 -1.79331 3.85643 0
M  V30 3184 N 295.62 -1.53406 -0.361157 0
M  V30 3185 C 297.036 -1.43277 -0.703124 0
M  V30 3186 C 297.236 -0.575384 -1.9311 0
M  V30 3187 O 296.292 -0.0595362 -2.5243 0
M  V30 3188 C 297.605 -2.8653 -0.9122 0
M  V30 3189 C 299.153 -2.96191 -1.01193 0
M  V30 3190 C 299.628 -4.40514 -1.25345 0
M  V30 3191 N 301.119 -4.43962 -1.32105 0
M  V30 3192 C 301.854 -5.52746 -1.5251 0
M  V30 3193 N 301.35 -6.71567 -1.70203 0
M  V30 3194 N 303.143 -5.40331 -1.54916 0
M  V30 3195 H 295.294 -2.07654 0.446475 0
M  V30 3196 H 297.557 -0.937944 0.137715 0
M  V30 3197 H 297.263 -3.51605 -0.0816414 0
M  V30 3198 H 297.137 -3.30441 -1.81903 0
M  V30 3199 H 299.524 -2.31266 -1.83303 0
M  V30 3200 H 299.605 -2.55667 -0.0823929 0
M  V30 3201 H 299.249 -5.06014 -0.437346 0
M  V30 3202 H 299.179 -4.78614 -2.19627 0
M  V30 3203 H 301.67 -3.58332 -1.20028 0
M  V30 3204 H 301.983 -7.50241 -1.85359 0
M  V30 3205 H 300.328 -6.74545 -1.67373 0
M  V30 3206 H 303.519 -4.46465 -1.40663 0
M  V30 3207 H 303.692 -6.25173 -1.70477 0
M  V30 3208 N 297.098 0.621204 -1.44841 0
M  V30 3209 C 298.03 1.74615 -1.48466 0
M  V30 3210 C 299.043 1.58377 -0.37691 0
M  V30 3211 O 300.232 1.66508 -0.643215 0
M  V30 3212 C 297.332 3.12459 -1.31236 0
M  V30 3213 C 296.505 3.55064 -2.55438 0
M  V30 3214 C 295.564 4.71821 -2.32963 0
M  V30 3215 O 294.59 4.79628 -3.06505 0
M  V30 3216 N 295.792 5.64186 -1.36654 0
M  V30 3217 H 298.557 1.71973 -2.45449 0
M  V30 3218 H 296.118 0.806077 -1.40407 0
M  V30 3219 H 298.11 3.88302 -1.14032 0
M  V30 3220 H 296.68 3.09686 -0.4258 0
M  V30 3221 H 295.9 2.69324 -2.87851 0
M  V30 3222 H 297.188 3.80284 -3.38026 0
M  V30 3223 H 296.586 5.6058 -0.759344 0
M  V30 3224 H 295.143 6.39618 -1.25425 0
M  V30 3225 N 298.576 1.31904 0.862503 0
M  V30 3226 C 299.806 1.24817 1.64634 0
M  V30 3227 C 300.214 -0.187579 1.88268 0
M  V30 3228 O 299.557 -1.13253 1.44635 0
M  V30 3229 C 299.619 1.92996 3.03303 0
M  V30 3230 C 299.283 3.42336 3.02746 0
M  V30 3231 C 300.28 4.37956 2.80162 0
M  V30 3232 C 297.965 3.84147 3.2363 0
M  V30 3233 C 299.959 5.73361 2.78453 0
M  V30 3234 C 297.646 5.19663 3.21549 0
M  V30 3235 C 298.644 6.14081 2.98988 0
M  V30 3236 O 298.332 7.47118 2.96766 0
M  V30 3237 H 298.064 0.432222 0.519769 0
M  V30 3238 H 300.618 1.7445 1.08427 0
M  V30 3239 H 298.848 1.37922 3.61268 0
M  V30 3240 H 300.537 1.79723 3.63943 0
M  V30 3241 H 301.303 4.06981 2.63802 0
M  V30 3242 H 297.182 3.11083 3.40218 0
M  V30 3243 H 300.726 6.4703 2.60763 0
M  V30 3244 H 296.623 5.5027 3.37451 0
M  V30 3245 H 297.391 7.56382 3.12775 0
M  V30 3246 N 300.054 -1.07777 1.14986 0
M  V30 3247 C 301.001 -2.14867 0.842672 0
M  V30 3248 C 301.971 -1.6486 -0.202552 0
M  V30 3249 O 303.156 -1.90668 -0.0710568 0
M  V30 3250 C 300.296 -3.43486 0.333363 0
M  V30 3251 C 299.409 -4.07306 1.43965 0
M  V30 3252 C 298.544 -5.23744 0.886914 0
M  V30 3253 C 297.583 -5.79517 1.97043 0
M  V30 3254 N 296.72 -6.87291 1.4344 0
M  V30 3255 H 301.56 -2.40485 1.75986 0
M  V30 3256 H 299.097 -1.1801 0.878179 0
M  V30 3257 H 301.055 -4.17195 0.0198163 0
M  V30 3258 H 299.685 -3.18133 -0.546916 0
M  V30 3259 H 298.737 -3.31293 1.86946 0
M  V30 3260 H 300.049 -4.44771 2.25788 0
M  V30 3261 H 299.203 -6.04419 0.525651 0
M  V30 3262 H 297.942 -4.87685 0.0377957 0
M  V30 3263 H 296.947 -4.97491 2.34057 0
M  V30 3264 H 298.172 -6.17632 2.82325 0
M  V30 3265 H 296.118 -6.5318 0.607567 0
M  V30 3266 H 296.035 -7.23617 2.18895 0
M  V30 3267 H 297.303 -7.71682 1.10124 0
M  V30 3268 N 301.532 -0.945985 -1.26051 0
M  V30 3269 C 302.495 -0.463897 -2.24456 0
M  V30 3270 C 303.495 0.427655 -1.55009 0
M  V30 3271 O 304.685 0.226157 -1.72726 0
M  V30 3272 C 301.817 0.330812 -3.39291 0
M  V30 3273 H 303.01 -1.33357 -2.68619 0
M  V30 3274 H 300.563 -0.728416 -1.38289 0
M  V30 3275 H 301.298 1.21852 -3.00537 0
M  V30 3276 H 301.083 -0.308679 -3.90883 0
M  V30 3277 H 302.573 0.657865 -4.12386 0
M  V30 3278 N 303.011 1.40521 -0.713556 0
M  V30 3279 C 304.259 2.00527 -0.251692 0
M  V30 3280 C 304.58 1.56857 1.15848 0
M  V30 3281 O 303.85 0.807127 1.785 0
M  V30 3282 H 302.43 0.741551 -0.0900646 0
M  V30 3283 H 305.092 1.71887 -0.918733 0
M  V30 3284 H 304.188 3.10813 -0.283192 0
M  V30 3285 N 304.489 0.459591 1.5075 0
M  V30 3286 C 305.714 -0.0996819 2.0716 0
M  V30 3287 C 306.139 -1.33761 1.32249 0
M  V30 3288 O 305.497 -1.77551 0.366786 0
M  V30 3289 C 305.545 -0.378226 3.58611 0
M  V30 3290 O 304.649 -1.46081 3.85661 0
M  V30 3291 H 303.99 0.00791392 0.663953 0
M  V30 3292 H 306.52 0.647329 1.9409 0
M  V30 3293 H 306.53 -0.622135 4.03229 0
M  V30 3294 H 305.205 0.526439 4.12555 0
M  V30 3295 H 303.782 -1.20511 3.5289 0
M  V30 3296 N 305.967 -1.56429 0.191757 0
M  V30 3297 C 307.216 -1.9666 -0.448088 0
M  V30 3298 C 307.529 -1.08136 -1.62991 0
M  V30 3299 O 308.735 -1.38135 -2.33733 0
M  V30 3300 C 307.191 -3.49753 -0.848585 0
M  V30 3301 C 306.799 -4.46935 0.308764 0
M  V30 3302 C 308.543 -3.9876 -1.4557 0
M  V30 3303 C 306.45 -5.91293 -0.112506 0
M  V30 3304 H 305.38 -0.734312 -0.171179 0
M  V30 3305 H 308.031 -1.81301 0.283242 0
M  V30 3306 H 306.413 -3.60604 -1.63649 0
M  V30 3307 H 307.587 -4.47813 1.08627 0
M  V30 3308 H 305.902 -4.08102 0.827158 0
M  V30 3309 H 308.499 -5.04086 -1.78328 0
M  V30 3310 H 308.842 -3.42875 -2.36099 0
M  V30 3311 H 309.375 -3.9101 -0.731836 0
M  V30 3312 H 306.114 -6.51097 0.758514 0
M  V30 3313 H 305.634 -5.93676 -0.854941 0
M  V30 3314 H 307.313 -6.44663 -0.549448 0
M  V30 3315 N 307.445 0.0818655 -1.57387 0
M  V30 3316 C 308.694 0.781681 -1.85937 0
M  V30 3317 C 309.007 1.79246 -0.782957 0
M  V30 3318 O 310.213 2.54112 -0.955987 0
M  V30 3319 C 308.669 1.44109 -3.29789 0
M  V30 3320 C 308.277 0.469396 -4.45534 0
M  V30 3321 C 310.021 2.12386 -3.67549 0
M  V30 3322 C 307.928 1.13415 -5.80423 0
M  V30 3323 H 306.858 0.295682 -0.693605 0
M  V30 3324 H 309.509 0.0348051 -1.83467 0
M  V30 3325 H 307.891 2.23588 -3.2684 0
M  V30 3326 H 309.065 -0.294856 -4.59856 0
M  V30 3327 H 307.38 -0.108383 -4.16259 0
M  V30 3328 H 309.977 2.62878 -4.65617 0
M  V30 3329 H 310.32 2.91877 -2.96839 0
M  V30 3330 H 310.853 1.39751 -3.72444 0
M  V30 3331 H 307.592 0.379771 -6.54399 0
M  V30 3332 H 307.112 1.8695 -5.69921 0
M  V30 3333 H 308.791 1.65686 -6.25426 0
M  V30 3334 N 308.923 1.53595 0.353017 0
M  V30 3335 C 310.169 1.71581 1.09232 0
M  V30 3336 C 310.524 0.468328 1.86613 0
M  V30 3337 O 309.817 -0.538911 1.83865 0
M  V30 3338 C 310.011 2.91313 2.07054 0
M  V30 3339 C 309.84 4.27585 1.39287 0
M  V30 3340 C 308.61 4.92233 1.1417 0
M  V30 3341 C 310.808 5.07656 0.824005 0
M  V30 3342 N 308.79 6.124 0.428841 0
M  V30 3343 C 310.161 6.19531 0.241195 0
M  V30 3344 C 312.216 4.92609 0.723922 0
M  V30 3345 C 310.919 7.18002 -0.431952 0
M  V30 3346 C 312.945 5.91365 0.0645334 0
M  V30 3347 C 312.307 7.02571 -0.507347 0
M  V30 3348 H 308.406 0.680987 0.384422 0
M  V30 3349 H 310.99 1.91013 0.377096 0
M  V30 3350 H 309.161 2.73398 2.75877 0
M  V30 3351 H 310.893 2.98062 2.73753 0
M  V30 3352 H 307.648 4.51612 1.42631 0
M  V30 3353 H 308.072 6.76944 0.0874131 0
M  V30 3354 H 312.714 4.06808 1.15181 0
M  V30 3355 H 310.432 8.03384 -0.871758 0
M  V30 3356 H 314.018 5.81799 -0.0121469 0
M  V30 3357 H 312.898 7.77675 -1.0095 0
M  V30 3358 N 310.401 -0.613514 1.45168 0
M  V30 3359 C 311.349 -1.74572 1.53712 0
M  V30 3360 C 312.343 -1.64426 0.407505 0
M  V30 3361 O 313.549 -1.70291 0.583176 0
M  V30 3362 H 309.924 -0.576641 0.48269 0
M  V30 3363 H 311.895 -1.64492 2.48968 0
M  V30 3364 C 310.644 -3.12943 1.51532 0
M  V30 3365 H 309.967 -3.21407 2.37776 0
M  V30 3366 H 311.407 -3.9201 1.61569 0
M  V30 3367 C 309.866 -3.36053 0.238798 0
M  V30 3368 O 310.396 -3.95837 -0.6838 0
M  V30 3369 N 308.602 -2.9028 0.136359 0
M  V30 3370 H 308.149 -2.41811 0.887999 0
M  V30 3371 H 308.107 -3.06116 -0.716944 0
M  V30 3372 N 311.879 -1.3236 -0.855495 0
M  V30 3373 C 313.125 -1.23054 -1.612 0
M  V30 3374 C 313.458 0.207404 -1.93089 0
M  V30 3375 O 312.733 1.14432 -1.57275 0
M  V30 3376 C 313.016 -2.08937 -2.93287 0
M  V30 3377 C 312.869 -3.61105 -2.68185 0
M  V30 3378 C 314.188 -1.94986 -3.94549 0
M  V30 3379 H 311.307 -0.448364 -0.584926 0
M  V30 3380 H 313.949 -1.62297 -0.987917 0
M  V30 3381 H 312.099 -1.75599 -3.46551 0
M  V30 3382 H 313.771 -4.04652 -2.21483 0
M  V30 3383 H 312.014 -3.83813 -2.02164 0
M  V30 3384 H 312.685 -4.16522 -3.62234 0
M  V30 3385 H 315.161 -2.24189 -3.5054 0
M  V30 3386 H 314.037 -2.57356 -4.84829 0
M  V30 3387 H 314.298 -0.917263 -4.3248 0
M  V30 3388 N 313.357 1.07166 -1.15556 0
M  V30 3389 C 314.605 1.79443 -0.929764 0
M  V30 3390 C 314.926 1.87246 0.544414 0
M  V30 3391 O 314.196 1.37473 1.39564 0
M  V30 3392 H 312.776 0.664625 -0.341003 0
M  V30 3393 H 315.438 1.29499 -1.45657 0
M  V30 3394 H 314.534 2.81832 -1.34079 0
M  V30 3395 N 314.835 0.952656 1.25548 0
M  V30 3396 C 316.06 0.623025 1.97821 0
M  V30 3397 C 316.485 -0.7976 1.70352 0
M  V30 3398 O 315.843 -1.53905 0.958283 0
M  V30 3399 C 315.891 0.885532 3.49558 0
M  V30 3400 O 314.995 -0.0366641 4.12384 0
M  V30 3401 H 314.336 0.237082 0.620232 0
M  V30 3402 H 316.866 1.27871 1.59719 0
M  V30 3403 H 316.876 0.811009 3.99858 0
M  V30 3404 H 315.551 1.92094 3.6888 0
M  V30 3405 H 314.128 0.0898954 3.72792 0
M  V30 3406 N 316.313 -1.40141 0.720998 0
M  V30 3407 C 317.243 -2.33339 0.0867621 0
M  V30 3408 C 318.224 -1.53178 -0.739622 0
M  V30 3409 O 319.409 -1.81625 -0.687449 0
M  V30 3410 C 316.539 -3.37194 -0.831728 0
M  V30 3411 C 315.493 -4.27857 -0.110558 0
M  V30 3412 C 314.819 -5.22294 -1.14513 0
M  V30 3413 C 316.119 -5.11872 1.0385 0
M  V30 3414 H 317.813 -2.86626 0.865219 0
M  V30 3415 H 315.359 -1.37814 0.417516 0
M  V30 3416 H 317.312 -4.01335 -1.28485 0
M  V30 3417 H 316.036 -2.82314 -1.64214 0
M  V30 3418 H 314.695 -3.65176 0.322797 0
M  V30 3419 H 314.343 -4.63717 -1.94874 0
M  V30 3420 H 314.043 -5.83797 -0.667446 0
M  V30 3421 H 315.567 -5.89312 -1.59824 0
M  V30 3422 H 316.981 -5.69436 0.664482 0
M  V30 3423 H 315.378 -5.82445 1.4449 0
M  V30 3424 H 316.448 -4.4753 1.86668 0
M  V30 3425 N 317.792 -0.46758 -1.50504 0
M  V30 3426 C 318.742 0.34698 -2.25344 0
M  V30 3427 C 319.726 0.964469 -1.2879 0
M  V30 3428 O 320.918 0.8776 -1.53711 0
M  V30 3429 C 318.047 1.43042 -3.1208 0
M  V30 3430 C 317.133 0.82084 -4.16081 0
M  V30 3431 N 317.524 -0.0567602 -5.05768 0
M  V30 3432 C 315.822 1.08517 -4.32597 0
M  V30 3433 C 316.523 -0.402343 -5.80307 0
M  V30 3434 N 315.499 0.221607 -5.43148 0
M  V30 3435 H 319.301 -0.329129 -2.92051 0
M  V30 3436 H 316.815 -0.281508 -1.59942 0
M  V30 3437 H 318.812 2.02712 -3.64299 0
M  V30 3438 H 317.472 2.10856 -2.46921 0
M  V30 3439 H 318.483 -0.425349 -5.1615 0
M  V30 3440 H 315.16 1.75855 -3.78657 0
M  V30 3441 H 316.55 -1.11834 -6.62528 0
M  V30 3442 N 319.27 1.56325 -0.20005 0
M  V30 3443 C 320.516 1.98012 0.438059 0
M  V30 3444 C 320.849 1.08702 1.60927 0
M  V30 3445 O 320.124 0.140064 1.93995 0
M  V30 3446 C 320.407 3.48841 0.893419 0
M  V30 3447 C 320.26 4.48928 -0.279947 0
M  V30 3448 C 321.579 4.03498 1.75719 0
M  V30 3449 H 318.698 0.719918 0.157757 0
M  V30 3450 H 321.34 1.87743 -0.291968 0
M  V30 3451 H 319.49 3.57723 1.51547 0
M  V30 3452 H 321.162 4.52079 -0.91772 0
M  V30 3453 H 319.405 4.23694 -0.930919 0
M  V30 3454 H 320.076 5.5194 0.0812601 0
M  V30 3455 H 322.552 3.97427 1.23253 0
M  V30 3456 H 321.428 5.09393 2.04476 0
M  V30 3457 H 321.689 3.4906 2.71311 0
M  V30 3458 N 320.748 -0.0735177 1.57428 0
M  V30 3459 C 321.978 -0.78483 1.91112 0
M  V30 3460 C 322.386 -1.71729 0.7941 0
M  V30 3461 O 321.729 -1.82105 -0.241542 0
M  V30 3462 C 321.791 -1.63346 3.20247 0
M  V30 3463 C 321.455 -0.870557 4.48632 0
M  V30 3464 C 322.452 -0.19058 5.19551 0
M  V30 3465 C 320.137 -0.838242 4.95256 0
M  V30 3466 C 322.131 0.511503 6.35344 0
M  V30 3467 C 319.818 -0.132386 6.10957 0
M  V30 3468 C 320.816 0.541288 6.80852 0
M  V30 3469 O 320.504 1.23578 7.94345 0
M  V30 3470 H 320.236 -0.228408 0.636244 0
M  V30 3471 H 322.79 -0.0486039 2.05342 0
M  V30 3472 H 321.02 -2.41245 3.02222 0
M  V30 3473 H 322.709 -2.22329 3.39595 0
M  V30 3474 H 323.475 -0.206864 4.84559 0
M  V30 3475 H 319.354 -1.35206 4.40727 0
M  V30 3476 H 322.898 1.03789 6.89836 0
M  V30 3477 H 318.795 -0.114023 6.45399 0
M  V30 3478 H 319.563 1.14487 8.10454 0
M  V30 3479 N 322.226 -1.5378 -0.344866 0
M  V30 3480 C 323.451 -1.75211 -1.10977 0
M  V30 3481 C 323.876 -0.48936 -1.81623 0
M  V30 3482 O 323.234 0.557925 -1.72502 0
M  V30 3483 C 323.282 -2.93147 -2.09993 0
M  V30 3484 O 322.386 -2.63203 -3.17487 0
M  V30 3485 H 321.727 -0.581241 -0.321021 0
M  V30 3486 H 324.257 -2.00738 -0.395661 0
M  V30 3487 H 324.267 -3.19898 -2.53237 0
M  V30 3488 H 322.942 -3.84731 -1.5797 0
M  V30 3489 H 321.519 -2.47336 -2.79069 0
M  V30 3490 N 323.704 0.605807 -1.45491 0
M  V30 3491 C 325.12 0.926751 -1.29936 0
M  V30 3492 C 325.32 1.99896 -0.253706 0
M  V30 3493 O 324.376 2.50038 0.351737 0
M  V30 3494 C 325.689 1.36599 -2.67883 0
M  V30 3495 C 327.237 1.4801 -2.75793 0
M  V30 3496 C 327.712 1.95309 -4.14268 0
M  V30 3497 N 329.203 2.0254 -4.16571 0
M  V30 3498 C 329.938 2.40363 -5.20589 0
M  V30 3499 N 329.434 2.77143 -6.34952 0
M  V30 3500 N 331.227 2.40718 -5.07948 0
M  V30 3501 H 323.378 -0.102862 -2.12151 0
M  V30 3502 H 325.641 0.016639 -0.947854 0
M  V30 3503 H 325.347 0.652306 -3.45598 0
M  V30 3504 H 325.221 2.33215 -2.96463 0
M  V30 3505 H 327.608 2.1847 -1.98381 0
M  V30 3506 H 327.689 0.497041 -2.50925 0
M  V30 3507 H 327.333 1.25436 -4.92167 0
M  V30 3508 H 327.263 2.94532 -4.3653 0
M  V30 3509 H 329.754 1.76699 -3.34045 0
M  V30 3510 H 330.067 3.0489 -7.10114 0
M  V30 3511 H 328.412 2.74834 -6.3835 0
M  V30 3512 H 331.603 2.11392 -4.1765 0
M  V30 3513 H 331.776 2.69869 -5.89131 0
M  V30 3514 N 325.182 1.32811 0.848464 0
M  V30 3515 C 326.132 1.18842 1.94578 0
M  V30 3516 C 327.116 0.0937517 1.60627 0
M  V30 3517 O 328.308 0.320887 1.74067 0
M  V30 3518 C 325.437 0.91999 3.30743 0
M  V30 3519 C 324.523 2.05665 3.70894 0
M  V30 3520 N 324.914 3.30579 3.8282 0
M  V30 3521 C 323.212 1.9612 4.00566 0
M  V30 3522 C 323.913 4.05067 4.17487 0
M  V30 3523 N 322.889 3.33419 4.2934 0
M  V30 3524 H 326.691 2.13536 2.0194 0
M  V30 3525 H 324.205 1.2468 1.0406 0
M  V30 3526 H 326.202 0.800859 4.09136 0
M  V30 3527 H 324.862 -0.0185076 3.24695 0
M  V30 3528 H 325.873 3.65441 3.66978 0
M  V30 3529 H 322.55 1.09871 4.02784 0
M  V30 3530 H 323.94 5.12815 4.34131 0
M  V30 3531 N 326.66 -1.06551 1.16123 0
M  V30 3532 C 327.907 -1.79302 0.941126 0
M  V30 3533 C 328.235 -1.87105 -0.531235 0
M  V30 3534 O 327.49 -1.35692 -1.41018 0
M  V30 3535 C 327.789 -3.23911 1.51052 0
M  V30 3536 C 327.455 -3.36193 3.00475 0
M  V30 3537 C 326.117 -3.39252 3.41265 0
M  V30 3538 C 328.469 -3.38326 3.96465 0
M  V30 3539 C 325.797 -3.42057 4.76669 0
M  V30 3540 C 328.149 -3.4267 5.31752 0
M  V30 3541 C 326.813 -3.4401 5.72026 0
M  V30 3542 H 326.083 -0.656111 0.344382 0
M  V30 3543 H 328.73 -1.25325 1.44796 0
M  V30 3544 H 327.035 -3.80723 0.925063 0
M  V30 3545 H 328.732 -3.78793 1.31593 0
M  V30 3546 H 325.322 -3.34516 2.6795 0
M  V30 3547 H 329.506 -3.35176 3.6602 0
M  V30 3548 H 324.762 -3.41398 5.07206 0
M  V30 3549 H 328.936 -3.43268 6.05921 0
M  V30 3550 H 326.563 -3.45937 6.76928 0
M  V30 3551 N 328.138 -0.959301 -1.25041 0
M  V30 3552 C 329.368 -0.63303 -1.96663 0
M  V30 3553 C 329.776 0.800031 -1.71453 0
M  V30 3554 O 329.119 1.54736 -0.99008 0
M  V30 3555 C 329.181 -0.817523 -3.50081 0
M  V30 3556 C 328.845 -2.22863 -3.98975 0
M  V30 3557 C 329.842 -3.20569 -4.09306 0
M  V30 3558 C 327.527 -2.55407 -4.32519 0
M  V30 3559 C 329.521 -4.4891 -4.52503 0
M  V30 3560 C 327.208 -3.83976 -4.754 0
M  V30 3561 C 328.206 -4.8054 -4.85356 0
M  V30 3562 O 327.894 -6.06817 -5.27284 0
M  V30 3563 H 327.626 -0.235866 -0.633516 0
M  V30 3564 H 330.18 -1.2874 -1.60047 0
M  V30 3565 H 328.41 -0.105992 -3.86555 0
M  V30 3566 H 330.099 -0.491604 -4.02912 0
M  V30 3567 H 330.865 -2.96753 -3.83618 0
M  V30 3568 H 326.744 -1.8097 -4.23994 0
M  V30 3569 H 330.288 -5.24283 -4.60188 0
M  V30 3570 H 326.185 -4.07596 -5.00535 0
M  V30 3571 H 326.953 -6.10262 -5.45457 0
M  V30 3572 N 329.616 1.39756 -0.72842 0
M  V30 3573 C 330.546 2.33289 -0.0991354 0
M  V30 3574 C 331.527 1.53568 0.731489 0
M  V30 3575 O 332.712 1.81987 0.677807 0
M  V30 3576 C 329.842 3.3763 0.813834 0
M  V30 3577 C 328.796 4.2791 0.0878663 0
M  V30 3578 C 328.122 5.22894 1.11741 0
M  V30 3579 C 329.422 5.11314 -1.06563 0
M  V30 3580 H 331.116 2.86163 -0.880408 0
M  V30 3581 H 328.662 1.37591 -0.424819 0
M  V30 3582 H 330.615 4.0201 1.26355 0
M  V30 3583 H 329.339 2.83181 1.62715 0
M  V30 3584 H 327.998 3.65 -0.342159 0
M  V30 3585 H 327.646 4.64744 1.92412 0
M  V30 3586 H 327.346 5.84143 0.636477 0
M  V30 3587 H 328.87 5.90151 1.56697 0
M  V30 3588 H 330.284 5.69076 -0.694671 0
M  V30 3589 H 328.681 5.81671 -1.47577 0
M  V30 3590 H 329.751 4.46534 -1.89038 0
M  V30 3591 N 331.094 0.475555 1.50254 0
M  V30 3592 C 332.34 -0.0780073 2.0265 0
M  V30 3593 C 332.673 -1.38968 1.35652 0
M  V30 3594 O 331.948 -1.8839 0.483691 0
M  V30 3595 C 332.231 -0.257161 3.59181 0
M  V30 3596 C 332.084 1.07585 4.36744 0
M  V30 3597 C 333.403 -1.00965 4.28362 0
M  V30 3598 H 330.522 -0.0268758 0.73651 0
M  V30 3599 H 333.164 0.622015 1.7953 0
M  V30 3600 H 331.314 -0.853412 3.79011 0
M  V30 3601 H 332.986 1.70902 4.28474 0
M  V30 3602 H 331.229 1.6714 4.00308 0
M  V30 3603 H 331.9 0.904088 5.44546 0
M  V30 3604 H 334.376 -0.504214 4.13034 0
M  V30 3605 H 333.252 -1.10381 5.37687 0
M  V30 3606 H 333.513 -2.04731 3.91839 0
M  V30 3607 N 332.573 -1.56217 0.208337 0
M  V30 3608 C 333.85 -1.89739 -0.475234 0
M  V30 3609 C 334.23 -1.1238 -1.78701 0
M  V30 3610 O 333.578 -0.228979 -2.2735 0
M  V30 3611 C 333.788 -3.42289 -0.681101 0
M  V30 3612 C 335.136 -4.12789 -0.994507 0
M  V30 3613 O 336.16 -3.47814 -0.768357 0
M  V30 3614 O 335.019 -5.27649 -1.42299 0
M  V30 3615 H 332.113 -0.788478 -0.249461 0
M  V30 3616 H 334.659 -1.67855 0.249538 0
M  V30 3617 H 333.431 -3.90534 0.244722 0
M  V30 3618 H 333.054 -3.69909 -1.45785 0
M  V30 3619 N 334.051 0.0651679 -1.57465 0
M  V30 3620 C 335.001 1.0838 -2.00594 0
M  V30 3621 C 335.985 1.34106 -0.889071 0
M  V30 3622 O 337.177 1.34295 -1.15299 0
M  V30 3623 C 334.306 2.39565 -2.45894 0
M  V30 3624 C 333.392 2.17085 -3.64328 0
M  V30 3625 N 333.783 1.64553 -4.78285 0
M  V30 3626 C 332.081 2.4753 -3.71006 0
M  V30 3627 C 332.782 1.57042 -5.60101 0
M  V30 3628 N 331.758 2.03328 -5.04141 0
M  V30 3629 H 335.56 0.671062 -2.86136 0
M  V30 3630 H 333.074 0.27213 -1.60104 0
M  V30 3631 H 335.071 3.13308 -2.75034 0
M  V30 3632 H 333.731 2.81549 -1.61741 0
M  V30 3633 H 334.742 1.33323 -5.00445 0
M  V30 3634 H 331.419 2.92835 -2.9758 0
M  V30 3635 H 332.809 1.17223 -6.61595 0
M  V30 3636 N 335.529 1.53961 0.336706 0
M  V30 3637 C 336.775 1.7273 1.07406 0
M  V30 3638 C 337.13 0.488095 1.86106 0
M  V30 3639 O 336.423 -0.519379 1.84426 0
M  V30 3640 C 336.617 2.93493 2.03953 0
M  V30 3641 C 336.446 4.29039 1.34744 0
M  V30 3642 C 335.216 4.93416 1.08942 0
M  V30 3643 C 337.414 5.08501 0.770115 0
M  V30 3644 N 335.396 6.12821 0.363864 0
M  V30 3645 C 336.767 6.19752 0.175472 0
M  V30 3646 C 338.822 4.93349 0.671633 0
M  V30 3647 C 337.525 7.17503 -0.508081 0
M  V30 3648 C 339.551 5.914 0.0018076 0
M  V30 3649 C 338.913 7.01993 -0.581835 0
M  V30 3650 H 335.012 0.685026 0.377177 0
M  V30 3651 H 337.596 1.91403 0.356815 0
M  V30 3652 H 335.767 2.76308 2.72962 0
M  V30 3653 H 337.499 3.00949 2.70577 0
M  V30 3654 H 334.254 4.53099 1.37833 0
M  V30 3655 H 334.678 6.76998 0.0156092 0
M  V30 3656 H 339.32 4.08007 1.1086 0
M  V30 3657 H 337.038 8.02414 -0.956918 0
M  V30 3658 H 340.624 5.81753 -0.0738538 0
M  V30 3659 H 339.504 7.76561 -1.09192 0
M  V30 3660 N 337.007 -0.598083 1.45811 0
M  V30 3661 C 338.253 -1.35679 1.51535 0
M  V30 3662 C 338.608 -1.91745 0.15864 0
M  V30 3663 O 337.901 -1.72654 -0.830724 0
M  V30 3664 C 338.095 -2.51669 2.53766 0
M  V30 3665 C 337.924 -2.06963 3.99245 0
M  V30 3666 C 336.694 -1.92693 4.67116 0
M  V30 3667 C 338.892 -1.63855 4.875 0
M  V30 3668 N 336.874 -1.41897 5.97276 0
M  V30 3669 C 338.245 -1.24541 6.07363 0
M  V30 3670 C 340.3 -1.51533 4.74281 0
M  V30 3671 C 339.003 -0.741354 7.15469 0
M  V30 3672 C 341.029 -1.0253 5.82444 0
M  V30 3673 C 340.391 -0.641869 7.01469 0
M  V30 3674 H 336.49 -0.490042 0.609412 0
M  V30 3675 H 339.074 -0.682687 1.82339 0
M  V30 3676 H 337.245 -3.16663 2.24898 0
M  V30 3677 H 338.977 -3.18578 2.4958 0
M  V30 3678 H 335.732 -2.1417 4.22408 0
M  V30 3679 H 336.156 -1.18704 6.66512 0
M  V30 3680 H 340.798 -1.798 3.82664 0
M  V30 3681 H 338.516 -0.446243 8.06867 0
M  V30 3682 H 342.102 -0.934088 5.74253 0
M  V30 3683 H 340.982 -0.268531 7.8374 0
M  V30 3684 N 338.485 -1.33259 -0.841409 0
M  V30 3685 C 339.432 -1.23302 -1.95103 0
M  V30 3686 C 340.402 -0.112204 -1.65721 0
M  V30 3687 O 341.587 -0.290038 -1.88583 0
M  V30 3688 C 338.727 -0.975583 -3.31023 0
M  V30 3689 C 337.84 -2.18243 -3.72819 0
M  V30 3690 C 336.975 -1.85936 -4.97595 0
M  V30 3691 C 336.014 -3.02866 -5.3192 0
M  V30 3692 N 335.151 -2.70565 -6.47873 0
M  V30 3693 H 339.991 -2.18207 -2.02952 0
M  V30 3694 H 337.528 -1.0851 -0.993173 0
M  V30 3695 H 339.486 -0.80677 -4.09325 0
M  V30 3696 H 338.116 -0.0632755 -3.22738 0
M  V30 3697 H 337.168 -2.46107 -2.90061 0
M  V30 3698 H 338.48 -3.05666 -3.94169 0
M  V30 3699 H 337.634 -1.65684 -5.83638 0
M  V30 3700 H 336.373 -0.957452 -4.78209 0
M  V30 3701 H 335.378 -3.23736 -4.44382 0
M  V30 3702 H 336.603 -3.93809 -5.53255 0
M  V30 3703 H 334.549 -1.8293 -6.29978 0
M  V30 3704 H 334.466 -3.51519 -6.69306 0
M  V30 3705 H 335.734 -2.53774 -7.37034 0
M  V30 3706 N 339.963 1.05934 -1.16686 0
M  V30 3707 C 341.191 1.8249 -0.974929 0
M  V30 3708 C 341.606 1.82679 0.476861 0
M  V30 3709 O 340.963 1.2486 1.33103 0
M  V30 3710 C 341.014 3.28943 -1.49929 0
M  V30 3711 O 340.735 3.28886 -2.89423 0
M  V30 3712 C 342.236 4.22215 -1.35089 0
M  V30 3713 H 339.456 0.575295 -0.345365 0
M  V30 3714 H 342 1.33631 -1.548 0
M  V30 3715 H 340.155 3.751 -0.968423 0
M  V30 3716 H 340.569 4.20493 -3.13506 0
M  V30 3717 H 342.043 5.22987 -1.76603 0
M  V30 3718 H 342.52 4.38195 -0.296935 0
M  V30 3719 H 343.126 3.81907 -1.87155 0
M  V30 3720 N 341.441 0.965919 1.2453 0
M  V30 3721 C 342.689 0.625593 1.92174 0
M  V30 3722 C 343.01 -0.841652 1.75901 0
M  V30 3723 O 342.28 -1.60061 1.12948 0
M  V30 3724 H 340.86 0.228388 0.71123 0
M  V30 3725 H 343.522 1.2266 1.51461 0
M  V30 3726 H 342.618 0.864653 2.99884 0
M  V30 3727 N 342.919 -1.39368 0.735821 0
M  V30 3728 C 343.829 -2.34395 0.0979693 0
M  V30 3729 C 344.845 -1.58361 -0.720968 0
M  V30 3730 O 346.021 -1.90648 -0.649245 0
M  V30 3731 C 343.086 -3.37393 -0.797916 0
M  V30 3732 C 342.147 -4.29287 0.0333662 0
M  V30 3733 C 341.38 -5.27365 -0.819854 0
M  V30 3734 O 341.603 -5.31959 -2.05855 0
M  V30 3735 O 340.537 -6.01389 -0.248079 0
M  V30 3736 H 344.363 -2.90601 0.882315 0
M  V30 3737 H 341.948 -1.40909 0.4965 0
M  V30 3738 H 343.83 -4.00505 -1.31048 0
M  V30 3739 H 342.505 -2.83571 -1.56106 0
M  V30 3740 H 341.412 -3.69395 0.591475 0
M  V30 3741 H 342.745 -4.86317 0.758752 0
M  V30 3742 N 344.397 -0.483516 -1.5 0
M  V30 3743 C 345.625 0.0644831 -2.06799 0
M  V30 3744 C 346.04 1.32399 -1.34596 0
M  V30 3745 O 345.397 1.77626 -0.418946 0
M  V30 3746 C 345.448 0.339927 -3.59898 0
M  V30 3747 O 345.169 -0.869635 -4.29382 0
M  V30 3748 C 346.67 0.933515 -4.33359 0
M  V30 3749 H 343.89 -0.0126333 -0.670881 0
M  V30 3750 H 346.434 -0.675864 -1.93009 0
M  V30 3751 H 344.589 1.03022 -3.7345 0
M  V30 3752 H 345.003 -0.62179 -5.20801 0
M  V30 3753 H 346.477 1.07593 -5.41413 0
M  V30 3754 H 346.954 1.92685 -3.94676 0
M  V30 3755 H 347.56 0.281221 -4.24369 0
M  V30 3756 N 345.875 1.56104 -0.216619 0
M  V30 3757 C 346.825 2.16703 0.708798 0
M  V30 3758 C 347.809 1.11392 1.16106 0
M  V30 3759 O 349.001 1.37395 1.11587 0
M  V30 3760 C 346.13 2.84666 1.91886 0
M  V30 3761 C 345.216 3.97195 1.48651 0
M  V30 3762 N 345.607 4.99959 0.766434 0
M  V30 3763 C 343.905 4.09193 1.77418 0
M  V30 3764 C 344.606 5.79126 0.546659 0
M  V30 3765 N 343.582 5.32315 1.10188 0
M  V30 3766 H 347.384 2.93516 0.150162 0
M  V30 3767 H 344.898 1.6239 -0.0176768 0
M  V30 3768 H 346.895 3.26486 2.59253 0
M  V30 3769 H 345.555 2.09347 2.48202 0
M  V30 3770 H 346.566 5.16197 0.419634 0
M  V30 3771 H 343.243 3.45021 2.35088 0
M  V30 3772 H 344.633 6.71895 -0.026103 0
M  V30 3773 N 347.353 -0.0568162 1.57498 0
M  V30 3774 C 348.602 -0.752001 1.87157 0
M  V30 3775 C 348.915 -1.77978 0.811375 0
M  V30 3776 O 350.121 -2.52559 0.996293 0
M  V30 3777 C 348.577 -1.38844 3.3204 0
M  V30 3778 C 348.185 -0.398456 4.46225 0
M  V30 3779 C 349.929 -2.06512 3.70882 0
M  V30 3780 C 347.836 -1.04166 5.82154 0
M  V30 3781 H 346.766 -0.28461 0.698222 0
M  V30 3782 H 349.417 -0.00561272 1.83499 0
M  V30 3783 H 347.799 -2.1836 3.30356 0
M  V30 3784 H 348.973 0.367977 4.59328 0
M  V30 3785 H 347.288 0.174592 4.16034 0
M  V30 3786 H 349.885 -2.55437 4.6974 0
M  V30 3787 H 350.228 -2.87117 3.01445 0
M  V30 3788 H 350.761 -1.33808 3.7462 0
M  V30 3789 H 347.5 -0.275614 6.5492 0
M  V30 3790 H 347.02 -1.7786 5.72823 0
M  V30 3791 H 348.699 -1.55715 6.27982 0
M  V30 3792 N 348.832 -1.54138 -0.328536 0
M  V30 3793 C 350.057 -1.76378 -1.09112 0
M  V30 3794 C 350.482 -0.508596 -1.81094 0
M  V30 3795 O 349.84 0.539598 -1.73084 0
M  V30 3796 C 349.888 -2.95358 -2.06872 0
M  V30 3797 O 348.992 -2.66556 -3.14677 0
M  V30 3798 H 348.333 -0.584614 -0.314838 0
M  V30 3799 H 350.863 -2.01146 -0.374348 0
M  V30 3800 H 350.873 -3.22566 -2.4983 0
M  V30 3801 H 349.548 -3.86385 -1.5388 0
M  V30 3802 H 348.125 -2.50282 -2.7643 0
M  V30 3803 N 350.31 0.590341 -1.46126 0
M  V30 3804 C 351.257 1.69994 -1.56111 0
M  V30 3805 C 352.227 1.61065 -0.405867 0
M  V30 3806 O 353.412 1.8039 -0.621613 0
M  V30 3807 C 350.552 3.08326 -1.55013 0
M  V30 3808 C 349.665 3.27936 -2.81215 0
M  V30 3809 C 348.8 4.56473 -2.71673 0
M  V30 3810 C 347.839 4.694 -3.92849 0
M  V30 3811 N 346.976 5.89254 -3.81738 0
M  V30 3812 H 351.816 1.60797 -2.50895 0
M  V30 3813 H 349.353 0.783799 -1.24479 0
M  V30 3814 H 351.311 3.88383 -1.52362 0
M  V30 3815 H 349.941 3.16439 -0.637667 0
M  V30 3816 H 348.993 2.41536 -2.93879 0
M  V30 3817 H 350.305 3.33357 -3.71045 0
M  V30 3818 H 349.459 5.44748 -2.67085 0
M  V30 3819 H 348.198 4.53477 -1.7947 0
M  V30 3820 H 347.203 3.79544 -3.97777 0
M  V30 3821 H 348.428 4.7418 -4.86138 0
M  V30 3822 H 346.374 5.87271 -2.92317 0
M  V30 3823 H 346.291 5.95911 -4.65217 0
M  V30 3824 H 347.559 6.79981 -3.81112 0
M  V30 3825 N 351.788 1.33704 0.83433 0
M  V30 3826 C 352.735 1.24335 1.94447 0
M  V30 3827 C 353.705 0.120991 1.65659 0
M  V30 3828 O 354.89 0.300035 1.88426 0
M  V30 3829 C 352.03 0.993124 3.30501 0
M  V30 3830 C 351.143 2.20217 3.71657 0
M  V30 3831 C 350.278 1.88572 4.96602 0
M  V30 3832 C 349.317 3.05683 5.30306 0
M  V30 3833 N 348.454 2.73997 6.46429 0
M  V30 3834 H 353.294 2.1928 2.01792 0
M  V30 3835 H 350.831 1.09035 0.987404 0
M  V30 3836 H 352.789 0.828467 4.08892 0
M  V30 3837 H 351.419 0.0803902 3.227 0
M  V30 3838 H 350.471 2.47642 2.88752 0
M  V30 3839 H 351.783 3.07752 3.92543 0
M  V30 3840 H 350.937 1.68776 5.82752 0
M  V30 3841 H 349.676 0.982799 4.77695 0
M  V30 3842 H 348.681 3.26088 4.42659 0
M  V30 3843 H 349.906 3.96737 5.51159 0
M  V30 3844 H 347.852 1.86268 6.28999 0
M  V30 3845 H 347.769 3.55064 6.67432 0
M  V30 3846 H 349.037 2.57679 7.35678 0
M  V30 3847 N 353.266 -1.05314 1.17247 0
M  V30 3848 C 354.543 -1.75184 0.87005 0
M  V30 3849 C 354.923 -2.01481 -0.629965 0
M  V30 3850 O 354.271 -1.64988 -1.58086 0
M  V30 3851 C 354.481 -3.04594 1.70363 0
M  V30 3852 C 355.829 -3.78567 1.92281 0
M  V30 3853 O 356.853 -3.14461 1.67311 0
M  V30 3854 O 355.712 -4.93755 2.3424 0
M  V30 3855 H 352.806 -0.761729 0.322021 0
M  V30 3856 H 355.352 -1.11493 1.27935 0
M  V30 3857 H 354.124 -2.81201 2.72106 0
M  V30 3858 H 353.747 -3.76022 1.29202 0
M  V30 3859 N 354.744 -0.972509 -1.24016 0
M  V30 3860 C 355.974 -0.653853 -1.9598 0
M  V30 3861 C 356.382 0.781801 -1.72292 0
M  V30 3862 O 355.725 1.53677 -1.00644 0
M  V30 3863 C 355.787 -0.854608 -3.49194 0
M  V30 3864 C 355.451 -2.27082 -3.96589 0
M  V30 3865 C 356.448 -3.24892 -4.05883 0
M  V30 3866 C 354.133 -2.5998 -4.29786 0
M  V30 3867 C 356.127 -4.53684 -4.47716 0
M  V30 3868 C 353.814 -3.88997 -4.71301 0
M  V30 3869 C 354.812 -4.85661 -4.80232 0
M  V30 3870 O 354.5 -6.12376 -5.20818 0
M  V30 3871 H 354.232 -0.242572 -0.630979 0
M  V30 3872 H 356.786 -1.30431 -1.58673 0
M  V30 3873 H 355.016 -0.146985 -3.86421 0
M  V30 3874 H 356.705 -0.534311 -4.02368 0
M  V30 3875 H 357.471 -3.00805 -3.80449 0
M  V30 3876 H 353.35 -1.85457 -4.22051 0
M  V30 3877 H 356.894 -5.29135 -4.54601 0
M  V30 3878 H 352.791 -4.12882 -4.96184 0
M  V30 3879 H 353.559 -6.16013 -5.38953 0
M  V30 3880 N 356.222 1.38976 -0.743202 0
M  V30 3881 C 357.468 2.0064 -0.295189 0
M  V30 3882 C 357.801 1.5885 1.11716 0
M  V30 3883 O 357.076 0.821181 1.76315 0
M  V30 3884 C 357.359 3.578 -0.406318 0
M  V30 3885 C 357.212 4.09586 -1.85903 0
M  V30 3886 C 358.531 4.39616 0.206439 0
M  V30 3887 H 355.65 0.728935 -0.108733 0
M  V30 3888 H 358.292 1.65067 -0.940897 0
M  V30 3889 H 356.442 3.88235 0.143419 0
M  V30 3890 H 358.114 3.89837 -2.46627 0
M  V30 3891 H 356.357 3.6284 -2.3776 0
M  V30 3892 H 357.028 5.18708 -1.888 0
M  V30 3893 H 359.504 4.15273 -0.262283 0
M  V30 3894 H 358.38 5.48812 0.0983819 0
M  V30 3895 H 358.641 4.22754 1.2935 0
M  V30 3896 N 357.7 0.491464 1.49741 0
M  V30 3897 C 358.948 -0.0563141 2.02022 0
M  V30 3898 C 359.269 -1.38363 1.37407 0
M  V30 3899 O 358.539 -1.88702 0.526166 0
M  V30 3900 H 357.119 -0.0238014 0.746621 0
M  V30 3901 H 359.781 0.646533 1.83864 0
M  V30 3902 H 358.877 -0.192967 3.11503 0
M  V30 3903 N 359.178 -1.55987 0.224894 0
M  V30 3904 C 360.125 -2.20436 -0.68385 0
M  V30 3905 C 361.095 -1.16102 -1.18783 0
M  V30 3906 O 362.28 -1.4447 -1.24632 0
M  V30 3907 C 359.42 -2.89076 -1.88491 0
M  V30 3908 C 358.533 -4.08012 -1.41951 0
M  V30 3909 C 357.668 -4.64426 -2.5784 0
M  V30 3910 C 356.707 -5.75656 -2.08053 0
M  V30 3911 N 355.844 -6.26347 -3.17227 0
M  V30 3912 H 360.684 -2.97727 -0.12754 0
M  V30 3913 H 358.221 -1.47011 -0.0511978 0
M  V30 3914 H 360.179 -3.27059 -2.59014 0
M  V30 3915 H 358.809 -2.14298 -2.41405 0
M  V30 3916 H 357.861 -3.75492 -0.609095 0
M  V30 3917 H 359.173 -4.88375 -1.01447 0
M  V30 3918 H 358.327 -5.04869 -3.3644 0
M  V30 3919 H 357.066 -3.83233 -3.01635 0
M  V30 3920 H 356.071 -5.34712 -1.27916 0
M  V30 3921 H 357.296 -6.58686 -1.65255 0
M  V30 3922 H 355.242 -5.48067 -3.60497 0
M  V30 3923 H 355.159 -7.01843 -2.80986 0
M  V30 3924 H 356.427 -6.71447 -3.95953 0
M  V30 3925 N 360.656 0.0484629 -1.57525 0
M  V30 3926 C 361.886 0.754326 -1.92337 0
M  V30 3927 C 362.294 1.70443 -0.82132 0
M  V30 3928 O 361.637 1.82466 0.21254 0
M  V30 3929 C 361.699 1.58231 -3.22805 0
M  V30 3930 C 361.363 0.799074 -4.4996 0
M  V30 3931 C 362.36 0.1079 -5.19788 0
M  V30 3932 C 360.045 0.759345 -4.96527 0
M  V30 3933 C 362.039 -0.612516 -6.3445 0
M  V30 3934 C 359.726 0.0351713 -6.1109 0
M  V30 3935 C 360.724 -0.649537 -6.79904 0
M  V30 3936 O 360.412 -1.36199 -7.92278 0
M  V30 3937 H 360.144 0.218257 -0.639797 0
M  V30 3938 H 362.698 0.0159295 -2.05394 0
M  V30 3939 H 360.928 2.36406 -3.06021 0
M  V30 3940 H 362.617 2.16898 -3.43089 0
M  V30 3941 H 363.383 0.129748 -4.84826 0
M  V30 3942 H 359.262 1.28177 -4.42822 0
M  V30 3943 H 362.806 -1.14751 -6.88097 0
M  V30 3944 H 358.703 0.0113314 -6.45499 0
M  V30 3945 H 359.471 -1.27366 -8.0853 0
M  V30 3946 N 362.134 1.5431 0.320358 0
M  V30 3947 C 363.097 1.83195 1.3774 0
M  V30 3948 C 364.097 0.703906 1.44575 0
M  V30 3949 O 365.287 0.972214 1.44546 0
M  V30 3950 C 362.419 1.99487 2.76438 0
M  V30 3951 H 363.612 2.77642 1.1338 0
M  V30 3952 H 361.165 1.46076 0.556012 0
M  V30 3953 H 361.9 1.07262 3.06048 0
M  V30 3954 H 361.685 2.81575 2.7287 0
M  V30 3955 H 363.175 2.23271 3.52902 0
M  V30 3956 O 363.651 -0.466303 1.54622 0
M  V30 3957 H 364.342 -1.12058 1.57996 0
M  V30 END ATOM
M  V30 BEGIN BOND
M  V30 END BOND
M  V30 END CTAB
M  END
$$$$
