drugbank_target|P08870 Orotate phosphoribosyltransferase (DB01632; DB02262)
 OpenBabel12092119553D

  0  0  0     0  0            999 V3000
M  V30 BEGIN CTAB
M  V30 COUNTS 3325 3355 0 0 0
M  V30 BEGIN ATOM
M  V30 1 H -0.908 1.98254 -0.117106 0
M  V30 2 N 0 1.576 0 0
M  V30 3 C 0.933 2.03868 1.02534 0
M  V30 4 C 1.911 0.928543 1.3348 0
M  V30 5 O 3.095 1.19667 1.45644 0
M  V30 6 C 0.222 2.43627 2.35294 0
M  V30 7 C -0.732 3.65373 2.2001 0
M  V30 8 S 0.101 5.13292 1.52614 0
M  V30 9 C 1.257 5.56322 2.86805 0
M  V30 10 H 1.49 2.90518 0.631377 0
M  V30 11 H -0.977 1.52953 0.210867 0
M  V30 12 H 0.981 2.67203 3.11629 0
M  V30 13 H -0.358 1.57376 2.7183 0
M  V30 14 H -1.165 3.90944 3.18086 0
M  V30 15 H -1.563 3.418 1.51819 0
M  V30 16 H 0.729 5.58782 3.83104 0
M  V30 17 H 1.672 6.56266 2.65933 0
M  V30 18 H 2.08 4.83886 2.90714 0
M  V30 19 N 1.4781 -0.272755 1.55222 0
M  V30 20 C 2.4251 -1.33716 1.88119 0
M  V30 21 C 3.3951 -1.49066 0.73271 0
M  V30 22 O 4.5801 -1.63469 0.984002 0
M  V30 23 C 1.7201 -2.69238 2.15882 0
M  V30 24 C 0.8331 -2.62108 3.43399 0
M  V30 25 C -0.0319 -3.89811 3.60861 0
M  V30 26 C -0.9929 -3.77193 4.8207 0
M  V30 27 N -1.8559 -4.9673 4.96189 0
M  V30 28 H 2.9841 -1.04962 2.78903 0
M  V30 29 H 0.5211 -0.507088 1.38083 0
M  V30 30 H 2.4791 -3.48089 2.29978 0
M  V30 31 H 1.1091 -2.96194 1.28331 0
M  V30 32 H 0.1611 -1.74967 3.37773 0
M  V30 33 H 1.4731 -2.48685 4.32386 0
M  V30 34 H 0.6271 -4.77103 3.74777 0
M  V30 35 H -0.6339 -4.06102 2.7006 0
M  V30 36 H -1.6289 -2.88284 4.68159 0
M  V30 37 H -0.4039 -3.62421 5.74307 0
M  V30 38 H -2.4579 -5.13431 4.08319 0
M  V30 39 H -2.5409 -4.85839 5.79221 0
M  V30 40 H -1.2729 -5.85594 5.1449 0
M  V30 41 N 2.9562 -1.48159 -0.537278 0
M  V30 42 C 4.3672 -1.49429 -1.11928 0
M  V30 43 C 4.7182 -0.26 -1.9447 0
M  V30 44 O 3.8432 0.633489 -2.0692 0
M  V30 45 C 4.4382 -2.70758 -2.03656 0
M  V30 46 C 2.9972 -2.74923 -2.57088 0
M  V30 47 C 2.1442 -2.42835 -1.3389 0
M  V30 48 H 5.0952 -1.55381 -0.322886 0
M  V30 49 H 5.1162 -2.48861 -2.87834 0
M  V30 50 H 4.6282 -3.60575 -1.43553 0
M  V30 51 H 2.7292 -1.89296 -3.20933 0
M  V30 52 H 2.8422 -3.76157 -2.9672 0
M  V30 53 H 1.2062 -1.93836 -1.65226 0
M  V30 54 H 1.9892 -3.34884 -0.755504 0
M  V30 55 N 4.4343 0.785586 -1.36625 0
M  V30 56 C 5.6643 1.5722 -1.34036 0
M  V30 57 C 6.0723 1.89033 0.0795062 0
M  V30 58 O 5.4153 1.50881 1.04789 0
M  V30 59 C 5.4773 2.91759 -2.10041 0
M  V30 60 C 5.1413 2.82654 -3.59104 0
M  V30 61 C 6.1383 2.54634 -4.53274 0
M  V30 62 C 3.8233 3.01111 -4.02042 0
M  V30 63 C 5.8173 2.45177 -5.88359 0
M  V30 64 C 3.5043 2.91276 -5.37216 0
M  V30 65 C 4.5023 2.63348 -6.30188 0
M  V30 66 O 4.1903 2.53514 -7.6288 0
M  V30 67 H 3.9223 0.494177 -0.461265 0
M  V30 68 H 6.4763 0.982632 -1.8037 0
M  V30 69 H 4.7063 3.52781 -1.58375 0
M  V30 70 H 6.3953 3.53059 -2.00261 0
M  V30 71 H 7.1613 2.40073 -4.21414 0
M  V30 72 H 3.0403 3.21854 -3.30047 0
M  V30 73 H 6.5843 2.23299 -6.60896 0
M  V30 74 H 2.4813 3.054 -5.68684 0
M  V30 75 H 3.2493 2.68967 -7.73045 0
M  V30 76 N 5.9124 1.20967 1.01018 0
M  V30 77 C 6.8444 0.922059 2.09835 0
M  V30 78 C 7.8574 -0.0927106 1.62536 0
M  V30 79 O 9.0464 0.139127 1.77957 0
M  V30 80 C 6.1464 0.362004 3.36961 0
M  V30 81 C 5.3194 1.42986 4.13369 0
M  V30 82 C 4.3784 0.879976 5.1879 0
M  V30 83 O 3.4044 1.56219 5.47343 0
M  V30 84 N 4.6064 -0.307396 5.79686 0
M  V30 85 H 7.3714 1.8588 2.35093 0
M  V30 86 H 4.9324 1.11422 1.1746 0
M  V30 87 H 6.9244 -0.0201474 4.04695 0
M  V30 88 H 5.4944 -0.479437 3.08902 0
M  V30 89 H 4.7144 1.98608 3.40512 0
M  V30 90 H 6.0024 2.14885 4.61196 0
M  V30 91 H 5.4004 -0.878796 5.58832 0
M  V30 92 H 3.9574 -0.631115 6.48737 0
M  V30 93 N 7.3905 -1.2043 1.01659 0
M  V30 94 C 8.8065 -1.41852 0.731442 0
M  V30 95 C 9.0065 -1.89358 -0.688898 0
M  V30 96 O 8.0625 -2.06247 -1.45666 0
M  V30 97 C 9.3755 -2.44019 1.75714 0
M  V30 98 C 10.9235 -2.57785 1.77527 0
M  V30 99 C 11.3985 -3.63194 2.79023 0
M  V30 100 N 12.8895 -3.70678 2.77763 0
M  V30 101 C 13.6245 -4.51897 3.52954 0
M  V30 102 N 13.1205 -5.36921 4.37821 0
M  V30 103 N 14.9135 -4.4643 3.41551 0
M  V30 104 H 7.0645 -0.879093 1.93354 0
M  V30 105 H 9.3275 -0.448425 0.835236 0
M  V30 106 H 9.0335 -2.1611 2.77469 0
M  V30 107 H 8.9075 -3.43007 1.56927 0
M  V30 108 H 11.2945 -2.85023 0.764569 0
M  V30 109 H 11.3755 -1.58992 2.00387 0
M  V30 110 H 11.0195 -3.36699 3.80258 0
M  V30 111 H 10.9495 -4.61609 2.53425 0
M  V30 112 H 13.4405 -3.09944 2.16201 0
M  V30 113 H 13.7535 -5.95981 4.91962 0
M  V30 114 H 12.0985 -5.36424 4.41899 0
M  V30 115 H 15.2895 -3.79042 2.74672 0
M  V30 116 H 15.4625 -5.09491 4.00404 0
M  V30 117 N 8.8686 -0.792821 -1.36206 0
M  V30 118 C 9.8006 -0.151469 -2.28699 0
M  V30 119 C 10.8136 0.641262 -1.49638 0
M  V30 120 O 12.0026 0.475885 -1.72039 0
M  V30 121 C 9.1026 0.808424 -3.29117 0
M  V30 122 C 8.2756 0.0650202 -4.37352 0
M  V30 123 C 7.3346 0.941358 -5.17711 0
M  V30 124 O 6.3606 0.397352 -5.67811 0
M  V30 125 N 7.5626 2.2652 -5.3448 0
M  V30 126 H 10.3276 -0.945982 -2.84379 0
M  V30 127 H 7.8886 -0.647032 -1.48409 0
M  V30 128 H 9.8806 1.3986 -3.79765 0
M  V30 129 H 8.4506 1.5038 -2.74052 0
M  V30 130 H 7.6706 -0.706255 -3.87822 0
M  V30 131 H 8.9586 -0.447847 -5.06825 0
M  V30 132 H 8.3566 2.73128 -4.95396 0
M  V30 133 H 6.9136 2.80493 -5.88359 0
M  V30 134 N 10.3467 1.47872 -0.545128 0
M  V30 135 C 11.5937 2.02493 -0.0165858 0
M  V30 136 C 11.9217 1.42073 1.32836 0
M  V30 137 O 11.1767 0.561459 1.87473 0
M  V30 138 C 11.4757 3.57131 0.13867 0
M  V30 139 C 11.1417 4.36411 -1.13384 0
M  V30 140 C 9.8037 4.57792 -1.48256 0
M  V30 141 C 12.1557 4.82223 -1.97764 0
M  V30 142 C 9.4837 5.22233 -2.67376 0
M  V30 143 C 11.8357 5.47977 -3.16076 0
M  V30 144 C 10.4997 5.67593 -3.51275 0
M  V30 145 H 9.7697 0.740975 -0.00606918 0
M  V30 146 H 12.4167 1.77683 -0.714207 0
M  V30 147 H 10.7217 3.80865 0.919172 0
M  V30 148 H 12.4187 3.97031 0.562782 0
M  V30 149 H 9.0087 4.2004 -0.852297 0
M  V30 150 H 13.1927 4.65493 -1.72132 0
M  V30 151 H 8.4487 5.35616 -2.94831 0
M  V30 152 H 12.6227 5.8244 -3.81755 0
M  V30 153 H 10.2497 6.17298 -4.43675 0
M  V30 154 N 11.8248 0.280983 1.55075 0
M  V30 155 C 13.0738 -0.334784 1.98902 0
M  V30 156 C 13.3868 -1.56534 1.17288 0
M  V30 157 O 14.5928 -2.25443 1.51287 0
M  V30 158 C 13.0488 -0.646994 3.54037 0
M  V30 159 C 12.6568 0.564085 4.44435 0
M  V30 160 C 14.4008 -1.22506 4.06439 0
M  V30 161 C 12.3078 0.226137 5.90967 0
M  V30 162 H 11.2378 -0.128866 0.742906 0
M  V30 163 H 13.8888 0.386556 1.79382 0
M  V30 164 H 12.2708 -1.42739 3.6938 0
M  V30 165 H 13.4448 1.34082 4.40861 0
M  V30 166 H 11.7598 1.0594 4.02698 0
M  V30 167 H 14.3568 -1.49182 5.13468 0
M  V30 168 H 14.6998 -2.16085 3.55827 0
M  V30 169 H 15.2328 -0.50682 3.94558 0
M  V30 170 H 11.9718 1.12996 6.45687 0
M  V30 171 H 11.4918 -0.513717 5.97596 0
M  V30 172 H 13.1708 -0.179539 6.46751 0
M  V30 173 N 13.3029 -1.57598 0.00835791 0
M  V30 174 C 14.2129 -2.12385 -0.996487 0
M  V30 175 C 15.2289 -1.07108 -1.37127 0
M  V30 176 O 16.4049 -1.39055 -1.4569 0
M  V30 177 C 13.4699 -2.62314 -2.26699 0
M  V30 178 C 12.5309 -3.82225 -1.95456 0
M  V30 179 C 11.7639 -4.29763 -3.16449 0
M  V30 180 O 11.9869 -3.76584 -4.28416 0
M  V30 181 O 10.9209 -5.21832 -2.99958 0
M  V30 182 H 14.7469 -2.98479 -0.560725 0
M  V30 183 H 12.3319 -1.47903 -0.210987 0
M  V30 184 H 14.2139 -2.94589 -3.01322 0
M  V30 185 H 12.8889 -1.79313 -2.69497 0
M  V30 186 H 11.7959 -3.54909 -1.18282 0
M  V30 187 H 13.1289 -4.66324 -1.57489 0
M  V30 188 N 14.781 0.264519 -1.55364 0
M  V30 189 C 16.028 0.994986 -1.7637 0
M  V30 190 C 16.356 1.85976 -0.5695 0
M  V30 191 O 15.611 1.90509 0.44776 0
M  V30 192 C 15.91 1.9004 -3.02687 0
M  V30 193 C 15.576 1.19243 -4.34847 0
M  V30 194 C 14.238 0.996709 -4.70764 0
M  V30 195 C 16.59 0.689296 -5.16622 0
M  V30 196 C 13.918 0.285261 -5.86006 0
M  V30 197 C 16.27 -0.00860079 -6.32599 0
M  V30 198 C 14.934 -0.215963 -6.67151 0
M  V30 199 H 14.204 0.364091 -0.645383 0
M  V30 200 H 16.851 0.266543 -1.89636 0
M  V30 201 H 15.156 2.69533 -2.84357 0
M  V30 202 H 16.853 2.46695 -3.16137 0
M  V30 203 H 13.443 1.3549 -4.06621 0
M  V30 204 H 17.627 0.828108 -4.89342 0
M  V30 205 H 12.883 0.113961 -6.11294 0
M  V30 206 H 17.057 -0.406186 -6.95214 0
M  V30 207 H 14.684 -0.769217 -7.56298 0
M  V30 208 N 16.2591 1.48442 0.529413 0
M  V30 209 C 17.2221 1.62524 1.61612 0
M  V30 210 C 18.2221 0.498509 1.52877 0
M  V30 211 O 19.4121 0.76431 1.56537 0
M  V30 212 C 16.5441 1.59597 3.01233 0
M  V30 213 H 17.7371 2.59423 1.50465 0
M  V30 214 H 15.2901 1.37047 0.751514 0
M  V30 215 H 16.0251 0.641781 3.17886 0
M  V30 216 H 15.8101 2.41397 3.08982 0
M  V30 217 H 17.3001 1.72646 3.80241 0
M  V30 218 N 17.7372 -0.778329 1.37039 0
M  V30 219 C 18.6672 -1.90546 1.34962 0
M  V30 220 C 19.6482 -1.68681 0.219274 0
M  V30 221 O 20.8332 -1.89634 0.418624 0
M  V30 222 C 17.9632 -3.27734 1.14925 0
M  V30 223 C 16.9172 -3.64147 2.24902 0
M  V30 224 C 16.2432 -4.99806 1.89996 0
M  V30 225 C 17.5432 -3.71579 3.67051 0
M  V30 226 H 19.2372 -1.92541 2.29277 0
M  V30 227 H 16.7832 -0.924948 1.10366 0
M  V30 228 H 18.7362 -4.06215 1.12104 0
M  V30 229 H 17.4602 -3.26154 0.170631 0
M  V30 230 H 16.1192 -2.8797 2.26868 0
M  V30 231 H 15.7672 -4.94759 0.906796 0
M  V30 232 H 15.4672 -5.25139 2.63634 0
M  V30 233 H 16.9912 -5.80694 1.88749 0
M  V30 234 H 18.4052 -4.40227 3.67251 0
M  V30 235 H 16.8022 -4.08405 4.39688 0
M  V30 236 H 17.8722 -2.72404 4.01154 0
M  V30 237 N 19.2153 -1.21501 -1.00376 0
M  V30 238 C 20.1633 -0.972442 -2.11297 0
M  V30 239 C 21.1573 0.080731 -1.69208 0
M  V30 240 O 22.3633 -0.0707666 -1.79861 0
M  V30 241 H 18.7383 -0.297218 -0.690772 0
M  V30 242 H 20.7093 -1.91394 -2.28934 0
M  V30 243 C 19.4583 -0.555065 -3.43241 0
M  V30 244 H 18.7813 -1.35709 -3.76062 0
M  V30 245 H 20.2213 -0.424664 -4.21868 0
M  V30 246 C 18.6803 0.734147 -3.28804 0
M  V30 247 O 19.2103 1.78937 -3.59645 0
M  V30 248 N 17.4163 0.701133 -2.82015 0
M  V30 249 H 16.9633 -0.157874 -2.57116 0
M  V30 250 H 16.9213 1.56403 -2.72737 0
M  V30 251 N 20.6934 1.19889 -1.02296 0
M  V30 252 C 21.6404 2.22901 -0.598651 0
M  V30 253 C 22.6104 1.61588 0.384521 0
M  V30 254 O 23.7954 1.88697 0.282522 0
M  V30 255 C 20.9354 3.45063 0.0504476 0
M  V30 256 C 20.0484 4.20783 -0.978053 0
M  V30 257 C 19.1834 5.30356 -0.299338 0
M  V30 258 C 18.2224 5.97826 -1.31416 0
M  V30 259 N 17.3594 6.98975 -0.661667 0
M  V30 260 H 22.1994 2.58554 -1.48169 0
M  V30 261 H 19.7364 1.27039 -0.741584 0
M  V30 262 H 21.6944 4.14831 0.443971 0
M  V30 263 H 20.3244 3.10084 0.897097 0
M  V30 264 H 19.3764 3.50018 -1.48969 0
M  V30 265 H 20.6884 4.67109 -1.74958 0
M  V30 266 H 19.8424 6.06516 0.149347 0
M  V30 267 H 18.5814 4.85084 0.504445 0
M  V30 268 H 17.5864 5.20422 -1.77317 0
M  V30 269 H 18.8114 6.45183 -2.11933 0
M  V30 270 H 16.7574 6.55886 0.122132 0
M  V30 271 H 16.6744 7.43461 -1.37117 0
M  V30 272 H 17.9424 7.7914 -0.236785 0
M  V30 273 N 22.1715 0.800033 1.35784 0
M  V30 274 C 23.1035 0.163596 2.28615 0
M  V30 275 C 24.1165 -0.633317 1.49976 0
M  V30 276 O 25.3055 -0.466754 1.72289 0
M  V30 277 C 22.4055 -0.790958 3.29541 0
M  V30 278 C 21.5785 -0.0418255 4.3738 0
M  V30 279 C 20.6375 -0.91389 5.18203 0
M  V30 280 O 19.6635 -0.367234 5.68014 0
M  V30 281 N 20.8655 -2.23682 5.35674 0
M  V30 282 H 23.6305 0.96105 2.83873 0
M  V30 283 H 21.1915 0.654894 1.48063 0
M  V30 284 H 23.1835 -1.37844 3.80501 0
M  V30 285 H 21.7535 -1.48925 2.74846 0
M  V30 286 H 20.9735 0.726813 3.87442 0
M  V30 287 H 22.2615 0.474719 5.06581 0
M  V30 288 H 21.6595 -2.70497 4.96838 0
M  V30 289 H 20.2165 -2.77369 5.89839 0
M  V30 290 N 23.6496 -1.47581 0.552962 0
M  V30 291 C 24.8956 -2.02782 0.0273648 0
M  V30 292 C 25.2286 -1.42687 -1.31734 0
M  V30 293 O 24.5036 -0.580897 -1.85623 0
M  V30 294 C 24.7866 -3.60031 -0.0702371 0
M  V30 295 C 24.6396 -4.30566 1.30126 0
M  V30 296 C 25.9586 -4.33028 -0.785771 0
M  V30 297 H 23.0776 -0.736912 0.0114185 0
M  V30 298 H 25.7196 -1.76056 0.714432 0
M  V30 299 H 23.8696 -3.82932 -0.655382 0
M  V30 300 H 25.5416 -4.19018 1.92929 0
M  V30 301 H 23.7846 -3.91086 1.87709 0
M  V30 302 H 24.4556 -5.39114 1.18573 0
M  V30 303 H 26.9316 -4.15095 -0.288982 0
M  V30 304 H 25.8076 -5.42695 -0.823013 0
M  V30 305 H 26.0686 -4.01945 -1.841 0
M  V30 306 N 25.1277 -0.289203 -1.54924 0
M  V30 307 C 26.0577 0.58549 -2.2604 0
M  V30 308 C 27.0387 1.14753 -1.25562 0
M  V30 309 O 28.2237 1.17906 -1.54311 0
M  V30 310 C 25.3537 1.76305 -2.99222 0
M  V30 311 C 24.3077 1.33191 -4.06748 0
M  V30 312 C 23.6337 2.5937 -4.6758 0
M  V30 313 C 24.9337 0.471775 -5.20165 0
M  V30 314 H 26.6277 -0.00763532 -2.99399 0
M  V30 315 H 24.1737 -0.00511229 -1.43999 0
M  V30 316 H 26.1267 2.38097 -3.47689 0
M  V30 317 H 24.8507 2.38223 -2.23422 0
M  V30 318 H 23.5097 0.737121 -3.59113 0
M  V30 319 H 23.1577 3.19576 -3.88433 0
M  V30 320 H 22.8577 2.31228 -5.40192 0
M  V30 321 H 24.3817 3.21985 -5.18804 0
M  V30 322 H 25.7957 0.995056 -5.64599 0
M  V30 323 H 24.1927 0.284639 -5.99425 0
M  V30 324 H 25.2627 -0.506041 -4.82252 0
M  V30 325 N 26.6058 1.57591 -0.0167156 0
M  V30 326 C 27.5528 2.09462 0.969251 0
M  V30 327 C 28.5228 0.99381 1.33089 0
M  V30 328 O 29.7078 1.26726 1.42636 0
M  V30 329 C 26.8478 2.61622 2.25051 0
M  V30 330 C 25.9608 3.85666 1.94642 0
M  V30 331 C 25.0958 4.26266 3.16972 0
M  V30 332 C 24.1348 5.43101 2.82326 0
M  V30 333 N 23.2718 5.78915 3.97243 0
M  V30 334 H 28.1118 2.93428 0.519997 0
M  V30 335 H 25.6488 1.45044 0.245087 0
M  V30 336 H 27.6068 2.89949 2.99976 0
M  V30 337 H 26.2368 1.80505 2.67615 0
M  V30 338 H 25.2888 3.64145 1.10013 0
M  V30 339 H 26.6008 4.70678 1.65117 0
M  V30 340 H 25.7548 4.55963 4.00228 0
M  V30 341 H 24.4938 3.39996 3.49648 0
M  V30 342 H 23.4988 5.1311 1.97479 0
M  V30 343 H 24.7238 6.3106 2.50879 0
M  V30 344 H 22.6698 4.95602 4.29785 0
M  V30 345 H 22.5868 6.58539 3.71299 0
M  V30 346 H 23.8548 6.13212 4.81239 0
M  V30 347 N 28.0839 -0.256276 1.55502 0
M  V30 348 C 29.3309 -0.985619 1.76895 0
M  V30 349 C 29.6589 -1.85671 0.579355 0
M  V30 350 O 28.9139 -1.90744 -0.437651 0
M  V30 351 C 29.2129 -1.88432 3.03691 0
M  V30 352 C 28.8789 -1.16936 4.35473 0
M  V30 353 C 27.5409 -0.97173 4.71286 0
M  V30 354 C 29.8929 -0.661889 5.1698 0
M  V30 355 C 27.2209 -0.254179 5.86149 0
M  V30 356 C 29.5729 0.042149 6.32586 0
M  V30 357 C 28.2369 0.25134 6.67027 0
M  V30 358 H 27.5069 -0.360663 0.647304 0
M  V30 359 H 30.1539 -0.256483 1.89775 0
M  V30 360 H 28.4589 -2.68021 2.85783 0
M  V30 361 H 30.1559 -2.45015 3.1744 0
M  V30 362 H 26.7459 -1.33332 4.07333 0
M  V30 363 H 30.9299 -0.802145 4.89775 0
M  V30 364 H 26.1859 -0.0815408 6.11346 0
M  V30 365 H 30.3599 0.443049 6.94989 0
M  V30 366 H 27.9869 0.809314 7.5588 0
M  V30 367 N 29.562 -1.4872 -0.521534 0
M  V30 368 C 30.81 -1.56857 -1.27437 0
M  V30 369 C 31.131 -0.247982 -1.93417 0
M  V30 370 O 30.401 0.731151 -1.81744 0
M  V30 371 H 28.981 -0.577885 -0.473347 0
M  V30 372 H 31.643 -1.85233 -0.606205 0
M  V30 373 H 30.739 -2.35402 -2.0492 0
M  V30 374 N 31.0401 0.771051 -1.3745 0
M  V30 375 C 31.9501 1.91538 -1.35464 0
M  V30 376 C 32.9661 1.72134 -0.254123 0
M  V30 377 O 34.1421 1.95358 -0.489626 0
M  V30 378 C 31.2071 3.26671 -1.16134 0
M  V30 379 C 30.2681 3.58723 -2.35831 0
M  V30 380 C 29.5011 4.87409 -2.17413 0
M  V30 381 O 29.7241 5.58506 -1.15876 0
M  V30 382 O 28.6581 5.18539 -3.05615 0
M  V30 383 H 32.4841 1.96165 -2.31847 0
M  V30 384 H 30.0691 0.9139 -1.18187 0
M  V30 385 H 31.9511 4.07499 -1.07345 0
M  V30 386 H 30.6261 3.22894 -0.228251 0
M  V30 387 H 29.5331 2.78127 -2.50192 0
M  V30 388 H 30.8661 3.67243 -3.27709 0
M  V30 389 N 32.5182 1.22032 0.997298 0
M  V30 390 C 33.7652 1.04222 1.73621 0
M  V30 391 C 34.0932 -0.423264 1.89839 0
M  V30 392 O 33.3482 -1.3302 1.43542 0
M  V30 393 C 33.6472 1.69345 3.14733 0
M  V30 394 C 33.3132 3.19226 3.18442 0
M  V30 395 C 31.9752 3.60124 3.19161 0
M  V30 396 C 34.3272 4.15181 3.15078 0
M  V30 397 C 31.6552 4.95467 3.14212 0
M  V30 398 C 34.0072 5.50495 3.1167 0
M  V30 399 C 32.6712 5.90779 3.10703 0
M  V30 400 H 31.9412 0.381374 0.635323 0
M  V30 401 H 34.5882 1.51732 1.16831 0
M  V30 402 H 32.8932 1.14147 3.74803 0
M  V30 403 H 34.5902 1.53059 3.7064 0
M  V30 404 H 31.1802 2.86659 3.18629 0
M  V30 405 H 35.3642 3.84605 3.13676 0
M  V30 406 H 30.6202 5.25916 3.11805 0
M  V30 407 H 34.7942 6.24576 3.08022 0
M  V30 408 H 32.4212 6.9562 3.06622 0
M  V30 409 N 33.9963 -1.19345 1.0293 0
M  V30 410 C 35.2243 -1.92997 0.745644 0
M  V30 411 C 35.6393 -1.75519 -0.695589 0
M  V30 412 O 34.9963 -1.07737 -1.47306 0
M  V30 413 C 35.0473 -3.44741 1.08792 0
M  V30 414 O 34.7683 -3.61658 2.47256 0
M  V30 415 C 36.2693 -4.35515 0.827129 0
M  V30 416 H 33.4893 -0.613042 0.272801 0
M  V30 417 H 36.0333 -1.51473 1.3739 0
M  V30 418 H 34.1883 -3.84097 0.504832 0
M  V30 419 H 34.6023 -4.55514 2.60015 0
M  V30 420 H 36.0763 -5.40589 1.11658 0
M  V30 421 H 36.5533 -4.38552 -0.238436 0
M  V30 422 H 37.1593 -4.01841 1.39297 0
M  V30 423 N 35.4744 -0.807222 -1.35358 0
M  V30 424 C 36.4044 -0.232509 -2.3234 0
M  V30 425 C 37.3854 0.642386 -1.57504 0
M  V30 426 O 38.5704 0.572526 -1.85569 0
M  V30 427 C 35.7004 0.619238 -3.41735 0
M  V30 428 C 34.6544 -0.157215 -4.27711 0
M  V30 429 C 33.9804 0.816273 -5.28433 0
M  V30 430 C 35.2804 -1.35656 -5.04376 0
M  V30 431 H 36.9744 -1.04276 -2.80654 0
M  V30 432 H 34.5204 -0.50288 -1.34934 0
M  V30 433 H 36.4734 1.03137 -4.08584 0
M  V30 434 H 35.1974 1.46239 -2.92031 0
M  V30 435 H 33.8564 -0.550525 -3.62443 0
M  V30 436 H 33.5044 1.65494 -4.74996 0
M  V30 437 H 33.2044 0.301067 -5.86828 0
M  V30 438 H 34.7284 1.22659 -5.98153 0
M  V30 439 H 36.1424 -1.01927 -5.64166 0
M  V30 440 H 34.5394 -1.8063 -5.7227 0
M  V30 441 H 35.6094 -2.14288 -4.34981 0
M  V30 442 N 36.9525 1.47285 -0.560781 0
M  V30 443 C 37.8995 2.30058 0.18491 0
M  V30 444 C 38.8695 1.39281 0.904986 0
M  V30 445 O 40.0545 1.68241 0.899979 0
M  V30 446 C 37.1945 3.23317 1.20666 0
M  V30 447 C 36.3075 4.29186 0.492285 0
M  V30 448 C 35.4425 5.09592 1.49964 0
M  V30 449 C 34.4815 6.07232 0.770439 0
M  V30 450 N 33.6185 6.80584 1.72479 0
M  V30 451 H 38.4585 2.93302 -0.527048 0
M  V30 452 H 35.9955 1.44568 -0.271738 0
M  V30 453 H 37.9535 3.75811 1.81168 0
M  V30 454 H 36.5835 2.61929 1.88661 0
M  V30 455 H 35.6355 3.7972 -0.227333 0
M  V30 456 H 36.9475 4.98738 -0.0787929 0
M  V30 457 H 36.1015 5.66254 2.17809 0
M  V30 458 H 34.8405 4.3995 2.10464 0
M  V30 459 H 33.8455 5.49745 0.0780846 0
M  V30 460 H 35.0705 6.78884 0.171134 0
M  V30 461 H 33.0165 6.1367 2.3183 0
M  V30 462 H 32.9335 7.46319 1.20596 0
M  V30 463 H 34.2015 7.41818 2.39428 0
M  V30 464 N 38.4306 0.297415 1.54768 0
M  V30 465 C 39.6556 -0.318435 2.04941 0
M  V30 466 C 40.0806 -1.4701 1.17345 0
M  V30 467 O 39.4386 -1.80436 0.176758 0
M  V30 468 C 39.4866 -0.755749 3.52592 0
M  V30 469 O 38.5906 -1.86088 3.68028 0
M  V30 470 H 37.9316 -0.062421 0.661059 0
M  V30 471 H 40.4616 0.438215 1.99852 0
M  V30 472 H 40.4716 -1.04552 3.94376 0
M  V30 473 H 39.1466 0.0867233 4.1581 0
M  V30 474 H 37.7236 -1.57193 3.38149 0
M  V30 475 N 39.9087 -1.5758 0.0250728 0
M  V30 476 C 41.1567 -1.91255 -0.653151 0
M  V30 477 C 41.4777 -0.901691 -1.729 0
M  V30 478 O 40.7477 0.0573785 -1.95816 0
M  V30 479 H 39.3277 -0.705942 -0.244243 0
M  V30 480 H 41.9897 -1.94767 0.0719209 0
M  V30 481 H 41.0857 -2.91752 -1.10847 0
M  V30 482 N 41.3868 0.248026 -1.55636 0
M  V30 483 C 42.8028 0.596483 -1.48035 0
M  V30 484 C 43.0028 1.88386 -0.715039 0
M  V30 485 O 42.0588 2.51319 -0.243944 0
M  V30 486 C 43.3718 0.700258 -2.92433 0
M  V30 487 C 44.9198 0.792659 -3.02797 0
M  V30 488 C 45.3948 0.928005 -4.485 0
M  V30 489 N 46.8858 0.992903 -4.52433 0
M  V30 490 C 47.6208 1.11687 -5.62418 0
M  V30 491 N 47.1168 1.20645 -6.82214 0
M  V30 492 N 48.9098 1.14994 -5.50212 0
M  V30 493 H 41.0608 -0.597109 -2.03834 0
M  V30 494 H 43.3238 -0.205925 -0.925364 0
M  V30 495 H 43.0298 -0.175658 -3.51261 0
M  V30 496 H 42.9038 1.57255 -3.42857 0
M  V30 497 H 45.2908 1.65903 -2.4405 0
M  V30 498 H 45.3718 -0.104762 -2.55585 0
M  V30 499 H 45.0158 0.0661971 -5.07857 0
M  V30 500 H 44.9458 1.84045 -4.93391 0
M  V30 501 H 47.4368 0.935064 -3.66149 0
M  V30 502 H 47.7498 1.30008 -7.61786 0
M  V30 503 H 46.0948 1.17605 -6.84977 0
M  V30 504 H 49.2858 1.07643 -4.55555 0
M  V30 505 H 49.4588 1.24311 -6.35965 0
M  V30 506 N 42.8649 1.48995 0.513639 0
M  V30 507 C 43.8119 1.6473 1.61656 0
M  V30 508 C 44.7819 0.488984 1.58739 0
M  V30 509 O 45.9669 0.714478 1.76918 0
M  V30 510 C 43.1069 1.7082 2.99858 0
M  V30 511 C 42.2199 2.9787 3.12885 0
M  V30 512 C 41.3549 2.95017 4.41744 0
M  V30 513 C 40.3939 4.16702 4.48359 0
M  V30 514 N 39.5309 4.11832 5.68629 0
M  V30 515 H 44.3709 2.58909 1.47547 0
M  V30 516 H 41.9079 1.28382 0.71808 0
M  V30 517 H 43.8659 1.72331 3.79944 0
M  V30 518 H 42.4959 0.801181 3.12699 0
M  V30 519 H 41.5479 3.06029 2.25944 0
M  V30 520 H 42.8599 3.8786 3.13633 0
M  V30 521 H 42.0139 2.95021 5.30139 0
M  V30 522 H 40.7529 2.02784 4.43542 0
M  V30 523 H 39.7579 4.16955 3.58369 0
M  V30 524 H 40.9829 5.10113 4.48287 0
M  V30 525 H 38.9289 3.22428 5.71293 0
M  V30 526 H 38.8459 4.95543 5.7094 0
M  V30 527 H 40.1139 4.1592 6.59266 0
M  V30 528 N 44.343 -0.763751 1.37857 0
M  V30 529 C 45.568 -1.55805 1.36893 0
M  V30 530 C 45.993 -1.88054 -0.0416135 0
M  V30 531 O 45.351 -1.49825 -1.02089 0
M  V30 532 C 45.399 -2.84012 2.22192 0
M  V30 533 O 44.503 -3.78732 1.63204 0
M  V30 534 H 43.844 -0.471638 0.46739 0
M  V30 535 H 46.374 -0.944657 1.81487 0
M  V30 536 H 46.384 -3.33037 2.35691 0
M  V30 537 H 45.059 -2.59869 3.24716 0
M  V30 538 H 43.636 -3.37402 1.58791 0
M  V30 539 N 45.8211 -1.22559 -0.990812 0
M  V30 540 C 47.2321 -1.04791 -1.54518 0
M  V30 541 C 47.5831 0.387998 -1.92325 0
M  V30 542 O 46.7081 1.27328 -1.74976 0
M  V30 543 C 47.3031 -1.896 -2.80779 0
M  V30 544 C 45.8621 -1.76124 -3.32652 0
M  V30 545 C 45.0091 -1.8594 -2.05722 0
M  V30 546 H 47.9601 -1.36374 -0.811662 0
M  V30 547 H 47.9811 -1.41464 -3.53225 0
M  V30 548 H 47.4931 -2.94101 -2.53231 0
M  V30 549 H 45.5941 -0.743643 -3.65104 0
M  V30 550 H 45.7071 -2.58913 -4.03114 0
M  V30 551 H 44.0711 -1.29403 -2.19379 0
M  V30 552 H 44.8541 -2.91976 -1.80568 0
M  V30 553 N 47.2992 1.18797 -1.03562 0
M  V30 554 C 48.5292 1.92319 -0.754773 0
M  V30 555 C 48.9372 1.7612 0.691248 0
M  V30 556 O 48.2802 1.08491 1.48241 0
M  V30 557 C 48.3422 3.44284 -1.03484 0
M  V30 558 C 48.0062 3.84258 -2.47376 0
M  V30 559 C 49.0032 3.88459 -3.45537 0
M  V30 560 C 46.6882 4.15701 -2.81954 0
M  V30 561 C 48.6822 4.23545 -4.76328 0
M  V30 562 C 46.3692 4.50458 -4.12954 0
M  V30 563 C 47.3672 4.54356 -5.09951 0
M  V30 564 O 47.0552 4.88305 -6.38603 0
M  V30 565 H 46.7872 0.617527 -0.275021 0
M  V30 566 H 49.3412 1.51683 -1.38497 0
M  V30 567 H 47.5712 3.85135 -0.347513 0
M  V30 568 H 49.2602 3.99049 -0.7426 0
M  V30 569 H 50.0262 3.6431 -3.20162 0
M  V30 570 H 45.9052 4.11847 -2.0713 0
M  V30 571 H 49.4492 4.26502 -5.52035 0
M  V30 572 H 45.3462 4.74067 -4.38099 0
M  V30 573 H 46.1142 5.06227 -6.43177 0
M  V30 574 N 48.7773 0.814389 1.34928 0
M  V30 575 C 50.0243 0.398423 1.98542 0
M  V30 576 C 50.3523 -1.03638 1.64589 0
M  V30 577 O 49.6073 -1.73509 0.90516 0
M  V30 578 C 49.9063 0.537781 3.53331 0
M  V30 579 C 49.5723 1.93704 4.07172 0
M  V30 580 C 48.2343 2.31984 4.21589 0
M  V30 581 C 50.5863 2.85213 4.36237 0
M  V30 582 C 47.9143 3.61125 4.62391 0
M  V30 583 C 50.2663 4.13809 4.78482 0
M  V30 584 C 48.9303 4.52077 4.91104 0
M  V30 585 H 48.2003 0.145793 0.726516 0
M  V30 586 H 50.8473 1.03669 1.61012 0
M  V30 587 H 49.1523 -0.183906 3.91368 0
M  V30 588 H 50.8493 0.196588 4.00518 0
M  V30 589 H 47.4393 1.62966 3.96409 0
M  V30 590 H 51.6233 2.56885 4.24645 0
M  V30 591 H 46.8793 3.90612 4.70353 0
M  V30 592 H 51.0533 4.84811 4.99932 0
M  V30 593 H 48.6803 5.52196 5.22478 0
M  V30 594 N 50.2554 -1.46986 0.568584 0
M  V30 595 C 51.5024 -2.02441 0.0487986 0
M  V30 596 C 51.8304 -1.44169 -1.30559 0
M  V30 597 O 51.0854 -0.591213 -1.86556 0
M  V30 598 C 51.3844 -3.57306 -0.081836 0
M  V30 599 C 51.0504 -4.34552 1.20313 0
M  V30 600 C 49.7124 -4.55376 1.5552 0
M  V30 601 C 52.0644 -4.79016 2.05411 0
M  V30 602 C 49.3924 -5.17913 2.7565 0
M  V30 603 C 51.7444 -5.42879 3.24754 0
M  V30 604 C 50.4084 -5.61933 3.60261 0
M  V30 605 H 49.6784 -0.740785 0.0178567 0
M  V30 606 H 52.3254 -1.76525 0.742384 0
M  V30 607 H 50.6304 -3.8228 -0.858463 0
M  V30 608 H 52.3274 -3.97876 -0.499546 0
M  V30 609 H 48.9174 -4.18631 0.919014 0
M  V30 610 H 53.1014 -4.62696 1.79516 0
M  V30 611 H 48.3574 -5.30858 3.03315 0
M  V30 612 H 52.5314 -5.76293 3.90973 0
M  V30 613 H 50.1584 -6.10161 4.53439 0
M  V30 614 N 51.7335 -0.305618 -1.54608 0
M  V30 615 C 52.6815 0.584119 -2.25146 0
M  V30 616 C 53.6755 1.13326 -1.25911 0
M  V30 617 O 54.8815 1.08337 -1.43747 0
M  V30 618 H 51.2565 0.206983 -0.722954 0
M  V30 619 H 53.2275 -0.033291 -2.98381 0
M  V30 620 C 51.9765 1.74225 -3.009 0
M  V30 621 H 51.2995 1.32892 -3.77067 0
M  V30 622 H 52.7395 2.34077 -3.53531 0
M  V30 623 C 51.1985 2.64914 -2.0814 0
M  V30 624 O 51.7285 3.66137 -1.65246 0
M  V30 625 N 49.9345 2.3275 -1.74 0
M  V30 626 H 49.4815 1.50479 -2.09078 0
M  V30 627 H 49.4395 2.93694 -1.12211 0
M  V30 628 N 53.2116 1.57565 -0.0334293 0
M  V30 629 C 54.1746 2.09393 0.932048 0
M  V30 630 C 55.1746 1.00986 1.25134 0
M  V30 631 O 56.3646 1.27129 1.19096 0
M  V30 632 C 53.4966 2.56338 2.2473 0
M  V30 633 H 54.6896 2.95984 0.483085 0
M  V30 634 H 52.2426 1.54819 0.21468 0
M  V30 635 H 52.9776 1.7309 2.74245 0
M  V30 636 H 52.7626 3.35542 2.02865 0
M  V30 637 H 54.2526 2.96646 2.93923 0
M  V30 638 N 54.6897 -0.239769 1.55765 0
M  V30 639 C 55.9377 -0.964892 1.77579 0
M  V30 640 C 56.2587 -1.85582 0.598699 0
M  V30 641 O 55.5287 -1.92075 -0.385226 0
M  V30 642 H 54.1087 -0.359265 0.654933 0
M  V30 643 H 56.7707 -0.256001 1.93211 0
M  V30 644 H 55.8667 -1.58243 2.69009 0
M  V30 645 N 56.1678 -1.49265 -0.50573 0
M  V30 646 C 57.0978 -1.68495 -1.61653 0
M  V30 647 C 58.0788 -0.53366 -1.61512 0
M  V30 648 O 59.2638 -0.76897 -1.78327 0
M  V30 649 C 56.3938 -1.74709 -3.00157 0
M  V30 650 C 55.3478 -2.89581 -3.15162 0
M  V30 651 C 54.6738 -2.80903 -4.5497 0
M  V30 652 C 55.9738 -4.30578 -2.95634 0
M  V30 653 H 57.6678 -2.61493 -1.45814 0
M  V30 654 H 55.2138 -1.25838 -0.70005 0
M  V30 655 H 57.1668 -1.86748 -3.77761 0
M  V30 656 H 55.8908 -0.783067 -3.17074 0
M  V30 657 H 54.5498 -2.77136 -2.39982 0
M  V30 658 H 54.1978 -1.82419 -4.68756 0
M  V30 659 H 53.8978 -3.57999 -4.65951 0
M  V30 660 H 55.4218 -2.94944 -5.34641 0
M  V30 661 H 56.8358 -4.4373 -3.63011 0
M  V30 662 H 55.2328 -5.0886 -3.18091 0
M  V30 663 H 56.3028 -4.45352 -1.91806 0
M  V30 664 N 57.6459 0.756429 -1.3826 0
M  V30 665 C 58.8929 1.51547 -1.34312 0
M  V30 666 C 59.2209 1.94382 0.0677144 0
M  V30 667 O 58.4759 1.65514 1.04421 0
M  V30 668 C 58.7749 2.78313 -2.24224 0
M  V30 669 C 58.4409 2.54455 -3.72241 0
M  V30 670 C 57.1029 2.47657 -4.12576 0
M  V30 671 C 59.4549 2.3354 -4.65949 0
M  V30 672 C 56.7829 2.17956 -5.44713 0
M  V30 673 C 59.1349 2.05359 -5.9834 0
M  V30 674 C 57.7989 1.97016 -6.37762 0
M  V30 675 H 57.0689 0.55455 -0.491482 0
M  V30 676 H 59.7159 0.870039 -1.70595 0
M  V30 677 H 58.0209 3.47492 -1.80987 0
M  V30 678 H 59.7179 3.36259 -2.18474 0
M  V30 679 H 56.3079 2.60616 -3.40261 0
M  V30 680 H 60.4919 2.37772 -4.35635 0
M  V30 681 H 55.7479 2.10003 -5.74203 0
M  V30 682 H 59.9219 1.88179 -6.70494 0
M  V30 683 H 57.5489 1.73766 -7.40074 0
M  V30 684 N 59.124 1.23083 0.984299 0
M  V30 685 C 60.072 1.00593 2.09723 0
M  V30 686 C 61.066 -0.0538014 1.69315 0
M  V30 687 O 62.272 0.0993719 1.79725 0
M  V30 688 H 58.647 0.30817 0.685956 0
M  V30 689 H 60.618 1.95012 2.2586 0
M  V30 690 C 59.367 0.609601 3.42314 0
M  V30 691 H 58.69 1.41675 3.73856 0
M  V30 692 H 60.13 0.491726 4.21139 0
M  V30 693 C 58.589 -0.681745 3.2993 0
M  V30 694 O 59.119 -1.73192 3.62446 0
M  V30 695 N 57.325 -0.656178 2.83095 0
M  V30 696 H 56.872 0.198759 2.56832 0
M  V30 697 H 56.83 -1.52044 2.75191 0
M  V30 698 N 60.6021 -1.18246 1.0419 0
M  V30 699 C 61.8301 -1.92195 0.766072 0
M  V30 700 C 62.2451 -1.76247 -0.676933 0
M  V30 701 O 61.6021 -1.09293 -1.46155 0
M  V30 702 C 61.6531 -3.43568 1.12442 0
M  V30 703 O 61.3741 -3.59015 2.51078 0
M  V30 704 C 62.8751 -4.34613 0.873275 0
M  V30 705 H 60.0951 -0.610114 0.279288 0
M  V30 706 H 62.6391 -1.50007 1.38989 0
M  V30 707 H 60.7941 -3.8354 0.545542 0
M  V30 708 H 61.2081 -4.5273 2.64831 0
M  V30 709 H 62.6821 -5.39374 1.17385 0
M  V30 710 H 63.1591 -4.38781 -0.191909 0
M  V30 711 H 63.7651 -4.00341 1.43551 0
M  V30 712 N 62.0802 -0.821533 -1.34494 0
M  V30 713 C 63.3282 -0.408139 -1.97936 0
M  V30 714 C 63.6492 1.03193 -1.65457 0
M  V30 715 O 62.9192 1.71622 -0.944595 0
M  V30 716 H 61.4992 -0.147928 -0.732206 0
M  V30 717 H 64.1612 -1.05067 -1.64155 0
M  V30 718 H 63.2572 -0.52601 -3.07635 0
M  V30 719 N 63.5583 1.46682 -0.576371 0
M  V30 720 C 64.9743 1.57822 -0.237562 0
M  V30 721 C 65.1743 1.57237 1.26011 0
M  V30 722 O 64.2303 1.48596 2.04146 0
M  V30 723 C 65.5433 2.87499 -0.881168 0
M  V30 724 C 67.0913 3.01119 -0.85417 0
M  V30 725 C 67.5663 4.33524 -1.4772 0
M  V30 726 N 69.0573 4.40207 -1.44125 0
M  V30 727 C 69.7923 5.4126 -1.89276 0
M  V30 728 N 69.2883 6.49021 -2.42371 0
M  V30 729 N 71.0813 5.32422 -1.80231 0
M  V30 730 H 63.2323 1.45306 -1.54919 0
M  V30 731 H 65.4953 0.692733 -0.647167 0
M  V30 732 H 65.2013 2.9372 -1.93447 0
M  V30 733 H 65.0753 3.75224 -0.385592 0
M  V30 734 H 67.4623 2.94485 0.190491 0
M  V30 735 H 67.5433 2.14887 -1.3877 0
M  V30 736 H 67.1873 4.40916 -2.52103 0
M  V30 737 H 67.1173 5.1852 -0.918947 0
M  V30 738 H 69.6083 3.62931 -1.05307 0
M  V30 739 H 69.9213 7.2233 -2.74698 0
M  V30 740 H 68.2663 6.49858 -2.46393 0
M  V30 741 H 71.4573 4.47137 -1.38514 0
M  V30 742 H 71.6303 6.11034 -2.15735 0
M  V30 743 N 65.0364 0.313813 1.54444 0
M  V30 744 C 66.3134 -0.345447 1.92525 0
M  V30 745 C 66.6934 -1.70667 1.24242 0
M  V30 746 O 66.0414 -2.25273 0.382654 0
M  V30 747 C 66.2514 -0.44737 3.46121 0
M  V30 748 C 67.5994 -0.712238 4.18584 0
M  V30 749 O 68.6234 -0.530678 3.52225 0
M  V30 750 O 67.4824 -1.06183 5.36085 0
M  V30 751 H 64.5764 -0.195407 0.803583 0
M  V30 752 H 67.1224 0.362813 1.65776 0
M  V30 753 H 65.8944 0.509043 3.87975 0
M  V30 754 H 65.5174 -1.20359 3.78945 0
M  V30 755 N 66.5145 -1.57545 0.0417849 0
M  V30 756 C 67.4445 -2.14009 -0.933929 0
M  V30 757 C 68.4255 -1.05938 -1.33083 0
M  V30 758 O 69.6105 -1.33833 -1.40721 0
M  V30 759 C 66.7405 -2.67747 -2.21199 0
M  V30 760 C 65.6945 -3.80718 -1.95544 0
M  V30 761 C 65.0205 -4.20935 -3.29724 0
M  V30 762 C 66.3205 -5.06258 -1.28452 0
M  V30 763 H 68.0145 -2.95788 -0.463645 0
M  V30 764 H 65.5605 -1.42285 -0.221573 0
M  V30 765 H 67.5135 -3.05886 -2.89848 0
M  V30 766 H 66.2375 -1.83147 -2.70416 0
M  V30 767 H 64.8965 -3.43037 -1.2931 0
M  V30 768 H 64.5445 -3.33298 -3.76724 0
M  V30 769 H 64.2445 -4.9707 -3.13361 0
M  V30 770 H 65.7685 -4.61666 -3.9962 0
M  V30 771 H 67.1825 -5.41903 -1.8712 0
M  V30 772 H 65.5795 -5.87475 -1.22445 0
M  V30 773 H 66.6495 -4.84207 -0.259219 0
M  V30 774 N 67.9926 0.231505 -1.5589 0
M  V30 775 C 68.9556 1.27028 -1.90779 0
M  V30 776 C 69.9556 1.40308 -0.785507 0
M  V30 777 O 71.1456 1.38744 -1.05336 0
M  V30 778 C 68.2776 2.64566 -2.14983 0
M  V30 779 H 69.4706 0.973017 -2.83677 0
M  V30 780 H 67.0236 0.471486 -1.49019 0
M  V30 781 H 67.7586 2.99406 -1.24604 0
M  V30 782 H 67.5436 2.56305 -2.96732 0
M  V30 783 H 69.0336 3.39543 -2.43105 0
M  V30 784 N 69.4707 1.49531 0.497807 0
M  V30 785 C 70.4007 1.6935 1.60757 0
M  V30 786 C 71.3817 0.542218 1.61227 0
M  V30 787 O 72.5667 0.778417 1.77917 0
M  V30 788 C 69.6967 1.76298 2.99226 0
M  V30 789 C 68.6507 2.91248 3.13622 0
M  V30 790 C 67.9767 2.83312 4.53474 0
M  V30 791 C 69.2767 4.3214 2.93346 0
M  V30 792 H 70.9707 2.62263 1.44425 0
M  V30 793 H 68.5167 1.26208 0.693367 0
M  V30 794 H 70.4697 1.88749 3.76765 0
M  V30 795 H 69.1937 0.799871 3.16654 0
M  V30 796 H 67.8527 2.78404 2.38509 0
M  V30 797 H 67.5007 1.84902 4.67782 0
M  V30 798 H 67.2007 3.60465 4.64046 0
M  V30 799 H 68.7247 2.97775 5.33069 0
M  V30 800 H 70.1387 4.45649 3.60652 0
M  V30 801 H 68.5357 5.1054 3.15387 0
M  V30 802 H 69.6057 4.46363 1.89441 0
M  V30 803 N 70.9488 -0.749086 1.3866 0
M  V30 804 C 71.8788 -1.8764 1.38973 0
M  V30 805 C 72.8598 -1.68178 0.255004 0
M  V30 806 O 74.0448 -1.88704 0.458754 0
M  V30 807 C 71.1748 -3.25222 1.21851 0
M  V30 808 C 70.1288 -3.59295 2.32575 0
M  V30 809 C 69.4548 -4.95663 2.00555 0
M  V30 810 C 70.7548 -3.63709 3.7485 0
M  V30 811 H 72.4488 -1.87635 2.3331 0
M  V30 812 H 69.9948 -0.901329 1.12303 0
M  V30 813 H 71.9478 -4.03746 1.20695 0
M  V30 814 H 70.6718 -3.25719 0.239775 0
M  V30 815 H 69.3308 -2.83093 2.32925 0
M  V30 816 H 68.9788 -4.92724 1.01154 0
M  V30 817 H 68.6788 -5.19429 2.74714 0
M  V30 818 H 70.2028 -5.7656 2.01024 0
M  V30 819 H 71.6168 -4.32338 3.76506 0
M  V30 820 H 70.0138 -3.98986 4.48252 0
M  V30 821 H 71.0838 -2.63834 4.06841 0
M  V30 822 N 72.4269 -1.23603 -0.977757 0
M  V30 823 C 73.6749 -1.06759 -1.71601 0
M  V30 824 C 73.9959 0.395929 -1.90938 0
M  V30 825 O 73.2659 1.28356 -1.47992 0
M  V30 826 H 71.8459 -0.392062 -0.635843 0
M  V30 827 H 74.5079 -1.55362 -1.1768 0
M  V30 828 H 73.6039 -1.55763 -2.70452 0
M  V30 829 N 73.905 1.17692 -1.04816 0
M  V30 830 C 75.321 1.39863 -0.768794 0
M  V30 831 C 75.521 1.91118 0.638451 0
M  V30 832 O 74.577 2.10036 1.40146 0
M  V30 833 C 75.89 2.39274 -1.82122 0
M  V30 834 C 77.438 2.52987 -1.843 0
M  V30 835 C 77.913 3.55669 -2.88555 0
M  V30 836 N 79.404 3.63183 -2.87493 0
M  V30 837 C 80.139 4.42381 -3.64811 0
M  V30 838 N 79.635 5.25125 -4.51903 0
M  V30 839 N 81.428 4.37217 -3.53267 0
M  V30 840 H 73.579 0.82752 -1.95617 0
M  V30 841 H 75.842 0.426123 -0.846831 0
M  V30 842 H 75.548 2.08678 -2.83102 0
M  V30 843 H 75.422 3.38725 -1.65967 0
M  V30 844 H 77.809 2.82896 -0.839869 0
M  V30 845 H 77.89 1.53623 -2.04532 0
M  V30 846 H 77.534 3.26499 -3.89051 0
M  V30 847 H 77.464 4.54728 -2.65575 0
M  V30 848 H 79.955 3.04103 -2.24343 0
M  V30 849 H 80.268 5.82728 -5.07591 0
M  V30 850 H 78.613 5.24519 -4.55966 0
M  V30 851 H 81.804 3.71626 -2.84625 0
M  V30 852 H 81.977 4.98696 -4.13771 0
M  V30 853 N 75.3831 0.828654 1.34056 0
M  V30 854 C 76.6301 0.419458 1.98108 0
M  V30 855 C 76.9581 -1.01886 1.65679 0
M  V30 856 O 76.2131 -1.72539 0.923512 0
M  V30 857 C 76.5121 0.575226 3.52741 0
M  V30 858 C 76.1781 1.98012 4.05095 0
M  V30 859 C 74.8401 2.36442 4.19104 0
M  V30 860 C 77.1921 2.89824 4.33188 0
M  V30 861 C 74.5201 3.66009 4.58535 0
M  V30 862 C 76.8721 4.1886 4.74066 0
M  V30 863 C 75.5361 4.5726 4.86281 0
M  V30 864 H 74.8061 0.153491 0.724929 0
M  V30 865 H 77.4531 1.05371 1.59904 0
M  V30 866 H 75.7581 -0.142385 3.91541 0
M  V30 867 H 77.4551 0.239057 4.00287 0
M  V30 868 H 74.0451 1.67162 3.94658 0
M  V30 869 H 78.2291 2.61375 4.21897 0
M  V30 870 H 73.4851 3.95579 4.66184 0
M  V30 871 H 77.6591 4.90086 4.94761 0
M  V30 872 H 75.2861 5.57707 5.16592 0
M  V30 873 N 76.8612 -1.46375 0.584142 0
M  V30 874 C 78.0912 -2.06461 0.0758195 0
M  V30 875 C 78.4992 -1.43322 -1.23512 0
M  V30 876 O 77.8422 -0.533216 -1.75791 0
M  V30 877 C 77.9042 -3.59131 -0.162773 0
M  V30 878 C 77.5682 -4.4447 1.06279 0
M  V30 879 C 78.5652 -4.80918 1.97519 0
M  V30 880 C 76.2502 -4.85584 1.28504 0
M  V30 881 C 78.2442 -5.57309 3.09331 0
M  V30 882 C 75.9312 -5.61734 2.4062 0
M  V30 883 C 76.9292 -5.9751 3.30863 0
M  V30 884 O 76.6172 -6.72121 4.41032 0
M  V30 885 H 76.3492 -0.673745 0.0551725 0
M  V30 886 H 78.9032 -1.88969 0.804984 0
M  V30 887 H 77.1332 -3.74936 -0.946565 0
M  V30 888 H 78.8222 -4.0114 -0.619782 0
M  V30 889 H 79.5882 -4.49732 1.81565 0
M  V30 890 H 75.4672 -4.57187 0.591702 0
M  V30 891 H 79.0112 -5.85152 3.79793 0
M  V30 892 H 74.9082 -5.92334 2.56537 0
M  V30 893 H 75.6762 -6.90547 4.39417 0
M  V30 894 N 78.3393 -0.321999 -1.54275 0
M  V30 895 C 79.3023 0.531975 -2.22941 0
M  V30 896 C 80.3023 1.04478 -1.22234 0
M  V30 897 O 81.4923 0.937452 -1.46825 0
M  V30 898 C 78.6243 1.73874 -2.93224 0
M  V30 899 H 79.8173 -0.0682612 -2.99822 0
M  V30 900 H 77.3703 -0.0730644 -1.56129 0
M  V30 901 H 78.1053 2.37825 -2.20476 0
M  V30 902 H 77.8903 1.37847 -3.6707 0
M  V30 903 H 79.3803 2.34496 -3.45545 0
M  V30 904 N 79.8174 1.5752 -0.0501392 0
M  V30 905 C 80.7274 2.14952 0.939827 0
M  V30 906 C 81.7434 1.10706 1.34239 0
M  V30 907 O 82.9194 1.42869 1.41952 0
M  V30 908 C 79.9844 2.68232 2.19665 0
M  V30 909 C 79.0454 3.87272 1.85253 0
M  V30 910 C 78.2784 4.38002 3.04943 0
M  V30 911 O 78.5014 3.87811 4.18281 0
M  V30 912 O 77.4354 5.29602 2.86017 0
M  V30 913 H 81.2614 2.9986 0.481392 0
M  V30 914 H 78.8464 1.4841 0.171699 0
M  V30 915 H 80.7284 3.02475 2.93406 0
M  V30 916 H 79.4034 1.86395 2.64648 0
M  V30 917 H 78.3104 3.5792 1.0883 0
M  V30 918 H 79.6434 4.70336 1.4507 0
M  V30 919 N 81.2955 -0.223234 1.56011 0
M  V30 920 C 82.2585 -1.26014 1.9145 0
M  V30 921 C 83.2585 -1.3989 0.792937 0
M  V30 922 O 84.4485 -1.38184 1.0607 0
M  V30 923 C 81.5805 -2.63422 2.16383 0
M  V30 924 H 82.7735 -0.95796 2.84189 0
M  V30 925 H 80.3265 -0.463576 1.49267 0
M  V30 926 H 81.0615 -2.98741 1.2619 0
M  V30 927 H 80.8465 -2.54728 2.98088 0
M  V30 928 H 82.3365 -3.38249 2.44903 0
M  V30 929 N 82.7736 -1.49793 -0.48987 0
M  V30 930 C 83.7036 -1.70201 -1.59856 0
M  V30 931 C 84.6846 -0.55076 -1.60937 0
M  V30 932 O 85.8696 -0.787841 -1.77501 0
M  V30 933 C 82.9996 -1.77882 -2.98287 0
M  V30 934 C 81.9536 -2.92907 -3.12073 0
M  V30 935 C 81.2796 -2.85712 -4.51965 0
M  V30 936 C 82.5796 -4.3369 -2.91051 0
M  V30 937 H 84.2736 -2.63025 -1.43032 0
M  V30 938 H 81.8196 -1.26574 -0.686664 0
M  V30 939 H 83.7726 -1.90744 -3.75759 0
M  V30 940 H 82.4966 -0.816653 -3.16225 0
M  V30 941 H 81.1556 -2.79665 -2.37029 0
M  V30 942 H 80.8036 -1.8738 -4.66795 0
M  V30 943 H 80.5036 -3.62921 -4.62128 0
M  V30 944 H 82.0276 -3.00598 -5.31482 0
M  V30 945 H 83.4416 -4.47555 -3.58284 0
M  V30 946 H 81.8386 -5.12205 -3.12675 0
M  V30 947 H 82.9086 -4.47362 -1.87071 0
M  V30 948 N 84.2517 0.741722 -1.39055 0
M  V30 949 C 85.4977 1.50336 -1.36113 0
M  V30 950 C 85.8307 1.94148 0.0450796 0
M  V30 951 O 85.1057 1.66301 1.00868 0
M  V30 952 C 85.3887 2.74773 -2.32749 0
M  V30 953 C 85.2417 2.37023 -3.82283 0
M  V30 954 C 86.5607 3.76846 -2.27322 0
M  V30 955 H 83.6797 0.545351 -0.495743 0
M  V30 956 H 86.3217 0.848624 -1.69995 0
M  V30 957 H 84.4717 3.30639 -2.03986 0
M  V30 958 H 86.1437 1.8684 -4.21768 0
M  V30 959 H 84.3867 1.69334 -3.99385 0
M  V30 960 H 85.0577 3.26104 -4.45376 0
M  V30 961 H 87.5337 3.30548 -2.5274 0
M  V30 962 H 86.4097 4.6159 -2.97028 0
M  V30 963 H 86.6707 4.23286 -1.27599 0
M  V30 964 N 85.7298 1.2412 0.971189 0
M  V30 965 C 87.0068 0.986867 1.6888 0
M  V30 966 C 87.3868 -0.491857 2.0529 0
M  V30 967 O 86.7348 -1.46531 1.75331 0
M  V30 968 C 86.9448 1.9063 2.92338 0
M  V30 969 C 88.2928 2.17515 3.64654 0
M  V30 970 O 89.3168 1.88254 3.02388 0
M  V30 971 O 88.1758 2.6719 4.7673 0
M  V30 972 H 85.2698 0.372944 0.738134 0
M  V30 973 H 87.8158 1.35203 1.02559 0
M  V30 974 H 86.5878 2.90552 2.62097 0
M  V30 975 H 86.2108 1.54408 3.66393 0
M  V30 976 N 87.2079 -1.17134 1.05439 0
M  V30 977 C 88.4329 -1.91913 0.786396 0
M  V30 978 C 88.8579 -1.7643 -0.652234 0
M  V30 979 O 88.2159 -1.08372 -1.45345 0
M  V30 980 C 88.2639 -3.40921 1.17497 0
M  V30 981 O 87.3679 -4.11244 0.308589 0
M  V30 982 H 86.7089 -0.598215 0.288158 0
M  V30 983 H 89.2389 -1.48457 1.4079 0
M  V30 984 H 89.2489 -3.91668 1.14281 0
M  V30 985 H 87.9239 -3.5151 2.22292 0
M  V30 986 H 86.5009 -3.70731 0.40157 0
M  V30 987 N 88.686 -0.835752 -1.33615 0
M  V30 988 C 89.934 -0.429109 -1.97492 0
M  V30 989 C 90.255 1.01433 -1.66543 0
M  V30 990 O 89.525 1.70611 -0.962744 0
M  V30 991 H 88.105 -0.155686 -0.730596 0
M  V30 992 H 90.767 -1.06802 -1.63031 0
M  V30 993 H 89.863 -0.55861 -3.0706 0
M  V30 994 N 90.1641 1.46063 -0.591896 0
M  V30 995 C 91.4131 2.01547 -0.0786637 0
M  V30 996 C 91.7261 1.46796 1.29268 0
M  V30 997 O 92.9321 1.94157 1.89777 0
M  V30 998 C 91.3881 3.59787 -0.0900024 0
M  V30 999 C 90.9961 4.23534 -1.46023 0
M  V30 1000 C 92.7401 4.22895 0.368806 0
M  V30 1001 C 90.6471 5.73881 -1.4288 0
M  V30 1002 H 89.5771 0.753564 -0.0256388 0
M  V30 1003 H 92.2281 1.677 -0.744905 0
M  V30 1004 H 90.6101 3.90752 0.642586 0
M  V30 1005 H 91.7841 4.04167 -2.21328 0
M  V30 1006 H 90.0991 3.72558 -1.85982 0
M  V30 1007 H 92.6961 5.33116 0.411258 0
M  V30 1008 H 93.0391 3.9247 1.38827 0
M  V30 1009 H 93.5721 3.9659 -0.31001 0
M  V30 1010 H 90.3111 6.0898 -2.42536 0
M  V30 1011 H 89.8311 5.95486 -0.718095 0
M  V30 1012 H 91.5101 6.36776 -1.14565 0
M  V30 1013 N 91.6422 0.330177 1.54103 0
M  V30 1014 C 92.5522 -0.541534 2.28264 0
M  V30 1015 C 93.5682 -1.12351 1.32866 0
M  V30 1016 O 94.7442 -1.14206 1.65888 0
M  V30 1017 C 91.8092 -1.68322 3.03098 0
M  V30 1018 C 90.8702 -1.13238 4.14096 0
M  V30 1019 C 90.1032 -2.21966 4.85352 0
M  V30 1020 O 90.3262 -3.42437 4.56172 0
M  V30 1021 O 89.2602 -1.87013 5.7211 0
M  V30 1022 H 93.0862 0.060938 3.03639 0
M  V30 1023 H 90.6712 0.09565 1.49093 0
M  V30 1024 H 92.5532 -2.34777 3.49939 0
M  V30 1025 H 91.2282 -2.27176 2.30593 0
M  V30 1026 H 90.1352 -0.432736 3.71589 0
M  V30 1027 H 91.4682 -0.588898 4.88664 0
M  V30 1028 N 93.1203 -1.57491 0.0584922 0
M  V30 1029 C 94.3673 -1.92978 -0.613648 0
M  V30 1030 C 94.6953 -0.937461 -1.70417 0
M  V30 1031 O 93.9503 0.049078 -1.95638 0
M  V30 1032 C 94.2493 -3.3513 -1.24188 0
M  V30 1033 C 93.9153 -4.50037 -0.278826 0
M  V30 1034 C 92.5773 -4.81198 -0.0138447 0
M  V30 1035 C 94.9293 -5.19807 0.380777 0
M  V30 1036 C 92.2573 -5.79473 0.918052 0
M  V30 1037 C 94.6093 -6.19079 1.30091 0
M  V30 1038 C 93.2733 -6.48665 1.57449 0
M  V30 1039 H 92.5433 -0.706157 -0.22455 0
M  V30 1040 H 95.1903 -1.91082 0.126533 0
M  V30 1041 H 93.4953 -3.33429 -2.05749 0
M  V30 1042 H 95.1923 -3.59871 -1.769 0
M  V30 1043 H 91.7823 -4.25726 -0.495539 0
M  V30 1044 H 95.9663 -4.95939 0.189158 0
M  V30 1045 H 91.2223 -6.00727 1.1374 0
M  V30 1046 H 95.3963 -6.7225 1.81804 0
M  V30 1047 H 93.0233 -7.24628 2.29822 0
M  V30 1048 N 94.5984 0.214957 -1.56127 0
M  V30 1049 C 95.8754 0.963093 -1.70247 0
M  V30 1050 C 96.2554 2.02166 -0.60764 0
M  V30 1051 O 95.6034 2.25244 0.384385 0
M  V30 1052 C 95.8134 1.56756 -3.11815 0
M  V30 1053 C 97.1614 2.0573 -3.7143 0
M  V30 1054 O 98.1854 1.66637 -3.14818 0
M  V30 1055 O 97.0444 2.77603 -4.70743 0
M  V30 1056 H 94.1384 0.450321 -0.693643 0
M  V30 1057 H 96.6844 0.206219 -1.68442 0
M  V30 1058 H 95.4564 0.803533 -3.82961 0
M  V30 1059 H 95.0794 2.3898 -3.17765 0
M  V30 1060 N 96.0765 1.50051 0.48192 0
M  V30 1061 C 97.0065 1.71046 1.58951 0
M  V30 1062 C 97.9875 0.559288 1.60642 0
M  V30 1063 O 99.1725 0.797243 1.77081 0
M  V30 1064 C 96.3025 1.79462 2.97339 0
M  V30 1065 C 95.2565 2.94558 3.10515 0
M  V30 1066 C 94.5825 2.88105 4.50444 0
M  V30 1067 C 95.8825 4.35227 2.88747 0
M  V30 1068 H 97.5765 2.6378 1.41635 0
M  V30 1069 H 95.1225 1.26936 0.679942 0
M  V30 1070 H 97.0755 1.92734 3.74742 0
M  V30 1071 H 95.7995 0.833412 3.15788 0
M  V30 1072 H 94.4585 2.80918 2.35543 0
M  V30 1073 H 94.1065 1.89853 4.65795 0
M  V30 1074 H 93.8065 3.65366 4.60197 0
M  V30 1075 H 95.3305 3.03412 5.29881 0
M  V30 1076 H 96.7445 4.49449 3.55905 0
M  V30 1077 H 95.1415 5.13856 3.09955 0
M  V30 1078 H 96.2115 4.48347 1.84696 0
M  V30 1079 N 97.5546 -0.734337 1.39446 0
M  V30 1080 C 98.4846 -1.86155 1.40955 0
M  V30 1081 C 99.4656 -1.67898 0.272827 0
M  V30 1082 O 100.651 -1.88207 0.478743 0
M  V30 1083 C 97.7806 -3.23912 1.25294 0
M  V30 1084 C 96.7346 -3.56808 2.36373 0
M  V30 1085 C 96.0606 -4.93508 2.058 0
M  V30 1086 C 97.3606 -3.59713 3.78687 0
M  V30 1087 H 99.0546 -1.8515 2.35287 0
M  V30 1088 H 96.6006 -0.889367 1.13253 0
M  V30 1089 H 98.5536 -4.02443 1.2497 0
M  V30 1090 H 97.2776 -3.25446 0.274308 0
M  V30 1091 H 95.9366 -2.80606 2.35914 0
M  V30 1092 H 95.5846 -4.91623 1.06374 0
M  V30 1093 H 95.2846 -5.16486 2.80208 0
M  V30 1094 H 96.8086 -5.74396 2.07128 0
M  V30 1095 H 98.2226 -4.2832 3.81071 0
M  V30 1096 H 96.6196 -3.94209 4.52459 0
M  V30 1097 H 97.6896 -2.59504 4.09617 0
M  V30 1098 N 99.0327 -1.24633 -0.964593 0
M  V30 1099 C 100.28 -1.08788 -1.70796 0
M  V30 1100 C 100.608 0.372783 -1.90894 0
M  V30 1101 O 99.8627 1.29167 -1.47018 0
M  V30 1102 C 100.162 -1.7763 -3.10133 0
M  V30 1103 C 99.8277 -3.27557 -3.09866 0
M  V30 1104 C 98.4897 -3.6846 -3.09501 0
M  V30 1105 C 100.842 -4.23389 -3.03959 0
M  V30 1106 C 98.1697 -5.03624 -3.00965 0
M  V30 1107 C 100.522 -5.58565 -2.96965 0
M  V30 1108 C 99.1857 -5.98809 -2.9493 0
M  V30 1109 H 98.4557 -0.398084 -0.624988 0
M  V30 1110 H 101.103 -1.54777 -1.12767 0
M  V30 1111 H 99.4077 -1.24044 -3.71645 0
M  V30 1112 H 101.105 -1.62832 -3.66451 0
M  V30 1113 H 97.6947 -2.95006 -3.10917 0
M  V30 1114 H 101.879 -3.92787 -3.03368 0
M  V30 1115 H 97.1347 -5.33998 -2.97752 0
M  V30 1116 H 101.309 -6.32523 -2.91354 0
M  V30 1117 H 98.9357 -7.03505 -2.88071 0
M  V30 1118 N 100.511 1.16574 -1.06058 0
M  V30 1119 C 101.759 1.86677 -0.77434 0
M  V30 1120 C 102.08 1.81959 0.701147 0
M  V30 1121 O 101.35 1.2515 1.50713 0
M  V30 1122 H 99.9298 0.691134 -0.283449 0
M  V30 1123 H 102.592 1.41378 -1.34158 0
M  V30 1124 H 101.688 2.92181 -1.09711 0
M  V30 1125 N 101.989 0.842826 1.3317 0
M  V30 1126 C 103.4 0.496651 1.79973 0
M  V30 1127 C 103.751 -0.984641 1.69703 0
M  V30 1128 O 102.876 -1.76743 1.24863 0
M  V30 1129 C 103.471 0.894727 3.26772 0
M  V30 1130 C 102.03 0.600629 3.71577 0
M  V30 1131 C 101.177 1.10091 2.5451 0
M  V30 1132 H 104.128 1.03116 1.20635 0
M  V30 1133 H 104.149 0.206347 3.7994 0
M  V30 1134 H 103.661 1.97287 3.34215 0
M  V30 1135 H 101.762 -0.467284 3.69658 0
M  V30 1136 H 101.875 1.15863 4.64879 0
M  V30 1137 H 100.239 0.52162 2.49301 0
M  V30 1138 H 101.022 2.18591 2.64713 0
M  V30 1139 N 103.467 -1.45747 0.599634 0
M  V30 1140 C 104.43 -2.28917 -0.113835 0
M  V30 1141 C 105.43 -1.3933 -0.802729 0
M  V30 1142 O 106.62 -1.61534 -0.652103 0
M  V30 1143 C 103.752 -3.20152 -1.17114 0
M  V30 1144 H 104.945 -2.93478 0.617289 0
M  V30 1145 H 102.498 -1.52137 0.358327 0
M  V30 1146 H 103.233 -2.60374 -1.93329 0
M  V30 1147 H 103.018 -3.86133 -0.681468 0
M  V30 1148 H 104.508 -3.82708 -1.67105 0
M  V30 1149 N 104.945 -0.338344 -1.53925 0
M  V30 1150 C 106.175 0.260919 -2.04946 0
M  V30 1151 C 106.583 1.45174 -1.2133 0
M  V30 1152 O 105.926 1.82122 -0.240262 0
M  V30 1153 C 105.988 0.744596 -3.51704 0
M  V30 1154 C 105.652 -0.325883 -4.55837 0
M  V30 1155 C 106.649 -1.16687 -5.06636 0
M  V30 1156 C 104.334 -0.478317 -5.00017 0
M  V30 1157 C 106.328 -2.14588 -6.00192 0
M  V30 1158 C 104.015 -1.46073 -5.93385 0
M  V30 1159 C 105.013 -2.29297 -6.4336 0
M  V30 1160 O 104.701 -3.25867 -7.34892 0
M  V30 1161 H 104.433 0.0551207 -0.673749 0
M  V30 1162 H 106.987 -0.486984 -1.99544 0
M  V30 1163 H 105.217 1.54366 -3.54553 0
M  V30 1164 H 106.906 1.26383 -3.85723 0
M  V30 1165 H 107.672 -1.06016 -4.73271 0
M  V30 1166 H 103.551 0.159613 -4.60724 0
M  V30 1167 H 107.095 -2.79585 -6.39123 0
M  V30 1168 H 102.992 -1.56802 -6.26166 0
M  V30 1169 H 103.76 -3.21278 -7.5281 0
M  V30 1170 N 106.423 1.57458 -0.0668435 0
M  V30 1171 C 107.37 2.12439 0.902122 0
M  V30 1172 C 108.34 1.03565 1.2986 0
M  V30 1173 O 109.525 1.312 1.38532 0
M  V30 1174 C 106.665 2.6865 2.16614 0
M  V30 1175 C 105.778 3.91663 1.82274 0
M  V30 1176 C 104.913 4.36134 3.0325 0
M  V30 1177 C 103.952 5.51808 2.64904 0
M  V30 1178 N 103.089 5.9126 3.78624 0
M  V30 1179 H 107.929 2.94934 0.426382 0
M  V30 1180 H 105.466 1.4575 0.198819 0
M  V30 1181 H 107.424 2.99346 2.90599 0
M  V30 1182 H 106.054 1.88928 2.61737 0
M  V30 1183 H 105.106 3.6746 0.983719 0
M  V30 1184 H 106.418 4.75693 1.50059 0
M  V30 1185 H 105.572 4.68465 3.85519 0
M  V30 1186 H 104.311 3.50948 3.38655 0
M  V30 1187 H 103.316 5.19133 1.81055 0
M  V30 1188 H 104.541 6.38722 2.30675 0
M  V30 1189 H 102.487 5.09024 4.138 0
M  V30 1190 H 102.404 6.70018 3.5016 0
M  V30 1191 H 103.672 6.28212 4.61486 0
M  V30 1192 N 107.901 -0.206675 1.56239 0
M  V30 1193 C 109.149 -0.927007 1.79586 0
M  V30 1194 C 109.47 -1.8427 0.637929 0
M  V30 1195 O 108.74 -1.92849 -0.344398 0
M  V30 1196 H 107.32 -0.345292 0.662407 0
M  V30 1197 H 109.982 -0.21496 1.93711 0
M  V30 1198 H 109.078 -1.52501 2.72305 0
M  V30 1199 N 109.379 -1.50304 -0.473955 0
M  V30 1200 C 110.628 -1.60392 -1.22301 0
M  V30 1201 C 110.941 -0.308411 -1.93153 0
M  V30 1202 O 112.147 -0.288156 -2.69966 0
M  V30 1203 C 110.603 -2.83109 -2.2221 0
M  V30 1204 C 110.211 -4.19524 -1.57173 0
M  V30 1205 C 111.955 -3.0254 -2.97775 0
M  V30 1206 C 109.862 -5.33431 -2.55353 0
M  V30 1207 H 108.792 -0.597286 -0.460179 0
M  V30 1208 H 111.443 -1.76731 -0.493803 0
M  V30 1209 H 109.825 -2.60322 -2.9841 0
M  V30 1210 H 110.999 -4.52554 -0.867824 0
M  V30 1211 H 109.314 -4.05674 -0.939002 0
M  V30 1212 H 111.911 -3.84811 -3.71248 0
M  V30 1213 H 112.254 -2.14154 -3.56992 0
M  V30 1214 H 112.787 -3.25494 -2.28688 0
M  V30 1215 H 109.526 -6.23962 -2.00878 0
M  V30 1216 H 109.046 -5.04823 -3.23904 0
M  V30 1217 H 110.725 -5.63887 -3.17239 0
M  V30 1218 N 110.857 0.726932 -1.39834 0
M  V30 1219 C 112.268 1.30558 -1.3346 0
M  V30 1220 C 112.619 1.962 -0.00273003 0
M  V30 1221 O 111.744 1.96826 0.899371 0
M  V30 1222 C 112.339 2.37404 -2.41713 0
M  V30 1223 C 110.898 2.90921 -2.38835 0
M  V30 1224 C 110.045 1.64578 -2.2318 0
M  V30 1225 H 112.996 0.523862 -1.49804 0
M  V30 1226 H 113.017 3.17984 -2.08966 0
M  V30 1227 H 112.529 1.89599 -3.38635 0
M  V30 1228 H 110.63 3.42985 -1.45575 0
M  V30 1229 H 110.743 3.43487 -3.33997 0
M  V30 1230 H 109.107 1.89219 -1.70494 0
M  V30 1231 H 109.89 1.18814 -3.22084 0
M  V30 1232 N 112.336 1.25143 0.95797 0
M  V30 1233 C 113.585 1.0909 1.69654 0
M  V30 1234 C 113.898 -0.368548 1.92097 0
M  V30 1235 O 115.104 -0.649455 2.63618 0
M  V30 1236 C 113.56 1.90395 3.05414 0
M  V30 1237 C 113.168 3.4081 2.90779 0
M  V30 1238 C 114.912 1.82901 3.83076 0
M  V30 1239 C 112.819 4.14423 4.21909 0
M  V30 1240 H 111.749 0.404625 0.636235 0
M  V30 1241 H 114.4 1.4931 1.06672 0
M  V30 1242 H 112.782 1.42996 3.69281 0
M  V30 1243 H 113.956 3.95859 2.35865 0
M  V30 1244 H 112.271 3.49361 2.26575 0
M  V30 1245 H 114.868 2.35196 4.80195 0
M  V30 1246 H 115.211 0.796224 4.08615 0
M  V30 1247 H 115.744 2.28033 3.25954 0
M  V30 1248 H 112.483 5.18102 4.01561 0
M  V30 1249 H 112.003 3.64159 4.76601 0
M  V30 1250 H 113.682 4.21956 4.90471 0
M  V30 1251 N 113.814 -1.1601 1.06675 0
M  V30 1252 C 114.777 -2.18724 0.685001 0
M  V30 1253 C 115.777 -1.58496 -0.271246 0
M  V30 1254 O 116.967 -1.74119 -0.0531156 0
M  V30 1255 C 114.099 -3.40899 0.00853648 0
M  V30 1256 H 115.292 -2.54011 1.59431 0
M  V30 1257 H 112.845 -1.30352 0.862441 0
M  V30 1258 H 113.58 -3.11173 -0.913337 0
M  V30 1259 H 113.365 -3.8587 0.696204 0
M  V30 1260 H 114.855 -4.16886 -0.24414 0
M  V30 1261 N 115.292 -0.849877 -1.32721 0
M  V30 1262 C 116.52 -0.464754 -2.01613 0
M  V30 1263 C 116.935 0.937191 -1.63897 0
M  V30 1264 O 116.292 1.61081 -0.857856 0
M  V30 1265 C 116.343 -0.588638 -3.56675 0
M  V30 1266 O 116.064 -1.93535 -3.93034 0
M  V30 1267 C 117.565 -0.2019 -4.4284 0
M  V30 1268 H 114.785 -0.183215 -0.645502 0
M  V30 1269 H 117.329 -1.1455 -1.69407 0
M  V30 1270 H 115.484 0.0443159 -3.87375 0
M  V30 1271 H 115.898 -1.92871 -4.87751 0
M  V30 1272 H 117.372 -0.339599 -5.50954 0
M  V30 1273 H 117.849 0.857224 -4.30753 0
M  V30 1274 H 118.455 -0.809733 -4.17521 0
M  V30 1275 N 116.77 1.45427 -0.607355 0
M  V30 1276 C 117.998 2.06614 -0.108814 0
M  V30 1277 C 118.413 1.45204 1.2067 0
M  V30 1278 O 117.77 0.566132 1.73497 0
M  V30 1279 C 117.821 3.61481 0.0375347 0
M  V30 1280 O 117.542 4.20598 -1.22593 0
M  V30 1281 C 119.043 4.39652 0.567561 0
M  V30 1282 H 116.263 0.66747 -0.0687351 0
M  V30 1283 H 118.807 1.86675 -0.835022 0
M  V30 1284 H 116.962 3.80762 0.714068 0
M  V30 1285 H 117.376 5.1377 -1.05547 0
M  V30 1286 H 118.85 5.48518 0.61905 0
M  V30 1287 H 119.327 4.09417 1.58978 0
M  V30 1288 H 119.933 4.25234 -0.0749202 0
M  V30 1289 N 118.248 0.346503 1.53744 0
M  V30 1290 C 119.476 -0.25041 2.05379 0
M  V30 1291 C 119.891 -1.43979 1.22129 0
M  V30 1292 O 119.248 -1.80677 0.257321 0
M  V30 1293 C 119.299 -0.662575 3.55376 0
M  V30 1294 O 119.02 0.479515 4.35468 0
M  V30 1295 C 120.521 -1.31989 4.23195 0
M  V30 1296 H 117.741 -0.0478198 0.669294 0
M  V30 1297 H 120.285 0.499346 1.9831 0
M  V30 1298 H 118.44 -1.36227 3.62658 0
M  V30 1299 H 118.854 0.15037 5.24284 0
M  V30 1300 H 120.328 -1.55902 5.29527 0
M  V30 1301 H 120.805 -2.27436 3.75725 0
M  V30 1302 H 121.411 -0.662154 4.20114 0
M  V30 1303 N 119.726 -1.57421 0.075193 0
M  V30 1304 C 120.689 -2.11791 -0.876203 0
M  V30 1305 C 121.689 -1.04268 -1.22412 0
M  V30 1306 O 122.879 -1.30242 -1.15684 0
M  V30 1307 C 120.011 -2.62207 -2.17854 0
M  V30 1308 H 121.204 -2.9716 -0.40444 0
M  V30 1309 H 118.757 -1.55333 -0.173557 0
M  V30 1310 H 119.492 -1.803 -2.6956 0
M  V30 1311 H 119.277 -3.40802 -1.93897 0
M  V30 1312 H 120.767 -3.04335 -2.85955 0
M  V30 1313 N 121.204 0.198386 -1.56346 0
M  V30 1314 C 122.45 0.920648 -1.80698 0
M  V30 1315 C 122.783 1.83045 -0.648697 0
M  V30 1316 O 122.058 1.91308 0.350925 0
M  V30 1317 C 122.341 1.73971 -3.15287 0
M  V30 1318 C 122.194 0.85485 -4.41602 0
M  V30 1319 C 123.513 2.71296 -3.46535 0
M  V30 1320 H 120.632 0.333261 -0.657348 0
M  V30 1321 H 123.274 0.188198 -1.89066 0
M  V30 1322 H 121.424 2.36416 -3.08285 0
M  V30 1323 H 123.096 0.245362 -4.60647 0
M  V30 1324 H 121.339 0.161398 -4.335 0
M  V30 1325 H 122.01 1.46286 -5.32264 0
M  V30 1326 H 124.486 2.18983 -3.53816 0
M  V30 1327 H 123.362 3.2569 -4.41834 0
M  V30 1328 H 123.623 3.5018 -2.69864 0
M  V30 1329 N 122.682 1.50554 0.465978 0
M  V30 1330 C 123.645 1.69233 1.54574 0
M  V30 1331 C 124.645 0.562901 1.50626 0
M  V30 1332 O 125.835 0.830016 1.53155 0
M  V30 1333 C 122.967 1.7223 2.94193 0
M  V30 1334 H 124.16 2.65571 1.39327 0
M  V30 1335 H 121.713 1.40111 0.692711 0
M  V30 1336 H 122.448 0.77603 3.14878 0
M  V30 1337 H 122.233 2.54285 2.98466 0
M  V30 1338 H 123.723 1.88618 3.72576 0
M  V30 1339 N 124.16 -0.719506 1.40217 0
M  V30 1340 C 125.09 -1.8465 1.42922 0
M  V30 1341 C 126.071 -1.67599 0.29062 0
M  V30 1342 O 127.256 -1.87688 0.498677 0
M  V30 1343 C 124.386 -3.22565 1.28722 0
M  V30 1344 C 123.34 -3.54281 2.40144 0
M  V30 1345 C 122.666 -4.91298 2.11023 0
M  V30 1346 C 123.966 -3.55676 3.82481 0
M  V30 1347 H 125.66 -1.82644 2.37237 0
M  V30 1348 H 123.206 -0.877305 1.1419 0
M  V30 1349 H 125.159 -4.01095 1.29232 0
M  V30 1350 H 123.883 -3.25137 0.308811 0
M  V30 1351 H 122.542 -2.78088 2.38877 0
M  V30 1352 H 122.19 -4.90468 1.11582 0
M  V30 1353 H 121.89 -5.13485 2.8567 0
M  V30 1354 H 123.414 -5.72166 2.13209 0
M  V30 1355 H 124.828 -4.24254 3.85592 0
M  V30 1356 H 123.225 -3.89388 4.56614 0
M  V30 1357 H 124.295 -2.55144 4.12346 0
M  V30 1358 N 125.638 -1.25649 -0.95132 0
M  V30 1359 C 126.601 -1.06399 -2.03007 0
M  V30 1360 C 127.601 -0.0156794 -1.60792 0
M  V30 1361 O 128.791 -0.25817 -1.72276 0
M  V30 1362 C 125.923 -0.616184 -3.35285 0
M  V30 1363 H 127.116 -2.02164 -2.21517 0
M  V30 1364 H 124.669 -1.08103 -1.12887 0
M  V30 1365 H 125.404 0.343917 -3.22471 0
M  V30 1366 H 125.189 -1.37301 -3.67275 0
M  V30 1367 H 126.679 -0.503032 -4.14559 0
M  V30 1368 N 127.117 1.15442 -1.07289 0
M  V30 1369 C 128.027 2.23786 -0.704057 0
M  V30 1370 C 129.043 1.7166 0.284413 0
M  V30 1371 O 130.219 2.00972 0.131205 0
M  V30 1372 C 127.284 3.46535 -0.106792 0
M  V30 1373 C 126.345 4.13654 -1.14842 0
M  V30 1374 C 125.578 5.30544 -0.57956 0
M  V30 1375 O 125.801 5.67187 0.604585 0
M  V30 1376 O 124.735 5.87154 -1.32414 0
M  V30 1377 H 128.561 2.57664 -1.60757 0
M  V30 1378 H 126.146 1.23152 -0.845803 0
M  V30 1379 H 128.028 4.20804 0.224048 0
M  V30 1380 H 126.703 3.14407 0.770049 0
M  V30 1381 H 125.61 3.4131 -1.5316 0
M  V30 1382 H 126.943 4.49861 -1.99714 0
M  V30 1383 N 128.595 0.856903 1.32268 0
M  V30 1384 C 129.545 0.274899 2.26337 0
M  V30 1385 C 130.529 -0.580543 1.50062 0
M  V30 1386 O 131.721 -0.429559 1.71708 0
M  V30 1387 C 128.85 -0.533841 3.39124 0
M  V30 1388 C 127.936 0.334114 4.22782 0
M  V30 1389 N 128.327 1.42143 4.85416 0
M  V30 1390 C 126.625 0.124256 4.45827 0
M  V30 1391 C 127.326 1.95559 5.47843 0
M  V30 1392 N 126.302 1.25444 5.28928 0
M  V30 1393 H 130.104 1.10612 2.72291 0
M  V30 1394 H 127.618 0.703258 1.46383 0
M  V30 1395 H 129.615 -0.96722 4.05525 0
M  V30 1396 H 128.275 -1.36283 2.94715 0
M  V30 1397 H 129.286 1.80436 4.85451 0
M  V30 1398 H 125.963 -0.669837 4.12092 0
M  V30 1399 H 127.353 2.86714 6.07655 0
M  V30 1400 N 130.073 -1.45103 0.615059 0
M  V30 1401 C 131.023 -2.27679 -0.120966 0
M  V30 1402 C 132.007 -1.3775 -0.831491 0
M  V30 1403 O 133.199 -1.61683 -0.720249 0
M  V30 1404 C 130.328 -3.24767 -1.1127 0
M  V30 1405 C 129.414 -4.22184 -0.402627 0
M  V30 1406 N 129.805 -5.02692 0.559884 0
M  V30 1407 C 128.103 -4.4125 -0.649202 0
M  V30 1408 C 128.804 -5.73421 0.977942 0
M  V30 1409 N 127.78 -5.42657 0.320104 0
M  V30 1410 H 131.582 -2.87325 0.618181 0
M  V30 1411 H 129.096 -1.56345 0.439304 0
M  V30 1412 H 131.093 -3.82666 -1.65446 0
M  V30 1413 H 129.753 -2.66682 -1.85232 0
M  V30 1414 H 130.764 -5.09354 0.936976 0
M  V30 1415 H 127.441 -3.9428 -1.37293 0
M  V30 1416 H 128.831 -6.48107 1.77222 0
M  V30 1417 N 131.551 -0.354651 -1.53558 0
M  V30 1418 C 132.828 0.294281 -1.93374 0
M  V30 1419 C 133.208 1.67313 -1.28723 0
M  V30 1420 O 132.556 2.24179 -0.442247 0
M  V30 1421 C 132.766 0.355445 -3.47185 0
M  V30 1422 C 134.114 0.601007 -4.20325 0
M  V30 1423 O 135.138 0.437106 -3.53508 0
M  V30 1424 O 133.997 0.919322 -5.38712 0
M  V30 1425 H 131.091 0.174033 -0.808481 0
M  V30 1426 H 133.637 -0.406638 -1.64756 0
M  V30 1427 H 132.409 -0.611729 -3.86489 0
M  V30 1428 H 132.032 1.1027 -3.82003 0
M  V30 1429 N 133.029 1.57378 -0.0835403 0
M  V30 1430 C 133.976 2.13384 0.879539 0
M  V30 1431 C 134.946 1.04936 1.28754 0
M  V30 1432 O 136.131 1.32662 1.37133 0
M  V30 1433 C 133.271 2.70932 2.13752 0
M  V30 1434 C 132.384 3.93575 1.7811 0
M  V30 1435 C 131.519 4.39326 2.98607 0
M  V30 1436 C 130.558 5.54587 2.59037 0
M  V30 1437 N 129.695 5.95243 3.72331 0
M  V30 1438 H 134.535 2.9537 0.395076 0
M  V30 1439 H 132.072 1.45953 0.183349 0
M  V30 1440 H 134.03 3.02411 2.87408 0
M  V30 1441 H 132.66 1.91693 2.59718 0
M  V30 1442 H 131.712 3.68483 0.94469 0
M  V30 1443 H 133.024 4.77258 1.45005 0
M  V30 1444 H 132.178 4.72528 3.80529 0
M  V30 1445 H 130.917 3.5452 3.34913 0
M  V30 1446 H 129.922 5.21024 1.75539 0
M  V30 1447 H 131.147 6.41133 2.23887 0
M  V30 1448 H 129.093 5.13385 4.08378 0
M  V30 1449 H 129.01 6.73694 3.43034 0
M  V30 1450 H 130.278 6.33072 4.54797 0
M  V30 1451 N 134.507 -0.190092 1.56449 0
M  V30 1452 C 135.784 -0.935886 1.71757 0
M  V30 1453 C 136.164 -2.01173 0.639726 0
M  V30 1454 O 135.512 -2.25827 -0.348502 0
M  V30 1455 C 135.722 -1.51775 3.1427 0
M  V30 1456 C 137.07 -1.99794 3.74656 0
M  V30 1457 O 138.094 -1.61607 3.1743 0
M  V30 1458 O 136.953 -2.70079 4.751 0
M  V30 1459 H 134.047 -0.439229 0.700719 0
M  V30 1460 H 136.593 -0.179395 1.68749 0
M  V30 1461 H 135.365 -0.742505 3.84191 0
M  V30 1462 H 134.988 -2.33894 3.21527 0
M  V30 1463 N 135.985 -1.50799 -0.457987 0
M  V30 1464 C 136.915 -1.73553 -1.5621 0
M  V30 1465 C 137.896 -0.584774 -1.59732 0
M  V30 1466 O 139.081 -0.825314 -1.7579 0
M  V30 1467 C 136.211 -1.84169 -2.94447 0
M  V30 1468 C 135.165 -2.99461 -3.0579 0
M  V30 1469 C 134.491 -2.95235 -4.45803 0
M  V30 1470 C 135.791 -4.39766 -2.81786 0
M  V30 1471 H 137.485 -2.66 -1.37421 0
M  V30 1472 H 135.031 -1.28002 -0.659662 0
M  V30 1473 H 136.984 -1.98672 -3.71628 0
M  V30 1474 H 135.708 -0.883545 -3.14422 0
M  V30 1475 H 134.367 -2.8463 -2.31044 0
M  V30 1476 H 134.015 -1.97239 -4.62715 0
M  V30 1477 H 133.715 -3.72642 -4.54326 0
M  V30 1478 H 135.239 -3.11803 -5.24987 0
M  V30 1479 H 136.653 -4.55054 -3.4871 0
M  V30 1480 H 135.05 -5.18722 -3.0174 0
M  V30 1481 H 136.12 -4.51229 -1.7754 0
M  V30 1482 N 137.463 0.71206 -1.40597 0
M  V30 1483 C 138.874 1.29135 -1.34837 0
M  V30 1484 C 139.225 1.96186 -0.0235395 0
M  V30 1485 O 138.35 1.97768 0.878444 0
M  V30 1486 C 138.945 2.34827 -2.44217 0
M  V30 1487 C 137.504 2.88371 -2.41907 0
M  V30 1488 C 136.651 1.62202 -2.24913 0
M  V30 1489 H 139.602 0.507944 -1.50352 0
M  V30 1490 H 139.623 3.15749 -2.12327 0
M  V30 1491 H 139.135 1.85996 -3.40627 0
M  V30 1492 H 137.236 3.41422 -1.49204 0
M  V30 1493 H 137.349 3.39925 -3.37621 0
M  V30 1494 H 135.713 1.874 -1.72492 0
M  V30 1495 H 136.496 1.15391 -3.23326 0
M  V30 1496 N 138.941 1.26152 0.944643 0
M  V30 1497 C 140.171 1.14094 1.72239 0
M  V30 1498 C 140.579 -0.306931 1.86694 0
M  V30 1499 O 139.922 -1.22222 1.3714 0
M  V30 1500 C 139.984 1.73316 3.14963 0
M  V30 1501 C 139.648 3.2239 3.23904 0
M  V30 1502 C 140.645 4.19252 3.07447 0
M  V30 1503 C 138.33 3.62788 3.47405 0
M  V30 1504 C 140.324 5.54491 3.14353 0
M  V30 1505 C 138.011 4.98162 3.53947 0
M  V30 1506 C 139.009 5.93823 3.37436 0
M  V30 1507 O 138.697 7.26732 3.43679 0
M  V30 1508 H 138.429 0.398292 0.546205 0
M  V30 1509 H 140.983 1.67201 1.19301 0
M  V30 1510 H 139.213 1.14667 3.69308 0
M  V30 1511 H 140.902 1.56214 3.74636 0
M  V30 1512 H 141.668 3.8938 2.8915 0
M  V30 1513 H 137.547 2.88816 3.59313 0
M  V30 1514 H 141.091 6.29137 3.01384 0
M  V30 1515 H 136.988 5.27695 3.71763 0
M  V30 1516 H 137.756 7.3496 3.60245 0
M  V30 1517 N 140.419 -1.14872 1.07899 0
M  V30 1518 C 141.659 -1.8745 0.814965 0
M  V30 1519 C 142.023 -1.80758 -0.64733 0
M  V30 1520 O 143.224 -2.48422 -1.02664 0
M  V30 1521 C 141.495 -3.32286 1.31607 0
M  V30 1522 S 143.054 -4.22537 1.18357 0
M  V30 1523 H 139.872 -0.646833 0.295174 0
M  V30 1524 H 142.474 -1.38555 1.37923 0
M  V30 1525 H 141.178 -3.34703 2.37491 0
M  V30 1526 H 140.709 -3.86238 0.747261 0
M  V30 1527 H 142.724 -4.96044 0.124586 0
M  V30 1528 N 141.898 -0.863906 -1.31812 0
M  V30 1529 C 143.145 -0.471836 -1.96926 0
M  V30 1530 C 143.473 0.974578 -1.68322 0
M  V30 1531 O 142.728 1.7003 -0.968933 0
M  V30 1532 C 143.027 -0.668547 -3.51091 0
M  V30 1533 C 142.693 -2.08683 -3.99703 0
M  V30 1534 C 141.355 -2.47471 -4.12688 0
M  V30 1535 C 143.707 -3.01207 -4.25351 0
M  V30 1536 C 141.035 -3.78037 -4.4867 0
M  V30 1537 C 143.387 -4.31282 -4.62794 0
M  V30 1538 C 142.051 -4.69992 -4.73987 0
M  V30 1539 H 141.321 -0.172657 -0.720604 0
M  V30 1540 H 143.968 -1.09573 -1.57054 0
M  V30 1541 H 142.273 0.0385252 -3.91781 0
M  V30 1542 H 143.97 -0.345102 -3.99512 0
M  V30 1543 H 140.56 -1.77566 -3.90087 0
M  V30 1544 H 144.744 -2.72469 -4.14819 0
M  V30 1545 H 140 -4.078 -4.55532 0
M  V30 1546 H 144.174 -5.03031 -4.81594 0
M  V30 1547 H 141.801 -5.71207 -5.01624 0
M  V30 1548 N 143.376 1.44774 -0.622745 0
M  V30 1549 C 144.324 2.32387 0.0994683 0
M  V30 1550 C 145.318 1.46859 0.844326 0
M  V30 1551 O 146.524 1.63254 0.758174 0
M  V30 1552 H 142.899 0.750273 0.0509291 0
M  V30 1553 H 144.87 2.91062 -0.65767 0
M  V30 1554 C 143.619 3.30723 1.07319 0
M  V30 1555 H 142.942 3.96541 0.509462 0
M  V30 1556 H 144.382 3.94725 1.54817 0
M  V30 1557 C 142.841 2.59021 2.15429 0
M  V30 1558 O 143.371 2.38286 3.23393 0
M  V30 1559 N 141.577 2.189 1.91131 0
M  V30 1560 H 141.124 2.35964 1.03337 0
M  V30 1561 H 141.082 1.71251 2.63668 0
M  V30 1562 N 144.854 0.36279 1.53368 0
M  V30 1563 C 146.27 0.0116182 1.59596 0
M  V30 1564 C 146.47 -1.47012 1.37803 0
M  V30 1565 O 145.526 -2.23136 1.18181 0
M  V30 1566 C 146.839 0.465052 2.97082 0
M  V30 1567 C 148.387 0.419033 3.10182 0
M  V30 1568 C 148.862 0.848235 4.50077 0
M  V30 1569 N 150.353 0.803183 4.56183 0
M  V30 1570 C 151.088 1.107 5.62613 0
M  V30 1571 N 150.584 1.47996 6.76808 0
M  V30 1572 N 152.377 1.02998 5.52583 0
M  V30 1573 H 144.528 1.32775 1.65785 0
M  V30 1574 H 146.791 0.542518 0.777417 0
M  V30 1575 H 146.497 1.49892 3.18159 0
M  V30 1576 H 146.371 -0.149786 3.76902 0
M  V30 1577 H 148.758 -0.605696 2.88817 0
M  V30 1578 H 148.839 1.06933 2.32377 0
M  V30 1579 H 148.483 1.87107 4.7218 0
M  V30 1580 H 148.413 0.175218 5.26308 0
M  V30 1581 H 150.904 0.52838 3.74188 0
M  V30 1582 H 151.217 1.69613 7.53957 0
M  V30 1583 H 149.562 1.51859 6.78206 0
M  V30 1584 H 152.753 0.737817 4.62249 0
M  V30 1585 H 152.926 1.2701 6.35431 0
M  V30 1586 N 146.332 -1.57332 0.0918853 0
M  V30 1587 C 147.279 -2.13847 -0.868211 0
M  V30 1588 C 148.249 -1.05618 -1.28196 0
M  V30 1589 O 149.434 -1.33387 -1.36427 0
M  V30 1590 C 146.574 -2.72062 -2.12312 0
M  V30 1591 C 145.687 -3.94514 -1.7602 0
M  V30 1592 C 144.822 -4.40903 -2.96273 0
M  V30 1593 C 143.861 -5.55953 -2.56092 0
M  V30 1594 N 142.998 -5.97209 -3.69169 0
M  V30 1595 H 147.838 -2.95575 -0.379406 0
M  V30 1596 H 145.375 -1.46048 -0.175606 0
M  V30 1597 H 147.333 -3.03931 -2.858 0
M  V30 1598 H 145.963 -1.93068 -2.58698 0
M  V30 1599 H 145.015 -3.68979 -0.925135 0
M  V30 1600 H 146.327 -4.7802 -1.42472 0
M  V30 1601 H 145.481 -4.74539 -3.78018 0
M  V30 1602 H 144.22 -3.56291 -3.33029 0
M  V30 1603 H 143.225 -5.21948 -1.72773 0
M  V30 1604 H 144.45 -6.42311 -2.20484 0
M  V30 1605 H 142.396 -5.15543 -4.05649 0
M  V30 1606 H 142.313 -6.75504 -3.39456 0
M  V30 1607 H 143.581 -6.35475 -4.51434 0
M  V30 1608 N 147.81 0.181792 -1.56548 0
M  V30 1609 C 148.72 1.24538 -1.98815 0
M  V30 1610 C 149.736 1.49045 -0.897861 0
M  V30 1611 O 150.912 1.61399 -1.20467 0
M  V30 1612 C 147.977 2.56683 -2.33055 0
M  V30 1613 C 147.038 2.40131 -3.55859 0
M  V30 1614 C 146.271 3.65975 -3.88456 0
M  V30 1615 O 146.494 4.70711 -3.22161 0
M  V30 1616 O 145.428 3.6071 -4.81842 0
M  V30 1617 H 149.254 0.916647 -2.89536 0
M  V30 1618 H 146.839 0.387842 -1.44278 0
M  V30 1619 H 148.721 3.34655 -2.56094 0
M  V30 1620 H 147.396 2.89157 -1.45498 0
M  V30 1621 H 146.303 1.60226 -3.38051 0
M  V30 1622 H 147.636 2.12585 -4.43924 0
M  V30 1623 N 149.288 1.51039 0.449983 0
M  V30 1624 C 150.251 1.70863 1.5277 0
M  V30 1625 C 151.251 0.578846 1.5002 0
M  V30 1626 O 152.441 0.846213 1.52266 0
M  V30 1627 C 149.573 1.75341 2.9235 0
M  V30 1628 H 150.766 2.67034 1.36502 0
M  V30 1629 H 148.319 1.40838 0.677812 0
M  V30 1630 H 149.054 0.809383 3.14037 0
M  V30 1631 H 148.839 2.57436 2.95752 0
M  V30 1632 H 150.329 1.92559 3.70555 0
M  V30 1633 N 150.766 -0.704594 1.40972 0
M  V30 1634 C 151.713 -1.81862 1.42109 0
M  V30 1635 C 152.683 -1.63781 0.276593 0
M  V30 1636 O 153.868 -1.84759 0.4763 0
M  V30 1637 C 151.008 -3.19669 1.30022 0
M  V30 1638 C 150.121 -3.49246 2.54267 0
M  V30 1639 C 149.256 -4.76618 2.3454 0
M  V30 1640 C 148.295 -4.99133 3.54306 0
M  V30 1641 N 147.432 -6.17726 3.33706 0
M  V30 1642 H 152.272 -1.80226 2.37324 0
M  V30 1643 H 149.809 -0.880238 1.17857 0
M  V30 1644 H 151.767 -3.99263 1.21018 0
M  V30 1645 H 150.397 -3.20506 0.384192 0
M  V30 1646 H 149.449 -2.64125 2.73756 0
M  V30 1647 H 150.761 -3.61788 3.43381 0
M  V30 1648 H 149.915 -5.64249 2.22952 0
M  V30 1649 H 148.654 -4.66305 1.42867 0
M  V30 1650 H 147.659 -4.09953 3.66359 0
M  V30 1651 H 148.884 -5.11311 4.4692 0
M  V30 1652 H 146.83 -6.08642 2.44725 0
M  V30 1653 H 146.747 -6.30995 4.16391 0
M  V30 1654 H 148.015 -7.08115 3.25873 0
M  V30 1655 N 152.244 -1.26651 -0.937939 0
M  V30 1656 C 153.521 -1.0313 -1.66204 0
M  V30 1657 C 153.901 0.437256 -2.06522 0
M  V30 1658 O 153.249 1.41831 -1.79154 0
M  V30 1659 C 153.459 -1.98314 -2.87181 0
M  V30 1660 C 154.807 -2.27107 -3.58758 0
M  V30 1661 O 155.831 -1.96205 -2.97291 0
M  V30 1662 O 154.69 -2.79736 -4.69479 0
M  V30 1663 H 151.784 -0.392384 -0.727986 0
M  V30 1664 H 154.33 -1.37874 -0.989382 0
M  V30 1665 H 153.102 -2.97399 -2.54302 0
M  V30 1666 H 152.725 -1.64068 -3.6217 0
M  V30 1667 N 153.722 1.14298 -1.08507 0
M  V30 1668 C 154.672 2.17449 -0.685569 0
M  V30 1669 C 155.656 1.58167 0.295315 0
M  V30 1670 O 156.848 1.76675 0.107172 0
M  V30 1671 C 153.977 3.43161 -0.0975318 0
M  V30 1672 C 153.063 4.09471 -1.10426 0
M  V30 1673 N 153.454 4.51089 -2.28806 0
M  V30 1674 C 151.752 4.35976 -0.940258 0
M  V30 1675 C 152.453 5.02654 -2.9277 0
M  V30 1676 N 151.429 4.96927 -2.20374 0
M  V30 1677 H 155.231 2.47369 -1.587 0
M  V30 1678 H 152.745 1.30992 -0.959936 0
M  V30 1679 H 154.742 4.16388 0.20664 0
M  V30 1680 H 153.402 3.14719 0.798872 0
M  V30 1681 H 154.413 4.44097 -2.66455 0
M  V30 1682 H 151.09 4.17386 -0.0977441 0
M  V30 1683 H 152.48 5.44723 -3.93352 0
M  V30 1684 N 155.201 0.870884 1.31352 0
M  V30 1685 C 156.449 0.48132 1.96285 0
M  V30 1686 C 156.77 -0.969813 1.69173 0
M  V30 1687 O 156.04 -1.67998 1.00764 0
M  V30 1688 H 154.62 0.175002 0.726212 0
M  V30 1689 H 157.282 1.11087 1.60143 0
M  V30 1690 H 156.378 0.639825 3.05471 0
M  V30 1691 N 156.679 -1.44442 0.630414 0
M  V30 1692 C 157.589 -2.34476 -0.0761693 0
M  V30 1693 C 158.605 -1.52576 -0.836449 0
M  V30 1694 O 159.781 -1.85307 -0.788874 0
M  V30 1695 C 156.846 -3.30545 -1.04599 0
M  V30 1696 C 155.907 -4.28352 -0.28516 0
M  V30 1697 C 155.14 -5.19831 -1.20878 0
M  V30 1698 O 155.363 -5.15223 -2.44747 0
M  V30 1699 O 154.297 -5.97892 -0.693491 0
M  V30 1700 H 158.123 -2.96345 0.664324 0
M  V30 1701 H 155.708 -1.44203 0.39061 0
M  V30 1702 H 157.59 -3.89681 -1.60396 0
M  V30 1703 H 156.265 -2.7121 -1.76711 0
M  V30 1704 H 155.172 -3.72764 0.315837 0
M  V30 1705 H 156.505 -4.90605 0.395924 0
M  V30 1706 N 158.157 -0.370918 -1.53173 0
M  V30 1707 C 159.405 0.216673 -2.00935 0
M  V30 1708 C 159.726 1.48845 -1.25977 0
M  V30 1709 O 158.996 1.92286 -0.374551 0
M  V30 1710 H 157.576 0.0830565 -0.742368 0
M  V30 1711 H 160.238 -0.49838 -1.8842 0
M  V30 1712 H 159.334 0.439893 -3.08984 0
M  V30 1713 N 159.635 1.57281 -0.100228 0
M  V30 1714 C 160.883 1.94153 0.561157 0
M  V30 1715 C 161.204 0.983157 1.68401 0
M  V30 1716 O 160.474 0.0361132 1.95867 0
M  V30 1717 H 159.054 0.716791 0.210283 0
M  V30 1718 H 161.716 1.94202 -0.164765 0
M  V30 1719 H 160.812 2.96709 0.968008 0
M  V30 1720 N 161.113 -0.173488 1.56642 0
M  V30 1721 C 162.338 -0.910149 1.86363 0
M  V30 1722 C 162.763 -1.75132 0.686318 0
M  V30 1723 O 162.121 -1.77595 -0.364643 0
M  V30 1724 C 162.169 -1.76447 3.14482 0
M  V30 1725 O 161.273 -2.86584 2.96553 0
M  V30 1726 H 160.614 -0.255086 0.613047 0
M  V30 1727 H 163.144 -0.172283 2.03873 0
M  V30 1728 H 163.154 -2.16483 3.45831 0
M  V30 1729 H 161.829 -1.14658 3.99783 0
M  V30 1730 H 160.406 -2.50146 2.76553 0
M  V30 1731 N 162.591 -1.51276 -0.441967 0
M  V30 1732 C 163.521 -1.752 -1.54361 0
M  V30 1733 C 164.502 -0.601682 -1.59103 0
M  V30 1734 O 165.687 -0.843913 -1.74905 0
M  V30 1735 C 162.817 -1.87282 -2.92477 0
M  V30 1736 C 161.771 -3.02687 -3.02596 0
M  V30 1737 C 161.097 -2.99947 -4.42647 0
M  V30 1738 C 162.397 -4.4273 -2.77106 0
M  V30 1739 H 164.091 -2.67442 -1.34592 0
M  V30 1740 H 161.637 -1.28694 -0.646048 0
M  V30 1741 H 163.59 -2.02602 -3.695 0
M  V30 1742 H 162.314 -0.916844 -3.13467 0
M  V30 1743 H 160.973 -2.87065 -2.28012 0
M  V30 1744 H 160.621 -2.02136 -4.60597 0
M  V30 1745 H 160.321 -3.77439 -4.50348 0
M  V30 1746 H 161.845 -3.17354 -5.2165 0
M  V30 1747 H 163.259 -4.58727 -3.43864 0
M  V30 1748 H 161.656 -5.21893 -2.96222 0
M  V30 1749 H 162.726 -4.53087 -1.72744 0
M  V30 1750 N 164.069 0.697108 -1.41344 0
M  V30 1751 C 165.315 1.4593 -1.40827 0
M  V30 1752 C 165.648 1.94193 -0.0167098 0
M  V30 1753 O 164.923 1.69425 0.955263 0
M  V30 1754 C 165.206 2.67229 -2.41373 0
M  V30 1755 C 165.059 2.24741 -3.8963 0
M  V30 1756 C 166.378 3.69423 -2.39196 0
M  V30 1757 H 163.497 0.529303 -0.512842 0
M  V30 1758 H 166.139 0.794112 -1.72609 0
M  V30 1759 H 164.289 3.23982 -2.14401 0
M  V30 1760 H 165.961 1.73327 -4.27499 0
M  V30 1761 H 164.204 1.56542 -4.0457 0
M  V30 1762 H 164.875 3.1177 -4.55525 0
M  V30 1763 H 167.351 3.2234 -2.63128 0
M  V30 1764 H 166.227 4.51907 -3.11563 0
M  V30 1765 H 166.488 4.19012 -1.41001 0
M  V30 1766 N 165.547 1.27147 0.931209 0
M  V30 1767 C 166.795 1.13055 1.6752 0
M  V30 1768 C 167.116 -0.324791 1.92276 0
M  V30 1769 O 166.386 -1.22775 1.52654 0
M  V30 1770 H 164.966 0.415391 0.620854 0
M  V30 1771 H 167.628 1.59623 1.11833 0
M  V30 1772 H 166.724 1.65694 2.64485 0
M  V30 1773 N 167.025 -1.13721 1.09112 0
M  V30 1774 C 168.25 -1.89314 0.847053 0
M  V30 1775 C 168.675 -1.78416 -0.595774 0
M  V30 1776 O 168.033 -1.12942 -1.41823 0
M  V30 1777 C 168.081 -3.3701 1.28284 0
M  V30 1778 O 167.185 -4.10054 0.439267 0
M  V30 1779 H 166.526 -0.588745 0.307044 0
M  V30 1780 H 169.056 -1.43902 1.45442 0
M  V30 1781 H 169.066 -3.87834 1.26683 0
M  V30 1782 H 167.741 -3.4426 2.33363 0
M  V30 1783 H 166.318 -3.69266 0.519312 0
M  V30 1784 N 168.503 -0.877838 -1.30888 0
M  V30 1785 C 169.466 -0.344265 -2.266 0
M  V30 1786 C 170.466 0.50922 -1.52524 0
M  V30 1787 O 171.656 0.317398 -1.71284 0
M  V30 1788 C 168.788 0.510198 -3.37061 0
M  V30 1789 H 169.981 -1.1893 -2.7531 0
M  V30 1790 H 167.534 -0.654088 -1.41956 0
M  V30 1791 H 168.269 1.37612 -2.93655 0
M  V30 1792 H 168.054 -0.101047 -3.9197 0
M  V30 1793 H 169.544 0.875537 -4.08319 0
M  V30 1794 N 169.982 1.44106 -0.638065 0
M  V30 1795 C 170.912 2.33448 0.0494287 0
M  V30 1796 C 171.893 1.48606 0.827672 0
M  V30 1797 O 173.078 1.77308 0.792173 0
M  V30 1798 C 170.208 3.31771 1.02691 0
M  V30 1799 C 169.162 4.26485 0.359823 0
M  V30 1800 C 168.488 5.14729 1.44769 0
M  V30 1801 C 169.788 5.17056 -0.738296 0
M  V30 1802 H 171.482 2.91183 -0.696636 0
M  V30 1803 H 169.028 1.40014 -0.336456 0
M  V30 1804 H 170.981 3.93161 1.51666 0
M  V30 1805 H 169.705 2.7226 1.80395 0
M  V30 1806 H 168.364 3.66437 -0.10934 0
M  V30 1807 H 168.012 4.51566 2.21578 0
M  V30 1808 H 167.712 5.78913 1.00668 0
M  V30 1809 H 169.236 5.78991 1.93911 0
M  V30 1810 H 170.65 5.72342 -0.331354 0
M  V30 1811 H 169.047 5.89879 -1.10286 0
M  V30 1812 H 170.117 4.57652 -1.60258 0
M  V30 1813 N 171.46 0.379036 1.52974 0
M  V30 1814 C 172.392 -0.495963 2.2377 0
M  V30 1815 C 173.405 -1.03517 1.25651 0
M  V30 1816 O 174.594 -0.939249 1.51791 0
M  V30 1817 C 171.694 -1.69894 2.93239 0
M  V30 1818 C 170.867 -1.2889 4.17979 0
M  V30 1819 C 169.926 -2.35543 4.70538 0
M  V30 1820 O 168.952 -1.97375 5.33883 0
M  V30 1821 N 170.154 -3.67318 4.49508 0
M  V30 1822 H 172.919 0.110523 2.99496 0
M  V30 1823 H 170.48 0.204878 1.60598 0
M  V30 1824 H 172.472 -2.40747 3.25304 0
M  V30 1825 H 171.042 -2.212 2.20883 0
M  V30 1826 H 170.262 -0.409676 3.92065 0
M  V30 1827 H 171.55 -0.991443 4.99047 0
M  V30 1828 H 170.948 -4.01095 3.98923 0
M  V30 1829 H 169.505 -4.34235 4.8609 0
M  V30 1830 N 172.938 -1.57226 0.108567 0
M  V30 1831 C 174.186 -1.94448 -0.550853 0
M  V30 1832 C 174.507 -0.992074 -1.67878 0
M  V30 1833 O 173.777 -0.0465 -1.95845 0
M  V30 1834 H 172.357 -0.717897 -0.206479 0
M  V30 1835 H 175.019 -1.94112 0.175062 0
M  V30 1836 H 174.115 -2.97218 -0.952259 0
M  V30 1837 N 174.416 0.165178 -1.56732 0
M  V30 1838 C 175.832 0.517174 -1.50988 0
M  V30 1839 C 176.032 1.84331 -0.813894 0
M  V30 1840 O 175.088 2.49672 -0.37682 0
M  V30 1841 C 176.401 0.544261 -2.95733 0
M  V30 1842 C 177.949 0.631039 -3.06573 0
M  V30 1843 C 178.424 0.68896 -4.52788 0
M  V30 1844 N 179.915 0.751683 -4.5706 0
M  V30 1845 C 180.65 0.817177 -5.67547 0
M  V30 1846 N 180.146 0.843129 -6.8765 0
M  V30 1847 N 181.939 0.856668 -5.55534 0
M  V30 1848 H 174.09 -0.704318 -2.00382 0
M  V30 1849 H 176.353 -0.254687 -0.913148 0
M  V30 1850 H 176.059 -0.361607 -3.49836 0
M  V30 1851 H 175.933 1.3886 -3.5071 0
M  V30 1852 H 178.32 1.52733 -2.52501 0
M  V30 1853 H 178.401 -0.240095 -2.54671 0
M  V30 1854 H 178.045 -0.2031 -5.07494 0
M  V30 1855 H 177.975 1.57633 -5.02454 0
M  V30 1856 H 180.466 0.739661 -3.70591 0
M  V30 1857 H 180.779 0.894448 -7.67606 0
M  V30 1858 H 179.124 0.811304 -6.90248 0
M  V30 1859 H 182.315 0.833437 -4.60621 0
M  V30 1860 H 182.488 0.904247 -6.4166 0
M  V30 1861 N 175.894 1.51508 0.433938 0
M  V30 1862 C 177.14 1.64588 1.18484 0
M  V30 1863 C 177.473 0.362666 1.90784 0
M  V30 1864 O 176.748 -0.637892 1.83742 0
M  V30 1865 C 177.031 2.85149 2.19913 0
M  V30 1866 C 176.884 4.23456 1.51674 0
M  V30 1867 C 178.203 3.01227 3.20858 0
M  V30 1868 H 175.322 0.598994 0.429389 0
M  V30 1869 H 177.964 1.84002 0.473647 0
M  V30 1870 H 176.114 2.68729 2.80566 0
M  V30 1871 H 177.786 4.51552 0.943322 0
M  V30 1872 H 176.029 4.25998 0.819035 0
M  V30 1873 H 176.7 5.03812 2.2556 0
M  V30 1874 H 179.176 3.16382 2.70263 0
M  V30 1875 H 178.052 3.87141 3.89118 0
M  V30 1876 H 178.313 2.13447 3.8716 0
M  V30 1877 N 177.372 -0.689602 1.41712 0
M  V30 1878 C 178.305 -1.81403 1.3845 0
M  V30 1879 C 179.283 -1.60653 0.250874 0
M  V30 1880 O 180.467 -1.83323 0.43874 0
M  V30 1881 C 177.594 -3.18176 1.1611 0
M  V30 1882 C 176.64 -3.57705 2.3227 0
M  V30 1883 S 177.473 -3.61827 3.94767 0
M  V30 1884 C 178.629 -5.01318 3.74742 0
M  V30 1885 H 178.862 -1.83893 2.33603 0
M  V30 1886 H 176.395 -0.858878 1.28307 0
M  V30 1887 H 178.353 -3.97132 1.03907 0
M  V30 1888 H 177.014 -3.13288 0.225668 0
M  V30 1889 H 176.207 -4.57082 2.12349 0
M  V30 1890 H 175.809 -2.86073 2.40911 0
M  V30 1891 H 178.101 -5.88986 3.34817 0
M  V30 1892 H 179.044 -5.26283 4.73743 0
M  V30 1893 H 179.452 -4.73138 3.07898 0
M  V30 1894 N 178.85 -1.27639 -0.924453 0
M  V30 1895 C 179.78 -1.13166 -2.04244 0
M  V30 1896 C 180.761 -0.032256 -1.70069 0
M  V30 1897 O 181.946 -0.207328 -1.9309 0
M  V30 1898 C 179.076 -0.781496 -3.38393 0
M  V30 1899 C 178.03 -1.83449 -3.86692 0
M  V30 1900 C 177.356 -1.33822 -5.17683 0
M  V30 1901 C 178.656 -3.23917 -4.09726 0
M  V30 1902 H 180.35 -2.06689 -2.1661 0
M  V30 1903 H 177.896 -0.995136 -1.04082 0
M  V30 1904 H 179.849 -0.667057 -4.16087 0
M  V30 1905 H 178.573 0.189439 -3.2605 0
M  V30 1906 H 177.232 -1.93789 -3.11193 0
M  V30 1907 H 176.88 -0.35665 -5.01734 0
M  V30 1908 H 176.58 -2.04224 -5.50968 0
M  V30 1909 H 178.104 -1.23679 -5.97943 0
M  V30 1910 H 179.518 -3.16559 -4.77978 0
M  V30 1911 H 177.915 -3.92059 -4.54324 0
M  V30 1912 H 178.985 -3.68729 -3.14908 0
M  V30 1913 N 180.328 1.1314 -1.09713 0
M  V30 1914 C 181.574 1.84757 -0.836224 0
M  V30 1915 C 181.907 1.8347 0.636598 0
M  V30 1916 O 181.182 1.27491 1.46889 0
M  V30 1917 C 181.465 3.32782 -1.37578 0
M  V30 1918 C 181.318 3.42567 -2.91493 0
M  V30 1919 C 182.637 4.28307 -1.01198 0
M  V30 1920 H 179.756 0.67082 -0.305236 0
M  V30 1921 H 182.398 1.3278 -1.35903 0
M  V30 1922 H 180.548 3.77177 -0.931097 0
M  V30 1923 H 182.22 3.06862 -3.44432 0
M  V30 1924 H 180.463 2.83349 -3.28475 0
M  V30 1925 H 181.134 4.46674 -3.24324 0
M  V30 1926 H 183.61 3.91999 -1.39556 0
M  V30 1927 H 182.486 5.30307 -1.41653 0
M  V30 1928 H 182.747 4.42029 0.0794833 0
M  V30 1929 N 181.806 0.884767 1.30421 0
M  V30 1930 C 183.083 0.423185 1.90967 0
M  V30 1931 C 183.463 -1.09605 1.80416 0
M  V30 1932 O 182.811 -1.93126 1.22125 0
M  V30 1933 C 183.021 0.921056 3.36627 0
M  V30 1934 C 184.369 0.955903 4.137 0
M  V30 1935 O 185.393 0.867706 3.4547 0
M  V30 1936 O 184.252 1.08614 5.35598 0
M  V30 1937 H 181.346 0.129369 0.816819 0
M  V30 1938 H 183.892 0.973653 1.3899 0
M  V30 1939 H 182.664 1.96489 3.3839 0
M  V30 1940 H 182.287 0.349741 3.96059 0
M  V30 1941 N 183.284 -1.43765 0.645699 0
M  V30 1942 C 184.561 -1.9541 0.0862963 0
M  V30 1943 C 184.941 -1.58725 -1.39175 0
M  V30 1944 O 184.289 -0.868581 -2.11348 0
M  V30 1945 C 184.499 -3.47488 0.324565 0
M  V30 1946 C 185.847 -4.24001 0.225497 0
M  V30 1947 O 186.871 -3.55274 0.256715 0
M  V30 1948 O 185.73 -5.46313 0.142801 0
M  V30 1949 H 182.824 -0.826882 -0.0139483 0
M  V30 1950 H 185.37 -1.53743 0.718415 0
M  V30 1951 H 184.142 -3.67289 1.3496 0
M  V30 1952 H 183.765 -3.96135 -0.340987 0
M  V30 1953 N 184.763 -0.387143 -1.52771 0
M  V30 1954 C 186.009 0.196025 -2.0185 0
M  V30 1955 C 186.342 1.46641 -1.27319 0
M  V30 1956 O 185.617 1.90889 -0.373032 0
M  V30 1957 C 185.9 0.466136 -3.5707 0
M  V30 1958 C 185.753 -0.819385 -4.42274 0
M  V30 1959 C 187.072 1.25768 -4.21747 0
M  V30 1960 H 184.191 0.0697708 -0.73369 0
M  V30 1961 H 186.833 -0.516286 -1.82851 0
M  V30 1962 H 184.983 1.07293 -3.7339 0
M  V30 1963 H 186.655 -1.4563 -4.37709 0
M  V30 1964 H 184.898 -1.43517 -4.09372 0
M  V30 1965 H 185.569 -0.585065 -5.48891 0
M  V30 1966 H 188.045 0.744167 -4.09391 0
M  V30 1967 H 186.921 1.41541 -5.30337 0
M  V30 1968 H 187.182 2.27228 -3.79236 0
M  V30 1969 N 186.241 1.57166 -0.116904 0
M  V30 1970 C 187.49 1.94298 0.541407 0
M  V30 1971 C 187.803 1.00236 1.67964 0
M  V30 1972 O 189.009 1.26826 2.40057 0
M  V30 1973 C 187.465 3.45306 1.01449 0
M  V30 1974 C 187.073 4.47899 -0.0951738 0
M  V30 1975 C 188.817 3.91361 1.6443 0
M  V30 1976 C 186.724 5.90083 0.394491 0
M  V30 1977 H 185.654 0.725308 0.206019 0
M  V30 1978 H 188.305 1.82446 -0.196419 0
M  V30 1979 H 186.687 3.52385 1.80667 0
M  V30 1980 H 187.861 4.52486 -0.871374 0
M  V30 1981 H 186.176 4.11583 -0.631505 0
M  V30 1982 H 188.773 4.95004 2.02176 0
M  V30 1983 H 189.116 3.3122 2.52189 0
M  V30 1984 H 189.649 3.87073 0.917559 0
M  V30 1985 H 186.388 6.53974 -0.447004 0
M  V30 1986 H 185.908 5.88921 1.13722 0
M  V30 1987 H 187.587 6.41307 0.856399 0
M  V30 1988 N 187.719 -0.156864 1.56817 0
M  V30 1989 C 188.947 -0.886316 1.86955 0
M  V30 1990 C 189.362 -1.75185 0.703975 0
M  V30 1991 O 188.719 -1.79555 -0.326552 0
M  V30 1992 C 188.77 -1.75117 3.16253 0
M  V30 1993 O 188.491 -0.920537 4.2832 0
M  V30 1994 C 189.992 -2.58905 3.59837 0
M  V30 1995 H 187.212 -0.25678 0.619923 0
M  V30 1996 H 189.756 -0.152615 2.0393 0
M  V30 1997 H 187.911 -2.43805 3.01062 0
M  V30 1998 H 188.325 -1.51337 5.02192 0
M  V30 1999 H 189.799 -3.1518 4.53172 0
M  V30 2000 H 190.276 -3.34472 2.84649 0
M  V30 2001 H 190.882 -1.95526 3.7769 0
M  V30 2002 N 189.197 -1.51736 -0.425897 0
M  V30 2003 C 190.16 -1.73271 -1.50032 0
M  V30 2004 C 191.16 -0.602639 -1.4908 0
M  V30 2005 O 192.35 -0.87033 -1.509 0
M  V30 2006 C 189.482 -1.79969 -2.89523 0
M  V30 2007 H 190.675 -2.69172 -1.32237 0
M  V30 2008 H 188.228 -1.41899 -0.65532 0
M  V30 2009 H 188.963 -0.859241 -3.1271 0
M  V30 2010 H 188.748 -2.62109 -2.91619 0
M  V30 2011 H 190.238 -1.9843 -3.67444 0
M  V30 2012 N 190.675 0.682077 -1.42076 0
M  V30 2013 C 191.923 1.4393 -1.41876 0
M  V30 2014 C 192.244 1.94971 -0.0335599 0
M  V30 2015 O 191.514 1.72591 0.926773 0
M  V30 2016 H 190.094 0.534085 -0.522267 0
M  V30 2017 H 192.756 0.806427 -1.77434 0
M  V30 2018 H 191.852 2.29588 -2.11414 0
M  V30 2019 N 192.153 1.28127 0.917671 0
M  V30 2020 C 193.381 1.17892 1.70026 0
M  V30 2021 C 193.796 -0.262958 1.8696 0
M  V30 2022 O 193.153 -1.17811 1.3938 0
M  V30 2023 C 193.204 1.86872 3.09453 0
M  V30 2024 O 192.925 3.25428 2.93306 0
M  V30 2025 C 194.426 1.8289 4.03815 0
M  V30 2026 H 191.646 0.40942 0.531617 0
M  V30 2027 H 194.19 1.69181 1.14883 0
M  V30 2028 H 192.345 1.39464 3.61426 0
M  V30 2029 H 192.759 3.59918 3.81523 0
M  V30 2030 H 194.233 2.35751 4.99125 0
M  V30 2031 H 194.71 0.800412 4.31845 0
M  V30 2032 H 195.316 2.29959 3.57769 0
M  V30 2033 N 193.631 -1.12557 1.10312 0
M  V30 2034 C 194.594 -2.16434 0.75424 0
M  V30 2035 C 195.594 -1.59278 -0.220685 0
M  V30 2036 O 196.784 -1.742 0.00230591 0
M  V30 2037 C 193.916 -3.40699 0.116987 0
M  V30 2038 H 195.109 -2.48811 1.67431 0
M  V30 2039 H 192.662 -1.27542 0.903475 0
M  V30 2040 H 193.397 -3.13921 -0.813877 0
M  V30 2041 H 193.182 -3.83459 0.818613 0
M  V30 2042 H 194.672 -4.17451 -0.111387 0
M  V30 2043 N 195.109 -0.891671 -1.2995 0
M  V30 2044 C 196.358 -0.509521 -1.95158 0
M  V30 2045 C 196.671 0.947388 -1.71125 0
M  V30 2046 O 197.877 1.43669 -2.30372 0
M  V30 2047 C 196.333 -0.860315 -3.49466 0
M  V30 2048 C 195.941 -2.33545 -3.8231 0
M  V30 2049 C 197.685 -0.547687 -4.20952 0
M  V30 2050 C 195.592 -2.62752 -5.29826 0
M  V30 2051 H 194.522 -0.18682 -0.730489 0
M  V30 2052 H 197.173 -1.08756 -1.47798 0
M  V30 2053 H 195.555 -0.211285 -3.95436 0
M  V30 2054 H 196.729 -3.02936 -3.47227 0
M  V30 2055 H 195.044 -2.61629 -3.23944 0
M  V30 2056 H 197.641 -0.742854 -5.29515 0
M  V30 2057 H 197.984 0.51332 -4.13123 0
M  V30 2058 H 198.517 -1.1542 -3.80688 0
M  V30 2059 H 195.256 -3.6762 -5.42712 0
M  V30 2060 H 194.776 -1.97977 -5.66185 0
M  V30 2061 H 196.455 -2.48601 -5.97333 0
M  V30 2062 N 196.587 1.43421 -0.653314 0
M  V30 2063 C 198.003 1.56341 -0.320886 0
M  V30 2064 C 198.203 1.63696 1.17499 0
M  V30 2065 O 197.259 1.59208 1.95982 0
M  V30 2066 C 198.572 2.82424 -1.03233 0
M  V30 2067 C 200.12 2.96168 -1.01259 0
M  V30 2068 C 200.595 4.25084 -1.70492 0
M  V30 2069 N 202.086 4.31948 -1.67257 0
M  V30 2070 C 202.821 5.30466 -2.17701 0
M  V30 2071 N 202.317 6.35261 -2.76434 0
M  V30 2072 N 204.11 5.2212 -2.082 0
M  V30 2073 H 196.261 1.3689 -1.62403 0
M  V30 2074 H 198.524 0.657455 -0.682977 0
M  V30 2075 H 198.23 2.83053 -2.08744 0
M  V30 2076 H 198.104 3.72653 -0.583948 0
M  V30 2077 H 200.491 2.9508 0.0341235 0
M  V30 2078 H 200.572 2.07229 -1.49966 0
M  V30 2079 H 200.216 4.26932 -2.7512 0
M  V30 2080 H 200.146 5.1292 -1.19251 0
M  V30 2081 H 202.637 3.56838 -1.24398 0
M  V30 2082 H 202.95 7.06754 -3.12601 0
M  V30 2083 H 201.295 6.35884 -2.80495 0
M  V30 2084 H 204.486 4.39166 -1.62021 0
M  V30 2085 H 204.659 5.98739 -2.47822 0
M  V30 2086 N 198.065 0.39524 1.52563 0
M  V30 2087 C 198.975 -0.444232 2.30356 0
M  V30 2088 C 199.991 -1.06615 1.37511 0
M  V30 2089 O 201.167 -1.07067 1.70583 0
M  V30 2090 C 198.232 -1.55315 3.09964 0
M  V30 2091 C 197.293 -0.955734 4.18526 0
M  V30 2092 C 196.526 -2.01181 4.9433 0
M  V30 2093 O 196.749 -3.22781 4.70285 0
M  V30 2094 O 195.683 -1.62579 5.79527 0
M  V30 2095 H 199.509 0.189667 3.03107 0
M  V30 2096 H 197.094 0.1588 1.48554 0
M  V30 2097 H 198.976 -2.19724 3.59582 0
M  V30 2098 H 197.651 -2.17191 2.4002 0
M  V30 2099 H 196.558 -0.274743 3.7309 0
M  V30 2100 H 197.891 -0.381109 4.90722 0
M  V30 2101 N 199.544 -1.57102 0.125237 0
M  V30 2102 C 200.769 -2.0019 -0.542101 0
M  V30 2103 C 201.194 -1.00449 -1.59034 0
M  V30 2104 O 200.552 0.0229423 -1.81285 0
M  V30 2105 C 200.6 -3.42129 -1.13929 0
M  V30 2106 O 199.704 -3.45307 -2.2547 0
M  V30 2107 H 199.045 -0.650171 -0.134812 0
M  V30 2108 H 201.575 -2.03461 0.215553 0
M  V30 2109 H 201.585 -3.80471 -1.4733 0
M  V30 2110 H 200.26 -4.14237 -0.371531 0
M  V30 2111 H 198.837 -3.1879 -1.93462 0
M  V30 2112 N 201.022 0.148545 -1.56898 0
M  V30 2113 C 201.955 1.21293 -1.93296 0
M  V30 2114 C 202.933 1.41637 -0.798599 0
M  V30 2115 O 204.117 1.56275 -1.05406 0
M  V30 2116 C 201.244 2.5721 -2.20365 0
M  V30 2117 C 200.29 2.53469 -3.4301 0
M  V30 2118 S 201.123 2.00315 -4.96623 0
M  V30 2119 C 202.279 3.37964 -5.26812 0
M  V30 2120 H 202.512 0.902393 -2.83274 0
M  V30 2121 H 200.045 0.354094 -1.50285 0
M  V30 2122 H 202.003 3.35427 -2.36641 0
M  V30 2123 H 200.664 2.85454 -1.31054 0
M  V30 2124 H 199.857 3.53518 -3.59223 0
M  V30 2125 H 199.459 1.83359 -3.25968 0
M  V30 2126 H 201.751 4.34066 -5.20185 0
M  V30 2127 H 202.694 3.26606 -6.28279 0
M  V30 2128 H 203.102 3.35028 -4.54331 0
M  V30 2129 N 202.5 1.5196 0.417844 0
M  V30 2130 C 203.41 1.77554 1.53336 0
M  V30 2131 C 204.426 0.660655 1.6097 0
M  V30 2132 O 205.602 0.945099 1.77848 0
M  V30 2133 C 202.667 1.91291 2.89152 0
M  V30 2134 C 201.728 3.15183 2.91475 0
M  V30 2135 C 200.961 3.28256 4.20813 0
M  V30 2136 O 201.184 2.46798 5.14244 0
M  V30 2137 O 200.118 4.21356 4.29817 0
M  V30 2138 H 203.944 2.7222 1.34647 0
M  V30 2139 H 201.529 1.36698 0.602828 0
M  V30 2140 H 203.411 2.02199 3.69721 0
M  V30 2141 H 202.086 0.998129 3.07927 0
M  V30 2142 H 200.993 3.09739 2.09791 0
M  V30 2143 H 202.326 4.06414 2.77648 0
M  V30 2144 N 203.978 -0.674533 1.42435 0
M  V30 2145 C 205.227 -1.43034 1.42212 0
M  V30 2146 C 205.54 -1.95555 0.0420788 0
M  V30 2147 O 206.746 -2.71374 -0.0827558 0
M  V30 2148 C 205.202 -2.58748 2.50155 0
M  V30 2149 C 204.81 -2.12925 3.94166 0
M  V30 2150 C 206.554 -3.36257 2.59098 0
M  V30 2151 C 204.461 -3.25723 4.93618 0
M  V30 2152 H 203.391 -0.537345 0.528939 0
M  V30 2153 H 206.042 -0.73024 1.68344 0
M  V30 2154 H 204.424 -3.31128 2.17188 0
M  V30 2155 H 205.598 -1.47697 4.36488 0
M  V30 2156 H 203.913 -1.48354 3.89076 0
M  V30 2157 H 206.51 -4.20264 3.30578 0
M  V30 2158 H 206.853 -3.82866 1.63461 0
M  V30 2159 H 207.386 -2.70947 2.9126 0
M  V30 2160 H 204.125 -2.84105 5.90732 0
M  V30 2161 H 203.645 -3.89732 4.55926 0
M  V30 2162 H 205.324 -3.91186 5.15347 0
M  V30 2163 N 205.456 -1.28612 -0.910864 0
M  V30 2164 C 206.705 -1.15311 -1.65488 0
M  V30 2165 C 207.018 0.296999 -1.93332 0
M  V30 2166 O 208.224 0.551168 -2.65847 0
M  V30 2167 C 206.68 -2.01599 -2.98137 0
M  V30 2168 C 206.288 -3.51367 -2.7793 0
M  V30 2169 C 208.032 -1.96993 -3.76024 0
M  V30 2170 C 205.939 -4.29797 -4.06237 0
M  V30 2171 H 204.869 -0.42796 -0.620779 0
M  V30 2172 H 207.52 -1.53166 -1.01057 0
M  V30 2173 H 205.902 -1.56603 -3.63719 0
M  V30 2174 H 207.076 -4.0434 -2.21011 0
M  V30 2175 H 205.391 -3.57529 -2.13452 0
M  V30 2176 H 207.988 -2.52856 -4.71135 0
M  V30 2177 H 208.331 -0.94733 -4.05378 0
M  V30 2178 H 208.864 -2.39973 -3.17266 0
M  V30 2179 H 205.603 -5.32648 -3.82055 0
M  V30 2180 H 205.123 -3.81596 -4.62757 0
M  V30 2181 H 206.802 -4.39869 -4.74473 0
M  V30 2182 N 206.934 1.1197 -1.10907 0
M  V30 2183 C 207.866 2.17592 -0.720175 0
M  V30 2184 C 208.879 1.60938 0.245495 0
M  V30 2185 O 210.068 1.78476 0.0292245 0
M  V30 2186 C 207.168 3.38873 -0.0427917 0
M  V30 2187 C 206.341 4.25006 -1.03388 0
M  V30 2188 C 205.4 5.24774 -0.387075 0
M  V30 2189 O 204.426 5.59631 -1.03934 0
M  V30 2190 N 205.628 5.74208 0.852407 0
M  V30 2191 H 208.393 2.51567 -1.62893 0
M  V30 2192 H 205.954 1.27439 -0.998543 0
M  V30 2193 H 207.946 4.02703 0.401501 0
M  V30 2194 H 206.516 3.03007 0.768456 0
M  V30 2195 H 205.736 3.57716 -1.65629 0
M  V30 2196 H 207.024 4.79397 -1.70458 0
M  V30 2197 H 206.422 5.48062 1.40161 0
M  V30 2198 H 204.979 6.39901 1.23977 0
M  V30 2199 N 208.412 0.89855 1.29475 0
M  V30 2200 C 209.375 0.380272 2.26023 0
M  V30 2201 C 210.375 -0.484891 1.53315 0
M  V30 2202 O 211.565 -0.290108 1.71767 0
M  V30 2203 C 208.697 -0.45651 3.3783 0
M  V30 2204 H 209.89 1.23295 2.73383 0
M  V30 2205 H 207.443 0.676589 1.40897 0
M  V30 2206 H 208.178 -1.32922 2.95808 0
M  V30 2207 H 207.963 0.163393 3.91759 0
M  V30 2208 H 209.453 -0.810466 4.0966 0
M  V30 2209 N 209.89 -1.43072 0.660911 0
M  V30 2210 C 210.84 -2.27948 -0.04847 0
M  V30 2211 C 211.824 -1.40325 -0.787246 0
M  V30 2212 O 213.016 -1.63893 -0.668446 0
M  V30 2213 C 210.145 -3.28143 -1.00881 0
M  V30 2214 C 209.231 -4.23252 -0.268108 0
M  V30 2215 N 209.622 -5.00656 0.719528 0
M  V30 2216 C 207.92 -4.43092 -0.508493 0
M  V30 2217 C 208.621 -5.70019 1.15988 0
M  V30 2218 N 207.597 -5.41364 0.492584 0
M  V30 2219 H 211.399 -2.85213 0.709279 0
M  V30 2220 H 208.913 -1.54869 0.488822 0
M  V30 2221 H 210.91 -3.87736 -1.53188 0
M  V30 2222 H 209.57 -2.7244 -1.76654 0
M  V30 2223 H 210.581 -5.06115 1.09855 0
M  V30 2224 H 207.258 -3.98449 -1.24679 0
M  V30 2225 H 208.648 -6.4214 1.97751 0
M  V30 2226 N 211.368 -0.403325 -1.52352 0
M  V30 2227 C 212.616 0.174003 -2.0135 0
M  V30 2228 C 212.937 1.46139 -1.29106 0
M  V30 2229 O 212.207 1.91448 -0.415253 0
M  V30 2230 H 210.787 0.0672911 -0.743963 0
M  V30 2231 H 213.449 -0.538235 -1.87321 0
M  V30 2232 H 212.545 0.374254 -3.09848 0
M  V30 2233 N 212.846 1.57033 -0.133567 0
M  V30 2234 C 213.809 2.14897 0.796995 0
M  V30 2235 C 214.809 1.0874 1.18458 0
M  V30 2236 O 215.999 1.34446 1.1077 0
M  V30 2237 C 213.131 2.70112 2.07973 0
M  V30 2238 H 214.324 2.98457 0.293873 0
M  V30 2239 H 211.877 1.55871 0.115787 0
M  V30 2240 H 212.612 1.9018 2.62682 0
M  V30 2241 H 212.397 3.47764 1.81115 0
M  V30 2242 H 213.887 3.14738 2.74462 0
M  V30 2243 N 214.325 -0.140222 1.56975 0
M  V30 2244 C 215.553 -0.866437 1.87884 0
M  V30 2245 C 215.968 -1.74428 0.722517 0
M  V30 2246 O 215.325 -1.79891 -0.30749 0
M  V30 2247 C 215.376 -1.71753 3.18093 0
M  V30 2248 O 215.097 -0.875056 4.29272 0
M  V30 2249 C 216.598 -2.55074 3.62563 0
M  V30 2250 H 213.818 -0.25019 0.622612 0
M  V30 2251 H 216.362 -0.130977 2.0408 0
M  V30 2252 H 214.517 -2.40598 3.03631 0
M  V30 2253 H 214.931 -1.46002 5.03769 0
M  V30 2254 H 216.405 -3.10356 4.5649 0
M  V30 2255 H 216.882 -3.31434 2.88181 0
M  V30 2256 H 217.488 -1.91509 3.79743 0
M  V30 2257 N 215.803 -1.52179 -0.40978 0
M  V30 2258 C 216.733 -1.78435 -1.5061 0
M  V30 2259 C 217.714 -0.635295 -1.57791 0
M  V30 2260 O 218.899 -0.880823 -1.73076 0
M  V30 2261 C 216.029 -1.93444 -2.88439 0
M  V30 2262 C 214.983 -3.09038 -2.96108 0
M  V30 2263 C 214.309 -3.09268 -4.36185 0
M  V30 2264 C 215.609 -4.48508 -2.67652 0
M  V30 2265 H 217.303 -2.70237 -1.28889 0
M  V30 2266 H 214.849 -1.30036 -0.618605 0
M  V30 2267 H 216.802 -2.10394 -3.65119 0
M  V30 2268 H 215.526 -0.983129 -3.11452 0
M  V30 2269 H 214.185 -2.91837 -2.21872 0
M  V30 2270 H 213.833 -2.11861 -4.56206 0
M  V30 2271 H 213.533 -3.86907 -4.42241 0
M  V30 2272 H 215.057 -3.28348 -5.14801 0
M  V30 2273 H 216.471 -4.65918 -3.34056 0
M  V30 2274 H 214.868 -5.28059 -2.85085 0
M  V30 2275 H 215.938 -4.56649 -1.63095 0
M  V30 2276 N 217.281 0.66697 -1.42791 0
M  V30 2277 C 218.244 1.76211 -1.46568 0
M  V30 2278 C 219.244 1.56896 -0.352196 0
M  V30 2279 O 220.434 1.63044 -0.613364 0
M  V30 2280 C 217.566 3.14935 -1.30494 0
M  V30 2281 H 218.759 1.74247 -2.44086 0
M  V30 2282 H 216.312 0.877342 -1.29354 0
M  V30 2283 H 217.047 3.2252 -0.339301 0
M  V30 2284 H 216.832 3.30359 -2.11199 0
M  V30 2285 H 218.322 3.94821 -1.36038 0
M  V30 2286 N 218.759 1.29093 0.90403 0
M  V30 2287 C 220.007 1.16583 1.65085 0
M  V30 2288 C 220.328 -0.283933 1.92922 0
M  V30 2289 O 219.598 -1.19509 1.55224 0
M  V30 2290 H 218.178 0.428467 0.611903 0
M  V30 2291 H 220.84 1.61959 1.08422 0
M  V30 2292 H 219.936 1.71266 2.6091 0
M  V30 2293 N 220.237 -1.11381 1.11499 0
M  V30 2294 C 221.483 -1.83403 0.865512 0
M  V30 2295 C 221.816 -1.84459 -0.607329 0
M  V30 2296 O 221.091 -1.29811 -1.44842 0
M  V30 2297 C 221.374 -3.30552 1.42855 0
M  V30 2298 C 221.227 -3.37886 2.96906 0
M  V30 2299 C 222.546 -4.26643 1.08 0
M  V30 2300 H 219.665 -0.665879 0.31587 0
M  V30 2301 H 222.307 -1.30601 1.37998 0
M  V30 2302 H 220.457 -3.75648 0.990985 0
M  V30 2303 H 222.129 -3.01343 3.49271 0
M  V30 2304 H 220.372 -2.78088 3.32941 0
M  V30 2305 H 221.043 -4.41458 3.31389 0
M  V30 2306 H 223.519 -3.89729 1.45775 0
M  V30 2307 H 222.395 -5.27986 1.50072 0
M  V30 2308 H 222.656 -4.42099 -0.00915037 0
M  V30 2309 N 221.715 -0.905404 -1.28997 0
M  V30 2310 C 222.645 -0.404212 -2.29975 0
M  V30 2311 C 223.626 0.523784 -1.61835 0
M  V30 2312 O 224.811 0.433298 -1.89304 0
M  V30 2313 C 221.941 0.364042 -3.45387 0
M  V30 2314 C 220.895 -0.474048 -4.25367 0
M  V30 2315 C 220.221 0.422045 -5.33032 0
M  V30 2316 C 221.521 -1.72696 -4.92923 0
M  V30 2317 H 223.215 -1.24807 -2.72146 0
M  V30 2318 H 220.761 -0.601585 -1.30832 0
M  V30 2319 H 222.714 0.725447 -4.15109 0
M  V30 2320 H 221.438 1.24174 -3.02074 0
M  V30 2321 H 220.097 -0.81786 -3.57361 0
M  V30 2322 H 219.745 1.29804 -4.85963 0
M  V30 2323 H 219.445 -0.135057 -5.87445 0
M  V30 2324 H 220.969 0.779517 -6.05604 0
M  V30 2325 H 222.383 -1.43495 -5.55051 0
M  V30 2326 H 220.78 -2.22582 -5.57295 0
M  V30 2327 H 221.85 -2.45964 -4.17887 0
M  V30 2328 N 223.193 1.4272 -0.668489 0
M  V30 2329 C 224.442 2.00846 -0.185389 0
M  V30 2330 C 224.755 1.53442 1.21305 0
M  V30 2331 O 225.961 2.03944 1.79218 0
M  V30 2332 C 224.417 3.58805 -0.280591 0
M  V30 2333 C 224.025 4.15198 -1.68268 0
M  V30 2334 C 225.769 4.24255 0.14412 0
M  V30 2335 C 223.676 5.655 -1.73099 0
M  V30 2336 H 222.606 0.751145 -0.0655475 0
M  V30 2337 H 225.257 1.63516 -0.832752 0
M  V30 2338 H 223.639 3.93608 0.434553 0
M  V30 2339 H 224.813 3.91866 -2.42441 0
M  V30 2340 H 223.128 3.62176 -2.05469 0
M  V30 2341 H 225.725 5.34547 0.128086 0
M  V30 2342 H 226.068 3.99277 1.17827 0
M  V30 2343 H 226.601 3.94389 -0.519798 0
M  V30 2344 H 223.34 5.95268 -2.74475 0
M  V30 2345 H 222.86 5.90842 -1.03274 0
M  V30 2346 H 224.539 6.29808 -1.48158 0
M  V30 2347 N 224.671 0.411399 1.52136 0
M  V30 2348 C 225.896 -0.165538 2.06738 0
M  V30 2349 C 226.321 -1.379 1.27926 0
M  V30 2350 O 225.679 -1.78628 0.310114 0
M  V30 2351 C 225.727 -0.492124 3.57226 0
M  V30 2352 O 224.831 -1.58276 3.80818 0
M  V30 2353 H 224.172 -0.0132132 0.663869 0
M  V30 2354 H 226.702 0.585253 1.96051 0
M  V30 2355 H 226.712 -0.750104 4.01045 0
M  V30 2356 H 225.387 0.394922 4.14021 0
M  V30 2357 H 223.964 -1.31677 3.48877 0
M  V30 2358 N 226.149 -1.5696 0.141893 0
M  V30 2359 C 227.079 -2.19516 -0.795936 0
M  V30 2360 C 228.06 -1.14187 -1.26077 0
M  V30 2361 O 229.245 -1.42511 -1.31925 0
M  V30 2362 C 226.375 -2.81272 -2.03723 0
M  V30 2363 C 225.329 -3.92384 -1.70936 0
M  V30 2364 C 224.655 -4.41052 -3.02287 0
M  V30 2365 C 225.955 -5.13403 -0.959954 0
M  V30 2366 H 227.649 -2.98138 -0.274596 0
M  V30 2367 H 225.195 -1.43406 -0.130636 0
M  V30 2368 H 227.148 -3.237 -2.69808 0
M  V30 2369 H 225.872 -1.99973 -2.58221 0
M  V30 2370 H 224.531 -3.50566 -1.07232 0
M  V30 2371 H 224.179 -3.56582 -3.54765 0
M  V30 2372 H 223.879 -5.15993 -2.81114 0
M  V30 2373 H 225.403 -4.86146 -3.69451 0
M  V30 2374 H 226.817 -5.52706 -1.52279 0
M  V30 2375 H 225.214 -5.94073 -0.848357 0
M  V30 2376 H 226.284 -4.84875 0.0492434 0
M  V30 2377 N 227.627 0.131896 -1.57047 0
M  V30 2378 C 228.904 0.871495 -1.75112 0
M  V30 2379 C 229.284 1.9866 -0.713949 0
M  V30 2380 O 228.632 2.26965 0.264447 0
M  V30 2381 C 228.842 1.40007 -3.19686 0
M  V30 2382 C 230.19 1.85752 -3.81813 0
M  V30 2383 O 231.214 1.49715 -3.23209 0
M  V30 2384 O 230.073 2.5226 -4.84796 0
M  V30 2385 H 227.167 0.412919 -0.716538 0
M  V30 2386 H 229.713 0.116641 -1.69299 0
M  V30 2387 H 228.485 0.599404 -3.86682 0
M  V30 2388 H 228.108 2.218 -3.29986 0
M  V30 2389 N 229.106 1.52395 0.401703 0
M  V30 2390 C 230.522 1.41363 0.740864 0
M  V30 2391 C 230.722 0.523982 1.94568 0
M  V30 2392 O 229.778 -0.00741204 2.52499 0
M  V30 2393 C 231.091 2.84011 0.987847 0
M  V30 2394 C 232.639 2.93404 1.09011 0
M  V30 2395 C 233.114 4.37036 1.3698 0
M  V30 2396 N 234.605 4.40304 1.43829 0
M  V30 2397 C 235.34 5.48508 1.67112 0
M  V30 2398 N 234.836 6.66819 1.87949 0
M  V30 2399 N 236.629 5.36034 1.69187 0
M  V30 2400 H 228.78 2.08765 -0.391262 0
M  V30 2401 H 231.043 0.941265 -0.112798 0
M  V30 2402 H 230.749 3.51265 0.174835 0
M  V30 2403 H 230.623 3.25502 1.906 0
M  V30 2404 H 233.01 2.26325 1.8937 0
M  V30 2405 H 233.091 2.55359 0.15015 0
M  V30 2406 H 232.735 5.04676 0.571353 0
M  V30 2407 H 232.665 4.72623 2.3224 0
M  V30 2408 H 235.156 3.55024 1.29486 0
M  V30 2409 H 235.469 7.45063 2.05185 0
M  V30 2410 H 233.814 6.6987 1.85199 0
M  V30 2411 H 237.005 4.42579 1.52451 0
M  V30 2412 H 237.178 6.20434 1.86993 0
M  V30 2413 N 230.584 -0.659388 1.43143 0
M  V30 2414 C 231.516 -1.7849 1.43784 0
M  V30 2415 C 232.529 -1.5932 0.334787 0
M  V30 2416 O 233.718 -1.68155 0.598842 0
M  V30 2417 C 230.818 -3.15828 1.22906 0
M  V30 2418 C 229.991 -3.61711 2.45934 0
M  V30 2419 C 229.05 -4.77831 2.20371 0
M  V30 2420 O 228.076 -4.87586 2.93681 0
M  V30 2421 N 229.278 -5.67611 1.21647 0
M  V30 2422 H 232.043 -1.7842 2.40803 0
M  V30 2423 H 229.604 -0.84302 1.3822 0
M  V30 2424 H 231.596 -3.91189 1.03697 0
M  V30 2425 H 230.166 -3.10707 0.343542 0
M  V30 2426 H 229.386 -2.76861 2.80609 0
M  V30 2427 H 230.674 -3.89112 3.27825 0
M  V30 2428 H 230.072 -5.62397 0.610449 0
M  V30 2429 H 228.629 -6.42719 1.08423 0
M  V30 2430 N 232.062 -1.29571 -0.897171 0
M  V30 2431 C 232.972 -1.16808 -2.03453 0
M  V30 2432 C 233.988 -0.0907471 -1.73763 0
M  V30 2433 O 235.164 -0.303312 -1.99103 0
M  V30 2434 C 232.229 -0.848264 -3.36163 0
M  V30 2435 C 231.29 -2.0097 -3.79354 0
M  V30 2436 C 230.523 -1.70505 -5.05731 0
M  V30 2437 O 230.746 -0.62718 -5.66941 0
M  V30 2438 O 229.68 -2.5538 -5.45036 0
M  V30 2439 H 233.506 -2.12325 -2.17144 0
M  V30 2440 H 231.091 -1.09047 -1.02123 0
M  V30 2441 H 232.973 -0.684581 -4.15802 0
M  V30 2442 H 231.648 0.0771071 -3.23608 0
M  V30 2443 H 230.555 -2.22863 -3.00471 0
M  V30 2444 H 231.888 -2.91636 -3.96496 0
M  V30 2445 N 233.54 1.10788 -1.12088 0
M  V30 2446 C 234.956 1.34691 -0.856186 0
M  V30 2447 C 235.156 1.94791 0.515615 0
M  V30 2448 O 234.212 2.18524 1.26505 0
M  V30 2449 C 235.525 2.27208 -1.9697 0
M  V30 2450 C 237.073 2.40755 -2.00016 0
M  V30 2451 C 237.548 3.36598 -3.1059 0
M  V30 2452 N 239.039 3.44164 -3.10008 0
M  V30 2453 C 239.774 4.18284 -3.92206 0
M  V30 2454 N 239.27 4.95322 -4.84384 0
M  V30 2455 N 241.063 4.13865 -3.80357 0
M  V30 2456 H 233.214 0.70144 -2.00483 0
M  V30 2457 H 235.477 0.371405 -0.872217 0
M  V30 2458 H 235.183 1.90251 -2.958 0
M  V30 2459 H 235.057 3.27485 -1.87172 0
M  V30 2460 H 237.444 2.76982 -1.01808 0
M  V30 2461 H 237.525 1.40305 -2.13888 0
M  V30 2462 H 237.169 3.01096 -4.09028 0
M  V30 2463 H 237.099 4.36918 -2.93956 0
M  V30 2464 H 239.59 2.8922 -2.43228 0
M  V30 2465 H 239.903 5.49267 -5.43623 0
M  V30 2466 H 238.248 4.94459 -4.884 0
M  V30 2467 H 241.439 3.52773 -3.07683 0
M  V30 2468 H 241.612 4.71372 -4.44649 0
M  V30 2469 N 235.018 0.912232 1.28515 0
M  V30 2470 C 236.266 0.543523 1.94654 0
M  V30 2471 C 236.587 -0.9155 1.72173 0
M  V30 2472 O 235.857 -1.64708 1.06058 0
M  V30 2473 H 234.437 0.198017 0.720277 0
M  V30 2474 H 237.099 1.16126 1.56527 0
M  V30 2475 H 236.195 0.736684 3.03281 0
M  V30 2476 N 236.496 -1.42363 0.676048 0
M  V30 2477 C 237.912 -1.55811 0.345718 0
M  V30 2478 C 238.112 -1.65544 -1.14879 0
M  V30 2479 O 237.168 -1.62306 -1.93424 0
M  V30 2480 C 238.481 -2.80746 1.07713 0
M  V30 2481 C 240.029 -2.9452 1.05958 0
M  V30 2482 C 240.504 -4.22318 1.77233 0
M  V30 2483 N 241.995 -4.29233 1.74108 0
M  V30 2484 C 242.73 -5.26935 2.26113 0
M  V30 2485 N 242.226 -6.30783 2.86505 0
M  V30 2486 N 244.019 -5.18741 2.1648 0
M  V30 2487 H 236.17 -1.34289 1.6456 0
M  V30 2488 H 238.433 -0.646506 0.69335 0
M  V30 2489 H 238.139 -2.79696 2.13221 0
M  V30 2490 H 238.013 -3.71676 0.64316 0
M  V30 2491 H 240.4 -2.95097 0.0128255 0
M  V30 2492 H 240.481 -2.04817 1.53244 0
M  V30 2493 H 240.125 -4.22502 2.81877 0
M  V30 2494 H 240.055 -5.10958 1.27396 0
M  V30 2495 H 242.546 -3.54814 1.30059 0
M  V30 2496 H 242.859 -7.01691 3.23805 0
M  V30 2497 H 241.204 -6.31341 2.90575 0
M  V30 2498 H 244.395 -4.36533 1.68987 0
M  V30 2499 H 244.568 -5.94721 2.57316 0
M  V30 2500 N 237.974 -0.419461 -1.51915 0
M  V30 2501 C 239.222 0.152637 -2.01523 0
M  V30 2502 C 239.543 1.44762 -1.30649 0
M  V30 2503 O 238.813 1.90997 -0.435535 0
M  V30 2504 H 237.393 0.0593966 -0.744635 0
M  V30 2505 H 240.055 -0.558073 -1.86739 0
M  V30 2506 H 239.151 0.341369 -3.10227 0
M  V30 2507 N 239.452 1.56882 -0.150215 0
M  V30 2508 C 240.362 2.20494 0.801222 0
M  V30 2509 C 241.378 1.19019 1.26927 0
M  V30 2510 O 242.554 1.51607 1.32579 0
M  V30 2511 C 239.619 2.81659 2.02161 0
M  V30 2512 C 238.68 3.9827 1.60249 0
M  V30 2513 C 237.913 4.56508 2.7647 0
M  V30 2514 O 238.136 4.13627 3.92771 0
M  V30 2515 O 237.07 5.46719 2.51757 0
M  V30 2516 H 240.896 3.02315 0.289717 0
M  V30 2517 H 238.481 1.49202 0.0769684 0
M  V30 2518 H 240.363 3.20522 2.73576 0
M  V30 2519 H 239.038 2.02849 2.52258 0
M  V30 2520 H 237.945 3.64117 0.858477 0
M  V30 2521 H 239.278 4.78609 1.14864 0
M  V30 2522 N 240.93 -0.123565 1.57115 0
M  V30 2523 C 242.179 -0.830704 1.83799 0
M  V30 2524 C 242.492 -1.81259 0.735158 0
M  V30 2525 O 243.698 -2.56558 0.888278 0
M  V30 2526 C 242.154 -1.52802 3.25852 0
M  V30 2527 C 241.762 -0.587356 4.44133 0
M  V30 2528 C 243.506 -2.22056 3.61789 0
M  V30 2529 C 241.413 -1.28764 5.77212 0
M  V30 2530 H 240.343 -0.313967 0.685522 0
M  V30 2531 H 242.994 -0.0834359 1.8331 0
M  V30 2532 H 241.376 -2.32175 3.20797 0
M  V30 2533 H 242.55 0.172829 4.60476 0
M  V30 2534 H 240.865 -0.00201892 4.164 0
M  V30 2535 H 243.462 -2.75131 4.58483 0
M  V30 2536 H 243.805 -2.99644 2.88997 0
M  V30 2537 H 244.338 -1.49576 3.68608 0
M  V30 2538 H 241.077 -0.55314 6.53162 0
M  V30 2539 H 240.597 -2.01995 5.64764 0
M  V30 2540 H 242.276 -1.8221 6.20813 0
M  V30 2541 N 242.408 -1.52605 -0.393616 0
M  V30 2542 C 243.633 -1.71592 -1.16495 0
M  V30 2543 C 244.058 -0.43133 -1.83088 0
M  V30 2544 O 243.416 0.612523 -1.7064 0
M  V30 2545 C 243.464 -2.86318 -2.19213 0
M  V30 2546 O 242.568 -2.52969 -3.257 0
M  V30 2547 H 241.909 -0.570734 -0.33935 0
M  V30 2548 H 244.439 -1.99377 -0.459324 0
M  V30 2549 H 244.449 -3.1168 -2.63286 0
M  V30 2550 H 243.124 -3.79511 -1.7013 0
M  V30 2551 H 241.701 -2.38332 -2.86797 0
M  V30 2552 N 243.887 0.651787 -1.4349 0
M  V30 2553 C 244.85 1.74647 -1.48429 0
M  V30 2554 C 245.85 1.56513 -0.368817 0
M  V30 2555 O 247.04 1.62385 -0.630623 0
M  V30 2556 C 244.172 3.13533 -1.33827 0
M  V30 2557 H 245.365 1.71649 -2.4592 0
M  V30 2558 H 242.918 0.863573 -1.30277 0
M  V30 2559 H 243.653 3.22142 -0.37349 0
M  V30 2560 H 243.438 3.28101 -2.14691 0
M  V30 2561 H 244.928 3.93356 -1.40218 0
M  V30 2562 N 245.365 1.30045 0.890287 0
M  V30 2563 C 246.614 1.17929 1.63633 0
M  V30 2564 C 246.927 -0.266204 1.9378 0
M  V30 2565 O 248.133 -0.508804 2.6669 0
M  V30 2566 C 246.589 2.06317 2.94892 0
M  V30 2567 C 246.197 3.55745 2.72305 0
M  V30 2568 C 247.941 2.0295 3.72843 0
M  V30 2569 C 245.848 4.36205 3.99348 0
M  V30 2570 H 244.778 0.437782 0.613892 0
M  V30 2571 H 247.429 1.54754 0.986075 0
M  V30 2572 H 245.811 1.6237 3.61182 0
M  V30 2573 H 246.985 4.07805 2.1455 0
M  V30 2574 H 245.3 3.6088 2.07737 0
M  V30 2575 H 247.897 2.60319 4.67053 0
M  V30 2576 H 248.24 1.0117 4.0382 0
M  V30 2577 H 248.773 2.4499 3.13408 0
M  V30 2578 H 245.512 5.38659 3.73533 0
M  V30 2579 H 245.032 3.8891 4.56628 0
M  V30 2580 H 246.711 4.47362 4.67415 0
M  V30 2581 N 246.843 -1.10192 1.12674 0
M  V30 2582 C 247.775 -2.16418 0.754701 0
M  V30 2583 C 248.788 -1.61309 -0.21986 0
M  V30 2584 O 249.977 -1.785 -0.000826841 0
M  V30 2585 C 247.077 -3.38762 0.096698 0
M  V30 2586 C 246.25 -4.23307 1.10136 0
M  V30 2587 C 245.309 -5.24092 0.470513 0
M  V30 2588 O 244.335 -5.57906 1.12824 0
M  V30 2589 N 245.537 -5.75491 -0.760948 0
M  V30 2590 H 248.302 -2.48943 1.66875 0
M  V30 2591 H 245.863 -1.25834 1.01869 0
M  V30 2592 H 247.855 -4.03291 -0.337384 0
M  V30 2593 H 246.425 -3.04192 -0.720153 0
M  V30 2594 H 245.645 -3.55036 1.71299 0
M  V30 2595 H 246.933 -4.76624 1.78064 0
M  V30 2596 H 246.331 -5.50222 -1.31424 0
M  V30 2597 H 244.888 -6.41792 -1.13781 0
M  V30 2598 N 248.321 -0.919034 -1.28029 0
M  V30 2599 C 249.231 -0.416756 -2.30869 0
M  V30 2600 C 250.247 0.498235 -1.66714 0
M  V30 2601 O 251.423 0.383144 -1.97722 0
M  V30 2602 C 248.488 0.330274 -3.45123 0
M  V30 2603 C 247.549 -0.618578 -4.2482 0
M  V30 2604 C 246.782 0.0928959 -5.33619 0
M  V30 2605 O 247.005 1.31375 -5.55065 0
M  V30 2606 O 245.939 -0.574499 -5.99152 0
M  V30 2607 H 249.765 -1.27043 -2.75851 0
M  V30 2608 H 247.35 -0.684052 -1.3282 0
M  V30 2609 H 249.232 0.751972 -4.14636 0
M  V30 2610 H 247.907 1.1597 -3.02213 0
M  V30 2611 H 246.814 -1.08978 -3.57875 0
M  V30 2612 H 248.147 -1.41497 -4.71423 0
M  V30 2613 N 249.799 1.42003 -0.683588 0
M  V30 2614 C 251.045 2.01712 -0.209825 0
M  V30 2615 C 251.378 1.53968 1.18353 0
M  V30 2616 O 250.653 0.745661 1.79639 0
M  V30 2617 C 250.936 3.59202 -0.254197 0
M  V30 2618 C 250.789 4.17102 -1.68363 0
M  V30 2619 C 252.108 4.38344 0.392709 0
M  V30 2620 H 249.227 0.732891 -0.0777189 0
M  V30 2621 H 251.869 1.68909 -0.87004 0
M  V30 2622 H 250.019 3.87278 0.307954 0
M  V30 2623 H 251.691 3.99946 -2.29871 0
M  V30 2624 H 249.934 3.72597 -2.22157 0
M  V30 2625 H 250.605 5.26249 -1.6663 0
M  V30 2626 H 253.081 4.16011 -0.0859162 0
M  V30 2627 H 251.957 5.47901 0.331063 0
M  V30 2628 H 252.218 4.16887 1.47164 0
M  V30 2629 N 251.277 0.427512 1.51691 0
M  V30 2630 C 252.187 -0.39527 2.31246 0
M  V30 2631 C 253.203 -1.03674 1.39742 0
M  V30 2632 O 254.379 -1.03425 1.72816 0
M  V30 2633 C 251.444 -1.48706 3.13189 0
M  V30 2634 C 250.505 -0.866743 4.20459 0
M  V30 2635 C 249.738 -1.90651 4.98486 0
M  V30 2636 O 249.961 -3.12733 4.77026 0
M  V30 2637 O 248.895 -1.5025 5.82845 0
M  V30 2638 H 252.721 0.253918 3.02637 0
M  V30 2639 H 250.306 0.190274 1.48183 0
M  V30 2640 H 252.188 -2.12047 3.64162 0
M  V30 2641 H 250.863 -2.12051 2.44573 0
M  V30 2642 H 249.77 -0.195544 3.73589 0
M  V30 2643 H 251.103 -0.276934 4.9142 0
M  V30 2644 N 252.755 -1.56801 0.158532 0
M  V30 2645 C 254.171 -1.5837 -0.197774 0
M  V30 2646 C 254.371 -1.17334 -1.63814 0
M  V30 2647 O 253.427 -0.878988 -2.36707 0
M  V30 2648 C 254.74 -3.00615 0.0714459 0
M  V30 2649 C 256.288 -3.12999 0.00864533 0
M  V30 2650 C 256.763 -4.57313 0.250685 0
M  V30 2651 N 258.254 -4.62777 0.198014 0
M  V30 2652 C 258.989 -5.72271 0.359642 0
M  V30 2653 N 258.485 -6.90371 0.579625 0
M  V30 2654 N 260.278 -5.61318 0.296438 0
M  V30 2655 H 252.429 -1.81765 1.09887 0
M  V30 2656 H 254.692 -0.841849 0.435884 0
M  V30 2657 H 254.398 -3.35068 1.06874 0
M  V30 2658 H 254.272 -3.71683 -0.642757 0
M  V30 2659 H 256.659 -2.7838 -0.979217 0
M  V30 2660 H 256.74 -2.44393 0.755359 0
M  V30 2661 H 256.384 -4.92639 1.2357 0
M  V30 2662 H 256.314 -5.24061 -0.516489 0
M  V30 2663 H 258.805 -3.77885 0.0331115 0
M  V30 2664 H 259.118 -7.69689 0.69275 0
M  V30 2665 H 257.463 -6.92264 0.616087 0
M  V30 2666 H 260.654 -4.67932 0.125258 0
M  V30 2667 H 260.827 -6.46599 0.425831 0
M  V30 2668 N 254.233 0.115231 -1.57178 0
M  V30 2669 C 255.51 0.852873 -1.76027 0
M  V30 2670 C 255.89 1.97892 -0.73498 0
M  V30 2671 O 255.238 2.27232 0.24036 0
M  V30 2672 C 255.448 1.36608 -3.21153 0
M  V30 2673 C 256.796 1.81692 -3.83762 0
M  V30 2674 O 257.82 1.46278 -3.24779 0
M  V30 2675 O 256.679 2.47104 -4.87444 0
M  V30 2676 H 253.773 0.405296 -0.720877 0
M  V30 2677 H 256.319 0.0986785 -1.69413 0
M  V30 2678 H 255.091 0.558357 -3.87296 0
M  V30 2679 H 254.714 2.18287 -3.3232 0
M  V30 2680 N 255.711 1.52812 0.385517 0
M  V30 2681 C 256.941 1.71658 1.14966 0
M  V30 2682 C 257.349 0.436253 1.84102 0
M  V30 2683 O 256.692 -0.599313 1.73649 0
M  V30 2684 C 256.754 2.81309 2.23843 0
M  V30 2685 C 256.418 4.22313 1.74644 0
M  V30 2686 C 257.415 5.05352 1.22129 0
M  V30 2687 C 255.1 4.68648 1.80761 0
M  V30 2688 C 257.094 6.32807 0.763838 0
M  V30 2689 C 254.781 5.96086 1.34627 0
M  V30 2690 C 255.779 6.77996 0.825264 0
M  V30 2691 O 255.467 8.03045 0.370669 0
M  V30 2692 H 255.199 0.578022 0.350523 0
M  V30 2693 H 257.753 2.00263 0.456509 0
M  V30 2694 H 255.983 2.48133 2.96592 0
M  V30 2695 H 257.672 2.88524 2.85497 0
M  V30 2696 H 258.438 4.70736 1.16758 0
M  V30 2697 H 254.317 4.04979 2.20256 0
M  V30 2698 H 257.861 6.96689 0.356494 0
M  V30 2699 H 253.758 6.30205 1.39686 0
M  V30 2700 H 254.526 8.17021 0.491829 0
M  V30 2701 N 257.189 -0.644168 1.43834 0
M  V30 2702 C 258.437 -1.40117 1.45642 0
M  V30 2703 C 258.758 -1.94814 0.0852413 0
M  V30 2704 O 258.028 -1.74988 -0.880688 0
M  V30 2705 H 256.608 -0.52005 0.536243 0
M  V30 2706 H 259.27 -0.7591 1.7951 0
M  V30 2707 H 258.366 -2.23902 2.17427 0
M  V30 2708 N 258.668 -1.30515 -0.883378 0
M  V30 2709 C 259.908 -1.20716 -1.64946 0
M  V30 2710 C 260.272 0.234072 -1.90568 0
M  V30 2711 O 261.473 0.455335 -2.64915 0
M  V30 2712 C 259.744 -2.01444 -2.9522 0
M  V30 2713 S 261.303 -2.0836 -3.86175 0
M  V30 2714 H 258.121 -0.430165 -0.566109 0
M  V30 2715 H 260.723 -1.65011 -1.04841 0
M  V30 2716 H 259.427 -3.05268 -2.74298 0
M  V30 2717 H 258.958 -1.57817 -3.60357 0
M  V30 2718 H 260.973 -1.21215 -4.81167 0
M  V30 2719 N 260.146 1.09593 -1.13257 0
M  V30 2720 C 261.093 2.1618 -0.808381 0
M  V30 2721 C 262.063 1.64517 0.228754 0
M  V30 2722 O 263.248 1.9053 0.101381 0
M  V30 2723 C 260.388 3.43973 -0.278675 0
M  V30 2724 C 259.501 4.09545 -1.37466 0
M  V30 2725 C 258.636 5.25088 -0.803479 0
M  V30 2726 C 257.675 5.82579 -1.87799 0
M  V30 2727 N 256.812 6.89486 -1.32488 0
M  V30 2728 H 261.652 2.43254 -1.72138 0
M  V30 2729 H 259.189 1.19392 -0.859294 0
M  V30 2730 H 261.147 4.17174 0.0465583 0
M  V30 2731 H 259.777 3.17223 0.597459 0
M  V30 2732 H 258.829 3.34226 -1.81652 0
M  V30 2733 H 260.141 4.48307 -2.18684 0
M  V30 2734 H 259.295 6.05178 -0.429427 0
M  V30 2735 H 258.034 4.87684 0.0397956 0
M  V30 2736 H 257.039 5.01152 -2.26113 0
M  V30 2737 H 258.264 6.22045 -2.72463 0
M  V30 2738 H 256.21 6.54064 -0.503575 0
M  V30 2739 H 256.127 7.27007 -2.07355 0
M  V30 2740 H 257.395 7.73336 -0.978336 0
M  V30 2741 N 261.624 0.925811 1.2754 0
M  V30 2742 C 262.87 0.566092 1.94739 0
M  V30 2743 C 263.203 -0.890057 1.72603 0
M  V30 2744 O 262.478 -1.63467 1.05399 0
M  V30 2745 C 262.761 0.89054 3.48915 0
M  V30 2746 C 262.614 2.4003 3.80402 0
M  V30 2747 C 263.933 0.395101 4.38323 0
M  V30 2748 H 261.052 0.20714 0.707292 0
M  V30 2749 H 263.694 1.15725 1.50691 0
M  V30 2750 H 261.844 0.387452 3.86563 0
M  V30 2751 H 263.516 2.97494 3.52555 0
M  V30 2752 H 261.759 2.85028 3.2702 0
M  V30 2753 H 262.43 2.57785 4.8811 0
M  V30 2754 H 264.906 0.826241 4.07814 0
M  V30 2755 H 263.782 0.651086 5.45025 0
M  V30 2756 H 264.043 -0.704798 4.36446 0
M  V30 2757 N 263.102 -1.41638 0.69111 0
M  V30 2758 C 264.351 -2.00526 0.217318 0
M  V30 2759 C 264.664 -1.55353 -1.18848 0
M  V30 2760 O 265.87 -2.06769 -1.75951 0
M  V30 2761 C 264.326 -3.58313 0.337639 0
M  V30 2762 C 263.934 -4.12469 1.74852 0
M  V30 2763 C 265.678 -4.24431 -0.0766066 0
M  V30 2764 C 263.585 -5.62675 1.82074 0
M  V30 2765 H 262.515 -0.750008 0.0774893 0
M  V30 2766 H 265.166 -1.6217 0.858661 0
M  V30 2767 H 263.548 -3.9425 -0.371879 0
M  V30 2768 H 264.722 -3.8796 2.48644 0
M  V30 2769 H 263.037 -3.58861 2.11205 0
M  V30 2770 H 265.634 -5.34683 -0.0430284 0
M  V30 2771 H 265.977 -4.01101 -1.1146 0
M  V30 2772 H 266.51 -3.93512 0.582476 0
M  V30 2773 H 263.249 -5.90826 2.83911 0
M  V30 2774 H 262.769 -5.89124 1.12661 0
M  V30 2775 H 264.448 -6.27371 1.58159 0
M  V30 2776 N 264.58 -0.43555 -1.51462 0
M  V30 2777 C 265.805 0.132627 -2.06976 0
M  V30 2778 C 266.23 1.35848 -1.30104 0
M  V30 2779 O 265.588 1.78112 -0.338493 0
M  V30 2780 C 265.636 0.43523 -3.57964 0
M  V30 2781 O 264.74 1.52198 -3.83288 0
M  V30 2782 H 264.081 0.00265 -0.663995 0
M  V30 2783 H 266.611 -0.616369 -1.95095 0
M  V30 2784 H 266.621 0.686206 -4.02188 0
M  V30 2785 H 265.296 -0.460739 -4.1334 0
M  V30 2786 H 263.873 1.2611 -3.50928 0
M  V30 2787 N 266.058 1.56714 -0.166846 0
M  V30 2788 C 267.307 1.95922 0.479318 0
M  V30 2789 C 267.62 1.05529 1.6469 0
M  V30 2790 O 268.826 1.34399 2.35901 0
M  V30 2791 C 267.282 3.48359 0.90412 0
M  V30 2792 C 266.89 4.47369 -0.237621 0
M  V30 2793 C 268.634 3.96394 1.51896 0
M  V30 2794 C 266.541 5.91039 0.206561 0
M  V30 2795 H 265.471 0.731495 0.18284 0
M  V30 2796 H 268.122 1.81728 -0.254363 0
M  V30 2797 H 266.504 3.57955 1.69365 0
M  V30 2798 H 267.678 4.49485 -1.01489 0
M  V30 2799 H 265.993 4.09366 -0.762128 0
M  V30 2800 H 268.59 5.01186 1.86325 0
M  V30 2801 H 268.933 3.39075 2.41524 0
M  V30 2802 H 269.466 3.89796 0.79395 0
M  V30 2803 H 266.205 6.52221 -0.654834 0
M  V30 2804 H 265.725 5.9224 0.949282 0
M  V30 2805 H 267.404 6.43707 0.651939 0
M  V30 2806 N 267.536 -0.106894 1.57237 0
M  V30 2807 C 268.785 -0.811163 1.8467 0
M  V30 2808 C 269.098 -1.80469 0.754342 0
M  V30 2809 O 270.304 -2.55601 0.915439 0
M  V30 2810 C 268.76 -1.49337 3.27454 0
M  V30 2811 C 268.368 -0.540217 4.44731 0
M  V30 2812 C 270.112 -2.18206 3.64124 0
M  V30 2813 C 268.019 -1.22634 5.78545 0
M  V30 2814 H 266.949 -0.306679 0.688813 0
M  V30 2815 H 269.6 -0.0639887 1.83388 0
M  V30 2816 H 267.982 -2.2876 3.23241 0
M  V30 2817 H 269.156 0.221659 4.60267 0
M  V30 2818 H 267.471 0.042146 4.16379 0
M  V30 2819 H 270.068 -2.70253 4.61376 0
M  V30 2820 H 270.411 -2.96562 2.92158 0
M  V30 2821 H 270.944 -1.45658 3.70174 0
M  V30 2822 H 267.683 -0.483832 6.53712 0
M  V30 2823 H 267.203 -1.95993 5.66874 0
M  V30 2824 H 268.882 -1.75615 6.2271 0
M  V30 2825 N 269.014 -1.53014 -0.377408 0
M  V30 2826 C 270.242 -1.72515 -1.14219 0
M  V30 2827 C 270.657 -0.448735 -1.8339 0
M  V30 2828 O 270.014 0.577592 -1.73119 0
M  V30 2829 C 270.065 -2.8826 -2.18148 0
M  V30 2830 O 269.786 -4.10962 -1.51795 0
M  V30 2831 C 271.287 -3.19536 -3.07264 0
M  V30 2832 H 268.507 -0.577301 -0.342001 0
M  V30 2833 H 271.051 -1.99712 -0.439935 0
M  V30 2834 H 269.206 -2.63492 -2.83991 0
M  V30 2835 H 269.62 -4.75693 -2.20945 0
M  V30 2836 H 271.094 -4.03959 -3.76193 0
M  V30 2837 H 271.571 -2.34403 -3.71419 0
M  V30 2838 H 272.177 -3.46186 -2.47053 0
M  V30 2839 N 270.492 0.636531 -1.44174 0
M  V30 2840 C 271.422 1.76003 -1.53444 0
M  V30 2841 C 272.403 1.65619 -0.387841 0
M  V30 2842 O 273.588 1.84461 -0.607257 0
M  V30 2843 C 270.718 3.14511 -1.4731 0
M  V30 2844 C 269.672 3.39677 -2.60391 0
M  V30 2845 C 268.998 4.78159 -2.39308 0
M  V30 2846 C 270.298 3.32772 -4.02567 0
M  V30 2847 H 271.992 1.68501 -2.47483 0
M  V30 2848 H 269.538 0.809237 -1.19111 0
M  V30 2849 H 271.491 3.92878 -1.52397 0
M  V30 2850 H 270.215 3.22783 -0.49785 0
M  V30 2851 H 268.874 2.63688 -2.54684 0
M  V30 2852 H 268.522 4.83128 -1.39988 0
M  V30 2853 H 268.222 4.95956 -3.15122 0
M  V30 2854 H 269.746 5.58762 -2.46205 0
M  V30 2855 H 271.16 4.01051 -4.09672 0
M  V30 2856 H 269.557 3.62104 -4.7854 0
M  V30 2857 H 270.627 2.30669 -4.2652 0
M  V30 2858 N 271.97 1.30982 0.876444 0
M  V30 2859 C 272.917 1.18085 1.98304 0
M  V30 2860 C 273.887 0.0682263 1.6596 0
M  V30 2861 O 275.072 0.239937 1.89285 0
M  V30 2862 C 272.212 0.887475 3.33493 0
M  V30 2863 C 271.325 2.08281 3.78475 0
M  V30 2864 C 270.46 1.72678 5.0235 0
M  V30 2865 C 269.499 2.88657 5.39762 0
M  V30 2866 N 268.636 2.53292 6.54819 0
M  V30 2867 H 273.476 2.1275 2.08666 0
M  V30 2868 H 271.013 1.05839 1.02159 0
M  V30 2869 H 272.971 0.697961 4.1132 0
M  V30 2870 H 271.601 -0.022315 3.22792 0
M  V30 2871 H 270.653 2.3833 2.96484 0
M  V30 2872 H 271.965 2.95108 4.02135 0
M  V30 2873 H 271.119 1.50151 5.87826 0
M  V30 2874 H 269.858 0.830327 4.8058 0
M  V30 2875 H 268.863 3.1184 4.52809 0
M  V30 2876 H 270.088 3.79002 5.63502 0
M  V30 2877 H 268.034 1.66163 6.34607 0
M  V30 2878 H 267.951 3.3365 6.7839 0
M  V30 2879 H 269.219 2.34143 7.43503 0
M  V30 2880 N 273.449 -1.08991 1.13837 0
M  V30 2881 C 274.726 -1.77863 0.813876 0
M  V30 2882 C 275.106 -1.99375 -0.693746 0
M  V30 2883 O 274.454 -1.59875 -1.63255 0
M  V30 2884 C 274.664 -3.0986 1.60586 0
M  V30 2885 C 276.012 -3.84493 1.8014 0
M  V30 2886 O 277.036 -3.19624 1.57222 0
M  V30 2887 O 275.895 -5.00957 2.18413 0
M  V30 2888 H 272.989 -0.771589 0.297624 0
M  V30 2889 H 275.535 -1.15507 1.24323 0
M  V30 2890 H 274.307 -2.89715 2.63022 0
M  V30 2891 H 273.93 -3.79942 1.17173 0
M  V30 2892 N 274.927 -0.932562 -1.27047 0
M  V30 2893 C 275.857 -0.452902 -2.29066 0
M  V30 2894 C 276.838 0.489338 -1.62909 0
M  V30 2895 O 278.023 0.393046 -1.90181 0
M  V30 2896 C 275.153 0.290698 -3.46081 0
M  V30 2897 C 274.107 -0.564168 -4.24265 0
M  V30 2898 C 273.433 0.308886 -5.33807 0
M  V30 2899 C 274.733 -1.83112 -4.89149 0
M  V30 2900 H 276.427 -1.30552 -2.69437 0
M  V30 2901 H 273.973 -0.629201 -1.29526 0
M  V30 2902 H 275.926 0.637233 -4.16554 0
M  V30 2903 H 274.65 1.17738 -3.0464 0
M  V30 2904 H 273.309 -0.893477 -3.55545 0
M  V30 2905 H 272.957 1.19467 -4.88607 0
M  V30 2906 H 272.657 -0.259633 -5.87026 0
M  V30 2907 H 274.181 0.650884 -6.07121 0
M  V30 2908 H 275.595 -1.55236 -5.51883 0
M  V30 2909 H 273.992 -2.34353 -5.52448 0
M  V30 2910 H 275.062 -2.54772 -4.12576 0
M  V30 2911 N 276.405 1.4127 -0.698611 0
M  V30 2912 C 277.654 2.00408 -0.227949 0
M  V30 2913 C 277.967 1.55981 1.18023 0
M  V30 2914 O 279.173 2.07699 1.74852 0
M  V30 2915 C 277.629 3.58129 -0.356636 0
M  V30 2916 C 277.237 4.11536 -1.77037 0
M  V30 2917 C 278.981 4.24466 0.0540969 0
M  V30 2918 C 276.888 5.61701 -1.85055 0
M  V30 2919 H 275.818 0.749586 -0.0814657 0
M  V30 2920 H 278.469 1.61713 -0.867249 0
M  V30 2921 H 276.851 3.94442 0.350965 0
M  V30 2922 H 278.025 3.86636 -2.50698 0
M  V30 2923 H 276.34 3.57736 -2.13105 0
M  V30 2924 H 278.937 5.34698 0.0146723 0
M  V30 2925 H 279.28 4.01687 1.09332 0
M  V30 2926 H 279.813 3.93198 -0.603337 0
M  V30 2927 H 276.552 5.89312 -2.8704 0
M  V30 2928 H 276.072 5.88519 -1.15783 0
M  V30 2929 H 277.751 6.26524 -1.61484 0
M  V30 2930 N 277.883 0.443576 1.51229 0
M  V30 2931 C 278.846 -0.353132 2.26463 0
M  V30 2932 C 279.846 -0.944338 1.3015 0
M  V30 2933 O 281.036 -0.817813 1.5381 0
M  V30 2934 C 278.168 -1.50023 3.06114 0
M  V30 2935 H 279.361 0.3063 2.98332 0
M  V30 2936 H 276.914 0.196902 1.55055 0
M  V30 2937 H 277.649 -2.19553 2.38677 0
M  V30 2938 H 277.434 -1.08241 3.76864 0
M  V30 2939 H 278.924 -2.06296 3.63087 0
M  V30 2940 N 279.361 -1.56624 0.175154 0
M  V30 2941 C 280.591 -2.01082 -0.474283 0
M  V30 2942 C 280.999 -1.05447 -1.57091 0
M  V30 2943 O 280.342 -0.0480595 -1.83637 0
M  V30 2944 C 280.404 -3.41963 -1.10911 0
M  V30 2945 C 280.068 -4.56742 -0.153666 0
M  V30 2946 C 281.065 -5.16076 0.629448 0
M  V30 2947 C 278.75 -5.02277 -0.0483776 0
M  V30 2948 C 280.744 -6.19377 1.50501 0
M  V30 2949 C 278.431 -6.05427 0.830768 0
M  V30 2950 C 279.429 -6.63849 1.60605 0
M  V30 2951 O 279.117 -7.64998 2.47049 0
M  V30 2952 H 278.849 -0.664261 -0.125432 0
M  V30 2953 H 281.403 -2.03549 0.275163 0
M  V30 2954 H 279.633 -3.36422 -1.90676 0
M  V30 2955 H 281.322 -3.70352 -1.66114 0
M  V30 2956 H 282.088 -4.81776 0.558297 0
M  V30 2957 H 277.967 -4.56513 -0.641611 0
M  V30 2958 H 281.511 -6.64906 2.1106 0
M  V30 2959 H 277.408 -6.39151 0.903107 0
M  V30 2960 H 278.176 -7.82336 2.40607 0
M  V30 2961 N 280.839 0.0985539 -1.57292 0
M  V30 2962 C 281.769 1.12064 -2.04851 0
M  V30 2963 C 282.75 1.41981 -0.936767 0
M  V30 2964 O 283.935 1.52071 -1.20781 0
M  V30 2965 C 281.065 2.44144 -2.47004 0
M  V30 2966 C 280.019 2.28643 -3.6181 0
M  V30 2967 C 279.345 3.65869 -3.89929 0
M  V30 2968 C 280.645 1.72986 -4.92822 0
M  V30 2969 H 282.339 0.724979 -2.9049 0
M  V30 2970 H 279.885 0.34729 -1.39749 0
M  V30 2971 H 281.838 3.15914 -2.78884 0
M  V30 2972 H 280.562 2.85639 -1.5836 0
M  V30 2973 H 279.221 1.59318 -3.30172 0
M  V30 2974 H 278.869 4.04885 -2.98458 0
M  V30 2975 H 278.569 3.56344 -4.67218 0
M  V30 2976 H 280.093 4.39112 -4.2428 0
M  V30 2977 H 281.507 2.34593 -5.23105 0
M  V30 2978 H 279.904 1.74229 -5.74251 0
M  V30 2979 H 280.974 0.689007 -4.7998 0
M  V30 2980 N 282.317 1.53212 0.369288 0
M  V30 2981 C 283.227 1.82342 1.47609 0
M  V30 2982 C 284.243 0.711532 1.58787 0
M  V30 2983 O 285.419 1.0012 1.74751 0
M  V30 2984 C 282.484 2.00393 2.8292 0
M  V30 2985 C 281.545 3.24297 2.81301 0
M  V30 2986 C 280.778 3.41478 4.10157 0
M  V30 2987 O 281.001 2.63033 5.06132 0
M  V30 2988 O 279.935 4.34817 4.16194 0
M  V30 2989 H 283.761 2.76366 1.25918 0
M  V30 2990 H 281.346 1.38547 0.559034 0
M  V30 2991 H 283.228 2.13859 3.63101 0
M  V30 2992 H 281.903 1.09559 3.04596 0
M  V30 2993 H 280.81 3.16257 1.99831 0
M  V30 2994 H 282.143 4.15041 2.64578 0
M  V30 2995 N 283.795 -0.628877 1.44509 0
M  V30 2996 C 284.705 -1.7694 1.54044 0
M  V30 2997 C 285.721 -1.68705 0.425987 0
M  V30 2998 O 286.897 -1.89442 0.683656 0
M  V30 2999 C 283.962 -3.13332 1.48405 0
M  V30 3000 C 283.023 -3.33181 2.70719 0
M  V30 3001 C 282.256 -4.63067 2.6534 0
M  V30 3002 O 282.479 -5.44017 1.71469 0
M  V30 3003 O 281.413 -4.85167 3.56226 0
M  V30 3004 H 285.239 -1.71848 2.50403 0
M  V30 3005 H 282.824 -0.790378 1.26781 0
M  V30 3006 H 284.706 -3.94634 1.47791 0
M  V30 3007 H 283.381 -3.1896 0.551898 0
M  V30 3008 H 282.288 -2.51549 2.769 0
M  V30 3009 H 283.621 -3.32416 3.62988 0
M  V30 3010 N 285.273 -1.31445 -0.869486 0
M  V30 3011 C 286.22 -1.19135 -1.97675 0
M  V30 3012 C 287.19 -0.0770266 -1.65921 0
M  V30 3013 O 288.375 -0.249972 -1.89155 0
M  V30 3014 C 285.515 -0.905149 -3.33018 0
M  V30 3015 C 284.628 -2.10285 -3.77365 0
M  V30 3016 C 283.763 -1.75339 -5.01427 0
M  V30 3017 C 282.802 -2.91515 -5.38224 0
M  V30 3018 N 281.939 -2.56762 -6.53466 0
M  V30 3019 H 286.779 -2.13853 -2.07535 0
M  V30 3020 H 284.316 -1.06379 -1.01597 0
M  V30 3021 H 286.274 -0.719765 -4.10944 0
M  V30 3022 H 284.904 0.00519624 -3.228 0
M  V30 3023 H 283.956 -2.39899 -2.95216 0
M  V30 3024 H 285.268 -2.97237 -4.00564 0
M  V30 3025 H 284.422 -1.53266 -5.87022 0
M  V30 3026 H 283.161 -0.855801 -4.80133 0
M  V30 3027 H 282.166 -3.14237 -4.51149 0
M  V30 3028 H 283.391 -3.81985 -5.61484 0
M  V30 3029 H 281.337 -1.69526 -6.33717 0
M  V30 3030 H 281.254 -3.37243 -6.76612 0
M  V30 3031 H 282.522 -2.38083 -7.42251 0
M  V30 3032 N 286.751 1.08385 -1.14413 0
M  V30 3033 C 288.162 1.62258 -0.923535 0
M  V30 3034 C 288.513 1.88691 0.537595 0
M  V30 3035 O 287.638 1.64454 1.40655 0
M  V30 3036 C 288.233 2.94781 -1.67002 0
M  V30 3037 C 286.792 3.45437 -1.495 0
M  V30 3038 C 285.939 2.19668 -1.69238 0
M  V30 3039 H 288.89 0.916086 -1.2959 0
M  V30 3040 H 288.911 3.63229 -1.13334 0
M  V30 3041 H 288.423 2.7551 -2.73342 0
M  V30 3042 H 286.524 3.6981 -0.455097 0
M  V30 3043 H 286.637 4.22173 -2.2651 0
M  V30 3044 H 285.001 2.28849 -1.11804 0
M  V30 3045 H 285.784 2.02905 -2.7692 0
M  V30 3046 N 288.23 0.939286 1.26551 0
M  V30 3047 C 289.507 0.5038 1.89001 0
M  V30 3048 C 289.887 -1.01854 1.84903 0
M  V30 3049 O 289.235 -1.87773 1.30206 0
M  V30 3050 C 289.445 1.063 3.32417 0
M  V30 3051 C 290.793 1.13051 4.09273 0
M  V30 3052 O 291.817 1.01345 3.41479 0
M  V30 3053 O 290.676 1.31233 5.30509 0
M  V30 3054 H 287.77 0.163897 0.810597 0
M  V30 3055 H 290.316 1.03173 1.34735 0
M  V30 3056 H 289.088 2.10665 3.29752 0
M  V30 3057 H 288.711 0.517408 3.94219 0
M  V30 3058 N 289.708 -1.40897 0.706093 0
M  V30 3059 C 290.641 -2.282 -0.00328781 0
M  V30 3060 C 291.619 -1.42816 -0.77732 0
M  V30 3061 O 292.803 -1.72237 -0.765944 0
M  V30 3062 C 289.93 -3.23226 -1.01205 0
M  V30 3063 C 288.976 -4.25222 -0.329955 0
M  V30 3064 S 289.809 -5.27269 0.935298 0
M  V30 3065 C 290.965 -6.25859 -0.0716061 0
M  V30 3066 H 291.198 -2.88016 0.737143 0
M  V30 3067 H 288.731 -1.46191 0.496756 0
M  V30 3068 H 290.689 -3.78503 -1.58888 0
M  V30 3069 H 289.35 -2.62485 -1.72513 0
M  V30 3070 H 288.543 -4.92023 -1.09221 0
M  V30 3071 H 288.145 -3.73595 0.174069 0
M  V30 3072 H 290.437 -6.71204 -0.921521 0
M  V30 3073 H 291.38 -7.0586 0.562765 0
M  V30 3074 H 291.788 -5.62852 -0.431088 0
M  V30 3075 N 291.186 -0.45159 -1.50991 0
M  V30 3076 C 292.149 0.341117 -2.26647 0
M  V30 3077 C 293.149 0.937422 -1.30649 0
M  V30 3078 O 294.339 0.809644 -1.54241 0
M  V30 3079 C 291.471 1.48398 -3.06905 0
M  V30 3080 H 292.664 -0.322117 -2.98165 0
M  V30 3081 H 290.217 -0.205122 -1.54948 0
M  V30 3082 H 290.952 2.18284 -2.39838 0
M  V30 3083 H 290.737 1.06241 -3.77432 0
M  V30 3084 H 292.227 2.04367 -3.64176 0
M  V30 3085 N 292.664 1.56529 -0.183458 0
M  V30 3086 C 293.574 2.22144 0.754272 0
M  V30 3087 C 294.59 1.21684 1.24374 0
M  V30 3088 O 295.766 1.54385 1.29333 0
M  V30 3089 C 292.831 2.85884 1.96141 0
M  V30 3090 C 291.892 4.01579 1.51765 0
M  V30 3091 C 291.125 4.6227 2.66725 0
M  V30 3092 O 291.348 4.21865 3.83909 0
M  V30 3093 O 290.282 5.51936 2.40104 0
M  V30 3094 H 294.108 3.02861 0.225527 0
M  V30 3095 H 291.693 1.49331 0.0453032 0
M  V30 3096 H 293.575 3.26253 2.66715 0
M  V30 3097 H 292.25 2.08154 2.47899 0
M  V30 3098 H 291.157 3.65856 0.781049 0
M  V30 3099 H 292.49 4.80938 1.04686 0
M  V30 3100 N 294.142 -0.090211 1.57342 0
M  V30 3101 C 295.092 -1.11557 1.98844 0
M  V30 3102 C 296.076 -1.35503 0.867624 0
M  V30 3103 O 297.268 -1.36113 1.13148 0
M  V30 3104 C 294.397 -2.43446 2.42051 0
M  V30 3105 C 293.483 -2.22853 3.60828 0
M  V30 3106 N 293.874 -1.72141 4.75606 0
M  V30 3107 C 292.172 -2.53401 3.67021 0
M  V30 3108 C 292.873 -1.65932 5.57531 0
M  V30 3109 N 291.849 -2.11323 5.00843 0
M  V30 3110 H 295.651 -0.716499 2.85032 0
M  V30 3111 H 293.165 -0.297567 1.59651 0
M  V30 3112 H 295.162 -3.17644 2.70014 0
M  V30 3113 H 293.822 -2.84087 1.57241 0
M  V30 3114 H 294.833 -1.41268 4.98261 0
M  V30 3115 H 291.51 -2.97532 2.92884 0
M  V30 3116 H 292.9 -1.27733 6.59647 0
M  V30 3117 N 295.62 -1.53406 -0.361157 0
M  V30 3118 C 296.55 -1.83136 -1.44857 0
M  V30 3119 C 297.531 -0.685174 -1.5569 0
M  V30 3120 O 298.716 -0.93544 -1.70186 0
M  V30 3121 C 295.846 -2.02522 -2.82138 0
M  V30 3122 C 294.8 -3.18302 -2.86126 0
M  V30 3123 C 294.126 -3.22989 -4.26125 0
M  V30 3124 C 295.426 -4.56796 -2.53248 0
M  V30 3125 H 297.12 -2.74201 -1.20226 0
M  V30 3126 H 294.666 -1.31938 -0.576922 0
M  V30 3127 H 296.619 -2.21904 -3.58241 0
M  V30 3128 H 295.343 -1.08172 -3.08166 0
M  V30 3129 H 294.002 -2.98747 -2.12475 0
M  V30 3130 H 293.65 -2.26267 -4.49235 0
M  V30 3131 H 293.35 -4.00781 -4.29708 0
M  V30 3132 H 294.874 -3.44559 -5.04094 0
M  V30 3133 H 296.288 -4.7631 -3.19064 0
M  V30 3134 H 294.685 -5.36862 -2.68141 0
M  V30 3135 H 295.755 -4.61606 -1.48484 0
M  V30 3136 N 297.098 0.621204 -1.44841 0
M  V30 3137 C 298.061 1.71459 -1.521 0
M  V30 3138 C 299.061 1.55696 -0.401933 0
M  V30 3139 O 300.251 1.61011 -0.664925 0
M  V30 3140 C 297.383 3.10624 -1.40447 0
M  V30 3141 H 298.576 1.66394 -2.49506 0
M  V30 3142 H 296.129 0.835745 -1.3208 0
M  V30 3143 H 296.864 3.21277 -0.441737 0
M  V30 3144 H 296.649 3.23473 -2.21602 0
M  V30 3145 H 298.139 3.90293 -1.4853 0
M  V30 3146 N 298.576 1.31904 0.862503 0
M  V30 3147 C 299.539 1.20131 1.95195 0
M  V30 3148 C 300.539 0.126409 1.60302 0
M  V30 3149 O 301.729 0.376234 1.70089 0
M  V30 3150 C 298.861 0.845691 3.30244 0
M  V30 3151 H 300.054 2.16943 2.07064 0
M  V30 3152 H 297.607 1.15622 1.05172 0
M  V30 3153 H 298.342 -0.120957 3.24074 0
M  V30 3154 H 298.127 1.62276 3.56944 0
M  V30 3155 H 299.617 0.787418 4.10109 0
M  V30 3156 N 300.054 -1.07777 1.14986 0
M  V30 3157 C 301.3 -1.80557 0.923422 0
M  V30 3158 C 301.633 -1.86298 -0.548337 0
M  V30 3159 O 300.908 -1.34354 -1.40639 0
M  V30 3160 C 301.191 -3.25839 1.53299 0
M  V30 3161 C 301.044 -3.28269 3.07505 0
M  V30 3162 C 302.363 -4.22991 1.21518 0
M  V30 3163 H 299.482 -0.655493 0.336894 0
M  V30 3164 H 302.124 -1.26144 1.42083 0
M  V30 3165 H 300.274 -3.72306 1.10999 0
M  V30 3166 H 301.946 -2.90079 3.58681 0
M  V30 3167 H 300.189 -2.67355 3.4162 0
M  V30 3168 H 300.86 -4.30691 3.45266 0
M  V30 3169 H 303.336 -3.84894 1.581 0
M  V30 3170 H 302.212 -5.22945 1.66793 0
M  V30 3171 H 302.473 -4.41904 0.131505 0
M  V30 3172 N 301.532 -0.945985 -1.26051 0
M  V30 3173 C 302.948 -0.649045 -1.45807 0
M  V30 3174 C 303.148 0.796158 -1.85104 0
M  V30 3175 O 302.204 1.57233 -1.97571 0
M  V30 3176 C 303.517 -1.61458 -2.53677 0
M  V30 3177 C 305.065 -1.62481 -2.67524 0
M  V30 3178 C 305.54 -2.57776 -3.7857 0
M  V30 3179 N 307.031 -2.5609 -3.85969 0
M  V30 3180 C 307.766 -3.26508 -4.7136 0
M  V30 3181 N 307.262 -4.0637 -5.61102 0
M  V30 3182 N 309.055 -3.15437 -4.65248 0
M  V30 3183 H 301.206 -1.88005 -0.988328 0
M  V30 3184 H 303.469 -0.808198 -0.4955 0
M  V30 3185 H 303.175 -2.64644 -2.31638 0
M  V30 3186 H 303.049 -1.37036 -3.51427 0
M  V30 3187 H 305.436 -0.600167 -2.88933 0
M  V30 3188 H 305.517 -1.90958 -1.70202 0
M  V30 3189 H 305.161 -3.60361 -3.57913 0
M  V30 3190 H 305.091 -2.26587 -4.75359 0
M  V30 3191 H 307.582 -1.98105 -3.21812 0
M  V30 3192 H 307.895 -4.57042 -6.23164 0
M  V30 3193 H 306.24 -4.10469 -5.60839 0
M  V30 3194 H 309.431 -2.52525 -3.94143 0
M  V30 3195 H 309.604 -3.70584 -5.31575 0
M  V30 3196 N 303.011 1.40521 -0.713556 0
M  V30 3197 C 303.974 2.29098 -0.0684347 0
M  V30 3198 C 304.974 1.45268 0.689472 0
M  V30 3199 O 306.164 1.66205 0.521677 0
M  V30 3200 C 303.296 3.28446 0.913024 0
M  V30 3201 H 304.489 2.87645 -0.84855 0
M  V30 3202 H 302.042 1.48809 -0.47809 0
M  V30 3203 H 302.777 2.74913 1.72027 0
M  V30 3204 H 302.562 3.90327 0.372472 0
M  V30 3205 H 304.052 3.94777 1.36165 0
M  V30 3206 N 304.489 0.459591 1.5075 0
M  V30 3207 C 305.719 -0.0972338 2.06371 0
M  V30 3208 C 306.127 -1.35074 1.32483 0
M  V30 3209 O 305.47 -1.79637 0.384226 0
M  V30 3210 C 305.532 -0.462759 3.56509 0
M  V30 3211 C 305.196 0.687084 4.51805 0
M  V30 3212 C 306.193 1.56578 4.95761 0
M  V30 3213 C 303.878 0.874144 4.94635 0
M  V30 3214 C 305.872 2.61604 5.81242 0
M  V30 3215 C 303.559 1.92765 5.79901 0
M  V30 3216 C 304.557 2.79697 6.23104 0
M  V30 3217 O 304.245 3.83235 7.06673 0
M  V30 3218 H 303.977 -0.00140687 0.675999 0
M  V30 3219 H 306.531 0.644011 1.95043 0
M  V30 3220 H 304.761 -1.25703 3.65699 0
M  V30 3221 H 306.45 -0.953323 3.94546 0
M  V30 3222 H 307.216 1.4329 4.6335 0
M  V30 3223 H 303.095 0.207006 4.60535 0
M  V30 3224 H 306.639 3.29489 6.14884 0
M  V30 3225 H 302.536 2.06064 6.11725 0
M  V30 3226 H 303.304 3.80084 7.24899 0
M  V30 3227 N 305.967 -1.56429 0.191757 0
M  V30 3228 C 307.383 -1.58754 -0.164137 0
M  V30 3229 C 307.583 -1.20782 -1.61288 0
M  V30 3230 O 306.639 -0.928999 -2.34789 0
M  V30 3231 C 307.952 -3.00396 0.135195 0
M  V30 3232 C 309.5 -3.1291 0.0750351 0
M  V30 3233 C 309.975 -4.56679 0.347632 0
M  V30 3234 N 311.466 -4.62252 0.296131 0
M  V30 3235 C 312.201 -5.71379 0.480948 0
M  V30 3236 N 311.697 -6.88986 0.725933 0
M  V30 3237 N 313.49 -5.60563 0.415435 0
M  V30 3238 H 305.641 -1.79393 1.13718 0
M  V30 3239 H 307.904 -0.832414 0.453643 0
M  V30 3240 H 307.61 -3.32726 1.13958 0
M  V30 3241 H 307.484 -3.72963 -0.563773 0
M  V30 3242 H 309.871 -2.80394 -0.919948 0
M  V30 3243 H 309.952 -2.42736 0.807029 0
M  V30 3244 H 309.596 -4.89907 1.33992 0
M  V30 3245 H 309.526 -5.25039 -0.405212 0
M  V30 3246 H 312.017 -3.7773 0.113259 0
M  V30 3247 H 312.33 -7.68046 0.855857 0
M  V30 3248 H 310.675 -6.90801 0.762788 0
M  V30 3249 H 313.866 -4.67561 0.224486 0
M  V30 3250 H 314.039 -6.45551 0.562889 0
M  V30 3251 N 307.445 0.0818655 -1.57387 0
M  V30 3252 C 308.355 1.11642 -2.06333 0
M  V30 3253 C 309.371 1.43033 -0.99083 0
M  V30 3254 O 310.547 1.53411 -1.30488 0
M  V30 3255 C 307.612 2.41342 -2.48907 0
M  V30 3256 C 306.673 2.17014 -3.7041 0
M  V30 3257 C 305.906 3.4053 -4.10944 0
M  V30 3258 O 306.129 4.4927 -3.51444 0
M  V30 3259 O 305.063 3.29336 -5.03807 0
M  V30 3260 H 308.889 0.730657 -2.9478 0
M  V30 3261 H 306.474 0.295301 -1.46452 0
M  V30 3262 H 308.356 3.17691 -2.76858 0
M  V30 3263 H 307.031 2.79319 -1.63593 0
M  V30 3264 H 305.938 1.38403 -3.47556 0
M  V30 3265 H 307.271 1.83923 -4.56545 0
M  V30 3266 N 308.923 1.53595 0.353017 0
M  V30 3267 C 309.833 1.83897 1.45667 0
M  V30 3268 C 310.849 0.728334 1.58023 0
M  V30 3269 O 312.025 1.01968 1.73679 0
M  V30 3270 C 309.09 2.03383 2.80778 0
M  V30 3271 C 308.151 3.27262 2.77845 0
M  V30 3272 C 307.384 3.45809 4.06512 0
M  V30 3273 O 307.607 2.68387 5.03314 0
M  V30 3274 O 306.541 4.39207 4.11559 0
M  V30 3275 H 310.367 2.77686 1.2298 0
M  V30 3276 H 307.952 1.39132 0.544308 0
M  V30 3277 H 309.834 2.17698 3.60812 0
M  V30 3278 H 308.509 1.12783 3.03417 0
M  V30 3279 H 307.416 3.18359 1.96465 0
M  V30 3280 H 308.749 4.17824 2.60161 0
M  V30 3281 N 310.401 -0.613514 1.45168 0
M  V30 3282 C 311.648 -1.37268 1.48875 0
M  V30 3283 C 311.976 -1.94077 0.128161 0
M  V30 3284 O 311.231 -1.75178 -0.872416 0
M  V30 3285 C 311.53 -2.54347 2.51083 0
M  V30 3286 C 311.196 -2.1572 3.95949 0
M  V30 3287 C 309.858 -2.04899 4.35396 0
M  V30 3288 C 312.21 -1.85485 4.87078 0
M  V30 3289 C 309.538 -1.62057 5.63875 0
M  V30 3290 C 311.89 -1.4413 6.15962 0
M  V30 3291 C 310.554 -1.31863 6.54346 0
M  V30 3292 H 309.824 -0.502299 0.544773 0
M  V30 3293 H 312.471 -0.694021 1.78481 0
M  V30 3294 H 310.776 -3.27524 2.15024 0
M  V30 3295 H 312.473 -3.12577 2.51191 0
M  V30 3296 H 309.063 -2.25066 3.64751 0
M  V30 3297 H 313.247 -1.92745 4.57343 0
M  V30 3298 H 308.503 -1.51177 5.92415 0
M  V30 3299 H 312.677 -1.19778 6.86022 0
M  V30 3300 H 310.304 -0.984392 7.538 0
M  V30 3301 N 311.879 -1.3236 -0.855495 0
M  V30 3302 C 313.127 -1.22629 -1.60644 0
M  V30 3303 C 313.448 0.212136 -1.93843 0
M  V30 3304 O 312.718 1.13666 -1.59552 0
M  V30 3305 H 311.298 -0.450882 -0.595579 0
M  V30 3306 H 313.96 -1.65871 -1.02337 0
M  V30 3307 H 313.056 -1.80832 -2.54374 0
M  V30 3308 N 313.357 1.07166 -1.15556 0
M  V30 3309 C 314.603 1.80065 -0.932984 0
M  V30 3310 C 314.936 1.86586 0.53845 0
M  V30 3311 O 314.211 1.35098 1.39924 0
M  V30 3312 C 314.494 3.25022 -1.55025 0
M  V30 3313 C 314.347 3.26634 -3.09242 0
M  V30 3314 C 315.666 4.22341 -1.2376 0
M  V30 3315 H 312.785 0.653697 -0.340366 0
M  V30 3316 H 315.427 1.25389 -1.4275 0
M  V30 3317 H 313.577 3.71712 -1.12972 0
M  V30 3318 H 315.249 2.88173 -3.60214 0
M  V30 3319 H 313.492 2.65539 -3.43033 0
M  V30 3320 H 314.163 4.28854 -3.47546 0
M  V30 3321 H 316.639 3.8405 -1.60139 0
M  V30 3322 H 315.515 5.22053 -1.69564 0
M  V30 3323 H 315.776 4.41828 -0.154938 0
M  V30 3324 O 314.874 1.08282 1.19822 0
M  V30 3325 H 315.565 0.773615 1.77581 0
M  V30 END ATOM
M  V30 BEGIN BOND
M  V30 END BOND
M  V30 END CTAB
M  END
$$$$
