drugbank_target|P08865 40S ribosomal protein SA (DB04985; DB09130)
 OpenBabel12092120143D

  0  0  0     0  0            999 V3000
M  V30 BEGIN CTAB
M  V30 COUNTS 4570 4630 0 0 0
M  V30 BEGIN ATOM
M  V30 1 H -0.908 1.98254 -0.117106 0
M  V30 2 N 0 1.576 0 0
M  V30 3 C 0.933 2.03868 1.02534 0
M  V30 4 C 1.911 0.928543 1.3348 0
M  V30 5 O 3.095 1.19667 1.45644 0
M  V30 6 C 0.222 2.43627 2.35294 0
M  V30 7 C -0.732 3.65373 2.2001 0
M  V30 8 S 0.101 5.13292 1.52614 0
M  V30 9 C 1.257 5.56322 2.86805 0
M  V30 10 H 1.49 2.90518 0.631377 0
M  V30 11 H -0.977 1.52953 0.210867 0
M  V30 12 H 0.981 2.67203 3.11629 0
M  V30 13 H -0.358 1.57376 2.7183 0
M  V30 14 H -1.165 3.90944 3.18086 0
M  V30 15 H -1.563 3.418 1.51819 0
M  V30 16 H 0.729 5.58782 3.83104 0
M  V30 17 H 1.672 6.56266 2.65933 0
M  V30 18 H 2.08 4.83886 2.90714 0
M  V30 19 N 1.4781 -0.272755 1.55222 0
M  V30 20 C 2.7031 -1.02683 1.80197 0
M  V30 21 C 3.1281 -1.79142 0.573551 0
M  V30 22 O 2.4861 -1.74917 -0.476849 0
M  V30 23 C 2.5341 -1.9609 3.02624 0
M  V30 24 O 1.6381 -3.04863 2.77727 0
M  V30 25 H 0.9791 -0.293557 0.595584 0
M  V30 26 H 3.5091 -0.30159 2.02365 0
M  V30 27 H 3.5191 -2.38039 3.31363 0
M  V30 28 H 2.1941 -1.39851 3.91682 0
M  V30 29 H 0.7711 -2.67228 2.60084 0
M  V30 30 N 2.9562 -1.48159 -0.537278 0
M  V30 31 C 4.2042 -1.55497 -1.29094 0
M  V30 32 C 4.5252 -0.227454 -1.93669 0
M  V30 33 O 3.7952 0.750386 -1.80959 0
M  V30 34 H 2.3752 -0.572832 -0.47945 0
M  V30 35 H 5.0372 -1.84579 -0.625818 0
M  V30 36 H 4.1332 -2.33216 -2.07405 0
M  V30 37 N 4.4343 0.785586 -1.36625 0
M  V30 38 C 5.3973 1.87999 -1.31107 0
M  V30 39 C 6.3973 1.59316 -0.217959 0
M  V30 40 O 7.5873 1.67656 -0.472977 0
M  V30 41 C 4.7193 3.24861 -1.03334 0
M  V30 42 H 5.9123 1.94307 -2.2844 0
M  V30 43 H 3.4653 0.983813 -1.21453 0
M  V30 44 H 4.2003 3.24235 -0.0647432 0
M  V30 45 H 3.9853 3.4707 -1.82441 0
M  V30 46 H 5.4753 4.04929 -1.02088 0
M  V30 47 N 5.9124 1.20967 1.01018 0
M  V30 48 C 6.8424 0.988272 2.11555 0
M  V30 49 C 7.8234 -0.0849778 1.69888 0
M  V30 50 O 9.0084 0.0738202 1.9406 0
M  V30 51 C 6.1384 0.546528 3.42973 0
M  V30 52 C 5.0924 1.56375 3.9841 0
M  V30 53 C 4.4184 0.97842 5.25672 0
M  V30 54 C 5.7184 2.94922 4.31066 0
M  V30 55 H 7.4124 1.91276 2.30334 0
M  V30 56 H 4.9584 0.921073 1.1069 0
M  V30 57 H 6.9114 0.378839 4.19694 0
M  V30 58 H 5.6354 -0.413598 3.23971 0
M  V30 59 H 4.2944 1.71891 3.23804 0
M  V30 60 H 3.9424 0.0101688 5.02999 0
M  V30 61 H 3.6424 1.65784 5.63728 0
M  V30 62 H 5.1664 0.821939 6.05043 0
M  V30 63 H 6.5804 2.8288 4.9865 0
M  V30 64 H 4.9774 3.5983 4.80253 0
M  V30 65 H 6.0474 3.4616 3.39561 0
M  V30 66 N 7.3905 -1.2043 1.01659 0
M  V30 67 C 8.6675 -1.8548 0.621004 0
M  V30 68 C 9.0475 -1.9091 -0.900919 0
M  V30 69 O 8.3955 -1.41694 -1.79263 0
M  V30 70 C 8.6055 -3.25119 1.2688 0
M  V30 71 C 9.9535 -4.01403 1.38423 0
M  V30 72 O 10.9775 -3.34473 1.22501 0
M  V30 73 O 9.8365 -5.21265 1.64151 0
M  V30 74 H 6.9305 -0.798761 0.214266 0
M  V30 75 H 9.4765 -1.28019 1.11396 0
M  V30 76 H 8.2485 -3.15932 2.30873 0
M  V30 77 H 7.8715 -3.90212 0.762917 0
M  V30 78 N 8.8686 -0.792821 -1.36206 0
M  V30 79 C 10.1146 -0.36733 -1.99446 0
M  V30 80 C 10.4476 1.05917 -1.62774 0
M  V30 81 O 9.7226 1.7324 -0.88421 0
M  V30 82 C 10.0056 -0.535044 -3.56103 0
M  V30 83 C 9.8586 -2.00548 -4.02617 0
M  V30 84 C 11.1776 0.0478191 -4.40074 0
M  V30 85 H 8.2966 -0.134941 -0.724541 0
M  V30 86 H 10.9386 -0.999794 -1.61568 0
M  V30 87 H 9.0886 0.00336329 -3.885 0
M  V30 88 H 10.7606 -2.60521 -3.80692 0
M  V30 89 H 9.0036 -2.50686 -3.54032 0
M  V30 90 H 9.6746 -2.07377 -5.11565 0
M  V30 91 H 12.1506 -0.411822 -4.14057 0
M  V30 92 H 11.0266 -0.0995336 -5.4881 0
M  V30 93 H 11.2876 1.14025 -4.27142 0
M  V30 94 N 10.3467 1.47872 -0.545128 0
M  V30 95 C 11.2767 2.32661 0.197793 0
M  V30 96 C 12.2577 1.43041 0.920504 0
M  V30 97 O 13.4427 1.71912 0.90333 0
M  V30 98 C 10.5727 3.24569 1.23582 0
M  V30 99 C 9.5267 4.23333 0.630323 0
M  V30 100 C 8.8527 5.0448 1.77211 0
M  V30 101 C 10.1527 5.20704 -0.407974 0
M  V30 102 H 11.8467 2.95024 -0.510045 0
M  V30 103 H 9.3927 1.4187 -0.246731 0
M  V30 104 H 11.3457 3.8272 1.76362 0
M  V30 105 H 10.0697 2.60236 1.97344 0
M  V30 106 H 8.7287 3.6639 0.123922 0
M  V30 107 H 8.3767 4.36561 2.49847 0
M  V30 108 H 8.0767 5.71339 1.37281 0
M  V30 109 H 9.6007 5.65487 2.3034 0
M  V30 110 H 11.0147 5.7329 0.033305 0
M  V30 111 H 9.4117 5.95699 -0.725486 0
M  V30 112 H 10.4817 4.66917 -1.30828 0
M  V30 113 N 11.8248 0.280983 1.55075 0
M  V30 114 C 12.7568 -0.637268 2.20163 0
M  V30 115 C 13.7698 -1.11298 1.18813 0
M  V30 116 O 14.9588 -1.03388 1.4551 0
M  V30 117 C 12.0588 -1.88199 2.81841 0
M  V30 118 C 11.2318 -1.55211 4.08936 0
M  V30 119 C 10.2908 -2.64991 4.54606 0
M  V30 120 O 9.3168 -2.30929 5.2025 0
M  V30 121 N 10.5188 -3.95161 4.25238 0
M  V30 122 H 13.2838 -0.0801694 2.99593 0
M  V30 123 H 10.8448 0.102329 1.61576 0
M  V30 124 H 12.8368 -2.60948 3.09335 0
M  V30 125 H 11.4068 -2.34799 2.06369 0
M  V30 126 H 10.6268 -0.658185 3.88666 0
M  V30 127 H 11.9148 -1.30681 4.91732 0
M  V30 128 H 11.3128 -4.25653 3.72607 0
M  V30 129 H 9.8698 -4.6427 4.5749 0
M  V30 130 N 13.3029 -1.57598 0.00835791 0
M  V30 131 C 14.2359 -2.04409 -1.01451 0
M  V30 132 C 15.2139 -0.935609 -1.32985 0
M  V30 133 O 16.3979 -1.20437 -1.45007 0
M  V30 134 C 13.5249 -2.44872 -2.33999 0
M  V30 135 C 12.5709 -3.66535 -2.18069 0
M  V30 136 S 13.4039 -5.14095 -1.4989 0
M  V30 137 C 14.5599 -5.57835 -2.8385 0
M  V30 138 H 14.7929 -2.90849 -0.615961 0
M  V30 139 H 12.3259 -1.53063 -0.202752 0
M  V30 140 H 14.2839 -2.68852 -3.10208 0
M  V30 141 H 12.9449 -1.58815 -2.70992 0
M  V30 142 H 12.1379 -3.92626 -3.16008 0
M  V30 143 H 11.7399 -3.426 -1.50004 0
M  V30 144 H 14.0319 -5.60806 -3.80136 0
M  V30 145 H 14.9749 -6.57667 -2.62449 0
M  V30 146 H 15.3829 -4.85421 -2.88144 0
M  V30 147 N 14.781 0.264519 -1.55364 0
M  V30 148 C 15.728 1.32717 -1.88825 0
M  V30 149 C 16.698 1.48675 -0.740605 0
M  V30 150 O 17.883 1.62945 -0.992657 0
M  V30 151 C 15.023 2.68089 -2.17307 0
M  V30 152 C 14.136 2.60284 -3.44785 0
M  V30 153 C 13.271 3.87892 -3.62924 0
M  V30 154 C 12.31 3.74631 -4.84064 0
M  V30 155 N 11.447 4.94092 -4.98816 0
M  V30 156 H 16.287 1.03481 -2.79456 0
M  V30 157 H 13.824 0.499757 -1.3835 0
M  V30 158 H 15.782 3.46864 -2.31821 0
M  V30 159 H 14.412 2.95509 -1.299 0
M  V30 160 H 13.464 1.73173 -3.38697 0
M  V30 161 H 14.776 2.46388 -4.33698 0
M  V30 162 H 13.93 4.75109 -3.77302 0
M  V30 163 H 12.669 4.04664 -2.7221 0
M  V30 164 H 11.674 2.85797 -4.69681 0
M  V30 165 H 12.899 3.5937 -5.76221 0
M  V30 166 H 10.845 5.11259 -4.11036 0
M  V30 167 H 10.762 4.8276 -5.81789 0
M  V30 168 H 12.03 5.82857 -5.17588 0
M  V30 169 N 16.2591 1.48442 0.529413 0
M  V30 170 C 17.1691 1.6569 1.66084 0
M  V30 171 C 18.1851 0.539432 1.65427 0
M  V30 172 O 19.3611 0.810572 1.84368 0
M  V30 173 C 16.4261 1.69315 3.02545 0
M  V30 174 C 15.4871 2.92694 3.14052 0
M  V30 175 C 14.7201 2.96137 4.44003 0
M  V30 176 O 14.9431 2.07973 5.31134 0
M  V30 177 O 13.8771 3.88312 4.59888 0
M  V30 178 H 17.7031 2.61483 1.54469 0
M  V30 179 H 15.2881 1.3185 0.702567 0
M  V30 180 H 17.1701 1.74217 3.83701 0
M  V30 181 H 15.8451 0.766966 3.14483 0
M  V30 182 H 14.7521 2.93324 2.32189 0
M  V30 183 H 16.0851 3.84699 3.0703 0
M  V30 184 N 17.7372 -0.778329 1.37039 0
M  V30 185 C 18.6472 -1.92253 1.34446 0
M  V30 186 C 19.6632 -1.72267 0.244991 0
M  V30 187 O 20.8392 -1.95615 0.479258 0
M  V30 188 C 17.9042 -3.27282 1.144 0
M  V30 189 C 16.9652 -3.59969 2.33925 0
M  V30 190 C 16.1982 -4.88555 2.14825 0
M  V30 191 O 16.4212 -5.59113 1.12912 0
M  V30 192 O 15.3552 -5.20153 3.02861 0
M  V30 193 H 19.1812 -1.97392 2.30803 0
M  V30 194 H 16.7662 -0.920154 1.17701 0
M  V30 195 H 18.6482 -4.08062 1.05182 0
M  V30 196 H 17.3232 -3.23011 0.211124 0
M  V30 197 H 16.2302 -2.7945 2.48714 0
M  V30 198 H 17.5632 -3.68976 3.25757 0
M  V30 199 N 19.2153 -1.21501 -1.00376 0
M  V30 200 C 20.4923 -0.941745 -1.71437 0
M  V30 201 C 20.8723 0.546114 -2.03914 0
M  V30 202 O 20.2203 1.51128 -1.71384 0
M  V30 203 C 20.4303 -1.82812 -2.97289 0
M  V30 204 C 21.7783 -2.07771 -3.70292 0
M  V30 205 O 22.8023 -1.80171 -3.07273 0
M  V30 206 O 21.6613 -2.54456 -4.83647 0
M  V30 207 H 18.7553 -0.353243 -0.747762 0
M  V30 208 H 21.3013 -1.32436 -1.06108 0
M  V30 209 H 20.0733 -2.83501 -2.69709 0
M  V30 210 H 19.6963 -1.4464 -3.70358 0
M  V30 211 N 20.6934 1.19889 -1.02296 0
M  V30 212 C 21.9394 1.89701 -0.717033 0
M  V30 213 C 22.2724 1.7905 0.751989 0
M  V30 214 O 21.5474 1.17891 1.547 0
M  V30 215 C 21.8304 3.40858 -1.16136 0
M  V30 216 C 21.6834 3.60411 -2.69117 0
M  V30 217 C 23.0024 4.33876 -0.737549 0
M  V30 218 H 20.1214 0.688874 -0.261957 0
M  V30 219 H 22.7634 1.41154 -1.27183 0
M  V30 220 H 20.9134 3.82335 -0.689342 0
M  V30 221 H 22.5854 3.28145 -3.2422 0
M  V30 222 H 20.8284 3.03665 -3.0979 0
M  V30 223 H 21.4994 4.66396 -2.95261 0
M  V30 224 H 23.9754 4.00081 -1.14344 0
M  V30 225 H 22.8514 5.38242 -1.0764 0
M  V30 226 H 23.1124 4.40628 0.360436 0
M  V30 227 N 22.1715 0.800033 1.35784 0
M  V30 228 C 23.1015 0.220184 2.3246 0
M  V30 229 C 24.0825 -0.65073 1.57161 0
M  V30 230 O 25.2675 -0.582359 1.85263 0
M  V30 231 C 22.3975 -0.637353 3.41402 0
M  V30 232 C 21.3515 0.134531 4.27789 0
M  V30 233 C 20.6775 -0.844285 5.27992 0
M  V30 234 C 21.9775 1.32979 5.05088 0
M  V30 235 H 23.6715 1.02787 2.81203 0
M  V30 236 H 21.2175 0.495717 1.35199 0
M  V30 237 H 23.1705 -1.05302 4.08031 0
M  V30 238 H 21.8945 -1.47785 2.91251 0
M  V30 239 H 20.5535 0.531296 3.6273 0
M  V30 240 H 20.2015 -1.68011 4.74111 0
M  V30 241 H 19.9015 -0.332184 5.8666 0
M  V30 242 H 21.4255 -1.2583 5.97494 0
M  V30 243 H 22.8395 0.98934 5.64699 0
M  V30 244 H 21.2365 1.77593 5.7322 0
M  V30 245 H 22.3065 2.11978 4.36111 0
M  V30 246 N 23.6496 -1.47581 0.552962 0
M  V30 247 C 24.5966 -2.29957 -0.197108 0
M  V30 248 C 25.5666 -1.38799 -0.912359 0
M  V30 249 O 26.7516 -1.67761 -0.908888 0
M  V30 250 C 23.8916 -3.22672 -1.22379 0
M  V30 251 C 23.0046 -4.28919 -0.515038 0
M  V30 252 C 22.1396 -5.0879 -1.52664 0
M  V30 253 C 21.1786 -6.06815 -0.802631 0
M  V30 254 N 20.3156 -6.7966 -1.76086 0
M  V30 255 H 25.1556 -2.93578 0.511486 0
M  V30 256 H 22.6926 -1.4471 0.264067 0
M  V30 257 H 24.6506 -3.74845 -1.83159 0
M  V30 258 H 23.2806 -2.60925 -1.90047 0
M  V30 259 H 22.3326 -3.79835 0.207192 0
M  V30 260 H 23.6446 -4.98773 0.0523425 0
M  V30 261 H 22.7986 -5.65091 -2.20809 0
M  V30 262 H 21.5376 -4.38828 -2.12794 0
M  V30 263 H 20.5426 -5.49695 -0.107238 0
M  V30 264 H 21.7676 -6.78784 -0.207135 0
M  V30 265 H 19.7136 -6.12432 -2.35081 0
M  V30 266 H 19.6306 -7.45669 -1.24552 0
M  V30 267 H 20.8986 -7.40538 -2.43359 0
M  V30 268 N 25.1277 -0.289203 -1.54924 0
M  V30 269 C 26.3747 0.323519 -1.99899 0
M  V30 270 C 26.7027 1.54797 -1.17762 0
M  V30 271 O 25.9577 1.94237 -0.238835 0
M  V30 272 C 26.2567 0.736119 -3.49737 0
M  V30 273 C 25.9227 -0.385276 -4.49251 0
M  V30 274 C 24.5847 -0.693156 -4.76181 0
M  V30 275 C 26.9367 -1.14021 -5.08575 0
M  V30 276 C 24.2647 -1.7593 -5.59701 0
M  V30 277 C 26.6167 -2.19619 -5.93254 0
M  V30 278 C 25.2807 -2.51026 -6.185 0
M  V30 279 H 24.5507 0.118384 -0.731482 0
M  V30 280 H 27.1977 -0.405847 -1.8715 0
M  V30 281 H 25.5027 1.54539 -3.60035 0
M  V30 282 H 27.1997 1.22118 -3.81953 0
M  V30 283 H 23.7897 -0.135202 -4.28387 0
M  V30 284 H 27.9737 -0.915611 -4.87781 0
M  V30 285 H 23.2297 -2.0075 -5.77503 0
M  V30 286 H 27.4037 -2.78581 -6.38252 0
M  V30 287 H 25.0307 -3.33772 -6.83008 0
M  V30 288 N 26.6058 1.57591 -0.0167156 0
M  V30 289 C 27.5358 2.12496 0.967858 0
M  V30 290 C 28.5168 1.03807 1.34752 0
M  V30 291 O 29.7018 1.31577 1.42833 0
M  V30 292 C 26.8318 2.64194 2.25431 0
M  V30 293 C 25.7858 3.77559 2.01576 0
M  V30 294 C 25.1118 4.15636 3.36379 0
M  V30 295 C 26.4118 5.04151 1.36489 0
M  V30 296 H 28.1058 2.95013 0.510643 0
M  V30 297 H 25.6518 1.41915 0.244181 0
M  V30 298 H 27.6048 3.01236 2.94678 0
M  V30 299 H 26.3288 1.78821 2.73296 0
M  V30 300 H 24.9878 3.40937 1.34751 0
M  V30 301 H 24.6358 3.27263 3.81979 0
M  V30 302 H 24.3358 4.92022 3.21229 0
M  V30 303 H 25.8598 4.5525 4.06915 0
M  V30 304 H 27.2738 5.38857 1.95718 0
M  V30 305 H 25.6708 5.85453 1.31776 0
M  V30 306 H 26.7408 4.83733 0.336219 0
M  V30 307 N 28.0839 -0.256276 1.55502 0
M  V30 308 C 29.0469 -1.30047 1.88734 0
M  V30 309 C 30.0469 -1.4154 0.763086 0
M  V30 310 O 31.2369 -1.40403 1.03115 0
M  V30 311 C 28.3689 -2.67953 2.10747 0
M  V30 312 H 29.5619 -1.01802 2.82093 0
M  V30 313 H 27.1149 -0.495134 1.4825 0
M  V30 314 H 27.8499 -3.01351 1.19825 0
M  V30 315 H 27.6349 -2.60993 2.92617 0
M  V30 316 H 29.1249 -3.43368 2.37673 0
M  V30 317 N 29.562 -1.4872 -0.521534 0
M  V30 318 C 30.525 -1.63379 -1.60748 0
M  V30 319 C 31.525 -0.50661 -1.52611 0
M  V30 320 O 32.715 -0.772601 -1.5613 0
M  V30 321 C 29.847 -1.61192 -3.00383 0
M  V30 322 H 31.04 -2.60217 -1.49087 0
M  V30 323 H 28.593 -1.37444 -0.744235 0
M  V30 324 H 29.328 -0.65863 -3.17541 0
M  V30 325 H 29.113 -2.43032 -3.07698 0
M  V30 326 H 30.603 -1.7466 -3.7932 0
M  V30 327 N 31.0401 0.771051 -1.3745 0
M  V30 328 C 32.2881 1.52661 -1.32435 0
M  V30 329 C 32.6091 1.9479 0.0905024 0
M  V30 330 O 31.8791 1.66348 1.03466 0
M  V30 331 H 30.4591 0.566218 -0.487244 0
M  V30 332 H 33.1211 0.917636 -1.71946 0
M  V30 333 H 32.2171 2.42568 -1.96385 0
M  V30 334 N 32.5182 1.22032 0.997298 0
M  V30 335 C 33.7462 1.06841 1.7718 0
M  V30 336 C 34.1612 -0.381325 1.84909 0
M  V30 337 O 33.5182 -1.26437 1.31605 0
M  V30 338 C 33.5692 1.66814 3.20711 0
M  V30 339 O 33.2902 3.06116 3.13408 0
M  V30 340 C 34.7912 1.56838 4.14628 0
M  V30 341 H 32.0112 0.374782 0.556578 0
M  V30 342 H 34.5552 1.61532 1.2541 0
M  V30 343 H 32.7102 1.16196 3.69564 0
M  V30 344 H 33.1242 3.34926 4.0364 0
M  V30 345 H 34.5982 2.03532 5.13107 0
M  V30 346 H 35.0752 0.524155 4.36061 0
M  V30 347 H 35.6812 2.06741 3.7167 0
M  V30 348 N 33.9963 -1.19345 1.0293 0
M  V30 349 C 34.9463 -2.20472 0.58104 0
M  V30 350 C 35.9303 -1.56578 -0.370442 0
M  V30 351 O 37.1223 -1.75963 -0.191344 0
M  V30 352 C 34.2513 -3.43236 -0.066306 0
M  V30 353 C 33.3373 -4.14274 0.907642 0
M  V30 354 N 33.7283 -4.61492 2.07023 0
M  V30 355 C 32.0263 -4.39966 0.731177 0
M  V30 356 C 32.7273 -5.1605 2.68454 0
M  V30 357 N 31.7033 -5.06875 1.96414 0
M  V30 358 H 35.5053 -2.54659 1.46717 0
M  V30 359 H 33.0193 -1.35423 0.896345 0
M  V30 360 H 35.0163 -4.14927 -0.405068 0
M  V30 361 H 33.6763 -3.10549 -0.948118 0
M  V30 362 H 34.6873 -4.56304 2.44963 0
M  V30 363 H 31.3643 -4.17377 -0.101507 0
M  V30 364 H 32.7543 -5.6287 3.66915 0
M  V30 365 N 35.4744 -0.807222 -1.35358 0
M  V30 366 C 36.4044 -0.232509 -2.3234 0
M  V30 367 C 37.3854 0.642386 -1.57504 0
M  V30 368 O 38.5704 0.572526 -1.85569 0
M  V30 369 C 35.7004 0.619238 -3.41735 0
M  V30 370 C 34.6544 -0.157215 -4.27711 0
M  V30 371 C 33.9804 0.816273 -5.28433 0
M  V30 372 C 35.2804 -1.35656 -5.04376 0
M  V30 373 H 36.9744 -1.04276 -2.80654 0
M  V30 374 H 34.5204 -0.50288 -1.34934 0
M  V30 375 H 36.4734 1.03137 -4.08584 0
M  V30 376 H 35.1974 1.46239 -2.92031 0
M  V30 377 H 33.8564 -0.550525 -3.62443 0
M  V30 378 H 33.5044 1.65494 -4.74996 0
M  V30 379 H 33.2044 0.301067 -5.86828 0
M  V30 380 H 34.7284 1.22659 -5.98153 0
M  V30 381 H 36.1424 -1.01927 -5.64166 0
M  V30 382 H 34.5394 -1.8063 -5.7227 0
M  V30 383 H 35.6094 -2.14288 -4.34981 0
M  V30 384 N 36.9525 1.47285 -0.560781 0
M  V30 385 C 38.2005 2.02064 -0.0379868 0
M  V30 386 C 38.5215 1.43711 1.31803 0
M  V30 387 O 37.7915 0.61362 1.86042 0
M  V30 388 H 36.3715 0.746918 -0.0110531 0
M  V30 389 H 39.0335 1.80648 -0.731598 0
M  V30 390 H 38.1295 3.12064 0.0474463 0
M  V30 391 N 38.4306 0.297415 1.54768 0
M  V30 392 C 39.6786 -0.312295 1.99673 0
M  V30 393 C 39.9996 -1.54686 1.18732 0
M  V30 394 O 39.2696 -1.93854 0.282382 0
M  V30 395 H 37.8496 -0.118381 0.73756 0
M  V30 396 H 40.5116 0.407915 1.90583 0
M  V30 397 H 39.6076 -0.586813 3.06534 0
M  V30 398 N 39.9087 -1.5758 0.0250728 0
M  V30 399 C 41.1367 -1.9593 -0.664747 0
M  V30 400 C 41.5517 -0.901352 -1.65895 0
M  V30 401 O 40.9087 0.117255 -1.82123 0
M  V30 402 C 40.9597 -3.34342 -1.37468 0
M  V30 403 O 40.6807 -4.36079 -0.420324 0
M  V30 404 C 42.1817 -3.873 -2.1567 0
M  V30 405 H 39.4017 -0.645405 -0.183557 0
M  V30 406 H 41.9457 -2.04329 0.0836372 0
M  V30 407 H 40.1007 -3.27175 -2.0745 0
M  V30 408 H 40.5147 -5.16297 -0.923991 0
M  V30 409 H 41.9887 -4.86504 -2.60803 0
M  V30 410 H 42.4657 -3.21331 -2.99405 0
M  V30 411 H 43.0717 -3.97723 -1.50654 0
M  V30 412 N 41.3868 0.248026 -1.55636 0
M  V30 413 C 42.3348 1.32683 -1.91045 0
M  V30 414 C 43.3288 1.49883 -0.789401 0
M  V30 415 O 44.5348 1.51371 -0.974007 0
M  V30 416 H 40.9098 0.444272 -0.606734 0
M  V30 417 H 42.8808 1.00085 -2.81115 0
M  V30 418 C 41.6298 2.6755 -2.22064 0
M  V30 419 H 40.9528 2.55114 -3.07826 0
M  V30 420 H 42.3928 3.41912 -2.50743 0
M  V30 421 C 40.8518 3.20556 -1.0366 0
M  V30 422 O 41.3818 4.00695 -0.284016 0
M  V30 423 N 39.5878 2.78568 -0.82753 0
M  V30 424 H 39.1348 2.1351 -1.44123 0
M  V30 425 H 39.0928 3.14378 -0.0369803 0
M  V30 426 N 42.8649 1.48995 0.513639 0
M  V30 427 C 43.7949 1.67636 1.62544 0
M  V30 428 C 44.7759 0.525087 1.61793 0
M  V30 429 O 45.9609 0.759502 1.78732 0
M  V30 430 C 43.0909 1.73114 3.01079 0
M  V30 431 C 42.0449 2.87905 3.16693 0
M  V30 432 C 41.3709 2.78486 4.56453 0
M  V30 433 C 42.6709 4.29005 2.97913 0
M  V30 434 H 44.3649 2.60716 1.47198 0
M  V30 435 H 41.9109 1.25465 0.706714 0
M  V30 436 H 43.8639 1.84742 3.78746 0
M  V30 437 H 42.5879 0.766241 3.17484 0
M  V30 438 H 41.2469 2.75859 2.41448 0
M  V30 439 H 40.8949 1.7993 4.69717 0
M  V30 440 H 40.5949 3.55523 4.67843 0
M  V30 441 H 42.1189 2.92104 5.36197 0
M  V30 442 H 43.5329 4.41798 3.65359 0
M  V30 443 H 41.9299 5.07166 3.20785 0
M  V30 444 H 42.9999 4.44329 1.94165 0
M  V30 445 N 44.343 -0.763751 1.37857 0
M  V30 446 C 45.62 -1.51244 1.24035 0
M  V30 447 C 46 -2.10472 -0.162649 0
M  V30 448 O 45.348 -1.96206 -1.17112 0
M  V30 449 C 45.558 -2.58694 2.34261 0
M  V30 450 C 46.906 -3.25878 2.72193 0
M  V30 451 O 47.93 -2.68993 2.33497 0
M  V30 452 O 46.789 -4.2874 3.38887 0
M  V30 453 H 43.883 -0.670243 0.484462 0
M  V30 454 H 46.429 -0.800031 1.49658 0
M  V30 455 H 45.201 -2.13105 3.2818 0
M  V30 456 H 44.824 -3.37527 2.10146 0
M  V30 457 N 45.8211 -1.22559 -0.990812 0
M  V30 458 C 47.0681 -1.05141 -1.73065 0
M  V30 459 C 47.3961 0.413191 -1.9006 0
M  V30 460 O 46.6511 1.32257 -1.44245 0
M  V30 461 C 46.9501 -1.71011 -3.13831 0
M  V30 462 C 46.6161 -3.20911 -3.16745 0
M  V30 463 C 45.2781 -3.61812 -3.17247 0
M  V30 464 C 47.6301 -4.16846 -3.12872 0
M  V30 465 C 44.9581 -4.97127 -3.1158 0
M  V30 466 C 47.3101 -5.5214 -3.08746 0
M  V30 467 C 45.9741 -5.92419 -3.07565 0
M  V30 468 H 45.2441 -0.384738 -0.633291 0
M  V30 469 H 47.8911 -1.5235 -1.16025 0
M  V30 470 H 46.1961 -1.16133 -3.74193 0
M  V30 471 H 47.8931 -1.55023 -3.69823 0
M  V30 472 H 44.4831 -2.88344 -3.17105 0
M  V30 473 H 48.6671 -3.86263 -3.11632 0
M  V30 474 H 43.9231 -5.27562 -3.09012 0
M  V30 475 H 48.0971 -6.26201 -3.04705 0
M  V30 476 H 45.7241 -6.97236 -3.02929 0
M  V30 477 N 47.2992 1.18797 -1.03562 0
M  V30 478 C 48.2312 2.21731 -0.580337 0
M  V30 479 C 49.2442 1.59051 0.347349 0
M  V30 480 O 50.4332 1.77929 0.142669 0
M  V30 481 C 47.5332 3.38459 0.172805 0
M  V30 482 C 46.7062 4.3072 -0.761496 0
M  V30 483 C 45.7652 5.26174 -0.0525547 0
M  V30 484 O 44.7912 5.65108 -0.681333 0
M  V30 485 N 45.9932 5.67624 1.21586 0
M  V30 486 H 48.7582 2.61417 -1.46565 0
M  V30 487 H 46.3192 1.33531 -0.915476 0
M  V30 488 H 48.3112 3.99335 0.656793 0
M  V30 489 H 46.8812 2.97507 0.959602 0
M  V30 490 H 46.1012 3.67525 -1.42544 0
M  V30 491 H 47.3892 4.89267 -1.39626 0
M  V30 492 H 46.7872 5.38038 1.74732 0
M  V30 493 H 45.3442 6.30721 1.64421 0
M  V30 494 N 48.7773 0.814389 1.34928 0
M  V30 495 C 49.7103 0.175641 2.27523 0
M  V30 496 C 50.6883 -0.662953 1.48471 0
M  V30 497 O 51.8723 -0.628545 1.77712 0
M  V30 498 C 48.9993 -0.755516 3.30166 0
M  V30 499 C 48.0453 0.00445305 4.265 0
M  V30 500 S 48.8783 1.34582 5.18313 0
M  V30 501 C 50.0343 0.419315 6.24494 0
M  V30 502 H 50.2673 0.960691 2.8135 0
M  V30 503 H 47.8003 0.609846 1.41846 0
M  V30 504 H 49.7583 -1.28723 3.89796 0
M  V30 505 H 48.4193 -1.51402 2.75202 0
M  V30 506 H 47.6123 -0.703077 4.99072 0
M  V30 507 H 47.2143 0.466447 3.7108 0
M  V30 508 H 49.5063 -0.392432 6.76362 0
M  V30 509 H 50.4493 1.11446 6.99275 0
M  V30 510 H 50.8573 0.0115389 5.64499 0
M  V30 511 N 50.2554 -1.46986 0.568584 0
M  V30 512 C 51.1654 -2.33942 -0.17555 0
M  V30 513 C 52.1814 -1.48891 -0.90041 0
M  V30 514 O 53.3574 -1.81794 -0.86676 0
M  V30 515 C 50.4224 -3.25811 -1.18524 0
M  V30 516 C 49.4834 -4.26757 -0.466582 0
M  V30 517 C 48.7164 -5.14236 -1.42817 0
M  V30 518 O 48.9394 -5.04379 -2.66379 0
M  V30 519 O 47.8734 -5.94412 -0.946453 0
M  V30 520 H 51.6994 -2.98896 0.538036 0
M  V30 521 H 49.2844 -1.4573 0.329097 0
M  V30 522 H 51.1664 -3.82527 -1.76779 0
M  V30 523 H 49.8414 -2.63471 -1.88055 0
M  V30 524 H 48.7484 -3.73769 0.157451 0
M  V30 525 H 50.0814 -4.91843 0.187485 0
M  V30 526 N 51.7335 -0.305618 -1.54608 0
M  V30 527 C 52.6655 0.602161 -2.21149 0
M  V30 528 C 53.6785 1.09394 -1.20569 0
M  V30 529 O 54.8675 1.0106 -1.47136 0
M  V30 530 C 51.9675 1.83692 -2.84799 0
M  V30 531 C 51.1405 1.48686 -4.11353 0
M  V30 532 C 50.1995 2.57725 -4.58764 0
M  V30 533 O 49.2255 2.22623 -5.23858 0
M  V30 534 N 50.4275 3.88346 -4.31471 0
M  V30 535 H 53.1925 0.0324966 -2.99682 0
M  V30 536 H 50.7535 -0.128021 -1.61393 0
M  V30 537 H 52.7455 2.55994 -3.13448 0
M  V30 538 H 51.3155 2.31486 -2.10078 0
M  V30 539 H 50.5355 0.596269 -3.89664 0
M  V30 540 H 51.8235 1.22842 -4.93748 0
M  V30 541 H 51.2215 4.19671 -3.79331 0
M  V30 542 H 49.7785 4.56932 -4.64818 0
M  V30 543 N 53.2116 1.57565 -0.0334293 0
M  V30 544 C 54.4416 1.95996 0.653398 0
M  V30 545 C 54.8496 0.908749 1.65947 0
M  V30 546 O 54.1926 -0.117471 1.83324 0
M  V30 547 C 54.2546 3.30589 1.41249 0
M  V30 548 C 53.9186 4.53503 0.564263 0
M  V30 549 C 54.9156 5.19647 -0.16225 0
M  V30 550 C 52.6006 4.99801 0.500398 0
M  V30 551 C 54.5946 6.30412 -0.941255 0
M  V30 552 C 52.2816 6.10448 -0.282308 0
M  V30 553 C 53.2796 6.75612 -1.00184 0
M  V30 554 O 52.9676 7.84134 -1.77171 0
M  V30 555 H 52.6996 0.65027 0.184728 0
M  V30 556 H 55.2536 2.05199 -0.0907841 0
M  V30 557 H 53.4836 3.17888 2.20191 0
M  V30 558 H 55.1726 3.53892 1.98784 0
M  V30 559 H 55.9386 4.84846 -0.12227 0
M  V30 560 H 51.8176 4.48883 1.05002 0
M  V30 561 H 55.3616 6.81208 -1.50339 0
M  V30 562 H 51.2586 6.44686 -0.323989 0
M  V30 563 H 52.0266 8.00822 -1.69194 0
M  V30 564 N 54.6897 -0.239769 1.55765 0
M  V30 565 C 55.9387 -0.964754 1.77131 0
M  V30 566 C 56.2517 -1.86213 0.59868 0
M  V30 567 O 57.4577 -2.6244 0.695522 0
M  V30 568 C 55.9137 -1.76552 3.1362 0
M  V30 569 C 55.5217 -0.915185 4.38553 0
M  V30 570 C 57.2657 -2.48281 3.44321 0
M  V30 571 C 55.1727 -1.71225 5.66071 0
M  V30 572 H 54.1027 -0.363953 0.660344 0
M  V30 573 H 56.7537 -0.219181 1.82186 0
M  V30 574 H 55.1357 -2.55331 3.02691 0
M  V30 575 H 56.3097 -0.169217 4.60489 0
M  V30 576 H 54.6247 -0.310889 4.15238 0
M  V30 577 H 57.2217 -3.08382 4.36812 0
M  V30 578 H 57.5647 -3.20256 2.65973 0
M  V30 579 H 58.0977 -1.76507 3.56497 0
M  V30 580 H 54.8367 -1.03612 6.4726 0
M  V30 581 H 54.3567 -2.43331 5.48224 0
M  V30 582 H 56.0357 -2.27758 6.05587 0
M  V30 583 N 56.1678 -1.49265 -0.50573 0
M  V30 584 C 57.3978 -1.61979 -1.28243 0
M  V30 585 C 57.8058 -0.288576 -1.86986 0
M  V30 586 O 57.1488 0.735408 -1.68337 0
M  V30 587 C 57.2108 -2.62632 -2.45489 0
M  V30 588 C 56.8748 -4.071 -2.07651 0
M  V30 589 C 57.8718 -4.94049 -1.61901 0
M  V30 590 C 55.5568 -4.52801 -2.17431 0
M  V30 591 C 57.5508 -6.24736 -1.26428 0
M  V30 592 C 55.2378 -5.83503 -1.8157 0
M  V30 593 C 56.2358 -6.69294 -1.36142 0
M  V30 594 O 55.9238 -7.9756 -1.00764 0
M  V30 595 H 55.6558 -0.54834 -0.395347 0
M  V30 596 H 58.2098 -1.96002 -0.614204 0
M  V30 597 H 56.4398 -2.2378 -3.15372 0
M  V30 598 H 58.1288 -2.64925 -3.07522 0
M  V30 599 H 58.8948 -4.5997 -1.53795 0
M  V30 600 H 54.7738 -3.86196 -2.51742 0
M  V30 601 H 58.3178 -6.91652 -0.908992 0
M  V30 602 H 54.2148 -6.17112 -1.89324 0
M  V30 603 H 54.9828 -8.10529 -1.13952 0
M  V30 604 N 57.6459 0.756429 -1.3826 0
M  V30 605 C 58.5929 1.87011 -1.35261 0
M  V30 606 C 59.5629 1.64695 -0.215616 0
M  V30 607 O 60.7479 1.864 -0.407399 0
M  V30 608 C 57.8879 3.24275 -1.18068 0
M  V30 609 C 57.0009 3.58442 -2.41129 0
M  V30 610 C 56.1359 4.84994 -2.16689 0
M  V30 611 C 55.1749 5.11939 -3.35537 0
M  V30 612 N 54.3119 6.29685 -3.10549 0
M  V30 613 H 59.1519 1.8891 -2.30472 0
M  V30 614 H 56.6889 0.923373 -1.14509 0
M  V30 615 H 58.6469 4.03479 -1.06116 0
M  V30 616 H 57.2769 3.21711 -0.264973 0
M  V30 617 H 56.3289 2.74103 -2.63764 0
M  V30 618 H 57.6409 3.74283 -3.29717 0
M  V30 619 H 56.7949 5.72135 -2.01857 0
M  V30 620 H 55.5339 4.71286 -1.25462 0
M  V30 621 H 54.5389 4.23268 -3.50891 0
M  V30 622 H 55.7639 5.27546 -4.27635 0
M  V30 623 H 53.7099 6.17306 -2.21967 0
M  V30 624 H 53.6269 6.46014 -3.92686 0
M  V30 625 H 54.8949 7.19722 -2.99367 0
M  V30 626 N 59.124 1.23083 0.984299 0
M  V30 627 C 60.54 0.992637 1.24975 0
M  V30 628 C 60.74 -0.308618 1.99123 0
M  V30 629 O 59.796 -1.02905 2.30579 0
M  V30 630 C 61.109 2.19698 2.05312 0
M  V30 631 C 62.657 2.24147 2.18465 0
M  V30 632 C 63.132 3.44157 3.02192 0
M  V30 633 N 64.623 3.44372 3.09777 0
M  V30 634 C 65.358 4.33886 3.74874 0
M  V30 635 N 64.854 5.3363 4.41827 0
M  V30 636 N 66.647 4.21639 3.71721 0
M  V30 637 H 58.798 2.06731 0.487453 0
M  V30 638 H 61.061 0.906339 0.277944 0
M  V30 639 H 60.767 3.1411 1.58201 0
M  V30 640 H 60.641 2.20465 3.06064 0
M  V30 641 H 63.028 1.30277 2.64786 0
M  V30 642 H 63.109 2.27415 1.17115 0
M  V30 643 H 62.753 4.38332 2.56568 0
M  V30 644 H 62.683 3.3813 4.03702 0
M  V30 645 H 65.174 2.72201 2.62135 0
M  V30 646 H 65.487 5.98196 4.89266 0
M  V30 647 H 63.832 5.37534 4.40548 0
M  V30 648 H 67.023 3.42962 3.18582 0
M  V30 649 H 67.196 4.91604 4.22173 0
M  V30 650 N 60.6021 -1.18246 1.0419 0
M  V30 651 C 61.5491 -2.2192 0.634037 0
M  V30 652 C 62.5191 -1.62179 -0.358765 0
M  V30 653 O 63.7041 -1.89122 -0.252466 0
M  V30 654 C 60.8441 -3.451 0.00445535 0
M  V30 655 C 59.9571 -4.19174 1.04487 0
M  V30 656 C 59.0921 -5.29813 0.383676 0
M  V30 657 C 58.1311 -5.9566 1.4091 0
M  V30 658 N 57.2681 -6.97834 0.772784 0
M  V30 659 H 62.1081 -2.56164 1.52263 0
M  V30 660 H 59.6451 -1.25843 0.761701 0
M  V30 661 H 61.6031 -4.15485 -0.377919 0
M  V30 662 H 60.2331 -3.11472 -0.847652 0
M  V30 663 H 59.2851 -3.47604 1.54518 0
M  V30 664 H 60.5971 -4.64267 1.82368 0
M  V30 665 H 59.7511 -6.06677 -0.0528366 0
M  V30 666 H 58.4901 -4.85825 -0.427208 0
M  V30 667 H 57.4951 -5.17535 1.85574 0
M  V30 668 H 58.7201 -6.4173 2.22171 0
M  V30 669 H 56.6661 -6.55998 -0.0177708 0
M  V30 670 H 56.5831 -7.41186 1.48928 0
M  V30 671 H 57.8511 -7.78665 0.36071 0
M  V30 672 N 62.0802 -0.821533 -1.34494 0
M  V30 673 C 63.3052 -0.420873 -2.03085 0
M  V30 674 C 63.7302 0.964915 -1.61465 0
M  V30 675 O 63.0882 1.62763 -0.798607 0
M  V30 676 C 63.1362 -0.529414 -3.56693 0
M  V30 677 O 62.2402 0.451302 -4.09923 0
M  V30 678 H 61.5812 -0.173489 -0.640935 0
M  V30 679 H 64.1112 -1.11157 -1.71771 0
M  V30 680 H 64.1212 -0.404671 -4.05988 0
M  V30 681 H 62.7962 -1.54014 -3.86332 0
M  V30 682 H 61.3732 0.285558 -3.71805 0
M  V30 683 N 63.5583 1.46682 -0.576371 0
M  V30 684 C 64.8353 1.95599 0.00703437 0
M  V30 685 C 65.2153 1.51904 1.46589 0
M  V30 686 O 64.5633 0.766755 2.15251 0
M  V30 687 C 64.7733 3.4864 -0.158404 0
M  V30 688 C 66.1213 4.24594 -0.0229439 0
M  V30 689 O 67.1453 3.56094 -0.0869173 0
M  V30 690 O 66.0043 5.46373 0.118015 0
M  V30 691 H 63.0983 0.825275 0.053384 0
M  V30 692 H 65.6443 1.56996 -0.644244 0
M  V30 693 H 64.4163 3.7331 -1.17282 0
M  V30 694 H 64.0393 3.94057 0.5296 0
M  V30 695 N 65.0364 0.313813 1.54444 0
M  V30 696 C 66.2844 -0.291099 1.99993 0
M  V30 697 C 66.6054 -1.53418 1.20366 0
M  V30 698 O 65.8754 -1.93544 0.302927 0
M  V30 699 H 64.4554 -0.110552 0.738774 0
M  V30 700 H 67.1174 0.428106 1.9014 0
M  V30 701 H 66.2134 -0.554268 3.07139 0
M  V30 702 N 66.5145 -1.57545 0.0417849 0
M  V30 703 C 67.7635 -1.91494 -0.633492 0
M  V30 704 C 68.0765 -0.921084 -1.72556 0
M  V30 705 O 69.2825 -1.15228 -2.45835 0
M  V30 706 C 67.7385 -3.40072 -1.17808 0
M  V30 707 C 67.3465 -4.47843 -0.118633 0
M  V30 708 C 69.0905 -3.8307 -1.82915 0
M  V30 709 C 66.9975 -5.87529 -0.675578 0
M  V30 710 H 65.9275 -0.714653 -0.24039 0
M  V30 711 H 68.5785 -1.83175 0.109148 0
M  V30 712 H 66.9605 -3.43364 -1.97274 0
M  V30 713 H 68.1345 -4.56128 0.654494 0
M  V30 714 H 66.4495 -4.14128 0.434414 0
M  V30 715 H 69.0465 -4.84794 -2.25563 0
M  V30 716 H 69.3895 -3.1881 -2.67705 0
M  V30 717 H 69.9225 -3.82255 -1.10119 0
M  V30 718 H 66.6615 -6.55362 0.134475 0
M  V30 719 H 66.1815 -5.82824 -1.4169 0
M  V30 720 H 67.8605 -6.36491 -1.1614 0
M  V30 721 N 67.9926 0.231505 -1.5589 0
M  V30 722 C 69.2226 0.973092 -1.82248 0
M  V30 723 C 69.6306 1.78845 -0.617328 0
M  V30 724 O 68.9736 1.78752 0.423499 0
M  V30 725 C 69.0356 1.94732 -3.02192 0
M  V30 726 C 68.6996 1.31743 -4.37599 0
M  V30 727 C 69.6966 0.712238 -5.14998 0
M  V30 728 C 67.3816 1.33218 -4.84312 0
M  V30 729 C 69.3756 0.130195 -6.37267 0
M  V30 730 C 67.0626 0.746286 -6.06526 0
M  V30 731 C 68.0606 0.146337 -6.82843 0
M  V30 732 O 67.7486 -0.430465 -8.02747 0
M  V30 733 H 67.4806 0.29125 -0.61004 0
M  V30 734 H 70.0346 0.254915 -2.03812 0
M  V30 735 H 68.2646 2.70422 -2.76422 0
M  V30 736 H 69.9536 2.55362 -3.15508 0
M  V30 737 H 70.7196 0.69324 -4.8002 0
M  V30 738 H 66.5986 1.78854 -4.24891 0
M  V30 739 H 70.1426 -0.33871 -6.96777 0
M  V30 740 H 66.0396 0.762663 -6.40979 0
M  V30 741 H 66.8076 -0.323818 -8.17859 0
M  V30 742 N 69.4707 1.49531 0.497807 0
M  V30 743 C 70.7197 1.58426 1.24837 0
M  V30 744 C 71.0327 0.277643 1.93619 0
M  V30 745 O 72.2387 0.24517 2.70391 0
M  V30 746 C 70.6947 2.79538 2.26686 0
M  V30 747 C 70.3027 4.16971 1.63828 0
M  V30 748 C 72.0467 2.97764 3.0255 0
M  V30 749 C 69.9537 5.29301 2.63807 0
M  V30 750 H 68.8837 0.58989 0.469623 0
M  V30 751 H 71.5347 1.75923 0.521857 0
M  V30 752 H 69.9167 2.55542 3.02514 0
M  V30 753 H 71.0907 4.51116 0.939711 0
M  V30 754 H 69.4057 4.04129 1.00342 0
M  V30 755 H 72.0027 3.78856 3.77323 0
M  V30 756 H 72.3457 2.08448 3.60354 0
M  V30 757 H 72.8787 3.21815 2.33838 0
M  V30 758 H 69.6177 6.20687 2.10779 0
M  V30 759 H 69.1377 4.99606 3.31894 0
M  V30 760 H 70.8167 5.58768 3.2617 0
M  V30 761 N 70.9488 -0.749086 1.3866 0
M  V30 762 C 72.1978 -1.50371 1.3443 0
M  V30 763 C 72.5108 -1.95503 -0.0616397 0
M  V30 764 O 73.7168 -2.70554 -0.226489 0
M  V30 765 C 72.1728 -2.71644 2.36088 0
M  V30 766 C 71.7808 -2.3352 3.82325 0
M  V30 767 C 73.5248 -3.49518 2.40909 0
M  V30 768 C 71.4318 -3.51431 4.75658 0
M  V30 769 H 70.3618 -0.564628 0.499712 0
M  V30 770 H 73.0128 -0.818449 1.64237 0
M  V30 771 H 71.3948 -3.42175 1.9933 0
M  V30 772 H 72.5688 -1.70627 4.28046 0
M  V30 773 H 70.8838 -1.6877 3.80665 0
M  V30 774 H 73.4808 -4.37197 3.07836 0
M  V30 775 H 73.8238 -3.90992 1.42937 0
M  V30 776 H 74.3568 -2.86005 2.76489 0
M  V30 777 H 71.0958 -3.15019 5.74842 0
M  V30 778 H 70.6158 -4.13352 4.34627 0
M  V30 779 H 72.2948 -4.17953 4.93887 0
M  V30 780 N 72.4269 -1.23603 -0.977757 0
M  V30 781 C 73.3749 -1.01704 -2.09187 0
M  V30 782 C 74.3689 0.0448214 -1.69341 0
M  V30 783 O 75.5749 -0.108902 -1.7967 0
M  V30 784 H 71.9499 -0.311803 -0.684312 0
M  V30 785 H 73.9209 -1.96207 -2.24823 0
M  V30 786 C 72.6699 -0.627746 -3.41986 0
M  V30 787 H 71.9929 -1.43656 -3.73099 0
M  V30 788 H 73.4329 -0.514053 -4.20872 0
M  V30 789 C 71.8919 0.664238 -3.30287 0
M  V30 790 O 72.4219 1.71268 -3.6336 0
M  V30 791 N 70.6279 0.641156 -2.83439 0
M  V30 792 H 70.1749 -0.212376 -2.56723 0
M  V30 793 H 70.1329 1.50583 -2.75993 0
M  V30 794 N 73.905 1.17692 -1.04816 0
M  V30 795 C 74.835 2.23777 -0.666791 0
M  V30 796 C 75.816 1.66796 0.33361 0
M  V30 797 O 77.001 1.93039 0.212042 0
M  V30 798 C 74.131 3.47281 -0.0367933 0
M  V30 799 C 73.085 4.17059 -0.961546 0
M  V30 800 C 72.411 5.34342 -0.195626 0
M  V30 801 C 73.711 4.69713 -2.28402 0
M  V30 802 H 75.405 2.55933 -1.55367 0
M  V30 803 H 72.951 1.23019 -0.748484 0
M  V30 804 H 74.904 4.20706 0.241775 0
M  V30 805 H 73.628 3.14381 0.885004 0
M  V30 806 H 72.287 3.45541 -1.22462 0
M  V30 807 H 71.935 4.97692 0.728816 0
M  V30 808 H 71.635 5.81966 -0.811775 0
M  V30 809 H 73.159 6.10553 0.0757473 0
M  V30 810 H 74.573 5.34794 -2.06563 0
M  V30 811 H 72.97 5.279 -2.8538 0
M  V30 812 H 74.04 3.86726 -2.92525 0
M  V30 813 N 75.3831 0.828654 1.34056 0
M  V30 814 C 76.3301 0.252567 2.29414 0
M  V30 815 C 77.3001 -0.62588 1.53857 0
M  V30 816 O 78.4851 -0.566312 1.82202 0
M  V30 817 C 75.6251 -0.574831 3.40279 0
M  V30 818 C 74.7381 0.326499 4.30764 0
M  V30 819 C 73.8731 -0.511016 5.28736 0
M  V30 820 C 72.9121 0.389342 6.1086 0
M  V30 821 N 72.0491 -0.409439 7.00905 0
M  V30 822 H 76.8891 1.07108 2.78086 0
M  V30 823 H 74.4261 0.539677 1.36843 0
M  V30 824 H 76.3841 -1.06992 4.03248 0
M  V30 825 H 75.0141 -1.35841 2.92826 0
M  V30 826 H 74.0661 0.939837 3.68607 0
M  V30 827 H 75.3781 1.01857 4.88289 0
M  V30 828 H 74.5321 -1.07035 5.97184 0
M  V30 829 H 73.2711 -1.23657 4.71763 0
M  V30 830 H 72.2761 0.960769 5.4134 0
M  V30 831 H 73.5011 1.1131 6.69916 0
M  V30 832 H 71.4471 -1.11856 6.46393 0
M  V30 833 H 71.3641 0.224126 7.55668 0
M  V30 834 H 72.6321 -0.951336 7.73673 0
M  V30 835 N 76.8612 -1.46375 0.584142 0
M  V30 836 C 78.2772 -1.57694 0.245929 0
M  V30 837 C 78.4772 -1.57903 -1.25175 0
M  V30 838 O 77.5332 -1.49676 -2.03355 0
M  V30 839 C 78.8462 -2.87028 0.896402 0
M  V30 840 C 80.3942 -3.00662 0.870127 0
M  V30 841 C 80.8692 -4.32734 1.50017 0
M  V30 842 N 82.3602 -4.39436 1.46458 0
M  V30 843 C 83.0952 -5.40248 1.92144 0
M  V30 844 N 82.5912 -6.47726 2.4581 0
M  V30 845 N 84.3842 -5.31459 1.83052 0
M  V30 846 H 76.5352 -1.44483 1.55687 0
M  V30 847 H 78.7982 -0.689291 0.650831 0
M  V30 848 H 78.5042 -2.9269 1.95002 0
M  V30 849 H 78.3782 -3.75014 0.405486 0
M  V30 850 H 80.7652 -2.94581 -0.174871 0
M  V30 851 H 80.8462 -2.14148 1.39908 0
M  V30 852 H 80.4902 -4.39573 2.54437 0
M  V30 853 H 80.4202 -5.18025 0.946432 0
M  V30 854 H 82.9112 -3.62367 1.07231 0
M  V30 855 H 83.2242 -7.20863 2.78525 0
M  V30 856 H 81.5692 -6.48542 2.49836 0
M  V30 857 H 84.7602 -4.46396 1.40883 0
M  V30 858 H 84.9332 -6.09881 2.18973 0
M  V30 859 N 78.3393 -0.321999 -1.54275 0
M  V30 860 C 79.5673 0.283052 -2.04955 0
M  V30 861 C 79.9823 1.45904 -1.19823 0
M  V30 862 O 79.3393 1.81063 -0.228545 0
M  V30 863 C 79.3903 0.719028 -3.54277 0
M  V30 864 O 79.1113 -0.410175 -4.36176 0
M  V30 865 C 80.6123 1.38705 -4.21041 0
M  V30 866 H 77.8323 0.0584616 -0.668448 0
M  V30 867 H 80.3763 -0.467734 -1.99079 0
M  V30 868 H 78.5313 1.41979 -3.60445 0
M  V30 869 H 78.9453 -0.0669416 -5.24457 0
M  V30 870 H 80.4193 1.64306 -5.2698 0
M  V30 871 H 80.8963 2.33385 -3.72059 0
M  V30 872 H 81.5023 0.728906 -4.19007 0
M  V30 873 N 79.8174 1.5752 -0.0501392 0
M  V30 874 C 81.0634 1.93755 0.618901 0
M  V30 875 C 81.4184 0.928514 1.68512 0
M  V30 876 O 80.7114 -0.0524613 1.91528 0
M  V30 877 C 80.9054 3.34467 1.25963 0
M  V30 878 C 80.7344 4.48965 0.257 0
M  V30 879 C 79.5044 5.05075 -0.150656 0
M  V30 880 C 81.7024 5.11891 -0.497166 0
M  V30 881 N 79.6844 6.03104 -1.14626 0
M  V30 882 C 81.0554 6.05216 -1.34588 0
M  V30 883 C 83.1104 4.9479 -0.55559 0
M  V30 884 C 81.8134 6.83277 -2.24778 0
M  V30 885 C 83.8394 5.73477 -1.44492 0
M  V30 886 C 83.2014 6.66433 -2.28136 0
M  V30 887 H 79.3004 0.756479 0.198149 0
M  V30 888 H 81.8844 1.94316 -0.122229 0
M  V30 889 H 80.0554 3.34685 1.97079 0
M  V30 890 H 81.7874 3.57994 1.88739 0
M  V30 891 H 78.5424 4.7305 0.228094 0
M  V30 892 H 78.9664 6.56813 -1.64092 0
M  V30 893 H 83.6084 4.2273 0.0768625 0
M  V30 894 H 81.3264 7.54629 -2.89069 0
M  V30 895 H 84.9124 5.62273 -1.49468 0
M  V30 896 H 83.7924 7.26258 -2.95835 0
M  V30 897 N 81.2955 -0.223234 1.56011 0
M  V30 898 C 82.2055 -1.29766 1.95443 0
M  V30 899 C 83.2215 -1.51373 0.858028 0
M  V30 900 O 84.3975 -1.64536 1.16146 0
M  V30 901 C 81.4625 -2.62772 2.26167 0
M  V30 902 C 80.5235 -2.49482 3.49367 0
M  V30 903 C 79.7565 -3.76145 3.78616 0
M  V30 904 O 79.9795 -4.79087 3.09568 0
M  V30 905 O 78.9135 -3.73358 4.72109 0
M  V30 906 H 82.7395 -0.99309 2.87004 0
M  V30 907 H 80.3245 -0.425958 1.43199 0
M  V30 908 H 82.2065 -3.41327 2.47131 0
M  V30 909 H 80.8815 -2.92913 1.37781 0
M  V30 910 H 79.7885 -1.69133 3.33684 0
M  V30 911 H 81.1215 -2.2428 4.38131 0
M  V30 912 N 82.7736 -1.49793 -0.48987 0
M  V30 913 C 83.7206 -1.67281 -1.59014 0
M  V30 914 C 84.6906 -0.514177 -1.57941 0
M  V30 915 O 85.8756 -0.742533 -1.75759 0
M  V30 916 C 83.0156 -1.75569 -2.97102 0
M  V30 917 C 82.1286 -3.0281 -3.08107 0
M  V30 918 C 81.2636 -3.02008 -4.36995 0
M  V30 919 C 80.3026 -4.23782 -4.41673 0
M  V30 920 N 79.4396 -4.20826 -5.62005 0
M  V30 921 H 84.2796 -2.61224 -1.43409 0
M  V30 922 H 81.8166 -1.29508 -0.697565 0
M  V30 923 H 83.7746 -1.78354 -3.77155 0
M  V30 924 H 82.4046 -0.850827 -3.11385 0
M  V30 925 H 81.4566 -3.09584 -2.21047 0
M  V30 926 H 82.7686 -3.92801 -3.07423 0
M  V30 927 H 81.9226 -3.03418 -5.25378 0
M  V30 928 H 80.6616 -2.09815 -4.4026 0
M  V30 929 H 79.6666 -4.22604 -3.5169 0
M  V30 930 H 80.8916 -5.17181 -4.40115 0
M  V30 931 H 78.8376 -3.31476 -5.66091 0
M  V30 932 H 78.7546 -5.04564 -5.62984 0
M  V30 933 H 80.0226 -4.26355 -6.52565 0
M  V30 934 N 84.2517 0.741722 -1.39055 0
M  V30 935 C 85.1817 1.869 -1.39966 0
M  V30 936 C 86.1627 1.6804 -0.26392 0
M  V30 937 O 87.3477 1.88458 -0.468755 0
M  V30 938 C 84.4777 3.24572 -1.23574 0
M  V30 939 C 83.4317 3.58056 -2.34477 0
M  V30 940 C 82.7577 4.94593 -2.0318 0
M  V30 941 C 84.0577 3.61716 -3.76774 0
M  V30 942 H 85.7517 1.86395 -2.34302 0
M  V30 943 H 83.2977 0.895361 -1.1278 0
M  V30 944 H 85.2507 4.031 -1.22834 0
M  V30 945 H 83.9747 3.25587 -0.257045 0
M  V30 946 H 82.6337 2.81854 -2.34423 0
M  V30 947 H 82.2817 4.92181 -1.03765 0
M  V30 948 H 81.9817 5.17964 -2.77465 0
M  V30 949 H 83.5057 5.75486 -2.04079 0
M  V30 950 H 84.9197 4.30335 -3.78794 0
M  V30 951 H 83.3167 3.96603 -4.50362 0
M  V30 952 H 84.3867 2.61672 -4.08235 0
M  V30 953 N 85.7298 1.2412 0.971189 0
M  V30 954 C 86.6598 1.05508 2.08304 0
M  V30 955 C 87.6408 -0.0308864 1.70072 0
M  V30 956 O 88.8258 0.135521 1.93727 0
M  V30 957 C 85.9558 0.655365 3.4106 0
M  V30 958 C 84.9098 1.68971 3.93234 0
M  V30 959 C 84.2358 1.14516 5.22293 0
M  V30 960 C 85.5358 3.08487 4.21465 0
M  V30 961 H 87.2298 1.98507 2.24132 0
M  V30 962 H 84.7758 0.955821 1.07704 0
M  V30 963 H 86.7288 0.51217 4.18276 0
M  V30 964 H 85.4528 -0.31032 3.25122 0
M  V30 965 H 84.1118 1.82106 3.18171 0
M  V30 966 H 83.7598 0.170189 5.02712 0
M  V30 967 H 83.4598 1.83635 5.58168 0
M  V30 968 H 84.9838 1.01401 6.02121 0
M  V30 969 H 86.3978 2.98601 4.89398 0
M  V30 970 H 84.7948 3.74926 4.68562 0
M  V30 971 H 85.8648 3.56787 3.28376 0
M  V30 972 N 87.2079 -1.17134 1.05439 0
M  V30 973 C 88.1379 -2.2342 0.678649 0
M  V30 974 C 89.1189 -1.66971 -0.32476 0
M  V30 975 O 90.3039 -1.93149 -0.201802 0
M  V30 976 C 87.4339 -3.47256 0.0552099 0
M  V30 977 C 86.3879 -4.16543 0.98365 0
M  V30 978 C 85.7139 -5.34231 0.223961 0
M  V30 979 C 87.0139 -4.68495 2.3089 0
M  V30 980 H 88.7079 -2.55105 1.56722 0
M  V30 981 H 86.2539 -1.2262 0.754998 0
M  V30 982 H 88.2069 -4.20828 -0.21946 0
M  V30 983 H 86.9309 -3.14846 -0.868319 0
M  V30 984 H 85.5899 -3.44887 1.24293 0
M  V30 985 H 85.2379 -4.98071 -0.702412 0
M  V30 986 H 84.9379 -5.81527 0.842627 0
M  V30 987 H 86.4619 -6.10585 -0.0433671 0
M  V30 988 H 87.8759 -5.33691 2.09396 0
M  V30 989 H 86.2729 -5.26379 2.88176 0
M  V30 990 H 87.3429 -3.85169 2.94572 0
M  V30 991 N 88.686 -0.835752 -1.33615 0
M  V30 992 C 89.649 -0.272 -2.2758 0
M  V30 993 C 90.649 0.557487 -1.50827 0
M  V30 994 O 91.839 0.37173 -1.70188 0
M  V30 995 C 88.971 0.617173 -3.35267 0
M  V30 996 H 90.164 -1.10111 -2.78954 0
M  V30 997 H 87.717 -0.608594 -1.43965 0
M  V30 998 H 88.452 1.46884 -2.89129 0
M  V30 999 H 88.237 0.0237066 -3.92093 0
M  V30 1000 H 89.727 1.005 -4.05326 0
M  V30 1001 N 90.1641 1.46063 -0.591896 0
M  V30 1002 C 91.1271 2.28854 0.125973 0
M  V30 1003 C 92.1271 1.38903 0.810107 0
M  V30 1004 O 93.3171 1.61186 0.66066 0
M  V30 1005 C 90.4491 3.19526 1.1881 0
M  V30 1006 H 91.6421 2.93802 -0.601717 0
M  V30 1007 H 89.1951 1.52325 -0.350254 0
M  V30 1008 H 89.9301 2.59345 1.94707 0
M  V30 1009 H 89.7151 3.85766 0.701936 0
M  V30 1010 H 91.2051 3.81817 1.69132 0
M  V30 1011 N 91.6422 0.330177 1.54103 0
M  V30 1012 C 93.0582 -0.0222371 1.59585 0
M  V30 1013 C 93.2582 -1.49902 1.34654 0
M  V30 1014 O 92.3142 -2.25592 1.13421 0
M  V30 1015 C 93.6272 0.401932 2.98002 0
M  V30 1016 C 95.1752 0.353145 3.11001 0
M  V30 1017 C 95.6502 0.752576 4.51775 0
M  V30 1018 N 97.1412 0.706239 4.57784 0
M  V30 1019 C 97.8762 0.987417 5.64834 0
M  V30 1020 N 97.3722 1.33607 6.79795 0
M  V30 1021 N 99.1652 0.91254 5.54643 0
M  V30 1022 H 91.3162 1.29228 1.68564 0
M  V30 1023 H 93.5792 0.525906 0.78875 0
M  V30 1024 H 93.2852 1.4311 3.21267 0
M  V30 1025 H 93.1592 -0.229699 3.765 0
M  V30 1026 H 95.5462 -0.666822 2.87467 0
M  V30 1027 H 95.6272 1.0198 2.34593 0
M  V30 1028 H 95.2712 1.77049 4.76042 0
M  V30 1029 H 95.2012 0.0635409 5.26562 0
M  V30 1030 H 97.6922 0.44889 3.75224 0
M  V30 1031 H 98.0052 1.53582 7.57385 0
M  V30 1032 H 96.3502 1.37439 6.81275 0
M  V30 1033 H 99.5412 0.639601 4.6371 0
M  V30 1034 H 99.7142 1.13503 6.37982 0
M  V30 1035 N 93.1203 -1.57491 0.0584922 0
M  V30 1036 C 94.0833 -2.1085 -0.898617 0
M  V30 1037 C 95.0833 -1.02964 -1.23511 0
M  V30 1038 O 96.2733 -1.29007 -1.17059 0
M  V30 1039 C 93.4053 -2.59881 -2.20623 0
M  V30 1040 H 94.5983 -2.96715 -0.435936 0
M  V30 1041 H 92.1513 -1.55141 -0.190023 0
M  V30 1042 H 92.8863 -1.77431 -2.71457 0
M  V30 1043 H 92.6713 -3.38727 -1.97501 0
M  V30 1044 H 94.1613 -3.01285 -2.89166 0
M  V30 1045 N 94.5984 0.214957 -1.56127 0
M  V30 1046 C 95.8474 0.936451 -1.78643 0
M  V30 1047 C 96.1604 1.85237 -0.628229 0
M  V30 1048 O 97.3664 2.613 -0.737186 0
M  V30 1049 C 95.8224 1.7154 -3.16389 0
M  V30 1050 C 95.4304 0.845299 -4.39953 0
M  V30 1051 C 97.1744 2.42772 -3.48227 0
M  V30 1052 C 95.0814 1.62198 -5.68723 0
M  V30 1053 H 94.0114 0.353401 -0.666051 0
M  V30 1054 H 96.6624 0.190169 -1.82512 0
M  V30 1055 H 95.0444 2.50484 -3.06715 0
M  V30 1056 H 96.2184 0.0959353 -4.607 0
M  V30 1057 H 94.5334 0.244789 -4.1568 0
M  V30 1058 H 97.1304 3.01394 -4.41663 0
M  V30 1059 H 97.4734 3.15984 -2.71035 0
M  V30 1060 H 98.0064 1.70813 -3.5926 0
M  V30 1061 H 94.7454 0.933011 -6.48826 0
M  V30 1062 H 94.2654 2.34579 -5.52026 0
M  V30 1063 H 95.9444 2.18095 -6.09133 0
M  V30 1064 N 96.0765 1.50051 0.48192 0
M  V30 1065 C 97.3225 1.60736 1.2366 0
M  V30 1066 C 97.6555 0.301786 1.91841 0
M  V30 1067 O 96.9305 -0.696025 1.8162 0
M  V30 1068 C 97.2135 2.78009 2.28874 0
M  V30 1069 C 97.0665 4.18416 1.65069 0
M  V30 1070 C 98.3855 2.90867 3.30279 0
M  V30 1071 H 95.5045 0.585031 0.448228 0
M  V30 1072 H 98.1465 1.82402 0.531946 0
M  V30 1073 H 96.2965 2.59667 2.88973 0
M  V30 1074 H 97.9685 4.48322 1.0865 0
M  V30 1075 H 96.2115 4.23177 0.954148 0
M  V30 1076 H 96.8825 4.96381 2.41474 0
M  V30 1077 H 99.3585 3.07623 2.80191 0
M  V30 1078 H 98.2345 3.74566 4.01238 0
M  V30 1079 H 98.4955 2.01021 3.93755 0
M  V30 1080 N 97.5546 -0.734337 1.39446 0
M  V30 1081 C 98.5176 -1.83004 1.37994 0
M  V30 1082 C 99.5176 -1.58397 0.276938 0
M  V30 1083 O 100.708 -1.65785 0.534875 0
M  V30 1084 C 97.8396 -3.20802 1.1532 0
M  V30 1085 H 99.0326 -1.85694 2.35494 0
M  V30 1086 H 96.5856 -0.938059 1.25021 0
M  V30 1087 H 97.3206 -3.23772 0.185036 0
M  V30 1088 H 97.1056 -3.4006 1.95197 0
M  V30 1089 H 98.5956 -4.00862 1.17046 0
M  V30 1090 N 99.0327 -1.24633 -0.964593 0
M  V30 1091 C 100.282 -1.08188 -1.7023 0
M  V30 1092 C 100.595 0.37873 -1.91898 0
M  V30 1093 O 101.801 0.663427 -2.6327 0
M  V30 1094 C 100.257 -1.88773 -3.06419 0
M  V30 1095 C 99.8647 -3.39263 -2.92582 0
M  V30 1096 C 101.609 -1.80867 -3.84041 0
M  V30 1097 C 99.5157 -4.1218 -4.24101 0
M  V30 1098 H 98.4457 -0.401245 -0.638372 0
M  V30 1099 H 101.097 -1.48742 -1.07462 0
M  V30 1100 H 99.4787 -1.41035 -3.70034 0
M  V30 1101 H 100.653 -3.94603 -2.37961 0
M  V30 1102 H 98.9677 -3.48154 -2.28424 0
M  V30 1103 H 101.565 -2.32646 -4.81435 0
M  V30 1104 H 101.908 -0.774543 -4.09031 0
M  V30 1105 H 102.441 -2.26301 -3.27159 0
M  V30 1106 H 99.1797 -5.15965 -4.04303 0
M  V30 1107 H 98.6997 -3.61626 -4.78526 0
M  V30 1108 H 100.379 -4.19349 -4.92702 0
M  V30 1109 N 100.511 1.16574 -1.06058 0
M  V30 1110 C 101.421 2.2452 -0.680282 0
M  V30 1111 C 102.437 1.71348 0.302604 0
M  V30 1112 O 103.613 2.00822 0.152513 0
M  V30 1113 C 100.678 3.46629 -0.0700315 0
M  V30 1114 C 99.7388 4.14849 -1.10448 0
M  V30 1115 C 98.9718 5.31129 -0.523256 0
M  V30 1116 O 99.1948 5.66514 0.664709 0
M  V30 1117 O 98.1288 5.88526 -1.26179 0
M  V30 1118 H 101.955 2.59355 -1.58015 0
M  V30 1119 H 99.5398 1.24043 -0.832694 0
M  V30 1120 H 101.422 4.20543 0.268667 0
M  V30 1121 H 100.097 3.13573 0.803353 0
M  V30 1122 H 99.0038 3.42916 -1.49532 0
M  V30 1123 H 100.337 4.51954 -1.94931 0
M  V30 1124 N 101.989 0.842826 1.3317 0
M  V30 1125 C 102.937 0.267495 2.31057 0
M  V30 1126 C 103.931 -0.602682 1.58316 0
M  V30 1127 O 105.137 -0.491803 1.73151 0
M  V30 1128 H 101.512 0.0677813 0.748939 0
M  V30 1129 H 103.483 1.10754 2.77085 0
M  V30 1130 C 102.232 -0.539331 3.43492 0
M  V30 1131 H 101.555 0.12095 3.99617 0
M  V30 1132 H 102.995 -0.90767 4.14171 0
M  V30 1133 C 101.454 -1.71981 2.89697 0
M  V30 1134 O 101.984 -2.81862 2.86211 0
M  V30 1135 N 100.19 -1.54299 2.46252 0
M  V30 1136 H 99.7369 -0.649143 2.49287 0
M  V30 1137 H 99.6949 -2.33431 2.10612 0
M  V30 1138 N 103.467 -1.45747 0.599634 0
M  V30 1139 C 104.878 -1.85853 0.177681 0
M  V30 1140 C 105.229 -1.50102 -1.26348 0
M  V30 1141 O 104.354 -0.923905 -1.95686 0
M  V30 1142 C 104.949 -3.37326 0.315688 0
M  V30 1143 C 103.508 -3.76365 -0.0515144 0
M  V30 1144 C 102.655 -2.69722 0.643822 0
M  V30 1145 H 105.606 -1.36661 0.806814 0
M  V30 1146 H 105.627 -3.77778 -0.454321 0
M  V30 1147 H 105.139 -3.63315 1.36468 0
M  V30 1148 H 103.24 -3.55993 -1.09999 0
M  V30 1149 H 103.353 -4.77916 0.336594 0
M  V30 1150 H 101.717 -2.54567 0.0822881 0
M  V30 1151 H 102.5 -2.98549 1.6948 0
M  V30 1152 N 104.945 -0.338344 -1.53925 0
M  V30 1153 C 105.908 0.508299 -2.23493 0
M  V30 1154 C 106.908 1.03175 -1.23335 0
M  V30 1155 O 108.098 0.921826 -1.47811 0
M  V30 1156 C 105.23 1.70754 -2.95052 0
M  V30 1157 H 106.423 -0.100058 -2.99733 0
M  V30 1158 H 103.976 -0.0896198 -1.56043 0
M  V30 1159 H 104.711 2.35474 -2.22986 0
M  V30 1160 H 104.496 1.33946 -3.68512 0
M  V30 1161 H 105.986 2.30818 -3.48013 0
M  V30 1162 N 106.423 1.57458 -0.0668435 0
M  V30 1163 C 107.7 1.8469 0.644132 0
M  V30 1164 C 108.08 0.958343 1.88093 0
M  V30 1165 O 107.428 0.0233579 2.28488 0
M  V30 1166 C 107.638 3.34767 0.986509 0
M  V30 1167 C 108.986 4.02159 1.36212 0
M  V30 1168 O 110.01 3.39484 1.07839 0
M  V30 1169 O 108.869 5.12694 1.89227 0
M  V30 1170 H 105.963 0.762816 0.319437 0
M  V30 1171 H 108.509 1.6942 -0.0973986 0
M  V30 1172 H 107.281 3.91151 0.107883 0
M  V30 1173 H 106.904 3.55281 1.78497 0
M  V30 1174 N 107.901 -0.206675 1.56239 0
M  V30 1175 C 109.147 -0.930218 1.80208 0
M  V30 1176 C 109.48 -1.83387 0.638981 0
M  V30 1177 O 108.755 -1.91119 -0.361066 0
M  V30 1178 C 109.038 -1.75641 3.1436 0
M  V30 1179 C 108.891 -0.878257 4.41142 0
M  V30 1180 C 110.21 -2.73129 3.45092 0
M  V30 1181 H 107.329 -0.336742 0.655571 0
M  V30 1182 H 109.971 -0.198222 1.88963 0
M  V30 1183 H 108.121 -2.38048 3.07027 0
M  V30 1184 H 109.793 -0.269787 4.6051 0
M  V30 1185 H 108.036 -0.184385 4.33408 0
M  V30 1186 H 108.707 -1.49106 5.3148 0
M  V30 1187 H 111.183 -2.20856 3.52649 0
M  V30 1188 H 110.059 -3.28028 4.40101 0
M  V30 1189 H 110.32 -3.51606 2.68003 0
M  V30 1190 N 109.379 -1.50304 -0.473955 0
M  V30 1191 C 110.604 -1.65175 -1.25427 0
M  V30 1192 C 111.029 -0.333673 -1.85117 0
M  V30 1193 O 110.387 0.702114 -1.67153 0
M  V30 1194 C 110.435 -2.74295 -2.34082 0
M  V30 1195 O 109.539 -2.35349 -3.38651 0
M  V30 1196 H 108.88 -0.551944 -0.369126 0
M  V30 1197 H 111.41 -1.96662 -0.564364 0
M  V30 1198 H 111.42 -2.97285 -2.79438 0
M  V30 1199 H 110.095 -3.69959 -1.90008 0
M  V30 1200 H 108.672 -2.22794 -2.99027 0
M  V30 1201 N 110.857 0.726932 -1.39834 0
M  V30 1202 C 112.103 1.48884 -1.377 0
M  V30 1203 C 112.436 1.94185 0.0244852 0
M  V30 1204 O 111.711 1.67361 0.990986 0
M  V30 1205 C 111.994 2.72288 -2.3565 0
M  V30 1206 C 111.847 2.32956 -3.84775 0
M  V30 1207 C 113.166 3.74414 -2.31306 0
M  V30 1208 H 110.285 0.540062 -0.5015 0
M  V30 1209 H 112.927 0.830547 -1.70886 0
M  V30 1210 H 111.077 3.28457 -2.07481 0
M  V30 1211 H 112.749 1.82356 -4.23726 0
M  V30 1212 H 110.992 1.65088 -4.01159 0
M  V30 1213 H 111.663 3.21362 -4.4881 0
M  V30 1214 H 114.139 3.27849 -2.56231 0
M  V30 1215 H 113.015 4.58414 -3.01907 0
M  V30 1216 H 113.276 4.21909 -1.32081 0
M  V30 1217 N 112.336 1.25143 0.95797 0
M  V30 1218 C 113.585 1.0909 1.69654 0
M  V30 1219 C 113.898 -0.368548 1.92097 0
M  V30 1220 O 115.104 -0.649455 2.63618 0
M  V30 1221 C 113.56 1.90395 3.05414 0
M  V30 1222 C 113.168 3.4081 2.90779 0
M  V30 1223 C 114.912 1.82901 3.83076 0
M  V30 1224 C 112.819 4.14423 4.21909 0
M  V30 1225 H 111.749 0.404625 0.636235 0
M  V30 1226 H 114.4 1.4931 1.06672 0
M  V30 1227 H 112.782 1.42996 3.69281 0
M  V30 1228 H 113.956 3.95859 2.35865 0
M  V30 1229 H 112.271 3.49361 2.26575 0
M  V30 1230 H 114.868 2.35196 4.80195 0
M  V30 1231 H 115.211 0.796224 4.08615 0
M  V30 1232 H 115.744 2.28033 3.25954 0
M  V30 1233 H 112.483 5.18102 4.01561 0
M  V30 1234 H 112.003 3.64159 4.76601 0
M  V30 1235 H 113.682 4.21956 4.90471 0
M  V30 1236 N 113.814 -1.1601 1.06675 0
M  V30 1237 C 115.039 -1.91068 0.806706 0
M  V30 1238 C 115.464 -1.77112 -0.633485 0
M  V30 1239 O 114.822 -1.09908 -1.44187 0
M  V30 1240 C 114.87 -3.39655 1.21106 0
M  V30 1241 O 113.974 -4.10893 0.352189 0
M  V30 1242 H 113.315 -0.595125 0.294486 0
M  V30 1243 H 115.845 -1.46955 1.42356 0
M  V30 1244 H 115.855 -3.90434 1.18428 0
M  V30 1245 H 114.53 -3.49132 2.26008 0
M  V30 1246 H 113.107 -3.70285 0.440868 0
M  V30 1247 N 115.292 -0.849877 -1.32721 0
M  V30 1248 C 116.517 -0.463856 -2.02146 0
M  V30 1249 C 116.942 0.930449 -1.63476 0
M  V30 1250 O 116.3 1.61033 -0.832952 0
M  V30 1251 C 116.348 -0.604955 -3.55489 0
M  V30 1252 O 115.452 0.36425 -4.10788 0
M  V30 1253 H 114.793 -0.187046 -0.637111 0
M  V30 1254 H 117.323 -1.14775 -1.69375 0
M  V30 1255 H 117.333 -0.490696 -4.05038 0
M  V30 1256 H 116.008 -1.62174 -3.82978 0
M  V30 1257 H 114.585 0.206628 -3.72327 0
M  V30 1258 N 116.77 1.45427 -0.607355 0
M  V30 1259 C 118.186 1.57283 -0.270985 0
M  V30 1260 C 118.386 1.59875 1.22647 0
M  V30 1261 O 117.442 1.52893 2.00948 0
M  V30 1262 C 118.755 2.85566 -0.941952 0
M  V30 1263 C 120.303 2.9924 -0.917849 0
M  V30 1264 C 120.778 4.30293 -1.56882 0
M  V30 1265 N 122.269 4.37051 -1.5343 0
M  V30 1266 C 123.004 5.37123 -2.00715 0
M  V30 1267 N 122.5 6.43734 -2.56084 0
M  V30 1268 N 124.293 5.28479 -1.91484 0
M  V30 1269 H 116.444 1.41988 -1.57966 0
M  V30 1270 H 118.707 0.67885 -0.661715 0
M  V30 1271 H 118.413 2.8955 -1.99633 0
M  V30 1272 H 118.287 3.74322 -0.465096 0
M  V30 1273 H 120.674 2.94822 0.127984 0
M  V30 1274 H 120.755 2.11895 -1.43297 0
M  V30 1275 H 120.399 4.35469 -2.61398 0
M  V30 1276 H 120.329 5.16454 -1.02873 0
M  V30 1277 H 122.82 3.60615 -1.12982 0
M  V30 1278 H 123.133 7.16341 -2.89958 0
M  V30 1279 H 121.478 6.44485 -2.60122 0
M  V30 1280 H 124.669 4.44098 -1.47967 0
M  V30 1281 H 124.842 6.0632 -2.28648 0
M  V30 1282 N 118.248 0.346503 1.53744 0
M  V30 1283 C 119.196 -0.52422 2.26616 0
M  V30 1284 C 120.19 -1.09948 1.28871 0
M  V30 1285 O 121.396 -1.04488 1.46568 0
M  V30 1286 H 117.771 -0.187743 0.728187 0
M  V30 1287 H 119.742 0.11239 2.98188 0
M  V30 1288 C 118.491 -1.66186 3.05414 0
M  V30 1289 H 117.814 -1.22848 3.80458 0
M  V30 1290 H 119.254 -2.24622 3.59612 0
M  V30 1291 C 117.713 -2.59302 2.1509 0
M  V30 1292 O 118.243 -3.61628 1.74895 0
M  V30 1293 N 116.449 -2.28055 1.8011 0
M  V30 1294 H 115.996 -1.44883 2.12994 0
M  V30 1295 H 115.954 -2.90615 1.19958 0
M  V30 1296 N 119.726 -1.57421 0.075193 0
M  V30 1297 C 120.954 -1.97946 -0.602076 0
M  V30 1298 C 121.369 -0.953674 -1.62943 0
M  V30 1299 O 120.726 0.0592551 -1.82404 0
M  V30 1300 C 120.777 -3.38546 -1.26762 0
M  V30 1301 O 120.498 -4.37195 -0.281376 0
M  V30 1302 C 121.999 -3.93966 -2.03239 0
M  V30 1303 H 119.219 -0.650918 -0.162931 0
M  V30 1304 H 121.763 -2.03959 0.148601 0
M  V30 1305 H 119.918 -3.33609 -1.96936 0
M  V30 1306 H 120.332 -5.18975 -0.759267 0
M  V30 1307 H 121.806 -4.94555 -2.45193 0
M  V30 1308 H 122.283 -3.30693 -2.8903 0
M  V30 1309 H 122.889 -4.02315 -1.37924 0
M  V30 1310 N 121.204 0.198386 -1.56346 0
M  V30 1311 C 122.452 0.91747 -1.80075 0
M  V30 1312 C 122.773 1.83929 -0.647692 0
M  V30 1313 O 122.043 1.93029 0.334166 0
M  V30 1314 H 120.623 0.341774 -0.664228 0
M  V30 1315 H 123.285 0.204684 -1.93822 0
M  V30 1316 H 122.381 1.51055 -2.7311 0
M  V30 1317 N 122.682 1.50554 0.465978 0
M  V30 1318 C 123.614 1.65949 1.58093 0
M  V30 1319 C 124.627 0.540827 1.53554 0
M  V30 1320 O 125.816 0.814187 1.5885 0
M  V30 1321 C 122.916 1.63261 2.96983 0
M  V30 1322 C 122.089 2.91245 3.26336 0
M  V30 1323 C 121.148 2.8113 4.44806 0
M  V30 1324 O 120.174 3.55086 4.44862 0
M  V30 1325 N 121.376 1.95032 5.46756 0
M  V30 1326 H 124.141 2.62122 1.45301 0
M  V30 1327 H 121.702 1.48082 0.65448 0
M  V30 1328 H 123.694 1.54101 3.74212 0
M  V30 1329 H 122.264 0.748032 3.03518 0
M  V30 1330 H 121.484 3.14493 2.37672 0
M  V30 1331 H 122.772 3.76022 3.42761 0
M  V30 1332 H 122.17 1.3427 5.49534 0
M  V30 1333 H 120.727 1.91772 6.2295 0
M  V30 1334 N 124.16 -0.719506 1.40217 0
M  V30 1335 C 125.576 -1.02707 1.22161 0
M  V30 1336 C 125.776 -2.0128 0.0940557 0
M  V30 1337 O 124.832 -2.46452 -0.549318 0
M  V30 1338 C 126.145 -1.57454 2.56181 0
M  V30 1339 C 127.693 -1.69458 2.63159 0
M  V30 1340 C 128.168 -2.27611 3.97438 0
M  V30 1341 N 129.659 -2.35002 3.99159 0
M  V30 1342 C 130.394 -2.80972 4.99842 0
M  V30 1343 N 129.89 -3.26723 6.10921 0
M  V30 1344 N 131.683 -2.80321 4.87213 0
M  V30 1345 H 123.834 -0.0660492 2.12297 0
M  V30 1346 H 126.097 -0.0919077 0.943534 0
M  V30 1347 H 125.803 -0.924873 3.39321 0
M  V30 1348 H 125.677 -2.56036 2.76993 0
M  V30 1349 H 128.064 -2.33543 1.80393 0
M  V30 1350 H 128.145 -0.694867 2.46181 0
M  V30 1351 H 127.789 -1.6415 4.80643 0
M  V30 1352 H 127.719 -3.2829 4.11744 0
M  V30 1353 H 130.21 -2.02685 3.18947 0
M  V30 1354 H 130.523 -3.60355 6.8364 0
M  V30 1355 H 128.868 -3.24692 6.14492 0
M  V30 1356 H 132.059 -2.43912 3.9953 0
M  V30 1357 H 132.232 -3.15831 5.65822 0
M  V30 1358 N 125.638 -1.25649 -0.95132 0
M  V30 1359 C 126.601 -1.06399 -2.03007 0
M  V30 1360 C 127.601 -0.0156794 -1.60792 0
M  V30 1361 O 128.791 -0.25817 -1.72276 0
M  V30 1362 C 125.923 -0.616184 -3.35285 0
M  V30 1363 H 127.116 -2.02164 -2.21517 0
M  V30 1364 H 124.669 -1.08103 -1.12887 0
M  V30 1365 H 125.404 0.343917 -3.22471 0
M  V30 1366 H 125.189 -1.37301 -3.67275 0
M  V30 1367 H 126.679 -0.503032 -4.14559 0
M  V30 1368 N 127.117 1.15442 -1.07289 0
M  V30 1369 C 128.363 1.86489 -0.796846 0
M  V30 1370 C 128.696 1.82078 0.675371 0
M  V30 1371 O 127.971 1.24346 1.4956 0
M  V30 1372 C 128.254 3.35626 -1.30489 0
M  V30 1373 C 128.107 3.48673 -2.84161 0
M  V30 1374 C 129.426 4.30357 -0.920907 0
M  V30 1375 H 126.545 0.677144 -0.290939 0
M  V30 1376 H 129.187 1.35633 -1.33056 0
M  V30 1377 H 127.337 3.79068 -0.850883 0
M  V30 1378 H 129.009 3.14099 -3.37846 0
M  V30 1379 H 127.252 2.90253 -3.22391 0
M  V30 1380 H 127.923 4.53453 -3.14777 0
M  V30 1381 H 130.399 3.94871 -1.3121 0
M  V30 1382 H 129.275 5.33193 -1.30372 0
M  V30 1383 H 129.536 4.4176 0.173226 0
M  V30 1384 N 128.595 0.856903 1.32268 0
M  V30 1385 C 129.525 0.31858 2.31316 0
M  V30 1386 C 130.506 -0.583487 1.59779 0
M  V30 1387 O 131.691 -0.503259 1.87566 0
M  V30 1388 C 128.821 -0.491979 3.43798 0
M  V30 1389 C 127.775 0.315849 4.26833 0
M  V30 1390 C 127.101 -0.619586 5.31098 0
M  V30 1391 C 128.401 1.54282 4.98993 0
M  V30 1392 H 130.095 1.14621 2.76591 0
M  V30 1393 H 127.641 0.552613 1.32974 0
M  V30 1394 H 129.594 -0.879012 4.1213 0
M  V30 1395 H 128.318 -1.35299 2.97257 0
M  V30 1396 H 126.977 0.684664 3.6015 0
M  V30 1397 H 126.625 -1.47751 4.8081 0
M  V30 1398 H 126.325 -0.0830621 5.87541 0
M  V30 1399 H 127.849 -1.00375 6.02293 0
M  V30 1400 H 129.263 1.22796 5.59995 0
M  V30 1401 H 127.66 2.01745 5.65172 0
M  V30 1402 H 128.73 2.30285 4.26728 0
M  V30 1403 N 130.073 -1.45103 0.615059 0
M  V30 1404 C 131.02 -2.30586 -0.0993978 0
M  V30 1405 C 131.99 -1.42544 -0.852669 0
M  V30 1406 O 133.175 -1.71465 -0.836917 0
M  V30 1407 C 130.315 -3.27572 -1.08583 0
M  V30 1408 C 129.428 -4.30717 -0.332656 0
M  V30 1409 C 128.563 -5.14807 -1.30947 0
M  V30 1410 C 127.602 -6.09673 -0.544538 0
M  V30 1411 N 126.739 -6.86517 -1.47101 0
M  V30 1412 H 131.579 -2.91144 0.635542 0
M  V30 1413 H 129.116 -1.4346 0.325206 0
M  V30 1414 H 131.074 -3.82276 -1.67095 0
M  V30 1415 H 129.704 -2.68751 -1.78809 0
M  V30 1416 H 128.756 -3.78615 0.368107 0
M  V30 1417 H 130.068 -4.98102 0.263842 0
M  V30 1418 H 129.222 -5.73948 -1.96643 0
M  V30 1419 H 127.961 -4.47458 -1.9399 0
M  V30 1420 H 126.966 -5.49656 0.126003 0
M  V30 1421 H 128.191 -6.79052 0.080947 0
M  V30 1422 H 126.137 -6.21851 -2.08895 0
M  V30 1423 H 126.054 -7.50281 -0.928137 0
M  V30 1424 H 127.322 -7.50194 -2.11731 0
M  V30 1425 N 131.551 -0.354651 -1.53558 0
M  V30 1426 C 132.798 0.238443 -2.01091 0
M  V30 1427 C 133.126 1.49663 -1.24222 0
M  V30 1428 O 132.381 1.93049 -0.321003 0
M  V30 1429 C 132.68 0.587121 -3.52545 0
M  V30 1430 C 132.346 -0.575472 -4.47213 0
M  V30 1431 C 131.008 -0.894497 -4.72813 0
M  V30 1432 C 133.36 -1.35489 -5.03281 0
M  V30 1433 C 130.688 -1.99511 -5.51736 0
M  V30 1434 C 133.04 -2.44583 -5.83405 0
M  V30 1435 C 131.704 -2.77033 -6.07296 0
M  V30 1436 H 130.974 0.0872526 -0.735845 0
M  V30 1437 H 133.621 -0.484859 -1.8526 0
M  V30 1438 H 131.926 1.39129 -3.66265 0
M  V30 1439 H 133.623 1.05809 -3.86789 0
M  V30 1440 H 130.213 -0.316774 -4.27428 0
M  V30 1441 H 134.397 -1.12167 -4.83459 0
M  V30 1442 H 129.653 -2.25063 -5.68469 0
M  V30 1443 H 133.827 -3.05401 -6.25862 0
M  V30 1444 H 131.454 -3.6244 -6.68237 0
M  V30 1445 N 133.029 1.57378 -0.0835403 0
M  V30 1446 C 133.992 2.12252 0.864959 0
M  V30 1447 C 134.992 1.04916 1.21858 0
M  V30 1448 O 136.182 1.30853 1.14991 0
M  V30 1449 C 133.314 2.63358 2.16461 0
M  V30 1450 H 134.507 2.97371 0.388676 0
M  V30 1451 H 132.06 1.55423 0.165317 0
M  V30 1452 H 132.795 1.81727 2.686 0
M  V30 1453 H 132.58 3.41826 1.92087 0
M  V30 1454 H 134.07 3.05847 2.84337 0
M  V30 1455 N 134.507 -0.190092 1.56449 0
M  V30 1456 C 135.47 -1.21925 1.9408 0
M  V30 1457 C 136.47 -1.38176 0.822431 0
M  V30 1458 O 137.66 -1.35903 1.08977 0
M  V30 1459 C 134.792 -2.58773 2.21922 0
M  V30 1460 H 135.985 -0.897464 2.86157 0
M  V30 1461 H 133.538 -0.43181 1.50217 0
M  V30 1462 H 134.273 -2.95998 1.32499 0
M  V30 1463 H 134.058 -2.48348 3.03424 0
M  V30 1464 H 135.548 -3.32978 2.52022 0
M  V30 1465 N 135.985 -1.50799 -0.457987 0
M  V30 1466 C 136.948 -1.7005 -1.53674 0
M  V30 1467 C 137.948 -0.570881 -1.50325 0
M  V30 1468 O 139.138 -0.838126 -1.52712 0
M  V30 1469 C 136.27 -1.73788 -2.93276 0
M  V30 1470 H 137.463 -2.66306 -1.37917 0
M  V30 1471 H 135.016 -1.40477 -0.685271 0
M  V30 1472 H 135.751 -0.792717 -3.14462 0
M  V30 1473 H 135.536 -2.55864 -2.97113 0
M  V30 1474 H 137.026 -1.90591 -3.71571 0
M  V30 1475 N 137.463 0.71206 -1.40597 0
M  V30 1476 C 138.691 1.50111 -1.42388 0
M  V30 1477 C 139.106 1.88784 -0.0245395 0
M  V30 1478 O 138.463 1.55681 0.952351 0
M  V30 1479 C 138.514 2.7742 -2.31776 0
M  V30 1480 O 138.235 2.40382 -3.66262 0
M  V30 1481 C 139.736 3.7129 -2.42196 0
M  V30 1482 H 136.956 0.46314 -0.485533 0
M  V30 1483 H 139.5 0.878068 -1.8469 0
M  V30 1484 H 137.655 3.36001 -1.92827 0
M  V30 1485 H 138.069 3.22324 -4.13772 0
M  V30 1486 H 139.543 4.57448 -3.08943 0
M  V30 1487 H 140.02 4.14641 -1.44809 0
M  V30 1488 H 140.626 3.18619 -2.81712 0
M  V30 1489 N 138.941 1.26152 0.944643 0
M  V30 1490 C 140.189 1.11271 1.6871 0
M  V30 1491 C 140.51 -0.345166 1.91921 0
M  V30 1492 O 139.78 -1.24387 1.51343 0
M  V30 1493 H 138.36 0.408783 0.625224 0
M  V30 1494 H 141.022 1.58427 1.1352 0
M  V30 1495 H 140.118 1.62879 2.66227 0
M  V30 1496 N 140.419 -1.14872 1.07899 0
M  V30 1497 C 141.382 -2.17986 0.708161 0
M  V30 1498 C 142.382 -1.58775 -0.25442 0
M  V30 1499 O 143.572 -1.74166 -0.034645 0
M  V30 1500 C 140.704 -3.40871 0.0446929 0
M  V30 1501 H 141.897 -2.52306 1.62116 0
M  V30 1502 H 139.45 -1.2943 0.876218 0
M  V30 1503 H 140.185 -3.12124 -0.880281 0
M  V30 1504 H 139.97 -3.8511 0.737091 0
M  V30 1505 H 141.46 -4.17121 -0.19991 0
M  V30 1506 N 141.898 -0.863906 -1.31812 0
M  V30 1507 C 143.126 -0.486111 -2.01108 0
M  V30 1508 C 143.541 0.919755 -1.64882 0
M  V30 1509 O 142.898 1.60162 -0.874893 0
M  V30 1510 C 142.949 -0.626435 -3.56031 0
M  V30 1511 O 142.67 -1.97693 -3.90959 0
M  V30 1512 C 144.171 -0.248857 -4.42601 0
M  V30 1513 H 141.391 -0.190052 -0.643523 0
M  V30 1514 H 143.935 -1.1634 -1.68182 0
M  V30 1515 H 142.09 0.00322717 -3.874 0
M  V30 1516 H 142.504 -1.98034 -4.85678 0
M  V30 1517 H 143.978 -0.398016 -5.50563 0
M  V30 1518 H 144.455 0.811489 -4.31638 0
M  V30 1519 H 145.061 -0.853971 -4.16638 0
M  V30 1520 N 143.376 1.44774 -0.622745 0
M  V30 1521 C 144.787 1.85546 -0.207226 0
M  V30 1522 C 145.138 1.52093 1.23944 0
M  V30 1523 O 144.263 0.95492 1.94191 0
M  V30 1524 C 144.858 3.36781 -0.369313 0
M  V30 1525 C 143.417 3.76399 -0.00836847 0
M  V30 1526 C 142.564 2.68664 -0.686651 0
M  V30 1527 H 145.515 1.3536 -0.828454 0
M  V30 1528 H 145.536 3.78453 0.394162 0
M  V30 1529 H 145.048 3.61098 -1.42231 0
M  V30 1530 H 143.149 3.57698 1.04322 0
M  V30 1531 H 143.262 4.7732 -0.412584 0
M  V30 1532 H 141.626 2.54404 -0.122777 0
M  V30 1533 H 142.409 2.95815 -1.74208 0
M  V30 1534 N 144.854 0.36279 1.53368 0
M  V30 1535 C 146.103 -0.22888 2.00397 0
M  V30 1536 C 146.416 -1.50096 1.25421 0
M  V30 1537 O 147.622 -2.17106 1.63025 0
M  V30 1538 C 146.078 -0.458417 3.56969 0
M  V30 1539 C 145.686 0.798877 4.4082 0
M  V30 1540 C 147.43 -1.00789 4.12361 0
M  V30 1541 C 145.337 0.539078 5.88938 0
M  V30 1542 H 144.267 -0.089305 0.748693 0
M  V30 1543 H 146.918 0.481099 1.77081 0
M  V30 1544 H 145.3 -1.22959 3.76427 0
M  V30 1545 H 146.474 1.57262 4.33134 0
M  V30 1546 H 144.789 1.27137 3.96516 0
M  V30 1547 H 147.386 -1.21754 5.20653 0
M  V30 1548 H 147.729 -1.9692 3.66781 0
M  V30 1549 H 148.262 -0.296961 3.9669 0
M  V30 1550 H 145.001 1.47064 6.3879 0
M  V30 1551 H 144.521 -0.196222 5.99479 0
M  V30 1552 H 146.2 0.163542 6.46793 0
M  V30 1553 N 146.332 -1.57332 0.0918853 0
M  V30 1554 C 147.295 -2.12708 -0.85369 0
M  V30 1555 C 148.295 -1.05561 -1.213 0
M  V30 1556 O 149.485 -1.31461 -1.14296 0
M  V30 1557 C 146.617 -2.64503 -2.15061 0
M  V30 1558 H 147.81 -2.97573 -0.3729 0
M  V30 1559 H 145.363 -1.55509 -0.157072 0
M  V30 1560 H 146.098 -1.83149 -2.67632 0
M  V30 1561 H 145.883 -3.4284 -1.90272 0
M  V30 1562 H 147.373 -3.07351 -2.82711 0
M  V30 1563 N 147.81 0.181792 -1.56548 0
M  V30 1564 C 149.058 0.89832 -1.81038 0
M  V30 1565 C 149.379 1.83232 -0.667164 0
M  V30 1566 O 148.649 1.93372 0.313673 0
M  V30 1567 H 147.229 0.33471 -0.667816 0
M  V30 1568 H 149.891 0.184116 -1.94028 0
M  V30 1569 H 148.987 1.4815 -2.74696 0
M  V30 1570 N 149.288 1.51039 0.449983 0
M  V30 1571 C 150.704 1.38934 0.785462 0
M  V30 1572 C 150.904 0.461817 1.96136 0
M  V30 1573 O 149.96 -0.0877389 2.52348 0
M  V30 1574 C 151.273 2.80724 1.0777 0
M  V30 1575 C 152.821 2.89787 1.1829 0
M  V30 1576 C 153.296 4.32457 1.50815 0
M  V30 1577 N 154.787 4.35505 1.57764 0
M  V30 1578 C 155.522 5.42914 1.84477 0
M  V30 1579 N 155.018 6.60502 2.09068 0
M  V30 1580 N 156.811 5.3038 1.86155 0
M  V30 1581 H 148.962 2.09904 -0.324647 0
M  V30 1582 H 151.225 0.944378 -0.0827957 0
M  V30 1583 H 150.931 3.50531 0.286498 0
M  V30 1584 H 150.805 3.19273 2.00859 0
M  V30 1585 H 153.192 2.20186 1.96474 0
M  V30 1586 H 153.273 2.54752 0.231314 0
M  V30 1587 H 152.917 5.02603 0.731622 0
M  V30 1588 H 152.847 4.64995 2.47158 0
M  V30 1589 H 155.338 3.50724 1.40715 0
M  V30 1590 H 155.651 7.38158 2.28785 0
M  V30 1591 H 153.996 6.63639 2.06416 0
M  V30 1592 H 157.187 4.37505 1.66454 0
M  V30 1593 H 157.36 6.1417 2.06637 0
M  V30 1594 N 150.766 -0.704594 1.40972 0
M  V30 1595 C 152.013 -1.46458 1.39844 0
M  V30 1596 C 152.341 -1.94499 0.00447594 0
M  V30 1597 O 151.596 -1.69275 -0.982057 0
M  V30 1598 C 151.895 -2.698 2.34399 0
M  V30 1599 C 151.561 -2.40464 3.81429 0
M  V30 1600 C 150.223 -2.32174 4.21484 0
M  V30 1601 C 152.575 -2.16086 4.74296 0
M  V30 1602 C 149.903 -1.97589 5.52427 0
M  V30 1603 C 152.255 -1.83011 6.05549 0
M  V30 1604 C 150.919 -1.7321 6.44635 0
M  V30 1605 H 150.189 -0.535927 0.511725 0
M  V30 1606 H 152.836 -0.806124 1.73706 0
M  V30 1607 H 151.141 -3.40536 1.93759 0
M  V30 1608 H 152.838 -3.27919 2.30804 0
M  V30 1609 H 149.428 -2.47808 3.49699 0
M  V30 1610 H 153.612 -2.2144 4.4416 0
M  V30 1611 H 148.868 -1.88547 5.81601 0
M  V30 1612 H 153.042 -1.63164 6.77016 0
M  V30 1613 H 150.669 -1.46179 7.46013 0
M  V30 1614 N 152.244 -1.26651 -0.937939 0
M  V30 1615 C 153.472 -1.15173 -1.7188 0
M  V30 1616 C 153.887 0.292668 -1.86518 0
M  V30 1617 O 153.244 1.20014 -1.37488 0
M  V30 1618 C 153.295 -1.81925 -3.12387 0
M  V30 1619 O 153.016 -3.2072 -2.98446 0
M  V30 1620 C 154.517 -1.76442 -4.06673 0
M  V30 1621 H 151.737 -0.400911 -0.538063 0
M  V30 1622 H 154.281 -1.67332 -1.1756 0
M  V30 1623 H 152.436 -1.33696 -3.63599 0
M  V30 1624 H 152.85 -3.53802 -3.872 0
M  V30 1625 H 154.324 -2.27781 -5.02812 0
M  V30 1626 H 154.801 -0.731608 -4.33064 0
M  V30 1627 H 155.407 -2.24238 -3.61382 0
M  V30 1628 N 153.722 1.14298 -1.08507 0
M  V30 1629 C 155.133 1.66926 -0.836227 0
M  V30 1630 C 155.484 1.85576 0.63686 0
M  V30 1631 O 154.609 1.56767 1.49175 0
M  V30 1632 C 155.204 3.03219 -1.51142 0
M  V30 1633 C 153.763 3.52876 -1.30979 0
M  V30 1634 C 152.91 2.2833 -1.57356 0
M  V30 1635 H 155.861 0.983491 -1.24552 0
M  V30 1636 H 155.882 3.68726 -0.939211 0
M  V30 1637 H 155.394 2.89612 -2.58353 0
M  V30 1638 H 153.495 3.71703 -0.258429 0
M  V30 1639 H 153.608 4.33586 -2.03814 0
M  V30 1640 H 151.972 2.34454 -0.995164 0
M  V30 1641 H 152.755 2.17298 -2.65775 0
M  V30 1642 N 155.201 0.870884 1.31352 0
M  V30 1643 C 156.449 0.48132 1.96285 0
M  V30 1644 C 156.77 -0.969813 1.69173 0
M  V30 1645 O 156.04 -1.67998 1.00764 0
M  V30 1646 H 154.62 0.175002 0.726212 0
M  V30 1647 H 157.282 1.11087 1.60143 0
M  V30 1648 H 156.378 0.639825 3.05471 0
M  V30 1649 N 156.679 -1.44442 0.630414 0
M  V30 1650 C 157.907 -2.06414 0.141671 0
M  V30 1651 C 158.322 -1.47105 -1.18345 0
M  V30 1652 O 157.679 -0.593662 -1.72574 0
M  V30 1653 C 157.73 -3.61494 0.0199784 0
M  V30 1654 O 157.451 -4.18594 1.29269 0
M  V30 1655 C 158.952 -4.40499 -0.497544 0
M  V30 1656 H 156.172 -0.666292 0.0793452 0
M  V30 1657 H 158.716 -1.85323 0.864614 0
M  V30 1658 H 156.871 -3.8185 -0.653402 0
M  V30 1659 H 157.285 -5.12026 1.13707 0
M  V30 1660 H 158.759 -5.49433 -0.531708 0
M  V30 1661 H 159.236 -4.11895 -1.52445 0
M  V30 1662 H 159.842 -4.25061 0.142562 0
M  V30 1663 N 158.157 -0.370918 -1.53173 0
M  V30 1664 C 159.404 0.217102 -2.01333 0
M  V30 1665 C 159.732 1.48338 -1.25802 0
M  V30 1666 O 158.987 1.92698 -0.34146 0
M  V30 1667 C 159.286 0.549696 -3.53147 0
M  V30 1668 C 158.952 -0.622872 -4.46577 0
M  V30 1669 C 157.614 -0.944595 -4.71838 0
M  V30 1670 C 159.966 -1.40819 -5.01816 0
M  V30 1671 C 157.294 -2.05351 -5.49589 0
M  V30 1672 C 159.646 -2.50757 -5.80778 0
M  V30 1673 C 158.31 -2.83458 -6.04324 0
M  V30 1674 H 157.58 0.0794431 -0.736729 0
M  V30 1675 H 160.227 -0.504481 -1.84736 0
M  V30 1676 H 158.532 1.35237 -3.6772 0
M  V30 1677 H 160.229 1.017 -3.87889 0
M  V30 1678 H 156.819 -0.36209 -4.27068 0
M  V30 1679 H 161.003 -1.17289 -4.82242 0
M  V30 1680 H 156.259 -2.3108 -5.6605 0
M  V30 1681 H 160.433 -3.12022 -6.22588 0
M  V30 1682 H 158.06 -3.69508 -6.64355 0
M  V30 1683 N 159.635 1.57281 -0.100228 0
M  V30 1684 C 160.863 1.98879 0.570509 0
M  V30 1685 C 161.278 0.979476 1.61405 0
M  V30 1686 O 160.635 -0.0302288 1.82475 0
M  V30 1687 C 160.686 3.4052 1.2136 0
M  V30 1688 O 160.407 4.37588 0.211786 0
M  V30 1689 C 161.908 3.97149 1.96945 0
M  V30 1690 H 159.128 0.653428 0.152555 0
M  V30 1691 H 161.672 2.03697 -0.18103 0
M  V30 1692 H 159.827 3.367 1.91603 0
M  V30 1693 H 160.241 5.20118 0.676607 0
M  V30 1694 H 161.715 4.98393 2.37294 0
M  V30 1695 H 162.192 3.3525 2.83733 0
M  V30 1696 H 162.798 4.04458 1.31506 0
M  V30 1697 N 161.113 -0.173488 1.56642 0
M  V30 1698 C 162.061 -1.23417 1.97157 0
M  V30 1699 C 163.055 -1.45946 0.860013 0
M  V30 1700 O 164.261 -1.46551 1.04512 0
M  V30 1701 H 160.636 -0.414818 0.62724 0
M  V30 1702 H 162.607 -0.865582 2.8557 0
M  V30 1703 C 161.356 -2.5665 2.34576 0
M  V30 1704 H 160.679 -2.40137 3.19647 0
M  V30 1705 H 162.119 -3.2956 2.6677 0
M  V30 1706 C 160.578 -3.15245 1.18836 0
M  V30 1707 O 161.108 -3.98883 0.474869 0
M  V30 1708 N 159.314 -2.74303 0.959497 0
M  V30 1709 H 158.861 -2.0639 1.54146 0
M  V30 1710 H 158.819 -3.13844 0.186932 0
M  V30 1711 N 162.591 -1.51276 -0.441967 0
M  V30 1712 C 163.523 -1.68444 -1.55433 0
M  V30 1713 C 164.536 -0.565187 -1.52674 0
M  V30 1714 O 165.725 -0.839356 -1.57534 0
M  V30 1715 C 162.825 -1.67966 -2.94348 0
M  V30 1716 C 161.998 -2.964 -3.21661 0
M  V30 1717 C 161.057 -2.88171 -4.40277 0
M  V30 1718 O 160.083 -3.62119 -4.39157 0
M  V30 1719 N 161.285 -2.03706 -5.43584 0
M  V30 1720 H 164.05 -2.644 -1.41112 0
M  V30 1721 H 161.611 -1.49104 -0.630838 0
M  V30 1722 H 163.603 -1.60035 -3.71713 0
M  V30 1723 H 162.173 -0.796225 -3.0229 0
M  V30 1724 H 161.393 -3.18234 -2.32638 0
M  V30 1725 H 162.681 -3.81427 -3.36736 0
M  V30 1726 H 162.079 -1.42995 -5.47329 0
M  V30 1727 H 160.636 -2.01658 -6.1982 0
M  V30 1728 N 164.069 0.697108 -1.41344 0
M  V30 1729 C 165.318 1.45279 -1.39918 0
M  V30 1730 C 165.631 1.95597 -0.0109624 0
M  V30 1731 O 166.837 2.71208 0.125919 0
M  V30 1732 C 165.293 2.62695 -2.46007 0
M  V30 1733 C 164.901 2.19169 -3.90729 0
M  V30 1734 C 166.645 3.40336 -2.53715 0
M  V30 1735 C 164.552 3.33535 -4.88373 0
M  V30 1736 H 163.482 0.545692 -0.520323 0
M  V30 1737 H 166.133 0.756929 -1.67161 0
M  V30 1738 H 164.515 3.34541 -2.11892 0
M  V30 1739 H 165.689 1.54623 -4.34083 0
M  V30 1740 H 164.004 1.54525 -3.86666 0
M  V30 1741 H 166.601 4.2547 -3.2385 0
M  V30 1742 H 166.944 3.85418 -1.5735 0
M  V30 1743 H 167.477 2.75546 -2.86913 0
M  V30 1744 H 164.216 2.93468 -5.86137 0
M  V30 1745 H 163.736 3.96936 -4.49668 0
M  V30 1746 H 165.415 3.99335 -5.09059 0
M  V30 1747 N 165.547 1.27147 0.931209 0
M  V30 1748 C 166.479 1.05364 2.03546 0
M  V30 1749 C 167.492 0.0108438 1.62796 0
M  V30 1750 O 168.681 0.25202 1.76712 0
M  V30 1751 C 165.781 0.575566 3.33977 0
M  V30 1752 C 164.954 1.68985 4.03439 0
M  V30 1753 C 164.013 1.20813 5.12143 0
M  V30 1754 O 163.039 1.90712 5.363 0
M  V30 1755 N 164.241 0.0618851 5.80467 0
M  V30 1756 H 167.006 2.00454 2.22796 0
M  V30 1757 H 164.567 1.18666 1.10136 0
M  V30 1758 H 166.559 0.237264 4.04004 0
M  V30 1759 H 165.129 -0.282016 3.11325 0
M  V30 1760 H 164.349 2.19861 3.27192 0
M  V30 1761 H 165.637 2.4378 4.46597 0
M  V30 1762 H 165.035 -0.521621 5.6329 0
M  V30 1763 H 163.592 -0.217264 6.51438 0
M  V30 1764 N 167.025 -1.13721 1.09112 0
M  V30 1765 C 167.988 -2.17222 0.731241 0
M  V30 1766 C 168.988 -1.59035 -0.237566 0
M  V30 1767 O 170.178 -1.74192 -0.0161704 0
M  V30 1768 C 167.31 -3.40804 0.0808443 0
M  V30 1769 H 168.503 -2.50573 1.64783 0
M  V30 1770 H 166.056 -1.28493 0.889897 0
M  V30 1771 H 166.791 -3.1304 -0.847127 0
M  V30 1772 H 166.576 -3.84306 0.777896 0
M  V30 1773 H 168.066 -4.1731 -0.155657 0
M  V30 1774 N 168.503 -0.877838 -1.30888 0
M  V30 1775 C 169.466 -0.344265 -2.266 0
M  V30 1776 C 170.466 0.50922 -1.52524 0
M  V30 1777 O 171.656 0.317398 -1.71284 0
M  V30 1778 C 168.788 0.510198 -3.37061 0
M  V30 1779 H 169.981 -1.1893 -2.7531 0
M  V30 1780 H 167.534 -0.654088 -1.41956 0
M  V30 1781 H 168.269 1.37612 -2.93655 0
M  V30 1782 H 168.054 -0.101047 -3.9197 0
M  V30 1783 H 169.544 0.875537 -4.08319 0
M  V30 1784 N 169.982 1.44106 -0.638065 0
M  V30 1785 C 171.229 2.01978 -0.14533 0
M  V30 1786 C 171.557 1.50234 1.23532 0
M  V30 1787 O 170.812 0.679548 1.83523 0
M  V30 1788 C 171.111 3.5729 -0.0887327 0
M  V30 1789 C 170.777 4.28317 -1.40909 0
M  V30 1790 C 169.439 4.47437 -1.77069 0
M  V30 1791 C 171.791 4.6867 -2.28031 0
M  V30 1792 C 169.119 5.04171 -3.00047 0
M  V30 1793 C 171.471 5.26766 -3.50286 0
M  V30 1794 C 170.135 5.44104 -3.86661 0
M  V30 1795 H 169.405 0.739089 -0.0531801 0
M  V30 1796 H 172.052 1.72781 -0.825761 0
M  V30 1797 H 170.357 3.8594 0.675095 0
M  V30 1798 H 172.054 3.99807 0.309145 0
M  V30 1799 H 168.644 4.1377 -1.1177 0
M  V30 1800 H 172.828 4.53604 -2.01388 0
M  V30 1801 H 168.084 5.15782 -3.28298 0
M  V30 1802 H 172.258 5.56983 -4.18023 0
M  V30 1803 H 169.885 5.87832 -4.82034 0
M  V30 1804 N 171.46 0.379036 1.52974 0
M  V30 1805 C 172.876 0.0285448 1.59574 0
M  V30 1806 C 173.076 -1.45542 1.39355 0
M  V30 1807 O 172.132 -2.2187 1.20541 0
M  V30 1808 C 173.445 0.496535 2.96572 0
M  V30 1809 C 174.993 0.451909 3.0972 0
M  V30 1810 C 175.468 0.895924 4.49152 0
M  V30 1811 N 176.959 0.851522 4.55306 0
M  V30 1812 C 177.694 1.16661 5.61407 0
M  V30 1813 N 177.19 1.55166 6.752 0
M  V30 1814 N 178.983 1.08853 5.51459 0
M  V30 1815 H 171.134 1.34525 1.64367 0
M  V30 1816 H 173.397 0.550733 0.771619 0
M  V30 1817 H 173.103 1.53258 3.16552 0
M  V30 1818 H 172.977 -0.109802 3.7704 0
M  V30 1819 H 175.364 -0.575029 2.89443 0
M  V30 1820 H 175.445 1.09392 2.3123 0
M  V30 1821 H 175.089 1.92104 4.70168 0
M  V30 1822 H 175.019 0.23103 5.26093 0
M  V30 1823 H 177.51 0.568038 3.73606 0
M  V30 1824 H 177.823 1.776 7.52116 0
M  V30 1825 H 176.168 1.59044 6.76557 0
M  V30 1826 H 179.359 0.786803 4.6144 0
M  V30 1827 H 179.532 1.33742 6.34048 0
M  V30 1828 N 172.938 -1.57226 0.108567 0
M  V30 1829 C 173.848 -2.18292 -0.859401 0
M  V30 1830 C 174.864 -1.15612 -1.30038 0
M  V30 1831 O 176.04 -1.48039 -1.36552 0
M  V30 1832 C 173.105 -2.762 -2.09558 0
M  V30 1833 C 172.166 -3.93881 -1.70752 0
M  V30 1834 C 171.399 -4.49018 -2.88477 0
M  V30 1835 O 171.622 -4.03068 -4.036 0
M  V30 1836 O 170.556 -5.39852 -2.66164 0
M  V30 1837 H 174.382 -3.01441 -0.369769 0
M  V30 1838 H 171.967 -1.48945 -0.1165 0
M  V30 1839 H 173.849 -3.13156 -2.81978 0
M  V30 1840 H 172.524 -1.96089 -2.57548 0
M  V30 1841 H 171.431 -3.61713 -0.954714 0
M  V30 1842 H 172.764 -4.75396 -1.27513 0
M  V30 1843 N 174.416 0.165178 -1.56732 0
M  V30 1844 C 175.827 0.727046 -1.71962 0
M  V30 1845 C 176.178 1.82508 -0.720078 0
M  V30 1846 O 175.303 2.16082 0.117242 0
M  V30 1847 C 175.898 1.32559 -3.11791 0
M  V30 1848 C 174.457 1.83422 -3.28684 0
M  V30 1849 C 173.604 0.715567 -2.67908 0
M  V30 1850 H 176.555 -0.0602896 -1.58585 0
M  V30 1851 H 176.576 2.19533 -3.10782 0
M  V30 1852 H 176.088 0.526195 -3.84516 0
M  V30 1853 H 174.189 2.65986 -2.60926 0
M  V30 1854 H 174.302 1.97543 -4.36478 0
M  V30 1855 H 172.666 1.13758 -2.27884 0
M  V30 1856 H 173.449 -0.0720836 -3.43224 0
M  V30 1857 N 175.894 1.51508 0.433938 0
M  V30 1858 C 177.31 1.39759 0.770682 0
M  V30 1859 C 177.51 0.482594 1.95636 0
M  V30 1860 O 176.566 -0.0609691 2.52426 0
M  V30 1861 C 177.879 2.81851 1.04787 0
M  V30 1862 C 179.427 2.91025 1.1521 0
M  V30 1863 C 179.902 4.34032 1.46219 0
M  V30 1864 N 181.393 4.37154 1.53136 0
M  V30 1865 C 182.128 5.4484 1.78709 0
M  V30 1866 N 181.624 6.62682 2.02051 0
M  V30 1867 N 183.417 5.32324 1.80519 0
M  V30 1868 H 175.568 2.09548 -0.346892 0
M  V30 1869 H 177.831 0.943446 -0.0928074 0
M  V30 1870 H 177.537 3.50815 0.249304 0
M  V30 1871 H 177.411 3.21386 1.97461 0
M  V30 1872 H 179.798 2.22257 1.94128 0
M  V30 1873 H 179.879 2.54983 0.204281 0
M  V30 1874 H 179.523 5.03351 0.678274 0
M  V30 1875 H 179.453 4.6759 2.42212 0
M  V30 1876 H 181.944 3.52197 1.36987 0
M  V30 1877 H 182.257 7.40543 2.20943 0
M  V30 1878 H 180.602 6.65791 1.99366 0
M  V30 1879 H 183.793 4.39246 1.61805 0
M  V30 1880 H 183.966 6.16328 2.00111 0
M  V30 1881 N 177.372 -0.689602 1.41712 0
M  V30 1882 C 178.302 -1.81577 1.46806 0
M  V30 1883 C 179.283 -1.66945 0.326105 0
M  V30 1884 O 180.468 -1.86588 0.538377 0
M  V30 1885 C 177.598 -3.19762 1.35535 0
M  V30 1886 C 176.552 -3.49107 2.47605 0
M  V30 1887 C 175.878 -4.86711 2.21397 0
M  V30 1888 C 177.178 -3.47483 3.89939 0
M  V30 1889 H 178.872 -1.7757 2.41058 0
M  V30 1890 H 176.418 -0.852887 1.16025 0
M  V30 1891 H 178.371 -3.98263 1.3771 0
M  V30 1892 H 177.095 -3.24409 0.377708 0
M  V30 1893 H 175.754 -2.72959 2.44722 0
M  V30 1894 H 175.402 -4.8799 1.21961 0
M  V30 1895 H 175.102 -5.0731 2.96497 0
M  V30 1896 H 176.626 -5.67515 2.25297 0
M  V30 1897 H 178.04 -4.1598 3.94505 0
M  V30 1898 H 176.437 -3.79615 4.64771 0
M  V30 1899 H 177.507 -2.46341 4.17665 0
M  V30 1900 N 178.85 -1.27639 -0.924453 0
M  V30 1901 C 179.78 -1.13166 -2.04244 0
M  V30 1902 C 180.761 -0.032256 -1.70069 0
M  V30 1903 O 181.946 -0.207328 -1.9309 0
M  V30 1904 C 179.076 -0.781496 -3.38393 0
M  V30 1905 C 178.03 -1.83449 -3.86692 0
M  V30 1906 C 177.356 -1.33822 -5.17683 0
M  V30 1907 C 178.656 -3.23917 -4.09726 0
M  V30 1908 H 180.35 -2.06689 -2.1661 0
M  V30 1909 H 177.896 -0.995136 -1.04082 0
M  V30 1910 H 179.849 -0.667057 -4.16087 0
M  V30 1911 H 178.573 0.189439 -3.2605 0
M  V30 1912 H 177.232 -1.93789 -3.11193 0
M  V30 1913 H 176.88 -0.35665 -5.01734 0
M  V30 1914 H 176.58 -2.04224 -5.50968 0
M  V30 1915 H 178.104 -1.23679 -5.97943 0
M  V30 1916 H 179.518 -3.16559 -4.77978 0
M  V30 1917 H 177.915 -3.92059 -4.54324 0
M  V30 1918 H 178.985 -3.68729 -3.14908 0
M  V30 1919 N 180.328 1.1314 -1.09713 0
M  V30 1920 C 181.574 1.84757 -0.836224 0
M  V30 1921 C 181.907 1.8347 0.636598 0
M  V30 1922 O 181.182 1.27491 1.46889 0
M  V30 1923 C 181.465 3.32782 -1.37578 0
M  V30 1924 C 181.318 3.42567 -2.91493 0
M  V30 1925 C 182.637 4.28307 -1.01198 0
M  V30 1926 H 179.756 0.67082 -0.305236 0
M  V30 1927 H 182.398 1.3278 -1.35903 0
M  V30 1928 H 180.548 3.77177 -0.931097 0
M  V30 1929 H 182.22 3.06862 -3.44432 0
M  V30 1930 H 180.463 2.83349 -3.28475 0
M  V30 1931 H 181.134 4.46674 -3.24324 0
M  V30 1932 H 183.61 3.91999 -1.39556 0
M  V30 1933 H 182.486 5.30307 -1.41653 0
M  V30 1934 H 182.747 4.42029 0.0794833 0
M  V30 1935 N 181.806 0.884767 1.30421 0
M  V30 1936 C 183.052 0.503851 1.96441 0
M  V30 1937 C 183.385 -0.944518 1.69684 0
M  V30 1938 O 182.66 -1.66737 1.00145 0
M  V30 1939 C 182.943 0.779085 3.51571 0
M  V30 1940 C 182.796 2.27807 3.87846 0
M  V30 1941 C 184.115 0.255452 4.39358 0
M  V30 1942 H 181.234 0.184533 0.713524 0
M  V30 1943 H 183.876 1.10872 1.54297 0
M  V30 1944 H 182.026 0.264274 3.876 0
M  V30 1945 H 183.698 2.86127 3.61841 0
M  V30 1946 H 181.941 2.74479 3.35922 0
M  V30 1947 H 182.612 2.42125 4.96064 0
M  V30 1948 H 185.088 0.696079 4.10236 0
M  V30 1949 H 183.964 0.477361 5.4682 0
M  V30 1950 H 184.225 -0.843293 4.33983 0
M  V30 1951 N 183.284 -1.43765 0.645699 0
M  V30 1952 C 184.512 -2.06253 0.163556 0
M  V30 1953 C 184.927 -1.48352 -1.16778 0
M  V30 1954 O 184.284 -0.611932 -1.71935 0
M  V30 1955 C 184.335 -3.61453 0.0583186 0
M  V30 1956 O 184.056 -4.172 1.33702 0
M  V30 1957 C 185.557 -4.41002 -0.450795 0
M  V30 1958 H 182.777 -0.665413 0.0864077 0
M  V30 1959 H 185.321 -1.84396 0.884222 0
M  V30 1960 H 183.476 -3.82522 -0.612865 0
M  V30 1961 H 183.89 -5.10791 1.19131 0
M  V30 1962 H 185.364 -5.49966 -0.473403 0
M  V30 1963 H 185.841 -4.13488 -1.48068 0
M  V30 1964 H 186.447 -4.24886 0.187637 0
M  V30 1965 N 184.763 -0.387143 -1.52771 0
M  V30 1966 C 186.04 0.253197 -1.93954 0
M  V30 1967 C 186.42 1.64545 -1.32243 0
M  V30 1968 O 185.768 2.23191 -0.489699 0
M  V30 1969 C 185.978 0.281722 -3.47861 0
M  V30 1970 C 187.326 0.511715 -4.21505 0
M  V30 1971 O 188.35 0.362023 -3.54356 0
M  V30 1972 O 187.209 0.804847 -5.40541 0
M  V30 1973 H 184.303 0.156845 -0.811991 0
M  V30 1974 H 186.849 -0.441494 -1.63856 0
M  V30 1975 H 185.621 -0.693571 -3.85104 0
M  V30 1976 H 185.244 1.02142 -3.84256 0
M  V30 1977 N 186.241 1.57166 -0.116904 0
M  V30 1978 C 187.652 1.82169 0.408809 0
M  V30 1979 C 188.003 1.03393 1.66746 0
M  V30 1980 O 187.128 0.269886 2.1471 0
M  V30 1981 C 187.723 3.30429 0.748466 0
M  V30 1982 C 186.282 3.5612 1.21882 0
M  V30 1983 C 185.429 2.76374 0.226452 0
M  V30 1984 H 188.38 1.5497 -0.342063 0
M  V30 1985 H 188.401 3.44943 1.60607 0
M  V30 1986 H 187.913 3.87737 -0.167784 0
M  V30 1987 H 186.014 3.04168 2.15204 0
M  V30 1988 H 186.127 4.64705 1.16559 0
M  V30 1989 H 184.491 2.44515 0.713063 0
M  V30 1990 H 185.274 3.3644 -0.682859 0
M  V30 1991 N 187.719 -0.156864 1.56817 0
M  V30 1992 C 189.135 -0.50916 1.5126 0
M  V30 1993 C 189.335 -1.83897 0.823658 0
M  V30 1994 O 188.391 -2.49469 0.390055 0
M  V30 1995 C 189.704 -0.52857 2.96018 0
M  V30 1996 C 191.252 -0.614771 3.06903 0
M  V30 1997 C 191.727 -0.664938 4.53147 0
M  V30 1998 N 193.218 -0.727433 4.57452 0
M  V30 1999 C 193.953 -0.787067 5.67973 0
M  V30 2000 N 193.449 -0.806649 6.88088 0
M  V30 2001 N 195.242 -0.827195 5.5598 0
M  V30 2002 H 187.393 0.714935 2.00006 0
M  V30 2003 H 189.656 0.259526 0.911784 0
M  V30 2004 H 189.362 0.380154 3.49639 0
M  V30 2005 H 189.236 -1.36998 3.51442 0
M  V30 2006 H 191.623 -1.51392 2.53307 0
M  V30 2007 H 191.704 0.253597 2.5454 0
M  V30 2008 H 191.348 0.230011 5.07379 0
M  V30 2009 H 191.278 -1.54966 5.03282 0
M  V30 2010 H 193.769 -0.719998 3.70978 0
M  V30 2011 H 194.082 -0.853727 7.6807 0
M  V30 2012 H 192.427 -0.774687 6.90669 0
M  V30 2013 H 195.618 -0.808998 4.61056 0
M  V30 2014 H 195.791 -0.870206 6.4213 0
M  V30 2015 N 189.197 -1.51736 -0.425897 0
M  V30 2016 C 190.16 -1.73271 -1.50032 0
M  V30 2017 C 191.16 -0.602639 -1.4908 0
M  V30 2018 O 192.35 -0.87033 -1.509 0
M  V30 2019 C 189.482 -1.79969 -2.89523 0
M  V30 2020 H 190.675 -2.69172 -1.32237 0
M  V30 2021 H 188.228 -1.41899 -0.65532 0
M  V30 2022 H 188.963 -0.859241 -3.1271 0
M  V30 2023 H 188.748 -2.62109 -2.91619 0
M  V30 2024 H 190.238 -1.9843 -3.67444 0
M  V30 2025 N 190.675 0.682077 -1.42076 0
M  V30 2026 C 191.952 1.43755 -1.32642 0
M  V30 2027 C 192.332 2.11063 0.0396611 0
M  V30 2028 O 191.68 2.02701 1.05474 0
M  V30 2029 C 191.89 2.44596 -2.48946 0
M  V30 2030 C 193.238 3.09454 -2.9073 0
M  V30 2031 O 194.262 2.54922 -2.48783 0
M  V30 2032 O 193.121 4.08253 -3.63307 0
M  V30 2033 H 190.215 0.640857 -0.522715 0
M  V30 2034 H 192.761 0.711415 -1.54068 0
M  V30 2035 H 191.533 1.93609 -3.40046 0
M  V30 2036 H 191.156 3.24701 -2.29467 0
M  V30 2037 N 192.153 1.28127 0.917671 0
M  V30 2038 C 193.103 1.08361 2.00604 0
M  V30 2039 C 194.087 0.00847518 1.60898 0
M  V30 2040 O 195.279 0.228167 1.75523 0
M  V30 2041 C 192.408 0.743376 3.35155 0
M  V30 2042 C 191.494 1.85716 3.81275 0
M  V30 2043 N 191.885 3.09822 3.99805 0
M  V30 2044 C 190.183 1.74612 4.10398 0
M  V30 2045 C 190.884 3.82368 4.38372 0
M  V30 2046 N 189.86 3.10192 4.4641 0
M  V30 2047 H 193.662 2.02531 2.12975 0
M  V30 2048 H 191.176 1.18989 1.10523 0
M  V30 2049 H 193.173 0.582859 4.12805 0
M  V30 2050 H 191.833 -0.190595 3.2414 0
M  V30 2051 H 192.844 3.45475 3.85833 0
M  V30 2052 H 189.521 0.883657 4.08041 0
M  V30 2053 H 190.911 4.89082 4.60704 0
M  V30 2054 N 193.631 -1.12557 1.10312 0
M  V30 2055 C 194.563 -2.17971 0.708625 0
M  V30 2056 C 195.576 -1.60806 -0.254027 0
M  V30 2057 O 196.765 -1.78458 -0.0386891 0
M  V30 2058 C 193.865 -3.38891 0.0248198 0
M  V30 2059 C 193.038 -4.25548 1.01132 0
M  V30 2060 C 192.097 -5.24972 0.35924 0
M  V30 2061 O 191.123 -5.60174 1.00965 0
M  V30 2062 N 192.325 -5.73747 -0.882847 0
M  V30 2063 H 195.09 -2.52427 1.61557 0
M  V30 2064 H 192.651 -1.27967 0.991771 0
M  V30 2065 H 194.643 -4.02485 -0.422852 0
M  V30 2066 H 193.213 -3.02596 -0.784514 0
M  V30 2067 H 192.433 -3.58589 1.6373 0
M  V30 2068 H 193.721 -4.80294 1.67914 0
M  V30 2069 H 193.119 -5.4731 -1.43065 0
M  V30 2070 H 191.676 -6.39234 -1.27369 0
M  V30 2071 N 195.109 -0.891671 -1.2995 0
M  V30 2072 C 196.52 -0.563104 -1.78006 0
M  V30 2073 C 196.871 0.920978 -1.73241 0
M  V30 2074 O 195.996 1.71987 -1.31337 0
M  V30 2075 C 196.591 -1.01539 -3.23226 0
M  V30 2076 C 195.15 -0.738124 -3.69092 0
M  V30 2077 C 194.297 -1.19461 -2.50249 0
M  V30 2078 H 197.248 -1.07522 -1.16725 0
M  V30 2079 H 197.269 -0.347217 -3.78912 0
M  V30 2080 H 196.781 -2.09555 -3.26662 0
M  V30 2081 H 194.882 0.329766 -3.71138 0
M  V30 2082 H 194.995 -1.33037 -4.60259 0
M  V30 2083 H 193.359 -0.613787 -2.47194 0
M  V30 2084 H 194.142 -2.28265 -2.56417 0
M  V30 2085 N 196.587 1.43421 -0.653314 0
M  V30 2086 C 197.517 2.33487 0.0246656 0
M  V30 2087 C 198.498 1.49475 0.811863 0
M  V30 2088 O 199.683 1.78139 0.773322 0
M  V30 2089 C 196.813 3.32841 0.99166 0
M  V30 2090 C 195.767 4.26842 0.314568 0
M  V30 2091 C 195.093 5.16236 1.39302 0
M  V30 2092 C 196.393 5.16243 -0.793095 0
M  V30 2093 H 198.087 2.90427 -0.727481 0
M  V30 2094 H 195.633 1.39649 -0.351287 0
M  V30 2095 H 197.586 3.94747 1.47487 0
M  V30 2096 H 196.31 2.74158 1.77497 0
M  V30 2097 H 194.969 3.663 -0.148199 0
M  V30 2098 H 194.617 4.53891 2.16776 0
M  V30 2099 H 194.317 5.79948 0.945223 0
M  V30 2100 H 195.841 5.81015 1.87759 0
M  V30 2101 H 197.255 5.71958 -0.392039 0
M  V30 2102 H 195.652 5.88676 -1.16536 0
M  V30 2103 H 196.722 4.55927 -1.65103 0
M  V30 2104 N 198.065 0.39524 1.52563 0
M  V30 2105 C 199.293 -0.184943 2.06072 0
M  V30 2106 C 199.708 -1.40021 1.26647 0
M  V30 2107 O 199.065 -1.79767 0.314672 0
M  V30 2108 C 199.116 -0.549179 3.57304 0
M  V30 2109 O 198.837 0.617813 4.33722 0
M  V30 2110 C 200.338 -1.18459 4.2718 0
M  V30 2111 H 197.558 -0.0265025 0.670476 0
M  V30 2112 H 200.102 0.562184 1.96621 0
M  V30 2113 H 198.257 -1.2462 3.66809 0
M  V30 2114 H 198.671 0.317091 5.23541 0
M  V30 2115 H 200.145 -1.38976 5.34219 0
M  V30 2116 H 200.622 -2.15368 3.82771 0
M  V30 2117 H 201.228 -0.528163 4.22008 0
M  V30 2118 N 199.544 -1.57102 0.125237 0
M  V30 2119 C 200.454 -2.19191 -0.8362 0
M  V30 2120 C 201.47 -1.16985 -1.28805 0
M  V30 2121 O 202.646 -1.49479 -1.34974 0
M  V30 2122 C 199.711 -2.78407 -2.06617 0
M  V30 2123 C 198.772 -3.9567 -1.66565 0
M  V30 2124 C 198.005 -4.52052 -2.83698 0
M  V30 2125 O 198.228 -4.07326 -3.99302 0
M  V30 2126 O 197.162 -5.42645 -2.60423 0
M  V30 2127 H 200.988 -3.01816 -0.337776 0
M  V30 2128 H 198.573 -1.4906 -0.100695 0
M  V30 2129 H 200.455 -3.16129 -2.7864 0
M  V30 2130 H 199.13 -1.9881 -2.55453 0
M  V30 2131 H 198.037 -3.62705 -0.916296 0
M  V30 2132 H 199.37 -4.76722 -1.22464 0
M  V30 2133 N 201.022 0.148545 -1.56898 0
M  V30 2134 C 201.985 1.16736 -1.97244 0
M  V30 2135 C 202.985 1.35947 -0.858777 0
M  V30 2136 O 204.175 1.32966 -1.12542 0
M  V30 2137 C 201.307 2.52798 -2.28705 0
M  V30 2138 H 202.5 0.821279 -2.88435 0
M  V30 2139 H 200.053 0.391831 -1.51309 0
M  V30 2140 H 200.788 2.92381 -1.403 0
M  V30 2141 H 200.573 2.40216 -3.09901 0
M  V30 2142 H 202.063 3.26179 -2.60762 0
M  V30 2143 N 202.5 1.5196 0.417844 0
M  V30 2144 C 203.725 1.69717 1.1921 0
M  V30 2145 C 204.15 0.402148 1.83751 0
M  V30 2146 O 203.508 -0.639593 1.69643 0
M  V30 2147 C 203.556 2.82794 2.2374 0
M  V30 2148 O 202.66 2.47756 3.29683 0
M  V30 2149 H 202.001 0.565263 0.348387 0
M  V30 2150 H 204.531 1.98621 0.490985 0
M  V30 2151 H 204.541 3.07452 2.68212 0
M  V30 2152 H 203.216 3.76756 1.76146 0
M  V30 2153 H 201.793 2.33739 2.90552 0
M  V30 2154 N 203.978 -0.674533 1.42435 0
M  V30 2155 C 205.208 -1.46071 1.46105 0
M  V30 2156 C 205.616 -1.89067 0.0709605 0
M  V30 2157 O 204.959 -1.58731 -0.924677 0
M  V30 2158 C 205.021 -2.74145 2.32561 0
M  V30 2159 C 204.685 -2.53224 3.8043 0
M  V30 2160 C 205.682 -2.17809 4.72075 0
M  V30 2161 C 203.367 -2.6821 4.24698 0
M  V30 2162 C 205.361 -1.97648 6.05982 0
M  V30 2163 C 203.048 -2.47665 5.58664 0
M  V30 2164 C 204.046 -2.12437 6.49122 0
M  V30 2165 O 203.734 -1.9209 7.80613 0
M  V30 2166 H 203.466 -0.455959 0.499076 0
M  V30 2167 H 206.02 -0.836193 1.87609 0
M  V30 2168 H 204.25 -3.3908 1.85908 0
M  V30 2169 H 205.939 -3.36028 2.27683 0
M  V30 2170 H 206.705 -2.05826 4.39159 0
M  V30 2171 H 202.584 -2.94609 3.54579 0
M  V30 2172 H 206.128 -1.70075 6.7655 0
M  V30 2173 H 202.025 -2.59244 5.91154 0
M  V30 2174 H 202.793 -2.06686 7.91974 0
M  V30 2175 N 205.456 -1.28612 -0.910864 0
M  V30 2176 C 206.702 -1.16106 -1.66274 0
M  V30 2177 C 207.035 0.289113 -1.92036 0
M  V30 2178 O 206.31 1.21 -1.52281 0
M  V30 2179 C 206.593 -1.96309 -3.01885 0
M  V30 2180 C 206.446 -3.49405 -2.8326 0
M  V30 2181 C 207.765 -1.78076 -4.02463 0
M  V30 2182 H 204.884 -0.423152 -0.603417 0
M  V30 2183 H 207.526 -1.57961 -1.05586 0
M  V30 2184 H 205.676 -1.60742 -3.53687 0
M  V30 2185 H 207.348 -3.94894 -2.38446 0
M  V30 2186 H 205.591 -3.74893 -2.18261 0
M  V30 2187 H 206.262 -4.00784 -3.79574 0
M  V30 2188 H 208.738 -2.0912 -3.59733 0
M  V30 2189 H 207.614 -2.36561 -4.95308 0
M  V30 2190 H 207.875 -0.733008 -4.35981 0
M  V30 2191 N 206.934 1.1197 -1.10907 0
M  V30 2192 C 207.882 2.19927 -0.757303 0
M  V30 2193 C 208.876 1.67564 0.248747 0
M  V30 2194 O 210.082 1.79672 0.108605 0
M  V30 2195 H 206.457 0.716925 -0.226987 0
M  V30 2196 H 208.428 2.46847 -1.67658 0
M  V30 2197 C 207.177 3.47061 -0.210671 0
M  V30 2198 H 206.5 3.87703 -0.976049 0
M  V30 2199 H 207.94 4.24 -0.0026584 0
M  V30 2200 C 206.399 3.19864 1.05777 0
M  V30 2201 O 206.929 3.40049 2.13845 0
M  V30 2202 N 205.135 2.73636 0.978349 0
M  V30 2203 H 204.682 2.5741 0.0988246 0
M  V30 2204 H 204.64 2.55815 1.82773 0
M  V30 2205 N 208.412 0.89855 1.29475 0
M  V30 2206 C 209.342 0.39201 2.30186 0
M  V30 2207 C 210.323 -0.532359 1.61555 0
M  V30 2208 O 211.508 -0.443331 1.89072 0
M  V30 2209 C 208.638 -0.382353 3.45189 0
M  V30 2210 C 207.592 0.451483 4.25612 0
M  V30 2211 C 206.918 -0.450307 5.328 0
M  V30 2212 C 208.218 1.70079 4.93832 0
M  V30 2213 H 209.912 1.23362 2.72804 0
M  V30 2214 H 207.458 0.594638 1.31149 0
M  V30 2215 H 209.411 -0.747451 4.14718 0
M  V30 2216 H 208.135 -1.25774 3.01411 0
M  V30 2217 H 206.794 0.798897 3.57789 0
M  V30 2218 H 206.442 -1.32379 4.85268 0
M  V30 2219 H 206.142 0.103902 5.87508 0
M  V30 2220 H 207.666 -0.811623 6.05182 0
M  V30 2221 H 209.08 1.40549 5.55805 0
M  V30 2222 H 207.477 2.19623 5.58467 0
M  V30 2223 H 208.547 2.43744 4.19186 0
M  V30 2224 N 209.89 -1.43072 0.660911 0
M  V30 2225 C 211.301 -1.84932 0.256348 0
M  V30 2226 C 211.652 -1.55325 -1.19868 0
M  V30 2227 O 210.777 -1.00607 -1.91591 0
M  V30 2228 C 211.372 -3.35684 0.458475 0
M  V30 2229 C 209.931 -3.76245 0.108161 0
M  V30 2230 C 209.078 -2.66749 0.757641 0
M  V30 2231 H 212.029 -1.33116 0.864051 0
M  V30 2232 H 212.05 -3.79365 -0.293683 0
M  V30 2233 H 211.562 -3.572 1.51755 0
M  V30 2234 H 209.663 -3.60338 -0.948014 0
M  V30 2235 H 209.776 -4.76058 0.538992 0
M  V30 2236 H 208.14 -2.53989 0.190185 0
M  V30 2237 H 208.923 -2.91092 1.81989 0
M  V30 2238 N 211.368 -0.403325 -1.52352 0
M  V30 2239 C 212.596 0.174012 -2.06167 0
M  V30 2240 C 213.011 1.39347 -1.27388 0
M  V30 2241 O 212.368 1.79597 -0.324201 0
M  V30 2242 C 212.419 0.530223 -3.5759 0
M  V30 2243 O 212.14 -0.640806 -4.33388 0
M  V30 2244 C 213.641 1.16192 -4.27802 0
M  V30 2245 H 210.861 0.0229464 -0.670608 0
M  V30 2246 H 213.405 -0.572604 -1.9632 0
M  V30 2247 H 211.56 1.22673 -3.67464 0
M  V30 2248 H 211.974 -0.344851 -5.23365 0
M  V30 2249 H 213.448 1.36141 -5.34948 0
M  V30 2250 H 213.925 2.13335 -3.83907 0
M  V30 2251 H 214.531 0.505775 -4.22282 0
M  V30 2252 N 212.846 1.57033 -0.133567 0
M  V30 2253 C 214.095 1.94861 0.520768 0
M  V30 2254 C 214.408 1.02012 1.66892 0
M  V30 2255 O 215.614 1.29365 2.38699 0
M  V30 2256 C 214.07 3.46362 0.977809 0
M  V30 2257 C 213.678 4.47773 -0.142674 0
M  V30 2258 C 215.422 3.93083 1.60269 0
M  V30 2259 C 213.329 5.90468 0.331883 0
M  V30 2260 H 212.259 0.727453 0.198315 0
M  V30 2261 H 214.91 1.82227 -0.215759 0
M  V30 2262 H 213.292 3.54282 1.7692 0
M  V30 2263 H 214.466 4.51536 -0.919317 0
M  V30 2264 H 212.781 4.10891 -0.675124 0
M  V30 2265 H 215.378 4.97121 1.96914 0
M  V30 2266 H 215.721 3.33876 2.48662 0
M  V30 2267 H 216.254 3.88025 0.876453 0
M  V30 2268 H 212.993 6.53463 -0.516341 0
M  V30 2269 H 212.513 5.90094 1.07469 0
M  V30 2270 H 214.192 6.42179 0.788332 0
M  V30 2271 N 214.325 -0.140222 1.56975 0
M  V30 2272 C 215.288 -1.15689 1.97861 0
M  V30 2273 C 216.288 -1.3549 0.865974 0
M  V30 2274 O 217.478 -1.32367 1.13246 0
M  V30 2275 C 214.61 -2.51582 2.30042 0
M  V30 2276 H 215.803 -0.805971 2.88867 0
M  V30 2277 H 213.356 -0.383801 1.51515 0
M  V30 2278 H 214.091 -2.91632 1.41849 0
M  V30 2279 H 213.876 -2.38569 3.11171 0
M  V30 2280 H 215.366 -3.24792 2.62488 0
M  V30 2281 N 215.803 -1.52179 -0.40978 0
M  V30 2282 C 216.733 -1.78435 -1.5061 0
M  V30 2283 C 217.714 -0.635295 -1.57791 0
M  V30 2284 O 218.899 -0.880823 -1.73076 0
M  V30 2285 C 216.029 -1.93444 -2.88439 0
M  V30 2286 C 214.983 -3.09038 -2.96108 0
M  V30 2287 C 214.309 -3.09268 -4.36185 0
M  V30 2288 C 215.609 -4.48508 -2.67652 0
M  V30 2289 H 217.303 -2.70237 -1.28889 0
M  V30 2290 H 214.849 -1.30036 -0.618605 0
M  V30 2291 H 216.802 -2.10394 -3.65119 0
M  V30 2292 H 215.526 -0.983129 -3.11452 0
M  V30 2293 H 214.185 -2.91837 -2.21872 0
M  V30 2294 H 213.833 -2.11861 -4.56206 0
M  V30 2295 H 213.533 -3.86907 -4.42241 0
M  V30 2296 H 215.057 -3.28348 -5.14801 0
M  V30 2297 H 216.471 -4.65918 -3.34056 0
M  V30 2298 H 214.868 -5.28059 -2.85085 0
M  V30 2299 H 215.938 -4.56649 -1.63095 0
M  V30 2300 N 217.281 0.66697 -1.42791 0
M  V30 2301 C 218.521 1.43892 -1.4517 0
M  V30 2302 C 218.885 1.91877 -0.0687551 0
M  V30 2303 O 220.086 2.6878 0.0327455 0
M  V30 2304 C 218.357 2.59839 -2.45395 0
M  V30 2305 S 219.916 3.48572 -2.66539 0
M  V30 2306 H 216.734 0.491356 -0.513897 0
M  V30 2307 H 219.336 0.775656 -1.79454 0
M  V30 2308 H 218.04 2.22838 -3.44632 0
M  V30 2309 H 217.571 3.3103 -2.12562 0
M  V30 2310 H 219.586 4.56094 -1.95429 0
M  V30 2311 N 218.759 1.29093 0.90403 0
M  V30 2312 C 219.707 1.13727 2.02901 0
M  V30 2313 C 220.701 0.0539853 1.69314 0
M  V30 2314 O 221.907 0.213469 1.7873 0
M  V30 2315 H 218.282 0.35117 0.664969 0
M  V30 2316 H 220.253 2.08982 2.13001 0
M  V30 2317 C 219.002 0.826066 3.37745 0
M  V30 2318 H 218.325 1.65164 3.64089 0
M  V30 2319 H 219.765 0.758559 4.17159 0
M  V30 2320 C 218.224 -0.470541 3.33598 0
M  V30 2321 O 218.754 -1.49792 3.72727 0
M  V30 2322 N 216.96 -0.474812 2.86695 0
M  V30 2323 H 216.507 0.361692 2.55048 0
M  V30 2324 H 216.465 -1.34236 2.84303 0
M  V30 2325 N 220.237 -1.11381 1.11499 0
M  V30 2326 C 221.465 -1.86934 0.88675 0
M  V30 2327 C 221.88 -1.80195 -0.563476 0
M  V30 2328 O 221.237 -1.18367 -1.38908 0
M  V30 2329 C 221.288 -3.35722 1.34064 0
M  V30 2330 O 221.009 -3.4232 2.73401 0
M  V30 2331 C 222.51 -4.2818 1.14791 0
M  V30 2332 H 219.73 -0.591117 0.317523 0
M  V30 2333 H 222.274 -1.40865 1.48248 0
M  V30 2334 H 220.429 -3.79294 0.788355 0
M  V30 2335 H 220.843 -4.34971 2.93087 0
M  V30 2336 H 222.317 -5.30817 1.5145 0
M  V30 2337 H 222.794 -4.39113 0.0875279 0
M  V30 2338 H 223.4 -3.90402 1.68721 0
M  V30 2339 N 221.715 -0.905404 -1.28997 0
M  V30 2340 C 222.992 -0.453513 -1.9027 0
M  V30 2341 C 223.372 1.06721 -1.82137 0
M  V30 2342 O 222.72 1.91159 -1.25182 0
M  V30 2343 C 222.93 -0.974494 -3.35119 0
M  V30 2344 C 224.278 -1.0216 -4.12127 0
M  V30 2345 O 225.302 -0.922557 -3.44046 0
M  V30 2346 O 224.161 -1.17121 -5.33802 0
M  V30 2347 H 221.255 -0.142347 -0.814657 0
M  V30 2348 H 223.801 -0.995642 -1.37423 0
M  V30 2349 H 222.573 -2.01848 -3.35221 0
M  V30 2350 H 222.196 -0.412706 -3.95452 0
M  V30 2351 N 223.193 1.4272 -0.668489 0
M  V30 2352 C 224.418 2.06484 -0.194758 0
M  V30 2353 C 224.843 1.49862 1.13679 0
M  V30 2354 O 224.201 0.614582 1.70565 0
M  V30 2355 C 224.249 3.60353 -0.133546 0
M  V30 2356 O 223.353 4.02464 0.899806 0
M  V30 2357 H 222.694 0.656137 -0.10188 0
M  V30 2358 H 225.224 1.82964 -0.915722 0
M  V30 2359 H 225.234 4.07976 0.0447041 0
M  V30 2360 H 223.909 4.00938 -1.1055 0
M  V30 2361 H 222.486 3.66402 0.693109 0
M  V30 2362 N 224.671 0.411399 1.52136 0
M  V30 2363 C 226.082 -0.0576826 1.86611 0
M  V30 2364 C 226.433 -1.44238 1.33003 0
M  V30 2365 O 225.558 -2.05759 0.670228 0
M  V30 2366 C 226.153 -0.111448 3.38617 0
M  V30 2367 C 224.712 -0.52487 3.72723 0
M  V30 2368 C 223.859 0.299176 2.75681 0
M  V30 2369 H 226.81 0.628368 1.4573 0
M  V30 2370 H 226.831 -0.926252 3.69054 0
M  V30 2371 H 226.343 0.896488 3.77604 0
M  V30 2372 H 224.444 -1.53936 3.39315 0
M  V30 2373 H 224.557 -0.267681 4.78352 0
M  V30 2374 H 222.921 -0.238814 2.53578 0
M  V30 2375 H 223.704 1.3055 3.17508 0
M  V30 2376 N 226.149 -1.5696 0.141893 0
M  V30 2377 C 227.079 -2.19516 -0.795936 0
M  V30 2378 C 228.06 -1.14187 -1.26077 0
M  V30 2379 O 229.245 -1.42511 -1.31925 0
M  V30 2380 C 226.375 -2.81272 -2.03723 0
M  V30 2381 C 225.329 -3.92384 -1.70936 0
M  V30 2382 C 224.655 -4.41052 -3.02287 0
M  V30 2383 C 225.955 -5.13403 -0.959954 0
M  V30 2384 H 227.649 -2.98138 -0.274596 0
M  V30 2385 H 225.195 -1.43406 -0.130636 0
M  V30 2386 H 227.148 -3.237 -2.69808 0
M  V30 2387 H 225.872 -1.99973 -2.58221 0
M  V30 2388 H 224.531 -3.50566 -1.07232 0
M  V30 2389 H 224.179 -3.56582 -3.54765 0
M  V30 2390 H 223.879 -5.15993 -2.81114 0
M  V30 2391 H 225.403 -4.86146 -3.69451 0
M  V30 2392 H 226.817 -5.52706 -1.52279 0
M  V30 2393 H 225.214 -5.94073 -0.848357 0
M  V30 2394 H 226.284 -4.84875 0.0492434 0
M  V30 2395 N 227.627 0.131896 -1.57047 0
M  V30 2396 C 229.043 0.485031 -1.52051 0
M  V30 2397 C 229.243 1.82563 -0.85281 0
M  V30 2398 O 228.299 2.48817 -0.429694 0
M  V30 2399 C 229.612 0.481409 -2.96821 0
M  V30 2400 C 231.16 0.565868 -3.07842 0
M  V30 2401 C 231.635 0.592762 -4.54148 0
M  V30 2402 N 233.126 0.654564 -4.58552 0
M  V30 2403 C 233.861 0.696608 -5.69153 0
M  V30 2404 N 233.357 0.697078 -6.89284 0
M  V30 2405 N 235.15 0.738639 -5.57226 0
M  V30 2406 H 227.301 -0.746664 -1.98843 0
M  V30 2407 H 229.564 -0.273999 -0.90754 0
M  V30 2408 H 229.27 -0.435731 -3.4899 0
M  V30 2409 H 229.144 1.3139 -3.53577 0
M  V30 2410 H 231.531 1.47343 -2.55684 0
M  V30 2411 H 231.612 -0.29406 -2.54104 0
M  V30 2412 H 231.256 -0.310701 -5.06949 0
M  V30 2413 H 231.186 1.46939 -5.05684 0
M  V30 2414 H 233.677 0.660887 -3.72076 0
M  V30 2415 H 233.99 0.731426 -7.69331 0
M  V30 2416 H 232.335 0.66471 -6.91814 0
M  V30 2417 H 235.526 0.735545 -4.62285 0
M  V30 2418 H 235.699 0.767938 -6.43434 0
M  V30 2419 N 229.106 1.52395 0.401703 0
M  V30 2420 C 230.336 1.70429 1.1678 0
M  V30 2421 C 230.744 0.416702 1.84554 0
M  V30 2422 O 230.087 -0.617697 1.73003 0
M  V30 2423 C 230.149 2.78919 2.26814 0
M  V30 2424 C 229.813 4.20437 1.79113 0
M  V30 2425 C 230.81 5.04028 1.27482 0
M  V30 2426 C 228.495 4.66704 1.85722 0
M  V30 2427 C 230.489 6.31961 0.830913 0
M  V30 2428 C 228.176 5.94625 1.40942 0
M  V30 2429 C 229.174 6.77082 0.897128 0
M  V30 2430 O 228.862 8.02607 0.455822 0
M  V30 2431 H 228.594 0.574272 0.356634 0
M  V30 2432 H 231.148 1.99767 0.477724 0
M  V30 2433 H 229.378 2.44973 2.99207 0
M  V30 2434 H 231.067 2.8548 2.88541 0
M  V30 2435 H 231.833 4.69471 1.21744 0
M  V30 2436 H 227.712 4.0262 2.24539 0
M  V30 2437 H 231.256 6.96271 0.430368 0
M  V30 2438 H 227.153 6.28688 1.46362 0
M  V30 2439 H 227.921 8.16453 0.578457 0
M  V30 2440 N 230.584 -0.659388 1.43143 0
M  V30 2441 C 231.83 -1.42145 1.44647 0
M  V30 2442 C 232.163 -1.9408 0.0681907 0
M  V30 2443 O 231.438 -1.71899 -0.910007 0
M  V30 2444 C 231.721 -2.60735 2.48373 0
M  V30 2445 C 231.574 -2.14332 3.95451 0
M  V30 2446 C 232.893 -3.62951 2.48906 0
M  V30 2447 H 230.012 -0.51552 0.526696 0
M  V30 2448 H 232.654 -0.748069 1.74654 0
M  V30 2449 H 230.804 -3.18184 2.22916 0
M  V30 2450 H 232.476 -1.61932 4.31944 0
M  V30 2451 H 230.719 -1.4576 4.08578 0
M  V30 2452 H 231.39 -2.99583 4.63631 0
M  V30 2453 H 233.866 -3.1525 2.71582 0
M  V30 2454 H 232.742 -4.43487 3.23435 0
M  V30 2455 H 233.003 -4.15126 1.52061 0
M  V30 2456 N 232.062 -1.29571 -0.897171 0
M  V30 2457 C 233.339 -1.08365 -1.62839 0
M  V30 2458 C 233.719 0.371331 -2.07808 0
M  V30 2459 O 233.067 1.3606 -1.83576 0
M  V30 2460 C 233.277 -2.0735 -2.80726 0
M  V30 2461 C 234.625 -2.38406 -3.51351 0
M  V30 2462 O 235.649 -2.05564 -2.90898 0
M  V30 2463 O 234.508 -2.9453 -4.60341 0
M  V30 2464 H 231.602 -0.415345 -0.715134 0
M  V30 2465 H 234.148 -1.40952 -0.945018 0
M  V30 2466 H 232.92 -3.05339 -2.44711 0
M  V30 2467 H 232.543 -1.75507 -3.56767 0
M  V30 2468 N 233.54 1.10788 -1.12088 0
M  V30 2469 C 234.789 1.82036 -0.868659 0
M  V30 2470 C 235.102 1.85929 0.607426 0
M  V30 2471 O 236.308 2.53346 0.97613 0
M  V30 2472 C 234.764 3.26951 -1.50435 0
M  V30 2473 C 234.372 3.31367 -3.01496 0
M  V30 2474 C 236.116 4.03053 -1.33225 0
M  V30 2475 C 234.023 4.7072 -3.58017 0
M  V30 2476 H 232.953 0.682108 -0.321318 0
M  V30 2477 H 235.604 1.24618 -1.34694 0
M  V30 2478 H 233.986 3.84343 -0.953735 0
M  V30 2479 H 235.16 2.83819 -3.6302 0
M  V30 2480 H 233.475 2.6875 -3.18061 0
M  V30 2481 H 236.072 5.05981 -1.72878 0
M  V30 2482 H 236.415 4.15387 -0.275529 0
M  V30 2483 H 236.948 3.52066 -1.85188 0
M  V30 2484 H 233.687 4.63585 -4.63432 0
M  V30 2485 H 233.207 5.1865 -3.01268 0
M  V30 2486 H 234.886 5.39685 -3.56859 0
M  V30 2487 N 235.018 0.912232 1.28515 0
M  V30 2488 C 235.981 0.404223 2.25607 0
M  V30 2489 C 236.981 -0.468602 1.53821 0
M  V30 2490 O 238.171 -0.271873 1.72065 0
M  V30 2491 C 235.303 -0.420653 3.38295 0
M  V30 2492 H 236.496 1.26188 2.7206 0
M  V30 2493 H 234.049 0.691495 1.40171 0
M  V30 2494 H 234.784 -1.29777 2.97201 0
M  V30 2495 H 234.569 0.204935 3.91564 0
M  V30 2496 H 236.059 -0.766971 4.10496 0
M  V30 2497 N 236.496 -1.42363 0.676048 0
M  V30 2498 C 237.745 -2.00745 0.196037 0
M  V30 2499 C 238.058 -1.54083 -1.20489 0
M  V30 2500 O 239.264 -2.04891 -1.78134 0
M  V30 2501 C 237.72 -3.58651 0.299616 0
M  V30 2502 C 237.328 -4.143 1.70468 0
M  V30 2503 C 239.072 -4.24326 -0.121619 0
M  V30 2504 C 236.979 -5.64574 1.76096 0
M  V30 2505 H 235.909 -0.750787 0.0695301 0
M  V30 2506 H 238.56 -1.63072 0.841412 0
M  V30 2507 H 236.942 -3.93833 -0.413673 0
M  V30 2508 H 238.116 -3.90575 2.44515 0
M  V30 2509 H 236.431 -3.61081 2.07387 0
M  V30 2510 H 239.028 -5.34607 -0.0997362 0
M  V30 2511 H 239.371 -3.99897 -1.15708 0
M  V30 2512 H 239.904 -3.94108 0.540706 0
M  V30 2513 H 236.643 -5.93804 2.77628 0
M  V30 2514 H 236.163 -5.90286 1.06406 0
M  V30 2515 H 237.842 -6.29013 1.51496 0
M  V30 2516 N 237.974 -0.419461 -1.51915 0
M  V30 2517 C 239.385 0.0477853 -1.86639 0
M  V30 2518 C 239.736 1.43531 -1.33766 0
M  V30 2519 O 238.861 2.05401 -0.68113 0
M  V30 2520 C 239.456 0.0934885 -3.38671 0
M  V30 2521 C 238.015 0.505097 -3.72996 0
M  V30 2522 C 237.162 -0.313792 -2.75519 0
M  V30 2523 H 240.113 -0.636088 -1.45395 0
M  V30 2524 H 240.134 0.906667 -3.6954 0
M  V30 2525 H 239.646 -0.916501 -3.77123 0
M  V30 2526 H 237.747 1.52135 -3.40126 0
M  V30 2527 H 237.86 0.242309 -4.78487 0
M  V30 2528 H 236.224 0.225363 -2.53701 0
M  V30 2529 H 237.007 -1.32232 -3.16812 0
M  V30 2530 N 239.452 1.56882 -0.150215 0
M  V30 2531 C 240.692 1.98119 0.502804 0
M  V30 2532 C 241.056 1.03327 1.61826 0
M  V30 2533 O 242.257 1.33621 2.33236 0
M  V30 2534 C 240.528 3.43329 0.992988 0
M  V30 2535 S 242.087 4.0659 1.65015 0
M  V30 2536 H 238.905 0.692189 0.162467 0
M  V30 2537 H 241.507 1.93988 -0.242689 0
M  V30 2538 H 240.211 4.10046 0.170436 0
M  V30 2539 H 239.742 3.5118 1.77303 0
M  V30 2540 H 241.757 3.99906 2.93752 0
M  V30 2541 N 240.93 -0.123565 1.57115 0
M  V30 2542 C 241.878 -1.17082 2.00984 0
M  V30 2543 C 242.872 -1.43136 0.906009 0
M  V30 2544 O 244.078 -1.43152 1.09121 0
M  V30 2545 H 240.453 -0.394653 0.64012 0
M  V30 2546 H 242.424 -0.774292 2.88179 0
M  V30 2547 C 241.173 -2.49057 2.42623 0
M  V30 2548 H 240.496 -2.29846 3.27125 0
M  V30 2549 H 241.936 -3.20906 2.7712 0
M  V30 2550 C 240.395 -3.11305 1.28805 0
M  V30 2551 O 240.925 -3.97171 0.60153 0
M  V30 2552 N 239.131 -2.71111 1.04628 0
M  V30 2553 H 238.678 -2.01382 1.60634 0
M  V30 2554 H 238.636 -3.1309 0.286685 0
M  V30 2555 N 242.408 -1.52605 -0.393616 0
M  V30 2556 C 243.356 -1.77688 -1.50099 0
M  V30 2557 C 244.35 -0.644615 -1.56656 0
M  V30 2558 O 245.556 -0.826997 -1.59877 0
M  V30 2559 H 241.931 -0.562159 -0.499481 0
M  V30 2560 H 243.902 -2.7043 -1.26135 0
M  V30 2561 C 242.651 -1.95858 -2.87289 0
M  V30 2562 H 241.974 -2.8241 -2.82992 0
M  V30 2563 H 243.414 -2.174 -3.64024 0
M  V30 2564 C 241.873 -0.729848 -3.28899 0
M  V30 2565 O 242.403 0.0949217 -4.01588 0
M  V30 2566 N 240.609 -0.561283 -2.85128 0
M  V30 2567 H 240.156 -1.23357 -2.26143 0
M  V30 2568 H 240.114 0.2595 -3.13327 0
M  V30 2569 N 243.887 0.651787 -1.4349 0
M  V30 2570 C 244.834 1.76462 -1.4876 0
M  V30 2571 C 245.804 1.62641 -0.337189 0
M  V30 2572 O 246.989 1.82864 -0.544544 0
M  V30 2573 C 244.129 3.14623 -1.41796 0
M  V30 2574 C 243.242 3.39568 -2.67053 0
M  V30 2575 C 242.377 4.67585 -2.52068 0
M  V30 2576 C 241.416 4.85639 -3.72587 0
M  V30 2577 N 240.553 6.04915 -3.56402 0
M  V30 2578 H 245.393 1.71293 -2.43849 0
M  V30 2579 H 242.93 0.835889 -1.21043 0
M  V30 2580 H 244.888 3.94496 -1.35753 0
M  V30 2581 H 243.518 3.18859 -0.50288 0
M  V30 2582 H 242.57 2.53783 -2.8337 0
M  V30 2583 H 243.882 3.48795 -3.56572 0
M  V30 2584 H 243.036 5.55586 -2.4374 0
M  V30 2585 H 241.775 4.60681 -1.60075 0
M  V30 2586 H 240.78 3.96073 -3.81321 0
M  V30 2587 H 242.005 4.94372 -4.65589 0
M  V30 2588 H 239.951 5.9914 -2.67146 0
M  V30 2589 H 239.868 6.15106 -4.39524 0
M  V30 2590 H 241.136 6.95533 -3.51929 0
M  V30 2591 N 245.365 1.30045 0.890287 0
M  V30 2592 C 246.613 1.18327 1.63839 0
M  V30 2593 C 246.934 -0.263455 1.93212 0
M  V30 2594 O 246.204 -1.17856 1.56482 0
M  V30 2595 H 244.784 0.434933 0.607324 0
M  V30 2596 H 247.446 1.631 1.06698 0
M  V30 2597 H 246.542 1.74024 2.59079 0
M  V30 2598 N 246.843 -1.10192 1.12674 0
M  V30 2599 C 247.806 -2.14786 0.799979 0
M  V30 2600 C 248.806 -1.59711 -0.18685 0
M  V30 2601 O 249.996 -1.74156 0.0392558 0
M  V30 2602 C 247.128 -3.40374 0.189228 0
M  V30 2603 H 248.321 -2.45203 1.72671 0
M  V30 2604 H 245.874 -1.25597 0.930326 0
M  V30 2605 H 246.609 -3.15577 -0.747107 0
M  V30 2606 H 246.394 -3.81637 0.899766 0
M  V30 2607 H 247.884 -4.17594 -0.0228143 0
M  V30 2608 N 248.321 -0.919034 -1.28029 0
M  V30 2609 C 249.271 -0.382574 -2.24767 0
M  V30 2610 C 250.255 0.508286 -1.52661 0
M  V30 2611 O 251.447 0.347145 -1.73562 0
M  V30 2612 C 248.576 0.371432 -3.41285 0
M  V30 2613 C 247.662 -0.535449 -4.20706 0
M  V30 2614 N 248.053 -1.65141 -4.78082 0
M  V30 2615 C 246.351 -0.336824 -4.44726 0
M  V30 2616 C 247.052 -2.21475 -5.37888 0
M  V30 2617 N 246.028 -1.50537 -5.22341 0
M  V30 2618 H 249.83 -1.23477 -2.66703 0
M  V30 2619 H 247.344 -0.772299 -1.42861 0
M  V30 2620 H 249.341 0.772638 -4.09678 0
M  V30 2621 H 248.001 1.22066 -3.00882 0
M  V30 2622 H 249.012 -2.03392 -4.7629 0
M  V30 2623 H 245.689 0.47246 -4.14818 0
M  V30 2624 H 247.079 -3.15379 -5.93284 0
M  V30 2625 N 249.799 1.42003 -0.683588 0
M  V30 2626 C 251.024 2.06265 -0.216647 0
M  V30 2627 C 251.449 1.51059 1.12083 0
M  V30 2628 O 250.807 0.632638 1.69904 0
M  V30 2629 C 250.855 3.60191 -0.171759 0
M  V30 2630 O 249.959 4.03396 0.857069 0
M  V30 2631 H 249.3 0.65502 -0.108834 0
M  V30 2632 H 251.83 1.81982 -0.935077 0
M  V30 2633 H 251.84 4.08 0.0014303 0
M  V30 2634 H 250.515 3.99743 -1.14796 0
M  V30 2635 H 249.092 3.67117 0.654208 0
M  V30 2636 N 251.277 0.427512 1.51691 0
M  V30 2637 C 252.523 -0.142439 2.02299 0
M  V30 2638 C 252.856 -1.43214 1.31162 0
M  V30 2639 O 252.131 -1.89833 0.423511 0
M  V30 2640 C 252.414 -0.371301 3.58181 0
M  V30 2641 C 252.267 0.936358 4.39946 0
M  V30 2642 C 253.586 -1.14542 4.24933 0
M  V30 2643 H 250.705 -0.0502937 0.735282 0
M  V30 2644 H 253.347 0.564584 1.81418 0
M  V30 2645 H 251.497 -0.973559 3.76104 0
M  V30 2646 H 253.169 1.57184 4.33694 0
M  V30 2647 H 251.412 1.5432 4.05423 0
M  V30 2648 H 252.083 0.730388 5.47147 0
M  V30 2649 H 254.559 -0.635362 4.11221 0
M  V30 2650 H 253.435 -1.27431 5.33903 0
M  V30 2651 H 253.696 -2.17093 3.85127 0
M  V30 2652 N 252.755 -1.56801 0.158532 0
M  V30 2653 C 254.003 -1.96102 -0.488712 0
M  V30 2654 C 254.324 -1.04498 -1.64636 0
M  V30 2655 O 253.594 -0.108783 -1.95598 0
M  V30 2656 H 252.174 -0.724102 -0.183535 0
M  V30 2657 H 254.836 -1.93457 0.236728 0
M  V30 2658 H 253.932 -3.00097 -0.857219 0
M  V30 2659 N 254.233 0.115231 -1.57178 0
M  V30 2660 C 255.163 1.1423 -2.03651 0
M  V30 2661 C 256.144 1.42967 -0.921655 0
M  V30 2662 O 257.329 1.53343 -1.19162 0
M  V30 2663 C 254.459 2.4675 -2.44401 0
M  V30 2664 C 253.413 2.32467 -3.59365 0
M  V30 2665 C 252.739 3.69984 -3.86026 0
M  V30 2666 C 254.039 1.78203 -4.90959 0
M  V30 2667 H 255.733 0.755749 -2.89705 0
M  V30 2668 H 253.279 0.362093 -1.39373 0
M  V30 2669 H 255.232 3.18854 -2.75517 0
M  V30 2670 H 253.956 2.87302 -1.55322 0
M  V30 2671 H 252.615 1.62811 -3.28463 0
M  V30 2672 H 252.263 4.08028 -2.94147 0
M  V30 2673 H 251.963 3.61279 -4.63412 0
M  V30 2674 H 253.487 4.43587 -4.19599 0
M  V30 2675 H 254.901 2.40128 -5.20587 0
M  V30 2676 H 253.298 1.8031 -5.72371 0
M  V30 2677 H 254.368 0.739876 -4.79222 0
M  V30 2678 N 255.711 1.52812 0.385517 0
M  V30 2679 C 256.644 1.72592 1.49289 0
M  V30 2680 C 257.622 0.573819 1.52138 0
M  V30 2681 O 258.806 0.80404 1.70492 0
M  V30 2682 C 255.933 1.78669 2.87741 0
M  V30 2683 C 254.979 3.00455 3.02703 0
M  V30 2684 S 255.812 4.60366 2.73538 0
M  V30 2685 C 256.968 4.69263 4.14177 0
M  V30 2686 H 257.201 2.66248 1.32285 0
M  V30 2687 H 254.734 1.43148 0.578611 0
M  V30 2688 H 256.692 1.82855 3.67524 0
M  V30 2689 H 255.353 0.861 3.02069 0
M  V30 2690 H 254.546 3.01258 4.04054 0
M  V30 2691 H 254.148 2.94278 2.30817 0
M  V30 2692 H 256.44 4.48092 5.08153 0
M  V30 2693 H 257.383 5.71276 4.18388 0
M  V30 2694 H 257.791 3.98072 4.00249 0
M  V30 2695 N 257.189 -0.644168 1.43834 0
M  V30 2696 C 258.435 -1.40431 1.47141 0
M  V30 2697 C 258.79 -1.92153 0.0975577 0
M  V30 2698 O 258.083 -1.69924 -0.885232 0
M  V30 2699 C 258.277 -2.59615 2.45631 0
M  V30 2700 C 258.106 -2.1956 3.92458 0
M  V30 2701 C 256.876 -2.07456 4.60749 0
M  V30 2702 C 259.074 -1.79281 4.8204 0
M  V30 2703 N 257.056 -1.60827 5.92459 0
M  V30 2704 C 258.427 -1.43801 6.03093 0
M  V30 2705 C 260.482 -1.66545 4.6922 0
M  V30 2706 C 259.185 -0.968599 7.12749 0
M  V30 2707 C 261.211 -1.21008 5.78888 0
M  V30 2708 C 260.573 -0.864711 6.99072 0
M  V30 2709 H 256.672 -0.509182 0.593513 0
M  V30 2710 H 259.256 -0.740351 1.80075 0
M  V30 2711 H 257.427 -3.23658 2.1471 0
M  V30 2712 H 259.159 -3.26357 2.39318 0
M  V30 2713 H 255.914 -2.275 4.1538 0
M  V30 2714 H 256.338 -1.39848 6.62398 0
M  V30 2715 H 260.98 -1.91883 3.7675 0
M  V30 2716 H 258.698 -0.702715 8.05039 0
M  V30 2717 H 262.284 -1.11631 5.7099 0
M  V30 2718 H 261.164 -0.517736 7.82489 0
M  V30 2719 N 258.668 -1.30515 -0.883378 0
M  V30 2720 C 259.914 -1.20617 -1.63778 0
M  V30 2721 C 260.269 0.236469 -1.90941 0
M  V30 2722 O 259.562 1.16596 -1.52039 0
M  V30 2723 C 259.756 -1.96994 -2.98209 0
M  V30 2724 C 259.585 -3.48537 -2.84169 0
M  V30 2725 C 258.355 -4.17893 -2.84067 0
M  V30 2726 C 260.553 -4.43738 -2.60001 0
M  V30 2727 N 258.535 -5.55685 -2.60936 0
M  V30 2728 C 259.906 -5.69105 -2.46007 0
M  V30 2729 C 261.961 -4.33316 -2.45239 0
M  V30 2730 C 260.664 -6.8523 -2.18752 0
M  V30 2731 C 262.69 -5.4921 -2.19369 0
M  V30 2732 C 262.052 -6.73558 -2.06153 0
M  V30 2733 H 258.151 -0.496434 -0.604216 0
M  V30 2734 H 260.735 -1.64544 -1.04083 0
M  V30 2735 H 258.906 -1.55455 -3.55933 0
M  V30 2736 H 260.638 -1.79225 -3.62851 0
M  V30 2737 H 257.393 -3.69739 -2.95956 0
M  V30 2738 H 257.817 -6.28199 -2.52378 0
M  V30 2739 H 262.459 -3.37856 -2.54191 0
M  V30 2740 H 260.177 -7.80729 -2.08537 0
M  V30 2741 H 263.763 -5.43054 -2.08766 0
M  V30 2742 H 262.643 -7.61721 -1.86416 0
M  V30 2743 N 260.146 1.09593 -1.13257 0
M  V30 2744 C 261.079 2.15451 -0.752061 0
M  V30 2745 C 262.057 1.60493 0.260913 0
M  V30 2746 O 263.241 1.8788 0.152819 0
M  V30 2747 C 260.368 3.38506 -0.114594 0
M  V30 2748 C 259.414 4.12183 -1.09579 0
M  V30 2749 S 260.247 4.6661 -2.62745 0
M  V30 2750 C 261.403 5.92966 -2.00354 0
M  V30 2751 H 261.636 2.47395 -1.64872 0
M  V30 2752 H 259.169 1.21515 -0.952545 0
M  V30 2753 H 261.127 4.09757 0.246808 0
M  V30 2754 H 259.788 3.04784 0.759309 0
M  V30 2755 H 258.981 5.00445 -0.597545 0
M  V30 2756 H 258.583 3.46785 -1.40057 0
M  V30 2757 H 260.875 6.63882 -1.35156 0
M  V30 2758 H 261.818 6.47467 -2.86691 0
M  V30 2759 H 262.226 5.45405 -1.4558 0
M  V30 2760 N 261.624 0.925811 1.2754 0
M  V30 2761 C 262.554 0.440748 2.29303 0
M  V30 2762 C 263.535 -0.497971 1.62648 0
M  V30 2763 O 264.72 -0.403126 1.8997 0
M  V30 2764 C 261.85 -0.309048 3.45922 0
M  V30 2765 C 260.804 0.54166 4.24559 0
M  V30 2766 C 260.13 -0.337191 5.33636 0
M  V30 2767 C 261.43 1.80516 4.90114 0
M  V30 2768 H 263.124 1.29121 2.70126 0
M  V30 2769 H 260.67 0.622323 1.29858 0
M  V30 2770 H 262.623 -0.659315 4.1621 0
M  V30 2771 H 261.347 -1.19352 3.04011 0
M  V30 2772 H 260.006 0.874609 3.56014 0
M  V30 2773 H 259.654 -1.22056 4.87966 0
M  V30 2774 H 259.354 0.228497 5.87156 0
M  V30 2775 H 260.878 -0.683072 6.06767 0
M  V30 2776 H 262.292 1.52307 5.52698 0
M  V30 2777 H 260.689 2.3142 5.53683 0
M  V30 2778 H 261.759 2.52581 4.13921 0
M  V30 2779 N 263.102 -1.41638 0.69111 0
M  V30 2780 C 264.065 -2.29178 0.0319786 0
M  V30 2781 C 265.065 -1.44153 -0.712496 0
M  V30 2782 O 266.255 -1.65354 -0.548053 0
M  V30 2783 C 263.387 -3.26952 -0.965161 0
M  V30 2784 H 264.58 -2.88959 0.802681 0
M  V30 2785 H 262.133 -1.4955 0.454356 0
M  V30 2786 H 262.868 -2.72142 -1.76378 0
M  V30 2787 H 262.653 -3.89685 -0.434522 0
M  V30 2788 H 264.143 -3.92561 -1.42428 0
M  V30 2789 N 264.58 -0.43555 -1.51462 0
M  V30 2790 C 265.996 -0.0877501 -1.59359 0
M  V30 2791 C 266.196 1.4027 -1.4466 0
M  V30 2792 O 265.252 2.17243 -1.28693 0
M  V30 2793 C 266.565 -0.606264 -2.94525 0
M  V30 2794 C 268.113 -0.566548 -3.0783 0
M  V30 2795 C 268.588 -1.06201 -4.45517 0
M  V30 2796 N 270.079 -1.01992 -4.51832 0
M  V30 2797 C 270.814 -1.37417 -5.5669 0
M  V30 2798 N 270.31 -1.80119 -6.68976 0
M  V30 2799 N 272.103 -1.29245 -5.47039 0
M  V30 2800 H 264.254 -1.40533 -1.59261 0
M  V30 2801 H 266.517 -0.578992 -0.750648 0
M  V30 2802 H 266.223 -1.64901 -3.10645 0
M  V30 2803 H 266.097 -0.0302097 -3.77188 0
M  V30 2804 H 268.484 0.467208 -2.91378 0
M  V30 2805 H 268.565 -1.17898 -2.2701 0
M  V30 2806 H 268.209 -2.09422 -4.62715 0
M  V30 2807 H 268.139 -0.426127 -5.24873 0
M  V30 2808 H 270.63 -0.706308 -3.71241 0
M  V30 2809 H 270.943 -2.05392 -7.45006 0
M  V30 2810 H 269.288 -1.84044 -6.70189 0
M  V30 2811 H 272.479 -0.957522 -4.58202 0
M  V30 2812 H 272.652 -1.57182 -6.28648 0
M  V30 2813 N 266.058 1.56714 -0.166846 0
M  V30 2814 C 266.968 2.21331 0.777791 0
M  V30 2815 C 267.984 1.20358 1.25658 0
M  V30 2816 O 269.16 1.53005 1.30964 0
M  V30 2817 C 266.225 2.83787 1.99163 0
M  V30 2818 C 265.286 3.99947 1.56016 0
M  V30 2819 C 264.519 4.59415 2.71613 0
M  V30 2820 O 264.742 4.17769 3.88362 0
M  V30 2821 O 263.676 5.49359 2.45945 0
M  V30 2822 H 267.502 3.02605 0.257636 0
M  V30 2823 H 265.087 1.49275 0.0611393 0
M  V30 2824 H 266.969 3.23405 2.70161 0
M  V30 2825 H 265.644 2.05513 2.50092 0
M  V30 2826 H 264.551 3.65007 0.819809 0
M  V30 2827 H 265.884 4.79801 1.09782 0
M  V30 2828 N 267.536 -0.106894 1.57237 0
M  V30 2829 C 268.782 -0.81373 1.85759 0
M  V30 2830 C 269.115 -1.78952 0.754315 0
M  V30 2831 O 268.39 -1.93029 -0.23879 0
M  V30 2832 C 268.673 -1.55293 3.24894 0
M  V30 2833 C 268.526 -0.595929 4.45835 0
M  V30 2834 C 269.845 -2.5063 3.61763 0
M  V30 2835 H 266.964 -0.294369 0.67566 0
M  V30 2836 H 269.606 -0.0776472 1.89841 0
M  V30 2837 H 267.756 -2.1804 3.21544 0
M  V30 2838 H 269.428 0.0236262 4.61294 0
M  V30 2839 H 267.671 0.0916191 4.33703 0
M  V30 2840 H 268.342 -1.15004 5.39887 0
M  V30 2841 H 270.818 -1.97982 3.65981 0
M  V30 2842 H 269.694 -2.99376 4.60071 0
M  V30 2843 H 269.955 -3.3385 2.89821 0
M  V30 2844 N 269.014 -1.53014 -0.377408 0
M  V30 2845 C 269.944 -1.81589 -1.46791 0
M  V30 2846 C 270.925 -0.668622 -1.56408 0
M  V30 2847 O 272.11 -0.917337 -1.71168 0
M  V30 2848 C 269.24 -1.99519 -2.8427 0
M  V30 2849 C 268.194 -3.15249 -2.89486 0
M  V30 2850 C 267.52 -3.18451 -4.29527 0
M  V30 2851 C 268.82 -4.54084 -2.58079 0
M  V30 2852 H 270.514 -2.7291 -1.23127 0
M  V30 2853 H 268.06 -1.31319 -0.590883 0
M  V30 2854 H 270.013 -2.18092 -3.60575 0
M  V30 2855 H 268.737 -1.04897 -3.09296 0
M  V30 2856 H 267.396 -2.96477 -2.15631 0
M  V30 2857 H 267.044 -2.2149 -4.5161 0
M  V30 2858 H 266.744 -3.962 -4.33934 0
M  V30 2859 H 268.268 -3.39193 -5.07721 0
M  V30 2860 H 269.682 -4.72899 -3.24098 0
M  V30 2861 H 268.079 -5.33987 -2.7382 0
M  V30 2862 H 269.149 -4.60006 -1.53372 0
M  V30 2863 N 270.492 0.636531 -1.44174 0
M  V30 2864 C 271.908 0.954104 -1.27941 0
M  V30 2865 C 272.108 2.0039 -0.211248 0
M  V30 2866 O 271.164 2.49236 0.404695 0
M  V30 2867 C 272.477 1.4225 -2.64925 0
M  V30 2868 C 274.025 1.53827 -2.72592 0
M  V30 2869 C 274.5 2.04053 -4.10032 0
M  V30 2870 N 275.991 2.11331 -4.12182 0
M  V30 2871 C 276.726 2.51352 -5.15374 0
M  V30 2872 N 276.222 2.90549 -6.2893 0
M  V30 2873 N 278.015 2.51438 -5.02728 0
M  V30 2874 H 270.166 -0.0578386 -2.12321 0
M  V30 2875 H 272.429 0.0367406 -0.947288 0
M  V30 2876 H 272.135 0.725466 -3.44136 0
M  V30 2877 H 272.009 2.39451 -2.9145 0
M  V30 2878 H 274.396 2.22628 -1.93702 0
M  V30 2879 H 274.477 0.550154 -2.49814 0
M  V30 2880 H 274.121 1.35848 -4.89395 0
M  V30 2881 H 274.051 3.03726 -4.30184 0
M  V30 2882 H 276.542 1.83745 -3.30222 0
M  V30 2883 H 276.855 3.19884 -7.03487 0
M  V30 2884 H 275.2 2.88313 -6.32377 0
M  V30 2885 H 278.391 2.20203 -4.13072 0
M  V30 2886 H 278.564 2.82304 -5.83274 0
M  V30 2887 N 271.97 1.30982 0.876444 0
M  V30 2888 C 272.903 1.12414 1.98591 0
M  V30 2889 C 273.881 0.0294078 1.62573 0
M  V30 2890 O 275.065 0.184598 1.87594 0
M  V30 2891 C 272.192 0.716276 3.3104 0
M  V30 2892 C 271.238 1.81311 3.86042 0
M  V30 2893 S 272.071 3.41727 4.1229 0
M  V30 2894 C 273.227 3.02863 5.47745 0
M  V30 2895 H 273.46 2.06338 2.14037 0
M  V30 2896 H 270.993 1.15393 1.02586 0
M  V30 2897 H 272.951 0.487697 4.07593 0
M  V30 2898 H 271.612 -0.203749 3.13438 0
M  V30 2899 H 270.805 1.48021 4.81774 0
M  V30 2900 H 270.407 1.99641 3.16259 0
M  V30 2901 H 272.699 2.51353 6.29148 0
M  V30 2902 H 273.642 3.97533 5.8598 0
M  V30 2903 H 274.05 2.40487 5.10711 0
M  V30 2904 N 273.449 -1.08991 1.13837 0
M  V30 2905 C 274.865 -1.33312 0.877506 0
M  V30 2906 C 275.065 -1.95587 -0.48456 0
M  V30 2907 O 274.121 -2.20509 -1.23013 0
M  V30 2908 C 275.434 -2.24045 2.0056 0
M  V30 2909 C 276.982 -2.37542 2.03821 0
M  V30 2910 C 277.457 -3.31614 3.15905 0
M  V30 2911 N 278.948 -3.39189 3.15445 0
M  V30 2912 C 279.683 -4.11992 3.98811 0
M  V30 2913 N 279.179 -4.87553 4.92203 0
M  V30 2914 N 280.972 -4.07762 3.86894 0
M  V30 2915 H 273.123 -0.669456 2.01574 0
M  V30 2916 H 275.386 -0.357482 0.878015 0
M  V30 2917 H 275.092 -1.85521 2.98789 0
M  V30 2918 H 274.966 -3.24466 1.92359 0
M  V30 2919 H 277.353 -2.75327 1.06202 0
M  V30 2920 H 277.434 -1.36884 2.16093 0
M  V30 2921 H 277.078 -2.94551 4.13766 0
M  V30 2922 H 277.008 -4.32186 3.0087 0
M  V30 2923 H 279.499 -2.85314 2.47799 0
M  V30 2924 H 279.812 -5.40549 5.52292 0
M  V30 2925 H 278.157 -4.86627 4.96205 0
M  V30 2926 H 281.348 -3.47833 3.13257 0
M  V30 2927 H 281.521 -4.64238 4.52092 0
M  V30 2928 N 274.927 -0.932562 -1.27047 0
M  V30 2929 C 276.175 -0.574422 -1.93765 0
M  V30 2930 C 276.496 0.887993 -1.73608 0
M  V30 2931 O 275.766 1.62999 -1.08665 0
M  V30 2932 H 274.346 -0.209451 -0.717035 0
M  V30 2933 H 277.008 -1.18601 -1.5466 0
M  V30 2934 H 276.104 -0.784841 -3.02071 0
M  V30 2935 N 276.405 1.4127 -0.698611 0
M  V30 2936 C 277.633 2.05503 -0.239992 0
M  V30 2937 C 278.048 1.52584 1.11191 0
M  V30 2938 O 277.405 0.675323 1.69545 0
M  V30 2939 C 277.456 3.60987 -0.192429 0
M  V30 2940 O 277.177 4.1195 -1.49094 0
M  V30 2941 C 278.678 4.42371 0.28681 0
M  V30 2942 H 275.898 0.661748 -0.111045 0
M  V30 2943 H 278.442 1.80987 -0.95205 0
M  V30 2944 H 276.597 3.84533 0.470472 0
M  V30 2945 H 277.011 5.06018 -1.38007 0
M  V30 2946 H 278.485 5.51344 0.26896 0
M  V30 2947 H 278.962 4.18699 1.32619 0
M  V30 2948 H 279.568 4.23897 -0.345201 0
M  V30 2949 N 277.883 0.443576 1.51229 0
M  V30 2950 C 279.132 -0.122332 2.01329 0
M  V30 2951 C 279.445 -1.43237 1.33201 0
M  V30 2952 O 280.651 -2.0816 1.74304 0
M  V30 2953 C 279.107 -0.268551 3.58897 0
M  V30 2954 C 278.715 1.03142 4.35965 0
M  V30 2955 C 280.459 -0.787894 4.17124 0
M  V30 2956 C 278.366 0.850504 5.85252 0
M  V30 2957 H 277.296 -0.0494929 0.752374 0
M  V30 2958 H 279.947 0.574289 1.74282 0
M  V30 2959 H 278.329 -1.02832 3.82415 0
M  V30 2960 H 279.503 1.80001 4.24189 0
M  V30 2961 H 277.818 1.47977 3.89219 0
M  V30 2962 H 280.415 -0.939841 5.26375 0
M  V30 2963 H 280.758 -1.77201 3.76703 0
M  V30 2964 H 281.291 -0.0862669 3.97706 0
M  V30 2965 H 278.03 1.80718 6.30096 0
M  V30 2966 H 277.55 0.121825 5.99676 0
M  V30 2967 H 279.229 0.506163 6.45017 0
M  V30 2968 N 279.361 -1.56624 0.175154 0
M  V30 2969 C 280.586 -2.01813 -0.478137 0
M  V30 2970 C 281.011 -1.05457 -1.55757 0
M  V30 2971 O 280.369 -0.0347439 -1.81267 0
M  V30 2972 C 280.417 -3.45581 -1.02987 0
M  V30 2973 O 279.521 -3.52305 -2.14371 0
M  V30 2974 H 278.862 -0.65413 -0.114059 0
M  V30 2975 H 281.392 -2.02673 0.280173 0
M  V30 2976 H 281.402 -3.84965 -1.35151 0
M  V30 2977 H 280.077 -4.1521 -0.239556 0
M  V30 2978 H 278.654 -3.24783 -1.83222 0
M  V30 2979 N 280.839 0.0985539 -1.57292 0
M  V30 2980 C 282.255 0.45267 -1.53046 0
M  V30 2981 C 282.455 1.80713 -0.891342 0
M  V30 2982 O 281.511 2.4785 -0.482375 0
M  V30 2983 C 282.824 0.418341 -2.97776 0
M  V30 2984 C 284.372 0.500443 -3.08973 0
M  V30 2985 C 284.847 0.496297 -4.55303 0
M  V30 2986 N 286.338 0.557151 -4.59837 0
M  V30 2987 C 287.073 0.575726 -5.70502 0
M  V30 2988 N 286.569 0.550714 -6.90608 0
M  V30 2989 N 288.362 0.620277 -5.58667 0
M  V30 2990 H 280.513 -0.788673 -1.97215 0
M  V30 2991 H 282.776 -0.293188 -0.901524 0
M  V30 2992 H 282.482 -0.509659 -3.47988 0
M  V30 2993 H 282.356 1.2386 -3.56284 0
M  V30 2994 H 284.743 1.41886 -2.58751 0
M  V30 2995 H 284.824 -0.347894 -2.53423 0
M  V30 2996 H 284.468 -0.418162 -5.06176 0
M  V30 2997 H 284.398 1.3618 -5.08687 0
M  V30 2998 H 286.889 0.581816 -3.73394 0
M  V30 2999 H 287.202 0.568075 -7.70709 0
M  V30 3000 H 285.547 0.517816 -6.93068 0
M  V30 3001 H 288.738 0.637322 -4.63741 0
M  V30 3002 H 288.911 0.631283 -6.44918 0
M  V30 3003 N 282.317 1.53212 0.369288 0
M  V30 3004 C 283.227 1.82342 1.47609 0
M  V30 3005 C 284.243 0.711532 1.58787 0
M  V30 3006 O 285.419 1.0012 1.74751 0
M  V30 3007 C 282.484 2.00393 2.8292 0
M  V30 3008 C 281.545 3.24297 2.81301 0
M  V30 3009 C 280.778 3.41478 4.10157 0
M  V30 3010 O 281.001 2.63033 5.06132 0
M  V30 3011 O 279.935 4.34817 4.16194 0
M  V30 3012 H 283.761 2.76366 1.25918 0
M  V30 3013 H 281.346 1.38547 0.559034 0
M  V30 3014 H 283.228 2.13859 3.63101 0
M  V30 3015 H 281.903 1.09559 3.04596 0
M  V30 3016 H 280.81 3.16257 1.99831 0
M  V30 3017 H 282.143 4.15041 2.64578 0
M  V30 3018 N 283.795 -0.628877 1.44509 0
M  V30 3019 C 284.745 -1.7345 1.47983 0
M  V30 3020 C 285.729 -1.5715 0.345373 0
M  V30 3021 O 286.921 -1.66848 0.590829 0
M  V30 3022 C 284.05 -3.12143 1.42904 0
M  V30 3023 C 283.136 -3.33906 2.61472 0
M  V30 3024 N 283.527 -3.26024 3.86706 0
M  V30 3025 C 281.825 -3.64709 2.56716 0
M  V30 3026 C 282.526 -3.48536 4.65722 0
M  V30 3027 N 281.502 -3.71517 3.96832 0
M  V30 3028 H 285.304 -1.65818 2.42655 0
M  V30 3029 H 282.818 -0.831419 1.39503 0
M  V30 3030 H 284.815 -3.91433 1.43476 0
M  V30 3031 H 283.475 -3.2094 0.492717 0
M  V30 3032 H 284.486 -3.04893 4.18641 0
M  V30 3033 H 281.163 -3.80473 1.71891 0
M  V30 3034 H 282.553 -3.48016 5.74747 0
M  V30 3035 N 285.273 -1.31445 -0.869486 0
M  V30 3036 C 286.684 -1.19042 -1.43826 0
M  V30 3037 C 287.035 0.202919 -1.95148 0
M  V30 3038 O 286.16 1.10071 -1.86315 0
M  V30 3039 C 286.755 -2.15499 -2.6143 0
M  V30 3040 C 285.314 -2.07028 -3.14351 0
M  V30 3041 C 284.461 -2.04701 -1.87063 0
M  V30 3042 H 287.412 -1.43489 -0.677984 0
M  V30 3043 H 287.433 -1.74488 -3.38134 0
M  V30 3044 H 286.945 -3.16899 -2.24046 0
M  V30 3045 H 285.046 -1.08825 -3.56354 0
M  V30 3046 H 285.159 -2.96157 -3.766 0
M  V30 3047 H 283.523 -1.49724 -2.06046 0
M  V30 3048 H 284.306 -3.07857 -1.51917 0
M  V30 3049 N 286.751 1.08385 -1.14413 0
M  V30 3050 C 287.997 1.81212 -0.923793 0
M  V30 3051 C 288.352 1.84555 0.543814 0
M  V30 3052 O 287.645 1.31056 1.39767 0
M  V30 3053 C 287.839 3.26273 -1.45879 0
M  V30 3054 C 287.668 3.37063 -2.97689 0
M  V30 3055 C 286.438 3.4824 -3.66138 0
M  V30 3056 C 288.636 3.28698 -3.95553 0
M  V30 3057 N 286.618 3.47824 -5.05858 0
M  V30 3058 C 287.989 3.35276 -5.21527 0
M  V30 3059 C 290.044 3.12437 -3.8767 0
M  V30 3060 C 288.747 3.27267 -6.40538 0
M  V30 3061 C 290.773 3.05757 -5.06228 0
M  V30 3062 C 290.135 3.12938 -6.3107 0
M  V30 3063 H 286.234 0.6769 -0.391574 0
M  V30 3064 H 288.818 1.29455 -1.45429 0
M  V30 3065 H 286.989 3.76474 -0.95507 0
M  V30 3066 H 288.721 3.87165 -1.17835 0
M  V30 3067 H 285.476 3.52141 -3.16692 0
M  V30 3068 H 285.9 3.51171 -5.78798 0
M  V30 3069 H 290.542 3.05747 -2.92025 0
M  V30 3070 H 288.26 3.32718 -7.36427 0
M  V30 3071 H 291.846 2.94295 -5.01878 0
M  V30 3072 H 290.726 3.078 -7.21269 0
M  V30 3073 N 288.23 0.939286 1.26551 0
M  V30 3074 C 289.14 0.453432 2.30176 0
M  V30 3075 C 290.156 -0.471649 1.67486 0
M  V30 3076 O 291.332 -0.35164 1.98306 0
M  V30 3077 C 288.397 -0.275326 3.45605 0
M  V30 3078 C 287.458 0.686084 4.23782 0
M  V30 3079 C 286.691 -0.00798994 5.33699 0
M  V30 3080 O 286.914 -1.22528 5.57085 0
M  V30 3081 O 285.848 0.669746 5.98162 0
M  V30 3082 H 289.674 1.31416 2.73795 0
M  V30 3083 H 287.259 0.705095 1.31715 0
M  V30 3084 H 289.141 -0.685911 4.1578 0
M  V30 3085 H 287.816 -1.11147 3.0402 0
M  V30 3086 H 286.723 1.14658 3.56096 0
M  V30 3087 H 288.056 1.48979 4.69112 0
M  V30 3088 N 289.708 -1.40897 0.706093 0
M  V30 3089 C 290.954 -2.01352 0.241889 0
M  V30 3090 C 291.287 -1.55832 -1.15888 0
M  V30 3091 O 290.562 -0.774145 -1.7843 0
M  V30 3092 C 290.845 -3.58752 0.311311 0
M  V30 3093 C 290.698 -4.1437 1.74978 0
M  V30 3094 C 292.017 -4.38914 -0.322922 0
M  V30 3095 H 289.136 -0.731562 0.0893687 0
M  V30 3096 H 291.778 -1.67504 0.896802 0
M  V30 3097 H 289.928 -3.87718 -0.246302 0
M  V30 3098 H 291.6 -3.96239 2.36205 0
M  V30 3099 H 289.843 -3.69016 2.28057 0
M  V30 3100 H 290.514 -5.23532 1.74981 0
M  V30 3101 H 292.99 -4.15822 0.152089 0
M  V30 3102 H 291.866 -5.48358 -0.243855 0
M  V30 3103 H 292.127 -4.19176 -1.40513 0
M  V30 3104 N 291.186 -0.45159 -1.50991 0
M  V30 3105 C 292.119 0.398179 -2.24699 0
M  V30 3106 C 293.097 1.01276 -1.27208 0
M  V30 3107 O 294.281 1.05247 -1.56382 0
M  V30 3108 C 291.408 1.55618 -3.00833 0
M  V30 3109 C 290.454 1.0609 -4.13095 0
M  V30 3110 S 291.287 -0.00865136 -5.35499 0
M  V30 3111 C 292.443 1.15369 -6.15175 0
M  V30 3112 H 292.676 -0.227555 -2.96428 0
M  V30 3113 H 290.209 -0.236251 -1.52582 0
M  V30 3114 H 292.167 2.21997 -3.45293 0
M  V30 3115 H 290.828 2.15337 -2.28667 0
M  V30 3116 H 290.021 1.92726 -4.65696 0
M  V30 3117 H 289.623 0.47513 -3.7097 0
M  V30 3118 H 291.915 2.06925 -6.45126 0
M  V30 3119 H 292.858 0.667344 -7.04948 0
M  V30 3120 H 293.266 1.3987 -5.46897 0
M  V30 3121 N 292.664 1.56529 -0.183458 0
M  V30 3122 C 294.075 1.83739 0.331177 0
M  V30 3123 C 294.426 1.10373 1.62211 0
M  V30 3124 O 293.551 0.36071 2.13373 0
M  V30 3125 C 294.146 3.33306 0.607646 0
M  V30 3126 C 292.705 3.60969 1.06668 0
M  V30 3127 C 291.852 2.77086 0.109029 0
M  V30 3128 H 294.803 1.53379 -0.407484 0
M  V30 3129 H 294.824 3.51444 1.45832 0
M  V30 3130 H 294.336 3.86677 -0.332086 0
M  V30 3131 H 292.437 3.13021 2.0211 0
M  V30 3132 H 292.55 4.69231 0.967447 0
M  V30 3133 H 290.914 2.47319 0.608714 0
M  V30 3134 H 291.697 3.33241 -0.82494 0
M  V30 3135 N 294.142 -0.090211 1.57342 0
M  V30 3136 C 295.419 -0.824761 1.77361 0
M  V30 3137 C 295.799 -1.96698 0.76637 0
M  V30 3138 O 295.147 -2.27586 -0.204179 0
M  V30 3139 C 295.357 -1.31481 3.23286 0
M  V30 3140 C 296.705 -1.75563 3.86604 0
M  V30 3141 O 297.729 -1.41093 3.27065 0
M  V30 3142 O 296.588 -2.39317 4.91314 0
M  V30 3143 H 293.682 -0.393776 0.727234 0
M  V30 3144 H 296.228 -0.0717138 1.69548 0
M  V30 3145 H 295 -0.496671 3.88135 0
M  V30 3146 H 294.623 -2.12973 3.35751 0
M  V30 3147 N 295.62 -1.53406 -0.361157 0
M  V30 3148 C 296.55 -1.83136 -1.44857 0
M  V30 3149 C 297.531 -0.685174 -1.5569 0
M  V30 3150 O 298.716 -0.93544 -1.70186 0
M  V30 3151 C 295.846 -2.02522 -2.82138 0
M  V30 3152 C 294.8 -3.18302 -2.86126 0
M  V30 3153 C 294.126 -3.22989 -4.26125 0
M  V30 3154 C 295.426 -4.56796 -2.53248 0
M  V30 3155 H 297.12 -2.74201 -1.20226 0
M  V30 3156 H 294.666 -1.31938 -0.576922 0
M  V30 3157 H 296.619 -2.21904 -3.58241 0
M  V30 3158 H 295.343 -1.08172 -3.08166 0
M  V30 3159 H 294.002 -2.98747 -2.12475 0
M  V30 3160 H 293.65 -2.26267 -4.49235 0
M  V30 3161 H 293.35 -4.00781 -4.29708 0
M  V30 3162 H 294.874 -3.44559 -5.04094 0
M  V30 3163 H 296.288 -4.7631 -3.19064 0
M  V30 3164 H 294.685 -5.36862 -2.68141 0
M  V30 3165 H 295.755 -4.61606 -1.48484 0
M  V30 3166 N 297.098 0.621204 -1.44841 0
M  V30 3167 C 298.328 1.40548 -1.51426 0
M  V30 3168 C 298.736 1.88673 -0.141083 0
M  V30 3169 O 298.079 1.62053 0.865128 0
M  V30 3170 C 298.141 2.65325 -2.42576 0
M  V30 3171 C 297.805 2.3893 -3.89566 0
M  V30 3172 C 298.802 2.00138 -4.79834 0
M  V30 3173 C 296.487 2.52263 -4.3436 0
M  V30 3174 C 298.481 1.75021 -6.129 0
M  V30 3175 C 296.168 2.2676 -5.67471 0
M  V30 3176 C 297.166 1.88199 -6.56559 0
M  V30 3177 O 296.854 1.62986 -7.87204 0
M  V30 3178 H 296.586 0.437122 -0.515655 0
M  V30 3179 H 299.14 0.765987 -1.90583 0
M  V30 3180 H 297.37 3.31947 -1.98364 0
M  V30 3181 H 299.059 3.27347 -2.39998 0
M  V30 3182 H 299.825 1.89386 -4.46495 0
M  V30 3183 H 295.704 2.81246 -3.65269 0
M  V30 3184 H 299.248 1.44848 -6.82396 0
M  V30 3185 H 295.145 2.37125 -6.00368 0
M  V30 3186 H 295.913 1.7715 -7.991 0
M  V30 3187 N 298.576 1.31904 0.862503 0
M  V30 3188 C 299.823 1.22017 1.61611 0
M  V30 3189 C 300.151 -0.21991 1.93253 0
M  V30 3190 O 299.406 -1.17076 1.56817 0
M  V30 3191 C 299.705 2.01713 2.95037 0
M  V30 3192 C 299.371 3.51145 2.82857 0
M  V30 3193 C 298.033 3.91889 2.79243 0
M  V30 3194 C 300.385 4.46204 2.69353 0
M  V30 3195 C 297.713 5.25947 2.59993 0
M  V30 3196 C 300.065 5.80397 2.5164 0
M  V30 3197 C 298.729 6.20352 2.46413 0
M  V30 3198 H 297.999 0.44649 0.591378 0
M  V30 3199 H 300.646 1.63248 1.00111 0
M  V30 3200 H 298.951 1.53185 3.60613 0
M  V30 3201 H 300.648 1.91437 3.52353 0
M  V30 3202 H 297.238 3.1878 2.86491 0
M  V30 3203 H 301.422 4.15652 2.71196 0
M  V30 3204 H 296.678 5.5597 2.54376 0
M  V30 3205 H 300.852 6.53676 2.40169 0
M  V30 3206 H 298.479 7.24172 2.31256 0
M  V30 3207 N 300.054 -1.07777 1.14986 0
M  V30 3208 C 301.284 -1.83752 0.944402 0
M  V30 3209 C 301.692 -1.8218 -0.51058 0
M  V30 3210 O 301.035 -1.22852 -1.36576 0
M  V30 3211 C 301.097 -3.32128 1.37592 0
M  V30 3212 C 300.761 -3.57425 2.84775 0
M  V30 3213 C 301.758 -3.5173 3.8286 0
M  V30 3214 C 299.443 -3.8523 3.2234 0
M  V30 3215 C 301.437 -3.73482 5.16517 0
M  V30 3216 C 299.124 -4.06634 4.56171 0
M  V30 3217 C 300.122 -4.00754 5.53069 0
M  V30 3218 O 299.81 -4.2159 6.84483 0
M  V30 3219 H 299.542 -0.58673 0.335744 0
M  V30 3220 H 302.096 -1.36982 1.53052 0
M  V30 3221 H 300.326 -3.79686 0.733165 0
M  V30 3222 H 302.015 -3.89555 1.14024 0
M  V30 3223 H 302.781 -3.30256 3.55184 0
M  V30 3224 H 298.66 -3.88923 2.47508 0
M  V30 3225 H 302.204 -3.68808 5.92137 0
M  V30 3226 H 298.101 -4.27593 4.83564 0
M  V30 3227 H 298.869 -4.38961 6.90837 0
M  V30 3228 N 301.532 -0.945985 -1.26051 0
M  V30 3229 C 302.948 -0.649045 -1.45807 0
M  V30 3230 C 303.148 0.796158 -1.85104 0
M  V30 3231 O 302.204 1.57233 -1.97571 0
M  V30 3232 C 303.517 -1.61458 -2.53677 0
M  V30 3233 C 305.065 -1.62481 -2.67524 0
M  V30 3234 C 305.54 -2.57776 -3.7857 0
M  V30 3235 N 307.031 -2.5609 -3.85969 0
M  V30 3236 C 307.766 -3.26508 -4.7136 0
M  V30 3237 N 307.262 -4.0637 -5.61102 0
M  V30 3238 N 309.055 -3.15437 -4.65248 0
M  V30 3239 H 301.206 -1.88005 -0.988328 0
M  V30 3240 H 303.469 -0.808198 -0.4955 0
M  V30 3241 H 303.175 -2.64644 -2.31638 0
M  V30 3242 H 303.049 -1.37036 -3.51427 0
M  V30 3243 H 305.436 -0.600167 -2.88933 0
M  V30 3244 H 305.517 -1.90958 -1.70202 0
M  V30 3245 H 305.161 -3.60361 -3.57913 0
M  V30 3246 H 305.091 -2.26587 -4.75359 0
M  V30 3247 H 307.582 -1.98105 -3.21812 0
M  V30 3248 H 307.895 -4.57042 -6.23164 0
M  V30 3249 H 306.24 -4.10469 -5.60839 0
M  V30 3250 H 309.431 -2.52525 -3.94143 0
M  V30 3251 H 309.604 -3.70584 -5.31575 0
M  V30 3252 N 303.011 1.40521 -0.713556 0
M  V30 3253 C 304.288 1.94775 -0.17943 0
M  V30 3254 C 304.668 1.65184 1.31444 0
M  V30 3255 O 304.016 0.968429 2.06963 0
M  V30 3256 C 304.226 3.45543 -0.489986 0
M  V30 3257 C 305.574 4.22442 -0.427536 0
M  V30 3258 O 306.598 3.53644 -0.425929 0
M  V30 3259 O 305.457 5.4501 -0.403292 0
M  V30 3260 H 302.551 0.826606 -0.0255192 0
M  V30 3261 H 305.097 1.5014 -0.790949 0
M  V30 3262 H 303.869 3.60432 -1.5233 0
M  V30 3263 H 303.492 3.97311 0.151598 0
M  V30 3264 N 304.489 0.459591 1.5075 0
M  V30 3265 C 305.9 0.00171547 1.867 0
M  V30 3266 C 306.251 -1.39934 1.37525 0
M  V30 3267 O 305.376 -2.03523 0.735349 0
M  V30 3268 C 305.971 -0.00366298 3.388 0
M  V30 3269 C 304.53 -0.406026 3.74204 0
M  V30 3270 C 303.677 0.38673 2.7459 0
M  V30 3271 H 306.628 0.674413 1.43657 0
M  V30 3272 H 306.649 -0.808371 3.71814 0
M  V30 3273 H 306.161 1.01617 3.74561 0
M  V30 3274 H 304.262 -1.43063 3.4404 0
M  V30 3275 H 304.375 -0.115362 4.78961 0
M  V30 3276 H 302.739 -0.158019 2.54209 0
M  V30 3277 H 303.522 1.40585 3.13194 0
M  V30 3278 N 305.967 -1.56429 0.191757 0
M  V30 3279 C 306.877 -2.22541 -0.742481 0
M  V30 3280 C 307.893 -1.22342 -1.23727 0
M  V30 3281 O 309.069 -1.55069 -1.28513 0
M  V30 3282 C 306.134 -2.8692 -1.94623 0
M  V30 3283 C 305.195 -4.02378 -1.49633 0
M  V30 3284 C 304.428 -4.63678 -2.6427 0
M  V30 3285 O 304.651 -4.23895 -3.81666 0
M  V30 3286 O 303.585 -5.53202 -2.37174 0
M  V30 3287 H 307.411 -3.02977 -0.209462 0
M  V30 3288 H 304.996 -1.49353 -0.0373832 0
M  V30 3289 H 306.878 -3.27663 -2.64982 0
M  V30 3290 H 305.553 -2.09466 -2.46791 0
M  V30 3291 H 304.46 -3.66265 -0.761636 0
M  V30 3292 H 305.793 -4.81487 -1.02134 0
M  V30 3293 N 307.445 0.0818655 -1.57387 0
M  V30 3294 C 308.355 1.11642 -2.06333 0
M  V30 3295 C 309.371 1.43033 -0.99083 0
M  V30 3296 O 310.547 1.53411 -1.30488 0
M  V30 3297 C 307.612 2.41342 -2.48907 0
M  V30 3298 C 306.673 2.17014 -3.7041 0
M  V30 3299 C 305.906 3.4053 -4.10944 0
M  V30 3300 O 306.129 4.4927 -3.51444 0
M  V30 3301 O 305.063 3.29336 -5.03807 0
M  V30 3302 H 308.889 0.730657 -2.9478 0
M  V30 3303 H 306.474 0.295301 -1.46452 0
M  V30 3304 H 308.356 3.17691 -2.76858 0
M  V30 3305 H 307.031 2.79319 -1.63593 0
M  V30 3306 H 305.938 1.38403 -3.47556 0
M  V30 3307 H 307.271 1.83923 -4.56545 0
M  V30 3308 N 308.923 1.53595 0.353017 0
M  V30 3309 C 310.172 1.69603 1.09168 0
M  V30 3310 C 310.485 0.460925 1.90092 0
M  V30 3311 O 311.691 0.501774 2.66823 0
M  V30 3312 C 310.147 2.99872 1.9901 0
M  V30 3313 C 309.755 4.30687 1.23339 0
M  V30 3314 C 311.499 3.25246 2.72792 0
M  V30 3315 C 309.406 5.52036 2.12156 0
M  V30 3316 H 308.336 0.631966 0.411261 0
M  V30 3317 H 310.987 1.80096 0.351802 0
M  V30 3318 H 309.369 2.83212 2.7678 0
M  V30 3319 H 310.543 4.58019 0.505456 0
M  V30 3320 H 308.858 4.11853 0.613663 0
M  V30 3321 H 311.455 4.13095 3.39495 0
M  V30 3322 H 311.798 2.41846 3.38846 0
M  V30 3323 H 312.331 3.42638 2.021 0
M  V30 3324 H 309.07 6.37951 1.50659 0
M  V30 3325 H 308.59 5.28966 2.82764 0
M  V30 3326 H 310.269 5.87313 2.71427 0
M  V30 3327 N 310.401 -0.613514 1.45168 0
M  V30 3328 C 311.311 -1.75296 1.55912 0
M  V30 3329 C 312.327 -1.68244 0.443856 0
M  V30 3330 O 313.503 -1.88706 0.70371 0
M  V30 3331 C 310.568 -3.1174 1.5172 0
M  V30 3332 C 309.629 -3.30291 2.74238 0
M  V30 3333 C 308.862 -4.60226 2.70236 0
M  V30 3334 O 309.085 -5.42168 1.77229 0
M  V30 3335 O 308.019 -4.81361 3.61352 0
M  V30 3336 H 311.845 -1.69183 2.52212 0
M  V30 3337 H 309.43 -0.776886 1.27612 0
M  V30 3338 H 311.312 -3.93044 1.51968 0
M  V30 3339 H 309.987 -3.18357 0.585697 0
M  V30 3340 H 308.894 -2.48598 2.79553 0
M  V30 3341 H 310.227 -3.28547 3.66494 0
M  V30 3342 N 311.879 -1.3236 -0.855495 0
M  V30 3343 C 312.826 -1.21225 -1.964 0
M  V30 3344 C 313.796 -0.0946204 -1.6583 0
M  V30 3345 O 314.981 -0.27002 -1.8888 0
M  V30 3346 C 312.121 -0.940419 -3.32039 0
M  V30 3347 C 311.234 -2.14276 -3.75113 0
M  V30 3348 C 310.369 -1.80648 -4.9954 0
M  V30 3349 C 309.408 -2.97208 -5.35102 0
M  V30 3350 N 308.545 -2.63678 -6.50706 0
M  V30 3351 H 313.385 -2.16042 -2.05255 0
M  V30 3352 H 310.922 -1.07451 -1.00463 0
M  V30 3353 H 312.88 -0.763311 -4.10158 0
M  V30 3354 H 311.51 -0.0290413 -3.22787 0
M  V30 3355 H 310.562 -2.43017 -2.92655 0
M  V30 3356 H 311.874 -3.01468 -3.97389 0
M  V30 3357 H 311.028 -1.59484 -5.85363 0
M  V30 3358 H 309.767 -0.906678 -4.79198 0
M  V30 3359 H 308.772 -3.19004 -4.47791 0
M  V30 3360 H 309.997 -3.87918 -5.57401 0
M  V30 3361 H 307.943 -1.76238 -6.31883 0
M  V30 3362 H 307.86 -3.444 -6.72997 0
M  V30 3363 H 309.128 -2.45942 -7.39684 0
M  V30 3364 N 313.357 1.07166 -1.15556 0
M  V30 3365 C 314.267 2.17947 -0.868116 0
M  V30 3366 C 315.283 1.73297 0.156297 0
M  V30 3367 O 316.459 2.01392 -0.0182327 0
M  V30 3368 C 313.524 3.44789 -0.36355 0
M  V30 3369 C 312.585 4.03996 -1.45209 0
M  V30 3370 C 311.818 5.24783 -0.971508 0
M  V30 3371 O 312.041 5.70109 0.182194 0
M  V30 3372 O 310.975 5.75715 -1.75603 0
M  V30 3373 H 314.801 2.4503 -1.79427 0
M  V30 3374 H 312.386 1.16539 -0.934824 0
M  V30 3375 H 314.268 4.21307 -0.0887113 0
M  V30 3376 H 312.943 3.19253 0.534708 0
M  V30 3377 H 311.85 3.29009 -1.78056 0
M  V30 3378 H 313.183 4.33808 -2.32533 0
M  V30 3379 N 314.835 0.952656 1.25548 0
M  V30 3380 C 315.745 0.47782 2.29682 0
M  V30 3381 C 316.761 -0.453859 1.67977 0
M  V30 3382 O 317.937 -0.330587 1.98668 0
M  V30 3383 C 315.002 -0.238655 3.45878 0
M  V30 3384 C 314.063 0.730994 4.23031 0
M  V30 3385 C 313.296 0.0486165 5.33678 0
M  V30 3386 O 313.519 -1.16612 5.58353 0
M  V30 3387 O 312.453 0.733152 5.97418 0
M  V30 3388 H 316.279 1.34312 2.72386 0
M  V30 3389 H 313.864 0.719026 1.30959 0
M  V30 3390 H 315.746 -0.641774 4.16484 0
M  V30 3391 H 314.421 -1.07916 3.05181 0
M  V30 3392 H 313.328 1.18428 3.5486 0
M  V30 3393 H 314.661 1.53946 4.67506 0
M  V30 3394 N 316.313 -1.40141 0.720998 0
M  V30 3395 C 317.245 -2.29177 0.0324669 0
M  V30 3396 C 318.258 -1.46105 -0.718126 0
M  V30 3397 O 319.447 -1.69335 -0.564608 0
M  V30 3398 C 316.547 -3.24473 -0.978292 0
M  V30 3399 C 315.72 -4.36423 -0.292115 0
M  V30 3400 C 314.779 -5.12122 -1.20901 0
M  V30 3401 O 313.805 -5.64981 -0.691766 0
M  V30 3402 N 315.007 -5.21992 -2.53978 0
M  V30 3403 H 317.772 -2.88909 0.796984 0
M  V30 3404 H 315.333 -1.51569 0.569068 0
M  V30 3405 H 317.325 -3.71987 -1.59398 0
M  V30 3406 H 315.895 -2.65871 -1.64413 0
M  V30 3407 H 315.115 -3.90967 0.503847 0
M  V30 3408 H 316.403 -5.08467 0.183971 0
M  V30 3409 H 315.801 -4.8054 -2.98493 0
M  V30 3410 H 314.358 -5.72995 -3.10677 0
M  V30 3411 N 317.792 -0.46758 -1.50504 0
M  V30 3412 C 318.755 0.317059 -2.26996 0
M  V30 3413 C 319.755 0.923513 -1.31635 0
M  V30 3414 O 320.945 0.793239 -1.55091 0
M  V30 3415 C 318.077 1.45134 -3.08462 0
M  V30 3416 H 319.27 -0.353723 -2.97807 0
M  V30 3417 H 316.823 -0.221545 -1.54722 0
M  V30 3418 H 317.558 2.15728 -2.4214 0
M  V30 3419 H 317.343 1.02232 -3.78538 0
M  V30 3420 H 318.833 2.00493 -3.66323 0
M  V30 3421 N 319.27 1.56325 -0.20005 0
M  V30 3422 C 320.233 2.18084 0.705132 0
M  V30 3423 C 321.233 1.13666 1.1374 0
M  V30 3424 O 322.423 1.39023 1.04968 0
M  V30 3425 C 319.555 2.78689 1.96329 0
M  V30 3426 H 320.748 2.99435 0.167023 0
M  V30 3427 H 318.301 1.56221 0.0495725 0
M  V30 3428 H 319.036 2.0115 2.5438 0
M  V30 3429 H 318.821 3.55133 1.66202 0
M  V30 3430 H 320.311 3.26096 2.60866 0
M  V30 3431 N 320.748 -0.0735177 1.57428 0
M  V30 3432 C 321.711 -1.07192 2.02589 0
M  V30 3433 C 322.711 -1.31695 0.922661 0
M  V30 3434 O 323.901 -1.27445 1.18758 0
M  V30 3435 C 321.033 -2.41599 2.40506 0
M  V30 3436 H 322.226 -0.682727 2.92025 0
M  V30 3437 H 319.779 -0.319193 1.53006 0
M  V30 3438 H 320.514 -2.85354 1.5409 0
M  V30 3439 H 320.299 -2.25156 3.21009 0
M  V30 3440 H 321.789 -3.13367 2.76027 0
M  V30 3441 N 322.226 -1.5378 -0.344866 0
M  V30 3442 C 323.136 -1.84667 -1.4469 0
M  V30 3443 C 324.152 -0.736704 -1.57635 0
M  V30 3444 O 325.328 -1.02888 -1.73136 0
M  V30 3445 C 322.393 -2.04869 -2.79696 0
M  V30 3446 C 321.454 -3.28731 -2.76106 0
M  V30 3447 C 320.687 -3.4796 -4.04673 0
M  V30 3448 O 320.91 -2.71052 -5.01883 0
M  V30 3449 O 319.844 -4.41383 -4.09224 0
M  V30 3450 H 323.67 -2.78334 -1.21506 0
M  V30 3451 H 321.255 -1.39418 -0.536921 0
M  V30 3452 H 323.137 -2.19609 -3.59652 0
M  V30 3453 H 321.812 -1.14391 -3.02814 0
M  V30 3454 H 320.719 -3.19396 -1.94774 0
M  V30 3455 H 322.052 -4.19198 -2.57941 0
M  V30 3456 N 323.704 0.605807 -1.45491 0
M  V30 3457 C 324.651 1.7164 -1.54299 0
M  V30 3458 C 325.621 1.61486 -0.388761 0
M  V30 3459 O 326.806 1.81039 -0.602445 0
M  V30 3460 C 323.946 3.09953 -1.51734 0
M  V30 3461 C 323.059 3.309 -2.77721 0
M  V30 3462 C 322.194 4.59329 -2.66816 0
M  V30 3463 C 321.233 4.7354 -3.87848 0
M  V30 3464 N 320.37 5.9327 -3.75467 0
M  V30 3465 H 325.21 1.63449 -2.49176 0
M  V30 3466 H 322.747 0.796957 -1.23641 0
M  V30 3467 H 324.705 3.89977 -1.48235 0
M  V30 3468 H 323.335 3.17098 -0.604068 0
M  V30 3469 H 322.387 2.44639 -2.913 0
M  V30 3470 H 323.699 3.37274 -3.67488 0
M  V30 3471 H 322.853 5.4755 -2.61292 0
M  V30 3472 H 321.592 4.55355 -1.74651 0
M  V30 3473 H 320.597 3.83741 -3.93729 0
M  V30 3474 H 321.822 4.79309 -4.81082 0
M  V30 3475 H 319.768 5.90338 -2.86072 0
M  V30 3476 H 319.685 6.00811 -4.5887 0
M  V30 3477 H 320.953 6.83984 -3.73879 0
M  V30 3478 N 325.182 1.32811 0.848464 0
M  V30 3479 C 326.145 1.22194 1.9391 0
M  V30 3480 C 327.145 0.143404 1.60159 0
M  V30 3481 O 328.335 0.394253 1.6968 0
M  V30 3482 C 325.467 0.88067 3.29328 0
M  V30 3483 H 326.66 2.19127 2.04752 0
M  V30 3484 H 324.213 1.16731 1.0394 0
M  V30 3485 H 324.948 -0.0865776 3.24184 0
M  V30 3486 H 324.733 1.66052 3.55203 0
M  V30 3487 H 326.223 0.830871 4.09251 0
M  V30 3488 N 326.66 -1.06551 1.16123 0
M  V30 3489 C 327.906 -1.79567 0.94252 0
M  V30 3490 C 328.239 -1.86869 -0.528547 0
M  V30 3491 O 327.514 -1.35838 -1.39206 0
M  V30 3492 C 327.797 -3.24195 1.56747 0
M  V30 3493 C 327.65 -3.24989 3.10969 0
M  V30 3494 C 328.969 -4.21678 1.25998 0
M  V30 3495 H 326.088 -0.651883 0.343828 0
M  V30 3496 H 328.73 -1.2463 1.43413 0
M  V30 3497 H 326.88 -3.71107 1.14942 0
M  V30 3498 H 328.552 -2.86258 3.61737 0
M  V30 3499 H 326.795 -2.63716 3.44436 0
M  V30 3500 H 327.466 -4.27005 3.49815 0
M  V30 3501 H 329.942 -3.83196 1.62174 0
M  V30 3502 H 328.818 -5.21146 1.7233 0
M  V30 3503 H 329.079 -4.4174 0.178367 0
M  V30 3504 N 328.138 -0.959301 -1.25041 0
M  V30 3505 C 329.366 -0.633949 -1.96948 0
M  V30 3506 C 329.781 0.794916 -1.7125 0
M  V30 3507 O 329.138 1.53231 -0.991287 0
M  V30 3508 C 329.189 -0.888805 -3.50403 0
M  V30 3509 O 328.91 -2.26149 -3.75218 0
M  V30 3510 C 330.411 -0.576482 -4.39536 0
M  V30 3511 H 327.631 -0.237263 -0.627652 0
M  V30 3512 H 330.175 -1.28495 -1.59089 0
M  V30 3513 H 328.33 -0.284145 -3.86357 0
M  V30 3514 H 328.744 -2.33514 -4.6965 0
M  V30 3515 H 330.218 -0.805314 -5.46094 0
M  V30 3516 H 330.695 0.489075 -4.36468 0
M  V30 3517 H 331.301 -1.16067 -4.09156 0
M  V30 3518 N 329.616 1.39756 -0.72842 0
M  V30 3519 C 330.563 2.30647 -0.0841519 0
M  V30 3520 C 331.533 1.48869 0.7367 0
M  V30 3521 O 332.718 1.77574 0.698015 0
M  V30 3522 C 329.858 3.35165 0.822091 0
M  V30 3523 C 328.971 4.31999 -0.0106663 0
M  V30 3524 C 328.106 5.23585 0.896241 0
M  V30 3525 C 327.145 6.12072 0.0583381 0
M  V30 3526 N 326.282 6.96035 0.920818 0
M  V30 3527 H 331.122 2.85173 -0.864891 0
M  V30 3528 H 328.659 1.40422 -0.438179 0
M  V30 3529 H 330.617 3.94345 1.36189 0
M  V30 3530 H 329.247 2.8211 1.56888 0
M  V30 3531 H 328.299 3.74492 -0.66781 0
M  V30 3532 H 329.611 4.9443 -0.658825 0
M  V30 3533 H 328.765 5.87759 1.50412 0
M  V30 3534 H 327.504 4.61459 1.57819 0
M  V30 3535 H 326.509 5.46916 -0.562389 0
M  V30 3536 H 327.734 6.76261 -0.6203 0
M  V30 3537 H 325.68 6.36485 1.58818 0
M  V30 3538 H 325.597 7.55284 0.32899 0
M  V30 3539 H 326.865 7.64646 1.51447 0
M  V30 3540 N 331.094 0.475555 1.50254 0
M  V30 3541 C 332.004 -0.321501 2.32387 0
M  V30 3542 C 333.02 -0.991755 1.42969 0
M  V30 3543 O 334.196 -0.978747 1.76018 0
M  V30 3544 C 331.261 -1.38667 3.17762 0
M  V30 3545 C 330.322 -0.732538 4.23004 0
M  V30 3546 C 329.555 -1.74695 5.04299 0
M  V30 3547 O 329.778 -2.97399 4.86734 0
M  V30 3548 O 328.712 -1.31631 5.8733 0
M  V30 3549 H 332.538 0.350071 3.01676 0
M  V30 3550 H 330.123 0.237321 1.47503 0
M  V30 3551 H 332.005 -2.00354 3.70724 0
M  V30 3552 H 330.68 -2.04163 2.51196 0
M  V30 3553 H 329.587 -0.0765902 3.74022 0
M  V30 3554 H 330.92 -0.120452 4.92053 0
M  V30 3555 N 332.573 -1.56217 0.208337 0
M  V30 3556 C 333.483 -2.23316 -0.718836 0
M  V30 3557 C 334.499 -1.23648 -1.22422 0
M  V30 3558 O 335.675 -1.56423 -1.26861 0
M  V30 3559 C 332.74 -2.88968 -1.91568 0
M  V30 3560 C 331.801 -4.03943 -1.45357 0
M  V30 3561 C 331.034 -4.66455 -2.59337 0
M  V30 3562 O 331.257 -4.27919 -3.77149 0
M  V30 3563 O 330.191 -5.55686 -2.31293 0
M  V30 3564 H 334.017 -3.03182 -0.177315 0
M  V30 3565 H 331.602 -1.49384 -0.0215402 0
M  V30 3566 H 333.484 -3.30455 -2.61491 0
M  V30 3567 H 332.159 -2.12071 -2.44556 0
M  V30 3568 H 331.066 -3.67052 -0.722746 0
M  V30 3569 H 332.399 -4.82543 -0.970219 0
M  V30 3570 N 334.051 0.0651679 -1.57465 0
M  V30 3571 C 335.298 0.763063 -1.87573 0
M  V30 3572 C 335.626 1.77242 -0.800961 0
M  V30 3573 O 334.881 1.94651 0.202316 0
M  V30 3574 C 335.18 1.50081 -3.24362 0
M  V30 3575 C 334.846 0.630816 -4.46466 0
M  V30 3576 C 333.508 0.391082 -4.79608 0
M  V30 3577 C 335.86 0.0279465 -5.21193 0
M  V30 3578 C 333.188 -0.460894 -5.84887 0
M  V30 3579 C 335.54 -0.811522 -6.27373 0
M  V30 3580 C 334.204 -1.06106 -6.59013 0
M  V30 3581 H 333.474 0.279224 -0.686378 0
M  V30 3582 H 336.121 0.0236726 -1.91485 0
M  V30 3583 H 334.426 2.31258 -3.16271 0
M  V30 3584 H 336.123 2.04571 -3.44894 0
M  V30 3585 H 332.713 0.8278 -4.2053 0
M  V30 3586 H 336.897 0.200262 -4.95896 0
M  V30 3587 H 332.153 -0.662907 -6.07796 0
M  V30 3588 H 336.327 -1.28537 -6.84435 0
M  V30 3589 H 333.954 -1.723 -7.40417 0
M  V30 3590 N 335.529 1.53961 0.336706 0
M  V30 3591 C 336.461 1.78751 1.4346 0
M  V30 3592 C 337.474 0.669019 1.48418 0
M  V30 3593 O 338.663 0.945884 1.51378 0
M  V30 3594 C 335.763 1.87844 2.82078 0
M  V30 3595 C 334.936 3.17854 3.00479 0
M  V30 3596 C 333.995 3.17816 4.19379 0
M  V30 3597 O 333.021 3.91511 4.13168 0
M  V30 3598 N 334.223 2.40669 5.2826 0
M  V30 3599 H 336.988 2.73493 1.22563 0
M  V30 3600 H 334.549 1.53096 0.526625 0
M  V30 3601 H 336.541 1.85261 3.59806 0
M  V30 3602 H 335.111 1.00257 2.96086 0
M  V30 3603 H 334.331 3.33504 2.10163 0
M  V30 3604 H 335.619 4.03718 3.0966 0
M  V30 3605 H 335.017 1.8036 5.36178 0
M  V30 3606 H 333.574 2.43877 6.04456 0
M  V30 3607 N 337.007 -0.598083 1.45811 0
M  V30 3608 C 338.255 -1.35413 1.50026 0
M  V30 3609 C 338.576 -1.94444 0.147177 0
M  V30 3610 O 337.846 -1.77701 -0.824571 0
M  V30 3611 H 336.426 -0.502727 0.552517 0
M  V30 3612 H 339.088 -0.701606 1.81834 0
M  V30 3613 H 338.184 -2.16871 2.2444 0
M  V30 3614 N 338.485 -1.33259 -0.841409 0
M  V30 3615 C 339.395 -1.25332 -1.98316 0
M  V30 3616 C 340.411 -0.164364 -1.73222 0
M  V30 3617 O 341.587 -0.387486 -1.97637 0
M  V30 3618 C 338.652 -0.990078 -3.32262 0
M  V30 3619 C 337.713 -2.16879 -3.70489 0
M  V30 3620 C 336.946 -1.91801 -4.98044 0
M  V30 3621 O 337.169 -0.867075 -5.63771 0
M  V30 3622 O 336.103 -2.78267 -5.33714 0
M  V30 3623 H 339.929 -2.21344 -2.07944 0
M  V30 3624 H 337.514 -1.1328 -0.974058 0
M  V30 3625 H 339.396 -0.860321 -4.12524 0
M  V30 3626 H 338.071 -0.0602155 -3.23644 0
M  V30 3627 H 336.978 -2.35407 -2.90748 0
M  V30 3628 H 338.311 -3.0819 -3.8377 0
M  V30 3629 N 339.963 1.05934 -1.16686 0
M  V30 3630 C 341.209 1.79211 -0.962023 0
M  V30 3631 C 341.564 1.85667 0.504545 0
M  V30 3632 O 340.857 1.33991 1.36956 0
M  V30 3633 C 341.051 3.23105 -1.52767 0
M  V30 3634 C 340.88 3.30673 -3.04771 0
M  V30 3635 C 339.65 3.40395 -3.73442 0
M  V30 3636 C 341.848 3.20234 -4.02436 0
M  V30 3637 N 339.83 3.37015 -5.13122 0
M  V30 3638 C 341.201 3.24138 -5.28521 0
M  V30 3639 C 343.256 3.04143 -3.9421 0
M  V30 3640 C 341.959 3.13607 -6.47336 0
M  V30 3641 C 343.985 2.94951 -5.12599 0
M  V30 3642 C 343.347 2.99481 -6.37566 0
M  V30 3643 H 339.446 0.668442 -0.405844 0
M  V30 3644 H 342.03 1.26341 -1.48142 0
M  V30 3645 H 340.201 3.74364 -1.03471 0
M  V30 3646 H 341.933 3.84579 -1.26021 0
M  V30 3647 H 338.688 3.45344 -3.2409 0
M  V30 3648 H 339.112 3.38815 -5.86117 0
M  V30 3649 H 343.754 2.99484 -2.98445 0
M  V30 3650 H 341.472 3.17022 -7.43319 0
M  V30 3651 H 345.058 2.83583 -5.08008 0
M  V30 3652 H 343.938 2.92431 -7.27636 0
M  V30 3653 N 341.441 0.965919 1.2453 0
M  V30 3654 C 342.669 0.644385 1.96609 0
M  V30 3655 C 343.084 -0.785823 1.71669 0
M  V30 3656 O 342.441 -1.52703 0.999399 0
M  V30 3657 C 342.492 0.907375 3.49927 0
M  V30 3658 O 342.213 2.28136 3.74013 0
M  V30 3659 C 343.714 0.599784 4.39224 0
M  V30 3660 H 340.934 0.240588 0.626385 0
M  V30 3661 H 343.478 1.29337 1.58405 0
M  V30 3662 H 341.633 0.304631 3.862 0
M  V30 3663 H 342.047 2.36002 4.68405 0
M  V30 3664 H 343.521 0.834263 5.45659 0
M  V30 3665 H 343.998 -0.465921 4.36722 0
M  V30 3666 H 344.604 1.18235 4.08535 0
M  V30 3667 N 342.919 -1.39368 0.735821 0
M  V30 3668 C 343.882 -2.2896 0.104874 0
M  V30 3669 C 344.882 -1.46347 -0.666274 0
M  V30 3670 O 346.072 -1.67014 -0.49517 0
M  V30 3671 C 343.204 -3.29857 -0.860656 0
M  V30 3672 H 344.397 -2.86259 0.894205 0
M  V30 3673 H 341.95 -1.48029 0.501704 0
M  V30 3674 H 342.685 -2.77615 -1.67631 0
M  V30 3675 H 342.47 -3.9087 -0.310327 0
M  V30 3676 H 343.96 -3.96893 -1.29867 0
M  V30 3677 N 344.397 -0.483516 -1.5 0
M  V30 3678 C 345.808 -0.0314176 -1.86674 0
M  V30 3679 C 346.159 1.37728 -1.39733 0
M  V30 3680 O 345.284 2.02327 -0.767635 0
M  V30 3681 C 345.879 -0.0502376 -3.38763 0
M  V30 3682 C 344.438 0.346442 -3.74802 0
M  V30 3683 C 343.585 -0.430366 -2.7394 0
M  V30 3684 H 346.536 -0.697182 -1.42566 0
M  V30 3685 H 346.557 0.749116 -3.73053 0
M  V30 3686 H 346.069 -1.07563 -3.72897 0
M  V30 3687 H 344.17 1.37572 -3.46273 0
M  V30 3688 H 344.283 0.0391486 -4.79084 0
M  V30 3689 H 342.647 0.117557 -2.54429 0
M  V30 3690 H 343.43 -1.4555 -3.10918 0
M  V30 3691 N 345.875 1.56104 -0.216619 0
M  V30 3692 C 346.838 2.18819 0.681962 0
M  V30 3693 C 347.838 1.14866 1.12528 0
M  V30 3694 O 349.028 1.40128 1.03488 0
M  V30 3695 C 346.16 2.80756 1.93362 0
M  V30 3696 H 347.353 2.99595 0.135254 0
M  V30 3697 H 344.906 1.56265 0.0330003 0
M  V30 3698 H 345.641 2.03837 2.52232 0
M  V30 3699 H 345.426 3.56876 1.62426 0
M  V30 3700 H 346.916 3.28844 2.57393 0
M  V30 3701 N 347.353 -0.0568162 1.57498 0
M  V30 3702 C 348.764 -0.606858 1.76562 0
M  V30 3703 C 349.115 -1.77114 0.844094 0
M  V30 3704 O 348.24 -2.16376 0.0318911 0
M  V30 3705 C 348.835 -1.10766 3.20182 0
M  V30 3706 C 347.394 -1.60344 3.40539 0
M  V30 3707 C 346.541 -0.529311 2.72201 0
M  V30 3708 H 349.492 0.169393 1.57793 0
M  V30 3709 H 349.513 -1.97602 3.25167 0
M  V30 3710 H 349.025 -0.26006 3.87228 0
M  V30 3711 H 347.126 -2.47379 2.78629 0
M  V30 3712 H 347.239 -1.67006 4.4905 0
M  V30 3713 H 345.603 -0.977893 2.35179 0
M  V30 3714 H 346.386 0.308352 3.41912 0
M  V30 3715 N 348.832 -1.54138 -0.328536 0
M  V30 3716 C 349.742 -1.86192 -1.42723 0
M  V30 3717 C 350.758 -0.753382 -1.56844 0
M  V30 3718 O 351.934 -1.04718 -1.72035 0
M  V30 3719 C 348.999 -2.07824 -2.77507 0
M  V30 3720 C 348.06 -3.31641 -2.72603 0
M  V30 3721 C 347.293 -3.52232 -4.00959 0
M  V30 3722 O 347.516 -2.7636 -4.9898 0
M  V30 3723 O 346.45 -4.45699 -4.0452 0
M  V30 3724 H 350.276 -2.79608 -1.18547 0
M  V30 3725 H 347.861 -1.3998 -0.522104 0
M  V30 3726 H 349.743 -2.23411 -3.57303 0
M  V30 3727 H 348.418 -1.17596 -3.01584 0
M  V30 3728 H 347.325 -3.21444 -1.91376 0
M  V30 3729 H 348.658 -4.2191 -2.53481 0
M  V30 3730 N 350.31 0.590341 -1.46126 0
M  V30 3731 C 351.557 1.34882 -1.5104 0
M  V30 3732 C 351.885 1.93849 -0.159021 0
M  V30 3733 O 351.14 1.76544 0.844436 0
M  V30 3734 C 351.439 2.5032 -2.55097 0
M  V30 3735 C 351.105 2.09394 -3.99331 0
M  V30 3736 C 349.767 1.97947 -4.38601 0
M  V30 3737 C 352.119 1.77712 -4.89967 0
M  V30 3738 C 349.447 1.53065 -5.66381 0
M  V30 3739 C 351.799 1.34312 -6.18177 0
M  V30 3740 C 350.463 1.21436 -6.56361 0
M  V30 3741 H 349.733 0.493568 -0.552695 0
M  V30 3742 H 352.38 0.665539 -1.79563 0
M  V30 3743 H 350.685 3.24062 -2.20207 0
M  V30 3744 H 352.382 3.08541 -2.56132 0
M  V30 3745 H 348.972 2.19235 -3.68285 0
M  V30 3746 H 353.156 1.85445 -4.60352 0
M  V30 3747 H 348.412 1.41733 -5.94745 0
M  V30 3748 H 352.586 1.08849 -6.87841 0
M  V30 3749 H 350.213 0.864345 -7.5527 0
M  V30 3750 N 351.788 1.33704 0.83433 0
M  V30 3751 C 353.016 1.28467 1.62185 0
M  V30 3752 C 353.431 -0.143526 1.88254 0
M  V30 3753 O 352.788 -1.08709 1.4659 0
M  V30 3754 C 352.839 2.06174 2.96942 0
M  V30 3755 O 352.56 3.43422 2.72016 0
M  V30 3756 C 354.061 2.08201 3.91366 0
M  V30 3757 H 351.281 0.4424 0.504503 0
M  V30 3758 H 353.825 1.76145 1.03891 0
M  V30 3759 H 351.98 1.62167 3.51825 0
M  V30 3760 H 352.394 3.83453 3.57861 0
M  V30 3761 H 353.868 2.67017 4.83121 0
M  V30 3762 H 354.345 1.07343 4.2588 0
M  V30 3763 H 354.951 2.52246 3.42421 0
M  V30 3764 N 353.266 -1.05314 1.17247 0
M  V30 3765 C 354.229 -2.112 0.890357 0
M  V30 3766 C 355.229 -1.60359 -0.118943 0
M  V30 3767 O 356.419 -1.73833 0.113086 0
M  V30 3768 C 353.551 -3.39266 0.333422 0
M  V30 3769 H 354.744 -2.37659 1.82916 0
M  V30 3770 H 352.297 -1.21538 0.982758 0
M  V30 3771 H 353.032 -3.18462 -0.612587 0
M  V30 3772 H 352.817 -3.77477 1.06082 0
M  V30 3773 H 354.307 -4.17315 0.154322 0
M  V30 3774 N 354.744 -0.972509 -1.24016 0
M  V30 3775 C 355.972 -0.654803 -1.96265 0
M  V30 3776 C 356.387 0.776708 -1.72083 0
M  V30 3777 O 355.744 1.52171 -1.00748 0
M  V30 3778 C 355.795 -0.92592 -3.49441 0
M  V30 3779 O 355.516 -2.30116 -3.72798 0
M  V30 3780 C 357.017 -0.623068 -4.38899 0
M  V30 3781 H 354.237 -0.243907 -0.6251 0
M  V30 3782 H 356.781 -1.30175 -1.57717 0
M  V30 3783 H 354.936 -0.325108 -3.86033 0
M  V30 3784 H 355.35 -2.38483 -4.67147 0
M  V30 3785 H 356.824 -0.863189 -5.45209 0
M  V30 3786 H 357.301 0.442754 -4.36963 0
M  V30 3787 H 357.907 -1.204 -4.07902 0
M  V30 3788 N 356.222 1.38976 -0.743202 0
M  V30 3789 C 357.154 2.29096 -0.0689228 0
M  V30 3790 C 358.167 1.47229 0.694791 0
M  V30 3791 O 359.356 1.70212 0.537597 0
M  V30 3792 C 356.456 3.25988 0.926548 0
M  V30 3793 C 355.629 4.36833 0.222647 0
M  V30 3794 C 354.688 5.13981 1.12739 0
M  V30 3795 O 353.714 5.6601 0.601795 0
M  V30 3796 N 354.916 5.25966 2.45641 0
M  V30 3797 H 357.681 2.87604 -0.842846 0
M  V30 3798 H 355.242 1.50645 -0.593109 0
M  V30 3799 H 357.234 3.74476 1.5346 0
M  V30 3800 H 355.804 2.68453 1.60162 0
M  V30 3801 H 355.024 3.90116 -0.565983 0
M  V30 3802 H 356.312 5.0811 -0.264841 0
M  V30 3803 H 355.71 4.85228 2.9081 0
M  V30 3804 H 354.267 5.77865 3.01522 0
M  V30 3805 N 357.7 0.491464 1.49741 0
M  V30 3806 C 359.111 0.0413169 1.86654 0
M  V30 3807 C 359.462 -1.36985 1.40462 0
M  V30 3808 O 358.587 -2.01917 0.778354 0
M  V30 3809 C 359.182 0.0682023 3.38731 0
M  V30 3810 C 357.741 -0.32656 3.74981 0
M  V30 3811 C 356.888 0.444888 2.73708 0
M  V30 3812 H 359.839 0.704733 1.42194 0
M  V30 3813 H 359.86 -0.729322 3.73445 0
M  V30 3814 H 359.372 1.09539 3.72321 0
M  V30 3815 H 357.473 -1.35734 3.46997 0
M  V30 3816 H 357.586 -0.013741 4.79098 0
M  V30 3817 H 355.95 -0.104062 2.54487 0
M  V30 3818 H 356.733 1.47197 3.10142 0
M  V30 3819 N 359.178 -1.55987 0.224894 0
M  V30 3820 C 360.088 -2.24066 -0.69511 0
M  V30 3821 C 361.104 -1.24939 -1.21104 0
M  V30 3822 O 362.28 -1.5776 -1.25195 0
M  V30 3823 C 359.345 -2.90983 -1.88493 0
M  V30 3824 C 358.406 -4.05462 -1.41064 0
M  V30 3825 C 357.639 -4.69179 -2.54375 0
M  V30 3826 O 357.862 -4.31895 -3.72589 0
M  V30 3827 O 356.796 -5.58108 -2.25386 0
M  V30 3828 H 360.622 -3.03353 -0.145149 0
M  V30 3829 H 358.207 -1.49399 -0.00569476 0
M  V30 3830 H 360.089 -3.33209 -2.57972 0
M  V30 3831 H 358.764 -2.14653 -2.42293 0
M  V30 3832 H 357.671 -3.67798 -0.683774 0
M  V30 3833 H 359.004 -4.83545 -0.918985 0
M  V30 3834 N 360.656 0.0484629 -1.57525 0
M  V30 3835 C 361.902 0.744226 -1.88651 0
M  V30 3836 C 362.235 1.76029 -0.820212 0
M  V30 3837 O 361.51 1.93782 0.166985 0
M  V30 3838 C 361.793 1.43128 -3.30434 0
M  V30 3839 C 361.646 0.43005 -4.47739 0
M  V30 3840 C 362.965 2.37031 -3.70816 0
M  V30 3841 H 360.084 0.269089 -0.68612 0
M  V30 3842 H 362.726 0.00713532 -1.89999 0
M  V30 3843 H 360.876 2.05956 -3.29415 0
M  V30 3844 H 362.548 -0.194816 -4.60888 0
M  V30 3845 H 360.791 -0.252522 -4.33064 0
M  V30 3846 H 361.462 0.948874 -5.43783 0
M  V30 3847 H 363.938 1.84263 -3.73077 0
M  V30 3848 H 362.814 2.82094 -4.70865 0
M  V30 3849 H 363.075 3.22864 -3.02012 0
M  V30 3850 N 362.134 1.5431 0.320358 0
M  V30 3851 C 363.097 1.83195 1.3774 0
M  V30 3852 C 364.097 0.703906 1.44575 0
M  V30 3853 O 365.287 0.972214 1.44546 0
M  V30 3854 C 362.419 1.99487 2.76438 0
M  V30 3855 H 363.612 2.77642 1.1338 0
M  V30 3856 H 361.165 1.46076 0.556012 0
M  V30 3857 H 361.9 1.07262 3.06048 0
M  V30 3858 H 361.685 2.81575 2.7287 0
M  V30 3859 H 363.175 2.23271 3.52902 0
M  V30 3860 N 363.613 -0.582584 1.46437 0
M  V30 3861 C 364.89 -1.34276 1.4223 0
M  V30 3862 C 365.27 -2.10835 0.10583 0
M  V30 3863 O 364.618 -2.09485 -0.912596 0
M  V30 3864 C 364.828 -2.26865 2.65204 0
M  V30 3865 C 366.176 -2.88691 3.11356 0
M  V30 3866 O 367.2 -2.37178 2.65753 0
M  V30 3867 O 366.059 -3.82255 3.90568 0
M  V30 3868 H 363.153 -0.603326 0.565621 0
M  V30 3869 H 365.699 -0.603591 1.58603 0
M  V30 3870 H 364.471 -1.69724 3.52576 0
M  V30 3871 H 364.094 -3.08122 2.5129 0
M  V30 3872 N 365.091 -1.34144 -0.827227 0
M  V30 3873 C 366.337 -1.27455 -1.58515 0
M  V30 3874 C 366.692 0.155271 -1.91772 0
M  V30 3875 O 365.985 1.10042 -1.56848 0
M  V30 3876 C 366.179 -2.09464 -2.89585 0
M  V30 3877 C 366.008 -3.60276 -2.69131 0
M  V30 3878 C 364.778 -4.29565 -2.66087 0
M  V30 3879 C 366.976 -4.54367 -2.40947 0
M  V30 3880 N 364.958 -5.66252 -2.37132 0
M  V30 3881 C 366.329 -5.79027 -2.21648 0
M  V30 3882 C 368.384 -4.43327 -2.26639 0
M  V30 3883 C 367.087 -6.93891 -1.89492 0
M  V30 3884 C 369.113 -5.58019 -1.95878 0
M  V30 3885 C 368.475 -6.81695 -1.774 0
M  V30 3886 H 364.574 -0.521614 -0.582617 0
M  V30 3887 H 367.158 -1.68811 -0.970105 0
M  V30 3888 H 365.329 -1.70411 -3.49019 0
M  V30 3889 H 367.061 -1.94453 -3.54923 0
M  V30 3890 H 363.816 -3.81959 -2.80008 0
M  V30 3891 H 364.24 -6.38338 -2.25507 0
M  V30 3892 H 368.882 -3.48333 -2.39633 0
M  V30 3893 H 366.6 -7.88871 -1.75236 0
M  V30 3894 H 370.186 -5.5142 -1.85546 0
M  V30 3895 H 369.066 -7.68942 -1.53941 0
M  V30 3896 N 366.569 1.04691 -1.17803 0
M  V30 3897 C 367.794 1.81984 -0.994813 0
M  V30 3898 C 368.219 1.82586 0.452112 0
M  V30 3899 O 367.577 1.23854 1.324 0
M  V30 3900 C 367.625 3.2575 -1.54659 0
M  V30 3901 O 366.729 4.05267 -0.763728 0
M  V30 3902 H 366.07 0.562483 -0.352857 0
M  V30 3903 H 368.6 1.3189 -1.56417 0
M  V30 3904 H 368.61 3.76541 -1.57102 0
M  V30 3905 H 367.285 3.24627 -2.59981 0
M  V30 3906 H 365.862 3.63972 -0.811108 0
M  V30 3907 N 368.047 0.979072 1.23499 0
M  V30 3908 C 368.957 0.526431 2.28617 0
M  V30 3909 C 369.973 -0.418126 1.68901 0
M  V30 3910 O 371.149 -0.288372 1.99325 0
M  V30 3911 C 368.214 -0.165235 3.46306 0
M  V30 3912 C 367.275 0.82056 4.21385 0
M  V30 3913 C 366.508 0.161807 5.33455 0
M  V30 3914 O 366.731 -1.04742 5.60701 0
M  V30 3915 O 365.665 0.859708 5.95729 0
M  V30 3916 H 369.491 1.4006 2.69475 0
M  V30 3917 H 367.076 0.746643 1.29405 0
M  V30 3918 H 368.958 -0.553287 4.17752 0
M  V30 3919 H 367.633 -1.01419 3.07402 0
M  V30 3920 H 366.54 1.25929 3.52268 0
M  V30 3921 H 367.873 1.63828 4.64135 0
M  V30 3922 N 369.525 -1.3858 0.750561 0
M  V30 3923 C 370.773 -1.99789 0.30477 0
M  V30 3924 C 371.094 -1.59874 -1.11649 0
M  V30 3925 O 370.364 -0.85417 -1.76297 0
M  V30 3926 H 368.944 -0.738902 0.109694 0
M  V30 3927 H 371.606 -1.69391 0.963983 0
M  V30 3928 H 370.702 -3.09952 0.365499 0
M  V30 3929 N 371.003 -0.499398 -1.49478 0
M  V30 3930 C 372.249 0.0457576 -2.02748 0
M  V30 3931 C 372.582 1.36793 -1.37846 0
M  V30 3932 O 371.857 1.87596 -0.513601 0
M  V30 3933 C 372.14 0.199986 -3.59544 0
M  V30 3934 C 371.993 -1.1452 -4.34977 0
M  V30 3935 C 373.312 0.94137 -4.29914 0
M  V30 3936 H 370.431 0.0151552 -0.736844 0
M  V30 3937 H 373.073 -0.650498 -1.78518 0
M  V30 3938 H 371.223 0.793007 -3.8032 0
M  V30 3939 H 372.895 -1.77697 -4.25701 0
M  V30 3940 H 371.138 -1.73488 -3.97598 0
M  V30 3941 H 371.809 -0.990607 -5.43039 0
M  V30 3942 H 374.285 0.43844 -4.13784 0
M  V30 3943 H 373.161 1.01812 -5.39375 0
M  V30 3944 H 373.422 1.98471 -3.95046 0
M  V30 3945 N 372.481 1.55866 -0.233164 0
M  V30 3946 C 373.413 2.18099 0.704668 0
M  V30 3947 C 374.426 1.15334 1.14899 0
M  V30 3948 O 375.615 1.42262 1.07814 0
M  V30 3949 C 372.715 2.7592 1.96777 0
M  V30 3950 C 371.888 4.03969 1.67713 0
M  V30 3951 C 370.947 4.46242 2.78845 0
M  V30 3952 O 369.973 5.12903 2.46818 0
M  V30 3953 N 371.175 4.12886 4.08051 0
M  V30 3954 H 373.94 2.99205 0.172258 0
M  V30 3955 H 371.501 1.61815 -0.0525945 0
M  V30 3956 H 373.493 3.01165 2.70337 0
M  V30 3957 H 372.063 1.99051 2.41034 0
M  V30 3958 H 371.283 3.86459 0.777391 0
M  V30 3959 H 372.571 4.8748 1.4574 0
M  V30 3960 H 371.969 3.59342 4.3691 0
M  V30 3961 H 370.526 4.42997 4.78118 0
M  V30 3962 N 373.959 -0.0401083 1.57549 0
M  V30 3963 C 375.205 -0.734211 1.89043 0
M  V30 3964 C 375.538 -1.75591 0.829535 0
M  V30 3965 O 374.813 -1.93868 -0.156706 0
M  V30 3966 C 375.096 -1.41374 3.31188 0
M  V30 3967 C 374.949 -0.406299 4.47961 0
M  V30 3968 C 376.268 -2.35061 3.72068 0
M  V30 3969 H 373.387 -0.265447 0.687537 0
M  V30 3970 H 376.029 0.00294087 1.9 0
M  V30 3971 H 374.179 -2.04206 3.30503 0
M  V30 3972 H 375.851 0.219255 4.60779 0
M  V30 3973 H 374.094 0.275485 4.32924 0
M  V30 3974 H 374.765 -0.920022 5.44279 0
M  V30 3975 H 377.241 -1.82282 3.74049 0
M  V30 3976 H 376.117 -2.79593 4.72355 0
M  V30 3977 H 376.378 -3.21258 3.0372 0
M  V30 3978 N 375.437 -1.54477 -0.31217 0
M  V30 3979 C 376.848 -1.64344 -0.885891 0
M  V30 3980 C 377.199 -0.54485 -1.88483 0
M  V30 3981 O 376.324 0.320387 -2.14015 0
M  V30 3982 C 376.919 -2.97908 -1.61357 0
M  V30 3983 C 375.478 -3.09933 -2.13585 0
M  V30 3984 C 374.625 -2.59971 -0.964897 0
M  V30 3985 H 377.576 -1.58448 -0.0894528 0
M  V30 3986 H 377.597 -2.88706 -2.47848 0
M  V30 3987 H 377.109 -3.77845 -0.886277 0
M  V30 3988 H 375.21 -2.34694 -2.89395 0
M  V30 3989 H 375.323 -4.15916 -2.37804 0
M  V30 3990 H 373.687 -2.16147 -1.34731 0
M  V30 3991 H 374.47 -3.42376 -0.251742 0
M  V30 3992 N 376.915 0.57481 -1.46744 0
M  V30 3993 C 378.14 1.36341 -1.56288 0
M  V30 3994 C 378.565 1.86954 -0.207347 0
M  V30 3995 O 377.923 1.62006 0.813871 0
M  V30 3996 C 377.971 2.52147 -2.57787 0
M  V30 3997 O 377.075 3.53834 -2.11838 0
M  V30 3998 H 376.416 0.405713 -0.525636 0
M  V30 3999 H 378.946 0.696453 -1.92382 0
M  V30 4000 H 378.956 2.98958 -2.77648 0
M  V30 4001 H 377.631 2.14663 -3.5622 0
M  V30 4002 H 376.208 3.1345 -2.01999 0
M  V30 4003 N 378.394 1.34581 0.820102 0
M  V30 4004 C 379.64 1.27285 1.57881 0
M  V30 4005 C 379.973 -0.156137 1.93571 0
M  V30 4006 O 379.248 -1.10222 1.60254 0
M  V30 4007 C 379.531 2.16639 2.87645 0
M  V30 4008 C 379.384 3.68088 2.58517 0
M  V30 4009 C 380.703 2.05378 3.8924 0
M  V30 4010 H 377.822 0.463714 0.572833 0
M  V30 4011 H 380.464 1.64859 0.944539 0
M  V30 4012 H 378.614 1.84725 3.41773 0
M  V30 4013 H 380.286 4.10382 2.10676 0
M  V30 4014 H 378.529 3.89038 1.91917 0
M  V30 4015 H 379.2 4.2598 3.51063 0
M  V30 4016 H 381.676 2.33404 3.44473 0
M  V30 4017 H 380.552 2.7012 4.77835 0
M  V30 4018 H 380.813 1.0316 4.29896 0
M  V30 4019 N 379.872 -1.04064 1.18357 0
M  V30 4020 C 381.283 -1.58719 0.98312 0
M  V30 4021 C 381.634 -1.90556 -0.467193 0
M  V30 4022 O 380.759 -1.69561 -1.34454 0
M  V30 4023 C 381.354 -2.88379 1.77828 0
M  V30 4024 C 379.913 -3.3965 1.62218 0
M  V30 4025 C 379.06 -2.13235 1.77274 0
M  V30 4026 H 382.011 -0.867359 1.32901 0
M  V30 4027 H 382.032 -3.58773 1.26737 0
M  V30 4028 H 381.544 -2.65176 2.83379 0
M  V30 4029 H 379.645 -3.67866 0.592036 0
M  V30 4030 H 379.758 -4.13475 2.42023 0
M  V30 4031 H 378.122 -2.24542 1.20221 0
M  V30 4032 H 378.905 -1.92487 2.8426 0
M  V30 4033 N 381.35 -0.985608 -1.22978 0
M  V30 4034 C 382.599 -0.652881 -1.90841 0
M  V30 4035 C 382.912 0.817842 -1.77681 0
M  V30 4036 O 384.118 1.26185 -2.40395 0
M  V30 4037 C 382.574 -1.11717 -3.42122 0
M  V30 4038 C 382.182 -2.6126 -3.63933 0
M  V30 4039 C 383.926 -0.85843 -4.1573 0
M  V30 4040 C 381.833 -3.0133 -5.08876 0
M  V30 4041 H 380.763 -0.240491 -0.714619 0
M  V30 4042 H 383.414 -1.1942 -1.39324 0
M  V30 4043 H 381.796 -0.504027 -3.92779 0
M  V30 4044 H 382.97 -3.27858 -3.23799 0
M  V30 4045 H 381.285 -2.84937 -3.03644 0
M  V30 4046 H 383.882 -1.13359 -5.22546 0
M  V30 4047 H 384.225 0.205461 -4.15793 0
M  V30 4048 H 384.758 -1.43341 -3.71077 0
M  V30 4049 H 381.497 -4.06864 -5.13947 0
M  V30 4050 H 381.017 -2.3943 -5.49939 0
M  V30 4051 H 382.696 -2.92224 -5.77247 0
M  V30 4052 N 382.828 1.3818 -0.7579 0
M  V30 4053 C 383.76 2.2901 -0.0932177 0
M  V30 4054 C 384.773 1.47958 0.679136 0
M  V30 4055 O 385.962 1.70773 0.519514 0
M  V30 4056 C 383.062 3.26953 0.89192 0
M  V30 4057 C 382.235 4.37045 0.176303 0
M  V30 4058 C 381.294 5.15148 1.07281 0
M  V30 4059 O 380.32 5.66616 0.541728 0
M  V30 4060 N 381.522 5.28542 2.40049 0
M  V30 4061 H 384.287 2.86694 -0.873303 0
M  V30 4062 H 381.848 1.50007 -0.609054 0
M  V30 4063 H 383.84 3.76083 1.49479 0
M  V30 4064 H 382.41 2.70136 1.57306 0
M  V30 4065 H 381.63 3.89493 -0.607328 0
M  V30 4066 H 382.918 5.07801 -0.318718 0
M  V30 4067 H 382.316 4.88285 2.85647 0
M  V30 4068 H 380.873 5.8103 2.95376 0
M  V30 4069 N 384.306 0.507319 1.49211 0
M  V30 4070 C 385.238 -0.304532 2.27168 0
M  V30 4071 C 386.251 -0.924956 1.33972 0
M  V30 4072 O 387.44 -0.807227 1.59205 0
M  V30 4073 C 384.54 -1.44431 3.06583 0
M  V30 4074 C 383.713 -0.930026 4.27398 0
M  V30 4075 C 382.772 -1.94817 4.88807 0
M  V30 4076 O 381.798 -1.51418 5.4869 0
M  V30 4077 N 383 -3.279 4.79022 0
M  V30 4078 H 385.765 0.36395 2.97482 0
M  V30 4079 H 383.326 0.340249 1.58284 0
M  V30 4080 H 385.318 -2.12311 3.44537 0
M  V30 4081 H 383.888 -2.01684 2.38835 0
M  V30 4082 H 383.108 -0.0759244 3.94127 0
M  V30 4083 H 384.396 -0.564932 5.05654 0
M  V30 4084 H 383.794 -3.65843 4.3148 0
M  V30 4085 H 382.351 -3.91476 5.21142 0
M  V30 4086 N 385.784 -1.5574 0.241426 0
M  V30 4087 C 387.031 -1.9881 -0.384836 0
M  V30 4088 C 387.359 -1.12947 -1.58346 0
M  V30 4089 O 386.614 -0.178993 -1.9488 0
M  V30 4090 C 386.913 -3.47308 -0.843317 0
M  V30 4091 C 386.579 -4.50223 0.246946 0
M  V30 4092 C 385.241 -4.78088 0.546399 0
M  V30 4093 C 387.593 -5.11841 0.983282 0
M  V30 4094 C 384.921 -5.64846 1.58636 0
M  V30 4095 C 387.273 -5.99727 2.01272 0
M  V30 4096 C 385.937 -6.25927 2.31888 0
M  V30 4097 H 385.207 -0.727496 -0.140821 0
M  V30 4098 H 387.854 -1.8831 0.348106 0
M  V30 4099 H 386.159 -3.55112 -1.65537 0
M  V30 4100 H 387.856 -3.78017 -1.33806 0
M  V30 4101 H 384.446 -4.286 0.00340639 0
M  V30 4102 H 388.63 -4.90366 0.765182 0
M  V30 4103 H 383.886 -5.83403 1.82896 0
M  V30 4104 H 388.06 -6.46517 2.58823 0
M  V30 4105 H 385.687 -6.92949 3.12611 0
M  V30 4106 N 387.262 0.0317525 -1.57568 0
M  V30 4107 C 388.673 0.578692 -1.77505 0
M  V30 4108 C 389.024 1.75749 -0.872164 0
M  V30 4109 O 388.149 2.16298 -0.0663106 0
M  V30 4110 C 388.744 1.05658 -3.21904 0
M  V30 4111 C 387.303 1.54906 -3.43047 0
M  V30 4112 C 386.45 0.485939 -2.73009 0
M  V30 4113 H 389.401 -0.194475 -1.57504 0
M  V30 4114 H 389.422 1.92404 -3.28269 0
M  V30 4115 H 388.934 0.198422 -3.87592 0
M  V30 4116 H 387.035 2.42915 -2.82529 0
M  V30 4117 H 387.148 1.59841 -4.5165 0
M  V30 4118 H 385.512 0.940354 -2.36705 0
M  V30 4119 H 386.295 -0.362709 -3.41379 0
M  V30 4120 N 388.74 1.54641 0.303973 0
M  V30 4121 C 389.968 1.77768 1.05858 0
M  V30 4122 C 390.383 0.535722 1.8104 0
M  V30 4123 O 389.74 -0.494337 1.75677 0
M  V30 4124 C 389.791 2.9834 2.04146 0
M  V30 4125 O 389.512 4.17736 1.32015 0
M  V30 4126 C 391.013 3.33832 2.91669 0
M  V30 4127 H 388.233 0.592961 0.314067 0
M  V30 4128 H 390.777 2.01583 0.344149 0
M  V30 4129 H 388.932 2.76742 2.71096 0
M  V30 4130 H 389.346 4.85693 1.97998 0
M  V30 4131 H 390.82 4.21448 3.56491 0
M  V30 4132 H 391.297 2.51857 3.59812 0
M  V30 4133 H 391.903 3.57579 2.30254 0
M  V30 4134 N 390.218 -0.567019 1.47046 0
M  V30 4135 C 391.128 -1.70247 1.6141 0
M  V30 4136 C 392.144 -1.66746 0.497157 0
M  V30 4137 O 393.32 -1.86371 0.763389 0
M  V30 4138 C 390.385 -3.06756 1.61561 0
M  V30 4139 C 389.446 -3.21399 2.84607 0
M  V30 4140 C 388.679 -4.51396 2.84741 0
M  V30 4141 O 388.902 -5.36255 1.94388 0
M  V30 4142 O 387.836 -4.69621 3.76483 0
M  V30 4143 H 391.662 -1.61073 2.57467 0
M  V30 4144 H 389.247 -0.735894 1.30019 0
M  V30 4145 H 391.129 -3.8801 1.64396 0
M  V30 4146 H 389.804 -3.16333 0.686684 0
M  V30 4147 H 388.711 -2.39579 2.8732 0
M  V30 4148 H 390.044 -3.16721 3.76761 0
M  V30 4149 N 391.696 -1.35014 -0.812953 0
M  V30 4150 C 392.973 -1.18502 -1.55617 0
M  V30 4151 C 393.353 0.238421 -2.09749 0
M  V30 4152 O 392.701 1.2411 -1.91857 0
M  V30 4153 C 392.911 -2.24783 -2.66971 0
M  V30 4154 C 394.259 -2.60268 -3.35478 0
M  V30 4155 O 395.283 -2.23648 -2.77236 0
M  V30 4156 O 394.142 -3.2321 -4.40678 0
M  V30 4157 H 391.236 -0.459984 -0.687272 0
M  V30 4158 H 393.782 -1.46677 -0.853464 0
M  V30 4159 H 392.554 -3.20284 -2.24798 0
M  V30 4160 H 392.177 -1.97841 -3.44884 0
M  V30 4161 N 393.175 1.03435 -1.18907 0
M  V30 4162 C 394.421 1.7713 -0.99982 0
M  V30 4163 C 394.776 1.86695 0.465049 0
M  V30 4164 O 394.069 1.36866 1.34083 0
M  V30 4165 C 394.263 3.19792 -1.59586 0
M  V30 4166 C 394.092 3.24134 -3.11717 0
M  V30 4167 C 392.862 3.32398 -3.80578 0
M  V30 4168 C 395.06 3.11625 -4.09138 0
M  V30 4169 N 393.042 3.26055 -5.20155 0
M  V30 4170 C 394.413 3.12855 -5.35277 0
M  V30 4171 C 396.468 2.95713 -4.00572 0
M  V30 4172 C 395.171 2.99805 -6.53842 0
M  V30 4173 C 397.197 2.84011 -5.1874 0
M  V30 4174 C 396.559 2.8589 -6.43775 0
M  V30 4175 H 392.658 0.659683 -0.419931 0
M  V30 4176 H 395.242 1.2317 -1.50789 0
M  V30 4177 H 393.413 3.72085 -1.11389 0
M  V30 4178 H 395.145 3.81819 -1.3415 0
M  V30 4179 H 391.9 3.38392 -3.31342 0
M  V30 4180 H 392.324 3.26307 -5.93172 0
M  V30 4181 H 396.966 2.93086 -3.0473 0
M  V30 4182 H 394.684 3.01184 -7.49876 0
M  V30 4183 H 398.27 2.72744 -5.13909 0
M  V30 4184 H 397.15 2.76931 -7.33675 0
M  V30 4185 N 394.653 0.992116 1.22453 0
M  V30 4186 C 395.878 0.685644 1.95739 0
M  V30 4187 C 396.303 -0.743 1.72804 0
M  V30 4188 O 395.661 -1.50778 1.00676 0
M  V30 4189 C 395.709 0.996293 3.46564 0
M  V30 4190 O 394.813 0.0945512 4.12292 0
M  V30 4191 H 394.154 0.256694 0.612376 0
M  V30 4192 H 396.684 1.32888 1.5557 0
M  V30 4193 H 396.694 0.93781 3.97076 0
M  V30 4194 H 395.369 2.03733 3.62582 0
M  V30 4195 H 393.946 0.208451 3.72317 0
M  V30 4196 N 396.131 -1.37776 0.765217 0
M  V30 4197 C 397.094 -2.28686 0.153416 0
M  V30 4198 C 398.094 -1.47727 -0.635081 0
M  V30 4199 O 399.284 -1.68027 -0.459632 0
M  V30 4200 C 396.416 -3.31608 -0.790495 0
M  V30 4201 H 397.609 -2.84297 0.954723 0
M  V30 4202 H 395.162 -1.46932 0.53299 0
M  V30 4203 H 395.897 -2.81109 -1.61705 0
M  V30 4204 H 395.682 -3.9144 -0.227348 0
M  V30 4205 H 397.172 -3.99559 -1.21419 0
M  V30 4206 N 397.609 -0.515225 -1.4894 0
M  V30 4207 C 398.541 0.292481 -2.27326 0
M  V30 4208 C 399.554 0.917838 -1.3446 0
M  V30 4209 O 400.743 0.798772 -1.5963 0
M  V30 4210 C 397.843 1.42803 -3.07344 0
M  V30 4211 C 397.016 0.907347 -4.27885 0
M  V30 4212 C 396.075 1.92222 -4.89834 0
M  V30 4213 O 395.101 1.48506 -5.49486 0
M  V30 4214 N 396.303 3.25355 -4.80754 0
M  V30 4215 H 399.068 -0.379721 -2.97285 0
M  V30 4216 H 396.629 -0.348638 -1.58102 0
M  V30 4217 H 398.621 2.10481 -3.45658 0
M  V30 4218 H 397.191 2.00414 -2.39902 0
M  V30 4219 H 396.411 0.0550218 -3.94162 0
M  V30 4220 H 397.699 0.538108 -5.05946 0
M  V30 4221 H 397.097 3.6355 -4.33414 0
M  V30 4222 H 395.654 3.88707 -5.23211 0
M  V30 4223 N 399.087 1.5561 -0.249682 0
M  V30 4224 C 400.498 1.84979 0.252949 0
M  V30 4225 C 400.849 1.17153 1.57384 0
M  V30 4226 O 399.974 0.450884 2.11651 0
M  V30 4227 C 400.569 3.35584 0.465732 0
M  V30 4228 C 399.128 3.65169 0.912624 0
M  V30 4229 C 398.275 2.77299 -0.00859085 0
M  V30 4230 H 401.226 1.51513 -0.47217 0
M  V30 4231 H 401.247 3.57313 1.30795 0
M  V30 4232 H 400.759 3.8492 -0.49579 0
M  V30 4233 H 398.86 3.21312 1.88652 0
M  V30 4234 H 398.973 4.72912 0.767559 0
M  V30 4235 H 397.337 2.49678 0.50327 0
M  V30 4236 H 398.12 3.29442 -0.965537 0
M  V30 4237 N 400.565 -0.0233959 1.57583 0
M  V30 4238 C 401.528 -1.00693 2.05897 0
M  V30 4239 C 402.528 -1.28693 0.964092 0
M  V30 4240 O 403.718 -1.23602 1.22753 0
M  V30 4241 C 400.85 -2.33825 2.4807 0
M  V30 4242 H 402.043 -0.589476 2.9405 0
M  V30 4243 H 399.596 -0.270354 1.53944 0
M  V30 4244 H 400.331 -2.80307 1.6309 0
M  V30 4245 H 400.116 -2.1483 3.2801 0
M  V30 4246 H 401.606 -3.04426 2.85857 0
M  V30 4247 N 402.043 -1.548 -0.295768 0
M  V30 4248 C 403.271 -1.78327 -1.04914 0
M  V30 4249 C 403.686 -0.545316 -1.80753 0
M  V30 4250 O 403.043 0.485013 -1.75937 0
M  V30 4251 C 403.094 -2.99418 -2.02561 0
M  V30 4252 O 402.815 -4.18431 -1.29798 0
M  V30 4253 C 404.316 -3.35375 -2.89895 0
M  V30 4254 H 401.536 -0.594618 -0.310918 0
M  V30 4255 H 404.08 -2.01763 -0.333454 0
M  V30 4256 H 402.235 -2.78175 -2.69624 0
M  V30 4257 H 402.649 -4.86736 -1.95419 0
M  V30 4258 H 404.123 -4.23332 -3.54251 0
M  V30 4259 H 404.6 -2.53761 -3.58472 0
M  V30 4260 H 405.206 -3.58796 -2.28355 0
M  V30 4261 N 403.521 0.559213 -1.47345 0
M  V30 4262 C 404.431 1.69388 -1.62311 0
M  V30 4263 C 405.447 1.6648 -0.505993 0
M  V30 4264 O 406.623 1.85964 -0.773262 0
M  V30 4265 C 403.688 3.05894 -1.63185 0
M  V30 4266 C 402.749 3.19885 -2.86307 0
M  V30 4267 C 401.982 4.49879 -2.87131 0
M  V30 4268 O 402.205 5.35217 -1.97229 0
M  V30 4269 O 401.139 4.67618 -3.78968 0
M  V30 4270 H 404.965 1.59706 -2.58317 0
M  V30 4271 H 402.55 0.728989 -1.30407 0
M  V30 4272 H 404.432 3.87133 -1.66451 0
M  V30 4273 H 403.107 3.15964 -0.70345 0
M  V30 4274 H 402.014 2.38052 -2.88587 0
M  V30 4275 H 403.347 3.14718 -3.78435 0
M  V30 4276 N 404.999 1.35443 0.805782 0
M  V30 4277 C 406.276 1.19325 1.54987 0
M  V30 4278 C 406.656 -0.227294 2.09873 0
M  V30 4279 O 406.004 -1.2309 1.92512 0
M  V30 4280 C 406.214 2.26196 2.65775 0
M  V30 4281 C 407.562 2.62043 3.34094 0
M  V30 4282 O 408.586 2.25115 2.76046 0
M  V30 4283 O 407.445 3.25542 4.38958 0
M  V30 4284 H 404.539 0.463623 0.684823 0
M  V30 4285 H 407.085 1.47127 0.845674 0
M  V30 4286 H 405.857 3.21471 2.23096 0
M  V30 4287 H 405.48 1.99667 3.43829 0
M  V30 4288 N 406.477 -1.02803 1.19454 0
M  V30 4289 C 407.723 -1.76598 1.0092 0
M  V30 4290 C 408.078 -1.86939 -0.455142 0
M  V30 4291 O 407.371 -1.37575 -1.33355 0
M  V30 4292 C 407.565 -3.18941 1.6128 0
M  V30 4293 C 407.394 -3.22476 3.13431 0
M  V30 4294 C 406.164 -3.30375 3.82336 0
M  V30 4295 C 408.362 -3.09451 4.10785 0
M  V30 4296 N 406.344 -3.23292 5.21877 0
M  V30 4297 C 407.715 -3.10012 5.36929 0
M  V30 4298 C 409.77 -2.93585 4.02135 0
M  V30 4299 C 408.473 -2.96334 6.55423 0
M  V30 4300 C 410.499 -2.81256 5.20239 0
M  V30 4301 C 409.861 -2.82472 6.45282 0
M  V30 4302 H 405.96 -0.657447 0.423424 0
M  V30 4303 H 408.544 -1.22369 1.5144 0
M  V30 4304 H 406.715 -3.71489 1.1336 0
M  V30 4305 H 408.447 -3.81102 1.36173 0
M  V30 4306 H 405.202 -3.3663 3.33132 0
M  V30 4307 H 405.626 -3.23156 5.94894 0
M  V30 4308 H 410.268 -2.91466 3.0628 0
M  V30 4309 H 407.986 -2.97203 7.51463 0
M  V30 4310 H 411.572 -2.70014 5.15348 0
M  V30 4311 H 410.452 -2.73036 7.35133 0
M  V30 4312 N 407.956 -0.998596 -1.21925 0
M  V30 4313 C 409.181 -0.696015 -1.95372 0
M  V30 4314 C 409.606 0.733826 -1.73195 0
M  V30 4315 O 408.964 1.50242 -1.01474 0
M  V30 4316 C 409.012 -1.01466 -3.4603 0
M  V30 4317 O 408.116 -0.116415 -4.12236 0
M  V30 4318 H 407.457 -0.259938 -0.611006 0
M  V30 4319 H 409.987 -1.33711 -1.54863 0
M  V30 4320 H 409.997 -0.958855 -3.96573 0
M  V30 4321 H 408.672 -2.05653 -3.61497 0
M  V30 4322 H 407.249 -0.228193 -3.72201 0
M  V30 4323 N 409.434 1.37368 -0.772513 0
M  V30 4324 C 410.397 2.28601 -0.165541 0
M  V30 4325 C 411.397 1.48062 0.627238 0
M  V30 4326 O 412.587 1.68268 0.450715 0
M  V30 4327 C 409.719 3.32023 0.772897 0
M  V30 4328 H 410.912 2.83787 -0.969787 0
M  V30 4329 H 408.465 1.46647 -0.540775 0
M  V30 4330 H 409.2 2.81962 1.60212 0
M  V30 4331 H 408.985 3.91555 0.206585 0
M  V30 4332 H 410.475 4.00197 1.19298 0
M  V30 4333 N 410.912 0.523116 1.48665 0
M  V30 4334 C 411.875 -0.232592 2.28017 0
M  V30 4335 C 412.875 -0.874021 1.34972 0
M  V30 4336 O 414.065 -0.735132 1.57929 0
M  V30 4337 C 411.197 -1.33586 3.13636 0
M  V30 4338 H 412.39 0.464008 2.96289 0
M  V30 4339 H 409.943 0.278816 1.53793 0
M  V30 4340 H 410.678 -2.06593 2.4998 0
M  V30 4341 H 410.463 -0.881125 3.82071 0
M  V30 4342 H 411.953 -1.86759 3.73511 0
M  V30 4343 N 412.39 -1.55475 0.257931 0
M  V30 4344 C 413.801 -1.8511 -0.243135 0
M  V30 4345 C 414.152 -1.17986 -1.5676 0
M  V30 4346 O 413.277 -0.462102 -2.11409 0
M  V30 4347 C 413.872 -3.35826 -0.447929 0
M  V30 4348 C 412.431 -3.65647 -0.893245 0
M  V30 4349 C 411.578 -2.7729 0.0232965 0
M  V30 4350 H 414.529 -1.51261 0.480199 0
M  V30 4351 H 414.55 -3.58002 -1.28898 0
M  V30 4352 H 414.062 -3.84652 0.516196 0
M  V30 4353 H 412.163 -3.22308 -1.86945 0
M  V30 4354 H 412.276 -4.73312 -0.742469 0
M  V30 4355 H 410.64 -2.49942 -0.490021 0
M  V30 4356 H 411.423 -3.28926 0.982994 0
M  V30 4357 N 413.868 0.0150385 -1.57593 0
M  V30 4358 C 415.096 0.714395 -1.94175 0
M  V30 4359 C 415.511 1.68135 -0.858841 0
M  V30 4360 O 414.868 1.81766 0.163567 0
M  V30 4361 C 414.919 1.45933 -3.30735 0
M  V30 4362 O 414.64 0.531167 -4.34868 0
M  V30 4363 C 416.141 2.25456 -3.81686 0
M  V30 4364 H 413.361 0.199923 -0.640525 0
M  V30 4365 H 415.905 -0.0316096 -2.04476 0
M  V30 4366 H 414.06 2.15709 -3.21789 0
M  V30 4367 H 414.474 1.05509 -5.13778 0
M  V30 4368 H 415.948 2.731 -4.79709 0
M  V30 4369 H 416.425 3.07485 -3.13607 0
M  V30 4370 H 417.031 1.60727 -3.9376 0
M  V30 4371 N 415.346 1.54954 0.287554 0
M  V30 4372 C 416.309 1.86076 1.33823 0
M  V30 4373 C 417.309 0.734414 1.43049 0
M  V30 4374 O 418.499 1.00266 1.42452 0
M  V30 4375 C 415.631 2.05305 2.72144 0
M  V30 4376 H 416.824 2.79984 1.07465 0
M  V30 4377 H 414.377 1.47223 0.524902 0
M  V30 4378 H 415.112 1.1373 3.03704 0
M  V30 4379 H 414.897 2.873 2.66836 0
M  V30 4380 H 416.387 2.30706 3.48087 0
M  V30 4381 N 416.824 -0.551391 1.4764 0
M  V30 4382 C 417.756 -1.67333 1.56628 0
M  V30 4383 C 418.769 -1.56398 0.452045 0
M  V30 4384 O 419.958 -1.6325 0.721926 0
M  V30 4385 C 417.058 -3.05841 1.45994 0
M  V30 4386 C 416.231 -3.42472 2.72088 0
M  V30 4387 C 415.29 -4.60168 2.55209 0
M  V30 4388 O 414.316 -4.64458 3.2904 0
M  V30 4389 N 415.518 -5.57024 1.63416 0
M  V30 4390 H 418.283 -1.60066 2.53375 0
M  V30 4391 H 415.844 -0.738169 1.44093 0
M  V30 4392 H 417.836 -3.8242 1.32428 0
M  V30 4393 H 416.406 -3.07302 0.573071 0
M  V30 4394 H 415.626 -2.55284 3.00373 0
M  V30 4395 H 416.914 -3.63723 3.55785 0
M  V30 4396 H 416.312 -5.56319 1.02594 0
M  V30 4397 H 414.869 -6.32906 1.558 0
M  V30 4398 N 418.302 -1.35869 -0.798587 0
M  V30 4399 C 419.265 -1.29307 -1.89242 0
M  V30 4400 C 420.265 -0.202747 -1.59517 0
M  V30 4401 O 421.455 -0.456957 -1.681 0
M  V30 4402 C 418.587 -1.00229 -3.25833 0
M  V30 4403 H 419.78 -2.26576 -1.96478 0
M  V30 4404 H 417.333 -1.20509 -0.995358 0
M  V30 4405 H 418.068 -0.033801 -3.24282 0
M  V30 4406 H 417.853 -1.79121 -3.48795 0
M  V30 4407 H 419.343 -0.98219 -4.05885 0
M  V30 4408 N 419.78 1.02168 -1.19998 0
M  V30 4409 C 421.008 1.79296 -1.03249 0
M  V30 4410 C 421.423 1.84103 0.418502 0
M  V30 4411 O 420.78 1.29031 1.29063 0
M  V30 4412 C 420.831 3.24007 -1.60319 0
M  V30 4413 O 420.552 3.19512 -2.99739 0
M  V30 4414 C 422.053 4.17704 -1.48453 0
M  V30 4415 H 419.273 0.564016 -0.363493 0
M  V30 4416 H 421.817 1.28639 -1.58973 0
M  V30 4417 H 419.972 3.7183 -1.08727 0
M  V30 4418 H 420.386 4.10306 -3.26725 0
M  V30 4419 H 421.86 5.17104 -1.93153 0
M  V30 4420 H 422.337 4.37029 -0.436193 0
M  V30 4421 H 422.943 3.7576 -1.99211 0
M  V30 4422 N 421.258 1.00505 1.21394 0
M  V30 4423 C 422.168 0.574806 2.27449 0
M  V30 4424 C 423.184 -0.382206 1.6975 0
M  V30 4425 O 424.36 -0.246027 1.99892 0
M  V30 4426 C 421.425 -0.0917414 3.46579 0
M  V30 4427 C 420.486 0.909758 4.1955 0
M  V30 4428 C 419.719 0.274924 5.32991 0
M  V30 4429 O 419.942 -0.928254 5.62796 0
M  V30 4430 O 418.876 0.985877 5.93771 0
M  V30 4431 H 422.702 1.45744 2.66444 0
M  V30 4432 H 420.287 0.773923 1.27792 0
M  V30 4433 H 422.169 -0.464551 4.18832 0
M  V30 4434 H 420.844 -0.948755 3.09484 0
M  V30 4435 H 419.751 1.33372 3.49518 0
M  V30 4436 H 421.084 1.73636 4.60555 0
M  V30 4437 N 422.737 -1.36956 0.779787 0
M  V30 4438 C 423.983 -2.00237 0.357324 0
M  V30 4439 C 424.338 -1.60787 -1.05666 0
M  V30 4440 O 423.631 -0.847836 -1.71821 0
M  V30 4441 C 423.825 -3.54585 0.447686 0
M  V30 4442 C 423.654 -4.09025 1.86891 0
M  V30 4443 C 422.424 -4.39612 2.49138 0
M  V30 4444 C 424.622 -4.29461 2.82963 0
M  V30 4445 N 422.604 -4.79816 3.82949 0
M  V30 4446 C 423.975 -4.72363 4.01588 0
M  V30 4447 C 426.03 -4.1161 2.80145 0
M  V30 4448 C 424.733 -4.99284 5.17791 0
M  V30 4449 C 426.759 -4.39672 3.95528 0
M  V30 4450 C 426.121 -4.82822 5.12896 0
M  V30 4451 H 422.22 -0.76148 0.177968 0
M  V30 4452 H 424.804 -1.6613 1.01533 0
M  V30 4453 H 422.975 -3.87982 -0.180184 0
M  V30 4454 H 424.707 -4.047 0.0023955 0
M  V30 4455 H 421.462 -4.28975 2.00693 0
M  V30 4456 H 421.886 -5.04216 4.51769 0
M  V30 4457 H 426.528 -3.77415 1.90572 0
M  V30 4458 H 424.246 -5.32365 6.07958 0
M  V30 4459 H 427.832 -4.27441 3.94697 0
M  V30 4460 H 426.712 -5.04118 6.00695 0
M  V30 4461 N 424.215 -0.530993 -1.48385 0
M  V30 4462 C 425.461 0.00274135 -2.028 0
M  V30 4463 C 425.794 1.33838 -1.40716 0
M  V30 4464 O 425.069 1.86465 -0.553277 0
M  V30 4465 C 425.352 0.123676 -3.59888 0
M  V30 4466 C 425.205 -1.2372 -4.3245 0
M  V30 4467 C 426.524 0.849967 -4.31814 0
M  V30 4468 H 423.643 -0.000477758 -0.737 0
M  V30 4469 H 426.285 -0.688217 -1.77098 0
M  V30 4470 H 424.435 0.712157 -3.81917 0
M  V30 4471 H 426.107 -1.86687 -4.21836 0
M  V30 4472 H 424.35 -1.81882 -3.93829 0
M  V30 4473 H 425.021 -1.10557 -5.40815 0
M  V30 4474 H 427.497 0.350572 -4.14621 0
M  V30 4475 H 426.373 0.903486 -5.41413 0
M  V30 4476 H 426.634 1.90047 -3.99167 0
M  V30 4477 N 425.693 1.55336 -0.266172 0
M  V30 4478 C 426.941 1.99003 0.35246 0
M  V30 4479 C 427.262 1.15591 1.57047 0
M  V30 4480 O 426.532 0.243268 1.94384 0
M  V30 4481 H 425.112 0.735025 0.133217 0
M  V30 4482 H 427.774 1.91367 -0.369434 0
M  V30 4483 H 426.87 3.05289 0.648453 0
M  V30 4484 N 427.171 -0.0066808 1.57599 0
M  V30 4485 C 428.134 -0.985035 2.06953 0
M  V30 4486 C 429.134 -1.27663 0.977687 0
M  V30 4487 O 430.324 -1.22293 1.24057 0
M  V30 4488 C 427.456 -2.3118 2.50536 0
M  V30 4489 H 428.649 -0.558255 2.94658 0
M  V30 4490 H 426.202 -0.254011 1.54222 0
M  V30 4491 H 426.937 -2.78561 1.66054 0
M  V30 4492 H 426.722 -2.11338 3.3027 0
M  V30 4493 H 428.212 -3.01377 2.8907 0
M  V30 4494 N 428.649 -1.55105 -0.279332 0
M  V30 4495 C 429.877 -1.7943 -1.03017 0
M  V30 4496 C 430.292 -0.564456 -1.80165 0
M  V30 4497 O 429.649 0.466326 -1.76442 0
M  V30 4498 C 429.7 -3.0155 -1.99374 0
M  V30 4499 O 429.421 -4.19784 -1.25352 0
M  V30 4500 C 430.922 -3.3843 -2.86321 0
M  V30 4501 H 428.142 -0.597882 -0.304594 0
M  V30 4502 H 430.686 -2.02105 -0.312035 0
M  V30 4503 H 428.841 -2.81019 -2.66659 0
M  V30 4504 H 429.255 -4.88781 -1.90246 0
M  V30 4505 H 430.729 -4.27066 -3.49741 0
M  V30 4506 H 431.206 -2.57549 -3.5576 0
M  V30 4507 H 431.812 -3.61197 -2.24536 0
M  V30 4508 N 430.127 0.543554 -1.4793 0
M  V30 4509 C 431.355 1.32516 -1.58894 0
M  V30 4510 C 431.77 1.87215 -0.244131 0
M  V30 4511 O 431.127 1.65709 0.764652 0
M  V30 4512 C 431.178 2.48554 -2.62494 0
M  V30 4513 O 430.899 1.96112 -3.91755 0
M  V30 4514 C 432.4 3.40572 -2.8377 0
M  V30 4515 H 429.62 0.403472 -0.536145 0
M  V30 4516 H 432.164 0.657106 -1.93655 0
M  V30 4517 H 430.319 3.1127 -2.30629 0
M  V30 4518 H 430.733 2.71967 -4.4848 0
M  V30 4519 H 432.207 4.18375 -3.60093 0
M  V30 4520 H 432.684 3.94965 -1.92092 0
M  V30 4521 H 433.29 2.8366 -3.16887 0
M  V30 4522 N 431.605 1.3629 0.791371 0
M  V30 4523 C 432.882 1.20962 1.53712 0
M  V30 4524 C 433.262 -0.205021 2.10102 0
M  V30 4525 O 432.61 -1.21042 1.93807 0
M  V30 4526 C 432.82 2.29002 2.63361 0
M  V30 4527 C 434.168 2.65572 3.31295 0
M  V30 4528 O 435.192 2.2803 2.73643 0
M  V30 4529 O 434.051 3.3018 4.35481 0
M  V30 4530 H 431.145 0.47086 0.679867 0
M  V30 4531 H 433.691 1.48016 0.830021 0
M  V30 4532 H 432.463 3.2382 2.19674 0
M  V30 4533 H 432.086 2.03303 3.41692 0
M  V30 4534 N 433.083 -1.0153 1.20538 0
M  V30 4535 C 434.329 -1.75517 1.02787 0
M  V30 4536 C 434.684 -1.87411 -0.435289 0
M  V30 4537 O 433.977 -1.38982 -1.31889 0
M  V30 4538 C 434.171 -3.17213 1.64654 0
M  V30 4539 C 434 -3.19134 3.16834 0
M  V30 4540 C 432.77 -3.26301 3.85818 0
M  V30 4541 C 434.968 -3.05077 4.14044 0
M  V30 4542 N 432.95 -3.17739 5.25276 0
M  V30 4543 C 434.321 -3.04299 5.40187 0
M  V30 4544 C 436.376 -2.89303 4.05226 0
M  V30 4545 C 435.079 -2.89365 6.58529 0
M  V30 4546 C 437.105 -2.75723 5.23193 0
M  V30 4547 C 436.467 -2.75612 6.48242 0
M  V30 4548 H 432.566 -0.652919 0.430373 0
M  V30 4549 H 435.15 -1.20755 1.52729 0
M  V30 4550 H 433.321 -3.70266 1.17294 0
M  V30 4551 H 435.053 -3.79637 1.40208 0
M  V30 4552 H 431.808 -3.33078 3.36684 0
M  V30 4553 H 432.232 -3.16829 5.98288 0
M  V30 4554 H 436.874 -2.88201 3.09354 0
M  V30 4555 H 434.592 -2.89216 7.54573 0
M  V30 4556 H 438.178 -2.64533 5.18183 0
M  V30 4557 H 437.058 -2.65224 7.37988 0
M  V30 4558 N 434.561 -1.01147 -1.20859 0
M  V30 4559 C 435.786 -0.716698 -1.94623 0
M  V30 4560 C 436.211 0.715415 -1.73964 0
M  V30 4561 O 435.569 1.49157 -1.03062 0
M  V30 4562 C 435.617 -1.0513 -3.44935 0
M  V30 4563 O 434.721 -0.160131 -4.12089 0
M  V30 4564 H 434.062 -0.266404 -0.608214 0
M  V30 4565 H 436.592 -1.35346 -1.53436 0
M  V30 4566 H 436.602 -1.00086 -3.95533 0
M  V30 4567 H 435.277 -2.09475 -3.59295 0
M  V30 4568 H 433.854 -0.267657 -3.71938 0
M  V30 4569 O 436.078 1.32499 -0.923373 0
M  V30 4570 H 436.769 1.85906 -0.543924 0
M  V30 END ATOM
M  V30 BEGIN BOND
M  V30 END BOND
M  V30 END CTAB
M  END
$$$$
