drugbank_target|P08877 Phosphocarrier protein HPr (DB01899)
 OpenBabel12092119533D

  0  0  0     0  0            999 V3000
M  V30 BEGIN CTAB
M  V30 COUNTS 1286 1290 0 0 0
M  V30 BEGIN ATOM
M  V30 1 H -0.908 1.98254 -0.117106 0
M  V30 2 N 0 1.576 0 0
M  V30 3 C 0.933 2.03868 1.02534 0
M  V30 4 C 1.911 0.928543 1.3348 0
M  V30 5 O 3.095 1.19667 1.45644 0
M  V30 6 C 0.222 2.43627 2.35294 0
M  V30 7 C -0.732 3.65373 2.2001 0
M  V30 8 S 0.101 5.13292 1.52614 0
M  V30 9 C 1.257 5.56322 2.86805 0
M  V30 10 H 1.49 2.90518 0.631377 0
M  V30 11 H -0.977 1.52953 0.210867 0
M  V30 12 H 0.981 2.67203 3.11629 0
M  V30 13 H -0.358 1.57376 2.7183 0
M  V30 14 H -1.165 3.90944 3.18086 0
M  V30 15 H -1.563 3.418 1.51819 0
M  V30 16 H 0.729 5.58782 3.83104 0
M  V30 17 H 1.672 6.56266 2.65933 0
M  V30 18 H 2.08 4.83886 2.90714 0
M  V30 19 N 1.4781 -0.272755 1.55222 0
M  V30 20 C 2.4411 -1.32041 1.87344 0
M  V30 21 C 3.4411 -1.42342 0.74803 0
M  V30 22 O 4.6311 -1.41488 1.0162 0
M  V30 23 C 1.7631 -2.70173 2.07893 0
M  V30 24 H 2.9561 -1.04789 2.80997 0
M  V30 25 H 0.5091 -0.51083 1.47717 0
M  V30 26 H 1.2441 -3.02605 1.16622 0
M  V30 27 H 1.0291 -2.64082 2.89833 0
M  V30 28 H 2.5191 -3.45869 2.34017 0
M  V30 29 N 2.9562 -1.48159 -0.537278 0
M  V30 30 C 3.8882 -1.58218 -1.65831 0
M  V30 31 C 4.9012 -0.466948 -1.5596 0
M  V30 32 O 6.0902 -0.73747 -1.62553 0
M  V30 33 C 3.1902 -1.48906 -3.04434 0
M  V30 34 C 2.3632 -2.75343 -3.3986 0
M  V30 35 C 1.4222 -2.59588 -4.57712 0
M  V30 36 O 0.4482 -3.33457 -4.61297 0
M  V30 37 N 1.6502 -1.68724 -5.55439 0
M  V30 38 H 4.4152 -2.54891 -1.57641 0
M  V30 39 H 1.9762 -1.4479 -0.724386 0
M  V30 40 H 3.9682 -1.36072 -3.81139 0
M  V30 41 H 2.5382 -0.602368 -3.06741 0
M  V30 42 H 1.7582 -3.02795 -2.52406 0
M  V30 43 H 3.0462 -3.5924 -3.60311 0
M  V30 44 H 2.4442 -1.07898 -5.55315 0
M  V30 45 H 1.0012 -1.61832 -6.3139 0
M  V30 46 N 4.4343 0.785586 -1.36625 0
M  V30 47 C 5.3813 1.89838 -1.31264 0
M  V30 48 C 6.3513 1.65115 -0.180633 0
M  V30 49 O 7.5363 1.87222 -0.36777 0
M  V30 50 C 4.6763 3.26706 -1.11163 0
M  V30 51 C 3.7893 3.63476 -2.33472 0
M  V30 52 C 2.9243 4.89481 -2.06353 0
M  V30 53 C 1.9633 5.18941 -3.24602 0
M  V30 54 N 1.1003 6.36131 -2.97123 0
M  V30 55 H 5.9403 1.93756 -2.26413 0
M  V30 56 H 3.4773 0.947454 -1.12524 0
M  V30 57 H 5.4353 4.05639 -0.975337 0
M  V30 58 H 4.0653 3.222 -0.196674 0
M  V30 59 H 3.1173 2.79636 -2.57891 0
M  V30 60 H 4.4293 3.81193 -3.21704 0
M  V30 61 H 3.5833 5.76288 -1.89675 0
M  V30 62 H 2.3223 4.73841 -1.15437 0
M  V30 63 H 1.3273 4.30615 -3.41834 0
M  V30 64 H 2.5523 5.36498 -4.16349 0
M  V30 65 H 0.4983 6.21875 -2.08823 0
M  V30 66 H 0.4153 6.54198 -3.78894 0
M  V30 67 H 1.6833 7.2591 -2.84033 0
M  V30 68 N 5.9124 1.20967 1.01018 0
M  V30 69 C 7.1404 1.04956 1.78303 0
M  V30 70 C 7.5554 -0.400915 1.84494 0
M  V30 71 O 6.9124 -1.27826 1.30257 0
M  V30 72 C 6.9634 1.63403 3.22462 0
M  V30 73 O 6.6844 3.02775 3.16637 0
M  V30 74 C 8.1854 1.52432 4.16268 0
M  V30 75 H 5.4054 0.368858 0.560522 0
M  V30 76 H 7.9494 1.60193 1.27116 0
M  V30 77 H 6.1044 1.1227 3.70775 0
M  V30 78 H 6.5184 3.30626 4.07169 0
M  V30 79 H 7.9924 1.98078 5.15237 0
M  V30 80 H 8.4694 0.477875 4.36592 0
M  V30 81 H 9.0754 2.02787 3.73841 0
M  V30 82 N 7.3905 -1.2043 1.01659 0
M  V30 83 C 8.6375 -1.89797 0.705917 0
M  V30 84 C 8.9655 -1.78848 -0.764439 0
M  V30 85 O 8.2205 -1.16694 -1.57102 0
M  V30 86 C 8.5195 -3.40464 1.08714 0
M  V30 87 C 8.1855 -3.71614 2.5537 0
M  V30 88 C 6.8475 -3.79826 2.95441 0
M  V30 89 C 9.1995 -3.85915 3.50313 0
M  V30 90 C 6.5275 -3.99797 4.29394 0
M  V30 91 C 8.8795 -4.07396 4.83954 0
M  V30 92 C 7.5435 -4.13837 5.23732 0
M  V30 93 H 6.8135 -0.694518 0.258313 0
M  V30 94 H 9.4605 -1.42691 1.27717 0
M  V30 95 H 7.7655 -3.89385 0.434309 0
M  V30 96 H 9.4625 -3.92433 0.824461 0
M  V30 97 H 6.0525 -3.65822 2.23321 0
M  V30 98 H 10.2365 -3.78926 3.20513 0
M  V30 99 H 5.4925 -4.03018 4.59768 0
M  V30 100 H 9.6665 -4.17404 5.57447 0
M  V30 101 H 7.2935 -4.29064 6.27541 0
M  V30 102 N 8.8686 -0.792821 -1.36206 0
M  V30 103 C 9.8156 -0.191653 -2.30003 0
M  V30 104 C 10.7856 0.666453 -1.52143 0
M  V30 105 O 11.9706 0.61442 -1.80636 0
M  V30 106 C 9.1106 0.664848 -3.38635 0
M  V30 107 C 8.2236 -0.212175 -4.31479 0
M  V30 108 C 7.3586 0.651022 -5.27196 0
M  V30 109 C 6.3976 -0.227247 -6.11678 0
M  V30 110 N 5.5346 0.595127 -6.99573 0
M  V30 111 H 10.3746 -0.996978 -2.80828 0
M  V30 112 H 7.9116 -0.503206 -1.38225 0
M  V30 113 H 9.8696 1.17645 -4.00269 0
M  V30 114 H 8.4996 1.43557 -2.89122 0
M  V30 115 H 7.5516 -0.841777 -3.70969 0
M  V30 116 H 8.8636 -0.888751 -4.90818 0
M  V30 117 H 8.0176 1.2283 -5.94136 0
M  V30 118 H 6.7566 1.36121 -4.68319 0
M  V30 119 H 5.7616 -0.816904 -5.43697 0
M  V30 120 H 6.9866 -0.93509 -6.72631 0
M  V30 121 H 4.9326 1.28955 -6.432 0
M  V30 122 H 4.8496 -0.0236952 -7.55996 0
M  V30 123 H 6.1176 1.15613 -7.70879 0
M  V30 124 N 10.3467 1.47872 -0.545128 0
M  V30 125 C 11.5927 2.02793 -0.0166104 0
M  V30 126 C 11.9257 1.41987 1.32489 0
M  V30 127 O 11.2007 0.571045 1.85928 0
M  V30 128 C 11.4837 3.59989 0.0893294 0
M  V30 129 C 11.3367 4.3125 -1.27841 0
M  V30 130 C 12.6557 4.32606 0.808724 0
M  V30 131 H 9.7747 0.736962 -0.00751035 0
M  V30 132 H 12.4167 1.76433 -0.705085 0
M  V30 133 H 10.5667 3.82579 0.675681 0
M  V30 134 H 12.2387 4.20035 -1.90704 0
M  V30 135 H 10.4817 3.92076 -1.85632 0
M  V30 136 H 11.1527 5.39736 -1.15713 0
M  V30 137 H 13.6287 4.14936 0.310992 0
M  V30 138 H 12.5047 5.42251 0.851782 0
M  V30 139 H 12.7657 4.00963 1.86229 0
M  V30 140 N 11.8248 0.280983 1.55075 0
M  V30 141 C 13.0528 -0.337293 2.04132 0
M  V30 142 C 13.4678 -1.4903 1.15912 0
M  V30 143 O 12.8248 -1.81606 0.180459 0
M  V30 144 C 12.8758 -0.812706 3.52246 0
M  V30 145 O 12.5968 0.294387 4.3711 0
M  V30 146 C 14.0978 -1.4982 4.17216 0
M  V30 147 H 11.3178 -0.0761638 0.666663 0
M  V30 148 H 13.8618 0.414787 2.00249 0
M  V30 149 H 12.0168 -1.51486 3.56554 0
M  V30 150 H 12.4308 -0.0721325 5.2445 0
M  V30 151 H 13.9048 -1.7822 5.22438 0
M  V30 152 H 14.3818 -2.43168 3.65741 0
M  V30 153 H 14.9878 -0.839742 4.16927 0
M  V30 154 N 13.3029 -1.57598 0.00835791 0
M  V30 155 C 14.2659 -2.07884 -0.965242 0
M  V30 156 C 15.2659 -0.989825 -1.26725 0
M  V30 157 O 16.4559 -1.25218 -1.21104 0
M  V30 158 C 13.5879 -2.52731 -2.28779 0
M  V30 159 H 14.7809 -2.95178 -0.530112 0
M  V30 160 H 12.3339 -1.54458 -0.239283 0
M  V30 161 H 13.0689 -1.68705 -2.76964 0
M  V30 162 H 12.8539 -3.32272 -2.08177 0
M  V30 163 H 14.3439 -2.91933 -2.98605 0
M  V30 164 N 14.781 0.264519 -1.55364 0
M  V30 165 C 16.058 1.01677 -1.67096 0
M  V30 166 C 16.438 2.03996 -0.543015 0
M  V30 167 O 15.786 2.23907 0.45585 0
M  V30 168 C 15.996 1.66596 -3.0667 0
M  V30 169 C 17.344 2.17442 -3.64697 0
M  V30 170 O 18.368 1.76568 -3.09358 0
M  V30 171 O 17.227 2.92439 -4.61673 0
M  V30 172 H 14.321 0.472161 -0.678965 0
M  V30 173 H 16.867 0.259703 -1.67701 0
M  V30 174 H 15.639 0.924962 -3.80211 0
M  V30 175 H 15.262 2.48968 -3.10001 0
M  V30 176 N 16.2591 1.48442 0.529413 0
M  V30 177 C 17.4841 1.60406 1.31471 0
M  V30 178 C 17.9091 0.264738 1.86228 0
M  V30 179 O 17.2671 -0.763668 1.64432 0
M  V30 180 C 17.3151 2.65419 2.44101 0
M  V30 181 O 16.4191 2.22618 3.47153 0
M  V30 182 H 15.7601 0.537863 0.389357 0
M  V30 183 H 18.2901 1.94432 0.636965 0
M  V30 184 H 18.3001 2.86709 2.90279 0
M  V30 185 H 16.9751 3.62652 2.03608 0
M  V30 186 H 15.5521 2.11543 3.0709 0
M  V30 187 N 17.7372 -0.778329 1.37039 0
M  V30 188 C 18.9852 -1.53361 1.31623 0
M  V30 189 C 19.3062 -1.94739 -0.100831 0
M  V30 190 O 18.5762 -1.65797 -1.04347 0
M  V30 191 H 17.1562 -0.568794 0.484234 0
M  V30 192 H 19.8182 -0.926742 1.71457 0
M  V30 193 H 18.9142 -2.43606 1.95096 0
M  V30 194 N 19.2153 -1.21501 -1.00376 0
M  V30 195 C 20.4643 -1.02718 -1.73586 0
M  V30 196 C 20.7773 0.439589 -1.90596 0
M  V30 197 O 21.9833 0.746848 -2.61026 0
M  V30 198 C 20.4393 -1.78929 -3.1227 0
M  V30 199 C 20.0473 -3.29783 -3.03228 0
M  V30 200 C 21.7913 -1.68557 -3.89601 0
M  V30 201 C 19.6983 -3.98479 -4.36999 0
M  V30 202 H 18.6283 -0.380733 -0.650814 0
M  V30 203 H 21.2793 -1.45248 -1.1214 0
M  V30 204 H 19.6613 -1.29192 -3.74333 0
M  V30 205 H 20.8353 -3.86832 -2.50395 0
M  V30 206 H 19.1503 -3.40711 -2.39385 0
M  V30 207 H 21.7473 -2.17211 -4.88593 0
M  V30 208 H 22.0903 -0.644021 -4.11288 0
M  V30 209 H 22.6233 -2.15778 -3.34193 0
M  V30 210 H 19.3623 -5.02841 -4.20513 0
M  V30 211 H 18.8823 -3.46219 -4.89788 0
M  V30 212 H 20.5613 -4.03462 -5.05794 0
M  V30 213 N 20.6934 1.19889 -1.02296 0
M  V30 214 C 21.6434 2.20777 -0.56934 0
M  V30 215 C 22.6274 1.56379 0.378741 0
M  V30 216 O 23.8194 1.75859 0.200673 0
M  V30 217 C 20.9484 3.43196 0.0845077 0
M  V30 218 C 20.0344 4.14749 -0.88566 0
M  V30 219 N 20.4254 4.62584 -2.04573 0
M  V30 220 C 18.7234 4.40347 -0.707835 0
M  V30 221 C 19.4244 5.17466 -2.65714 0
M  V30 222 N 18.4004 5.0791 -1.93723 0
M  V30 223 H 22.2024 2.55434 -1.45365 0
M  V30 224 H 19.7164 1.35897 -0.88915 0
M  V30 225 H 21.7134 4.14707 0.427067 0
M  V30 226 H 20.3734 3.10042 0.964574 0
M  V30 227 H 21.3844 4.57597 -2.4254 0
M  V30 228 H 18.0614 4.17317 0.12364 0
M  V30 229 H 19.4514 5.64808 -3.63925 0
M  V30 230 N 22.1715 0.800033 1.35784 0
M  V30 231 C 23.1345 0.211565 2.28221 0
M  V30 232 C 24.1345 -0.59728 1.49296 0
M  V30 233 O 25.3245 -0.416721 1.69142 0
M  V30 234 C 22.4565 -0.705846 3.33513 0
M  V30 235 H 23.6495 1.02677 2.81776 0
M  V30 236 H 21.2025 0.570211 1.45528 0
M  V30 237 H 21.9375 -1.54498 2.85133 0
M  V30 238 H 21.7225 -0.127655 3.91892 0
M  V30 239 H 23.2125 -1.11211 4.02519 0
M  V30 240 N 23.6496 -1.47581 0.552962 0
M  V30 241 C 25.0656 -1.5818 0.212424 0
M  V30 242 C 25.2656 -1.55213 -1.28496 0
M  V30 243 O 24.3216 -1.45329 -2.06484 0
M  V30 244 C 25.6346 -2.88865 0.835318 0
M  V30 245 C 27.1826 -3.0244 0.806156 0
M  V30 246 C 27.6576 -4.35819 1.40804 0
M  V30 247 N 29.1486 -4.42444 1.37103 0
M  V30 248 C 29.8836 -5.44202 1.80641 0
M  V30 249 N 29.3796 -6.52795 2.32015 0
M  V30 250 N 31.1726 -5.35222 1.71738 0
M  V30 251 H 23.3236 -1.47753 1.52587 0
M  V30 252 H 25.5866 -0.702941 0.636064 0
M  V30 253 H 25.2926 -2.9676 1.88749 0
M  V30 254 H 25.1666 -3.7579 0.325848 0
M  V30 255 H 27.5536 -2.94144 -0.237317 0
M  V30 256 H 27.6346 -2.17068 1.35334 0
M  V30 257 H 27.2786 -4.44871 2.45056 0
M  V30 258 H 27.2086 -5.19916 0.836338 0
M  V30 259 H 29.6996 -3.6456 0.995202 0
M  V30 260 H 30.0126 -7.26609 2.63171 0
M  V30 261 H 28.3576 -6.53696 2.36023 0
M  V30 262 H 31.5486 -4.49284 1.31382 0
M  V30 263 H 31.7216 -6.14389 2.05987 0
M  V30 264 N 25.1277 -0.289203 -1.54924 0
M  V30 265 C 26.5387 0.205791 -1.85562 0
M  V30 266 C 26.8897 1.54351 -1.2112 0
M  V30 267 O 26.0147 2.10435 -0.504601 0
M  V30 268 C 26.6097 0.380177 -3.3666 0
M  V30 269 C 25.1687 0.819395 -3.67373 0
M  V30 270 C 24.3157 -0.079159 -2.77187 0
M  V30 271 H 27.2667 -0.510577 -1.50262 0
M  V30 272 H 27.2877 1.21659 -3.60526 0
M  V30 273 H 26.7997 -0.593589 -3.83534 0
M  V30 274 H 24.9007 1.80413 -3.26009 0
M  V30 275 H 25.0137 0.646957 -4.74712 0
M  V30 276 H 23.3777 0.439565 -2.50878 0
M  V30 277 H 24.1607 -1.04906 -3.26878 0
M  V30 278 N 26.6058 1.57591 -0.0167156 0
M  V30 279 C 27.5688 2.08393 0.954204 0
M  V30 280 C 28.5688 0.996531 1.26198 0
M  V30 281 O 29.7588 1.25858 1.20438 0
M  V30 282 C 26.8908 2.5394 2.27436 0
M  V30 283 H 28.0838 2.95455 0.514451 0
M  V30 284 H 25.6368 1.54582 0.231089 0
M  V30 285 H 26.3718 1.70171 2.76066 0
M  V30 286 H 26.1568 3.33371 2.06412 0
M  V30 287 H 27.6468 2.93512 2.97053 0
M  V30 288 N 28.0839 -0.256276 1.55502 0
M  V30 289 C 29.3119 -1.00342 1.8094 0
M  V30 290 C 29.7269 -1.79307 0.59114 0
M  V30 291 O 29.0839 -1.77114 -0.440081 0
M  V30 292 C 29.1349 -1.94875 3.04476 0
M  V30 293 O 28.8559 -1.19107 4.21598 0
M  V30 294 C 30.3569 -2.81266 3.42644 0
M  V30 295 H 27.5769 -0.295685 0.602338 0
M  V30 296 H 30.1209 -0.281998 2.02546 0
M  V30 297 H 28.2759 -2.62457 2.84947 0
M  V30 298 H 28.6899 -1.82969 4.91551 0
M  V30 299 H 30.1639 -3.43362 4.32211 0
M  V30 300 H 30.6409 -3.51897 2.62802 0
M  V30 301 H 31.2469 -2.1915 3.64491 0
M  V30 302 N 29.562 -1.4872 -0.521534 0
M  V30 303 C 30.808 -1.574 -1.27879 0
M  V30 304 C 31.141 -0.250817 -1.92573 0
M  V30 305 O 30.416 0.743934 -1.79711 0
M  V30 306 C 30.699 -2.71843 -2.36164 0
M  V30 307 C 30.552 -4.13893 -1.76105 0
M  V30 308 C 31.871 -2.82008 -3.37875 0
M  V30 309 H 28.99 -0.572941 -0.463581 0
M  V30 310 H 31.632 -1.80927 -0.580119 0
M  V30 311 H 29.782 -2.51914 -2.95756 0
M  V30 312 H 31.454 -4.45284 -1.20499 0
M  V30 313 H 29.697 -4.20498 -1.06601 0
M  V30 314 H 30.368 -4.89804 -2.5455 0
M  V30 315 H 32.844 -3.00086 -2.88249 0
M  V30 316 H 31.72 -3.63796 -4.11028 0
M  V30 317 H 31.981 -1.90511 -3.98946 0
M  V30 318 N 31.0401 0.771051 -1.3745 0
M  V30 319 C 31.9701 1.89827 -1.3597 0
M  V30 320 C 32.9511 1.68562 -0.228216 0
M  V30 321 O 34.1361 1.8941 -0.428675 0
M  V30 322 C 31.2661 3.2712 -1.16662 0
M  V30 323 C 30.2201 3.6295 -2.2683 0
M  V30 324 C 29.5461 4.98791 -1.92644 0
M  V30 325 C 30.8461 3.69627 -3.69017 0
M  V30 326 H 32.5401 1.91323 -2.30295 0
M  V30 327 H 30.0861 0.919082 -1.10855 0
M  V30 328 H 32.0391 4.05615 -1.14256 0
M  V30 329 H 30.7631 3.26059 -0.187926 0
M  V30 330 H 29.4221 2.86763 -2.28392 0
M  V30 331 H 29.0701 4.94271 -0.933021 0
M  V30 332 H 28.7701 5.23733 -2.66416 0
M  V30 333 H 30.2941 5.79685 -1.91826 0
M  V30 334 H 31.7081 4.38273 -3.69581 0
M  V30 335 H 30.1051 4.06067 -4.41848 0
M  V30 336 H 31.1751 2.70273 -4.02592 0
M  V30 337 N 32.5182 1.22032 0.997298 0
M  V30 338 C 33.7642 1.04376 1.73878 0
M  V30 339 C 34.0972 -0.420716 1.89588 0
M  V30 340 O 33.3722 -1.31202 1.43583 0
M  V30 341 C 33.6552 1.75047 3.14691 0
M  V30 342 C 33.5082 3.29062 3.06656 0
M  V30 343 C 34.8272 1.49928 4.13775 0
M  V30 344 H 31.9462 0.380578 0.631133 0
M  V30 345 H 34.5882 1.50312 1.16217 0
M  V30 346 H 32.7382 1.35996 3.63919 0
M  V30 347 H 34.4102 3.7753 2.65083 0
M  V30 348 H 32.6532 3.58967 2.43568 0
M  V30 349 H 33.3242 3.73683 4.06282 0
M  V30 350 H 35.8002 1.83842 3.73285 0
M  V30 351 H 34.6762 2.01878 5.10428 0
M  V30 352 H 34.9372 0.430929 4.39995 0
M  V30 353 N 33.9963 -1.19345 1.0293 0
M  V30 354 C 34.9283 -2.22036 0.56857 0
M  V30 355 C 35.9413 -1.58865 -0.355779 0
M  V30 356 O 37.1303 -1.77851 -0.152103 0
M  V30 357 C 34.2303 -3.38363 -0.190752 0
M  V30 358 C 33.4033 -4.31118 0.738643 0
M  V30 359 C 32.4623 -5.26194 0.0246497 0
M  V30 360 O 31.4883 -5.65461 0.651354 0
M  V30 361 N 32.6903 -5.66971 -1.24594 0
M  V30 362 H 35.4553 -2.6219 1.45177 0
M  V30 363 H 33.0163 -1.34015 0.908381 0
M  V30 364 H 35.0083 -3.98981 -0.677961 0
M  V30 365 H 33.5783 -2.96994 -0.975366 0
M  V30 366 H 32.7983 -3.68276 1.40593 0
M  V30 367 H 34.0863 -4.90001 1.37029 0
M  V30 368 H 33.4843 -5.37104 -1.77583 0
M  V30 369 H 32.0413 -6.2984 -1.67764 0
M  V30 370 N 35.4744 -0.807222 -1.35358 0
M  V30 371 C 36.7024 -0.400377 -2.02989 0
M  V30 372 C 37.1174 0.988859 -1.60832 0
M  V30 373 O 36.4744 1.63729 -0.806175 0
M  V30 374 C 36.5254 -0.474867 -3.58368 0
M  V30 375 O 36.2464 -1.80933 -3.98992 0
M  V30 376 C 37.7474 -0.0609112 -4.43258 0
M  V30 377 H 34.9674 -0.162587 -0.651004 0
M  V30 378 H 37.5114 -1.09102 -1.72965 0
M  V30 379 H 35.6664 0.167534 -3.87038 0
M  V30 380 H 36.0804 -1.77256 -4.9364 0
M  V30 381 H 37.5544 -0.164145 -5.51756 0
M  V30 382 H 38.0314 0.993831 -4.27808 0
M  V30 383 H 38.6374 -0.676492 -4.19885 0
M  V30 384 N 36.9525 1.47285 -0.560781 0
M  V30 385 C 37.9155 2.28535 0.174488 0
M  V30 386 C 38.9155 1.37153 0.839388 0
M  V30 387 O 40.1055 1.59748 0.694702 0
M  V30 388 C 37.2375 3.16934 1.25561 0
M  V30 389 H 38.4305 2.95012 -0.539262 0
M  V30 390 H 35.9835 1.53034 -0.317865 0
M  V30 391 H 36.7185 2.55157 2.00164 0
M  V30 392 H 36.5035 3.8419 0.783604 0
M  V30 393 H 37.9935 3.78143 1.77193 0
M  V30 394 N 38.4306 0.297415 1.54768 0
M  V30 395 C 39.6556 -0.318435 2.04941 0
M  V30 396 C 40.0806 -1.4701 1.17345 0
M  V30 397 O 39.4386 -1.80436 0.176758 0
M  V30 398 C 39.4866 -0.755749 3.52592 0
M  V30 399 O 38.5906 -1.86088 3.68028 0
M  V30 400 H 37.9316 -0.062421 0.661059 0
M  V30 401 H 40.4616 0.438215 1.99852 0
M  V30 402 H 40.4716 -1.04552 3.94376 0
M  V30 403 H 39.1466 0.0867233 4.1581 0
M  V30 404 H 37.7236 -1.57193 3.38149 0
M  V30 405 N 39.9087 -1.5758 0.0250728 0
M  V30 406 C 40.8557 -2.09973 -0.958129 0
M  V30 407 C 41.8257 -1.00085 -1.3256 0
M  V30 408 O 43.0107 -1.27481 -1.41962 0
M  V30 409 C 40.1507 -2.62812 -2.2366 0
M  V30 410 C 39.2637 -3.86693 -1.92594 0
M  V30 411 C 38.3987 -4.27941 -3.14707 0
M  V30 412 C 37.4377 -5.44591 -2.79442 0
M  V30 413 N 36.5747 -5.81014 -3.94167 0
M  V30 414 H 41.4147 -2.937 -0.504428 0
M  V30 415 H 38.9517 -1.45172 -0.237392 0
M  V30 416 H 40.9097 -2.91536 -2.98434 0
M  V30 417 H 39.5397 -1.81922 -2.66654 0
M  V30 418 H 38.5917 -3.64723 -1.0808 0
M  V30 419 H 39.9037 -4.71547 -1.62619 0
M  V30 420 H 39.0577 -4.58079 -3.97804 0
M  V30 421 H 37.7967 -3.41845 -3.4784 0
M  V30 422 H 36.8017 -5.1415 -1.94755 0
M  V30 423 H 38.0267 -6.32382 -2.47528 0
M  V30 424 H 35.9727 -4.97874 -4.2715 0
M  V30 425 H 35.8897 -6.60498 -3.67801 0
M  V30 426 H 37.1577 -6.15756 -4.7798 0
M  V30 427 N 41.3868 0.248026 -1.55636 0
M  V30 428 C 42.6168 0.992367 -1.81206 0
M  V30 429 C 43.0248 1.7949 -0.598324 0
M  V30 430 O 42.3678 1.78292 0.442434 0
M  V30 431 C 42.4298 1.97926 -3.00109 0
M  V30 432 C 42.0938 1.36377 -4.36177 0
M  V30 433 C 43.0908 0.76682 -5.14214 0
M  V30 434 C 40.7758 1.38347 -4.82872 0
M  V30 435 C 42.7698 0.197778 -6.37093 0
M  V30 436 C 40.4568 0.810574 -6.057 0
M  V30 437 C 41.4548 0.218754 -6.8265 0
M  V30 438 O 41.1428 -0.345298 -8.03158 0
M  V30 439 H 40.8748 0.297704 -0.606917 0
M  V30 440 H 43.4288 0.276517 -2.0353 0
M  V30 441 H 41.6588 2.73339 -2.73538 0
M  V30 442 H 43.3478 2.58694 -3.12781 0
M  V30 443 H 44.1138 0.744114 -4.79258 0
M  V30 444 H 39.9928 1.8335 -4.2297 0
M  V30 445 H 43.5368 -0.264788 -6.97097 0
M  V30 446 H 39.4338 0.830604 -6.40134 0
M  V30 447 H 40.2018 -0.237055 -8.18157 0
M  V30 448 N 42.8649 1.48995 0.513639 0
M  V30 449 C 44.1419 1.48338 1.27495 0
M  V30 450 C 44.5219 0.204065 2.10111 0
M  V30 451 O 43.8699 -0.813881 2.13514 0
M  V30 452 C 44.0799 2.75498 2.14247 0
M  V30 453 C 45.4279 3.24484 2.73852 0
M  V30 454 O 46.4519 2.76528 2.24523 0
M  V30 455 O 45.3109 4.07974 3.6362 0
M  V30 456 H 42.4049 0.593149 0.576284 0
M  V30 457 H 44.9509 1.61246 0.528948 0
M  V30 458 H 43.7229 3.60109 1.53092 0
M  V30 459 H 43.3459 2.6539 2.96064 0
M  V30 460 N 44.343 -0.763751 1.37857 0
M  V30 461 C 45.306 -1.85889 1.34081 0
M  V30 462 C 46.306 -1.58949 0.243277 0
M  V30 463 O 47.496 -1.66882 0.499589 0
M  V30 464 C 44.628 -3.23176 1.08489 0
M  V30 465 H 45.821 -1.90648 2.31502 0
M  V30 466 H 43.374 -0.964367 1.23003 0
M  V30 467 H 44.109 -3.24091 0.116318 0
M  V30 468 H 43.894 -3.44124 1.8794 0
M  V30 469 H 45.384 -4.03254 1.08517 0
M  V30 470 N 45.8211 -1.22559 -0.990812 0
M  V30 471 C 47.0981 -0.959875 -1.70428 0
M  V30 472 C 47.4781 0.524455 -2.04481 0
M  V30 473 O 46.8261 1.49302 -1.72977 0
M  V30 474 C 47.0361 -1.85955 -2.95333 0
M  V30 475 C 48.3841 -2.11687 -3.68068 0
M  V30 476 O 49.4081 -1.8342 -3.05345 0
M  V30 477 O 48.2671 -2.59572 -4.80921 0
M  V30 478 H 45.3611 -0.361154 -0.743974 0
M  V30 479 H 47.9071 -1.33554 -1.04697 0
M  V30 480 H 46.6791 -2.86346 -2.66687 0
M  V30 481 H 46.3021 -1.4856 -3.68803 0
M  V30 482 N 47.2992 1.18797 -1.03562 0
M  V30 483 C 48.5452 1.8893 -0.737113 0
M  V30 484 C 48.8782 1.79837 0.732956 0
M  V30 485 O 48.1532 1.19525 1.5344 0
M  V30 486 C 48.4362 3.39607 -1.19745 0
M  V30 487 C 48.2892 3.57537 -2.72924 0
M  V30 488 C 49.6082 4.33069 -0.783526 0
M  V30 489 H 46.7272 0.686057 -0.269249 0
M  V30 490 H 49.3692 1.39797 -1.28673 0
M  V30 491 H 47.5192 3.81583 -0.729855 0
M  V30 492 H 49.1912 3.24688 -3.27682 0
M  V30 493 H 47.4342 3.00363 -3.12993 0
M  V30 494 H 48.1052 4.63238 -3.00191 0
M  V30 495 H 50.5812 3.98846 -1.18581 0
M  V30 496 H 49.4572 5.3707 -1.13343 0
M  V30 497 H 49.7182 4.40986 0.313681 0
M  V30 498 N 48.7773 0.814389 1.34928 0
M  V30 499 C 49.7253 0.218424 2.31572 0
M  V30 500 C 50.7193 -0.636128 1.57002 0
M  V30 501 O 51.9253 -0.52842 1.72069 0
M  V30 502 H 48.3003 0.0518799 0.750208 0
M  V30 503 H 50.2713 1.04852 2.79372 0
M  V30 504 C 49.0203 -0.61207 3.4227 0
M  V30 505 H 48.3433 0.0361578 3.99784 0
M  V30 506 H 49.7833 -0.995317 4.12152 0
M  V30 507 C 48.2423 -1.78087 2.85984 0
M  V30 508 O 48.7723 -2.8787 2.80168 0
M  V30 509 N 46.9783 -1.59488 2.42924 0
M  V30 510 H 46.5253 -0.701874 2.47854 0
M  V30 511 H 46.4833 -2.37846 2.05613 0
M  V30 512 N 50.2554 -1.46986 0.568584 0
M  V30 513 C 51.1854 -2.32946 -0.160753 0
M  V30 514 C 52.1664 -1.44487 -0.897631 0
M  V30 515 O 53.3514 -1.73327 -0.875867 0
M  V30 516 C 50.4814 -3.26494 -1.18403 0
M  V30 517 C 49.4354 -4.24282 -0.562895 0
M  V30 518 C 48.7614 -5.07236 -1.69163 0
M  V30 519 C 50.0614 -5.19989 0.490761 0
M  V30 520 H 51.7554 -2.94175 0.556916 0
M  V30 521 H 49.3014 -1.4146 0.26927 0
M  V30 522 H 51.2544 -3.85477 -1.70251 0
M  V30 523 H 49.9784 -2.63343 -1.93179 0
M  V30 524 H 48.6374 -3.66541 -0.0656164 0
M  V30 525 H 48.2854 -4.4048 -2.42871 0
M  V30 526 H 47.9854 -5.7345 -1.28174 0
M  V30 527 H 49.5094 -5.6908 -2.21314 0
M  V30 528 H 50.9234 -5.73271 0.0579047 0
M  V30 529 H 49.3204 -5.94469 0.820165 0
M  V30 530 H 50.3904 -4.64777 1.3824 0
M  V30 531 N 51.7335 -0.305618 -1.54608 0
M  V30 532 C 52.6435 0.57778 -2.27374 0
M  V30 533 C 53.6595 1.14451 -1.31061 0
M  V30 534 O 54.8355 1.16831 -1.6405 0
M  V30 535 C 51.9005 1.73123 -3.00382 0
M  V30 536 C 50.9615 1.19812 -4.12242 0
M  V30 537 C 50.1945 2.2966 -4.81759 0
M  V30 538 O 50.4175 3.49651 -4.50666 0
M  V30 539 O 49.3515 1.96091 -5.69062 0
M  V30 540 H 53.1775 -0.012624 -3.03697 0
M  V30 541 H 50.7625 -0.0719184 -1.49227 0
M  V30 542 H 52.6445 2.40315 -3.4616 0
M  V30 543 H 51.3195 2.30815 -2.26949 0
M  V30 544 H 50.2265 0.491798 -3.70853 0
M  V30 545 H 51.5595 0.666566 -4.87666 0
M  V30 546 N 53.2116 1.57565 -0.0334293 0
M  V30 547 C 54.4416 1.95996 0.653398 0
M  V30 548 C 54.8496 0.908749 1.65947 0
M  V30 549 O 54.1926 -0.117471 1.83324 0
M  V30 550 C 54.2546 3.30589 1.41249 0
M  V30 551 C 53.9186 4.53503 0.564263 0
M  V30 552 C 54.9156 5.19647 -0.16225 0
M  V30 553 C 52.6006 4.99801 0.500398 0
M  V30 554 C 54.5946 6.30412 -0.941255 0
M  V30 555 C 52.2816 6.10448 -0.282308 0
M  V30 556 C 53.2796 6.75612 -1.00184 0
M  V30 557 O 52.9676 7.84134 -1.77171 0
M  V30 558 H 52.6996 0.65027 0.184728 0
M  V30 559 H 55.2536 2.05199 -0.0907841 0
M  V30 560 H 53.4836 3.17888 2.20191 0
M  V30 561 H 55.1726 3.53892 1.98784 0
M  V30 562 H 55.9386 4.84846 -0.12227 0
M  V30 563 H 51.8176 4.48883 1.05002 0
M  V30 564 H 55.3616 6.81208 -1.50339 0
M  V30 565 H 51.2586 6.44686 -0.323989 0
M  V30 566 H 52.0266 8.00822 -1.69194 0
M  V30 567 N 54.6897 -0.239769 1.55765 0
M  V30 568 C 55.6377 -1.31668 1.91745 0
M  V30 569 C 56.6317 -1.49462 0.797338 0
M  V30 570 O 57.8377 -1.50852 0.982021 0
M  V30 571 H 54.2127 -0.441048 0.609082 0
M  V30 572 H 56.1837 -0.985923 2.81642 0
M  V30 573 C 54.9327 -2.66368 2.2348 0
M  V30 574 H 54.2557 -2.53478 3.09175 0
M  V30 575 H 55.6957 -3.40578 2.52553 0
M  V30 576 C 54.1547 -3.20002 1.05359 0
M  V30 577 O 54.6847 -4.00538 0.305261 0
M  V30 578 N 52.8907 -2.78126 0.842292 0
M  V30 579 H 52.4377 -2.12742 1.45253 0
M  V30 580 H 52.3957 -3.14354 0.053652 0
M  V30 581 N 56.1678 -1.49265 -0.50573 0
M  V30 582 C 57.4158 -1.582 -1.25766 0
M  V30 583 C 57.7368 -0.268482 -1.93143 0
M  V30 584 O 57.0068 0.711833 -1.8251 0
M  V30 585 H 55.5868 -0.582873 -0.467191 0
M  V30 586 H 58.2488 -1.85865 -0.586525 0
M  V30 587 H 57.3448 -2.37563 -2.02412 0
M  V30 588 N 57.6459 0.756429 -1.3826 0
M  V30 589 C 58.5929 1.87011 -1.35261 0
M  V30 590 C 59.5629 1.64695 -0.215616 0
M  V30 591 O 60.7479 1.864 -0.407399 0
M  V30 592 C 57.8879 3.24275 -1.18068 0
M  V30 593 C 57.0009 3.58442 -2.41129 0
M  V30 594 C 56.1359 4.84994 -2.16689 0
M  V30 595 C 55.1749 5.11939 -3.35537 0
M  V30 596 N 54.3119 6.29685 -3.10549 0
M  V30 597 H 59.1519 1.8891 -2.30472 0
M  V30 598 H 56.6889 0.923373 -1.14509 0
M  V30 599 H 58.6469 4.03479 -1.06116 0
M  V30 600 H 57.2769 3.21711 -0.264973 0
M  V30 601 H 56.3289 2.74103 -2.63764 0
M  V30 602 H 57.6409 3.74283 -3.29717 0
M  V30 603 H 56.7949 5.72135 -2.01857 0
M  V30 604 H 55.5339 4.71286 -1.25462 0
M  V30 605 H 54.5389 4.23268 -3.50891 0
M  V30 606 H 55.7639 5.27546 -4.27635 0
M  V30 607 H 53.7099 6.17306 -2.21967 0
M  V30 608 H 53.6269 6.46014 -3.92686 0
M  V30 609 H 54.8949 7.19722 -2.99367 0
M  V30 610 N 59.124 1.23083 0.984299 0
M  V30 611 C 60.352 1.08714 1.76037 0
M  V30 612 C 60.767 -0.361691 1.85303 0
M  V30 613 O 60.124 -1.25034 1.32939 0
M  V30 614 C 60.175 1.70206 3.18923 0
M  V30 615 O 59.896 3.09423 3.10144 0
M  V30 616 C 61.397 1.61227 4.12941 0
M  V30 617 H 58.617 0.380664 0.552572 0
M  V30 618 H 61.161 1.62853 1.23689 0
M  V30 619 H 59.316 1.20109 3.6831 0
M  V30 620 H 59.73 3.39188 4.00065 0
M  V30 621 H 61.204 2.08962 5.10919 0
M  V30 622 H 61.681 0.570375 4.35481 0
M  V30 623 H 62.287 2.10671 3.69456 0
M  V30 624 N 60.6021 -1.18246 1.0419 0
M  V30 625 C 61.8481 -1.88536 0.747122 0
M  V30 626 C 62.1811 -1.80223 -0.723409 0
M  V30 627 O 61.4561 -1.20337 -1.52804 0
M  V30 628 C 61.7391 -3.38968 1.21544 0
M  V30 629 C 61.5921 -3.56084 2.74816 0
M  V30 630 C 62.9111 -4.32648 0.806482 0
M  V30 631 H 60.0301 -0.684619 0.272883 0
M  V30 632 H 62.6721 -1.39113 1.29413 0
M  V30 633 H 60.8221 -3.8119 0.750081 0
M  V30 634 H 62.4941 -3.22946 3.29399 0
M  V30 635 H 60.7371 -2.98699 3.14582 0
M  V30 636 H 61.4081 -4.61639 3.02644 0
M  V30 637 H 63.8841 -3.98211 1.20695 0
M  V30 638 H 62.7601 -5.36462 1.1619 0
M  V30 639 H 63.0211 -4.41146 -0.29029 0
M  V30 640 N 62.0802 -0.821533 -1.34494 0
M  V30 641 C 63.0282 -0.230702 -2.31453 0
M  V30 642 C 64.0222 0.627793 -1.57338 0
M  V30 643 O 65.2282 0.519288 -1.72347 0
M  V30 644 H 61.6032 -0.0558577 -0.749923 0
M  V30 645 H 63.5742 -1.06332 -2.78812 0
M  V30 646 C 62.3232 0.59391 -3.4259 0
M  V30 647 H 61.6462 -0.0573588 -3.99759 0
M  V30 648 H 63.0862 0.973446 -4.12674 0
M  V30 649 C 61.5452 1.76568 -2.86924 0
M  V30 650 O 62.0752 2.8638 -2.81691 0
M  V30 651 N 60.2812 1.58198 -2.43766 0
M  V30 652 H 59.8282 0.68872 -2.48222 0
M  V30 653 H 59.7862 2.36752 -2.06871 0
M  V30 654 N 63.5583 1.46682 -0.576371 0
M  V30 655 C 64.4883 2.33028 0.148397 0
M  V30 656 C 65.4693 1.44961 0.889956 0
M  V30 657 O 66.6543 1.73789 0.866662 0
M  V30 658 C 63.7843 3.27117 1.1667 0
M  V30 659 C 62.7383 4.24575 0.540386 0
M  V30 660 C 62.0643 5.08126 1.6647 0
M  V30 661 C 63.3643 5.19722 -0.518331 0
M  V30 662 H 65.0583 2.93875 -0.572509 0
M  V30 663 H 62.6043 1.41315 -0.276768 0
M  V30 664 H 64.5573 3.86374 1.68204 0
M  V30 665 H 63.2813 2.64364 1.9178 0
M  V30 666 H 61.9403 3.66571 0.0461769 0
M  V30 667 H 61.5883 4.41762 2.40531 0
M  V30 668 H 61.2883 5.74122 1.25131 0
M  V30 669 H 62.8123 5.70246 2.18293 0
M  V30 670 H 64.2263 5.73232 -0.0883058 0
M  V30 671 H 62.6233 5.94026 -0.851679 0
M  V30 672 H 63.6933 4.64037 -1.40703 0
M  V30 673 N 65.0364 0.313813 1.54444 0
M  V30 674 C 65.9834 -0.55655 2.23989 0
M  V30 675 C 66.9534 -1.11943 1.22711 0
M  V30 676 O 68.1384 -1.16158 1.51367 0
M  V30 677 C 65.2784 -1.71635 2.99392 0
M  V30 678 C 64.3914 -1.18364 4.15468 0
M  V30 679 C 63.5264 -2.30834 4.78424 0
M  V30 680 C 62.5654 -1.74762 5.86622 0
M  V30 681 N 61.7024 -2.80855 6.43479 0
M  V30 682 H 66.5424 0.0430893 2.97969 0
M  V30 683 H 64.0794 0.0330359 1.47063 0
M  V30 684 H 66.0374 -2.39868 3.41349 0
M  V30 685 H 64.6674 -2.28742 2.27765 0
M  V30 686 H 63.7194 -0.393163 3.78363 0
M  V30 687 H 65.0314 -0.733262 4.93381 0
M  V30 688 H 64.1854 -3.0699 5.23299 0
M  V30 689 H 62.9244 -2.79204 3.99871 0
M  V30 690 H 61.9294 -0.970995 5.41158 0
M  V30 691 H 63.1544 -1.2728 6.67066 0
M  V30 692 H 61.1004 -3.28535 5.67804 0
M  V30 693 H 61.0174 -2.40351 7.16776 0
M  V30 694 H 62.2854 -3.5687 6.93011 0
M  V30 695 N 66.5145 -1.57545 0.0417849 0
M  V30 696 C 67.7395 -1.97035 -0.647455 0
M  V30 697 C 68.1645 -0.918775 -1.64135 0
M  V30 698 O 67.5225 0.119006 -1.80909 0
M  V30 699 C 67.5705 -3.35609 -1.31905 0
M  V30 700 O 66.6745 -3.3287 -2.43457 0
M  V30 701 H 66.0155 -0.64211 -0.169086 0
M  V30 702 H 68.5455 -2.04318 0.107399 0
M  V30 703 H 68.5555 -3.72126 -1.67291 0
M  V30 704 H 67.2305 -4.11685 -0.590586 0
M  V30 705 H 65.8075 -3.08087 -2.10088 0
M  V30 706 N 67.9926 0.231505 -1.5589 0
M  V30 707 C 69.2416 0.955346 -1.7764 0
M  V30 708 C 69.5546 1.85893 -0.608546 0
M  V30 709 O 70.7606 2.62067 -0.70943 0
M  V30 710 C 69.2166 1.74886 -3.14552 0
M  V30 711 C 68.8246 0.891915 -4.39032 0
M  V30 712 C 70.5686 2.46452 -3.45633 0
M  V30 713 C 68.4756 1.68221 -5.66971 0
M  V30 714 H 67.4056 0.360446 -0.662265 0
M  V30 715 H 70.0566 0.209516 -1.823 0
M  V30 716 H 68.4386 2.53723 -3.04041 0
M  V30 717 H 69.6126 0.144793 -4.60572 0
M  V30 718 H 67.9276 0.288863 -4.15397 0
M  V30 719 H 70.5246 3.06061 -4.38441 0
M  V30 720 H 70.8676 3.18841 -2.67668 0
M  V30 721 H 71.4006 1.74613 -3.57428 0
M  V30 722 H 68.1396 1.00178 -6.478 0
M  V30 723 H 67.6596 2.4042 -5.49507 0
M  V30 724 H 69.3386 2.24544 -6.06786 0
M  V30 725 N 69.4707 1.49531 0.497807 0
M  V30 726 C 70.4037 1.61043 1.6168 0
M  V30 727 C 71.3817 0.459386 1.55976 0
M  V30 728 O 72.5657 0.675358 1.75986 0
M  V30 729 C 69.6927 1.56833 3.00202 0
M  V30 730 C 68.7387 2.77173 3.24156 0
M  V30 731 S 69.5717 4.38808 3.06933 0
M  V30 732 C 70.7277 4.37248 4.47845 0
M  V30 733 H 70.9607 2.55702 1.51671 0
M  V30 734 H 68.4937 1.38462 0.683201 0
M  V30 735 H 70.4517 1.55089 3.80076 0
M  V30 736 H 69.1127 0.634561 3.07623 0
M  V30 737 H 68.3057 2.70456 4.25288 0
M  V30 738 H 67.9077 2.76346 2.5201 0
M  V30 739 H 70.1997 4.09164 5.39992 0
M  V30 740 H 71.1427 5.38668 4.59612 0
M  V30 741 H 71.5507 3.67286 4.28674 0
M  V30 742 N 70.9488 -0.749086 1.3866 0
M  V30 743 C 72.1968 -1.50535 1.34847 0
M  V30 744 C 72.5178 -1.94909 -0.0595016 0
M  V30 745 O 71.7878 -1.67973 -1.00806 0
M  V30 746 H 70.3678 -0.558395 0.49619 0
M  V30 747 H 73.0298 -0.890165 1.73384 0
M  V30 748 H 72.1258 -2.39413 2.00219 0
M  V30 749 N 72.4269 -1.23603 -0.977757 0
M  V30 750 C 73.6729 -1.07129 -1.72195 0
M  V30 751 C 74.0059 0.390501 -1.90233 0
M  V30 752 O 73.2809 1.28902 -1.45653 0
M  V30 753 C 73.5639 -1.80031 -3.11867 0
M  V30 754 C 73.4169 -3.33899 -3.01383 0
M  V30 755 C 74.7359 -1.56492 -4.11337 0
M  V30 756 H 71.8549 -0.390571 -0.624999 0
M  V30 757 H 74.4969 -1.52142 -1.13811 0
M  V30 758 H 72.6469 -1.41768 -3.6171 0
M  V30 759 H 74.3189 -3.81699 -2.59043 0
M  V30 760 H 72.5619 -3.62796 -2.37827 0
M  V30 761 H 73.2329 -3.801 -4.00285 0
M  V30 762 H 75.7089 -1.89757 -3.70313 0
M  V30 763 H 74.5849 -2.09973 -5.07151 0
M  V30 764 H 74.8459 -0.500874 -4.39254 0
M  V30 765 N 73.905 1.17692 -1.04816 0
M  V30 766 C 74.838 2.20436 -0.590173 0
M  V30 767 C 75.816 1.58115 0.379244 0
M  V30 768 O 77 1.86228 0.291762 0
M  V30 769 C 74.127 3.38424 0.136817 0
M  V30 770 C 73.173 4.19176 -0.787023 0
M  V30 771 S 74.006 4.84815 -2.27409 0
M  V30 772 C 75.162 6.06195 -1.55817 0
M  V30 773 H 75.395 2.58944 -1.46067 0
M  V30 774 H 72.928 1.28246 -0.859784 0
M  V30 775 H 74.886 4.06798 0.550076 0
M  V30 776 H 73.547 2.98312 0.983299 0
M  V30 777 H 72.74 5.03499 -0.224681 0
M  V30 778 H 72.342 3.56219 -1.13947 0
M  V30 779 H 74.634 6.72078 -0.855387 0
M  V30 780 H 75.577 6.6695 -2.37873 0
M  V30 781 H 75.985 5.54701 -1.04722 0
M  V30 782 N 75.3831 0.828654 1.34056 0
M  V30 783 C 76.6081 0.431637 2.02859 0
M  V30 784 C 77.0331 -0.956339 1.61975 0
M  V30 785 O 76.3911 -1.62338 0.807228 0
M  V30 786 C 76.4391 0.548323 3.56407 0
M  V30 787 O 75.5431 -0.429556 4.10157 0
M  V30 788 H 74.8841 0.176886 0.640006 0
M  V30 789 H 77.4141 1.12066 1.71179 0
M  V30 790 H 77.4241 0.426196 4.05768 0
M  V30 791 H 76.0991 1.5606 3.8551 0
M  V30 792 H 74.6761 -0.265836 3.71951 0
M  V30 793 N 76.8612 -1.46375 0.584142 0
M  V30 794 C 77.7912 -2.33103 -0.136037 0
M  V30 795 C 78.7722 -1.45431 -0.882255 0
M  V30 796 O 79.9572 -1.74246 -0.857434 0
M  V30 797 C 77.0872 -3.27731 -1.14933 0
M  V30 798 C 76.0412 -4.24855 -0.517862 0
M  V30 799 C 75.3672 -5.09001 -1.63773 0
M  V30 800 C 76.6672 -5.19439 0.545886 0
M  V30 801 H 78.3612 -2.93568 0.588086 0
M  V30 802 H 75.9072 -1.41166 0.284259 0
M  V30 803 H 77.8602 -3.87261 -1.66153 0
M  V30 804 H 76.5842 -2.65377 -1.90375 0
M  V30 805 H 75.2432 -3.6659 -0.0267361 0
M  V30 806 H 74.8912 -4.43031 -2.38185 0
M  V30 807 H 74.5912 -5.74777 -1.22085 0
M  V30 808 H 76.1152 -5.71396 -2.15266 0
M  V30 809 H 77.5292 -5.73177 0.118704 0
M  V30 810 H 75.9262 -5.93566 0.88317 0
M  V30 811 H 76.9962 -4.63285 1.43162 0
M  V30 812 N 78.3393 -0.321999 -1.54275 0
M  V30 813 C 79.5873 0.280489 -2.00144 0
M  V30 814 C 79.9083 1.52777 -1.21178 0
M  V30 815 O 79.1783 1.9338 -0.313187 0
M  V30 816 H 77.7583 0.106632 -0.73935 0
M  V30 817 H 80.4203 -0.438184 -1.8991 0
M  V30 818 H 79.5163 0.537972 -3.07428 0
M  V30 819 N 79.8174 1.5752 -0.0501392 0
M  V30 820 C 81.0664 1.91827 0.623328 0
M  V30 821 C 81.3794 0.930222 1.72065 0
M  V30 822 O 82.5854 1.1653 2.4522 0
M  V30 823 C 81.0414 3.40692 1.16003 0
M  V30 824 C 80.6494 4.479 0.0948811 0
M  V30 825 C 82.3934 3.84034 1.80881 0
M  V30 826 C 80.3004 5.87879 0.644411 0
M  V30 827 H 79.2304 0.715918 0.236596 0
M  V30 828 H 81.8814 1.83115 -0.118861 0
M  V30 829 H 80.2634 3.44405 1.9545 0
M  V30 830 H 81.4374 4.55775 -0.678675 0
M  V30 831 H 79.7524 4.13892 -0.45637 0
M  V30 832 H 82.3494 4.85984 2.22988 0
M  V30 833 H 82.6924 3.20225 2.6601 0
M  V30 834 H 83.2254 3.82833 1.0809 0
M  V30 835 H 79.9644 6.55282 -0.169229 0
M  V30 836 H 79.4844 5.83567 1.38598 0
M  V30 837 H 81.1634 6.37098 1.12763 0
M  V30 838 N 81.2955 -0.223234 1.56011 0
M  V30 839 C 82.2585 -1.26014 1.9145 0
M  V30 840 C 83.2585 -1.3989 0.792937 0
M  V30 841 O 84.4485 -1.38184 1.0607 0
M  V30 842 C 81.5805 -2.63422 2.16383 0
M  V30 843 H 82.7735 -0.95796 2.84189 0
M  V30 844 H 80.3265 -0.463576 1.49267 0
M  V30 845 H 81.0615 -2.98741 1.2619 0
M  V30 846 H 80.8465 -2.54728 2.98088 0
M  V30 847 H 82.3365 -3.38249 2.44903 0
M  V30 848 N 82.7736 -1.49793 -0.48987 0
M  V30 849 C 83.7206 -1.67281 -1.59014 0
M  V30 850 C 84.6906 -0.514177 -1.57941 0
M  V30 851 O 85.8756 -0.742533 -1.75759 0
M  V30 852 C 83.0156 -1.75569 -2.97102 0
M  V30 853 C 82.1286 -3.0281 -3.08107 0
M  V30 854 C 81.2636 -3.02008 -4.36995 0
M  V30 855 C 80.3026 -4.23782 -4.41673 0
M  V30 856 N 79.4396 -4.20826 -5.62005 0
M  V30 857 H 84.2796 -2.61224 -1.43409 0
M  V30 858 H 81.8166 -1.29508 -0.697565 0
M  V30 859 H 83.7746 -1.78354 -3.77155 0
M  V30 860 H 82.4046 -0.850827 -3.11385 0
M  V30 861 H 81.4566 -3.09584 -2.21047 0
M  V30 862 H 82.7686 -3.92801 -3.07423 0
M  V30 863 H 81.9226 -3.03418 -5.25378 0
M  V30 864 H 80.6616 -2.09815 -4.4026 0
M  V30 865 H 79.6666 -4.22604 -3.5169 0
M  V30 866 H 80.8916 -5.17181 -4.40115 0
M  V30 867 H 78.8376 -3.31476 -5.66091 0
M  V30 868 H 78.7546 -5.04564 -5.62984 0
M  V30 869 H 80.0226 -4.26355 -6.52565 0
M  V30 870 N 84.2517 0.741722 -1.39055 0
M  V30 871 C 85.4997 1.49818 -1.35643 0
M  V30 872 C 85.8207 1.94938 0.0491642 0
M  V30 873 O 85.0907 1.68505 0.999141 0
M  V30 874 H 83.6707 0.555755 -0.499144 0
M  V30 875 H 86.3327 0.880957 -1.73854 0
M  V30 876 H 85.4287 2.38348 -2.01486 0
M  V30 877 N 85.7298 1.2412 0.971189 0
M  V30 878 C 86.6928 1.03156 2.04674 0
M  V30 879 C 87.6928 -0.00990322 1.60797 0
M  V30 880 O 88.8828 0.230729 1.72665 0
M  V30 881 C 86.0148 0.562765 3.36223 0
M  V30 882 H 87.2078 1.98614 2.24705 0
M  V30 883 H 84.7608 1.06293 1.14593 0
M  V30 884 H 85.4958 -0.395176 3.21883 0
M  V30 885 H 85.2808 1.31441 3.69413 0
M  V30 886 H 86.7708 0.437015 4.15307 0
M  V30 887 N 87.2079 -1.17134 1.05439 0
M  V30 888 C 88.1179 -2.24878 0.668365 0
M  V30 889 C 89.1339 -1.71186 -0.311687 0
M  V30 890 O 90.3099 -2.00738 -0.163161 0
M  V30 891 C 87.3749 -3.46662 0.051648 0
M  V30 892 C 86.4359 -4.15429 1.08246 0
M  V30 893 C 85.6689 -5.31399 0.495082 0
M  V30 894 O 85.8919 -5.66153 -0.694743 0
M  V30 895 O 84.8259 -5.89187 1.23056 0
M  V30 896 H 88.6519 -2.60189 1.56637 0
M  V30 897 H 86.2369 -1.24482 0.826104 0
M  V30 898 H 88.1189 -4.20394 -0.290966 0
M  V30 899 H 86.7939 -3.13142 -0.819971 0
M  V30 900 H 85.7009 -3.43704 1.47711 0
M  V30 901 H 87.0339 -4.52982 1.92532 0
M  V30 902 N 88.686 -0.835752 -1.33615 0
M  V30 903 C 89.935 -0.426289 -1.97144 0
M  V30 904 C 90.248 1.01912 -1.66953 0
M  V30 905 O 91.454 1.53311 -2.24072 0
M  V30 906 C 89.91 -0.711321 -3.52801 0
M  V30 907 C 89.518 -2.1712 -3.91871 0
M  V30 908 C 91.262 -0.368654 -4.22896 0
M  V30 909 C 89.169 -2.40044 -5.40493 0
M  V30 910 H 88.099 -0.15567 -0.737755 0
M  V30 911 H 90.75 -1.0239 -1.52278 0
M  V30 912 H 89.132 -0.0433766 -3.95976 0
M  V30 913 H 90.306 -2.87936 -3.59763 0
M  V30 914 H 88.621 -2.47654 -3.34749 0
M  V30 915 H 91.218 -0.517601 -5.32189 0
M  V30 916 H 91.561 0.688078 -4.10574 0
M  V30 917 H 92.094 -0.991702 -3.8524 0
M  V30 918 H 88.833 -3.44271 -5.57815 0
M  V30 919 H 88.353 -1.73785 -5.74072 0
M  V30 920 H 90.032 -2.23042 -6.0734 0
M  V30 921 N 90.1641 1.46063 -0.591896 0
M  V30 922 C 91.3921 2.06717 -0.0868936 0
M  V30 923 C 91.8071 1.43916 1.22203 0
M  V30 924 O 91.1641 0.547698 1.74088 0
M  V30 925 C 91.2151 3.6142 0.0758725 0
M  V30 926 O 90.9361 4.21874 -1.18126 0
M  V30 927 C 92.4371 4.39025 0.61416 0
M  V30 928 H 89.6571 0.668162 -0.0616518 0
M  V30 929 H 92.2011 1.8755 -0.815175 0
M  V30 930 H 90.3561 3.79983 0.754413 0
M  V30 931 H 90.7701 5.14861 -1.00092 0
M  V30 932 H 92.2441 5.4783 0.677193 0
M  V30 933 H 92.7211 4.07708 1.63312 0
M  V30 934 H 93.3271 4.2529 -0.0298142 0
M  V30 935 N 91.6422 0.330177 1.54103 0
M  V30 936 C 92.8912 -0.271336 1.99867 0
M  V30 937 C 93.2042 -1.52723 1.22209 0
M  V30 938 O 94.4102 -2.20515 1.58383 0
M  V30 939 C 92.8662 -0.534032 3.55916 0
M  V30 940 C 92.4742 0.705193 4.42415 0
M  V30 941 C 94.2182 -1.09514 4.1013 0
M  V30 942 C 92.1252 0.414035 5.89949 0
M  V30 943 H 91.0552 -0.105166 0.74663 0
M  V30 944 H 93.7062 0.443429 1.78062 0
M  V30 945 H 92.0882 -1.30915 3.73734 0
M  V30 946 H 93.2622 1.4804 4.36372 0
M  V30 947 H 91.5772 1.18698 3.99124 0
M  V30 948 H 94.1742 -1.3277 5.17954 0
M  V30 949 H 94.5172 -2.04656 3.62521 0
M  V30 950 H 95.0502 -0.381038 3.95971 0
M  V30 951 H 91.7892 1.33481 6.41766 0
M  V30 952 H 91.3092 -0.323336 5.98928 0
M  V30 953 H 92.9882 0.0263105 6.46995 0
M  V30 954 N 93.1203 -1.57491 0.0584922 0
M  V30 955 C 94.3453 -1.97711 -0.62652 0
M  V30 956 C 94.7703 -0.936132 -1.63151 0
M  V30 957 O 94.1283 0.099811 -1.81025 0
M  V30 958 C 94.1763 -3.36989 -1.28338 0
M  V30 959 O 93.2803 -3.35433 -2.39913 0
M  V30 960 H 92.6213 -0.643868 -0.162266 0
M  V30 961 H 95.1513 -2.04193 0.129064 0
M  V30 962 H 95.1613 -3.73879 -1.63335 0
M  V30 963 H 93.8363 -4.12289 -0.546889 0
M  V30 964 H 92.4133 -3.10298 -2.06809 0
M  V30 965 N 94.5984 0.214957 -1.56127 0
M  V30 966 C 95.5614 1.24997 -1.92116 0
M  V30 967 C 96.5614 1.39467 -0.800344 0
M  V30 968 O 97.7514 1.37619 -1.06802 0
M  V30 969 C 94.8834 2.62271 -2.17777 0
M  V30 970 H 96.0764 0.942875 -2.84693 0
M  V30 971 H 93.6294 0.455654 -1.49511 0
M  V30 972 H 94.3644 2.98068 -1.27773 0
M  V30 973 H 94.1494 2.53143 -2.99434 0
M  V30 974 H 95.6394 3.36946 -2.46693 0
M  V30 975 N 96.0765 1.50051 0.48192 0
M  V30 976 C 97.3015 1.64508 1.26301 0
M  V30 977 C 97.7265 0.323851 1.85291 0
M  V30 978 O 97.0845 -0.710969 1.66778 0
M  V30 979 C 97.1325 2.7305 2.35533 0
M  V30 980 O 96.2365 2.3355 3.39895 0
M  V30 981 H 95.5775 0.549978 0.372048 0
M  V30 982 H 98.1075 1.9636 0.574786 0
M  V30 983 H 98.1175 2.95799 2.8101 0
M  V30 984 H 96.7925 3.68946 1.91967 0
M  V30 985 H 95.3695 2.21205 3.00204 0
M  V30 986 N 97.5546 -0.734337 1.39446 0
M  V30 987 C 98.8026 -1.49096 1.36436 0
M  V30 988 C 99.1236 -1.94961 -0.0388255 0
M  V30 989 O 98.3936 -1.69033 -0.990191 0
M  V30 990 H 96.9736 -0.5531 0.502085 0
M  V30 991 H 99.6356 -0.871725 1.74319 0
M  V30 992 H 98.7316 -2.37276 2.02747 0
M  V30 993 N 99.0327 -1.24633 -0.964593 0
M  V30 994 C 99.9957 -1.0424 -2.04124 0
M  V30 995 C 100.996 0.00137563 -1.608 0
M  V30 996 O 102.186 -0.239883 -1.7254 0
M  V30 997 C 99.3177 -0.580588 -3.3592 0
M  V30 998 H 100.511 -1.99803 -2.23649 0
M  V30 999 H 98.0637 -1.06899 -1.14027 0
M  V30 1000 H 98.7987 0.3781 -3.22088 0
M  V30 1001 H 98.5837 -1.33398 -3.6871 0
M  V30 1002 H 100.074 -0.459034 -4.15069 0
M  V30 1003 N 100.511 1.16574 -1.06058 0
M  V30 1004 C 101.788 1.83048 -0.689416 0
M  V30 1005 C 102.168 1.94122 0.829443 0
M  V30 1006 O 101.516 1.48249 1.7388 0
M  V30 1007 C 101.726 3.20186 -1.38859 0
M  V30 1008 C 103.074 3.95989 -1.53226 0
M  V30 1009 O 104.098 3.29696 -1.3483 0
M  V30 1010 O 102.957 5.14813 -1.83384 0
M  V30 1011 H 100.051 0.790258 -0.243764 0
M  V30 1012 H 102.597 1.23797 -1.16071 0
M  V30 1013 H 101.369 3.07146 -2.4244 0
M  V30 1014 H 100.992 3.87112 -0.907216 0
M  V30 1015 N 101.989 0.842826 1.3317 0
M  V30 1016 C 102.899 0.281444 2.32906 0
M  V30 1017 C 103.915 -0.594587 1.63526 0
M  V30 1018 O 105.091 -0.49777 1.95152 0
M  V30 1019 C 102.156 -0.530929 3.42611 0
M  V30 1020 C 101.217 0.369843 4.27704 0
M  V30 1021 C 100.45 -0.403853 5.3217 0
M  V30 1022 O 100.673 -1.63513 5.46461 0
M  V30 1023 O 99.6069 0.224199 6.01482 0
M  V30 1024 H 103.433 1.10744 2.82789 0
M  V30 1025 H 101.018 0.60545 1.36582 0
M  V30 1026 H 102.9 -0.992437 4.09547 0
M  V30 1027 H 101.575 -1.33392 2.94938 0
M  V30 1028 H 100.482 0.879275 3.6362 0
M  V30 1029 H 101.815 1.13771 4.78871 0
M  V30 1030 N 103.467 -1.45747 0.599634 0
M  V30 1031 C 104.415 -2.322 -0.136426 0
M  V30 1032 C 105.409 -1.45497 -0.867583 0
M  V30 1033 O 106.615 -1.62027 -0.78405 0
M  V30 1034 H 102.99 -0.749368 -0.0628588 0
M  V30 1035 H 104.961 -2.92072 0.611281 0
M  V30 1036 C 103.71 -3.28974 -1.12567 0
M  V30 1037 H 103.033 -3.9568 -0.572484 0
M  V30 1038 H 104.473 -3.92212 -1.61077 0
M  V30 1039 C 102.932 -2.55561 -2.19523 0
M  V30 1040 O 103.462 -2.33111 -3.27143 0
M  V30 1041 N 101.668 -2.15832 -1.94589 0
M  V30 1042 H 101.215 -2.3429 -1.07078 0
M  V30 1043 H 101.173 -1.67034 -2.66359 0
M  V30 1044 N 104.945 -0.338344 -1.53925 0
M  V30 1045 C 106.222 0.314774 -1.93051 0
M  V30 1046 C 106.602 1.68669 -1.26941 0
M  V30 1047 O 105.95 2.24636 -0.418445 0
M  V30 1048 C 106.16 0.392249 -3.46789 0
M  V30 1049 C 107.508 0.645554 -4.19664 0
M  V30 1050 O 108.532 0.474575 -3.53024 0
M  V30 1051 O 107.391 0.976408 -5.37707 0
M  V30 1052 H 104.485 0.182598 -0.80659 0
M  V30 1053 H 107.031 -0.389141 -1.65178 0
M  V30 1054 H 105.803 -0.570702 -3.87116 0
M  V30 1055 H 105.426 1.14316 -3.80812 0
M  V30 1056 N 106.423 1.57458 -0.0668435 0
M  V30 1057 C 107.386 2.11323 0.887422 0
M  V30 1058 C 108.386 1.03618 1.22964 0
M  V30 1059 O 109.576 1.29626 1.16373 0
M  V30 1060 C 106.708 2.61048 2.19242 0
M  V30 1061 H 107.901 2.96942 0.420194 0
M  V30 1062 H 105.454 1.55239 0.181793 0
M  V30 1063 H 106.189 1.78868 2.70512 0
M  V30 1064 H 105.974 3.39769 1.95702 0
M  V30 1065 H 107.464 3.02814 2.87565 0
M  V30 1066 N 107.901 -0.206675 1.56239 0
M  V30 1067 C 108.831 -1.25909 1.96645 0
M  V30 1068 C 109.812 -1.48097 0.836734 0
M  V30 1069 O 110.997 -1.6003 1.10019 0
M  V30 1070 C 108.127 -2.6058 2.29599 0
M  V30 1071 C 107.081 -2.53024 3.452 0
M  V30 1072 C 106.407 -3.91861 3.63798 0
M  V30 1073 C 107.707 -2.06524 4.79734 0
M  V30 1074 H 109.401 -0.923369 2.84806 0
M  V30 1075 H 106.947 -0.442735 1.37025 0
M  V30 1076 H 108.9 -3.34375 2.56459 0
M  V30 1077 H 107.624 -2.95869 1.38307 0
M  V30 1078 H 106.283 -1.81684 3.18412 0
M  V30 1079 H 105.931 -4.24483 2.69857 0
M  V30 1080 H 105.631 -3.87683 4.4156 0
M  V30 1081 H 107.155 -4.67296 3.93022 0
M  V30 1082 H 108.569 -2.70072 5.05702 0
M  V30 1083 H 106.966 -2.13374 5.60885 0
M  V30 1084 H 108.036 -1.01802 4.74093 0
M  V30 1085 N 109.379 -1.50304 -0.473955 0
M  V30 1086 C 110.327 -1.69482 -1.59307 0
M  V30 1087 C 111.321 -0.560669 -1.59853 0
M  V30 1088 O 112.527 -0.741087 -1.64036 0
M  V30 1089 H 108.902 -0.534892 -0.528578 0
M  V30 1090 H 110.873 -2.63364 -1.40293 0
M  V30 1091 C 109.622 -1.80354 -2.97267 0
M  V30 1092 H 108.945 -2.67012 -2.97564 0
M  V30 1093 H 110.385 -1.97798 -3.75036 0
M  V30 1094 C 108.844 -0.55448 -3.32306 0
M  V30 1095 O 109.374 0.307661 -4.0052 0
M  V30 1096 N 107.58 -0.409354 -2.87702 0
M  V30 1097 H 107.127 -1.11196 -2.32364 0
M  V30 1098 H 107.085 0.425223 -3.11511 0
M  V30 1099 N 110.857 0.726932 -1.39834 0
M  V30 1100 C 111.82 1.82269 -1.38962 0
M  V30 1101 C 112.82 1.58248 -0.285334 0
M  V30 1102 O 114.01 1.65499 -0.54366 0
M  V30 1103 C 111.142 3.20186 -1.17019 0
M  V30 1104 H 112.335 1.84443 -2.36476 0
M  V30 1105 H 109.888 0.931416 -1.25516 0
M  V30 1106 H 110.623 3.23669 -0.202204 0
M  V30 1107 H 110.408 3.3902 -1.96998 0
M  V30 1108 H 111.898 4.00235 -1.1917 0
M  V30 1109 N 112.336 1.25143 0.95797 0
M  V30 1110 C 113.266 1.07711 2.07173 0
M  V30 1111 C 114.247 -0.0128462 1.70095 0
M  V30 1112 O 115.432 0.156061 1.93572 0
M  V30 1113 C 112.562 0.691503 3.40346 0
M  V30 1114 C 111.516 1.73132 3.9142 0
M  V30 1115 C 110.842 1.20049 5.21049 0
M  V30 1116 C 112.142 3.1294 4.1817 0
M  V30 1117 H 113.836 2.00873 2.22014 0
M  V30 1118 H 111.382 0.967191 1.06684 0
M  V30 1119 H 113.335 0.556505 4.17709 0
M  V30 1120 H 112.059 -0.275819 3.25433 0
M  V30 1121 H 110.718 1.8547 3.16222 0
M  V30 1122 H 110.366 0.223499 5.02503 0
M  V30 1123 H 110.066 1.89545 5.56189 0
M  V30 1124 H 111.59 1.07782 6.01012 0
M  V30 1125 H 113.004 3.03775 4.86203 0
M  V30 1126 H 111.401 3.79875 4.64559 0
M  V30 1127 H 112.471 3.6025 3.24573 0
M  V30 1128 N 113.814 -1.1601 1.06675 0
M  V30 1129 C 114.724 -2.24156 0.692179 0
M  V30 1130 C 115.74 -1.71507 -0.293513 0
M  V30 1131 O 116.916 -2.009 -0.141861 0
M  V30 1132 C 113.981 -3.46587 0.0884131 0
M  V30 1133 C 113.042 -4.14257 1.12646 0
M  V30 1134 C 112.275 -5.30844 0.551416 0
M  V30 1135 O 112.498 -5.66858 -0.634656 0
M  V30 1136 O 111.432 -5.87848 1.29298 0
M  V30 1137 H 115.258 -2.58513 1.59388 0
M  V30 1138 H 112.843 -1.23599 0.83926 0
M  V30 1139 H 114.725 -4.20679 -0.246361 0
M  V30 1140 H 113.4 -3.13994 -0.786712 0
M  V30 1141 H 112.307 -3.42118 1.51348 0
M  V30 1142 H 113.64 -4.50914 1.97325 0
M  V30 1143 N 115.292 -0.849877 -1.32721 0
M  V30 1144 C 116.202 -0.293791 -2.32753 0
M  V30 1145 C 117.218 0.585906 -1.63839 0
M  V30 1146 O 118.394 0.487413 -1.95413 0
M  V30 1147 C 115.459 0.512752 -3.42887 0
M  V30 1148 C 114.52 -0.39252 -4.27502 0
M  V30 1149 C 113.753 0.375625 -5.32377 0
M  V30 1150 O 113.976 1.60613 -5.4732 0
M  V30 1151 O 112.91 -0.256094 -6.01355 0
M  V30 1152 H 116.736 -1.12242 -2.82197 0
M  V30 1153 H 114.321 -0.612685 -1.36259 0
M  V30 1154 H 116.203 0.970704 -4.10067 0
M  V30 1155 H 114.878 1.31826 -2.95641 0
M  V30 1156 H 113.785 -0.898547 -3.63149 0
M  V30 1157 H 115.118 -1.16309 -4.7826 0
M  V30 1158 N 116.77 1.45427 -0.607355 0
M  V30 1159 C 117.998 2.06614 -0.108814 0
M  V30 1160 C 118.413 1.45204 1.2067 0
M  V30 1161 O 117.77 0.566132 1.73497 0
M  V30 1162 C 117.821 3.61481 0.0375347 0
M  V30 1163 O 117.542 4.20598 -1.22593 0
M  V30 1164 C 119.043 4.39652 0.567561 0
M  V30 1165 H 116.263 0.66747 -0.0687351 0
M  V30 1166 H 118.807 1.86675 -0.835022 0
M  V30 1167 H 116.962 3.80762 0.714068 0
M  V30 1168 H 117.376 5.1377 -1.05547 0
M  V30 1169 H 118.85 5.48518 0.61905 0
M  V30 1170 H 119.327 4.09417 1.58978 0
M  V30 1171 H 119.933 4.25234 -0.0749202 0
M  V30 1172 N 118.248 0.346503 1.53744 0
M  V30 1173 C 119.181 -0.552023 2.21423 0
M  V30 1174 C 120.159 -1.09798 1.19929 0
M  V30 1175 O 121.343 -1.1577 1.4876 0
M  V30 1176 C 118.47 -1.75972 2.89398 0
M  V30 1177 C 117.516 -1.34295 4.04805 0
M  V30 1178 S 118.349 -0.360263 5.34287 0
M  V30 1179 C 119.505 -1.57473 6.05767 0
M  V30 1180 H 119.738 0.0228119 2.97291 0
M  V30 1181 H 117.271 0.130579 1.53847 0
M  V30 1182 H 119.229 -2.45256 3.2918 0
M  V30 1183 H 117.89 -2.30578 2.1329 0
M  V30 1184 H 117.083 -2.24349 4.51313 0
M  V30 1185 H 116.685 -0.729555 3.66815 0
M  V30 1186 H 118.977 -2.50875 6.29339 0
M  V30 1187 H 119.92 -1.15138 6.98676 0
M  V30 1188 H 120.328 -1.77212 5.35963 0
M  V30 1189 N 119.726 -1.57421 0.075193 0
M  V30 1190 C 120.673 -2.12915 -0.890843 0
M  V30 1191 C 121.643 -1.04252 -1.29309 0
M  V30 1192 O 122.828 -1.31933 -1.37834 0
M  V30 1193 C 119.968 -2.69795 -2.15186 0
M  V30 1194 C 119.081 -3.92624 -1.80194 0
M  V30 1195 C 118.216 -4.37736 -3.00933 0
M  V30 1196 C 117.255 -5.53205 -2.61974 0
M  V30 1197 N 116.392 -5.9326 -3.75483 0
M  V30 1198 H 121.232 -2.95156 -0.410735 0
M  V30 1199 H 118.769 -1.45854 -0.191086 0
M  V30 1200 H 120.727 -3.00883 -2.89008 0
M  V30 1201 H 119.357 -1.90313 -2.60731 0
M  V30 1202 H 118.409 -3.67977 -0.964218 0
M  V30 1203 H 119.721 -4.76482 -1.47534 0
M  V30 1204 H 118.875 -4.70503 -3.8303 0
M  V30 1205 H 117.614 -3.52739 -3.36789 0
M  V30 1206 H 116.619 -5.20086 -1.783 0
M  V30 1207 H 117.844 -6.39936 -2.27284 0
M  V30 1208 H 115.79 -5.11212 -4.11094 0
M  V30 1209 H 115.707 -6.71865 -3.46602 0
M  V30 1210 H 116.975 -6.30651 -4.58148 0
M  V30 1211 N 121.204 0.198386 -1.56346 0
M  V30 1212 C 122.429 0.939682 -1.84891 0
M  V30 1213 C 122.854 1.76202 -0.658369 0
M  V30 1214 O 122.212 1.76993 0.392851 0
M  V30 1215 C 122.26 1.81428 -3.11635 0
M  V30 1216 O 121.364 2.91265 -2.91956 0
M  V30 1217 H 120.705 0.264807 -0.608912 0
M  V30 1218 H 123.235 0.204695 -2.03573 0
M  V30 1219 H 123.245 2.21958 -3.42343 0
M  V30 1220 H 121.92 1.21004 -3.97908 0
M  V30 1221 H 120.497 2.54514 -2.72538 0
M  V30 1222 N 122.682 1.50554 0.465978 0
M  V30 1223 C 123.592 1.72585 1.58907 0
M  V30 1224 C 124.608 0.60911 1.6299 0
M  V30 1225 O 125.784 0.88804 1.80765 0
M  V30 1226 C 122.849 1.81995 2.95091 0
M  V30 1227 C 121.91 3.05751 3.01355 0
M  V30 1228 C 121.143 3.14702 4.31043 0
M  V30 1229 O 121.366 2.30313 5.21835 0
M  V30 1230 O 120.3 4.07468 4.43005 0
M  V30 1231 H 124.126 2.67799 1.43239 0
M  V30 1232 H 121.711 1.34711 0.646013 0
M  V30 1233 H 123.593 1.90335 3.75966 0
M  V30 1234 H 122.268 0.899659 3.10947 0
M  V30 1235 H 121.175 3.02908 2.19539 0
M  V30 1236 H 122.508 3.97375 2.90437 0
M  V30 1237 N 124.16 -0.719506 1.40217 0
M  V30 1238 C 125.408 -1.47641 1.3801 0
M  V30 1239 C 125.729 -1.94992 -0.018145 0
M  V30 1240 O 124.999 -1.70073 -0.972207 0
M  V30 1241 H 123.579 -0.547744 0.507923 0
M  V30 1242 H 126.241 -0.853187 1.75233 0
M  V30 1243 H 125.337 -2.35112 2.05253 0
M  V30 1244 N 125.638 -1.25649 -0.95132 0
M  V30 1245 C 126.568 -1.08808 -2.06599 0
M  V30 1246 C 127.549 0.00382547 -1.701 0
M  V30 1247 O 128.734 -0.166325 -1.93486 0
M  V30 1248 C 125.864 -0.709542 -3.39975 0
M  V30 1249 C 124.818 -1.75206 -3.90496 0
M  V30 1250 C 124.144 -1.22811 -5.20405 0
M  V30 1251 C 125.444 -3.15153 -4.16504 0
M  V30 1252 H 127.138 -2.02048 -2.20946 0
M  V30 1253 H 124.684 -0.972835 -1.06169 0
M  V30 1254 H 126.637 -0.578649 -4.17408 0
M  V30 1255 H 125.361 0.258556 -3.25575 0
M  V30 1256 H 124.02 -1.87145 -3.15234 0
M  V30 1257 H 123.668 -0.250145 -5.02378 0
M  V30 1258 H 123.368 -1.92492 -5.55176 0
M  V30 1259 H 124.892 -1.10968 -6.00432 0
M  V30 1260 H 126.306 -3.06349 -4.84586 0
M  V30 1261 H 124.703 -3.82333 -4.62538 0
M  V30 1262 H 125.773 -3.61966 -3.22658 0
M  V30 1263 N 127.117 1.15442 -1.07289 0
M  V30 1264 C 128.365 1.85845 -0.794096 0
M  V30 1265 C 128.686 1.82692 0.681809 0
M  V30 1266 O 127.956 1.26741 1.49377 0
M  V30 1267 H 126.536 0.688089 -0.290763 0
M  V30 1268 H 129.198 1.39947 -1.3565 0
M  V30 1269 H 128.294 2.91001 -1.12804 0
M  V30 1270 N 128.595 0.856903 1.32268 0
M  V30 1271 C 129.505 0.306131 2.32594 0
M  V30 1272 C 130.521 -0.577209 1.64147 0
M  V30 1273 O 131.697 -0.477043 1.95669 0
M  V30 1274 C 128.762 -0.494561 3.43154 0
M  V30 1275 C 127.823 0.415186 4.27288 0
M  V30 1276 C 127.056 -0.347387 5.32568 0
M  V30 1277 O 127.279 -1.57708 5.48165 0
M  V30 1278 O 126.213 0.287982 6.01211 0
M  V30 1279 H 130.039 1.13737 2.81598 0
M  V30 1280 H 127.624 0.619902 1.35932 0
M  V30 1281 H 129.506 -0.948944 4.10576 0
M  V30 1282 H 128.181 -1.30257 2.96336 0
M  V30 1283 H 127.088 0.917793 3.62667 0
M  V30 1284 H 128.421 1.18844 4.77637 0
M  V30 1285 O 130.112 -1.4275 0.755297 0
M  V30 1286 H 130.803 -1.91143 0.313685 0
M  V30 END ATOM
M  V30 BEGIN BOND
M  V30 END BOND
M  V30 END CTAB
M  END
$$$$
