drugbank_target|P09063 Dihydrolipoyl dehydrogenase (DB03147)
 OpenBabel12092120233D

  0  0  0     0  0            999 V3000
M  V30 BEGIN CTAB
M  V30 COUNTS 6840 6896 0 0 0
M  V30 BEGIN ATOM
M  V30 1 H -0.908 1.98254 -0.117106 0
M  V30 2 N 0 1.576 0 0
M  V30 3 C 0.933 2.03868 1.02534 0
M  V30 4 C 1.911 0.928543 1.3348 0
M  V30 5 O 3.095 1.19667 1.45644 0
M  V30 6 C 0.222 2.43627 2.35294 0
M  V30 7 C -0.732 3.65373 2.2001 0
M  V30 8 S 0.101 5.13292 1.52614 0
M  V30 9 C 1.257 5.56322 2.86805 0
M  V30 10 H 1.49 2.90518 0.631377 0
M  V30 11 H -0.977 1.52953 0.210867 0
M  V30 12 H 0.981 2.67203 3.11629 0
M  V30 13 H -0.358 1.57376 2.7183 0
M  V30 14 H -1.165 3.90944 3.18086 0
M  V30 15 H -1.563 3.418 1.51819 0
M  V30 16 H 0.729 5.58782 3.83104 0
M  V30 17 H 1.672 6.56266 2.65933 0
M  V30 18 H 2.08 4.83886 2.90714 0
M  V30 19 N 1.4781 -0.272755 1.55222 0
M  V30 20 C 2.4101 -1.35946 1.8453 0
M  V30 21 C 3.4231 -1.45525 0.729818 0
M  V30 22 O 4.6121 -1.47337 1.00767 0
M  V30 23 C 1.7121 -2.74069 1.99347 0
M  V30 24 C 0.8851 -2.87079 3.30007 0
M  V30 25 C -0.0559 -4.05879 3.34886 0
M  V30 26 O -1.0299 -3.96626 4.08261 0
M  V30 27 N 0.1721 -5.17857 2.62307 0
M  V30 28 H 2.9371 -1.11149 2.78327 0
M  V30 29 H 0.4981 -0.462869 1.55142 0
M  V30 30 H 2.4901 -3.51838 1.99981 0
M  V30 31 H 1.0601 -2.91688 1.12415 0
M  V30 32 H 0.2801 -1.96193 3.41909 0
M  V30 33 H 1.5681 -2.92701 4.16177 0
M  V30 34 H 0.9661 -5.28261 2.02377 0
M  V30 35 H -0.4769 -5.93855 2.68663 0
M  V30 36 N 2.9562 -1.48159 -0.537278 0
M  V30 37 C 3.8882 -1.58218 -1.65831 0
M  V30 38 C 4.9012 -0.466948 -1.5596 0
M  V30 39 O 6.0902 -0.73747 -1.62553 0
M  V30 40 C 3.1902 -1.48906 -3.04434 0
M  V30 41 C 2.3632 -2.75343 -3.3986 0
M  V30 42 C 1.4222 -2.59588 -4.57712 0
M  V30 43 O 0.4482 -3.33457 -4.61297 0
M  V30 44 N 1.6502 -1.68724 -5.55439 0
M  V30 45 H 4.4152 -2.54891 -1.57641 0
M  V30 46 H 1.9762 -1.4479 -0.724386 0
M  V30 47 H 3.9682 -1.36072 -3.81139 0
M  V30 48 H 2.5382 -0.602368 -3.06741 0
M  V30 49 H 1.7582 -3.02795 -2.52406 0
M  V30 50 H 3.0462 -3.5924 -3.60311 0
M  V30 51 H 2.4442 -1.07898 -5.55315 0
M  V30 52 H 1.0012 -1.61832 -6.3139 0
M  V30 53 N 4.4343 0.785586 -1.36625 0
M  V30 54 C 5.6623 1.57448 -1.3423 0
M  V30 55 C 6.0773 1.88649 0.0755653 0
M  V30 56 O 5.4343 1.50414 1.03354 0
M  V30 57 C 5.4853 2.89316 -2.16745 0
M  V30 58 O 5.2063 2.59459 -3.53005 0
M  V30 59 C 6.7073 3.83606 -2.22174 0
M  V30 60 H 3.9273 0.488226 -0.4603 0
M  V30 61 H 6.4713 0.974733 -1.79775 0
M  V30 62 H 4.6263 3.4575 -1.74745 0
M  V30 63 H 5.0403 3.43804 -3.96105 0
M  V30 64 H 6.5143 4.73181 -2.8426 0
M  V30 65 H 6.9913 4.21734 -1.22627 0
M  V30 66 H 7.5973 3.33104 -2.64427 0
M  V30 67 N 5.9124 1.20967 1.01018 0
M  V30 68 C 7.1614 1.01796 1.74128 0
M  V30 69 C 7.4744 -0.449691 1.90361 0
M  V30 70 O 8.6804 -0.76068 2.60626 0
M  V30 71 C 7.1364 1.7727 3.13215 0
M  V30 72 C 6.7444 3.28171 3.04972 0
M  V30 73 C 8.4884 1.66489 3.90489 0
M  V30 74 C 6.3954 3.96156 4.39107 0
M  V30 75 H 5.3254 0.377276 0.652824 0
M  V30 76 H 7.9764 1.44651 1.12909 0
M  V30 77 H 6.3584 1.27205 3.75013 0
M  V30 78 H 7.5324 3.85499 2.52443 0
M  V30 79 H 5.8474 3.39437 2.41188 0
M  V30 80 H 8.4444 2.14617 4.89738 0
M  V30 81 H 8.7874 0.6222 4.11624 0
M  V30 82 H 9.3204 2.14003 3.35332 0
M  V30 83 H 6.0594 5.00604 4.23174 0
M  V30 84 H 5.5794 3.43617 4.91617 0
M  V30 85 H 7.2584 4.00774 5.07926 0
M  V30 86 N 7.3905 -1.2043 1.01659 0
M  V30 87 C 8.3225 -2.22626 0.544988 0
M  V30 88 C 9.3355 -1.58479 -0.372609 0
M  V30 89 O 10.5245 -1.77679 -0.170958 0
M  V30 90 C 7.6245 -3.38141 -0.22663 0
M  V30 91 C 6.7975 -4.31877 0.692876 0
M  V30 92 C 5.8565 -5.26191 -0.0311616 0
M  V30 93 O 4.8825 -5.6612 0.591343 0
M  V30 94 N 6.0845 -5.65618 -1.30601 0
M  V30 95 H 8.8495 -2.63716 1.42388 0
M  V30 96 H 6.4105 -1.34971 0.894116 0
M  V30 97 H 8.4025 -3.98239 -0.72024 0
M  V30 98 H 6.9725 -2.95943 -1.00681 0
M  V30 99 H 6.1925 -3.69746 1.36679 0
M  V30 100 H 7.4805 -4.91426 1.31824 0
M  V30 101 H 6.8785 -5.3519 -1.83269 0
M  V30 102 H 5.4355 -6.28025 -1.74435 0
M  V30 103 N 8.8686 -0.792821 -1.36206 0
M  V30 104 C 10.0966 -0.378825 -2.03402 0
M  V30 105 C 10.5116 1.00586 -1.59774 0
M  V30 106 O 9.8686 1.64574 -0.788764 0
M  V30 107 C 9.9196 -0.43683 -3.58851 0
M  V30 108 O 9.6406 -1.76691 -4.00889 0
M  V30 109 C 11.1416 -0.0138943 -4.43298 0
M  V30 110 H 8.3616 -0.155673 -0.652692 0
M  V30 111 H 10.9056 -1.07261 -1.74113 0
M  V30 112 H 9.0606 0.208575 -3.86838 0
M  V30 113 H 9.4746 -1.72011 -4.95492 0
M  V30 114 H 10.9486 -0.105615 -5.51899 0
M  V30 115 H 11.4256 1.03915 -4.2673 0
M  V30 116 H 12.0316 -0.63192 -4.20579 0
M  V30 117 N 10.3467 1.47872 -0.545128 0
M  V30 118 C 11.5747 2.06889 -0.021084 0
M  V30 119 C 11.9897 1.39955 1.2672 0
M  V30 120 O 11.3467 0.492036 1.75742 0
M  V30 121 C 11.3977 3.60996 0.190817 0
M  V30 122 O 11.1187 4.25419 -1.04644 0
M  V30 123 C 12.6197 4.36849 0.753521 0
M  V30 124 H 9.8397 0.669785 -0.0403635 0
M  V30 125 H 12.3837 1.90049 -0.755095 0
M  V30 126 H 10.5387 3.77391 0.87492 0
M  V30 127 H 10.9527 5.17785 -0.836611 0
M  V30 128 H 12.4267 5.45399 0.851139 0
M  V30 129 H 12.9037 4.02306 1.762 0
M  V30 130 H 13.5097 4.25169 0.105503 0
M  V30 131 N 11.8248 0.280983 1.55075 0
M  V30 132 C 12.7548 -0.597469 2.25727 0
M  V30 133 C 13.7358 -1.15417 1.24952 0
M  V30 134 O 14.9208 -1.18722 1.53684 0
M  V30 135 C 12.0508 -1.7789 2.98283 0
M  V30 136 C 11.0048 -1.35347 4.06036 0
M  V30 137 C 10.3308 -2.61846 4.66198 0
M  V30 138 C 11.6308 -0.499354 5.19907 0
M  V30 139 H 13.3248 -0.00824265 2.99399 0
M  V30 140 H 10.8708 -0.0025244 1.44 0
M  V30 141 H 12.8238 -2.39937 3.46422 0
M  V30 142 H 11.5478 -2.39405 2.22155 0
M  V30 143 H 10.2068 -0.756156 3.58717 0
M  V30 144 H 9.8548 -3.21632 3.86732 0
M  V30 145 H 9.5548 -2.3409 5.38958 0
M  V30 146 H 11.0788 -3.24732 5.1709 0
M  V30 147 H 12.4928 -1.02498 5.64063 0
M  V30 148 H 10.8898 -0.316424 5.99265 0
M  V30 149 H 11.9598 0.480459 4.82514 0
M  V30 150 N 13.3029 -1.57598 0.00835791 0
M  V30 151 C 14.2329 -2.1198 -0.979113 0
M  V30 152 C 15.2139 -1.03091 -1.35301 0
M  V30 153 O 16.3989 -1.30818 -1.43528 0
M  V30 154 C 13.5289 -2.62995 -2.26828 0
M  V30 155 C 12.4829 -3.76485 -2.03576 0
M  V30 156 C 11.8089 -4.13846 -3.38579 0
M  V30 157 C 13.1089 -5.0342 -1.39161 0
M  V30 158 H 14.8029 -2.94738 -0.526281 0
M  V30 159 H 12.3489 -1.41783 -0.251704 0
M  V30 160 H 14.3019 -2.99669 -2.96271 0
M  V30 161 H 13.0259 -1.7737 -2.7424 0
M  V30 162 H 11.6849 -3.40217 -1.36557 0
M  V30 163 H 11.3329 -3.25232 -3.83709 0
M  V30 164 H 11.0329 -4.90312 -3.23834 0
M  V30 165 H 12.5569 -4.53086 -4.09323 0
M  V30 166 H 13.9709 -5.37812 -1.98573 0
M  V30 167 H 12.3679 -5.84746 -1.34878 0
M  V30 168 H 13.4379 -4.83548 -0.361868 0
M  V30 169 N 14.781 0.264519 -1.55364 0
M  V30 170 C 16.03 0.992812 -1.75574 0
M  V30 171 C 16.343 1.87142 -0.568979 0
M  V30 172 O 17.549 2.63513 -0.653682 0
M  V30 173 C 16.005 1.81519 -3.10771 0
M  V30 174 C 15.613 0.984839 -4.37041 0
M  V30 175 C 17.357 2.53727 -3.40327 0
M  V30 176 C 15.264 1.80209 -5.63275 0
M  V30 177 H 14.194 0.374412 -0.65447 0
M  V30 178 H 16.845 0.248138 -1.81815 0
M  V30 179 H 15.227 2.60115 -2.98591 0
M  V30 180 H 16.401 0.242455 -4.60162 0
M  V30 181 H 14.716 0.37691 -4.14691 0
M  V30 182 H 17.313 3.15292 -4.3185 0
M  V30 183 H 17.656 3.24447 -2.60845 0
M  V30 184 H 18.189 1.82156 -3.53644 0
M  V30 185 H 14.928 1.13896 -6.45529 0
M  V30 186 H 14.448 2.52022 -5.44284 0
M  V30 187 H 16.127 2.37364 -6.01887 0
M  V30 188 N 16.2591 1.48442 0.529413 0
M  V30 189 C 17.5081 1.55742 1.28169 0
M  V30 190 C 17.8211 0.236511 1.94165 0
M  V30 191 O 19.0271 0.187761 2.7085 0
M  V30 192 C 17.4831 2.74667 2.32564 0
M  V30 193 C 17.0911 4.13402 1.72636 0
M  V30 194 C 18.8351 2.9128 3.08798 0
M  V30 195 C 16.7421 5.23587 2.74975 0
M  V30 196 H 15.6721 0.579796 0.48203 0
M  V30 197 H 18.3231 1.74776 0.559056 0
M  V30 198 H 16.7051 2.49067 3.07866 0
M  V30 199 H 17.8791 4.49022 1.03519 0
M  V30 200 H 16.1941 4.0191 1.08892 0
M  V30 201 H 18.7911 3.70767 3.85274 0
M  V30 202 H 19.1341 2.00757 3.64695 0
M  V30 203 H 19.6671 3.16782 2.40611 0
M  V30 204 H 16.4061 6.16076 2.23897 0
M  V30 205 H 15.9261 4.92454 3.42417 0
M  V30 206 H 17.6051 5.51724 3.37949 0
M  V30 207 N 17.7372 -0.778329 1.37039 0
M  V30 208 C 18.9852 -1.53361 1.31623 0
M  V30 209 C 19.3062 -1.94739 -0.100831 0
M  V30 210 O 18.5762 -1.65797 -1.04347 0
M  V30 211 H 17.1562 -0.568794 0.484234 0
M  V30 212 H 19.8182 -0.926742 1.71457 0
M  V30 213 H 18.9142 -2.43606 1.95096 0
M  V30 214 N 19.2153 -1.21501 -1.00376 0
M  V30 215 C 20.4633 -1.03095 -1.73827 0
M  V30 216 C 20.7843 0.436341 -1.90055 0
M  V30 217 O 20.0543 1.31466 -1.45236 0
M  V30 218 H 18.6343 -0.378487 -0.644016 0
M  V30 219 H 21.2963 -1.52831 -1.20949 0
M  V30 220 H 20.3923 -1.49991 -2.73695 0
M  V30 221 N 20.6934 1.19889 -1.02296 0
M  V30 222 C 21.9414 1.89046 -0.714558 0
M  V30 223 C 22.2624 1.79636 0.758681 0
M  V30 224 O 21.5324 1.20292 1.54618 0
M  V30 225 H 20.1124 0.699802 -0.261317 0
M  V30 226 H 22.7744 1.45574 -1.29592 0
M  V30 227 H 21.8704 2.95524 -1.0036 0
M  V30 228 N 22.1715 0.800033 1.35784 0
M  V30 229 C 23.5825 0.439142 1.81462 0
M  V30 230 C 23.9335 -1.03813 1.66485 0
M  V30 231 O 23.0585 -1.80626 1.19177 0
M  V30 232 C 23.6535 0.790314 3.29453 0
M  V30 233 C 22.2125 0.482111 3.733 0
M  V30 234 C 21.3595 1.01938 2.57883 0
M  V30 235 H 24.3105 0.992254 1.23855 0
M  V30 236 H 24.3315 0.0853677 3.80404 0
M  V30 237 H 23.8435 1.86554 3.40322 0
M  V30 238 H 21.9445 -0.584652 3.67984 0
M  V30 239 H 22.0575 1.01015 4.6833 0
M  V30 240 H 20.4215 0.442043 2.50835 0
M  V30 241 H 21.2045 2.10059 2.71533 0
M  V30 242 N 23.6496 -1.47581 0.552962 0
M  V30 243 C 24.8976 -2.02082 0.0272703 0
M  V30 244 C 25.2186 -1.4301 -1.32563 0
M  V30 245 O 24.4886 -0.603745 -1.86365 0
M  V30 246 H 23.0686 -0.746966 0.00709182 0
M  V30 247 H 25.7306 -1.81033 0.722008 0
M  V30 248 H 24.8266 -3.12034 -0.0639951 0
M  V30 249 N 25.1277 -0.289203 -1.54924 0
M  V30 250 C 26.3757 0.322879 -1.99504 0
M  V30 251 C 26.6967 1.55313 -1.1791 0
M  V30 252 O 25.9667 1.94001 -0.272097 0
M  V30 253 H 24.5467 0.122291 -0.736922 0
M  V30 254 H 27.2087 -0.397802 -1.90797 0
M  V30 255 H 26.3047 0.603061 -3.06218 0
M  V30 256 N 26.6058 1.57591 -0.0167156 0
M  V30 257 C 27.8358 1.95292 0.674149 0
M  V30 258 C 28.2438 0.891097 1.66901 0
M  V30 259 O 27.5868 -0.136908 1.83189 0
M  V30 260 C 27.6488 3.29072 1.44747 0
M  V30 261 C 27.3128 4.52879 0.612331 0
M  V30 262 C 28.3098 5.1979 -0.107126 0
M  V30 263 C 25.9948 4.99242 0.553381 0
M  V30 264 C 27.9888 6.31375 -0.874339 0
M  V30 265 C 25.6758 6.10713 -0.217546 0
M  V30 266 C 26.6738 6.76637 -0.930123 0
M  V30 267 O 26.3618 7.85969 -1.68844 0
M  V30 268 H 26.0938 0.648275 0.191615 0
M  V30 269 H 28.6478 2.05284 -0.0690148 0
M  V30 270 H 26.8778 3.15535 2.2355 0
M  V30 271 H 28.5668 3.51764 2.02526 0
M  V30 272 H 29.3328 4.84948 -0.0708392 0
M  V30 273 H 25.2118 4.47744 1.09757 0
M  V30 274 H 28.7558 6.82764 -1.43106 0
M  V30 275 H 24.6528 6.44994 -0.255593 0
M  V30 276 H 25.4208 8.02571 -1.6069 0
M  V30 277 N 28.0839 -0.256276 1.55502 0
M  V30 278 C 29.3299 -0.987079 1.77157 0
M  V30 279 C 29.6629 -1.85327 0.580315 0
M  V30 280 O 28.9379 -1.89874 -0.421686 0
M  V30 281 C 29.2209 -1.85553 3.08613 0
M  V30 282 C 29.0739 -1.01816 4.38125 0
M  V30 283 C 30.3929 -2.8397 3.36228 0
M  V30 284 H 27.5119 -0.357428 0.644526 0
M  V30 285 H 30.1539 -0.258239 1.88237 0
M  V30 286 H 28.3039 -2.47695 2.99298 0
M  V30 287 H 29.9759 -0.416159 4.59419 0
M  V30 288 H 28.2189 -0.322178 4.32602 0
M  V30 289 H 28.8899 -1.65939 5.26468 0
M  V30 290 H 31.3659 -2.31964 3.45445 0
M  V30 291 H 30.2419 -3.41864 4.29442 0
M  V30 292 H 30.5029 -3.59955 2.56681 0
M  V30 293 N 29.562 -1.4872 -0.521534 0
M  V30 294 C 30.525 -1.63379 -1.60748 0
M  V30 295 C 31.525 -0.50661 -1.52611 0
M  V30 296 O 32.715 -0.772601 -1.5613 0
M  V30 297 C 29.847 -1.61192 -3.00383 0
M  V30 298 H 31.04 -2.60217 -1.49087 0
M  V30 299 H 28.593 -1.37444 -0.744235 0
M  V30 300 H 29.328 -0.65863 -3.17541 0
M  V30 301 H 29.113 -2.43032 -3.07698 0
M  V30 302 H 30.603 -1.7466 -3.7932 0
M  V30 303 N 31.0401 0.771051 -1.3745 0
M  V30 304 C 32.0031 1.86598 -1.33093 0
M  V30 305 C 33.0031 1.59076 -0.234845 0
M  V30 306 O 34.1931 1.67145 -0.490732 0
M  V30 307 C 31.3251 3.23747 -1.06773 0
M  V30 308 H 32.5181 1.91873 -2.30488 0
M  V30 309 H 30.0711 0.970876 -1.2249 0
M  V30 310 H 30.8061 3.24148 -0.099129 0
M  V30 311 H 30.5911 3.45115 -1.86112 0
M  V30 312 H 32.0811 4.03824 -1.06377 0
M  V30 313 N 32.5182 1.22032 0.997298 0
M  V30 314 C 33.7672 1.03637 1.73038 0
M  V30 315 C 34.0802 -0.429475 1.90827 0
M  V30 316 O 35.2862 -0.732995 2.61418 0
M  V30 317 C 33.7422 1.80582 3.11317 0
M  V30 318 C 33.3502 3.31387 3.01474 0
M  V30 319 C 35.0942 1.70621 3.88701 0
M  V30 320 C 33.0012 4.00791 4.3488 0
M  V30 321 H 31.9312 0.384179 0.648785 0
M  V30 322 H 34.5822 1.4584 1.11368 0
M  V30 323 H 32.9642 1.31175 3.73643 0
M  V30 324 H 34.1382 3.88155 2.4834 0
M  V30 325 H 32.4532 3.41976 2.37575 0
M  V30 326 H 35.0502 2.19799 4.87434 0
M  V30 327 H 35.3932 0.665823 4.10941 0
M  V30 328 H 35.9262 2.17547 3.33044 0
M  V30 329 H 32.6652 5.05064 4.1784 0
M  V30 330 H 32.1852 3.48811 4.87945 0
M  V30 331 H 33.8642 4.06139 5.03647 0
M  V30 332 N 33.9963 -1.19345 1.0293 0
M  V30 333 C 35.4123 -1.41069 0.746446 0
M  V30 334 C 35.6123 -1.90078 -0.668776 0
M  V30 335 O 34.6683 -2.0778 -1.4347 0
M  V30 336 C 35.9813 -2.42141 1.78292 0
M  V30 337 C 37.5293 -2.55887 1.80252 0
M  V30 338 C 38.0043 -3.60214 2.8286 0
M  V30 339 N 39.4953 -3.67711 2.81679 0
M  V30 340 C 40.2303 -4.48128 3.57727 0
M  V30 341 N 39.7263 -5.32248 4.43491 0
M  V30 342 N 41.5193 -4.42782 3.46267 0
M  V30 343 H 33.6703 -0.858536 1.94275 0
M  V30 344 H 35.9333 -0.439541 0.839945 0
M  V30 345 H 35.6393 -2.13155 2.79746 0
M  V30 346 H 35.5133 -3.41323 1.60557 0
M  V30 347 H 37.9003 -2.84196 0.794757 0
M  V30 348 H 37.9813 -1.56858 2.02062 0
M  V30 349 H 37.6253 -3.32647 3.83807 0
M  V30 350 H 37.5553 -4.58895 2.58307 0
M  V30 351 H 40.0463 -3.07634 2.19476 0
M  V30 352 H 40.3593 -5.90729 4.98256 0
M  V30 353 H 38.7043 -5.31707 4.47564 0
M  V30 354 H 41.8953 -3.76107 2.78677 0
M  V30 355 H 42.0683 -5.05215 4.05785 0
M  V30 356 N 35.4744 -0.807222 -1.35358 0
M  V30 357 C 36.4374 -0.223665 -2.28106 0
M  V30 358 C 37.4374 0.589354 -1.4961 0
M  V30 359 O 38.6274 0.407745 -1.69361 0
M  V30 360 C 35.7594 0.688149 -3.33882 0
M  V30 361 H 36.9524 -1.04169 -2.81227 0
M  V30 362 H 34.5054 -0.577921 -1.45223 0
M  V30 363 H 35.2404 1.52984 -2.85948 0
M  V30 364 H 35.0254 0.10687 -3.91954 0
M  V30 365 H 36.5154 1.09075 -4.03104 0
M  V30 366 N 36.9525 1.47285 -0.560781 0
M  V30 367 C 38.2005 2.02064 -0.0379868 0
M  V30 368 C 38.5215 1.43711 1.31803 0
M  V30 369 O 37.7915 0.61362 1.86042 0
M  V30 370 H 36.3715 0.746918 -0.0110531 0
M  V30 371 H 39.0335 1.80648 -0.731598 0
M  V30 372 H 38.1295 3.12064 0.0474463 0
M  V30 373 N 38.4306 0.297415 1.54768 0
M  V30 374 C 39.3626 -0.613881 2.20826 0
M  V30 375 C 40.3756 -1.10032 1.19987 0
M  V30 376 O 41.5646 -1.01839 1.46598 0
M  V30 377 C 38.6646 -1.852 2.83821 0
M  V30 378 C 37.8376 -1.50865 4.10559 0
M  V30 379 C 36.8966 -2.60154 4.57391 0
M  V30 380 O 35.9226 -2.25398 5.2267 0
M  V30 381 N 37.1246 -3.90629 4.29406 0
M  V30 382 H 39.8896 -0.048389 2.99661 0
M  V30 383 H 37.4506 0.11946 1.61459 0
M  V30 384 H 39.4426 -2.57652 3.12086 0
M  V30 385 H 38.0126 -2.32597 2.08847 0
M  V30 386 H 37.2326 -0.616925 3.89343 0
M  V30 387 H 38.5206 -1.25458 4.9309 0
M  V30 388 H 37.9186 -4.21677 3.77101 0
M  V30 389 H 36.4756 -4.59391 4.62388 0
M  V30 390 N 39.9087 -1.5758 0.0250728 0
M  V30 391 C 40.8387 -2.13007 -0.956575 0
M  V30 392 C 41.8197 -1.0452 -1.342 0
M  V30 393 O 43.0047 -1.32332 -1.42133 0
M  V30 394 C 40.1347 -2.65386 -2.24026 0
M  V30 395 C 39.0887 -3.78623 -1.99571 0
M  V30 396 C 38.4147 -4.17414 -3.3417 0
M  V30 397 C 39.7147 -5.04867 -1.33814 0
M  V30 398 H 41.4087 -2.9528 -0.494991 0
M  V30 399 H 38.9547 -1.42042 -0.236651 0
M  V30 400 H 40.9077 -3.02794 -2.93076 0
M  V30 401 H 39.6317 -1.80268 -2.72343 0
M  V30 402 H 38.2907 -3.41646 -1.32941 0
M  V30 403 H 37.9387 -3.29284 -3.80238 0
M  V30 404 H 37.6387 -4.93719 -3.18615 0
M  V30 405 H 39.1627 -4.57402 -4.04495 0
M  V30 406 H 40.5767 -5.39888 -1.92857 0
M  V30 407 H 38.9737 -5.86144 -1.28669 0
M  V30 408 H 40.0437 -4.83904 -0.310561 0
M  V30 409 N 41.3868 0.248026 -1.55636 0
M  V30 410 C 42.6348 0.974295 -1.77065 0
M  V30 411 C 42.9558 1.85897 -0.588849 0
M  V30 412 O 42.2258 1.91868 0.395407 0
M  V30 413 H 40.8058 0.362733 -0.653019 0
M  V30 414 H 43.4678 0.266244 -1.93073 0
M  V30 415 H 42.5638 1.59667 -2.68166 0
M  V30 416 N 42.8649 1.48995 0.513639 0
M  V30 417 C 44.1139 1.57093 1.2651 0
M  V30 418 C 44.4269 0.257091 1.93903 0
M  V30 419 O 45.6329 0.216478 2.70636 0
M  V30 420 C 44.0889 2.77118 2.29638 0
M  V30 421 C 43.6969 4.15209 1.68241 0
M  V30 422 C 45.4409 2.94538 3.05692 0
M  V30 423 C 43.3479 5.26474 2.69406 0
M  V30 424 H 42.2779 0.584876 0.475854 0
M  V30 425 H 44.9289 1.7536 0.540487 0
M  V30 426 H 43.3109 2.52319 3.05207 0
M  V30 427 H 44.4849 4.50094 0.987505 0
M  V30 428 H 42.7999 4.03042 1.04623 0
M  V30 429 H 45.3969 3.74832 3.8132 0
M  V30 430 H 45.7399 2.04614 3.62545 0
M  V30 431 H 46.2729 3.19316 2.37238 0
M  V30 432 H 43.0119 6.18417 2.17351 0
M  V30 433 H 42.5319 4.96058 3.37175 0
M  V30 434 H 44.2109 5.55277 3.32078 0
M  V30 435 N 44.343 -0.763751 1.37857 0
M  V30 436 C 45.754 -1.3405 1.29952 0
M  V30 437 C 46.105 -1.96138 -0.0492898 0
M  V30 438 O 45.23 -1.94372 -0.951239 0
M  V30 439 C 45.825 -2.43729 2.35333 0
M  V30 440 C 44.384 -2.97151 2.31037 0
M  V30 441 C 43.531 -1.70438 2.18738 0
M  V30 442 H 46.482 -0.563396 1.48363 0
M  V30 443 H 46.503 -3.23412 2.00462 0
M  V30 444 H 46.015 -1.9851 3.33489 0
M  V30 445 H 44.116 -3.46724 1.3643 0
M  V30 446 H 44.229 -3.52221 3.24772 0
M  V30 447 H 42.593 -1.93673 1.65418 0
M  V30 448 H 43.376 -1.27312 3.18821 0
M  V30 449 N 45.8211 -1.22559 -0.990812 0
M  V30 450 C 47.0491 -1.07779 -1.76611 0
M  V30 451 C 47.4641 0.371513 -1.85109 0
M  V30 452 O 46.8211 1.25737 -1.32274 0
M  V30 453 C 46.8721 -1.68512 -3.19822 0
M  V30 454 O 46.5931 -3.07774 -3.1178 0
M  V30 455 C 48.0941 -1.59035 -4.13791 0
M  V30 456 H 45.3141 -0.377729 -0.554583 0
M  V30 457 H 47.8581 -1.62195 -1.24551 0
M  V30 458 H 46.0131 -1.18154 -3.68942 0
M  V30 459 H 46.4271 -3.37062 -4.01858 0
M  V30 460 H 47.9011 -2.0625 -5.1202 0
M  V30 461 H 48.3781 -0.547273 -4.35777 0
M  V30 462 H 48.9841 -2.08709 -3.70568 0
M  V30 463 N 47.2992 1.18797 -1.03562 0
M  V30 464 C 48.5452 1.8893 -0.737113 0
M  V30 465 C 48.8782 1.79837 0.732956 0
M  V30 466 O 48.1532 1.19525 1.5344 0
M  V30 467 C 48.4362 3.39607 -1.19745 0
M  V30 468 C 48.2892 3.57537 -2.72924 0
M  V30 469 C 49.6082 4.33069 -0.783526 0
M  V30 470 H 46.7272 0.686057 -0.269249 0
M  V30 471 H 49.3692 1.39797 -1.28673 0
M  V30 472 H 47.5192 3.81583 -0.729855 0
M  V30 473 H 49.1912 3.24688 -3.27682 0
M  V30 474 H 47.4342 3.00363 -3.12993 0
M  V30 475 H 48.1052 4.63238 -3.00191 0
M  V30 476 H 50.5812 3.98846 -1.18581 0
M  V30 477 H 49.4572 5.3707 -1.13343 0
M  V30 478 H 49.7182 4.40986 0.313681 0
M  V30 479 N 48.7773 0.814389 1.34928 0
M  V30 480 C 49.7073 0.244827 2.32213 0
M  V30 481 C 50.6883 -0.634024 1.57842 0
M  V30 482 O 51.8733 -0.562676 1.8587 0
M  V30 483 C 49.0033 -0.601106 3.42058 0
M  V30 484 C 47.9573 0.179896 4.27622 0
M  V30 485 C 47.2833 -0.788237 5.28858 0
M  V30 486 C 48.5833 1.38329 5.03649 0
M  V30 487 H 50.2773 1.05763 2.80097 0
M  V30 488 H 47.8233 0.510029 1.34665 0
M  V30 489 H 49.7763 -1.00968 4.09125 0
M  V30 490 H 48.5003 -1.44688 2.92802 0
M  V30 491 H 47.1593 0.569739 3.62146 0
M  V30 492 H 46.8073 -1.62973 4.75866 0
M  V30 493 H 46.5073 -0.269942 5.8698 0
M  V30 494 H 48.0313 -1.19485 5.98795 0
M  V30 495 H 49.4453 1.04918 5.63618 0
M  V30 496 H 47.8423 1.83662 5.71304 0
M  V30 497 H 48.9123 2.16592 4.33839 0
M  V30 498 N 50.2554 -1.46986 0.568584 0
M  V30 499 C 51.5014 -2.02741 0.0488709 0
M  V30 500 C 51.8344 -1.44077 -1.30214 0
M  V30 501 O 51.1094 -0.600552 -1.84996 0
M  V30 502 C 51.3924 -3.60086 -0.032047 0
M  V30 503 C 51.2454 -4.29162 1.34686 0
M  V30 504 C 52.5644 -4.33838 -0.739798 0
M  V30 505 H 49.6834 -0.736749 0.0192338 0
M  V30 506 H 52.3254 -1.75289 0.733065 0
M  V30 507 H 50.4754 -3.83606 -0.61473 0
M  V30 508 H 52.1474 -4.16948 1.97362 0
M  V30 509 H 50.3904 -3.89073 1.91846 0
M  V30 510 H 51.0614 -5.37826 1.24285 0
M  V30 511 H 53.5374 -4.15378 -0.244939 0
M  V30 512 H 52.4134 -5.43537 -0.765406 0
M  V30 513 H 52.6744 -4.03875 -1.79827 0
M  V30 514 N 51.7335 -0.305618 -1.54608 0
M  V30 515 C 52.6435 0.57778 -2.27374 0
M  V30 516 C 53.6595 1.14451 -1.31061 0
M  V30 517 O 54.8355 1.16831 -1.6405 0
M  V30 518 C 51.9005 1.73123 -3.00382 0
M  V30 519 C 50.9615 1.19812 -4.12242 0
M  V30 520 C 50.1945 2.2966 -4.81759 0
M  V30 521 O 50.4175 3.49651 -4.50666 0
M  V30 522 O 49.3515 1.96091 -5.69062 0
M  V30 523 H 53.1775 -0.012624 -3.03697 0
M  V30 524 H 50.7625 -0.0719184 -1.49227 0
M  V30 525 H 52.6445 2.40315 -3.4616 0
M  V30 526 H 51.3195 2.30815 -2.26949 0
M  V30 527 H 50.2265 0.491798 -3.70853 0
M  V30 528 H 51.5595 0.666566 -4.87666 0
M  V30 529 N 53.2116 1.57565 -0.0334293 0
M  V30 530 C 54.4596 1.91598 0.642999 0
M  V30 531 C 54.7806 0.910847 1.7242 0
M  V30 532 O 54.0506 -0.0469931 1.95844 0
M  V30 533 H 52.6306 0.707228 0.240496 0
M  V30 534 H 55.2926 1.94726 -0.0822488 0
M  V30 535 H 54.3886 2.92336 1.09298 0
M  V30 536 N 54.6897 -0.239769 1.55765 0
M  V30 537 C 55.6217 -1.32001 1.87372 0
M  V30 538 C 56.6347 -1.43944 0.760522 0
M  V30 539 O 57.8237 -1.45167 1.0387 0
M  V30 540 C 54.9237 -2.69779 2.05115 0
M  V30 541 C 54.0967 -2.80014 3.36022 0
M  V30 542 C 53.1557 -3.98684 3.4342 0
M  V30 543 O 52.1817 -3.87877 4.16582 0
M  V30 544 N 53.3837 -5.12176 2.73232 0
M  V30 545 H 56.1487 -1.0522 2.80622 0
M  V30 546 H 53.7097 -0.429857 1.56089 0
M  V30 547 H 55.7017 -3.47517 2.07399 0
M  V30 548 H 54.2717 -2.89237 1.18577 0
M  V30 549 H 53.4917 -1.88896 3.45994 0
M  V30 550 H 54.7797 -2.83808 4.22292 0
M  V30 551 H 54.1777 -5.2385 2.13536 0
M  V30 552 H 52.7347 -5.88022 2.81199 0
M  V30 553 N 56.1678 -1.49265 -0.50573 0
M  V30 554 C 57.1308 -1.65075 -1.59006 0
M  V30 555 C 58.1308 -0.522768 -1.52065 0
M  V30 556 O 59.3208 -0.789117 -1.55302 0
M  V30 557 C 56.4528 -1.64369 -2.98656 0
M  V30 558 H 57.6458 -2.61784 -1.46319 0
M  V30 559 H 55.1988 -1.38226 -0.729616 0
M  V30 560 H 55.9338 -0.692272 -3.16825 0
M  V30 561 H 55.7188 -2.46282 -3.05103 0
M  V30 562 H 57.2088 -1.78674 -3.77446 0
M  V30 563 N 57.6459 0.756429 -1.3826 0
M  V30 564 C 58.5759 1.88374 -1.37976 0
M  V30 565 C 59.5569 1.68311 -0.246082 0
M  V30 566 O 60.7419 1.88944 -0.44874 0
M  V30 567 C 57.8719 3.25864 -1.20125 0
M  V30 568 C 56.8259 3.60523 -2.30666 0
M  V30 569 C 56.1519 4.9672 -1.97923 0
M  V30 570 C 57.4519 3.65692 -3.72916 0
M  V30 571 H 59.1459 1.88869 -2.32312 0
M  V30 572 H 56.6919 0.907272 -1.11824 0
M  V30 573 H 58.6449 4.0438 -1.18552 0
M  V30 574 H 57.3689 3.25841 -0.222498 0
M  V30 575 H 56.0279 2.84324 -2.3142 0
M  V30 576 H 55.6759 4.93253 -0.985393 0
M  V30 577 H 55.3759 5.20878 -2.71955 0
M  V30 578 H 56.8999 5.77618 -1.97964 0
M  V30 579 H 58.3139 4.34328 -3.74208 0
M  V30 580 H 56.7109 4.01358 -4.4613 0
M  V30 581 H 57.7809 2.65987 -4.05436 0
M  V30 582 N 59.124 1.23083 0.984299 0
M  V30 583 C 60.372 1.05848 1.72165 0
M  V30 584 C 60.693 -0.406049 1.90726 0
M  V30 585 O 59.963 -1.29139 1.47309 0
M  V30 586 H 58.543 0.388685 0.637913 0
M  V30 587 H 61.205 1.54736 1.18503 0
M  V30 588 H 60.301 1.54327 2.71274 0
M  V30 589 N 60.6021 -1.18246 1.0419 0
M  V30 590 C 61.8501 -1.87886 0.744543 0
M  V30 591 C 62.1711 -1.8082 -0.730006 0
M  V30 592 O 61.4411 -1.22736 -1.52685 0
M  V30 593 H 60.0211 -0.695556 0.272417 0
M  V30 594 H 62.6831 -1.43494 1.31892 0
M  V30 595 H 61.7791 -2.9389 1.05049 0
M  V30 596 N 62.0802 -0.821533 -1.34494 0
M  V30 597 C 63.3082 -0.421884 -2.02553 0
M  V30 598 C 63.7232 0.971745 -1.61872 0
M  V30 599 O 63.0802 1.62864 -0.823496 0
M  V30 600 C 63.1312 -0.51285 -3.57844 0
M  V30 601 O 62.8522 -1.85155 -3.97051 0
M  V30 602 C 64.3532 -0.107921 -4.43169 0
M  V30 603 H 61.5732 -0.169482 -0.649243 0
M  V30 604 H 64.1172 -1.1093 -1.71798 0
M  V30 605 H 62.2722 0.126474 -3.87193 0
M  V30 606 H 62.6862 -1.82482 -4.91732 0
M  V30 607 H 64.1602 -0.222657 -5.51551 0
M  V30 608 H 64.6372 0.948401 -4.28838 0
M  V30 609 H 65.2432 -0.720989 -4.19144 0
M  V30 610 N 63.5583 1.46682 -0.576371 0
M  V30 611 C 64.7983 2.04306 -0.0621356 0
M  V30 612 C 65.1623 1.4389 1.2712 0
M  V30 613 O 66.3633 1.92675 1.87429 0
M  V30 614 C 64.6343 3.57399 0.00927922 0
M  V30 615 S 66.1933 4.36309 0.466859 0
M  V30 616 H 63.0113 0.710167 -0.0344016 0
M  V30 617 H 65.6133 1.79807 -0.767437 0
M  V30 618 H 64.3173 3.98889 -0.965178 0
M  V30 619 H 63.8483 3.86424 0.737547 0
M  V30 620 H 65.8633 4.6533 1.72287 0
M  V30 621 N 65.0364 0.313813 1.54444 0
M  V30 622 C 65.9664 -0.549454 2.26943 0
M  V30 623 C 66.9474 -1.12741 1.27372 0
M  V30 624 O 68.1324 -1.15436 1.56167 0
M  V30 625 C 65.2624 -1.71523 3.01989 0
M  V30 626 C 64.2164 -1.26703 4.08816 0
M  V30 627 C 63.5424 -2.51898 4.71647 0
M  V30 628 C 64.8424 -0.388962 5.2085 0
M  V30 629 H 66.5364 0.0552661 2.99349 0
M  V30 630 H 64.0824 0.0280207 1.43973 0
M  V30 631 H 66.0354 -2.32535 3.51433 0
M  V30 632 H 64.7594 -2.34639 2.27183 0
M  V30 633 H 63.4184 -0.679896 3.6024 0
M  V30 634 H 63.0664 -3.13356 3.93468 0
M  V30 635 H 62.7664 -2.22605 5.43802 0
M  V30 636 H 64.2904 -3.1369 5.23861 0
M  V30 637 H 65.7044 -0.905107 5.6611 0
M  V30 638 H 64.1014 -0.18924 5.99802 0
M  V30 639 H 65.1714 0.582699 4.81386 0
M  V30 640 N 66.5145 -1.57545 0.0417849 0
M  V30 641 C 67.4625 -2.12148 -0.953723 0
M  V30 642 C 68.4565 -1.05104 -1.32852 0
M  V30 643 O 69.6625 -1.23524 -1.30927 0
M  V30 644 H 66.0375 -0.677957 -0.325389 0
M  V30 645 H 68.0085 -2.94707 -0.467991 0
M  V30 646 C 66.7575 -2.6739 -2.22257 0
M  V30 647 H 66.0805 -3.49413 -1.94295 0
M  V30 648 H 67.5205 -3.09227 -2.90094 0
M  V30 649 C 65.9795 -1.60723 -2.96091 0
M  V30 650 O 66.5095 -1.01449 -3.88679 0
M  V30 651 N 64.7155 -1.32466 -2.58652 0
M  V30 652 H 64.2625 -1.80856 -1.83437 0
M  V30 653 H 64.2205 -0.61325 -3.08361 0
M  V30 654 N 67.9926 0.231505 -1.5589 0
M  V30 655 C 69.2416 0.955346 -1.7764 0
M  V30 656 C 69.5546 1.85893 -0.608546 0
M  V30 657 O 70.7606 2.62067 -0.70943 0
M  V30 658 C 69.2166 1.74886 -3.14552 0
M  V30 659 C 68.8246 0.891915 -4.39032 0
M  V30 660 C 70.5686 2.46452 -3.45633 0
M  V30 661 C 68.4756 1.68221 -5.66971 0
M  V30 662 H 67.4056 0.360446 -0.662265 0
M  V30 663 H 70.0566 0.209516 -1.823 0
M  V30 664 H 68.4386 2.53723 -3.04041 0
M  V30 665 H 69.6126 0.144793 -4.60572 0
M  V30 666 H 67.9276 0.288863 -4.15397 0
M  V30 667 H 70.5246 3.06061 -4.38441 0
M  V30 668 H 70.8676 3.18841 -2.67668 0
M  V30 669 H 71.4006 1.74613 -3.57428 0
M  V30 670 H 68.1396 1.00178 -6.478 0
M  V30 671 H 67.6596 2.4042 -5.49507 0
M  V30 672 H 69.3386 2.24544 -6.06786 0
M  V30 673 N 69.4707 1.49531 0.497807 0
M  V30 674 C 70.7187 1.58865 1.24926 0
M  V30 675 C 71.0397 0.278721 1.92998 0
M  V30 676 O 70.3097 -0.702144 1.82885 0
M  V30 677 H 68.8897 0.585343 0.464094 0
M  V30 678 H 71.5517 1.86174 0.57666 0
M  V30 679 H 70.6477 2.38633 2.01149 0
M  V30 680 N 70.9488 -0.749086 1.3866 0
M  V30 681 C 72.1888 -1.52112 1.36534 0
M  V30 682 C 72.5528 -1.91951 -0.0432316 0
M  V30 683 O 73.7538 -2.68132 -0.189396 0
M  V30 684 C 72.0248 -2.73704 2.29828 0
M  V30 685 S 73.5838 -3.63519 2.45763 0
M  V30 686 H 70.4018 -0.520482 0.484375 0
M  V30 687 H 73.0038 -0.878963 1.74627 0
M  V30 688 H 71.7078 -2.42552 3.31054 0
M  V30 689 H 71.2388 -3.4286 1.929 0
M  V30 690 H 73.2538 -4.66712 1.68505 0
M  V30 691 N 72.4269 -1.23603 -0.977757 0
M  V30 692 C 73.6759 -1.06377 -1.71368 0
M  V30 693 C 73.9889 0.399062 -1.91486 0
M  V30 694 O 75.1949 0.691312 -2.62551 0
M  V30 695 C 73.6509 -1.85512 -3.08404 0
M  V30 696 C 73.2589 -3.36141 -2.96164 0
M  V30 697 C 75.0029 -1.76783 -3.85938 0
M  V30 698 C 72.9099 -4.07659 -4.28449 0
M  V30 699 H 71.8399 -0.394452 -0.642591 0
M  V30 700 H 74.4909 -1.47594 -1.09034 0
M  V30 701 H 72.8729 -1.37103 -3.71509 0
M  V30 702 H 74.0469 -3.92056 -2.42133 0
M  V30 703 H 72.3619 -3.45712 -2.32104 0
M  V30 704 H 74.9589 -2.27526 -4.83876 0
M  V30 705 H 75.3019 -0.731116 -4.0983 0
M  V30 706 H 75.8349 -2.22818 -3.2954 0
M  V30 707 H 72.5739 -5.11648 -4.09752 0
M  V30 708 H 72.0939 -3.5653 -4.82334 0
M  V30 709 H 73.7729 -4.141 -4.97122 0
M  V30 710 N 73.905 1.17692 -1.04816 0
M  V30 711 C 75.316 1.69501 -0.782698 0
M  V30 712 C 75.667 1.83456 0.695577 0
M  V30 713 O 74.792 1.51942 1.54086 0
M  V30 714 C 75.387 3.07874 -1.41419 0
M  V30 715 C 73.946 3.56864 -1.19686 0
M  V30 716 C 73.093 2.3322 -1.50012 0
M  V30 717 H 76.044 1.02262 -1.2136 0
M  V30 718 H 76.065 3.71528 -0.821428 0
M  V30 719 H 75.577 2.97685 -2.49009 0
M  V30 720 H 73.678 3.72337 -0.140043 0
M  V30 721 H 73.791 4.39851 -1.89916 0
M  V30 722 H 72.155 2.37501 -0.920071 0
M  V30 723 H 72.938 2.25644 -2.58727 0
M  V30 724 N 75.3831 0.828654 1.34056 0
M  V30 725 C 76.6081 0.431637 2.02859 0
M  V30 726 C 77.0331 -0.956339 1.61975 0
M  V30 727 O 76.3911 -1.62338 0.807228 0
M  V30 728 C 76.4391 0.548323 3.56407 0
M  V30 729 O 75.5431 -0.429556 4.10157 0
M  V30 730 H 74.8841 0.176886 0.640006 0
M  V30 731 H 77.4141 1.12066 1.71179 0
M  V30 732 H 77.4241 0.426196 4.05768 0
M  V30 733 H 76.0991 1.5606 3.8551 0
M  V30 734 H 74.6761 -0.265836 3.71951 0
M  V30 735 N 76.8612 -1.46375 0.584142 0
M  V30 736 C 77.8082 -2.30323 -0.148286 0
M  V30 737 C 78.7782 -1.40703 -0.882713 0
M  V30 738 O 79.9632 -1.69651 -0.873099 0
M  V30 739 C 77.1032 -3.25196 -1.15507 0
M  V30 740 C 76.2162 -4.29915 -0.423943 0
M  V30 741 C 75.3512 -5.11914 -1.41838 0
M  V30 742 C 74.3902 -6.08381 -0.673736 0
M  V30 743 N 73.5272 -6.83242 -1.6163 0
M  V30 744 H 78.3672 -2.92427 0.573644 0
M  V30 745 H 75.9042 -1.44118 0.294703 0
M  V30 746 H 77.8622 -3.78646 -1.75166 0
M  V30 747 H 76.4922 -2.64898 -1.8447 0
M  V30 748 H 75.5442 -3.7931 0.287714 0
M  V30 749 H 76.8562 -4.98549 0.158128 0
M  V30 750 H 76.0102 -5.69648 -2.08773 0
M  V30 751 H 74.7492 -4.43243 -2.03438 0
M  V30 752 H 73.7542 -5.49799 0.00938483 0
M  V30 753 H 74.9792 -6.79071 -0.0631082 0
M  V30 754 H 72.9252 -6.1728 -2.22038 0
M  V30 755 H 72.8422 -7.48144 -1.08707 0
M  V30 756 H 74.1102 -7.45534 -2.27596 0
M  V30 757 N 78.3393 -0.321999 -1.54275 0
M  V30 758 C 79.3023 0.531975 -2.22941 0
M  V30 759 C 80.3023 1.04478 -1.22234 0
M  V30 760 O 81.4923 0.937452 -1.46825 0
M  V30 761 C 78.6243 1.73874 -2.93224 0
M  V30 762 H 79.8173 -0.0682612 -2.99822 0
M  V30 763 H 77.3703 -0.0730644 -1.56129 0
M  V30 764 H 78.1053 2.37825 -2.20476 0
M  V30 765 H 77.8903 1.37847 -3.6707 0
M  V30 766 H 79.3803 2.34496 -3.45545 0
M  V30 767 N 79.8174 1.5752 -0.0501392 0
M  V30 768 C 80.7474 2.14502 0.922566 0
M  V30 769 C 81.7284 1.06642 1.3252 0
M  V30 770 O 82.9134 1.34577 1.4001 0
M  V30 771 C 80.0434 2.68916 2.19776 0
M  V30 772 C 78.9974 3.8175 1.93523 0
M  V30 773 C 78.3234 4.22677 3.27487 0
M  V30 774 C 79.6234 5.06932 1.25765 0
M  V30 775 H 81.3174 2.9603 0.447952 0
M  V30 776 H 78.8634 1.42401 0.214024 0
M  V30 777 H 80.8164 3.07419 2.88222 0
M  V30 778 H 79.5404 1.84578 2.69441 0
M  V30 779 H 78.1994 3.43718 1.27489 0
M  V30 780 H 77.8474 3.35291 3.74952 0
M  V30 781 H 77.5474 4.98725 3.1072 0
M  V30 782 H 79.0714 4.63779 3.97166 0
M  V30 783 H 80.4854 5.42888 1.84244 0
M  V30 784 H 78.8824 5.88116 1.19328 0
M  V30 785 H 79.9524 4.84337 0.233536 0
M  V30 786 N 81.2955 -0.223234 1.56011 0
M  V30 787 C 82.5445 -0.945912 1.78144 0
M  V30 788 C 82.8575 -1.85567 0.618396 0
M  V30 789 O 84.0635 -2.61688 0.723318 0
M  V30 790 C 82.5195 -1.73216 3.15475 0
M  V30 791 C 82.1275 -0.868619 4.39499 0
M  V30 792 C 83.8715 -2.44615 3.46935 0
M  V30 793 C 81.7785 -1.65212 5.67855 0
M  V30 794 H 80.7085 -0.356929 0.664167 0
M  V30 795 H 83.3595 -0.199845 1.82409 0
M  V30 796 H 81.7415 -2.52107 3.05382 0
M  V30 797 H 82.9155 -0.120366 4.60643 0
M  V30 798 H 81.2305 -0.26683 4.15544 0
M  V30 799 H 83.8275 -3.03732 4.40058 0
M  V30 800 H 84.1705 -3.17417 2.69355 0
M  V30 801 H 84.7035 -1.72715 3.58349 0
M  V30 802 H 81.4425 -0.967407 6.48322 0
M  V30 803 H 80.9625 -2.37503 5.50774 0
M  V30 804 H 82.6415 -2.21322 6.07968 0
M  V30 805 N 82.7736 -1.49793 -0.48987 0
M  V30 806 C 83.7236 -1.63673 -1.5873 0
M  V30 807 C 84.7076 -0.491956 -1.53195 0
M  V30 808 O 85.8996 -0.745461 -1.60536 0
M  V30 809 C 83.0286 -1.71689 -2.97284 0
M  V30 810 C 82.1146 -2.91781 -3.07774 0
M  V30 811 N 82.5056 -4.15714 -2.88124 0
M  V30 812 C 80.8036 -2.89949 -3.38889 0
M  V30 813 C 81.5046 -4.965 -3.03088 0
M  V30 814 N 80.4806 -4.30083 -3.3246 0
M  V30 815 H 84.2826 -2.57204 -1.42208 0
M  V30 816 H 81.7966 -1.46719 -0.69623 0
M  V30 817 H 83.7936 -1.79732 -3.76168 0
M  V30 818 H 82.4536 -0.793024 -3.14867 0
M  V30 819 H 83.4646 -4.45515 -2.64077 0
M  V30 820 H 80.1416 -2.06987 -3.62578 0
M  V30 821 H 81.5316 -6.04991 -2.92294 0
M  V30 822 N 84.2517 0.741722 -1.39055 0
M  V30 823 C 85.4977 1.50336 -1.36113 0
M  V30 824 C 85.8307 1.94148 0.0450796 0
M  V30 825 O 85.1057 1.66301 1.00868 0
M  V30 826 C 85.3887 2.74773 -2.32749 0
M  V30 827 C 85.2417 2.37023 -3.82283 0
M  V30 828 C 86.5607 3.76846 -2.27322 0
M  V30 829 H 83.6797 0.545351 -0.495743 0
M  V30 830 H 86.3217 0.848624 -1.69995 0
M  V30 831 H 84.4717 3.30639 -2.03986 0
M  V30 832 H 86.1437 1.8684 -4.21768 0
M  V30 833 H 84.3867 1.69334 -3.99385 0
M  V30 834 H 85.0577 3.26104 -4.45376 0
M  V30 835 H 87.5337 3.30548 -2.5274 0
M  V30 836 H 86.4097 4.6159 -2.97028 0
M  V30 837 H 86.6707 4.23286 -1.27599 0
M  V30 838 N 85.7298 1.2412 0.971189 0
M  V30 839 C 86.6928 1.03156 2.04674 0
M  V30 840 C 87.6928 -0.00990322 1.60797 0
M  V30 841 O 88.8828 0.230729 1.72665 0
M  V30 842 C 86.0148 0.562765 3.36223 0
M  V30 843 H 87.2078 1.98614 2.24705 0
M  V30 844 H 84.7608 1.06293 1.14593 0
M  V30 845 H 85.4958 -0.395176 3.21883 0
M  V30 846 H 85.2808 1.31441 3.69413 0
M  V30 847 H 86.7708 0.437015 4.15307 0
M  V30 848 N 87.2079 -1.17134 1.05439 0
M  V30 849 C 88.1179 -2.24878 0.668365 0
M  V30 850 C 89.1339 -1.71186 -0.311687 0
M  V30 851 O 90.3099 -2.00738 -0.163161 0
M  V30 852 C 87.3749 -3.46662 0.051648 0
M  V30 853 C 86.4359 -4.15429 1.08246 0
M  V30 854 C 85.6689 -5.31399 0.495082 0
M  V30 855 O 85.8919 -5.66153 -0.694743 0
M  V30 856 O 84.8259 -5.89187 1.23056 0
M  V30 857 H 88.6519 -2.60189 1.56637 0
M  V30 858 H 86.2369 -1.24482 0.826104 0
M  V30 859 H 88.1189 -4.20394 -0.290966 0
M  V30 860 H 86.7939 -3.13142 -0.819971 0
M  V30 861 H 85.7009 -3.43704 1.47711 0
M  V30 862 H 87.0339 -4.52982 1.92532 0
M  V30 863 N 88.686 -0.835752 -1.33615 0
M  V30 864 C 89.618 -0.224151 -2.28101 0
M  V30 865 C 90.631 0.593331 -1.51603 0
M  V30 866 O 91.82 0.420911 -1.73466 0
M  V30 867 C 88.92 0.703309 -3.31522 0
M  V30 868 C 88.093 -0.0741528 -4.37337 0
M  V30 869 C 87.152 0.776176 -5.20444 0
M  V30 870 O 86.178 0.216506 -5.68788 0
M  V30 871 N 87.38 2.09401 -5.41416 0
M  V30 872 H 90.145 -1.03598 -2.81225 0
M  V30 873 H 87.706 -0.69392 -1.46275 0
M  V30 874 H 89.698 1.27707 -3.84022 0
M  V30 875 H 88.268 1.41585 -2.78698 0
M  V30 876 H 87.488 -0.82928 -3.85378 0
M  V30 877 H 88.776 -0.608863 -5.05144 0
M  V30 878 H 88.174 2.57229 -5.03835 0
M  V30 879 H 86.731 2.61633 -5.96985 0
M  V30 880 N 90.1641 1.46063 -0.591896 0
M  V30 881 C 91.4111 2.02338 -0.0809991 0
M  V30 882 C 91.7391 1.46228 1.28249 0
M  V30 883 O 90.9941 0.620818 1.85592 0
M  V30 884 C 91.2931 3.57391 0.0249813 0
M  V30 885 C 90.9591 4.32583 -1.27211 0
M  V30 886 C 89.6211 4.52844 -1.62745 0
M  V30 887 C 91.9731 4.75687 -2.13005 0
M  V30 888 C 89.3011 5.13462 -2.83855 0
M  V30 889 C 91.6531 5.37644 -3.3335 0
M  V30 890 C 90.3171 5.5613 -3.69155 0
M  V30 891 H 89.5871 0.740407 -0.0296397 0
M  V30 892 H 92.2341 1.75321 -0.770374 0
M  V30 893 H 90.5391 3.83597 0.797537 0
M  V30 894 H 92.2361 3.98621 0.436184 0
M  V30 895 H 88.8261 4.17116 -0.985499 0
M  V30 896 H 93.0101 4.59782 -1.86855 0
M  V30 897 H 88.2661 5.25965 -3.11722 0
M  V30 898 H 92.4401 5.7 -4.00092 0
M  V30 899 H 90.0671 6.0287 -4.63089 0
M  V30 900 N 91.6422 0.330177 1.54103 0
M  V30 901 C 92.5922 -0.548456 2.21305 0
M  V30 902 C 93.5762 -1.07651 1.19583 0
M  V30 903 O 94.7682 -1.01243 1.45186 0
M  V30 904 C 91.8972 -1.70559 2.97934 0
M  V30 905 C 90.9832 -1.19212 4.07 0
M  V30 906 N 91.3742 -0.398831 5.04225 0
M  V30 907 C 89.6722 -1.47024 4.2107 0
M  V30 908 C 90.3732 -0.121761 5.81573 0
M  V30 909 N 89.3492 -0.709722 5.38947 0
M  V30 910 H 93.1512 0.0648483 2.93828 0
M  V30 911 H 90.6652 0.136363 1.61826 0
M  V30 912 H 92.6622 -2.34688 3.44568 0
M  V30 913 H 91.3222 -2.32231 2.26934 0
M  V30 914 H 92.3332 -0.0410869 5.17884 0
M  V30 915 H 89.0102 -2.09232 3.61287 0
M  V30 916 H 90.4002 0.517298 6.69906 0
M  V30 917 N 93.1203 -1.57491 0.0584922 0
M  V30 918 C 94.0523 -2.08916 -0.942694 0
M  V30 919 C 95.0653 -1.0185 -1.27006 0
M  V30 920 O 96.2543 -1.29398 -1.22957 0
M  V30 921 C 93.3543 -2.52341 -2.26224 0
M  V30 922 C 92.5273 -3.82827 -2.1157 0
M  V30 923 C 91.5863 -4.12487 -3.26712 0
M  V30 924 O 90.6123 -4.82295 -3.02292 0
M  V30 925 N 91.8143 -3.64978 -4.5141 0
M  V30 926 H 94.5793 -2.95437 -0.503722 0
M  V30 927 H 92.1403 -1.61397 -0.12757 0
M  V30 928 H 94.1323 -2.69254 -3.02133 0
M  V30 929 H 92.7023 -1.7103 -2.61663 0
M  V30 930 H 91.9223 -3.75425 -1.20208 0
M  V30 931 H 93.2103 -4.68263 -1.99015 0
M  V30 932 H 92.6083 -3.08558 -4.7414 0
M  V30 933 H 91.1653 -3.87115 -5.2439 0
M  V30 934 N 94.5984 0.214957 -1.56127 0
M  V30 935 C 95.5614 1.24997 -1.92116 0
M  V30 936 C 96.5614 1.39467 -0.800344 0
M  V30 937 O 97.7514 1.37619 -1.06802 0
M  V30 938 C 94.8834 2.62271 -2.17777 0
M  V30 939 H 96.0764 0.942875 -2.84693 0
M  V30 940 H 93.6294 0.455654 -1.49511 0
M  V30 941 H 94.3644 2.98068 -1.27773 0
M  V30 942 H 94.1494 2.53143 -2.99434 0
M  V30 943 H 95.6394 3.36946 -2.46693 0
M  V30 944 N 96.0765 1.50051 0.48192 0
M  V30 945 C 97.3015 1.64508 1.26301 0
M  V30 946 C 97.7265 0.323851 1.85291 0
M  V30 947 O 97.0845 -0.710969 1.66778 0
M  V30 948 C 97.1325 2.7305 2.35533 0
M  V30 949 O 96.2365 2.3355 3.39895 0
M  V30 950 H 95.5775 0.549978 0.372048 0
M  V30 951 H 98.1075 1.9636 0.574786 0
M  V30 952 H 98.1175 2.95799 2.8101 0
M  V30 953 H 96.7925 3.68946 1.91967 0
M  V30 954 H 95.3695 2.21205 3.00204 0
M  V30 955 N 97.5546 -0.734337 1.39446 0
M  V30 956 C 98.9706 -1.03997 1.21065 0
M  V30 957 C 99.1706 -2.01369 0.0727019 0
M  V30 958 O 98.2266 -2.45856 -0.575426 0
M  V30 959 C 99.5396 -1.60163 2.54496 0
M  V30 960 C 101.088 -1.7224 2.61347 0
M  V30 961 C 101.563 -2.31814 3.95002 0
M  V30 962 N 103.054 -2.39223 3.96644 0
M  V30 963 C 103.789 -2.86258 4.96834 0
M  V30 964 N 103.285 -3.33184 6.07421 0
M  V30 965 N 105.078 -2.85473 4.84213 0
M  V30 966 H 97.2286 -0.0885624 2.12215 0
M  V30 967 H 99.4916 -0.10191 0.942506 0
M  V30 968 H 99.1976 -0.960811 3.38321 0
M  V30 969 H 99.0716 -2.5896 2.74262 0
M  V30 970 H 101.459 -2.35443 1.77906 0
M  V30 971 H 101.54 -0.720939 2.4543 0
M  V30 972 H 101.184 -1.69238 4.78875 0
M  V30 973 H 101.114 -3.32638 4.08239 0
M  V30 974 H 103.605 -2.06057 3.16779 0
M  V30 975 H 103.918 -3.67586 6.7978 0
M  V30 976 H 102.263 -3.31191 6.11013 0
M  V30 977 H 105.454 -2.48136 3.96921 0
M  V30 978 H 105.627 -3.21814 5.62441 0
M  V30 979 N 99.0327 -1.24633 -0.964593 0
M  V30 980 C 100.28 -1.08788 -1.70796 0
M  V30 981 C 100.608 0.372783 -1.90894 0
M  V30 982 O 99.8627 1.29167 -1.47018 0
M  V30 983 C 100.162 -1.7763 -3.10133 0
M  V30 984 C 99.8277 -3.27557 -3.09866 0
M  V30 985 C 98.4897 -3.6846 -3.09501 0
M  V30 986 C 100.842 -4.23389 -3.03959 0
M  V30 987 C 98.1697 -5.03624 -3.00965 0
M  V30 988 C 100.522 -5.58565 -2.96965 0
M  V30 989 C 99.1857 -5.98809 -2.9493 0
M  V30 990 H 98.4557 -0.398084 -0.624988 0
M  V30 991 H 101.103 -1.54777 -1.12767 0
M  V30 992 H 99.4077 -1.24044 -3.71645 0
M  V30 993 H 101.105 -1.62832 -3.66451 0
M  V30 994 H 97.6947 -2.95006 -3.10917 0
M  V30 995 H 101.879 -3.92787 -3.03368 0
M  V30 996 H 97.1347 -5.33998 -2.97752 0
M  V30 997 H 101.309 -6.32523 -2.91354 0
M  V30 998 H 98.9357 -7.03505 -2.88071 0
M  V30 999 N 100.511 1.16574 -1.06058 0
M  V30 1000 C 101.739 1.90952 -0.796552 0
M  V30 1001 C 102.154 1.77302 0.648808 0
M  V30 1002 O 101.511 1.11605 1.44397 0
M  V30 1003 C 101.562 3.41736 -1.17894 0
M  V30 1004 O 101.283 3.54975 -2.56758 0
M  V30 1005 C 102.784 4.33169 -0.942308 0
M  V30 1006 H 100.004 0.605594 -0.288959 0
M  V30 1007 H 102.548 1.47777 -1.41358 0
M  V30 1008 H 100.703 3.82623 -0.606491 0
M  V30 1009 H 101.117 4.4846 -2.72 0
M  V30 1010 H 102.591 5.37439 -1.25952 0
M  V30 1011 H 103.068 4.3903 0.122078 0
M  V30 1012 H 103.674 3.98007 -1.49902 0
M  V30 1013 N 101.989 0.842826 1.3317 0
M  V30 1014 C 102.899 0.281444 2.32906 0
M  V30 1015 C 103.915 -0.594587 1.63526 0
M  V30 1016 O 105.091 -0.49777 1.95152 0
M  V30 1017 C 102.156 -0.530929 3.42611 0
M  V30 1018 C 101.217 0.369843 4.27704 0
M  V30 1019 C 100.45 -0.403853 5.3217 0
M  V30 1020 O 100.673 -1.63513 5.46461 0
M  V30 1021 O 99.6069 0.224199 6.01482 0
M  V30 1022 H 103.433 1.10744 2.82789 0
M  V30 1023 H 101.018 0.60545 1.36582 0
M  V30 1024 H 102.9 -0.992437 4.09547 0
M  V30 1025 H 101.575 -1.33392 2.94938 0
M  V30 1026 H 100.482 0.879275 3.6362 0
M  V30 1027 H 101.815 1.13771 4.78871 0
M  V30 1028 N 103.467 -1.45747 0.599634 0
M  V30 1029 C 104.878 -1.85853 0.177681 0
M  V30 1030 C 105.229 -1.50102 -1.26348 0
M  V30 1031 O 104.354 -0.923905 -1.95686 0
M  V30 1032 C 104.949 -3.37326 0.315688 0
M  V30 1033 C 103.508 -3.76365 -0.0515144 0
M  V30 1034 C 102.655 -2.69722 0.643822 0
M  V30 1035 H 105.606 -1.36661 0.806814 0
M  V30 1036 H 105.627 -3.77778 -0.454321 0
M  V30 1037 H 105.139 -3.63315 1.36468 0
M  V30 1038 H 103.24 -3.55993 -1.09999 0
M  V30 1039 H 103.353 -4.77916 0.336594 0
M  V30 1040 H 101.717 -2.54567 0.0822881 0
M  V30 1041 H 102.5 -2.98549 1.6948 0
M  V30 1042 N 104.945 -0.338344 -1.53925 0
M  V30 1043 C 106.17 0.263987 -2.05713 0
M  V30 1044 C 106.595 1.43847 -1.21201 0
M  V30 1045 O 105.953 1.79904 -0.224535 0
M  V30 1046 C 106.001 0.662 -3.54471 0
M  V30 1047 O 105.105 1.76265 -3.72833 0
M  V30 1048 H 104.446 0.0448722 -0.662482 0
M  V30 1049 H 106.976 -0.491048 -1.9862 0
M  V30 1050 H 106.986 0.940594 -3.9701 0
M  V30 1051 H 105.661 -0.196937 -4.15433 0
M  V30 1052 H 104.238 1.48173 -3.42198 0
M  V30 1053 N 106.423 1.57458 -0.0668435 0
M  V30 1054 C 107.834 1.80776 0.466558 0
M  V30 1055 C 108.185 0.980361 1.69951 0
M  V30 1056 O 107.31 0.201441 2.1546 0
M  V30 1057 C 107.905 3.27881 0.85321 0
M  V30 1058 C 106.464 3.52062 1.3315 0
M  V30 1059 C 105.611 2.75513 0.314264 0
M  V30 1060 H 108.562 1.5598 -0.292588 0
M  V30 1061 H 108.583 3.39659 1.715 0
M  V30 1062 H 108.095 3.88075 -0.0443439 0
M  V30 1063 H 106.196 2.97167 2.24772 0
M  V30 1064 H 106.309 4.60762 1.31285 0
M  V30 1065 H 104.673 2.42123 0.790492 0
M  V30 1066 H 105.456 3.38442 -0.575477 0
M  V30 1067 N 107.901 -0.206675 1.56239 0
M  V30 1068 C 108.831 -1.25909 1.96645 0
M  V30 1069 C 109.812 -1.48097 0.836734 0
M  V30 1070 O 110.997 -1.6003 1.10019 0
M  V30 1071 C 108.127 -2.6058 2.29599 0
M  V30 1072 C 107.081 -2.53024 3.452 0
M  V30 1073 C 106.407 -3.91861 3.63798 0
M  V30 1074 C 107.707 -2.06524 4.79734 0
M  V30 1075 H 109.401 -0.923369 2.84806 0
M  V30 1076 H 106.947 -0.442735 1.37025 0
M  V30 1077 H 108.9 -3.34375 2.56459 0
M  V30 1078 H 107.624 -2.95869 1.38307 0
M  V30 1079 H 106.283 -1.81684 3.18412 0
M  V30 1080 H 105.931 -4.24483 2.69857 0
M  V30 1081 H 105.631 -3.87683 4.4156 0
M  V30 1082 H 107.155 -4.67296 3.93022 0
M  V30 1083 H 108.569 -2.70072 5.05702 0
M  V30 1084 H 106.966 -2.13374 5.60885 0
M  V30 1085 H 108.036 -1.01802 4.74093 0
M  V30 1086 N 109.379 -1.50304 -0.473955 0
M  V30 1087 C 110.627 -1.60832 -1.22382 0
M  V30 1088 C 110.948 -0.30939 -1.9253 0
M  V30 1089 O 110.218 0.67296 -1.83978 0
M  V30 1090 H 108.798 -0.592652 -0.454723 0
M  V30 1091 H 111.46 -1.87068 -0.546968 0
M  V30 1092 H 110.556 -2.41803 -1.97327 0
M  V30 1093 N 110.857 0.726932 -1.39834 0
M  V30 1094 C 112.106 1.48214 -1.36805 0
M  V30 1095 C 112.419 1.95576 0.0305291 0
M  V30 1096 O 113.625 2.7088 0.183417 0
M  V30 1097 C 112.081 2.67854 -2.40379 0
M  V30 1098 C 111.689 2.27408 -3.85992 0
M  V30 1099 C 113.433 3.45641 -2.46439 0
M  V30 1100 C 111.34 3.43819 -4.81189 0
M  V30 1101 H 110.27 0.556606 -0.508631 0
M  V30 1102 H 112.921 0.792216 -1.65518 0
M  V30 1103 H 111.303 3.3896 -2.04749 0
M  V30 1104 H 112.477 1.63795 -4.30706 0
M  V30 1105 H 110.792 1.62692 -3.83302 0
M  V30 1106 H 113.389 4.32244 -3.14753 0
M  V30 1107 H 113.732 3.88669 -1.49139 0
M  V30 1108 H 114.265 2.8157 -2.81004 0
M  V30 1109 H 111.004 3.05834 -5.79781 0
M  V30 1110 H 110.524 4.06385 -4.41148 0
M  V30 1111 H 112.203 4.10043 -5.00474 0
M  V30 1112 N 112.336 1.25143 0.95797 0
M  V30 1113 C 113.561 1.12521 1.74223 0
M  V30 1114 C 113.986 -0.317402 1.85403 0
M  V30 1115 O 113.344 -1.2299 1.33204 0
M  V30 1116 C 113.392 1.78062 3.1357 0
M  V30 1117 O 112.496 1.058 3.98598 0
M  V30 1118 H 111.837 0.39304 0.535178 0
M  V30 1119 H 114.367 1.65641 1.201 0
M  V30 1120 H 114.377 1.84213 3.64046 0
M  V30 1121 H 113.052 2.83021 3.04749 0
M  V30 1122 H 111.629 1.07506 3.57067 0
M  V30 1123 N 113.814 -1.1601 1.06675 0
M  V30 1124 C 115.06 -1.86909 0.786945 0
M  V30 1125 C 115.393 -1.81717 -0.685018 0
M  V30 1126 O 114.668 -1.23551 -1.50218 0
M  V30 1127 C 114.951 -3.36313 1.28707 0
M  V30 1128 C 114.804 -3.50175 2.82308 0
M  V30 1129 C 116.123 -4.3084 0.898071 0
M  V30 1130 H 113.242 -0.678677 0.287343 0
M  V30 1131 H 115.884 -1.36336 1.32334 0
M  V30 1132 H 114.034 -3.79513 0.830768 0
M  V30 1133 H 115.706 -3.15886 3.36175 0
M  V30 1134 H 113.949 -2.91959 3.20847 0
M  V30 1135 H 114.62 -4.55116 3.12368 0
M  V30 1136 H 117.096 -3.95561 1.29114 0
M  V30 1137 H 115.972 -5.33876 1.27543 0
M  V30 1138 H 116.233 -4.41662 -0.196651 0
M  V30 1139 N 115.292 -0.849877 -1.32721 0
M  V30 1140 C 116.255 -0.296122 -2.27279 0
M  V30 1141 C 117.255 0.541458 -1.5141 0
M  V30 1142 O 118.445 0.353658 -1.70572 0
M  V30 1143 C 115.577 0.581579 -3.35902 0
M  V30 1144 H 116.77 -1.13064 -2.77771 0
M  V30 1145 H 114.323 -0.62383 -1.43311 0
M  V30 1146 H 115.058 1.43809 -2.9067 0
M  V30 1147 H 114.843 -0.0178814 -3.92096 0
M  V30 1148 H 116.333 0.961951 -4.0637 0
M  V30 1149 N 116.77 1.45427 -0.607355 0
M  V30 1150 C 117.995 2.07124 -0.107006 0
M  V30 1151 C 118.42 1.44906 1.19933 0
M  V30 1152 O 117.778 0.541687 1.73019 0
M  V30 1153 C 117.826 3.60595 0.0194119 0
M  V30 1154 O 116.93 3.98285 1.0697 0
M  V30 1155 H 116.271 0.659868 -0.0739597 0
M  V30 1156 H 118.801 1.86683 -0.837297 0
M  V30 1157 H 118.811 4.07419 0.2177 0
M  V30 1158 H 117.486 4.05266 -0.934453 0
M  V30 1159 H 116.063 3.63133 0.847889 0
M  V30 1160 N 118.248 0.346503 1.53744 0
M  V30 1161 C 119.659 -0.136779 1.86198 0
M  V30 1162 C 120.01 -1.49749 1.26766 0
M  V30 1163 O 119.135 -2.08417 0.582355 0
M  V30 1164 C 119.73 -0.254966 3.37839 0
M  V30 1165 C 118.289 -0.682482 3.70161 0
M  V30 1166 C 117.436 0.181981 2.76702 0
M  V30 1167 H 120.387 0.565994 1.48264 0
M  V30 1168 H 120.408 -1.08195 3.64793 0
M  V30 1169 H 119.92 0.735526 3.81066 0
M  V30 1170 H 118.021 -1.68189 3.3248 0
M  V30 1171 H 118.134 -0.470326 4.76786 0
M  V30 1172 H 116.498 -0.34615 2.52337 0
M  V30 1173 H 117.281 1.16966 3.2276 0
M  V30 1174 N 119.726 -1.57421 0.075193 0
M  V30 1175 C 121.142 -1.57099 -0.281444 0
M  V30 1176 C 121.342 -1.08486 -1.69803 0
M  V30 1177 O 120.398 -0.752279 -2.41033 0
M  V30 1178 C 121.711 -3.00571 -0.0880041 0
M  V30 1179 C 123.259 -3.12605 -0.157281 0
M  V30 1180 C 123.734 -4.57999 0.0079207 0
M  V30 1181 N 125.225 -4.63176 -0.0475725 0
M  V30 1182 C 125.96 -5.73373 0.0557876 0
M  V30 1183 N 125.456 -6.92473 0.21286 0
M  V30 1184 N 127.249 -5.621 -0.00152098 0
M  V30 1185 H 119.4 -1.87335 1.00098 0
M  V30 1186 H 121.663 -0.86377 0.390646 0
M  V30 1187 H 121.369 -3.40262 0.889629 0
M  V30 1188 H 121.243 -3.67754 -0.838875 0
M  V30 1189 H 123.63 -2.72798 -1.1254 0
M  V30 1190 H 123.711 -2.48053 0.62475 0
M  V30 1191 H 123.355 -4.98496 0.972824 0
M  V30 1192 H 123.285 -5.20586 -0.793556 0
M  V30 1193 H 125.776 -3.7753 -0.167244 0
M  V30 1194 H 126.089 -7.72279 0.283781 0
M  V30 1195 H 124.434 -6.94556 0.248267 0
M  V30 1196 H 127.625 -4.67938 -0.122958 0
M  V30 1197 H 127.798 -6.47948 0.0824844 0
M  V30 1198 N 121.204 0.198386 -1.56346 0
M  V30 1199 C 122.134 1.24865 -1.9731 0
M  V30 1200 C 123.115 1.47651 -0.844576 0
M  V30 1201 O 124.3 1.59444 -1.10866 0
M  V30 1202 C 121.43 2.59358 -2.30977 0
M  V30 1203 C 120.384 2.5119 -3.46537 0
M  V30 1204 C 119.71 3.89926 -3.65871 0
M  V30 1205 C 121.01 2.03977 -4.80823 0
M  V30 1206 H 122.704 0.908252 -2.85291 0
M  V30 1207 H 120.25 0.435462 -1.37258 0
M  V30 1208 H 122.203 3.33011 -2.58228 0
M  V30 1209 H 120.927 2.95132 -1.39874 0
M  V30 1210 H 119.586 1.79993 -3.19371 0
M  V30 1211 H 119.234 4.23046 -2.72105 0
M  V30 1212 H 118.934 3.85336 -4.4361 0
M  V30 1213 H 120.458 4.65205 -3.95495 0
M  V30 1214 H 121.872 2.67386 -5.07127 0
M  V30 1215 H 120.269 2.10397 -5.62008 0
M  V30 1216 H 121.339 0.992861 -4.74626 0
M  V30 1217 N 122.682 1.50554 0.465978 0
M  V30 1218 C 123.959 1.5232 1.22712 0
M  V30 1219 C 124.339 0.270807 2.09356 0
M  V30 1220 O 123.687 -0.745541 2.15995 0
M  V30 1221 C 123.897 2.82175 2.05374 0
M  V30 1222 C 125.245 3.33033 2.6339 0
M  V30 1223 O 126.269 2.83531 2.15612 0
M  V30 1224 O 125.128 4.19336 3.50456 0
M  V30 1225 H 122.222 0.611183 0.557122 0
M  V30 1226 H 124.768 1.62847 0.477381 0
M  V30 1227 H 123.54 3.64797 1.41558 0
M  V30 1228 H 123.163 2.74675 2.87471 0
M  V30 1229 N 124.16 -0.719506 1.40217 0
M  V30 1230 C 125.409 -1.47486 1.37589 0
M  V30 1231 C 125.722 -1.9559 -0.0201568 0
M  V30 1232 O 126.928 -2.70973 -0.169049 0
M  V30 1233 C 125.384 -2.66575 2.41796 0
M  V30 1234 C 124.992 -2.25358 3.87192 0
M  V30 1235 C 126.736 -3.4433 2.48269 0
M  V30 1236 C 124.643 -3.41262 4.83005 0
M  V30 1237 H 123.573 -0.553901 0.511576 0
M  V30 1238 H 126.224 -0.783427 1.65936 0
M  V30 1239 H 124.606 -3.3787 2.06543 0
M  V30 1240 H 125.78 -1.61509 4.31569 0
M  V30 1241 H 124.095 -1.60657 3.84159 0
M  V30 1242 H 126.692 -4.30569 3.17041 0
M  V30 1243 H 127.035 -3.87872 1.51198 0
M  V30 1244 H 127.568 -2.80076 2.82493 0
M  V30 1245 H 124.307 -3.02755 5.81394 0
M  V30 1246 H 123.827 -4.0404 4.43297 0
M  V30 1247 H 125.506 -4.07383 5.02641 0
M  V30 1248 N 125.638 -1.25649 -0.95132 0
M  V30 1249 C 126.886 -1.10375 -1.69298 0
M  V30 1250 C 127.207 0.355339 -1.91735 0
M  V30 1251 O 126.477 1.25188 -1.50681 0
M  V30 1252 H 125.057 -0.405461 -0.627384 0
M  V30 1253 H 127.719 -1.57823 -1.14358 0
M  V30 1254 H 126.815 -1.61465 -2.67087 0
M  V30 1255 N 127.117 1.15442 -1.07289 0
M  V30 1256 C 128.049 2.19773 -0.650585 0
M  V30 1257 C 129.062 1.60076 0.296572 0
M  V30 1258 O 130.251 1.78293 0.0859905 0
M  V30 1259 C 127.351 3.38838 0.0650398 0
M  V30 1260 C 126.524 4.2808 -0.898141 0
M  V30 1261 C 125.583 5.2574 -0.219926 0
M  V30 1262 O 124.609 5.62654 -0.860773 0
M  V30 1263 N 125.811 5.71205 1.03466 0
M  V30 1264 H 128.576 2.56622 -1.54808 0
M  V30 1265 H 126.137 1.30551 -0.957494 0
M  V30 1266 H 128.129 4.01222 0.529415 0
M  V30 1267 H 126.699 3.00409 0.864466 0
M  V30 1268 H 125.919 3.62804 -1.54165 0
M  V30 1269 H 127.207 4.84577 -1.5512 0
M  V30 1270 H 126.605 5.43325 1.57526 0
M  V30 1271 H 125.162 6.35633 1.44272 0
M  V30 1272 N 128.595 0.856903 1.32268 0
M  V30 1273 C 129.82 0.474569 2.01897 0
M  V30 1274 C 130.245 -0.921766 1.63967 0
M  V30 1275 O 129.603 -1.60589 0.84148 0
M  V30 1276 C 129.651 0.623799 3.55164 0
M  V30 1277 O 128.755 -0.342459 4.10976 0
M  V30 1278 H 128.096 0.190422 0.63611 0
M  V30 1279 H 130.626 1.15672 1.68764 0
M  V30 1280 H 130.636 0.512169 4.04773 0
M  V30 1281 H 129.311 1.64202 3.82113 0
M  V30 1282 H 127.888 -0.18688 3.72431 0
M  V30 1283 N 130.073 -1.45103 0.615059 0
M  V30 1284 C 131.319 -2.02483 0.113347 0
M  V30 1285 C 131.652 -1.48146 -1.25564 0
M  V30 1286 O 130.927 -0.659104 -1.82992 0
M  V30 1287 C 131.21 -3.60005 0.0825278 0
M  V30 1288 C 131.063 -4.2466 1.48271 0
M  V30 1289 C 132.382 -4.35972 -0.601401 0
M  V30 1290 H 129.501 -0.735764 0.0426632 0
M  V30 1291 H 132.143 -1.72868 0.788461 0
M  V30 1292 H 130.293 -3.85367 -0.492378 0
M  V30 1293 H 131.965 -4.10458 2.10527 0
M  V30 1294 H 130.208 -3.82772 2.04127 0
M  V30 1295 H 130.879 -5.336 1.41332 0
M  V30 1296 H 133.355 -4.15947 -0.112666 0
M  V30 1297 H 132.231 -5.45697 -0.592097 0
M  V30 1298 H 132.492 -4.09391 -1.66887 0
M  V30 1299 N 131.551 -0.354651 -1.53558 0
M  V30 1300 C 132.514 0.484566 -2.24019 0
M  V30 1301 C 133.514 1.01861 -1.24422 0
M  V30 1302 O 134.704 0.906097 -1.4878 0
M  V30 1303 C 131.836 1.67615 -2.96847 0
M  V30 1304 H 133.029 -0.131843 -2.9961 0
M  V30 1305 H 130.582 -0.106165 -1.55939 0
M  V30 1306 H 131.317 2.33095 -2.25471 0
M  V30 1307 H 131.102 1.30029 -3.69912 0
M  V30 1308 H 132.592 2.27114 -3.50441 0
M  V30 1309 N 133.029 1.57378 -0.0835403 0
M  V30 1310 C 134.275 1.95025 0.577664 0
M  V30 1311 C 134.63 0.964049 1.66505 0
M  V30 1312 O 133.923 -0.0118235 1.91596 0
M  V30 1313 C 134.117 3.37063 1.1884 0
M  V30 1314 C 133.946 4.49409 0.16171 0
M  V30 1315 C 132.716 5.04642 -0.257756 0
M  V30 1316 C 134.914 5.10722 -0.605634 0
M  V30 1317 N 132.896 6.00537 -1.27393 0
M  V30 1318 C 134.267 6.02225 -1.47395 0
M  V30 1319 C 136.322 4.93501 -0.660418 0
M  V30 1320 C 135.025 6.78355 -2.39221 0
M  V30 1321 C 137.051 5.70283 -1.56623 0
M  V30 1322 C 136.413 6.61444 -2.4222 0
M  V30 1323 H 132.512 0.760512 0.182058 0
M  V30 1324 H 135.096 1.94013 -0.163419 0
M  V30 1325 H 133.267 3.3879 1.89936 0
M  V30 1326 H 134.999 3.61917 1.81103 0
M  V30 1327 H 131.754 4.73428 0.127702 0
M  V30 1328 H 132.178 6.53184 -1.77987 0
M  V30 1329 H 136.82 4.22798 -0.0128221 0
M  V30 1330 H 134.538 7.48327 -3.05011 0
M  V30 1331 H 138.124 5.58976 -1.61361 0
M  V30 1332 H 137.004 7.1982 -3.11174 0
M  V30 1333 N 134.507 -0.190092 1.56449 0
M  V30 1334 C 135.454 -1.23557 1.94942 0
M  V30 1335 C 136.424 -1.44972 0.810696 0
M  V30 1336 O 137.609 -1.58023 1.06927 0
M  V30 1337 C 134.749 -2.57416 2.2985 0
M  V30 1338 C 133.862 -2.43537 3.5681 0
M  V30 1339 C 132.997 -3.70134 3.81017 0
M  V30 1340 C 132.036 -3.51109 5.01387 0
M  V30 1341 N 131.173 -4.6973 5.21822 0
M  V30 1342 H 136.013 -0.900304 2.84075 0
M  V30 1343 H 133.55 -0.43318 1.40577 0
M  V30 1344 H 135.508 -3.35409 2.48106 0
M  V30 1345 H 134.138 -2.88975 1.43852 0
M  V30 1346 H 133.19 -1.56816 3.46573 0
M  V30 1347 H 134.502 -2.25415 4.4496 0
M  V30 1348 H 133.656 -4.56566 3.9954 0
M  V30 1349 H 132.395 -3.91215 2.91207 0
M  V30 1350 H 131.4 -2.63063 4.82782 0
M  V30 1351 H 132.625 -3.31468 5.9271 0
M  V30 1352 H 130.571 -4.91065 4.34961 0
M  V30 1353 H 130.488 -4.54452 6.0416 0
M  V30 1354 H 131.756 -5.57499 5.44808 0
M  V30 1355 N 135.985 -1.50799 -0.457987 0
M  V30 1356 C 137.262 -1.52968 -1.21902 0
M  V30 1357 C 137.642 -0.281906 -2.09209 0
M  V30 1358 O 136.99 0.734076 -2.16388 0
M  V30 1359 C 137.2 -2.8326 -2.03875 0
M  V30 1360 C 138.548 -3.34425 -2.6162 0
M  V30 1361 O 139.572 -2.8467 -2.14106 0
M  V30 1362 O 138.431 -4.21188 -3.48228 0
M  V30 1363 H 135.525 -0.614129 -0.553873 0
M  V30 1364 H 138.071 -1.63098 -0.468739 0
M  V30 1365 H 136.843 -3.65543 -1.39621 0
M  V30 1366 H 136.466 -2.76195 -2.8601 0
M  V30 1367 N 137.463 0.71206 -1.40597 0
M  V30 1368 C 138.711 1.46907 -1.38791 0
M  V30 1369 C 139.032 1.94998 0.00780391 0
M  V30 1370 O 138.302 1.70587 0.963174 0
M  V30 1371 H 136.882 0.545043 -0.51082 0
M  V30 1372 H 139.544 0.843882 -1.75683 0
M  V30 1373 H 138.64 2.34021 -2.06496 0
M  V30 1374 N 138.941 1.26152 0.944643 0
M  V30 1375 C 140.19 1.10883 1.68487 0
M  V30 1376 C 140.503 -0.348153 1.92477 0
M  V30 1377 O 141.709 -0.621459 2.64292 0
M  V30 1378 C 140.165 1.93624 3.03377 0
M  V30 1379 C 139.773 3.43875 2.87148 0
M  V30 1380 C 141.517 1.86954 3.81115 0
M  V30 1381 C 139.424 4.18875 4.1749 0
M  V30 1382 H 138.354 0.41135 0.631907 0
M  V30 1383 H 141.005 1.50433 1.05082 0
M  V30 1384 H 139.387 1.46904 3.67743 0
M  V30 1385 H 140.561 3.98338 2.31653 0
M  V30 1386 H 138.876 3.51744 2.22856 0
M  V30 1387 H 141.473 2.40275 4.77673 0
M  V30 1388 H 141.816 0.839518 4.07747 0
M  V30 1389 H 142.349 2.31477 3.23517 0
M  V30 1390 H 139.088 5.22332 3.96043 0
M  V30 1391 H 138.608 3.69193 4.72712 0
M  V30 1392 H 140.287 4.27134 4.85968 0
M  V30 1393 N 140.419 -1.14872 1.07899 0
M  V30 1394 C 141.665 -1.86064 0.806725 0
M  V30 1395 C 141.998 -1.82434 -0.665706 0
M  V30 1396 O 141.273 -1.25138 -1.48899 0
M  V30 1397 C 141.556 -3.34929 1.32267 0
M  V30 1398 C 141.409 -3.47161 2.86006 0
M  V30 1399 C 142.728 -4.29863 0.943717 0
M  V30 1400 H 139.847 -0.675591 0.294526 0
M  V30 1401 H 142.489 -1.34925 1.33773 0
M  V30 1402 H 140.639 -3.78611 0.870974 0
M  V30 1403 H 142.311 -3.12302 3.39507 0
M  V30 1404 H 140.554 -2.88539 3.23925 0
M  V30 1405 H 141.225 -4.51777 3.17177 0
M  V30 1406 H 143.701 -3.9417 1.33302 0
M  V30 1407 H 142.577 -5.32494 1.33198 0
M  V30 1408 H 142.838 -4.41846 -0.149796 0
M  V30 1409 N 141.898 -0.863906 -1.31812 0
M  V30 1410 C 143.175 -0.39275 -1.91616 0
M  V30 1411 C 143.555 1.12461 -1.7865 0
M  V30 1412 O 142.903 1.95045 -1.19037 0
M  V30 1413 C 143.113 -0.867385 -3.38049 0
M  V30 1414 C 144.461 -0.889966 -4.15168 0
M  V30 1415 O 145.485 -0.812635 -3.46806 0
M  V30 1416 O 144.344 -1.00079 -5.37258 0
M  V30 1417 H 141.438 -0.116358 -0.818773 0
M  V30 1418 H 143.984 -0.951418 -1.40521 0
M  V30 1419 H 142.756 -1.91081 -3.41473 0
M  V30 1420 H 142.379 -0.286687 -3.96565 0
M  V30 1421 N 143.376 1.44774 -0.622745 0
M  V30 1422 C 144.792 1.56986 -0.287652 0
M  V30 1423 C 144.992 1.61167 1.20944 0
M  V30 1424 O 144.048 1.55015 1.99315 0
M  V30 1425 C 145.361 2.84551 -0.972188 0
M  V30 1426 C 146.909 2.9825 -0.949536 0
M  V30 1427 C 147.384 4.28605 -1.61437 0
M  V30 1428 N 148.875 4.35399 -1.58057 0
M  V30 1429 C 149.61 5.34964 -2.064 0
M  V30 1430 N 149.106 6.40981 -2.62897 0
M  V30 1431 N 150.899 5.26419 -1.97078 0
M  V30 1432 H 143.05 1.40304 -1.59463 0
M  V30 1433 H 145.313 0.671794 -0.668878 0
M  V30 1434 H 145.019 2.87417 -2.02693 0
M  V30 1435 H 144.893 3.73807 -0.504771 0
M  V30 1436 H 147.28 2.94941 0.0967067 0
M  V30 1437 H 147.361 2.10364 -1.45536 0
M  V30 1438 H 147.005 4.32672 -2.66002 0
M  V30 1439 H 146.935 5.15334 -1.08344 0
M  V30 1440 H 149.426 3.59397 -1.16801 0
M  V30 1441 H 149.739 7.13225 -2.97539 0
M  V30 1442 H 148.084 6.4169 -2.66943 0
M  V30 1443 H 151.275 4.42504 -1.52669 0
M  V30 1444 H 151.448 6.03861 -2.35066 0
M  V30 1445 N 144.854 0.36279 1.53368 0
M  V30 1446 C 145.784 -0.476976 2.28576 0
M  V30 1447 C 146.765 -1.08631 1.30894 0
M  V30 1448 O 147.95 -1.10409 1.59761 0
M  V30 1449 C 145.08 -1.61828 3.07293 0
M  V30 1450 C 144.034 -1.13633 4.1264 0
M  V30 1451 C 143.36 -2.36766 4.79423 0
M  V30 1452 C 144.66 -0.223061 5.21823 0
M  V30 1453 H 146.354 0.150474 2.99022 0
M  V30 1454 H 143.9 0.0738103 1.43811 0
M  V30 1455 H 145.853 -2.21237 3.58653 0
M  V30 1456 H 144.577 -2.27292 2.34533 0
M  V30 1457 H 143.236 -0.564945 3.62221 0
M  V30 1458 H 142.884 -3.0068 4.03238 0
M  V30 1459 H 142.584 -2.05192 5.50609 0
M  V30 1460 H 144.108 -2.96865 5.33576 0
M  V30 1461 H 145.522 -0.724545 5.68703 0
M  V30 1462 H 143.919 0.001678 6.001 0
M  V30 1463 H 144.989 0.735553 4.79289 0
M  V30 1464 N 146.332 -1.57332 0.0918853 0
M  V30 1465 C 147.56 -1.98574 -0.581048 0
M  V30 1466 C 147.975 -0.970903 -1.61923 0
M  V30 1467 O 147.332 0.0399054 -1.82456 0
M  V30 1468 C 147.383 -3.39872 -1.23164 0
M  V30 1469 O 147.104 -4.37469 -0.234989 0
M  V30 1470 C 148.605 -3.96099 -1.99049 0
M  V30 1471 H 145.825 -0.65261 -0.156018 0
M  V30 1472 H 148.369 -2.0379 0.170225 0
M  V30 1473 H 146.524 -3.35679 -1.93386 0
M  V30 1474 H 146.938 -5.19751 -0.70418 0
M  V30 1475 H 148.412 -4.97127 -2.39934 0
M  V30 1476 H 148.889 -3.3374 -2.85507 0
M  V30 1477 H 149.495 -4.03755 -1.3365 0
M  V30 1478 N 147.81 0.181792 -1.56548 0
M  V30 1479 C 149.038 0.915947 -1.85521 0
M  V30 1480 C 149.453 1.76282 -0.676016 0
M  V30 1481 O 148.81 1.79012 0.355077 0
M  V30 1482 C 148.861 1.80126 -3.13427 0
M  V30 1483 O 148.582 0.988562 -4.26801 0
M  V30 1484 C 150.083 2.64597 -3.55673 0
M  V30 1485 H 147.303 0.26661 -0.61576 0
M  V30 1486 H 149.847 0.185039 -2.03661 0
M  V30 1487 H 148.002 2.48563 -2.97145 0
M  V30 1488 H 148.416 1.59308 -4.99721 0
M  V30 1489 H 149.89 3.2235 -4.48101 0
M  V30 1490 H 150.367 3.38958 -2.79292 0
M  V30 1491 H 150.973 2.0151 -3.74532 0
M  V30 1492 N 149.288 1.51039 0.449983 0
M  V30 1493 C 150.536 1.62759 1.19808 0
M  V30 1494 C 150.857 0.339981 1.92013 0
M  V30 1495 O 150.127 -0.643606 1.85026 0
M  V30 1496 H 148.707 0.599811 0.445237 0
M  V30 1497 H 151.369 1.87914 0.517138 0
M  V30 1498 H 150.465 2.44911 1.93455 0
M  V30 1499 N 150.766 -0.704594 1.40972 0
M  V30 1500 C 152.012 -1.46675 1.40051 0
M  V30 1501 C 152.345 -1.94199 0.00641102 0
M  V30 1502 O 151.62 -1.68916 -0.964235 0
M  V30 1503 C 151.903 -2.68505 2.39952 0
M  V30 1504 C 151.756 -2.26805 3.88432 0
M  V30 1505 C 153.075 -3.70686 2.37233 0
M  V30 1506 H 150.194 -0.532015 0.510028 0
M  V30 1507 H 152.836 -0.803255 1.72185 0
M  V30 1508 H 150.986 -3.25114 2.1268 0
M  V30 1509 H 152.658 -1.75592 4.26574 0
M  V30 1510 H 150.901 -1.58685 4.03734 0
M  V30 1511 H 151.572 -3.14181 4.53866 0
M  V30 1512 H 154.048 -3.23731 2.61415 0
M  V30 1513 H 152.924 -4.53553 3.09162 0
M  V30 1514 H 153.185 -4.19754 1.38777 0
M  V30 1515 N 152.244 -1.26651 -0.937939 0
M  V30 1516 C 153.207 -1.08546 -2.01867 0
M  V30 1517 C 154.207 -0.0327327 -1.60767 0
M  V30 1518 O 155.397 -0.276427 -1.71993 0
M  V30 1519 C 152.529 -0.651711 -3.34613 0
M  V30 1520 H 153.722 -2.04502 -2.1936 0
M  V30 1521 H 151.275 -1.09294 -1.11734 0
M  V30 1522 H 152.01 0.309696 -3.22818 0
M  V30 1523 H 151.795 -1.41189 -3.65798 0
M  V30 1524 H 153.285 -0.546973 -4.14002 0
M  V30 1525 N 153.722 1.14298 -1.08507 0
M  V30 1526 C 154.685 2.17607 -0.719711 0
M  V30 1527 C 155.685 1.58907 0.245997 0
M  V30 1528 O 156.875 1.74181 0.0254081 0
M  V30 1529 C 154.007 3.40842 -0.0627695 0
M  V30 1530 H 155.2 2.51443 -1.63452 0
M  V30 1531 H 152.753 1.28963 -0.88307 0
M  V30 1532 H 153.488 3.12587 0.863716 0
M  V30 1533 H 153.273 3.84713 -0.757504 0
M  V30 1534 H 154.763 4.17221 0.177786 0
M  V30 1535 N 155.201 0.870884 1.31352 0
M  V30 1536 C 156.131 0.343096 2.30966 0
M  V30 1537 C 157.112 -0.566507 1.60389 0
M  V30 1538 O 158.297 -0.483336 1.88089 0
M  V30 1539 C 155.427 -0.455487 3.443 0
M  V30 1540 C 154.381 0.361103 4.26474 0
M  V30 1541 C 153.707 -0.563221 5.31725 0
M  V30 1542 C 155.007 1.59566 4.97329 0
M  V30 1543 H 156.701 1.17548 2.75359 0
M  V30 1544 H 154.247 0.566686 1.32381 0
M  V30 1545 H 156.2 -0.83525 4.13039 0
M  V30 1546 H 154.924 -1.32139 2.98675 0
M  V30 1547 H 153.583 0.722825 3.59403 0
M  V30 1548 H 153.231 -1.42643 4.82351 0
M  V30 1549 H 152.931 -0.0207409 5.87596 0
M  V30 1550 H 154.455 -0.939808 6.03324 0
M  V30 1551 H 155.869 1.28728 5.58661 0
M  V30 1552 H 154.266 2.07728 5.63 0
M  V30 1553 H 155.336 2.34798 4.24262 0
M  V30 1554 N 156.679 -1.44442 0.630414 0
M  V30 1555 C 157.609 -2.33418 -0.0618083 0
M  V30 1556 C 158.59 -1.48165 -0.835541 0
M  V30 1557 O 159.775 -1.76886 -0.801564 0
M  V30 1558 C 156.905 -3.31222 -1.04449 0
M  V30 1559 C 155.859 -4.26288 -0.382436 0
M  V30 1560 C 155.185 -5.13954 -1.47497 0
M  V30 1561 C 156.485 -5.1744 0.710865 0
M  V30 1562 H 158.179 -2.91548 0.681184 0
M  V30 1563 H 155.725 -1.40191 0.329026 0
M  V30 1564 H 157.678 -3.92351 -1.53748 0
M  V30 1565 H 156.402 -2.71299 -1.81836 0
M  V30 1566 H 155.061 -3.6649 0.0899054 0
M  V30 1567 H 154.709 -4.50385 -2.2397 0
M  V30 1568 H 154.409 -5.7837 -1.03737 0
M  V30 1569 H 155.933 -5.77955 -1.96979 0
M  V30 1570 H 157.347 -5.72509 0.300996 0
M  V30 1571 H 155.744 -5.90455 1.07156 0
M  V30 1572 H 156.814 -4.58496 1.57829 0
M  V30 1573 N 158.157 -0.370918 -1.53173 0
M  V30 1574 C 159.104 0.473035 -2.259 0
M  V30 1575 C 160.074 1.07311 -1.26781 0
M  V30 1576 O 161.259 1.1046 -1.55574 0
M  V30 1577 C 158.399 1.60405 -3.05556 0
M  V30 1578 C 157.512 1.02863 -4.19575 0
M  V30 1579 C 156.647 2.12918 -4.86661 0
M  V30 1580 C 155.686 1.52869 -5.92704 0
M  V30 1581 N 154.823 2.56779 -6.53459 0
M  V30 1582 H 159.663 -0.153649 -2.97604 0
M  V30 1583 H 157.2 -0.0875946 -1.46839 0
M  V30 1584 H 159.158 2.27034 -3.50016 0
M  V30 1585 H 157.788 2.20131 -2.36097 0
M  V30 1586 H 156.84 0.252465 -3.79561 0
M  V30 1587 H 158.152 0.549642 -4.95762 0
M  V30 1588 H 157.306 2.87356 -5.34333 0
M  V30 1589 H 156.045 2.6417 -4.09958 0
M  V30 1590 H 155.05 0.769479 -5.44389 0
M  V30 1591 H 156.275 1.02435 -6.7133 0
M  V30 1592 H 154.221 3.07235 -5.79606 0
M  V30 1593 H 154.138 2.13583 -7.25202 0
M  V30 1594 H 155.406 3.30903 -7.05779 0
M  V30 1595 N 159.635 1.57281 -0.100228 0
M  V30 1596 C 160.582 2.14305 0.856858 0
M  V30 1597 C 161.552 1.06296 1.27634 0
M  V30 1598 O 162.737 1.34109 1.35718 0
M  V30 1599 C 159.877 2.73184 2.10866 0
M  V30 1600 C 158.99 3.95442 1.73925 0
M  V30 1601 C 158.125 4.42468 2.93931 0
M  V30 1602 C 157.164 5.57303 2.5314 0
M  V30 1603 N 156.301 5.99158 3.65997 0
M  V30 1604 H 161.141 2.95772 0.363726 0
M  V30 1605 H 158.678 1.46139 0.167858 0
M  V30 1606 H 160.636 3.05442 2.84185 0
M  V30 1607 H 159.266 1.94437 2.57671 0
M  V30 1608 H 158.318 3.69464 0.905554 0
M  V30 1609 H 159.63 4.78769 1.39935 0
M  V30 1610 H 158.784 4.76537 3.75496 0
M  V30 1611 H 157.523 3.58052 3.31134 0
M  V30 1612 H 156.528 5.22857 1.70003 0
M  V30 1613 H 157.753 6.43471 2.17075 0
M  V30 1614 H 155.699 5.17687 4.02909 0
M  V30 1615 H 155.616 6.77295 3.35869 0
M  V30 1616 H 156.884 6.3786 4.48057 0
M  V30 1617 N 161.113 -0.173488 1.56642 0
M  V30 1618 C 162.063 -1.21941 1.92651 0
M  V30 1619 C 163.047 -1.39912 0.794577 0
M  V30 1620 O 164.239 -1.41919 1.05773 0
M  V30 1621 C 161.368 -2.55935 2.28806 0
M  V30 1622 C 160.454 -2.41667 3.48508 0
M  V30 1623 N 160.845 -1.9711 4.65813 0
M  V30 1624 C 159.143 -2.72499 3.53072 0
M  V30 1625 C 159.844 -1.95253 5.47952 0
M  V30 1626 N 158.82 -2.37575 4.88937 0
M  V30 1627 H 162.622 -0.866581 2.80834 0
M  V30 1628 H 160.136 -0.381776 1.57849 0
M  V30 1629 H 162.133 -3.31511 2.52797 0
M  V30 1630 H 160.793 -2.92022 1.41961 0
M  V30 1631 H 161.804 -1.67481 4.90072 0
M  V30 1632 H 158.481 -3.12639 2.767 0
M  V30 1633 H 159.871 -1.6252 6.51948 0
M  V30 1634 N 162.591 -1.51276 -0.441967 0
M  V30 1635 C 163.839 -1.63392 -1.18943 0
M  V30 1636 C 164.16 -0.350159 -1.9183 0
M  V30 1637 O 163.43 0.633784 -1.85364 0
M  V30 1638 H 162.01 -0.602164 -0.442049 0
M  V30 1639 H 164.672 -1.88186 -0.507165 0
M  V30 1640 H 163.768 -2.45934 -1.92154 0
M  V30 1641 N 164.069 0.697108 -1.41344 0
M  V30 1642 C 165.315 1.4593 -1.40827 0
M  V30 1643 C 165.648 1.94193 -0.0167098 0
M  V30 1644 O 164.923 1.69425 0.955263 0
M  V30 1645 C 165.206 2.67229 -2.41373 0
M  V30 1646 C 165.059 2.24741 -3.8963 0
M  V30 1647 C 166.378 3.69423 -2.39196 0
M  V30 1648 H 163.497 0.529303 -0.512842 0
M  V30 1649 H 166.139 0.794112 -1.72609 0
M  V30 1650 H 164.289 3.23982 -2.14401 0
M  V30 1651 H 165.961 1.73327 -4.27499 0
M  V30 1652 H 164.204 1.56542 -4.0457 0
M  V30 1653 H 164.875 3.1177 -4.55525 0
M  V30 1654 H 167.351 3.2234 -2.63128 0
M  V30 1655 H 166.227 4.51907 -3.11563 0
M  V30 1656 H 166.488 4.19012 -1.41001 0
M  V30 1657 N 165.547 1.27147 0.931209 0
M  V30 1658 C 166.494 1.09568 2.03134 0
M  V30 1659 C 167.464 -0.00222433 1.661 0
M  V30 1660 O 168.649 0.159439 1.90133 0
M  V30 1661 C 165.789 0.745231 3.36957 0
M  V30 1662 C 164.902 1.92041 3.86968 0
M  V30 1663 C 164.037 1.51216 5.09222 0
M  V30 1664 C 163.076 2.65504 5.5152 0
M  V30 1665 N 162.213 2.25291 6.64972 0
M  V30 1666 H 167.053 2.03708 2.17502 0
M  V30 1667 H 164.59 1.01411 1.06556 0
M  V30 1668 H 166.548 0.522878 4.1391 0
M  V30 1669 H 165.178 -0.159202 3.22407 0
M  V30 1670 H 164.23 2.25541 3.06326 0
M  V30 1671 H 165.542 2.77787 4.1429 0
M  V30 1672 H 164.696 1.25084 5.93666 0
M  V30 1673 H 163.435 0.625749 4.83669 0
M  V30 1674 H 162.44 2.92354 4.65628 0
M  V30 1675 H 163.665 3.54761 5.7907 0
M  V30 1676 H 161.611 1.39098 6.41083 0
M  V30 1677 H 161.528 3.04577 6.91931 0
M  V30 1678 H 162.796 2.02398 7.52765 0
M  V30 1679 N 167.025 -1.13721 1.09112 0
M  V30 1680 C 168.271 -1.85198 0.826414 0
M  V30 1681 C 168.604 -1.83129 -0.646319 0
M  V30 1682 O 167.879 -1.2671 -1.47563 0
M  V30 1683 C 168.162 -3.33507 1.35812 0
M  V30 1684 C 168.015 -3.44108 2.89672 0
M  V30 1685 C 169.334 -4.28838 0.989256 0
M  V30 1686 H 166.453 -0.67243 0.301675 0
M  V30 1687 H 169.095 -1.33499 1.35197 0
M  V30 1688 H 167.245 -3.77666 0.911082 0
M  V30 1689 H 168.917 -3.08684 3.428 0
M  V30 1690 H 167.16 -2.85087 3.26967 0
M  V30 1691 H 167.831 -4.48388 3.21951 0
M  V30 1692 H 170.307 -3.92734 1.37475 0
M  V30 1693 H 169.183 -5.31051 1.38838 0
M  V30 1694 H 169.444 -4.4198 -0.102924 0
M  V30 1695 N 168.503 -0.877838 -1.30888 0
M  V30 1696 C 169.749 -0.493426 -1.96706 0
M  V30 1697 C 170.082 0.953504 -1.6918 0
M  V30 1698 O 169.357 1.67266 -0.992594 0
M  V30 1699 C 169.64 -0.760429 -3.51979 0
M  V30 1700 C 169.493 -2.25747 -3.89048 0
M  V30 1701 C 170.812 -0.232148 -4.39487 0
M  V30 1702 H 167.931 -0.180746 -0.714493 0
M  V30 1703 H 170.573 -1.10052 -1.54882 0
M  V30 1704 H 168.723 -0.243715 -3.87735 0
M  V30 1705 H 170.395 -2.84204 -3.63354 0
M  V30 1706 H 168.638 -2.72694 -3.37373 0
M  V30 1707 H 169.309 -2.39491 -4.97341 0
M  V30 1708 H 171.785 -0.674314 -4.106 0
M  V30 1709 H 170.661 -0.448355 -5.47066 0
M  V30 1710 H 170.922 0.866297 -4.33529 0
M  V30 1711 N 169.982 1.44106 -0.638065 0
M  V30 1712 C 170.932 2.27843 0.0847285 0
M  V30 1713 C 171.916 1.39055 0.809471 0
M  V30 1714 O 173.108 1.62808 0.694435 0
M  V30 1715 C 170.237 3.26497 1.06089 0
M  V30 1716 C 169.323 4.22772 0.33541 0
M  V30 1717 N 169.714 5.01737 -0.639787 0
M  V30 1718 C 168.012 4.42227 0.578921 0
M  V30 1719 C 168.713 5.71792 -1.06904 0
M  V30 1720 N 167.689 5.42079 -0.406395 0
M  V30 1721 H 171.491 2.86305 -0.663814 0
M  V30 1722 H 169.005 1.55627 -0.464122 0
M  V30 1723 H 171.002 3.8525 1.59337 0
M  V30 1724 H 169.662 2.69595 1.80966 0
M  V30 1725 H 170.673 5.07799 -1.01789 0
M  V30 1726 H 167.35 3.96415 1.31003 0
M  V30 1727 H 168.74 6.45205 -1.8751 0
M  V30 1728 N 171.46 0.379036 1.52974 0
M  V30 1729 C 172.708 -0.206014 2.01047 0
M  V30 1730 C 173.029 -1.48175 1.26765 0
M  V30 1731 O 172.299 -1.92085 0.384743 0
M  V30 1732 H 170.879 -0.0791184 0.742798 0
M  V30 1733 H 173.541 0.508366 1.88153 0
M  V30 1734 H 172.637 -0.423501 3.09213 0
M  V30 1735 N 172.938 -1.57226 0.108567 0
M  V30 1736 C 174.184 -1.95919 -0.546564 0
M  V30 1737 C 174.539 -0.990417 -1.6495 0
M  V30 1738 O 173.832 -0.0186593 -1.91591 0
M  V30 1739 C 174.026 -3.38911 -1.13463 0
M  V30 1740 C 173.855 -4.4961 -0.0901926 0
M  V30 1741 C 172.625 -5.04168 0.338008 0
M  V30 1742 C 174.823 -5.09693 0.686808 0
M  V30 1743 N 172.805 -5.98434 1.36931 0
M  V30 1744 C 174.176 -5.99804 1.56958 0
M  V30 1745 C 176.231 -4.92388 0.738846 0
M  V30 1746 C 174.934 -6.74463 2.49983 0
M  V30 1747 C 176.96 -5.67719 1.65676 0
M  V30 1748 C 176.322 -6.57507 2.52713 0
M  V30 1749 H 172.421 -0.763312 -0.169936 0
M  V30 1750 H 175.005 -1.93728 0.194264 0
M  V30 1751 H 173.176 -3.41769 -1.84522 0
M  V30 1752 H 174.908 -3.64752 -1.75322 0
M  V30 1753 H 171.663 -4.73571 -0.0523673 0
M  V30 1754 H 172.087 -6.5027 1.88356 0
M  V30 1755 H 176.729 -4.22724 0.080084 0
M  V30 1756 H 174.447 -7.4338 3.16878 0
M  V30 1757 H 178.033 -5.56338 1.70233 0
M  V30 1758 H 176.913 -7.14778 3.22586 0
M  V30 1759 N 174.416 0.165178 -1.56732 0
M  V30 1760 C 175.379 1.18822 -1.95995 0
M  V30 1761 C 176.379 1.3685 -0.84431 0
M  V30 1762 O 177.569 1.34152 -1.11126 0
M  V30 1763 C 174.701 2.5521 -2.26011 0
M  V30 1764 H 175.894 0.851825 -2.87548 0
M  V30 1765 H 173.447 0.407857 -1.50885 0
M  V30 1766 H 174.182 2.93852 -1.37191 0
M  V30 1767 H 173.967 2.43489 -3.07336 0
M  V30 1768 H 175.457 3.28927 -2.57288 0
M  V30 1769 N 175.894 1.51508 0.433938 0
M  V30 1770 C 176.841 1.73068 1.52696 0
M  V30 1771 C 177.811 0.572441 1.55924 0
M  V30 1772 O 178.996 0.807253 1.72882 0
M  V30 1773 C 176.136 1.86474 2.90381 0
M  V30 1774 C 175.249 3.14037 2.96656 0
M  V30 1775 C 174.384 3.18019 4.25485 0
M  V30 1776 C 173.423 4.39882 4.2564 0
M  V30 1777 N 172.56 4.41394 5.45999 0
M  V30 1778 H 177.4 2.66366 1.33615 0
M  V30 1779 H 174.937 1.32008 0.649018 0
M  V30 1780 H 176.895 1.92229 3.70275 0
M  V30 1781 H 175.525 0.965809 3.08013 0
M  V30 1782 H 174.577 3.17575 2.09404 0
M  V30 1783 H 175.889 4.0394 2.92633 0
M  V30 1784 H 175.043 3.22708 5.13755 0
M  V30 1785 H 173.782 2.2601 4.3217 0
M  V30 1786 H 172.787 4.35366 3.35763 0
M  V30 1787 H 174.012 5.33159 4.20617 0
M  V30 1788 H 171.958 3.52258 5.53399 0
M  V30 1789 H 171.875 5.25111 5.4387 0
M  V30 1790 H 173.143 4.50281 6.36292 0
M  V30 1791 N 177.372 -0.689602 1.41712 0
M  V30 1792 C 178.618 -1.45181 1.41599 0
M  V30 1793 C 178.951 -1.94181 0.0270081 0
M  V30 1794 O 178.226 -1.6993 -0.946265 0
M  V30 1795 C 178.509 -2.65945 2.42787 0
M  V30 1796 C 178.362 -2.22672 3.90816 0
M  V30 1797 C 179.681 -3.68149 2.41151 0
M  V30 1798 H 176.8 -0.526576 0.515642 0
M  V30 1799 H 179.442 -0.784947 1.73028 0
M  V30 1800 H 177.592 -3.2284 2.16116 0
M  V30 1801 H 179.264 -1.71058 4.28412 0
M  V30 1802 H 177.507 -1.54394 4.05395 0
M  V30 1803 H 178.178 -3.0935 4.57172 0
M  V30 1804 H 180.654 -3.2094 2.64834 0
M  V30 1805 H 179.53 -4.50248 3.13955 0
M  V30 1806 H 179.791 -4.18259 1.43221 0
M  V30 1807 N 178.85 -1.27639 -0.924453 0
M  V30 1808 C 179.78 -1.13166 -2.04244 0
M  V30 1809 C 180.761 -0.032256 -1.70069 0
M  V30 1810 O 181.946 -0.207328 -1.9309 0
M  V30 1811 C 179.076 -0.781496 -3.38393 0
M  V30 1812 C 178.03 -1.83449 -3.86692 0
M  V30 1813 C 177.356 -1.33822 -5.17683 0
M  V30 1814 C 178.656 -3.23917 -4.09726 0
M  V30 1815 H 180.35 -2.06689 -2.1661 0
M  V30 1816 H 177.896 -0.995136 -1.04082 0
M  V30 1817 H 179.849 -0.667057 -4.16087 0
M  V30 1818 H 178.573 0.189439 -3.2605 0
M  V30 1819 H 177.232 -1.93789 -3.11193 0
M  V30 1820 H 176.88 -0.35665 -5.01734 0
M  V30 1821 H 176.58 -2.04224 -5.50968 0
M  V30 1822 H 178.104 -1.23679 -5.97943 0
M  V30 1823 H 179.518 -3.16559 -4.77978 0
M  V30 1824 H 177.915 -3.92059 -4.54324 0
M  V30 1825 H 178.985 -3.68729 -3.14908 0
M  V30 1826 N 180.328 1.1314 -1.09713 0
M  V30 1827 C 181.605 1.80762 -0.747302 0
M  V30 1828 C 181.985 1.96663 0.767265 0
M  V30 1829 O 181.333 1.53706 1.69076 0
M  V30 1830 C 181.543 3.15606 -1.48975 0
M  V30 1831 C 182.891 3.90914 -1.65746 0
M  V30 1832 O 183.915 3.25239 -1.45251 0
M  V30 1833 O 182.774 5.08718 -1.9967 0
M  V30 1834 H 179.868 0.782103 -0.268782 0
M  V30 1835 H 182.414 1.20041 -1.19951 0
M  V30 1836 H 181.186 2.99278 -2.52088 0
M  V30 1837 H 180.809 3.84029 -1.02991 0
M  V30 1838 N 181.806 0.884767 1.30421 0
M  V30 1839 C 183.054 0.502112 1.95763 0
M  V30 1840 C 183.375 -0.951815 1.70192 0
M  V30 1841 O 182.645 -1.6692 1.0254 0
M  V30 1842 H 181.225 0.182694 0.724315 0
M  V30 1843 H 183.887 1.1278 1.58955 0
M  V30 1844 H 182.983 0.672188 3.04775 0
M  V30 1845 N 183.284 -1.43765 0.645699 0
M  V30 1846 C 184.231 -2.30745 -0.0504648 0
M  V30 1847 C 185.201 -1.4432 -0.822241 0
M  V30 1848 O 186.386 -1.73202 -0.800358 0
M  V30 1849 C 183.526 -3.29802 -1.0161 0
M  V30 1850 C 182.639 -4.31326 -0.241219 0
M  V30 1851 C 181.774 -5.17469 -1.19998 0
M  V30 1852 C 180.813 -6.10691 -0.415094 0
M  V30 1853 N 179.95 -6.89483 -1.32506 0
M  V30 1854 H 184.79 -2.8973 0.697155 0
M  V30 1855 H 182.327 -1.42738 0.355563 0
M  V30 1856 H 184.285 -3.85734 -1.58949 0
M  V30 1857 H 182.915 -2.72483 -1.73069 0
M  V30 1858 H 181.967 -3.77749 0.448334 0
M  V30 1859 H 183.279 -4.9743 0.369437 0
M  V30 1860 H 182.433 -5.7799 -1.84424 0
M  V30 1861 H 181.172 -4.51473 -1.84455 0
M  V30 1862 H 180.177 -5.49265 0.242565 0
M  V30 1863 H 181.402 -6.78727 0.224966 0
M  V30 1864 H 179.348 -6.26142 -1.95657 0
M  V30 1865 H 179.265 -7.52081 -0.768783 0
M  V30 1866 H 180.533 -7.54516 -1.9577 0
M  V30 1867 N 184.763 -0.387143 -1.52771 0
M  V30 1868 C 185.695 0.484089 -2.2403 0
M  V30 1869 C 186.708 1.02849 -1.26198 0
M  V30 1870 O 187.897 0.931186 -1.52286 0
M  V30 1871 C 184.997 1.68337 -2.94136 0
M  V30 1872 C 184.17 1.26672 -4.18656 0
M  V30 1873 C 183.229 2.33045 -4.7178 0
M  V30 1874 O 182.255 1.94541 -5.34923 0
M  V30 1875 N 183.457 3.64929 -4.5145 0
M  V30 1876 H 186.222 -0.126404 -2.99433 0
M  V30 1877 H 183.783 -0.213392 -1.60488 0
M  V30 1878 H 185.775 2.39019 -3.26577 0
M  V30 1879 H 184.345 2.20025 -2.22053 0
M  V30 1880 H 183.565 0.388878 -3.92277 0
M  V30 1881 H 184.853 0.964964 -4.99566 0
M  V30 1882 H 184.251 3.98974 -4.01044 0
M  V30 1883 H 182.808 4.31651 -4.88386 0
M  V30 1884 N 186.241 1.57166 -0.116904 0
M  V30 1885 C 187.487 1.95412 0.542405 0
M  V30 1886 C 187.82 1.00019 1.66463 0
M  V30 1887 O 187.095 0.0370346 1.94465 0
M  V30 1888 C 187.378 3.43615 1.07708 0
M  V30 1889 C 187.231 4.49781 -0.0415868 0
M  V30 1890 C 188.55 3.93616 1.96861 0
M  V30 1891 H 185.669 0.710543 0.195696 0
M  V30 1892 H 188.311 1.89027 -0.192038 0
M  V30 1893 H 186.461 3.49187 1.70296 0
M  V30 1894 H 188.133 4.56308 -0.676793 0
M  V30 1895 H 186.376 4.28033 -0.705019 0
M  V30 1896 H 187.047 5.50733 0.373717 0
M  V30 1897 H 189.523 3.90335 1.44146 0
M  V30 1898 H 188.399 4.97838 2.3119 0
M  V30 1899 H 188.66 3.34188 2.89432 0
M  V30 1900 N 187.719 -0.156864 1.56817 0
M  V30 1901 C 188.629 -1.2136 2.00771 0
M  V30 1902 C 189.645 -1.47598 0.921459 0
M  V30 1903 O 190.821 -1.59462 1.2302 0
M  V30 1904 C 187.886 -2.52943 2.37109 0
M  V30 1905 C 186.947 -2.34439 3.59634 0
M  V30 1906 C 186.18 -3.59748 3.94229 0
M  V30 1907 O 186.403 -4.65526 3.29609 0
M  V30 1908 O 185.337 -3.52998 4.8752 0
M  V30 1909 H 189.163 -0.870468 2.90958 0
M  V30 1910 H 186.748 -0.36484 1.44877 0
M  V30 1911 H 188.63 -3.30538 2.61386 0
M  V30 1912 H 187.305 -2.86806 1.5008 0
M  V30 1913 H 186.212 -1.54828 3.40557 0
M  V30 1914 H 187.545 -2.05496 4.4725 0
M  V30 1915 N 189.197 -1.51736 -0.425897 0
M  V30 1916 C 190.443 -1.65214 -1.1761 0
M  V30 1917 C 190.776 -0.372778 -1.90589 0
M  V30 1918 O 190.051 0.628139 -1.84078 0
M  V30 1919 C 190.334 -2.86312 -2.18398 0
M  V30 1920 C 190.187 -4.24254 -1.49426 0
M  V30 1921 C 191.506 -3.02925 -3.19256 0
M  V30 1922 H 188.625 -0.601263 -0.426206 0
M  V30 1923 H 191.267 -1.8425 -0.463882 0
M  V30 1924 H 189.417 -2.70213 -2.79137 0
M  V30 1925 H 191.089 -4.52046 -0.919362 0
M  V30 1926 H 189.332 -4.26426 -0.796432 0
M  V30 1927 H 190.003 -5.05001 -2.22885 0
M  V30 1928 H 192.479 -3.1781 -2.68581 0
M  V30 1929 H 191.355 -3.89199 -3.8706 0
M  V30 1930 H 191.616 -2.15497 -3.86023 0
M  V30 1931 N 190.675 0.682077 -1.42076 0
M  V30 1932 C 191.952 1.43755 -1.32642 0
M  V30 1933 C 192.332 2.11063 0.0396611 0
M  V30 1934 O 191.68 2.02701 1.05474 0
M  V30 1935 C 191.89 2.44596 -2.48946 0
M  V30 1936 C 193.238 3.09454 -2.9073 0
M  V30 1937 O 194.262 2.54922 -2.48783 0
M  V30 1938 O 193.121 4.08253 -3.63307 0
M  V30 1939 H 190.215 0.640857 -0.522715 0
M  V30 1940 H 192.761 0.711415 -1.54068 0
M  V30 1941 H 191.533 1.93609 -3.40046 0
M  V30 1942 H 191.156 3.24701 -2.29467 0
M  V30 1943 N 192.153 1.28127 0.917671 0
M  V30 1944 C 193.401 1.14825 1.66312 0
M  V30 1945 C 193.722 -0.304379 1.9261 0
M  V30 1946 O 192.992 -1.21149 1.53947 0
M  V30 1947 H 191.572 0.421953 0.616413 0
M  V30 1948 H 194.234 1.608 1.10134 0
M  V30 1949 H 193.33 1.68489 2.62712 0
M  V30 1950 N 193.631 -1.12557 1.10312 0
M  V30 1951 C 194.563 -2.17971 0.708625 0
M  V30 1952 C 195.576 -1.60806 -0.254027 0
M  V30 1953 O 196.765 -1.78458 -0.0386891 0
M  V30 1954 C 193.865 -3.38891 0.0248198 0
M  V30 1955 C 193.038 -4.25548 1.01132 0
M  V30 1956 C 192.097 -5.24972 0.35924 0
M  V30 1957 O 191.123 -5.60174 1.00965 0
M  V30 1958 N 192.325 -5.73747 -0.882847 0
M  V30 1959 H 195.09 -2.52427 1.61557 0
M  V30 1960 H 192.651 -1.27967 0.991771 0
M  V30 1961 H 194.643 -4.02485 -0.422852 0
M  V30 1962 H 193.213 -3.02596 -0.784514 0
M  V30 1963 H 192.433 -3.58589 1.6373 0
M  V30 1964 H 193.721 -4.80294 1.67914 0
M  V30 1965 H 193.119 -5.4731 -1.43065 0
M  V30 1966 H 191.676 -6.39234 -1.27369 0
M  V30 1967 N 195.109 -0.891671 -1.2995 0
M  V30 1968 C 196.525 -0.58662 -1.48428 0
M  V30 1969 C 196.725 0.873951 -1.81561 0
M  V30 1970 O 195.781 1.65471 -1.90724 0
M  V30 1971 C 197.094 -1.50553 -2.60296 0
M  V30 1972 C 198.642 -1.50988 -2.74175 0
M  V30 1973 C 199.117 -2.41488 -3.89163 0
M  V30 1974 N 200.608 -2.39489 -3.96483 0
M  V30 1975 C 201.343 -3.06223 -4.84784 0
M  V30 1976 N 200.839 -3.82206 -5.77833 0
M  V30 1977 N 202.632 -2.95421 -4.78208 0
M  V30 1978 H 194.783 -1.83644 -1.06718 0
M  V30 1979 H 197.046 -0.786455 -0.529332 0
M  V30 1980 H 196.752 -2.54581 -2.42654 0
M  V30 1981 H 196.626 -1.22008 -3.56923 0
M  V30 1982 H 199.013 -0.47708 -2.91218 0
M  V30 1983 H 199.094 -1.83567 -1.78148 0
M  V30 1984 H 198.738 -3.44857 -3.72876 0
M  V30 1985 H 198.668 -2.06222 -4.84541 0
M  V30 1986 H 201.159 -1.84278 -3.29924 0
M  V30 1987 H 201.472 -4.302 -6.41988 0
M  V30 1988 H 199.817 -3.86313 -5.77743 0
M  V30 1989 H 203.008 -2.35581 -4.04499 0
M  V30 1990 H 203.181 -3.47704 -5.46814 0
M  V30 1991 N 196.587 1.43421 -0.653314 0
M  V30 1992 C 197.836 2.01032 -0.164076 0
M  V30 1993 C 198.149 1.52147 1.22926 0
M  V30 1994 O 199.355 2.02031 1.81371 0
M  V30 1995 C 197.811 3.59082 -0.24252 0
M  V30 1996 C 197.419 4.1696 -1.63855 0
M  V30 1997 C 199.163 4.24079 0.18911 0
M  V30 1998 C 197.07 5.67304 -1.67092 0
M  V30 1999 H 196 0.751798 -0.0575769 0
M  V30 2000 H 198.651 1.6439 -0.815362 0
M  V30 2001 H 197.033 3.93125 0.476276 0
M  V30 2002 H 198.207 3.94416 -2.38271 0
M  V30 2003 H 196.522 3.64335 -2.01616 0
M  V30 2004 H 199.119 5.34381 0.184775 0
M  V30 2005 H 199.462 3.98005 1.22056 0
M  V30 2006 H 199.995 3.94918 -0.477938 0
M  V30 2007 H 196.734 5.98145 -2.68146 0
M  V30 2008 H 196.254 5.91904 -0.970014 0
M  V30 2009 H 197.933 6.31344 -1.4147 0
M  V30 2010 N 198.065 0.39524 1.52563 0
M  V30 2011 C 198.997 -0.472201 2.24283 0
M  V30 2012 C 200.01 -1.02178 1.26742 0
M  V30 2013 O 201.199 -0.923097 1.52778 0
M  V30 2014 C 198.299 -1.66775 2.95024 0
M  V30 2015 C 197.472 -1.2445 4.19322 0
M  V30 2016 C 196.531 -2.30539 4.7301 0
M  V30 2017 O 195.557 -1.91702 5.35947 0
M  V30 2018 N 196.759 -3.6253 4.53379 0
M  V30 2019 H 199.524 0.142282 2.99362 0
M  V30 2020 H 197.085 0.2219 1.60372 0
M  V30 2021 H 199.077 -2.37283 3.27839 0
M  V30 2022 H 197.647 -2.18845 2.23217 0
M  V30 2023 H 196.867 -0.368069 3.92478 0
M  V30 2024 H 198.155 -0.938457 5.0007 0
M  V30 2025 H 197.553 -3.96841 4.03154 0
M  V30 2026 H 196.11 -4.29055 4.90668 0
M  V30 2027 N 199.544 -1.57102 0.125237 0
M  V30 2028 C 200.784 -1.97294 -0.534259 0
M  V30 2029 C 201.148 -1.0074 -1.63449 0
M  V30 2030 O 202.349 -1.29893 -2.35332 0
M  V30 2031 C 200.62 -3.41705 -1.04748 0
M  V30 2032 S 202.179 -4.03913 -1.71463 0
M  V30 2033 H 198.997 -0.689517 -0.173458 0
M  V30 2034 H 201.599 -1.94349 0.211797 0
M  V30 2035 H 200.303 -4.09723 -0.235649 0
M  V30 2036 H 199.834 -3.48315 -1.82867 0
M  V30 2037 H 201.849 -3.95182 -3.00077 0
M  V30 2038 N 201.022 0.148545 -1.56898 0
M  V30 2039 C 201.932 1.20293 -2.01412 0
M  V30 2040 C 202.948 1.47107 -0.929273 0
M  V30 2041 O 204.124 1.58807 -1.23863 0
M  V30 2042 C 201.189 2.51682 -2.38447 0
M  V30 2043 C 200.25 2.32529 -3.60872 0
M  V30 2044 C 199.483 3.57653 -3.96132 0
M  V30 2045 O 199.706 4.63771 -3.32073 0
M  V30 2046 O 198.64 3.50408 -4.89385 0
M  V30 2047 H 202.466 0.855025 -2.91416 0
M  V30 2048 H 200.051 0.357151 -1.45068 0
M  V30 2049 H 201.933 3.29147 -2.63135 0
M  V30 2050 H 200.608 2.86006 -1.51599 0
M  V30 2051 H 199.515 1.53019 -3.41373 0
M  V30 2052 H 200.848 2.03121 -4.48333 0
M  V30 2053 N 202.5 1.5196 0.417844 0
M  V30 2054 C 203.45 1.7106 1.5074 0
M  V30 2055 C 204.434 0.564487 1.50673 0
M  V30 2056 O 205.626 0.821206 1.56797 0
M  V30 2057 C 202.755 1.85677 2.88754 0
M  V30 2058 C 201.841 3.06133 2.93502 0
M  V30 2059 N 202.232 4.28987 2.67962 0
M  V30 2060 C 200.53 3.05787 3.24669 0
M  V30 2061 C 201.231 5.10395 2.79055 0
M  V30 2062 N 200.207 4.45455 3.11561 0
M  V30 2063 H 204.009 2.63696 1.29775 0
M  V30 2064 H 201.523 1.49873 0.625436 0
M  V30 2065 H 203.52 1.97475 3.67164 0
M  V30 2066 H 202.18 0.942348 3.10725 0
M  V30 2067 H 203.191 4.57607 2.4252 0
M  V30 2068 H 199.868 2.2405 3.52289 0
M  V30 2069 H 201.258 6.18247 2.63097 0
M  V30 2070 N 203.978 -0.674533 1.42435 0
M  V30 2071 C 204.908 -1.80009 1.48724 0
M  V30 2072 C 205.889 -1.6659 0.343793 0
M  V30 2073 O 207.074 -1.86007 0.558137 0
M  V30 2074 C 204.204 -3.18306 1.38919 0
M  V30 2075 C 203.158 -3.46461 2.51294 0
M  V30 2076 C 202.484 -4.84335 2.26547 0
M  V30 2077 C 203.784 -3.43328 3.93603 0
M  V30 2078 H 205.478 -1.75004 2.42928 0
M  V30 2079 H 203.024 -0.840533 1.16923 0
M  V30 2080 H 204.977 -3.9678 1.41927 0
M  V30 2081 H 203.701 -3.2399 0.412094 0
M  V30 2082 H 202.36 -2.70348 2.47604 0
M  V30 2083 H 202.008 -4.86669 1.2713 0
M  V30 2084 H 201.708 -5.04136 3.01861 0
M  V30 2085 H 203.232 -5.65094 2.31304 0
M  V30 2086 H 204.646 -4.11772 3.98894 0
M  V30 2087 H 203.043 -3.74664 4.68771 0
M  V30 2088 H 204.113 -2.41897 4.20255 0
M  V30 2089 N 205.456 -1.28612 -0.910864 0
M  V30 2090 C 206.386 -1.15326 -2.03032 0
M  V30 2091 C 207.367 -0.0502924 -1.70026 0
M  V30 2092 O 208.552 -0.227797 -1.92859 0
M  V30 2093 C 205.682 -0.817343 -3.37545 0
M  V30 2094 C 204.636 -1.8754 -3.84724 0
M  V30 2095 C 203.962 -1.39305 -5.16235 0
M  V30 2096 C 205.262 -3.28244 -4.06267 0
M  V30 2097 H 206.956 -2.08975 -2.14406 0
M  V30 2098 H 204.502 -1.00612 -1.03021 0
M  V30 2099 H 206.455 -0.711151 -4.15356 0
M  V30 2100 H 205.179 0.154846 -3.26233 0
M  V30 2101 H 203.838 -1.97079 -3.09121 0
M  V30 2102 H 203.486 -0.409846 -5.01328 0
M  V30 2103 H 203.186 -2.10057 -5.48771 0
M  V30 2104 H 204.71 -1.30014 -5.96598 0
M  V30 2105 H 206.124 -3.21611 -4.74594 0
M  V30 2106 H 204.521 -3.96855 -4.5014 0
M  V30 2107 H 205.591 -3.72048 -3.10979 0
M  V30 2108 N 206.934 1.1197 -1.10907 0
M  V30 2109 C 207.864 2.19928 -0.784473 0
M  V30 2110 C 208.845 1.6833 0.244726 0
M  V30 2111 O 210.03 1.93892 0.109418 0
M  V30 2112 C 207.16 3.46597 -0.220827 0
M  V30 2113 C 206.114 4.11376 -1.18127 0
M  V30 2114 C 205.44 5.32554 -0.478594 0
M  V30 2115 C 206.74 4.56945 -2.52979 0
M  V30 2116 H 208.434 2.47337 -1.68715 0
M  V30 2117 H 205.98 1.18879 -0.812642 0
M  V30 2118 H 207.933 4.21396 0.0184278 0
M  V30 2119 H 206.657 3.1863 0.717113 0
M  V30 2120 H 205.316 3.38564 -1.40606 0
M  V30 2121 H 204.964 5.00856 0.463976 0
M  V30 2122 H 204.664 5.76844 -1.11912 0
M  V30 2123 H 206.188 6.10096 -0.248 0
M  V30 2124 H 207.602 5.23093 -2.3462 0
M  V30 2125 H 205.999 5.1203 -3.12962 0
M  V30 2126 H 207.069 3.70676 -3.12614 0
M  V30 2127 N 208.412 0.89855 1.29475 0
M  V30 2128 C 209.375 0.380272 2.26023 0
M  V30 2129 C 210.375 -0.484891 1.53315 0
M  V30 2130 O 211.565 -0.290108 1.71767 0
M  V30 2131 C 208.697 -0.45651 3.3783 0
M  V30 2132 H 209.89 1.23295 2.73383 0
M  V30 2133 H 207.443 0.676589 1.40897 0
M  V30 2134 H 208.178 -1.32922 2.95808 0
M  V30 2135 H 207.963 0.163393 3.91759 0
M  V30 2136 H 209.453 -0.810466 4.0966 0
M  V30 2137 N 209.89 -1.43072 0.660911 0
M  V30 2138 C 211.118 -2.06067 0.185422 0
M  V30 2139 C 211.533 -1.49582 -1.15198 0
M  V30 2140 O 210.89 -0.630134 -1.71276 0
M  V30 2141 C 210.941 -3.61371 0.0966523 0
M  V30 2142 O 210.662 -4.15758 1.38119 0
M  V30 2143 C 212.163 -4.41455 -0.403996 0
M  V30 2144 H 209.383 -0.664459 0.0934604 0
M  V30 2145 H 211.927 -1.83447 0.90373 0
M  V30 2146 H 210.082 -3.8315 -0.572259 0
M  V30 2147 H 210.496 -5.09499 1.24542 0
M  V30 2148 H 211.97 -5.50437 -0.415045 0
M  V30 2149 H 212.447 -4.15036 -1.43674 0
M  V30 2150 H 213.053 -4.24663 0.232691 0
M  V30 2151 N 211.368 -0.403325 -1.52352 0
M  V30 2152 C 212.616 0.174003 -2.0135 0
M  V30 2153 C 212.937 1.46139 -1.29106 0
M  V30 2154 O 212.207 1.91448 -0.415253 0
M  V30 2155 H 210.787 0.0672911 -0.743963 0
M  V30 2156 H 213.449 -0.538235 -1.87321 0
M  V30 2157 H 212.545 0.374254 -3.09848 0
M  V30 2158 N 212.846 1.57033 -0.133567 0
M  V30 2159 C 214.071 2.00475 0.531477 0
M  V30 2160 C 214.496 1.01291 1.58499 0
M  V30 2161 O 213.854 -0.0133279 1.81295 0
M  V30 2162 C 213.902 3.42729 1.12113 0
M  V30 2163 O 213.006 3.46498 2.23636 0
M  V30 2164 H 212.347 0.650876 0.131362 0
M  V30 2165 H 214.877 2.03344 -0.22634 0
M  V30 2166 H 214.887 3.81246 1.4531 0
M  V30 2167 H 213.562 4.14428 0.349557 0
M  V30 2168 H 212.139 3.19811 1.91769 0
M  V30 2169 N 214.325 -0.140222 1.56975 0
M  V30 2170 C 215.55 -0.870414 1.88251 0
M  V30 2171 C 215.975 -1.73637 0.723312 0
M  V30 2172 O 215.333 -1.78329 -0.32689 0
M  V30 2173 C 215.381 -1.69737 3.18154 0
M  V30 2174 O 214.485 -2.80229 3.02565 0
M  V30 2175 H 213.826 -0.242025 0.61832 0
M  V30 2176 H 216.356 -0.128999 2.04193 0
M  V30 2177 H 216.366 -2.09099 3.50345 0
M  V30 2178 H 215.041 -1.06152 4.02125 0
M  V30 2179 H 213.618 -2.44224 2.81796 0
M  V30 2180 N 215.803 -1.52179 -0.40978 0
M  V30 2181 C 217.028 -1.70347 -1.18308 0
M  V30 2182 C 217.453 -0.411887 -1.83535 0
M  V30 2183 O 216.811 0.630587 -1.6998 0
M  V30 2184 C 216.859 -2.83977 -2.22238 0
M  V30 2185 O 215.963 -2.495 -3.28365 0
M  V30 2186 H 215.304 -0.567103 -0.345384 0
M  V30 2187 H 217.834 -1.98879 -0.480445 0
M  V30 2188 H 217.844 -3.0887 -2.66577 0
M  V30 2189 H 216.519 -3.77685 -1.74146 0
M  V30 2190 H 215.096 -2.35277 -2.89308 0
M  V30 2191 N 217.281 0.66697 -1.42791 0
M  V30 2192 C 218.527 1.4291 -1.43891 0
M  V30 2193 C 218.86 1.94114 -0.0578972 0
M  V30 2194 O 218.135 1.71414 0.91911 0
M  V30 2195 C 218.418 2.62049 -2.46987 0
M  V30 2196 C 218.271 2.16426 -3.94309 0
M  V30 2197 C 219.59 3.64266 -2.46978 0
M  V30 2198 H 216.709 0.518306 -0.523954 0
M  V30 2199 H 219.351 0.757321 -1.74255 0
M  V30 2200 H 217.501 3.19361 -2.21225 0
M  V30 2201 H 219.173 1.64221 -4.31079 0
M  V30 2202 H 217.416 1.47925 -4.078 0
M  V30 2203 H 218.087 3.02038 -4.62036 0
M  V30 2204 H 220.563 3.16686 -2.69906 0
M  V30 2205 H 219.439 4.45196 -3.21079 0
M  V30 2206 H 219.7 4.15927 -1.49857 0
M  V30 2207 N 218.759 1.29093 0.90403 0
M  V30 2208 C 219.669 1.15727 2.0407 0
M  V30 2209 C 220.685 0.0815308 1.73809 0
M  V30 2210 O 221.861 0.292749 1.99261 0
M  V30 2211 C 218.926 0.830424 3.36608 0
M  V30 2212 C 217.987 1.98955 3.80415 0
M  V30 2213 C 217.22 1.6782 5.06628 0
M  V30 2214 O 217.443 0.597105 5.67266 0
M  V30 2215 O 216.377 2.52486 5.46383 0
M  V30 2216 H 220.203 2.11171 2.18267 0
M  V30 2217 H 217.788 1.08504 1.027 0
M  V30 2218 H 219.67 0.662521 4.16159 0
M  V30 2219 H 218.345 -0.0942678 3.23563 0
M  V30 2220 H 217.252 2.21267 3.01648 0
M  V30 2221 H 218.585 2.89529 3.98037 0
M  V30 2222 N 220.237 -1.11381 1.11499 0
M  V30 2223 C 221.167 -2.19509 0.796125 0
M  V30 2224 C 222.148 -1.68458 -0.235796 0
M  V30 2225 O 223.333 -1.93947 -0.0991344 0
M  V30 2226 C 220.463 -3.46475 0.239205 0
M  V30 2227 C 219.417 -4.10744 1.20307 0
M  V30 2228 C 218.743 -5.32293 0.50683 0
M  V30 2229 C 220.043 -4.55597 2.55399 0
M  V30 2230 H 221.737 -2.46439 1.70024 0
M  V30 2231 H 219.283 -1.18446 0.818935 0
M  V30 2232 H 221.236 -4.214 0.00392006 0
M  V30 2233 H 219.96 -3.19006 -0.700206 0
M  V30 2234 H 218.619 -3.37813 1.42399 0
M  V30 2235 H 218.267 -5.01095 -0.437408 0
M  V30 2236 H 217.967 -5.76243 1.1497 0
M  V30 2237 H 219.491 -6.09956 0.280351 0
M  V30 2238 H 220.905 -5.21841 2.37391 0
M  V30 2239 H 219.302 -5.10363 3.15673 0
M  V30 2240 H 220.372 -3.69013 3.14575 0
M  V30 2241 N 221.715 -0.905404 -1.28997 0
M  V30 2242 C 223.126 -0.581953 -1.77398 0
M  V30 2243 C 223.477 0.902552 -1.74208 0
M  V30 2244 O 222.602 1.70584 -1.33154 0
M  V30 2245 C 223.197 -1.04961 -3.22131 0
M  V30 2246 C 221.756 -0.777229 -3.68288 0
M  V30 2247 C 220.903 -1.22109 -2.48967 0
M  V30 2248 H 223.854 -1.08754 -1.15578 0
M  V30 2249 H 223.875 -0.387387 -3.78523 0
M  V30 2250 H 223.387 -2.13008 -3.24421 0
M  V30 2251 H 221.488 0.290383 -3.71467 0
M  V30 2252 H 221.601 -1.37911 -4.58822 0
M  V30 2253 H 219.965 -0.639971 -2.46529 0
M  V30 2254 H 220.748 -2.30972 -2.53982 0
M  V30 2255 N 223.193 1.4272 -0.668489 0
M  V30 2256 C 224.126 2.28111 0.0637898 0
M  V30 2257 C 225.104 1.40705 0.814912 0
M  V30 2258 O 226.288 1.70146 0.81134 0
M  V30 2259 C 223.415 3.20429 1.0974 0
M  V30 2260 C 222.461 4.24197 0.442579 0
M  V30 2261 S 223.294 5.29563 -0.795173 0
M  V30 2262 C 224.45 6.25449 0.237516 0
M  V30 2263 H 224.683 2.8987 -0.660521 0
M  V30 2264 H 222.216 1.47456 -0.457821 0
M  V30 2265 H 224.174 3.74158 1.68868 0
M  V30 2266 H 222.835 2.57818 1.79411 0
M  V30 2267 H 222.028 4.88954 1.22227 0
M  V30 2268 H 221.63 3.73925 -0.0749554 0
M  V30 2269 H 223.922 6.68524 1.09915 0
M  V30 2270 H 224.865 7.07104 -0.375421 0
M  V30 2271 H 225.273 5.61511 0.580167 0
M  V30 2272 N 224.671 0.411399 1.52136 0
M  V30 2273 C 225.601 -0.404015 2.29978 0
M  V30 2274 C 226.582 -1.04412 1.34284 0
M  V30 2275 O 227.767 -1.0527 1.63192 0
M  V30 2276 C 224.897 -1.5197 3.12286 0
M  V30 2277 C 223.851 -1.00448 4.16046 0
M  V30 2278 C 223.177 -2.21393 4.86712 0
M  V30 2279 C 224.477 -0.0569336 5.22269 0
M  V30 2280 H 226.171 0.245529 2.98392 0
M  V30 2281 H 223.717 0.119525 1.43503 0
M  V30 2282 H 225.67 -2.09715 3.6551 0
M  V30 2283 H 224.394 -2.19716 2.41646 0
M  V30 2284 H 223.053 -0.449421 3.63835 0
M  V30 2285 H 222.701 -2.87699 4.12599 0
M  V30 2286 H 222.401 -1.87571 5.56858 0
M  V30 2287 H 223.925 -2.7974 5.4275 0
M  V30 2288 H 225.339 -0.54325 5.7072 0
M  V30 2289 H 223.736 0.192594 5.99791 0
M  V30 2290 H 224.806 0.887663 4.76706 0
M  V30 2291 N 226.149 -1.5696 0.141893 0
M  V30 2292 C 227.56 -1.82797 -0.379776 0
M  V30 2293 C 227.911 -1.06033 -1.6508 0
M  V30 2294 O 227.036 -0.304011 -2.14254 0
M  V30 2295 C 227.631 -3.31578 -0.695802 0
M  V30 2296 C 226.19 -3.58014 -1.16201 0
M  V30 2297 C 225.337 -2.76699 -0.182455 0
M  V30 2298 H 228.288 -1.54406 0.366675 0
M  V30 2299 H 228.309 -3.47454 -1.55099 0
M  V30 2300 H 227.821 -3.87421 0.229449 0
M  V30 2301 H 225.922 -3.07553 -2.10338 0
M  V30 2302 H 226.035 -4.66501 -1.09151 0
M  V30 2303 H 224.399 -2.45618 -0.674072 0
M  V30 2304 H 225.182 -3.35311 0.736297 0
M  V30 2305 N 227.627 0.131896 -1.57047 0
M  V30 2306 C 228.557 1.16384 -2.02428 0
M  V30 2307 C 229.538 1.43936 -0.90644 0
M  V30 2308 O 230.723 1.54599 -1.17528 0
M  V30 2309 C 227.853 2.49328 -2.4177 0
M  V30 2310 C 226.807 2.36266 -3.56879 0
M  V30 2311 C 226.133 3.74057 -3.8208 0
M  V30 2312 C 227.433 1.834 -4.89042 0
M  V30 2313 H 229.127 0.786433 -2.88887 0
M  V30 2314 H 226.673 0.376855 -1.38981 0
M  V30 2315 H 228.626 3.21759 -2.7212 0
M  V30 2316 H 227.35 2.88934 -1.52266 0
M  V30 2317 H 226.009 1.66286 -3.26718 0
M  V30 2318 H 225.657 4.11125 -2.89803 0
M  V30 2319 H 225.357 3.66174 -4.59554 0
M  V30 2320 H 226.881 4.48012 -4.1487 0
M  V30 2321 H 228.295 2.45636 -5.18011 0
M  V30 2322 H 226.692 1.8637 -5.70426 0
M  V30 2323 H 227.762 0.790662 -4.7841 0
M  V30 2324 N 229.106 1.52395 0.401703 0
M  V30 2325 C 230.354 1.66488 1.14569 0
M  V30 2326 C 230.675 0.400897 1.90835 0
M  V30 2327 O 229.945 -0.584415 1.8698 0
M  V30 2328 H 228.525 0.613672 0.425929 0
M  V30 2329 H 231.187 1.89464 0.457093 0
M  V30 2330 H 230.283 2.50942 1.85566 0
M  V30 2331 N 230.584 -0.659388 1.43143 0
M  V30 2332 C 231.832 -1.41654 1.44147 0
M  V30 2333 C 232.153 -1.94893 0.0645739 0
M  V30 2334 O 231.423 -1.74044 -0.899198 0
M  V30 2335 H 230.003 -0.525708 0.530697 0
M  V30 2336 H 232.665 -0.778097 1.78694 0
M  V30 2337 H 231.761 -2.26195 2.1504 0
M  V30 2338 N 232.062 -1.29571 -0.897171 0
M  V30 2339 C 233.473 -1.15964 -1.46319 0
M  V30 2340 C 233.824 0.244267 -1.94674 0
M  V30 2341 O 232.949 1.13998 -1.83939 0
M  V30 2342 C 233.544 -2.09906 -2.65942 0
M  V30 2343 C 232.103 -2.00314 -3.18671 0
M  V30 2344 C 231.25 -2.00687 -1.91363 0
M  V30 2345 H 234.201 -1.42019 -0.708268 0
M  V30 2346 H 234.222 -1.67276 -3.41759 0
M  V30 2347 H 233.734 -3.12075 -2.30718 0
M  V30 2348 H 231.835 -1.01242 -3.58582 0
M  V30 2349 H 231.948 -2.88102 -3.82798 0
M  V30 2350 H 230.312 -1.45319 -2.09175 0
M  V30 2351 H 231.095 -3.04566 -1.58413 0
M  V30 2352 N 233.54 1.10788 -1.12088 0
M  V30 2353 C 234.786 1.82942 -0.875226 0
M  V30 2354 C 235.119 1.84779 0.597538 0
M  V30 2355 O 234.394 1.30578 1.44152 0
M  V30 2356 C 234.677 3.29789 -1.44606 0
M  V30 2357 C 234.53 3.36307 -2.98693 0
M  V30 2358 C 235.849 4.26064 -1.10261 0
M  V30 2359 H 232.968 0.664195 -0.319397 0
M  V30 2360 H 235.61 1.29867 -1.38689 0
M  V30 2361 H 233.76 3.75118 -1.01089 0
M  V30 2362 H 235.432 2.99487 -3.50864 0
M  V30 2363 H 233.675 2.76318 -3.34411 0
M  V30 2364 H 234.346 4.39694 -3.33726 0
M  V30 2365 H 236.822 3.88951 -1.4784 0
M  V30 2366 H 235.698 5.27183 -1.52869 0
M  V30 2367 H 235.959 4.42098 -0.0142953 0
M  V30 2368 N 235.018 0.912232 1.28515 0
M  V30 2369 C 236.267 0.540504 1.94323 0
M  V30 2370 C 236.58 -0.920044 1.72611 0
M  V30 2371 O 237.786 -1.39986 2.32629 0
M  V30 2372 C 236.242 0.915803 3.48053 0
M  V30 2373 C 235.85 2.39598 3.78546 0
M  V30 2374 C 237.594 0.614588 4.20027 0
M  V30 2375 C 235.501 2.71148 5.25578 0
M  V30 2376 H 234.431 0.198418 0.727424 0
M  V30 2377 H 237.082 1.11094 1.46049 0
M  V30 2378 H 235.464 0.274168 3.9505 0
M  V30 2379 H 236.638 3.08422 3.42364 0
M  V30 2380 H 234.953 2.66749 3.1974 0
M  V30 2381 H 237.55 0.827002 5.28266 0
M  V30 2382 H 237.893 -0.447531 4.13887 0
M  V30 2383 H 238.426 1.21462 3.78803 0
M  V30 2384 H 235.165 3.76207 5.36794 0
M  V30 2385 H 234.685 2.0696 5.62963 0
M  V30 2386 H 236.364 2.58072 5.93302 0
M  V30 2387 N 236.496 -1.42363 0.676048 0
M  V30 2388 C 237.721 -2.06377 0.205705 0
M  V30 2389 C 238.146 -1.50463 -1.12883 0
M  V30 2390 O 237.504 -0.623619 -1.70237 0
M  V30 2391 C 237.552 -3.60277 0.152655 0
M  V30 2392 O 236.656 -4.02935 -0.87845 0
M  V30 2393 H 235.997 -0.655588 0.105359 0
M  V30 2394 H 238.527 -1.82475 0.925412 0
M  V30 2395 H 238.537 -4.07993 -0.0230675 0
M  V30 2396 H 237.212 -4.00346 1.12675 0
M  V30 2397 H 235.789 -3.66764 -0.673668 0
M  V30 2398 N 237.974 -0.419461 -1.51915 0
M  V30 2399 C 239.199 0.154572 -2.06823 0
M  V30 2400 C 239.624 1.3722 -1.28656 0
M  V30 2401 O 238.982 1.78461 -0.319583 0
M  V30 2402 C 239.03 0.473172 -3.57482 0
M  V30 2403 O 238.134 1.56255 -3.81652 0
M  V30 2404 H 237.475 0.0096924 -0.663929 0
M  V30 2405 H 240.005 -0.595642 -1.95738 0
M  V30 2406 H 240.015 0.728825 -4.01438 0
M  V30 2407 H 238.69 -0.416873 -4.13805 0
M  V30 2408 H 237.267 1.29825 -3.49571 0
M  V30 2409 N 239.452 1.56882 -0.150215 0
M  V30 2410 C 240.68 2.00593 0.506948 0
M  V30 2411 C 241.095 1.03033 1.58208 0
M  V30 2412 O 240.452 0.0278396 1.82479 0
M  V30 2413 C 240.503 3.44209 1.10465 0
M  V30 2414 O 240.224 4.3804 0.0724636 0
M  V30 2415 C 241.725 4.03214 1.84211 0
M  V30 2416 H 238.945 0.65795 0.13169 0
M  V30 2417 H 241.489 2.03018 -0.245743 0
M  V30 2418 H 239.644 3.42625 1.80795 0
M  V30 2419 H 240.058 5.22007 0.510793 0
M  V30 2420 H 241.532 5.0569 2.21318 0
M  V30 2421 H 242.009 3.44107 2.72923 0
M  V30 2422 H 242.615 4.08437 1.18572 0
M  V30 2423 N 240.93 -0.123565 1.57115 0
M  V30 2424 C 241.84 -1.17074 2.033 0
M  V30 2425 C 242.856 -1.4561 0.952559 0
M  V30 2426 O 244.032 -1.56817 1.26374 0
M  V30 2427 C 241.097 -2.47857 2.42421 0
M  V30 2428 C 240.158 -2.26758 3.64526 0
M  V30 2429 C 239.391 -3.51305 4.01771 0
M  V30 2430 O 239.614 -4.5843 3.39409 0
M  V30 2431 O 238.548 -3.42578 4.94898 0
M  V30 2432 H 242.374 -0.808555 2.92739 0
M  V30 2433 H 239.959 -0.334027 1.45618 0
M  V30 2434 H 241.841 -3.2492 2.68338 0
M  V30 2435 H 240.516 -2.83558 1.5613 0
M  V30 2436 H 239.423 -1.47569 3.43765 0
M  V30 2437 H 240.756 -1.95963 4.51508 0
M  V30 2438 N 242.408 -1.52605 -0.393616 0
M  V30 2439 C 243.371 -1.76415 -1.46323 0
M  V30 2440 C 244.371 -0.634126 -1.47768 0
M  V30 2441 O 245.561 -0.902142 -1.4902 0
M  V30 2442 C 242.693 -1.8607 -2.85641 0
M  V30 2443 H 243.886 -2.71916 -1.26498 0
M  V30 2444 H 241.439 -1.43257 -0.625073 0
M  V30 2445 H 242.174 -0.925378 -3.10817 0
M  V30 2446 H 241.959 -2.68235 -2.85993 0
M  V30 2447 H 243.449 -2.06179 -3.63153 0
M  V30 2448 N 243.887 0.651787 -1.4349 0
M  V30 2449 C 244.817 1.77621 -1.51569 0
M  V30 2450 C 245.798 1.66022 -0.370253 0
M  V30 2451 O 246.983 1.85095 -0.587658 0
M  V30 2452 C 244.113 3.16056 -1.43966 0
M  V30 2453 C 243.067 3.4242 -2.56774 0
M  V30 2454 C 242.393 4.8067 -2.34223 0
M  V30 2455 C 243.693 3.37023 -3.99015 0
M  V30 2456 H 245.387 1.71117 -2.45681 0
M  V30 2457 H 242.933 0.821825 -1.18246 0
M  V30 2458 H 244.886 3.94472 -1.48221 0
M  V30 2459 H 243.61 3.23293 -0.463586 0
M  V30 2460 H 242.269 2.66375 -2.51873 0
M  V30 2461 H 241.917 4.84585 -1.34856 0
M  V30 2462 H 241.617 4.9927 -3.09844 0
M  V30 2463 H 243.141 5.61342 -2.40265 0
M  V30 2464 H 244.555 4.05374 -4.05395 0
M  V30 2465 H 242.952 3.67159 -4.74673 0
M  V30 2466 H 244.022 2.3518 -4.2405 0
M  V30 2467 N 245.365 1.30045 0.890287 0
M  V30 2468 C 246.328 1.15963 1.977 0
M  V30 2469 C 247.328 0.0923777 1.60534 0
M  V30 2470 O 248.518 0.340071 1.70848 0
M  V30 2471 C 245.65 0.775451 3.31963 0
M  V30 2472 H 246.843 2.12502 2.11619 0
M  V30 2473 H 244.396 1.13366 1.07601 0
M  V30 2474 H 245.131 -0.189671 3.23745 0
M  V30 2475 H 244.916 1.54668 3.60306 0
M  V30 2476 H 246.406 0.700251 4.11687 0
M  V30 2477 N 246.843 -1.10192 1.12674 0
M  V30 2478 C 248.254 -1.63707 0.897604 0
M  V30 2479 C 248.605 -1.87812 -0.567546 0
M  V30 2480 O 247.73 -1.62196 -1.43253 0
M  V30 2481 C 248.325 -2.974 1.62292 0
M  V30 2482 C 246.884 -3.47772 1.43986 0
M  V30 2483 C 246.031 -2.22332 1.65722 0
M  V30 2484 H 248.982 -0.936587 1.28116 0
M  V30 2485 H 249.003 -3.64986 1.07541 0
M  V30 2486 H 248.515 -2.79824 2.68924 0
M  V30 2487 H 246.616 -3.70487 0.396206 0
M  V30 2488 H 246.729 -4.25723 2.19765 0
M  V30 2489 H 245.093 -2.30599 1.08149 0
M  V30 2490 H 245.876 -2.07285 2.73657 0
M  V30 2491 N 248.321 -0.919034 -1.28029 0
M  V30 2492 C 249.268 -0.410005 -2.27129 0
M  V30 2493 C 250.238 0.518405 -1.57803 0
M  V30 2494 O 251.423 0.439451 -1.8567 0
M  V30 2495 C 248.563 0.339054 -3.4343 0
M  V30 2496 C 247.676 -0.622468 -4.27492 0
M  V30 2497 C 246.811 0.145567 -5.31001 0
M  V30 2498 C 245.85 -0.809226 -6.06727 0
M  V30 2499 N 244.987 -0.0743728 -7.02061 0
M  V30 2500 H 249.827 -1.26011 -2.70047 0
M  V30 2501 H 247.364 -0.632663 -1.328 0
M  V30 2502 H 249.322 0.789586 -4.0966 0
M  V30 2503 H 247.952 1.15346 -3.01488 0
M  V30 2504 H 247.004 -1.19153 -3.61257 0
M  V30 2505 H 248.316 -1.35252 -4.80113 0
M  V30 2506 H 247.47 0.656417 -6.03139 0
M  V30 2507 H 246.209 0.908643 -4.79161 0
M  V30 2508 H 245.214 -1.3314 -5.33436 0
M  V30 2509 H 246.439 -1.57194 -6.60656 0
M  V30 2510 H 244.385 0.670616 -6.52563 0
M  V30 2511 H 244.302 -0.744157 -7.52329 0
M  V30 2512 H 245.57 0.416109 -7.78389 0
M  V30 2513 N 249.799 1.42003 -0.683588 0
M  V30 2514 C 250.762 2.29191 -0.0198243 0
M  V30 2515 C 251.762 1.43773 0.72013 0
M  V30 2516 O 252.952 1.65061 0.556815 0
M  V30 2517 C 250.084 3.26435 0.982487 0
M  V30 2518 H 251.277 2.8938 -0.787345 0
M  V30 2519 H 248.83 1.49789 -0.446418 0
M  V30 2520 H 249.565 2.71203 1.77819 0
M  V30 2521 H 249.35 3.89449 0.455182 0
M  V30 2522 H 250.84 3.918 1.44508 0
M  V30 2523 N 251.277 0.427512 1.51691 0
M  V30 2524 C 252.207 -0.3796 2.30394 0
M  V30 2525 C 253.188 -1.02982 1.35384 0
M  V30 2526 O 254.373 -1.03534 1.643 0
M  V30 2527 C 251.503 -1.48649 3.1388 0
M  V30 2528 C 250.457 -0.960294 4.17088 0
M  V30 2529 C 249.783 -2.16219 4.89033 0
M  V30 2530 C 251.083 -0.00153679 5.223 0
M  V30 2531 H 252.777 0.277164 2.98114 0
M  V30 2532 H 250.323 0.134739 1.43368 0
M  V30 2533 H 252.276 -2.05826 3.67714 0
M  V30 2534 H 251 -2.1714 2.43962 0
M  V30 2535 H 249.659 -0.410806 3.64291 0
M  V30 2536 H 249.307 -2.83307 4.15628 0
M  V30 2537 H 249.007 -1.81654 5.58816 0
M  V30 2538 H 250.531 -2.73968 5.45687 0
M  V30 2539 H 251.945 -0.482687 5.71264 0
M  V30 2540 H 250.342 0.256199 5.99553 0
M  V30 2541 H 251.412 0.938174 4.75738 0
M  V30 2542 N 252.755 -1.56801 0.158532 0
M  V30 2543 C 254.166 -1.83189 -0.360366 0
M  V30 2544 C 254.517 -1.07778 -1.63946 0
M  V30 2545 O 253.642 -0.326718 -2.13919 0
M  V30 2546 C 254.237 -3.32297 -0.660595 0
M  V30 2547 C 252.796 -3.59227 -1.12398 0
M  V30 2548 C 251.943 -2.76877 -0.153097 0
M  V30 2549 H 254.894 -1.54008 0.383031 0
M  V30 2550 H 254.915 -3.4908 -1.51405 0
M  V30 2551 H 254.427 -3.87156 0.270527 0
M  V30 2552 H 252.528 -3.09766 -2.07064 0
M  V30 2553 H 252.641 -4.67632 -1.04197 0
M  V30 2554 H 251.005 -2.46319 -0.647983 0
M  V30 2555 H 251.788 -3.34511 0.77182 0
M  V30 2556 N 254.233 0.115231 -1.57178 0
M  V30 2557 C 255.165 1.16694 -1.97269 0
M  V30 2558 C 256.178 1.37445 -0.872502 0
M  V30 2559 O 257.367 1.36454 -1.15077 0
M  V30 2560 C 254.467 2.52627 -2.25905 0
M  V30 2561 C 253.64 2.52427 -3.57211 0
M  V30 2562 C 252.699 3.70134 -3.74016 0
M  V30 2563 O 251.725 3.53546 -4.46087 0
M  V30 2564 N 252.927 4.88844 -3.13068 0
M  V30 2565 H 255.692 0.82588 -2.88096 0
M  V30 2566 H 253.253 0.304461 -1.59011 0
M  V30 2567 H 255.245 3.29937 -2.34359 0
M  V30 2568 H 253.815 2.789 -1.41186 0
M  V30 2569 H 253.035 1.60805 -3.5991 0
M  V30 2570 H 254.323 2.49353 -4.43509 0
M  V30 2571 H 253.721 5.05225 -2.54489 0
M  V30 2572 H 252.278 5.63817 -3.27037 0
M  V30 2573 N 255.711 1.52812 0.385517 0
M  V30 2574 C 256.661 1.74219 1.47078 0
M  V30 2575 C 257.645 0.59632 1.49442 0
M  V30 2576 O 258.837 0.85428 1.5502 0
M  V30 2577 C 255.966 1.9176 2.84751 0
M  V30 2578 C 255.052 3.12289 2.86943 0
M  V30 2579 N 255.443 4.34575 2.58802 0
M  V30 2580 C 253.741 3.12605 3.1811 0
M  V30 2581 C 254.442 5.162 2.68166 0
M  V30 2582 N 253.418 4.51964 3.02043 0
M  V30 2583 H 257.22 2.6639 1.24152 0
M  V30 2584 H 254.734 1.51166 0.593504 0
M  V30 2585 H 256.731 2.05218 3.62893 0
M  V30 2586 H 255.391 1.00805 3.08656 0
M  V30 2587 H 256.402 4.62649 2.32759 0
M  V30 2588 H 253.079 2.31472 3.47458 0
M  V30 2589 H 254.469 6.23689 2.49923 0
M  V30 2590 N 257.189 -0.644168 1.43834 0
M  V30 2591 C 258.119 -1.76814 1.52509 0
M  V30 2592 C 259.1 -1.65823 0.379052 0
M  V30 2593 O 260.285 -1.84781 0.597466 0
M  V30 2594 C 257.415 -3.15288 1.4564 0
M  V30 2595 C 256.369 -3.41053 2.58586 0
M  V30 2596 C 255.695 -4.79421 2.36769 0
M  V30 2597 C 256.995 -3.34902 4.00797 0
M  V30 2598 H 258.689 -1.69812 2.46586 0
M  V30 2599 H 256.235 -0.815542 1.1868 0
M  V30 2600 H 258.188 -3.93681 1.50311 0
M  V30 2601 H 256.912 -3.23043 0.480725 0
M  V30 2602 H 255.571 -2.65035 2.53282 0
M  V30 2603 H 255.219 -4.83863 1.37424 0
M  V30 2604 H 254.919 -4.9762 3.12487 0
M  V30 2605 H 256.443 -5.6006 2.43238 0
M  V30 2606 H 257.857 -4.03218 4.07539 0
M  V30 2607 H 256.254 -3.64637 4.76613 0
M  V30 2608 H 257.324 -2.32928 4.25291 0
M  V30 2609 N 258.668 -1.30515 -0.883378 0
M  V30 2610 C 259.914 -1.19607 -1.63774 0
M  V30 2611 C 260.247 0.248314 -1.92606 0
M  V30 2612 O 259.522 1.17742 -1.54813 0
M  V30 2613 C 259.805 -2.02669 -2.97653 0
M  V30 2614 C 259.658 -3.55335 -2.75784 0
M  V30 2615 C 260.977 -1.86573 -3.98596 0
M  V30 2616 H 258.096 -0.435856 -0.594305 0
M  V30 2617 H 260.738 -1.60165 -1.02212 0
M  V30 2618 H 258.888 -1.68208 -3.50197 0
M  V30 2619 H 260.56 -3.99863 -2.30016 0
M  V30 2620 H 258.803 -3.79438 -2.1026 0
M  V30 2621 H 259.474 -4.08745 -3.70988 0
M  V30 2622 H 261.95 -2.16703 -3.55217 0
M  V30 2623 H 260.826 -2.47014 -4.90179 0
M  V30 2624 H 261.087 -0.825321 -4.34328 0
M  V30 2625 N 260.146 1.09593 -1.13257 0
M  V30 2626 C 261.392 1.82003 -0.89458 0
M  V30 2627 C 261.725 1.85402 0.577906 0
M  V30 2628 O 261 1.32099 1.42759 0
M  V30 2629 C 261.283 3.28237 -1.48096 0
M  V30 2630 C 261.136 3.3312 -3.02244 0
M  V30 2631 C 262.455 4.24871 -1.14774 0
M  V30 2632 H 259.574 0.66077 -0.326424 0
M  V30 2633 H 262.216 1.28389 -1.40058 0
M  V30 2634 H 260.366 3.74024 -1.05062 0
M  V30 2635 H 262.038 2.95748 -3.54021 0
M  V30 2636 H 260.281 2.72756 -3.37323 0
M  V30 2637 H 260.952 4.3613 -3.38371 0
M  V30 2638 H 263.428 3.87361 -1.51957 0
M  V30 2639 H 262.304 5.25532 -1.58452 0
M  V30 2640 H 262.565 4.42058 -0.0611849 0
M  V30 2641 N 261.624 0.925811 1.2754 0
M  V30 2642 C 262.87 0.566092 1.94739 0
M  V30 2643 C 263.203 -0.890057 1.72603 0
M  V30 2644 O 262.478 -1.63467 1.05399 0
M  V30 2645 C 262.761 0.89054 3.48915 0
M  V30 2646 C 262.614 2.4003 3.80402 0
M  V30 2647 C 263.933 0.395101 4.38323 0
M  V30 2648 H 261.052 0.20714 0.707292 0
M  V30 2649 H 263.694 1.15725 1.50691 0
M  V30 2650 H 261.844 0.387452 3.86563 0
M  V30 2651 H 263.516 2.97494 3.52555 0
M  V30 2652 H 261.759 2.85028 3.2702 0
M  V30 2653 H 262.43 2.57785 4.8811 0
M  V30 2654 H 264.906 0.826241 4.07814 0
M  V30 2655 H 263.782 0.651086 5.45025 0
M  V30 2656 H 264.043 -0.704798 4.36446 0
M  V30 2657 N 263.102 -1.41638 0.69111 0
M  V30 2658 C 264.35 -2.00902 0.219758 0
M  V30 2659 C 264.671 -1.54994 -1.18329 0
M  V30 2660 O 263.941 -0.778628 -1.79762 0
M  V30 2661 H 262.521 -0.74289 0.0782558 0
M  V30 2662 H 265.183 -1.73327 0.891271 0
M  V30 2663 H 264.279 -3.11224 0.233708 0
M  V30 2664 N 264.58 -0.43555 -1.51462 0
M  V30 2665 C 265.828 0.131254 -2.01673 0
M  V30 2666 C 266.149 1.43368 -1.32177 0
M  V30 2667 O 265.419 1.90524 -0.455769 0
M  V30 2668 H 263.999 0.0514954 -0.745223 0
M  V30 2669 H 266.661 -0.577847 -1.86137 0
M  V30 2670 H 265.757 0.308446 -3.10572 0
M  V30 2671 N 266.058 1.56714 -0.166846 0
M  V30 2672 C 267.306 1.96358 0.478305 0
M  V30 2673 C 267.627 1.0537 1.6408 0
M  V30 2674 O 266.897 0.119154 1.95537 0
M  V30 2675 H 265.477 0.725065 0.179692 0
M  V30 2676 H 268.139 1.93329 -0.246985 0
M  V30 2677 H 267.235 3.00547 0.841292 0
M  V30 2678 N 267.536 -0.106894 1.57237 0
M  V30 2679 C 268.766 -0.825191 1.89405 0
M  V30 2680 C 269.174 -1.73374 0.757496 0
M  V30 2681 O 268.517 -1.81552 -0.280115 0
M  V30 2682 C 268.579 -1.70102 3.1671 0
M  V30 2683 C 268.243 -0.965523 4.46684 0
M  V30 2684 C 269.24 -0.300741 5.19029 0
M  V30 2685 C 266.925 -0.943105 4.93367 0
M  V30 2686 C 268.919 0.376622 6.36286 0
M  V30 2687 C 266.606 -0.261949 6.10538 0
M  V30 2688 C 267.604 0.396748 6.81847 0
M  V30 2689 O 267.292 1.06701 7.96787 0
M  V30 2690 H 267.024 -0.241852 0.631255 0
M  V30 2691 H 269.578 -0.0921491 2.05193 0
M  V30 2692 H 267.808 -2.47601 2.97036 0
M  V30 2693 H 269.497 -2.29483 3.34802 0
M  V30 2694 H 270.263 -0.309599 4.84011 0
M  V30 2695 H 266.142 -1.44524 4.3776 0
M  V30 2696 H 269.686 0.891334 6.91882 0
M  V30 2697 H 265.583 -0.250896 6.45012 0
M  V30 2698 H 266.351 0.972707 8.127 0
M  V30 2699 N 269.014 -1.53014 -0.377408 0
M  V30 2700 C 270.263 -1.67845 -1.11853 0
M  V30 2701 C 270.576 -0.430625 -1.90801 0
M  V30 2702 O 271.782 -0.459261 -2.67587 0
M  V30 2703 C 270.238 -2.96668 -2.03756 0
M  V30 2704 C 269.846 -4.28671 -1.30175 0
M  V30 2705 C 271.59 -3.20865 -2.77932 0
M  V30 2706 C 269.497 -5.48591 -2.20911 0
M  V30 2707 H 268.427 -0.625343 -0.421263 0
M  V30 2708 H 271.078 -1.79514 -0.380409 0
M  V30 2709 H 269.46 -2.78773 -2.8125 0
M  V30 2710 H 270.634 -4.57157 -0.578259 0
M  V30 2711 H 268.949 -4.10825 -0.679108 0
M  V30 2712 H 271.546 -4.07642 -3.46024 0
M  V30 2713 H 271.889 -2.36424 -3.4265 0
M  V30 2714 H 272.422 -3.39379 -2.07525 0
M  V30 2715 H 269.161 -6.35474 -1.6079 0
M  V30 2716 H 268.681 -5.244 -2.91144 0
M  V30 2717 H 270.36 -5.8292 -2.80736 0
M  V30 2718 N 270.492 0.636531 -1.44174 0
M  V30 2719 C 271.74 1.39343 -1.46383 0
M  V30 2720 C 272.061 1.94766 -0.0955715 0
M  V30 2721 O 271.331 1.75452 0.871395 0
M  V30 2722 H 269.911 0.517199 -0.538994 0
M  V30 2723 H 272.573 0.74957 -1.7991 0
M  V30 2724 H 271.669 2.22746 -2.18611 0
M  V30 2725 N 271.97 1.30982 0.876444 0
M  V30 2726 C 272.9 1.20668 1.99903 0
M  V30 2727 C 273.881 0.095354 1.69833 0
M  V30 2728 O 275.066 0.27885 1.92188 0
M  V30 2729 C 272.196 0.90655 3.3526 0
M  V30 2730 C 271.15 1.97675 3.79617 0
M  V30 2731 C 270.476 1.52943 5.1236 0
M  V30 2732 C 271.776 3.389 3.97422 0
M  V30 2733 H 273.47 2.14586 2.0879 0
M  V30 2734 H 271.016 1.03308 1.00317 0
M  V30 2735 H 272.969 0.821025 4.13324 0
M  V30 2736 H 271.693 -0.0682969 3.26529 0
M  V30 2737 H 270.352 2.05205 3.03787 0
M  V30 2738 H 270 0.54262 5.00065 0
M  V30 2739 H 269.7 2.24532 5.43009 0
M  V30 2740 H 271.224 1.45786 5.92941 0
M  V30 2741 H 272.638 3.34081 4.659 0
M  V30 2742 H 271.035 4.0865 4.3946 0
M  V30 2743 H 272.105 3.80163 3.01006 0
M  V30 2744 N 273.449 -1.08991 1.13837 0
M  V30 2745 C 274.359 -2.19301 0.833333 0
M  V30 2746 C 275.375 -1.73026 -0.183847 0
M  V30 2747 O 276.551 -2.01395 -0.0138092 0
M  V30 2748 C 273.616 -3.45323 0.308651 0
M  V30 2749 C 272.677 -4.06255 1.38764 0
M  V30 2750 C 271.91 -5.26262 0.887896 0
M  V30 2751 O 272.133 -5.69747 -0.27287 0
M  V30 2752 O 271.067 -5.78435 1.66421 0
M  V30 2753 H 274.893 -2.47854 1.75506 0
M  V30 2754 H 272.478 -1.18012 0.916166 0
M  V30 2755 H 274.36 -4.21394 0.0216739 0
M  V30 2756 H 273.035 -3.18362 -0.585431 0
M  V30 2757 H 271.942 -3.318 1.72799 0
M  V30 2758 H 273.275 -4.37452 2.25602 0
M  V30 2759 N 274.927 -0.932562 -1.27047 0
M  V30 2760 C 275.857 -0.452902 -2.29066 0
M  V30 2761 C 276.838 0.489338 -1.62909 0
M  V30 2762 O 278.023 0.393046 -1.90181 0
M  V30 2763 C 275.153 0.290698 -3.46081 0
M  V30 2764 C 274.107 -0.564168 -4.24265 0
M  V30 2765 C 273.433 0.308886 -5.33807 0
M  V30 2766 C 274.733 -1.83112 -4.89149 0
M  V30 2767 H 276.427 -1.30552 -2.69437 0
M  V30 2768 H 273.973 -0.629201 -1.29526 0
M  V30 2769 H 275.926 0.637233 -4.16554 0
M  V30 2770 H 274.65 1.17738 -3.0464 0
M  V30 2771 H 273.309 -0.893477 -3.55545 0
M  V30 2772 H 272.957 1.19467 -4.88607 0
M  V30 2773 H 272.657 -0.259633 -5.87026 0
M  V30 2774 H 274.181 0.650884 -6.07121 0
M  V30 2775 H 275.595 -1.55236 -5.51883 0
M  V30 2776 H 273.992 -2.34353 -5.52448 0
M  V30 2777 H 275.062 -2.54772 -4.12576 0
M  V30 2778 N 276.405 1.4127 -0.698611 0
M  V30 2779 C 277.653 2.00782 -0.230409 0
M  V30 2780 C 277.974 1.5562 1.17505 0
M  V30 2781 O 277.244 0.78815 1.79346 0
M  V30 2782 H 275.824 0.742464 -0.0821944 0
M  V30 2783 H 278.486 1.72852 -0.90045 0
M  V30 2784 H 277.582 3.11095 -0.25021 0
M  V30 2785 N 277.883 0.443576 1.51229 0
M  V30 2786 C 279.132 -0.122332 2.01329 0
M  V30 2787 C 279.445 -1.43237 1.33201 0
M  V30 2788 O 280.651 -2.0816 1.74304 0
M  V30 2789 C 279.107 -0.268551 3.58897 0
M  V30 2790 C 278.715 1.03142 4.35965 0
M  V30 2791 C 280.459 -0.787894 4.17124 0
M  V30 2792 C 278.366 0.850504 5.85252 0
M  V30 2793 H 277.296 -0.0494929 0.752374 0
M  V30 2794 H 279.947 0.574289 1.74282 0
M  V30 2795 H 278.329 -1.02832 3.82415 0
M  V30 2796 H 279.503 1.80001 4.24189 0
M  V30 2797 H 277.818 1.47977 3.89219 0
M  V30 2798 H 280.415 -0.939841 5.26375 0
M  V30 2799 H 280.758 -1.77201 3.76703 0
M  V30 2800 H 281.291 -0.0862669 3.97706 0
M  V30 2801 H 278.03 1.80718 6.30096 0
M  V30 2802 H 277.55 0.121825 5.99676 0
M  V30 2803 H 279.229 0.506163 6.45017 0
M  V30 2804 N 279.361 -1.56624 0.175154 0
M  V30 2805 C 280.324 -2.16934 -0.739738 0
M  V30 2806 C 281.324 -1.11842 -1.15533 0
M  V30 2807 O 282.514 -1.37335 -1.07167 0
M  V30 2808 C 279.646 -2.75531 -2.00738 0
M  V30 2809 H 280.839 -2.99131 -0.214639 0
M  V30 2810 H 278.392 -1.56123 -0.0744197 0
M  V30 2811 H 279.127 -1.97078 -2.57548 0
M  V30 2812 H 278.912 -3.52444 -1.71831 0
M  V30 2813 H 280.402 -3.21904 -2.66021 0
M  V30 2814 N 280.839 0.0985539 -1.57292 0
M  V30 2815 C 282.069 0.815135 -1.8984 0
M  V30 2816 C 282.477 1.7297 -0.766679 0
M  V30 2817 O 281.82 1.81698 0.270483 0
M  V30 2818 C 281.882 1.6842 -3.17608 0
M  V30 2819 C 281.546 0.94182 -4.4719 0
M  V30 2820 C 282.543 0.273212 -5.19182 0
M  V30 2821 C 280.228 0.916927 -4.9386 0
M  V30 2822 C 282.222 -0.410361 -6.36078 0
M  V30 2823 C 279.909 0.229567 -6.10669 0
M  V30 2824 C 280.907 -0.432902 -6.81627 0
M  V30 2825 O 280.595 -1.10925 -7.9621 0
M  V30 2826 H 280.327 0.238501 -0.632529 0
M  V30 2827 H 282.881 0.0812659 -2.05239 0
M  V30 2828 H 281.111 2.46022 -2.98345 0
M  V30 2829 H 282.8 2.27704 -3.36015 0
M  V30 2830 H 283.566 0.283927 -4.84168 0
M  V30 2831 H 279.445 1.42201 -4.3852 0
M  V30 2832 H 282.989 -0.928013 -6.914 0
M  V30 2833 H 278.886 0.216686 -6.45136 0
M  V30 2834 H 279.654 -1.01579 -8.12172 0
M  V30 2835 N 282.317 1.53212 0.369288 0
M  V30 2836 C 283.733 1.42902 0.710712 0
M  V30 2837 C 283.933 0.565135 1.93413 0
M  V30 2838 O 282.989 0.0461484 2.52458 0
M  V30 2839 C 284.302 2.86042 0.927382 0
M  V30 2840 C 285.85 2.9565 1.02762 0
M  V30 2841 C 286.325 4.39843 1.27679 0
M  V30 2842 N 287.816 4.43256 1.34457 0
M  V30 2843 C 288.551 5.51929 1.55439 0
M  V30 2844 N 288.047 6.70655 1.73762 0
M  V30 2845 N 289.84 5.39502 1.57779 0
M  V30 2846 H 281.991 2.07888 -0.435457 0
M  V30 2847 H 284.254 0.938661 -0.132739 0
M  V30 2848 H 283.96 3.51557 0.100287 0
M  V30 2849 H 283.834 3.29472 1.83653 0
M  V30 2850 H 286.221 2.30291 1.84527 0
M  V30 2851 H 286.302 2.5562 0.0959504 0
M  V30 2852 H 285.946 5.05774 0.464175 0
M  V30 2853 H 285.876 4.77443 2.22162 0
M  V30 2854 H 288.367 3.5769 1.21926 0
M  V30 2855 H 288.68 7.49248 1.89335 0
M  V30 2856 H 287.025 6.73648 1.70948 0
M  V30 2857 H 290.216 4.45713 1.43029 0
M  V30 2858 H 290.389 6.2426 1.7379 0
M  V30 2859 N 283.795 -0.628877 1.44509 0
M  V30 2860 C 284.742 -1.74074 1.51549 0
M  V30 2861 C 285.712 -1.62084 0.363021 0
M  V30 2862 O 286.897 -1.81975 0.573567 0
M  V30 2863 C 284.037 -3.12328 1.46784 0
M  V30 2864 C 283.15 -3.35277 2.72422 0
M  V30 2865 C 282.285 -4.63515 2.59475 0
M  V30 2866 C 281.324 -4.7965 3.80266 0
M  V30 2867 N 280.461 -5.99168 3.65981 0
M  V30 2868 H 285.301 -1.67392 2.46544 0
M  V30 2869 H 282.838 -0.816527 1.22357 0
M  V30 2870 H 284.796 -3.92286 1.42012 0
M  V30 2871 H 283.426 -3.18018 0.553544 0
M  V30 2872 H 282.478 -2.49242 2.87372 0
M  V30 2873 H 283.79 -3.43078 3.62076 0
M  V30 2874 H 282.944 -5.51638 2.52548 0
M  V30 2875 H 281.683 -4.58076 1.67384 0
M  V30 2876 H 280.688 -3.89957 3.87574 0
M  V30 2877 H 281.913 -4.86902 4.73395 0
M  V30 2878 H 279.859 -5.94814 2.76644 0
M  V30 2879 H 279.776 -6.08035 4.49254 0
M  V30 2880 H 281.044 -6.89846 3.6295 0
M  V30 2881 N 285.273 -1.31445 -0.869486 0
M  V30 2882 C 286.203 -1.21727 -1.99261 0
M  V30 2883 C 287.184 -0.104359 -1.6978 0
M  V30 2884 O 288.369 -0.289038 -1.92037 0
M  V30 2885 C 285.499 -0.924317 -3.34774 0
M  V30 2886 C 284.453 -1.99685 -3.78563 0
M  V30 2887 C 283.779 -1.55658 -5.11541 0
M  V30 2888 C 285.079 -3.41003 -3.95619 0
M  V30 2889 H 286.773 -2.1569 -2.07649 0
M  V30 2890 H 284.319 -1.03839 -0.997675 0
M  V30 2891 H 286.272 -0.842934 -4.12883 0
M  V30 2892 H 284.996 0.0509793 -3.2656 0
M  V30 2893 H 283.655 -2.06813 -3.02694 0
M  V30 2894 H 283.303 -0.569132 -4.9977 0
M  V30 2895 H 283.003 -2.27409 -5.41811 0
M  V30 2896 H 284.527 -1.48928 -5.92159 0
M  V30 2897 H 285.941 -3.36547 -4.64122 0
M  V30 2898 H 284.338 -4.10975 -4.37286 0
M  V30 2899 H 285.408 -3.81754 -2.98985 0
M  V30 2900 N 286.751 1.08385 -1.14413 0
M  V30 2901 C 287.999 1.80419 -0.910679 0
M  V30 2902 C 288.32 1.86658 0.564243 0
M  V30 2903 O 287.59 1.35985 1.41014 0
M  V30 2904 H 286.17 0.668204 -0.333934 0
M  V30 2905 H 288.832 1.31037 -1.44275 0
M  V30 2906 H 287.928 2.83238 -1.31082 0
M  V30 2907 N 288.23 0.939286 1.26551 0
M  V30 2908 C 289.193 0.451987 2.24699 0
M  V30 2909 C 290.193 -0.435869 1.5478 0
M  V30 2910 O 291.383 -0.235314 1.72603 0
M  V30 2911 C 288.515 -0.348801 3.39111 0
M  V30 2912 H 289.708 1.3193 2.69322 0
M  V30 2913 H 287.261 0.721072 1.38673 0
M  V30 2914 H 287.996 -1.23444 2.99887 0
M  V30 2915 H 287.781 0.287945 3.91041 0
M  V30 2916 H 289.271 -0.679726 4.12031 0
M  V30 2917 N 289.708 -1.40897 0.706093 0
M  V30 2918 C 290.64 -2.29199 0.00815776 0
M  V30 2919 C 291.653 -1.45336 -0.733582 0
M  V30 2920 O 292.842 -1.68727 -0.582537 0
M  V30 2921 C 289.942 -3.23417 -1.01265 0
M  V30 2922 C 289.115 -4.36089 -0.338387 0
M  V30 2923 C 288.174 -5.10811 -1.26326 0
M  V30 2924 O 287.2 -5.64215 -0.751651 0
M  V30 2925 N 288.402 -5.19269 -2.595 0
M  V30 2926 H 291.167 -2.89738 0.766297 0
M  V30 2927 H 288.728 -1.52164 0.55296 0
M  V30 2928 H 290.72 -3.70276 -1.63334 0
M  V30 2929 H 289.29 -2.64112 -1.67223 0
M  V30 2930 H 288.51 -3.91479 0.462352 0
M  V30 2931 H 289.798 -5.08634 0.130031 0
M  V30 2932 H 289.196 -4.77347 -3.03573 0
M  V30 2933 H 287.753 -5.69667 -3.16737 0
M  V30 2934 N 291.186 -0.45159 -1.50991 0
M  V30 2935 C 292.432 0.110237 -2.025 0
M  V30 2936 C 292.765 1.41109 -1.33424 0
M  V30 2937 O 292.04 1.89135 -0.453659 0
M  V30 2938 C 292.323 0.314271 -3.58726 0
M  V30 2939 C 292.176 -1.00623 -4.38401 0
M  V30 2940 C 293.495 1.07767 -4.26702 0
M  V30 2941 H 290.614 0.0385897 -0.735989 0
M  V30 2942 H 293.256 -0.593374 -1.80497 0
M  V30 2943 H 291.406 0.913601 -3.77605 0
M  V30 2944 H 293.078 -1.64064 -4.31139 0
M  V30 2945 H 291.321 -1.6075 -4.02917 0
M  V30 2946 H 291.992 -0.817341 -5.45915 0
M  V30 2947 H 294.468 0.56986 -4.12179 0
M  V30 2948 H 293.344 1.18921 -5.35863 0
M  V30 2949 H 293.605 2.10939 -3.88532 0
M  V30 2950 N 292.664 1.56529 -0.183458 0
M  V30 2951 C 293.889 2.02064 0.467428 0
M  V30 2952 C 294.314 1.06282 1.55196 0
M  V30 2953 O 293.672 0.0443565 1.81246 0
M  V30 2954 C 293.72 3.46122 1.01153 0
M  V30 2955 O 292.824 3.53437 2.12499 0
M  V30 2956 H 292.165 0.654726 0.110588 0
M  V30 2957 H 294.695 2.02521 -0.290917 0
M  V30 2958 H 294.705 3.85676 1.33108 0
M  V30 2959 H 293.38 4.15331 0.217533 0
M  V30 2960 H 291.957 3.2575 1.81497 0
M  V30 2961 N 294.142 -0.090211 1.57342 0
M  V30 2962 C 295.388 -0.793982 1.86611 0
M  V30 2963 C 295.721 -1.78142 0.773252 0
M  V30 2964 O 294.996 -1.93271 -0.218304 0
M  V30 2965 C 295.279 -1.51839 3.26523 0
M  V30 2966 C 295.132 -0.548609 4.46442 0
M  V30 2967 C 296.451 -2.46779 3.64401 0
M  V30 2968 H 293.57 -0.287186 0.678744 0
M  V30 2969 H 296.212 -0.0575076 1.89913 0
M  V30 2970 H 294.362 -2.14617 3.23839 0
M  V30 2971 H 296.034 0.0725513 4.61243 0
M  V30 2972 H 294.277 0.137614 4.33582 0
M  V30 2973 H 294.948 -1.09271 5.41076 0
M  V30 2974 H 297.424 -1.94089 3.68061 0
M  V30 2975 H 296.3 -2.94479 4.63221 0
M  V30 2976 H 296.561 -3.30758 2.93346 0
M  V30 2977 N 295.62 -1.53406 -0.361157 0
M  V30 2978 C 296.866 -1.70054 -1.10496 0
M  V30 2979 C 297.199 -0.453278 -1.88836 0
M  V30 2980 O 296.474 0.5495 -1.86576 0
M  V30 2981 C 296.757 -2.95317 -2.06058 0
M  V30 2982 C 296.61 -4.3021 -1.31298 0
M  V30 2983 C 297.929 -3.16193 -3.06121 0
M  V30 2984 H 295.048 -0.618799 -0.400321 0
M  V30 2985 H 297.69 -1.86052 -0.385318 0
M  V30 2986 H 295.84 -2.81809 -2.67425 0
M  V30 2987 H 297.512 -4.55538 -0.726807 0
M  V30 2988 H 295.755 -4.29421 -0.614853 0
M  V30 2989 H 296.426 -5.14 -2.01265 0
M  V30 2990 H 298.902 -3.28916 -2.5486 0
M  V30 2991 H 297.778 -4.05266 -3.70204 0
M  V30 2992 H 298.039 -2.31676 -3.76535 0
M  V30 2993 N 297.098 0.621204 -1.44841 0
M  V30 2994 C 298.008 1.7612 -1.5498 0
M  V30 2995 C 299.024 1.68477 -0.434927 0
M  V30 2996 O 300.2 1.89076 -0.693693 0
M  V30 2997 C 297.265 3.1254 -1.50065 0
M  V30 2998 C 296.326 3.31741 -2.72482 0
M  V30 2999 C 295.559 4.61653 -2.67792 0
M  V30 3000 O 295.782 5.431 -1.74352 0
M  V30 3001 O 294.716 4.83271 -3.58794 0
M  V30 3002 H 298.542 1.70518 -2.51311 0
M  V30 3003 H 296.127 0.783643 -1.27198 0
M  V30 3004 H 298.009 3.93844 -1.49882 0
M  V30 3005 H 296.684 3.18663 -0.568806 0
M  V30 3006 H 295.591 2.50077 -2.7823 0
M  V30 3007 H 296.924 3.30486 -3.64746 0
M  V30 3008 N 298.576 1.31904 0.862503 0
M  V30 3009 C 299.539 1.20131 1.95195 0
M  V30 3010 C 300.539 0.126409 1.60302 0
M  V30 3011 O 301.729 0.376234 1.70089 0
M  V30 3012 C 298.861 0.845691 3.30244 0
M  V30 3013 H 300.054 2.16943 2.07064 0
M  V30 3014 H 297.607 1.15622 1.05172 0
M  V30 3015 H 298.342 -0.120957 3.24074 0
M  V30 3016 H 298.127 1.62276 3.56944 0
M  V30 3017 H 299.617 0.787418 4.10109 0
M  V30 3018 N 300.054 -1.07777 1.14986 0
M  V30 3019 C 301.47 -1.32373 0.891596 0
M  V30 3020 C 301.67 -1.9609 -0.463788 0
M  V30 3021 O 300.726 -2.21801 -1.20667 0
M  V30 3022 C 302.039 -2.21905 2.02925 0
M  V30 3023 C 303.587 -2.35367 2.06329 0
M  V30 3024 C 304.062 -3.28245 3.19405 0
M  V30 3025 N 305.553 -3.35824 3.19024 0
M  V30 3026 C 306.288 -4.07739 4.03158 0
M  V30 3027 N 305.784 -4.82306 4.97346 0
M  V30 3028 N 307.577 -4.03635 3.91197 0
M  V30 3029 H 299.728 -0.648039 2.02273 0
M  V30 3030 H 301.991 -0.348149 0.881757 0
M  V30 3031 H 301.697 -1.82342 3.0074 0
M  V30 3032 H 301.571 -3.22407 1.95789 0
M  V30 3033 H 303.958 -2.74186 1.09116 0
M  V30 3034 H 304.039 -1.34585 2.17533 0
M  V30 3035 H 303.683 -2.90146 4.16867 0
M  V30 3036 H 303.613 -4.28971 3.05437 0
M  V30 3037 H 306.104 -2.8267 2.50811 0
M  V30 3038 H 306.417 -5.34661 5.57994 0
M  V30 3039 H 304.762 -4.81337 5.01338 0
M  V30 3040 H 307.953 -3.44491 3.16928 0
M  V30 3041 H 308.126 -4.59417 4.5699 0
M  V30 3042 N 301.532 -0.945985 -1.26051 0
M  V30 3043 C 302.442 -0.465633 -2.29933 0
M  V30 3044 C 303.458 0.462761 -1.67733 0
M  V30 3045 O 304.634 0.341118 -1.9849 0
M  V30 3046 C 301.699 0.256994 -3.45746 0
M  V30 3047 C 300.76 -0.708549 -4.23412 0
M  V30 3048 C 299.993 -0.0203135 -5.33696 0
M  V30 3049 O 300.216 1.19571 -5.57726 0
M  V30 3050 O 299.15 -0.701459 -5.97799 0
M  V30 3051 H 302.976 -1.32866 -2.73094 0
M  V30 3052 H 300.561 -0.712071 -1.31339 0
M  V30 3053 H 302.443 0.663852 -4.16138 0
M  V30 3054 H 301.118 1.09533 -3.04605 0
M  V30 3055 H 300.025 -1.16545 -3.55483 0
M  V30 3056 H 301.358 -1.51465 -4.68315 0
M  V30 3057 N 303.011 1.40521 -0.713556 0
M  V30 3058 C 304.427 1.54839 -0.386907 0
M  V30 3059 C 304.627 1.68532 1.1045 0
M  V30 3060 O 303.683 1.67377 1.89053 0
M  V30 3061 C 304.996 2.77792 -1.15118 0
M  V30 3062 C 306.544 2.91607 -1.13729 0
M  V30 3063 C 307.019 4.1747 -1.88368 0
M  V30 3064 N 308.51 4.24466 -1.85427 0
M  V30 3065 C 309.245 5.20755 -2.40004 0
M  V30 3066 N 308.741 6.22965 -3.03129 0
M  V30 3067 N 310.534 5.1282 -2.30158 0
M  V30 3068 H 302.685 1.29879 -1.68063 0
M  V30 3069 H 304.948 0.627896 -0.710247 0
M  V30 3070 H 304.654 2.73944 -2.20561 0
M  V30 3071 H 304.528 3.6984 -0.741477 0
M  V30 3072 H 306.915 2.94959 -0.0910608 0
M  V30 3073 H 306.996 2.00682 -1.5862 0
M  V30 3074 H 306.64 4.1488 -2.9298 0
M  V30 3075 H 306.57 5.074 -1.40898 0
M  V30 3076 H 309.061 3.51241 -1.3942 0
M  V30 3077 H 309.374 6.92859 -3.42295 0
M  V30 3078 H 307.719 6.23415 -3.07212 0
M  V30 3079 H 310.91 4.31899 -1.80501 0
M  V30 3080 H 311.083 5.87689 -2.72993 0
M  V30 3081 N 304.489 0.459591 1.5075 0
M  V30 3082 C 305.738 -0.100971 2.01447 0
M  V30 3083 C 306.051 -1.41816 1.34713 0
M  V30 3084 O 307.257 -2.06299 1.76502 0
M  V30 3085 C 305.713 -0.23047 3.59161 0
M  V30 3086 C 305.321 1.0776 4.34847 0
M  V30 3087 C 307.065 -0.743608 4.17936 0
M  V30 3088 C 304.972 0.91253 5.84317 0
M  V30 3089 H 303.902 -0.0415102 0.752856 0
M  V30 3090 H 306.553 0.592742 1.73663 0
M  V30 3091 H 304.935 -0.987703 3.83485 0
M  V30 3092 H 306.109 1.8449 4.22256 0
M  V30 3093 H 304.424 1.52097 3.87628 0
M  V30 3094 H 307.021 -0.883959 5.27343 0
M  V30 3095 H 307.364 -1.73196 3.78562 0
M  V30 3096 H 307.897 -0.04408 3.97776 0
M  V30 3097 H 304.636 1.87391 6.28144 0
M  V30 3098 H 304.156 0.185422 5.99513 0
M  V30 3099 H 305.835 0.574547 6.44444 0
M  V30 3100 N 305.967 -1.56429 0.191757 0
M  V30 3101 C 306.897 -2.21937 -0.725696 0
M  V30 3102 C 307.878 -1.1814 -1.2238 0
M  V30 3103 O 309.063 -1.46636 -1.27325 0
M  V30 3104 C 306.193 -2.87611 -1.94672 0
M  V30 3105 C 305.147 -3.97623 -1.58366 0
M  V30 3106 C 304.473 -4.50446 -2.88102 0
M  V30 3107 C 305.773 -5.16197 -0.796133 0
M  V30 3108 H 307.467 -2.98861 -0.179606 0
M  V30 3109 H 305.013 -1.43749 -0.0849464 0
M  V30 3110 H 306.966 -3.3212 -2.59373 0
M  V30 3111 H 305.69 -2.08087 -2.51728 0
M  V30 3112 H 304.349 -3.53801 -0.960247 0
M  V30 3113 H 303.997 -3.67688 -3.43241 0
M  V30 3114 H 303.697 -5.24675 -2.64556 0
M  V30 3115 H 305.221 -4.97654 -3.53798 0
M  V30 3116 H 306.635 -5.57271 -1.34618 0
M  V30 3117 H 305.032 -5.96471 -0.658928 0
M  V30 3118 H 306.102 -4.84473 0.203478 0
M  V30 3119 N 307.445 0.0818655 -1.57387 0
M  V30 3120 C 308.856 0.634871 -1.75574 0
M  V30 3121 C 309.207 1.78435 -0.815809 0
M  V30 3122 O 308.332 2.164 0.0025366 0
M  V30 3123 C 308.927 1.15845 -3.18379 0
M  V30 3124 C 307.486 1.65741 -3.37945 0
M  V30 3125 C 306.633 0.572549 -2.71325 0
M  V30 3126 H 309.584 -0.144268 -1.58043 0
M  V30 3127 H 309.605 2.02751 -3.21982 0
M  V30 3128 H 309.117 0.321631 -3.86765 0
M  V30 3129 H 307.218 2.51781 -2.74658 0
M  V30 3130 H 307.331 1.74129 -4.46336 0
M  V30 3131 H 305.695 1.01518 -2.33594 0
M  V30 3132 H 306.478 -0.253918 -3.4236 0
M  V30 3133 N 308.923 1.53595 0.353017 0
M  V30 3134 C 310.151 1.74311 1.1146 0
M  V30 3135 C 310.566 0.477854 1.82653 0
M  V30 3136 O 309.923 -0.549977 1.74016 0
M  V30 3137 C 309.974 2.91694 2.13534 0
M  V30 3138 O 309.695 4.13325 1.45238 0
M  V30 3139 C 311.196 3.24384 3.02142 0
M  V30 3140 H 308.416 0.582669 0.332773 0
M  V30 3141 H 310.96 2.00386 0.408107 0
M  V30 3142 H 309.115 2.67977 2.79763 0
M  V30 3143 H 309.529 4.79148 2.13349 0
M  V30 3144 H 311.003 4.09893 3.69718 0
M  V30 3145 H 311.48 2.40282 3.67643 0
M  V30 3146 H 312.086 3.50073 2.41514 0
M  V30 3147 N 310.401 -0.613514 1.45168 0
M  V30 3148 C 311.631 -1.39743 1.52169 0
M  V30 3149 C 312.039 -1.88596 0.151086 0
M  V30 3150 O 311.382 -1.6251 -0.856521 0
M  V30 3151 C 311.444 -2.64035 2.43979 0
M  V30 3152 C 311.108 -2.36861 3.90827 0
M  V30 3153 C 312.105 -1.97591 4.80889 0
M  V30 3154 C 309.79 -2.49956 4.35692 0
M  V30 3155 C 311.784 -1.71768 6.1382 0
M  V30 3156 C 309.471 -2.23747 5.68665 0
M  V30 3157 C 310.469 -1.84714 6.57548 0
M  V30 3158 O 310.157 -1.58809 7.88058 0
M  V30 3159 H 309.889 -0.434382 0.517966 0
M  V30 3160 H 312.443 -0.75587 1.90986 0
M  V30 3161 H 310.673 -3.3089 2.00122 0
M  V30 3162 H 312.362 -3.26069 2.41731 0
M  V30 3163 H 313.128 -1.87015 4.47493 0
M  V30 3164 H 309.007 -2.79305 3.66756 0
M  V30 3165 H 312.551 -1.41227 6.83155 0
M  V30 3166 H 308.448 -2.33938 6.01617 0
M  V30 3167 H 309.216 -1.7291 8.00028 0
M  V30 3168 N 311.879 -1.3236 -0.855495 0
M  V30 3169 C 313.156 -1.13491 -1.59309 0
M  V30 3170 C 313.536 0.30503 -2.08885 0
M  V30 3171 O 312.884 1.30151 -1.87811 0
M  V30 3172 C 313.094 -2.16176 -2.73987 0
M  V30 3173 C 314.442 -2.49463 -3.43589 0
M  V30 3174 O 315.466 -2.14715 -2.84211 0
M  V30 3175 O 314.325 -3.09027 -4.50738 0
M  V30 3176 H 311.419 -0.437887 -0.701559 0
M  V30 3177 H 313.965 -1.43887 -0.899696 0
M  V30 3178 H 312.737 -3.1297 -2.34873 0
M  V30 3179 H 312.36 -1.86769 -3.51003 0
M  V30 3180 N 313.357 1.07166 -1.15556 0
M  V30 3181 C 314.582 1.84053 -0.955988 0
M  V30 3182 C 315.007 1.81586 0.490739 0
M  V30 3183 O 314.365 1.21018 1.34997 0
M  V30 3184 C 314.413 3.28957 -1.47714 0
M  V30 3185 O 313.517 4.06795 -0.677593 0
M  V30 3186 H 312.858 0.569842 -0.340847 0
M  V30 3187 H 315.388 1.35178 -1.53584 0
M  V30 3188 H 315.398 3.79788 -1.4908 0
M  V30 3189 H 314.073 3.30068 -2.53037 0
M  V30 3190 H 312.65 3.6561 -0.733721 0
M  V30 3191 N 314.835 0.952656 1.25548 0
M  V30 3192 C 315.745 0.47782 2.29682 0
M  V30 3193 C 316.761 -0.453859 1.67977 0
M  V30 3194 O 317.937 -0.330587 1.98668 0
M  V30 3195 C 315.002 -0.238655 3.45878 0
M  V30 3196 C 314.063 0.730994 4.23031 0
M  V30 3197 C 313.296 0.0486165 5.33678 0
M  V30 3198 O 313.519 -1.16612 5.58353 0
M  V30 3199 O 312.453 0.733152 5.97418 0
M  V30 3200 H 316.279 1.34312 2.72386 0
M  V30 3201 H 313.864 0.719026 1.30959 0
M  V30 3202 H 315.746 -0.641774 4.16484 0
M  V30 3203 H 314.421 -1.07916 3.05181 0
M  V30 3204 H 313.328 1.18428 3.5486 0
M  V30 3205 H 314.661 1.53946 4.67506 0
M  V30 3206 N 316.313 -1.40141 0.720998 0
M  V30 3207 C 317.243 -2.33339 0.0867621 0
M  V30 3208 C 318.224 -1.53178 -0.739622 0
M  V30 3209 O 319.409 -1.81625 -0.687449 0
M  V30 3210 C 316.539 -3.37194 -0.831728 0
M  V30 3211 C 315.493 -4.27857 -0.110558 0
M  V30 3212 C 314.819 -5.22294 -1.14513 0
M  V30 3213 C 316.119 -5.11872 1.0385 0
M  V30 3214 H 317.813 -2.86626 0.865219 0
M  V30 3215 H 315.359 -1.37814 0.417516 0
M  V30 3216 H 317.312 -4.01335 -1.28485 0
M  V30 3217 H 316.036 -2.82314 -1.64214 0
M  V30 3218 H 314.695 -3.65176 0.322797 0
M  V30 3219 H 314.343 -4.63717 -1.94874 0
M  V30 3220 H 314.043 -5.83797 -0.667446 0
M  V30 3221 H 315.567 -5.89312 -1.59824 0
M  V30 3222 H 316.981 -5.69436 0.664482 0
M  V30 3223 H 315.378 -5.82445 1.4449 0
M  V30 3224 H 316.448 -4.4753 1.86668 0
M  V30 3225 N 317.792 -0.46758 -1.50504 0
M  V30 3226 C 319.02 0.0864133 -2.06719 0
M  V30 3227 C 319.435 1.33819 -1.33184 0
M  V30 3228 O 318.792 1.78061 -0.400083 0
M  V30 3229 C 318.843 0.378079 -3.59517 0
M  V30 3230 O 318.564 -0.824044 -4.3028 0
M  V30 3231 C 320.065 0.979426 -4.32345 0
M  V30 3232 H 317.285 -0.00551697 -0.670977 0
M  V30 3233 H 319.829 -0.655354 -1.93715 0
M  V30 3234 H 317.984 1.06977 -3.72337 0
M  V30 3235 H 318.398 -0.566518 -5.21432 0
M  V30 3236 H 319.872 1.1333 -5.40241 0
M  V30 3237 H 320.349 1.9686 -3.9261 0
M  V30 3238 H 320.955 0.326216 -4.24047 0
M  V30 3239 N 319.27 1.56325 -0.20005 0
M  V30 3240 C 320.233 2.18084 0.705132 0
M  V30 3241 C 321.233 1.13666 1.1374 0
M  V30 3242 O 322.423 1.39023 1.04968 0
M  V30 3243 C 319.555 2.78689 1.96329 0
M  V30 3244 H 320.748 2.99435 0.167023 0
M  V30 3245 H 318.301 1.56221 0.0495725 0
M  V30 3246 H 319.036 2.0115 2.5438 0
M  V30 3247 H 318.821 3.55133 1.66202 0
M  V30 3248 H 320.311 3.26096 2.60866 0
M  V30 3249 N 320.748 -0.0735177 1.57428 0
M  V30 3250 C 322.159 -0.625551 1.75908 0
M  V30 3251 C 322.51 -1.78 0.825261 0
M  V30 3252 O 321.635 -2.16398 0.00893964 0
M  V30 3253 C 322.23 -1.14155 3.18989 0
M  V30 3254 C 320.789 -1.63946 3.38819 0
M  V30 3255 C 319.936 -0.558151 2.71625 0
M  V30 3256 H 322.887 0.152647 1.57964 0
M  V30 3257 H 322.908 -2.0104 3.23053 0
M  V30 3258 H 322.42 -0.301116 3.8693 0
M  V30 3259 H 320.521 -2.50321 2.7599 0
M  V30 3260 H 320.634 -1.71759 4.47253 0
M  V30 3261 H 318.998 -1.00278 2.34129 0
M  V30 3262 H 319.781 0.272071 3.4222 0
M  V30 3263 N 322.226 -1.5378 -0.344866 0
M  V30 3264 C 323.472 -1.71216 -1.08687 0
M  V30 3265 C 323.805 -0.473281 -1.88345 0
M  V30 3266 O 323.08 0.52968 -1.87149 0
M  V30 3267 C 323.363 -2.97486 -2.02914 0
M  V30 3268 C 323.216 -4.31579 -1.26727 0
M  V30 3269 C 324.535 -3.19422 -3.0275 0
M  V30 3270 H 321.654 -0.62301 -0.393735 0
M  V30 3271 H 324.296 -1.8645 -0.365563 0
M  V30 3272 H 322.446 -2.84629 -2.64421 0
M  V30 3273 H 324.118 -4.56284 -0.67845 0
M  V30 3274 H 322.361 -4.30049 -0.569273 0
M  V30 3275 H 323.032 -5.16106 -1.95803 0
M  V30 3276 H 325.508 -3.316 -2.51357 0
M  V30 3277 H 324.384 -4.09169 -3.65885 0
M  V30 3278 H 324.645 -2.35656 -3.74057 0
M  V30 3279 N 323.704 0.605807 -1.45491 0
M  V30 3280 C 324.667 1.69836 -1.5391 0
M  V30 3281 C 325.667 1.55261 -0.418424 0
M  V30 3282 O 326.857 1.60296 -0.681965 0
M  V30 3283 C 323.989 3.09117 -1.43734 0
M  V30 3284 H 325.182 1.63738 -2.51257 0
M  V30 3285 H 322.735 0.821689 -1.32959 0
M  V30 3286 H 323.47 3.20791 -0.475788 0
M  V30 3287 H 323.255 3.21104 -2.25021 0
M  V30 3288 H 324.745 3.88696 -1.52661 0
M  V30 3289 N 325.182 1.32811 0.848464 0
M  V30 3290 C 326.092 1.24278 1.98978 0
M  V30 3291 C 327.108 0.155176 1.73307 0
M  V30 3292 O 328.284 0.376999 1.9784 0
M  V30 3293 C 325.349 0.972444 3.32783 0
M  V30 3294 C 324.41 2.14911 3.71634 0
M  V30 3295 C 323.643 1.89157 4.99054 0
M  V30 3296 O 323.866 0.837165 5.64223 0
M  V30 3297 O 322.8 2.75433 5.35183 0
M  V30 3298 H 326.626 2.20238 2.09115 0
M  V30 3299 H 324.211 1.12762 0.980052 0
M  V30 3300 H 326.093 0.838432 4.12975 0
M  V30 3301 H 324.768 0.043051 3.23671 0
M  V30 3302 H 323.675 2.33862 2.91992 0
M  V30 3303 H 325.008 3.06151 3.85399 0
M  V30 3304 N 326.66 -1.06551 1.16123 0
M  V30 3305 C 327.885 -1.83544 0.965735 0
M  V30 3306 C 328.31 -1.81843 -0.481102 0
M  V30 3307 O 327.668 -1.21732 -1.34354 0
M  V30 3308 C 327.716 -3.28169 1.49457 0
M  V30 3309 O 326.82 -4.0643 0.699157 0
M  V30 3310 H 326.161 -0.568026 0.343864 0
M  V30 3311 H 328.691 -1.34362 1.54299 0
M  V30 3312 H 328.701 -3.78992 1.51092 0
M  V30 3313 H 327.376 -3.28722 2.54784 0
M  V30 3314 H 325.953 -3.65216 0.7531 0
M  V30 3315 N 328.138 -0.959301 -1.25041 0
M  V30 3316 C 329.068 -0.501388 -2.28053 0
M  V30 3317 C 330.049 0.454673 -1.63911 0
M  V30 3318 O 331.234 0.352618 -1.90972 0
M  V30 3319 C 328.364 0.217224 -3.4662 0
M  V30 3320 C 327.318 -0.654034 -4.22973 0
M  V30 3321 C 326.644 0.195589 -5.34342 0
M  V30 3322 C 327.944 -1.93447 -4.85155 0
M  V30 3323 H 329.638 -1.36238 -2.66608 0
M  V30 3324 H 327.184 -0.656534 -1.28163 0
M  V30 3325 H 329.137 0.548732 -4.17812 0
M  V30 3326 H 327.861 1.1125 -3.07068 0
M  V30 3327 H 326.52 -0.968693 -3.5357 0
M  V30 3328 H 326.168 1.09076 -4.91031 0
M  V30 3329 H 325.868 -0.384091 -5.86343 0
M  V30 3330 H 327.392 0.521958 -6.08365 0
M  V30 3331 H 328.806 -1.66908 -5.48466 0
M  V30 3332 H 327.203 -2.46018 -5.47353 0
M  V30 3333 H 328.273 -2.63466 -4.07079 0
M  V30 3334 N 329.616 1.39756 -0.72842 0
M  V30 3335 C 330.563 2.30647 -0.0841519 0
M  V30 3336 C 331.533 1.48869 0.7367 0
M  V30 3337 O 332.718 1.77574 0.698015 0
M  V30 3338 C 329.858 3.35165 0.822091 0
M  V30 3339 C 328.971 4.31999 -0.0106663 0
M  V30 3340 C 328.106 5.23585 0.896241 0
M  V30 3341 C 327.145 6.12072 0.0583381 0
M  V30 3342 N 326.282 6.96035 0.920818 0
M  V30 3343 H 331.122 2.85173 -0.864891 0
M  V30 3344 H 328.659 1.40422 -0.438179 0
M  V30 3345 H 330.617 3.94345 1.36189 0
M  V30 3346 H 329.247 2.8211 1.56888 0
M  V30 3347 H 328.299 3.74492 -0.66781 0
M  V30 3348 H 329.611 4.9443 -0.658825 0
M  V30 3349 H 328.765 5.87759 1.50412 0
M  V30 3350 H 327.504 4.61459 1.57819 0
M  V30 3351 H 326.509 5.46916 -0.562389 0
M  V30 3352 H 327.734 6.76261 -0.6203 0
M  V30 3353 H 325.68 6.36485 1.58818 0
M  V30 3354 H 325.597 7.55284 0.32899 0
M  V30 3355 H 326.865 7.64646 1.51447 0
M  V30 3356 N 331.094 0.475555 1.50254 0
M  V30 3357 C 332.041 -0.316293 2.28622 0
M  V30 3358 C 333.011 -0.983227 1.33873 0
M  V30 3359 O 334.196 -0.994805 1.62814 0
M  V30 3360 C 331.336 -1.38975 3.1588 0
M  V30 3361 C 330.449 -0.737146 4.25664 0
M  V30 3362 C 329.584 -1.78887 5.00173 0
M  V30 3363 C 328.623 -1.11676 6.01826 0
M  V30 3364 N 327.76 -2.11154 6.69596 0
M  V30 3365 H 332.6 0.358297 2.95838 0
M  V30 3366 H 330.137 0.188541 1.45887 0
M  V30 3367 H 332.095 -2.02383 3.64825 0
M  V30 3368 H 330.725 -2.03344 2.50701 0
M  V30 3369 H 329.777 0.0096065 3.80399 0
M  V30 3370 H 331.089 -0.206816 4.98371 0
M  V30 3371 H 330.243 -2.49865 5.52859 0
M  V30 3372 H 328.982 -2.35302 4.27182 0
M  V30 3373 H 327.987 -0.392633 5.48396 0
M  V30 3374 H 329.212 -0.55945 6.76792 0
M  V30 3375 H 327.158 -2.66577 5.99394 0
M  V30 3376 H 327.075 -1.63118 7.38193 0
M  V30 3377 H 328.343 -2.81497 7.26897 0
M  V30 3378 N 332.573 -1.56217 0.208337 0
M  V30 3379 C 333.503 -2.22694 -0.702116 0
M  V30 3380 C 334.484 -1.19432 -1.2112 0
M  V30 3381 O 335.669 -1.47978 -1.25762 0
M  V30 3382 C 332.799 -2.8966 -1.9161 0
M  V30 3383 C 331.753 -3.9928 -1.5414 0
M  V30 3384 C 331.079 -4.53476 -2.83308 0
M  V30 3385 C 332.379 -5.17012 -0.741339 0
M  V30 3386 H 334.073 -2.99034 -0.147898 0
M  V30 3387 H 331.619 -1.43831 -0.0696951 0
M  V30 3388 H 333.572 -3.34852 -2.55836 0
M  V30 3389 H 332.296 -2.10746 -2.49507 0
M  V30 3390 H 330.955 -3.54799 -0.922668 0
M  V30 3391 H 330.603 -3.71308 -3.39322 0
M  V30 3392 H 330.303 -5.27451 -2.58976 0
M  V30 3393 H 331.827 -5.01378 -3.485 0
M  V30 3394 H 333.241 -5.58667 -1.28699 0
M  V30 3395 H 331.638 -5.97137 -0.595627 0
M  V30 3396 H 332.708 -4.8423 0.254851 0
M  V30 3397 N 334.051 0.0651679 -1.57465 0
M  V30 3398 C 335.299 0.761555 -1.87202 0
M  V30 3399 C 335.62 1.77778 -0.801243 0
M  V30 3400 O 334.89 1.95166 0.16937 0
M  V30 3401 H 333.47 0.284251 -0.690804 0
M  V30 3402 H 336.132 0.0396827 -1.9486 0
M  V30 3403 H 335.228 1.27365 -2.84929 0
M  V30 3404 N 335.529 1.53961 0.336706 0
M  V30 3405 C 336.778 1.70751 1.07363 0
M  V30 3406 C 337.091 0.481061 1.89592 0
M  V30 3407 O 338.297 0.530046 2.66276 0
M  V30 3408 C 336.753 3.01965 1.95818 0
M  V30 3409 C 336.361 4.31971 1.18764 0
M  V30 3410 C 338.105 3.28121 2.69327 0
M  V30 3411 C 336.012 5.54255 2.06289 0
M  V30 3412 H 334.942 0.636292 0.404535 0
M  V30 3413 H 337.593 1.80459 0.332681 0
M  V30 3414 H 335.975 2.86132 2.7376 0
M  V30 3415 H 337.149 4.5853 0.456849 0
M  V30 3416 H 335.464 4.12481 0.569946 0
M  V30 3417 H 338.061 4.16673 3.35094 0
M  V30 3418 H 338.404 2.45426 3.36261 0
M  V30 3419 H 338.937 3.44762 1.98454 0
M  V30 3420 H 335.676 6.39513 1.43885 0
M  V30 3421 H 335.196 5.31935 2.77138 0
M  V30 3422 H 336.875 5.90159 2.65182 0
M  V30 3423 N 337.007 -0.598083 1.45811 0
M  V30 3424 C 337.97 -1.69018 1.54808 0
M  V30 3425 C 338.97 -1.55037 0.426652 0
M  V30 3426 O 340.16 -1.59932 0.690456 0
M  V30 3427 C 337.292 -3.0835 1.45371 0
M  V30 3428 H 338.485 -1.62403 2.52121 0
M  V30 3429 H 336.038 -0.814626 1.33392 0
M  V30 3430 H 336.773 -3.20534 0.492793 0
M  V30 3431 H 336.558 -3.19907 2.26721 0
M  V30 3432 H 338.048 -3.8788 1.54721 0
M  V30 3433 N 338.485 -1.33259 -0.841409 0
M  V30 3434 C 339.415 -1.25926 -1.96634 0
M  V30 3435 C 340.396 -0.140349 -1.6952 0
M  V30 3436 O 341.581 -0.329707 -1.91381 0
M  V30 3437 C 338.711 -0.99512 -3.32738 0
M  V30 3438 C 337.665 -2.0767 -3.74242 0
M  V30 3439 C 336.991 -1.66474 -5.08125 0
M  V30 3440 C 338.291 -3.49318 -3.88297 0
M  V30 3441 H 339.985 -2.20046 -2.03027 0
M  V30 3442 H 337.531 -1.05931 -0.975425 0
M  V30 3443 H 339.484 -0.930323 -4.11002 0
M  V30 3444 H 338.208 -0.0183004 -3.26595 0
M  V30 3445 H 336.867 -2.13187 -2.98239 0
M  V30 3446 H 336.515 -0.675012 -4.9845 0
M  V30 3447 H 336.215 -2.3885 -5.36865 0
M  V30 3448 H 337.739 -1.61455 -5.88867 0
M  V30 3449 H 339.153 -3.46316 -4.56879 0
M  V30 3450 H 337.55 -4.20158 -4.28471 0
M  V30 3451 H 338.62 -3.8801 -2.9082 0
M  V30 3452 N 339.963 1.05934 -1.16686 0
M  V30 3453 C 340.913 2.11764 -0.844978 0
M  V30 3454 C 341.897 1.59922 0.177178 0
M  V30 3455 O 343.089 1.76983 -0.0241768 0
M  V30 3456 C 340.218 3.41493 -0.351812 0
M  V30 3457 C 339.304 4.00152 -1.40496 0
M  V30 3458 N 339.695 4.32874 -2.61636 0
M  V30 3459 C 337.993 4.278 -1.26106 0
M  V30 3460 C 338.694 4.79552 -3.29249 0
M  V30 3461 N 337.67 4.79211 -2.56628 0
M  V30 3462 H 341.472 2.34916 -1.76612 0
M  V30 3463 H 338.986 1.23511 -1.05446 0
M  V30 3464 H 340.983 4.16773 -0.102796 0
M  V30 3465 H 339.643 3.19778 0.56322 0
M  V30 3466 H 340.654 4.23109 -2.98663 0
M  V30 3467 H 337.331 4.15511 -0.407081 0
M  V30 3468 H 338.721 5.14045 -4.32675 0
M  V30 3469 N 341.441 0.965919 1.2453 0
M  V30 3470 C 342.371 0.513476 2.27784 0
M  V30 3471 C 343.352 -0.445974 1.6415 0
M  V30 3472 O 344.537 -0.342485 1.91156 0
M  V30 3473 C 341.667 -0.198839 3.4673 0
M  V30 3474 C 340.621 0.676456 4.2262 0
M  V30 3475 C 339.947 -0.167248 5.34438 0
M  V30 3476 C 341.247 1.96017 4.84123 0
M  V30 3477 H 342.941 1.3765 2.65881 0
M  V30 3478 H 340.487 0.663321 1.27813 0
M  V30 3479 H 342.44 -0.526567 4.18097 0
M  V30 3480 H 341.164 -1.0962 3.07654 0
M  V30 3481 H 339.823 0.98743 3.53052 0
M  V30 3482 H 339.471 -1.0647 4.91603 0
M  V30 3483 H 339.171 0.415181 5.86131 0
M  V30 3484 H 340.695 -0.489688 6.08633 0
M  V30 3485 H 342.109 1.69814 5.47573 0
M  V30 3486 H 340.506 2.48918 5.4604 0
M  V30 3487 H 341.576 2.65622 4.05676 0
M  V30 3488 N 342.919 -1.39368 0.735821 0
M  V30 3489 C 344.167 -2.00101 0.283562 0
M  V30 3490 C 344.488 -1.5868 -1.13338 0
M  V30 3491 O 343.758 -0.835423 -1.77193 0
M  V30 3492 H 342.338 -0.740024 0.101851 0
M  V30 3493 H 345 -1.70404 0.945962 0
M  V30 3494 H 344.096 -3.10323 0.332604 0
M  V30 3495 N 344.397 -0.483516 -1.5 0
M  V30 3496 C 345.347 0.32306 -2.257 0
M  V30 3497 C 346.331 0.950755 -1.29805 0
M  V30 3498 O 347.523 0.861247 -1.54634 0
M  V30 3499 C 344.652 1.39724 -3.13579 0
M  V30 3500 C 343.738 0.776663 -4.16928 0
M  V30 3501 N 344.129 -0.1104 -5.0568 0
M  V30 3502 C 342.427 1.03922 -4.33724 0
M  V30 3503 C 343.128 -0.46387 -5.79848 0
M  V30 3504 N 342.104 0.163987 -5.43353 0
M  V30 3505 H 345.906 -0.360086 -2.91686 0
M  V30 3506 H 343.42 -0.298456 -1.59634 0
M  V30 3507 H 345.417 1.98837 -3.66428 0
M  V30 3508 H 344.077 2.08225 -2.49143 0
M  V30 3509 H 345.088 -0.480069 -5.1567 0
M  V30 3510 H 341.765 1.71829 -3.80501 0
M  V30 3511 H 343.155 -1.18854 -6.61304 0
M  V30 3512 N 345.875 1.56104 -0.216619 0
M  V30 3513 C 347.1 2.0301 0.424462 0
M  V30 3514 C 347.525 1.0955 1.52907 0
M  V30 3515 O 346.883 0.0827914 1.81111 0
M  V30 3516 C 346.931 3.4819 0.937883 0
M  V30 3517 O 346.035 3.57865 2.04955 0
M  V30 3518 H 345.376 0.656925 0.0966755 0
M  V30 3519 H 347.906 2.01859 -0.33381 0
M  V30 3520 H 347.916 3.88413 1.24897 0
M  V30 3521 H 346.591 4.15699 0.129387 0
M  V30 3522 H 345.168 3.29527 1.74546 0
M  V30 3523 N 347.353 -0.0568162 1.57498 0
M  V30 3524 C 348.599 -0.75422 1.88253 0
M  V30 3525 C 348.932 -1.76461 0.810865 0
M  V30 3526 O 348.207 -1.93691 -0.177259 0
M  V30 3527 C 348.49 -1.44878 3.2967 0
M  V30 3528 C 348.343 -0.453789 4.47505 0
M  V30 3529 C 349.662 -2.38994 3.69554 0
M  V30 3530 H 346.781 -0.272724 0.684683 0
M  V30 3531 H 349.423 -0.0172113 1.89992 0
M  V30 3532 H 347.573 -2.077 3.28318 0
M  V30 3533 H 349.245 0.170371 4.60985 0
M  V30 3534 H 347.488 0.229552 4.33192 0
M  V30 3535 H 348.159 -0.977699 5.43273 0
M  V30 3536 H 350.635 -1.86239 3.72095 0
M  V30 3537 H 349.511 -2.84587 4.69363 0
M  V30 3538 H 349.772 -3.24461 3.00296 0
M  V30 3539 N 348.832 -1.54138 -0.328536 0
M  V30 3540 C 349.742 -1.86192 -1.42723 0
M  V30 3541 C 350.758 -0.753382 -1.56844 0
M  V30 3542 O 351.934 -1.04718 -1.72035 0
M  V30 3543 C 348.999 -2.07824 -2.77507 0
M  V30 3544 C 348.06 -3.31641 -2.72603 0
M  V30 3545 C 347.293 -3.52232 -4.00959 0
M  V30 3546 O 347.516 -2.7636 -4.9898 0
M  V30 3547 O 346.45 -4.45699 -4.0452 0
M  V30 3548 H 350.276 -2.79608 -1.18547 0
M  V30 3549 H 347.861 -1.3998 -0.522104 0
M  V30 3550 H 349.743 -2.23411 -3.57303 0
M  V30 3551 H 348.418 -1.17596 -3.01584 0
M  V30 3552 H 347.325 -3.21444 -1.91376 0
M  V30 3553 H 348.658 -4.2191 -2.53481 0
M  V30 3554 N 350.31 0.590341 -1.46126 0
M  V30 3555 C 351.558 1.34616 -1.50742 0
M  V30 3556 C 351.879 1.94363 -0.157486 0
M  V30 3557 O 351.149 1.78136 0.815136 0
M  V30 3558 H 349.729 0.499789 -0.555175 0
M  V30 3559 H 352.391 0.691953 -1.82203 0
M  V30 3560 H 351.487 2.15678 -2.25587 0
M  V30 3561 N 351.788 1.33704 0.83433 0
M  V30 3562 C 353.018 1.28281 1.6195 0
M  V30 3563 C 353.426 -0.147603 1.88623 0
M  V30 3564 O 352.769 -1.1016 1.47005 0
M  V30 3565 C 352.831 1.99386 2.99141 0
M  V30 3566 C 352.495 3.48681 2.95416 0
M  V30 3567 C 353.492 4.438 2.70809 0
M  V30 3568 C 351.177 3.90925 3.15409 0
M  V30 3569 C 353.171 5.79138 2.66229 0
M  V30 3570 C 350.858 5.26366 3.10454 0
M  V30 3571 C 351.856 6.20284 2.85895 0
M  V30 3572 O 351.544 7.53245 2.80852 0
M  V30 3573 H 351.276 0.44315 0.510484 0
M  V30 3574 H 353.83 1.76711 1.04702 0
M  V30 3575 H 352.06 1.45554 3.58261 0
M  V30 3576 H 353.749 1.87403 3.60049 0
M  V30 3577 H 354.515 4.12485 2.5511 0
M  V30 3578 H 350.394 3.18229 3.33543 0
M  V30 3579 H 353.938 6.52416 2.4698 0
M  V30 3580 H 349.835 5.57304 3.25703 0
M  V30 3581 H 350.603 7.62846 2.96661 0
M  V30 3582 N 353.266 -1.05314 1.17247 0
M  V30 3583 C 354.176 -2.16538 0.90268 0
M  V30 3584 C 355.192 -1.73523 -0.128707 0
M  V30 3585 O 356.368 -2.01337 0.0502701 0
M  V30 3586 C 353.433 -3.44167 0.418356 0
M  V30 3587 C 352.494 -4.01635 1.51618 0
M  V30 3588 C 351.727 -5.23171 1.05487 0
M  V30 3589 O 351.95 -5.70327 -0.0914715 0
M  V30 3590 O 350.884 -5.72848 1.8474 0
M  V30 3591 H 354.71 -2.42145 1.83302 0
M  V30 3592 H 352.295 -1.15037 0.953246 0
M  V30 3593 H 354.177 -4.21112 0.155726 0
M  V30 3594 H 352.852 -3.20063 -0.48385 0
M  V30 3595 H 351.759 -3.26135 1.83268 0
M  V30 3596 H 353.092 -4.30053 2.39405 0
M  V30 3597 N 354.744 -0.972509 -1.24016 0
M  V30 3598 C 355.692 -0.498562 -2.27194 0
M  V30 3599 C 356.686 0.440372 -1.63576 0
M  V30 3600 O 357.892 0.315133 -1.7722 0
M  V30 3601 H 354.267 -0.142775 -0.738322 0
M  V30 3602 H 356.238 -1.38065 -2.64539 0
M  V30 3603 C 354.987 0.191072 -3.47175 0
M  V30 3604 H 354.31 -0.522318 -3.96373 0
M  V30 3605 H 355.75 0.486445 -4.212 0
M  V30 3606 C 354.209 1.41967 -3.05527 0
M  V30 3607 O 354.739 2.51642 -3.13112 0
M  V30 3608 N 352.945 1.28746 -2.60524 0
M  V30 3609 H 352.492 0.395089 -2.54552 0
M  V30 3610 H 352.45 2.11061 -2.33025 0
M  V30 3611 N 356.222 1.38976 -0.743202 0
M  V30 3612 C 357.47 1.99948 -0.29417 0
M  V30 3613 C 357.791 1.59279 1.12495 0
M  V30 3614 O 357.061 0.844808 1.76748 0
M  V30 3615 H 355.641 0.739473 -0.105774 0
M  V30 3616 H 358.303 1.699 -0.954986 0
M  V30 3617 H 357.399 3.10142 -0.349056 0
M  V30 3618 N 357.7 0.491464 1.49741 0
M  V30 3619 C 358.94 -0.0549118 2.04326 0
M  V30 3620 C 359.304 -1.35148 1.36378 0
M  V30 3621 O 360.505 -1.9815 1.81631 0
M  V30 3622 C 358.776 -0.213841 3.5676 0
M  V30 3623 S 360.335 -0.715839 4.32922 0
M  V30 3624 H 357.153 -0.00630513 0.710972 0
M  V30 3625 H 359.755 0.663257 1.83905 0
M  V30 3626 H 358.459 0.73527 4.0376 0
M  V30 3627 H 357.99 -0.957529 3.81569 0
M  V30 3628 H 360.005 -1.9864 4.54705 0
M  V30 3629 N 359.178 -1.55987 0.224894 0
M  V30 3630 C 360.108 -2.23426 -0.678457 0
M  V30 3631 C 361.089 -1.20709 -1.19847 0
M  V30 3632 O 362.274 -1.49304 -1.24186 0
M  V30 3633 C 359.404 -2.91676 -1.88527 0
M  V30 3634 C 358.358 -4.00893 -1.49896 0
M  V30 3635 C 357.684 -4.56455 -2.78483 0
M  V30 3636 C 358.984 -5.17769 -0.686461 0
M  V30 3637 H 360.678 -2.99175 -0.116173 0
M  V30 3638 H 358.224 -1.43897 -0.054436 0
M  V30 3639 H 360.177 -3.37547 -2.5227 0
M  V30 3640 H 358.901 -2.1338 -2.47258 0
M  V30 3641 H 357.56 -3.55758 -0.884985 0
M  V30 3642 H 357.208 -3.74886 -3.35365 0
M  V30 3643 H 356.908 -5.30169 -2.53368 0
M  V30 3644 H 358.432 -5.05047 -3.43162 0
M  V30 3645 H 359.846 -5.60001 -1.22767 0
M  V30 3646 H 358.243 -5.97735 -0.532259 0
M  V30 3647 H 359.313 -4.83932 0.306196 0
M  V30 3648 N 360.656 0.0484629 -1.57525 0
M  V30 3649 C 361.586 1.0549 -2.08313 0
M  V30 3650 C 362.567 1.38929 -0.981463 0
M  V30 3651 O 363.752 1.48151 -1.25558 0
M  V30 3652 C 360.882 2.36162 -2.54646 0
M  V30 3653 C 359.836 2.17016 -3.68901 0
M  V30 3654 C 359.162 3.53278 -4.01371 0
M  V30 3655 C 360.462 1.57219 -4.98076 0
M  V30 3656 H 362.156 0.632195 -2.92649 0
M  V30 3657 H 359.702 0.302654 -1.40784 0
M  V30 3658 H 361.655 3.06882 -2.88793 0
M  V30 3659 H 360.379 2.80456 -1.67368 0
M  V30 3660 H 359.038 1.48733 -3.35073 0
M  V30 3661 H 358.686 3.95185 -3.11188 0
M  V30 3662 H 358.386 3.41299 -4.78318 0
M  V30 3663 H 359.91 4.25391 -4.38035 0
M  V30 3664 H 361.324 2.17832 -5.30304 0
M  V30 3665 H 359.721 1.55871 -5.79503 0
M  V30 3666 H 360.791 0.535956 -4.81929 0
M  V30 3667 N 362.134 1.5431 0.320358 0
M  V30 3668 C 363.097 1.83195 1.3774 0
M  V30 3669 C 364.097 0.703906 1.44575 0
M  V30 3670 O 365.287 0.972214 1.44546 0
M  V30 3671 C 362.419 1.99487 2.76438 0
M  V30 3672 H 363.612 2.77642 1.1338 0
M  V30 3673 H 361.165 1.46076 0.556012 0
M  V30 3674 H 361.9 1.07262 3.06048 0
M  V30 3675 H 361.685 2.81575 2.7287 0
M  V30 3676 H 363.175 2.23271 3.52902 0
M  V30 3677 N 363.613 -0.582584 1.46437 0
M  V30 3678 C 364.561 -1.71272 1.5738 0
M  V30 3679 C 365.555 -1.63524 0.44229 0
M  V30 3680 O 366.761 -1.69016 0.619166 0
M  V30 3681 H 363.136 -0.566273 0.494813 0
M  V30 3682 H 365.107 -1.59174 2.52401 0
M  V30 3683 C 363.856 -3.09658 1.58136 0
M  V30 3684 H 363.179 -3.16291 2.44541 0
M  V30 3685 H 364.619 -3.88494 1.69847 0
M  V30 3686 C 363.078 -3.3547 0.310026 0
M  V30 3687 O 363.608 -3.97199 -0.599683 0
M  V30 3688 N 361.814 -2.89925 0.197901 0
M  V30 3689 H 361.361 -2.39873 0.93909 0
M  V30 3690 H 361.319 -3.07568 -0.65185 0
M  V30 3691 N 365.091 -1.34144 -0.827227 0
M  V30 3692 C 366.368 -1.16844 -1.56865 0
M  V30 3693 C 366.748 0.260654 -2.09485 0
M  V30 3694 O 366.096 1.26138 -1.9053 0
M  V30 3695 C 366.306 -2.21939 -2.6934 0
M  V30 3696 C 367.654 -2.56695 -3.3822 0
M  V30 3697 O 368.678 -2.20695 -2.79593 0
M  V30 3698 O 367.537 -3.18518 -4.44082 0
M  V30 3699 H 364.631 -0.452669 -0.692112 0
M  V30 3700 H 367.177 -1.45763 -0.868973 0
M  V30 3701 H 365.949 -3.17882 -2.28182 0
M  V30 3702 H 365.572 -1.94172 -3.46962 0
M  V30 3703 N 366.569 1.04691 -1.17803 0
M  V30 3704 C 367.817 1.7743 -0.967617 0
M  V30 3705 C 368.138 1.88359 0.504574 0
M  V30 3706 O 367.408 1.40402 1.36617 0
M  V30 3707 H 365.988 0.657242 -0.355024 0
M  V30 3708 H 368.65 1.2638 -1.48371 0
M  V30 3709 H 367.746 2.78924 -1.40027 0
M  V30 3710 N 368.047 0.979072 1.23499 0
M  V30 3711 C 368.994 0.517904 2.24914 0
M  V30 3712 C 369.964 -0.442525 1.60097 0
M  V30 3713 O 371.149 -0.350365 1.87556 0
M  V30 3714 C 368.289 -0.174813 3.44657 0
M  V30 3715 C 367.402 0.825721 4.24035 0
M  V30 3716 C 366.537 0.107946 5.3109 0
M  V30 3717 C 365.576 1.09778 6.02175 0
M  V30 3718 N 364.713 0.40925 7.00906 0
M  V30 3719 H 369.553 1.38751 2.63727 0
M  V30 3720 H 367.09 0.695303 1.2963 0
M  V30 3721 H 369.048 -0.593233 4.12961 0
M  V30 3722 H 367.678 -1.0083 3.06648 0
M  V30 3723 H 366.73 1.36253 3.55161 0
M  V30 3724 H 368.042 1.58005 4.73113 0
M  V30 3725 H 367.196 -0.367904 6.05583 0
M  V30 3726 H 365.935 -0.678994 4.8295 0
M  V30 3727 H 364.94 1.5844 5.26476 0
M  V30 3728 H 366.165 1.88536 6.52404 0
M  V30 3729 H 364.111 -0.358506 6.5502 0
M  V30 3730 H 364.028 1.10226 7.47921 0
M  V30 3731 H 365.296 -0.0442557 7.79487 0
M  V30 3732 N 369.525 -1.3858 0.750561 0
M  V30 3733 C 370.773 -1.99789 0.30477 0
M  V30 3734 C 371.094 -1.59874 -1.11649 0
M  V30 3735 O 370.364 -0.85417 -1.76297 0
M  V30 3736 H 368.944 -0.738902 0.109694 0
M  V30 3737 H 371.606 -1.69391 0.963983 0
M  V30 3738 H 370.702 -3.09952 0.365499 0
M  V30 3739 N 371.003 -0.499398 -1.49478 0
M  V30 3740 C 372.251 0.0455996 -2.02049 0
M  V30 3741 C 372.572 1.37633 -1.38138 0
M  V30 3742 O 371.842 1.8842 -0.536166 0
M  V30 3743 H 370.422 0.0198416 -0.746736 0
M  V30 3744 H 373.084 -0.656274 -1.83519 0
M  V30 3745 H 372.18 0.176445 -3.11601 0
M  V30 3746 N 372.481 1.55866 -0.233164 0
M  V30 3747 C 373.413 2.18099 0.704668 0
M  V30 3748 C 374.426 1.15334 1.14899 0
M  V30 3749 O 375.615 1.42262 1.07814 0
M  V30 3750 C 372.715 2.7592 1.96777 0
M  V30 3751 C 371.888 4.03969 1.67713 0
M  V30 3752 C 370.947 4.46242 2.78845 0
M  V30 3753 O 369.973 5.12903 2.46818 0
M  V30 3754 N 371.175 4.12886 4.08051 0
M  V30 3755 H 373.94 2.99205 0.172258 0
M  V30 3756 H 371.501 1.61815 -0.0525945 0
M  V30 3757 H 373.493 3.01165 2.70337 0
M  V30 3758 H 372.063 1.99051 2.41034 0
M  V30 3759 H 371.283 3.86459 0.777391 0
M  V30 3760 H 372.571 4.8748 1.4574 0
M  V30 3761 H 371.969 3.59342 4.3691 0
M  V30 3762 H 370.526 4.42997 4.78118 0
M  V30 3763 N 373.959 -0.0401083 1.57549 0
M  V30 3764 C 374.889 -1.04384 2.08869 0
M  V30 3765 C 375.87 -1.38407 0.988817 0
M  V30 3766 O 377.055 -1.47483 1.26342 0
M  V30 3767 C 374.185 -2.34808 2.55895 0
M  V30 3768 C 373.139 -2.15057 3.70047 0
M  V30 3769 C 372.465 -3.51145 4.03239 0
M  V30 3770 C 373.765 -1.54576 4.98902 0
M  V30 3771 H 375.459 -0.616666 2.92981 0
M  V30 3772 H 373.005 -0.295184 1.40942 0
M  V30 3773 H 374.958 -3.05346 2.90417 0
M  V30 3774 H 373.682 -2.79565 1.68853 0
M  V30 3775 H 372.341 -1.46954 3.35857 0
M  V30 3776 H 371.989 -3.93529 3.13279 0
M  V30 3777 H 371.689 -3.38758 4.80122 0
M  V30 3778 H 373.213 -4.23062 4.40285 0
M  V30 3779 H 374.627 -2.15017 5.31451 0
M  V30 3780 H 373.024 -1.52796 5.80322 0
M  V30 3781 H 374.094 -0.51039 4.82206 0
M  V30 3782 N 375.437 -1.54477 -0.31217 0
M  V30 3783 C 376.853 -1.45442 -0.657185 0
M  V30 3784 C 377.053 -0.63653 -1.91182 0
M  V30 3785 O 376.109 -0.139815 -2.52113 0
M  V30 3786 C 377.422 -2.89287 -0.82058 0
M  V30 3787 C 378.97 -2.9926 -0.917188 0
M  V30 3788 C 379.445 -4.44279 -1.11267 0
M  V30 3789 N 380.936 -4.4794 -1.17914 0
M  V30 3790 C 381.671 -5.57318 -1.34848 0
M  V30 3791 N 381.167 -6.76642 -1.48752 0
M  V30 3792 N 382.96 -5.44986 -1.37647 0
M  V30 3793 H 375.111 -2.06129 0.512313 0
M  V30 3794 H 377.374 -0.933088 0.167485 0
M  V30 3795 H 377.08 -3.51687 0.0302604 0
M  V30 3796 H 376.954 -3.36061 -1.71298 0
M  V30 3797 H 379.341 -2.36981 -1.75852 0
M  V30 3798 H 379.422 -2.558 -0.00101257 0
M  V30 3799 H 379.066 -5.07149 -0.27614 0
M  V30 3800 H 378.996 -4.85359 -2.04289 0
M  V30 3801 H 381.487 -3.61969 -1.08567 0
M  V30 3802 H 381.8 -7.55758 -1.61397 0
M  V30 3803 H 380.145 -6.79529 -1.45828 0
M  V30 3804 H 383.336 -4.50715 -1.26388 0
M  V30 3805 H 383.509 -6.3028 -1.50501 0
M  V30 3806 N 376.915 0.57481 -1.46744 0
M  V30 3807 C 377.845 1.69337 -1.60771 0
M  V30 3808 C 378.826 1.63825 -0.457736 0
M  V30 3809 O 380.011 1.8172 -0.684947 0
M  V30 3810 C 377.141 3.0798 -1.60517 0
M  V30 3811 C 376.095 3.28327 -2.74564 0
M  V30 3812 C 375.421 4.67578 -2.59373 0
M  V30 3813 C 376.721 3.15398 -4.16319 0
M  V30 3814 H 378.415 1.57853 -2.54407 0
M  V30 3815 H 375.961 0.75799 -1.22436 0
M  V30 3816 H 377.914 3.86061 -1.68923 0
M  V30 3817 H 376.638 3.20381 -0.634305 0
M  V30 3818 H 375.297 2.52649 -2.65639 0
M  V30 3819 H 374.945 4.76755 -1.60353 0
M  V30 3820 H 374.645 4.82144 -3.35873 0
M  V30 3821 H 376.169 5.47817 -2.69682 0
M  V30 3822 H 377.583 3.83315 -4.26313 0
M  V30 3823 H 375.98 3.41482 -4.93468 0
M  V30 3824 H 377.05 2.12372 -4.3592 0
M  V30 3825 N 378.394 1.34581 0.820102 0
M  V30 3826 C 379.304 1.28471 1.96297 0
M  V30 3827 C 380.32 0.191902 1.72939 0
M  V30 3828 O 381.496 0.418879 1.96996 0
M  V30 3829 C 378.561 1.04281 3.30645 0
M  V30 3830 C 377.622 2.22745 3.66992 0
M  V30 3831 C 376.855 1.997 4.9493 0
M  V30 3832 O 377.078 0.956656 5.6232 0
M  V30 3833 O 376.012 2.86723 5.2922 0
M  V30 3834 H 379.838 2.24624 2.04396 0
M  V30 3835 H 377.423 1.14816 0.955913 0
M  V30 3836 H 379.305 0.925841 4.11104 0
M  V30 3837 H 377.98 0.111697 3.23507 0
M  V30 3838 H 376.887 2.40003 2.86966 0
M  V30 3839 H 378.22 3.14257 3.78819 0
M  V30 3840 N 379.872 -1.04064 1.18357 0
M  V30 3841 C 380.835 -2.10243 0.912707 0
M  V30 3842 C 381.835 -1.60477 -0.101928 0
M  V30 3843 O 383.025 -1.73703 0.131517 0
M  V30 3844 C 380.157 -3.38893 0.369387 0
M  V30 3845 H 381.35 -2.35706 1.85426 0
M  V30 3846 H 378.903 -1.20489 0.995594 0
M  V30 3847 H 379.638 -3.19094 -0.578776 0
M  V30 3848 H 379.423 -3.76331 1.1008 0
M  V30 3849 H 380.913 -4.17128 0.198575 0
M  V30 3850 N 381.35 -0.985608 -1.22978 0
M  V30 3851 C 382.627 -0.573599 -1.87001 0
M  V30 3852 C 383.007 0.949213 -1.88555 0
M  V30 3853 O 382.355 1.82811 -1.37086 0
M  V30 3854 C 382.565 -1.18564 -3.28243 0
M  V30 3855 C 383.913 -1.28163 -4.04796 0
M  V30 3856 O 384.937 -1.13949 -3.37482 0
M  V30 3857 O 383.796 -1.50832 -5.25273 0
M  V30 3858 H 380.89 -0.193868 -0.803955 0
M  V30 3859 H 383.436 -1.08102 -1.30813 0
M  V30 3860 H 382.208 -2.22758 -3.21706 0
M  V30 3861 H 381.831 -0.663363 -3.92027 0
M  V30 3862 N 382.828 1.3818 -0.7579 0
M  V30 3863 C 384.244 1.5353 -0.435972 0
M  V30 3864 C 384.444 1.71961 1.05032 0
M  V30 3865 O 383.5 1.73307 1.83633 0
M  V30 3866 C 384.813 2.73989 -1.23898 0
M  V30 3867 C 386.361 2.87841 -1.22949 0
M  V30 3868 C 386.836 4.11266 -2.01554 0
M  V30 3869 N 388.327 4.18352 -1.98837 0
M  V30 3870 C 389.062 5.12856 -2.5645 0
M  V30 3871 N 388.558 6.13005 -3.22794 0
M  V30 3872 N 390.351 5.05238 -2.46356 0
M  V30 3873 H 382.502 1.24467 -1.7211 0
M  V30 3874 H 384.765 0.604982 -0.729864 0
M  V30 3875 H 384.471 2.66789 -2.29165 0
M  V30 3876 H 384.345 3.67294 -0.858764 0
M  V30 3877 H 386.732 2.9452 -0.184854 0
M  V30 3878 H 386.813 1.95534 -1.64924 0
M  V30 3879 H 386.457 4.05349 -3.06031 0
M  V30 3880 H 386.387 5.02661 -1.5697 0
M  V30 3881 H 388.878 3.46628 -1.50524 0
M  V30 3882 H 389.191 6.81619 -3.64165 0
M  V30 3883 H 387.536 6.13325 -3.2689 0
M  V30 3884 H 390.727 4.25938 -1.9415 0
M  V30 3885 H 390.9 5.78707 -2.91552 0
M  V30 3886 N 384.306 0.507319 1.49211 0
M  V30 3887 C 385.552 -0.0350047 2.0277 0
M  V30 3888 C 385.885 -1.3606 1.38569 0
M  V30 3889 O 385.16 -1.87321 0.523542 0
M  V30 3890 C 385.443 -0.180916 3.59645 0
M  V30 3891 C 385.296 1.16825 4.34364 0
M  V30 3892 C 386.615 -0.918558 4.30407 0
M  V30 3893 H 383.734 -0.0112473 0.736914 0
M  V30 3894 H 386.376 0.659956 1.7817 0
M  V30 3895 H 384.526 -0.772826 3.80736 0
M  V30 3896 H 386.198 1.79952 4.24753 0
M  V30 3897 H 384.441 1.75594 3.96673 0
M  V30 3898 H 385.112 1.01939 5.42506 0
M  V30 3899 H 387.588 -0.41649 4.1401 0
M  V30 3900 H 386.464 -0.989505 5.39907 0
M  V30 3901 H 386.725 -1.96373 3.96093 0
M  V30 3902 N 385.784 -1.5574 0.241426 0
M  V30 3903 C 386.714 -2.24133 -0.654722 0
M  V30 3904 C 387.695 -1.21974 -1.1856 0
M  V30 3905 O 388.88 -1.50612 -1.22595 0
M  V30 3906 C 386.01 -2.93659 -1.85423 0
M  V30 3907 C 384.964 -4.0246 -1.45636 0
M  V30 3908 C 384.29 -4.59383 -2.73626 0
M  V30 3909 C 385.59 -5.18468 -0.631506 0
M  V30 3910 H 387.284 -2.99281 -0.0844353 0
M  V30 3911 H 384.83 -1.43947 -0.0391707 0
M  V30 3912 H 386.783 -3.40203 -2.48676 0
M  V30 3913 H 385.507 -2.15991 -2.44981 0
M  V30 3914 H 384.166 -3.56676 -0.847202 0
M  V30 3915 H 383.814 -3.78422 -3.3137 0
M  V30 3916 H 383.514 -5.32826 -2.4773 0
M  V30 3917 H 385.038 -5.08658 -3.37786 0
M  V30 3918 H 386.452 -5.61272 -1.1682 0
M  V30 3919 H 384.849 -5.98266 -0.468831 0
M  V30 3920 H 385.919 -4.8358 0.357506 0
M  V30 3921 N 387.262 0.0317525 -1.57568 0
M  V30 3922 C 388.508 0.724175 -1.8943 0
M  V30 3923 C 388.841 1.75149 -0.838836 0
M  V30 3924 O 388.116 1.93948 0.146422 0
M  V30 3925 C 388.399 1.39615 -3.31933 0
M  V30 3926 C 388.252 0.382537 -4.4817 0
M  V30 3927 C 389.571 2.33084 -3.73309 0
M  V30 3928 H 386.69 0.261797 -0.688935 0
M  V30 3929 H 389.332 -0.013017 -1.89996 0
M  V30 3930 H 387.482 2.02451 -3.31581 0
M  V30 3931 H 389.154 -0.243689 -4.60656 0
M  V30 3932 H 387.397 -0.29844 -4.32772 0
M  V30 3933 H 388.068 0.891145 -5.44759 0
M  V30 3934 H 390.544 1.80295 -3.7501 0
M  V30 3935 H 389.42 2.77084 -4.73831 0
M  V30 3936 H 389.681 3.19643 -3.05419 0
M  V30 3937 N 388.74 1.54641 0.303973 0
M  V30 3938 C 389.703 1.84646 1.35789 0
M  V30 3939 C 390.703 0.7192 1.4382 0
M  V30 3940 O 391.893 0.987491 1.43507 0
M  V30 3941 C 389.025 2.02407 2.74307 0
M  V30 3942 H 390.218 2.78829 1.10429 0
M  V30 3943 H 387.771 1.46658 0.540487 0
M  V30 3944 H 388.506 1.10502 3.04893 0
M  V30 3945 H 388.291 2.84453 2.69868 0
M  V30 3946 H 389.781 2.27002 3.50514 0
M  V30 3947 N 390.218 -0.567019 1.47046 0
M  V30 3948 C 391.464 -1.32658 1.53394 0
M  V30 3949 C 391.797 -1.93254 0.19148 0
M  V30 3950 O 391.072 -1.77338 -0.798844 0
M  V30 3951 C 391.355 -2.44412 2.64452 0
M  V30 3952 C 391.208 -1.88749 4.08282 0
M  V30 3953 C 392.527 -3.46387 2.71485 0
M  V30 3954 H 389.646 -0.48098 0.558415 0
M  V30 3955 H 392.288 -0.635481 1.79058 0
M  V30 3956 H 390.438 -3.03363 2.427 0
M  V30 3957 H 392.11 -1.34134 4.41368 0
M  V30 3958 H 390.353 -1.19481 4.17021 0
M  V30 3959 H 391.024 -2.69491 4.81745 0
M  V30 3960 H 393.5 -2.9734 2.91081 0
M  V30 3961 H 392.376 -4.2202 3.50985 0
M  V30 3962 H 392.637 -4.04616 1.78153 0
M  V30 3963 N 391.696 -1.35014 -0.812953 0
M  V30 3964 C 392.944 -1.27678 -1.56661 0
M  V30 3965 C 393.265 0.150359 -1.94419 0
M  V30 3966 O 392.535 1.08532 -1.63088 0
M  V30 3967 H 391.115 -0.469602 -0.580933 0
M  V30 3968 H 393.777 -1.69043 -0.970076 0
M  V30 3969 H 392.873 -1.88833 -2.48492 0
M  V30 3970 N 393.175 1.03435 -1.18907 0
M  V30 3971 C 394.591 1.28973 -0.940111 0
M  V30 3972 C 394.791 1.97676 0.390691 0
M  V30 3973 O 393.847 2.26127 1.12352 0
M  V30 3974 C 395.16 2.14221 -2.11021 0
M  V30 3975 C 396.708 2.27547 -2.14922 0
M  V30 3976 C 397.183 3.16164 -3.31367 0
M  V30 3977 N 398.674 3.23752 -3.31269 0
M  V30 3978 C 399.409 3.92495 -4.18014 0
M  V30 3979 N 398.905 4.63515 -5.14904 0
M  V30 3980 N 400.698 3.88838 -4.05908 0
M  V30 3981 H 392.849 0.57252 -2.04538 0
M  V30 3982 H 395.112 0.315184 -0.894071 0
M  V30 3983 H 394.818 1.71054 -3.073 0
M  V30 3984 H 394.692 3.14919 -2.0762 0
M  V30 3985 H 397.079 2.69947 -1.19217 0
M  V30 3986 H 397.16 1.26418 -2.22378 0
M  V30 3987 H 396.804 2.74474 -4.27348 0
M  V30 3988 H 396.734 4.17339 -3.21148 0
M  V30 3989 H 399.225 2.73167 -2.61129 0
M  V30 3990 H 399.538 5.13583 -5.77453 0
M  V30 3991 H 397.883 4.62398 -5.18857 0
M  V30 3992 H 401.074 3.32491 -3.29495 0
M  V30 3993 H 401.247 4.4214 -4.73726 0
M  V30 3994 N 394.653 0.992116 1.22453 0
M  V30 3995 C 396.069 0.702713 1.43297 0
M  V30 3996 C 396.269 -0.726909 1.87932 0
M  V30 3997 O 395.325 -1.49792 2.0327 0
M  V30 3998 C 396.638 1.70762 2.47509 0
M  V30 3999 C 398.186 1.72298 2.61309 0
M  V30 4000 C 398.661 2.71649 3.68742 0
M  V30 4001 N 400.152 2.70239 3.76199 0
M  V30 4002 C 400.887 3.43778 4.58917 0
M  V30 4003 N 400.383 4.26914 5.45633 0
M  V30 4004 N 402.176 3.32487 4.5322 0
M  V30 4005 H 394.327 1.91543 0.917871 0
M  V30 4006 H 396.59 0.826031 0.465162 0
M  V30 4007 H 396.296 2.73059 2.21657 0
M  V30 4008 H 396.17 1.49985 3.46099 0
M  V30 4009 H 398.557 0.706989 2.86506 0
M  V30 4010 H 398.638 1.97143 1.62997 0
M  V30 4011 H 398.282 3.73397 3.44292 0
M  V30 4012 H 398.212 2.44074 4.66622 0
M  V30 4013 H 400.703 2.09912 3.14237 0
M  V30 4014 H 401.016 4.79855 6.05771 0
M  V30 4015 H 399.361 4.31002 5.45218 0
M  V30 4016 H 402.552 2.6698 3.84499 0
M  V30 4017 H 402.725 3.90058 5.17454 0
M  V30 4018 N 396.131 -1.37776 0.765217 0
M  V30 4019 C 397.542 -1.82521 0.392819 0
M  V30 4020 C 397.893 -1.63789 -1.08017 0
M  V30 4021 O 397.018 -1.14542 -1.83601 0
M  V30 4022 C 397.613 -3.31358 0.706214 0
M  V30 4023 C 396.172 -3.74406 0.386952 0
M  V30 4024 C 395.319 -2.60394 0.953422 0
M  V30 4025 H 398.27 -1.2634 0.960412 0
M  V30 4026 H 398.291 -3.80498 -0.0114706 0
M  V30 4027 H 397.803 -3.44959 1.77833 0
M  V30 4028 H 395.904 -3.66377 -0.678112 0
M  V30 4029 H 396.017 -4.70749 0.890636 0
M  V30 4030 H 394.381 -2.51878 0.378064 0
M  V30 4031 H 395.164 -2.76791 2.03081 0
M  V30 4032 N 397.609 -0.515225 -1.4894 0
M  V30 4033 C 399.025 -0.172099 -1.58669 0
M  V30 4034 C 399.225 1.32405 -1.51892 0
M  V30 4035 O 398.281 2.10116 -1.40027 0
M  V30 4036 C 399.594 -0.761533 -2.90897 0
M  V30 4037 C 401.142 -0.728926 -3.04394 0
M  V30 4038 C 401.617 -1.29667 -4.39261 0
M  V30 4039 N 403.108 -1.25799 -4.4579 0
M  V30 4040 C 403.843 -1.66733 -5.48623 0
M  V30 4041 N 403.339 -2.15327 -6.58488 0
M  V30 4042 N 405.132 -1.58061 -5.39419 0
M  V30 4043 H 397.283 -1.48778 -1.51588 0
M  V30 4044 H 399.546 -0.617968 -0.718901 0
M  V30 4045 H 399.252 -1.81136 -3.01468 0
M  V30 4046 H 399.126 -0.230106 -3.76497 0
M  V30 4047 H 401.513 0.312098 -2.93445 0
M  V30 4048 H 401.594 -1.29766 -2.20442 0
M  V30 4049 H 401.238 -2.33655 -4.50963 0
M  V30 4050 H 401.168 -0.703752 -5.21876 0
M  V30 4051 H 403.659 -0.902102 -3.66975 0
M  V30 4052 H 403.972 -2.44594 -7.33071 0
M  V30 4053 H 402.317 -2.19311 -6.59491 0
M  V30 4054 H 405.508 -1.19906 -4.52482 0
M  V30 4055 H 405.681 -1.90284 -6.19432 0
M  V30 4056 N 399.087 1.5561 -0.249682 0
M  V30 4057 C 400.315 2.03411 0.378352 0
M  V30 4058 C 400.73 1.12886 1.51335 0
M  V30 4059 O 400.087 0.143833 1.81932 0
M  V30 4060 C 400.138 3.50537 0.88351 0
M  V30 4061 O 399.859 4.37614 -0.20626 0
M  V30 4062 C 401.36 4.14113 1.58195 0
M  V30 4063 H 398.58 0.664994 0.08958 0
M  V30 4064 H 401.124 2.01044 -0.374357 0
M  V30 4065 H 399.279 3.5343 1.58639 0
M  V30 4066 H 399.693 5.24199 0.177782 0
M  V30 4067 H 401.167 5.18741 1.8871 0
M  V30 4068 H 401.644 3.60767 2.50487 0
M  V30 4069 H 402.25 4.15151 0.923573 0
M  V30 4070 N 400.565 -0.0233959 1.57583 0
M  V30 4071 C 401.512 -1.02224 2.06927 0
M  V30 4072 C 402.482 -1.35575 0.959617 0
M  V30 4073 O 403.667 -1.45815 1.23055 0
M  V30 4074 C 400.807 -2.31636 2.5581 0
M  V30 4075 C 399.92 -2.04394 3.80588 0
M  V30 4076 C 399.055 -3.27717 4.18061 0
M  V30 4077 C 398.094 -2.96056 5.3574 0
M  V30 4078 N 397.231 -4.11847 5.68618 0
M  V30 4079 H 402.071 -0.594504 2.9201 0
M  V30 4080 H 399.608 -0.281921 1.44373 0
M  V30 4081 H 401.566 -3.07258 2.82221 0
M  V30 4082 H 400.196 -2.72122 1.73636 0
M  V30 4083 H 399.248 -1.19244 3.61227 0
M  V30 4084 H 400.56 -1.77042 4.66323 0
M  V30 4085 H 399.714 -4.11702 4.4563 0
M  V30 4086 H 398.453 -3.58188 3.30988 0
M  V30 4087 H 397.458 -2.10474 5.07918 0
M  V30 4088 H 398.683 -2.66857 6.24471 0
M  V30 4089 H 396.629 -4.42258 4.84504 0
M  V30 4090 H 396.546 -3.87938 6.48876 0
M  V30 4091 H 397.814 -4.96689 6.00766 0
M  V30 4092 N 402.043 -1.548 -0.295768 0
M  V30 4093 C 403.291 -1.73985 -1.02828 0
M  V30 4094 C 403.612 -0.531406 -1.87619 0
M  V30 4095 O 402.882 0.454221 -1.90561 0
M  V30 4096 H 401.462 -0.641556 -0.382642 0
M  V30 4097 H 404.124 -1.92163 -0.325489 0
M  V30 4098 H 403.22 -2.63129 -1.67838 0
M  V30 4099 N 403.521 0.559213 -1.47345 0
M  V30 4100 C 404.768 1.31648 -1.53867 0
M  V30 4101 C 405.096 1.93468 -0.200104 0
M  V30 4102 O 404.351 1.78295 0.806799 0
M  V30 4103 C 404.65 2.44853 -2.6035 0
M  V30 4104 C 404.316 2.00876 -4.03683 0
M  V30 4105 C 402.978 1.88599 -4.42701 0
M  V30 4106 C 405.33 1.67279 -4.93626 0
M  V30 4107 C 402.658 1.41017 -5.69501 0
M  V30 4108 C 405.01 1.21169 -6.20887 0
M  V30 4109 C 403.674 1.07487 -6.58789 0
M  V30 4110 H 402.944 0.481734 -0.56304 0
M  V30 4111 H 405.591 0.627301 -1.80934 0
M  V30 4112 H 403.896 3.19318 -2.27032 0
M  V30 4113 H 405.593 3.03039 -2.62619 0
M  V30 4114 H 402.183 2.11374 -3.72853 0
M  V30 4115 H 406.367 1.75638 -4.64182 0
M  V30 4116 H 401.623 1.29086 -5.97618 0
M  V30 4117 H 405.797 0.942345 -6.89995 0
M  V30 4118 H 403.424 0.703946 -7.56934 0
M  V30 4119 N 404.999 1.35443 0.805782 0
M  V30 4120 C 405.947 1.28465 1.93906 0
M  V30 4121 C 406.941 0.17943 1.68447 0
M  V30 4122 O 408.147 0.345459 1.76654 0
M  V30 4123 H 404.522 0.399528 0.637088 0
M  V30 4124 H 406.493 2.24206 1.96912 0
M  V30 4125 C 405.242 1.07432 3.30687 0
M  V30 4126 H 404.565 1.91716 3.50835 0
M  V30 4127 H 406.005 1.06591 4.10383 0
M  V30 4128 C 404.464 -0.22179 3.36169 0
M  V30 4129 O 404.994 -1.21731 3.82811 0
M  V30 4130 N 403.2 -0.260841 2.89427 0
M  V30 4131 H 402.747 0.549884 2.51663 0
M  V30 4132 H 402.705 -1.12777 2.93477 0
M  V30 4133 N 406.477 -1.02803 1.19454 0
M  V30 4134 C 407.407 -2.12999 0.956758 0
M  V30 4135 C 408.388 -1.69743 -0.110188 0
M  V30 4136 O 409.573 -1.94148 0.0450038 0
M  V30 4137 C 406.703 -3.43746 0.495553 0
M  V30 4138 C 405.657 -4.00688 1.50443 0
M  V30 4139 C 404.983 -5.27067 0.900275 0
M  V30 4140 C 406.283 -4.35397 2.8849 0
M  V30 4141 H 407.977 -2.33148 1.87836 0
M  V30 4142 H 405.523 -1.12045 0.904539 0
M  V30 4143 H 407.476 -4.2021 0.316493 0
M  V30 4144 H 406.2 -3.23321 -0.461646 0
M  V30 4145 H 404.859 -3.2632 1.67065 0
M  V30 4146 H 404.507 -5.02959 -0.064503 0
M  V30 4147 H 404.207 -5.66127 1.57397 0
M  V30 4148 H 405.731 -6.06196 0.73203 0
M  V30 4149 H 407.145 -5.02795 2.75446 0
M  V30 4150 H 405.542 -4.85541 3.52661 0
M  V30 4151 H 406.612 -3.44662 3.41081 0
M  V30 4152 N 407.956 -0.998596 -1.21925 0
M  V30 4153 C 408.866 -0.562736 -2.27751 0
M  V30 4154 C 409.882 0.391203 -1.69545 0
M  V30 4155 O 411.058 0.256625 -1.99758 0
M  V30 4156 C 408.123 0.11012 -3.46525 0
M  V30 4157 C 407.184 -0.887495 -4.20026 0
M  V30 4158 C 406.417 -0.246654 -5.3313 0
M  V30 4159 O 406.64 0.958088 -5.62296 0
M  V30 4160 O 405.574 -0.954374 -5.94286 0
M  V30 4161 H 409.4 -1.44329 -2.67213 0
M  V30 4162 H 406.985 -0.767135 -1.28201 0
M  V30 4163 H 408.867 0.486756 -4.18579 0
M  V30 4164 H 407.542 0.965154 -3.08976 0
M  V30 4165 H 406.449 -1.31517 -3.5022 0
M  V30 4166 H 407.782 -1.71191 -4.6147 0
M  V30 4167 N 409.434 1.37368 -0.772513 0
M  V30 4168 C 410.674 2.01512 -0.342361 0
M  V30 4169 C 411.038 1.59997 1.06136 0
M  V30 4170 O 412.239 2.16609 1.59167 0
M  V30 4171 C 410.51 3.54134 -0.482048 0
M  V30 4172 S 412.069 4.38585 -0.137272 0
M  V30 4173 H 408.887 0.698699 -0.131686 0
M  V30 4174 H 411.489 1.67552 -1.0073 0
M  V30 4175 H 410.193 3.81837 -1.50428 0
M  V30 4176 H 409.724 3.92894 0.199413 0
M  V30 4177 H 411.739 4.84594 1.06692 0
M  V30 4178 N 410.912 0.523116 1.48665 0
M  V30 4179 C 411.842 -0.23231 2.32342 0
M  V30 4180 C 412.823 -0.941637 1.41659 0
M  V30 4181 O 414.008 -0.928751 1.70552 0
M  V30 4182 C 411.138 -1.28387 3.22698 0
M  V30 4183 C 410.092 -0.693098 4.22351 0
M  V30 4184 C 409.418 -1.8468 5.01794 0
M  V30 4185 C 410.718 0.33063 5.21252 0
M  V30 4186 H 412.412 0.466192 2.95748 0
M  V30 4187 H 409.958 0.225643 1.42221 0
M  V30 4188 H 411.911 -1.82024 3.80059 0
M  V30 4189 H 410.635 -2.01186 2.57278 0
M  V30 4190 H 409.294 -0.178299 3.66166 0
M  V30 4191 H 408.942 -2.56301 4.32804 0
M  V30 4192 H 408.642 -1.45747 5.69238 0
M  V30 4193 H 410.166 -2.38709 5.62006 0
M  V30 4194 H 411.58 -0.118407 5.73178 0
M  V30 4195 H 409.977 0.636974 5.9671 0
M  V30 4196 H 411.047 1.23883 4.68808 0
M  V30 4197 N 412.39 -1.55475 0.257931 0
M  V30 4198 C 413.667 -1.91155 -0.414629 0
M  V30 4199 C 414.047 -1.18008 -1.75035 0
M  V30 4200 O 413.395 -0.301193 -2.26506 0
M  V30 4201 C 413.605 -3.44283 -0.571859 0
M  V30 4202 C 414.953 -4.15744 -0.862678 0
M  V30 4203 O 415.977 -3.50083 -0.657314 0
M  V30 4204 O 414.836 -5.31909 -1.2544 0
M  V30 4205 H 411.93 -0.796016 -0.22425 0
M  V30 4206 H 414.476 -1.66976 0.302814 0
M  V30 4207 H 413.248 -3.89558 0.368844 0
M  V30 4208 H 412.871 -3.7436 -1.33943 0
M  V30 4209 N 413.868 0.0150385 -1.57593 0
M  V30 4210 C 414.798 1.01047 -2.10503 0
M  V30 4211 C 415.779 1.36816 -1.01071 0
M  V30 4212 O 416.964 1.45455 -1.28672 0
M  V30 4213 C 414.094 2.30708 -2.59598 0
M  V30 4214 C 413.048 2.09142 -3.73421 0
M  V30 4215 C 412.374 3.44685 -4.08774 0
M  V30 4216 C 413.674 1.46619 -5.01298 0
M  V30 4217 H 415.368 0.569978 -2.93925 0
M  V30 4218 H 412.914 0.272724 -1.41394 0
M  V30 4219 H 414.867 3.00687 -2.95238 0
M  V30 4220 H 413.591 2.76843 -1.73279 0
M  V30 4221 H 412.25 1.41592 -3.38153 0
M  V30 4222 H 411.898 3.88495 -3.195 0
M  V30 4223 H 411.598 3.31077 -4.8545 0
M  V30 4224 H 413.122 4.16004 -4.4696 0
M  V30 4225 H 414.536 2.06535 -5.34805 0
M  V30 4226 H 412.933 1.43544 -5.82679 0
M  V30 4227 H 414.003 0.433611 -4.82957 0
M  V30 4228 N 415.346 1.54954 0.287554 0
M  V30 4229 C 416.293 1.86834 1.35505 0
M  V30 4230 C 417.263 0.718452 1.49758 0
M  V30 4231 O 418.448 0.968358 1.644 0
M  V30 4232 C 415.588 2.13303 2.71286 0
M  V30 4233 C 414.701 3.40883 2.65373 0
M  V30 4234 C 413.836 3.57125 3.93236 0
M  V30 4235 C 412.875 4.78449 3.81776 0
M  V30 4236 N 412.012 4.91426 5.01443 0
M  V30 4237 H 416.852 2.77889 1.07619 0
M  V30 4238 H 414.389 1.37593 0.520241 0
M  V30 4239 H 416.347 2.26646 3.50267 0
M  V30 4240 H 414.977 1.25499 2.97405 0
M  V30 4241 H 414.029 3.36088 1.78182 0
M  V30 4242 H 415.341 4.29993 2.52799 0
M  V30 4243 H 414.495 3.70207 4.80658 0
M  V30 4244 H 413.234 2.66173 4.0866 0
M  V30 4245 H 412.239 4.65386 2.92738 0
M  V30 4246 H 413.464 5.70822 3.67884 0
M  V30 4247 H 411.41 4.03401 5.17304 0
M  V30 4248 H 411.327 5.74559 4.91343 0
M  V30 4249 H 412.595 5.08879 5.90477 0
M  V30 4250 N 416.824 -0.551391 1.4764 0
M  V30 4251 C 417.757 -1.6738 1.5511 0
M  V30 4252 C 418.735 -1.5753 0.402856 0
M  V30 4253 O 419.919 -1.78307 0.611475 0
M  V30 4254 C 417.046 -3.05661 1.45908 0
M  V30 4255 C 416.092 -3.33938 2.65307 0
M  V30 4256 S 416.925 -3.22553 4.27457 0
M  V30 4257 C 418.081 -4.63317 4.20818 0
M  V30 4258 H 418.314 -1.6079 2.50068 0
M  V30 4259 H 415.847 -0.732674 1.35909 0
M  V30 4260 H 417.805 -3.8542 1.41286 0
M  V30 4261 H 416.466 -3.09711 0.523248 0
M  V30 4262 H 415.659 -4.34761 2.54948 0
M  V30 4263 H 415.261 -2.61809 2.67081 0
M  V30 4264 H 417.553 -5.54391 3.89431 0
M  V30 4265 H 418.496 -4.78732 5.21748 0
M  V30 4266 H 418.904 -4.41636 3.51593 0
M  V30 4267 N 418.302 -1.35869 -0.798587 0
M  V30 4268 C 419.25 -1.29491 -1.93222 0
M  V30 4269 C 420.244 -0.18836 -1.6835 0
M  V30 4270 O 421.45 -0.354822 -1.76468 0
M  V30 4271 H 417.825 -0.402901 -0.63496 0
M  V30 4272 H 419.796 -2.25247 -1.9572 0
M  V30 4273 C 418.545 -1.09184 -3.30112 0
M  V30 4274 H 417.868 -1.93574 -3.49813 0
M  V30 4275 H 419.308 -1.08766 -4.09812 0
M  V30 4276 C 417.767 0.203959 -3.36282 0
M  V30 4277 O 418.297 1.19699 -3.83451 0
M  V30 4278 N 416.503 0.245488 -2.89561 0
M  V30 4279 H 416.05 -0.563223 -2.51367 0
M  V30 4280 H 416.008 1.11219 -2.94071 0
M  V30 4281 N 419.78 1.02168 -1.19998 0
M  V30 4282 C 421.028 1.75338 -1.00504 0
M  V30 4283 C 421.349 1.89387 0.464506 0
M  V30 4284 O 420.619 1.43268 1.33608 0
M  V30 4285 H 419.199 0.649564 -0.368885 0
M  V30 4286 H 421.861 1.23205 -1.51018 0
M  V30 4287 H 420.957 2.75892 -1.45912 0
M  V30 4288 N 421.258 1.00505 1.21394 0
M  V30 4289 C 422.221 0.570459 2.21987 0
M  V30 4290 C 423.221 -0.353211 1.56873 0
M  V30 4291 O 424.411 -0.14349 1.73608 0
M  V30 4292 C 421.543 -0.168555 3.40483 0
M  V30 4293 H 422.736 1.46021 2.6195 0
M  V30 4294 H 420.289 0.793565 1.34656 0
M  V30 4295 H 421.024 -1.07374 3.06009 0
M  V30 4296 H 420.809 0.494823 3.88965 0
M  V30 4297 H 422.299 -0.460362 4.15055 0
M  V30 4298 N 422.737 -1.36956 0.779787 0
M  V30 4299 C 423.7 -2.2851 0.177662 0
M  V30 4300 C 424.7 -1.48393 -0.619377 0
M  V30 4301 O 425.89 -1.68505 -0.441785 0
M  V30 4302 C 423.022 -3.32428 -0.755279 0
M  V30 4303 H 424.215 -2.83269 0.984823 0
M  V30 4304 H 421.768 -1.46358 0.548544 0
M  V30 4305 H 422.503 -2.82808 -1.58714 0
M  V30 4306 H 422.288 -3.91659 -0.185817 0
M  V30 4307 H 423.778 -4.00824 -1.17174 0
M  V30 4308 N 424.215 -0.530993 -1.48385 0
M  V30 4309 C 425.464 0.00474348 -2.01699 0
M  V30 4310 C 425.777 1.35227 -1.41325 0
M  V30 4311 O 426.983 1.97643 -1.86144 0
M  V30 4312 C 425.439 0.0588473 -3.59852 0
M  V30 4313 C 425.047 -1.28385 -4.2921 0
M  V30 4314 C 426.791 0.543358 -4.21008 0
M  V30 4315 C 424.698 -1.19028 -5.79298 0
M  V30 4316 H 423.628 0.00554317 -0.75398 0
M  V30 4317 H 426.279 -0.674924 -1.70637 0
M  V30 4318 H 424.661 0.803612 -3.8776 0
M  V30 4319 H 425.835 -2.04426 -4.12973 0
M  V30 4320 H 424.15 -1.70418 -3.7993 0
M  V30 4321 H 426.747 0.631351 -5.3096 0
M  V30 4322 H 427.09 1.54937 -3.86394 0
M  V30 4323 H 427.623 -0.145754 -3.97533 0
M  V30 4324 H 424.362 -2.17147 -6.18488 0
M  V30 4325 H 423.882 -0.471246 -5.97946 0
M  V30 4326 H 425.561 -0.881365 -6.40969 0
M  V30 4327 N 425.693 1.55336 -0.266172 0
M  V30 4328 C 426.656 2.20878 0.612001 0
M  V30 4329 C 427.656 1.18388 1.08816 0
M  V30 4330 O 428.846 1.4335 0.989774 0
M  V30 4331 C 425.978 2.86765 1.84332 0
M  V30 4332 H 427.171 2.99873 0.0398718 0
M  V30 4333 H 424.724 1.56291 -0.0167309 0
M  V30 4334 H 425.459 2.11759 2.45619 0
M  V30 4335 H 425.244 3.61862 1.5099 0
M  V30 4336 H 426.734 3.36867 2.46801 0
M  V30 4337 N 427.171 -0.0066808 1.57599 0
M  V30 4338 C 428.42 -0.692078 1.89455 0
M  V30 4339 C 428.733 -1.75306 0.867586 0
M  V30 4340 O 429.939 -2.49262 1.07614 0
M  V30 4341 C 428.395 -1.2821 3.36289 0
M  V30 4342 C 428.003 -0.256291 4.47266 0
M  V30 4343 C 429.747 -1.94608 3.77264 0
M  V30 4344 C 427.654 -0.855927 5.85173 0
M  V30 4345 H 426.584 -0.262252 0.706923 0
M  V30 4346 H 429.235 0.052769 1.83424 0
M  V30 4347 H 427.617 -2.0774 3.37135 0
M  V30 4348 H 428.791 0.513923 4.57925 0
M  V30 4349 H 427.106 0.306862 4.15268 0
M  V30 4350 H 429.703 -2.40364 4.77629 0
M  V30 4351 H 430.046 -2.77382 3.10427 0
M  V30 4352 H 430.579 -1.21822 3.78688 0
M  V30 4353 H 427.318 -0.0671161 6.55466 0
M  V30 4354 H 426.838 -1.59546 5.78191 0
M  V30 4355 H 428.517 -1.35658 6.32618 0
M  V30 4356 N 428.649 -1.55105 -0.279332 0
M  V30 4357 C 429.926 -1.66119 -1.03267 0
M  V30 4358 C 430.306 -0.523525 -2.04505 0
M  V30 4359 O 429.654 0.477194 -2.23462 0
M  V30 4360 C 429.864 -3.05067 -1.69515 0
M  V30 4361 C 431.212 -3.62606 -2.20912 0
M  V30 4362 O 432.236 -3.07659 -1.79512 0
M  V30 4363 O 431.095 -4.58861 -2.96831 0
M  V30 4364 H 428.189 -0.674429 -0.478618 0
M  V30 4365 H 430.735 -1.67446 -0.275694 0
M  V30 4366 H 429.507 -3.79311 -0.9612 0
M  V30 4367 H 429.13 -3.07611 -2.51915 0
M  V30 4368 N 430.127 0.543554 -1.4793 0
M  V30 4369 C 431.037 1.67657 -1.64098 0
M  V30 4370 C 432.053 1.65934 -0.523622 0
M  V30 4371 O 433.229 1.85133 -0.792943 0
M  V30 4372 C 430.294 3.04146 -1.66421 0
M  V30 4373 C 429.355 3.16831 -2.89684 0
M  V30 4374 C 428.588 4.46809 -2.91886 0
M  V30 4375 O 428.811 5.33095 -2.02895 0
M  V30 4376 O 427.745 4.63573 -3.83906 0
M  V30 4377 H 431.571 1.56957 -2.59997 0
M  V30 4378 H 429.156 0.715116 -1.31173 0
M  V30 4379 H 431.038 3.85346 -1.70548 0
M  V30 4380 H 429.713 3.152 -0.736923 0
M  V30 4381 H 428.62 2.34977 -2.91095 0
M  V30 4382 H 429.953 3.10687 -3.81752 0
M  V30 4383 N 431.605 1.3629 0.791371 0
M  V30 4384 C 433.021 1.16661 1.08914 0
M  V30 4385 C 433.221 -0.0106266 2.01497 0
M  V30 4386 O 432.277 -0.676596 2.43266 0
M  V30 4387 C 433.59 2.47656 1.70549 0
M  V30 4388 C 435.138 2.54002 1.82899 0
M  V30 4389 C 435.613 3.85078 2.47949 0
M  V30 4390 N 437.104 3.86413 2.5542 0
M  V30 4391 C 437.839 4.84572 3.06557 0
M  V30 4392 N 437.335 5.93124 3.58016 0
M  V30 4393 N 439.128 4.71994 3.05251 0
M  V30 4394 H 431.279 2.11668 0.176238 0
M  V30 4395 H 433.542 0.937486 0.140796 0
M  V30 4396 H 433.248 3.34059 1.09989 0
M  V30 4397 H 433.122 2.63319 2.70079 0
M  V30 4398 H 435.509 1.68018 2.42598 0
M  V30 4399 H 435.59 2.42239 0.821808 0
M  V30 4400 H 435.234 4.71467 1.88895 0
M  V30 4401 H 435.164 3.94135 3.49235 0
M  V30 4402 H 437.655 3.07988 2.18979 0
M  V30 4403 H 437.968 6.63999 3.95381 0
M  V30 4404 H 436.313 5.96796 3.56173 0
M  V30 4405 H 439.504 3.86321 2.64336 0
M  V30 4406 H 439.677 5.48653 3.44796 0
M  V30 4407 N 433.083 -1.0153 1.20538 0
M  V30 4408 C 434.323 -1.76689 1.02763 0
M  V30 4409 C 434.687 -1.87065 -0.432513 0
M  V30 4410 O 435.888 -2.58684 -0.730481 0
M  V30 4411 C 434.159 -3.14707 1.69393 0
M  V30 4412 S 435.718 -4.05886 1.66738 0
M  V30 4413 H 432.536 -0.608076 0.368463 0
M  V30 4414 H 435.138 -1.21558 1.53114 0
M  V30 4415 H 433.842 -3.04782 2.74838 0
M  V30 4416 H 433.373 -3.74913 1.19179 0
M  V30 4417 H 435.388 -4.91221 0.70117 0
M  V30 4418 N 434.561 -1.01147 -1.20859 0
M  V30 4419 C 435.493 -0.535546 -2.22855 0
M  V30 4420 C 436.506 0.379323 -1.58319 0
M  V30 4421 O 437.695 0.178489 -1.77605 0
M  V30 4422 C 434.795 0.240962 -3.38042 0
M  V30 4423 C 433.968 -0.674562 -4.32167 0
M  V30 4424 C 433.027 0.053467 -5.26173 0
M  V30 4425 O 432.053 -0.567339 -5.66366 0
M  V30 4426 N 433.255 1.32997 -5.65059 0
M  V30 4427 H 436.02 -1.41268 -2.64317 0
M  V30 4428 H 433.581 -0.888386 -1.35349 0
M  V30 4429 H 435.573 0.737115 -3.97931 0
M  V30 4430 H 434.143 1.01935 -2.95513 0
M  V30 4431 H 433.363 -1.35111 -3.70322 0
M  V30 4432 H 434.651 -1.2974 -4.91981 0
M  V30 4433 H 434.049 1.85536 -5.34409 0
M  V30 4434 H 432.606 1.77095 -6.2728 0
M  V30 4435 N 436.039 1.36541 -0.78704 0
M  V30 4436 C 437.267 2.03561 -0.370199 0
M  V30 4437 C 437.682 1.59347 1.01263 0
M  V30 4438 O 437.039 0.781781 1.64907 0
M  V30 4439 C 437.09 3.59033 -0.421614 0
M  V30 4440 O 436.811 4.01634 -1.7499 0
M  V30 4441 C 438.312 4.433 0.00489763 0
M  V30 4442 H 435.532 0.653346 -0.152904 0
M  V30 4443 H 438.076 1.74566 -1.06522 0
M  V30 4444 H 436.231 3.86746 0.224971 0
M  V30 4445 H 436.645 4.96217 -1.69909 0
M  V30 4446 H 438.119 5.51939 -0.0822184 0
M  V30 4447 H 438.596 4.26285 1.05723 0
M  V30 4448 H 439.202 4.20843 -0.614085 0
M  V30 4449 N 437.518 0.538854 1.48102 0
M  V30 4450 C 438.743 0.0102694 2.07397 0
M  V30 4451 C 439.168 -1.26562 1.39153 0
M  V30 4452 O 438.526 -1.75357 0.460387 0
M  V30 4453 C 438.574 -0.187602 3.60112 0
M  V30 4454 O 437.678 -1.25432 3.92862 0
M  V30 4455 H 437.019 0.0430975 0.6626 0
M  V30 4456 H 439.549 0.749301 1.90385 0
M  V30 4457 H 439.559 -0.407517 4.0596 0
M  V30 4458 H 438.234 0.744386 4.09184 0
M  V30 4459 H 436.811 -1.01636 3.58782 0
M  V30 4460 N 438.996 -1.55193 0.274407 0
M  V30 4461 C 439.929 -2.18606 -0.654712 0
M  V30 4462 C 440.907 -1.14677 -1.15273 0
M  V30 4463 O 442.091 -1.43198 -1.22583 0
M  V30 4464 C 439.218 -2.80875 -1.89281 0
M  V30 4465 C 438.264 -3.981 -1.53032 0
M  V30 4466 S 439.097 -5.32025 -0.609107 0
M  V30 4467 C 440.253 -5.97761 -1.85559 0
M  V30 4468 H 440.486 -2.97074 -0.115894 0
M  V30 4469 H 438.019 -1.54288 0.05867 0
M  V30 4470 H 439.977 -3.17381 -2.60345 0
M  V30 4471 H 438.638 -2.02302 -2.40277 0
M  V30 4472 H 437.831 -4.40356 -2.45158 0
M  V30 4473 H 437.433 -3.63013 -0.899874 0
M  V30 4474 H 439.725 -6.16951 -2.7996 0
M  V30 4475 H 440.668 -6.92545 -1.47605 0
M  V30 4476 H 441.076 -5.27113 -2.02021 0
M  V30 4477 N 440.474 -0.00167713 -1.576 0
M  V30 4478 C 441.424 0.997744 -2.0501 0
M  V30 4479 C 442.408 1.30214 -0.94515 0
M  V30 4480 O 443.6 1.29284 -1.20891 0
M  V30 4481 C 440.729 2.2892 -2.55833 0
M  V30 4482 C 439.815 2.01437 -3.73208 0
M  V30 4483 N 440.206 1.44119 -4.84833 0
M  V30 4484 C 438.504 2.31571 -3.8117 0
M  V30 4485 C 439.205 1.33145 -5.66257 0
M  V30 4486 N 438.181 1.81763 -5.12312 0
M  V30 4487 H 441.983 0.549098 -2.88725 0
M  V30 4488 H 439.497 0.20398 -1.61114 0
M  V30 4489 H 441.494 3.01361 -2.88075 0
M  V30 4490 H 440.154 2.74436 -1.73537 0
M  V30 4491 H 441.165 1.11978 -5.0565 0
M  V30 4492 H 437.842 2.7995 -3.09732 0
M  V30 4493 H 439.232 0.890567 -6.65972 0
M  V30 4494 N 441.952 1.55251 0.271103 0
M  V30 4495 C 442.9 1.89054 1.35504 0
M  V30 4496 C 443.894 0.767064 1.51038 0
M  V30 4497 O 445.1 0.951429 1.528 0
M  V30 4498 H 441.475 0.600072 0.45323 0
M  V30 4499 H 443.446 2.79598 1.04247 0
M  V30 4500 C 442.195 2.18068 2.70817 0
M  V30 4501 H 441.518 3.04005 2.59656 0
M  V30 4502 H 442.958 2.4564 3.45597 0
M  V30 4503 C 441.417 0.988901 3.2206 0
M  V30 4504 O 441.947 0.224501 4.01072 0
M  V30 4505 N 440.153 0.786085 2.79766 0
M  V30 4506 H 439.7 1.40937 2.15626 0
M  V30 4507 H 439.658 -0.00969349 3.14399 0
M  V30 4508 N 443.43 -0.535701 1.48216 0
M  V30 4509 C 444.676 -1.29375 1.56173 0
M  V30 4510 C 445.009 -1.92804 0.232429 0
M  V30 4511 O 444.284 -1.78992 -0.761048 0
M  V30 4512 C 444.567 -2.38747 2.69577 0
M  V30 4513 C 444.42 -1.80046 4.12193 0
M  V30 4514 C 445.739 -3.40551 2.78771 0
M  V30 4515 H 442.858 -0.469027 0.568491 0
M  V30 4516 H 445.5 -0.597358 1.80365 0
M  V30 4517 H 443.65 -2.98147 2.4908 0
M  V30 4518 H 445.322 -1.24742 4.44114 0
M  V30 4519 H 443.565 -1.10609 4.19462 0
M  V30 4520 H 444.236 -2.59212 4.87353 0
M  V30 4521 H 446.712 -2.91099 2.97322 0
M  V30 4522 H 445.588 -4.1448 3.59857 0
M  V30 4523 H 445.849 -4.00746 1.86696 0
M  V30 4524 N 444.908 -1.36708 -0.784132 0
M  V30 4525 C 446.154 -1.32433 -1.54379 0
M  V30 4526 C 446.509 0.0941816 -1.92169 0
M  V30 4527 O 445.802 1.04997 -1.60269 0
M  V30 4528 C 445.996 -2.18571 -2.82774 0
M  V30 4529 C 445.825 -3.68656 -2.57533 0
M  V30 4530 C 444.595 -4.37813 -2.52286 0
M  V30 4531 C 446.793 -4.61802 -2.2637 0
M  V30 4532 N 444.775 -5.7351 -2.18997 0
M  V30 4533 C 446.146 -5.85785 -2.03115 0
M  V30 4534 C 448.201 -4.50313 -2.12421 0
M  V30 4535 C 446.904 -6.99569 -1.67321 0
M  V30 4536 C 448.93 -5.63969 -1.78026 0
M  V30 4537 C 448.292 -6.86994 -1.55622 0
M  V30 4538 H 444.391 -0.539886 -0.565727 0
M  V30 4539 H 446.975 -1.71812 -0.915908 0
M  V30 4540 H 445.146 -1.81429 -3.43421 0
M  V30 4541 H 446.878 -2.05646 -3.48557 0
M  V30 4542 H 443.633 -3.90674 -2.67714 0
M  V30 4543 H 444.057 -6.45189 -2.05084 0
M  V30 4544 H 448.699 -3.55781 -2.28429 0
M  V30 4545 H 446.417 -7.94047 -1.5005 0
M  V30 4546 H 450.003 -5.57044 -1.67909 0
M  V30 4547 H 448.883 -7.7345 -1.294 0
M  V30 4548 N 446.386 1.0089 -1.21074 0
M  V30 4549 C 447.349 2.0775 -0.968129 0
M  V30 4550 C 448.349 1.6069 0.0593445 0
M  V30 4551 O 449.539 1.73293 -0.177525 0
M  V30 4552 C 446.671 3.37794 -0.459108 0
M  V30 4553 H 447.864 2.30707 -1.9161 0
M  V30 4554 H 445.417 1.17807 -1.02719 0
M  V30 4555 H 446.152 3.20516 0.49397 0
M  V30 4556 H 445.937 3.7328 -1.20019 0
M  V30 4557 H 447.427 4.16454 -0.309099 0
M  V30 4558 N 447.864 1.01787 1.20321 0
M  V30 4559 C 449.113 0.703249 1.89043 0
M  V30 4560 C 449.426 -0.770445 1.79787 0
M  V30 4561 O 450.632 -1.19767 2.43656 0
M  V30 4562 C 449.088 1.20749 3.3904 0
M  V30 4563 C 448.696 2.70817 3.56878 0
M  V30 4564 C 450.44 0.968352 4.13308 0
M  V30 4565 C 448.347 3.14716 5.00708 0
M  V30 4566 H 447.277 0.259354 0.707991 0
M  V30 4567 H 449.928 1.23072 1.36108 0
M  V30 4568 H 448.31 0.607989 3.91305 0
M  V30 4569 H 449.484 3.36327 3.14993 0
M  V30 4570 H 447.799 2.92888 2.95983 0
M  V30 4571 H 450.396 1.27173 5.19356 0
M  V30 4572 H 450.739 -0.095149 4.16191 0
M  V30 4573 H 451.272 1.53129 3.67146 0
M  V30 4574 H 448.011 4.20347 5.02979 0
M  V30 4575 H 447.531 2.53927 5.43398 0
M  V30 4576 H 449.21 3.07426 5.69296 0
M  V30 4577 N 449.342 -1.36122 0.79427 0
M  V30 4578 C 450.59 -1.98718 0.368177 0
M  V30 4579 C 450.911 -1.63345 -1.06506 0
M  V30 4580 O 450.181 -0.909825 -1.73491 0
M  V30 4581 H 448.761 -0.735038 0.133146 0
M  V30 4582 H 451.423 -1.66239 1.01739 0
M  V30 4583 H 450.519 -3.08633 0.463923 0
M  V30 4584 N 450.82 -0.546701 -1.47814 0
M  V30 4585 C 452.097 0.0464413 -1.95545 0
M  V30 4586 C 452.477 1.4962 -1.48919 0
M  V30 4587 O 451.825 2.16752 -0.723232 0
M  V30 4588 C 452.035 -0.0881298 -3.48889 0
M  V30 4589 C 453.383 0.0626059 -4.24554 0
M  V30 4590 O 454.407 -0.0151555 -3.56197 0
M  V30 4591 O 453.266 0.228071 -5.46024 0
M  V30 4592 H 450.36 0.0700004 -0.824032 0
M  V30 4593 H 452.906 -0.612482 -1.58262 0
M  V30 4594 H 451.678 -1.09737 -3.75597 0
M  V30 4595 H 451.301 0.608886 -3.9291 0
M  V30 4596 N 452.299 1.55045 -0.282633 0
M  V30 4597 C 453.545 2.00056 0.332481 0
M  V30 4598 C 453.878 1.1708 1.54939 0
M  V30 4599 O 453.153 0.2427 1.9298 0
M  V30 4600 C 453.436 3.53086 0.70725 0
M  V30 4601 C 453.289 4.46813 -0.517521 0
M  V30 4602 C 454.608 4.12245 1.54084 0
M  V30 4603 H 451.727 0.727268 0.119373 0
M  V30 4604 H 454.369 1.85932 -0.391076 0
M  V30 4605 H 452.519 3.65253 1.32372 0
M  V30 4606 H 454.191 4.46579 -1.15607 0
M  V30 4607 H 452.434 4.18163 -1.1542 0
M  V30 4608 H 453.105 5.51595 -0.211426 0
M  V30 4609 H 455.581 4.03401 1.02013 0
M  V30 4610 H 454.457 5.19515 1.77186 0
M  V30 4611 H 454.718 3.62951 2.52427 0
M  V30 4612 N 453.777 0.010035 1.57597 0
M  V30 4613 C 454.74 -0.963029 2.07986 0
M  V30 4614 C 455.74 -1.26619 0.991173 0
M  V30 4615 O 456.93 -1.2097 1.25347 0
M  V30 4616 C 454.062 -2.2851 2.52974 0
M  V30 4617 H 455.255 -0.526971 2.95234 0
M  V30 4618 H 452.808 -0.237639 1.54483 0
M  V30 4619 H 453.543 -2.76784 1.69 0
M  V30 4620 H 453.328 -2.07824 3.32493 0
M  V30 4621 H 454.818 -2.98294 2.9225 0
M  V30 4622 N 455.255 -1.55392 -0.262866 0
M  V30 4623 C 456.503 -1.76127 -0.991147 0
M  V30 4624 C 456.824 -0.571083 -1.8645 0
M  V30 4625 O 456.094 0.413698 -1.91482 0
M  V30 4626 H 454.674 -0.649528 -0.368948 0
M  V30 4627 H 457.336 -1.9281 -0.284655 0
M  V30 4628 H 456.432 -2.6663 -1.62219 0
M  V30 4629 N 456.733 0.527833 -1.48498 0
M  V30 4630 C 457.643 1.65907 -1.65867 0
M  V30 4631 C 458.659 1.6537 -0.541192 0
M  V30 4632 O 459.835 1.84282 -0.812534 0
M  V30 4633 C 456.9 3.02364 -1.69637 0
M  V30 4634 C 455.961 3.1374 -2.93028 0
M  V30 4635 C 455.194 4.43688 -2.96609 0
M  V30 4636 O 455.417 5.30913 -2.08538 0
M  V30 4637 O 454.351 4.59475 -3.88802 0
M  V30 4638 H 458.177 1.5419 -2.61647 0
M  V30 4639 H 455.762 0.701163 -1.31924 0
M  V30 4640 H 457.644 3.83515 -1.74625 0
M  V30 4641 H 456.319 3.14401 -0.770312 0
M  V30 4642 H 455.226 2.31877 -2.93571 0
M  V30 4643 H 456.559 3.06621 -3.85026 0
M  V30 4644 N 458.211 1.37122 0.776871 0
M  V30 4645 C 459.622 1.28667 1.35284 0
M  V30 4646 C 459.973 -0.0680035 1.96082 0
M  V30 4647 O 459.098 -0.969743 1.93455 0
M  V30 4648 C 459.693 2.32997 2.45963 0
M  V30 4649 C 458.252 2.28191 2.99342 0
M  V30 4650 C 457.399 2.17101 1.72517 0
M  V30 4651 H 460.35 1.47819 0.577527 0
M  V30 4652 H 460.371 1.97366 3.2531 0
M  V30 4653 H 459.883 3.3158 2.01684 0
M  V30 4654 H 457.984 1.33115 3.4801 0
M  V30 4655 H 458.097 3.21397 3.55304 0
M  V30 4656 H 456.461 1.63562 1.95242 0
M  V30 4657 H 457.244 3.17591 1.30348 0
M  V30 4658 N 459.689 -1.00246 1.21608 0
M  V30 4659 C 460.622 -2.08794 0.920892 0
M  V30 4660 C 461.6 -1.62059 -0.132552 0
M  V30 4661 O 462.784 -1.885 -0.0030366 0
M  V30 4662 C 459.911 -3.36525 0.383226 0
M  V30 4663 C 458.957 -4.02172 1.41987 0
M  V30 4664 S 459.79 -4.44256 2.98994 0
M  V30 4665 C 460.946 -5.7517 2.4684 0
M  V30 4666 H 461.179 -2.33511 1.8401 0
M  V30 4667 H 458.712 -1.13562 1.04609 0
M  V30 4668 H 460.67 -4.10423 0.0795871 0
M  V30 4669 H 459.331 -3.09854 -0.514711 0
M  V30 4670 H 458.524 -4.94114 0.993335 0
M  V30 4671 H 458.126 -3.34559 1.67171 0
M  V30 4672 H 460.418 -6.51042 1.87484 0
M  V30 4673 H 461.361 -6.22638 3.37235 0
M  V30 4674 H 461.769 -5.32112 1.88461 0
M  V30 4675 N 461.167 -1.02423 -1.1978 0
M  V30 4676 C 462.097 -0.62157 -2.25075 0
M  V30 4677 C 463.078 0.367148 -1.6609 0
M  V30 4678 O 464.263 0.250892 -1.92573 0
M  V30 4679 C 461.393 0.0331826 -3.47284 0
M  V30 4680 C 460.347 -0.877323 -4.18912 0
M  V30 4681 C 459.673 -0.0879296 -5.34628 0
M  V30 4682 C 460.973 -2.18892 -4.74219 0
M  V30 4683 H 462.667 -1.50179 -2.59011 0
M  V30 4684 H 460.213 -0.723547 -1.24502 0
M  V30 4685 H 462.166 0.326488 -4.20133 0
M  V30 4686 H 460.89 0.948164 -3.12534 0
M  V30 4687 H 459.549 -1.15475 -3.47938 0
M  V30 4688 H 459.197 0.828941 -4.96123 0
M  V30 4689 H 458.897 -0.694359 -5.83483 0
M  V30 4690 H 460.421 0.198743 -6.10276 0
M  V30 4691 H 461.835 -1.95746 -5.38847 0
M  V30 4692 H 460.232 -2.74686 -5.33542 0
M  V30 4693 H 461.302 -2.84674 -3.92541 0
M  V30 4694 N 462.645 1.35699 -0.801477 0
M  V30 4695 C 463.608 2.28199 -0.213994 0
M  V30 4696 C 464.608 1.49359 0.595691 0
M  V30 4697 O 465.798 1.69186 0.414921 0
M  V30 4698 C 462.93 3.33587 0.702297 0
M  V30 4699 H 464.123 2.81666 -1.02976 0
M  V30 4700 H 461.676 1.45467 -0.571759 0
M  V30 4701 H 462.411 2.85297 1.54195 0
M  V30 4702 H 462.196 3.91906 0.123484 0
M  V30 4703 H 463.686 4.02638 1.10783 0
M  V30 4704 N 464.123 0.554532 1.47522 0
M  V30 4705 C 465.073 -0.215008 2.26984 0
M  V30 4706 C 466.057 -0.88774 1.34194 0
M  V30 4707 O 467.249 -0.786489 1.58567 0
M  V30 4708 C 464.378 -1.24604 3.19889 0
M  V30 4709 C 463.464 -0.576857 4.20159 0
M  V30 4710 N 463.855 0.351541 5.04577 0
M  V30 4711 C 462.153 -0.831104 4.38188 0
M  V30 4712 C 462.854 0.739995 5.76974 0
M  V30 4713 N 461.83 0.0954407 5.43516 0
M  V30 4714 H 465.632 0.498843 2.89636 0
M  V30 4715 H 463.146 0.374279 1.58028 0
M  V30 4716 H 465.143 -1.81128 3.75498 0
M  V30 4717 H 463.803 -1.96101 2.58794 0
M  V30 4718 H 464.814 0.725556 5.12792 0
M  V30 4719 H 461.491 -1.53479 3.88266 0
M  V30 4720 H 462.881 1.50271 6.5488 0
M  V30 4721 N 465.601 -1.54893 0.290851 0
M  V30 4722 C 467.017 -1.59476 -0.0628432 0
M  V30 4723 C 467.217 -1.30795 -1.5328 0
M  V30 4724 O 466.273 -1.07644 -2.28406 0
M  V30 4725 C 467.586 -2.98928 0.325962 0
M  V30 4726 C 469.134 -3.11799 0.273882 0
M  V30 4727 C 469.609 -4.53544 0.637359 0
M  V30 4728 N 471.1 -4.59433 0.589507 0
M  V30 4729 C 471.835 -5.67164 0.84335 0
M  V30 4730 N 471.331 -6.82975 1.16263 0
M  V30 4731 N 473.124 -5.56786 0.771091 0
M  V30 4732 H 465.275 -1.71798 1.24896 0
M  V30 4733 H 467.538 -0.801879 0.505663 0
M  V30 4734 H 467.244 -3.24805 1.34887 0
M  V30 4735 H 467.118 -3.75793 -0.325441 0
M  V30 4736 H 469.505 -2.85677 -0.739765 0
M  V30 4737 H 469.586 -2.37112 0.959766 0
M  V30 4738 H 469.23 -4.80394 1.64877 0
M  V30 4739 H 469.16 -5.26553 -0.0704866 0
M  V30 4740 H 471.651 -3.76245 0.353252 0
M  V30 4741 H 471.964 -7.61048 1.34257 0
M  V30 4742 H 470.309 -6.84552 1.20057 0
M  V30 4743 H 473.5 -4.65187 0.521383 0
M  V30 4744 H 473.673 -6.40664 0.972295 0
M  V30 4745 N 467.08 -0.0183926 -1.57589 0
M  V30 4746 C 468.043 0.951986 -2.08494 0
M  V30 4747 C 469.043 1.26092 -0.997874 0
M  V30 4748 O 470.233 1.20304 -1.25987 0
M  V30 4749 C 467.365 2.27165 -2.54182 0
M  V30 4750 H 468.558 0.511307 -2.95509 0
M  V30 4751 H 466.111 0.229444 -1.54607 0
M  V30 4752 H 466.846 2.75884 -1.70465 0
M  V30 4753 H 466.631 2.06057 -3.33591 0
M  V30 4754 H 468.121 2.9674 -2.93828 0
M  V30 4755 N 468.558 1.5553 0.254621 0
M  V30 4756 C 469.491 1.84624 1.34124 0
M  V30 4757 C 470.469 0.700693 1.46728 0
M  V30 4758 O 471.653 0.94564 1.63064 0
M  V30 4759 C 468.78 2.02412 2.71564 0
M  V30 4760 C 467.826 3.25028 2.7615 0
M  V30 4761 S 468.659 4.81893 2.33538 0
M  V30 4762 C 469.815 5.02677 3.72917 0
M  V30 4763 H 470.048 2.76501 1.09245 0
M  V30 4764 H 467.581 1.47537 0.455211 0
M  V30 4765 H 469.539 2.13345 3.50705 0
M  V30 4766 H 468.2 1.11391 2.93685 0
M  V30 4767 H 467.393 3.34418 3.77069 0
M  V30 4768 H 466.995 3.12781 2.05046 0
M  V30 4769 H 469.287 4.89546 4.68349 0
M  V30 4770 H 470.23 6.0468 3.68467 0
M  V30 4771 H 470.638 4.30561 3.65072 0
M  V30 4772 N 470.036 -0.519951 1.48776 0
M  V30 4773 C 470.999 -1.60574 1.6355 0
M  V30 4774 C 471.999 -1.52557 0.508234 0
M  V30 4775 O 473.189 -1.56047 0.774262 0
M  V30 4776 C 470.321 -3.00211 1.61512 0
M  V30 4777 H 471.514 -1.4881 2.60376 0
M  V30 4778 H 469.067 -0.742772 1.37523 0
M  V30 4779 H 469.802 -3.17471 0.662009 0
M  V30 4780 H 469.587 -3.07439 2.43359 0
M  V30 4781 H 471.077 -3.79134 1.75064 0
M  V30 4782 N 471.514 -1.37532 -0.769588 0
M  V30 4783 C 472.446 -1.29347 -1.89214 0
M  V30 4784 C 473.459 -0.208842 -1.61455 0
M  V30 4785 O 474.648 -0.465158 -1.72333 0
M  V30 4786 C 471.748 -0.977649 -3.24492 0
M  V30 4787 C 470.921 -2.16817 -3.7988 0
M  V30 4788 C 469.98 -1.82229 -4.93639 0
M  V30 4789 O 469.006 -2.54548 -5.09111 0
M  V30 4790 N 470.208 -0.767696 -5.75401 0
M  V30 4791 H 472.973 -2.26073 -1.96751 0
M  V30 4792 H 470.534 -1.31185 -0.948795 0
M  V30 4793 H 472.526 -0.727065 -3.98115 0
M  V30 4794 H 471.096 -0.0988777 -3.12444 0
M  V30 4795 H 470.316 -2.58038 -2.9801 0
M  V30 4796 H 471.604 -2.96308 -4.13617 0
M  V30 4797 H 471.002 -0.167626 -5.65452 0
M  V30 4798 H 469.559 -0.576973 -6.49241 0
M  V30 4799 N 472.992 0.995999 -1.22138 0
M  V30 4800 C 474.24 1.73167 -1.042 0
M  V30 4801 C 474.561 1.90329 0.42423 0
M  V30 4802 O 473.831 1.4607 1.30539 0
M  V30 4803 H 472.411 0.641593 -0.38258 0
M  V30 4804 H 475.073 1.19974 -1.53598 0
M  V30 4805 H 474.169 2.72734 -1.51731 0
M  V30 4806 N 474.47 1.03057 1.19235 0
M  V30 4807 C 475.38 0.622922 2.26179 0
M  V30 4808 C 476.396 -0.346113 1.70523 0
M  V30 4809 O 477.572 -0.203572 2.00369 0
M  V30 4810 C 474.637 -0.0182063 3.46695 0
M  V30 4811 C 473.698 0.998546 4.17526 0
M  V30 4812 C 472.931 0.387917 5.32288 0
M  V30 4813 O 473.154 -0.808668 5.64639 0
M  V30 4814 O 472.088 1.1116 5.91546 0
M  V30 4815 H 475.914 1.51363 2.63292 0
M  V30 4816 H 473.499 0.800856 1.26122 0
M  V30 4817 H 475.381 -0.375606 4.19723 0
M  V30 4818 H 474.056 -0.882895 3.11427 0
M  V30 4819 H 472.963 1.40756 3.4661 0
M  V30 4820 H 474.296 1.83366 4.56769 0
M  V30 4821 N 475.948 -1.35272 0.808662 0
M  V30 4822 C 476.881 -2.27595 0.165994 0
M  V30 4823 C 477.859 -1.48189 -0.669241 0
M  V30 4824 O 479.043 -1.77444 -0.636073 0
M  V30 4825 C 476.17 -3.29843 -0.769505 0
M  V30 4826 C 475.216 -4.26498 -0.0136267 0
M  V30 4827 S 476.049 -5.18878 1.32384 0
M  V30 4828 C 477.205 -6.24666 0.392838 0
M  V30 4829 H 477.438 -2.81755 0.948756 0
M  V30 4830 H 474.971 -1.42103 0.603828 0
M  V30 4831 H 476.929 -3.89247 -1.30374 0
M  V30 4832 H 475.59 -2.74558 -1.52567 0
M  V30 4833 H 474.783 -4.98769 -0.724227 0
M  V30 4834 H 474.385 -3.71274 0.450713 0
M  V30 4835 H 476.677 -6.7619 -0.4211 0
M  V30 4836 H 477.62 -6.99741 1.0848 0
M  V30 4837 H 478.028 -5.64499 -0.0123908 0
M  V30 4838 N 477.426 -0.562348 -1.47226 0
M  V30 4839 C 478.672 -0.0402761 -2.0276 0
M  V30 4840 C 479.005 1.30823 -1.43523 0
M  V30 4841 O 478.28 1.85249 -0.592705 0
M  V30 4842 C 478.563 0.047311 -3.60069 0
M  V30 4843 C 478.416 -1.32865 -4.29729 0
M  V30 4844 C 479.735 0.758182 -4.3352 0
M  V30 4845 H 476.854 -0.0161105 -0.736824 0
M  V30 4846 H 479.496 -0.725628 -1.75598 0
M  V30 4847 H 477.646 0.630986 -3.83342 0
M  V30 4848 H 479.318 -1.95593 -4.17781 0
M  V30 4849 H 477.561 -1.90195 -3.89882 0
M  V30 4850 H 478.232 -1.22004 -5.38349 0
M  V30 4851 H 480.708 0.262546 -4.15271 0
M  V30 4852 H 479.584 0.78844 -5.43208 0
M  V30 4853 H 479.845 1.81537 -4.03109 0
M  V30 4854 N 478.904 1.54736 -0.299062 0
M  V30 4855 C 479.867 2.22127 0.565012 0
M  V30 4856 C 480.867 1.20669 1.06281 0
M  V30 4857 O 482.057 1.45417 0.959145 0
M  V30 4858 C 479.189 2.90611 1.78208 0
M  V30 4859 H 480.382 2.99891 -0.0237448 0
M  V30 4860 H 477.935 1.5622 -0.0498788 0
M  V30 4861 H 478.67 2.16921 2.41072 0
M  V30 4862 H 478.455 3.64984 1.43281 0
M  V30 4863 H 479.945 3.42026 2.396 0
M  V30 4864 N 480.382 0.0267497 1.57577 0
M  V30 4865 C 481.292 -0.971633 2.13533 0
M  V30 4866 C 482.308 -1.35868 1.08701 0
M  V30 4867 O 483.484 -1.44058 1.40746 0
M  V30 4868 C 480.549 -2.23622 2.64941 0
M  V30 4869 C 479.61 -1.90982 3.8448 0
M  V30 4870 C 478.843 -3.11411 4.33427 0
M  V30 4871 O 479.066 -4.23992 3.81558 0
M  V30 4872 O 478 -2.93848 5.25297 0
M  V30 4873 H 481.826 -0.525853 2.99113 0
M  V30 4874 H 479.411 -0.193712 1.48139 0
M  V30 4875 H 481.293 -2.97864 2.98086 0
M  V30 4876 H 479.968 -2.67386 1.82446 0
M  V30 4877 H 478.875 -1.14132 3.56265 0
M  V30 4878 H 480.208 -1.52036 4.6813 0
M  V30 4879 N 481.861 -1.55662 -0.24637 0
M  V30 4880 C 483.11 -1.7672 -0.972254 0
M  V30 4881 C 483.423 -0.59078 -1.86465 0
M  V30 4882 O 484.629 -0.684391 -2.62732 0
M  V30 4883 C 483.085 -3.12869 -1.7788 0
M  V30 4884 C 482.693 -4.38161 -0.933768 0
M  V30 4885 C 484.437 -3.43265 -2.49738 0
M  V30 4886 C 482.344 -5.6534 -1.73623 0
M  V30 4887 H 481.274 -0.658795 -0.366749 0
M  V30 4888 H 483.925 -1.82092 -0.226902 0
M  V30 4889 H 482.307 -3.01606 -2.56612 0
M  V30 4890 H 483.481 -4.60413 -0.188736 0
M  V30 4891 H 481.796 -4.15102 -0.328488 0
M  V30 4892 H 484.393 -4.35501 -3.10231 0
M  V30 4893 H 484.736 -2.64614 -3.2138 0
M  V30 4894 H 485.269 -3.55746 -1.78016 0
M  V30 4895 H 482.008 -6.46814 -1.06354 0
M  V30 4896 H 481.528 -5.47188 -2.45653 0
M  V30 4897 H 483.207 -6.04616 -2.30323 0
M  V30 4898 N 483.339 0.512053 -1.4905 0
M  V30 4899 C 484.588 1.26343 -1.57227 0
M  V30 4900 C 484.901 1.93876 -0.259155 0
M  V30 4901 O 486.107 2.70612 -0.219358 0
M  V30 4902 C 484.563 2.29343 -2.77362 0
M  V30 4903 C 484.171 1.67799 -4.15388 0
M  V30 4904 C 485.915 3.05378 -2.94864 0
M  V30 4905 C 483.822 2.68845 -5.2676 0
M  V30 4906 H 482.752 0.475231 -0.585382 0
M  V30 4907 H 485.403 0.53862 -1.75417 0
M  V30 4908 H 483.785 3.04938 -2.52643 0
M  V30 4909 H 484.959 0.982715 -4.50199 0
M  V30 4910 H 483.274 1.04194 -4.03153 0
M  V30 4911 H 485.871 3.80921 -3.75238 0
M  V30 4912 H 486.214 3.62327 -2.05 0
M  V30 4913 H 486.747 2.36898 -3.19569 0
M  V30 4914 H 483.486 2.16692 -6.18647 0
M  V30 4915 H 483.006 3.36647 -4.96416 0
M  V30 4916 H 484.685 3.31487 -5.5563 0
M  V30 4917 N 484.817 1.37938 0.762283 0
M  V30 4918 C 485.78 1.34279 1.85747 0
M  V30 4919 C 486.78 0.244969 1.58923 0
M  V30 4920 O 487.97 0.501365 1.66829 0
M  V30 4921 C 485.102 1.08833 3.23061 0
M  V30 4922 H 486.295 2.31705 1.90401 0
M  V30 4923 H 483.848 1.23105 0.963057 0
M  V30 4924 H 484.583 0.119767 3.24079 0
M  V30 4925 H 484.368 1.88306 3.43923 0
M  V30 4926 H 485.858 1.08946 4.03138 0
M  V30 4927 N 486.295 -0.989507 1.22664 0
M  V30 4928 C 487.543 -1.72612 1.05117 0
M  V30 4929 C 487.864 -1.90552 -0.414131 0
M  V30 4930 O 487.134 -1.4676 -1.29762 0
M  V30 4931 H 485.714 -0.639555 0.385977 0
M  V30 4932 H 488.376 -1.19158 1.54232 0
M  V30 4933 H 487.472 -2.71926 1.53175 0
M  V30 4934 N 487.773 -1.03688 -1.18687 0
M  V30 4935 C 488.72 -0.624624 -2.22187 0
M  V30 4936 C 489.69 0.365636 -1.62026 0
M  V30 4937 O 490.875 0.260481 -1.89014 0
M  V30 4938 C 488.015 0.0101738 -3.45099 0
M  V30 4939 C 487.128 -1.02709 -4.19613 0
M  V30 4940 C 486.263 -0.361213 -5.2997 0
M  V30 4941 C 485.302 -1.38384 -5.96252 0
M  V30 4942 N 484.439 -0.743196 -6.98155 0
M  V30 4943 H 489.279 -1.51176 -2.56807 0
M  V30 4944 H 486.816 -0.75636 -1.26165 0
M  V30 4945 H 488.774 0.395528 -4.15321 0
M  V30 4946 H 487.404 0.860848 -3.1111 0
M  V30 4947 H 486.456 -1.53043 -3.48256 0
M  V30 4948 H 487.768 -1.80398 -4.65036 0
M  V30 4949 H 486.922 0.0785537 -6.06649 0
M  V30 4950 H 485.661 0.447799 -4.8564 0
M  V30 4951 H 484.666 -1.83378 -5.18317 0
M  V30 4952 H 485.891 -2.19448 -6.42666 0
M  V30 4953 H 483.837 0.0455789 -6.55984 0
M  V30 4954 H 483.754 -1.45784 -7.41811 0
M  V30 4955 H 485.022 -0.327698 -7.78811 0
M  V30 4956 N 489.251 1.34841 -0.815825 0
M  V30 4957 C 490.214 2.27959 -0.238185 0
M  V30 4958 C 491.214 1.49983 0.579816 0
M  V30 4959 O 492.404 1.69617 0.396953 0
M  V30 4960 C 489.536 3.34314 0.666876 0
M  V30 4961 H 490.729 2.80558 -1.05958 0
M  V30 4962 H 488.282 1.44852 -0.587156 0
M  V30 4963 H 489.017 2.86916 1.5116 0
M  V30 4964 H 488.802 3.92014 0.0819106 0
M  V30 4965 H 490.292 4.0379 1.06506 0
M  V30 4966 N 490.729 0.570148 1.46925 0
M  V30 4967 C 492.145 0.23087 1.57921 0
M  V30 4968 C 492.345 -1.26676 1.56702 0
M  V30 4969 O 491.401 -2.04774 1.47729 0
M  V30 4970 C 492.714 0.868973 2.8787 0
M  V30 4971 C 494.262 0.841397 3.01479 0
M  V30 4972 C 494.737 1.45881 4.34146 0
M  V30 4973 N 496.228 1.42258 4.40814 0
M  V30 4974 C 496.963 1.8698 5.42057 0
M  V30 4975 N 496.459 2.39618 6.50042 0
M  V30 4976 N 498.252 1.77972 5.33181 0
M  V30 4977 H 490.403 1.54301 1.45962 0
M  V30 4978 H 492.666 0.644224 0.69547 0
M  V30 4979 H 492.372 1.922 2.94537 0
M  V30 4980 H 492.246 0.369682 3.75384 0
M  V30 4981 H 494.633 -0.202973 2.94401 0
M  V30 4982 H 494.714 1.37858 2.15474 0
M  V30 4983 H 494.358 2.50231 4.4198 0
M  V30 4984 H 494.288 0.896958 5.18905 0
M  V30 4985 H 496.779 1.03768 3.63374 0
M  V30 4986 H 497.092 2.71633 7.23488 0
M  V30 4987 H 495.437 2.43636 6.50897 0
M  V30 4988 H 498.628 1.36617 4.4772 0
M  V30 4989 H 498.801 2.13143 6.11943 0
M  V30 4990 N 492.207 -1.54576 0.307264 0
M  V30 4991 C 493.623 -1.59534 -0.0459251 0
M  V30 4992 C 493.823 -1.32414 -1.51884 0
M  V30 4993 O 492.879 -1.1006 -2.27251 0
M  V30 4994 C 494.192 -2.98566 0.357649 0
M  V30 4995 C 495.74 -3.11491 0.306937 0
M  V30 4996 C 496.215 -4.52842 0.685427 0
M  V30 4997 N 497.706 -4.58782 0.638203 0
M  V30 4998 C 498.441 -5.66238 0.903458 0
M  V30 4999 N 497.937 -6.81703 1.23501 0
M  V30 5000 N 499.73 -5.55937 0.830102 0
M  V30 5001 H 491.881 -1.70464 1.26712 0
M  V30 5002 H 494.144 -0.79647 0.514139 0
M  V30 5003 H 493.85 -3.23356 1.38325 0
M  V30 5004 H 493.724 -3.76117 -0.285565 0
M  V30 5005 H 496.111 -2.86446 -0.709424 0
M  V30 5006 H 496.192 -2.36081 0.984861 0
M  V30 5007 H 495.836 -4.78618 1.69963 0
M  V30 5008 H 495.766 -5.26598 -0.0146346 0
M  V30 5009 H 498.257 -3.75849 0.393138 0
M  V30 5010 H 498.57 -7.59582 1.42322 0
M  V30 5011 H 496.915 -6.8324 1.27311 0
M  V30 5012 H 500.106 -4.64608 0.570693 0
M  V30 5013 H 500.279 -6.39597 1.04019 0
M  V30 5014 N 493.685 -0.035106 -1.57561 0
M  V30 5015 C 494.932 0.642229 -1.92046 0
M  V30 5016 C 495.26 1.7179 -0.91206 0
M  V30 5017 O 494.515 1.95544 0.0781153 0
M  V30 5018 C 494.814 1.29149 -3.3325 0
M  V30 5019 C 494.48 0.345604 -4.49574 0
M  V30 5020 C 493.142 0.0852775 -4.81124 0
M  V30 5021 C 495.494 -0.303569 -5.20315 0
M  V30 5022 C 492.822 -0.831927 -5.80772 0
M  V30 5023 C 495.174 -1.20886 -6.20942 0
M  V30 5024 C 493.838 -1.47802 -6.50931 0
M  V30 5025 H 493.108 0.235008 -0.702746 0
M  V30 5026 H 495.755 -0.0981529 -1.91248 0
M  V30 5027 H 494.06 2.10676 -3.30337 0
M  V30 5028 H 495.757 1.82223 -3.57205 0
M  V30 5029 H 492.347 0.558683 -4.24943 0
M  V30 5030 H 496.531 -0.115515 -4.96166 0
M  V30 5031 H 491.787 -1.0481 -6.02349 0
M  V30 5032 H 495.961 -1.71804 -6.74875 0
M  V30 5033 H 493.588 -2.19039 -7.2796 0
M  V30 5034 N 495.163 1.55791 0.238111 0
M  V30 5035 C 496.073 1.94196 1.31625 0
M  V30 5036 C 497.089 0.843545 1.52185 0
M  V30 5037 O 498.265 1.1457 1.65637 0
M  V30 5038 C 495.33 2.2365 2.64918 0
M  V30 5039 C 494.391 3.46971 2.52804 0
M  V30 5040 C 493.624 3.7501 3.79741 0
M  V30 5041 O 493.847 3.04982 4.82019 0
M  V30 5042 O 492.781 4.68525 3.77846 0
M  V30 5043 H 496.607 2.86044 1.02043 0
M  V30 5044 H 494.192 1.42786 0.439603 0
M  V30 5045 H 496.074 2.43863 3.4367 0
M  V30 5046 H 494.749 1.34979 2.94215 0
M  V30 5047 H 493.656 3.32055 1.72309 0
M  V30 5048 H 494.989 4.35971 2.28451 0
M  V30 5049 N 496.642 -0.504142 1.49319 0
M  V30 5050 C 498.053 -1.08572 1.51885 0
M  V30 5051 C 498.404 -1.93842 0.303255 0
M  V30 5052 O 497.529 -2.0828 -0.58724 0
M  V30 5053 C 498.124 -1.97574 2.75227 0
M  V30 5054 C 496.683 -2.509 2.80581 0
M  V30 5055 C 495.83 -1.28447 2.45757 0
M  V30 5056 H 498.781 -0.288194 1.56061 0
M  V30 5057 H 498.802 -2.82219 2.55211 0
M  V30 5058 H 498.314 -1.35486 3.63683 0
M  V30 5059 H 496.415 -3.16636 1.96398 0
M  V30 5060 H 496.528 -2.88268 3.82673 0
M  V30 5061 H 494.892 -1.60868 1.97468 0
M  V30 5062 H 495.675 -0.68072 3.36483 0
M  V30 5063 N 498.12 -1.38341 -0.754957 0
M  V30 5064 C 499.083 -1.35262 -1.85032 0
M  V30 5065 C 500.083 -0.253393 -1.58791 0
M  V30 5066 O 501.273 -0.510205 -1.66561 0
M  V30 5067 C 498.405 -1.10544 -3.22479 0
M  V30 5068 H 499.598 -2.32712 -1.8917 0
M  V30 5069 H 497.151 -1.23614 -0.956515 0
M  V30 5070 H 497.886 -0.136952 -3.24011 0
M  V30 5071 H 497.671 -1.90127 -3.4292 0
M  V30 5072 H 499.161 -1.11082 -4.02555 0
M  V30 5073 N 499.598 0.982988 -1.23187 0
M  V30 5074 C 500.561 2.05649 -1.01198 0
M  V30 5075 C 501.561 1.6078 0.0252464 0
M  V30 5076 O 502.751 1.72878 -0.214243 0
M  V30 5077 C 499.883 3.36744 -0.530656 0
M  V30 5078 H 501.076 2.2659 -1.96461 0
M  V30 5079 H 498.629 1.15602 -1.05195 0
M  V30 5080 H 499.364 3.21492 0.425873 0
M  V30 5081 H 499.149 3.7065 -1.2791 0
M  V30 5082 H 500.639 4.15705 -0.397366 0
M  V30 5083 N 501.076 1.04316 1.18135 0
M  V30 5084 C 502.325 0.74319 1.87509 0
M  V30 5085 C 502.638 -0.732136 1.81381 0
M  V30 5086 O 503.844 -1.14572 2.46141 0
M  V30 5087 C 502.3 1.27913 3.36402 0
M  V30 5088 C 501.908 2.78326 3.51053 0
M  V30 5089 C 503.652 1.0558 4.11161 0
M  V30 5090 C 501.559 3.25266 4.93919 0
M  V30 5091 H 500.489 0.274313 0.702331 0
M  V30 5092 H 503.14 1.25931 1.33467 0
M  V30 5093 H 501.522 0.690853 3.89927 0
M  V30 5094 H 502.696 3.42933 3.07788 0
M  V30 5095 H 501.011 2.991 2.89704 0
M  V30 5096 H 503.608 1.38161 5.16542 0
M  V30 5097 H 503.951 -0.00684729 4.16299 0
M  V30 5098 H 504.484 1.60882 3.63816 0
M  V30 5099 H 501.223 4.30922 4.9395 0
M  V30 5100 H 500.743 2.65396 5.3789 0
M  V30 5101 H 502.422 3.19433 5.62647 0
M  V30 5102 N 502.554 -1.34406 0.822964 0
M  V30 5103 C 503.517 -2.2783 0.250271 0
M  V30 5104 C 504.517 -1.50288 -0.571854 0
M  V30 5105 O 505.707 -1.69825 -0.387952 0
M  V30 5106 C 502.839 -3.34663 -0.649137 0
M  V30 5107 H 504.032 -2.79992 1.07444 0
M  V30 5108 H 501.585 -1.44539 0.594829 0
M  V30 5109 H 502.32 -2.87714 -1.49637 0
M  V30 5110 H 502.105 -3.92052 -0.0611199 0
M  V30 5111 H 503.595 -4.04349 -1.04363 0
M  V30 5112 N 504.032 -0.577932 -1.46621 0
M  V30 5113 C 504.995 0.147805 -2.28723 0
M  V30 5114 C 505.995 0.823325 -1.38123 0
M  V30 5115 O 507.185 0.676011 -1.60548 0
M  V30 5116 C 504.317 1.21853 -3.18378 0
M  V30 5117 H 505.51 -0.573654 -2.94362 0
M  V30 5118 H 503.063 -0.335703 -1.52652 0
M  V30 5119 H 503.798 1.97173 -2.57475 0
M  V30 5120 H 503.583 0.738714 -3.85078 0
M  V30 5121 H 505.073 1.72768 -3.80186 0
M  V30 5122 N 505.51 1.54411 -0.315457 0
M  V30 5123 C 506.756 2.00716 0.289972 0
M  V30 5124 C 507.089 1.2034 1.5242 0
M  V30 5125 O 506.364 0.283579 1.92422 0
M  V30 5126 C 506.647 3.54507 0.632196 0
M  V30 5127 C 506.5 4.45615 -0.61218 0
M  V30 5128 C 507.819 4.15421 1.45305 0
M  V30 5129 H 504.938 0.729637 0.10392 0
M  V30 5130 H 507.58 1.8506 -0.430427 0
M  V30 5131 H 505.73 3.67979 1.24595 0
M  V30 5132 H 507.402 4.44026 -1.25053 0
M  V30 5133 H 505.645 4.15621 -1.24264 0
M  V30 5134 H 506.316 5.51022 -0.328379 0
M  V30 5135 H 508.792 4.05474 0.934331 0
M  V30 5136 H 507.668 5.23157 1.66127 0
M  V30 5137 H 507.929 3.68223 2.44671 0
M  V30 5138 N 506.988 0.0434614 1.5754 0
M  V30 5139 C 508.228 -0.636023 1.94253 0
M  V30 5140 C 508.592 -1.68461 0.921132 0
M  V30 5141 O 509.793 -2.41762 1.17494 0
M  V30 5142 C 508.064 -1.22357 3.35803 0
M  V30 5143 S 509.623 -1.92213 3.94461 0
M  V30 5144 H 506.441 -0.209041 0.679575 0
M  V30 5145 H 509.043 0.110556 1.95187 0
M  V30 5146 H 507.747 -0.448162 4.07946 0
M  V30 5147 H 507.278 -2.00713 3.38346 0
M  V30 5148 H 509.293 -3.20199 3.79061 0
M  V30 5149 N 508.466 -1.55915 -0.229846 0
M  V30 5150 C 509.713 -1.78542 -0.955452 0
M  V30 5151 C 510.041 -0.610785 -1.84661 0
M  V30 5152 O 509.296 0.405213 -1.91459 0
M  V30 5153 C 509.595 -3.06845 -1.8325 0
M  V30 5154 C 509.261 -4.37395 -1.09528 0
M  V30 5155 C 507.923 -4.72868 -0.891598 0
M  V30 5156 C 510.275 -5.18029 -0.574046 0
M  V30 5157 C 507.603 -5.86496 -0.154655 0
M  V30 5158 C 509.955 -6.32423 0.149513 0
M  V30 5159 C 508.619 -6.66504 0.364519 0
M  V30 5160 H 507.889 -0.653333 -0.349625 0
M  V30 5161 H 510.536 -1.90183 -0.224235 0
M  V30 5162 H 508.841 -2.90291 -2.63132 0
M  V30 5163 H 510.538 -3.21553 -2.39592 0
M  V30 5164 H 507.128 -4.09538 -1.26399 0
M  V30 5165 H 511.312 -4.91066 -0.718899 0
M  V30 5166 H 506.568 -6.11396 0.0222356 0
M  V30 5167 H 510.742 -6.94137 0.560947 0
M  V30 5168 H 508.369 -7.54397 0.937495 0
M  V30 5169 N 509.944 0.496216 -1.49584 0
M  V30 5170 C 511.172 1.27394 -1.63029 0
M  V30 5171 C 511.587 1.86344 -0.303569 0
M  V30 5172 O 510.944 1.68057 0.711547 0
M  V30 5173 C 510.995 2.40077 -2.70269 0
M  V30 5174 O 510.716 1.83549 -3.97796 0
M  V30 5175 C 512.217 3.31372 -2.94462 0
M  V30 5176 H 509.437 0.386211 -0.54871 0
M  V30 5177 H 511.981 0.595163 -1.95648 0
M  V30 5178 H 510.136 3.03775 -2.40415 0
M  V30 5179 H 510.55 2.57561 -4.56905 0
M  V30 5180 H 512.024 4.06707 -3.73221 0
M  V30 5181 H 512.501 3.88654 -2.0456 0
M  V30 5182 H 513.107 2.73435 -3.25751 0
M  V30 5183 N 511.423 1.38739 0.74761 0
M  V30 5184 C 512.7 1.25791 1.49786 0
M  V30 5185 C 513.08 -0.138075 2.10648 0
M  V30 5186 O 512.428 -1.14815 1.9756 0
M  V30 5187 C 512.638 2.37265 2.55942 0
M  V30 5188 C 513.986 2.75978 3.22679 0
M  V30 5189 O 515.01 2.36621 2.6625 0
M  V30 5190 O 513.869 3.43867 4.24756 0
M  V30 5191 H 510.963 0.492251 0.664543 0
M  V30 5192 H 513.509 1.50582 0.782511 0
M  V30 5193 H 512.281 3.30644 2.0926 0
M  V30 5194 H 511.904 2.14071 3.35051 0
M  V30 5195 N 512.901 -0.976442 1.23707 0
M  V30 5196 C 514.312 -1.53284 1.06587 0
M  V30 5197 C 514.663 -1.92765 -0.365526 0
M  V30 5198 O 513.788 -1.7645 -1.25277 0
M  V30 5199 C 514.383 -2.78548 1.92864 0
M  V30 5200 C 512.942 -3.30574 1.79994 0
M  V30 5201 C 512.089 -2.03538 1.88328 0
M  V30 5202 H 515.04 -0.795692 1.37311 0
M  V30 5203 H 515.061 -3.5155 1.45577 0
M  V30 5204 H 514.573 -2.49782 2.97037 0
M  V30 5205 H 512.674 -3.64211 0.786202 0
M  V30 5206 H 512.787 -4.00065 2.636 0
M  V30 5207 H 511.151 -2.17853 1.31954 0
M  V30 5208 H 511.934 -1.77149 2.94063 0
M  V30 5209 N 514.379 -1.04941 -1.1758 0
M  V30 5210 C 515.289 -0.658826 -2.25159 0
M  V30 5211 C 516.305 0.318941 -1.71052 0
M  V30 5212 O 517.481 0.171669 -2.00667 0
M  V30 5213 C 514.546 -0.0369522 -3.4668 0
M  V30 5214 C 513.607 -1.06484 -4.15884 0
M  V30 5215 C 512.84 -0.472551 -5.31604 0
M  V30 5216 O 513.063 0.718736 -5.65854 0
M  V30 5217 O 511.997 -1.20557 -5.89703 0
M  V30 5218 H 515.823 -1.55533 -2.60851 0
M  V30 5219 H 513.408 -0.820819 -1.24832 0
M  V30 5220 H 515.29 0.308784 -4.20267 0
M  V30 5221 H 513.965 0.833238 -3.12792 0
M  V30 5222 H 512.872 -1.46253 -3.44327 0
M  V30 5223 H 514.205 -1.9061 -4.53794 0
M  V30 5224 N 515.857 1.33968 -0.830081 0
M  V30 5225 C 517.103 1.98357 -0.422191 0
M  V30 5226 C 517.436 1.65633 1.01387 0
M  V30 5227 O 516.711 0.931648 1.70735 0
M  V30 5228 C 516.994 3.54492 -0.633043 0
M  V30 5229 C 516.847 3.96934 -2.11574 0
M  V30 5230 C 518.166 4.40039 -0.0735584 0
M  V30 5231 H 515.285 0.720544 -0.154871 0
M  V30 5232 H 517.927 1.58749 -1.04397 0
M  V30 5233 H 516.077 3.88361 -0.103775 0
M  V30 5234 H 517.749 3.73363 -2.7092 0
M  V30 5235 H 515.992 3.46984 -2.60354 0
M  V30 5236 H 516.663 5.05651 -2.21406 0
M  V30 5237 H 519.139 4.12764 -0.52585 0
M  V30 5238 H 518.015 5.48327 -0.250841 0
M  V30 5239 H 518.276 4.30124 1.02202 0
M  V30 5240 N 517.335 0.585699 1.46312 0
M  V30 5241 C 518.581 0.0725284 2.0267 0
M  V30 5242 C 518.914 -1.28523 1.45586 0
M  V30 5243 O 518.189 -1.84283 0.622101 0
M  V30 5244 C 518.472 0.0099788 3.60099 0
M  V30 5245 C 518.325 1.39685 4.27561 0
M  V30 5246 C 519.644 -0.689117 4.34671 0
M  V30 5247 H 516.763 0.0278307 0.736474 0
M  V30 5248 H 519.405 0.753472 1.74421 0
M  V30 5249 H 517.555 -0.56992 3.84297 0
M  V30 5250 H 519.227 2.02215 4.14617 0
M  V30 5251 H 517.47 1.96374 3.86807 0
M  V30 5252 H 518.141 1.30553 5.36339 0
M  V30 5253 H 520.617 -0.196446 4.15636 0
M  V30 5254 H 519.493 -0.701921 5.44393 0
M  V30 5255 H 519.754 -1.75101 4.05946 0
M  V30 5256 N 518.813 -1.54241 0.323641 0
M  V30 5257 C 520.059 -2.00867 -0.279323 0
M  V30 5258 C 520.392 -1.21146 -1.5178 0
M  V30 5259 O 519.667 -0.29378 -1.92269 0
M  V30 5260 C 519.95 -3.54837 -0.613387 0
M  V30 5261 C 519.803 -4.45284 0.635803 0
M  V30 5262 C 521.122 -4.16186 -1.43099 0
M  V30 5263 H 518.241 -0.730177 -0.100049 0
M  V30 5264 H 520.883 -1.84829 0.440235 0
M  V30 5265 H 519.033 -3.68634 -1.22641 0
M  V30 5266 H 520.705 -4.43357 1.27406 0
M  V30 5267 H 518.948 -4.14956 1.26466 0
M  V30 5268 H 519.619 -5.5084 0.357597 0
M  V30 5269 H 522.095 -4.05964 -0.912814 0
M  V30 5270 H 520.971 -5.24031 -1.6335 0
M  V30 5271 H 521.232 -3.69516 -2.42715 0
M  V30 5272 N 520.291 -0.0518155 -1.57515 0
M  V30 5273 C 521.537 0.622745 -1.93002 0
M  V30 5274 C 521.87 1.70456 -0.930499 0
M  V30 5275 O 521.145 1.94452 0.0434086 0
M  V30 5276 C 521.428 1.21824 -3.38867 0
M  V30 5277 C 521.281 0.144434 -4.49568 0
M  V30 5278 C 522.6 2.12968 -3.8514 0
M  V30 5279 H 519.719 0.22491 -0.701844 0
M  V30 5280 H 522.361 -0.113711 -1.89659 0
M  V30 5281 H 520.511 1.8459 -3.41846 0
M  V30 5282 H 522.183 -0.48753 -4.58717 0
M  V30 5283 H 520.426 -0.527424 -4.30582 0
M  V30 5284 H 521.097 0.601127 -5.48717 0
M  V30 5285 H 523.573 1.60163 -3.8404 0
M  V30 5286 H 522.449 2.51578 -4.87852 0
M  V30 5287 H 522.71 3.03004 -3.21934 0
M  V30 5288 N 521.769 1.56035 0.221574 0
M  V30 5289 C 523.017 1.78693 0.944102 0
M  V30 5290 C 523.338 0.620317 1.8487 0
M  V30 5291 O 522.608 -0.362784 1.92512 0
M  V30 5292 H 521.188 0.659082 0.351597 0
M  V30 5293 H 523.85 1.93497 0.233435 0
M  V30 5294 H 522.946 2.70837 1.55093 0
M  V30 5295 N 523.247 -0.488276 1.49845 0
M  V30 5296 C 524.194 -1.58836 1.67451 0
M  V30 5297 C 525.164 -1.57886 0.515857 0
M  V30 5298 O 526.349 -1.75679 0.744403 0
M  V30 5299 C 523.489 -2.96915 1.75885 0
M  V30 5300 C 522.602 -3.07784 3.03138 0
M  V30 5301 C 521.737 -4.36673 3.02473 0
M  V30 5302 C 520.776 -4.41222 4.24252 0
M  V30 5303 N 519.913 -5.61557 4.21424 0
M  V30 5304 H 524.753 -1.43131 2.61376 0
M  V30 5305 H 522.29 -0.696186 1.29583 0
M  V30 5306 H 524.248 -3.76965 1.78755 0
M  V30 5307 H 522.878 -3.11295 0.85414 0
M  V30 5308 H 521.93 -2.20717 3.09819 0
M  V30 5309 H 523.242 -3.07005 3.93128 0
M  V30 5310 H 522.396 -5.25055 3.03977 0
M  V30 5311 H 521.135 -4.40037 2.10283 0
M  V30 5312 H 520.14 -3.5124 4.22978 0
M  V30 5313 H 521.365 -4.39564 5.17649 0
M  V30 5314 H 519.311 -5.65738 3.32078 0
M  V30 5315 H 519.228 -5.62447 5.05163 0
M  V30 5316 H 520.496 -6.52111 4.2705 0
M  V30 5317 N 524.725 -1.39134 -0.740242 0
M  V30 5318 C 525.953 -1.39334 -1.5295 0
M  V30 5319 C 526.368 0.0135008 -1.88795 0
M  V30 5320 O 525.725 0.983524 -1.5373 0
M  V30 5321 C 525.776 -2.2614 -2.82034 0
M  V30 5322 O 525.497 -3.61345 -2.47712 0
M  V30 5323 C 526.998 -2.34666 -3.76094 0
M  V30 5324 H 524.218 -0.476103 -0.472828 0
M  V30 5325 H 526.762 -1.82883 -0.9151 0
M  V30 5326 H 524.917 -1.86018 -3.39818 0
M  V30 5327 H 525.331 -4.07194 -3.30595 0
M  V30 5328 H 526.805 -2.99663 -4.63579 0
M  V30 5329 H 527.282 -1.36426 -4.17474 0
M  V30 5330 H 527.888 -2.75236 -3.2423 0
M  V30 5331 N 526.204 0.969867 -1.24223 0
M  V30 5332 C 527.615 1.52717 -1.07399 0
M  V30 5333 C 527.966 1.92956 0.355298 0
M  V30 5334 O 527.091 1.77112 1.2434 0
M  V30 5335 C 527.686 2.77521 -1.94339 0
M  V30 5336 C 526.245 3.29615 -1.81744 0
M  V30 5337 C 525.392 2.02537 -1.89405 0
M  V30 5338 H 528.343 0.788399 -1.37732 0
M  V30 5339 H 528.364 3.50773 -1.47439 0
M  V30 5340 H 527.876 2.48203 -2.98357 0
M  V30 5341 H 525.977 3.63789 -0.805505 0
M  V30 5342 H 526.09 3.98661 -2.65718 0
M  V30 5343 H 524.454 2.17151 -1.33108 0
M  V30 5344 H 525.237 1.75587 -2.94999 0
M  V30 5345 N 527.682 1.05563 1.17022 0
M  V30 5346 C 528.592 0.670758 2.24807 0
M  V30 5347 C 529.608 -0.309865 1.71219 0
M  V30 5348 O 530.784 -0.161025 2.00755 0
M  V30 5349 C 527.849 0.055337 3.46656 0
M  V30 5350 C 526.91 1.08688 4.15314 0
M  V30 5351 C 526.143 0.500736 5.31346 0
M  V30 5352 O 526.366 -0.688718 5.66227 0
M  V30 5353 O 525.3 1.23683 5.89055 0
M  V30 5354 H 529.126 1.56914 2.60023 0
M  V30 5355 H 526.711 0.827428 1.24395 0
M  V30 5356 H 528.593 -0.286492 4.20425 0
M  V30 5357 H 527.268 -0.816638 3.13229 0
M  V30 5358 H 526.175 1.48077 3.43546 0
M  V30 5359 H 527.508 1.93014 4.52777 0
M  V30 5360 N 529.16 -1.33526 0.837174 0
M  V30 5361 C 530.092 -2.28077 0.226579 0
M  V30 5362 C 531.105 -1.51666 -0.591717 0
M  V30 5363 O 532.294 -1.73511 -0.419064 0
M  V30 5364 C 529.394 -3.31597 -0.69978 0
M  V30 5365 C 528.567 -4.37329 0.0788067 0
M  V30 5366 C 527.626 -5.20526 -0.770637 0
M  V30 5367 O 526.652 -5.68811 -0.210453 0
M  V30 5368 N 527.854 -5.41639 -2.08825 0
M  V30 5369 H 530.619 -2.81115 1.03897 0
M  V30 5370 H 528.18 -1.46201 0.695476 0
M  V30 5371 H 530.172 -3.84158 -1.27298 0
M  V30 5372 H 528.742 -2.78848 -1.41288 0
M  V30 5373 H 527.962 -3.8529 0.833381 0
M  V30 5374 H 529.25 -5.05079 0.614238 0
M  V30 5375 H 528.648 -5.04108 -2.56693 0
M  V30 5376 H 527.205 -5.97263 -2.60998 0
M  V30 5377 N 530.638 -0.59345 -1.46 0
M  V30 5378 C 531.601 0.123538 -2.28867 0
M  V30 5379 C 532.601 0.808628 -1.38989 0
M  V30 5380 O 533.791 0.658945 -1.61256 0
M  V30 5381 C 530.923 1.1847 -3.19653 0
M  V30 5382 H 532.116 -0.604843 -2.93737 0
M  V30 5383 H 529.669 -0.351875 -1.52288 0
M  V30 5384 H 530.404 1.94431 -2.59552 0
M  V30 5385 H 530.189 0.69783 -3.8584 0
M  V30 5386 H 531.679 1.68726 -3.81997 0
M  V30 5387 N 532.116 1.54067 -0.331816 0
M  V30 5388 C 533.341 2.05599 0.272705 0
M  V30 5389 C 533.766 1.2059 1.44359 0
M  V30 5390 O 533.124 0.216907 1.79998 0
M  V30 5391 C 533.172 3.54188 0.677021 0
M  V30 5392 O 532.276 3.72082 1.77844 0
M  V30 5393 H 531.617 0.662286 0.0476801 0
M  V30 5394 H 534.147 1.98826 -0.482624 0
M  V30 5395 H 534.157 3.96608 0.957415 0
M  V30 5396 H 532.832 4.15513 -0.179325 0
M  V30 5397 H 531.409 3.41566 1.49622 0
M  V30 5398 N 533.594 0.0601682 1.57485 0
M  V30 5399 C 534.526 -0.94047 2.09016 0
M  V30 5400 C 535.539 -1.26897 1.01985 0
M  V30 5401 O 536.728 -1.22819 1.29529 0
M  V30 5402 C 533.828 -2.25955 2.52582 0
M  V30 5403 C 533.001 -2.11163 3.83052 0
M  V30 5404 C 532.06 -3.26273 4.12835 0
M  V30 5405 O 531.086 -3.01779 4.82616 0
M  V30 5406 N 532.288 -4.51022 3.65458 0
M  V30 5407 H 535.053 -0.500578 2.9549 0
M  V30 5408 H 532.614 -0.125852 1.6141 0
M  V30 5409 H 534.606 -3.01846 2.69575 0
M  V30 5410 H 533.176 -2.61481 1.71308 0
M  V30 5411 H 532.396 -1.19808 3.75552 0
M  V30 5412 H 533.684 -1.98517 4.68475 0
M  V30 5413 H 533.082 -4.73811 3.09062 0
M  V30 5414 H 531.639 -5.23978 3.87673 0
M  V30 5415 N 535.072 -1.5615 -0.213296 0
M  V30 5416 C 536.004 -1.89586 -1.28802 0
M  V30 5417 C 537.017 -0.784844 -1.42633 0
M  V30 5418 O 538.206 -1.06319 -1.43383 0
M  V30 5419 C 535.306 -2.09665 -2.66259 0
M  V30 5420 C 534.479 -3.40726 -2.7427 0
M  V30 5421 C 533.538 -3.50137 -3.92798 0
M  V30 5422 O 532.564 -4.23105 -3.8075 0
M  V30 5423 N 533.766 -2.81886 -5.07465 0
M  V30 5424 H 536.531 -2.82368 -1.00442 0
M  V30 5425 H 534.092 -1.56796 -0.403302 0
M  V30 5426 H 536.084 -2.13268 -3.43946 0
M  V30 5427 H 534.654 -1.23469 -2.87183 0
M  V30 5428 H 533.874 -3.4915 -1.82997 0
M  V30 5429 H 535.162 -4.27048 -2.76599 0
M  V30 5430 H 534.56 -2.22397 -5.2015 0
M  V30 5431 H 533.117 -2.91139 -5.83165 0
M  V30 5432 N 536.55 0.480323 -1.50102 0
M  V30 5433 C 537.798 1.23063 -1.60312 0
M  V30 5434 C 538.119 1.92659 -0.301226 0
M  V30 5435 O 537.389 1.83691 0.680753 0
M  V30 5436 H 535.969 0.457231 -0.590719 0
M  V30 5437 H 538.631 0.554893 -1.86834 0
M  V30 5438 H 537.727 1.9835 -2.40964 0
M  V30 5439 N 538.028 1.39524 0.732853 0
M  V30 5440 C 538.958 1.41153 1.86005 0
M  V30 5441 C 539.939 0.274614 1.67869 0
M  V30 5442 O 541.124 0.480745 1.88155 0
M  V30 5443 C 538.254 1.25638 3.23778 0
M  V30 5444 C 537.208 2.36752 3.56556 0
M  V30 5445 C 536.534 2.06326 4.93289 0
M  V30 5446 C 537.834 3.79069 3.5931 0
M  V30 5447 H 539.528 2.35484 1.84899 0
M  V30 5448 H 537.074 1.13348 0.888162 0
M  V30 5449 H 539.027 1.25398 4.0231 0
M  V30 5450 H 537.751 0.277772 3.25417 0
M  V30 5451 H 536.41 2.36213 2.80355 0
M  V30 5452 H 536.058 1.06897 4.9151 0
M  V30 5453 H 535.758 2.80757 5.16187 0
M  V30 5454 H 537.282 2.07739 5.74175 0
M  V30 5455 H 538.696 3.81526 4.27914 0
M  V30 5456 H 537.093 4.52878 3.93728 0
M  V30 5457 H 538.163 4.09893 2.59068 0
M  V30 5458 N 539.506 -0.963266 1.24736 0
M  V30 5459 C 540.783 -1.68248 0.9976 0
M  V30 5460 C 541.163 -2.05599 -0.478776 0
M  V30 5461 O 540.511 -1.7626 -1.45412 0
M  V30 5462 C 540.721 -2.91118 1.92487 0
M  V30 5463 C 542.069 -3.63261 2.19833 0
M  V30 5464 O 543.093 -3.01184 1.90176 0
M  V30 5465 O 541.952 -4.75019 2.7022 0
M  V30 5466 H 539.046 -0.735744 0.377637 0
M  V30 5467 H 541.592 -1.01696 1.35853 0
M  V30 5468 H 540.364 -2.60242 2.92215 0
M  V30 5469 H 539.987 -3.65402 1.56738 0
M  V30 5470 N 540.985 -1.06182 -1.16461 0
M  V30 5471 C 542.225 -0.787048 -1.8864 0
M  V30 5472 C 542.589 0.674093 -1.79778 0
M  V30 5473 O 543.79 1.06341 -2.46871 0
M  V30 5474 C 542.061 -1.2666 -3.34203 0
M  V30 5475 S 543.62 -1.12071 -4.24247 0
M  V30 5476 H 540.438 -0.285539 -0.651144 0
M  V30 5477 H 543.04 -1.35851 -1.40587 0
M  V30 5478 H 541.744 -2.32496 -3.38192 0
M  V30 5479 H 541.275 -0.689841 -3.87304 0
M  V30 5480 H 543.29 -0.0509341 -4.96174 0
M  V30 5481 N 542.463 1.3308 -0.844243 0
M  V30 5482 C 543.712 1.96868 -0.438833 0
M  V30 5483 C 544.025 1.67599 1.00846 0
M  V30 5484 O 545.231 2.25043 1.51881 0
M  V30 5485 C 543.687 3.5234 -0.73377 0
M  V30 5486 C 543.295 3.90481 -2.1961 0
M  V30 5487 C 545.039 4.22653 -0.395574 0
M  V30 5488 C 542.946 5.38954 -2.43481 0
M  V30 5489 H 541.876 0.736749 -0.160364 0
M  V30 5490 H 544.527 1.51623 -1.03358 0
M  V30 5491 H 542.909 3.95941 -0.068589 0
M  V30 5492 H 544.083 3.57922 -2.90221 0
M  V30 5493 H 542.398 3.33165 -2.4978 0
M  V30 5494 H 544.995 5.31848 -0.551477 0
M  V30 5495 H 545.338 4.11004 0.661921 0
M  V30 5496 H 545.871 3.84601 -1.01621 0
M  V30 5497 H 542.61 5.55612 -3.47816 0
M  V30 5498 H 542.13 5.72954 -1.77437 0
M  V30 5499 H 543.809 6.05907 -2.26905 0
M  V30 5500 N 543.941 0.601185 1.45683 0
M  V30 5501 C 545.187 0.0940202 2.02582 0
M  V30 5502 C 545.52 -1.26972 1.46941 0
M  V30 5503 O 544.795 -1.83613 0.641612 0
M  V30 5504 C 545.078 0.0481715 3.60068 0
M  V30 5505 C 544.931 1.44212 4.26055 0
M  V30 5506 C 546.25 -0.642975 4.35378 0
M  V30 5507 H 543.369 0.0356404 0.736138 0
M  V30 5508 H 546.011 0.771929 1.73612 0
M  V30 5509 H 544.161 -0.529128 3.8488 0
M  V30 5510 H 545.833 2.06601 4.12449 0
M  V30 5511 H 544.076 2.00465 3.84703 0
M  V30 5512 H 544.747 1.36234 5.34925 0
M  V30 5513 H 547.223 -0.152351 4.15821 0
M  V30 5514 H 546.099 -0.644141 5.45107 0
M  V30 5515 H 546.36 -1.70785 4.0778 0
M  V30 5516 N 545.419 -1.53889 0.339982 0
M  V30 5517 C 546.382 -2.23547 -0.50592 0
M  V30 5518 C 547.382 -1.23445 -1.03044 0
M  V30 5519 O 548.572 -1.47909 -0.920253 0
M  V30 5520 C 545.704 -2.95234 -1.7044 0
M  V30 5521 H 546.897 -2.99722 0.103247 0
M  V30 5522 H 544.45 -1.56033 0.0912804 0
M  V30 5523 H 545.185 -2.23236 -2.35236 0
M  V30 5524 H 544.97 -3.68654 -1.33553 0
M  V30 5525 H 546.46 -3.48258 -2.30447 0
M  V30 5526 N 546.897 -0.0685191 -1.57451 0
M  V30 5527 C 547.829 0.929372 -2.09512 0
M  V30 5528 C 548.842 1.26354 -1.02657 0
M  V30 5529 O 550.031 1.2213 -1.30179 0
M  V30 5530 C 547.131 2.24612 -2.53777 0
M  V30 5531 C 546.304 2.09128 -3.84167 0
M  V30 5532 C 545.363 3.24079 -4.14559 0
M  V30 5533 O 544.389 2.99215 -4.8421 0
M  V30 5534 N 545.591 4.49077 -3.67845 0
M  V30 5535 H 548.356 0.484901 -2.95751 0
M  V30 5536 H 545.917 0.11729 -1.61475 0
M  V30 5537 H 547.909 3.00412 -2.71172 0
M  V30 5538 H 546.479 2.60569 -1.72692 0
M  V30 5539 H 545.699 1.17815 -3.76182 0
M  V30 5540 H 546.987 1.9603 -4.69521 0
M  V30 5541 H 546.385 4.72165 -3.11571 0
M  V30 5542 H 544.942 5.21915 -3.90446 0
M  V30 5543 N 548.375 1.56261 0.205012 0
M  V30 5544 C 549.622 1.8004 0.926927 0
M  V30 5545 C 549.95 0.640086 1.83666 0
M  V30 5546 O 549.205 -0.374702 1.92079 0
M  V30 5547 C 549.504 3.09722 1.78345 0
M  V30 5548 C 549.17 4.39082 1.02555 0
M  V30 5549 C 547.832 4.74226 0.816256 0
M  V30 5550 C 550.184 5.18877 0.491559 0
M  V30 5551 C 547.512 5.86668 0.0613287 0
M  V30 5552 C 549.864 6.32105 -0.250107 0
M  V30 5553 C 548.528 6.6584 -0.470508 0
M  V30 5554 H 547.798 0.658812 0.339187 0
M  V30 5555 H 550.445 1.90515 0.19395 0
M  V30 5556 H 548.75 2.9444 2.5848 0
M  V30 5557 H 550.447 3.25324 2.34446 0
M  V30 5558 H 547.037 4.11497 1.19868 0
M  V30 5559 H 551.221 4.92147 0.640684 0
M  V30 5560 H 546.477 6.11283 -0.119501 0
M  V30 5561 H 550.651 6.93157 -0.671307 0
M  V30 5562 H 548.278 7.5281 -1.05739 0
M  V30 5563 N 549.853 -0.472356 1.50355 0
M  V30 5564 C 551.264 -1.05326 1.54154 0
M  V30 5565 C 551.615 -1.93155 0.344303 0
M  V30 5566 O 550.74 -2.09479 -0.542928 0
M  V30 5567 C 551.335 -1.91691 2.79356 0
M  V30 5568 C 549.894 -2.44892 2.8584 0
M  V30 5569 C 549.041 -1.23205 2.48426 0
M  V30 5570 H 551.992 -0.255027 1.56637 0
M  V30 5571 H 552.013 -2.76742 2.6114 0
M  V30 5572 H 551.525 -1.27741 3.66475 0
M  V30 5573 H 549.626 -3.12399 2.0307 0
M  V30 5574 H 549.739 -2.80086 3.88701 0
M  V30 5575 H 548.103 -1.56643 2.00836 0
M  V30 5576 H 548.886 -0.609194 3.37852 0
M  V30 5577 N 551.331 -1.39911 -0.725443 0
M  V30 5578 C 552.578 -1.37654 -1.48518 0
M  V30 5579 C 552.906 0.0243982 -1.94485 0
M  V30 5580 O 552.161 1.00708 -1.67799 0
M  V30 5581 C 552.46 -2.30368 -2.7325 0
M  V30 5582 C 552.126 -3.77817 -2.461 0
M  V30 5583 C 550.788 -4.17991 -2.38405 0
M  V30 5584 C 553.14 -4.71036 -2.23103 0
M  V30 5585 C 550.468 -5.49433 -2.05768 0
M  V30 5586 C 552.82 -6.02766 -1.9198 0
M  V30 5587 C 551.484 -6.41993 -1.82761 0
M  V30 5588 H 550.754 -0.503713 -0.543465 0
M  V30 5589 H 553.401 -1.7249 -0.831822 0
M  V30 5590 H 551.706 -1.88683 -3.43375 0
M  V30 5591 H 553.403 -2.2591 -3.31309 0
M  V30 5592 H 549.993 -3.45982 -2.52972 0
M  V30 5593 H 554.177 -4.40823 -2.2801 0
M  V30 5594 H 549.433 -5.78738 -1.9716 0
M  V30 5595 H 553.607 -6.74519 -1.73197 0
M  V30 5596 H 551.234 -7.43761 -1.57237 0
M  V30 5597 N 552.809 0.956637 -1.25245 0
M  V30 5598 C 553.772 2.03457 -1.05537 0
M  V30 5599 C 554.772 1.60798 -0.00886317 0
M  V30 5600 O 555.962 1.72384 -0.250865 0
M  V30 5601 C 553.094 3.35543 -0.601965 0
M  V30 5602 H 554.287 2.22372 -2.01223 0
M  V30 5603 H 551.84 1.13344 -1.07623 0
M  V30 5604 H 552.575 3.22323 0.357584 0
M  V30 5605 H 552.36 3.67854 -1.35743 0
M  V30 5606 H 553.85 4.14769 -0.485454 0
M  V30 5607 N 554.287 1.06798 1.15896 0
M  V30 5608 C 555.25 0.687328 2.18651 0
M  V30 5609 C 556.25 -0.269559 1.58524 0
M  V30 5610 O 557.44 -0.0512627 1.74125 0
M  V30 5611 C 554.572 0.0121642 3.40898 0
M  V30 5612 H 555.765 1.59701 2.53842 0
M  V30 5613 H 553.318 0.863828 1.3026 0
M  V30 5614 H 554.053 -0.910025 3.1127 0
M  V30 5615 H 553.838 0.700309 3.85795 0
M  V30 5616 H 555.328 -0.239703 4.16911 0
M  V30 5617 N 555.766 -1.3263 0.851289 0
M  V30 5618 C 556.714 -2.30882 0.282202 0
M  V30 5619 C 557.708 -1.58697 -0.592589 0
M  V30 5620 O 558.914 -1.73461 -0.480768 0
M  V30 5621 H 555.289 -0.748492 0.0725487 0
M  V30 5622 H 557.26 -2.76374 1.12516 0
M  V30 5623 C 556.009 -3.43828 -0.517449 0
M  V30 5624 H 555.332 -3.99532 0.146392 0
M  V30 5625 H 556.772 -4.1474 -0.88128 0
M  V30 5626 C 555.231 -2.90786 -1.70133 0
M  V30 5627 O 555.761 -2.88 -2.80034 0
M  V30 5628 N 553.967 -2.4723 -1.52728 0
M  V30 5629 H 553.514 -2.49695 -0.633257 0
M  V30 5630 H 553.472 -2.12094 -2.32085 0
M  V30 5631 N 557.244 -0.608902 -1.45362 0
M  V30 5632 C 558.492 -0.104401 -2.0183 0
M  V30 5633 C 558.813 1.27007 -1.47967 0
M  V30 5634 O 558.083 1.83924 -0.674455 0
M  V30 5635 H 556.663 -0.0356042 -0.746151 0
M  V30 5636 H 559.325 -0.790596 -1.78145 0
M  V30 5637 H 558.421 -0.0551793 -3.12051 0
M  V30 5638 N 558.722 1.53707 -0.348139 0
M  V30 5639 C 560.138 1.596 0.00361134 0
M  V30 5640 C 560.338 1.36394 1.4832 0
M  V30 5641 O 559.394 1.16046 2.24253 0
M  V30 5642 C 560.707 2.97512 -0.436682 0
M  V30 5643 C 562.255 3.10568 -0.389416 0
M  V30 5644 C 562.73 4.50866 -0.805249 0
M  V30 5645 N 564.221 4.56929 -0.759616 0
M  V30 5646 C 564.956 5.63643 -1.05327 0
M  V30 5647 N 564.452 6.78189 -1.41531 0
M  V30 5648 N 566.245 5.5354 -0.977207 0
M  V30 5649 H 558.396 1.67044 -1.31187 0
M  V30 5650 H 560.659 0.782559 -0.535075 0
M  V30 5651 H 560.365 3.19575 -1.46849 0
M  V30 5652 H 560.239 3.76742 0.185744 0
M  V30 5653 H 562.626 2.88226 0.633228 0
M  V30 5654 H 562.707 2.33387 -1.04711 0
M  V30 5655 H 562.351 4.73943 -1.82593 0
M  V30 5656 H 562.281 5.26452 -0.124989 0
M  V30 5657 H 564.772 3.74675 -0.49265 0
M  V30 5658 H 565.085 7.55541 -1.62411 0
M  V30 5659 H 563.43 6.79624 -1.45381 0
M  V30 5660 H 566.621 4.62932 -0.693675 0
M  V30 5661 H 566.794 6.36614 -1.2094 0
M  V30 5662 N 560.2 0.0768682 1.57412 0
M  V30 5663 C 561.163 -0.873949 2.11884 0
M  V30 5664 C 562.163 -1.22301 1.04398 0
M  V30 5665 O 563.353 -1.15545 1.30365 0
M  V30 5666 C 560.485 -2.17575 2.62438 0
M  V30 5667 H 561.678 -0.401278 2.97203 0
M  V30 5668 H 559.231 -0.171904 1.55352 0
M  V30 5669 H 559.966 -2.69368 1.80587 0
M  V30 5670 H 559.751 -1.93534 3.41009 0
M  V30 5671 H 561.241 -2.85631 3.04639 0
M  V30 5672 N 561.678 -1.56367 -0.196722 0
M  V30 5673 C 562.611 -1.89475 -1.2718 0
M  V30 5674 C 563.589 -0.754667 -1.44026 0
M  V30 5675 O 564.773 -1.00551 -1.59442 0
M  V30 5676 C 561.9 -2.12352 -2.63864 0
M  V30 5677 C 560.946 -3.35053 -2.63897 0
M  V30 5678 S 561.779 -4.90228 -2.15492 0
M  V30 5679 C 562.935 -5.16171 -3.54004 0
M  V30 5680 H 563.168 -2.80365 -0.989075 0
M  V30 5681 H 560.701 -1.49125 -0.40014 0
M  V30 5682 H 562.659 -2.26214 -3.42545 0
M  V30 5683 H 561.32 -1.22214 -2.89349 0
M  V30 5684 H 560.513 -3.48182 -3.64397 0
M  V30 5685 H 560.115 -3.20176 -1.93296 0
M  V30 5686 H 562.407 -5.06591 -4.49857 0
M  V30 5687 H 563.35 -6.17938 -3.45771 0
M  V30 5688 H 563.758 -4.43814 -3.48841 0
M  V30 5689 N 563.156 0.464375 -1.50603 0
M  V30 5690 C 564.381 1.24372 -1.65971 0
M  V30 5691 C 564.806 1.84901 -0.345453 0
M  V30 5692 O 564.164 1.67596 0.691457 0
M  V30 5693 C 564.212 2.32331 -2.7578 0
M  V30 5694 O 563.316 3.37146 -2.375 0
M  V30 5695 H 562.657 0.365604 -0.554283 0
M  V30 5696 H 565.187 0.55183 -1.97018 0
M  V30 5697 H 565.197 2.77539 -2.99059 0
M  V30 5698 H 563.872 1.87648 -3.71162 0
M  V30 5699 H 562.449 2.97602 -2.24694 0
M  V30 5700 N 564.634 1.40294 0.718013 0
M  V30 5701 C 565.564 1.43118 1.84498 0
M  V30 5702 C 566.545 0.292403 1.67568 0
M  V30 5703 O 567.73 0.500675 1.87635 0
M  V30 5704 C 564.86 1.29065 3.22427 0
M  V30 5705 C 563.814 2.40521 3.54025 0
M  V30 5706 C 563.14 2.11546 4.91073 0
M  V30 5707 C 564.44 3.82859 3.55269 0
M  V30 5708 H 566.134 2.37432 1.82391 0
M  V30 5709 H 563.68 1.14283 0.87609 0
M  V30 5710 H 565.633 1.29658 4.00957 0
M  V30 5711 H 564.357 0.312271 3.25104 0
M  V30 5712 H 563.016 2.39173 2.77834 0
M  V30 5713 H 562.664 1.12104 4.90348 0
M  V30 5714 H 562.364 2.86216 5.1318 0
M  V30 5715 H 563.888 2.13817 5.71939 0
M  V30 5716 H 565.302 3.86044 4.23843 0
M  V30 5717 H 563.699 4.57029 3.88902 0
M  V30 5718 H 564.769 4.12617 2.54706 0
M  V30 5719 N 566.112 -0.949982 1.2575 0
M  V30 5720 C 567.022 -2.08109 1.08295 0
M  V30 5721 C 568.038 -1.7399 0.0188181 0
M  V30 5722 O 569.214 -2.00187 0.220724 0
M  V30 5723 C 566.279 -3.39383 0.708534 0
M  V30 5724 C 565.34 -3.8734 1.85111 0
M  V30 5725 C 564.573 -5.12349 1.49447 0
M  V30 5726 O 564.796 -5.6905 0.392212 0
M  V30 5727 O 563.73 -5.5513 2.32624 0
M  V30 5728 H 567.556 -2.25738 2.03165 0
M  V30 5729 H 565.141 -1.06545 1.04731 0
M  V30 5730 H 567.023 -4.18277 0.512061 0
M  V30 5731 H 565.698 -3.23013 -0.210854 0
M  V30 5732 H 564.605 -3.09429 2.10248 0
M  V30 5733 H 565.938 -4.08216 2.74991 0
M  V30 5734 N 567.59 -1.07411 -1.15328 0
M  V30 5735 C 568.815 -0.818856 -1.90551 0
M  V30 5736 C 569.24 0.622194 -1.77512 0
M  V30 5737 O 568.598 1.43484 -1.10824 0
M  V30 5738 C 568.646 -1.23267 -3.38877 0
M  V30 5739 O 567.75 -0.378345 -4.10661 0
M  V30 5740 H 567.091 -0.29827 -0.593238 0
M  V30 5741 H 569.621 -1.43289 -1.46046 0
M  V30 5742 H 569.631 -1.20912 -3.89672 0
M  V30 5743 H 568.306 -2.28226 -3.47686 0
M  V30 5744 H 566.883 -0.464437 -3.69996 0
M  V30 5745 N 569.068 1.32177 -0.85831 0
M  V30 5746 C 570.015 2.28794 -0.303607 0
M  V30 5747 C 570.985 1.55213 0.591453 0
M  V30 5748 O 572.17 1.83418 0.525585 0
M  V30 5749 C 569.31 3.41475 0.49889 0
M  V30 5750 C 568.423 4.2993 -0.422373 0
M  V30 5751 C 567.558 5.29743 0.393111 0
M  V30 5752 C 566.597 6.09842 -0.525317 0
M  V30 5753 N 565.734 7.01643 0.253208 0
M  V30 5754 H 570.574 2.75631 -1.13276 0
M  V30 5755 H 568.111 1.35606 -0.570026 0
M  V30 5756 H 570.069 4.05531 0.979826 0
M  V30 5757 H 568.699 2.95779 1.29284 0
M  V30 5758 H 567.751 3.66422 -1.02171 0
M  V30 5759 H 569.063 4.85899 -1.12709 0
M  V30 5760 H 568.217 5.9942 0.937056 0
M  V30 5761 H 566.956 4.744 1.13117 0
M  V30 5762 H 565.961 5.39066 -1.08112 0
M  V30 5763 H 567.186 6.6727 -1.26205 0
M  V30 5764 H 565.132 6.48725 0.974295 0
M  V30 5765 H 565.049 7.54981 -0.392398 0
M  V30 5766 H 566.317 7.756 0.778761 0
M  V30 5767 N 570.547 0.616602 1.45037 0
M  V30 5768 C 571.772 0.120192 2.07051 0
M  V30 5769 C 572.197 -1.19008 1.45666 0
M  V30 5770 O 571.555 -1.7267 0.552692 0
M  V30 5771 C 571.603 0.00354901 3.606 0
M  V30 5772 O 570.707 -1.04431 3.98958 0
M  V30 5773 H 570.048 0.0781599 0.659384 0
M  V30 5774 H 572.578 0.849167 1.86146 0
M  V30 5775 H 572.588 -0.191754 4.07549 0
M  V30 5776 H 571.263 0.960239 4.04663 0
M  V30 5777 H 569.84 -0.824749 3.63665 0
M  V30 5778 N 572.025 -1.5352 0.356285 0
M  V30 5779 C 573.273 -2.00719 -0.235837 0
M  V30 5780 C 573.594 -1.24551 -1.5004 0
M  V30 5781 O 572.864 -0.356185 -1.92635 0
M  V30 5782 H 571.444 -0.741542 -0.0901366 0
M  V30 5783 H 574.106 -1.88887 0.480378 0
M  V30 5784 H 573.202 -3.08551 -0.469357 0
M  V30 5785 N 573.503 -0.0852151 -1.57369 0
M  V30 5786 C 574.75 0.580806 -1.93992 0
M  V30 5787 C 575.078 1.68801 -0.966252 0
M  V30 5788 O 574.333 1.95694 0.0158649 0
M  V30 5789 C 574.632 1.18482 -3.3719 0
M  V30 5790 C 574.298 0.2024 -4.50446 0
M  V30 5791 C 572.96 -0.0678318 -4.81152 0
M  V30 5792 C 575.312 -0.46895 -5.19086 0
M  V30 5793 C 572.64 -1.01627 -5.77831 0
M  V30 5794 C 574.992 -1.4058 -6.16782 0
M  V30 5795 C 573.656 -1.68436 -6.45899 0
M  V30 5796 H 572.926 0.212532 -0.709867 0
M  V30 5797 H 575.573 -0.158947 -1.90839 0
M  V30 5798 H 573.878 2.0006 -3.36873 0
M  V30 5799 H 575.575 1.70767 -3.62822 0
M  V30 5800 H 572.165 0.423208 -4.26505 0
M  V30 5801 H 576.349 -0.273307 -4.95547 0
M  V30 5802 H 571.605 -1.2392 -5.9871 0
M  V30 5803 H 575.779 -1.93188 -6.69068 0
M  V30 5804 H 573.406 -2.42088 -7.20623 0
M  V30 5805 N 574.981 1.5647 0.188427 0
M  V30 5806 C 576.227 1.81281 0.909124 0
M  V30 5807 C 576.56 0.66034 1.82628 0
M  V30 5808 O 575.835 -0.338737 1.91528 0
M  V30 5809 C 576.118 3.16388 1.7196 0
M  V30 5810 C 575.971 4.42137 0.826714 0
M  V30 5811 C 577.29 3.48256 2.69083 0
M  V30 5812 H 574.409 0.659457 0.329068 0
M  V30 5813 H 577.051 1.89182 0.176156 0
M  V30 5814 H 575.201 3.09784 2.34448 0
M  V30 5815 H 576.873 4.60794 0.216025 0
M  V30 5816 H 575.116 4.33594 0.133792 0
M  V30 5817 H 575.787 5.33184 1.42893 0
M  V30 5818 H 578.263 3.55203 2.16726 0
M  V30 5819 H 577.139 4.43899 3.2287 0
M  V30 5820 H 577.4 2.72088 3.48455 0
M  V30 5821 N 576.459 -0.456382 1.50847 0
M  V30 5822 C 577.875 -0.791345 1.386 0
M  V30 5823 C 578.075 -1.9633 0.453498 0
M  V30 5824 O 577.131 -2.52308 -0.0984353 0
M  V30 5825 C 578.444 -1.08959 2.80265 0
M  V30 5826 C 579.992 -1.19517 2.89283 0
M  V30 5827 C 580.467 -1.52647 4.31814 0
M  V30 5828 N 581.958 -1.59609 4.34832 0
M  V30 5829 C 582.693 -1.86777 5.42127 0
M  V30 5830 N 582.189 -2.11866 6.59609 0
M  V30 5831 N 583.982 -1.88402 5.29586 0
M  V30 5832 H 576.133 0.315746 2.1004 0
M  V30 5833 H 578.396 0.0787916 0.94472 0
M  V30 5834 H 578.102 -0.301355 3.50407 0
M  V30 5835 H 577.976 -2.02211 3.18419 0
M  V30 5836 H 580.363 -1.97406 2.19351 0
M  V30 5837 H 580.444 -0.242111 2.54652 0
M  V30 5838 H 580.088 -0.752922 5.02288 0
M  V30 5839 H 580.018 -2.49127 4.63943 0
M  V30 5840 H 582.509 -1.42201 3.50125 0
M  V30 5841 H 582.822 -2.31912 7.37182 0
M  V30 5842 H 581.167 -2.09228 6.62758 0
M  V30 5843 H 584.358 -1.68307 4.36795 0
M  V30 5844 H 584.531 -2.09238 6.13289 0
M  V30 5845 N 577.937 -1.40673 -0.710563 0
M  V30 5846 C 579.183 -1.39428 -1.47267 0
M  V30 5847 C 579.516 0.00182129 -1.942 0
M  V30 5848 O 578.791 0.971387 -1.68506 0
M  V30 5849 C 579.074 -2.38812 -2.6952 0
M  V30 5850 C 578.927 -3.87467 -2.28449 0
M  V30 5851 C 580.246 -2.3566 -3.71689 0
M  V30 5852 H 577.365 -0.507768 -0.534173 0
M  V30 5853 H 580.007 -1.71843 -0.810547 0
M  V30 5854 H 578.157 -2.113 -3.26013 0
M  V30 5855 H 579.829 -4.25825 -1.77399 0
M  V30 5856 H 578.072 -4.03058 -1.60395 0
M  V30 5857 H 578.743 -4.5253 -3.16103 0
M  V30 5858 H 581.219 -2.6004 -3.24836 0
M  V30 5859 H 580.095 -3.07237 -4.54859 0
M  V30 5860 H 580.356 -1.36996 -4.20339 0
M  V30 5861 N 579.415 0.9433 -1.26252 0
M  V30 5862 C 580.661 1.69175 -1.11837 0
M  V30 5863 C 580.994 1.91238 0.337891 0
M  V30 5864 O 580.269 1.49152 1.24836 0
M  V30 5865 C 580.552 3.06783 -1.88563 0
M  V30 5866 C 580.405 2.9206 -3.42083 0
M  V30 5867 C 581.724 4.06865 -1.67776 0
M  V30 5868 H 578.843 0.61399 -0.407658 0
M  V30 5869 H 581.485 1.09572 -1.55222 0
M  V30 5870 H 579.635 3.57663 -1.51689 0
M  V30 5871 H 581.307 2.48419 -3.88698 0
M  V30 5872 H 579.55 2.27731 -3.69217 0
M  V30 5873 H 580.221 3.89651 -3.90994 0
M  V30 5874 H 582.697 3.64939 -1.99897 0
M  V30 5875 H 581.573 5.01168 -2.23879 0
M  V30 5876 H 581.834 4.37705 -0.621816 0
M  V30 5877 N 580.893 1.08022 1.14757 0
M  V30 5878 C 581.856 0.71048 2.1791 0
M  V30 5879 C 582.856 -0.252731 1.58801 0
M  V30 5880 O 584.046 -0.0327915 1.74169 0
M  V30 5881 C 581.178 0.0483203 3.40866 0
M  V30 5882 H 582.371 1.62384 2.52134 0
M  V30 5883 H 579.924 0.877595 1.29337 0
M  V30 5884 H 580.659 -0.876959 3.12218 0
M  V30 5885 H 580.444 0.741189 3.85031 0
M  V30 5886 H 581.934 -0.195471 4.17142 0
M  V30 5887 N 582.371 -1.3172 0.865308 0
M  V30 5888 C 583.787 -1.4958 0.556596 0
M  V30 5889 C 583.987 -1.79763 -0.910353 0
M  V30 5890 O 583.043 -1.87351 -1.6928 0
M  V30 5891 C 584.356 -2.63277 1.45279 0
M  V30 5892 C 585.904 -2.77161 1.45433 0
M  V30 5893 C 586.379 -3.93949 2.33598 0
M  V30 5894 N 587.87 -4.01228 2.31453 0
M  V30 5895 C 588.605 -4.90855 2.96393 0
M  V30 5896 N 588.101 -5.85416 3.70486 0
M  V30 5897 N 589.894 -4.84063 2.85726 0
M  V30 5898 H 582.045 -1.10396 1.81456 0
M  V30 5899 H 584.308 -0.54507 0.775631 0
M  V30 5900 H 584.014 -2.47734 2.49641 0
M  V30 5901 H 583.888 -3.59309 1.14792 0
M  V30 5902 H 586.275 -2.9212 0.41831 0
M  V30 5903 H 586.356 -1.8181 1.79941 0
M  V30 5904 H 586 -3.79748 3.37274 0
M  V30 5905 H 585.93 -4.88598 1.96417 0
M  V30 5906 H 588.421 -3.3357 1.77593 0
M  V30 5907 H 588.734 -6.50525 4.17178 0
M  V30 5908 H 587.079 -5.85409 3.74594 0
M  V30 5909 H 590.27 -4.09163 2.27384 0
M  V30 5910 H 590.443 -5.53708 3.36617 0
M  V30 5911 N 583.85 -0.624285 -1.44708 0
M  V30 5912 C 585.266 -0.289322 -1.56956 0
M  V30 5913 C 585.466 1.20773 -1.61295 0
M  V30 5914 O 584.522 1.9915 -1.55227 0
M  V30 5915 C 585.835 -0.975215 -2.84447 0
M  V30 5916 C 587.383 -0.952709 -2.98148 0
M  V30 5917 C 587.858 -1.61893 -4.28433 0
M  V30 5918 N 589.349 -1.5852 -4.35231 0
M  V30 5919 C 590.084 -2.06969 -5.34744 0
M  V30 5920 N 589.58 -2.63579 -6.40701 0
M  V30 5921 N 591.373 -1.97638 -5.26209 0
M  V30 5922 H 583.524 -1.59612 -1.40135 0
M  V30 5923 H 585.787 -0.669592 -0.671081 0
M  V30 5924 H 585.493 -2.02999 -2.87201 0
M  V30 5925 H 585.367 -0.508749 -3.73753 0
M  V30 5926 H 587.754 0.093568 -2.94952 0
M  V30 5927 H 587.835 -1.4576 -2.10209 0
M  V30 5928 H 587.479 -2.66463 -4.32389 0
M  V30 5929 H 587.409 -1.08893 -5.15218 0
M  V30 5930 H 589.899 -1.17183 -3.59272 0
M  V30 5931 H 590.213 -2.98298 -7.12908 0
M  V30 5932 H 588.558 -2.67626 -6.41406 0
M  V30 5933 H 591.749 -1.5314 -4.42341 0
M  V30 5934 H 591.922 -2.35708 -6.03611 0
M  V30 5935 N 585.328 1.53329 -0.364422 0
M  V30 5936 C 586.605 1.93557 0.281962 0
M  V30 5937 C 586.985 1.29786 1.6649 0
M  V30 5938 O 586.333 0.456512 2.23893 0
M  V30 5939 C 586.543 3.47405 0.333331 0
M  V30 5940 C 587.891 4.20699 0.574231 0
M  V30 5941 O 588.915 3.53779 0.414588 0
M  V30 5942 O 587.774 5.39287 0.885002 0
M  V30 5943 H 584.868 0.809573 0.168881 0
M  V30 5944 H 587.414 1.64494 -0.417121 0
M  V30 5945 H 586.186 3.86091 -0.636326 0
M  V30 5946 H 585.809 3.82697 1.07836 0
M  V30 5947 N 586.806 0.0935595 1.57322 0
M  V30 5948 C 587.754 -0.883457 2.15169 0
M  V30 5949 C 588.748 -1.29324 1.09415 0
M  V30 5950 O 589.954 -1.26795 1.27762 0
M  V30 5951 H 586.329 -0.302923 0.688289 0
M  V30 5952 H 588.3 -0.370845 2.96087 0
M  V30 5953 C 587.049 -2.13345 2.74552 0
M  V30 5954 H 586.372 -1.82702 3.55612 0
M  V30 5955 H 587.812 -2.7977 3.18598 0
M  V30 5956 C 586.271 -2.90646 1.70371 0
M  V30 5957 O 586.801 -3.85133 1.14173 0
M  V30 5958 N 585.007 -2.54157 1.40899 0
M  V30 5959 H 584.554 -1.77391 1.86789 0
M  V30 5960 H 584.512 -3.06178 0.714301 0
M  V30 5961 N 588.284 -1.56567 -0.180126 0
M  V30 5962 C 589.234 -1.92132 -1.22756 0
M  V30 5963 C 590.218 -0.788639 -1.40247 0
M  V30 5964 O 591.41 -1.05171 -1.42366 0
M  V30 5965 C 588.539 -2.27719 -2.56902 0
M  V30 5966 C 587.625 -3.47481 -2.43142 0
M  V30 5967 N 588.016 -4.64973 -1.99082 0
M  V30 5968 C 586.314 -3.51914 -2.73994 0
M  V30 5969 C 587.015 -5.47119 -1.97574 0
M  V30 5970 N 585.991 -4.87925 -2.39645 0
M  V30 5971 H 589.793 -2.80464 -0.878478 0
M  V30 5972 H 587.307 -1.57686 -0.388463 0
M  V30 5973 H 589.304 -2.51389 -3.32579 0
M  V30 5974 H 587.964 -1.40722 -2.92621 0
M  V30 5975 H 588.975 -4.89358 -1.69557 0
M  V30 5976 H 585.652 -2.75372 -3.13809 0
M  V30 5977 H 587.042 -6.51254 -1.65282 0
M  V30 5978 N 589.762 0.448376 -1.51087 0
M  V30 5979 C 590.692 1.55102 -1.74544 0
M  V30 5980 C 591.673 1.59357 -0.594932 0
M  V30 5981 O 592.858 1.75261 -0.836491 0
M  V30 5982 C 589.988 2.93268 -1.86041 0
M  V30 5983 C 588.942 3.03877 -3.01402 0
M  V30 5984 C 588.268 4.43914 -2.98068 0
M  V30 5985 C 589.568 2.7898 -4.41551 0
M  V30 5986 H 591.262 1.35724 -2.66869 0
M  V30 5987 H 588.808 0.651498 -1.28419 0
M  V30 5988 H 590.761 3.70356 -2.01034 0
M  V30 5989 H 589.485 3.13853 -0.903548 0
M  V30 5990 H 588.144 2.29227 -2.86096 0
M  V30 5991 H 587.792 4.6145 -2.00182 0
M  V30 5992 H 587.492 4.51944 -3.75527 0
M  V30 5993 H 589.016 5.22991 -3.1514 0
M  V30 5994 H 590.43 3.45805 -4.57265 0
M  V30 5995 H 588.827 2.98431 -5.20633 0
M  V30 5996 H 589.897 1.74663 -4.5235 0
M  V30 5997 N 591.24 1.41047 0.703093 0
M  V30 5998 C 592.489 1.39301 1.4587 0
M  V30 5999 C 592.802 0.00267077 1.956 0
M  V30 6000 O 594.008 -0.137414 2.71152 0
M  V30 6001 C 592.464 2.44891 2.63735 0
M  V30 6002 C 592.072 3.89796 2.20824 0
M  V30 6003 C 593.816 2.5227 3.41409 0
M  V30 6004 C 591.723 4.86955 3.35602 0
M  V30 6005 H 590.653 0.518005 0.547893 0
M  V30 6006 H 593.304 1.66839 0.764009 0
M  V30 6007 H 591.686 2.10472 3.35436 0
M  V30 6008 H 592.86 4.33424 1.56461 0
M  V30 6009 H 591.175 3.86008 1.56163 0
M  V30 6010 H 593.772 3.22044 4.26839 0
M  V30 6011 H 594.115 1.55714 3.86081 0
M  V30 6012 H 594.648 2.85742 2.7676 0
M  V30 6013 H 591.387 5.84888 2.9595 0
M  V30 6014 H 590.907 4.47982 3.98839 0
M  V30 6015 H 592.586 5.07361 4.01489 0
M  V30 6016 N 592.718 -0.936591 1.26751 0
M  V30 6017 C 593.648 -2.05315 1.11212 0
M  V30 6018 C 594.629 -1.70092 0.0160262 0
M  V30 6019 O 595.814 -1.93279 0.188894 0
M  V30 6020 C 592.944 -3.39123 0.749171 0
M  V30 6021 C 591.898 -3.88425 1.79751 0
M  V30 6022 C 591.224 -5.18936 1.28876 0
M  V30 6023 C 592.524 -4.12798 3.19992 0
M  V30 6024 H 594.218 -2.18573 2.04613 0
M  V30 6025 H 591.764 -1.05027 0.985159 0
M  V30 6026 H 593.717 -4.16704 0.627323 0
M  V30 6027 H 592.441 -3.25855 -0.220543 0
M  V30 6028 H 591.1 -3.13028 1.90811 0
M  V30 6029 H 590.748 -5.02051 0.308757 0
M  V30 6030 H 590.448 -5.52892 1.98958 0
M  V30 6031 H 591.972 -5.99096 1.17967 0
M  V30 6032 H 593.386 -4.80977 3.11983 0
M  V30 6033 H 591.783 -4.58044 3.87705 0
M  V30 6034 H 592.853 -3.18412 3.65707 0
M  V30 6035 N 594.196 -1.08629 -1.14182 0
M  V30 6036 C 595.444 -0.815731 -1.84906 0
M  V30 6037 C 595.765 0.660441 -1.83475 0
M  V30 6038 O 595.035 1.47888 -1.28476 0
M  V30 6039 H 593.615 -0.298773 -0.684648 0
M  V30 6040 H 596.277 -1.37274 -1.38354 0
M  V30 6041 H 595.373 -1.16193 -2.89665 0
M  V30 6042 N 595.674 1.31259 -0.872281 0
M  V30 6043 C 596.92 1.973 -0.494414 0
M  V30 6044 C 597.275 1.67684 0.94339 0
M  V30 6045 O 596.568 0.964186 1.65572 0
M  V30 6046 C 596.762 3.50659 -0.690889 0
M  V30 6047 C 596.591 3.95179 -2.14624 0
M  V30 6048 C 595.361 4.21405 -2.7883 0
M  V30 6049 C 597.559 4.08948 -3.11875 0
M  V30 6050 N 595.541 4.52295 -4.15093 0
M  V30 6051 C 596.912 4.43576 -4.33174 0
M  V30 6052 C 598.967 3.91334 -3.07835 0
M  V30 6053 C 597.67 4.62429 -5.50956 0
M  V30 6054 C 599.696 4.11381 -4.24876 0
M  V30 6055 C 599.058 4.46343 -5.44938 0
M  V30 6056 H 595.157 0.747411 -0.230002 0
M  V30 6057 H 597.741 1.58741 -1.12736 0
M  V30 6058 H 595.912 3.88301 -0.0875162 0
M  V30 6059 H 597.644 4.03722 -0.281179 0
M  V30 6060 H 594.399 4.14131 -2.29767 0
M  V30 6061 H 594.823 4.71897 -4.8543 0
M  V30 6062 H 599.465 3.6339 -2.16119 0
M  V30 6063 H 597.183 4.8922 -6.43187 0
M  V30 6064 H 600.769 3.99235 -4.23205 0
M  V30 6065 H 599.649 4.6154 -6.33996 0
M  V30 6066 N 597.152 0.631951 1.44375 0
M  V30 6067 C 598.084 -0.110911 2.28931 0
M  V30 6068 C 599.097 -0.808086 1.41329 0
M  V30 6069 O 600.286 -0.669396 1.65473 0
M  V30 6070 C 597.386 -1.17928 3.1772 0
M  V30 6071 C 596.559 -0.564458 4.33743 0
M  V30 6072 C 595.618 -1.5269 5.0356 0
M  V30 6073 O 594.644 -1.04372 5.59549 0
M  V30 6074 N 595.846 -2.86123 5.05088 0
M  V30 6075 H 598.611 0.614758 2.93327 0
M  V30 6076 H 596.172 0.473171 1.54831 0
M  V30 6077 H 598.164 -1.82348 3.61291 0
M  V30 6078 H 596.734 -1.80717 2.55069 0
M  V30 6079 H 595.954 0.258373 3.93352 0
M  V30 6080 H 597.242 -0.134355 5.08623 0
M  V30 6081 H 596.64 -3.27959 4.60933 0
M  V30 6082 H 595.197 -3.45901 5.52445 0
M  V30 6083 N 598.631 -1.53133 0.372548 0
M  V30 6084 C 599.594 -2.24569 -0.458389 0
M  V30 6085 C 600.594 -1.25603 -1.00402 0
M  V30 6086 O 601.784 -1.49827 -0.888672 0
M  V30 6087 C 598.916 -2.98783 -1.6414 0
M  V30 6088 H 600.109 -2.99436 0.166799 0
M  V30 6089 H 597.662 -1.55805 0.124357 0
M  V30 6090 H 598.397 -2.28176 -2.30448 0
M  V30 6091 H 598.182 -3.71404 -1.25704 0
M  V30 6092 H 599.672 -3.53068 -2.23008 0
M  V30 6093 N 600.109 -0.101901 -1.5727 0
M  V30 6094 C 601.355 0.561027 -1.94885 0
M  V30 6095 C 601.688 1.6741 -0.984258 0
M  V30 6096 O 600.963 1.94491 -0.0184767 0
M  V30 6097 C 601.246 1.10982 -3.42571 0
M  V30 6098 C 601.099 0.00133418 -4.498 0
M  V30 6099 C 602.418 2.00608 -3.9172 0
M  V30 6100 H 599.537 0.202467 -0.708644 0
M  V30 6101 H 602.179 -0.173992 -1.89202 0
M  V30 6102 H 600.329 1.73621 -3.47546 0
M  V30 6103 H 602.001 -0.63322 -4.56933 0
M  V30 6104 H 600.244 -0.664143 -4.28686 0
M  V30 6105 H 600.915 0.426253 -5.50352 0
M  V30 6106 H 603.391 1.47864 -3.88941 0
M  V30 6107 H 602.267 2.3593 -4.95609 0
M  V30 6108 H 602.528 2.92608 -3.3141 0
M  V30 6109 N 601.587 1.56661 0.17182 0
M  V30 6110 C 602.835 1.81606 0.886774 0
M  V30 6111 C 603.156 0.678818 1.82803 0
M  V30 6112 O 602.426 -0.301354 1.93568 0
M  V30 6113 H 601.006 0.669934 0.330451 0
M  V30 6114 H 603.668 1.94142 0.171757 0
M  V30 6115 H 602.764 2.75634 1.46398 0
M  V30 6116 N 603.065 -0.440357 1.51323 0
M  V30 6117 C 604.311 -1.19181 1.64085 0
M  V30 6118 C 604.644 -1.90936 0.354575 0
M  V30 6119 O 603.919 -1.8347 -0.645675 0
M  V30 6120 C 604.202 -2.2112 2.84215 0
M  V30 6121 C 604.055 -1.53468 4.22809 0
M  V30 6122 C 605.374 -3.22133 2.99864 0
M  V30 6123 H 602.493 -0.431924 0.597169 0
M  V30 6124 H 605.135 -0.481443 1.83799 0
M  V30 6125 H 603.285 -2.81703 2.67537 0
M  V30 6126 H 604.957 -0.962455 4.51148 0
M  V30 6127 H 603.2 -0.837086 4.25647 0
M  V30 6128 H 603.871 -2.27694 5.02852 0
M  V30 6129 H 606.347 -2.71601 3.15233 0
M  V30 6130 H 605.223 -3.90756 3.85488 0
M  V30 6131 H 605.484 -3.88061 2.11804 0
M  V30 6132 N 604.543 -1.41418 -0.695603 0
M  V30 6133 C 605.506 -1.42988 -1.79129 0
M  V30 6134 C 606.506 -0.320514 -1.57573 0
M  V30 6135 O 607.696 -0.58039 -1.64247 0
M  V30 6136 C 604.828 -1.24122 -3.175 0
M  V30 6137 H 606.021 -2.40526 -1.7913 0
M  V30 6138 H 603.574 -1.2756 -0.903225 0
M  V30 6139 H 604.309 -0.274253 -3.23138 0
M  V30 6140 H 604.094 -2.045 -3.34547 0
M  V30 6141 H 605.584 -1.28056 -3.97481 0
M  V30 6142 N 606.021 0.929856 -1.27246 0
M  V30 6143 C 607.267 1.6798 -1.13625 0
M  V30 6144 C 607.6 1.91586 0.317589 0
M  V30 6145 O 606.875 1.50467 1.23247 0
M  V30 6146 C 607.158 3.04766 -1.91806 0
M  V30 6147 C 607.011 2.88415 -3.45162 0
M  V30 6148 C 608.33 4.05063 -1.72082 0
M  V30 6149 H 605.449 0.609632 -0.414147 0
M  V30 6150 H 608.091 1.0792 -1.56376 0
M  V30 6151 H 606.241 3.56034 -1.55474 0
M  V30 6152 H 607.913 2.44282 -3.91311 0
M  V30 6153 H 606.156 2.23802 -3.71611 0
M  V30 6154 H 606.827 3.85482 -3.95105 0
M  V30 6155 H 609.303 3.62798 -2.03757 0
M  V30 6156 H 608.179 4.98765 -2.29182 0
M  V30 6157 H 608.44 4.37021 -0.668206 0
M  V30 6158 N 607.499 1.09233 1.13605 0
M  V30 6159 C 608.724 0.849067 1.89224 0
M  V30 6160 C 609.149 -0.593875 1.78479 0
M  V30 6161 O 608.507 -1.41703 1.13092 0
M  V30 6162 C 608.555 1.28642 3.36873 0
M  V30 6163 O 607.659 0.44363 4.10007 0
M  V30 6164 H 607 0.30767 0.588417 0
M  V30 6165 H 609.53 1.45595 1.43748 0
M  V30 6166 H 609.54 1.27096 3.87699 0
M  V30 6167 H 608.215 2.33729 3.44011 0
M  V30 6168 H 606.792 0.523241 3.69211 0
M  V30 6169 N 608.977 -1.30795 0.87923 0
M  V30 6170 C 609.887 -2.32041 0.345565 0
M  V30 6171 C 610.903 -1.65103 -0.549265 0
M  V30 6172 O 612.079 -1.9645 -0.443763 0
M  V30 6173 C 609.144 -3.43944 -0.436245 0
M  V30 6174 C 608.205 -4.26521 0.48765 0
M  V30 6175 C 607.438 -5.33081 -0.256943 0
M  V30 6176 O 607.661 -5.50762 -1.48381 0
M  V30 6177 O 606.595 -6.00635 0.389985 0
M  V30 6178 H 610.421 -2.79627 1.18501 0
M  V30 6179 H 608.006 -1.3486 0.642885 0
M  V30 6180 H 609.888 -4.12128 -0.879119 0
M  V30 6181 H 608.563 -2.98504 -1.25208 0
M  V30 6182 H 607.47 -3.61057 0.979216 0
M  V30 6183 H 608.803 -4.75551 1.26933 0
M  V30 6184 N 610.455 -0.639598 -1.44038 0
M  V30 6185 C 611.385 0.0469443 -2.33453 0
M  V30 6186 C 612.366 0.82609 -1.48694 0
M  V30 6187 O 613.551 0.790285 -1.77393 0
M  V30 6188 C 610.681 1.02338 -3.3188 0
M  V30 6189 C 609.635 0.355284 -4.26523 0
M  V30 6190 C 608.961 1.44221 -5.14883 0
M  V30 6191 C 610.261 -0.743798 -5.16977 0
M  V30 6192 H 611.955 -0.699735 -2.91108 0
M  V30 6193 H 609.501 -0.337946 -1.39978 0
M  V30 6194 H 611.454 1.51247 -3.93322 0
M  V30 6195 H 610.178 1.80105 -2.72451 0
M  V30 6196 H 608.837 -0.113239 -3.66425 0
M  V30 6197 H 608.485 2.21097 -4.51802 0
M  V30 6198 H 608.185 1.00052 -5.79019 0
M  V30 6199 H 609.709 1.93295 -5.79197 0
M  V30 6200 H 611.123 -0.337444 -5.72306 0
M  V30 6201 H 609.52 -1.10914 -5.89761 0
M  V30 6202 H 610.59 -1.60745 -4.57481 0
M  V30 6203 N 611.933 1.52934 -0.380664 0
M  V30 6204 C 613.158 2.06363 0.207157 0
M  V30 6205 C 613.583 1.25122 1.4045 0
M  V30 6206 O 612.941 0.274062 1.79217 0
M  V30 6207 C 612.989 3.56162 0.563996 0
M  V30 6208 O 612.093 3.77552 1.65917 0
M  V30 6209 H 611.434 0.663468 0.0265859 0
M  V30 6210 H 613.964 1.9719 -0.545635 0
M  V30 6211 H 613.974 3.99453 0.830752 0
M  V30 6212 H 612.649 4.14732 -0.311427 0
M  V30 6213 H 611.226 3.46154 1.3868 0
M  V30 6214 N 613.412 0.11024 1.57214 0
M  V30 6215 C 614.64 -0.557834 1.99238 0
M  V30 6216 C 615.055 -1.60778 0.989734 0
M  V30 6217 O 614.412 -1.82491 -0.0186092 0
M  V30 6218 C 614.463 -1.19189 3.41286 0
M  V30 6219 O 614.184 -0.183919 4.37714 0
M  V30 6220 C 615.685 -1.94413 3.98395 0
M  V30 6221 H 612.905 -0.148392 0.654386 0
M  V30 6222 H 615.449 0.193996 2.03578 0
M  V30 6223 H 613.604 -1.89456 3.37913 0
M  V30 6224 H 614.018 -0.643475 5.20538 0
M  V30 6225 H 615.492 -2.34116 4.99894 0
M  V30 6226 H 615.969 -2.81592 3.3705 0
M  V30 6227 H 616.575 -1.28928 4.05287 0
M  V30 6228 N 614.89 -1.56749 -0.16351 0
M  V30 6229 C 615.853 -1.96121 -1.18613 0
M  V30 6230 C 616.853 -0.845765 -1.36761 0
M  V30 6231 O 618.043 -1.11268 -1.34033 0
M  V30 6232 C 615.175 -2.26282 -2.54969 0
M  V30 6233 H 616.368 -2.87639 -0.848764 0
M  V30 6234 H 613.921 -1.50928 -0.406251 0
M  V30 6235 H 614.656 -1.37504 -2.93706 0
M  V30 6236 H 614.441 -3.07595 -2.43162 0
M  V30 6237 H 615.931 -2.57638 -3.28653 0
M  V30 6238 N 616.368 0.432326 -1.51554 0
M  V30 6239 C 617.615 1.18134 -1.64471 0
M  V30 6240 C 617.943 1.91076 -0.363349 0
M  V30 6241 O 617.198 1.84492 0.65279 0
M  V30 6242 C 617.497 2.21907 -2.80164 0
M  V30 6243 C 617.163 1.65941 -4.19255 0
M  V30 6244 C 615.825 1.50401 -4.57092 0
M  V30 6245 C 618.177 1.24843 -5.06027 0
M  V30 6246 C 615.505 0.922443 -5.79403 0
M  V30 6247 C 617.857 0.68113 -6.28922 0
M  V30 6248 C 616.521 0.512673 -6.65528 0
M  V30 6249 H 615.791 0.432283 -0.601841 0
M  V30 6250 H 618.438 0.471701 -1.856 0
M  V30 6251 H 616.743 2.98928 -2.53277 0
M  V30 6252 H 618.44 2.79691 -2.87357 0
M  V30 6253 H 615.03 1.79014 -3.89425 0
M  V30 6254 H 619.214 1.35667 -4.77397 0
M  V30 6255 H 614.47 0.779733 -6.06408 0
M  V30 6256 H 618.644 0.35418 -6.95499 0
M  V30 6257 H 616.271 0.0599084 -7.60176 0
M  V30 6258 N 617.846 1.41785 0.688094 0
M  V30 6259 C 618.809 1.43936 1.78368 0
M  V30 6260 C 619.809 0.328866 1.57401 0
M  V30 6261 O 620.999 0.589093 1.63937 0
M  V30 6262 C 618.131 1.25804 3.16838 0
M  V30 6263 H 619.324 2.41472 1.77852 0
M  V30 6264 H 616.877 1.28037 0.896448 0
M  V30 6265 H 617.612 0.291386 3.22988 0
M  V30 6266 H 617.397 2.06272 3.33458 0
M  V30 6267 H 618.887 1.30162 3.96797 0
M  V30 6268 N 619.324 -0.923095 1.27737 0
M  V30 6269 C 620.256 -2.02871 1.06658 0
M  V30 6270 C 621.269 -1.62786 0.0212095 0
M  V30 6271 O 622.458 -1.76548 0.263267 0
M  V30 6272 C 619.558 -3.33603 0.59682 0
M  V30 6273 C 618.731 -4.02354 1.71551 0
M  V30 6274 C 617.79 -5.11364 1.24071 0
M  V30 6275 O 616.816 -5.35075 1.94123 0
M  V30 6276 N 618.018 -5.80416 0.0988444 0
M  V30 6277 H 620.783 -2.21515 2.01869 0
M  V30 6278 H 618.344 -1.09378 1.19365 0
M  V30 6279 H 620.336 -4.03845 0.262984 0
M  V30 6280 H 618.906 -3.11499 -0.262187 0
M  V30 6281 H 618.126 -3.25786 2.2194 0
M  V30 6282 H 619.414 -4.45035 2.46619 0
M  V30 6283 H 618.812 -5.63611 -0.485743 0
M  V30 6284 H 617.369 -6.51563 -0.17578 0
M  V30 6285 N 620.802 -1.09834 -1.13024 0
M  V30 6286 C 622.027 -0.85909 -1.88771 0
M  V30 6287 C 622.452 0.584402 -1.78791 0
M  V30 6288 O 621.81 1.41101 -1.13842 0
M  V30 6289 C 621.858 -1.30427 -3.36186 0
M  V30 6290 O 620.962 -0.465368 -4.09766 0
M  V30 6291 H 620.303 -0.310786 -0.586778 0
M  V30 6292 H 622.833 -1.46355 -1.42973 0
M  V30 6293 H 622.843 -1.2915 -3.8702 0
M  V30 6294 H 621.518 -2.3555 -3.42767 0
M  V30 6295 H 620.095 -0.542814 -3.68928 0
M  V30 6296 N 622.28 1.30327 -0.886154 0
M  V30 6297 C 623.21 2.30549 -0.370028 0
M  V30 6298 C 624.191 1.61039 0.547751 0
M  V30 6299 O 625.376 1.8864 0.461353 0
M  V30 6300 C 622.506 3.44808 0.415275 0
M  V30 6301 C 621.46 4.26024 -0.41085 0
M  V30 6302 C 620.786 5.32347 0.501128 0
M  V30 6303 C 622.086 4.95433 -1.65359 0
M  V30 6304 H 623.78 2.73969 -1.20754 0
M  V30 6305 H 621.326 1.3171 -0.582097 0
M  V30 6306 H 623.279 4.13986 0.78699 0
M  V30 6307 H 622.003 3.00197 1.28644 0
M  V30 6308 H 620.662 3.58535 -0.764719 0
M  V30 6309 H 620.31 4.83982 1.37004 0
M  V30 6310 H 620.01 5.87581 -0.0478356 0
M  V30 6311 H 621.534 6.0438 0.869333 0
M  V30 6312 H 622.948 5.5712 -1.35239 0
M  V30 6313 H 621.345 5.60537 -2.14284 0
M  V30 6314 H 622.415 4.21493 -2.39733 0
M  V30 6315 N 623.758 0.647228 1.43697 0
M  V30 6316 C 624.668 -0.0487997 2.34549 0
M  V30 6317 C 625.684 -0.818586 1.53542 0
M  V30 6318 O 626.86 -0.767195 1.86215 0
M  V30 6319 C 623.925 -1.00734 3.31743 0
M  V30 6320 C 622.986 -0.23515 4.28655 0
M  V30 6321 C 622.219 -1.14803 5.21206 0
M  V30 6322 O 622.442 -2.38717 5.18045 0
M  V30 6323 O 621.376 -0.623667 5.9866 0
M  V30 6324 H 625.202 0.698863 2.9555 0
M  V30 6325 H 622.787 0.407412 1.43738 0
M  V30 6326 H 624.669 -1.55837 3.91526 0
M  V30 6327 H 623.344 -1.73534 2.73254 0
M  V30 6328 H 622.251 0.359319 3.7237 0
M  V30 6329 H 623.584 0.453152 4.9011 0
M  V30 6330 N 625.236 -1.5273 0.388769 0
M  V30 6331 C 626.169 -2.22861 -0.490752 0
M  V30 6332 C 627.147 -1.22912 -1.06449 0
M  V30 6333 O 628.331 -1.51896 -1.11624 0
M  V30 6334 C 625.458 -2.94141 -1.67925 0
M  V30 6335 C 624.504 -4.08355 -1.23081 0
M  V30 6336 S 625.337 -5.35077 -0.212786 0
M  V30 6337 C 626.493 -6.09879 -1.40708 0
M  V30 6338 H 626.726 -2.97115 0.104787 0
M  V30 6339 H 624.259 -1.53428 0.172956 0
M  V30 6340 H 626.217 -3.35818 -2.36085 0
M  V30 6341 H 624.878 -2.19568 -2.24608 0
M  V30 6342 H 624.071 -4.57328 -2.11818 0
M  V30 6343 H 623.673 -3.68688 -0.628121 0
M  V30 6344 H 625.965 -6.36018 -2.33424 0
M  V30 6345 H 626.908 -7.01586 -0.958271 0
M  V30 6346 H 627.316 -5.40646 -1.62364 0
M  V30 6347 N 626.714 -0.118576 -1.57153 0
M  V30 6348 C 627.962 0.538461 -1.94795 0
M  V30 6349 C 628.283 1.67243 -1.00274 0
M  V30 6350 O 627.553 1.95811 -0.0589692 0
M  V30 6351 H 626.133 0.201904 -0.719197 0
M  V30 6352 H 628.795 -0.187418 -1.93997 0
M  V30 6353 H 627.891 0.933315 -2.97818 0
M  V30 6354 N 628.193 1.56834 0.155195 0
M  V30 6355 C 629.156 1.96748 1.17571 0
M  V30 6356 C 630.156 0.853006 1.3631 0
M  V30 6357 O 631.346 1.11978 1.33441 0
M  V30 6358 C 628.478 2.27631 2.53765 0
M  V30 6359 H 629.671 2.88085 0.833498 0
M  V30 6360 H 627.224 1.51141 0.398242 0
M  V30 6361 H 627.959 1.39059 2.92973 0
M  V30 6362 H 627.744 3.0888 2.41527 0
M  V30 6363 H 629.234 2.59377 3.27282 0
M  V30 6364 N 629.671 -0.424282 1.51781 0
M  V30 6365 C 630.911 -1.18194 1.66762 0
M  V30 6366 C 631.275 -1.88164 0.381857 0
M  V30 6367 O 632.476 -2.65692 0.407586 0
M  V30 6368 C 630.747 -2.16173 2.84612 0
M  V30 6369 S 632.306 -3.0025 3.19993 0
M  V30 6370 H 629.124 -0.400626 0.587384 0
M  V30 6371 H 631.726 -0.471499 1.89729 0
M  V30 6372 H 630.43 -1.6343 3.76455 0
M  V30 6373 H 629.961 -2.91778 2.63873 0
M  V30 6374 H 631.976 -4.1796 2.67439 0
M  V30 6375 N 631.149 -1.42148 -0.680565 0
M  V30 6376 C 632.079 -1.4796 -1.80638 0
M  V30 6377 C 633.06 -0.336728 -1.66734 0
M  V30 6378 O 634.245 -0.550247 -1.86242 0
M  V30 6379 C 631.375 -1.37569 -3.18892 0
M  V30 6380 C 630.329 -2.49823 -3.47524 0
M  V30 6381 C 629.655 -2.24491 -4.85291 0
M  V30 6382 C 630.955 -3.92144 -3.44994 0
M  V30 6383 H 632.649 -2.42184 -1.76032 0
M  V30 6384 H 630.195 -1.16566 -0.845481 0
M  V30 6385 H 632.148 -1.40243 -3.97379 0
M  V30 6386 H 630.872 -0.398357 -3.24162 0
M  V30 6387 H 629.531 -2.46455 -2.71395 0
M  V30 6388 H 629.179 -1.25066 -4.87204 0
M  V30 6389 H 628.879 -2.99722 -5.05411 0
M  V30 6390 H 630.403 -2.28906 -5.66069 0
M  V30 6391 H 631.817 -3.97145 -4.13459 0
M  V30 6392 H 630.214 -4.67179 -3.76648 0
M  V30 6393 H 631.284 -4.19225 -2.43676 0
M  V30 6394 N 632.627 0.916307 -1.28225 0
M  V30 6395 C 633.537 2.05165 -1.13775 0
M  V30 6396 C 634.553 1.73879 -0.0649418 0
M  V30 6397 O 635.729 1.99531 -0.273722 0
M  V30 6398 C 632.794 3.37385 -0.798267 0
M  V30 6399 C 631.855 3.82296 -1.95316 0
M  V30 6400 C 631.088 5.08206 -1.62978 0
M  V30 6401 O 631.311 5.6781 -0.542948 0
M  V30 6402 O 630.245 5.48768 -2.47261 0
M  V30 6403 H 634.071 2.20273 -2.09078 0
M  V30 6404 H 631.656 1.0373 -1.07519 0
M  V30 6405 H 633.538 4.16773 -0.62278 0
M  V30 6406 H 632.213 3.23458 0.125139 0
M  V30 6407 H 631.12 3.03746 -2.18378 0
M  V30 6408 H 632.453 4.00782 -2.85718 0
M  V30 6409 N 634.105 1.10431 1.1244 0
M  V30 6410 C 635.382 0.758797 1.80282 0
M  V30 6411 C 635.762 -0.754727 1.97147 0
M  V30 6412 O 635.11 -1.68094 1.54779 0
M  V30 6413 C 635.32 1.50982 3.14651 0
M  V30 6414 C 636.668 1.68232 3.8985 0
M  V30 6415 O 637.692 1.47319 3.24308 0
M  V30 6416 O 636.551 2.02905 5.07437 0
M  V30 6417 H 633.645 0.273756 0.780376 0
M  V30 6418 H 636.191 1.20713 1.19275 0
M  V30 6419 H 634.963 2.53989 2.97666 0
M  V30 6420 H 634.586 1.05435 3.83366 0
M  V30 6421 N 635.583 -1.29855 0.893053 0
M  V30 6422 C 636.829 -1.96116 0.516349 0
M  V30 6423 C 637.162 -1.70281 -0.933695 0
M  V30 6424 O 636.437 -1.01205 -1.66096 0
M  V30 6425 C 636.72 -3.51068 0.801455 0
M  V30 6426 C 636.573 -3.86387 2.30272 0
M  V30 6427 C 637.892 -4.39186 0.283423 0
M  V30 6428 H 635.011 -0.712335 0.189072 0
M  V30 6429 H 637.653 -1.53587 1.11852 0
M  V30 6430 H 635.803 -3.87424 0.288949 0
M  V30 6431 H 637.475 -3.60012 2.88425 0
M  V30 6432 H 635.718 -3.34167 2.76613 0
M  V30 6433 H 636.389 -4.94512 2.45279 0
M  V30 6434 H 638.865 -4.09785 0.722187 0
M  V30 6435 H 637.741 -5.46505 0.512169 0
M  V30 6436 H 638.002 -4.34511 -0.815643 0
M  V30 6437 N 637.061 -0.65484 -1.43351 0
M  V30 6438 C 638.024 0.0263562 -2.29185 0
M  V30 6439 C 639.024 0.748951 -1.42293 0
M  V30 6440 O 640.214 0.589957 -1.63906 0
M  V30 6441 C 637.346 1.04806 -3.2439 0
M  V30 6442 H 638.539 -0.728883 -2.90908 0
M  V30 6443 H 636.092 -0.416149 -1.50658 0
M  V30 6444 H 636.827 1.83247 -2.67565 0
M  V30 6445 H 636.612 0.533554 -3.88453 0
M  V30 6446 H 638.102 1.52372 -3.88809 0
M  V30 6447 N 638.539 1.52521 -0.396863 0
M  V30 6448 C 639.787 2.01274 0.182536 0
M  V30 6449 C 640.108 1.28485 1.46685 0
M  V30 6450 O 639.378 0.407134 1.91623 0
M  V30 6451 H 637.958 0.743671 0.0704442 0
M  V30 6452 H 640.62 1.87547 -0.530289 0
M  V30 6453 H 639.716 3.09687 0.387385 0
M  V30 6454 N 640.017 0.126909 1.57088 0
M  V30 6455 C 641.245 -0.53667 1.99819 0
M  V30 6456 C 641.66 -1.5972 1.00673 0
M  V30 6457 O 641.017 -1.825 0.000747365 0
M  V30 6458 C 641.068 -1.15563 3.42531 0
M  V30 6459 O 640.789 -0.137483 4.37884 0
M  V30 6460 C 642.29 -1.90176 4.00435 0
M  V30 6461 H 639.51 -0.141443 0.655923 0
M  V30 6462 H 642.054 0.215578 2.03361 0
M  V30 6463 H 640.209 -1.85861 3.39904 0
M  V30 6464 H 640.623 -0.588229 5.21191 0
M  V30 6465 H 642.097 -2.28801 5.02349 0
M  V30 6466 H 642.574 -2.78002 3.40017 0
M  V30 6467 H 643.18 -1.24623 4.06632 0
M  V30 6468 N 641.495 -1.56914 -0.146875 0
M  V30 6469 C 642.744 -1.82546 -0.857898 0
M  V30 6470 C 643.057 -0.708169 -1.8233 0
M  V30 6471 O 644.263 -0.850093 -2.57848 0
M  V30 6472 C 642.719 -3.23548 -1.57623 0
M  V30 6473 C 642.327 -4.43212 -0.653224 0
M  V30 6474 C 644.071 -3.58453 -2.27402 0
M  V30 6475 C 641.978 -5.75237 -1.37318 0
M  V30 6476 H 640.908 -0.680786 -0.32411 0
M  V30 6477 H 643.559 -1.83166 -0.110639 0
M  V30 6478 H 641.941 -3.17315 -2.36912 0
M  V30 6479 H 643.115 -4.60682 0.104452 0
M  V30 6480 H 641.43 -4.16351 -0.0638336 0
M  V30 6481 H 644.027 -4.54349 -2.81907 0
M  V30 6482 H 644.37 -2.84516 -3.03901 0
M  V30 6483 H 644.903 -3.66347 -1.55032 0
M  V30 6484 H 641.642 -6.52269 -0.650041 0
M  V30 6485 H 641.162 -5.61703 -2.10357 0
M  V30 6486 H 642.841 -6.18039 -1.91406 0
M  V30 6487 N 642.974 0.416227 -1.52004 0
M  V30 6488 C 643.924 1.50558 -1.7122 0
M  V30 6489 C 644.908 1.50613 -0.56609 0
M  V30 6490 O 646.1 1.56709 -0.822874 0
M  V30 6491 C 643.229 2.88556 -1.85984 0
M  V30 6492 C 642.315 2.93177 -3.06445 0
M  V30 6493 N 642.706 2.67505 -4.29272 0
M  V30 6494 C 641.004 3.24343 -3.06133 0
M  V30 6495 C 641.705 2.78511 -5.10692 0
M  V30 6496 N 640.681 3.11087 -4.45787 0
M  V30 6497 H 644.483 1.29494 -2.63834 0
M  V30 6498 H 641.997 0.62384 -1.4994 0
M  V30 6499 H 643.994 3.66954 -1.97865 0
M  V30 6500 H 642.654 3.10624 -0.945654 0
M  V30 6501 H 643.665 2.42033 -4.57865 0
M  V30 6502 H 640.342 3.52051 -2.24425 0
M  V30 6503 H 641.732 2.62438 -6.18527 0
M  V30 6504 N 644.452 1.42507 0.673017 0
M  V30 6505 C 645.415 1.4582 1.76831 0
M  V30 6506 C 646.415 0.345542 1.57043 0
M  V30 6507 O 647.605 0.606447 1.63303 0
M  V30 6508 C 644.737 1.29158 3.15485 0
M  V30 6509 H 645.93 2.43345 1.7528 0
M  V30 6510 H 643.483 1.28981 0.882817 0
M  V30 6511 H 644.218 0.325626 3.22661 0
M  V30 6512 H 644.003 2.09797 3.31252 0
M  V30 6513 H 645.493 1.34363 3.95394 0
M  V30 6514 N 645.93 -0.909495 1.28709 0
M  V30 6515 C 646.88 -1.9991 1.09636 0
M  V30 6516 C 647.864 -1.60889 0.01872 0
M  V30 6517 O 649.056 -1.75374 0.239338 0
M  V30 6518 C 646.185 -3.34675 0.764702 0
M  V30 6519 C 645.271 -3.80085 1.8814 0
M  V30 6520 N 645.662 -3.97824 3.12361 0
M  V30 6521 C 643.96 -4.09278 1.77221 0
M  V30 6522 C 644.661 -4.35928 3.85151 0
M  V30 6523 N 643.637 -4.44426 3.13028 0
M  V30 6524 H 647.439 -2.11681 2.03883 0
M  V30 6525 H 644.953 -1.09763 1.1969 0
M  V30 6526 H 646.95 -4.12426 0.609132 0
M  V30 6527 H 645.61 -3.24255 -0.169952 0
M  V30 6528 H 646.621 -3.83626 3.47925 0
M  V30 6529 H 643.298 -4.0747 0.909621 0
M  V30 6530 H 644.688 -4.57581 4.92006 0
M  V30 6531 N 647.408 -1.11026 -1.11852 0
M  V30 6532 C 648.819 -0.873203 -1.65021 0
M  V30 6533 C 649.17 0.595364 -1.86949 0
M  V30 6534 O 648.295 1.45645 -1.60051 0
M  V30 6535 C 648.89 -1.57859 -2.99777 0
M  V30 6536 C 647.449 -1.38807 -3.49871 0
M  V30 6537 C 646.596 -1.62403 -2.24768 0
M  V30 6538 H 649.547 -1.26712 -0.955503 0
M  V30 6539 H 649.568 -1.02111 -3.66543 0
M  V30 6540 H 649.08 -2.6474 -2.83786 0
M  V30 6541 H 647.181 -0.341163 -3.71035 0
M  V30 6542 H 647.294 -2.13421 -4.28938 0
M  V30 6543 H 645.658 -1.04714 -2.32179 0
M  V30 6544 H 646.441 -2.70549 -2.11324 0
M  V30 6545 N 648.886 1.2938 -0.899927 0
M  V30 6546 C 650.114 1.99691 -0.541386 0
M  V30 6547 C 650.529 1.67355 0.873936 0
M  V30 6548 O 649.886 0.918728 1.57688 0
M  V30 6549 C 649.937 3.54168 -0.72438 0
M  V30 6550 O 649.658 3.85359 -2.08399 0
M  V30 6551 C 651.159 4.41746 -0.370819 0
M  V30 6552 H 648.379 0.638037 -0.207726 0
M  V30 6553 H 650.923 1.6491 -1.20934 0
M  V30 6554 H 649.078 3.87261 -0.103607 0
M  V30 6555 H 649.492 4.80032 -2.11352 0
M  V30 6556 H 650.966 5.49256 -0.549693 0
M  V30 6557 H 651.443 4.33712 0.692148 0
M  V30 6558 H 652.049 4.14125 -0.968543 0
M  V30 6559 N 650.364 0.662433 1.43002 0
M  V30 6560 C 651.294 -0.00979809 2.33498 0
M  V30 6561 C 652.275 -0.802329 1.49989 0
M  V30 6562 O 653.46 -0.761964 1.78627 0
M  V30 6563 C 650.59 -0.970446 3.33466 0
M  V30 6564 C 649.544 -0.287383 4.27034 0
M  V30 6565 C 648.87 -1.36012 5.17112 0
M  V30 6566 C 650.17 0.82595 5.15728 0
M  V30 6567 H 651.864 0.745959 2.89958 0
M  V30 6568 H 649.41 0.360172 1.39423 0
M  V30 6569 H 651.363 -1.44971 3.95679 0
M  V30 6570 H 650.087 -1.75748 2.75282 0
M  V30 6571 H 648.746 0.17152 3.66199 0
M  V30 6572 H 648.394 -2.13882 4.55262 0
M  V30 6573 H 648.094 -0.908276 5.80538 0
M  V30 6574 H 649.618 -1.84056 5.82199 0
M  V30 6575 H 651.032 0.42845 5.71697 0
M  V30 6576 H 649.429 1.20282 5.87922 0
M  V30 6577 H 650.499 1.68003 4.54866 0
M  V30 6578 N 651.842 -1.52309 0.404946 0
M  V30 6579 C 653.09 -2.01368 -0.17186 0
M  V30 6580 C 653.411 -1.29261 -1.46002 0
M  V30 6581 O 652.681 -0.41729 -1.91404 0
M  V30 6582 H 651.261 -0.744034 -0.0664993 0
M  V30 6583 H 653.923 -1.87263 0.540228 0
M  V30 6584 H 653.019 -3.09888 -0.370957 0
M  V30 6585 N 653.32 -0.135238 -1.57019 0
M  V30 6586 C 654.23 0.822226 -2.19719 0
M  V30 6587 C 655.246 1.28057 -1.17802 0
M  V30 6588 O 656.422 1.3402 -1.50335 0
M  V30 6589 C 653.487 2.0484 -2.79717 0
M  V30 6590 C 652.548 1.64042 -3.96723 0
M  V30 6591 C 651.781 2.80814 -4.53849 0
M  V30 6592 O 652.004 3.967 -4.0986 0
M  V30 6593 O 650.938 2.56963 -5.44292 0
M  V30 6594 H 654.764 0.318552 -3.02025 0
M  V30 6595 H 652.349 0.0912021 -1.49121 0
M  V30 6596 H 654.231 2.76622 -3.17897 0
M  V30 6597 H 652.906 2.54182 -2.00432 0
M  V30 6598 H 651.813 0.893182 -3.63281 0
M  V30 6599 H 653.146 1.19426 -4.77492 0
M  V30 6600 N 654.798 1.5699 0.138552 0
M  V30 6601 C 655.761 1.97984 1.15478 0
M  V30 6602 C 656.761 0.867416 1.35398 0
M  V30 6603 O 657.951 1.13387 1.32246 0
M  V30 6604 C 655.083 2.3031 2.51337 0
M  V30 6605 H 656.276 2.88953 0.802896 0
M  V30 6606 H 653.829 1.51555 0.382189 0
M  V30 6607 H 654.564 1.42159 2.91481 0
M  V30 6608 H 654.349 3.11425 2.38237 0
M  V30 6609 H 655.839 2.62834 3.24512 0
M  V30 6610 N 656.276 -0.40816 1.52223 0
M  V30 6611 C 657.522 -1.15673 1.66576 0
M  V30 6612 C 657.855 -1.90141 0.394996 0
M  V30 6613 O 657.13 -1.84798 -0.606613 0
M  V30 6614 C 657.413 -2.15042 2.88841 0
M  V30 6615 C 657.266 -1.44465 4.25969 0
M  V30 6616 C 658.585 -3.15699 3.0663 0
M  V30 6617 H 655.704 -0.41916 0.606196 0
M  V30 6618 H 658.346 -0.442348 1.84779 0
M  V30 6619 H 656.496 -2.75964 2.73452 0
M  V30 6620 H 658.168 -0.866544 4.53088 0
M  V30 6621 H 656.411 -0.746612 4.27327 0
M  V30 6622 H 657.082 -2.16976 5.07568 0
M  V30 6623 H 659.558 -2.64854 3.20923 0
M  V30 6624 H 658.434 -3.82491 3.9369 0
M  V30 6625 H 658.695 -3.83481 2.19987 0
M  V30 6626 N 657.755 -1.42862 -0.66545 0
M  V30 6627 C 658.687 -1.43026 -1.79098 0
M  V30 6628 C 659.7 -0.32803 -1.59461 0
M  V30 6629 O 660.889 -0.591709 -1.68407 0
M  V30 6630 C 657.989 -1.21566 -3.16346 0
M  V30 6631 C 657.162 -2.44399 -3.62751 0
M  V30 6632 C 656.221 -2.18344 -4.78761 0
M  V30 6633 O 655.247 -2.91611 -4.88827 0
M  V30 6634 N 656.449 -1.1924 -5.68122 0
M  V30 6635 H 659.214 -2.40045 -1.79439 0
M  V30 6636 H 656.775 -1.37861 -0.848872 0
M  V30 6637 H 658.767 -1.02037 -3.91625 0
M  V30 6638 H 657.337 -0.330368 -3.10849 0
M  V30 6639 H 656.557 -2.79433 -2.78048 0
M  V30 6640 H 657.845 -3.26173 -3.90498 0
M  V30 6641 H 657.243 -0.586603 -5.6265 0
M  V30 6642 H 655.8 -1.05698 -6.43173 0
M  V30 6643 N 659.233 0.902656 -1.29189 0
M  V30 6644 C 660.143 2.03946 -1.15944 0
M  V30 6645 C 661.159 1.738 -0.0833803 0
M  V30 6646 O 662.335 1.9923 -0.29487 0
M  V30 6647 C 659.4 3.36519 -0.834006 0
M  V30 6648 C 658.461 3.80203 -1.9936 0
M  V30 6649 C 657.694 5.06449 -1.68359 0
M  V30 6650 O 657.917 5.67202 -0.603141 0
M  V30 6651 O 656.851 5.46114 -2.53067 0
M  V30 6652 H 660.677 2.18043 -2.11403 0
M  V30 6653 H 658.262 1.02584 -1.08613 0
M  V30 6654 H 660.144 4.16089 -0.666949 0
M  V30 6655 H 658.819 3.23573 0.0908245 0
M  V30 6656 H 657.726 3.01413 -2.21588 0
M  V30 6657 H 659.059 3.97729 -2.89952 0
M  V30 6658 N 660.711 1.11618 1.11262 0
M  V30 6659 C 661.674 0.779447 2.15539 0
M  V30 6660 C 662.674 -0.202081 1.59525 0
M  V30 6661 O 663.864 0.0226356 1.74185 0
M  V30 6662 C 660.996 0.15674 3.40539 0
M  V30 6663 H 662.189 1.70324 2.4684 0
M  V30 6664 H 659.742 0.918298 1.26479 0
M  V30 6665 H 660.477 -0.777186 3.1485 0
M  V30 6666 H 660.262 0.863308 3.82478 0
M  V30 6667 H 661.752 -0.062661 4.17553 0
M  V30 6668 N 662.189 -1.289 0.906776 0
M  V30 6669 C 663.152 -2.25777 0.394656 0
M  V30 6670 C 664.152 -1.53621 -0.475119 0
M  V30 6671 O 665.342 -1.71949 -0.279165 0
M  V30 6672 C 662.474 -3.38113 -0.43499 0
M  V30 6673 H 663.667 -2.72592 1.25033 0
M  V30 6674 H 661.22 -1.40463 0.685547 0
M  V30 6675 H 661.955 -2.96648 -1.31036 0
M  V30 6676 H 661.74 -3.91647 0.188334 0
M  V30 6677 H 663.23 -4.10168 -0.784365 0
M  V30 6678 N 663.667 -0.670007 -1.42649 0
M  V30 6679 C 664.597 -0.00258501 -2.335 0
M  V30 6680 C 665.578 0.794364 -1.50412 0
M  V30 6681 O 666.763 0.75248 -1.79029 0
M  V30 6682 C 663.893 0.952748 -3.33976 0
M  V30 6683 C 662.847 0.264733 -4.2718 0
M  V30 6684 C 662.173 1.33267 -5.17826 0
M  V30 6685 C 663.473 -0.853289 -5.15283 0
M  V30 6686 H 665.167 -0.761326 -2.89559 0
M  V30 6687 H 662.713 -0.367561 -1.3923 0
M  V30 6688 H 664.666 1.4287 -3.96442 0
M  V30 6689 H 663.39 1.74285 -2.7621 0
M  V30 6690 H 662.049 -0.190938 -3.66102 0
M  V30 6691 H 661.697 2.11464 -4.5639 0
M  V30 6692 H 661.397 0.877476 -5.81011 0
M  V30 6693 H 662.921 1.80965 -5.83167 0
M  V30 6694 H 664.335 -0.458763 -5.71462 0
M  V30 6695 H 662.732 -1.23398 -5.87276 0
M  V30 6696 H 663.802 -1.70412 -4.53969 0
M  V30 6697 N 665.145 1.52092 -0.413018 0
M  V30 6698 C 666.561 1.59471 -0.0640836 0
M  V30 6699 C 666.761 1.42562 1.42402 0
M  V30 6700 O 665.817 1.25453 2.19129 0
M  V30 6701 C 667.13 2.95392 -0.562474 0
M  V30 6702 C 668.678 3.08637 -0.520788 0
M  V30 6703 C 669.153 4.47044 -0.995752 0
M  V30 6704 N 670.644 4.53296 -0.952732 0
M  V30 6705 C 671.379 5.58669 -1.29138 0
M  V30 6706 N 670.875 6.71576 -1.70168 0
M  V30 6707 N 672.668 5.48898 -1.2111 0
M  V30 6708 H 664.819 1.6133 -1.38153 0
M  V30 6709 H 667.082 0.75916 -0.567785 0
M  V30 6710 H 666.788 3.13059 -1.60271 0
M  V30 6711 H 666.662 3.77191 0.0257875 0
M  V30 6712 H 669.049 2.90652 0.510412 0
M  V30 6713 H 669.13 2.28735 -1.14515 0
M  V30 6714 H 668.774 4.65773 -2.0253 0
M  V30 6715 H 668.704 5.25448 -0.348162 0
M  V30 6716 H 671.195 3.72248 -0.651119 0
M  V30 6717 H 671.508 7.47973 -1.9431 0
M  V30 6718 H 669.853 6.72847 -1.74075 0
M  V30 6719 H 673.044 4.59573 -0.889396 0
M  V30 6720 H 673.217 6.30912 -1.47833 0
M  V30 6721 N 666.623 0.143563 1.56945 0
M  V30 6722 C 667.586 -0.783295 2.154 0
M  V30 6723 C 668.586 -1.17763 1.09492 0
M  V30 6724 O 669.776 -1.09912 1.35148 0
M  V30 6725 C 666.908 -2.06248 2.7143 0
M  V30 6726 H 668.101 -0.274863 2.98638 0
M  V30 6727 H 665.654 -0.105859 1.55941 0
M  V30 6728 H 666.389 -2.61466 1.91849 0
M  V30 6729 H 666.174 -1.78897 3.4891 0
M  V30 6730 H 667.664 -2.72453 3.16479 0
M  V30 6731 N 668.101 -1.57061 -0.130224 0
M  V30 6732 C 669.031 -2.02552 -1.16168 0
M  V30 6733 C 670.012 -0.907971 -1.4384 0
M  V30 6734 O 671.197 -1.17693 -1.54473 0
M  V30 6735 C 668.327 -2.42035 -2.49071 0
M  V30 6736 C 667.281 -3.5713 -2.35886 0
M  V30 6737 C 666.607 -3.82478 -3.7365 0
M  V30 6738 C 667.907 -4.89236 -1.8288 0
M  V30 6739 H 669.601 -2.8897 -0.783359 0
M  V30 6740 H 667.147 -1.39021 -0.375376 0
M  V30 6741 H 669.1 -2.72462 -3.21469 0
M  V30 6742 H 667.824 -1.52573 -2.88771 0
M  V30 6743 H 666.483 -3.26895 -1.65938 0
M  V30 6744 H 666.131 -2.9024 -4.10816 0
M  V30 6745 H 665.831 -4.59944 -3.65685 0
M  V30 6746 H 667.355 -4.15347 -4.47571 0
M  V30 6747 H 668.769 -5.18272 -2.45085 0
M  V30 6748 H 667.166 -5.70624 -1.85763 0
M  V30 6749 H 668.236 -4.78494 -0.785571 0
M  V30 6750 N 669.579 0.400081 -1.52437 0
M  V30 6751 C 670.827 1.14392 -1.6661 0
M  V30 6752 C 671.148 1.90792 -0.402927 0
M  V30 6753 O 670.418 1.87042 0.582425 0
M  V30 6754 H 668.998 0.425275 -0.614125 0
M  V30 6755 H 671.66 0.455076 -1.89513 0
M  V30 6756 H 670.756 1.85298 -2.51139 0
M  V30 6757 N 671.057 1.43213 0.657864 0
M  V30 6758 C 672.007 1.44459 1.76396 0
M  V30 6759 C 672.991 0.313641 1.57814 0
M  V30 6760 O 674.183 0.557094 1.68004 0
M  V30 6761 C 671.312 1.36586 3.14959 0
M  V30 6762 C 670.398 2.54692 3.39106 0
M  V30 6763 N 670.789 3.80059 3.33749 0
M  V30 6764 C 669.087 2.49316 3.69807 0
M  V30 6765 C 669.788 4.58606 3.57849 0
M  V30 6766 N 668.764 3.89267 3.79437 0
M  V30 6767 H 672.566 2.39265 1.70673 0
M  V30 6768 H 670.08 1.378 0.859357 0
M  V30 6769 H 672.077 1.35561 3.94245 0
M  V30 6770 H 670.737 0.427956 3.21867 0
M  V30 6771 H 671.748 4.12414 3.13266 0
M  V30 6772 H 668.425 1.6419 3.83859 0
M  V30 6773 H 669.815 5.67619 3.59525 0
M  V30 6774 N 672.536 -0.895792 1.29666 0
M  V30 6775 C 673.499 -1.98189 1.15124 0
M  V30 6776 C 674.499 -1.60572 0.0855717 0
M  V30 6777 O 675.689 -1.70991 0.332826 0
M  V30 6778 C 672.821 -3.32289 0.761372 0
M  V30 6779 H 674.014 -2.12518 2.11603 0
M  V30 6780 H 671.567 -1.0808 1.12908 0
M  V30 6781 H 672.302 -3.23662 -0.203393 0
M  V30 6782 H 672.087 -3.60958 1.53139 0
M  V30 6783 H 673.577 -4.1198 0.682792 0
M  V30 6784 N 674.014 -1.12206 -1.10668 0
M  V30 6785 C 674.944 -0.810086 -2.18997 0
M  V30 6786 C 675.925 0.225065 -1.68604 0
M  V30 6787 O 677.11 0.086783 -1.94006 0
M  V30 6788 C 674.24 -0.261262 -3.46316 0
M  V30 6789 C 673.194 -1.2292 -4.09969 0
M  V30 6790 C 672.52 -0.540713 -5.31959 0
M  V30 6791 C 673.82 -2.58295 -4.53962 0
M  V30 6792 H 675.514 -1.7159 -2.45352 0
M  V30 6793 H 673.06 -0.82646 -1.17922 0
M  V30 6794 H 675.013 -0.0307522 -4.21389 0
M  V30 6795 H 673.737 0.679879 -3.19445 0
M  V30 6796 H 672.396 -1.44548 -3.369 0
M  V30 6797 H 672.044 0.405492 -5.01363 0
M  V30 6798 H 671.744 -1.18637 -5.75499 0
M  V30 6799 H 673.268 -0.319184 -6.09765 0
M  V30 6800 H 674.682 -2.40709 -5.20319 0
M  V30 6801 H 673.079 -3.18916 -5.08343 0
M  V30 6802 H 674.149 -3.16918 -3.67002 0
M  V30 6803 N 675.492 1.28418 -0.913599 0
M  V30 6804 C 676.442 2.24928 -0.373042 0
M  V30 6805 C 677.426 1.52444 0.514753 0
M  V30 6806 O 678.618 1.73414 0.3545 0
M  V30 6807 C 675.747 3.41124 0.385896 0
M  V30 6808 C 674.833 4.20929 -0.51761 0
M  V30 6809 N 675.224 4.78777 -1.63113 0
M  V30 6810 C 673.522 4.44865 -0.317969 0
M  V30 6811 C 674.223 5.38822 -2.19193 0
M  V30 6812 N 673.199 5.22974 -1.48321 0
M  V30 6813 H 677.001 2.67224 -1.22346 0
M  V30 6814 H 674.515 1.43187 -0.766236 0
M  V30 6815 H 676.512 4.09347 0.789997 0
M  V30 6816 H 675.172 3.00362 1.23341 0
M  V30 6817 H 676.183 4.77148 -2.01372 0
M  V30 6818 H 672.86 4.14614 0.49004 0
M  V30 6819 H 674.25 5.94615 -3.12861 0
M  V30 6820 N 676.97 0.677563 1.42291 0
M  V30 6821 C 678.219 0.198173 2.00724 0
M  V30 6822 C 678.532 -1.20325 1.54211 0
M  V30 6823 O 679.738 -1.77916 2.05081 0
M  V30 6824 C 678.194 0.303432 3.58619 0
M  V30 6825 C 677.802 1.70909 4.14119 0
M  V30 6826 C 679.546 -0.117103 4.24338 0
M  V30 6827 C 677.453 1.76696 5.64387 0
M  V30 6828 H 676.383 0.070329 0.750713 0
M  V30 6829 H 679.034 0.843147 1.62982 0
M  V30 6830 H 677.416 -0.409482 3.93877 0
M  V30 6831 H 678.59 2.44931 3.90315 0
M  V30 6832 H 676.905 2.07771 3.6086 0
M  V30 6833 H 679.502 -0.0940471 5.34617 0
M  V30 6834 H 679.845 -1.15283 4.00019 0
M  V30 6835 H 680.378 0.5449 3.9405 0
M  V30 6836 H 677.117 2.7826 5.93508 0
M  V30 6837 H 676.637 1.07034 5.90173 0
M  V30 6838 H 678.316 1.52166 6.28852 0
M  V30 6839 O 678.487 -1.51362 0.563185 0
M  V30 6840 H 679.178 -1.936 0.0623735 0
M  V30 END ATOM
M  V30 BEGIN BOND
M  V30 END BOND
M  V30 END CTAB
M  END
$$$$
