drugbank_target|P09038 Fibroblast growth factor 2 (DB00364; DB00686; DB00877; DB01109; DB03935; DB03959; DB03981; DB05434)
 OpenBabel12092119453D

  0  0  0     0  0            999 V3000
M  V30 BEGIN CTAB
M  V30 COUNTS 4344 4390 0 0 0
M  V30 BEGIN ATOM
M  V30 1 H -0.908 1.98254 -0.117106 0
M  V30 2 N 0 1.576 0 0
M  V30 3 C 0.933 2.03868 1.02534 0
M  V30 4 C 1.911 0.928543 1.3348 0
M  V30 5 O 3.095 1.19667 1.45644 0
M  V30 6 C 0.222 2.43627 2.35294 0
M  V30 7 C -0.732 3.65373 2.2001 0
M  V30 8 S 0.101 5.13292 1.52614 0
M  V30 9 C 1.257 5.56322 2.86805 0
M  V30 10 H 1.49 2.90518 0.631377 0
M  V30 11 H -0.977 1.52953 0.210867 0
M  V30 12 H 0.981 2.67203 3.11629 0
M  V30 13 H -0.358 1.57376 2.7183 0
M  V30 14 H -1.165 3.90944 3.18086 0
M  V30 15 H -1.563 3.418 1.51819 0
M  V30 16 H 0.729 5.58782 3.83104 0
M  V30 17 H 1.672 6.56266 2.65933 0
M  V30 18 H 2.08 4.83886 2.90714 0
M  V30 19 N 1.4781 -0.272755 1.55222 0
M  V30 20 C 2.7241 -1.00581 1.761 0
M  V30 21 C 3.0571 -1.85932 0.560625 0
M  V30 22 O 2.3321 -1.89416 -0.441801 0
M  V30 23 C 2.6151 -1.88816 3.06628 0
M  V30 24 C 2.4681 -1.06457 4.37021 0
M  V30 25 C 3.7871 -2.8752 3.33197 0
M  V30 26 H 0.9061 -0.364244 0.640699 0
M  V30 27 H 3.5481 -0.278189 1.87952 0
M  V30 28 H 1.6981 -2.50856 2.96654 0
M  V30 29 H 3.3701 -0.464863 4.58952 0
M  V30 30 H 1.6131 -0.368043 4.32236 0
M  V30 31 H 2.2841 -1.71514 5.24678 0
M  V30 32 H 4.7601 -2.35615 3.42965 0
M  V30 33 H 3.6361 -3.46399 4.25792 0
M  V30 34 H 3.8971 -3.62657 2.52849 0
M  V30 35 N 2.9562 -1.48159 -0.537278 0
M  V30 36 C 4.2042 -1.55497 -1.29094 0
M  V30 37 C 4.5252 -0.227454 -1.93669 0
M  V30 38 O 3.7952 0.750386 -1.80959 0
M  V30 39 H 2.3752 -0.572832 -0.47945 0
M  V30 40 H 5.0372 -1.84579 -0.625818 0
M  V30 41 H 4.1332 -2.33216 -2.07405 0
M  V30 42 N 4.4343 0.785586 -1.36625 0
M  V30 43 C 5.6803 1.54591 -1.31261 0
M  V30 44 C 6.0133 1.93906 0.106823 0
M  V30 45 O 5.2883 1.63007 1.06108 0
M  V30 46 C 5.5713 2.82038 -2.23889 0
M  V30 47 C 5.4243 2.49066 -3.74548 0
M  V30 48 C 6.7433 3.83887 -2.15217 0
M  V30 49 H 3.8623 0.560846 -0.478143 0
M  V30 50 H 6.5043 0.902278 -1.67209 0
M  V30 51 H 4.6543 3.36961 -1.93363 0
M  V30 52 H 6.3263 2.00164 -4.15611 0
M  V30 53 H 4.5693 1.81954 -3.93796 0
M  V30 54 H 5.2403 3.40109 -4.34776 0
M  V30 55 H 7.7163 3.38421 -2.42096 0
M  V30 56 H 6.5923 4.70806 -2.82193 0
M  V30 57 H 6.8533 4.27131 -1.14068 0
M  V30 58 N 5.9124 1.20967 1.01018 0
M  V30 59 C 7.1604 1.02172 1.74371 0
M  V30 60 C 7.4814 -0.446414 1.89821 0
M  V30 61 O 6.7514 -1.32234 1.44537 0
M  V30 62 H 5.3314 0.375066 0.646014 0
M  V30 63 H 7.9934 1.52187 1.21758 0
M  V30 64 H 7.0894 1.48538 2.74487 0
M  V30 65 N 7.3905 -1.2043 1.01659 0
M  V30 66 C 8.6385 -1.89423 0.704522 0
M  V30 67 C 8.9595 -1.79231 -0.768197 0
M  V30 68 O 8.2295 -1.1947 -1.55254 0
M  V30 69 H 6.8095 -0.701178 0.257602 0
M  V30 70 H 9.4715 -1.4626 1.28818 0
M  V30 71 H 8.5675 -2.96052 0.987916 0
M  V30 72 N 8.8686 -0.792821 -1.36206 0
M  V30 73 C 10.1166 -0.366062 -1.98757 0
M  V30 74 C 10.4376 1.0668 -1.63231 0
M  V30 75 O 9.7076 1.73587 -0.907978 0
M  V30 76 H 8.2876 -0.132364 -0.735179 0
M  V30 77 H 10.9496 -1.01562 -1.66347 0
M  V30 78 H 10.0456 -0.460638 -3.08682 0
M  V30 79 N 10.3467 1.47872 -0.545128 0
M  V30 80 C 11.6237 1.9554 0.0485222 0
M  V30 81 C 12.0037 1.4876 1.49779 0
M  V30 82 O 11.3517 0.720925 2.16829 0
M  V30 83 C 11.5617 3.48898 -0.084417 0
M  V30 84 C 12.9097 4.24547 0.0671239 0
M  V30 85 O 13.9337 3.56198 -0.0113649 0
M  V30 86 O 12.7927 5.45999 0.233882 0
M  V30 87 H 9.8867 0.823957 0.0708773 0
M  V30 88 H 12.4327 1.58327 -0.610798 0
M  V30 89 H 11.2047 3.75714 -1.09337 0
M  V30 90 H 10.8277 3.92845 0.613066 0
M  V30 91 N 11.8248 0.280983 1.55075 0
M  V30 92 C 13.0708 -0.33461 2.00021 0
M  V30 93 C 13.4038 -1.55063 1.16915 0
M  V30 94 O 12.6788 -1.93006 0.240646 0
M  V30 95 C 12.9618 -0.711007 3.53011 0
M  V30 96 C 12.8148 0.512766 4.46868 0
M  V30 97 C 14.1338 -1.54522 4.12081 0
M  V30 98 H 11.2528 -0.120147 0.727141 0
M  V30 99 H 13.8948 0.389097 1.85973 0
M  V30 100 H 12.0448 -1.32761 3.65112 0
M  V30 101 H 13.7168 1.15131 4.46702 0
M  V30 102 H 11.9598 1.14975 4.18286 0
M  V30 103 H 12.6308 0.205556 5.51617 0
M  V30 104 H 15.1068 -1.02442 4.03293 0
M  V30 105 H 13.9828 -1.77739 5.19327 0
M  V30 106 H 14.2438 -2.52813 3.62682 0
M  V30 107 N 13.3029 -1.57598 0.00835791 0
M  V30 108 C 14.2129 -2.12385 -0.996487 0
M  V30 109 C 15.2289 -1.07108 -1.37127 0
M  V30 110 O 16.4049 -1.39055 -1.4569 0
M  V30 111 C 13.4699 -2.62314 -2.26699 0
M  V30 112 C 12.5309 -3.82225 -1.95456 0
M  V30 113 C 11.7639 -4.29763 -3.16449 0
M  V30 114 O 11.9869 -3.76584 -4.28416 0
M  V30 115 O 10.9209 -5.21832 -2.99958 0
M  V30 116 H 14.7469 -2.98479 -0.560725 0
M  V30 117 H 12.3319 -1.47903 -0.210987 0
M  V30 118 H 14.2139 -2.94589 -3.01322 0
M  V30 119 H 12.8889 -1.79313 -2.69497 0
M  V30 120 H 11.7959 -3.54909 -1.18282 0
M  V30 121 H 13.1289 -4.66324 -1.57489 0
M  V30 122 N 14.781 0.264519 -1.55364 0
M  V30 123 C 16.058 1.01677 -1.67096 0
M  V30 124 C 16.438 2.03996 -0.543015 0
M  V30 125 O 15.786 2.23907 0.45585 0
M  V30 126 C 15.996 1.66596 -3.0667 0
M  V30 127 C 17.344 2.17442 -3.64697 0
M  V30 128 O 18.368 1.76568 -3.09358 0
M  V30 129 O 17.227 2.92439 -4.61673 0
M  V30 130 H 14.321 0.472161 -0.678965 0
M  V30 131 H 16.867 0.259703 -1.67701 0
M  V30 132 H 15.639 0.924962 -3.80211 0
M  V30 133 H 15.262 2.48968 -3.10001 0
M  V30 134 N 16.2591 1.48442 0.529413 0
M  V30 135 C 17.5051 1.5672 1.28711 0
M  V30 136 C 17.8381 0.2406 1.92704 0
M  V30 137 O 17.1131 -0.753454 1.79313 0
M  V30 138 C 17.3961 2.70587 2.37603 0
M  V30 139 C 17.2491 4.12953 1.78297 0
M  V30 140 C 18.5681 2.80212 3.39366 0
M  V30 141 H 15.6871 0.570474 0.466613 0
M  V30 142 H 18.3291 1.80617 0.589706 0
M  V30 143 H 16.4791 2.50342 2.97088 0
M  V30 144 H 18.1511 4.44639 1.22858 0
M  V30 145 H 16.3941 4.19927 1.0883 0
M  V30 146 H 17.0651 4.88448 2.57144 0
M  V30 147 H 19.5411 2.98553 2.89836 0
M  V30 148 H 18.4171 3.61611 4.12951 0
M  V30 149 H 18.6781 1.88393 3.99951 0
M  V30 150 N 17.7372 -0.778329 1.37039 0
M  V30 151 C 18.9652 -1.56734 1.35063 0
M  V30 152 C 19.3802 -1.88686 -0.0655597 0
M  V30 153 O 18.7372 -1.5096 -1.02554 0
M  V30 154 C 18.7882 -2.88163 2.18276 0
M  V30 155 O 18.5092 -2.57583 3.54376 0
M  V30 156 C 20.0102 -3.82422 2.24206 0
M  V30 157 H 17.2302 -0.485778 0.462883 0
M  V30 158 H 19.7742 -0.965185 1.8029 0
M  V30 159 H 17.9292 -3.44818 1.76576 0
M  V30 160 H 18.3432 -3.41699 3.97922 0
M  V30 161 H 19.8172 -4.71667 2.86765 0
M  V30 162 H 20.2942 -4.21078 1.24861 0
M  V30 163 H 20.9002 -3.31697 2.6619 0
M  V30 164 N 19.2153 -1.21501 -1.00376 0
M  V30 165 C 20.6263 -1.03146 -1.55621 0
M  V30 166 C 20.9773 0.408375 -1.91903 0
M  V30 167 O 20.1023 1.29177 -1.73616 0
M  V30 168 C 20.6973 -1.86612 -2.82775 0
M  V30 169 C 19.2563 -1.72586 -3.34501 0
M  V30 170 C 18.4033 -1.83747 -2.07683 0
M  V30 171 H 21.3543 -1.35505 -0.826081 0
M  V30 172 H 21.3753 -1.3771 -3.54706 0
M  V30 173 H 20.8873 -2.91399 -2.56336 0
M  V30 174 H 18.9883 -0.704877 -3.65872 0
M  V30 175 H 19.1013 -2.54623 -4.05837 0
M  V30 176 H 17.4653 -1.27069 -2.20739 0
M  V30 177 H 18.2483 -2.90044 -1.83655 0
M  V30 178 N 20.6934 1.19889 -1.02296 0
M  V30 179 C 22.1094 1.41462 -0.738954 0
M  V30 180 C 22.3094 1.89721 0.678846 0
M  V30 181 O 21.3654 2.07016 1.4457 0
M  V30 182 C 22.6784 2.43083 -1.77005 0
M  V30 183 C 24.2264 2.5684 -1.78892 0
M  V30 184 C 24.7014 3.61709 -2.80945 0
M  V30 185 N 26.1924 3.69199 -2.79725 0
M  V30 186 C 26.9274 4.50019 -3.55345 0
M  V30 187 N 26.4234 5.34592 -4.40662 0
M  V30 188 N 28.2164 4.44612 -3.43914 0
M  V30 189 H 20.3674 0.868827 -1.93817 0
M  V30 190 H 22.6304 0.44399 -0.837602 0
M  V30 191 H 22.3364 2.14636 -2.78612 0
M  V30 192 H 22.2104 3.4217 -1.58744 0
M  V30 193 H 24.5974 2.84614 -0.779674 0
M  V30 194 H 24.6784 1.57927 -2.01228 0
M  V30 195 H 24.3224 3.34678 -3.82038 0
M  V30 196 H 24.2524 4.60259 -2.5587 0
M  V30 197 H 26.7434 3.08794 -2.17842 0
M  V30 198 H 27.0564 5.93363 -4.95116 0
M  V30 199 H 25.4014 5.34073 -4.44737 0
M  V30 200 H 28.5924 3.7758 -2.76679 0
M  V30 201 H 28.7654 5.0736 -4.031 0
M  V30 202 N 22.1715 0.800033 1.35784 0
M  V30 203 C 23.5825 0.439142 1.81462 0
M  V30 204 C 23.9335 -1.03813 1.66485 0
M  V30 205 O 23.0585 -1.80626 1.19177 0
M  V30 206 C 23.6535 0.790314 3.29453 0
M  V30 207 C 22.2125 0.482111 3.733 0
M  V30 208 C 21.3595 1.01938 2.57883 0
M  V30 209 H 24.3105 0.992254 1.23855 0
M  V30 210 H 24.3315 0.0853677 3.80404 0
M  V30 211 H 23.8435 1.86554 3.40322 0
M  V30 212 H 21.9445 -0.584652 3.67984 0
M  V30 213 H 22.0575 1.01015 4.6833 0
M  V30 214 H 20.4215 0.442043 2.50835 0
M  V30 215 H 21.2045 2.10059 2.71533 0
M  V30 216 N 23.6496 -1.47581 0.552962 0
M  V30 217 C 24.8976 -2.02082 0.0272703 0
M  V30 218 C 25.2186 -1.4301 -1.32563 0
M  V30 219 O 24.4886 -0.603745 -1.86365 0
M  V30 220 H 23.0686 -0.746966 0.00709182 0
M  V30 221 H 25.7306 -1.81033 0.722008 0
M  V30 222 H 24.8266 -3.12034 -0.0639951 0
M  V30 223 N 25.1277 -0.289203 -1.54924 0
M  V30 224 C 26.3757 0.322879 -1.99504 0
M  V30 225 C 26.6967 1.55313 -1.1791 0
M  V30 226 O 25.9667 1.94001 -0.272097 0
M  V30 227 H 24.5467 0.122291 -0.736922 0
M  V30 228 H 27.2087 -0.397802 -1.90797 0
M  V30 229 H 26.3047 0.603061 -3.06218 0
M  V30 230 N 26.6058 1.57591 -0.0167156 0
M  V30 231 C 27.8458 1.93145 0.668902 0
M  V30 232 C 28.2098 0.892406 1.7 0
M  V30 233 O 29.4108 1.13373 2.43721 0
M  V30 234 C 27.6818 3.33678 1.28039 0
M  V30 235 S 29.2408 3.91142 1.9888 0
M  V30 236 H 26.0588 0.67593 0.220545 0
M  V30 237 H 28.6608 1.95347 -0.0774105 0
M  V30 238 H 27.3648 4.07126 0.517339 0
M  V30 239 H 26.8958 3.3489 2.06427 0
M  V30 240 H 28.9108 3.73571 3.26587 0
M  V30 241 N 28.0839 -0.256276 1.55502 0
M  V30 242 C 29.0159 -1.33981 1.85962 0
M  V30 243 C 30.0289 -1.44743 0.745212 0
M  V30 244 O 31.2179 -1.4626 1.02324 0
M  V30 245 C 28.3179 -2.7194 2.02242 0
M  V30 246 C 27.4909 -2.83562 3.33033 0
M  V30 247 C 26.5499 -4.02304 3.39172 0
M  V30 248 O 25.5759 -3.92273 4.12444 0
M  V30 249 N 26.7779 -5.15045 2.67784 0
M  V30 250 H 29.5429 -1.08191 2.7949 0
M  V30 251 H 27.1039 -0.446388 1.55624 0
M  V30 252 H 29.0959 -3.49697 2.03701 0
M  V30 253 H 27.6659 -2.90479 1.15502 0
M  V30 254 H 26.8859 -1.92555 3.43971 0
M  V30 255 H 28.1739 -2.88271 4.19258 0
M  V30 256 H 27.5719 -5.26085 2.07968 0
M  V30 257 H 26.1289 -5.90972 2.74947 0
M  V30 258 N 29.562 -1.4872 -0.521534 0
M  V30 259 C 30.811 -1.56419 -1.27341 0
M  V30 260 C 31.124 -0.246805 -1.94037 0
M  V30 261 O 32.33 -0.202122 -2.70747 0
M  V30 262 C 30.786 -2.75896 -2.31105 0
M  V30 263 C 30.394 -4.14311 -1.70441 0
M  V30 264 C 32.138 -2.92913 -3.07249 0
M  V30 265 C 30.045 -5.25038 -2.72194 0
M  V30 266 H 28.975 -0.582344 -0.478949 0
M  V30 267 H 31.626 -1.75071 -0.549779 0
M  V30 268 H 30.008 -2.50697 -3.06541 0
M  V30 269 H 31.182 -4.49564 -1.01136 0
M  V30 270 H 29.497 -4.02482 -1.06759 0
M  V30 271 H 32.094 -3.72805 -3.83302 0
M  V30 272 H 32.437 -2.02689 -3.63625 0
M  V30 273 H 32.97 -3.18054 -2.38928 0
M  V30 274 H 29.709 -6.17255 -2.20627 0
M  V30 275 H 29.229 -4.94263 -3.39801 0
M  V30 276 H 30.908 -5.53508 -3.35019 0
M  V30 277 N 31.0401 0.771051 -1.3745 0
M  V30 278 C 32.2651 1.56529 -1.36065 0
M  V30 279 C 32.6901 1.88029 0.0515859 0
M  V30 280 O 32.0481 1.49282 1.02882 0
M  V30 281 C 32.0961 2.85187 -2.20683 0
M  V30 282 O 31.2001 3.79593 -1.61193 0
M  V30 283 H 30.5411 0.47411 -0.464883 0
M  V30 284 H 33.0711 0.954269 -1.80983 0
M  V30 285 H 33.0811 3.34283 -2.33921 0
M  V30 286 H 31.7561 2.61588 -3.23334 0
M  V30 287 H 30.3331 3.38239 -1.56999 0
M  V30 288 N 32.5182 1.22032 0.997298 0
M  V30 289 C 33.7662 1.04016 1.73278 0
M  V30 290 C 34.0872 -0.426255 1.90284 0
M  V30 291 O 33.3572 -1.30694 1.45931 0
M  V30 292 H 31.9372 0.381897 0.642 0
M  V30 293 H 34.5992 1.5347 1.20137 0
M  V30 294 H 33.6952 1.51441 2.72896 0
M  V30 295 N 33.9963 -1.19345 1.0293 0
M  V30 296 C 35.4123 -1.41069 0.746446 0
M  V30 297 C 35.6123 -1.90078 -0.668776 0
M  V30 298 O 34.6683 -2.0778 -1.4347 0
M  V30 299 C 35.9813 -2.42141 1.78292 0
M  V30 300 C 37.5293 -2.55887 1.80252 0
M  V30 301 C 38.0043 -3.60214 2.8286 0
M  V30 302 N 39.4953 -3.67711 2.81679 0
M  V30 303 C 40.2303 -4.48128 3.57727 0
M  V30 304 N 39.7263 -5.32248 4.43491 0
M  V30 305 N 41.5193 -4.42782 3.46267 0
M  V30 306 H 33.6703 -0.858536 1.94275 0
M  V30 307 H 35.9333 -0.439541 0.839945 0
M  V30 308 H 35.6393 -2.13155 2.79746 0
M  V30 309 H 35.5133 -3.41323 1.60557 0
M  V30 310 H 37.9003 -2.84196 0.794757 0
M  V30 311 H 37.9813 -1.56858 2.02062 0
M  V30 312 H 37.6253 -3.32647 3.83807 0
M  V30 313 H 37.5553 -4.58895 2.58307 0
M  V30 314 H 40.0463 -3.07634 2.19476 0
M  V30 315 H 40.3593 -5.90729 4.98256 0
M  V30 316 H 38.7043 -5.31707 4.47564 0
M  V30 317 H 41.8953 -3.76107 2.78677 0
M  V30 318 H 42.0683 -5.05215 4.05785 0
M  V30 319 N 35.4744 -0.807222 -1.35358 0
M  V30 320 C 36.7224 -0.387122 -1.98358 0
M  V30 321 C 37.0434 1.04942 -1.64354 0
M  V30 322 O 36.3134 1.72615 -0.926339 0
M  V30 323 H 34.8934 -0.140154 -0.733734 0
M  V30 324 H 37.5554 -1.0332 -1.6526 0
M  V30 325 H 36.6514 -0.493352 -3.08176 0
M  V30 326 N 36.9525 1.47285 -0.560781 0
M  V30 327 C 37.9155 2.28535 0.174488 0
M  V30 328 C 38.9155 1.37153 0.839388 0
M  V30 329 O 40.1055 1.59748 0.694702 0
M  V30 330 C 37.2375 3.16934 1.25561 0
M  V30 331 H 38.4305 2.95012 -0.539262 0
M  V30 332 H 35.9835 1.53034 -0.317865 0
M  V30 333 H 36.7185 2.55157 2.00164 0
M  V30 334 H 36.5035 3.8419 0.783604 0
M  V30 335 H 37.9935 3.78143 1.77193 0
M  V30 336 N 38.4306 0.297415 1.54768 0
M  V30 337 C 39.8466 -0.0560823 1.59501 0
M  V30 338 C 40.0466 -1.52725 1.31444 0
M  V30 339 O 39.1026 -2.27947 1.08611 0
M  V30 340 C 40.4156 0.338631 2.98787 0
M  V30 341 C 41.9636 0.287097 3.11681 0
M  V30 342 C 42.4386 0.656579 4.53269 0
M  V30 343 N 43.9296 0.608977 4.59179 0
M  V30 344 C 44.6646 0.867385 5.66802 0
M  V30 345 N 44.1606 1.19157 6.82476 0
M  V30 346 N 45.9536 0.794687 5.56454 0
M  V30 347 H 38.1046 1.25624 1.71267 0
M  V30 348 H 40.3676 0.509057 0.799728 0
M  V30 349 H 40.0736 1.36263 3.2423 0
M  V30 350 H 39.9476 -0.309508 3.75928 0
M  V30 351 H 42.3346 -0.727649 2.85988 0
M  V30 352 H 42.4156 0.969809 2.36703 0
M  V30 353 H 42.0596 1.66912 4.7969 0
M  V30 354 H 41.9896 -0.0481649 5.26578 0
M  V30 355 H 44.4806 0.369198 3.76092 0
M  V30 356 H 44.7936 1.37482 7.60473 0
M  V30 357 H 43.1386 1.22958 6.84037 0
M  V30 358 H 46.3296 0.541098 4.64962 0
M  V30 359 H 46.5026 0.999445 6.40246 0
M  V30 360 N 39.9087 -1.5758 0.0250728 0
M  V30 361 C 41.1567 -1.91255 -0.653151 0
M  V30 362 C 41.4777 -0.901691 -1.729 0
M  V30 363 O 40.7477 0.0573785 -1.95816 0
M  V30 364 H 39.3277 -0.705942 -0.244243 0
M  V30 365 H 41.9897 -1.94767 0.0719209 0
M  V30 366 H 41.0857 -2.91752 -1.10847 0
M  V30 367 N 41.3868 0.248026 -1.55636 0
M  V30 368 C 42.6268 0.983592 -1.79178 0
M  V30 369 C 42.9908 1.82567 -0.594414 0
M  V30 370 O 44.1918 2.59292 -0.708583 0
M  V30 371 C 42.4628 1.82228 -3.07454 0
M  V30 372 S 44.0218 2.61709 -3.52213 0
M  V30 373 H 40.8398 0.330866 -0.629324 0
M  V30 374 H 43.4418 0.251562 -1.93875 0
M  V30 375 H 42.1458 1.19333 -3.92668 0
M  V30 376 H 41.6768 2.59708 -2.95492 0
M  V30 377 H 43.6918 3.84655 -3.13457 0
M  V30 378 N 42.8649 1.48995 0.513639 0
M  V30 379 C 43.8129 1.65199 1.63744 0
M  V30 380 C 44.8069 0.51809 1.61283 0
M  V30 381 O 46.0129 0.697335 1.65943 0
M  V30 382 H 42.3879 0.52069 0.542574 0
M  V30 383 H 44.3589 2.59552 1.47226 0
M  V30 384 C 43.1079 1.72409 3.01945 0
M  V30 385 H 42.4309 2.59029 3.04539 0
M  V30 386 H 43.8709 1.87785 3.80148 0
M  V30 387 C 42.3299 0.46618 3.33659 0
M  V30 388 O 42.8599 -0.413744 3.99564 0
M  V30 389 N 41.0659 0.332931 2.88687 0
M  V30 390 H 40.6129 1.04996 2.35231 0
M  V30 391 H 40.5709 -0.507665 3.10274 0
M  V30 392 N 44.343 -0.763751 1.37857 0
M  V30 393 C 45.591 -1.51957 1.33243 0
M  V30 394 C 45.912 -1.94835 -0.0801709 0
M  V30 395 O 45.182 -1.66894 -1.02582 0
M  V30 396 H 43.762 -0.563626 0.49024 0
M  V30 397 H 46.424 -0.908504 1.7243 0
M  V30 398 H 45.52 -2.41523 1.97669 0
M  V30 399 N 45.8211 -1.22559 -0.990812 0
M  V30 400 C 47.0701 -1.04553 -1.72486 0
M  V30 401 C 47.3831 0.419349 -1.91052 0
M  V30 402 O 48.5891 0.719121 -2.61803 0
M  V30 403 C 47.0451 -1.82231 -3.10355 0
M  V30 404 C 46.6531 -3.32981 -2.99713 0
M  V30 405 C 48.3971 -1.7268 -3.87791 0
M  V30 406 C 46.3041 -4.03091 -4.32748 0
M  V30 407 H 45.2341 -0.387614 -0.646739 0
M  V30 408 H 47.8851 -1.46429 -1.10593 0
M  V30 409 H 46.2671 -1.33155 -3.72942 0
M  V30 410 H 47.4411 -3.89466 -2.46278 0
M  V30 411 H 45.7561 -3.43231 -2.35758 0
M  V30 412 H 48.3531 -2.22381 -4.86262 0
M  V30 413 H 48.6961 -0.687607 -4.10582 0
M  V30 414 H 49.2291 -2.1931 -3.31885 0
M  V30 415 H 45.9681 -5.07273 -4.15156 0
M  V30 416 H 45.4881 -3.51394 -4.86089 0
M  V30 417 H 47.1671 -4.08804 -5.01486 0
M  V30 418 N 47.2992 1.18797 -1.03562 0
M  V30 419 C 48.7102 1.70322 -0.764676 0
M  V30 420 C 49.0612 1.82708 0.714996 0
M  V30 421 O 48.1862 1.50299 1.55689 0
M  V30 422 C 48.7812 3.09356 -1.38145 0
M  V30 423 C 47.3402 3.58114 -1.15895 0
M  V30 424 C 46.4872 2.34798 -1.4753 0
M  V30 425 H 49.4382 1.03543 -1.20268 0
M  V30 426 H 49.4592 3.72378 -0.781977 0
M  V30 427 H 48.9712 3.00309 -2.45837 0
M  V30 428 H 47.0722 3.72464 -0.100544 0
M  V30 429 H 47.1852 4.4184 -1.8524 0
M  V30 430 H 45.5492 2.38464 -0.894829 0
M  V30 431 H 46.3322 2.28375 -2.56319 0
M  V30 432 N 48.7773 0.814389 1.34928 0
M  V30 433 C 50.0253 0.397636 1.9815 0
M  V30 434 C 50.3463 -1.04069 1.64908 0
M  V30 435 O 49.6163 -1.72121 0.93548 0
M  V30 436 H 48.1963 0.144043 0.732981 0
M  V30 437 H 50.8583 1.04195 1.6471 0
M  V30 438 H 49.9543 0.509688 3.0791 0
M  V30 439 N 50.2554 -1.46986 0.568584 0
M  V30 440 C 51.2184 -2.28624 -0.162366 0
M  V30 441 C 52.2184 -1.37596 -0.832103 0
M  V30 442 O 53.4084 -1.60115 -0.68622 0
M  V30 443 C 50.5404 -3.17596 -1.23878 0
M  V30 444 H 51.7334 -2.94722 0.554899 0
M  V30 445 H 49.2864 -1.52863 0.325976 0
M  V30 446 H 50.0214 -2.56214 -1.98808 0
M  V30 447 H 49.8064 -3.846 -0.763219 0
M  V30 448 H 51.2964 -3.79078 -1.75185 0
M  V30 449 N 51.7335 -0.305618 -1.54608 0
M  V30 450 C 52.6965 0.555591 -2.22364 0
M  V30 451 C 53.6965 1.05768 -1.21119 0
M  V30 452 O 54.8865 0.952972 -1.45822 0
M  V30 453 C 52.0185 1.76974 -2.91364 0
M  V30 454 H 53.2115 -0.0364572 -2.99878 0
M  V30 455 H 50.7645 -0.0565007 -1.56198 0
M  V30 456 H 51.4995 2.40151 -2.17941 0
M  V30 457 H 51.2845 1.41732 -3.65588 0
M  V30 458 H 52.7745 2.38148 -3.43038 0
M  V30 459 N 53.2116 1.57565 -0.0334293 0
M  V30 460 C 54.1746 2.09393 0.932048 0
M  V30 461 C 55.1746 1.00986 1.25134 0
M  V30 462 O 56.3646 1.27129 1.19096 0
M  V30 463 C 53.4966 2.56338 2.2473 0
M  V30 464 H 54.6896 2.95984 0.483085 0
M  V30 465 H 52.2426 1.54819 0.21468 0
M  V30 466 H 52.9776 1.7309 2.74245 0
M  V30 467 H 52.7626 3.35542 2.02865 0
M  V30 468 H 54.2526 2.96646 2.93923 0
M  V30 469 N 54.6897 -0.239769 1.55765 0
M  V30 470 C 55.9357 -0.963942 1.79108 0
M  V30 471 C 56.2907 -1.82689 0.60352 0
M  V30 472 O 55.5837 -1.87313 -0.403033 0
M  V30 473 C 55.7777 -1.852 3.05672 0
M  V30 474 C 55.6067 -1.07651 4.36625 0
M  V30 475 C 54.3767 -0.778738 4.99263 0
M  V30 476 C 56.5747 -0.45062 5.12322 0
M  V30 477 N 54.5567 0.0200708 6.13897 0
M  V30 478 C 55.9277 0.212429 6.19636 0
M  V30 479 C 57.9827 -0.361806 4.96584 0
M  V30 480 C 56.6857 0.955772 7.12922 0
M  V30 481 C 58.7117 0.368023 5.90254 0
M  V30 482 C 58.0737 1.01968 6.96981 0
M  V30 483 H 54.1727 -0.333601 0.707272 0
M  V30 484 H 56.7567 -0.236425 1.93259 0
M  V30 485 H 54.9277 -2.55149 2.92837 0
M  V30 486 H 56.6597 -2.51228 3.1728 0
M  V30 487 H 53.4147 -1.09229 4.60832 0
M  V30 488 H 53.8387 0.407777 6.75771 0
M  V30 489 H 58.4807 -0.851286 4.14141 0
M  V30 490 H 56.1987 1.45683 7.9486 0
M  V30 491 H 59.7847 0.437504 5.80153 0
M  V30 492 H 58.6647 1.5754 7.68213 0
M  V30 493 N 56.1678 -1.49265 -0.50573 0
M  V30 494 C 57.0778 -1.68312 -1.63427 0
M  V30 495 C 58.0938 -0.565682 -1.64548 0
M  V30 496 O 59.2698 -0.839801 -1.83055 0
M  V30 497 C 56.3348 -1.74107 -2.99813 0
M  V30 498 C 55.3958 -2.97653 -3.09356 0
M  V30 499 C 54.6288 -3.03163 -4.39236 0
M  V30 500 O 54.8518 -2.16396 -5.27758 0
M  V30 501 O 53.7858 -3.9558 -4.53652 0
M  V30 502 H 57.6118 -2.63907 -1.50289 0
M  V30 503 H 55.1968 -1.32951 -0.681502 0
M  V30 504 H 57.0788 -1.803 -3.80881 0
M  V30 505 H 55.7538 -0.816901 -3.13223 0
M  V30 506 H 54.6608 -2.96981 -2.27493 0
M  V30 507 H 55.9938 -3.89535 -3.00871 0
M  V30 508 N 57.6459 0.756429 -1.3826 0
M  V30 509 C 58.6089 1.85176 -1.35065 0
M  V30 510 C 59.6089 1.58818 -0.251703 0
M  V30 511 O 60.7989 1.66615 -0.508433 0
M  V30 512 C 57.9309 3.22596 -1.10201 0
M  V30 513 H 59.1239 1.89417 -2.3251 0
M  V30 514 H 56.6769 0.95783 -1.23512 0
M  V30 515 H 57.4119 3.24025 -0.133504 0
M  V30 516 H 57.1969 3.43122 -1.89762 0
M  V30 517 H 58.6869 4.02673 -1.10654 0
M  V30 518 N 59.124 1.23083 0.984299 0
M  V30 519 C 60.087 1.00979 2.05757 0
M  V30 520 C 61.087 -0.0269573 1.60777 0
M  V30 521 O 62.277 0.212403 1.729 0
M  V30 522 C 59.409 0.527072 3.36801 0
M  V30 523 H 60.602 1.9622 2.26799 0
M  V30 524 H 58.155 1.05072 1.15714 0
M  V30 525 H 58.89 -0.429294 3.21446 0
M  V30 526 H 58.675 1.27515 3.70786 0
M  V30 527 H 60.165 0.392942 4.15747 0
M  V30 528 N 60.6021 -1.18246 1.0419 0
M  V30 529 C 61.5321 -2.24127 0.654914 0
M  V30 530 C 62.5131 -1.66617 -0.342451 0
M  V30 531 O 63.6981 -1.92924 -0.222277 0
M  V30 532 C 60.8281 -3.47295 0.0183757 0
M  V30 533 C 59.7821 -4.17563 0.939414 0
M  V30 534 C 59.1081 -5.34438 0.167286 0
M  V30 535 C 60.4081 -4.70917 2.25908 0
M  V30 536 H 62.1021 -2.56753 1.54007 0
M  V30 537 H 59.6481 -1.23414 0.74195 0
M  V30 538 H 61.6011 -4.20572 -0.264082 0
M  V30 539 H 60.3251 -3.13907 -0.901664 0
M  V30 540 H 58.9841 -3.46186 1.20628 0
M  V30 541 H 58.6321 -4.97298 -0.7552 0
M  V30 542 H 58.3321 -5.82388 0.780901 0
M  V30 543 H 59.8561 -6.10504 -0.108125 0
M  V30 544 H 61.2701 -5.35882 2.03724 0
M  V30 545 H 59.6671 -5.29406 2.82577 0
M  V30 546 H 60.7371 -3.88272 2.9047 0
M  V30 547 N 62.0802 -0.821533 -1.34494 0
M  V30 548 C 63.4912 -0.467956 -1.8074 0
M  V30 549 C 63.8422 1.01151 -1.68116 0
M  V30 550 O 62.9672 1.78707 -1.22036 0
M  V30 551 C 63.5622 -0.842627 -3.28154 0
M  V30 552 C 62.1212 -0.541439 -3.72485 0
M  V30 553 C 61.2682 -1.06028 -2.56229 0
M  V30 554 H 64.2192 -1.01183 -1.22261 0
M  V30 555 H 64.2402 -0.145876 -3.8022 0
M  V30 556 H 63.7522 -1.91945 -3.37311 0
M  V30 557 H 61.8532 0.526034 -3.68868 0
M  V30 558 H 61.9662 -1.08453 -4.66663 0
M  V30 559 H 60.3302 -0.481892 -2.501 0
M  V30 560 H 61.1132 -2.14352 -2.68157 0
M  V30 561 N 63.5583 1.46682 -0.576371 0
M  V30 562 C 64.9743 1.57822 -0.237562 0
M  V30 563 C 65.1743 1.57237 1.26011 0
M  V30 564 O 64.2303 1.48596 2.04146 0
M  V30 565 C 65.5433 2.87499 -0.881168 0
M  V30 566 C 67.0913 3.01119 -0.85417 0
M  V30 567 C 67.5663 4.33524 -1.4772 0
M  V30 568 N 69.0573 4.40207 -1.44125 0
M  V30 569 C 69.7923 5.4126 -1.89276 0
M  V30 570 N 69.2883 6.49021 -2.42371 0
M  V30 571 N 71.0813 5.32422 -1.80231 0
M  V30 572 H 63.2323 1.45306 -1.54919 0
M  V30 573 H 65.4953 0.692733 -0.647167 0
M  V30 574 H 65.2013 2.9372 -1.93447 0
M  V30 575 H 65.0753 3.75224 -0.385592 0
M  V30 576 H 67.4623 2.94485 0.190491 0
M  V30 577 H 67.5433 2.14887 -1.3877 0
M  V30 578 H 67.1873 4.40916 -2.52103 0
M  V30 579 H 67.1173 5.1852 -0.918947 0
M  V30 580 H 69.6083 3.62931 -1.05307 0
M  V30 581 H 69.9213 7.2233 -2.74698 0
M  V30 582 H 68.2663 6.49858 -2.46393 0
M  V30 583 H 71.4573 4.47137 -1.38514 0
M  V30 584 H 71.6303 6.11034 -2.15735 0
M  V30 585 N 65.0364 0.313813 1.54444 0
M  V30 586 C 66.4524 -0.0391619 1.59552 0
M  V30 587 C 66.6524 -1.51322 1.33056 0
M  V30 588 O 65.7084 -2.26782 1.11022 0
M  V30 589 C 67.0214 0.370302 2.98411 0
M  V30 590 C 68.5694 0.320139 3.11358 0
M  V30 591 C 69.0444 0.704617 4.52547 0
M  V30 592 N 70.5354 0.657645 4.58508 0
M  V30 593 C 71.2704 0.927453 5.6585 0
M  V30 594 N 70.7664 1.26389 6.81174 0
M  V30 595 N 72.5594 0.853662 5.5558 0
M  V30 596 H 64.7104 1.27433 1.69925 0
M  V30 597 H 66.9734 0.517511 0.794284 0
M  V30 598 H 66.6794 1.39694 3.22767 0
M  V30 599 H 66.5534 -0.269619 3.76235 0
M  V30 600 H 68.9404 -0.697275 2.86744 0
M  V30 601 H 69.0214 0.99486 2.35661 0
M  V30 602 H 68.6654 1.7199 4.77893 0
M  V30 603 H 68.5954 0.00768843 5.26599 0
M  V30 604 H 71.0864 0.409067 3.75679 0
M  V30 605 H 71.3994 1.4554 7.58972 0
M  V30 606 H 69.7444 1.30206 6.82694 0
M  V30 607 H 72.9354 0.590383 4.64362 0
M  V30 608 H 73.1084 1.0673 6.3915 0
M  V30 609 N 66.5145 -1.57545 0.0417849 0
M  V30 610 C 67.9305 -1.56467 -0.314704 0
M  V30 611 C 68.1305 -1.04859 -1.72066 0
M  V30 612 O 67.1865 -0.700983 -2.42575 0
M  V30 613 C 68.4995 -3.00317 -0.15174 0
M  V30 614 C 70.0475 -3.12201 -0.223553 0
M  V30 615 C 70.5225 -4.57913 -0.0892295 0
M  V30 616 N 72.0135 -4.6297 -0.145808 0
M  V30 617 C 72.7485 -5.73362 -0.0658459 0
M  V30 618 N 72.2445 -6.92769 0.0659282 0
M  V30 619 N 74.0375 -5.6197 -0.12075 0
M  V30 620 H 66.1885 -1.89416 0.961014 0
M  V30 621 H 68.4515 -0.871862 0.372237 0
M  V30 622 H 68.1575 -3.42073 0.817254 0
M  V30 623 H 68.0315 -3.65892 -0.916692 0
M  V30 624 H 70.4185 -2.70349 -1.18301 0
M  V30 625 H 70.4995 -2.49323 0.571994 0
M  V30 626 H 70.1435 -5.00448 0.866867 0
M  V30 627 H 70.0735 -5.18786 -0.903802 0
M  V30 628 H 72.5645 -3.7709 -0.247286 0
M  V30 629 H 72.8775 -7.72707 0.119905 0
M  V30 630 H 71.2225 -6.94927 0.100885 0
M  V30 631 H 74.4135 -4.67572 -0.222187 0
M  V30 632 H 74.5865 -6.47977 -0.0549735 0
M  V30 633 N 67.9926 0.231505 -1.5589 0
M  V30 634 C 69.4036 0.799327 -1.68724 0
M  V30 635 C 69.7546 1.85398 -0.642022 0
M  V30 636 O 68.8796 2.1539 0.208784 0
M  V30 637 C 69.4746 1.45664 -3.05888 0
M  V30 638 C 68.0336 1.97197 -3.20609 0
M  V30 639 C 67.1806 0.828552 -2.64632 0
M  V30 640 H 70.1316 0.00702616 -1.58698 0
M  V30 641 H 70.1526 2.32517 -3.01191 0
M  V30 642 H 69.6646 0.688808 -3.81939 0
M  V30 643 H 67.7656 2.76813 -2.4941 0
M  V30 644 H 67.8786 2.15878 -4.27707 0
M  V30 645 H 66.2426 1.23321 -2.22854 0
M  V30 646 H 67.0256 0.0735544 -3.43221 0
M  V30 647 N 69.4707 1.49531 0.497807 0
M  V30 648 C 70.8867 1.36365 0.829266 0
M  V30 649 C 71.0867 0.399184 1.97506 0
M  V30 650 O 70.1427 -0.167977 2.51941 0
M  V30 651 C 71.4557 2.77153 1.16647 0
M  V30 652 C 73.0037 2.85877 1.27449 0
M  V30 653 C 73.4787 4.2744 1.64497 0
M  V30 654 N 74.9697 4.30265 1.7154 0
M  V30 655 C 75.7047 5.3677 2.01656 0
M  V30 656 N 75.2007 6.53516 2.29976 0
M  V30 657 N 76.9937 5.24189 2.02934 0
M  V30 658 H 69.1447 2.10831 -0.257703 0
M  V30 659 H 71.4077 0.946534 -0.0527091 0
M  V30 660 H 71.1137 3.49442 0.397872 0
M  V30 661 H 70.9877 3.12722 2.10915 0
M  V30 662 H 73.3747 2.13824 2.0338 0
M  V30 663 H 73.4557 2.53887 0.312244 0
M  V30 664 H 73.0997 5.00021 0.891151 0
M  V30 665 H 73.0297 4.56896 2.61827 0
M  V30 666 H 75.5207 3.4607 1.51802 0
M  V30 667 H 75.8337 7.30506 2.52153 0
M  V30 668 H 74.1787 6.56737 2.27425 0
M  V30 669 H 77.3697 4.31988 1.80289 0
M  V30 670 H 77.5427 6.07286 2.26071 0
M  V30 671 N 70.9488 -0.749086 1.3866 0
M  V30 672 C 72.3648 -1.05276 1.19955 0
M  V30 673 C 72.5648 -2.01435 0.05134 0
M  V30 674 O 71.6208 -2.45232 -0.60147 0
M  V30 675 C 72.9338 -1.62853 2.52783 0
M  V30 676 C 74.4818 -1.75002 2.59506 0
M  V30 677 C 74.9568 -2.35991 3.92521 0
M  V30 678 N 76.4478 -2.43416 3.94085 0
M  V30 679 C 77.1828 -2.91511 4.9377 0
M  V30 680 N 76.6788 -3.39608 6.03853 0
M  V30 681 N 78.4718 -2.90592 4.81157 0
M  V30 682 H 70.6228 -0.111066 2.12109 0
M  V30 683 H 72.8858 -0.111901 0.941373 0
M  V30 684 H 72.5918 -0.99664 3.37283 0
M  V30 685 H 72.4658 -2.61854 2.715 0
M  V30 686 H 74.8528 -2.37317 1.75398 0
M  V30 687 H 74.9338 -0.74693 2.44652 0
M  V30 688 H 74.5778 -1.74308 4.77053 0
M  V30 689 H 74.5078 -3.3695 4.04688 0
M  V30 690 H 76.9988 -2.09405 3.14576 0
M  V30 691 H 77.3118 -3.74775 6.75843 0
M  V30 692 H 75.6568 -3.37653 6.07466 0
M  V30 693 H 78.8478 -2.52332 3.94267 0
M  V30 694 H 79.0208 -3.27762 5.58996 0
M  V30 695 N 72.4269 -1.23603 -0.977757 0
M  V30 696 C 73.3769 -0.986664 -2.05545 0
M  V30 697 C 74.3609 0.0683009 -1.60755 0
M  V30 698 O 75.5529 -0.144162 -1.76412 0
M  V30 699 C 72.6819 -0.582623 -3.3832 0
M  V30 700 C 71.7679 -1.67313 -3.89701 0
M  V30 701 N 72.1589 -2.90394 -4.14132 0
M  V30 702 C 70.4569 -1.54832 -4.18262 0
M  V30 703 C 71.1579 -3.61017 -4.56116 0
M  V30 704 N 70.1339 -2.8854 -4.60701 0
M  V30 705 H 73.9359 -1.92139 -2.22396 0
M  V30 706 H 71.4499 -1.1358 -1.16074 0
M  V30 707 H 73.4469 -0.38524 -4.15116 0
M  V30 708 H 72.1069 0.34503 -3.22862 0
M  V30 709 H 73.1179 -3.26673 -4.01877 0
M  V30 710 H 69.7949 -0.687969 -4.11793 0
M  V30 711 H 71.1849 -4.66544 -4.83514 0
M  V30 712 N 73.905 1.17692 -1.04816 0
M  V30 713 C 75.316 1.69501 -0.782698 0
M  V30 714 C 75.667 1.83456 0.695577 0
M  V30 715 O 74.792 1.51942 1.54086 0
M  V30 716 C 75.387 3.07874 -1.41419 0
M  V30 717 C 73.946 3.56864 -1.19686 0
M  V30 718 C 73.093 2.3322 -1.50012 0
M  V30 719 H 76.044 1.02262 -1.2136 0
M  V30 720 H 76.065 3.71528 -0.821428 0
M  V30 721 H 75.577 2.97685 -2.49009 0
M  V30 722 H 73.678 3.72337 -0.140043 0
M  V30 723 H 73.791 4.39851 -1.89916 0
M  V30 724 H 72.155 2.37501 -0.920071 0
M  V30 725 H 72.938 2.25644 -2.58727 0
M  V30 726 N 75.3831 0.828654 1.34056 0
M  V30 727 C 76.6081 0.431637 2.02859 0
M  V30 728 C 77.0331 -0.956339 1.61975 0
M  V30 729 O 76.3911 -1.62338 0.807228 0
M  V30 730 C 76.4391 0.548323 3.56407 0
M  V30 731 O 75.5431 -0.429556 4.10157 0
M  V30 732 H 74.8841 0.176886 0.640006 0
M  V30 733 H 77.4141 1.12066 1.71179 0
M  V30 734 H 77.4241 0.426196 4.05768 0
M  V30 735 H 76.0991 1.5606 3.8551 0
M  V30 736 H 74.6761 -0.265836 3.71951 0
M  V30 737 N 76.8612 -1.46375 0.584142 0
M  V30 738 C 78.1072 -2.02678 0.0703716 0
M  V30 739 C 78.4402 -1.4545 -1.28678 0
M  V30 740 O 77.7152 -0.62014 -1.84349 0
M  V30 741 C 77.9982 -3.60099 0.00614674 0
M  V30 742 C 77.8512 -4.27709 1.3923 0
M  V30 743 C 79.1702 -4.34598 -0.693742 0
M  V30 744 H 76.2892 -0.736504 0.027047 0
M  V30 745 H 78.9312 -1.74501 0.751615 0
M  V30 746 H 77.0812 -3.84236 -0.574009 0
M  V30 747 H 78.7532 -4.14832 2.01773 0
M  V30 748 H 76.9962 -3.87016 1.95962 0
M  V30 749 H 77.6672 -5.36478 1.29982 0
M  V30 750 H 80.1432 -4.15615 -0.200869 0
M  V30 751 H 79.0192 -5.44318 -0.707714 0
M  V30 752 H 79.2802 -4.05759 -1.75533 0
M  V30 753 N 78.3393 -0.321999 -1.54275 0
M  V30 754 C 79.2873 0.560206 -2.25753 0
M  V30 755 C 80.2813 1.11984 -1.27106 0
M  V30 756 O 81.4873 1.06806 -1.44888 0
M  V30 757 H 77.8623 0.199304 -0.725108 0
M  V30 758 H 79.8333 -0.0649365 -2.98329 0
M  V30 759 C 78.5823 1.71023 -3.02731 0
M  V30 760 H 77.9053 1.28885 -3.78456 0
M  V30 761 H 79.3453 2.30314 -3.55993 0
M  V30 762 C 77.8043 2.62692 -2.10938 0
M  V30 763 O 78.3343 3.64364 -1.6912 0
M  V30 764 N 76.5403 2.30891 -1.76459 0
M  V30 765 H 76.0873 1.48253 -2.10663 0
M  V30 766 H 76.0453 2.92487 -1.1532 0
M  V30 767 N 79.8174 1.5752 -0.0501392 0
M  V30 768 C 81.2284 1.80271 0.485705 0
M  V30 769 C 81.5794 0.96228 1.70981 0
M  V30 770 O 80.7044 0.178578 2.15662 0
M  V30 771 C 81.2994 3.26957 0.887938 0
M  V30 772 C 79.8584 3.5063 1.36877 0
M  V30 773 C 79.0054 2.75165 0.343468 0
M  V30 774 H 81.9564 1.56281 -0.276028 0
M  V30 775 H 81.9774 3.37821 1.75093 0
M  V30 776 H 81.4894 3.881 -0.0031809 0
M  V30 777 H 79.5904 2.94766 2.27911 0
M  V30 778 H 79.7034 4.59343 1.36164 0
M  V30 779 H 78.0674 2.4127 0.816128 0
M  V30 780 H 78.8504 3.39034 -0.539548 0
M  V30 781 N 81.2955 -0.223234 1.56011 0
M  V30 782 C 82.7115 -0.572856 1.48965 0
M  V30 783 C 82.9115 -1.87225 0.74492 0
M  V30 784 O 81.9675 -2.50899 0.283896 0
M  V30 785 C 83.2805 -0.653646 2.9351 0
M  V30 786 C 84.8285 -0.744386 3.0402 0
M  V30 787 C 85.3035 -0.856535 4.49919 0
M  V30 788 N 86.7945 -0.9208 4.53955 0
M  V30 789 C 87.5295 -1.02726 5.64123 0
M  V30 790 N 87.0255 -1.09777 6.84047 0
M  V30 791 N 88.8185 -1.06226 5.51971 0
M  V30 792 H 80.9695 0.629462 2.02858 0
M  V30 793 H 83.2325 0.220621 0.921971 0
M  V30 794 H 82.9385 0.231518 3.50937 0
M  V30 795 H 82.8125 -1.51781 3.45315 0
M  V30 796 H 85.1995 -1.61999 2.46658 0
M  V30 797 H 85.2805 0.14541 2.55386 0
M  V30 798 H 84.9245 0.0146069 5.07898 0
M  V30 799 H 84.8545 -1.76172 4.96257 0
M  V30 800 H 87.3455 -0.876694 3.6759 0
M  V30 801 H 87.6585 -1.17872 7.63758 0
M  V30 802 H 86.0035 -1.06693 6.86762 0
M  V30 803 H 89.1945 -1.00382 4.5721 0
M  V30 804 H 89.3675 -1.14177 6.37862 0
M  V30 805 N 82.7736 -1.49793 -0.48987 0
M  V30 806 C 83.9986 -1.63836 -1.27172 0
M  V30 807 C 84.4236 -0.31402 -1.8546 0
M  V30 808 O 83.7816 0.719803 -1.66399 0
M  V30 809 C 83.8296 -2.71797 -2.36978 0
M  V30 810 O 82.9336 -2.31744 -3.41128 0
M  V30 811 H 82.2746 -0.547997 -0.37496 0
M  V30 812 H 84.8046 -1.96053 -0.585191 0
M  V30 813 H 84.8146 -2.94305 -2.82575 0
M  V30 814 H 83.4896 -3.67923 -1.93921 0
M  V30 815 H 82.0666 -2.1961 -3.01373 0
M  V30 816 N 84.2517 0.741722 -1.39055 0
M  V30 817 C 85.6677 1.04638 -1.20512 0
M  V30 818 C 85.8677 2.01405 -0.0620218 0
M  V30 819 O 84.9237 2.45547 0.588457 0
M  V30 820 C 86.2367 1.6151 -2.53643 0
M  V30 821 C 87.7847 1.73623 -2.6043 0
M  V30 822 C 88.2597 2.33906 -3.93767 0
M  V30 823 N 89.7507 2.41323 -3.9537 0
M  V30 824 C 90.4857 2.88888 -4.95309 0
M  V30 825 N 89.9817 3.36401 -6.05645 0
M  V30 826 N 91.7747 2.88037 -4.82692 0
M  V30 827 H 83.9257 0.0998155 -2.12165 0
M  V30 828 H 86.1887 0.106907 -0.941953 0
M  V30 829 H 85.8947 0.978739 -3.37807 0
M  V30 830 H 85.7687 2.60411 -2.72885 0
M  V30 831 H 88.1557 2.36384 -1.76655 0
M  V30 832 H 88.2367 0.733945 -2.45045 0
M  V30 833 H 87.8807 1.71776 -4.7797 0
M  V30 834 H 87.8107 3.34799 -4.06469 0
M  V30 835 H 90.3017 2.07734 -3.15682 0
M  V30 836 H 90.6147 3.71186 -6.77821 0
M  V30 837 H 88.9597 3.34427 -6.09248 0
M  V30 838 H 92.1507 2.50237 -3.95599 0
M  V30 839 H 92.3237 3.24792 -5.60726 0
M  V30 840 N 85.7298 1.2412 0.971189 0
M  V30 841 C 86.6928 1.03156 2.04674 0
M  V30 842 C 87.6928 -0.00990322 1.60797 0
M  V30 843 O 88.8828 0.230729 1.72665 0
M  V30 844 C 86.0148 0.562765 3.36223 0
M  V30 845 H 87.2078 1.98614 2.24705 0
M  V30 846 H 84.7608 1.06293 1.14593 0
M  V30 847 H 85.4958 -0.395176 3.21883 0
M  V30 848 H 85.2808 1.31441 3.69413 0
M  V30 849 H 86.7708 0.437015 4.15307 0
M  V30 850 N 87.2079 -1.17134 1.05439 0
M  V30 851 C 88.1709 -2.19439 0.661764 0
M  V30 852 C 89.1709 -1.58199 -0.288042 0
M  V30 853 O 90.3609 -1.74053 -0.0715803 0
M  V30 854 C 87.4929 -3.40889 -0.0276209 0
M  V30 855 H 88.6859 -2.55688 1.56728 0
M  V30 856 H 86.2389 -1.31259 0.848567 0
M  V30 857 H 86.9739 -3.10187 -0.94629 0
M  V30 858 H 86.7589 -3.86586 0.655238 0
M  V30 859 H 88.2489 -4.16603 -0.288342 0
M  V30 860 N 88.686 -0.835752 -1.33615 0
M  V30 861 C 89.934 -0.429109 -1.97492 0
M  V30 862 C 90.255 1.01433 -1.66543 0
M  V30 863 O 89.525 1.70611 -0.962744 0
M  V30 864 H 88.105 -0.155686 -0.730596 0
M  V30 865 H 90.767 -1.06802 -1.63031 0
M  V30 866 H 89.863 -0.55861 -3.0706 0
M  V30 867 N 90.1641 1.46063 -0.591896 0
M  V30 868 C 91.3891 2.07226 -0.0850314 0
M  V30 869 C 91.8141 1.43625 1.21463 0
M  V30 870 O 91.1721 0.523305 1.73583 0
M  V30 871 C 91.2201 3.60554 0.0576567 0
M  V30 872 O 90.3241 3.97128 1.11188 0
M  V30 873 H 89.6651 0.660615 -0.0669568 0
M  V30 874 H 92.1951 1.8756 -0.81745 0
M  V30 875 H 92.2051 4.07165 0.2609 0
M  V30 876 H 90.8801 4.06235 -0.891416 0
M  V30 877 H 89.4571 3.62213 0.886356 0
M  V30 878 N 91.6422 0.330177 1.54103 0
M  V30 879 C 93.0532 -0.15652 1.86043 0
M  V30 880 C 93.4042 -1.51086 1.2517 0
M  V30 881 O 92.5292 -2.09023 0.560217 0
M  V30 882 C 93.1242 -0.290784 3.3755 0
M  V30 883 C 91.6832 -0.721705 3.69416 0
M  V30 884 C 90.8302 0.152622 2.7688 0
M  V30 885 H 93.7812 0.550237 1.48856 0
M  V30 886 H 93.8022 -1.12058 3.63625 0
M  V30 887 H 93.3142 0.695068 3.81825 0
M  V30 888 H 91.4152 -1.71706 3.30678 0
M  V30 889 H 91.5282 -0.520869 4.7626 0
M  V30 890 H 89.8922 -0.372894 2.51956 0
M  V30 891 H 90.6752 1.13536 3.23982 0
M  V30 892 N 93.1203 -1.57491 0.0584922 0
M  V30 893 C 94.5363 -1.56792 -0.298091 0
M  V30 894 C 94.7363 -1.06679 -1.70944 0
M  V30 895 O 93.7923 -0.726672 -2.41818 0
M  V30 896 C 95.1053 -3.00461 -0.119879 0
M  V30 897 C 96.6533 -3.1242 -0.190428 0
M  V30 898 C 97.1283 -4.57982 -0.0406567 0
M  V30 899 N 98.6193 -4.63099 -0.0966958 0
M  V30 900 C 99.3543 -5.734 -0.00502943 0
M  V30 901 N 98.8503 -6.9266 0.139402 0
M  V30 902 N 100.643 -5.62067 -0.0611391 0
M  V30 903 H 92.7943 -1.88386 0.98105 0
M  V30 904 H 95.0573 -0.867865 0.381463 0
M  V30 905 H 94.7633 -3.41187 0.85349 0
M  V30 906 H 94.6373 -3.66843 -0.877833 0
M  V30 907 H 97.0243 -2.71589 -1.15427 0
M  V30 908 H 97.1053 -2.48702 0.598405 0
M  V30 909 H 96.7493 -4.995 0.919897 0
M  V30 910 H 96.6793 -5.19715 -0.848727 0
M  V30 911 H 99.1703 -3.77331 -0.207277 0
M  V30 912 H 99.4833 -7.72536 0.201855 0
M  V30 913 H 97.8283 -6.94781 0.174586 0
M  V30 914 H 101.019 -4.67782 -0.172583 0
M  V30 915 H 101.192 -6.47999 0.0137562 0
M  V30 916 N 94.5984 0.214957 -1.56127 0
M  V30 917 C 95.8264 0.955092 -1.83536 0
M  V30 918 C 96.2414 1.77677 -0.638472 0
M  V30 919 O 95.5984 1.78219 0.392968 0
M  V30 920 C 95.6494 1.86734 -3.09536 0
M  V30 921 O 95.3704 1.07887 -4.24608 0
M  V30 922 C 96.8714 2.72082 -3.4998 0
M  V30 923 H 94.0914 0.279611 -0.609966 0
M  V30 924 H 96.6354 0.228197 -2.03223 0
M  V30 925 H 94.7904 2.5481 -2.91806 0
M  V30 926 H 95.2044 1.69872 -4.9623 0
M  V30 927 H 96.6784 3.31782 -4.41163 0
M  V30 928 H 97.1554 3.44806 -2.7204 0
M  V30 929 H 97.7614 2.09409 -3.70173 0
M  V30 930 N 96.0765 1.50051 0.48192 0
M  V30 931 C 97.4925 1.37237 0.814756 0
M  V30 932 C 97.6925 0.420109 1.97072 0
M  V30 933 O 96.7485 -0.141246 2.52105 0
M  V30 934 C 98.0615 2.78375 1.13701 0
M  V30 935 C 99.6095 2.87213 1.2441 0
M  V30 936 C 100.084 4.29161 1.59954 0
M  V30 937 N 101.575 4.32061 1.66967 0
M  V30 938 C 102.31 5.38879 1.95952 0
M  V30 939 N 101.806 6.55918 2.23031 0
M  V30 940 N 103.599 5.26312 1.97363 0
M  V30 941 H 95.7505 2.10546 -0.28005 0
M  V30 942 H 98.0135 0.945921 -0.0627454 0
M  V30 943 H 97.7195 3.49845 0.360787 0
M  V30 944 H 97.5935 3.14941 2.07586 0
M  V30 945 H 99.9805 2.15969 2.01101 0
M  V30 946 H 100.061 2.54204 0.285299 0
M  V30 947 H 99.7055 5.00938 0.838067 0
M  V30 948 H 99.6355 4.59648 2.56966 0
M  V30 949 H 102.126 3.47661 1.48123 0
M  V30 950 H 102.439 7.33139 2.44391 0
M  V30 951 H 100.784 6.59112 2.20447 0
M  V30 952 H 103.975 4.33876 1.75697 0
M  V30 953 H 104.148 6.09649 2.19618 0
M  V30 954 N 97.5546 -0.734337 1.39446 0
M  V30 955 C 98.8026 -1.49096 1.36436 0
M  V30 956 C 99.1236 -1.94961 -0.0388255 0
M  V30 957 O 98.3936 -1.69033 -0.990191 0
M  V30 958 H 96.9736 -0.5531 0.502085 0
M  V30 959 H 99.6356 -0.871725 1.74319 0
M  V30 960 H 98.7316 -2.37276 2.02747 0
M  V30 961 N 99.0327 -1.24633 -0.964593 0
M  V30 962 C 100.449 -1.01239 -1.2338 0
M  V30 963 C 100.649 0.2769 -1.99588 0
M  V30 964 O 99.7047 0.992241 -2.32187 0
M  V30 965 C 101.018 -2.22937 -2.01791 0
M  V30 966 C 102.566 -2.27594 -2.14872 0
M  V30 967 C 103.041 -3.48921 -2.96678 0
M  V30 968 N 104.532 -3.49257 -3.04259 0
M  V30 969 C 105.267 -4.39795 -3.67924 0
M  V30 970 N 104.763 -5.40591 -4.33281 0
M  V30 971 N 106.556 -4.275 -3.64966 0
M  V30 972 H 98.7067 -2.0748 -0.454502 0
M  V30 973 H 100.97 -0.910647 -0.26349 0
M  V30 974 H 100.676 -3.16587 -1.53184 0
M  V30 975 H 100.55 -2.25306 -3.02518 0
M  V30 976 H 102.937 -1.34473 -2.6268 0
M  V30 977 H 103.018 -2.2925 -1.13482 0
M  V30 978 H 102.662 -4.42359 -2.49562 0
M  V30 979 H 102.592 -3.4451 -3.98272 0
M  V30 980 H 105.083 -2.76337 -2.57771 0
M  V30 981 H 105.396 -6.05904 -4.79687 0
M  V30 982 H 103.741 -5.44475 -4.3194 0
M  V30 983 H 106.932 -3.47987 -3.13086 0
M  V30 984 H 107.105 -4.98258 -4.14298 0
M  V30 985 N 100.511 1.16574 -1.06058 0
M  V30 986 C 101.927 1.3904 -0.783585 0
M  V30 987 C 102.127 1.91784 0.618145 0
M  V30 988 O 101.183 2.11511 1.37911 0
M  V30 989 C 102.496 2.37329 -1.84649 0
M  V30 990 C 104.044 2.51018 -1.86973 0
M  V30 991 C 104.519 3.52588 -2.92311 0
M  V30 992 N 106.01 3.60113 -2.91329 0
M  V30 993 C 106.745 4.38486 -3.69482 0
M  V30 994 N 106.241 5.20302 -4.57447 0
M  V30 995 N 108.034 4.33446 -3.57885 0
M  V30 996 H 100.185 0.806725 -1.96483 0
M  V30 997 H 102.448 0.417117 -0.851303 0
M  V30 998 H 102.154 2.05663 -2.85299 0
M  V30 999 H 102.028 3.36946 -1.6955 0
M  V30 1000 H 104.415 2.81989 -0.869827 0
M  V30 1001 H 104.496 1.51445 -2.0615 0
M  V30 1002 H 104.14 3.22354 -3.92492 0
M  V30 1003 H 104.07 4.51886 -2.70383 0
M  V30 1004 H 106.561 3.01707 -2.27555 0
M  V30 1005 H 106.874 5.77311 -5.13743 0
M  V30 1006 H 105.219 5.19653 -4.61503 0
M  V30 1007 H 108.41 3.68586 -2.88551 0
M  V30 1008 H 108.583 4.94279 -4.19037 0
M  V30 1009 N 101.989 0.842826 1.3317 0
M  V30 1010 C 103.217 0.454055 2.01856 0
M  V30 1011 C 103.632 -0.94587 1.63397 0
M  V30 1012 O 102.989 -1.61534 0.849302 0
M  V30 1013 C 103.04 0.569715 3.56982 0
M  V30 1014 O 102.761 1.91448 3.94055 0
M  V30 1015 C 104.262 0.178412 4.42941 0
M  V30 1016 H 101.482 0.17979 0.646465 0
M  V30 1017 H 104.026 1.1365 1.70012 0
M  V30 1018 H 102.181 -0.0648587 3.87346 0
M  V30 1019 H 102.595 1.90282 4.88767 0
M  V30 1020 H 104.069 0.310376 5.51127 0
M  V30 1021 H 104.546 -0.880056 4.30293 0
M  V30 1022 H 105.152 0.787579 4.17944 0
M  V30 1023 N 103.467 -1.45747 0.599634 0
M  V30 1024 C 104.377 -2.34262 -0.125888 0
M  V30 1025 C 105.393 -1.50768 -0.868625 0
M  V30 1026 O 106.569 -1.83592 -0.828003 0
M  V30 1027 C 103.634 -3.28252 -1.11587 0
M  V30 1028 C 102.695 -4.27651 -0.375956 0
M  V30 1029 C 101.928 -5.1715 -1.31877 0
M  V30 1030 O 102.151 -5.09916 -2.55621 0
M  V30 1031 O 101.085 -5.96286 -0.820157 0
M  V30 1032 H 104.911 -2.97688 0.601315 0
M  V30 1033 H 102.496 -1.44999 0.359934 0
M  V30 1034 H 104.378 -3.86191 -1.68626 0
M  V30 1035 H 103.053 -2.67401 -1.82424 0
M  V30 1036 H 101.96 -3.7335 0.236698 0
M  V30 1037 H 103.293 -4.91334 0.29177 0
M  V30 1038 N 104.945 -0.338344 -1.53925 0
M  V30 1039 C 105.855 0.529421 -2.28548 0
M  V30 1040 C 106.871 1.11645 -1.3346 0
M  V30 1041 O 108.047 1.13325 -1.66492 0
M  V30 1042 C 105.112 1.66713 -3.03987 0
M  V30 1043 C 104.173 1.11041 -4.14691 0
M  V30 1044 C 103.406 2.19389 -4.86522 0
M  V30 1045 O 103.629 3.40013 -4.57982 0
M  V30 1046 O 102.563 1.83976 -5.73094 0
M  V30 1047 H 106.389 -0.0770399 -3.03602 0
M  V30 1048 H 103.974 -0.103555 -1.49041 0
M  V30 1049 H 105.856 2.32918 -3.5118 0
M  V30 1050 H 104.531 2.25949 -2.31794 0
M  V30 1051 H 103.438 0.413024 -3.71813 0
M  V30 1052 H 104.771 0.562975 -4.8897 0
M  V30 1053 N 106.423 1.57458 -0.0668435 0
M  V30 1054 C 107.839 1.56947 0.289772 0
M  V30 1055 C 108.039 1.07584 1.70376 0
M  V30 1056 O 107.095 0.739486 2.41429 0
M  V30 1057 C 108.408 3.0052 0.103943 0
M  V30 1058 C 109.956 3.12517 0.173857 0
M  V30 1059 C 110.431 4.57997 0.0163682 0
M  V30 1060 N 111.922 4.63144 0.0721352 0
M  V30 1061 C 112.657 5.73394 -0.0253794 0
M  V30 1062 N 112.153 6.92576 -0.176133 0
M  V30 1063 N 113.946 5.62091 0.0313305 0
M  V30 1064 H 106.097 1.87863 -0.991027 0
M  V30 1065 H 108.36 0.86583 -0.38606 0
M  V30 1066 H 108.066 3.40729 -0.871572 0
M  V30 1067 H 107.94 3.67304 0.858366 0
M  V30 1068 H 110.327 2.72197 1.13985 0
M  V30 1069 H 110.408 2.48381 -0.611586 0
M  V30 1070 H 110.052 4.99005 -0.946374 0
M  V30 1071 H 109.982 5.20158 0.821153 0
M  V30 1072 H 112.473 3.77436 0.187263 0
M  V30 1073 H 112.786 7.72418 -0.242821 0
M  V30 1074 H 111.131 6.94678 -0.211429 0
M  V30 1075 H 114.322 4.67867 0.147773 0
M  V30 1076 H 114.495 6.47982 -0.048121 0
M  V30 1077 N 107.901 -0.206675 1.56239 0
M  V30 1078 C 109.312 -0.772383 1.69974 0
M  V30 1079 C 109.663 -1.84353 0.671436 0
M  V30 1080 O 108.788 -2.15695 -0.174491 0
M  V30 1081 C 109.383 -1.40779 3.08167 0
M  V30 1082 C 107.942 -1.92072 3.23706 0
M  V30 1083 C 107.089 -0.786347 2.65917 0
M  V30 1084 H 110.04 0.0182223 1.5869 0
M  V30 1085 H 110.061 -2.27696 3.04852 0
M  V30 1086 H 109.573 -0.627958 3.82986 0
M  V30 1087 H 107.674 -2.7281 2.53782 0
M  V30 1088 H 107.787 -2.09046 4.31087 0
M  V30 1089 H 106.151 -1.1976 2.24788 0
M  V30 1090 H 106.934 -0.0189416 3.43295 0
M  V30 1091 N 109.379 -1.50304 -0.473955 0
M  V30 1092 C 110.604 -1.65175 -1.25427 0
M  V30 1093 C 111.029 -0.333673 -1.85117 0
M  V30 1094 O 110.387 0.702114 -1.67153 0
M  V30 1095 C 110.435 -2.74295 -2.34082 0
M  V30 1096 O 109.539 -2.35349 -3.38651 0
M  V30 1097 H 108.88 -0.551944 -0.369126 0
M  V30 1098 H 111.41 -1.96662 -0.564364 0
M  V30 1099 H 111.42 -2.97285 -2.79438 0
M  V30 1100 H 110.095 -3.69959 -1.90008 0
M  V30 1101 H 108.672 -2.22794 -2.99027 0
M  V30 1102 N 110.857 0.726932 -1.39834 0
M  V30 1103 C 112.105 1.4837 -1.37225 0
M  V30 1104 C 112.426 1.94979 0.0284857 0
M  V30 1105 O 111.696 1.69555 0.981213 0
M  V30 1106 H 110.276 0.55043 -0.505011 0
M  V30 1107 H 112.938 0.862468 -1.74778 0
M  V30 1108 H 112.034 2.36198 -2.04003 0
M  V30 1109 N 112.336 1.25143 0.95797 0
M  V30 1110 C 113.561 1.12521 1.74223 0
M  V30 1111 C 113.986 -0.317402 1.85403 0
M  V30 1112 O 113.344 -1.2299 1.33204 0
M  V30 1113 C 113.392 1.78062 3.1357 0
M  V30 1114 O 112.496 1.058 3.98598 0
M  V30 1115 H 111.837 0.39304 0.535178 0
M  V30 1116 H 114.367 1.65641 1.201 0
M  V30 1117 H 114.377 1.84213 3.64046 0
M  V30 1118 H 113.052 2.83021 3.04749 0
M  V30 1119 H 111.629 1.07506 3.57067 0
M  V30 1120 N 113.814 -1.1601 1.06675 0
M  V30 1121 C 115.23 -1.38622 0.790948 0
M  V30 1122 C 115.43 -1.92109 -0.607965 0
M  V30 1123 O 114.486 -2.12239 -1.36787 0
M  V30 1124 C 115.799 -2.36347 1.85905 0
M  V30 1125 C 117.347 -2.50023 1.88301 0
M  V30 1126 C 117.822 -3.51033 2.94176 0
M  V30 1127 N 119.313 -3.58563 2.93235 0
M  V30 1128 C 120.048 -4.36521 3.71803 0
M  V30 1129 N 119.544 -5.17869 4.602 0
M  V30 1130 N 121.337 -4.31541 3.60178 0
M  V30 1131 H 113.488 -0.796294 1.96908 0
M  V30 1132 H 115.751 -0.412597 0.853503 0
M  V30 1133 H 115.457 -2.04147 2.86386 0
M  V30 1134 H 115.331 -3.36042 1.71334 0
M  V30 1135 H 117.718 -2.81524 0.884769 0
M  V30 1136 H 117.799 -1.5035 2.06951 0
M  V30 1137 H 117.443 -3.20268 3.94196 0
M  V30 1138 H 117.373 -4.50445 2.72776 0
M  V30 1139 H 119.864 -3.00496 2.29152 0
M  V30 1140 H 120.177 -5.74578 5.16797 0
M  V30 1141 H 118.522 -5.17199 4.64253 0
M  V30 1142 H 121.713 -3.67051 2.90502 0
M  V30 1143 H 121.886 -4.9205 4.21653 0
M  V30 1144 N 115.292 -0.849877 -1.32721 0
M  V30 1145 C 116.222 -0.306308 -2.31482 0
M  V30 1146 C 117.203 0.591952 -1.59468 0
M  V30 1147 O 118.388 0.513199 -1.87296 0
M  V30 1148 C 115.518 0.510204 -3.43532 0
M  V30 1149 C 114.472 -0.293209 -4.26994 0
M  V30 1150 C 113.798 0.647743 -5.30762 0
M  V30 1151 C 115.098 -1.51634 -4.99804 0
M  V30 1152 H 116.792 -1.13153 -2.77195 0
M  V30 1153 H 114.338 -0.545553 -1.33266 0
M  V30 1154 H 116.291 0.900856 -4.11658 0
M  V30 1155 H 115.015 1.36874 -2.96535 0
M  V30 1156 H 113.674 -0.665555 -3.60508 0
M  V30 1157 H 113.322 1.50299 -4.8002 0
M  V30 1158 H 113.022 0.11422 -5.87489 0
M  V30 1159 H 114.546 1.03567 -6.01753 0
M  V30 1160 H 115.96 -1.19824 -5.60638 0
M  V30 1161 H 114.357 -1.98745 -5.66234 0
M  V30 1162 H 115.427 -2.28018 -4.27943 0
M  V30 1163 N 116.77 1.45427 -0.607355 0
M  V30 1164 C 118.018 2.01841 -0.102253 0
M  V30 1165 C 118.339 1.47832 1.27164 0
M  V30 1166 O 117.609 0.672497 1.83995 0
M  V30 1167 H 116.189 0.746188 -0.0348101 0
M  V30 1168 H 118.851 1.78229 -0.7887 0
M  V30 1169 H 117.947 3.12057 -0.0518585 0
M  V30 1170 N 118.248 0.346503 1.53744 0
M  V30 1171 C 119.525 -0.304532 1.93215 0
M  V30 1172 C 119.905 -1.67993 1.27834 0
M  V30 1173 O 119.253 -2.24411 0.430352 0
M  V30 1174 C 119.463 -0.373852 3.46992 0
M  V30 1175 C 120.811 -0.62329 4.2 0
M  V30 1176 O 121.835 -0.455847 3.53271 0
M  V30 1177 O 120.694 -0.947879 5.38217 0
M  V30 1178 H 117.788 -0.178318 0.807547 0
M  V30 1179 H 120.334 0.397895 1.64969 0
M  V30 1180 H 119.106 0.591224 3.86808 0
M  V30 1181 H 118.729 -1.12294 3.81413 0
M  V30 1182 N 119.726 -1.57421 0.075193 0
M  V30 1183 C 121.142 -1.57099 -0.281444 0
M  V30 1184 C 121.342 -1.08486 -1.69803 0
M  V30 1185 O 120.398 -0.752279 -2.41033 0
M  V30 1186 C 121.711 -3.00571 -0.0880041 0
M  V30 1187 C 123.259 -3.12605 -0.157281 0
M  V30 1188 C 123.734 -4.57999 0.0079207 0
M  V30 1189 N 125.225 -4.63176 -0.0475725 0
M  V30 1190 C 125.96 -5.73373 0.0557876 0
M  V30 1191 N 125.456 -6.92473 0.21286 0
M  V30 1192 N 127.249 -5.621 -0.00152098 0
M  V30 1193 H 119.4 -1.87335 1.00098 0
M  V30 1194 H 121.663 -0.86377 0.390646 0
M  V30 1195 H 121.369 -3.40262 0.889629 0
M  V30 1196 H 121.243 -3.67754 -0.838875 0
M  V30 1197 H 123.63 -2.72798 -1.1254 0
M  V30 1198 H 123.711 -2.48053 0.62475 0
M  V30 1199 H 123.355 -4.98496 0.972824 0
M  V30 1200 H 123.285 -5.20586 -0.793556 0
M  V30 1201 H 125.776 -3.7753 -0.167244 0
M  V30 1202 H 126.089 -7.72279 0.283781 0
M  V30 1203 H 124.434 -6.94556 0.248267 0
M  V30 1204 H 127.625 -4.67938 -0.122958 0
M  V30 1205 H 127.798 -6.47948 0.0824844 0
M  V30 1206 N 121.204 0.198386 -1.56346 0
M  V30 1207 C 122.452 0.91747 -1.80075 0
M  V30 1208 C 122.773 1.83929 -0.647692 0
M  V30 1209 O 122.043 1.93029 0.334166 0
M  V30 1210 H 120.623 0.341774 -0.664228 0
M  V30 1211 H 123.285 0.204684 -1.93822 0
M  V30 1212 H 122.381 1.51055 -2.7311 0
M  V30 1213 N 122.682 1.50554 0.465978 0
M  V30 1214 C 124.098 1.38093 0.800154 0
M  V30 1215 C 124.298 0.440988 1.96615 0
M  V30 1216 O 123.354 -0.114499 2.5224 0
M  V30 1217 C 124.667 2.79565 1.10742 0
M  V30 1218 C 126.215 2.88516 1.21357 0
M  V30 1219 C 126.69 4.30833 1.55393 0
M  V30 1220 N 128.181 4.33807 1.62375 0
M  V30 1221 C 128.916 5.40927 1.90225 0
M  V30 1222 N 128.412 6.58247 2.16062 0
M  V30 1223 N 130.205 5.28376 1.9177 0
M  V30 1224 H 122.356 2.10237 -0.302366 0
M  V30 1225 H 124.619 0.945203 -0.0727746 0
M  V30 1226 H 124.325 3.50208 0.323661 0
M  V30 1227 H 124.199 3.17125 2.04234 0
M  V30 1228 H 126.586 2.1809 1.98799 0
M  V30 1229 H 126.667 2.54492 0.258321 0
M  V30 1230 H 126.311 5.01799 0.784889 0
M  V30 1231 H 126.241 4.62347 2.52076 0
M  V30 1232 H 128.732 3.49212 1.44427 0
M  V30 1233 H 129.045 7.3569 2.36601 0
M  V30 1234 H 127.39 6.61413 2.13444 0
M  V30 1235 H 130.581 4.35715 1.71085 0
M  V30 1236 H 130.754 6.11944 2.13139 0
M  V30 1237 N 124.16 -0.719506 1.40217 0
M  V30 1238 C 125.408 -1.47641 1.3801 0
M  V30 1239 C 125.729 -1.94992 -0.018145 0
M  V30 1240 O 124.999 -1.70073 -0.972207 0
M  V30 1241 H 123.579 -0.547744 0.507923 0
M  V30 1242 H 126.241 -0.853187 1.75233 0
M  V30 1243 H 125.337 -2.35112 2.05253 0
M  V30 1244 N 125.638 -1.25649 -0.95132 0
M  V30 1245 C 127.054 -1.02542 -1.223 0
M  V30 1246 C 127.254 0.255715 -1.99871 0
M  V30 1247 O 126.31 0.967558 -2.33226 0
M  V30 1248 C 127.623 -2.25065 -1.99415 0
M  V30 1249 C 129.171 -2.29861 -2.12446 0
M  V30 1250 C 129.646 -3.52048 -2.92961 0
M  V30 1251 N 131.137 -3.52465 -3.00538 0
M  V30 1252 C 131.872 -4.43672 -3.63239 0
M  V30 1253 N 131.368 -5.45157 -4.27523 0
M  V30 1254 N 133.161 -4.31346 -3.60412 0
M  V30 1255 H 125.312 -2.07951 -0.432471 0
M  V30 1256 H 127.575 -0.91339 -0.253816 0
M  V30 1257 H 127.281 -3.18194 -1.49817 0
M  V30 1258 H 127.155 -2.28502 -3.00111 0
M  V30 1259 H 129.542 -1.37252 -2.61239 0
M  V30 1260 H 129.623 -2.3044 -1.11044 0
M  V30 1261 H 129.267 -4.44981 -2.44856 0
M  V30 1262 H 129.197 -3.48715 -3.94596 0
M  V30 1263 H 131.688 -2.79056 -2.54826 0
M  V30 1264 H 132.001 -6.10958 -4.73234 0
M  V30 1265 H 130.346 -5.49025 -4.26141 0
M  V30 1266 H 133.537 -3.51288 -3.09377 0
M  V30 1267 H 133.71 -5.02624 -4.0899 0
M  V30 1268 N 127.117 1.15442 -1.07289 0
M  V30 1269 C 128.08 2.18358 -0.696591 0
M  V30 1270 C 129.08 1.58637 0.262837 0
M  V30 1271 O 130.27 1.74145 0.0438809 0
M  V30 1272 C 127.402 3.4089 -0.0266151 0
M  V30 1273 H 128.595 2.53162 -1.60776 0
M  V30 1274 H 126.148 1.29893 -0.869342 0
M  V30 1275 H 126.883 3.11653 0.896822 0
M  V30 1276 H 126.668 3.85495 -0.716657 0
M  V30 1277 H 128.158 4.17009 0.222028 0
M  V30 1278 N 128.595 0.856903 1.32268 0
M  V30 1279 C 129.525 0.31858 2.31316 0
M  V30 1280 C 130.506 -0.583487 1.59779 0
M  V30 1281 O 131.691 -0.503259 1.87566 0
M  V30 1282 C 128.821 -0.491979 3.43798 0
M  V30 1283 C 127.775 0.315849 4.26833 0
M  V30 1284 C 127.101 -0.619586 5.31098 0
M  V30 1285 C 128.401 1.54282 4.98993 0
M  V30 1286 H 130.095 1.14621 2.76591 0
M  V30 1287 H 127.641 0.552613 1.32974 0
M  V30 1288 H 129.594 -0.879012 4.1213 0
M  V30 1289 H 128.318 -1.35299 2.97257 0
M  V30 1290 H 126.977 0.684664 3.6015 0
M  V30 1291 H 126.625 -1.47751 4.8081 0
M  V30 1292 H 126.325 -0.0830621 5.87541 0
M  V30 1293 H 127.849 -1.00375 6.02293 0
M  V30 1294 H 129.263 1.22796 5.59995 0
M  V30 1295 H 127.66 2.01745 5.65172 0
M  V30 1296 H 128.73 2.30285 4.26728 0
M  V30 1297 N 130.073 -1.45103 0.615059 0
M  V30 1298 C 131.484 -1.85654 0.197383 0
M  V30 1299 C 131.835 -1.51433 -1.24749 0
M  V30 1300 O 130.96 -0.944608 -1.94695 0
M  V30 1301 C 131.555 -3.36972 0.351448 0
M  V30 1302 C 130.114 -3.76398 -0.011593 0
M  V30 1303 C 129.261 -2.69024 0.672394 0
M  V30 1304 H 132.212 -1.35797 0.821263 0
M  V30 1305 H 132.233 -3.78239 -0.414227 0
M  V30 1306 H 131.745 -3.61847 1.40314 0
M  V30 1307 H 129.846 -3.5714 -1.06217 0
M  V30 1308 H 129.959 -4.77532 0.387265 0
M  V30 1309 H 128.323 -2.54465 0.109284 0
M  V30 1310 H 129.106 -2.96735 1.72636 0
M  V30 1311 N 131.551 -0.354651 -1.53558 0
M  V30 1312 C 132.799 0.237972 -2.00694 0
M  V30 1313 C 133.12 1.50173 -1.24391 0
M  V30 1314 O 132.39 1.92673 -0.354135 0
M  V30 1315 H 130.97 0.0909256 -0.741446 0
M  V30 1316 H 133.632 -0.478368 -1.88938 0
M  V30 1317 H 132.728 0.47264 -3.085 0
M  V30 1318 N 133.029 1.57378 -0.0835403 0
M  V30 1319 C 134.277 1.93547 0.581718 0
M  V30 1320 C 134.598 0.96524 1.69435 0
M  V30 1321 O 133.868 0.0153369 1.95894 0
M  V30 1322 H 132.448 0.714521 0.217874 0
M  V30 1323 H 135.11 1.94366 -0.144158 0
M  V30 1324 H 134.206 2.95665 0.999423 0
M  V30 1325 N 134.507 -0.190092 1.56449 0
M  V30 1326 C 135.923 -0.54113 1.50146 0
M  V30 1327 C 136.123 -1.85603 0.784465 0
M  V30 1328 O 135.179 -2.5024 0.337051 0
M  V30 1329 C 136.492 -0.591241 2.9483 0
M  V30 1330 C 138.04 -0.679732 3.0553 0
M  V30 1331 C 138.515 -0.760908 4.51635 0
M  V30 1332 N 140.006 -0.824302 4.55806 0
M  V30 1333 C 140.741 -0.907365 5.66175 0
M  V30 1334 N 140.237 -0.952422 6.86222 0
M  V30 1335 N 142.03 -0.94494 5.541 0
M  V30 1336 H 134.181 0.67235 2.01478 0
M  V30 1337 H 136.444 0.240127 0.917084 0
M  V30 1338 H 136.15 0.305905 3.50367 0
M  V30 1339 H 136.024 -1.44422 3.48457 0
M  V30 1340 H 138.411 -1.56731 2.50039 0
M  V30 1341 H 138.492 0.199549 2.5502 0
M  V30 1342 H 138.136 0.122336 5.07753 0
M  V30 1343 H 138.066 -1.65606 4.99882 0
M  V30 1344 H 140.557 -0.798526 3.69367 0
M  V30 1345 H 140.87 -1.01645 7.66086 0
M  V30 1346 H 139.215 -0.921014 6.8887 0
M  V30 1347 H 142.406 -0.906612 4.59236 0
M  V30 1348 H 142.579 -1.00622 6.4014 0
M  V30 1349 N 135.985 -1.50799 -0.457987 0
M  V30 1350 C 136.915 -1.73553 -1.5621 0
M  V30 1351 C 137.896 -0.584774 -1.59732 0
M  V30 1352 O 139.081 -0.825314 -1.7579 0
M  V30 1353 C 136.211 -1.84169 -2.94447 0
M  V30 1354 C 135.165 -2.99461 -3.0579 0
M  V30 1355 C 134.491 -2.95235 -4.45803 0
M  V30 1356 C 135.791 -4.39766 -2.81786 0
M  V30 1357 H 137.485 -2.66 -1.37421 0
M  V30 1358 H 135.031 -1.28002 -0.659662 0
M  V30 1359 H 136.984 -1.98672 -3.71628 0
M  V30 1360 H 135.708 -0.883545 -3.14422 0
M  V30 1361 H 134.367 -2.8463 -2.31044 0
M  V30 1362 H 134.015 -1.97239 -4.62715 0
M  V30 1363 H 133.715 -3.72642 -4.54326 0
M  V30 1364 H 135.239 -3.11803 -5.24987 0
M  V30 1365 H 136.653 -4.55054 -3.4871 0
M  V30 1366 H 135.05 -5.18722 -3.0174 0
M  V30 1367 H 136.12 -4.51229 -1.7754 0
M  V30 1368 N 137.463 0.71206 -1.40597 0
M  V30 1369 C 138.711 1.46907 -1.38791 0
M  V30 1370 C 139.032 1.94998 0.00780391 0
M  V30 1371 O 138.302 1.70587 0.963174 0
M  V30 1372 H 136.882 0.545043 -0.51082 0
M  V30 1373 H 139.544 0.843882 -1.75683 0
M  V30 1374 H 138.64 2.34021 -2.06496 0
M  V30 1375 N 138.941 1.26152 0.944643 0
M  V30 1376 C 140.189 1.11271 1.6871 0
M  V30 1377 C 140.51 -0.345166 1.91921 0
M  V30 1378 O 139.78 -1.24387 1.51343 0
M  V30 1379 H 138.36 0.408783 0.625224 0
M  V30 1380 H 141.022 1.58427 1.1352 0
M  V30 1381 H 140.118 1.62879 2.66227 0
M  V30 1382 N 140.419 -1.14872 1.07899 0
M  V30 1383 C 141.835 -1.37776 0.805606 0
M  V30 1384 C 142.035 -1.92743 -0.587555 0
M  V30 1385 O 141.091 -2.13678 -1.34528 0
M  V30 1386 C 142.404 -2.34361 1.88402 0
M  V30 1387 C 143.952 -2.48012 1.90942 0
M  V30 1388 C 144.427 -3.47893 2.97883 0
M  V30 1389 N 145.918 -3.55433 2.97021 0
M  V30 1390 C 146.653 -4.32553 3.76412 0
M  V30 1391 N 146.149 -5.12959 4.65666 0
M  V30 1392 N 147.942 -4.27697 3.64735 0
M  V30 1393 H 140.093 -0.775365 1.97742 0
M  V30 1394 H 142.356 -0.403521 0.857831 0
M  V30 1395 H 142.062 -2.01098 2.88535 0
M  V30 1396 H 141.936 -3.34206 1.74889 0
M  V30 1397 H 144.323 -2.8057 0.914579 0
M  V30 1398 H 144.404 -1.48147 2.08534 0
M  V30 1399 H 144.048 -3.16069 3.97571 0
M  V30 1400 H 143.978 -4.47527 2.77538 0
M  V30 1401 H 146.469 -2.98048 2.32326 0
M  V30 1402 H 146.782 -5.69065 5.22862 0
M  V30 1403 H 145.127 -5.12245 4.69712 0
M  V30 1404 H 148.318 -3.63949 2.94378 0
M  V30 1405 H 148.491 -4.8755 4.26848 0
M  V30 1406 N 141.898 -0.863906 -1.31812 0
M  V30 1407 C 143.146 -0.470904 -1.96537 0
M  V30 1408 C 143.467 0.978771 -1.68657 0
M  V30 1409 O 142.737 1.6853 -0.998717 0
M  V30 1410 H 141.317 -0.171148 -0.72713 0
M  V30 1411 H 143.979 -1.10236 -1.60729 0
M  V30 1412 H 143.075 -0.623616 -3.05806 0
M  V30 1413 N 143.376 1.44774 -0.622745 0
M  V30 1414 C 144.792 1.56986 -0.287652 0
M  V30 1415 C 144.992 1.61167 1.20944 0
M  V30 1416 O 144.048 1.55015 1.99315 0
M  V30 1417 C 145.361 2.84551 -0.972188 0
M  V30 1418 C 146.909 2.9825 -0.949536 0
M  V30 1419 C 147.384 4.28605 -1.61437 0
M  V30 1420 N 148.875 4.35399 -1.58057 0
M  V30 1421 C 149.61 5.34964 -2.064 0
M  V30 1422 N 149.106 6.40981 -2.62897 0
M  V30 1423 N 150.899 5.26419 -1.97078 0
M  V30 1424 H 143.05 1.40304 -1.59463 0
M  V30 1425 H 145.313 0.671794 -0.668878 0
M  V30 1426 H 145.019 2.87417 -2.02693 0
M  V30 1427 H 144.893 3.73807 -0.504771 0
M  V30 1428 H 147.28 2.94941 0.0967067 0
M  V30 1429 H 147.361 2.10364 -1.45536 0
M  V30 1430 H 147.005 4.32672 -2.66002 0
M  V30 1431 H 146.935 5.15334 -1.08344 0
M  V30 1432 H 149.426 3.59397 -1.16801 0
M  V30 1433 H 149.739 7.13225 -2.97539 0
M  V30 1434 H 148.084 6.4169 -2.66943 0
M  V30 1435 H 151.275 4.42504 -1.52669 0
M  V30 1436 H 151.448 6.03861 -2.35066 0
M  V30 1437 N 144.854 0.36279 1.53368 0
M  V30 1438 C 146.102 -0.227326 2.00817 0
M  V30 1439 C 146.423 -1.49511 1.25186 0
M  V30 1440 O 145.693 -1.92482 0.364348 0
M  V30 1441 H 144.273 -0.0869923 0.741917 0
M  V30 1442 H 146.935 0.488381 1.88682 0
M  V30 1443 H 146.031 -0.456273 3.08747 0
M  V30 1444 N 146.332 -1.57332 0.0918853 0
M  V30 1445 C 147.748 -1.57389 -0.264766 0
M  V30 1446 C 147.948 -1.10281 -1.68643 0
M  V30 1447 O 147.004 -0.777801 -2.40222 0
M  V30 1448 C 148.317 -3.00648 -0.0561195 0
M  V30 1449 C 149.865 -3.12754 -0.124116 0
M  V30 1450 C 150.34 -4.57965 0.0564972 0
M  V30 1451 N 151.831 -4.632 0.00155611 0
M  V30 1452 C 152.566 -5.73281 0.116598 0
M  V30 1453 N 152.062 -6.92208 0.286294 0
M  V30 1454 N 153.855 -5.6207 0.0580973 0
M  V30 1455 H 146.006 -1.86262 1.02079 0
M  V30 1456 H 148.269 -0.859579 0.399786 0
M  V30 1457 H 147.975 -3.393 0.925669 0
M  V30 1458 H 147.849 -3.68623 -0.799823 0
M  V30 1459 H 150.236 -2.73976 -1.09641 0
M  V30 1460 H 150.317 -2.47377 0.651024 0
M  V30 1461 H 149.961 -4.97436 1.02564 0
M  V30 1462 H 149.891 -5.21399 -0.738297 0
M  V30 1463 H 152.382 -3.77686 -0.127192 0
M  V30 1464 H 152.695 -7.71934 0.365676 0
M  V30 1465 H 151.04 -6.94254 0.32192 0
M  V30 1466 H 154.231 -4.68043 -0.0733204 0
M  V30 1467 H 154.404 -6.47824 0.151203 0
M  V30 1468 N 147.81 0.181792 -1.56548 0
M  V30 1469 C 148.773 1.20894 -1.94724 0
M  V30 1470 C 149.773 1.37738 -0.829747 0
M  V30 1471 O 150.963 1.35323 -1.09697 0
M  V30 1472 C 148.095 2.57593 -2.23291 0
M  V30 1473 H 149.288 0.882275 -2.86629 0
M  V30 1474 H 146.841 0.423838 -1.50444 0
M  V30 1475 H 147.576 2.95291 -1.34067 0
M  V30 1476 H 147.361 2.46735 -3.04736 0
M  V30 1477 H 148.851 3.31637 -2.53785 0
M  V30 1478 N 149.288 1.51039 0.449983 0
M  V30 1479 C 150.699 1.557 1.03026 0
M  V30 1480 C 151.05 0.372939 1.92623 0
M  V30 1481 O 150.175 -0.511771 2.10261 0
M  V30 1482 C 150.77 2.82171 1.87523 0
M  V30 1483 C 149.329 2.89444 2.40622 0
M  V30 1484 C 148.476 2.50228 1.19504 0
M  V30 1485 H 151.427 1.56999 0.231745 0
M  V30 1486 H 151.448 2.65219 2.72835 0
M  V30 1487 H 150.96 3.68331 1.22286 0
M  V30 1488 H 149.061 2.07685 3.0935 0
M  V30 1489 H 149.174 3.92816 2.74285 0
M  V30 1490 H 147.538 2.03139 1.53644 0
M  V30 1491 H 148.321 3.38719 0.558972 0
M  V30 1492 N 150.766 -0.704594 1.40972 0
M  V30 1493 C 151.676 -1.84856 1.44448 0
M  V30 1494 C 152.692 -1.70726 0.335961 0
M  V30 1495 O 153.868 -1.92799 0.582276 0
M  V30 1496 C 150.933 -3.20758 1.31587 0
M  V30 1497 C 149.994 -3.47063 2.52677 0
M  V30 1498 C 149.227 -4.76481 2.4042 0
M  V30 1499 O 149.45 -5.52341 1.42391 0
M  V30 1500 O 148.384 -5.03367 3.30007 0
M  V30 1501 H 152.21 -1.8488 2.40942 0
M  V30 1502 H 149.795 -0.85647 1.22413 0
M  V30 1503 H 151.677 -4.01913 1.26665 0
M  V30 1504 H 150.352 -3.21438 0.382049 0
M  V30 1505 H 149.259 -2.65873 2.63177 0
M  V30 1506 H 150.592 -3.5119 3.44858 0
M  V30 1507 N 152.244 -1.26651 -0.937939 0
M  V30 1508 C 153.66 -1.03834 -1.21205 0
M  V30 1509 C 153.86 0.234502 -2.00131 0
M  V30 1510 O 152.916 0.942767 -2.3424 0
M  V30 1511 C 154.229 -2.27167 -1.97017 0
M  V30 1512 C 155.777 -2.32101 -2.09996 0
M  V30 1513 C 156.252 -3.55136 -2.8921 0
M  V30 1514 N 157.743 -3.55632 -2.96783 0
M  V30 1515 C 158.478 -4.475 -3.58512 0
M  V30 1516 N 157.974 -5.4966 -4.21717 0
M  V30 1517 N 159.767 -4.35145 -3.55816 0
M  V30 1518 H 151.918 -2.08398 -0.410391 0
M  V30 1519 H 154.181 -0.916031 -0.244114 0
M  V30 1520 H 153.887 -3.19765 -1.46434 0
M  V30 1521 H 153.761 -2.31672 -2.97671 0
M  V30 1522 H 156.148 -1.40015 -2.59769 0
M  V30 1523 H 156.229 -2.31605 -1.08594 0
M  V30 1524 H 155.873 -4.47553 -2.40123 0
M  V30 1525 H 155.803 -3.5288 -3.90875 0
M  V30 1526 H 158.294 -2.81743 -2.51852 0
M  V30 1527 H 158.607 -6.15943 -4.66727 0
M  V30 1528 H 156.952 -5.53514 -4.20294 0
M  V30 1529 H 160.143 -3.5455 -3.05634 0
M  V30 1530 H 160.316 -5.06934 -4.03636 0
M  V30 1531 N 153.722 1.14298 -1.08507 0
M  V30 1532 C 154.968 1.85633 -0.816581 0
M  V30 1533 C 155.301 1.82784 0.656021 0
M  V30 1534 O 154.576 1.25926 1.48233 0
M  V30 1535 C 154.859 3.34223 -1.34041 0
M  V30 1536 C 154.712 3.45639 -2.87843 0
M  V30 1537 C 156.031 4.29356 -0.9665 0
M  V30 1538 H 153.15 0.67402 -0.298104 0
M  V30 1539 H 155.792 1.34214 -1.34487 0
M  V30 1540 H 153.942 3.78144 -0.89104 0
M  V30 1541 H 155.614 3.10498 -3.41158 0
M  V30 1542 H 153.857 2.86817 -3.25451 0
M  V30 1543 H 154.528 4.50089 -3.19569 0
M  V30 1544 H 157.004 3.93457 -1.35391 0
M  V30 1545 H 155.88 5.3178 -1.3602 0
M  V30 1546 H 156.141 4.41919 0.126362 0
M  V30 1547 N 155.201 0.870884 1.31352 0
M  V30 1548 C 156.449 0.48132 1.96285 0
M  V30 1549 C 156.77 -0.969813 1.69173 0
M  V30 1550 O 156.04 -1.67998 1.00764 0
M  V30 1551 H 154.62 0.175002 0.726212 0
M  V30 1552 H 157.282 1.11087 1.60143 0
M  V30 1553 H 156.378 0.639825 3.05471 0
M  V30 1554 N 156.679 -1.44442 0.630414 0
M  V30 1555 C 157.927 -2.01653 0.134351 0
M  V30 1556 C 158.248 -1.49836 -1.24796 0
M  V30 1557 O 157.518 -0.701684 -1.82902 0
M  V30 1558 H 156.098 -0.74554 0.0466769 0
M  V30 1559 H 158.76 -1.76952 0.816955 0
M  V30 1560 H 157.856 -3.11935 0.101498 0
M  V30 1561 N 158.157 -0.370918 -1.53173 0
M  V30 1562 C 159.573 -0.0200818 -1.59587 0
M  V30 1563 C 159.773 1.46279 -1.38581 0
M  V30 1564 O 158.829 2.22506 -1.19363 0
M  V30 1565 C 160.142 -0.4808 -2.96831 0
M  V30 1566 C 161.69 -0.435477 -3.09956 0
M  V30 1567 C 162.165 -0.872092 -4.4962 0
M  V30 1568 N 163.656 -0.827364 -4.55751 0
M  V30 1569 C 164.391 -1.13683 -5.62018 0
M  V30 1570 N 163.887 -1.51584 -6.76014 0
M  V30 1571 N 165.68 -1.05927 -5.52029 0
M  V30 1572 H 157.831 -1.33652 -1.65079 0
M  V30 1573 H 160.094 -0.546634 -0.774529 0
M  V30 1574 H 159.8 -1.51577 -3.1736 0
M  V30 1575 H 159.674 0.129796 -3.76977 0
M  V30 1576 H 162.061 0.590371 -2.89134 0
M  V30 1577 H 162.142 -1.08164 -2.31806 0
M  V30 1578 H 161.786 -1.89608 -4.71181 0
M  V30 1579 H 161.716 -0.203127 -5.26208 0
M  V30 1580 H 164.207 -0.548216 -3.73902 0
M  V30 1581 H 164.52 -1.73609 -7.53047 0
M  V30 1582 H 162.865 -1.55454 -6.77391 0
M  V30 1583 H 166.056 -0.762321 -4.61851 0
M  V30 1584 H 166.229 -1.30378 -6.34749 0
M  V30 1585 N 159.635 1.57281 -0.100228 0
M  V30 1586 C 160.883 1.94153 0.561157 0
M  V30 1587 C 161.204 0.983157 1.68401 0
M  V30 1588 O 160.474 0.0361132 1.95867 0
M  V30 1589 H 159.054 0.716791 0.210283 0
M  V30 1590 H 161.716 1.94202 -0.164765 0
M  V30 1591 H 160.812 2.96709 0.968008 0
M  V30 1592 N 161.113 -0.173488 1.56642 0
M  V30 1593 C 162.529 -0.525174 1.50712 0
M  V30 1594 C 162.729 -1.8476 0.804107 0
M  V30 1595 O 161.785 -2.49869 0.363574 0
M  V30 1596 C 163.098 -0.559937 2.95441 0
M  V30 1597 C 164.646 -0.647288 3.06234 0
M  V30 1598 C 165.121 -0.712963 4.52417 0
M  V30 1599 N 166.612 -0.775911 4.56655 0
M  V30 1600 C 167.347 -0.847264 5.67106 0
M  V30 1601 N 166.843 -0.879585 6.87194 0
M  V30 1602 N 168.636 -0.886117 5.55071 0
M  V30 1603 H 160.787 0.693681 2.00753 0
M  V30 1604 H 163.05 0.249841 0.914485 0
M  V30 1605 H 162.756 0.343049 3.50023 0
M  V30 1606 H 162.63 -1.40718 3.49969 0
M  V30 1607 H 165.017 -1.5407 2.51687 0
M  V30 1608 H 165.098 0.226586 2.54794 0
M  V30 1609 H 164.742 0.176183 5.07594 0
M  V30 1610 H 164.672 -1.60295 5.0161 0
M  V30 1611 H 167.163 -0.759304 3.70193 0
M  V30 1612 H 167.476 -0.935144 7.67121 0
M  V30 1613 H 165.821 -0.847898 6.89808 0
M  V30 1614 H 169.012 -0.857853 4.60172 0
M  V30 1615 H 169.185 -0.938263 6.41171 0
M  V30 1616 N 162.591 -1.51276 -0.441967 0
M  V30 1617 C 163.839 -1.63392 -1.18943 0
M  V30 1618 C 164.16 -0.350159 -1.9183 0
M  V30 1619 O 163.43 0.633784 -1.85364 0
M  V30 1620 H 162.01 -0.602164 -0.442049 0
M  V30 1621 H 164.672 -1.88186 -0.507165 0
M  V30 1622 H 163.768 -2.45934 -1.92154 0
M  V30 1623 N 164.069 0.697108 -1.41344 0
M  V30 1624 C 165.485 1.00751 -1.2378 0
M  V30 1625 C 165.685 2.01105 -0.126066 0
M  V30 1626 O 164.741 2.47295 0.51004 0
M  V30 1627 C 166.054 1.53359 -2.58653 0
M  V30 1628 C 167.602 1.6525 -2.65822 0
M  V30 1629 C 168.077 2.2126 -4.01009 0
M  V30 1630 N 169.568 2.28622 -4.02847 0
M  V30 1631 C 170.303 2.72984 -5.04249 0
M  V30 1632 N 169.799 3.16962 -6.16041 0
M  V30 1633 N 171.592 2.72534 -4.91611 0
M  V30 1634 H 163.743 0.0322662 -2.12375 0
M  V30 1635 H 166.006 0.0768853 -0.944877 0
M  V30 1636 H 165.712 0.870773 -3.4075 0
M  V30 1637 H 165.586 2.51597 -2.81032 0
M  V30 1638 H 167.973 2.30644 -1.84086 0
M  V30 1639 H 168.054 0.655614 -2.47256 0
M  V30 1640 H 167.698 1.56482 -4.83193 0
M  V30 1641 H 167.628 3.21698 -4.16915 0
M  V30 1642 H 170.119 1.97585 -3.22131 0
M  V30 1643 H 170.432 3.49434 -6.89287 0
M  V30 1644 H 168.777 3.14875 -6.1958 0
M  V30 1645 H 171.968 2.37525 -4.0336 0
M  V30 1646 H 172.141 3.06789 -5.70775 0
M  V30 1647 N 165.547 1.27147 0.931209 0
M  V30 1648 C 166.795 1.13055 1.6752 0
M  V30 1649 C 167.116 -0.324791 1.92276 0
M  V30 1650 O 166.386 -1.22775 1.52654 0
M  V30 1651 H 164.966 0.415391 0.620854 0
M  V30 1652 H 167.628 1.59623 1.11833 0
M  V30 1653 H 166.724 1.65694 2.64485 0
M  V30 1654 N 167.025 -1.13721 1.09112 0
M  V30 1655 C 168.253 -1.88773 0.846899 0
M  V30 1656 C 168.668 -1.7896 -0.601572 0
M  V30 1657 O 168.025 -1.15394 -1.41388 0
M  V30 1658 C 168.076 -3.3849 1.26913 0
M  V30 1659 O 167.797 -3.48043 2.66079 0
M  V30 1660 C 169.298 -4.30518 1.05682 0
M  V30 1661 H 166.518 -0.59772 0.304914 0
M  V30 1662 H 169.062 -1.43977 1.45227 0
M  V30 1663 H 167.217 -3.80881 0.707723 0
M  V30 1664 H 167.631 -4.4109 2.83795 0
M  V30 1665 H 169.105 -5.3391 1.40156 0
M  V30 1666 H 169.582 -4.392 -0.00563416 0
M  V30 1667 H 170.188 -3.93893 1.60402 0
M  V30 1668 N 168.503 -0.877838 -1.30888 0
M  V30 1669 C 169.466 -0.344265 -2.266 0
M  V30 1670 C 170.466 0.50922 -1.52524 0
M  V30 1671 O 171.656 0.317398 -1.71284 0
M  V30 1672 C 168.788 0.510198 -3.37061 0
M  V30 1673 H 169.981 -1.1893 -2.7531 0
M  V30 1674 H 167.534 -0.654088 -1.41956 0
M  V30 1675 H 168.269 1.37612 -2.93655 0
M  V30 1676 H 168.054 -0.101047 -3.9197 0
M  V30 1677 H 169.544 0.875537 -4.08319 0
M  V30 1678 N 169.982 1.44106 -0.638065 0
M  V30 1679 C 170.945 2.29138 0.0531013 0
M  V30 1680 C 171.945 1.41409 0.765506 0
M  V30 1681 O 173.135 1.63206 0.609046 0
M  V30 1682 C 170.267 3.23144 1.08584 0
M  V30 1683 H 171.46 2.91739 -0.694883 0
M  V30 1684 H 169.013 1.51134 -0.398538 0
M  V30 1685 H 169.748 2.65408 1.86357 0
M  V30 1686 H 169.533 3.87804 0.578852 0
M  V30 1687 H 171.023 3.87004 1.56899 0
M  V30 1688 N 171.46 0.379036 1.52974 0
M  V30 1689 C 172.871 -0.0972525 1.86447 0
M  V30 1690 C 173.222 -1.47027 1.29914 0
M  V30 1691 O 172.347 -2.07135 0.626433 0
M  V30 1692 C 172.942 -0.183248 3.38304 0
M  V30 1693 C 171.501 -0.603812 3.71525 0
M  V30 1694 C 170.648 0.240632 2.76254 0
M  V30 1695 H 173.599 0.597316 1.4703 0
M  V30 1696 H 173.62 -1.00432 3.67006 0
M  V30 1697 H 173.132 0.816191 3.79421 0
M  V30 1698 H 171.233 -1.61099 3.35973 0
M  V30 1699 H 171.346 -0.369086 4.77676 0
M  V30 1700 H 169.71 -0.292548 2.53014 0
M  V30 1701 H 170.493 1.23786 3.20206 0
M  V30 1702 N 172.938 -1.57226 0.108567 0
M  V30 1703 C 174.354 -1.5766 -0.248058 0
M  V30 1704 C 174.554 -1.12063 -1.67464 0
M  V30 1705 O 173.61 -0.803236 -2.39383 0
M  V30 1706 C 174.923 -3.0069 -0.0242287 0
M  V30 1707 C 176.471 -3.12868 -0.0909372 0
M  V30 1708 C 176.946 -4.57879 0.105067 0
M  V30 1709 N 178.437 -4.63172 0.0506846 0
M  V30 1710 C 179.172 -5.73126 0.177396 0
M  V30 1711 N 178.668 -6.91866 0.359696 0
M  V30 1712 N 180.461 -5.61977 0.117709 0
M  V30 1713 H 172.612 -1.85169 1.04049 0
M  V30 1714 H 174.875 -0.85529 0.40888 0
M  V30 1715 H 174.581 -3.38299 0.961604 0
M  V30 1716 H 174.455 -3.6945 -0.76068 0
M  V30 1717 H 176.842 -2.75124 -1.06729 0
M  V30 1718 H 176.923 -2.46672 0.677225 0
M  V30 1719 H 176.567 -4.96321 1.07834 0
M  V30 1720 H 176.497 -5.22153 -0.682954 0
M  V30 1721 H 178.988 -3.778 -0.0871266 0
M  V30 1722 H 179.301 -7.71503 0.447529 0
M  V30 1723 H 177.646 -6.93874 0.395536 0
M  V30 1724 H 180.837 -4.68094 -0.0236741 0
M  V30 1725 H 181.01 -6.47627 0.219905 0
M  V30 1726 N 174.416 0.165178 -1.56732 0
M  V30 1727 C 175.379 1.18822 -1.95995 0
M  V30 1728 C 176.379 1.3685 -0.84431 0
M  V30 1729 O 177.569 1.34152 -1.11126 0
M  V30 1730 C 174.701 2.5521 -2.26011 0
M  V30 1731 H 175.894 0.851825 -2.87548 0
M  V30 1732 H 173.447 0.407857 -1.50885 0
M  V30 1733 H 174.182 2.93852 -1.37191 0
M  V30 1734 H 173.967 2.43489 -3.07336 0
M  V30 1735 H 175.457 3.28927 -2.57288 0
M  V30 1736 N 175.894 1.51508 0.433938 0
M  V30 1737 C 176.857 1.72473 1.50949 0
M  V30 1738 C 177.857 0.594725 1.49398 0
M  V30 1739 O 179.047 0.862315 1.5136 0
M  V30 1740 C 176.179 1.78431 2.90474 0
M  V30 1741 H 177.372 2.68467 1.33662 0
M  V30 1742 H 174.925 1.41549 0.662836 0
M  V30 1743 H 175.66 0.842645 3.13161 0
M  V30 1744 H 175.445 2.60558 2.93005 0
M  V30 1745 H 176.935 1.96479 3.68491 0
M  V30 1746 N 177.372 -0.689602 1.41712 0
M  V30 1747 C 178.783 -1.26973 1.36875 0
M  V30 1748 C 179.134 -1.96124 0.054748 0
M  V30 1749 O 178.259 -1.99141 -0.84687 0
M  V30 1750 C 178.854 -2.30912 2.47922 0
M  V30 1751 C 177.413 -2.84486 2.46464 0
M  V30 1752 C 176.56 -1.58603 2.27465 0
M  V30 1753 H 179.511 -0.48396 1.51141 0
M  V30 1754 H 179.532 -3.12331 2.17323 0
M  V30 1755 H 179.044 -1.80554 3.43543 0
M  V30 1756 H 177.145 -3.39005 1.54617 0
M  V30 1757 H 177.258 -3.34511 3.42986 0
M  V30 1758 H 175.622 -1.84632 1.75451 0
M  V30 1759 H 176.405 -1.10233 3.25121 0
M  V30 1760 N 178.85 -1.27639 -0.924453 0
M  V30 1761 C 179.813 -1.10681 -2.00705 0
M  V30 1762 C 180.813 -0.0497823 -1.60723 0
M  V30 1763 O 182.003 -0.294654 -1.7169 0
M  V30 1764 C 179.135 -0.687164 -3.33902 0
M  V30 1765 H 180.328 -2.06817 -2.17179 0
M  V30 1766 H 177.881 -1.10473 -1.10569 0
M  V30 1767 H 178.616 0.275439 -3.23128 0
M  V30 1768 H 178.401 -1.45061 -3.6428 0
M  V30 1769 H 179.891 -0.590853 -4.13399 0
M  V30 1770 N 180.328 1.1314 -1.09713 0
M  V30 1771 C 181.291 2.16831 -0.742751 0
M  V30 1772 C 182.291 1.59159 0.229129 0
M  V30 1773 O 183.481 1.74199 0.00693237 0
M  V30 1774 C 180.613 3.40756 -0.0989168 0
M  V30 1775 H 181.806 2.49695 -1.66109 0
M  V30 1776 H 179.359 1.2802 -0.896699 0
M  V30 1777 H 180.094 3.13485 0.830514 0
M  V30 1778 H 179.879 3.83888 -0.798265 0
M  V30 1779 H 181.369 4.17386 0.133524 0
M  V30 1780 N 181.806 0.884767 1.30421 0
M  V30 1781 C 183.222 0.57874 1.48737 0
M  V30 1782 C 183.422 -0.883567 1.81095 0
M  V30 1783 O 182.478 -1.6648 1.89844 0
M  V30 1784 C 183.791 1.49171 2.61091 0
M  V30 1785 C 185.339 1.49532 2.74971 0
M  V30 1786 C 185.814 2.39421 3.90438 0
M  V30 1787 N 187.305 2.37383 3.97748 0
M  V30 1788 C 188.04 3.03647 4.86401 0
M  V30 1789 N 187.536 3.79136 5.79852 0
M  V30 1790 N 189.329 2.9288 4.79768 0
M  V30 1791 H 181.48 1.83075 1.0769 0
M  V30 1792 H 183.743 0.783637 0.533495 0
M  V30 1793 H 183.449 2.53291 2.44001 0
M  V30 1794 H 183.323 1.20113 3.57565 0
M  V30 1795 H 185.71 0.46163 2.91467 0
M  V30 1796 H 185.791 1.8262 1.79119 0
M  V30 1797 H 185.435 3.42874 3.74699 0
M  V30 1798 H 185.365 2.03649 4.85628 0
M  V30 1799 H 187.856 1.82525 3.30897 0
M  V30 1800 H 188.169 4.26789 6.4426 0
M  V30 1801 H 186.514 3.83243 5.79784 0
M  V30 1802 H 189.705 2.33433 4.05742 0
M  V30 1803 H 189.878 3.448 5.4865 0
M  V30 1804 N 183.284 -1.43765 0.645699 0
M  V30 1805 C 184.532 -2.01499 0.155731 0
M  V30 1806 C 184.853 -1.51151 -1.232 0
M  V30 1807 O 184.123 -0.721044 -1.82148 0
M  V30 1808 H 182.703 -0.745003 0.0545817 0
M  V30 1809 H 185.365 -1.76075 0.835677 0
M  V30 1810 H 184.461 -3.1181 0.134577 0
M  V30 1811 N 184.763 -0.387143 -1.52771 0
M  V30 1812 C 185.988 0.198407 -2.06449 0
M  V30 1813 C 186.413 1.39918 -1.25716 0
M  V30 1814 O 185.771 1.79099 -0.281657 0
M  V30 1815 C 185.819 0.548893 -3.56398 0
M  V30 1816 O 184.923 1.64315 -3.78252 0
M  V30 1817 H 184.264 0.0237731 -0.663574 0
M  V30 1818 H 186.794 -0.553989 -1.96957 0
M  V30 1819 H 186.804 0.813812 -3.99801 0
M  V30 1820 H 185.479 -0.329005 -4.14597 0
M  V30 1821 H 184.056 1.37211 -3.46738 0
M  V30 1822 N 186.241 1.57166 -0.116904 0
M  V30 1823 C 187.657 1.5779 0.239693 0
M  V30 1824 C 187.857 1.1295 1.66867 0
M  V30 1825 O 186.913 0.81592 2.38954 0
M  V30 1826 C 188.226 3.00699 0.00828202 0
M  V30 1827 C 189.774 3.12912 0.0743438 0
M  V30 1828 C 190.249 4.57817 -0.129348 0
M  V30 1829 N 191.74 4.63139 -0.075247 0
M  V30 1830 C 192.475 5.73023 -0.207788 0
M  V30 1831 N 191.971 6.91665 -0.396382 0
M  V30 1832 N 193.764 5.61906 -0.14751 0
M  V30 1833 H 185.915 1.84615 -1.05029 0
M  V30 1834 H 188.178 0.85311 -0.41341 0
M  V30 1835 H 187.884 3.37784 -0.979531 0
M  V30 1836 H 187.758 3.69848 0.741077 0
M  V30 1837 H 190.145 2.75686 1.05268 0
M  V30 1838 H 190.226 2.4631 -0.690297 0
M  V30 1839 H 189.87 4.95742 -1.10465 0
M  V30 1840 H 189.8 5.22507 0.655253 0
M  V30 1841 H 192.291 3.7784 0.0670898 0
M  V30 1842 H 192.604 7.71255 -0.488437 0
M  V30 1843 H 190.949 6.93654 -0.432329 0
M  V30 1844 H 194.14 4.681 -0.00115036 0
M  V30 1845 H 194.313 6.47501 -0.254247 0
M  V30 1846 N 187.719 -0.156864 1.56817 0
M  V30 1847 C 189.13 -0.717916 1.72345 0
M  V30 1848 C 189.481 -1.82124 0.729747 0
M  V30 1849 O 188.606 -2.16141 -0.105781 0
M  V30 1850 C 189.201 -1.30904 3.12489 0
M  V30 1851 C 187.76 -1.81676 3.29653 0
M  V30 1852 C 186.907 -0.701349 2.68284 0
M  V30 1853 H 189.858 0.0686989 1.58551 0
M  V30 1854 H 189.879 -2.17882 3.11942 0
M  V30 1855 H 189.391 -0.505796 3.8479 0
M  V30 1856 H 187.492 -2.64598 2.62333 0
M  V30 1857 H 187.605 -1.95226 4.3752 0
M  V30 1858 H 185.969 -1.12548 2.28484 0
M  V30 1859 H 186.752 0.0902846 3.43181 0
M  V30 1860 N 189.197 -1.51736 -0.425897 0
M  V30 1861 C 190.445 -1.64644 -1.17204 0
M  V30 1862 C 190.766 -0.370486 -1.91448 0
M  V30 1863 O 190.036 0.614088 -1.86026 0
M  V30 1864 H 188.616 -0.606819 -0.435638 0
M  V30 1865 H 191.278 -1.88713 -0.487177 0
M  V30 1866 H 190.374 -2.47958 -1.89534 0
M  V30 1867 N 190.675 0.682077 -1.42076 0
M  V30 1868 C 192.086 1.26246 -1.37546 0
M  V30 1869 C 192.437 1.96092 -0.0651481 0
M  V30 1870 O 191.562 1.99587 0.836297 0
M  V30 1871 C 192.157 2.29594 -2.49143 0
M  V30 1872 C 190.716 2.83175 -2.47969 0
M  V30 1873 C 189.863 1.57395 -2.28303 0
M  V30 1874 H 192.814 0.475937 -1.51395 0
M  V30 1875 H 192.835 3.11175 -2.18976 0
M  V30 1876 H 192.347 1.78729 -3.44496 0
M  V30 1877 H 190.448 3.3818 -1.56413 0
M  V30 1878 H 190.561 3.32687 -3.44755 0
M  V30 1879 H 188.925 1.83699 -1.76428 0
M  V30 1880 H 189.708 1.08507 -3.25701 0
M  V30 1881 N 192.153 1.28127 0.917671 0
M  V30 1882 C 193.116 1.11744 2.00115 0
M  V30 1883 C 194.116 0.0583052 1.60694 0
M  V30 1884 O 195.306 0.303755 1.71531 0
M  V30 1885 C 192.438 0.704862 3.33533 0
M  V30 1886 H 193.631 2.07966 2.16079 0
M  V30 1887 H 191.184 1.11058 1.09981 0
M  V30 1888 H 191.919 -0.258299 3.2327 0
M  V30 1889 H 191.704 1.4699 3.63505 0
M  V30 1890 H 193.194 0.612768 4.1308 0
M  V30 1891 N 193.631 -1.12557 1.10312 0
M  V30 1892 C 194.879 -1.83675 0.843091 0
M  V30 1893 C 195.2 -1.84435 -0.633131 0
M  V30 1894 O 194.47 -1.30657 -1.45964 0
M  V30 1895 H 193.05 -0.680138 0.308904 0
M  V30 1896 H 195.712 -1.36301 1.39313 0
M  V30 1897 H 194.808 -2.87908 1.2048 0
M  V30 1898 N 195.109 -0.891671 -1.2995 0
M  V30 1899 C 196.337 -0.52866 -2.00032 0
M  V30 1900 C 196.752 0.884574 -1.66795 0
M  V30 1901 O 196.109 1.5827 -0.908669 0
M  V30 1902 C 196.16 -0.701814 -3.54622 0
M  V30 1903 O 195.881 -2.05942 -3.86678 0
M  V30 1904 C 197.382 -0.342683 -4.41973 0
M  V30 1905 H 194.602 -0.203659 -0.639347 0
M  V30 1906 H 197.146 -1.19881 -1.65677 0
M  V30 1907 H 195.301 -0.0789468 -3.8732 0
M  V30 1908 H 195.715 -2.08291 -4.81368 0
M  V30 1909 H 197.189 -0.514709 -5.49595 0
M  V30 1910 H 197.666 0.71975 -4.33262 0
M  V30 1911 H 198.272 -0.942154 -4.14733 0
M  V30 1912 N 196.587 1.43421 -0.653314 0
M  V30 1913 C 197.52 2.2803 0.0879804 0
M  V30 1914 C 198.498 1.39833 0.82979 0
M  V30 1915 O 199.682 1.69275 0.829341 0
M  V30 1916 C 196.809 3.19247 1.13132 0
M  V30 1917 C 195.855 4.23704 0.487546 0
M  V30 1918 S 196.688 5.30377 -0.738961 0
M  V30 1919 C 197.844 6.25162 0.30384 0
M  V30 1920 H 198.077 2.90554 -0.629739 0
M  V30 1921 H 195.61 1.47934 -0.442156 0
M  V30 1922 H 197.568 3.72346 1.72827 0
M  V30 1923 H 196.229 2.55901 1.82136 0
M  V30 1924 H 195.422 4.87631 1.27407 0
M  V30 1925 H 195.024 3.73983 -0.0352915 0
M  V30 1926 H 197.316 6.67321 1.17 0
M  V30 1927 H 198.259 7.07463 -0.300402 0
M  V30 1928 H 198.667 5.60864 0.63969 0
M  V30 1929 N 198.065 0.39524 1.52563 0
M  V30 1930 C 199.028 -0.425001 2.25225 0
M  V30 1931 C 200.028 -0.985266 1.27079 0
M  V30 1932 O 201.218 -0.866332 1.5113 0
M  V30 1933 C 198.35 -1.59686 3.01186 0
M  V30 1934 H 199.543 0.211233 2.99155 0
M  V30 1935 H 197.096 0.147472 1.55603 0
M  V30 1936 H 197.831 -2.27035 2.31572 0
M  V30 1937 H 197.616 -1.20176 3.73229 0
M  V30 1938 H 199.106 -2.17743 3.5634 0
M  V30 1939 N 199.544 -1.57102 0.125237 0
M  V30 1940 C 200.507 -2.14471 -0.80838 0
M  V30 1941 C 201.507 -1.0811 -1.19033 0
M  V30 1942 O 202.697 -1.33856 -1.11482 0
M  V30 1943 C 199.829 -2.69005 -2.09402 0
M  V30 1944 H 201.022 -2.98297 -0.309696 0
M  V30 1945 H 198.575 -1.55807 -0.124051 0
M  V30 1946 H 199.31 -1.88785 -2.63687 0
M  V30 1947 H 199.095 -3.46799 -1.82957 0
M  V30 1948 H 200.585 -3.13278 -2.76128 0
M  V30 1949 N 201.022 0.148545 -1.56898 0
M  V30 1950 C 202.27 0.859717 -1.82902 0
M  V30 1951 C 202.591 1.81775 -0.70588 0
M  V30 1952 O 201.861 1.93994 0.272586 0
M  V30 1953 H 200.441 0.320469 -0.674766 0
M  V30 1954 H 203.103 0.142918 -1.94375 0
M  V30 1955 H 202.199 1.4229 -2.77777 0
M  V30 1956 N 202.5 1.5196 0.417844 0
M  V30 1957 C 203.725 1.69717 1.1921 0
M  V30 1958 C 204.15 0.402148 1.83751 0
M  V30 1959 O 203.508 -0.639593 1.69643 0
M  V30 1960 C 203.556 2.82794 2.2374 0
M  V30 1961 O 202.66 2.47756 3.29683 0
M  V30 1962 H 202.001 0.565263 0.348387 0
M  V30 1963 H 204.531 1.98621 0.490985 0
M  V30 1964 H 204.541 3.07452 2.68212 0
M  V30 1965 H 203.216 3.76756 1.76146 0
M  V30 1966 H 201.793 2.33739 2.90552 0
M  V30 1967 N 203.978 -0.674533 1.42435 0
M  V30 1968 C 205.227 -1.43034 1.42212 0
M  V30 1969 C 205.54 -1.95555 0.0420788 0
M  V30 1970 O 206.746 -2.71374 -0.0827558 0
M  V30 1971 C 205.202 -2.58748 2.50155 0
M  V30 1972 C 204.81 -2.12925 3.94166 0
M  V30 1973 C 206.554 -3.36257 2.59098 0
M  V30 1974 C 204.461 -3.25723 4.93618 0
M  V30 1975 H 203.391 -0.537345 0.528939 0
M  V30 1976 H 206.042 -0.73024 1.68344 0
M  V30 1977 H 204.424 -3.31128 2.17188 0
M  V30 1978 H 205.598 -1.47697 4.36488 0
M  V30 1979 H 203.913 -1.48354 3.89076 0
M  V30 1980 H 206.51 -4.20264 3.30578 0
M  V30 1981 H 206.853 -3.82866 1.63461 0
M  V30 1982 H 207.386 -2.70947 2.9126 0
M  V30 1983 H 204.125 -2.84105 5.90732 0
M  V30 1984 H 203.645 -3.89732 4.55926 0
M  V30 1985 H 205.324 -3.91186 5.15347 0
M  V30 1986 N 205.456 -1.28612 -0.910864 0
M  V30 1987 C 206.684 -1.18792 -1.69399 0
M  V30 1988 C 207.099 0.253039 -1.87097 0
M  V30 1989 O 206.456 1.17071 -1.40003 0
M  V30 1990 C 206.507 -1.88511 -3.08457 0
M  V30 1991 O 206.228 -3.26979 -2.91576 0
M  V30 1992 C 207.729 -1.85029 -4.02839 0
M  V30 1993 H 204.949 -0.412233 -0.529438 0
M  V30 1994 H 207.493 -1.69788 -1.13984 0
M  V30 1995 H 205.648 -1.41379 -3.60681 0
M  V30 1996 H 206.062 -3.61936 -3.79608 0
M  V30 1997 H 207.536 -2.38395 -4.97867 0
M  V30 1998 H 208.013 -0.823303 -4.31414 0
M  V30 1999 H 208.619 -2.31853 -3.56545 0
M  V30 2000 N 206.934 1.1197 -1.10907 0
M  V30 2001 C 208.162 1.87402 -0.876824 0
M  V30 2002 C 208.577 1.79894 0.573025 0
M  V30 2003 O 207.934 1.17629 1.39534 0
M  V30 2004 C 207.985 3.36428 -1.32282 0
M  V30 2005 O 207.706 3.43765 -2.71582 0
M  V30 2006 C 209.207 4.28783 -1.12518 0
M  V30 2007 H 206.427 0.592793 -0.314384 0
M  V30 2008 H 208.971 1.41649 -1.47499 0
M  V30 2009 H 207.126 3.79706 -0.768229 0
M  V30 2010 H 207.54 4.3652 -2.90776 0
M  V30 2011 H 209.014 5.31613 -1.48633 0
M  V30 2012 H 209.491 4.39153 -0.0642394 0
M  V30 2013 H 210.097 3.91291 -1.66648 0
M  V30 2014 N 208.412 0.89855 1.29475 0
M  V30 2015 C 209.342 0.39201 2.30186 0
M  V30 2016 C 210.323 -0.532359 1.61555 0
M  V30 2017 O 211.508 -0.443331 1.89072 0
M  V30 2018 C 208.638 -0.382353 3.45189 0
M  V30 2019 C 207.592 0.451483 4.25612 0
M  V30 2020 C 206.918 -0.450307 5.328 0
M  V30 2021 C 208.218 1.70079 4.93832 0
M  V30 2022 H 209.912 1.23362 2.72804 0
M  V30 2023 H 207.458 0.594638 1.31149 0
M  V30 2024 H 209.411 -0.747451 4.14718 0
M  V30 2025 H 208.135 -1.25774 3.01411 0
M  V30 2026 H 206.794 0.798897 3.57789 0
M  V30 2027 H 206.442 -1.32379 4.85268 0
M  V30 2028 H 206.142 0.103902 5.87508 0
M  V30 2029 H 207.666 -0.811623 6.05182 0
M  V30 2030 H 209.08 1.40549 5.55805 0
M  V30 2031 H 207.477 2.19623 5.58467 0
M  V30 2032 H 208.547 2.43744 4.19186 0
M  V30 2033 N 209.89 -1.43072 0.660911 0
M  V30 2034 C 211.301 -1.84932 0.256348 0
M  V30 2035 C 211.652 -1.55325 -1.19868 0
M  V30 2036 O 210.777 -1.00607 -1.91591 0
M  V30 2037 C 211.372 -3.35684 0.458475 0
M  V30 2038 C 209.931 -3.76245 0.108161 0
M  V30 2039 C 209.078 -2.66749 0.757641 0
M  V30 2040 H 212.029 -1.33116 0.864051 0
M  V30 2041 H 212.05 -3.79365 -0.293683 0
M  V30 2042 H 211.562 -3.572 1.51755 0
M  V30 2043 H 209.663 -3.60338 -0.948014 0
M  V30 2044 H 209.776 -4.76058 0.538992 0
M  V30 2045 H 208.14 -2.53989 0.190185 0
M  V30 2046 H 208.923 -2.91092 1.81989 0
M  V30 2047 N 211.368 -0.403325 -1.52352 0
M  V30 2048 C 212.331 0.413051 -2.25447 0
M  V30 2049 C 213.331 0.978513 -1.276 0
M  V30 2050 O 214.521 0.858305 -1.51587 0
M  V30 2051 C 211.653 1.58087 -3.02029 0
M  V30 2052 H 212.846 -0.227094 -2.99039 0
M  V30 2053 H 210.399 -0.155722 -1.55522 0
M  V30 2054 H 211.134 2.25804 -2.32772 0
M  V30 2055 H 210.919 1.18195 -3.73861 0
M  V30 2056 H 212.409 2.1585 -3.57489 0
M  V30 2057 N 212.846 1.57033 -0.133567 0
M  V30 2058 C 213.776 2.1909 0.807567 0
M  V30 2059 C 214.757 1.13517 1.26681 0
M  V30 2060 O 215.942 1.41809 1.32679 0
M  V30 2061 C 213.072 2.80188 2.05212 0
M  V30 2062 C 212.026 3.91471 1.73015 0
M  V30 2063 C 211.352 4.39443 3.04622 0
M  V30 2064 C 212.652 5.12886 0.987168 0
M  V30 2065 H 214.346 2.97988 0.290403 0
M  V30 2066 H 211.892 1.43335 0.138239 0
M  V30 2067 H 213.845 3.22264 2.71521 0
M  V30 2068 H 212.569 1.98601 2.59278 0
M  V30 2069 H 211.228 3.49993 1.0909 0
M  V30 2070 H 210.876 3.54695 3.56651 0
M  V30 2071 H 210.576 5.14495 2.83847 0
M  V30 2072 H 212.1 4.8418 3.72024 0
M  V30 2073 H 213.514 5.51891 1.55208 0
M  V30 2074 H 211.911 5.93615 0.87985 0
M  V30 2075 H 212.981 4.84894 -0.0235286 0
M  V30 2076 N 214.325 -0.140222 1.56975 0
M  V30 2077 C 215.736 -0.699596 1.73097 0
M  V30 2078 C 216.087 -1.8134 0.749022 0
M  V30 2079 O 215.212 -2.16241 -0.0828503 0
M  V30 2080 C 215.807 -1.27582 3.1386 0
M  V30 2081 C 214.366 -1.78169 3.31561 0
M  V30 2082 C 213.513 -0.672855 2.69013 0
M  V30 2083 H 216.464 0.0855115 1.58469 0
M  V30 2084 H 216.485 -2.14561 3.14235 0
M  V30 2085 H 215.997 -0.464955 3.85305 0
M  V30 2086 H 214.098 -2.61801 2.65124 0
M  V30 2087 H 214.211 -1.90574 4.39566 0
M  V30 2088 H 212.575 -1.10118 2.29665 0
M  V30 2089 H 213.358 0.126679 3.43066 0
M  V30 2090 N 215.803 -1.52179 -0.40978 0
M  V30 2091 C 216.713 -1.78364 -1.52392 0
M  V30 2092 C 217.729 -0.669183 -1.60617 0
M  V30 2093 O 218.905 -0.954518 -1.77344 0
M  V30 2094 C 215.97 -1.92822 -2.88133 0
M  V30 2095 C 215.031 -3.16725 -2.898 0
M  V30 2096 C 214.264 -3.30483 -4.19067 0
M  V30 2097 O 214.487 -2.49522 -5.12928 0
M  V30 2098 O 213.421 -4.2363 -4.27576 0
M  V30 2099 H 217.247 -2.72931 -1.33201 0
M  V30 2100 H 214.832 -1.37016 -0.59557 0
M  V30 2101 H 216.714 -2.04157 -3.68643 0
M  V30 2102 H 215.389 -1.01444 -3.07393 0
M  V30 2103 H 214.296 -3.10848 -2.08146 0
M  V30 2104 H 215.629 -4.07881 -2.75489 0
M  V30 2105 N 217.281 0.66697 -1.42791 0
M  V30 2106 C 218.558 1.4234 -1.34159 0
M  V30 2107 C 218.938 2.11093 0.0172729 0
M  V30 2108 O 218.286 2.03808 1.03318 0
M  V30 2109 C 218.496 2.41942 -2.51526 0
M  V30 2110 C 219.844 3.06353 -2.93995 0
M  V30 2111 O 220.868 2.52269 -2.51473 0
M  V30 2112 O 219.727 4.04376 -3.67617 0
M  V30 2113 H 216.821 0.635277 -0.529483 0
M  V30 2114 H 219.367 0.695034 -1.54814 0
M  V30 2115 H 218.139 1.89991 -3.42081 0
M  V30 2116 H 217.762 3.22249 -2.32898 0
M  V30 2117 N 218.759 1.29093 0.90403 0
M  V30 2118 C 220.007 1.16583 1.65085 0
M  V30 2119 C 220.328 -0.283933 1.92922 0
M  V30 2120 O 219.598 -1.19509 1.55224 0
M  V30 2121 H 218.178 0.428467 0.611903 0
M  V30 2122 H 220.84 1.61959 1.08422 0
M  V30 2123 H 219.936 1.71266 2.6091 0
M  V30 2124 N 220.237 -1.11381 1.11499 0
M  V30 2125 C 221.485 -1.8277 0.862524 0
M  V30 2126 C 221.806 -1.85097 -0.613534 0
M  V30 2127 O 221.076 -1.32198 -1.4457 0
M  V30 2128 H 219.656 -0.676823 0.316101 0
M  V30 2129 H 222.318 -1.34816 1.4075 0
M  V30 2130 H 221.414 -2.86614 1.23527 0
M  V30 2131 N 221.715 -0.905404 -1.28997 0
M  V30 2132 C 222.94 -0.549175 -1.99997 0
M  V30 2133 C 223.365 0.860276 -1.67275 0
M  V30 2134 O 222.723 1.57355 -0.900502 0
M  V30 2135 C 222.771 -0.755185 -3.52604 0
M  V30 2136 O 221.875 0.189692 -4.11964 0
M  V30 2137 H 221.216 -0.213899 -0.628604 0
M  V30 2138 H 223.746 -1.21856 -1.64354 0
M  V30 2139 H 223.756 -0.662045 -4.02593 0
M  V30 2140 H 222.431 -1.78271 -3.75755 0
M  V30 2141 H 221.008 0.0485257 -3.72868 0
M  V30 2142 N 223.193 1.4272 -0.668489 0
M  V30 2143 C 224.441 2.01226 -0.187769 0
M  V30 2144 C 224.762 1.53092 1.2078 0
M  V30 2145 O 224.032 0.74993 1.80977 0
M  V30 2146 H 222.612 0.744041 -0.0664272 0
M  V30 2147 H 225.274 1.74723 -0.863583 0
M  V30 2148 H 224.37 3.11556 -0.184166 0
M  V30 2149 N 224.671 0.411399 1.52136 0
M  V30 2150 C 225.634 -0.401089 2.25663 0
M  V30 2151 C 226.634 -0.971732 1.28117 0
M  V30 2152 O 227.824 -0.850254 1.52041 0
M  V30 2153 C 224.956 -1.56483 3.02863 0
M  V30 2154 H 226.149 0.24295 2.98914 0
M  V30 2155 H 223.702 0.163968 1.55438 0
M  V30 2156 H 224.437 -2.24567 2.33967 0
M  V30 2157 H 224.222 -1.16211 3.74483 0
M  V30 2158 H 225.712 -2.13951 3.58629 0
M  V30 2159 N 226.149 -1.5696 0.141893 0
M  V30 2160 C 227.396 -1.9596 -0.510492 0
M  V30 2161 C 227.724 -1.02648 -1.65208 0
M  V30 2162 O 226.979 -0.0546947 -1.95624 0
M  V30 2163 C 227.278 -3.41242 -1.06249 0
M  V30 2164 C 226.944 -4.50882 -0.0398791 0
M  V30 2165 C 225.606 -4.80595 0.241247 0
M  V30 2166 C 227.958 -5.17058 0.65578 0
M  V30 2167 C 225.286 -5.73792 1.22393 0
M  V30 2168 C 227.638 -6.11313 1.62724 0
M  V30 2169 C 226.302 -6.39407 1.91612 0
M  V30 2170 H 225.572 -0.717068 -0.186802 0
M  V30 2171 H 228.219 -1.90142 0.227643 0
M  V30 2172 H 226.524 -3.43866 -1.87785 0
M  V30 2173 H 228.221 -3.68742 -1.57576 0
M  V30 2174 H 224.811 -4.27754 -0.269174 0
M  V30 2175 H 228.995 -4.94239 0.451779 0
M  V30 2176 H 224.251 -5.93853 1.45424 0
M  V30 2177 H 228.425 -6.61668 2.17183 0
M  V30 2178 H 226.052 -7.11427 2.6791 0
M  V30 2179 N 227.627 0.131896 -1.57047 0
M  V30 2180 C 229.038 0.690407 -1.73465 0
M  V30 2181 C 229.389 1.8094 -0.758629 0
M  V30 2182 O 228.514 2.16282 0.0713813 0
M  V30 2183 C 229.109 1.25916 -3.14532 0
M  V30 2184 C 227.668 1.76409 -3.32501 0
M  V30 2185 C 226.815 0.658579 -2.69366 0
M  V30 2186 H 229.766 -0.0939144 -1.58422 0
M  V30 2187 H 229.787 2.12892 -3.15369 0
M  V30 2188 H 229.299 0.444515 -3.85546 0
M  V30 2189 H 227.4 2.60391 -2.66509 0
M  V30 2190 H 227.513 1.88241 -4.4057 0
M  V30 2191 H 225.877 1.08899 -2.30246 0
M  V30 2192 H 226.66 -0.14487 -3.42994 0
M  V30 2193 N 229.106 1.52395 0.401703 0
M  V30 2194 C 230.517 1.58899 0.980202 0
M  V30 2195 C 230.868 0.434032 1.91339 0
M  V30 2196 O 229.993 -0.444619 2.11783 0
M  V30 2197 C 230.588 2.87994 1.78451 0
M  V30 2198 C 229.147 2.96953 2.31292 0
M  V30 2199 C 228.294 2.53903 1.11483 0
M  V30 2200 H 231.245 1.57657 0.18168 0
M  V30 2201 H 231.266 2.73765 2.64259 0
M  V30 2202 H 230.778 3.72035 1.10506 0
M  V30 2203 H 228.879 2.17422 3.02586 0
M  V30 2204 H 228.992 4.01344 2.61649 0
M  V30 2205 H 227.356 2.07925 1.47104 0
M  V30 2206 H 228.139 3.40326 0.450928 0
M  V30 2207 N 230.584 -0.659388 1.43143 0
M  V30 2208 C 231.832 -1.41654 1.44147 0
M  V30 2209 C 232.153 -1.94893 0.0645739 0
M  V30 2210 O 231.423 -1.74044 -0.899198 0
M  V30 2211 H 230.003 -0.525708 0.530697 0
M  V30 2212 H 232.665 -0.778097 1.78694 0
M  V30 2213 H 231.761 -2.26195 2.1504 0
M  V30 2214 N 232.062 -1.29571 -0.897171 0
M  V30 2215 C 233.012 -1.11539 -1.98855 0
M  V30 2216 C 233.996 -0.0340716 -1.60864 0
M  V30 2217 O 235.188 -0.256062 -1.75138 0
M  V30 2218 C 232.317 -0.796603 -3.3393 0
M  V30 2219 C 231.403 -1.91758 -3.78272 0
M  V30 2220 N 231.794 -3.16143 -3.94826 0
M  V30 2221 C 230.092 -1.81119 -4.07568 0
M  V30 2222 C 230.793 -3.89293 -4.32233 0
M  V30 2223 N 229.769 -3.17255 -4.41419 0
M  V30 2224 H 233.571 -2.05894 -2.09726 0
M  V30 2225 H 231.085 -1.20732 -1.08616 0
M  V30 2226 H 233.082 -0.648459 -4.11826 0
M  V30 2227 H 231.742 0.139003 -3.24402 0
M  V30 2228 H 232.753 -3.5157 -3.80288 0
M  V30 2229 H 229.43 -0.948461 -4.06584 0
M  V30 2230 H 230.82 -4.9635 -4.52865 0
M  V30 2231 N 233.54 1.10788 -1.12088 0
M  V30 2232 C 234.787 1.82671 -0.873931 0
M  V30 2233 C 235.115 1.85004 0.600311 0
M  V30 2234 O 234.37 1.30365 1.45957 0
M  V30 2235 C 234.669 3.29294 -1.38926 0
M  V30 2236 C 234.335 3.47113 -2.87791 0
M  V30 2237 C 232.997 3.51684 -3.28439 0
M  V30 2238 C 235.349 3.52808 -3.83635 0
M  V30 2239 C 232.677 3.59513 -4.63646 0
M  V30 2240 C 235.029 3.62169 -5.18668 0
M  V30 2241 C 233.693 3.65003 -5.58864 0
M  V30 2242 H 232.963 0.668441 -0.319794 0
M  V30 2243 H 235.61 1.30613 -1.40045 0
M  V30 2244 H 233.915 3.83894 -0.783122 0
M  V30 2245 H 235.612 3.83416 -1.17443 0
M  V30 2246 H 232.202 3.4423 -2.5535 0
M  V30 2247 H 236.386 3.4853 -3.53328 0
M  V30 2248 H 231.642 3.59987 -4.94185 0
M  V30 2249 H 235.816 3.6552 -5.92763 0
M  V30 2250 H 233.443 3.70822 -6.63623 0
M  V30 2251 N 235.018 0.912232 1.28515 0
M  V30 2252 C 235.965 0.397954 2.27343 0
M  V30 2253 C 236.935 -0.526766 1.57526 0
M  V30 2254 O 238.12 -0.449292 1.85435 0
M  V30 2255 C 235.26 -0.357263 3.43246 0
M  V30 2256 C 234.373 0.599788 4.27816 0
M  V30 2257 C 233.508 -0.173725 5.30916 0
M  V30 2258 C 232.547 0.777039 6.07148 0
M  V30 2259 N 231.684 0.0371398 7.0209 0
M  V30 2260 H 236.524 1.24577 2.70711 0
M  V30 2261 H 234.061 0.625612 1.33133 0
M  V30 2262 H 236.019 -0.8113 4.09236 0
M  V30 2263 H 234.649 -1.16943 3.00872 0
M  V30 2264 H 233.701 1.17235 3.61884 0
M  V30 2265 H 235.013 1.32704 4.80823 0
M  V30 2266 H 234.167 -0.688394 6.02782 0
M  V30 2267 H 232.906 -0.934041 4.78672 0
M  V30 2268 H 231.911 1.3031 5.34134 0
M  V30 2269 H 233.136 1.53689 6.61481 0
M  V30 2270 H 231.082 -0.705213 6.52198 0
M  V30 2271 H 230.999 0.704249 7.52713 0
M  V30 2272 H 232.267 -0.457383 7.78157 0
M  V30 2273 N 236.496 -1.42363 0.676048 0
M  V30 2274 C 237.773 -1.95183 0.127726 0
M  V30 2275 C 238.153 -1.61641 -1.35777 0
M  V30 2276 O 237.501 -0.913216 -2.09458 0
M  V30 2277 C 237.711 -3.46721 0.398199 0
M  V30 2278 C 239.059 -4.23427 0.315383 0
M  V30 2279 O 240.083 -3.54649 0.332016 0
M  V30 2280 O 238.942 -5.45888 0.25865 0
M  V30 2281 H 236.036 -0.826992 0.00359427 0
M  V30 2282 H 238.582 -1.52184 0.750864 0
M  V30 2283 H 237.354 -3.64344 1.4272 0
M  V30 2284 H 236.977 -3.96769 -0.256885 0
M  V30 2285 N 237.974 -0.419461 -1.51915 0
M  V30 2286 C 239.385 0.0477853 -1.86639 0
M  V30 2287 C 239.736 1.43531 -1.33766 0
M  V30 2288 O 238.861 2.05401 -0.68113 0
M  V30 2289 C 239.456 0.0934885 -3.38671 0
M  V30 2290 C 238.015 0.505097 -3.72996 0
M  V30 2291 C 237.162 -0.313792 -2.75519 0
M  V30 2292 H 240.113 -0.636088 -1.45395 0
M  V30 2293 H 240.134 0.906667 -3.6954 0
M  V30 2294 H 239.646 -0.916501 -3.77123 0
M  V30 2295 H 237.747 1.52135 -3.40126 0
M  V30 2296 H 237.86 0.242309 -4.78487 0
M  V30 2297 H 236.224 0.225363 -2.53701 0
M  V30 2298 H 237.007 -1.32232 -3.16812 0
M  V30 2299 N 239.452 1.56882 -0.150215 0
M  V30 2300 C 240.399 2.16922 0.788244 0
M  V30 2301 C 241.369 1.10303 1.24187 0
M  V30 2302 O 242.554 1.38359 1.31383 0
M  V30 2303 C 239.694 2.79754 2.02068 0
M  V30 2304 C 238.807 4.00775 1.61257 0
M  V30 2305 C 237.942 4.51595 2.79705 0
M  V30 2306 C 236.981 5.65074 2.35282 0
M  V30 2307 N 236.118 6.10499 3.4675 0
M  V30 2308 H 240.958 2.96779 0.269444 0
M  V30 2309 H 238.495 1.46599 0.12128 0
M  V30 2310 H 240.453 3.14329 2.74323 0
M  V30 2311 H 239.083 2.02536 2.51354 0
M  V30 2312 H 238.135 3.72158 0.787553 0
M  V30 2313 H 239.447 4.82978 1.24633 0
M  V30 2314 H 238.601 4.88242 3.60145 0
M  V30 2315 H 237.34 3.68406 3.19576 0
M  V30 2316 H 236.345 5.28 1.53283 0
M  V30 2317 H 237.57 6.50052 1.96493 0
M  V30 2318 H 235.516 5.30243 3.86236 0
M  V30 2319 H 235.433 6.87637 3.14152 0
M  V30 2320 H 236.701 6.51791 4.27537 0
M  V30 2321 N 240.93 -0.123565 1.57115 0
M  V30 2322 C 242.346 -0.476961 1.52306 0
M  V30 2323 C 242.546 -1.82109 0.86248 0
M  V30 2324 O 241.602 -2.48586 0.442884 0
M  V30 2325 C 242.915 -0.465661 2.97073 0
M  V30 2326 C 244.463 -0.549534 3.08138 0
M  V30 2327 C 244.938 -0.568669 4.54456 0
M  V30 2328 N 246.429 -0.630237 4.58892 0
M  V30 2329 C 247.164 -0.666415 5.69514 0
M  V30 2330 N 246.66 -0.660514 6.89644 0
M  V30 2331 N 248.453 -0.709077 5.5761 0
M  V30 2332 H 240.604 0.757198 1.98445 0
M  V30 2333 H 242.867 0.278808 0.906074 0
M  V30 2334 H 242.573 0.454232 3.48754 0
M  V30 2335 H 242.447 -1.29513 3.54269 0
M  V30 2336 H 244.834 -1.45985 2.56461 0
M  V30 2337 H 244.915 0.307532 2.53945 0
M  V30 2338 H 244.559 0.337581 5.06777 0
M  V30 2339 H 244.489 -1.44256 5.06456 0
M  V30 2340 H 246.98 -0.641146 3.72421 0
M  V30 2341 H 247.293 -0.690616 7.69708 0
M  V30 2342 H 245.638 -0.628012 6.92157 0
M  V30 2343 H 248.829 -0.711019 4.62668 0
M  V30 2344 H 249.002 -0.733804 6.43832 0
M  V30 2345 N 242.408 -1.52605 -0.393616 0
M  V30 2346 C 243.338 -1.80022 -1.48709 0
M  V30 2347 C 244.319 -0.651995 -1.57108 0
M  V30 2348 O 245.504 -0.89913 -1.72132 0
M  V30 2349 C 242.634 -1.96492 -2.86371 0
M  V30 2350 C 241.588 -3.12161 -2.92813 0
M  V30 2351 C 240.914 -3.13877 -4.3288 0
M  V30 2352 C 242.214 -4.51322 -2.6288 0
M  V30 2353 H 243.908 -2.71589 -1.26015 0
M  V30 2354 H 241.454 -1.30684 -0.604778 0
M  V30 2355 H 243.407 -2.14255 -3.62867 0
M  V30 2356 H 242.131 -1.01611 -3.10391 0
M  V30 2357 H 240.79 -2.94173 -2.18764 0
M  V30 2358 H 240.438 -2.16687 -4.53933 0
M  V30 2359 H 240.138 -3.91576 -4.38112 0
M  V30 2360 H 241.662 -3.33789 -5.1129 0
M  V30 2361 H 243.076 -4.69435 -3.29096 0
M  V30 2362 H 241.473 -5.31053 -2.79468 0
M  V30 2363 H 242.543 -4.58353 -1.58242 0
M  V30 2364 N 243.887 0.651787 -1.4349 0
M  V30 2365 C 245.117 1.43728 -1.48411 0
M  V30 2366 C 245.525 1.8893 -0.10103 0
M  V30 2367 O 244.868 1.60182 0.899307 0
M  V30 2368 C 244.93 2.70411 -2.36893 0
M  V30 2369 C 244.594 2.4714 -3.8441 0
M  V30 2370 C 245.591 2.10271 -4.75481 0
M  V30 2371 C 243.276 2.6142 -4.28912 0
M  V30 2372 C 245.27 1.87982 -6.0905 0
M  V30 2373 C 242.957 2.38746 -5.62533 0
M  V30 2374 C 243.955 2.02083 -6.5242 0
M  V30 2375 O 243.643 1.79647 -7.8357 0
M  V30 2376 H 243.375 0.447962 -0.506267 0
M  V30 2377 H 245.929 0.80624 -1.88915 0
M  V30 2378 H 244.159 3.36079 -1.91278 0
M  V30 2379 H 245.848 3.32364 -2.33 0
M  V30 2380 H 246.614 1.98814 -4.42378 0
M  V30 2381 H 242.493 2.88931 -3.59222 0
M  V30 2382 H 246.037 1.5929 -6.7917 0
M  V30 2383 H 241.934 2.49806 -5.95203 0
M  V30 2384 H 242.702 1.9406 -7.95162 0
M  V30 2385 N 245.365 1.30045 0.890287 0
M  V30 2386 C 246.605 1.19839 1.65584 0
M  V30 2387 C 246.969 -0.244175 1.90441 0
M  V30 2388 O 248.17 -0.469378 2.6467 0
M  V30 2389 C 246.441 1.99876 2.96284 0
M  V30 2390 S 248 2.06309 3.87275 0
M  V30 2391 H 244.818 0.427157 0.568382 0
M  V30 2392 H 247.42 1.64453 1.05715 0
M  V30 2393 H 246.124 3.03809 2.75913 0
M  V30 2394 H 245.655 1.55903 3.61189 0
M  V30 2395 H 247.67 1.18661 4.81803 0
M  V30 2396 N 246.843 -1.10192 1.12674 0
M  V30 2397 C 247.79 -2.16606 0.796906 0
M  V30 2398 C 248.76 -1.64394 -0.237476 0
M  V30 2399 O 249.945 -1.90474 -0.111484 0
M  V30 2400 C 247.085 -3.44116 0.26043 0
M  V30 2401 C 246.198 -4.10268 1.35293 0
M  V30 2402 C 245.333 -5.25507 0.775621 0
M  V30 2403 C 244.372 -5.83567 1.84706 0
M  V30 2404 N 243.509 -6.90179 1.28829 0
M  V30 2405 H 248.349 -2.44163 1.70846 0
M  V30 2406 H 245.886 -1.19846 0.85295 0
M  V30 2407 H 247.844 -4.17143 -0.0686814 0
M  V30 2408 H 246.474 -3.16901 -0.614274 0
M  V30 2409 H 245.526 -3.35184 1.79877 0
M  V30 2410 H 246.838 -4.4946 2.16303 0
M  V30 2411 H 245.992 -6.05398 0.397327 0
M  V30 2412 H 244.731 -4.87656 -0.0656581 0
M  V30 2413 H 243.736 -5.02344 2.23452 0
M  V30 2414 H 244.961 -6.23482 2.69161 0
M  V30 2415 H 242.907 -6.54322 0.468881 0
M  V30 2416 H 242.824 -7.28097 2.03497 0
M  V30 2417 H 244.092 -7.73844 0.937311 0
M  V30 2418 N 248.321 -0.919034 -1.28029 0
M  V30 2419 C 249.269 -0.401753 -2.29104 0
M  V30 2420 C 250.263 0.509354 -1.61561 0
M  V30 2421 O 251.469 0.390014 -1.75724 0
M  V30 2422 H 247.844 -0.111331 -0.743713 0
M  V30 2423 H 249.815 -1.2672 -2.70156 0
M  V30 2424 C 248.564 0.338148 -3.46052 0
M  V30 2425 H 247.887 -0.353732 -3.98232 0
M  V30 2426 H 249.327 0.664653 -4.18758 0
M  V30 2427 C 247.786 1.54798 -2.99231 0
M  V30 2428 O 248.316 2.64696 -3.02157 0
M  V30 2429 N 246.522 1.3968 -2.54829 0
M  V30 2430 H 246.069 0.502698 -2.52647 0
M  V30 2431 H 246.027 2.20755 -2.23863 0
M  V30 2432 N 249.799 1.42003 -0.683588 0
M  V30 2433 C 251.047 2.01015 -0.209101 0
M  V30 2434 C 251.368 1.54365 1.19149 0
M  V30 2435 O 250.638 0.769083 1.80172 0
M  V30 2436 H 249.218 0.743294 -0.074315 0
M  V30 2437 H 251.88 1.73798 -0.882066 0
M  V30 2438 H 250.976 3.11343 -0.2172 0
M  V30 2439 N 251.277 0.427512 1.51691 0
M  V30 2440 C 252.525 -0.141948 2.01601 0
M  V30 2441 C 252.846 -1.44067 1.31414 0
M  V30 2442 O 252.116 -1.90763 0.445658 0
M  V30 2443 H 250.696 -0.0554468 0.744939 0
M  V30 2444 H 253.358 0.567968 1.86441 0
M  V30 2445 H 252.454 -0.324913 3.10404 0
M  V30 2446 N 252.755 -1.56801 0.158532 0
M  V30 2447 C 254.002 -1.9649 -0.489679 0
M  V30 2448 C 254.33 -1.04394 -1.6411 0
M  V30 2449 O 253.585 -0.0754401 -1.95555 0
M  V30 2450 C 253.884 -3.4235 -1.02623 0
M  V30 2451 C 253.55 -4.50899 0.00794526 0
M  V30 2452 C 252.212 -4.80312 0.292207 0
M  V30 2453 C 254.564 -5.16333 0.710584 0
M  V30 2454 C 251.892 -5.72461 1.28472 0
M  V30 2455 C 254.244 -6.09553 1.69199 0
M  V30 2456 C 252.908 -6.37339 1.98383 0
M  V30 2457 H 252.178 -0.719009 -0.179186 0
M  V30 2458 H 254.825 -1.8989 0.247798 0
M  V30 2459 H 253.13 -3.45838 -1.84128 0
M  V30 2460 H 254.827 -3.70393 -1.53656 0
M  V30 2461 H 251.417 -4.28015 -0.22379 0
M  V30 2462 H 255.601 -4.93732 0.504174 0
M  V30 2463 H 250.857 -5.92278 1.51714 0
M  V30 2464 H 255.031 -6.59327 2.24189 0
M  V30 2465 H 252.658 -7.08546 2.7544 0
M  V30 2466 N 254.233 0.115231 -1.57178 0
M  V30 2467 C 255.48 0.822351 -1.8505 0
M  V30 2468 C 255.808 1.79701 -0.744168 0
M  V30 2469 O 255.063 1.93909 0.26414 0
M  V30 2470 C 255.362 1.60324 -3.19423 0
M  V30 2471 C 255.028 0.772536 -4.44233 0
M  V30 2472 C 253.69 0.543468 -4.78121 0
M  V30 2473 C 256.042 0.193746 -5.2084 0
M  V30 2474 C 253.37 -0.274583 -5.86057 0
M  V30 2475 C 255.722 -0.611517 -6.29637 0
M  V30 2476 C 254.386 -0.850867 -6.62055 0
M  V30 2477 H 253.656 0.30092 -0.677147 0
M  V30 2478 H 256.303 0.0845802 -1.91313 0
M  V30 2479 H 254.608 2.41203 -3.08753 0
M  V30 2480 H 256.305 2.1544 -3.38211 0
M  V30 2481 H 252.895 0.96117 -4.17683 0
M  V30 2482 H 257.079 0.357926 -4.95008 0
M  V30 2483 H 252.335 -0.469206 -6.09597 0
M  V30 2484 H 256.509 -1.06697 -6.88178 0
M  V30 2485 H 254.136 -1.48657 -7.45523 0
M  V30 2486 N 255.711 1.52812 0.385517 0
M  V30 2487 C 256.641 1.80808 1.47752 0
M  V30 2488 C 257.622 0.660318 1.5676 0
M  V30 2489 O 258.807 0.908246 1.71652 0
M  V30 2490 C 255.937 1.98008 2.85324 0
M  V30 2491 C 254.891 3.13709 2.91154 0
M  V30 2492 C 254.217 3.16169 4.31209 0
M  V30 2493 C 255.517 4.52709 2.60483 0
M  V30 2494 H 257.211 2.72253 1.24573 0
M  V30 2495 H 254.757 1.31003 0.597839 0
M  V30 2496 H 256.71 2.16176 3.61726 0
M  V30 2497 H 255.434 1.03255 3.09848 0
M  V30 2498 H 254.093 2.95329 2.17201 0
M  V30 2499 H 253.741 2.19092 4.52778 0
M  V30 2500 H 253.441 3.93894 4.36029 0
M  V30 2501 H 254.965 3.36496 5.09512 0
M  V30 2502 H 256.379 4.71173 3.26602 0
M  V30 2503 H 254.776 5.32528 2.76648 0
M  V30 2504 H 255.846 4.59186 1.55809 0
M  V30 2505 N 257.189 -0.644168 1.43834 0
M  V30 2506 C 258.605 -0.960875 1.27434 0
M  V30 2507 C 258.805 -2.00499 0.200618 0
M  V30 2508 O 257.861 -2.49018 -0.417906 0
M  V30 2509 C 259.174 -1.43653 2.64167 0
M  V30 2510 C 260.722 -1.55271 2.71772 0
M  V30 2511 C 261.197 -2.06224 4.08944 0
M  V30 2512 N 262.688 -2.13513 4.11055 0
M  V30 2513 C 263.423 -2.54081 5.14033 0
M  V30 2514 N 262.919 -2.9388 6.27381 0
M  V30 2515 N 264.712 -2.54101 5.01387 0
M  V30 2516 H 256.863 0.0465779 2.12349 0
M  V30 2517 H 259.126 -0.0417638 0.94708 0
M  V30 2518 H 258.832 -0.743706 3.43747 0
M  V30 2519 H 258.706 -2.40993 2.90176 0
M  V30 2520 H 261.093 -2.23653 1.92519 0
M  V30 2521 H 261.174 -0.563395 2.49519 0
M  V30 2522 H 260.818 -1.38441 4.88668 0
M  V30 2523 H 260.748 -3.06003 4.28567 0
M  V30 2524 H 263.239 -1.85493 3.29242 0
M  V30 2525 H 263.552 -3.2361 7.01781 0
M  V30 2526 H 261.897 -2.91663 6.30839 0
M  V30 2527 H 265.088 -2.22391 4.11898 0
M  V30 2528 H 265.261 -2.85394 5.81768 0
M  V30 2529 N 258.668 -1.30515 -0.883378 0
M  V30 2530 C 259.917 -1.18795 -1.63005 0
M  V30 2531 C 260.23 0.255923 -1.93919 0
M  V30 2532 O 261.436 0.494654 -2.66956 0
M  V30 2533 C 259.892 -2.07878 -2.93794 0
M  V30 2534 C 259.5 -3.57184 -2.70414 0
M  V30 2535 C 261.244 -2.04924 -3.71761 0
M  V30 2536 C 259.151 -4.38317 -3.97029 0
M  V30 2537 H 258.081 -0.441031 -0.611562 0
M  V30 2538 H 260.732 -1.55275 -0.977854 0
M  V30 2539 H 259.114 -1.64283 -3.60315 0
M  V30 2540 H 260.288 -4.08937 -2.12384 0
M  V30 2541 H 258.603 -3.61976 -2.0582 0
M  V30 2542 H 261.2 -2.62792 -4.65665 0
M  V30 2543 H 261.543 -1.0331 -4.03277 0
M  V30 2544 H 262.076 -2.46649 -3.12104 0
M  V30 2545 H 258.815 -5.40632 -3.70671 0
M  V30 2546 H 258.335 -3.91326 -4.54559 0
M  V30 2547 H 260.014 -4.49834 -4.65036 0
M  V30 2548 N 260.146 1.09593 -1.13257 0
M  V30 2549 C 261.096 2.14345 -0.777179 0
M  V30 2550 C 262.08 1.59277 0.227966 0
M  V30 2551 O 263.272 1.76971 0.0321413 0
M  V30 2552 C 260.401 3.42439 -0.242991 0
M  V30 2553 C 259.487 4.04419 -1.27694 0
M  V30 2554 N 259.878 4.40979 -2.47732 0
M  V30 2555 C 258.176 4.31596 -1.12432 0
M  V30 2556 C 258.877 4.89784 -3.13826 0
M  V30 2557 N 257.853 4.87133 -2.41252 0
M  V30 2558 H 261.655 2.40415 -1.69049 0
M  V30 2559 H 259.169 1.26803 -1.01463 0
M  V30 2560 H 261.166 4.16889 0.0298496 0
M  V30 2561 H 259.826 3.17824 0.66467 0
M  V30 2562 H 260.837 4.32396 -2.85051 0
M  V30 2563 H 257.514 4.16595 -0.274684 0
M  V30 2564 H 258.904 5.2755 -4.16102 0
M  V30 2565 N 261.624 0.925811 1.2754 0
M  V30 2566 C 263.035 0.610102 1.7645 0
M  V30 2567 C 263.386 -0.874723 1.75622 0
M  V30 2568 O 262.511 -1.68444 1.35851 0
M  V30 2569 C 263.106 1.10073 3.20421 0
M  V30 2570 C 261.665 0.835723 3.67005 0
M  V30 2571 C 260.812 1.26054 2.46993 0
M  V30 2572 H 263.763 1.10579 1.13833 0
M  V30 2573 H 263.784 0.447557 3.77859 0
M  V30 2574 H 263.296 2.18143 3.20991 0
M  V30 2575 H 261.397 -0.231249 3.71882 0
M  V30 2576 H 261.51 1.45193 4.56569 0
M  V30 2577 H 259.874 0.679111 2.45479 0
M  V30 2578 H 260.657 2.34984 2.50275 0
M  V30 2579 N 263.102 -1.41638 0.69111 0
M  V30 2580 C 264.379 -1.95036 0.148421 0
M  V30 2581 C 264.759 -1.63072 -1.34055 0
M  V30 2582 O 264.107 -0.93538 -2.08478 0
M  V30 2583 C 264.317 -3.46279 0.434951 0
M  V30 2584 C 265.665 -4.23069 0.360275 0
M  V30 2585 O 266.689 -3.54277 0.369613 0
M  V30 2586 O 265.548 -5.45583 0.316534 0
M  V30 2587 H 262.642 -0.826908 0.0123654 0
M  V30 2588 H 265.188 -1.5138 0.766963 0
M  V30 2589 H 263.96 -3.6281 1.46576 0
M  V30 2590 H 263.583 -3.97019 -0.214787 0
M  V30 2591 N 264.58 -0.43555 -1.51462 0
M  V30 2592 C 265.828 0.131254 -2.01673 0
M  V30 2593 C 266.149 1.43368 -1.32177 0
M  V30 2594 O 265.419 1.90524 -0.455769 0
M  V30 2595 H 263.999 0.0514954 -0.745223 0
M  V30 2596 H 266.661 -0.577847 -1.86137 0
M  V30 2597 H 265.757 0.308446 -3.10572 0
M  V30 2598 N 266.058 1.56714 -0.166846 0
M  V30 2599 C 267.474 1.58473 0.189372 0
M  V30 2600 C 267.674 1.18201 1.63189 0
M  V30 2601 O 266.73 0.891528 2.36237 0
M  V30 2602 C 268.043 3.00573 -0.0873872 0
M  V30 2603 C 269.591 3.1299 -0.0252443 0
M  V30 2604 C 270.066 4.57174 -0.274934 0
M  V30 2605 N 271.557 4.62665 -0.222553 0
M  V30 2606 C 272.292 5.72072 -0.389985 0
M  V30 2607 N 271.788 6.90054 -0.616229 0
M  V30 2608 N 273.581 5.61153 -0.326202 0
M  V30 2609 H 265.732 1.8118 -1.10849 0
M  V30 2610 H 267.995 0.839525 -0.440342 0
M  V30 2611 H 267.701 3.34497 -1.0865 0
M  V30 2612 H 267.575 3.72019 0.623037 0
M  V30 2613 H 269.962 2.78895 0.96444 0
M  V30 2614 H 270.043 2.43989 -0.768309 0
M  V30 2615 H 269.687 4.91976 -1.26181 0
M  V30 2616 H 269.617 5.24328 0.48869 0
M  V30 2617 H 272.108 3.77863 -0.0531512 0
M  V30 2618 H 272.421 7.69311 -0.733559 0
M  V30 2619 H 270.766 6.91927 -0.652791 0
M  V30 2620 H 273.957 4.67859 -0.150072 0
M  V30 2621 H 274.13 6.46364 -0.460116 0
M  V30 2622 N 267.536 -0.106894 1.57237 0
M  V30 2623 C 268.782 -0.81373 1.85759 0
M  V30 2624 C 269.115 -1.78952 0.754315 0
M  V30 2625 O 268.39 -1.93029 -0.23879 0
M  V30 2626 C 268.673 -1.55293 3.24894 0
M  V30 2627 C 268.526 -0.595929 4.45835 0
M  V30 2628 C 269.845 -2.5063 3.61763 0
M  V30 2629 H 266.964 -0.294369 0.67566 0
M  V30 2630 H 269.606 -0.0776472 1.89841 0
M  V30 2631 H 267.756 -2.1804 3.21544 0
M  V30 2632 H 269.428 0.0236262 4.61294 0
M  V30 2633 H 267.671 0.0916191 4.33703 0
M  V30 2634 H 268.342 -1.15004 5.39887 0
M  V30 2635 H 270.818 -1.97982 3.65981 0
M  V30 2636 H 269.694 -2.99376 4.60071 0
M  V30 2637 H 269.955 -3.3385 2.89821 0
M  V30 2638 N 269.014 -1.53014 -0.377408 0
M  V30 2639 C 270.291 -1.59215 -1.13622 0
M  V30 2640 C 270.671 -0.392407 -2.07421 0
M  V30 2641 O 270.019 0.618342 -2.19975 0
M  V30 2642 C 270.229 -2.93669 -1.88573 0
M  V30 2643 C 271.577 -3.47822 -2.43526 0
M  V30 2644 O 272.601 -2.9562 -1.98715 0
M  V30 2645 O 271.46 -4.39055 -3.25412 0
M  V30 2646 H 268.554 -0.642625 -0.52054 0
M  V30 2647 H 271.1 -1.65353 -0.381625 0
M  V30 2648 H 269.872 -3.7243 -1.20048 0
M  V30 2649 H 269.495 -2.90968 -2.70968 0
M  V30 2650 N 270.492 0.636531 -1.44174 0
M  V30 2651 C 271.74 1.39343 -1.46383 0
M  V30 2652 C 272.061 1.94766 -0.0955715 0
M  V30 2653 O 271.331 1.75452 0.871395 0
M  V30 2654 H 269.911 0.517199 -0.538994 0
M  V30 2655 H 272.573 0.74957 -1.7991 0
M  V30 2656 H 271.669 2.22746 -2.18611 0
M  V30 2657 N 271.97 1.30982 0.876444 0
M  V30 2658 C 273.216 1.20474 1.63138 0
M  V30 2659 C 273.549 -0.238096 1.92735 0
M  V30 2660 O 272.824 -1.1692 1.55435 0
M  V30 2661 C 273.107 2.04244 2.96574 0
M  V30 2662 C 272.96 3.56793 2.73896 0
M  V30 2663 C 274.279 1.88684 3.97601 0
M  V30 2664 H 271.398 0.439001 0.591985 0
M  V30 2665 H 274.04 1.60704 1.01361 0
M  V30 2666 H 272.19 1.70063 3.493 0
M  V30 2667 H 273.862 4.01077 2.27892 0
M  V30 2668 H 272.105 3.80548 2.08245 0
M  V30 2669 H 272.776 4.10706 3.68815 0
M  V30 2670 H 275.252 2.18584 3.54062 0
M  V30 2671 H 274.128 2.4961 4.88862 0
M  V30 2672 H 274.389 0.848343 4.33884 0
M  V30 2673 N 273.449 -1.08991 1.13837 0
M  V30 2674 C 274.865 -1.33312 0.877506 0
M  V30 2675 C 275.065 -1.95587 -0.48456 0
M  V30 2676 O 274.121 -2.20509 -1.23013 0
M  V30 2677 C 275.434 -2.24045 2.0056 0
M  V30 2678 C 276.982 -2.37542 2.03821 0
M  V30 2679 C 277.457 -3.31614 3.15905 0
M  V30 2680 N 278.948 -3.39189 3.15445 0
M  V30 2681 C 279.683 -4.11992 3.98811 0
M  V30 2682 N 279.179 -4.87553 4.92203 0
M  V30 2683 N 280.972 -4.07762 3.86894 0
M  V30 2684 H 273.123 -0.669456 2.01574 0
M  V30 2685 H 275.386 -0.357482 0.878015 0
M  V30 2686 H 275.092 -1.85521 2.98789 0
M  V30 2687 H 274.966 -3.24466 1.92359 0
M  V30 2688 H 277.353 -2.75327 1.06202 0
M  V30 2689 H 277.434 -1.36884 2.16093 0
M  V30 2690 H 277.078 -2.94551 4.13766 0
M  V30 2691 H 277.008 -4.32186 3.0087 0
M  V30 2692 H 279.499 -2.85314 2.47799 0
M  V30 2693 H 279.812 -5.40549 5.52292 0
M  V30 2694 H 278.157 -4.86627 4.96205 0
M  V30 2695 H 281.348 -3.47833 3.13257 0
M  V30 2696 H 281.521 -4.64238 4.52092 0
M  V30 2697 N 274.927 -0.932562 -1.27047 0
M  V30 2698 C 275.837 -0.441219 -2.30414 0
M  V30 2699 C 276.853 0.480525 -1.67233 0
M  V30 2700 O 278.029 0.362151 -1.98117 0
M  V30 2701 C 275.094 0.293651 -3.45454 0
M  V30 2702 C 274.155 -0.663601 -4.2414 0
M  V30 2703 C 273.388 0.0362932 -5.33688 0
M  V30 2704 O 273.611 1.2548 -5.56427 0
M  V30 2705 O 272.545 -0.638015 -5.98509 0
M  V30 2706 H 276.371 -1.29962 -2.74488 0
M  V30 2707 H 273.956 -0.6981 -1.32087 0
M  V30 2708 H 275.838 0.707951 -4.15411 0
M  V30 2709 H 274.513 1.12758 -3.03426 0
M  V30 2710 H 273.42 -1.12768 -3.56699 0
M  V30 2711 H 274.753 -1.46489 -4.69896 0
M  V30 2712 N 276.405 1.4127 -0.698611 0
M  V30 2713 C 277.352 2.30773 -0.0352094 0
M  V30 2714 C 278.322 1.47273 0.768111 0
M  V30 2715 O 279.507 1.76053 0.735524 0
M  V30 2716 C 276.647 3.33346 0.893 0
M  V30 2717 C 275.76 4.31924 0.0809695 0
M  V30 2718 C 274.895 5.21566 1.0071 0
M  V30 2719 C 273.934 6.11811 0.188155 0
M  V30 2720 N 273.071 6.93926 1.06825 0
M  V30 2721 H 277.911 2.86943 -0.804207 0
M  V30 2722 H 275.448 1.4132 -0.408294 0
M  V30 2723 H 277.406 3.91368 1.44523 0
M  V30 2724 H 276.036 2.78719 1.62836 0
M  V30 2725 H 275.088 3.75825 -0.588224 0
M  V30 2726 H 276.4 4.95716 -0.553801 0
M  V30 2727 H 275.554 5.84437 1.62845 0
M  V30 2728 H 274.293 4.58008 1.67572 0
M  V30 2729 H 273.298 5.47986 -0.446254 0
M  V30 2730 H 274.523 6.77425 -0.476716 0
M  V30 2731 H 272.469 6.32973 1.72283 0
M  V30 2732 H 272.386 7.54416 0.489123 0
M  V30 2733 H 273.654 7.61262 1.67632 0
M  V30 2734 N 277.883 0.443576 1.51229 0
M  V30 2735 C 279.108 -0.121648 2.07043 0
M  V30 2736 C 279.533 -1.35156 1.30823 0
M  V30 2737 O 278.891 -1.7793 0.347934 0
M  V30 2738 C 278.939 -0.41624 3.5819 0
M  V30 2739 O 278.043 -1.50163 3.8409 0
M  V30 2740 H 277.384 0.000871367 0.663999 0
M  V30 2741 H 279.914 0.626706 1.94765 0
M  V30 2742 H 279.924 -0.664867 4.02546 0
M  V30 2743 H 278.599 0.482653 4.1309 0
M  V30 2744 H 277.176 -1.24248 3.51592 0
M  V30 2745 N 279.361 -1.56624 0.175154 0
M  V30 2746 C 280.638 -1.88688 -0.515373 0
M  V30 2747 C 281.018 -1.08564 -1.81044 0
M  V30 2748 O 280.366 -0.180703 -2.27784 0
M  V30 2749 C 280.576 -3.40768 -0.753552 0
M  V30 2750 C 281.924 -4.10587 -1.08184 0
M  V30 2751 O 282.948 -3.46106 -0.841961 0
M  V30 2752 O 281.807 -5.24512 -1.53459 0
M  V30 2753 H 278.901 -0.78301 -0.26613 0
M  V30 2754 H 281.447 -1.68347 0.213877 0
M  V30 2755 H 280.219 -3.90965 0.161829 0
M  V30 2756 H 279.842 -3.66733 -1.53598 0
M  V30 2757 N 280.839 0.0985539 -1.57292 0
M  V30 2758 C 282.25 0.653457 -1.74891 0
M  V30 2759 C 282.601 1.7929 -0.796838 0
M  V30 2760 O 281.726 2.16385 0.0254886 0
M  V30 2761 C 282.321 1.19216 -3.17133 0
M  V30 2762 C 280.88 1.69316 -3.36168 0
M  V30 2763 C 280.027 0.601294 -2.70702 0
M  V30 2764 H 282.978 -0.127497 -1.58187 0
M  V30 2765 H 282.999 2.06154 -3.19814 0
M  V30 2766 H 282.511 0.362635 -3.86402 0
M  V30 2767 H 280.612 2.5468 -2.71972 0
M  V30 2768 H 280.725 1.78853 -4.44464 0
M  V30 2769 H 279.089 1.0399 -2.32504 0
M  V30 2770 H 279.872 -0.217592 -3.4261 0
M  V30 2771 N 282.317 1.53212 0.369288 0
M  V30 2772 C 283.267 1.75769 1.45222 0
M  V30 2773 C 284.251 0.612136 1.48801 0
M  V30 2774 O 285.443 0.870674 1.54105 0
M  V30 2775 C 282.572 1.94769 2.82701 0
M  V30 2776 C 281.658 3.15315 2.83615 0
M  V30 2777 N 282.049 4.37295 2.54178 0
M  V30 2778 C 280.347 3.15962 3.14776 0
M  V30 2779 C 281.048 5.19015 2.62675 0
M  V30 2780 N 280.024 4.55142 2.97232 0
M  V30 2781 H 283.826 2.67691 1.2132 0
M  V30 2782 H 281.34 1.51787 0.577438 0
M  V30 2783 H 283.337 2.09056 3.60696 0
M  V30 2784 H 281.997 1.04073 3.07569 0
M  V30 2785 H 283.008 4.65091 2.27839 0
M  V30 2786 H 279.685 2.35144 3.44983 0
M  V30 2787 H 281.075 6.26305 2.43294 0
M  V30 2788 N 283.795 -0.628877 1.44509 0
M  V30 2789 C 285.044 -1.38437 1.4669 0
M  V30 2790 C 285.357 -1.95322 0.104272 0
M  V30 2791 O 286.563 -2.715 0.00362163 0
M  V30 2792 C 285.019 -2.50659 2.5826 0
M  V30 2793 C 284.627 -2.00277 4.0074 0
M  V30 2794 C 286.371 -3.27844 2.69664 0
M  V30 2795 C 284.278 -3.09854 5.0373 0
M  V30 2796 H 283.208 -0.520245 0.545766 0
M  V30 2797 H 285.859 -0.676313 1.70582 0
M  V30 2798 H 284.241 -3.2405 2.27612 0
M  V30 2799 H 285.415 -1.33736 4.40966 0
M  V30 2800 H 283.73 -1.35901 3.93599 0
M  V30 2801 H 286.327 -4.09534 3.43781 0
M  V30 2802 H 286.67 -3.77471 1.75559 0
M  V30 2803 H 287.203 -2.61543 2.99733 0
M  V30 2804 H 283.942 -2.65168 5.99472 0
M  V30 2805 H 283.462 -3.7503 4.68095 0
M  V30 2806 H 285.141 -3.74592 5.27532 0
M  V30 2807 N 285.273 -1.31445 -0.869486 0
M  V30 2808 C 286.22 -1.19135 -1.97675 0
M  V30 2809 C 287.19 -0.0770266 -1.65921 0
M  V30 2810 O 288.375 -0.249972 -1.89155 0
M  V30 2811 C 285.515 -0.905149 -3.33018 0
M  V30 2812 C 284.628 -2.10285 -3.77365 0
M  V30 2813 C 283.763 -1.75339 -5.01427 0
M  V30 2814 C 282.802 -2.91515 -5.38224 0
M  V30 2815 N 281.939 -2.56762 -6.53466 0
M  V30 2816 H 286.779 -2.13853 -2.07535 0
M  V30 2817 H 284.316 -1.06379 -1.01597 0
M  V30 2818 H 286.274 -0.719765 -4.10944 0
M  V30 2819 H 284.904 0.00519624 -3.228 0
M  V30 2820 H 283.956 -2.39899 -2.95216 0
M  V30 2821 H 285.268 -2.97237 -4.00564 0
M  V30 2822 H 284.422 -1.53266 -5.87022 0
M  V30 2823 H 283.161 -0.855801 -4.80133 0
M  V30 2824 H 282.166 -3.14237 -4.51149 0
M  V30 2825 H 283.391 -3.81985 -5.61484 0
M  V30 2826 H 281.337 -1.69526 -6.33717 0
M  V30 2827 H 281.254 -3.37243 -6.76612 0
M  V30 2828 H 282.522 -2.38083 -7.42251 0
M  V30 2829 N 286.751 1.08385 -1.14413 0
M  V30 2830 C 287.681 2.17321 -0.854044 0
M  V30 2831 C 288.662 1.69024 0.191049 0
M  V30 2832 O 289.847 1.94141 0.0476779 0
M  V30 2833 C 286.977 3.45719 -0.330983 0
M  V30 2834 C 285.931 4.07409 -1.31155 0
M  V30 2835 C 285.257 5.30762 -0.64778 0
M  V30 2836 C 286.557 4.48665 -2.67388 0
M  V30 2837 H 288.251 2.41845 -1.76498 0
M  V30 2838 H 285.797 1.16233 -0.850051 0
M  V30 2839 H 287.75 4.21241 -0.115645 0
M  V30 2840 H 286.474 3.2075 0.615381 0
M  V30 2841 H 285.133 3.33919 -1.51306 0
M  V30 2842 H 284.781 5.02078 0.304398 0
M  V30 2843 H 284.481 5.72992 -1.30207 0
M  V30 2844 H 286.005 6.08998 -0.441972 0
M  V30 2845 H 287.419 5.15364 -2.51143 0
M  V30 2846 H 285.816 5.01814 -3.29093 0
M  V30 2847 H 286.886 3.60543 -3.24248 0
M  V30 2848 N 288.23 0.939286 1.26551 0
M  V30 2849 C 289.162 0.404704 2.25599 0
M  V30 2850 C 290.175 -0.470983 1.55838 0
M  V30 2851 O 291.364 -0.281734 1.76263 0
M  V30 2852 C 288.464 -0.43764 3.36062 0
M  V30 2853 C 287.637 0.421449 4.35365 0
M  V30 2854 C 286.696 -0.36015 5.24966 0
M  V30 2855 O 285.722 0.236167 5.6871 0
M  V30 2856 N 286.924 -1.65715 5.56344 0
M  V30 2857 H 289.689 1.25618 2.72103 0
M  V30 2858 H 287.25 0.807963 1.40298 0
M  V30 2859 H 289.242 -0.967866 3.92956 0
M  V30 2860 H 287.812 -1.18991 2.89067 0
M  V30 2861 H 287.032 1.1329 3.7757 0
M  V30 2862 H 288.32 1.00835 4.98708 0
M  V30 2863 H 287.718 -2.16378 5.22682 0
M  V30 2864 H 286.275 -2.13366 6.15888 0
M  V30 2865 N 289.708 -1.40897 0.706093 0
M  V30 2866 C 290.638 -2.33418 0.0620085 0
M  V30 2867 C 291.619 -1.52385 -0.755827 0
M  V30 2868 O 292.804 -1.80886 -0.706674 0
M  V30 2869 C 289.934 -3.36293 -0.867445 0
M  V30 2870 C 288.888 -4.27716 -0.155932 0
M  V30 2871 C 288.214 -5.2105 -1.20046 0
M  V30 2872 C 289.514 -5.12944 0.984149 0
M  V30 2873 H 291.208 -2.87527 0.83477 0
M  V30 2874 H 288.754 -1.38249 0.402875 0
M  V30 2875 H 290.707 -3.99949 -1.32735 0
M  V30 2876 H 289.431 -2.80556 -1.67199 0
M  V30 2877 H 288.09 -3.65498 0.284047 0
M  V30 2878 H 287.738 -4.61624 -1.99781 0
M  V30 2879 H 287.438 -5.83056 -0.729328 0
M  V30 2880 H 288.962 -5.87584 -1.66066 0
M  V30 2881 H 290.376 -5.70109 0.604048 0
M  V30 2882 H 288.773 -5.83945 1.38304 0
M  V30 2883 H 289.843 -4.49485 1.81911 0
M  V30 2884 N 291.186 -0.45159 -1.50991 0
M  V30 2885 C 292.118 0.388634 -2.25881 0
M  V30 2886 C 293.131 0.974041 -1.30446 0
M  V30 2887 O 294.32 0.865758 -1.56099 0
M  V30 2888 C 291.42 1.5571 -3.01011 0
M  V30 2889 C 290.593 1.08801 -4.23652 0
M  V30 2890 C 289.652 2.12825 -4.8124 0
M  V30 2891 O 288.678 1.71678 -5.42693 0
M  V30 2892 N 289.88 3.45453 -4.66522 0
M  V30 2893 H 292.645 -0.25329 -2.98628 0
M  V30 2894 H 290.206 -0.281268 -1.59438 0
M  V30 2895 H 292.198 2.24952 -3.3642 0
M  V30 2896 H 290.768 2.10409 -2.31186 0
M  V30 2897 H 289.988 0.22215 -3.93574 0
M  V30 2898 H 291.276 0.752213 -5.03209 0
M  V30 2899 H 290.674 3.81605 -4.17605 0
M  V30 2900 H 289.231 4.10549 -5.06254 0
M  V30 2901 N 292.664 1.56529 -0.183458 0
M  V30 2902 C 293.627 2.17324 0.728223 0
M  V30 2903 C 294.627 1.12453 1.14939 0
M  V30 2904 O 295.817 1.37902 1.06437 0
M  V30 2905 C 292.949 2.76591 1.99274 0
M  V30 2906 H 294.142 2.99241 0.198772 0
M  V30 2907 H 291.695 1.5616 0.0661391 0
M  V30 2908 H 292.43 1.98441 2.56499 0
M  V30 2909 H 292.215 3.5335 1.69959 0
M  V30 2910 H 293.705 3.23311 2.6431 0
M  V30 2911 N 294.142 -0.090211 1.57342 0
M  V30 2912 C 295.052 -1.12735 2.05738 0
M  V30 2913 C 296.068 -1.43557 0.983231 0
M  V30 2914 O 297.244 -1.54101 1.29672 0
M  V30 2915 C 294.309 -2.42659 2.47624 0
M  V30 2916 C 293.37 -2.18975 3.69254 0
M  V30 2917 C 292.603 -3.42704 4.09133 0
M  V30 2918 O 292.826 -4.51127 3.49057 0
M  V30 2919 O 291.76 -3.32003 5.02053 0
M  V30 2920 H 295.586 -0.746279 2.94388 0
M  V30 2921 H 293.171 -0.303064 1.46294 0
M  V30 2922 H 295.053 -3.19155 2.7517 0
M  V30 2923 H 293.728 -2.80182 1.62109 0
M  V30 2924 H 292.635 -1.40244 3.46818 0
M  V30 2925 H 293.968 -1.86342 4.55563 0
M  V30 2926 N 295.62 -1.53406 -0.361157 0
M  V30 2927 C 296.53 -1.83122 -1.4664 0
M  V30 2928 C 297.546 -0.719943 -1.58407 0
M  V30 2929 O 298.722 -1.01046 -1.74218 0
M  V30 2930 C 295.787 -2.01891 -2.81853 0
M  V30 2931 C 294.848 -3.25784 -2.79577 0
M  V30 2932 C 294.081 -3.43648 -4.0834 0
M  V30 2933 O 294.304 -2.65714 -5.0473 0
M  V30 2934 O 293.238 -4.37018 -4.13883 0
M  V30 2935 H 297.064 -2.7703 -1.24451 0
M  V30 2936 H 294.649 -1.38841 -0.551678 0
M  V30 2937 H 296.531 -2.15782 -3.61962 0
M  V30 2938 H 295.206 -1.11173 -3.0401 0
M  V30 2939 H 294.113 -3.17312 -1.98151 0
M  V30 2940 H 295.446 -4.16439 -2.62373 0
M  V30 2941 N 297.098 0.621204 -1.44841 0
M  V30 2942 C 298.514 0.94048 -1.28946 0
M  V30 2943 C 298.714 2.00154 -0.23249 0
M  V30 2944 O 297.77 2.49651 0.378237 0
M  V30 2945 C 299.083 1.39433 -2.66419 0
M  V30 2946 C 300.631 1.50927 -2.74208 0
M  V30 2947 C 301.106 1.99692 -4.12174 0
M  V30 2948 N 302.597 2.06947 -4.144 0
M  V30 2949 C 303.332 2.45871 -5.1801 0
M  V30 2950 N 302.828 2.83862 -6.31977 0
M  V30 2951 N 304.621 2.46092 -5.05366 0
M  V30 2952 H 296.772 -0.0803548 -2.12248 0
M  V30 2953 H 299.035 0.0266913 -0.947624 0
M  V30 2954 H 298.741 0.688925 -3.44887 0
M  V30 2955 H 298.615 2.36347 -2.93973 0
M  V30 2956 H 301.002 2.20561 -1.96053 0
M  V30 2957 H 301.083 0.523627 -2.50383 0
M  V30 2958 H 300.727 1.30649 -4.90809 0
M  V30 2959 H 300.657 2.99146 -4.33381 0
M  V30 2960 H 303.148 1.80232 -3.32152 0
M  V30 2961 H 303.461 3.12405 -7.0684 0
M  V30 2962 H 301.806 2.8159 -6.35399 0
M  V30 2963 H 304.997 2.1581 -4.15384 0
M  V30 2964 H 305.17 2.76102 -5.86235 0
M  V30 2965 N 298.576 1.31904 0.862503 0
M  V30 2966 C 299.824 1.21776 1.61292 0
M  V30 2967 C 300.145 -0.222413 1.93727 0
M  V30 2968 O 299.415 -1.1451 1.58947 0
M  V30 2969 H 297.995 0.447717 0.597962 0
M  V30 2970 H 300.657 1.65326 1.03215 0
M  V30 2971 H 299.753 1.7948 2.5533 0
M  V30 2972 N 300.054 -1.07777 1.14986 0
M  V30 2973 C 301.3 -1.80557 0.923422 0
M  V30 2974 C 301.633 -1.86298 -0.548337 0
M  V30 2975 O 300.908 -1.34354 -1.40639 0
M  V30 2976 C 301.191 -3.25839 1.53299 0
M  V30 2977 C 301.044 -3.28269 3.07505 0
M  V30 2978 C 302.363 -4.22991 1.21518 0
M  V30 2979 H 299.482 -0.655493 0.336894 0
M  V30 2980 H 302.124 -1.26144 1.42083 0
M  V30 2981 H 300.274 -3.72306 1.10999 0
M  V30 2982 H 301.946 -2.90079 3.58681 0
M  V30 2983 H 300.189 -2.67355 3.4162 0
M  V30 2984 H 300.86 -4.30691 3.45266 0
M  V30 2985 H 303.336 -3.84894 1.581 0
M  V30 2986 H 302.212 -5.22945 1.66793 0
M  V30 2987 H 302.473 -4.41904 0.131505 0
M  V30 2988 N 301.532 -0.945985 -1.26051 0
M  V30 2989 C 302.778 -0.597002 -1.93814 0
M  V30 2990 C 303.111 0.862484 -1.73997 0
M  V30 2991 O 302.386 1.61769 -1.07986 0
M  V30 2992 C 302.669 -0.945937 -3.47454 0
M  V30 2993 C 302.522 -2.46052 -3.76535 0
M  V30 2994 C 303.841 -0.464785 -4.37639 0
M  V30 2995 H 300.96 -0.218366 -0.703907 0
M  V30 2996 H 303.602 -1.18107 -1.48831 0
M  V30 2997 H 301.752 -0.448902 -3.85898 0
M  V30 2998 H 303.424 -3.03065 -3.47778 0
M  V30 2999 H 301.667 -2.90194 -3.22444 0
M  V30 3000 H 302.338 -2.65517 -4.83947 0
M  V30 3001 H 304.814 -0.891016 -4.06448 0
M  V30 3002 H 303.69 -0.737712 -5.4392 0
M  V30 3003 H 303.951 0.635274 -4.37512 0
M  V30 3004 N 303.011 1.40521 -0.713556 0
M  V30 3005 C 304.236 2.05759 -0.26035 0
M  V30 3006 C 304.661 1.53403 1.08854 0
M  V30 3007 O 304.019 0.668535 1.68524 0
M  V30 3008 C 304.067 3.59745 -0.248122 0
M  V30 3009 O 303.171 4.05123 0.77131 0
M  V30 3010 H 302.512 0.652564 -0.122703 0
M  V30 3011 H 305.042 1.79958 -0.973467 0
M  V30 3012 H 305.052 4.07911 -0.0851129 0
M  V30 3013 H 303.727 3.97218 -1.2325 0
M  V30 3014 H 302.304 3.68422 0.57619 0
M  V30 3015 N 304.489 0.459591 1.5075 0
M  V30 3016 C 305.738 -0.100971 2.01447 0
M  V30 3017 C 306.051 -1.41816 1.34713 0
M  V30 3018 O 307.257 -2.06299 1.76502 0
M  V30 3019 C 305.713 -0.23047 3.59161 0
M  V30 3020 C 305.321 1.0776 4.34847 0
M  V30 3021 C 307.065 -0.743608 4.17936 0
M  V30 3022 C 304.972 0.91253 5.84317 0
M  V30 3023 H 303.902 -0.0415102 0.752856 0
M  V30 3024 H 306.553 0.592742 1.73663 0
M  V30 3025 H 304.935 -0.987703 3.83485 0
M  V30 3026 H 306.109 1.8449 4.22256 0
M  V30 3027 H 304.424 1.52097 3.87628 0
M  V30 3028 H 307.021 -0.883959 5.27343 0
M  V30 3029 H 307.364 -1.73196 3.78562 0
M  V30 3030 H 307.897 -0.04408 3.97776 0
M  V30 3031 H 304.636 1.87391 6.28144 0
M  V30 3032 H 304.156 0.185422 5.99513 0
M  V30 3033 H 305.835 0.574547 6.44444 0
M  V30 3034 N 305.967 -1.56429 0.191757 0
M  V30 3035 C 306.914 -2.18936 -0.730454 0
M  V30 3036 C 307.884 -1.13557 -1.21219 0
M  V30 3037 O 309.069 -1.41794 -1.27668 0
M  V30 3038 C 306.209 -2.85013 -1.9458 0
M  V30 3039 C 305.322 -4.04909 -1.50574 0
M  V30 3040 C 304.457 -4.58853 -2.67634 0
M  V30 3041 C 303.496 -5.71114 -2.20217 0
M  V30 3042 N 302.633 -6.19478 -3.30442 0
M  V30 3043 H 307.473 -2.97389 -0.190664 0
M  V30 3044 H 305.01 -1.46869 -0.0823694 0
M  V30 3045 H 306.968 -3.21492 -2.65893 0
M  V30 3046 H 305.598 -2.09129 -2.45896 0
M  V30 3047 H 304.65 -3.74115 -0.688605 0
M  V30 3048 H 305.962 -4.86113 -1.11784 0
M  V30 3049 H 305.116 -4.97619 -3.47074 0
M  V30 3050 H 303.855 -3.76749 -3.09696 0
M  V30 3051 H 302.86 -5.31879 -1.3923 0
M  V30 3052 H 304.085 -6.55033 -1.79189 0
M  V30 3053 H 302.031 -5.40297 -3.72041 0
M  V30 3054 H 301.948 -6.95725 -2.9581 0
M  V30 3055 H 303.216 -6.62898 -4.10106 0
M  V30 3056 N 307.445 0.0818655 -1.57387 0
M  V30 3057 C 308.693 0.781368 -1.86384 0
M  V30 3058 C 309.014 1.78618 -0.782342 0
M  V30 3059 O 308.284 1.94976 0.190061 0
M  V30 3060 H 306.864 0.291562 -0.687751 0
M  V30 3061 H 309.526 0.060348 -1.94807 0
M  V30 3062 H 308.622 1.3038 -2.83562 0
M  V30 3063 N 308.923 1.53595 0.353017 0
M  V30 3064 C 310.169 1.70638 1.09593 0
M  V30 3065 C 310.502 0.463286 1.88593 0
M  V30 3066 O 309.777 -0.539597 1.86865 0
M  V30 3067 C 310.06 2.96406 2.04489 0
M  V30 3068 C 309.913 4.30901 1.29014 0
M  V30 3069 C 311.232 3.17812 3.0444 0
M  V30 3070 H 308.351 0.620913 0.397034 0
M  V30 3071 H 310.993 1.86254 0.375446 0
M  V30 3072 H 309.143 2.83223 2.65927 0
M  V30 3073 H 310.815 4.55917 0.702638 0
M  V30 3074 H 309.058 4.29741 0.592071 0
M  V30 3075 H 309.729 5.1506 1.98537 0
M  V30 3076 H 312.205 3.30263 2.53112 0
M  V30 3077 H 311.081 4.07223 3.6805 0
M  V30 3078 H 311.342 2.33669 3.75301 0
M  V30 3079 N 310.401 -0.613514 1.45168 0
M  V30 3080 C 311.641 -1.38405 1.5041 0
M  V30 3081 C 312.005 -1.91489 0.139922 0
M  V30 3082 O 313.206 -2.68716 0.067033 0
M  V30 3083 C 311.477 -2.50552 2.5487 0
M  V30 3084 S 313.036 -3.38439 2.79292 0
M  V30 3085 H 309.854 -0.471945 0.531779 0
M  V30 3086 H 312.456 -0.708518 1.82209 0
M  V30 3087 H 311.16 -2.09894 3.52665 0
M  V30 3088 H 310.691 -3.22913 2.24701 0
M  V30 3089 H 312.706 -4.48527 2.12222 0
M  V30 3090 N 311.879 -1.3236 -0.855495 0
M  V30 3091 C 312.842 -1.21164 -1.94556 0
M  V30 3092 C 313.842 -0.134908 -1.60233 0
M  V30 3093 O 315.032 -0.385249 -1.69887 0
M  V30 3094 C 312.164 -0.863192 -3.29791 0
M  V30 3095 H 313.357 -2.18038 -2.05911 0
M  V30 3096 H 310.91 -1.16179 -1.04557 0
M  V30 3097 H 311.645 0.103769 -3.24134 0
M  V30 3098 H 311.43 -1.64166 -3.56078 0
M  V30 3099 H 312.92 -0.809156 -4.09686 0
M  V30 3100 N 313.357 1.07166 -1.15556 0
M  V30 3101 C 314.305 2.16517 -0.8499 0
M  V30 3102 C 315.299 1.68468 0.177454 0
M  V30 3103 O 316.505 1.79971 0.0323026 0
M  V30 3104 H 312.88 0.706652 -0.25719 0
M  V30 3105 H 314.851 2.39514 -1.77976 0
M  V30 3106 C 313.6 3.45855 -0.357682 0
M  V30 3107 H 312.923 3.83214 -1.13961 0
M  V30 3108 H 314.363 4.23607 -0.182489 0
M  V30 3109 C 312.822 3.24062 0.921152 0
M  V30 3110 O 313.352 3.48813 1.9923 0
M  V30 3111 N 311.558 2.77539 0.86141 0
M  V30 3112 H 311.105 2.57598 -0.0104408 0
M  V30 3113 H 311.063 2.63337 1.71758 0
M  V30 3114 N 314.835 0.952656 1.25548 0
M  V30 3115 C 316.251 0.656769 1.4546 0
M  V30 3116 C 316.451 -0.78633 1.85524 0
M  V30 3117 O 315.507 -1.56183 1.98402 0
M  V30 3118 C 316.82 1.62801 2.52817 0
M  V30 3119 C 318.368 1.63897 2.66659 0
M  V30 3120 C 318.843 2.5978 3.77198 0
M  V30 3121 N 320.334 2.58133 3.84606 0
M  V30 3122 C 321.069 3.29003 4.69621 0
M  V30 3123 N 320.565 4.09339 5.58939 0
M  V30 3124 N 322.358 3.179 4.63569 0
M  V30 3125 H 314.509 1.88526 0.978344 0
M  V30 3126 H 316.772 0.810815 0.491206 0
M  V30 3127 H 316.478 2.65869 2.30232 0
M  V30 3128 H 316.352 1.38898 3.50695 0
M  V30 3129 H 318.739 0.615481 2.8861 0
M  V30 3130 H 318.82 1.91858 1.69187 0
M  V30 3131 H 318.464 3.62254 3.55997 0
M  V30 3132 H 318.394 2.29105 4.7415 0
M  V30 3133 H 320.885 1.99809 3.20757 0
M  V30 3134 H 321.198 4.6034 6.20731 0
M  V30 3135 H 319.543 4.13438 5.58654 0
M  V30 3136 H 322.734 2.54612 3.92798 0
M  V30 3137 H 322.907 3.73398 5.29602 0
M  V30 3138 N 316.313 -1.40141 0.720998 0
M  V30 3139 C 317.543 -2.04798 0.27226 0
M  V30 3140 C 317.951 -1.54442 -1.09289 0
M  V30 3141 O 317.294 -0.698342 -1.69908 0
M  V30 3142 C 317.356 -3.59048 0.18027 0
M  V30 3143 C 317.02 -4.32317 1.48159 0
M  V30 3144 C 318.017 -4.59902 2.42458 0
M  V30 3145 C 315.702 -4.71125 1.74202 0
M  V30 3146 C 317.696 -5.25288 3.61042 0
M  V30 3147 C 315.383 -5.36242 2.93066 0
M  V30 3148 C 316.381 -5.63254 3.86308 0
M  V30 3149 O 316.069 -6.27024 5.03086 0
M  V30 3150 H 315.801 -0.665419 0.119139 0
M  V30 3151 H 318.355 -1.80436 0.981432 0
M  V30 3152 H 316.585 -3.82251 -0.58489 0
M  V30 3153 H 318.274 -4.05221 -0.234618 0
M  V30 3154 H 319.04 -4.30379 2.23604 0
M  V30 3155 H 314.919 -4.49466 1.02477 0
M  V30 3156 H 318.463 -5.46289 4.33837 0
M  V30 3157 H 314.36 -5.65185 3.11826 0
M  V30 3158 H 315.128 -6.4552 5.03235 0
M  V30 3159 N 317.792 -0.46758 -1.50504 0
M  V30 3160 C 318.722 0.318381 -2.31319 0
M  V30 3161 C 319.703 0.993564 -1.38066 0
M  V30 3162 O 320.888 0.991411 -1.66987 0
M  V30 3163 C 318.018 1.40275 -3.17711 0
M  V30 3164 C 316.972 0.849373 -4.19487 0
M  V30 3165 C 316.298 2.03177 -4.94594 0
M  V30 3166 C 317.598 -0.136942 -5.2212 0
M  V30 3167 H 319.292 -0.356106 -2.97275 0
M  V30 3168 H 316.838 -0.172703 -1.42961 0
M  V30 3169 H 318.791 1.96004 -3.73042 0
M  V30 3170 H 317.515 2.10596 -2.49634 0
M  V30 3171 H 316.174 0.314076 -3.65252 0
M  V30 3172 H 315.822 2.72187 -4.22993 0
M  V30 3173 H 315.522 1.66774 -5.63436 0
M  V30 3174 H 317.046 2.59403 -5.52759 0
M  V30 3175 H 318.46 0.331056 -5.72343 0
M  V30 3176 H 316.857 -0.41507 -5.98663 0
M  V30 3177 H 317.927 -1.06398 -4.73083 0
M  V30 3178 N 319.27 1.56325 -0.20005 0
M  V30 3179 C 320.233 2.18084 0.705132 0
M  V30 3180 C 321.233 1.13666 1.1374 0
M  V30 3181 O 322.423 1.39023 1.04968 0
M  V30 3182 C 319.555 2.78689 1.96329 0
M  V30 3183 H 320.748 2.99435 0.167023 0
M  V30 3184 H 318.301 1.56221 0.0495725 0
M  V30 3185 H 319.036 2.0115 2.5438 0
M  V30 3186 H 318.821 3.55133 1.66202 0
M  V30 3187 H 320.311 3.26096 2.60866 0
M  V30 3188 N 320.748 -0.0735177 1.57428 0
M  V30 3189 C 321.681 -1.11932 1.98863 0
M  V30 3190 C 322.659 -1.37666 0.865266 0
M  V30 3191 O 323.843 -1.51068 1.12742 0
M  V30 3192 C 320.97 -2.46403 2.32386 0
M  V30 3193 C 320.016 -2.36815 3.54713 0
M  V30 3194 S 320.849 -1.76392 5.05614 0
M  V30 3195 C 322.005 -3.12444 5.42337 0
M  V30 3196 H 322.238 -0.766212 2.87257 0
M  V30 3197 H 319.771 -0.281987 1.51803 0
M  V30 3198 H 321.729 -3.23755 2.52375 0
M  V30 3199 H 320.39 -2.78876 1.44524 0
M  V30 3200 H 319.583 -3.35977 3.7568 0
M  V30 3201 H 319.185 -1.67598 3.34345 0
M  V30 3202 H 321.477 -4.08753 5.40303 0
M  V30 3203 H 322.42 -2.96258 6.43146 0
M  V30 3204 H 322.828 -3.1297 4.69798 0
M  V30 3205 N 322.226 -1.5378 -0.344866 0
M  V30 3206 C 323.173 -1.81676 -1.42346 0
M  V30 3207 C 324.143 -0.662376 -1.52321 0
M  V30 3208 O 325.328 -0.906675 -1.67881 0
M  V30 3209 C 322.468 -2.03087 -2.79015 0
M  V30 3210 C 321.581 -3.30799 -2.77842 0
M  V30 3211 C 320.716 -3.42285 -4.0622 0
M  V30 3212 C 319.755 -4.6395 -3.9927 0
M  V30 3213 N 318.892 -4.72477 -5.19336 0
M  V30 3214 H 323.732 -2.73703 -1.17858 0
M  V30 3215 H 321.269 -1.35568 -0.570949 0
M  V30 3216 H 323.227 -2.1349 -3.58438 0
M  V30 3217 H 321.857 -1.14375 -3.01858 0
M  V30 3218 H 320.909 -3.29244 -1.90533 0
M  V30 3219 H 322.221 -4.20314 -2.68584 0
M  V30 3220 H 321.375 -3.52113 -4.94066 0
M  V30 3221 H 320.114 -2.50823 -4.18258 0
M  V30 3222 H 319.119 -4.54201 -3.09809 0
M  V30 3223 H 320.344 -5.56775 -3.88817 0
M  V30 3224 H 318.29 -3.83924 -5.3192 0
M  V30 3225 H 318.207 -5.55927 -5.12329 0
M  V30 3226 H 319.475 -4.86613 -6.08957 0
M  V30 3227 N 323.704 0.605807 -1.45491 0
M  V30 3228 C 324.614 1.74466 -1.56839 0
M  V30 3229 C 325.63 1.68006 -0.452772 0
M  V30 3230 O 326.806 1.8833 -0.713708 0
M  V30 3231 C 323.871 3.10931 -1.53371 0
M  V30 3232 C 322.932 3.28832 -2.75986 0
M  V30 3233 C 322.165 4.58787 -2.72673 0
M  V30 3234 O 322.388 5.4122 -1.80102 0
M  V30 3235 O 321.322 4.79438 -3.63899 0
M  V30 3236 H 325.148 1.67843 -2.53106 0
M  V30 3237 H 322.733 0.770108 -1.28022 0
M  V30 3238 H 324.615 3.92233 -1.54051 0
M  V30 3239 H 323.29 3.18042 -0.602572 0
M  V30 3240 H 322.197 2.47112 -2.80867 0
M  V30 3241 H 323.53 3.26599 -3.68231 0
M  V30 3242 N 325.182 1.32811 0.848464 0
M  V30 3243 C 326.459 1.14334 1.58704 0
M  V30 3244 C 326.839 -0.293948 2.09043 0
M  V30 3245 O 326.187 -1.29153 1.88499 0
M  V30 3246 C 326.397 2.17626 2.72837 0
M  V30 3247 C 327.745 2.51282 3.42261 0
M  V30 3248 O 328.769 2.16219 2.83068 0
M  V30 3249 O 327.628 3.11413 4.49093 0
M  V30 3250 H 324.722 0.441601 0.699226 0
M  V30 3251 H 327.268 1.44362 0.892053 0
M  V30 3252 H 326.04 3.14211 2.3321 0
M  V30 3253 H 325.663 1.88628 3.50008 0
M  V30 3254 N 326.66 -1.06551 1.16123 0
M  V30 3255 C 327.908 -1.78947 0.939267 0
M  V30 3256 C 328.229 -1.87532 -0.534476 0
M  V30 3257 O 327.499 -1.38211 -1.38833 0
M  V30 3258 H 326.079 -0.662807 0.344523 0
M  V30 3259 H 328.741 -1.28725 1.46342 0
M  V30 3260 H 327.837 -2.81117 1.35572 0
M  V30 3261 N 328.138 -0.959301 -1.25041 0
M  V30 3262 C 329.554 -0.664474 -1.4511 0
M  V30 3263 C 329.754 0.776481 -1.85938 0
M  V30 3264 O 328.81 1.55128 -1.99227 0
M  V30 3265 C 330.123 -1.64139 -2.5195 0
M  V30 3266 C 331.671 -1.65309 -2.65786 0
M  V30 3267 C 332.146 -2.61777 -3.75815 0
M  V30 3268 N 333.637 -2.60169 -3.83231 0
M  V30 3269 C 334.372 -3.31489 -4.6787 0
M  V30 3270 N 333.868 -4.12298 -5.56761 0
M  V30 3271 N 335.661 -3.20354 -4.61876 0
M  V30 3272 H 327.812 -1.89043 -0.968332 0
M  V30 3273 H 330.075 -0.813408 -0.4869 0
M  V30 3274 H 329.781 -2.67086 -2.28819 0
M  V30 3275 H 329.655 -1.40756 -3.49954 0
M  V30 3276 H 332.042 -0.630778 -2.8828 0
M  V30 3277 H 332.123 -1.92753 -1.68167 0
M  V30 3278 H 331.767 -3.64137 -3.54071 0
M  V30 3279 H 331.697 -2.31616 -4.72929 0
M  V30 3280 H 334.188 -2.01507 -3.19692 0
M  V30 3281 H 334.501 -4.63625 -6.18281 0
M  V30 3282 H 332.846 -4.16395 -5.56454 0
M  V30 3283 H 336.037 -2.56692 -3.91442 0
M  V30 3284 H 336.21 -3.76201 -5.27614 0
M  V30 3285 N 329.616 1.39756 -0.72842 0
M  V30 3286 C 330.546 2.33289 -0.0991354 0
M  V30 3287 C 331.527 1.53568 0.731489 0
M  V30 3288 O 332.712 1.81987 0.677807 0
M  V30 3289 C 329.842 3.3763 0.813834 0
M  V30 3290 C 328.796 4.2791 0.0878663 0
M  V30 3291 C 328.122 5.22894 1.11741 0
M  V30 3292 C 329.422 5.11314 -1.06563 0
M  V30 3293 H 331.116 2.86163 -0.880408 0
M  V30 3294 H 328.662 1.37591 -0.424819 0
M  V30 3295 H 330.615 4.0201 1.26355 0
M  V30 3296 H 329.339 2.83181 1.62715 0
M  V30 3297 H 327.998 3.65 -0.342159 0
M  V30 3298 H 327.646 4.64744 1.92412 0
M  V30 3299 H 327.346 5.84143 0.636477 0
M  V30 3300 H 328.87 5.90151 1.56697 0
M  V30 3301 H 330.284 5.69076 -0.694671 0
M  V30 3302 H 328.681 5.81671 -1.47577 0
M  V30 3303 H 329.751 4.46534 -1.89038 0
M  V30 3304 N 331.094 0.475555 1.50254 0
M  V30 3305 C 332.024 -0.30611 2.31485 0
M  V30 3306 C 333.005 -0.986228 1.38591 0
M  V30 3307 O 334.19 -0.982541 1.67511 0
M  V30 3308 C 331.32 -1.38588 3.1845 0
M  V30 3309 C 330.274 -0.827115 4.19932 0
M  V30 3310 C 329.6 -2.00551 4.95665 0
M  V30 3311 C 330.9 0.16463 5.2204 0
M  V30 3312 H 332.594 0.371866 2.97082 0
M  V30 3313 H 330.14 0.180282 1.42867 0
M  V30 3314 H 332.093 -1.94023 3.74076 0
M  V30 3315 H 330.817 -2.09269 2.50747 0
M  V30 3316 H 329.476 -0.294702 3.65414 0
M  V30 3317 H 329.124 -2.6994 4.2443 0
M  V30 3318 H 328.824 -1.63784 5.64313 0
M  V30 3319 H 330.348 -2.56468 5.54127 0
M  V30 3320 H 331.762 -0.300699 5.72511 0
M  V30 3321 H 330.159 0.446813 5.98434 0
M  V30 3322 H 331.229 1.08905 4.72512 0
M  V30 3323 N 332.573 -1.56217 0.208337 0
M  V30 3324 C 333.536 -2.18455 -0.693557 0
M  V30 3325 C 334.536 -1.14268 -1.13135 0
M  V30 3326 O 335.726 -1.39577 -1.0423 0
M  V30 3327 C 332.858 -2.79727 -1.94848 0
M  V30 3328 H 334.051 -2.99519 -0.15114 0
M  V30 3329 H 331.604 -1.56245 -0.041287 0
M  V30 3330 H 332.339 -2.02497 -2.53309 0
M  V30 3331 H 332.124 -3.56009 -1.64316 0
M  V30 3332 H 333.614 -3.27475 -2.59133 0
M  V30 3333 N 334.051 0.0651679 -1.57465 0
M  V30 3334 C 335.276 0.779605 -1.9219 0
M  V30 3335 C 335.701 1.69988 -0.805333 0
M  V30 3336 O 335.059 1.79685 0.241435 0
M  V30 3337 C 335.107 1.54364 -3.2589 0
M  V30 3338 O 334.211 2.65474 -3.1559 0
M  V30 3339 H 333.552 0.212249 -0.629163 0
M  V30 3340 H 336.082 0.0314294 -2.04576 0
M  V30 3341 H 336.092 1.92146 -3.59922 0
M  V30 3342 H 334.767 0.868457 -4.06732 0
M  V30 3343 H 333.344 2.30501 -2.93128 0
M  V30 3344 N 335.529 1.53961 0.336706 0
M  V30 3345 C 336.476 1.82428 1.41381 0
M  V30 3346 C 337.446 0.670444 1.51968 0
M  V30 3347 O 338.631 0.915565 1.67398 0
M  V30 3348 C 335.771 2.04564 2.77934 0
M  V30 3349 C 334.884 3.32267 2.76084 0
M  V30 3350 C 334.019 3.44434 4.04399 0
M  V30 3351 C 333.058 4.66061 3.96804 0
M  V30 3352 N 332.195 4.75224 5.16823 0
M  V30 3353 H 337.035 2.74324 1.16405 0
M  V30 3354 H 334.572 1.35869 0.563752 0
M  V30 3355 H 336.53 2.15388 3.57301 0
M  V30 3356 H 335.16 1.15974 3.01247 0
M  V30 3357 H 334.212 3.3025 1.88784 0
M  V30 3358 H 335.524 4.21733 2.66351 0
M  V30 3359 H 334.678 3.54728 4.92192 0
M  V30 3360 H 333.417 2.53037 4.16921 0
M  V30 3361 H 332.422 4.55838 3.07396 0
M  V30 3362 H 333.647 5.58829 3.85858 0
M  V30 3363 H 331.593 3.86739 5.29876 0
M  V30 3364 H 331.51 5.58636 5.09374 0
M  V30 3365 H 332.778 4.89835 6.06367 0
M  V30 3366 N 337.007 -0.598083 1.45811 0
M  V30 3367 C 338.247 -1.36802 1.5187 0
M  V30 3368 C 338.611 -1.9133 0.160224 0
M  V30 3369 O 339.812 -2.6863 0.0955302 0
M  V30 3370 C 338.083 -2.47835 2.57513 0
M  V30 3371 S 339.642 -3.35458 2.82866 0
M  V30 3372 H 336.46 -0.466278 0.536755 0
M  V30 3373 H 339.062 -0.689152 1.82951 0
M  V30 3374 H 337.766 -2.06141 3.54872 0
M  V30 3375 H 337.297 -3.20512 2.28114 0
M  V30 3376 H 339.312 -4.46251 2.16967 0
M  V30 3377 N 338.485 -1.33259 -0.841409 0
M  V30 3378 C 339.731 -1.24757 -1.59886 0
M  V30 3379 C 340.064 0.186913 -1.93298 0
M  V30 3380 O 339.339 1.12757 -1.5848 0
M  V30 3381 C 339.622 -2.12036 -2.91055 0
M  V30 3382 C 339.475 -3.63929 -2.6434 0
M  V30 3383 C 340.794 -1.9916 -3.92458 0
M  V30 3384 H 337.913 -0.454542 -0.580138 0
M  V30 3385 H 340.555 -1.63335 -0.970647 0
M  V30 3386 H 338.705 -1.79265 -3.44669 0
M  V30 3387 H 340.377 -4.06978 -2.17178 0
M  V30 3388 H 338.62 -3.85935 -1.98082 0
M  V30 3389 H 339.291 -4.20341 -3.57796 0
M  V30 3390 H 341.767 -2.27895 -3.48143 0
M  V30 3391 H 340.643 -2.62484 -4.82072 0
M  V30 3392 H 340.904 -0.963082 -4.31482 0
M  V30 3393 N 339.963 1.05934 -1.16686 0
M  V30 3394 C 341.191 1.8249 -0.974929 0
M  V30 3395 C 341.606 1.82679 0.476861 0
M  V30 3396 O 340.963 1.2486 1.33103 0
M  V30 3397 C 341.014 3.28943 -1.49929 0
M  V30 3398 O 340.735 3.28886 -2.89423 0
M  V30 3399 C 342.236 4.22215 -1.35089 0
M  V30 3400 H 339.456 0.575295 -0.345365 0
M  V30 3401 H 342 1.33631 -1.548 0
M  V30 3402 H 340.155 3.751 -0.968423 0
M  V30 3403 H 340.569 4.20493 -3.13506 0
M  V30 3404 H 342.043 5.22987 -1.76603 0
M  V30 3405 H 342.52 4.38195 -0.296935 0
M  V30 3406 H 343.126 3.81907 -1.87155 0
M  V30 3407 N 341.441 0.965919 1.2453 0
M  V30 3408 C 342.718 0.543777 1.87889 0
M  V30 3409 C 343.098 -0.97909 1.87021 0
M  V30 3410 O 342.446 -1.84969 1.3416 0
M  V30 3411 C 342.656 1.13327 3.30088 0
M  V30 3412 C 344.004 1.21707 4.06783 0
M  V30 3413 O 345.028 1.08566 3.39252 0
M  V30 3414 O 343.887 1.42456 5.27606 0
M  V30 3415 H 340.981 0.181054 0.806938 0
M  V30 3416 H 343.527 1.06007 1.32516 0
M  V30 3417 H 342.299 2.17612 3.25209 0
M  V30 3418 H 341.922 0.600911 3.93033 0
M  V30 3419 N 342.919 -1.39368 0.735821 0
M  V30 3420 C 343.829 -2.34395 0.0979693 0
M  V30 3421 C 344.845 -1.58361 -0.720968 0
M  V30 3422 O 346.021 -1.90648 -0.649245 0
M  V30 3423 C 343.086 -3.37393 -0.797916 0
M  V30 3424 C 342.147 -4.29287 0.0333662 0
M  V30 3425 C 341.38 -5.27365 -0.819854 0
M  V30 3426 O 341.603 -5.31959 -2.05855 0
M  V30 3427 O 340.537 -6.01389 -0.248079 0
M  V30 3428 H 344.363 -2.90601 0.882315 0
M  V30 3429 H 341.948 -1.40909 0.4965 0
M  V30 3430 H 343.83 -4.00505 -1.31048 0
M  V30 3431 H 342.505 -2.83571 -1.56106 0
M  V30 3432 H 341.412 -3.69395 0.591475 0
M  V30 3433 H 342.745 -4.86317 0.758752 0
M  V30 3434 N 344.397 -0.483516 -1.5 0
M  V30 3435 C 345.637 0.0657469 -2.04294 0
M  V30 3436 C 346.001 1.35869 -1.35659 0
M  V30 3437 O 347.202 1.99111 -1.80578 0
M  V30 3438 C 345.473 0.232758 -3.56641 0
M  V30 3439 S 347.032 0.738788 -4.32536 0
M  V30 3440 H 343.85 0.0100755 -0.710929 0
M  V30 3441 H 346.452 -0.653494 -1.84254 0
M  V30 3442 H 345.156 -0.713847 -4.04144 0
M  V30 3443 H 344.687 0.977751 -3.81056 0
M  V30 3444 H 346.702 2.01048 -4.53645 0
M  V30 3445 N 345.875 1.56104 -0.216619 0
M  V30 3446 C 347.122 1.98172 0.416416 0
M  V30 3447 C 347.45 1.10413 1.60122 0
M  V30 3448 O 346.705 0.147967 1.9514 0
M  V30 3449 C 347.004 3.45923 0.898464 0
M  V30 3450 C 346.67 4.50559 -0.175288 0
M  V30 3451 C 345.332 4.78897 -0.470271 0
M  V30 3452 C 347.684 5.1334 -0.901728 0
M  V30 3453 C 345.012 5.67299 -1.4963 0
M  V30 3454 C 347.364 6.02853 -1.91705 0
M  V30 3455 C 346.028 6.29537 -2.21901 0
M  V30 3456 H 345.298 0.725164 0.152377 0
M  V30 3457 H 347.945 1.88839 -0.318103 0
M  V30 3458 H 346.25 3.52434 1.71165 0
M  V30 3459 H 347.947 3.75841 1.39803 0
M  V30 3460 H 344.537 4.28551 0.0647806 0
M  V30 3461 H 348.721 4.91521 -0.687072 0
M  V30 3462 H 343.977 5.86239 -1.73592 0
M  V30 3463 H 348.151 6.50552 -2.48505 0
M  V30 3464 H 345.778 6.97835 -3.01548 0
M  V30 3465 N 347.353 -0.0568162 1.57498 0
M  V30 3466 C 348.6 -0.753104 1.87975 0
M  V30 3467 C 348.928 -1.76815 0.81035 0
M  V30 3468 O 348.183 -1.94756 -0.19199 0
M  V30 3469 C 348.482 -1.48359 3.25153 0
M  V30 3470 C 348.148 -0.60713 4.46794 0
M  V30 3471 C 346.81 -0.365642 4.79809 0
M  V30 3472 C 349.162 -0.000305978 5.212 0
M  V30 3473 C 346.49 0.491905 5.84634 0
M  V30 3474 C 348.842 0.844781 6.26934 0
M  V30 3475 C 347.506 1.096 6.58441 0
M  V30 3476 H 346.776 -0.27558 0.687849 0
M  V30 3477 H 349.423 -0.0135173 1.91495 0
M  V30 3478 H 347.728 -2.29577 3.17492 0
M  V30 3479 H 349.425 -2.02739 3.45974 0
M  V30 3480 H 346.015 -0.805487 4.20963 0
M  V30 3481 H 350.199 -0.173961 4.95995 0
M  V30 3482 H 345.455 0.695131 6.07436 0
M  V30 3483 H 349.629 1.32165 6.83744 0
M  V30 3484 H 347.256 1.76224 7.39492 0
M  V30 3485 N 348.832 -1.54138 -0.328536 0
M  V30 3486 C 350.079 -1.72105 -1.06706 0
M  V30 3487 C 350.407 -0.492111 -1.88171 0
M  V30 3488 O 349.662 0.526153 -1.88494 0
M  V30 3489 C 349.961 -2.9457 -2.02393 0
M  V30 3490 C 349.627 -4.29544 -1.37122 0
M  V30 3491 C 348.289 -4.6624 -1.19052 0
M  V30 3492 C 350.641 -5.1333 -0.902331 0
M  V30 3493 C 347.969 -5.84325 -0.527331 0
M  V30 3494 C 350.321 -6.32094 -0.252988 0
M  V30 3495 C 348.985 -6.67473 -0.0600901 0
M  V30 3496 H 348.255 -0.629775 -0.390466 0
M  V30 3497 H 350.902 -1.88372 -0.34473 0
M  V30 3498 H 349.207 -2.72969 -2.81061 0
M  V30 3499 H 350.904 -3.05665 -2.59557 0
M  V30 3500 H 347.494 -4.0067 -1.52188 0
M  V30 3501 H 351.678 -4.855 -1.02974 0
M  V30 3502 H 346.934 -6.103 -0.366634 0
M  V30 3503 H 351.108 -6.96299 0.118366 0
M  V30 3504 H 348.735 -7.58832 0.455828 0
M  V30 3505 N 350.31 0.590341 -1.46126 0
M  V30 3506 C 351.22 1.72793 -1.58681 0
M  V30 3507 C 352.236 1.67516 -0.470566 0
M  V30 3508 O 353.412 1.87562 -0.733642 0
M  V30 3509 C 350.477 3.09287 -1.5666 0
M  V30 3510 C 349.538 3.25886 -2.79458 0
M  V30 3511 C 348.771 4.55869 -2.77524 0
M  V30 3512 O 348.994 5.3928 -1.85832 0
M  V30 3513 O 347.928 4.75552 -3.68964 0
M  V30 3514 H 351.754 1.65149 -2.54872 0
M  V30 3515 H 349.339 0.756486 -1.28832 0
M  V30 3516 H 351.221 3.90577 -1.58202 0
M  V30 3517 H 349.896 3.17385 -0.636271 0
M  V30 3518 H 348.803 2.44119 -2.83472 0
M  V30 3519 H 350.136 3.22675 -3.71674 0
M  V30 3520 N 351.788 1.33704 0.83433 0
M  V30 3521 C 353.204 1.13137 1.12571 0
M  V30 3522 C 353.404 -0.0747261 2.01361 0
M  V30 3523 O 352.46 -0.753647 2.4099 0
M  V30 3524 C 353.773 2.42105 1.78342 0
M  V30 3525 C 355.321 2.48054 1.90888 0
M  V30 3526 C 355.796 3.76995 2.60075 0
M  V30 3527 N 357.287 3.78092 2.67584 0
M  V30 3528 C 358.022 4.74574 3.21818 0
M  V30 3529 N 357.518 5.81434 3.76705 0
M  V30 3530 N 359.311 4.62044 3.20112 0
M  V30 3531 H 351.462 2.11 0.243489 0
M  V30 3532 H 353.725 0.932532 0.17055 0
M  V30 3533 H 353.431 3.30391 1.20561 0
M  V30 3534 H 353.305 2.54594 2.7832 0
M  V30 3535 H 355.692 1.60215 2.47821 0
M  V30 3536 H 355.773 2.39502 0.898459 0
M  V30 3537 H 355.417 4.65219 2.03799 0
M  V30 3538 H 355.347 3.82825 3.61597 0
M  V30 3539 H 357.838 3.00865 2.28667 0
M  V30 3540 H 358.151 6.51084 4.16305 0
M  V30 3541 H 356.496 5.85163 3.7498 0
M  V30 3542 H 359.687 3.77716 2.76493 0
M  V30 3543 H 359.86 5.37406 3.62076 0
M  V30 3544 N 353.266 -1.05314 1.17247 0
M  V30 3545 C 354.196 -2.1498 0.911362 0
M  V30 3546 C 355.177 -1.69471 -0.146169 0
M  V30 3547 O 356.362 -1.942 0.003812 0
M  V30 3548 C 353.492 -3.4472 0.422528 0
M  V30 3549 C 352.446 -4.03789 1.4191 0
M  V30 3550 C 351.772 -5.28858 0.788274 0
M  V30 3551 C 353.072 -4.41418 2.7919 0
M  V30 3552 H 354.766 -2.3708 1.82848 0
M  V30 3553 H 352.312 -1.13938 0.880569 0
M  V30 3554 H 354.265 -4.20787 0.227289 0
M  V30 3555 H 352.989 -3.22269 -0.530123 0
M  V30 3556 H 351.648 -3.2979 1.60106 0
M  V30 3557 H 351.296 -5.02709 -0.171173 0
M  V30 3558 H 350.996 -5.69338 1.45353 0
M  V30 3559 H 352.52 -6.07612 0.603282 0
M  V30 3560 H 353.934 -5.08524 2.64719 0
M  V30 3561 H 352.331 -4.92913 3.42282 0
M  V30 3562 H 353.401 -3.51819 3.33693 0
M  V30 3563 N 354.744 -0.972509 -1.24016 0
M  V30 3564 C 355.654 -0.5143 -2.28893 0
M  V30 3565 C 356.67 0.427078 -1.68677 0
M  V30 3566 O 357.846 0.298939 -1.99169 0
M  V30 3567 C 354.911 0.183598 -3.46214 0
M  V30 3568 C 353.972 -0.798202 -4.21814 0
M  V30 3569 C 353.205 -0.133514 -5.33533 0
M  V30 3570 O 353.428 1.07714 -5.60137 0
M  V30 3571 O 352.362 -0.828103 -5.96176 0
M  V30 3572 H 356.188 -1.38629 -2.70214 0
M  V30 3573 H 353.773 -0.739769 -1.29799 0
M  V30 3574 H 355.655 0.575433 -4.17453 0
M  V30 3575 H 354.33 1.03048 -3.0686 0
M  V30 3576 H 353.237 -1.24059 -3.52931 0
M  V30 3577 H 354.57 -1.61364 -4.64997 0
M  V30 3578 N 356.222 1.38976 -0.743202 0
M  V30 3579 C 357.447 2.05161 -0.303936 0
M  V30 3580 C 357.872 1.55677 1.05576 0
M  V30 3581 O 357.23 0.704131 1.67068 0
M  V30 3582 C 357.278 3.59138 -0.324373 0
M  V30 3583 O 356.382 4.06668 0.685204 0
M  V30 3584 H 355.723 0.649815 -0.136518 0
M  V30 3585 H 358.253 1.77852 -1.01142 0
M  V30 3586 H 358.263 4.07639 -0.171618 0
M  V30 3587 H 356.938 3.94515 -1.31647 0
M  V30 3588 H 355.515 3.69561 0.497913 0
M  V30 3589 N 357.7 0.491464 1.49741 0
M  V30 3590 C 358.648 -0.305837 2.30581 0
M  V30 3591 C 359.642 -0.971642 1.38764 0
M  V30 3592 O 360.848 -0.90042 1.5586 0
M  V30 3593 H 357.223 -0.117482 0.742767 0
M  V30 3594 H 359.194 0.396093 2.95759 0
M  V30 3595 C 357.943 -1.36319 3.19863 0
M  V30 3596 H 357.266 -0.860258 3.90435 0
M  V30 3597 H 358.706 -1.89323 3.79385 0
M  V30 3598 C 357.165 -2.37621 2.38826 0
M  V30 3599 O 357.695 -3.43311 2.08567 0
M  V30 3600 N 355.901 -2.09849 2.01026 0
M  V30 3601 H 355.448 -1.23922 2.25834 0
M  V30 3602 H 355.406 -2.77859 1.47112 0
M  V30 3603 N 359.178 -1.55987 0.224894 0
M  V30 3604 C 360.126 -2.21808 -0.700283 0
M  V30 3605 C 361.12 -1.19854 -1.19714 0
M  V30 3606 O 362.326 -1.37925 -1.15658 0
M  V30 3607 H 358.701 -0.711226 -0.244258 0
M  V30 3608 H 360.672 -2.98152 -0.121749 0
M  V30 3609 C 359.421 -2.91444 -1.8962 0
M  V30 3610 H 358.744 -3.69655 -1.52299 0
M  V30 3611 H 360.184 -3.40894 -2.52125 0
M  V30 3612 C 358.643 -1.94098 -2.75368 0
M  V30 3613 O 359.173 -1.46004 -3.74227 0
M  V30 3614 N 357.379 -1.61675 -2.41474 0
M  V30 3615 H 356.926 -2.00979 -1.61137 0
M  V30 3616 H 356.884 -0.968036 -2.99126 0
M  V30 3617 N 360.656 0.0484629 -1.57525 0
M  V30 3618 C 361.886 0.754326 -1.92337 0
M  V30 3619 C 362.294 1.70443 -0.82132 0
M  V30 3620 O 361.637 1.82466 0.21254 0
M  V30 3621 C 361.699 1.58231 -3.22805 0
M  V30 3622 C 361.363 0.799074 -4.4996 0
M  V30 3623 C 362.36 0.1079 -5.19788 0
M  V30 3624 C 360.045 0.759345 -4.96527 0
M  V30 3625 C 362.039 -0.612516 -6.3445 0
M  V30 3626 C 359.726 0.0351713 -6.1109 0
M  V30 3627 C 360.724 -0.649537 -6.79904 0
M  V30 3628 O 360.412 -1.36199 -7.92278 0
M  V30 3629 H 360.144 0.218257 -0.639797 0
M  V30 3630 H 362.698 0.0159295 -2.05394 0
M  V30 3631 H 360.928 2.36406 -3.06021 0
M  V30 3632 H 362.617 2.16898 -3.43089 0
M  V30 3633 H 363.383 0.129748 -4.84826 0
M  V30 3634 H 359.262 1.28177 -4.42822 0
M  V30 3635 H 362.806 -1.14751 -6.88097 0
M  V30 3636 H 358.703 0.0113314 -6.45499 0
M  V30 3637 H 359.471 -1.27366 -8.0853 0
M  V30 3638 N 362.134 1.5431 0.320358 0
M  V30 3639 C 363.082 1.84647 1.4145 0
M  V30 3640 C 364.076 0.718624 1.53402 0
M  V30 3641 O 365.282 0.902335 1.5575 0
M  V30 3642 H 361.657 0.585349 0.472091 0
M  V30 3643 H 363.628 2.7614 1.13089 0
M  V30 3644 C 362.377 2.09341 2.77617 0
M  V30 3645 H 361.7 2.9559 2.69196 0
M  V30 3646 H 363.14 2.3452 3.53237 0
M  V30 3647 C 361.599 0.885939 3.25043 0
M  V30 3648 O 362.129 0.0967891 4.01583 0
M  V30 3649 N 360.335 0.696682 2.82125 0
M  V30 3650 H 359.882 1.34006 2.2 0
M  V30 3651 H 359.84 -0.109712 3.14209 0
M  V30 3652 N 363.613 -0.582584 1.46437 0
M  V30 3653 C 364.841 -1.36682 1.55324 0
M  V30 3654 C 365.256 -1.87796 0.194409 0
M  V30 3655 O 364.613 -1.63623 -0.808318 0
M  V30 3656 C 364.664 -2.55426 2.55812 0
M  V30 3657 O 364.385 -2.0643 3.86417 0
M  V30 3658 C 365.886 -3.47976 2.74641 0
M  V30 3659 H 363.106 -0.417545 0.525259 0
M  V30 3660 H 365.65 -0.708219 1.91845 0
M  V30 3661 H 363.805 -3.17275 2.22295 0
M  V30 3662 H 364.219 -2.83762 4.41111 0
M  V30 3663 H 365.693 -4.27775 3.48874 0
M  V30 3664 H 366.17 -3.99919 1.81553 0
M  V30 3665 H 366.776 -2.91962 3.09255 0
M  V30 3666 N 365.091 -1.34144 -0.827227 0
M  V30 3667 C 366.321 -1.29138 -1.61267 0
M  V30 3668 C 366.729 0.137597 -1.88699 0
M  V30 3669 O 366.072 1.09379 -1.47587 0
M  V30 3670 C 366.134 -2.0097 -2.9808 0
M  V30 3671 C 365.798 -3.50242 -2.93563 0
M  V30 3672 C 366.795 -4.4523 -2.68452 0
M  V30 3673 C 364.48 -3.92592 -3.13331 0
M  V30 3674 C 366.474 -5.80542 -2.63154 0
M  V30 3675 C 364.161 -5.28005 -3.07658 0
M  V30 3676 C 365.159 -6.21792 -2.82602 0
M  V30 3677 O 364.847 -7.54723 -2.76853 0
M  V30 3678 H 364.579 -0.445851 -0.508127 0
M  V30 3679 H 367.133 -1.77263 -1.03763 0
M  V30 3680 H 365.363 -1.47451 -3.57484 0
M  V30 3681 H 367.052 -1.89309 -3.5905 0
M  V30 3682 H 367.818 -4.13832 -2.52919 0
M  V30 3683 H 363.697 -3.19994 -3.31851 0
M  V30 3684 H 367.241 -6.53717 -2.43516 0
M  V30 3685 H 363.138 -5.59023 -3.22743 0
M  V30 3686 H 363.906 -7.64409 -2.92611 0
M  V30 3687 N 366.569 1.04691 -1.17803 0
M  V30 3688 C 367.985 1.29963 -0.926379 0
M  V30 3689 C 368.185 1.97251 0.411635 0
M  V30 3690 O 367.241 2.24922 1.14744 0
M  V30 3691 C 368.554 2.16447 -2.08737 0
M  V30 3692 C 370.102 2.29814 -2.12496 0
M  V30 3693 C 370.577 3.19661 -3.27995 0
M  V30 3694 N 372.068 3.27247 -3.27816 0
M  V30 3695 C 372.803 3.96906 -4.13827 0
M  V30 3696 N 372.299 4.6895 -5.09959 0
M  V30 3697 N 374.092 3.93122 -4.01761 0
M  V30 3698 H 366.243 0.594182 -2.0392 0
M  V30 3699 H 368.506 0.324649 -0.890678 0
M  V30 3700 H 368.212 1.74304 -3.05469 0
M  V30 3701 H 368.086 3.17103 -2.04268 0
M  V30 3702 H 370.473 2.71196 -1.16347 0
M  V30 3703 H 370.554 1.2877 -2.21025 0
M  V30 3704 H 370.198 2.78991 -4.24413 0
M  V30 3705 H 370.128 4.20722 -3.16703 0
M  V30 3706 H 372.619 2.75921 -2.58217 0
M  V30 3707 H 372.932 5.19679 -5.71974 0
M  V30 3708 H 371.277 4.67875 -5.13924 0
M  V30 3709 H 374.468 3.35967 -3.2595 0
M  V30 3710 H 374.641 4.47139 -4.6901 0
M  V30 3711 N 368.047 0.979072 1.23499 0
M  V30 3712 C 369.272 0.664845 1.96455 0
M  V30 3713 C 369.697 -0.761287 1.72006 0
M  V30 3714 O 369.055 -1.51837 0.990713 0
M  V30 3715 C 369.103 0.959479 3.47601 0
M  V30 3716 O 368.207 0.0508168 4.12369 0
M  V30 3717 H 367.548 0.250185 0.615064 0
M  V30 3718 H 370.078 1.31231 1.5697 0
M  V30 3719 H 370.088 0.895642 3.98048 0
M  V30 3720 H 368.763 1.99876 3.64723 0
M  V30 3721 H 367.34 0.16895 3.72517 0
M  V30 3722 N 369.525 -1.3858 0.750561 0
M  V30 3723 C 370.941 -1.53759 0.427824 0
M  V30 3724 C 371.141 -1.71401 -1.05943 0
M  V30 3725 O 370.197 -1.72331 -1.84549 0
M  V30 3726 C 371.51 -2.74642 1.22443 0
M  V30 3727 C 373.058 -2.88489 1.2142 0
M  V30 3728 C 373.533 -4.12329 1.9937 0
M  V30 3729 N 375.024 -4.194 1.96616 0
M  V30 3730 C 375.759 -5.14209 2.53727 0
M  V30 3731 N 375.255 -6.14709 3.19539 0
M  V30 3732 N 377.048 -5.06537 2.43673 0
M  V30 3733 H 369.199 -1.25377 1.71447 0
M  V30 3734 H 371.462 -0.608844 0.726645 0
M  V30 3735 H 371.168 -2.68 2.27747 0
M  V30 3736 H 371.042 -3.67745 0.839273 0
M  V30 3737 H 373.429 -2.94614 0.169232 0
M  V30 3738 H 373.51 -1.96406 1.63885 0
M  V30 3739 H 373.154 -4.06966 3.03877 0
M  V30 3740 H 373.084 -5.03486 1.54302 0
M  V30 3741 H 375.575 -3.47421 1.48684 0
M  V30 3742 H 375.888 -6.8354 3.60545 0
M  V30 3743 H 374.233 -6.1505 3.23633 0
M  V30 3744 H 377.424 -4.26962 1.91889 0
M  V30 3745 H 377.597 -5.80245 2.88479 0
M  V30 3746 N 371.003 -0.499398 -1.49478 0
M  V30 3747 C 371.95 0.279881 -2.29097 0
M  V30 3748 C 372.92 0.961805 -1.3542 0
M  V30 3749 O 374.105 0.968777 -1.64376 0
M  V30 3750 C 371.245 1.33932 -3.18051 0
M  V30 3751 C 370.358 0.669333 -4.26783 0
M  V30 3752 C 369.493 1.70907 -5.02955 0
M  V30 3753 C 368.532 1.02087 -6.03527 0
M  V30 3754 N 367.669 2.00474 -6.7287 0
M  V30 3755 H 372.509 -0.405317 -2.95231 0
M  V30 3756 H 370.046 -0.211726 -1.45568 0
M  V30 3757 H 372.004 1.96553 -3.67998 0
M  V30 3758 H 370.634 1.9933 -2.53904 0
M  V30 3759 H 369.686 -0.0701234 -3.80335 0
M  V30 3760 H 370.998 0.127503 -4.98637 0
M  V30 3761 H 370.152 2.41037 -5.56764 0
M  V30 3762 H 368.891 2.28476 -4.30871 0
M  V30 3763 H 367.896 0.305338 -5.48951 0
M  V30 3764 H 369.121 0.451708 -6.77596 0
M  V30 3765 H 367.067 2.57007 -6.03559 0
M  V30 3766 H 366.984 1.51353 -7.40694 0
M  V30 3767 H 368.252 2.69897 -7.31284 0
M  V30 3768 N 372.481 1.55866 -0.233164 0
M  V30 3769 C 373.711 2.02704 0.399325 0
M  V30 3770 C 374.119 1.11204 1.53069 0
M  V30 3771 O 373.462 0.116182 1.83332 0
M  V30 3772 C 373.524 3.45844 0.981429 0
M  V30 3773 C 373.188 4.56997 -0.0159561 0
M  V30 3774 C 374.185 5.13384 -0.820552 0
M  V30 3775 C 371.87 5.0211 -0.138072 0
M  V30 3776 C 373.864 6.13365 -1.73386 0
M  V30 3777 C 371.551 6.01926 -1.0549 0
M  V30 3778 C 372.549 6.57431 -1.85132 0
M  V30 3779 O 372.237 7.55302 -2.75272 0
M  V30 3780 H 371.969 0.668459 0.100692 0
M  V30 3781 H 374.523 2.02387 -0.35052 0
M  V30 3782 H 372.753 3.43267 1.78058 0
M  V30 3783 H 374.442 3.76262 1.52255 0
M  V30 3784 H 375.208 4.79372 -0.736721 0
M  V30 3785 H 371.087 4.5858 0.471737 0
M  V30 3786 H 374.631 6.56614 -2.35592 0
M  V30 3787 H 370.528 6.35359 -1.1397 0
M  V30 3788 H 371.296 7.72867 -2.69477 0
M  V30 3789 N 373.959 -0.0401083 1.57549 0
M  V30 3790 C 375.187 -0.745196 1.93014 0
M  V30 3791 C 375.602 -1.6948 0.831984 0
M  V30 3792 O 374.959 -1.81482 -0.192463 0
M  V30 3793 C 375.01 -1.51176 3.28372 0
M  V30 3794 O 374.731 -0.600284 4.33968 0
M  V30 3795 C 376.232 -2.315 3.78051 0
M  V30 3796 H 373.452 -0.210088 0.637263 0
M  V30 3797 H 375.996 -0.000924689 2.045 0
M  V30 3798 H 374.151 -2.20801 3.18317 0
M  V30 3799 H 374.565 -1.13669 5.12035 0
M  V30 3800 H 376.039 -2.80697 4.75303 0
M  V30 3801 H 376.516 -3.12436 3.08675 0
M  V30 3802 H 377.122 -1.66971 3.91153 0
M  V30 3803 N 375.437 -1.54477 -0.31217 0
M  V30 3804 C 376.662 -1.77526 -1.07235 0
M  V30 3805 C 377.087 -0.527775 -1.80544 0
M  V30 3806 O 376.445 0.52121 -1.73646 0
M  V30 3807 C 376.493 -2.97535 -2.03728 0
M  V30 3808 O 375.597 -2.69878 -3.11833 0
M  V30 3809 H 374.938 -0.58792 -0.30862 0
M  V30 3810 H 377.468 -2.01532 -0.352993 0
M  V30 3811 H 377.478 -3.25198 -2.46395 0
M  V30 3812 H 376.153 -3.87996 -1.49774 0
M  V30 3813 H 374.73 -2.53199 -2.7376 0
M  V30 3814 N 376.915 0.57481 -1.46744 0
M  V30 3815 C 378.161 1.33251 -1.53674 0
M  V30 3816 C 378.516 1.91468 -0.189125 0
M  V30 3817 O 377.809 1.73954 0.803151 0
M  V30 3818 C 378.003 2.476 -2.57738 0
M  V30 3819 C 377.832 2.00586 -4.02487 0
M  V30 3820 C 376.602 1.85237 -4.70123 0
M  V30 3821 C 378.8 1.56078 -4.90045 0
M  V30 3822 N 376.782 1.32377 -5.99458 0
M  V30 3823 C 378.153 1.14863 -6.09267 0
M  V30 3824 C 380.208 1.43968 -4.76632 0
M  V30 3825 C 378.911 0.627435 -7.16558 0
M  V30 3826 C 380.937 0.932512 -5.84002 0
M  V30 3827 C 380.299 0.53019 -7.02402 0
M  V30 3828 H 376.398 0.480284 -0.617131 0
M  V30 3829 H 378.982 0.653592 -1.83402 0
M  V30 3830 H 377.153 3.13045 -2.29907 0
M  V30 3831 H 378.885 3.14567 -2.54616 0
M  V30 3832 H 375.64 2.07423 -4.25761 0
M  V30 3833 H 376.064 1.08085 -6.68316 0
M  V30 3834 H 380.706 1.73689 -3.85476 0
M  V30 3835 H 378.424 0.317821 -8.07475 0
M  V30 3836 H 382.01 0.842611 -5.75666 0
M  V30 3837 H 380.89 0.14381 -7.84068 0
M  V30 3838 N 378.394 1.34581 0.820102 0
M  V30 3839 C 379.624 1.29991 1.6058 0
M  V30 3840 C 380.032 -0.127588 1.88769 0
M  V30 3841 O 379.375 -1.08595 1.48165 0
M  V30 3842 C 379.437 2.02548 2.9701 0
M  V30 3843 C 379.101 3.51794 2.91701 0
M  V30 3844 C 380.098 4.46647 2.66087 0
M  V30 3845 C 377.783 3.94249 3.11245 0
M  V30 3846 C 379.777 5.81929 2.60071 0
M  V30 3847 C 377.464 5.2963 3.04853 0
M  V30 3848 C 378.462 6.23282 2.793 0
M  V30 3849 O 378.15 7.56181 2.72847 0
M  V30 3850 H 377.882 0.448539 0.505756 0
M  V30 3851 H 380.436 1.77811 1.02822 0
M  V30 3852 H 378.666 1.49345 3.56697 0
M  V30 3853 H 380.355 1.91211 3.58041 0
M  V30 3854 H 381.121 4.15168 2.5072 0
M  V30 3855 H 377 3.21749 3.30149 0
M  V30 3856 H 380.544 6.54999 2.40046 0
M  V30 3857 H 376.441 5.60727 3.19774 0
M  V30 3858 H 377.209 7.6595 2.88553 0
M  V30 3859 N 379.872 -1.04064 1.18357 0
M  V30 3860 C 381.118 -1.77528 0.980397 0
M  V30 3861 C 381.451 -1.87948 -0.48879 0
M  V30 3862 O 380.726 -1.3876 -1.36293 0
M  V30 3863 C 381.009 -3.20797 1.63588 0
M  V30 3864 C 380.862 -3.1832 3.17793 0
M  V30 3865 C 382.181 -4.18911 1.34914 0
M  V30 3866 H 379.3 -0.644443 0.357578 0
M  V30 3867 H 381.942 -1.2156 1.46024 0
M  V30 3868 H 380.092 -3.68586 1.22788 0
M  V30 3869 H 381.764 -2.78521 3.67728 0
M  V30 3870 H 380.007 -2.56351 3.49952 0
M  V30 3871 H 380.678 -4.19489 3.58794 0
M  V30 3872 H 383.154 -3.7967 1.70265 0
M  V30 3873 H 382.03 -5.17374 1.83346 0
M  V30 3874 H 382.291 -4.41262 0.272027 0
M  V30 3875 N 381.35 -0.985608 -1.22978 0
M  V30 3876 C 382.313 -0.535071 -2.22867 0
M  V30 3877 C 383.313 0.378123 -1.56291 0
M  V30 3878 O 384.503 0.171092 -1.73358 0
M  V30 3879 C 381.635 0.222702 -3.40172 0
M  V30 3880 H 382.828 -1.41835 -2.6424 0
M  V30 3881 H 380.381 -0.772042 -1.35901 0
M  V30 3882 H 381.116 1.12229 -3.04262 0
M  V30 3883 H 380.901 -0.43288 -3.89703 0
M  V30 3884 H 382.391 0.526335 -4.1427 0
M  V30 3885 N 382.828 1.3818 -0.7579 0
M  V30 3886 C 383.758 2.33027 -0.148597 0
M  V30 3887 C 384.739 1.55085 0.69875 0
M  V30 3888 O 385.924 1.83384 0.639053 0
M  V30 3889 C 383.054 3.3928 0.742034 0
M  V30 3890 C 382.008 4.28 -0.00291946 0
M  V30 3891 C 381.334 5.25146 1.00625 0
M  V30 3892 C 382.634 5.08938 -1.17385 0
M  V30 3893 H 384.328 2.84231 -0.940909 0
M  V30 3894 H 381.874 1.36659 -0.453908 0
M  V30 3895 H 383.827 4.046 1.17799 0
M  V30 3896 H 382.551 2.86569 1.56671 0
M  V30 3897 H 381.21 3.64192 -0.419504 0
M  V30 3898 H 380.858 4.68721 1.8251 0
M  V30 3899 H 380.558 5.85361 0.512428 0
M  V30 3900 H 382.082 5.93342 1.44143 0
M  V30 3901 H 383.496 5.67474 -0.815224 0
M  V30 3902 H 381.893 5.7841 -1.59882 0
M  V30 3903 H 382.963 4.42424 -1.98468 0
M  V30 3904 N 384.306 0.507319 1.49211 0
M  V30 3905 C 385.253 -0.267728 2.29242 0
M  V30 3906 C 386.223 -0.954609 1.35928 0
M  V30 3907 O 387.408 -0.960046 1.64887 0
M  V30 3908 C 384.548 -1.32243 3.18756 0
M  V30 3909 C 383.661 -0.64669 4.27132 0
M  V30 3910 C 382.796 -1.68238 5.03855 0
M  V30 3911 C 381.835 -0.98885 6.0406 0
M  V30 3912 N 380.972 -1.96903 6.73924 0
M  V30 3913 H 385.812 0.420968 2.95012 0
M  V30 3914 H 383.349 0.219443 1.45454 0
M  V30 3915 H 385.307 -1.94599 3.69036 0
M  V30 3916 H 383.937 -1.97981 2.54958 0
M  V30 3917 H 382.989 0.0902926 3.80293 0
M  V30 3918 H 384.301 -0.101058 4.98698 0
M  V30 3919 H 383.455 -2.38081 5.58034 0
M  V30 3920 H 382.194 -2.26187 4.32077 0
M  V30 3921 H 381.199 -0.276222 5.49106 0
M  V30 3922 H 382.424 -0.415767 6.77826 0
M  V30 3923 H 380.37 -2.53803 6.04913 0
M  V30 3924 H 380.287 -1.47423 7.41487 0
M  V30 3925 H 381.555 -2.66015 7.32705 0
M  V30 3926 N 385.784 -1.5574 0.241426 0
M  V30 3927 C 387.2 -1.59196 -0.113548 0
M  V30 3928 C 387.4 -1.25852 -1.57364 0
M  V30 3929 O 386.456 -1.00322 -2.31715 0
M  V30 3930 C 387.769 -2.99814 0.230695 0
M  V30 3931 C 389.317 -3.12513 0.174547 0
M  V30 3932 C 389.792 -4.55342 0.492744 0
M  V30 3933 N 391.283 -4.61076 0.443043 0
M  V30 3934 C 392.018 -5.6956 0.662484 0
M  V30 3935 N 391.514 -6.86328 0.944761 0
M  V30 3936 N 393.307 -5.58957 0.593564 0
M  V30 3937 H 385.458 -1.75685 1.19368 0
M  V30 3938 H 387.721 -0.81756 0.479896 0
M  V30 3939 H 387.427 -3.28932 1.24485 0
M  V30 3940 H 387.301 -3.74568 -0.444833 0
M  V30 3941 H 389.688 -2.83179 -0.830277 0
M  V30 3942 H 389.769 -2.40045 0.883845 0
M  V30 3943 H 389.413 -4.85396 1.4951 0
M  V30 3944 H 389.343 -5.26062 -0.23797 0
M  V30 3945 H 391.834 -3.77179 0.233374 0
M  V30 3946 H 392.147 -7.64935 1.09977 0
M  V30 3947 H 390.492 -6.88025 0.982175 0
M  V30 3948 H 393.683 -4.66611 0.373123 0
M  V30 3949 H 393.856 -6.43433 0.767981 0
M  V30 3950 N 387.262 0.0317525 -1.57568 0
M  V30 3951 C 388.49 0.734949 -1.93407 0
M  V30 3952 C 388.905 1.69036 -0.84096 0
M  V30 3953 O 388.262 1.81582 0.182836 0
M  V30 3954 C 388.313 1.49432 -3.29169 0
M  V30 3955 O 388.034 0.577261 -4.3428 0
M  V30 3956 C 389.535 2.29492 -3.79273 0
M  V30 3957 H 386.755 0.206706 -0.638368 0
M  V30 3958 H 389.299 -0.00992046 -2.04498 0
M  V30 3959 H 387.454 2.1911 -3.19483 0
M  V30 3960 H 387.868 1.10952 -5.1263 0
M  V30 3961 H 389.342 2.78172 -4.76785 0
M  V30 3962 H 389.819 3.10794 -3.10328 0
M  V30 3963 H 390.425 1.64894 -3.92033 0
M  V30 3964 N 388.74 1.54641 0.303973 0
M  V30 3965 C 389.988 1.73437 1.0375 0
M  V30 3966 C 390.309 0.521449 1.87899 0
M  V30 3967 O 389.579 -0.46432 1.90318 0
M  V30 3968 H 388.159 0.639518 0.386039 0
M  V30 3969 H 390.821 1.91988 0.335675 0
M  V30 3970 H 389.917 2.62235 1.69231 0
M  V30 3971 N 390.218 -0.567019 1.47046 0
M  V30 3972 C 391.15 -1.68985 1.54844 0
M  V30 3973 C 392.163 -1.56869 0.435431 0
M  V30 3974 O 393.352 -1.64006 0.70457 0
M  V30 3975 C 390.452 -3.07373 1.42742 0
M  V30 3976 C 389.625 -3.45339 2.6844 0
M  V30 3977 C 388.684 -4.62849 2.50314 0
M  V30 3978 O 387.71 -4.67922 3.24095 0
M  V30 3979 N 388.912 -5.58726 1.57499 0
M  V30 3980 H 391.677 -1.62745 2.51663 0
M  V30 3981 H 389.238 -0.753411 1.43302 0
M  V30 3982 H 391.23 -3.83803 1.28365 0
M  V30 3983 H 389.8 -3.07893 0.540445 0
M  V30 3984 H 389.02 -2.58455 2.97648 0
M  V30 3985 H 390.308 -3.67476 3.51907 0
M  V30 3986 H 389.706 -5.57376 0.966876 0
M  V30 3987 H 388.263 -6.34523 1.49078 0
M  V30 3988 N 391.696 -1.35014 -0.812953 0
M  V30 3989 C 392.926 -1.30841 -1.59888 0
M  V30 3990 C 393.334 0.117576 -1.88834 0
M  V30 3991 O 392.677 1.07807 -1.48739 0
M  V30 3992 C 392.739 -2.0412 -2.95931 0
M  V30 3993 C 392.403 -3.53336 -2.89832 0
M  V30 3994 C 393.4 -4.48052 -2.63714 0
M  V30 3995 C 391.085 -3.95894 -3.0915 0
M  V30 3996 C 393.079 -5.833 -2.56982 0
M  V30 3997 C 390.766 -5.31239 -3.0204 0
M  V30 3998 C 391.764 -6.24754 -2.75991 0
M  V30 3999 O 391.452 -7.57617 -2.68833 0
M  V30 4000 H 391.184 -0.451215 -0.50337 0
M  V30 4001 H 393.738 -1.78354 -1.01877 0
M  V30 4002 H 391.968 -1.51235 -3.559 0
M  V30 4003 H 393.657 -1.93107 -3.57022 0
M  V30 4004 H 394.423 -4.16492 -2.48515 0
M  V30 4005 H 390.302 -3.23495 -3.28438 0
M  V30 4006 H 393.846 -6.56263 -2.36569 0
M  V30 4007 H 389.743 -5.62415 -3.16796 0
M  V30 4008 H 390.511 -7.67469 -2.84487 0
M  V30 4009 N 393.175 1.03435 -1.18907 0
M  V30 4010 C 394.122 2.11591 -0.921837 0
M  V30 4011 C 395.092 1.65499 0.141226 0
M  V30 4012 O 396.277 1.908 0.000242829 0
M  V30 4013 C 393.417 3.42012 -0.460616 0
M  V30 4014 C 392.53 4.01682 -1.58982 0
M  V30 4015 C 391.665 5.20091 -1.08069 0
M  V30 4016 C 390.704 5.71805 -2.18416 0
M  V30 4017 N 389.841 6.81494 -1.68849 0
M  V30 4018 H 394.681 2.33787 -1.8479 0
M  V30 4019 H 392.218 1.1467 -0.921373 0
M  V30 4020 H 394.176 4.16834 -0.174642 0
M  V30 4021 H 392.806 3.19944 0.428467 0
M  V30 4022 H 391.858 3.24127 -1.99113 0
M  V30 4023 H 393.17 4.36084 -2.4214 0
M  V30 4024 H 392.324 6.02051 -0.749615 0
M  V30 4025 H 391.063 4.87209 -0.218771 0
M  V30 4026 H 390.068 4.88461 -2.5236 0
M  V30 4027 H 391.293 6.06728 -3.05054 0
M  V30 4028 H 389.239 6.50475 -0.849572 0
M  V30 4029 H 389.156 7.14994 -2.45601 0
M  V30 4030 H 390.424 7.67063 -1.38689 0
M  V30 4031 N 394.653 0.992116 1.22453 0
M  V30 4032 C 395.583 0.561677 2.26644 0
M  V30 4033 C 396.564 -0.411055 1.65059 0
M  V30 4034 O 397.749 -0.301861 1.9184 0
M  V30 4035 C 394.879 -0.125247 3.47074 0
M  V30 4036 C 393.833 0.765948 4.21091 0
M  V30 4037 C 393.159 -0.0538484 5.34673 0
M  V30 4038 C 394.459 2.06242 4.79856 0
M  V30 4039 H 396.153 1.43259 2.62902 0
M  V30 4040 H 393.699 0.690283 1.26377 0
M  V30 4041 H 395.652 -0.437764 4.1912 0
M  V30 4042 H 394.376 -1.03069 3.0991 0
M  V30 4043 H 393.035 1.0621 3.50878 0
M  V30 4044 H 392.683 -0.960188 4.9375 0
M  V30 4045 H 392.383 0.539415 5.85119 0
M  V30 4046 H 393.907 -0.360477 6.09535 0
M  V30 4047 H 395.321 1.8139 5.43848 0
M  V30 4048 H 393.718 2.60444 5.40638 0
M  V30 4049 H 394.788 2.74167 3.99951 0
M  V30 4050 N 396.131 -1.37776 0.765217 0
M  V30 4051 C 397.379 -1.99454 0.325943 0
M  V30 4052 C 397.7 -1.61049 -1.09947 0
M  V30 4053 O 396.97 -0.872821 -1.75381 0
M  V30 4054 H 395.55 -0.737697 0.117525 0
M  V30 4055 H 398.212 -1.68359 0.981895 0
M  V30 4056 H 397.308 -3.09547 0.398353 0
M  V30 4057 N 397.609 -0.515225 -1.4894 0
M  V30 4058 C 398.834 0.022727 -2.07388 0
M  V30 4059 C 399.259 1.2876 -1.37122 0
M  V30 4060 O 398.617 1.76067 -0.432431 0
M  V30 4061 C 398.665 0.244869 -3.59768 0
M  V30 4062 O 397.769 1.31667 -3.90817 0
M  V30 4063 H 397.11 -0.0325506 -0.663202 0
M  V30 4064 H 399.64 -0.718918 -1.91553 0
M  V30 4065 H 399.65 0.47205 -4.0526 0
M  V30 4066 H 398.325 -0.679194 -4.10317 0
M  V30 4067 H 396.902 1.07331 -3.5712 0
M  V30 4068 N 399.087 1.5561 -0.249682 0
M  V30 4069 C 400.034 2.21496 0.648694 0
M  V30 4070 C 401.004 1.17977 1.16921 0
M  V30 4071 O 402.189 1.46434 1.22318 0
M  V30 4072 C 399.329 2.92039 1.83868 0
M  V30 4073 C 398.442 4.10219 1.35442 0
M  V30 4074 C 397.577 4.6847 2.50419 0
M  V30 4075 C 396.616 5.78893 1.98869 0
M  V30 4076 N 395.753 6.31315 3.07223 0
M  V30 4077 H 400.593 2.97892 0.0801582 0
M  V30 4078 H 398.13 1.47074 0.0278031 0
M  V30 4079 H 400.088 3.31138 2.53778 0
M  V30 4080 H 398.718 2.18111 2.37965 0
M  V30 4081 H 397.77 3.76413 0.54928 0
M  V30 4082 H 399.082 4.89927 0.936649 0
M  V30 4083 H 398.236 5.10158 3.28366 0
M  V30 4084 H 396.975 3.87984 2.95499 0
M  V30 4085 H 395.98 5.3668 1.19393 0
M  V30 4086 H 397.205 6.61232 1.54755 0
M  V30 4087 H 395.151 5.53733 3.51732 0
M  V30 4088 H 395.068 7.06224 2.69784 0
M  V30 4089 H 396.336 6.77662 3.8522 0
M  V30 4090 N 400.565 -0.0233959 1.57583 0
M  V30 4091 C 401.793 -0.724682 1.93794 0
M  V30 4092 C 402.208 -1.68588 0.849912 0
M  V30 4093 O 401.565 -1.81676 -0.173204 0
M  V30 4094 C 401.616 -1.47684 3.29957 0
M  V30 4095 O 401.337 -0.554222 4.3458 0
M  V30 4096 C 402.838 -2.27477 3.80485 0
M  V30 4097 H 400.058 -0.203317 0.639455 0
M  V30 4098 H 402.602 0.0207653 2.04489 0
M  V30 4099 H 400.757 -2.17412 3.20641 0
M  V30 4100 H 401.171 -1.08232 5.13212 0
M  V30 4101 H 402.645 -2.7564 4.78254 0
M  V30 4102 H 403.122 -3.09144 3.11972 0
M  V30 4103 H 403.728 -1.62813 3.92902 0
M  V30 4104 N 402.043 -1.548 -0.295768 0
M  V30 4105 C 403.291 -1.73985 -1.02828 0
M  V30 4106 C 403.612 -0.531406 -1.87619 0
M  V30 4107 O 402.882 0.454221 -1.90561 0
M  V30 4108 H 401.462 -0.641556 -0.382642 0
M  V30 4109 H 404.124 -1.92163 -0.325489 0
M  V30 4110 H 403.22 -2.63129 -1.67838 0
M  V30 4111 N 403.521 0.559213 -1.47345 0
M  V30 4112 C 404.932 1.14134 -1.47751 0
M  V30 4113 C 405.283 1.94834 -0.231103 0
M  V30 4114 O 404.408 2.05957 0.664137 0
M  V30 4115 C 405.003 2.07653 -2.67705 0
M  V30 4116 C 403.562 2.61141 -2.71076 0
M  V30 4117 C 402.709 1.3748 -2.40821 0
M  V30 4118 H 405.66 0.345917 -1.54884 0
M  V30 4119 H 405.681 2.91497 -2.44561 0
M  V30 4120 H 405.193 1.4889 -3.58404 0
M  V30 4121 H 403.294 3.23707 -1.84511 0
M  V30 4122 H 403.407 3.02272 -3.7171 0
M  V30 4123 H 401.771 1.68086 -1.91362 0
M  V30 4124 H 402.554 0.805135 -3.33725 0
M  V30 4125 N 404.999 1.35443 0.805782 0
M  V30 4126 C 406.247 1.28507 1.55982 0
M  V30 4127 C 406.568 -0.140046 1.94496 0
M  V30 4128 O 405.838 -1.07666 1.63661 0
M  V30 4129 H 404.418 0.472676 0.578434 0
M  V30 4130 H 407.08 1.69555 0.961098 0
M  V30 4131 H 406.176 1.90148 2.47488 0
M  V30 4132 N 406.477 -1.02803 1.19454 0
M  V30 4133 C 407.409 -2.11181 0.890807 0
M  V30 4134 C 408.422 -1.6238 -0.116829 0
M  V30 4135 O 409.611 -1.78144 0.112694 0
M  V30 4136 C 406.711 -3.37461 0.311942 0
M  V30 4137 C 405.884 -4.15446 1.36834 0
M  V30 4138 C 404.943 -5.20039 0.802864 0
M  V30 4139 O 403.969 -5.49602 1.48077 0
M  V30 4140 N 405.171 -5.79165 -0.393417 0
M  V30 4141 H 407.936 -2.37827 1.82369 0
M  V30 4142 H 405.497 -1.19101 1.09666 0
M  V30 4143 H 407.489 -4.0462 -0.0802225 0
M  V30 4144 H 406.059 -3.08156 -0.52524 0
M  V30 4145 H 405.279 -3.43423 1.93531 0
M  V30 4146 H 406.567 -4.64335 2.08015 0
M  V30 4147 H 405.965 -5.57466 -0.961658 0
M  V30 4148 H 404.522 -6.47729 -0.727351 0
M  V30 4149 N 407.956 -0.998596 -1.21925 0
M  V30 4150 C 408.903 -0.553621 -2.24062 0
M  V30 4151 C 409.873 0.416999 -1.6078 0
M  V30 4152 O 411.058 0.320482 -1.88089 0
M  V30 4153 C 408.198 0.119959 -3.44891 0
M  V30 4154 C 407.311 -0.893077 -4.22668 0
M  V30 4155 C 406.446 -0.192424 -5.30851 0
M  V30 4156 C 405.485 -1.19344 -6.00353 0
M  V30 4157 N 404.622 -0.520707 -7.00166 0
M  V30 4158 H 409.462 -1.4293 -2.61486 0
M  V30 4159 H 406.999 -0.715838 -1.28507 0
M  V30 4160 H 408.957 0.527459 -4.13852 0
M  V30 4161 H 407.587 0.959389 -3.08214 0
M  V30 4162 H 406.639 -1.41886 -3.52948 0
M  V30 4163 H 407.951 -1.65512 -4.70539 0
M  V30 4164 H 407.105 0.271515 -6.06092 0
M  V30 4165 H 405.844 0.602075 -4.83969 0
M  V30 4166 H 404.849 -1.66795 -5.23889 0
M  V30 4167 H 406.074 -1.98891 -6.49322 0
M  V30 4168 H 404.02 0.254252 -6.55507 0
M  V30 4169 H 403.937 -1.2211 -7.46073 0
M  V30 4170 H 405.205 -0.0797596 -7.79459 0
M  V30 4171 N 409.434 1.37368 -0.772513 0
M  V30 4172 C 410.397 2.28601 -0.165541 0
M  V30 4173 C 411.397 1.48062 0.627238 0
M  V30 4174 O 412.587 1.68268 0.450715 0
M  V30 4175 C 409.719 3.32023 0.772897 0
M  V30 4176 H 410.912 2.83787 -0.969787 0
M  V30 4177 H 408.465 1.46647 -0.540775 0
M  V30 4178 H 409.2 2.81962 1.60212 0
M  V30 4179 H 408.985 3.91555 0.206585 0
M  V30 4180 H 410.475 4.00197 1.19298 0
M  V30 4181 N 410.912 0.523116 1.48665 0
M  V30 4182 C 412.161 -0.01544 2.01694 0
M  V30 4183 C 412.474 -1.35975 1.40606 0
M  V30 4184 O 413.68 -1.98627 1.85093 0
M  V30 4185 C 412.136 -0.0779303 3.59816 0
M  V30 4186 C 411.744 1.26107 4.29885 0
M  V30 4187 C 413.488 -0.565678 4.20714 0
M  V30 4188 C 411.395 1.15954 5.79921 0
M  V30 4189 H 410.325 -0.00954163 0.75394 0
M  V30 4190 H 412.976 0.665865 1.70993 0
M  V30 4191 H 411.358 -0.824165 3.87329 0
M  V30 4192 H 412.532 2.02233 4.14051 0
M  V30 4193 H 410.847 1.68401 3.80828 0
M  V30 4194 H 413.444 -0.6595 5.30617 0
M  V30 4195 H 413.787 -1.56984 3.85567 0
M  V30 4196 H 414.32 0.12467 3.97605 0
M  V30 4197 H 411.059 2.13864 6.19631 0
M  V30 4198 H 410.579 0.439529 5.98187 0
M  V30 4199 H 412.258 0.847361 6.41427 0
M  V30 4200 N 412.39 -1.55475 0.257931 0
M  V30 4201 C 413.32 -2.24815 -0.630912 0
M  V30 4202 C 414.301 -1.23224 -1.17259 0
M  V30 4203 O 415.486 -1.51904 -1.20991 0
M  V30 4204 C 412.616 -2.95609 -1.82298 0
M  V30 4205 C 411.57 -4.03982 -1.41359 0
M  V30 4206 C 410.896 -4.6226 -2.68738 0
M  V30 4207 C 412.196 -5.19109 -0.57648 0
M  V30 4208 H 413.89 -2.99354 -0.0526878 0
M  V30 4209 H 411.436 -1.4398 -0.023901 0
M  V30 4210 H 413.389 -3.42822 -2.45054 0
M  V30 4211 H 412.113 -2.18577 -2.42676 0
M  V30 4212 H 410.772 -3.57555 -0.809324 0
M  V30 4213 H 410.42 -3.81915 -3.27338 0
M  V30 4214 H 410.12 -5.35424 -2.42065 0
M  V30 4215 H 411.644 -5.12212 -3.32372 0
M  V30 4216 H 413.058 -5.62479 -1.10861 0
M  V30 4217 H 411.455 -5.98729 -0.405351 0
M  V30 4218 H 412.525 -4.83174 0.408776 0
M  V30 4219 N 413.868 0.0150385 -1.57593 0
M  V30 4220 C 415.115 0.703001 -1.89906 0
M  V30 4221 C 415.443 1.74604 -0.856944 0
M  V30 4222 O 414.698 1.95197 0.140287 0
M  V30 4223 C 414.997 1.39686 -3.28972 0
M  V30 4224 C 414.663 0.488457 -4.48246 0
M  V30 4225 C 413.325 0.2383 -4.8061 0
M  V30 4226 C 415.677 -0.137881 -5.21018 0
M  V30 4227 C 413.005 -0.646738 -5.83125 0
M  V30 4228 C 415.357 -1.0107 -6.24474 0
M  V30 4229 C 414.021 -1.27019 -6.55303 0
M  V30 4230 H 413.291 0.257246 -0.694914 0
M  V30 4231 H 415.938 -0.037259 -1.91464 0
M  V30 4232 H 414.243 2.21079 -3.23468 0
M  V30 4233 H 415.94 1.93495 -3.51227 0
M  V30 4234 H 412.53 0.693593 -4.22951 0
M  V30 4235 H 416.714 0.0423953 -4.96282 0
M  V30 4236 H 411.97 -0.855937 -6.05379 0
M  V30 4237 H 416.144 -1.50247 -6.79999 0
M  V30 4238 H 413.771 -1.95769 -7.3456 0
M  V30 4239 N 415.346 1.54954 0.287554 0
M  V30 4240 C 416.276 1.89839 1.35954 0
M  V30 4241 C 417.257 0.758675 1.52244 0
M  V30 4242 O 418.442 1.01557 1.65529 0
M  V30 4243 C 415.572 2.15753 2.72154 0
M  V30 4244 C 414.526 3.3159 2.70614 0
M  V30 4245 C 413.852 3.42952 4.10229 0
M  V30 4246 C 415.152 4.68359 2.31165 0
M  V30 4247 H 416.846 2.79625 1.07007 0
M  V30 4248 H 414.392 1.3454 0.513316 0
M  V30 4249 H 416.345 2.38743 3.47246 0
M  V30 4250 H 415.069 1.22752 3.02654 0
M  V30 4251 H 413.728 3.08545 1.97979 0
M  V30 4252 H 413.376 2.47443 4.37928 0
M  V30 4253 H 413.076 4.20826 4.10097 0
M  V30 4254 H 414.6 3.68218 4.87081 0
M  V30 4255 H 416.014 4.9099 2.95976 0
M  V30 4256 H 414.411 5.49044 2.42221 0
M  V30 4257 H 415.481 4.68165 1.26291 0
M  V30 4258 N 416.824 -0.551391 1.4764 0
M  V30 4259 C 418.235 -1.13349 1.48354 0
M  V30 4260 C 418.586 -1.94709 0.241432 0
M  V30 4261 O 417.711 -2.06306 -0.653205 0
M  V30 4262 C 418.306 -2.0623 2.68802 0
M  V30 4263 C 416.865 -2.597 2.72457 0
M  V30 4264 C 416.012 -1.36201 2.41546 0
M  V30 4265 H 418.963 -0.337698 1.55065 0
M  V30 4266 H 418.984 -2.90196 2.46103 0
M  V30 4267 H 418.496 -1.46987 3.59188 0
M  V30 4268 H 416.597 -3.22724 1.86225 0
M  V30 4269 H 416.71 -3.00296 3.73308 0
M  V30 4270 H 415.074 -1.67068 1.9225 0
M  V30 4271 H 415.857 -0.787425 3.34147 0
M  V30 4272 N 418.302 -1.35869 -0.798587 0
M  V30 4273 C 419.235 -1.23801 -1.91699 0
M  V30 4274 C 420.213 -0.124143 -1.62125 0
M  V30 4275 O 421.397 -0.293656 -1.86199 0
M  V30 4276 C 418.524 -0.908063 -3.263 0
M  V30 4277 C 417.57 -2.0351 -3.74815 0
M  V30 4278 S 418.403 -3.65183 -3.91665 0
M  V30 4279 C 419.559 -3.34283 -5.29156 0
M  V30 4280 H 419.792 -2.18466 -2.01643 0
M  V30 4281 H 417.325 -1.21178 -0.956833 0
M  V30 4282 H 419.283 -0.724506 -4.04056 0
M  V30 4283 H 417.944 0.0206584 -3.14093 0
M  V30 4284 H 417.137 -1.75858 -4.72324 0
M  V30 4285 H 416.739 -2.1774 -3.04081 0
M  V30 4286 H 419.031 -2.87607 -6.13424 0
M  V30 4287 H 419.974 -4.31022 -5.61806 0
M  V30 4288 H 420.382 -2.69854 -4.95822 0
M  V30 4289 N 419.78 1.02168 -1.19998 0
M  V30 4290 C 421.005 1.79833 -1.03319 0
M  V30 4291 C 421.43 1.83504 0.413281 0
M  V30 4292 O 420.788 1.26635 1.29743 0
M  V30 4293 C 420.836 3.22396 -1.61533 0
M  V30 4294 O 419.94 4.03555 -0.849519 0
M  V30 4295 H 419.281 0.554872 -0.364709 0
M  V30 4296 H 421.811 1.28542 -1.59179 0
M  V30 4297 H 421.821 3.73124 -1.65054 0
M  V30 4298 H 420.496 3.19039 -2.66809 0
M  V30 4299 H 419.073 3.62169 -0.888129 0
M  V30 4300 N 421.258 1.00505 1.21394 0
M  V30 4301 C 422.221 0.570459 2.21987 0
M  V30 4302 C 423.221 -0.353211 1.56873 0
M  V30 4303 O 424.411 -0.14349 1.73608 0
M  V30 4304 C 421.543 -0.168555 3.40483 0
M  V30 4305 H 422.736 1.46021 2.6195 0
M  V30 4306 H 420.289 0.793565 1.34656 0
M  V30 4307 H 421.024 -1.07374 3.06009 0
M  V30 4308 H 420.809 0.494823 3.88965 0
M  V30 4309 H 422.299 -0.460362 4.15055 0
M  V30 4310 N 422.737 -1.36956 0.779787 0
M  V30 4311 C 423.684 -2.30175 0.169697 0
M  V30 4312 C 424.654 -1.51501 -0.68094 0
M  V30 4313 O 425.839 -1.80042 -0.631629 0
M  V30 4314 C 422.979 -3.37985 -0.697131 0
M  V30 4315 C 422.092 -4.31661 0.170992 0
M  V30 4316 C 421.227 -5.2655 -0.701298 0
M  V30 4317 C 420.266 -6.11867 0.168869 0
M  V30 4318 N 419.403 -6.98973 -0.661855 0
M  V30 4319 H 424.243 -2.81767 0.970135 0
M  V30 4320 H 421.78 -1.38699 0.489994 0
M  V30 4321 H 423.738 -3.99128 -1.2146 0
M  V30 4322 H 422.368 -2.87739 -1.46309 0
M  V30 4323 H 421.42 -3.71756 0.80634 0
M  V30 4324 H 422.732 -4.91644 0.841875 0
M  V30 4325 H 421.886 -5.92937 -1.28494 0
M  V30 4326 H 420.625 -4.66998 -1.40584 0
M  V30 4327 H 419.63 -5.44452 0.764986 0
M  V30 4328 H 420.855 -6.73493 0.870863 0
M  V30 4329 H 418.801 -6.41941 -1.35086 0
M  V30 4330 H 418.718 -7.55984 -0.0484447 0
M  V30 4331 H 419.986 -7.6974 -1.22963 0
M  V30 4332 N 424.215 -0.530993 -1.48385 0
M  V30 4333 C 425.44 0.000729535 -2.074 0
M  V30 4334 C 425.865 1.27298 -1.3848 0
M  V30 4335 O 425.223 1.75599 -0.451081 0
M  V30 4336 C 425.271 0.206697 -3.60007 0
M  V30 4337 O 424.375 1.27514 -3.92191 0
M  V30 4338 H 423.716 -0.039583 -0.662819 0
M  V30 4339 H 426.246 -0.739194 -1.9078 0
M  V30 4340 H 426.256 0.42904 -4.05738 0
M  V30 4341 H 424.931 -0.722675 -4.09573 0
M  V30 4342 H 423.508 1.03537 -3.58238 0
M  V30 4343 O 425.732 1.56259 -0.408071 0
M  V30 4344 H 426.423 1.93245 0.132688 0
M  V30 END ATOM
M  V30 BEGIN BOND
M  V30 END BOND
M  V30 END CTAB
M  END
$$$$
