drugbank_target|P09110 3-ketoacyl-CoA thiolase, peroxisomal (DB09069)
 OpenBabel12092120543D

  0  0  0     0  0            999 V3000
M  V30 BEGIN CTAB
M  V30 COUNTS 6265 6309 0 0 0
M  V30 BEGIN ATOM
M  V30 1 H -0.908 1.98254 -0.117106 0
M  V30 2 N 0 1.576 0 0
M  V30 3 C 0.933 2.03868 1.02534 0
M  V30 4 C 1.911 0.928543 1.3348 0
M  V30 5 O 3.095 1.19667 1.45644 0
M  V30 6 C 0.222 2.43627 2.35294 0
M  V30 7 C -0.732 3.65373 2.2001 0
M  V30 8 S 0.101 5.13292 1.52614 0
M  V30 9 C 1.257 5.56322 2.86805 0
M  V30 10 H 1.49 2.90518 0.631377 0
M  V30 11 H -0.977 1.52953 0.210867 0
M  V30 12 H 0.981 2.67203 3.11629 0
M  V30 13 H -0.358 1.57376 2.7183 0
M  V30 14 H -1.165 3.90944 3.18086 0
M  V30 15 H -1.563 3.418 1.51819 0
M  V30 16 H 0.729 5.58782 3.83104 0
M  V30 17 H 1.672 6.56266 2.65933 0
M  V30 18 H 2.08 4.83886 2.90714 0
M  V30 19 N 1.4781 -0.272755 1.55222 0
M  V30 20 C 2.4101 -1.35946 1.8453 0
M  V30 21 C 3.4231 -1.45525 0.729818 0
M  V30 22 O 4.6121 -1.47337 1.00767 0
M  V30 23 C 1.7121 -2.74069 1.99347 0
M  V30 24 C 0.8851 -2.87079 3.30007 0
M  V30 25 C -0.0559 -4.05879 3.34886 0
M  V30 26 O -1.0299 -3.96626 4.08261 0
M  V30 27 N 0.1721 -5.17857 2.62307 0
M  V30 28 H 2.9371 -1.11149 2.78327 0
M  V30 29 H 0.4981 -0.462869 1.55142 0
M  V30 30 H 2.4901 -3.51838 1.99981 0
M  V30 31 H 1.0601 -2.91688 1.12415 0
M  V30 32 H 0.2801 -1.96193 3.41909 0
M  V30 33 H 1.5681 -2.92701 4.16177 0
M  V30 34 H 0.9661 -5.28261 2.02377 0
M  V30 35 H -0.4769 -5.93855 2.68663 0
M  V30 36 N 2.9562 -1.48159 -0.537278 0
M  V30 37 C 4.3722 -1.34118 -0.865129 0
M  V30 38 C 4.5722 -0.346678 -1.98495 0
M  V30 39 O 3.6282 0.234715 -2.51407 0
M  V30 40 C 4.9412 -2.73963 -1.23954 0
M  V30 41 C 6.4892 -2.82397 -1.34984 0
M  V30 42 C 6.9642 -4.22928 -1.75772 0
M  V30 43 N 8.4552 -4.25566 -1.82887 0
M  V30 44 C 9.1902 -5.31235 -2.15817 0
M  V30 45 N 8.6862 -6.47189 -2.47222 0
M  V30 46 N 10.4792 -5.18624 -2.16761 0
M  V30 47 H 2.6302 -2.1144 0.201715 0
M  V30 48 H 4.8932 -0.947598 0.0275949 0
M  V30 49 H 4.5992 -3.48264 -0.490381 0
M  V30 50 H 4.4732 -3.0702 -2.19132 0
M  V30 51 H 6.8602 -2.08356 -2.08978 0
M  V30 52 H 6.9412 -2.5297 -0.379448 0
M  V30 53 H 6.5852 -4.97482 -1.02341 0
M  V30 54 H 6.5152 -4.49794 -2.73848 0
M  V30 55 H 9.0062 -3.41924 -1.60924 0
M  V30 56 H 9.3192 -7.23564 -2.71433 0
M  V30 57 H 7.6642 -6.50476 -2.44757 0
M  V30 58 H 10.8552 -4.27056 -1.91679 0
M  V30 59 H 11.0282 -6.01078 -2.42093 0
M  V30 60 N 4.4343 0.785586 -1.36625 0
M  V30 61 C 5.3643 1.91259 -1.33949 0
M  V30 62 C 6.3453 1.68795 -0.210325 0
M  V30 63 O 7.5303 1.89854 -0.408561 0
M  V30 64 C 4.6603 3.28339 -1.13186 0
M  V30 65 C 3.6143 3.65335 -2.22967 0
M  V30 66 C 2.9403 5.00806 -1.87342 0
M  V30 67 C 4.2403 3.7352 -3.65075 0
M  V30 68 H 5.9343 1.93755 -2.28253 0
M  V30 69 H 3.4803 0.930788 -1.09874 0
M  V30 70 H 5.4333 4.06804 -1.09948 0
M  V30 71 H 4.1573 3.2624 -0.153332 0
M  V30 72 H 2.8163 2.89169 -2.25337 0
M  V30 73 H 2.4643 4.95233 -0.880545 0
M  V30 74 H 2.1643 5.26529 -2.60846 0
M  V30 75 H 3.6883 5.81687 -1.85667 0
M  V30 76 H 5.1023 4.42168 -3.64911 0
M  V30 77 H 3.4993 4.10731 -4.37516 0
M  V30 78 H 4.5693 2.74527 -3.99703 0
M  V30 79 N 5.9124 1.20967 1.01018 0
M  V30 80 C 6.8444 0.922059 2.09835 0
M  V30 81 C 7.8574 -0.0927106 1.62536 0
M  V30 82 O 9.0464 0.139127 1.77957 0
M  V30 83 C 6.1464 0.362004 3.36961 0
M  V30 84 C 5.3194 1.42986 4.13369 0
M  V30 85 C 4.3784 0.879976 5.1879 0
M  V30 86 O 3.4044 1.56219 5.47343 0
M  V30 87 N 4.6064 -0.307396 5.79686 0
M  V30 88 H 7.3714 1.8588 2.35093 0
M  V30 89 H 4.9324 1.11422 1.1746 0
M  V30 90 H 6.9244 -0.0201474 4.04695 0
M  V30 91 H 5.4944 -0.479437 3.08902 0
M  V30 92 H 4.7144 1.98608 3.40512 0
M  V30 93 H 6.0024 2.14885 4.61196 0
M  V30 94 H 5.4004 -0.878796 5.58832 0
M  V30 95 H 3.9574 -0.631115 6.48737 0
M  V30 96 N 7.3905 -1.2043 1.01659 0
M  V30 97 C 8.6365 -1.90079 0.706963 0
M  V30 98 C 8.9695 -1.78648 -0.761474 0
M  V30 99 O 8.2445 -1.17069 -1.55323 0
M  V30 100 C 8.5275 -3.41469 1.14327 0
M  V30 101 C 8.3805 -3.61833 2.67201 0
M  V30 102 C 9.6995 -4.34261 0.714529 0
M  V30 103 H 6.8185 -0.690254 0.2583 0
M  V30 104 H 9.4605 -1.41826 1.26433 0
M  V30 105 H 7.6105 -3.82696 0.669056 0
M  V30 106 H 9.2825 -3.2986 3.22475 0
M  V30 107 H 7.5255 -3.05304 3.08175 0
M  V30 108 H 8.1965 -4.67955 2.92783 0
M  V30 109 H 10.6725 -4.00682 1.12221 0
M  V30 110 H 9.5485 -5.38806 1.04784 0
M  V30 111 H 9.8095 -4.40431 -0.383799 0
M  V30 112 N 8.8686 -0.792821 -1.36206 0
M  V30 113 C 10.1146 -0.36733 -1.99446 0
M  V30 114 C 10.4476 1.05917 -1.62774 0
M  V30 115 O 9.7226 1.7324 -0.88421 0
M  V30 116 C 10.0056 -0.535044 -3.56103 0
M  V30 117 C 9.8586 -2.00548 -4.02617 0
M  V30 118 C 11.1776 0.0478191 -4.40074 0
M  V30 119 H 8.2966 -0.134941 -0.724541 0
M  V30 120 H 10.9386 -0.999794 -1.61568 0
M  V30 121 H 9.0886 0.00336329 -3.885 0
M  V30 122 H 10.7606 -2.60521 -3.80692 0
M  V30 123 H 9.0036 -2.50686 -3.54032 0
M  V30 124 H 9.6746 -2.07377 -5.11565 0
M  V30 125 H 12.1506 -0.411822 -4.14057 0
M  V30 126 H 11.0266 -0.0995336 -5.4881 0
M  V30 127 H 11.2876 1.14025 -4.27142 0
M  V30 128 N 10.3467 1.47872 -0.545128 0
M  V30 129 C 11.2767 2.32661 0.197793 0
M  V30 130 C 12.2577 1.43041 0.920504 0
M  V30 131 O 13.4427 1.71912 0.90333 0
M  V30 132 C 10.5727 3.24569 1.23582 0
M  V30 133 C 9.5267 4.23333 0.630323 0
M  V30 134 C 8.8527 5.0448 1.77211 0
M  V30 135 C 10.1527 5.20704 -0.407974 0
M  V30 136 H 11.8467 2.95024 -0.510045 0
M  V30 137 H 9.3927 1.4187 -0.246731 0
M  V30 138 H 11.3457 3.8272 1.76362 0
M  V30 139 H 10.0697 2.60236 1.97344 0
M  V30 140 H 8.7287 3.6639 0.123922 0
M  V30 141 H 8.3767 4.36561 2.49847 0
M  V30 142 H 8.0767 5.71339 1.37281 0
M  V30 143 H 9.6007 5.65487 2.3034 0
M  V30 144 H 11.0147 5.7329 0.033305 0
M  V30 145 H 9.4117 5.95699 -0.725486 0
M  V30 146 H 10.4817 4.66917 -1.30828 0
M  V30 147 N 11.8248 0.280983 1.55075 0
M  V30 148 C 13.0728 -0.333455 1.9933 0
M  V30 149 C 13.3938 -1.55937 1.17085 0
M  V30 150 O 12.6638 -1.94143 0.261805 0
M  V30 151 H 11.2438 -0.126197 0.736263 0
M  V30 152 H 13.9058 0.387678 1.91005 0
M  V30 153 H 13.0018 -0.619292 3.05894 0
M  V30 154 N 13.3029 -1.57598 0.00835791 0
M  V30 155 C 14.2529 -2.05431 -0.989045 0
M  V30 156 C 15.2369 -0.950662 -1.29812 0
M  V30 157 O 16.4289 -1.21438 -1.28771 0
M  V30 158 C 13.5579 -2.56801 -2.27833 0
M  V30 159 C 12.6439 -3.74058 -1.99853 0
M  V30 160 N 13.0349 -4.8544 -1.42062 0
M  V30 161 C 11.3329 -3.82148 -2.29953 0
M  V30 162 C 12.0339 -5.66817 -1.30743 0
M  V30 163 N 11.0099 -5.13077 -1.7959 0
M  V30 164 H 14.8119 -2.88955 -0.536853 0
M  V30 165 H 12.3259 -1.61199 -0.197148 0
M  V30 166 H 14.3229 -2.89349 -3.00137 0
M  V30 167 H 12.9829 -1.74699 -2.73698 0
M  V30 168 H 13.9939 -5.0612 -1.09833 0
M  V30 169 H 10.6709 -3.10916 -2.78635 0
M  V30 170 H 12.0609 -6.66343 -0.862328 0
M  V30 171 N 14.781 0.264519 -1.55364 0
M  V30 172 C 15.711 1.33121 -1.91836 0
M  V30 173 C 16.692 1.51101 -0.781192 0
M  V30 174 O 17.877 1.64003 -1.04003 0
M  V30 175 C 15.007 2.68921 -2.19769 0
M  V30 176 C 13.961 2.65661 -3.35571 0
M  V30 177 C 13.287 4.05093 -3.49004 0
M  V30 178 C 14.587 2.24187 -4.71739 0
M  V30 179 H 16.281 1.02844 -2.81182 0
M  V30 180 H 13.827 0.493286 -1.35287 0
M  V30 181 H 15.78 3.43663 -2.43872 0
M  V30 182 H 14.504 3.00799 -1.27231 0
M  V30 183 H 13.163 1.93377 -3.1145 0
M  V30 184 H 12.811 4.34206 -2.53917 0
M  V30 185 H 12.511 4.03804 -4.26868 0
M  V30 186 H 14.035 4.81561 -3.75408 0
M  V30 187 H 15.449 2.88654 -4.9533 0
M  V30 188 H 13.846 2.34044 -5.52579 0
M  V30 189 H 14.916 1.19327 -4.69988 0
M  V30 190 N 16.2591 1.48442 0.529413 0
M  V30 191 C 17.6751 1.34575 0.858004 0
M  V30 192 C 17.8751 0.3572 1.98309 0
M  V30 193 O 16.9311 -0.221379 2.51528 0
M  V30 194 C 18.2441 2.74617 1.22499 0
M  V30 195 C 19.7921 2.83109 1.33484 0
M  V30 196 C 20.2671 4.23854 1.73526 0
M  V30 197 N 21.7581 4.2653 1.80628 0
M  V30 198 C 22.4931 5.32372 2.12997 0
M  V30 199 N 21.9891 6.48491 2.43786 0
M  V30 200 N 23.7821 5.19766 2.14008 0
M  V30 201 H 15.9331 2.1133 -0.212925 0
M  V30 202 H 18.1961 0.947439 -0.0326199 0
M  V30 203 H 17.9021 3.4852 0.471905 0
M  V30 204 H 17.7761 3.08177 2.17501 0
M  V30 205 H 20.1631 2.09462 2.0787 0
M  V30 206 H 20.2441 2.53168 0.366027 0
M  V30 207 H 19.8881 4.98018 0.997013 0
M  V30 208 H 19.8181 4.5124 2.71459 0
M  V30 209 H 22.3091 3.42772 1.59108 0
M  V30 210 H 22.6221 7.24993 2.67592 0
M  V30 211 H 20.9671 6.51765 2.41304 0
M  V30 212 H 24.1581 4.28066 1.89412 0
M  V30 213 H 24.3311 6.02354 2.38902 0
M  V30 214 N 17.7372 -0.778329 1.37039 0
M  V30 215 C 18.9852 -1.53361 1.31623 0
M  V30 216 C 19.3062 -1.94739 -0.100831 0
M  V30 217 O 18.5762 -1.65797 -1.04347 0
M  V30 218 H 17.1562 -0.568794 0.484234 0
M  V30 219 H 19.8182 -0.926742 1.71457 0
M  V30 220 H 18.9142 -2.43606 1.95096 0
M  V30 221 N 19.2153 -1.21501 -1.00376 0
M  V30 222 C 20.6263 -1.03146 -1.55621 0
M  V30 223 C 20.9773 0.408375 -1.91903 0
M  V30 224 O 20.1023 1.29177 -1.73616 0
M  V30 225 C 20.6973 -1.86612 -2.82775 0
M  V30 226 C 19.2563 -1.72586 -3.34501 0
M  V30 227 C 18.4033 -1.83747 -2.07683 0
M  V30 228 H 21.3543 -1.35505 -0.826081 0
M  V30 229 H 21.3753 -1.3771 -3.54706 0
M  V30 230 H 20.8873 -2.91399 -2.56336 0
M  V30 231 H 18.9883 -0.704877 -3.65872 0
M  V30 232 H 19.1013 -2.54623 -4.05837 0
M  V30 233 H 17.4653 -1.27069 -2.20739 0
M  V30 234 H 18.2483 -2.90044 -1.83655 0
M  V30 235 N 20.6934 1.19889 -1.02296 0
M  V30 236 C 21.6564 2.21116 -0.603351 0
M  V30 237 C 22.6564 1.5738 0.329884 0
M  V30 238 O 23.8464 1.73802 0.117702 0
M  V30 239 C 20.9784 3.40696 0.117992 0
M  V30 240 H 22.1714 2.59754 -1.49893 0
M  V30 241 H 19.7244 1.33463 -0.813468 0
M  V30 242 H 20.4594 3.07569 1.0282 0
M  V30 243 H 20.2444 3.88188 -0.552511 0
M  V30 244 H 21.7344 4.15692 0.398696 0
M  V30 245 N 22.1715 0.800033 1.35784 0
M  V30 246 C 23.4485 0.30088 1.93272 0
M  V30 247 C 23.8285 -1.20857 1.73081 0
M  V30 248 O 23.1765 -2.00502 1.09596 0
M  V30 249 C 23.3865 0.70511 3.41803 0
M  V30 250 C 24.7345 0.690871 4.18942 0
M  V30 251 O 25.7585 0.646244 3.50289 0
M  V30 252 O 24.6175 0.74332 5.41421 0
M  V30 253 H 21.7115 0.0771605 0.823393 0
M  V30 254 H 24.2575 0.88329 1.449 0
M  V30 255 H 23.0295 1.74571 3.50201 0
M  V30 256 H 22.6525 0.0971541 3.97481 0
M  V30 257 N 23.6496 -1.47581 0.552962 0
M  V30 258 C 24.8746 -2.07378 0.0300593 0
M  V30 259 C 25.2996 -1.40355 -1.25229 0
M  V30 260 O 24.6576 -0.477099 -1.7491 0
M  V30 261 C 24.7056 -3.60274 -0.153231 0
M  V30 262 O 23.8096 -3.94041 -1.21678 0
M  V30 263 H 23.1506 -0.662158 0.0494182 0
M  V30 264 H 25.6806 -1.89662 0.767434 0
M  V30 265 H 25.6906 -4.0633 -0.368761 0
M  V30 266 H 24.3656 -4.08455 0.783397 0
M  V30 267 H 22.9426 -3.59735 -0.982079 0
M  V30 268 N 25.1277 -0.289203 -1.54924 0
M  V30 269 C 26.3757 0.322879 -1.99504 0
M  V30 270 C 26.6967 1.55313 -1.1791 0
M  V30 271 O 25.9667 1.94001 -0.272097 0
M  V30 272 H 24.5467 0.122291 -0.736922 0
M  V30 273 H 27.2087 -0.397802 -1.90797 0
M  V30 274 H 26.3047 0.603061 -3.06218 0
M  V30 275 N 26.6058 1.57591 -0.0167156 0
M  V30 276 C 27.8518 1.92399 0.659861 0
M  V30 277 C 28.2068 0.892561 1.70444 0
M  V30 278 O 27.4998 -0.0930755 1.91374 0
M  V30 279 C 27.6938 3.3172 1.33029 0
M  V30 280 C 27.5228 4.48319 0.352174 0
M  V30 281 C 26.2928 5.05281 -0.0434883 0
M  V30 282 C 28.4908 5.12831 -0.388474 0
M  V30 283 N 26.4728 6.05399 -1.01807 0
M  V30 284 C 27.8438 6.07934 -1.2172 0
M  V30 285 C 29.8988 4.95858 -0.450513 0
M  V30 286 C 28.6018 6.87891 -2.10235 0
M  V30 287 C 30.6278 5.76413 -1.32295 0
M  V30 288 C 29.9898 6.71123 -2.13948 0
M  V30 289 H 26.0888 0.752106 0.21415 0
M  V30 290 H 28.6728 1.94532 -0.0809846 0
M  V30 291 H 26.8438 3.3043 2.04134 0
M  V30 292 H 28.5758 3.5391 1.9629 0
M  V30 293 H 25.3308 4.7246 0.328384 0
M  V30 294 H 25.7548 6.60145 -1.50123 0
M  V30 295 H 30.3968 4.22472 0.166512 0
M  V30 296 H 28.1148 7.60591 -2.72997 0
M  V30 297 H 31.7008 5.65317 -1.37508 0
M  V30 298 H 30.5808 7.3237 -2.80364 0
M  V30 299 N 28.0839 -0.256276 1.55502 0
M  V30 300 C 29.0169 -1.34321 1.84481 0
M  V30 301 C 29.9949 -1.46802 0.699131 0
M  V30 302 O 31.1789 -1.63165 0.943904 0
M  V30 303 C 28.3059 -2.71779 2.02123 0
M  V30 304 C 27.3519 -2.76496 3.24734 0
M  V30 305 S 28.1849 -2.3405 4.81644 0
M  V30 306 C 29.3409 -3.73452 5.02279 0
M  V30 307 H 29.5739 -1.09539 2.76385 0
M  V30 308 H 27.1069 -0.45678 1.47489 0
M  V30 309 H 29.0649 -3.50932 2.12972 0
M  V30 310 H 27.7259 -2.93803 1.11078 0
M  V30 311 H 26.9189 -3.77424 3.34016 0
M  V30 312 H 26.5209 -2.05379 3.12563 0
M  V30 313 H 28.8129 -4.6887 4.89047 0
M  V30 314 H 29.7559 -3.6911 6.04287 0
M  V30 315 H 30.1639 -3.6553 4.30172 0
M  V30 316 N 29.562 -1.4872 -0.521534 0
M  V30 317 C 30.973 -1.50607 -1.10337 0
M  V30 318 C 31.324 -0.280612 -1.94183 0
M  V30 319 O 30.449 0.611507 -2.0758 0
M  V30 320 C 31.044 -2.72903 -2.00772 0
M  V30 321 C 29.603 -2.77634 -2.54158 0
M  V30 322 C 28.75 -2.44241 -1.31307 0
M  V30 323 H 31.701 -1.55714 -0.306388 0
M  V30 324 H 31.722 -2.519 -2.85178 0
M  V30 325 H 31.234 -3.62077 -1.39721 0
M  V30 326 H 29.335 -1.92689 -3.18907 0
M  V30 327 H 29.448 -3.79283 -2.92714 0
M  V30 328 H 27.812 -1.95577 -1.63161 0
M  V30 329 H 28.595 -3.35666 -0.719943 0
M  V30 330 N 31.0401 0.771051 -1.3745 0
M  V30 331 C 31.9721 1.89352 -1.29146 0
M  V30 332 C 32.9851 1.61477 -0.207124 0
M  V30 333 O 34.1741 1.72382 -0.463324 0
M  V30 334 C 31.2741 3.24596 -0.974195 0
M  V30 335 C 30.4471 3.80111 -2.16413 0
M  V30 336 C 29.5061 4.93832 -1.81703 0
M  V30 337 O 28.5321 5.09382 -2.54006 0
M  V30 338 N 29.7341 5.75483 -0.761573 0
M  V30 339 H 32.4991 1.96991 -2.25864 0
M  V30 340 H 30.0601 0.950191 -1.31084 0
M  V30 341 H 32.0521 3.98193 -0.722828 0
M  V30 342 H 30.6221 3.12454 -0.0955527 0
M  V30 343 H 29.8421 2.98284 -2.57721 0
M  V30 344 H 31.1301 4.13932 -2.95867 0
M  V30 345 H 30.5281 5.65469 -0.161609 0
M  V30 346 H 29.0851 6.49302 -0.570064 0
M  V30 347 N 32.5182 1.22032 0.997298 0
M  V30 348 C 33.4812 0.987909 2.06816 0
M  V30 349 C 34.4812 -0.0440084 1.6074 0
M  V30 350 O 35.6712 0.194053 1.73116 0
M  V30 351 C 32.8032 0.49132 3.37341 0
M  V30 352 H 33.9962 1.93803 2.28868 0
M  V30 353 H 31.5492 1.03838 1.16822 0
M  V30 354 H 32.2842 -0.463364 3.20973 0
M  V30 355 H 32.0692 1.23575 3.72118 0
M  V30 356 H 33.5592 0.348824 4.16141 0
M  V30 357 N 33.9963 -1.19345 1.0293 0
M  V30 358 C 34.9593 -2.20793 0.615069 0
M  V30 359 C 35.9593 -1.57553 -0.321533 0
M  V30 360 O 37.1493 -1.73862 -0.108483 0
M  V30 361 C 34.2813 -3.40754 -0.0999222 0
M  V30 362 H 35.4743 -2.58955 1.51269 0
M  V30 363 H 33.0273 -1.3303 0.820534 0
M  V30 364 H 33.7623 -3.0811 -1.01187 0
M  V30 365 H 33.5473 -3.87889 0.57309 0
M  V30 366 H 35.0373 -4.15898 -0.376645 0
M  V30 367 N 35.4744 -0.807222 -1.35358 0
M  V30 368 C 36.8854 -0.44876 -1.81226 0
M  V30 369 C 37.2364 1.02929 -1.67033 0
M  V30 370 O 36.3614 1.79991 -1.20133 0
M  V30 371 C 36.9564 -0.807774 -3.2903 0
M  V30 372 C 35.5154 -0.501901 -3.73039 0
M  V30 373 C 34.6624 -1.03304 -2.57339 0
M  V30 374 H 37.6134 -0.998808 -1.23327 0
M  V30 375 H 37.6344 -0.10554 -3.80354 0
M  V30 376 H 37.1464 -1.88357 -3.39328 0
M  V30 377 H 35.2474 0.565128 -3.68289 0
M  V30 378 H 35.3604 -1.03497 -4.67787 0
M  V30 379 H 33.7244 -0.455339 -2.50597 0
M  V30 380 H 34.5074 -2.11496 -2.70415 0
M  V30 381 N 36.9525 1.47285 -0.560781 0
M  V30 382 C 38.1925 2.0436 -0.0404627 0
M  V30 383 C 38.5565 1.42534 1.28639 0
M  V30 384 O 39.7575 1.90677 1.89462 0
M  V30 385 C 38.0285 3.57369 0.0471856 0
M  V30 386 S 39.5875 4.3579 0.513109 0
M  V30 387 H 36.4055 0.710492 -0.0268674 0
M  V30 388 H 39.0075 1.80611 -0.748323 0
M  V30 389 H 37.7115 3.9989 -0.922817 0
M  V30 390 H 37.2425 3.8562 0.778491 0
M  V30 391 H 39.2575 4.63476 1.77212 0
M  V30 392 N 38.4306 0.297415 1.54768 0
M  V30 393 C 39.3606 -0.573494 2.26348 0
M  V30 394 C 40.3416 -1.14085 1.26169 0
M  V30 395 O 41.5266 -1.17086 1.54934 0
M  V30 396 C 38.6566 -1.74716 3.00153 0
M  V30 397 C 37.6106 -1.31032 4.07449 0
M  V30 398 C 36.9366 -2.56887 4.68949 0
M  V30 399 C 38.2366 -0.444183 5.20408 0
M  V30 400 H 39.9306 0.0235131 2.99391 0
M  V30 401 H 37.4766 0.0127488 1.43994 0
M  V30 402 H 39.4296 -2.3625 3.48947 0
M  V30 403 H 38.1536 -2.37035 2.24682 0
M  V30 404 H 36.8126 -0.718066 3.59499 0
M  V30 405 H 36.4606 -3.17512 3.90122 0
M  V30 406 H 36.1606 -2.2836 5.41411 0
M  V30 407 H 37.6846 -3.19229 5.20505 0
M  V30 408 H 39.0986 -0.9651 5.65118 0
M  V30 409 H 37.4956 -0.252846 5.99567 0
M  V30 410 H 38.5656 0.531609 4.81977 0
M  V30 411 N 39.9087 -1.5758 0.0250728 0
M  V30 412 C 41.1337 -1.96337 -0.668317 0
M  V30 413 C 41.5587 -0.901314 -1.651 0
M  V30 414 O 40.9167 0.138187 -1.80773 0
M  V30 415 C 40.9647 -3.34191 -1.35457 0
M  V30 416 O 40.0687 -3.30269 -2.46974 0
M  V30 417 H 39.4097 -0.640281 -0.175887 0
M  V30 418 H 41.9397 -2.0442 0.0857224 0
M  V30 419 H 41.9497 -3.70331 -1.71228 0
M  V30 420 H 40.6247 -4.11036 -0.634218 0
M  V30 421 H 39.2017 -3.05841 -2.13344 0
M  V30 422 N 41.3868 0.248026 -1.55636 0
M  V30 423 C 42.6348 0.974295 -1.77065 0
M  V30 424 C 42.9558 1.85897 -0.588849 0
M  V30 425 O 42.2258 1.91868 0.395407 0
M  V30 426 H 40.8058 0.362733 -0.653019 0
M  V30 427 H 43.4678 0.266244 -1.93073 0
M  V30 428 H 42.5638 1.59667 -2.68166 0
M  V30 429 N 42.8649 1.48995 0.513639 0
M  V30 430 C 43.8279 1.64229 1.59879 0
M  V30 431 C 44.8279 0.514696 1.5234 0
M  V30 432 O 46.0179 0.78087 1.55718 0
M  V30 433 C 43.1499 1.62783 2.99524 0
M  V30 434 H 44.3429 2.61004 1.47705 0
M  V30 435 H 41.8959 1.37837 0.736936 0
M  V30 436 H 42.6309 0.675461 3.17188 0
M  V30 437 H 42.4159 2.4466 3.06404 0
M  V30 438 H 43.9059 1.76669 3.78388 0
M  V30 439 N 44.343 -0.763751 1.37857 0
M  V30 440 C 45.754 -1.3405 1.29952 0
M  V30 441 C 46.105 -1.96138 -0.0492898 0
M  V30 442 O 45.23 -1.94372 -0.951239 0
M  V30 443 C 45.825 -2.43729 2.35333 0
M  V30 444 C 44.384 -2.97151 2.31037 0
M  V30 445 C 43.531 -1.70438 2.18738 0
M  V30 446 H 46.482 -0.563396 1.48363 0
M  V30 447 H 46.503 -3.23412 2.00462 0
M  V30 448 H 46.015 -1.9851 3.33489 0
M  V30 449 H 44.116 -3.46724 1.3643 0
M  V30 450 H 44.229 -3.52221 3.24772 0
M  V30 451 H 42.593 -1.93673 1.65418 0
M  V30 452 H 43.376 -1.27312 3.18821 0
M  V30 453 N 45.8211 -1.22559 -0.990812 0
M  V30 454 C 46.7531 -0.955325 -2.08342 0
M  V30 455 C 47.7661 0.0668408 -1.62663 0
M  V30 456 O 48.9551 -0.167421 -1.77713 0
M  V30 457 C 46.0551 -0.415566 -3.36342 0
M  V30 458 C 45.2281 -1.49544 -4.11042 0
M  V30 459 C 44.2871 -0.962399 -5.17324 0
M  V30 460 O 43.3131 -1.64907 -5.44788 0
M  V30 461 N 44.5151 0.215134 -5.80101 0
M  V30 462 H 47.2801 -1.89596 -2.32106 0
M  V30 463 H 44.8411 -1.13276 -1.15673 0
M  V30 464 H 46.8331 -0.0442386 -4.04676 0
M  V30 465 H 45.4031 0.430232 -3.09625 0
M  V30 466 H 44.6231 -2.04 -3.37309 0
M  V30 467 H 45.9111 -2.22195 -4.57719 0
M  V30 468 H 45.3091 0.789779 -5.6016 0
M  V30 469 H 43.8661 0.527826 -6.49659 0
M  V30 470 N 47.2992 1.18797 -1.03562 0
M  V30 471 C 48.2622 2.20464 -0.626769 0
M  V30 472 C 49.2622 1.57721 0.313173 0
M  V30 473 O 50.4522 1.73917 0.0992615 0
M  V30 474 C 47.5842 3.40802 0.0818498 0
M  V30 475 H 48.7772 2.58149 -1.5264 0
M  V30 476 H 46.3302 1.32593 -0.827578 0
M  V30 477 H 47.0652 3.08642 0.995518 0
M  V30 478 H 46.8502 3.8758 -0.593652 0
M  V30 479 H 48.3402 4.16092 0.354584 0
M  V30 480 N 48.7773 0.814389 1.34928 0
M  V30 481 C 50.0023 0.410097 2.03305 0
M  V30 482 C 50.4273 -0.973464 1.60951 0
M  V30 483 O 49.7853 -1.63185 0.789964 0
M  V30 484 C 49.8333 0.51049 3.56968 0
M  V30 485 O 48.9373 -0.473035 4.09678 0
M  V30 486 H 48.2783 0.170088 0.641846 0
M  V30 487 H 50.8083 1.10244 1.72358 0
M  V30 488 H 50.8183 0.383135 4.06197 0
M  V30 489 H 49.4933 1.51963 3.87144 0
M  V30 490 H 48.0703 -0.305272 3.71648 0
M  V30 491 N 50.2554 -1.46986 0.568584 0
M  V30 492 C 51.2184 -2.28624 -0.162366 0
M  V30 493 C 52.2184 -1.37596 -0.832103 0
M  V30 494 O 53.4084 -1.60115 -0.68622 0
M  V30 495 C 50.5404 -3.17596 -1.23878 0
M  V30 496 H 51.7334 -2.94722 0.554899 0
M  V30 497 H 49.2864 -1.52863 0.325976 0
M  V30 498 H 50.0214 -2.56214 -1.98808 0
M  V30 499 H 49.8064 -3.846 -0.763219 0
M  V30 500 H 51.2964 -3.79078 -1.75185 0
M  V30 501 N 51.7335 -0.305618 -1.54608 0
M  V30 502 C 52.6965 0.555591 -2.22364 0
M  V30 503 C 53.6965 1.05768 -1.21119 0
M  V30 504 O 54.8865 0.952972 -1.45822 0
M  V30 505 C 52.0185 1.76974 -2.91364 0
M  V30 506 H 53.2115 -0.0364572 -2.99878 0
M  V30 507 H 50.7645 -0.0565007 -1.56198 0
M  V30 508 H 51.4995 2.40151 -2.17941 0
M  V30 509 H 51.2845 1.41732 -3.65588 0
M  V30 510 H 52.7745 2.38148 -3.43038 0
M  V30 511 N 53.2116 1.57565 -0.0334293 0
M  V30 512 C 54.4886 1.83282 0.683163 0
M  V30 513 C 54.8686 0.91823 1.90084 0
M  V30 514 O 54.2166 -0.025113 2.28486 0
M  V30 515 C 54.4266 3.32599 1.0573 0
M  V30 516 C 55.7746 3.99179 1.44711 0
M  V30 517 O 56.7986 3.3712 1.15015 0
M  V30 518 O 55.6576 5.08565 2.0006 0
M  V30 519 H 52.7516 0.755869 0.335546 0
M  V30 520 H 55.2976 1.69589 -0.0614402 0
M  V30 521 H 54.0696 3.90834 0.190828 0
M  V30 522 H 53.6926 3.51415 1.85993 0
M  V30 523 N 54.6897 -0.239769 1.55765 0
M  V30 524 C 55.9357 -0.968234 1.78194 0
M  V30 525 C 56.2687 -1.84701 0.599938 0
M  V30 526 O 55.5437 -1.9031 -0.401524 0
M  V30 527 C 55.8267 -1.8227 3.10564 0
M  V30 528 C 55.6797 -0.971633 4.3918 0
M  V30 529 C 56.9987 -2.80388 3.39221 0
M  V30 530 H 54.1177 -0.350572 0.648281 0
M  V30 531 H 56.7597 -0.238259 1.885 0
M  V30 532 H 54.9097 -2.44507 3.01908 0
M  V30 533 H 56.5817 -0.367408 4.59835 0
M  V30 534 H 54.8247 -0.276276 4.32919 0
M  V30 535 H 55.4957 -1.60346 5.28198 0
M  V30 536 H 57.9717 -2.28287 3.47885 0
M  V30 537 H 56.8477 -3.3729 4.33044 0
M  V30 538 H 57.1087 -3.57212 2.60484 0
M  V30 539 N 56.1678 -1.49265 -0.50573 0
M  V30 540 C 57.4138 -1.58748 -1.26202 0
M  V30 541 C 57.7468 -0.271227 -1.92297 0
M  V30 542 O 57.0218 0.724831 -1.80489 0
M  V30 543 C 57.3048 -2.74332 -2.33268 0
M  V30 544 C 57.1578 -4.15737 -1.71705 0
M  V30 545 C 58.4768 -2.85576 -3.34865 0
M  V30 546 H 55.5958 -0.577826 -0.457478 0
M  V30 547 H 58.2378 -1.81532 -0.560897 0
M  V30 548 H 56.3878 -2.55036 -2.93068 0
M  V30 549 H 58.0598 -4.46537 -1.15769 0
M  V30 550 H 56.3028 -4.21605 -1.02135 0
M  V30 551 H 56.9738 -4.92477 -2.49341 0
M  V30 552 H 59.4498 -3.03127 -2.8505 0
M  V30 553 H 58.3258 -3.68135 -4.07146 0
M  V30 554 H 58.5868 -1.94732 -3.96903 0
M  V30 555 N 57.6459 0.756429 -1.3826 0
M  V30 556 C 58.8919 1.51772 -1.34511 0
M  V30 557 C 59.2249 1.94089 0.0656691 0
M  V30 558 O 58.4999 1.65221 1.02626 0
M  V30 559 C 58.7829 2.77226 -2.29821 0
M  V30 560 C 58.6359 2.41065 -3.79747 0
M  V30 561 C 59.9549 3.79236 -2.23312 0
M  V30 562 H 57.0739 0.550578 -0.489931 0
M  V30 563 H 59.7159 0.866607 -1.69086 0
M  V30 564 H 57.8659 3.32784 -2.00467 0
M  V30 565 H 59.5379 1.91303 -4.19763 0
M  V30 566 H 57.7809 1.7356 -3.97567 0
M  V30 567 H 58.4519 3.3081 -4.41892 0
M  V30 568 H 60.9279 3.3321 -2.49219 0
M  V30 569 H 59.8039 4.64714 -2.92116 0
M  V30 570 H 60.0649 4.24615 -1.23102 0
M  V30 571 N 59.124 1.23083 0.984299 0
M  V30 572 C 60.37 1.06214 1.72761 0
M  V30 573 C 60.703 -0.400584 1.90024 0
M  V30 574 O 59.978 -1.29672 1.44967 0
M  V30 575 C 60.261 1.78375 3.12817 0
M  V30 576 C 60.114 3.32296 3.03149 0
M  V30 577 C 61.433 1.54309 4.12161 0
M  V30 578 H 58.552 0.387251 0.627061 0
M  V30 579 H 61.194 1.51536 1.14616 0
M  V30 580 H 59.344 1.39848 3.62457 0
M  V30 581 H 61.016 3.8032 2.61064 0
M  V30 582 H 59.259 3.6153 2.39747 0
M  V30 583 H 59.93 3.77972 4.02295 0
M  V30 584 H 62.406 1.87791 3.71314 0
M  V30 585 H 61.282 2.07281 5.08258 0
M  V30 586 H 61.543 0.477572 4.39513 0
M  V30 587 N 60.6021 -1.18246 1.0419 0
M  V30 588 C 61.5521 -2.19843 0.604392 0
M  V30 589 C 62.5361 -1.56962 -0.353814 0
M  V30 590 O 63.7281 -1.76156 -0.17267 0
M  V30 591 C 60.8571 -3.43287 -0.0298975 0
M  V30 592 C 59.9431 -4.13288 0.951531 0
M  V30 593 N 60.3341 -4.59271 2.11906 0
M  V30 594 C 58.6321 -4.39165 0.7778 0
M  V30 595 C 59.3331 -5.13173 2.73912 0
M  V30 596 N 58.3091 -5.04763 2.01779 0
M  V30 597 H 62.1111 -2.53089 1.4941 0
M  V30 598 H 59.6251 -1.34465 0.910658 0
M  V30 599 H 61.6221 -4.15334 -0.361037 0
M  V30 600 H 60.2821 -3.11537 -0.915127 0
M  V30 601 H 61.2931 -4.5368 2.49789 0
M  V30 602 H 57.9701 -4.17461 -0.0572331 0
M  V30 603 H 59.3601 -5.58947 3.72864 0
M  V30 604 N 62.0802 -0.821533 -1.34494 0
M  V30 605 C 63.3282 -0.408139 -1.97936 0
M  V30 606 C 63.6492 1.03193 -1.65457 0
M  V30 607 O 62.9192 1.71622 -0.944595 0
M  V30 608 H 61.4992 -0.147928 -0.732206 0
M  V30 609 H 64.1612 -1.05067 -1.64155 0
M  V30 610 H 63.2572 -0.52601 -3.07635 0
M  V30 611 N 63.5583 1.46682 -0.576371 0
M  V30 612 C 64.9743 1.57822 -0.237562 0
M  V30 613 C 65.1743 1.57237 1.26011 0
M  V30 614 O 64.2303 1.48596 2.04146 0
M  V30 615 C 65.5433 2.87499 -0.881168 0
M  V30 616 C 67.0913 3.01119 -0.85417 0
M  V30 617 C 67.5663 4.33524 -1.4772 0
M  V30 618 N 69.0573 4.40207 -1.44125 0
M  V30 619 C 69.7923 5.4126 -1.89276 0
M  V30 620 N 69.2883 6.49021 -2.42371 0
M  V30 621 N 71.0813 5.32422 -1.80231 0
M  V30 622 H 63.2323 1.45306 -1.54919 0
M  V30 623 H 65.4953 0.692733 -0.647167 0
M  V30 624 H 65.2013 2.9372 -1.93447 0
M  V30 625 H 65.0753 3.75224 -0.385592 0
M  V30 626 H 67.4623 2.94485 0.190491 0
M  V30 627 H 67.5433 2.14887 -1.3877 0
M  V30 628 H 67.1873 4.40916 -2.52103 0
M  V30 629 H 67.1173 5.1852 -0.918947 0
M  V30 630 H 69.6083 3.62931 -1.05307 0
M  V30 631 H 69.9213 7.2233 -2.74698 0
M  V30 632 H 68.2663 6.49858 -2.46393 0
M  V30 633 H 71.4573 4.47137 -1.38514 0
M  V30 634 H 71.6303 6.11034 -2.15735 0
M  V30 635 N 65.0364 0.313813 1.54444 0
M  V30 636 C 66.4524 -0.0391619 1.59552 0
M  V30 637 C 66.6524 -1.51322 1.33056 0
M  V30 638 O 65.7084 -2.26782 1.11022 0
M  V30 639 C 67.0214 0.370302 2.98411 0
M  V30 640 C 68.5694 0.320139 3.11358 0
M  V30 641 C 69.0444 0.704617 4.52547 0
M  V30 642 N 70.5354 0.657645 4.58508 0
M  V30 643 C 71.2704 0.927453 5.6585 0
M  V30 644 N 70.7664 1.26389 6.81174 0
M  V30 645 N 72.5594 0.853662 5.5558 0
M  V30 646 H 64.7104 1.27433 1.69925 0
M  V30 647 H 66.9734 0.517511 0.794284 0
M  V30 648 H 66.6794 1.39694 3.22767 0
M  V30 649 H 66.5534 -0.269619 3.76235 0
M  V30 650 H 68.9404 -0.697275 2.86744 0
M  V30 651 H 69.0214 0.99486 2.35661 0
M  V30 652 H 68.6654 1.7199 4.77893 0
M  V30 653 H 68.5954 0.00768843 5.26599 0
M  V30 654 H 71.0864 0.409067 3.75679 0
M  V30 655 H 71.3994 1.4554 7.58972 0
M  V30 656 H 69.7444 1.30206 6.82694 0
M  V30 657 H 72.9354 0.590383 4.64362 0
M  V30 658 H 73.1084 1.0673 6.3915 0
M  V30 659 N 66.5145 -1.57545 0.0417849 0
M  V30 660 C 67.7425 -1.96624 -0.643928 0
M  V30 661 C 68.1575 -0.918897 -1.64929 0
M  V30 662 O 67.5145 0.0979323 -1.82237 0
M  V30 663 C 67.5655 -3.35781 -1.33914 0
M  V30 664 O 67.2865 -4.365 -0.374048 0
M  V30 665 C 68.7875 -3.89566 -2.1155 0
M  V30 666 H 66.0075 -0.647316 -0.176702 0
M  V30 667 H 68.5515 -2.04229 0.105304 0
M  V30 668 H 66.7065 -3.29357 -2.03968 0
M  V30 669 H 67.1205 -5.17248 -0.869179 0
M  V30 670 H 68.5945 -4.89242 -2.55628 0
M  V30 671 H 69.0715 -3.24488 -2.9598 0
M  V30 672 H 69.6775 -3.99298 -1.46427 0
M  V30 673 N 67.9926 0.231505 -1.5589 0
M  V30 674 C 68.9556 1.27028 -1.90779 0
M  V30 675 C 69.9556 1.40308 -0.785507 0
M  V30 676 O 71.1456 1.38744 -1.05336 0
M  V30 677 C 68.2776 2.64566 -2.14983 0
M  V30 678 H 69.4706 0.973017 -2.83677 0
M  V30 679 H 67.0236 0.471486 -1.49019 0
M  V30 680 H 67.7586 2.99406 -1.24604 0
M  V30 681 H 67.5436 2.56305 -2.96732 0
M  V30 682 H 69.0336 3.39543 -2.43105 0
M  V30 683 N 69.4707 1.49531 0.497807 0
M  V30 684 C 70.7197 1.58426 1.24837 0
M  V30 685 C 71.0327 0.277643 1.93619 0
M  V30 686 O 72.2387 0.24517 2.70391 0
M  V30 687 C 70.6947 2.79538 2.26686 0
M  V30 688 C 70.3027 4.16971 1.63828 0
M  V30 689 C 72.0467 2.97764 3.0255 0
M  V30 690 C 69.9537 5.29301 2.63807 0
M  V30 691 H 68.8837 0.58989 0.469623 0
M  V30 692 H 71.5347 1.75923 0.521857 0
M  V30 693 H 69.9167 2.55542 3.02514 0
M  V30 694 H 71.0907 4.51116 0.939711 0
M  V30 695 H 69.4057 4.04129 1.00342 0
M  V30 696 H 72.0027 3.78856 3.77323 0
M  V30 697 H 72.3457 2.08448 3.60354 0
M  V30 698 H 72.8787 3.21815 2.33838 0
M  V30 699 H 69.6177 6.20687 2.10779 0
M  V30 700 H 69.1377 4.99606 3.31894 0
M  V30 701 H 70.8167 5.58768 3.2617 0
M  V30 702 N 70.9488 -0.749086 1.3866 0
M  V30 703 C 72.1888 -1.52112 1.36534 0
M  V30 704 C 72.5528 -1.91951 -0.0432316 0
M  V30 705 O 73.7538 -2.68132 -0.189396 0
M  V30 706 C 72.0248 -2.73704 2.29828 0
M  V30 707 S 73.5838 -3.63519 2.45763 0
M  V30 708 H 70.4018 -0.520482 0.484375 0
M  V30 709 H 73.0038 -0.878963 1.74627 0
M  V30 710 H 71.7078 -2.42552 3.31054 0
M  V30 711 H 71.2388 -3.4286 1.929 0
M  V30 712 H 73.2538 -4.66712 1.68505 0
M  V30 713 N 72.4269 -1.23603 -0.977757 0
M  V30 714 C 73.8429 -0.999251 -1.24447 0
M  V30 715 C 74.0429 0.298053 -1.99283 0
M  V30 716 O 73.0989 1.01681 -2.31122 0
M  V30 717 C 74.4119 -2.20784 -2.04144 0
M  V30 718 C 75.9599 -2.25303 -2.17273 0
M  V30 719 C 76.4349 -3.45755 -3.00362 0
M  V30 720 N 77.9259 -3.4601 -3.07947 0
M  V30 721 C 78.6609 -4.35868 -3.72568 0
M  V30 722 N 78.1569 -5.35966 -4.38991 0
M  V30 723 N 79.9499 -4.23605 -3.6948 0
M  V30 724 H 72.1009 -2.06986 -0.476483 0
M  V30 725 H 74.3639 -0.907801 -0.273134 0
M  V30 726 H 74.0699 -3.14945 -1.56533 0
M  V30 727 H 73.9439 -2.22085 -3.04891 0
M  V30 728 H 76.3309 -1.3168 -2.64092 0
M  V30 729 H 76.4119 -2.28033 -1.15907 0
M  V30 730 H 76.0559 -4.39687 -2.5424 0
M  V30 731 H 75.9859 -3.40266 -4.01904 0
M  V30 732 H 78.4769 -2.73588 -2.60688 0
M  V30 733 H 78.7899 -6.00783 -4.86086 0
M  V30 734 H 77.1349 -5.39863 -4.37691 0
M  V30 735 H 80.3259 -3.44647 -3.16759 0
M  V30 736 H 80.4989 -4.93836 -4.1956 0
M  V30 737 N 73.905 1.17692 -1.04816 0
M  V30 738 C 74.868 2.19787 -0.650117 0
M  V30 739 C 75.868 1.58044 0.296427 0
M  V30 740 O 77.058 1.74012 0.0808097 0
M  V30 741 C 74.19 3.40869 0.0456987 0
M  V30 742 H 75.383 2.56516 -1.5537 0
M  V30 743 H 72.936 1.31708 -0.841594 0
M  V30 744 H 73.671 3.09681 0.962726 0
M  V30 745 H 73.456 3.86928 -0.634727 0
M  V30 746 H 74.946 4.16445 0.310432 0
M  V30 747 N 75.3831 0.828654 1.34056 0
M  V30 748 C 76.6311 0.41863 1.97717 0
M  V30 749 C 76.9521 -1.02314 1.66002 0
M  V30 750 O 76.2221 -1.71119 0.953683 0
M  V30 751 H 74.8021 0.151809 0.731412 0
M  V30 752 H 77.4641 1.05936 1.63596 0
M  V30 753 H 76.5601 0.542318 3.07352 0
M  V30 754 N 76.8612 -1.46375 0.584142 0
M  V30 755 C 78.2772 -1.57694 0.245929 0
M  V30 756 C 78.4772 -1.57903 -1.25175 0
M  V30 757 O 77.5332 -1.49676 -2.03355 0
M  V30 758 C 78.8462 -2.87028 0.896402 0
M  V30 759 C 80.3942 -3.00662 0.870127 0
M  V30 760 C 80.8692 -4.32734 1.50017 0
M  V30 761 N 82.3602 -4.39436 1.46458 0
M  V30 762 C 83.0952 -5.40248 1.92144 0
M  V30 763 N 82.5912 -6.47726 2.4581 0
M  V30 764 N 84.3842 -5.31459 1.83052 0
M  V30 765 H 76.5352 -1.44483 1.55687 0
M  V30 766 H 78.7982 -0.689291 0.650831 0
M  V30 767 H 78.5042 -2.9269 1.95002 0
M  V30 768 H 78.3782 -3.75014 0.405486 0
M  V30 769 H 80.7652 -2.94581 -0.174871 0
M  V30 770 H 80.8462 -2.14148 1.39908 0
M  V30 771 H 80.4902 -4.39573 2.54437 0
M  V30 772 H 80.4202 -5.18025 0.946432 0
M  V30 773 H 82.9112 -3.62367 1.07231 0
M  V30 774 H 83.2242 -7.20863 2.78525 0
M  V30 775 H 81.5692 -6.48542 2.49836 0
M  V30 776 H 84.7602 -4.46396 1.40883 0
M  V30 777 H 84.9332 -6.09881 2.18973 0
M  V30 778 N 78.3393 -0.321999 -1.54275 0
M  V30 779 C 79.5873 0.280489 -2.00144 0
M  V30 780 C 79.9083 1.52777 -1.21178 0
M  V30 781 O 79.1783 1.9338 -0.313187 0
M  V30 782 H 77.7583 0.106632 -0.73935 0
M  V30 783 H 80.4203 -0.438184 -1.8991 0
M  V30 784 H 79.5163 0.537972 -3.07428 0
M  V30 785 N 79.8174 1.5752 -0.0501392 0
M  V30 786 C 81.0654 1.9227 0.622642 0
M  V30 787 C 81.3864 0.929083 1.71444 0
M  V30 788 O 80.6564 -0.0262186 1.95882 0
M  V30 789 H 79.2364 0.709739 0.232981 0
M  V30 790 H 81.8984 1.94628 -0.102898 0
M  V30 791 H 80.9944 2.93479 1.06191 0
M  V30 792 N 81.2955 -0.223234 1.56011 0
M  V30 793 C 82.5425 -0.947875 1.78946 0
M  V30 794 C 82.8705 -1.844 0.618608 0
M  V30 795 O 82.1255 -1.91629 -0.397093 0
M  V30 796 C 82.4245 -1.81948 3.0762 0
M  V30 797 C 82.0905 -1.07672 4.37856 0
M  V30 798 C 80.7525 -0.871544 4.73242 0
M  V30 799 C 83.1045 -0.552081 5.18268 0
M  V30 800 C 80.4325 -0.129791 5.86556 0
M  V30 801 C 82.7845 0.17632 6.32354 0
M  V30 802 C 81.4485 0.39277 6.66343 0
M  V30 803 H 80.7185 -0.346852 0.654809 0
M  V30 804 H 83.3655 -0.216171 1.90276 0
M  V30 805 H 81.6705 -2.61899 2.91404 0
M  V30 806 H 83.3675 -2.38227 3.22566 0
M  V30 807 H 79.9575 -1.24662 4.1007 0
M  V30 808 H 84.1415 -0.698076 4.91366 0
M  V30 809 H 79.3975 0.048153 6.11381 0
M  V30 810 H 83.5715 0.590367 6.93893 0
M  V30 811 H 81.1985 0.969466 7.53993 0
M  V30 812 N 82.7736 -1.49793 -0.48987 0
M  V30 813 C 83.7206 -1.67281 -1.59014 0
M  V30 814 C 84.6906 -0.514177 -1.57941 0
M  V30 815 O 85.8756 -0.742533 -1.75759 0
M  V30 816 C 83.0156 -1.75569 -2.97102 0
M  V30 817 C 82.1286 -3.0281 -3.08107 0
M  V30 818 C 81.2636 -3.02008 -4.36995 0
M  V30 819 C 80.3026 -4.23782 -4.41673 0
M  V30 820 N 79.4396 -4.20826 -5.62005 0
M  V30 821 H 84.2796 -2.61224 -1.43409 0
M  V30 822 H 81.8166 -1.29508 -0.697565 0
M  V30 823 H 83.7746 -1.78354 -3.77155 0
M  V30 824 H 82.4046 -0.850827 -3.11385 0
M  V30 825 H 81.4566 -3.09584 -2.21047 0
M  V30 826 H 82.7686 -3.92801 -3.07423 0
M  V30 827 H 81.9226 -3.03418 -5.25378 0
M  V30 828 H 80.6616 -2.09815 -4.4026 0
M  V30 829 H 79.6666 -4.22604 -3.5169 0
M  V30 830 H 80.8916 -5.17181 -4.40115 0
M  V30 831 H 78.8376 -3.31476 -5.66091 0
M  V30 832 H 78.7546 -5.04564 -5.62984 0
M  V30 833 H 80.0226 -4.26355 -6.52565 0
M  V30 834 N 84.2517 0.741722 -1.39055 0
M  V30 835 C 85.5287 1.49252 -1.26425 0
M  V30 836 C 85.9087 2.10705 0.129144 0
M  V30 837 O 85.2567 1.98045 1.13976 0
M  V30 838 C 85.4667 2.54934 -2.38347 0
M  V30 839 C 86.8147 3.21506 -2.77343 0
M  V30 840 O 87.8387 2.65245 -2.37747 0
M  V30 841 O 86.6977 4.23294 -3.45665 0
M  V30 842 H 83.7917 0.662451 -0.495064 0
M  V30 843 H 86.3377 0.776121 -1.50912 0
M  V30 844 H 85.1097 2.07857 -3.31529 0
M  V30 845 H 84.7327 3.34141 -2.15489 0
M  V30 846 N 85.7298 1.2412 0.971189 0
M  V30 847 C 86.9578 1.10575 1.74874 0
M  V30 848 C 87.3728 -0.342017 1.85676 0
M  V30 849 O 86.7298 -1.23617 1.34258 0
M  V30 850 C 86.7808 1.73579 3.171 0
M  V30 851 O 86.5018 3.12695 3.06844 0
M  V30 852 C 88.0028 1.65598 4.11208 0
M  V30 853 H 85.2228 0.386504 0.548503 0
M  V30 854 H 87.7668 1.64156 1.21955 0
M  V30 855 H 85.9218 1.24009 3.67016 0
M  V30 856 H 86.3358 3.43412 3.96445 0
M  V30 857 H 87.8098 2.1437 5.08674 0
M  V30 858 H 88.2868 0.616532 4.34851 0
M  V30 859 H 88.8928 2.14578 3.67201 0
M  V30 860 N 87.2079 -1.17134 1.05439 0
M  V30 861 C 88.4359 -1.91372 0.786414 0
M  V30 862 C 88.8509 -1.76955 -0.658202 0
M  V30 863 O 88.2079 -1.10838 -1.44987 0
M  V30 864 C 88.2589 -3.42356 1.1608 0
M  V30 865 O 87.9799 -3.56332 2.54871 0
M  V30 866 C 89.4809 -4.33663 0.919322 0
M  V30 867 H 86.7009 -0.607118 0.285743 0
M  V30 868 H 89.2449 -1.48525 1.40572 0
M  V30 869 H 87.3999 -3.82939 0.586191 0
M  V30 870 H 87.8139 -4.49896 2.69618 0
M  V30 871 H 89.2879 -5.38099 1.231 0
M  V30 872 H 89.7649 -4.38959 -0.145359 0
M  V30 873 H 90.3709 -3.98796 1.47789 0
M  V30 874 N 88.686 -0.835752 -1.33615 0
M  V30 875 C 90.097 -0.487099 -1.80234 0
M  V30 876 C 90.448 0.993627 -1.69179 0
M  V30 877 O 89.573 1.77403 -1.23924 0
M  V30 878 C 90.168 -0.877385 -3.27242 0
M  V30 879 C 88.727 -0.580915 -3.7189 0
M  V30 880 C 87.874 -1.0874 -2.5509 0
M  V30 881 H 90.825 -1.02474 -1.2118 0
M  V30 882 H 90.846 -0.186195 -3.80044 0
M  V30 883 H 90.358 -1.95512 -3.35256 0
M  V30 884 H 88.459 0.486881 -3.69405 0
M  V30 885 H 88.572 -1.13396 -4.65487 0
M  V30 886 H 86.936 -0.508392 -2.49575 0
M  V30 887 H 87.719 -2.17184 -2.65868 0
M  V30 888 N 90.1641 1.46063 -0.591896 0
M  V30 889 C 91.4411 1.95595 -0.0137119 0
M  V30 890 C 91.8211 1.5345 1.4497 0
M  V30 891 O 91.1691 0.789543 2.14426 0
M  V30 892 C 91.3791 3.48453 -0.195373 0
M  V30 893 C 92.7271 4.24546 -0.0679765 0
M  V30 894 O 93.7511 3.55982 -0.124681 0
M  V30 895 O 92.6101 5.46467 0.0600579 0
M  V30 896 H 89.7041 0.825795 0.0446279 0
M  V30 897 H 92.2501 1.56303 -0.660859 0
M  V30 898 H 91.0221 3.72045 -1.21235 0
M  V30 899 H 90.6451 3.94597 0.487775 0
M  V30 900 N 91.6422 0.330177 1.54103 0
M  V30 901 C 92.5522 -0.541534 2.28264 0
M  V30 902 C 93.5682 -1.12351 1.32866 0
M  V30 903 O 94.7442 -1.14206 1.65888 0
M  V30 904 C 91.8092 -1.68322 3.03098 0
M  V30 905 C 90.8702 -1.13238 4.14096 0
M  V30 906 C 90.1032 -2.21966 4.85352 0
M  V30 907 O 90.3262 -3.42437 4.56172 0
M  V30 908 O 89.2602 -1.87013 5.7211 0
M  V30 909 H 93.0862 0.060938 3.03639 0
M  V30 910 H 90.6712 0.09565 1.49093 0
M  V30 911 H 92.5532 -2.34777 3.49939 0
M  V30 912 H 91.2282 -2.27176 2.30593 0
M  V30 913 H 90.1352 -0.432736 3.71589 0
M  V30 914 H 91.4682 -0.588898 4.88664 0
M  V30 915 N 93.1203 -1.57491 0.0584922 0
M  V30 916 C 94.0503 -2.14988 -0.911178 0
M  V30 917 C 95.0313 -1.07343 -1.31952 0
M  V30 918 O 96.2163 -1.35318 -1.39294 0
M  V30 919 C 93.3463 -2.70078 -2.18347 0
M  V30 920 C 92.3003 -3.82771 -1.91495 0
M  V30 921 C 91.6263 -4.24408 -3.25241 0
M  V30 922 C 92.9263 -5.07592 -1.23075 0
M  V30 923 H 94.6203 -2.96263 -0.432246 0
M  V30 924 H 92.1663 -1.42512 -0.206469 0
M  V30 925 H 94.1193 -3.08943 -2.86587 0
M  V30 926 H 92.8433 -1.86005 -2.68458 0
M  V30 927 H 91.5023 -3.44389 -1.25664 0
M  V30 928 H 91.1503 -3.37275 -3.73168 0
M  V30 929 H 90.8503 -5.00366 -3.08071 0
M  V30 930 H 92.3743 -4.65879 -3.94701 0
M  V30 931 H 93.7883 -5.43857 -1.81362 0
M  V30 932 H 92.1853 -5.88741 -1.16207 0
M  V30 933 H 93.2553 -4.84454 -0.207847 0
M  V30 934 N 94.5984 0.214957 -1.56127 0
M  V30 935 C 95.5284 1.2695 -1.95974 0
M  V30 936 C 96.5094 1.48539 -0.828868 0
M  V30 937 O 97.6944 1.60611 -1.09168 0
M  V30 938 C 94.8244 2.61794 -2.28214 0
M  V30 939 C 93.7784 2.54851 -3.43853 0
M  V30 940 C 93.1044 3.93785 -3.61715 0
M  V30 941 C 94.4044 2.09065 -4.78632 0
M  V30 942 H 96.0984 0.93846 -2.84312 0
M  V30 943 H 93.6444 0.449996 -1.36788 0
M  V30 944 H 95.5974 3.35731 -2.54682 0
M  V30 945 H 94.3214 2.96599 -1.36736 0
M  V30 946 H 92.9804 1.8337 -3.17444 0
M  V30 947 H 92.6284 4.25908 -2.67602 0
M  V30 948 H 92.3284 3.90019 -4.39498 0
M  V30 949 H 93.8524 4.69374 -3.90539 0
M  V30 950 H 95.2664 2.7275 -5.04262 0
M  V30 951 H 93.6634 2.16346 -5.59745 0
M  V30 952 H 94.7334 1.04315 -4.73547 0
M  V30 953 N 96.0765 1.50051 0.48192 0
M  V30 954 C 97.3015 1.64508 1.26301 0
M  V30 955 C 97.7265 0.323851 1.85291 0
M  V30 956 O 97.0845 -0.710969 1.66778 0
M  V30 957 C 97.1325 2.7305 2.35533 0
M  V30 958 O 96.2365 2.3355 3.39895 0
M  V30 959 H 95.5775 0.549978 0.372048 0
M  V30 960 H 98.1075 1.9636 0.574786 0
M  V30 961 H 98.1175 2.95799 2.8101 0
M  V30 962 H 96.7925 3.68946 1.91967 0
M  V30 963 H 95.3695 2.21205 3.00204 0
M  V30 964 N 97.5546 -0.734337 1.39446 0
M  V30 965 C 98.5176 -1.83004 1.37994 0
M  V30 966 C 99.5176 -1.58397 0.276938 0
M  V30 967 O 100.708 -1.65785 0.534875 0
M  V30 968 C 97.8396 -3.20802 1.1532 0
M  V30 969 H 99.0326 -1.85694 2.35494 0
M  V30 970 H 96.5856 -0.938059 1.25021 0
M  V30 971 H 97.3206 -3.23772 0.185036 0
M  V30 972 H 97.1056 -3.4006 1.95197 0
M  V30 973 H 98.5956 -4.00862 1.17046 0
M  V30 974 N 99.0327 -1.24633 -0.964593 0
M  V30 975 C 100.279 -1.08949 -1.71049 0
M  V30 976 C 100.612 0.370302 -1.90637 0
M  V30 977 O 99.8867 1.27349 -1.47011 0
M  V30 978 C 100.17 -1.83329 -3.0994 0
M  V30 979 C 100.023 -3.37077 -2.97824 0
M  V30 980 C 101.342 -1.60846 -4.09654 0
M  V30 981 H 98.4607 -0.397178 -0.620821 0
M  V30 982 H 101.103 -1.5334 -1.12191 0
M  V30 983 H 99.2527 -1.45597 -3.60186 0
M  V30 984 H 100.925 -3.84425 -2.5498 0
M  V30 985 H 99.1677 -3.65298 -2.33965 0
M  V30 986 H 99.8387 -3.84324 -3.96231 0
M  V30 987 H 102.315 -1.93674 -3.68279 0
M  V30 988 H 101.191 -2.1534 -5.04896 0
M  V30 989 H 101.452 -0.547434 -4.38698 0
M  V30 990 N 100.511 1.16574 -1.06058 0
M  V30 991 C 101.444 2.19798 -0.61352 0
M  V30 992 C 102.422 1.58509 0.362453 0
M  V30 993 O 103.606 1.86527 0.271994 0
M  V30 994 C 100.733 3.3855 0.100915 0
M  V30 995 C 99.7788 4.18317 -0.831438 0
M  V30 996 S 100.612 4.82375 -2.32539 0
M  V30 997 C 101.768 6.04508 -1.62238 0
M  V30 998 H 102.001 2.5738 -1.48805 0
M  V30 999 H 99.5338 1.27327 -0.873338 0
M  V30 1000 H 101.492 4.07358 0.506898 0
M  V30 1001 H 100.153 2.99338 0.951604 0
M  V30 1002 H 99.3458 5.03232 -0.278071 0
M  V30 1003 H 98.9478 3.5499 -1.17719 0
M  V30 1004 H 101.24 6.71133 -0.926622 0
M  V30 1005 H 102.183 6.64389 -2.44934 0
M  V30 1006 H 102.591 5.53559 -1.106 0
M  V30 1007 N 101.989 0.842826 1.3317 0
M  V30 1008 C 103.217 0.454055 2.01856 0
M  V30 1009 C 103.632 -0.94587 1.63397 0
M  V30 1010 O 102.989 -1.61534 0.849302 0
M  V30 1011 C 103.04 0.569715 3.56982 0
M  V30 1012 O 102.761 1.91448 3.94055 0
M  V30 1013 C 104.262 0.178412 4.42941 0
M  V30 1014 H 101.482 0.17979 0.646465 0
M  V30 1015 H 104.026 1.1365 1.70012 0
M  V30 1016 H 102.181 -0.0648587 3.87346 0
M  V30 1017 H 102.595 1.90282 4.88767 0
M  V30 1018 H 104.069 0.310376 5.51127 0
M  V30 1019 H 104.546 -0.880056 4.30293 0
M  V30 1020 H 105.152 0.787579 4.17944 0
M  V30 1021 N 103.467 -1.45747 0.599634 0
M  V30 1022 C 104.43 -2.28917 -0.113835 0
M  V30 1023 C 105.43 -1.3933 -0.802729 0
M  V30 1024 O 106.62 -1.61534 -0.652103 0
M  V30 1025 C 103.752 -3.20152 -1.17114 0
M  V30 1026 H 104.945 -2.93478 0.617289 0
M  V30 1027 H 102.498 -1.52137 0.358327 0
M  V30 1028 H 103.233 -2.60374 -1.93329 0
M  V30 1029 H 103.018 -3.86133 -0.681468 0
M  V30 1030 H 104.508 -3.82708 -1.67105 0
M  V30 1031 N 104.945 -0.338344 -1.53925 0
M  V30 1032 C 106.191 0.260143 -2.01125 0
M  V30 1033 C 106.524 1.50617 -1.22589 0
M  V30 1034 O 105.799 1.91979 -0.312113 0
M  V30 1035 C 106.082 0.579499 -3.55407 0
M  V30 1036 C 105.935 -0.678264 -4.44657 0
M  V30 1037 C 107.254 1.39122 -4.17532 0
M  V30 1038 H 104.373 0.0930772 -0.731099 0
M  V30 1039 H 107.015 -0.457852 -1.84401 0
M  V30 1040 H 105.165 1.19118 -3.69788 0
M  V30 1041 H 106.837 -1.31631 -4.42121 0
M  V30 1042 H 105.08 -1.3042 -4.13731 0
M  V30 1043 H 105.751 -0.410143 -5.50474 0
M  V30 1044 H 108.227 0.874035 -4.06817 0
M  V30 1045 H 107.103 1.58342 -5.25565 0
M  V30 1046 H 107.364 2.39178 -3.71815 0
M  V30 1047 N 106.423 1.57458 -0.0668435 0
M  V30 1048 C 107.353 2.15468 0.899764 0
M  V30 1049 C 108.334 1.08042 1.31381 0
M  V30 1050 O 109.519 1.36054 1.38574 0
M  V30 1051 C 106.649 2.71232 2.16911 0
M  V30 1052 C 105.603 3.83781 1.89463 0
M  V30 1053 C 104.929 4.26127 3.22986 0
M  V30 1054 C 106.229 5.08238 1.20381 0
M  V30 1055 H 107.923 2.96488 0.416529 0
M  V30 1056 H 105.469 1.4262 0.198908 0
M  V30 1057 H 107.422 3.10458 2.84945 0
M  V30 1058 H 106.146 1.87426 2.67468 0
M  V30 1059 H 104.805 3.45051 1.23836 0
M  V30 1060 H 104.453 3.39249 3.71374 0
M  V30 1061 H 104.153 5.01993 3.05413 0
M  V30 1062 H 105.677 4.67966 3.92225 0
M  V30 1063 H 107.091 5.44811 1.78475 0
M  V30 1064 H 105.488 5.89349 1.13083 0
M  V30 1065 H 106.558 4.84558 0.182153 0
M  V30 1066 N 107.901 -0.206675 1.56239 0
M  V30 1067 C 108.848 -1.25617 1.93621 0
M  V30 1068 C 109.818 -1.45824 0.795274 0
M  V30 1069 O 111.003 -1.59148 1.05245 0
M  V30 1070 C 108.143 -2.59839 2.27107 0
M  V30 1071 C 107.256 -2.47308 3.54207 0
M  V30 1072 C 106.391 -3.74155 3.7707 0
M  V30 1073 C 105.43 -3.56407 4.97635 0
M  V30 1074 N 104.567 -4.75238 5.1681 0
M  V30 1075 H 109.407 -0.930383 2.83104 0
M  V30 1076 H 106.944 -0.448065 1.4011 0
M  V30 1077 H 108.902 -3.38021 2.44535 0
M  V30 1078 H 107.532 -2.90485 1.40778 0
M  V30 1079 H 106.584 -1.60483 3.4489 0
M  V30 1080 H 107.896 -2.30122 4.42544 0
M  V30 1081 H 107.05 -4.60778 3.94675 0
M  V30 1082 H 105.789 -3.94282 2.87042 0
M  V30 1083 H 104.794 -2.68168 4.79964 0
M  V30 1084 H 106.019 -3.37736 5.89161 0
M  V30 1085 H 103.965 -4.95651 4.29728 0
M  V30 1086 H 103.882 -4.60835 5.99306 0
M  V30 1087 H 105.15 -5.63246 5.38864 0
M  V30 1088 N 109.379 -1.50304 -0.473955 0
M  V30 1089 C 110.656 -1.51667 -1.23518 0
M  V30 1090 C 111.036 -0.259701 -2.09496 0
M  V30 1091 O 110.384 0.756986 -2.15597 0
M  V30 1092 C 110.594 -2.81082 -2.06868 0
M  V30 1093 C 111.942 -3.31631 -2.65153 0
M  V30 1094 O 112.966 -2.82384 -2.17113 0
M  V30 1095 O 111.825 -4.17471 -3.52675 0
M  V30 1096 H 108.919 -0.60822 -0.560355 0
M  V30 1097 H 111.465 -1.62592 -0.486011 0
M  V30 1098 H 110.237 -3.64041 -1.4349 0
M  V30 1099 H 109.86 -2.73146 -2.88924 0
M  V30 1100 N 110.857 0.726932 -1.39834 0
M  V30 1101 C 112.103 1.48884 -1.377 0
M  V30 1102 C 112.436 1.94185 0.0244852 0
M  V30 1103 O 111.711 1.67361 0.990986 0
M  V30 1104 C 111.994 2.72288 -2.3565 0
M  V30 1105 C 111.847 2.32956 -3.84775 0
M  V30 1106 C 113.166 3.74414 -2.31306 0
M  V30 1107 H 110.285 0.540062 -0.5015 0
M  V30 1108 H 112.927 0.830547 -1.70886 0
M  V30 1109 H 111.077 3.28457 -2.07481 0
M  V30 1110 H 112.749 1.82356 -4.23726 0
M  V30 1111 H 110.992 1.65088 -4.01159 0
M  V30 1112 H 111.663 3.21362 -4.4881 0
M  V30 1113 H 114.139 3.27849 -2.56231 0
M  V30 1114 H 113.015 4.58414 -3.01907 0
M  V30 1115 H 113.276 4.21909 -1.32081 0
M  V30 1116 N 112.336 1.25143 0.95797 0
M  V30 1117 C 113.284 1.05019 2.07542 0
M  V30 1118 C 114.278 -0.0178751 1.69391 0
M  V30 1119 O 115.484 0.137472 1.79474 0
M  V30 1120 H 111.859 0.32265 0.679265 0
M  V30 1121 H 113.83 1.99759 2.21673 0
M  V30 1122 C 112.579 0.682074 3.40944 0
M  V30 1123 H 111.902 1.49573 3.70767 0
M  V30 1124 H 113.342 0.580945 4.20001 0
M  V30 1125 C 111.801 -0.611608 3.31302 0
M  V30 1126 O 112.331 -1.65465 3.66038 0
M  V30 1127 N 110.537 -0.595982 2.84423 0
M  V30 1128 H 110.084 0.253192 2.56353 0
M  V30 1129 H 110.042 -1.46173 2.78354 0
M  V30 1130 N 113.814 -1.1601 1.06675 0
M  V30 1131 C 114.744 -2.22688 0.702307 0
M  V30 1132 C 115.725 -1.67306 -0.307032 0
M  V30 1133 O 116.91 -1.93352 -0.181305 0
M  V30 1134 C 114.04 -3.47178 0.092038 0
M  V30 1135 C 112.994 -4.15477 1.02777 0
M  V30 1136 C 112.32 -5.33963 0.28061 0
M  V30 1137 C 113.62 -4.66019 2.35846 0
M  V30 1138 H 115.314 -2.53429 1.59419 0
M  V30 1139 H 112.86 -1.21813 0.767961 0
M  V30 1140 H 114.813 -4.21037 -0.174814 0
M  V30 1141 H 113.537 -3.15749 -0.834877 0
M  V30 1142 H 112.196 -3.43549 1.27944 0
M  V30 1143 H 111.844 -4.98788 -0.649545 0
M  V30 1144 H 111.544 -5.806 0.904258 0
M  V30 1145 H 113.068 -6.10596 0.021396 0
M  V30 1146 H 114.482 -5.3144 2.15045 0
M  V30 1147 H 112.879 -5.23293 2.93743 0
M  V30 1148 H 113.949 -3.82023 2.98641 0
M  V30 1149 N 115.292 -0.849877 -1.32721 0
M  V30 1150 C 116.708 -0.539102 -1.50219 0
M  V30 1151 C 116.908 0.931271 -1.78689 0
M  V30 1152 O 115.964 1.71455 -1.85363 0
M  V30 1153 C 117.277 -1.42196 -2.64954 0
M  V30 1154 C 118.825 -1.42189 -2.78839 0
M  V30 1155 C 119.3 -2.28985 -3.96648 0
M  V30 1156 N 120.791 -2.26754 -4.03902 0
M  V30 1157 C 121.526 -2.90644 -4.94281 0
M  V30 1158 N 121.022 -3.63629 -5.897 0
M  V30 1159 N 122.815 -2.80057 -4.87365 0
M  V30 1160 H 114.966 -1.80156 -1.12506 0
M  V30 1161 H 117.229 -0.769217 -0.554085 0
M  V30 1162 H 116.935 -2.46733 -2.50631 0
M  V30 1163 H 116.809 -1.10591 -3.60624 0
M  V30 1164 H 119.196 -0.38419 -2.92588 0
M  V30 1165 H 119.277 -1.77807 -1.83898 0
M  V30 1166 H 118.921 -3.32819 -3.83658 0
M  V30 1167 H 118.851 -1.90702 -4.90857 0
M  V30 1168 H 121.342 -1.73688 -3.3562 0
M  V30 1169 H 121.655 -4.09558 -6.55349 0
M  V30 1170 H 120 -3.67737 -5.89741 0
M  V30 1171 H 123.191 -2.22593 -4.11789 0
M  V30 1172 H 123.364 -3.30132 -5.57599 0
M  V30 1173 N 116.77 1.45427 -0.607355 0
M  V30 1174 C 118.181 1.85756 -0.187535 0
M  V30 1175 C 118.532 1.5077 1.25551 0
M  V30 1176 O 117.657 0.93427 1.95193 0
M  V30 1177 C 118.252 3.37154 -0.333572 0
M  V30 1178 C 116.811 3.76387 0.0315542 0
M  V30 1179 C 115.958 2.69377 -0.658117 0
M  V30 1180 H 118.909 1.36231 -0.81405 0
M  V30 1181 H 118.93 3.78014 0.43428 0
M  V30 1182 H 118.442 3.62586 -1.38393 0
M  V30 1183 H 116.543 3.56571 1.0811 0
M  V30 1184 H 116.656 4.77731 -0.361935 0
M  V30 1185 H 115.02 2.5452 -0.0957873 0
M  V30 1186 H 115.803 2.97646 -1.7106 0
M  V30 1187 N 118.248 0.346503 1.53744 0
M  V30 1188 C 119.158 -0.517293 2.28826 0
M  V30 1189 C 120.174 -1.10935 1.3405 0
M  V30 1190 O 121.35 -1.1244 1.6709 0
M  V30 1191 C 118.415 -1.65098 3.04866 0
M  V30 1192 C 117.476 -1.0884 4.15274 0
M  V30 1193 C 116.709 -2.16806 4.87679 0
M  V30 1194 O 116.932 -3.3758 4.59778 0
M  V30 1195 O 115.866 -1.80934 5.74061 0
M  V30 1196 H 119.692 0.0931396 3.03557 0
M  V30 1197 H 117.277 0.111458 1.48984 0
M  V30 1198 H 119.159 -2.31053 3.5241 0
M  V30 1199 H 117.834 -2.24717 2.32989 0
M  V30 1200 H 116.741 -0.3933 3.72027 0
M  V30 1201 H 118.074 -0.537036 4.89261 0
M  V30 1202 N 119.726 -1.57421 0.075193 0
M  V30 1203 C 120.658 -2.09904 -0.920483 0
M  V30 1204 C 121.671 -1.03191 -1.25918 0
M  V30 1205 O 122.86 -1.30695 -1.21577 0
M  V30 1206 C 119.96 -2.54726 -2.23534 0
M  V30 1207 C 119.133 -3.8505 -2.07498 0
M  V30 1208 C 118.192 -4.15929 -3.22319 0
M  V30 1209 O 117.218 -4.85474 -2.9716 0
M  V30 1210 N 118.42 -3.69745 -4.47514 0
M  V30 1211 H 121.185 -2.95954 -0.472359 0
M  V30 1212 H 118.746 -1.61523 -0.110444 0
M  V30 1213 H 120.738 -2.72443 -2.9926 0
M  V30 1214 H 119.308 -1.73795 -2.59835 0
M  V30 1215 H 118.528 -3.76679 -1.16219 0
M  V30 1216 H 119.816 -4.70348 -1.94038 0
M  V30 1217 H 119.214 -3.13569 -4.7084 0
M  V30 1218 H 117.771 -3.92655 -5.20255 0
M  V30 1219 N 121.204 0.198386 -1.56346 0
M  V30 1220 C 122.134 1.24865 -1.9731 0
M  V30 1221 C 123.115 1.47651 -0.844576 0
M  V30 1222 O 124.3 1.59444 -1.10866 0
M  V30 1223 C 121.43 2.59358 -2.30977 0
M  V30 1224 C 120.384 2.5119 -3.46537 0
M  V30 1225 C 119.71 3.89926 -3.65871 0
M  V30 1226 C 121.01 2.03977 -4.80823 0
M  V30 1227 H 122.704 0.908252 -2.85291 0
M  V30 1228 H 120.25 0.435462 -1.37258 0
M  V30 1229 H 122.203 3.33011 -2.58228 0
M  V30 1230 H 120.927 2.95132 -1.39874 0
M  V30 1231 H 119.586 1.79993 -3.19371 0
M  V30 1232 H 119.234 4.23046 -2.72105 0
M  V30 1233 H 118.934 3.85336 -4.4361 0
M  V30 1234 H 120.458 4.65205 -3.95495 0
M  V30 1235 H 121.872 2.67386 -5.07127 0
M  V30 1236 H 120.269 2.10397 -5.62008 0
M  V30 1237 H 121.339 0.992861 -4.74626 0
M  V30 1238 N 122.682 1.50554 0.465978 0
M  V30 1239 C 123.93 1.61479 1.21528 0
M  V30 1240 C 124.251 0.319596 1.92363 0
M  V30 1241 O 123.521 -0.663194 1.84333 0
M  V30 1242 H 122.101 0.595055 0.451573 0
M  V30 1243 H 124.763 1.87355 0.53704 0
M  V30 1244 H 123.859 2.42846 1.96042 0
M  V30 1245 N 124.16 -0.719506 1.40217 0
M  V30 1246 C 125.437 -1.47221 1.28784 0
M  V30 1247 C 125.817 -2.10883 -0.0956067 0
M  V30 1248 O 125.165 -1.99833 -1.10811 0
M  V30 1249 C 125.375 -2.5111 2.42373 0
M  V30 1250 C 126.723 -3.17053 2.82423 0
M  V30 1251 O 127.747 -2.61429 2.41937 0
M  V30 1252 O 126.606 -4.17742 3.52355 0
M  V30 1253 H 123.7 -0.654491 0.50554 0
M  V30 1254 H 126.246 -0.752014 1.52128 0
M  V30 1255 H 125.018 -2.02556 3.34793 0
M  V30 1256 H 124.641 -3.3067 2.20778 0
M  V30 1257 N 125.638 -1.25649 -0.95132 0
M  V30 1258 C 126.887 -1.09988 -1.69073 0
M  V30 1259 C 127.2 0.358355 -1.92289 0
M  V30 1260 O 128.406 0.635466 -2.63958 0
M  V30 1261 C 126.862 -1.92012 -3.044 0
M  V30 1262 C 126.47 -3.42347 -2.88968 0
M  V30 1263 C 128.214 -1.8493 -3.82101 0
M  V30 1264 C 126.121 -4.16655 -4.19705 0
M  V30 1265 H 125.051 -0.407993 -0.63408 0
M  V30 1266 H 127.702 -1.49873 -1.05879 0
M  V30 1267 H 126.084 -1.44952 -3.68517 0
M  V30 1268 H 127.258 -3.97104 -2.33762 0
M  V30 1269 H 125.573 -3.50557 -2.24719 0
M  V30 1270 H 128.17 -2.37739 -4.78941 0
M  V30 1271 H 128.513 -0.817883 -4.08187 0
M  V30 1272 H 129.046 -2.29758 -3.2474 0
M  V30 1273 H 125.785 -5.20224 -3.98807 0
M  V30 1274 H 125.305 -3.66681 -4.74663 0
M  V30 1275 H 126.984 -4.24551 -4.88227 0
M  V30 1276 N 127.117 1.15442 -1.07289 0
M  V30 1277 C 128.357 1.8788 -0.805012 0
M  V30 1278 C 128.721 1.80413 0.656907 0
M  V30 1279 O 129.922 2.47874 1.0398 0
M  V30 1280 C 128.193 3.3298 -1.29843 0
M  V30 1281 S 129.752 4.23158 -1.16114 0
M  V30 1282 H 126.57 0.64839 -0.291739 0
M  V30 1283 H 129.172 1.39285 -1.37186 0
M  V30 1284 H 127.876 3.35958 -2.35712 0
M  V30 1285 H 127.407 3.86629 -0.726767 0
M  V30 1286 H 129.422 4.96103 -0.0982778 0
M  V30 1287 N 128.595 0.856903 1.32268 0
M  V30 1288 C 129.841 0.462069 1.97466 0
M  V30 1289 C 130.174 -0.980298 1.67642 0
M  V30 1290 O 129.449 -1.68824 0.965858 0
M  V30 1291 C 129.732 0.704336 3.53145 0
M  V30 1292 C 129.585 2.19529 3.9259 0
M  V30 1293 C 130.904 0.1622 4.39801 0
M  V30 1294 H 128.023 0.169357 0.717278 0
M  V30 1295 H 130.665 1.07574 1.56614 0
M  V30 1296 H 128.815 0.181999 3.88073 0
M  V30 1297 H 130.487 2.78387 3.67829 0
M  V30 1298 H 128.73 2.67292 3.41668 0
M  V30 1299 H 129.401 2.31549 5.01088 0
M  V30 1300 H 131.877 0.608905 4.11621 0
M  V30 1301 H 130.753 0.361265 5.4771 0
M  V30 1302 H 131.014 -0.935158 4.32096 0
M  V30 1303 N 130.073 -1.45103 0.615059 0
M  V30 1304 C 131.321 -2.01784 0.112955 0
M  V30 1305 C 131.642 -1.48504 -1.26378 0
M  V30 1306 O 130.912 -0.682245 -1.83636 0
M  V30 1307 H 129.492 -0.745993 0.0387668 0
M  V30 1308 H 132.154 -1.77808 0.798141 0
M  V30 1309 H 131.25 -3.12025 0.0684069 0
M  V30 1310 N 131.551 -0.354651 -1.53558 0
M  V30 1311 C 132.499 0.512195 -2.26891 0
M  V30 1312 C 133.493 1.09263 -1.29452 0
M  V30 1313 O 134.699 1.03709 -1.47121 0
M  V30 1314 H 131.074 0.183878 -0.729173 0
M  V30 1315 H 133.045 -0.128202 -2.98124 0
M  V30 1316 C 131.794 1.64563 -3.06291 0
M  V30 1317 H 131.117 1.20829 -3.81104 0
M  V30 1318 H 132.557 2.22711 -3.60799 0
M  V30 1319 C 131.016 2.58158 -2.16462 0
M  V30 1320 O 131.546 3.60695 -1.76811 0
M  V30 1321 N 129.752 2.27096 -1.81317 0
M  V30 1322 H 129.299 1.43751 -2.1376 0
M  V30 1323 H 129.257 2.89975 -1.21498 0
M  V30 1324 N 133.029 1.57378 -0.0835403 0
M  V30 1325 C 134.275 1.94217 0.583733 0
M  V30 1326 C 134.608 0.964653 1.68547 0
M  V30 1327 O 133.883 -0.00422258 1.945 0
M  V30 1328 C 134.166 3.41253 1.14972 0
M  V30 1329 C 134.019 4.49768 0.0538277 0
M  V30 1330 C 135.338 3.89352 2.05166 0
M  V30 1331 H 132.457 0.706233 0.210724 0
M  V30 1332 H 135.099 1.89392 -0.1519 0
M  V30 1333 H 133.249 3.45496 1.77665 0
M  V30 1334 H 134.921 4.57641 -0.579851 0
M  V30 1335 H 133.164 4.29432 -0.614068 0
M  V30 1336 H 133.835 5.49817 0.490452 0
M  V30 1337 H 136.311 3.87189 1.52393 0
M  V30 1338 H 135.187 4.92822 2.41698 0
M  V30 1339 H 135.448 3.27973 2.96456 0
M  V30 1340 N 134.507 -0.190092 1.56449 0
M  V30 1341 C 135.437 -1.23816 1.97969 0
M  V30 1342 C 136.418 -1.47201 0.852395 0
M  V30 1343 O 137.603 -1.58854 1.1171 0
M  V30 1344 C 134.733 -2.5813 2.3235 0
M  V30 1345 C 133.687 -2.49348 3.47864 0
M  V30 1346 C 133.013 -3.8798 3.67934 0
M  V30 1347 C 134.313 -2.01424 4.81898 0
M  V30 1348 H 136.007 -0.89311 2.85769 0
M  V30 1349 H 133.553 -0.428177 1.37487 0
M  V30 1350 H 135.506 -3.31637 2.59991 0
M  V30 1351 H 134.23 -2.94386 1.41438 0
M  V30 1352 H 132.889 -1.78297 3.20321 0
M  V30 1353 H 132.537 -4.21597 2.74344 0
M  V30 1354 H 132.237 -3.82978 4.45648 0
M  V30 1355 H 133.761 -4.63101 3.97957 0
M  V30 1356 H 135.175 -2.64693 5.08538 0
M  V30 1357 H 133.572 -2.07413 5.63116 0
M  V30 1358 H 134.642 -0.967677 4.75146 0
M  V30 1359 N 135.985 -1.50799 -0.457987 0
M  V30 1360 C 136.917 -1.66786 -1.57211 0
M  V30 1361 C 137.93 -0.548962 -1.53265 0
M  V30 1362 O 139.119 -0.8226 -1.58416 0
M  V30 1363 C 136.219 -1.64834 -2.96113 0
M  V30 1364 C 135.392 -2.92971 -3.24787 0
M  V30 1365 C 134.451 -2.83485 -4.43309 0
M  V30 1366 O 133.477 -3.5744 -4.42973 0
M  V30 1367 N 134.679 -1.97929 -5.45714 0
M  V30 1368 H 137.444 -2.62889 -1.43909 0
M  V30 1369 H 135.005 -1.48427 -0.646617 0
M  V30 1370 H 136.997 -1.56084 -3.7339 0
M  V30 1371 H 135.567 -0.764118 -3.03117 0
M  V30 1372 H 134.787 -3.15749 -2.36 0
M  V30 1373 H 136.075 -3.77834 -3.40762 0
M  V30 1374 H 135.473 -1.37182 -5.48815 0
M  V30 1375 H 134.03 -1.95073 -6.21924 0
M  V30 1376 N 137.463 0.71206 -1.40597 0
M  V30 1377 C 138.874 1.29135 -1.34837 0
M  V30 1378 C 139.225 1.96186 -0.0235395 0
M  V30 1379 O 138.35 1.97768 0.878444 0
M  V30 1380 C 138.945 2.34827 -2.44217 0
M  V30 1381 C 137.504 2.88371 -2.41907 0
M  V30 1382 C 136.651 1.62202 -2.24913 0
M  V30 1383 H 139.602 0.507944 -1.50352 0
M  V30 1384 H 139.623 3.15749 -2.12327 0
M  V30 1385 H 139.135 1.85996 -3.40627 0
M  V30 1386 H 137.236 3.41422 -1.49204 0
M  V30 1387 H 137.349 3.39925 -3.37621 0
M  V30 1388 H 135.713 1.874 -1.72492 0
M  V30 1389 H 136.496 1.15391 -3.23326 0
M  V30 1390 N 138.941 1.26152 0.944643 0
M  V30 1391 C 140.189 1.11271 1.6871 0
M  V30 1392 C 140.51 -0.345166 1.91921 0
M  V30 1393 O 139.78 -1.24387 1.51343 0
M  V30 1394 H 138.36 0.408783 0.625224 0
M  V30 1395 H 141.022 1.58427 1.1352 0
M  V30 1396 H 140.118 1.62879 2.66227 0
M  V30 1397 N 140.419 -1.14872 1.07899 0
M  V30 1398 C 141.382 -2.17986 0.708161 0
M  V30 1399 C 142.382 -1.58775 -0.25442 0
M  V30 1400 O 143.572 -1.74166 -0.034645 0
M  V30 1401 C 140.704 -3.40871 0.0446929 0
M  V30 1402 H 141.897 -2.52306 1.62116 0
M  V30 1403 H 139.45 -1.2943 0.876218 0
M  V30 1404 H 140.185 -3.12124 -0.880281 0
M  V30 1405 H 139.97 -3.8511 0.737091 0
M  V30 1406 H 141.46 -4.17121 -0.19991 0
M  V30 1407 N 141.898 -0.863906 -1.31812 0
M  V30 1408 C 143.146 -0.470904 -1.96537 0
M  V30 1409 C 143.467 0.978771 -1.68657 0
M  V30 1410 O 142.737 1.6853 -0.998717 0
M  V30 1411 H 141.317 -0.171148 -0.72713 0
M  V30 1412 H 143.979 -1.10236 -1.60729 0
M  V30 1413 H 143.075 -0.623616 -3.05806 0
M  V30 1414 N 143.376 1.44774 -0.622745 0
M  V30 1415 C 144.339 2.29069 0.0774015 0
M  V30 1416 C 145.339 1.4059 0.780461 0
M  V30 1417 O 146.529 1.62551 0.626322 0
M  V30 1418 C 143.661 3.21974 1.12006 0
M  V30 1419 H 144.854 2.92459 -0.663901 0
M  V30 1420 H 142.407 1.51548 -0.382486 0
M  V30 1421 H 143.142 2.63417 1.89162 0
M  V30 1422 H 142.927 3.87168 0.619951 0
M  V30 1423 H 144.417 3.85318 1.60995 0
M  V30 1424 N 144.854 0.36279 1.53368 0
M  V30 1425 C 146.103 -0.22888 2.00397 0
M  V30 1426 C 146.416 -1.50096 1.25421 0
M  V30 1427 O 147.622 -2.17106 1.63025 0
M  V30 1428 C 146.078 -0.458417 3.56969 0
M  V30 1429 C 145.686 0.798877 4.4082 0
M  V30 1430 C 147.43 -1.00789 4.12361 0
M  V30 1431 C 145.337 0.539078 5.88938 0
M  V30 1432 H 144.267 -0.089305 0.748693 0
M  V30 1433 H 146.918 0.481099 1.77081 0
M  V30 1434 H 145.3 -1.22959 3.76427 0
M  V30 1435 H 146.474 1.57262 4.33134 0
M  V30 1436 H 144.789 1.27137 3.96516 0
M  V30 1437 H 147.386 -1.21754 5.20653 0
M  V30 1438 H 147.729 -1.9692 3.66781 0
M  V30 1439 H 148.262 -0.296961 3.9669 0
M  V30 1440 H 145.001 1.47064 6.3879 0
M  V30 1441 H 144.521 -0.196222 5.99479 0
M  V30 1442 H 146.2 0.163542 6.46793 0
M  V30 1443 N 146.332 -1.57332 0.0918853 0
M  V30 1444 C 147.265 -2.09499 -0.904735 0
M  V30 1445 C 148.243 -1.00479 -1.27839 0
M  V30 1446 O 149.427 -1.27954 -1.38419 0
M  V30 1447 C 146.554 -2.56931 -2.2069 0
M  V30 1448 C 145.6 -3.77579 -1.98334 0
M  V30 1449 S 146.433 -5.21317 -1.22428 0
M  V30 1450 C 147.589 -5.72097 -2.53882 0
M  V30 1451 H 147.822 -2.93705 -0.460922 0
M  V30 1452 H 145.355 -1.53923 -0.121332 0
M  V30 1453 H 147.313 -2.84917 -2.95521 0
M  V30 1454 H 145.974 -1.72956 -2.62192 0
M  V30 1455 H 145.167 -4.08824 -2.94752 0
M  V30 1456 H 144.769 -3.5007 -1.31633 0
M  V30 1457 H 147.061 -5.80168 -3.49874 0
M  V30 1458 H 148.004 -6.70654 -2.27219 0
M  V30 1459 H 148.412 -5.00012 -2.62007 0
M  V30 1460 N 147.81 0.181792 -1.56548 0
M  V30 1461 C 148.773 1.20894 -1.94724 0
M  V30 1462 C 149.773 1.37738 -0.829747 0
M  V30 1463 O 150.963 1.35323 -1.09697 0
M  V30 1464 C 148.095 2.57593 -2.23291 0
M  V30 1465 H 149.288 0.882275 -2.86629 0
M  V30 1466 H 146.841 0.423838 -1.50444 0
M  V30 1467 H 147.576 2.95291 -1.34067 0
M  V30 1468 H 147.361 2.46735 -3.04736 0
M  V30 1469 H 148.851 3.31637 -2.53785 0
M  V30 1470 N 149.288 1.51039 0.449983 0
M  V30 1471 C 150.704 1.38934 0.785462 0
M  V30 1472 C 150.904 0.461817 1.96136 0
M  V30 1473 O 149.96 -0.0877389 2.52348 0
M  V30 1474 C 151.273 2.80724 1.0777 0
M  V30 1475 C 152.821 2.89787 1.1829 0
M  V30 1476 C 153.296 4.32457 1.50815 0
M  V30 1477 N 154.787 4.35505 1.57764 0
M  V30 1478 C 155.522 5.42914 1.84477 0
M  V30 1479 N 155.018 6.60502 2.09068 0
M  V30 1480 N 156.811 5.3038 1.86155 0
M  V30 1481 H 148.962 2.09904 -0.324647 0
M  V30 1482 H 151.225 0.944378 -0.0827957 0
M  V30 1483 H 150.931 3.50531 0.286498 0
M  V30 1484 H 150.805 3.19273 2.00859 0
M  V30 1485 H 153.192 2.20186 1.96474 0
M  V30 1486 H 153.273 2.54752 0.231314 0
M  V30 1487 H 152.917 5.02603 0.731622 0
M  V30 1488 H 152.847 4.64995 2.47158 0
M  V30 1489 H 155.338 3.50724 1.40715 0
M  V30 1490 H 155.651 7.38158 2.28785 0
M  V30 1491 H 153.996 6.63639 2.06416 0
M  V30 1492 H 157.187 4.37505 1.66454 0
M  V30 1493 H 157.36 6.1417 2.06637 0
M  V30 1494 N 150.766 -0.704594 1.40972 0
M  V30 1495 C 152.015 -1.46018 1.39146 0
M  V30 1496 C 152.328 -1.956 0.000589254 0
M  V30 1497 O 153.534 -2.71137 -0.1403 0
M  V30 1498 C 151.99 -2.63996 2.4461 0
M  V30 1499 C 151.598 -2.21238 3.89561 0
M  V30 1500 C 153.342 -3.41677 2.51907 0
M  V30 1501 C 151.249 -3.3612 4.86598 0
M  V30 1502 H 150.179 -0.548444 0.517422 0
M  V30 1503 H 152.83 -0.765784 1.66757 0
M  V30 1504 H 151.212 -3.3566 2.10115 0
M  V30 1505 H 152.386 -1.56923 4.33257 0
M  V30 1506 H 150.701 -1.56574 3.85841 0
M  V30 1507 H 153.298 -4.27182 3.2159 0
M  V30 1508 H 153.641 -3.86247 1.55303 0
M  V30 1509 H 154.174 -2.77064 2.85448 0
M  V30 1510 H 150.913 -2.96572 5.84573 0
M  V30 1511 H 150.433 -3.99315 4.47557 0
M  V30 1512 H 152.112 -4.02029 5.06934 0
M  V30 1513 N 152.244 -1.26651 -0.937939 0
M  V30 1514 C 153.207 -1.08546 -2.01867 0
M  V30 1515 C 154.207 -0.0327327 -1.60767 0
M  V30 1516 O 155.397 -0.276427 -1.71993 0
M  V30 1517 C 152.529 -0.651711 -3.34613 0
M  V30 1518 H 153.722 -2.04502 -2.1936 0
M  V30 1519 H 151.275 -1.09294 -1.11734 0
M  V30 1520 H 152.01 0.309696 -3.22818 0
M  V30 1521 H 151.795 -1.41189 -3.65798 0
M  V30 1522 H 153.285 -0.546973 -4.14002 0
M  V30 1523 N 153.722 1.14298 -1.08507 0
M  V30 1524 C 154.654 2.1907 -0.673859 0
M  V30 1525 C 155.667 1.60381 0.279577 0
M  V30 1526 O 156.856 1.78374 0.0670754 0
M  V30 1527 C 153.956 3.38888 0.0290979 0
M  V30 1528 C 153.129 4.27103 -0.943494 0
M  V30 1529 C 152.188 5.25477 -0.275676 0
M  V30 1530 O 151.214 5.61709 -0.920401 0
M  V30 1531 N 152.416 5.7227 0.974013 0
M  V30 1532 H 155.181 2.54965 -1.57521 0
M  V30 1533 H 152.742 1.29528 -0.971287 0
M  V30 1534 H 154.734 4.01761 0.48683 0
M  V30 1535 H 153.304 3.01309 0.832555 0
M  V30 1536 H 152.524 3.61149 -1.58004 0
M  V30 1537 H 153.812 4.82905 -1.60251 0
M  V30 1538 H 153.21 5.44965 1.51755 0
M  V30 1539 H 151.767 6.37127 1.37522 0
M  V30 1540 N 155.201 0.870884 1.31352 0
M  V30 1541 C 156.448 0.482273 1.96673 0
M  V30 1542 C 156.776 -0.965638 1.68836 0
M  V30 1543 O 156.031 -1.69514 0.977937 0
M  V30 1544 C 156.33 0.687157 3.50732 0
M  V30 1545 C 155.996 2.108 3.9859 0
M  V30 1546 C 154.658 2.49656 4.1137 0
M  V30 1547 C 157.01 3.03459 4.23748 0
M  V30 1548 C 154.338 3.80412 4.46659 0
M  V30 1549 C 156.69 4.3373 4.60501 0
M  V30 1550 C 155.354 4.725 4.71487 0
M  V30 1551 H 154.624 0.176476 0.719679 0
M  V30 1552 H 157.271 1.10405 1.56471 0
M  V30 1553 H 155.576 -0.0177476 3.91796 0
M  V30 1554 H 157.273 0.366284 3.99324 0
M  V30 1555 H 153.863 1.79633 3.8914 0
M  V30 1556 H 158.047 2.74665 4.13368 0
M  V30 1557 H 153.303 4.1021 4.53362 0
M  V30 1558 H 157.477 5.05578 4.78919 0
M  V30 1559 H 155.104 5.73859 4.98588 0
M  V30 1560 N 156.679 -1.44442 0.630414 0
M  V30 1561 C 157.609 -2.33418 -0.0618083 0
M  V30 1562 C 158.59 -1.48165 -0.835541 0
M  V30 1563 O 159.775 -1.76886 -0.801564 0
M  V30 1564 C 156.905 -3.31222 -1.04449 0
M  V30 1565 C 155.859 -4.26288 -0.382436 0
M  V30 1566 C 155.185 -5.13954 -1.47497 0
M  V30 1567 C 156.485 -5.1744 0.710865 0
M  V30 1568 H 158.179 -2.91548 0.681184 0
M  V30 1569 H 155.725 -1.40191 0.329026 0
M  V30 1570 H 157.678 -3.92351 -1.53748 0
M  V30 1571 H 156.402 -2.71299 -1.81836 0
M  V30 1572 H 155.061 -3.6649 0.0899054 0
M  V30 1573 H 154.709 -4.50385 -2.2397 0
M  V30 1574 H 154.409 -5.7837 -1.03737 0
M  V30 1575 H 155.933 -5.77955 -1.96979 0
M  V30 1576 H 157.347 -5.72509 0.300996 0
M  V30 1577 H 155.744 -5.90455 1.07156 0
M  V30 1578 H 156.814 -4.58496 1.57829 0
M  V30 1579 N 158.157 -0.370918 -1.53173 0
M  V30 1580 C 159.382 0.220293 -2.06227 0
M  V30 1581 C 159.807 1.41243 -1.24225 0
M  V30 1582 O 159.165 1.79387 -0.262645 0
M  V30 1583 C 159.213 0.586663 -3.55796 0
M  V30 1584 O 158.317 1.68317 -3.76488 0
M  V30 1585 H 157.658 0.0308099 -0.663285 0
M  V30 1586 H 160.188 -0.533068 -1.97534 0
M  V30 1587 H 160.198 0.85617 -3.98916 0
M  V30 1588 H 158.873 -0.285013 -4.14922 0
M  V30 1589 H 157.45 1.40881 -3.45264 0
M  V30 1590 N 159.635 1.57281 -0.100228 0
M  V30 1591 C 160.912 1.86014 0.604812 0
M  V30 1592 C 161.292 0.998025 1.86018 0
M  V30 1593 O 160.64 0.0718184 2.28387 0
M  V30 1594 C 160.85 3.36784 0.915278 0
M  V30 1595 C 162.198 4.04957 1.27651 0
M  V30 1596 O 163.222 3.41695 1.00613 0
M  V30 1597 O 162.081 5.16593 1.7831 0
M  V30 1598 H 159.175 0.76942 0.303185 0
M  V30 1599 H 161.721 1.69176 -0.133313 0
M  V30 1600 H 160.493 3.91292 0.0248896 0
M  V30 1601 H 160.116 3.58987 1.70921 0
M  V30 1602 N 161.113 -0.173488 1.56642 0
M  V30 1603 C 162.362 -0.888758 1.81063 0
M  V30 1604 C 162.675 -1.83506 0.67712 0
M  V30 1605 O 163.881 -2.59254 0.806206 0
M  V30 1606 C 162.337 -1.63091 3.20826 0
M  V30 1607 C 161.945 -0.728357 4.4204 0
M  V30 1608 C 163.689 -2.33454 3.54541 0
M  V30 1609 C 161.596 -1.47062 5.72823 0
M  V30 1610 H 160.526 -0.335618 0.675186 0
M  V30 1611 H 163.177 -0.141712 1.82952 0
M  V30 1612 H 161.559 -2.42263 3.13248 0
M  V30 1613 H 162.733 0.0262449 4.60793 0
M  V30 1614 H 161.048 -0.134492 4.16183 0
M  V30 1615 H 163.645 -2.89578 4.49498 0
M  V30 1616 H 163.988 -3.08687 2.79317 0
M  V30 1617 H 164.521 -1.61227 3.63663 0
M  V30 1618 H 161.26 -0.760658 6.51072 0
M  V30 1619 H 160.78 -2.1986 5.58052 0
M  V30 1620 H 162.459 -2.01868 6.14702 0
M  V30 1621 N 162.591 -1.51276 -0.441967 0
M  V30 1622 C 164.002 -1.56244 -1.02199 0
M  V30 1623 C 164.353 -0.383149 -1.92422 0
M  V30 1624 O 163.478 0.500613 -2.1053 0
M  V30 1625 C 164.073 -2.83162 -1.86024 0
M  V30 1626 C 162.632 -2.90716 -2.39084 0
M  V30 1627 C 161.779 -2.50858 -1.18175 0
M  V30 1628 H 164.73 -1.5712 -0.223416 0
M  V30 1629 H 164.751 -2.66663 -2.71425 0
M  V30 1630 H 164.263 -3.68974 -1.20331 0
M  V30 1631 H 162.364 -2.09323 -3.08244 0
M  V30 1632 H 162.477 -3.94266 -2.72198 0
M  V30 1633 H 160.841 -2.03951 -1.52565 0
M  V30 1634 H 161.624 -3.3901 -0.541001 0
M  V30 1635 N 164.069 0.697108 -1.41344 0
M  V30 1636 C 164.979 1.84088 -1.45427 0
M  V30 1637 C 165.995 1.70545 -0.34501 0
M  V30 1638 O 167.171 1.92488 -0.592492 0
M  V30 1639 C 164.236 3.20056 -1.33286 0
M  V30 1640 C 163.297 3.45718 -2.54514 0
M  V30 1641 C 162.53 4.75199 -2.42944 0
M  V30 1642 O 162.753 5.51579 -1.45318 0
M  V30 1643 O 161.687 5.0161 -3.32672 0
M  V30 1644 H 165.513 1.836 -2.41919 0
M  V30 1645 H 163.098 0.849966 -1.22866 0
M  V30 1646 H 164.98 4.01236 -1.28794 0
M  V30 1647 H 163.655 3.2123 -0.39909 0
M  V30 1648 H 162.562 2.64474 -2.64583 0
M  V30 1649 H 163.895 3.49356 -3.46715 0
M  V30 1650 N 165.547 1.27147 0.931209 0
M  V30 1651 C 166.775 1.16082 1.71267 0
M  V30 1652 C 167.19 -0.282772 1.8667 0
M  V30 1653 O 166.547 -1.19283 1.38122 0
M  V30 1654 C 166.598 1.8358 3.11417 0
M  V30 1655 O 166.319 3.22299 2.96741 0
M  V30 1656 C 167.82 1.78597 4.05732 0
M  V30 1657 H 165.04 0.403758 0.535929 0
M  V30 1658 H 167.584 1.67953 1.16671 0
M  V30 1659 H 165.739 1.35623 3.62885 0
M  V30 1660 H 166.153 3.55851 3.85319 0
M  V30 1661 H 167.627 2.30444 5.01597 0
M  V30 1662 H 168.104 0.754564 4.3267 0
M  V30 1663 H 168.71 2.26152 3.60188 0
M  V30 1664 N 167.025 -1.13721 1.09112 0
M  V30 1665 C 168.271 -1.85198 0.826414 0
M  V30 1666 C 168.604 -1.83129 -0.646319 0
M  V30 1667 O 167.879 -1.2671 -1.47563 0
M  V30 1668 C 168.162 -3.33507 1.35812 0
M  V30 1669 C 168.015 -3.44108 2.89672 0
M  V30 1670 C 169.334 -4.28838 0.989256 0
M  V30 1671 H 166.453 -0.67243 0.301675 0
M  V30 1672 H 169.095 -1.33499 1.35197 0
M  V30 1673 H 167.245 -3.77666 0.911082 0
M  V30 1674 H 168.917 -3.08684 3.428 0
M  V30 1675 H 167.16 -2.85087 3.26967 0
M  V30 1676 H 167.831 -4.48388 3.21951 0
M  V30 1677 H 170.307 -3.92734 1.37475 0
M  V30 1678 H 169.183 -5.31051 1.38838 0
M  V30 1679 H 169.444 -4.4198 -0.102924 0
M  V30 1680 N 168.503 -0.877838 -1.30888 0
M  V30 1681 C 169.914 -0.544193 -1.78593 0
M  V30 1682 C 170.265 0.939301 -1.72254 0
M  V30 1683 O 169.39 1.7337 -1.29505 0
M  V30 1684 C 169.985 -0.98105 -3.24285 0
M  V30 1685 C 168.544 -0.698935 -3.69854 0
M  V30 1686 C 167.691 -1.168 -2.51502 0
M  V30 1687 H 170.642 -1.06278 -1.17859 0
M  V30 1688 H 170.663 -0.307009 -3.79259 0
M  V30 1689 H 170.175 -2.06079 -3.28866 0
M  V30 1690 H 168.276 0.369112 -3.70767 0
M  V30 1691 H 168.389 -1.28148 -4.61644 0
M  V30 1692 H 166.753 -0.587535 -2.47831 0
M  V30 1693 H 167.536 -2.25533 -2.58824 0
M  V30 1694 N 169.982 1.44106 -0.638065 0
M  V30 1695 C 170.912 2.33448 0.0494287 0
M  V30 1696 C 171.893 1.48606 0.827672 0
M  V30 1697 O 173.078 1.77308 0.792173 0
M  V30 1698 C 170.208 3.31771 1.02691 0
M  V30 1699 C 169.162 4.26485 0.359823 0
M  V30 1700 C 168.488 5.14729 1.44769 0
M  V30 1701 C 169.788 5.17056 -0.738296 0
M  V30 1702 H 171.482 2.91183 -0.696636 0
M  V30 1703 H 169.028 1.40014 -0.336456 0
M  V30 1704 H 170.981 3.93161 1.51666 0
M  V30 1705 H 169.705 2.7226 1.80395 0
M  V30 1706 H 168.364 3.66437 -0.10934 0
M  V30 1707 H 168.012 4.51566 2.21578 0
M  V30 1708 H 167.712 5.78913 1.00668 0
M  V30 1709 H 169.236 5.78991 1.93911 0
M  V30 1710 H 170.65 5.72342 -0.331354 0
M  V30 1711 H 169.047 5.89879 -1.10286 0
M  V30 1712 H 170.117 4.57652 -1.60258 0
M  V30 1713 N 171.46 0.379036 1.52974 0
M  V30 1714 C 172.685 -0.209353 2.06341 0
M  V30 1715 C 173.11 -1.40583 1.24972 0
M  V30 1716 O 172.468 -1.79246 0.272155 0
M  V30 1717 C 172.516 -0.567786 3.56102 0
M  V30 1718 O 171.62 -1.66318 3.77375 0
M  V30 1719 H 170.961 -0.0272919 0.663439 0
M  V30 1720 H 173.491 0.543536 1.97248 0
M  V30 1721 H 173.501 -0.835003 3.99364 0
M  V30 1722 H 172.176 0.307013 4.14765 0
M  V30 1723 H 170.753 -1.39048 3.46006 0
M  V30 1724 N 172.938 -1.57226 0.108567 0
M  V30 1725 C 174.166 -1.99179 -0.559954 0
M  V30 1726 C 174.581 -0.988022 -1.60884 0
M  V30 1727 O 173.938 0.0205512 -1.82488 0
M  V30 1728 C 173.989 -3.41159 -1.19552 0
M  V30 1729 O 173.71 -4.37694 -0.188577 0
M  V30 1730 C 175.211 -3.98188 -1.94837 0
M  V30 1731 H 172.431 -0.654228 -0.149088 0
M  V30 1732 H 174.975 -2.03598 0.19183 0
M  V30 1733 H 173.13 -3.37711 -1.89815 0
M  V30 1734 H 173.544 -5.20469 -0.649014 0
M  V30 1735 H 175.018 -4.99644 -2.34648 0
M  V30 1736 H 175.495 -3.3675 -2.81951 0
M  V30 1737 H 176.101 -4.0515 -1.2936 0
M  V30 1738 N 174.416 0.165178 -1.56732 0
M  V30 1739 C 175.662 0.882112 -1.82611 0
M  V30 1740 C 175.995 1.81628 -0.687378 0
M  V30 1741 O 175.27 1.92009 0.310267 0
M  V30 1742 C 175.553 1.67245 -3.18906 0
M  V30 1743 C 175.406 0.760987 -4.43316 0
M  V30 1744 C 176.725 2.63884 -3.52212 0
M  V30 1745 H 173.844 0.319242 -0.664269 0
M  V30 1746 H 176.486 0.148052 -1.89422 0
M  V30 1747 H 174.636 2.29824 -3.1323 0
M  V30 1748 H 176.308 0.147596 -4.61064 0
M  V30 1749 H 174.551 0.0694102 -4.33744 0
M  V30 1750 H 175.222 1.34962 -5.35247 0
M  V30 1751 H 177.698 2.11429 -3.58381 0
M  V30 1752 H 176.574 3.16245 -4.48643 0
M  V30 1753 H 176.835 3.44377 -2.77231 0
M  V30 1754 N 175.894 1.51508 0.433938 0
M  V30 1755 C 176.842 1.73646 1.54757 0
M  V30 1756 C 177.836 0.602854 1.5831 0
M  V30 1757 O 179.042 0.784318 1.62014 0
M  V30 1758 H 175.417 0.548718 0.51421 0
M  V30 1759 H 177.388 2.66991 1.33261 0
M  V30 1760 C 176.137 1.88172 2.92381 0
M  V30 1761 H 175.46 2.74808 2.90381 0
M  V30 1762 H 176.9 2.07672 3.6966 0
M  V30 1763 C 175.359 0.64239 3.30719 0
M  V30 1764 O 175.889 -0.201362 4.01195 0
M  V30 1765 N 174.095 0.485489 2.86516 0
M  V30 1766 H 173.642 1.17318 2.29334 0
M  V30 1767 H 173.6 -0.342482 3.12529 0
M  V30 1768 N 177.372 -0.689602 1.41712 0
M  V30 1769 C 178.788 -1.00093 1.24312 0
M  V30 1770 C 178.988 -2.01036 0.136729 0
M  V30 1771 O 178.044 -2.47562 -0.496918 0
M  V30 1772 C 179.357 -1.51985 2.59463 0
M  V30 1773 C 180.905 -1.63838 2.66695 0
M  V30 1774 C 181.38 -2.1913 4.02177 0
M  V30 1775 N 182.871 -2.26483 4.04054 0
M  V30 1776 C 183.606 -2.70306 5.0569 0
M  V30 1777 N 183.102 -3.13691 6.17713 0
M  V30 1778 N 184.895 -2.69923 4.9305 0
M  V30 1779 H 177.046 -0.0210029 2.1239 0
M  V30 1780 H 179.309 -0.0718733 0.945272 0
M  V30 1781 H 179.015 -0.85269 3.41207 0
M  V30 1782 H 178.889 -2.50103 2.82362 0
M  V30 1783 H 181.276 -2.29664 1.85306 0
M  V30 1784 H 181.357 -0.642492 2.476 0
M  V30 1785 H 181.001 -1.53918 4.84016 0
M  V30 1786 H 180.931 -3.19482 4.18615 0
M  V30 1787 H 183.422 -1.95874 3.23174 0
M  V30 1788 H 183.735 -3.45773 6.9113 0
M  V30 1789 H 182.08 -3.11585 6.21241 0
M  V30 1790 H 185.271 -2.35382 4.04614 0
M  V30 1791 H 185.444 -3.03758 5.72394 0
M  V30 1792 N 178.85 -1.27639 -0.924453 0
M  V30 1793 C 179.782 -1.06442 -2.02985 0
M  V30 1794 C 180.795 -0.0194771 -1.62788 0
M  V30 1795 O 181.984 -0.261388 -1.76576 0
M  V30 1796 C 179.084 -0.59327 -3.33667 0
M  V30 1797 C 178.257 -1.71123 -4.02537 0
M  V30 1798 C 177.316 -1.23527 -5.11495 0
M  V30 1799 O 176.342 -1.93553 -5.35281 0
M  V30 1800 N 177.544 -0.0926678 -5.80426 0
M  V30 1801 H 180.309 -2.01633 -2.2173 0
M  V30 1802 H 177.87 -1.19248 -1.09505 0
M  V30 1803 H 179.862 -0.258686 -4.03872 0
M  V30 1804 H 178.432 0.265502 -3.1147 0
M  V30 1805 H 177.652 -2.21593 -3.26022 0
M  V30 1806 H 178.94 -2.46145 -4.45298 0
M  V30 1807 H 178.338 0.491741 -5.63559 0
M  V30 1808 H 176.895 0.182714 -6.51544 0
M  V30 1809 N 180.328 1.1314 -1.09713 0
M  V30 1810 C 181.568 1.8613 -0.844683 0
M  V30 1811 C 181.932 1.81765 0.618491 0
M  V30 1812 O 183.133 2.50024 0.98699 0
M  V30 1813 C 181.404 3.30151 -1.36877 0
M  V30 1814 S 182.963 4.206 -1.25064 0
M  V30 1815 H 179.781 0.642056 -0.305427 0
M  V30 1816 H 182.383 1.36343 -1.4011 0
M  V30 1817 H 181.087 3.30883 -2.42786 0
M  V30 1818 H 180.618 3.85 -0.808614 0
M  V30 1819 H 182.633 4.95783 -0.203486 0
M  V30 1820 N 181.806 0.884767 1.30421 0
M  V30 1821 C 183.031 0.517288 2.00845 0
M  V30 1822 C 183.456 -0.886779 1.65885 0
M  V30 1823 O 182.814 -1.58768 0.875354 0
M  V30 1824 C 182.862 0.698994 3.5376 0
M  V30 1825 O 181.966 -0.255208 4.1161 0
M  V30 1826 H 181.307 0.203872 0.631927 0
M  V30 1827 H 183.837 1.19225 1.66272 0
M  V30 1828 H 183.847 0.597912 4.03595 0
M  V30 1829 H 182.522 1.72271 3.78544 0
M  V30 1830 H 181.099 -0.10784 3.72744 0
M  V30 1831 N 183.284 -1.43765 0.645699 0
M  V30 1832 C 184.509 -2.06767 0.161883 0
M  V30 1833 C 184.934 -1.48034 -1.16049 0
M  V30 1834 O 184.292 -0.587369 -1.71522 0
M  V30 1835 C 184.34 -3.60519 0.0762003 0
M  V30 1836 O 183.444 -4.00982 -0.963721 0
M  V30 1837 H 182.785 -0.657675 0.091429 0
M  V30 1838 H 185.315 -1.84397 0.886499 0
M  V30 1839 H 185.325 -4.07853 -0.109604 0
M  V30 1840 H 184 -4.02646 1.04157 0
M  V30 1841 H 182.577 -3.65253 -0.751312 0
M  V30 1842 N 184.763 -0.387143 -1.52771 0
M  V30 1843 C 186.011 0.195349 -2.01154 0
M  V30 1844 C 186.332 1.475 -1.27549 0
M  V30 1845 O 185.602 1.91878 -0.394924 0
M  V30 1846 H 184.182 0.075178 -0.743207 0
M  V30 1847 H 186.844 -0.518337 -1.87881 0
M  V30 1848 H 185.94 0.407096 -3.09434 0
M  V30 1849 N 186.241 1.57166 -0.116904 0
M  V30 1850 C 187.171 2.18222 0.830759 0
M  V30 1851 C 188.152 1.12167 1.27877 0
M  V30 1852 O 189.337 1.40394 1.34176 0
M  V30 1853 C 186.467 2.77996 2.08172 0
M  V30 1854 C 185.421 3.89614 1.77157 0
M  V30 1855 C 184.747 4.36187 3.09265 0
M  V30 1856 C 186.047 5.1181 1.04151 0
M  V30 1857 H 187.741 2.97664 0.321992 0
M  V30 1858 H 185.287 1.4318 0.153434 0
M  V30 1859 H 187.24 3.19366 2.74924 0
M  V30 1860 H 185.964 1.9584 2.6137 0
M  V30 1861 H 184.623 3.48816 1.12796 0
M  V30 1862 H 184.271 3.50893 3.60393 0
M  V30 1863 H 183.971 5.11455 2.89288 0
M  V30 1864 H 185.495 4.80207 3.77139 0
M  V30 1865 H 186.909 5.50214 1.61052 0
M  V30 1866 H 185.306 5.92648 0.942762 0
M  V30 1867 H 186.376 4.84892 0.0279022 0
M  V30 1868 N 187.719 -0.156864 1.56817 0
M  V30 1869 C 188.651 -1.21883 1.94106 0
M  V30 1870 C 189.664 -1.3971 0.835754 0
M  V30 1871 O 190.853 -1.39457 1.11418 0
M  V30 1872 C 187.953 -2.58527 2.19127 0
M  V30 1873 C 187.126 -2.61809 3.50393 0
M  V30 1874 C 186.185 -3.7992 3.64071 0
M  V30 1875 O 185.211 -3.65249 4.36557 0
M  V30 1876 N 186.413 -4.96973 2.99997 0
M  V30 1877 H 189.178 -0.901974 2.85805 0
M  V30 1878 H 186.739 -0.346513 1.58148 0
M  V30 1879 H 188.731 -3.36034 2.25529 0
M  V30 1880 H 187.301 -2.82545 1.33742 0
M  V30 1881 H 186.521 -1.7029 3.5552 0
M  V30 1882 H 187.809 -2.61024 4.36742 0
M  V30 1883 H 187.207 -5.11794 2.41004 0
M  V30 1884 H 185.764 -5.7229 3.11974 0
M  V30 1885 N 189.197 -1.51736 -0.425897 0
M  V30 1886 C 190.16 -1.73271 -1.50032 0
M  V30 1887 C 191.16 -0.602639 -1.4908 0
M  V30 1888 O 192.35 -0.87033 -1.509 0
M  V30 1889 C 189.482 -1.79969 -2.89523 0
M  V30 1890 H 190.675 -2.69172 -1.32237 0
M  V30 1891 H 188.228 -1.41899 -0.65532 0
M  V30 1892 H 188.963 -0.859241 -3.1271 0
M  V30 1893 H 188.748 -2.62109 -2.91619 0
M  V30 1894 H 190.238 -1.9843 -3.67444 0
M  V30 1895 N 190.675 0.682077 -1.42076 0
M  V30 1896 C 191.921 1.44428 -1.42367 0
M  V30 1897 C 192.254 1.94164 -0.0373056 0
M  V30 1898 O 191.529 1.70429 0.937239 0
M  V30 1899 C 191.812 2.64654 -2.44194 0
M  V30 1900 C 191.665 2.20596 -3.91991 0
M  V30 1901 C 192.984 3.66865 -2.431 0
M  V30 1902 H 190.103 0.523834 -0.518428 0
M  V30 1903 H 192.745 0.77576 -1.73442 0
M  V30 1904 H 190.895 3.2169 -2.17826 0
M  V30 1905 H 192.567 1.68783 -4.29313 0
M  V30 1906 H 190.81 1.52242 -4.06208 0
M  V30 1907 H 191.481 3.06921 -4.58807 0
M  V30 1908 H 193.957 3.19531 -2.66532 0
M  V30 1909 H 192.833 4.48577 -3.16339 0
M  V30 1910 H 193.094 4.17493 -1.45437 0
M  V30 1911 N 192.153 1.28127 0.917671 0
M  V30 1912 C 193.116 1.11744 2.00115 0
M  V30 1913 C 194.116 0.0583052 1.60694 0
M  V30 1914 O 195.306 0.303755 1.71531 0
M  V30 1915 C 192.438 0.704862 3.33533 0
M  V30 1916 H 193.631 2.07966 2.16079 0
M  V30 1917 H 191.184 1.11058 1.09981 0
M  V30 1918 H 191.919 -0.258299 3.2327 0
M  V30 1919 H 191.704 1.4699 3.63505 0
M  V30 1920 H 193.194 0.612768 4.1308 0
M  V30 1921 N 193.631 -1.12557 1.10312 0
M  V30 1922 C 194.856 -1.88405 0.867085 0
M  V30 1923 C 195.281 -1.79038 -0.576817 0
M  V30 1924 O 194.639 -1.14439 -1.40618 0
M  V30 1925 C 194.687 -3.3563 1.31851 0
M  V30 1926 O 193.791 -4.09565 0.482734 0
M  V30 1927 H 193.132 -0.585455 0.313271 0
M  V30 1928 H 195.662 -1.42352 1.4696 0
M  V30 1929 H 195.672 -3.86469 1.3079 0
M  V30 1930 H 194.347 -3.41765 2.37001 0
M  V30 1931 H 192.924 -3.68695 0.558448 0
M  V30 1932 N 195.109 -0.891671 -1.2995 0
M  V30 1933 C 196.358 -0.509521 -1.95158 0
M  V30 1934 C 196.671 0.947388 -1.71125 0
M  V30 1935 O 197.877 1.43669 -2.30372 0
M  V30 1936 C 196.333 -0.860315 -3.49466 0
M  V30 1937 C 195.941 -2.33545 -3.8231 0
M  V30 1938 C 197.685 -0.547687 -4.20952 0
M  V30 1939 C 195.592 -2.62752 -5.29826 0
M  V30 1940 H 194.522 -0.18682 -0.730489 0
M  V30 1941 H 197.173 -1.08756 -1.47798 0
M  V30 1942 H 195.555 -0.211285 -3.95436 0
M  V30 1943 H 196.729 -3.02936 -3.47227 0
M  V30 1944 H 195.044 -2.61629 -3.23944 0
M  V30 1945 H 197.641 -0.742854 -5.29515 0
M  V30 1946 H 197.984 0.51332 -4.13123 0
M  V30 1947 H 198.517 -1.1542 -3.80688 0
M  V30 1948 H 195.256 -3.6762 -5.42712 0
M  V30 1949 H 194.776 -1.97977 -5.66185 0
M  V30 1950 H 196.455 -2.48601 -5.97333 0
M  V30 1951 N 196.587 1.43421 -0.653314 0
M  V30 1952 C 197.55 2.29182 0.0287951 0
M  V30 1953 C 198.55 1.42213 0.750465 0
M  V30 1954 O 199.74 1.63843 0.591701 0
M  V30 1955 C 196.872 3.24278 1.05151 0
M  V30 1956 H 198.065 2.90985 -0.725786 0
M  V30 1957 H 195.618 1.50702 -0.414545 0
M  V30 1958 H 196.353 2.6737 1.83532 0
M  V30 1959 H 196.138 3.88396 0.537687 0
M  V30 1960 H 197.628 3.88647 1.52786 0
M  V30 1961 N 198.065 0.39524 1.52563 0
M  V30 1962 C 199.313 -0.184678 2.01254 0
M  V30 1963 C 199.634 -1.46822 1.28329 0
M  V30 1964 O 198.904 -1.91666 0.405094 0
M  V30 1965 H 197.484 -0.0712355 0.743596 0
M  V30 1966 H 200.146 0.528293 1.87603 0
M  V30 1967 H 199.242 -0.390681 3.09645 0
M  V30 1968 N 199.544 -1.57102 0.125237 0
M  V30 1969 C 200.792 -1.95021 -0.530198 0
M  V30 1970 C 201.113 -1.00982 -1.66816 0
M  V30 1971 O 200.383 -0.0672693 -1.95784 0
M  V30 1972 H 198.963 -0.720046 -0.198853 0
M  V30 1973 H 201.625 -1.93916 0.19564 0
M  V30 1974 H 200.721 -2.98211 -0.920681 0
M  V30 1975 N 201.022 0.148545 -1.56898 0
M  V30 1976 C 202.271 0.85984 -1.82454 0
M  V30 1977 C 202.584 1.82406 -0.706229 0
M  V30 1978 O 203.79 2.57938 -0.847349 0
M  V30 1979 C 202.246 1.57967 -3.2338 0
M  V30 1980 C 201.854 0.65794 -4.43142 0
M  V30 1981 C 203.598 2.27784 -3.58211 0
M  V30 1982 C 201.505 1.3793 -5.75091 0
M  V30 1983 H 200.435 0.324834 -0.68044 0
M  V30 1984 H 203.086 0.112588 -1.83154 0
M  V30 1985 H 201.468 2.37249 -3.17063 0
M  V30 1986 H 202.642 -0.0995497 -4.60692 0
M  V30 1987 H 200.957 0.0682643 -4.16344 0
M  V30 1988 H 203.554 2.8239 -4.54048 0
M  V30 1989 H 203.897 3.04204 -2.84193 0
M  V30 1990 H 204.43 1.55421 -3.66182 0
M  V30 1991 H 201.169 0.656982 -6.52199 0
M  V30 1992 H 200.689 2.10954 -5.61479 0
M  V30 1993 H 202.368 1.92063 -6.17835 0
M  V30 1994 N 202.5 1.5196 0.417844 0
M  V30 1995 C 203.916 1.40569 0.755816 0
M  V30 1996 C 204.116 0.503316 1.95113 0
M  V30 1997 O 203.172 -0.0341925 2.52477 0
M  V30 1998 C 204.485 2.82947 1.01791 0
M  V30 1999 C 206.033 2.92231 1.12116 0
M  V30 2000 C 206.508 4.35559 1.41608 0
M  V30 2001 N 207.999 4.38753 1.48491 0
M  V30 2002 C 208.734 5.46705 1.7292 0
M  V30 2003 N 208.23 6.64788 1.95011 0
M  V30 2004 N 210.023 5.34209 1.74863 0
M  V30 2005 H 202.174 2.09168 -0.369098 0
M  V30 2006 H 204.437 0.942409 -0.102809 0
M  V30 2007 H 204.143 3.5106 0.212081 0
M  V30 2008 H 204.017 3.23462 1.94042 0
M  V30 2009 H 206.404 2.24304 1.9176 0
M  V30 2010 H 206.485 2.55185 0.177225 0
M  V30 2011 H 206.129 5.04042 0.624848 0
M  V30 2012 H 206.059 4.70133 2.37239 0
M  V30 2013 H 208.55 3.5363 1.33244 0
M  V30 2014 H 208.863 7.42845 2.13076 0
M  V30 2015 H 207.208 6.67869 1.92293 0
M  V30 2016 H 210.399 4.40937 1.57137 0
M  V30 2017 H 210.572 6.18415 1.93563 0
M  V30 2018 N 203.978 -0.674533 1.42435 0
M  V30 2019 C 204.926 -1.80934 1.46169 0
M  V30 2020 C 205.92 -1.66006 0.3374 0
M  V30 2021 O 207.126 -1.72611 0.510425 0
M  V30 2022 H 203.501 -0.596594 0.457798 0
M  V30 2023 H 205.472 -1.74903 2.41767 0
M  V30 2024 C 204.221 -3.19088 1.38123 0
M  V30 2025 H 203.544 -3.31203 2.23931 0
M  V30 2026 H 204.984 -3.9851 1.44797 0
M  V30 2027 C 203.443 -3.36763 0.0960517 0
M  V30 2028 O 203.973 -3.92581 -0.851073 0
M  V30 2029 N 202.179 -2.90597 0.0131186 0
M  V30 2030 H 201.726 -2.45359 0.784639 0
M  V30 2031 H 201.684 -3.028 -0.846133 0
M  V30 2032 N 205.456 -1.28612 -0.910864 0
M  V30 2033 C 206.704 -1.15705 -1.65701 0
M  V30 2034 C 207.025 0.29416 -1.92769 0
M  V30 2035 O 206.295 1.20331 -1.54588 0
M  V30 2036 H 204.875 -0.425216 -0.614167 0
M  V30 2037 H 207.537 -1.61381 -1.0928 0
M  V30 2038 H 206.633 -1.6988 -2.61815 0
M  V30 2039 N 206.934 1.1197 -1.10907 0
M  V30 2040 C 208.159 1.87942 -0.877064 0
M  V30 2041 C 208.584 1.79341 0.567314 0
M  V30 2042 O 207.942 1.15184 1.40009 0
M  V30 2043 C 207.99 3.34926 -1.33629 0
M  V30 2044 O 207.094 4.09303 -0.504447 0
M  V30 2045 H 206.435 0.583785 -0.316371 0
M  V30 2046 H 208.965 1.4157 -1.47712 0
M  V30 2047 H 208.975 3.8577 -1.32837 0
M  V30 2048 H 207.65 3.40504 -2.3881 0
M  V30 2049 H 206.227 3.68393 -0.577993 0
M  V30 2050 N 208.412 0.89855 1.29475 0
M  V30 2051 C 209.642 0.538479 1.99459 0
M  V30 2052 C 210.05 -0.880922 1.67441 0
M  V30 2053 O 209.393 -1.59283 0.915127 0
M  V30 2054 C 209.455 0.649564 3.53583 0
M  V30 2055 C 209.119 2.03573 4.09154 0
M  V30 2056 C 210.116 3.00675 4.24135 0
M  V30 2057 C 207.801 2.3448 4.44212 0
M  V30 2058 C 209.795 4.26809 4.73405 0
M  V30 2059 C 207.482 3.60857 4.93179 0
M  V30 2060 C 208.48 4.56836 5.0773 0
M  V30 2061 O 208.168 5.80969 5.55635 0
M  V30 2062 H 207.9 0.205372 0.644048 0
M  V30 2063 H 210.454 1.20958 1.66007 0
M  V30 2064 H 208.684 -0.0785592 3.8662 0
M  V30 2065 H 210.373 0.29881 4.04799 0
M  V30 2066 H 211.139 2.78112 3.97339 0
M  V30 2067 H 207.018 1.60534 4.32145 0
M  V30 2068 H 210.562 5.0173 4.84678 0
M  V30 2069 H 206.459 3.83251 5.19412 0
M  V30 2070 H 207.227 5.83542 5.73952 0
M  V30 2071 N 209.89 -1.43072 0.660911 0
M  V30 2072 C 211.167 -1.95307 0.107017 0
M  V30 2073 C 211.547 -1.60192 -1.37484 0
M  V30 2074 O 210.895 -0.890949 -2.10415 0
M  V30 2075 C 211.105 -3.47124 0.361402 0
M  V30 2076 C 212.453 -4.23738 0.270455 0
M  V30 2077 O 213.477 -3.54981 0.294382 0
M  V30 2078 O 212.336 -5.46131 0.200737 0
M  V30 2079 H 209.43 -0.826984 -0.00517729 0
M  V30 2080 H 211.976 -1.52972 0.734681 0
M  V30 2081 H 210.748 -3.65837 1.38848 0
M  V30 2082 H 210.371 -3.96475 -0.298953 0
M  V30 2083 N 211.368 -0.403325 -1.52352 0
M  V30 2084 C 212.617 0.175668 -2.00934 0
M  V30 2085 C 212.93 1.46718 -1.29356 0
M  V30 2086 O 214.136 2.12708 -1.68724 0
M  V30 2087 C 212.592 0.363612 -3.58058 0
M  V30 2088 C 212.2 -0.915472 -4.38547 0
M  V30 2089 C 213.944 0.89821 -4.14888 0
M  V30 2090 C 211.851 -0.695035 -5.87302 0
M  V30 2091 H 210.781 0.0694234 -0.750797 0
M  V30 2092 H 213.432 -0.527879 -1.75743 0
M  V30 2093 H 211.814 1.12935 -3.79555 0
M  V30 2094 H 212.988 -1.68691 -4.28812 0
M  V30 2095 H 211.303 -1.37606 -3.93006 0
M  V30 2096 H 213.9 1.07907 -5.23699 0
M  V30 2097 H 214.243 1.87126 -3.71873 0
M  V30 2098 H 214.776 0.191681 -3.97338 0
M  V30 2099 H 211.515 -1.63948 -6.34666 0
M  V30 2100 H 211.035 0.0372116 -5.99788 0
M  V30 2101 H 212.714 -0.33497 -6.46132 0
M  V30 2102 N 212.846 1.57033 -0.133567 0
M  V30 2103 C 214.094 1.953 0.519848 0
M  V30 2104 C 214.415 1.01866 1.66278 0
M  V30 2105 O 213.685 0.0776513 1.95746 0
M  V30 2106 H 212.265 0.721091 0.195032 0
M  V30 2107 H 214.927 1.93809 -0.205921 0
M  V30 2108 H 214.023 2.98695 0.904854 0
M  V30 2109 N 214.325 -0.140222 1.56975 0
M  V30 2110 C 215.258 -1.20266 1.93936 0
M  V30 2111 C 216.236 -1.41212 0.806099 0
M  V30 2112 O 217.42 -1.55713 1.06234 0
M  V30 2113 C 214.547 -2.56037 2.21726 0
M  V30 2114 C 213.593 -2.51646 3.44349 0
M  V30 2115 S 214.426 -1.97678 4.97678 0
M  V30 2116 C 215.582 -3.35165 5.28597 0
M  V30 2117 H 215.815 -0.887358 2.83749 0
M  V30 2118 H 213.348 -0.346119 1.50471 0
M  V30 2119 H 215.306 -3.34167 2.38416 0
M  V30 2120 H 213.967 -2.84755 1.32566 0
M  V30 2121 H 213.16 -3.51608 3.61092 0
M  V30 2122 H 212.762 -1.81628 3.26936 0
M  V30 2123 H 215.054 -4.31302 5.2248 0
M  V30 2124 H 215.997 -3.23269 6.30002 0
M  V30 2125 H 216.405 -3.32614 4.56101 0
M  V30 2126 N 215.803 -1.52179 -0.40978 0
M  V30 2127 C 216.766 -1.74853 -1.48186 0
M  V30 2128 C 217.766 -0.618417 -1.48433 0
M  V30 2129 O 218.956 -0.886286 -1.49969 0
M  V30 2130 C 216.088 -1.8303 -2.87598 0
M  V30 2131 H 217.281 -2.70559 -1.29374 0
M  V30 2132 H 214.834 -1.42586 -0.640233 0
M  V30 2133 H 215.569 -0.89236 -3.11781 0
M  V30 2134 H 215.354 -2.65187 -2.88822 0
M  V30 2135 H 216.844 -2.02316 -3.65319 0
M  V30 2136 N 217.281 0.66697 -1.42791 0
M  V30 2137 C 218.521 1.43892 -1.4517 0
M  V30 2138 C 218.885 1.91877 -0.0687551 0
M  V30 2139 O 220.086 2.6878 0.0327455 0
M  V30 2140 C 218.357 2.59839 -2.45395 0
M  V30 2141 S 219.916 3.48572 -2.66539 0
M  V30 2142 H 216.734 0.491356 -0.513897 0
M  V30 2143 H 219.336 0.775656 -1.79454 0
M  V30 2144 H 218.04 2.22838 -3.44632 0
M  V30 2145 H 217.571 3.3103 -2.12562 0
M  V30 2146 H 219.586 4.56094 -1.95429 0
M  V30 2147 N 218.759 1.29093 0.90403 0
M  V30 2148 C 220.007 1.16583 1.65085 0
M  V30 2149 C 220.328 -0.283933 1.92922 0
M  V30 2150 O 219.598 -1.19509 1.55224 0
M  V30 2151 H 218.178 0.428467 0.611903 0
M  V30 2152 H 220.84 1.61959 1.08422 0
M  V30 2153 H 219.936 1.71266 2.6091 0
M  V30 2154 N 220.237 -1.11381 1.11499 0
M  V30 2155 C 221.483 -1.83403 0.865512 0
M  V30 2156 C 221.816 -1.84459 -0.607329 0
M  V30 2157 O 221.091 -1.29811 -1.44842 0
M  V30 2158 C 221.374 -3.30552 1.42855 0
M  V30 2159 C 221.227 -3.37886 2.96906 0
M  V30 2160 C 222.546 -4.26643 1.08 0
M  V30 2161 H 219.665 -0.665879 0.31587 0
M  V30 2162 H 222.307 -1.30601 1.37998 0
M  V30 2163 H 220.457 -3.75648 0.990985 0
M  V30 2164 H 222.129 -3.01343 3.49271 0
M  V30 2165 H 220.372 -2.78088 3.32941 0
M  V30 2166 H 221.043 -4.41458 3.31389 0
M  V30 2167 H 223.519 -3.89729 1.45775 0
M  V30 2168 H 222.395 -5.27986 1.50072 0
M  V30 2169 H 222.656 -4.42099 -0.00915037 0
M  V30 2170 N 221.715 -0.905404 -1.28997 0
M  V30 2171 C 222.625 -0.392246 -2.31298 0
M  V30 2172 C 223.641 0.515889 -1.66176 0
M  V30 2173 O 224.817 0.404093 -1.97304 0
M  V30 2174 C 221.882 0.36686 -3.44754 0
M  V30 2175 C 220.943 -0.573485 -4.25452 0
M  V30 2176 C 220.176 0.149488 -5.33491 0
M  V30 2177 O 220.399 1.37255 -5.5364 0
M  V30 2178 O 219.333 -0.510919 -5.99728 0
M  V30 2179 H 223.159 -1.2411 -2.77183 0
M  V30 2180 H 220.744 -0.669926 -1.33538 0
M  V30 2181 H 222.626 0.795907 -4.13816 0
M  V30 2182 H 221.301 1.19169 -3.00966 0
M  V30 2183 H 220.208 -1.05176 -3.59011 0
M  V30 2184 H 221.541 -1.36489 -4.72897 0
M  V30 2185 N 223.193 1.4272 -0.668489 0
M  V30 2186 C 224.418 2.06484 -0.194758 0
M  V30 2187 C 224.843 1.49862 1.13679 0
M  V30 2188 O 224.201 0.614582 1.70565 0
M  V30 2189 C 224.249 3.60353 -0.133546 0
M  V30 2190 O 223.353 4.02464 0.899806 0
M  V30 2191 H 222.694 0.656137 -0.10188 0
M  V30 2192 H 225.224 1.82964 -0.915722 0
M  V30 2193 H 225.234 4.07976 0.0447041 0
M  V30 2194 H 223.909 4.00938 -1.1055 0
M  V30 2195 H 222.486 3.66402 0.693109 0
M  V30 2196 N 224.671 0.411399 1.52136 0
M  V30 2197 C 225.604 -0.457614 2.23565 0
M  V30 2198 C 226.582 -1.04613 1.24478 0
M  V30 2199 O 227.766 -1.09356 1.53536 0
M  V30 2200 C 224.893 -1.6354 2.96602 0
M  V30 2201 C 223.939 -1.17005 4.10137 0
M  V30 2202 S 224.772 -0.13333 5.35334 0
M  V30 2203 C 225.928 -1.31638 6.119 0
M  V30 2204 H 226.161 0.148883 2.96927 0
M  V30 2205 H 223.694 0.195713 1.53155 0
M  V30 2206 H 225.652 -2.31074 3.39286 0
M  V30 2207 H 224.313 -2.21324 2.22878 0
M  V30 2208 H 223.506 -2.05005 4.60422 0
M  V30 2209 H 223.108 -0.573319 3.6958 0
M  V30 2210 H 225.4 -2.23957 6.39413 0
M  V30 2211 H 226.343 -0.854014 7.02931 0
M  V30 2212 H 226.751 -1.54321 5.42997 0
M  V30 2213 N 226.149 -1.5696 0.141893 0
M  V30 2214 C 227.374 -2.00754 -0.520838 0
M  V30 2215 C 227.799 -1.0213 -1.57959 0
M  V30 2216 O 227.157 0.00371324 -1.813 0
M  V30 2217 C 227.205 -3.43318 -1.10294 0
M  V30 2218 O 226.309 -3.47679 -2.21795 0
M  V30 2219 H 225.65 -0.651564 -0.127908 0
M  V30 2220 H 228.18 -2.03221 0.23712 0
M  V30 2221 H 228.19 -3.82012 -1.43287 0
M  V30 2222 H 226.865 -4.14608 -0.327574 0
M  V30 2223 H 225.442 -3.20824 -1.9007 0
M  V30 2224 N 227.627 0.131896 -1.57047 0
M  V30 2225 C 228.557 1.16384 -2.02428 0
M  V30 2226 C 229.538 1.43936 -0.90644 0
M  V30 2227 O 230.723 1.54599 -1.17528 0
M  V30 2228 C 227.853 2.49328 -2.4177 0
M  V30 2229 C 226.807 2.36266 -3.56879 0
M  V30 2230 C 226.133 3.74057 -3.8208 0
M  V30 2231 C 227.433 1.834 -4.89042 0
M  V30 2232 H 229.127 0.786433 -2.88887 0
M  V30 2233 H 226.673 0.376855 -1.38981 0
M  V30 2234 H 228.626 3.21759 -2.7212 0
M  V30 2235 H 227.35 2.88934 -1.52266 0
M  V30 2236 H 226.009 1.66286 -3.26718 0
M  V30 2237 H 225.657 4.11125 -2.89803 0
M  V30 2238 H 225.357 3.66174 -4.59554 0
M  V30 2239 H 226.881 4.48012 -4.1487 0
M  V30 2240 H 228.295 2.45636 -5.18011 0
M  V30 2241 H 226.692 1.8637 -5.70426 0
M  V30 2242 H 227.762 0.790662 -4.7841 0
M  V30 2243 N 229.106 1.52395 0.401703 0
M  V30 2244 C 230.069 1.75636 1.47257 0
M  V30 2245 C 231.069 0.62628 1.48103 0
M  V30 2246 O 232.259 0.894227 1.49497 0
M  V30 2247 C 229.391 1.84553 2.86624 0
M  V30 2248 H 230.584 2.71241 1.27938 0
M  V30 2249 H 228.137 1.42923 0.632662 0
M  V30 2250 H 228.872 0.908882 3.11303 0
M  V30 2251 H 228.657 2.66715 2.87412 0
M  V30 2252 H 230.147 2.04251 3.64241 0
M  V30 2253 N 230.584 -0.659388 1.43143 0
M  V30 2254 C 231.861 -1.41627 1.34912 0
M  V30 2255 C 232.241 -2.11099 -0.00607785 0
M  V30 2256 O 231.589 -2.04353 -1.02236 0
M  V30 2257 C 231.799 -2.40604 2.52805 0
M  V30 2258 C 233.147 -3.04789 2.95616 0
M  V30 2259 O 234.171 -2.50932 2.52807 0
M  V30 2260 O 233.03 -4.02421 3.69756 0
M  V30 2261 H 230.124 -0.63246 0.532844 0
M  V30 2262 H 232.67 -0.686814 1.5518 0
M  V30 2263 H 231.442 -1.88174 3.43083 0
M  V30 2264 H 231.065 -3.21009 2.34604 0
M  V30 2265 N 232.062 -1.29571 -0.897171 0
M  V30 2266 C 233.478 -1.07637 -1.17841 0
M  V30 2267 C 233.678 0.170713 -2.00776 0
M  V30 2268 O 232.734 0.867768 -2.3712 0
M  V30 2269 C 234.047 -2.3332 -1.8969 0
M  V30 2270 C 235.595 -2.38664 -2.02505 0
M  V30 2271 C 236.07 -3.64157 -2.77765 0
M  V30 2272 N 237.561 -3.64894 -2.85318 0
M  V30 2273 C 238.296 -4.58679 -3.44094 0
M  V30 2274 N 237.792 -5.62799 -4.04017 0
M  V30 2275 N 239.585 -4.46245 -3.41793 0
M  V30 2276 H 231.736 -2.09598 -0.343883 0
M  V30 2277 H 233.999 -0.923333 -0.214848 0
M  V30 2278 H 233.705 -3.24262 -1.36187 0
M  V30 2279 H 233.579 -2.41025 -2.9015 0
M  V30 2280 H 235.966 -1.48208 -2.55183 0
M  V30 2281 H 236.047 -2.34943 -1.01171 0
M  V30 2282 H 235.691 -4.54965 -2.25763 0
M  V30 2283 H 235.621 -3.65137 -3.7945 0
M  V30 2284 H 238.112 -2.89613 -2.42761 0
M  V30 2285 H 238.425 -6.3048 -4.46895 0
M  V30 2286 H 236.77 -5.66605 -4.02472 0
M  V30 2287 H 239.961 -3.64094 -2.94199 0
M  V30 2288 H 240.134 -5.19518 -3.87304 0
M  V30 2289 N 233.54 1.10788 -1.12088 0
M  V30 2290 C 234.788 1.8231 -0.872205 0
M  V30 2291 C 235.109 1.85419 0.603709 0
M  V30 2292 O 234.379 1.32963 1.43867 0
M  V30 2293 H 232.959 0.675137 -0.319686 0
M  V30 2294 H 235.621 1.34068 -1.41463 0
M  V30 2295 H 234.717 2.85955 -1.25045 0
M  V30 2296 N 235.018 0.912232 1.28515 0
M  V30 2297 C 235.966 0.389597 2.29314 0
M  V30 2298 C 236.96 -0.517915 1.61289 0
M  V30 2299 O 238.166 -0.399328 1.75515 0
M  V30 2300 H 234.541 0.107386 0.744293 0
M  V30 2301 H 236.512 1.25286 2.70825 0
M  V30 2302 C 235.261 -0.356496 3.45868 0
M  V30 2303 H 234.584 0.332608 3.98414 0
M  V30 2304 H 236.024 -0.686851 4.184 0
M  V30 2305 C 234.483 -1.56383 2.98406 0
M  V30 2306 O 235.013 -2.66294 3.00749 0
M  V30 2307 N 233.219 -1.41029 2.54085 0
M  V30 2308 H 232.766 -0.516089 2.52377 0
M  V30 2309 H 232.724 -2.21939 2.22689 0
M  V30 2310 N 236.496 -1.42363 0.676048 0
M  V30 2311 C 237.907 -1.84649 0.275948 0
M  V30 2312 C 238.258 -1.56588 -1.18214 0
M  V30 2313 O 237.383 -1.02634 -1.90513 0
M  V30 2314 C 237.978 -3.35178 0.494053 0
M  V30 2315 C 236.537 -3.76109 0.148061 0
M  V30 2316 C 235.684 -2.65931 0.785891 0
M  V30 2317 H 238.635 -1.32192 0.878121 0
M  V30 2318 H 238.656 -3.79655 -0.25343 0
M  V30 2319 H 238.168 -3.55571 1.55535 0
M  V30 2320 H 236.269 -3.61323 -0.909742 0
M  V30 2321 H 236.382 -4.7546 0.589454 0
M  V30 2322 H 234.746 -2.53773 0.217113 0
M  V30 2323 H 235.529 -2.89146 1.85067 0
M  V30 2324 N 237.974 -0.419461 -1.51915 0
M  V30 2325 C 239.222 0.152637 -2.01523 0
M  V30 2326 C 239.543 1.44762 -1.30649 0
M  V30 2327 O 238.813 1.90997 -0.435535 0
M  V30 2328 H 237.393 0.0593966 -0.744635 0
M  V30 2329 H 240.055 -0.558073 -1.86739 0
M  V30 2330 H 239.151 0.341369 -3.10227 0
M  V30 2331 N 239.452 1.56882 -0.150215 0
M  V30 2332 C 240.4 2.18214 0.805313 0
M  V30 2333 C 241.394 1.14006 1.25296 0
M  V30 2334 O 242.6 1.3225 1.22107 0
M  V30 2335 H 238.975 0.698762 0.277913 0
M  V30 2336 H 240.946 2.97231 0.263862 0
M  V30 2337 C 239.695 2.82065 2.03309 0
M  V30 2338 H 239.018 3.61968 1.69763 0
M  V30 2339 H 240.458 3.28477 2.68103 0
M  V30 2340 C 238.917 1.80739 2.84315 0
M  V30 2341 O 239.447 1.27983 3.80767 0
M  V30 2342 N 237.653 1.4997 2.48913 0
M  V30 2343 H 237.2 1.93062 1.70542 0
M  V30 2344 H 237.158 0.824217 3.03404 0
M  V30 2345 N 240.93 -0.123565 1.57115 0
M  V30 2346 C 242.179 -0.830704 1.83799 0
M  V30 2347 C 242.492 -1.81259 0.735158 0
M  V30 2348 O 243.698 -2.56558 0.888278 0
M  V30 2349 C 242.154 -1.52802 3.25852 0
M  V30 2350 C 241.762 -0.587356 4.44133 0
M  V30 2351 C 243.506 -2.22056 3.61789 0
M  V30 2352 C 241.413 -1.28764 5.77212 0
M  V30 2353 H 240.343 -0.313967 0.685522 0
M  V30 2354 H 242.994 -0.0834359 1.8331 0
M  V30 2355 H 241.376 -2.32175 3.20797 0
M  V30 2356 H 242.55 0.172829 4.60476 0
M  V30 2357 H 240.865 -0.00201892 4.164 0
M  V30 2358 H 243.462 -2.75131 4.58483 0
M  V30 2359 H 243.805 -2.99644 2.88997 0
M  V30 2360 H 244.338 -1.49576 3.68608 0
M  V30 2361 H 241.077 -0.55314 6.53162 0
M  V30 2362 H 240.597 -2.01995 5.64764 0
M  V30 2363 H 242.276 -1.8221 6.20813 0
M  V30 2364 N 242.408 -1.52605 -0.393616 0
M  V30 2365 C 243.636 -1.71294 -1.16043 0
M  V30 2366 C 244.051 -0.429259 -1.83855 0
M  V30 2367 O 243.408 0.595921 -1.72496 0
M  V30 2368 C 243.459 -2.8593 -2.21193 0
M  V30 2369 O 243.18 -4.09329 -1.56146 0
M  V30 2370 C 244.681 -3.16259 -3.10636 0
M  V30 2371 H 241.901 -0.573641 -0.348104 0
M  V30 2372 H 244.445 -1.99234 -0.461092 0
M  V30 2373 H 242.6 -2.60465 -2.86769 0
M  V30 2374 H 243.014 -4.73323 -2.25978 0
M  V30 2375 H 244.488 -3.99946 -3.80456 0
M  V30 2376 H 244.965 -2.3045 -3.73884 0
M  V30 2377 H 245.571 -3.43547 -2.50711 0
M  V30 2378 N 243.887 0.651787 -1.4349 0
M  V30 2379 C 245.112 1.44434 -1.48841 0
M  V30 2380 C 245.537 1.8779 -0.107955 0
M  V30 2381 O 244.895 1.57464 0.898602 0
M  V30 2382 C 244.943 2.65458 -2.44059 0
M  V30 2383 O 244.047 3.64566 -1.92784 0
M  V30 2384 H 243.388 0.433005 -0.503391 0
M  V30 2385 H 245.918 0.797451 -1.88419 0
M  V30 2386 H 245.928 3.13255 -2.6141 0
M  V30 2387 H 244.603 2.33244 -3.4434 0
M  V30 2388 H 243.18 3.23716 -1.851 0
M  V30 2389 N 245.365 1.30045 0.890287 0
M  V30 2390 C 246.781 1.08261 1.17268 0
M  V30 2391 C 246.981 -0.160063 2.00863 0
M  V30 2392 O 246.037 -0.855181 2.37577 0
M  V30 2393 C 247.35 2.34323 1.8845 0
M  V30 2394 C 248.898 2.39735 2.01237 0
M  V30 2395 C 249.373 3.65625 2.7583 0
M  V30 2396 N 250.864 3.66402 2.83379 0
M  V30 2397 C 251.599 4.60498 3.41657 0
M  V30 2398 N 251.095 5.64933 4.01026 0
M  V30 2399 N 252.888 4.48051 3.39421 0
M  V30 2400 H 245.039 2.09777 0.332762 0
M  V30 2401 H 247.302 0.92446 0.209948 0
M  V30 2402 H 247.008 3.2498 1.34465 0
M  V30 2403 H 246.882 2.4256 2.88867 0
M  V30 2404 H 249.269 1.4956 2.54393 0
M  V30 2405 H 249.35 2.35476 0.999232 0
M  V30 2406 H 248.994 4.56156 2.23347 0
M  V30 2407 H 248.924 3.67144 3.77509 0
M  V30 2408 H 251.415 2.90896 2.41222 0
M  V30 2409 H 251.728 6.32841 4.43545 0
M  V30 2410 H 250.073 5.68732 3.99461 0
M  V30 2411 H 253.264 3.65649 2.92264 0
M  V30 2412 H 253.437 5.21565 3.84544 0
M  V30 2413 N 246.843 -1.10192 1.12674 0
M  V30 2414 C 247.773 -2.18652 0.819362 0
M  V30 2415 C 248.754 -1.68698 -0.217915 0
M  V30 2416 O 249.939 -1.94041 -0.0785581 0
M  V30 2417 C 247.069 -3.46202 0.27594 0
M  V30 2418 C 246.023 -4.09444 1.24656 0
M  V30 2419 C 245.349 -5.31725 0.563258 0
M  V30 2420 C 246.649 -4.52863 2.60217 0
M  V30 2421 H 248.343 -2.44622 1.72628 0
M  V30 2422 H 245.889 -1.17571 0.831451 0
M  V30 2423 H 247.842 -4.21372 0.0486149 0
M  V30 2424 H 246.566 -3.1973 -0.666331 0
M  V30 2425 H 245.225 -3.36284 1.45974 0
M  V30 2426 H 244.873 -5.0153 -0.384235 0
M  V30 2427 H 244.573 -5.74991 1.21075 0
M  V30 2428 H 246.097 -6.09624 0.34503 0
M  V30 2429 H 247.511 -5.19294 2.42913 0
M  V30 2430 H 245.908 -5.06986 3.21068 0
M  V30 2431 H 246.978 -3.65656 3.18471 0
M  V30 2432 N 248.321 -0.919034 -1.28029 0
M  V30 2433 C 249.254 -0.355887 -2.25408 0
M  V30 2434 C 250.232 0.542874 -1.5327 0
M  V30 2435 O 251.416 0.485338 -1.82145 0
M  V30 2436 C 248.543 0.490759 -3.35126 0
M  V30 2437 C 247.589 -0.343358 -4.25116 0
M  V30 2438 S 248.422 -1.75344 -5.05979 0
M  V30 2439 C 249.578 -0.914244 -6.19187 0
M  V30 2440 H 249.811 -1.18123 -2.72826 0
M  V30 2441 H 247.344 -0.720636 -1.36551 0
M  V30 2442 H 249.302 0.973404 -3.98792 0
M  V30 2443 H 247.963 1.29054 -2.86363 0
M  V30 2444 H 247.156 0.304266 -5.03081 0
M  V30 2445 H 246.758 -0.759851 -3.662 0
M  V30 2446 H 249.05 -0.146282 -6.77342 0
M  V30 2447 H 249.993 -1.66661 -6.88208 0
M  V30 2448 H 250.401 -0.460082 -5.62622 0
M  V30 2449 N 249.799 1.42003 -0.683588 0
M  V30 2450 C 250.709 2.34597 -0.0109075 0
M  V30 2451 C 251.725 1.55576 0.779245 0
M  V30 2452 O 252.901 1.88107 0.719555 0
M  V30 2453 C 249.966 3.34199 0.922588 0
M  V30 2454 C 249.027 4.29115 0.125984 0
M  V30 2455 C 248.26 5.23959 1.01502 0
M  V30 2456 O 248.483 5.23952 2.25456 0
M  V30 2457 O 247.417 6.00053 0.47111 0
M  V30 2458 H 251.243 2.93675 -0.773853 0
M  V30 2459 H 248.828 1.42654 -0.443861 0
M  V30 2460 H 250.71 3.95365 1.45823 0
M  V30 2461 H 249.385 2.77582 1.66523 0
M  V30 2462 H 248.292 3.71335 -0.453969 0
M  V30 2463 H 249.625 4.88798 -0.577736 0
M  V30 2464 N 251.277 0.427512 1.51691 0
M  V30 2465 C 252.224 -0.388867 2.275 0
M  V30 2466 C 253.194 -1.02532 1.30677 0
M  V30 2467 O 254.379 -1.0461 1.59566 0
M  V30 2468 C 251.519 -1.48954 3.11298 0
M  V30 2469 C 250.632 -0.872194 4.23104 0
M  V30 2470 C 249.767 -1.94709 4.94228 0
M  V30 2471 C 248.806 -1.30766 5.97969 0
M  V30 2472 N 247.943 -2.32349 6.62539 0
M  V30 2473 H 252.783 0.263997 2.96828 0
M  V30 2474 H 250.32 0.142033 1.46413 0
M  V30 2475 H 252.278 -2.13887 3.58201 0
M  V30 2476 H 250.908 -2.11217 2.44105 0
M  V30 2477 H 249.96 -0.111419 3.80237 0
M  V30 2478 H 251.272 -0.365264 4.97461 0
M  V30 2479 H 250.426 -2.67327 5.44629 0
M  V30 2480 H 249.165 -2.48773 4.1948 0
M  V30 2481 H 248.17 -0.566902 5.4687 0
M  V30 2482 H 249.395 -0.774483 6.74669 0
M  V30 2483 H 247.341 -2.85511 5.90609 0
M  V30 2484 H 247.258 -1.8652 7.3263 0
M  V30 2485 H 248.526 -3.04481 7.17574 0
M  V30 2486 N 252.755 -1.56801 0.158532 0
M  V30 2487 C 253.665 -2.20916 -0.789518 0
M  V30 2488 C 254.681 -1.1969 -1.26294 0
M  V30 2489 O 255.857 -1.52308 -1.31773 0
M  V30 2490 C 252.922 -2.82727 -2.00665 0
M  V30 2491 C 251.983 -3.99114 -1.58134 0
M  V30 2492 C 251.216 -4.57968 -2.74045 0
M  V30 2493 O 251.439 -4.15704 -3.90572 0
M  V30 2494 O 250.373 -5.48047 -2.48855 0
M  V30 2495 H 254.199 -3.02464 -0.273681 0
M  V30 2496 H 251.784 -1.4924 -0.0690548 0
M  V30 2497 H 253.666 -3.21968 -2.71872 0
M  V30 2498 H 252.341 -2.04184 -2.51179 0
M  V30 2499 H 251.248 -3.64567 -0.839155 0
M  V30 2500 H 252.581 -4.79212 -1.12325 0
M  V30 2501 N 254.233 0.115231 -1.57178 0
M  V30 2502 C 255.18 1.14115 -2.00615 0
M  V30 2503 C 256.15 1.40939 -0.878941 0
M  V30 2504 O 257.335 1.52741 -1.14345 0
M  V30 2505 C 254.475 2.46156 -2.4187 0
M  V30 2506 C 253.588 2.26236 -3.68024 0
M  V30 2507 C 252.723 3.51534 -3.98243 0
M  V30 2508 C 251.762 3.26787 -5.17568 0
M  V30 2509 N 250.899 4.44298 -5.43639 0
M  V30 2510 H 255.739 0.763743 -2.88047 0
M  V30 2511 H 253.276 0.365615 -1.42484 0
M  V30 2512 H 255.234 3.23189 -2.63827 0
M  V30 2513 H 253.864 2.81783 -1.57475 0
M  V30 2514 H 252.916 1.40102 -3.5366 0
M  V30 2515 H 254.228 2.03929 -4.55208 0
M  V30 2516 H 253.382 4.36984 -4.20868 0
M  V30 2517 H 252.121 3.76876 -3.09541 0
M  V30 2518 H 251.126 2.39729 -4.94783 0
M  V30 2519 H 252.351 3.02812 -6.0785 0
M  V30 2520 H 250.297 4.69754 -4.57895 0
M  V30 2521 H 250.214 4.25109 -6.25154 0
M  V30 2522 H 251.482 5.3087 -5.70786 0
M  V30 2523 N 255.711 1.52812 0.385517 0
M  V30 2524 C 256.674 1.77188 1.45386 0
M  V30 2525 C 257.674 0.641953 1.4743 0
M  V30 2526 O 258.864 0.910033 1.4854 0
M  V30 2527 C 255.996 1.87582 2.8465 0
M  V30 2528 H 257.189 2.72583 1.25054 0
M  V30 2529 H 254.742 1.43586 0.617467 0
M  V30 2530 H 255.477 0.941849 3.10322 0
M  V30 2531 H 255.262 2.69748 2.84567 0
M  V30 2532 H 256.752 2.08102 3.62054 0
M  V30 2533 N 257.189 -0.644168 1.43834 0
M  V30 2534 C 258.605 -0.960875 1.27434 0
M  V30 2535 C 258.805 -2.00499 0.200618 0
M  V30 2536 O 257.861 -2.49018 -0.417906 0
M  V30 2537 C 259.174 -1.43653 2.64167 0
M  V30 2538 C 260.722 -1.55271 2.71772 0
M  V30 2539 C 261.197 -2.06224 4.08944 0
M  V30 2540 N 262.688 -2.13513 4.11055 0
M  V30 2541 C 263.423 -2.54081 5.14033 0
M  V30 2542 N 262.919 -2.9388 6.27381 0
M  V30 2543 N 264.712 -2.54101 5.01387 0
M  V30 2544 H 256.863 0.0465779 2.12349 0
M  V30 2545 H 259.126 -0.0417638 0.94708 0
M  V30 2546 H 258.832 -0.743706 3.43747 0
M  V30 2547 H 258.706 -2.40993 2.90176 0
M  V30 2548 H 261.093 -2.23653 1.92519 0
M  V30 2549 H 261.174 -0.563395 2.49519 0
M  V30 2550 H 260.818 -1.38441 4.88668 0
M  V30 2551 H 260.748 -3.06003 4.28567 0
M  V30 2552 H 263.239 -1.85493 3.29242 0
M  V30 2553 H 263.552 -3.2361 7.01781 0
M  V30 2554 H 261.897 -2.91663 6.30839 0
M  V30 2555 H 265.088 -2.22391 4.11898 0
M  V30 2556 H 265.261 -2.85394 5.81768 0
M  V30 2557 N 258.668 -1.30515 -0.883378 0
M  V30 2558 C 259.945 -1.10086 -1.6168 0
M  V30 2559 C 260.325 0.349269 -2.08191 0
M  V30 2560 O 259.673 1.34105 -1.85008 0
M  V30 2561 C 259.883 -2.10315 -2.78511 0
M  V30 2562 C 261.231 -2.42119 -3.48803 0
M  V30 2563 O 262.255 -2.08638 -2.88702 0
M  V30 2564 O 261.114 -2.99396 -4.57192 0
M  V30 2565 H 258.208 -0.422907 -0.710689 0
M  V30 2566 H 260.754 -1.41947 -0.930015 0
M  V30 2567 H 259.526 -3.07917 -2.41459 0
M  V30 2568 H 259.149 -1.79282 -3.54886 0
M  V30 2569 N 260.146 1.09593 -1.13257 0
M  V30 2570 C 261.386 1.83349 -0.903472 0
M  V30 2571 C 261.75 1.83641 0.560351 0
M  V30 2572 O 262.951 2.53037 0.906947 0
M  V30 2573 C 261.222 3.25629 -1.47311 0
M  V30 2574 S 262.781 4.16408 -1.38382 0
M  V30 2575 H 259.599 0.632014 -0.325699 0
M  V30 2576 H 262.201 1.31817 -1.44376 0
M  V30 2577 H 260.905 3.22991 -2.53189 0
M  V30 2578 H 260.436 3.82233 -0.930689 0
M  V30 2579 H 262.451 4.94884 -0.361113 0
M  V30 2580 N 261.624 0.925811 1.2754 0
M  V30 2581 C 262.554 0.440748 2.29303 0
M  V30 2582 C 263.535 -0.497971 1.62648 0
M  V30 2583 O 264.72 -0.403126 1.8997 0
M  V30 2584 C 261.85 -0.309048 3.45922 0
M  V30 2585 C 260.804 0.54166 4.24559 0
M  V30 2586 C 260.13 -0.337191 5.33636 0
M  V30 2587 C 261.43 1.80516 4.90114 0
M  V30 2588 H 263.124 1.29121 2.70126 0
M  V30 2589 H 260.67 0.622323 1.29858 0
M  V30 2590 H 262.623 -0.659315 4.1621 0
M  V30 2591 H 261.347 -1.19352 3.04011 0
M  V30 2592 H 260.006 0.874609 3.56014 0
M  V30 2593 H 259.654 -1.22056 4.87966 0
M  V30 2594 H 259.354 0.228497 5.87156 0
M  V30 2595 H 260.878 -0.683072 6.06767 0
M  V30 2596 H 262.292 1.52307 5.52698 0
M  V30 2597 H 260.689 2.3142 5.53683 0
M  V30 2598 H 261.759 2.52581 4.13921 0
M  V30 2599 N 263.102 -1.41638 0.69111 0
M  V30 2600 C 264.351 -2.00526 0.217318 0
M  V30 2601 C 264.664 -1.55353 -1.18848 0
M  V30 2602 O 265.87 -2.06769 -1.75951 0
M  V30 2603 C 264.326 -3.58313 0.337639 0
M  V30 2604 C 263.934 -4.12469 1.74852 0
M  V30 2605 C 265.678 -4.24431 -0.0766066 0
M  V30 2606 C 263.585 -5.62675 1.82074 0
M  V30 2607 H 262.515 -0.750008 0.0774893 0
M  V30 2608 H 265.166 -1.6217 0.858661 0
M  V30 2609 H 263.548 -3.9425 -0.371879 0
M  V30 2610 H 264.722 -3.8796 2.48644 0
M  V30 2611 H 263.037 -3.58861 2.11205 0
M  V30 2612 H 265.634 -5.34683 -0.0430284 0
M  V30 2613 H 265.977 -4.01101 -1.1146 0
M  V30 2614 H 266.51 -3.93512 0.582476 0
M  V30 2615 H 263.249 -5.90826 2.83911 0
M  V30 2616 H 262.769 -5.89124 1.12661 0
M  V30 2617 H 264.448 -6.27371 1.58159 0
M  V30 2618 N 264.58 -0.43555 -1.51462 0
M  V30 2619 C 265.991 0.0279871 -1.86679 0
M  V30 2620 C 266.342 1.42104 -1.35281 0
M  V30 2621 O 265.467 2.04667 -0.702878 0
M  V30 2622 C 266.062 0.0575626 -3.38751 0
M  V30 2623 C 264.621 0.465507 -3.7351 0
M  V30 2624 C 263.768 -0.342996 -2.75171 0
M  V30 2625 H 266.719 -0.651473 -1.44712 0
M  V30 2626 H 266.74 0.867421 -3.70481 0
M  V30 2627 H 266.252 -0.956448 -3.7613 0
M  V30 2628 H 264.353 1.48519 -3.41721 0
M  V30 2629 H 264.466 0.191546 -4.78717 0
M  V30 2630 H 262.83 0.198442 -2.53926 0
M  V30 2631 H 263.613 -1.35585 -3.15391 0
M  V30 2632 N 266.058 1.56714 -0.166846 0
M  V30 2633 C 266.991 2.13577 0.80375 0
M  V30 2634 C 267.969 1.06464 1.22899 0
M  V30 2635 O 269.153 1.34413 1.32157 0
M  V30 2636 C 266.28 2.67168 2.0818 0
M  V30 2637 C 265.326 3.86612 1.80093 0
M  V30 2638 S 266.159 5.26565 0.97416 0
M  V30 2639 C 267.315 5.83558 2.26297 0
M  V30 2640 H 267.548 2.9557 0.320267 0
M  V30 2641 H 265.081 1.54326 0.0477555 0
M  V30 2642 H 267.039 2.98692 2.8159 0
M  V30 2643 H 265.7 1.85269 2.53642 0
M  V30 2644 H 264.893 4.22422 2.7491 0
M  V30 2645 H 264.495 3.55951 1.14781 0
M  V30 2646 H 266.787 5.962 3.21795 0
M  V30 2647 H 267.73 6.80731 1.94962 0
M  V30 2648 H 268.138 5.11944 2.37853 0
M  V30 2649 N 267.536 -0.106894 1.57237 0
M  V30 2650 C 268.784 -0.810921 1.85117 0
M  V30 2651 C 269.105 -1.7984 0.753827 0
M  V30 2652 O 268.375 -1.94649 -0.221056 0
M  V30 2653 H 266.955 -0.302466 0.683025 0
M  V30 2654 H 269.617 -0.0913324 1.94686 0
M  V30 2655 H 268.713 -1.34875 2.81452 0
M  V30 2656 N 269.014 -1.53014 -0.377408 0
M  V30 2657 C 270.263 -1.67845 -1.11853 0
M  V30 2658 C 270.576 -0.430625 -1.90801 0
M  V30 2659 O 271.782 -0.459261 -2.67587 0
M  V30 2660 C 270.238 -2.96668 -2.03756 0
M  V30 2661 C 269.846 -4.28671 -1.30175 0
M  V30 2662 C 271.59 -3.20865 -2.77932 0
M  V30 2663 C 269.497 -5.48591 -2.20911 0
M  V30 2664 H 268.427 -0.625343 -0.421263 0
M  V30 2665 H 271.078 -1.79514 -0.380409 0
M  V30 2666 H 269.46 -2.78773 -2.8125 0
M  V30 2667 H 270.634 -4.57157 -0.578259 0
M  V30 2668 H 268.949 -4.10825 -0.679108 0
M  V30 2669 H 271.546 -4.07642 -3.46024 0
M  V30 2670 H 271.889 -2.36424 -3.4265 0
M  V30 2671 H 272.422 -3.39379 -2.07525 0
M  V30 2672 H 269.161 -6.35474 -1.6079 0
M  V30 2673 H 268.681 -5.244 -2.91144 0
M  V30 2674 H 270.36 -5.8292 -2.80736 0
M  V30 2675 N 270.492 0.636531 -1.44174 0
M  V30 2676 C 271.72 1.42353 -1.50144 0
M  V30 2677 C 272.135 1.88389 -0.124575 0
M  V30 2678 O 271.492 1.6051 0.868489 0
M  V30 2679 C 271.543 2.64744 -2.46156 0
M  V30 2680 O 271.264 2.20629 -3.7849 0
M  V30 2681 C 272.765 3.57929 -2.61537 0
M  V30 2682 H 269.985 0.436752 -0.5094 0
M  V30 2683 H 272.529 0.778933 -1.89084 0
M  V30 2684 H 270.684 3.25307 -2.10366 0
M  V30 2685 H 271.098 2.99938 -4.30276 0
M  V30 2686 H 272.572 4.40428 -3.32757 0
M  V30 2687 H 273.049 4.06382 -1.66585 0
M  V30 2688 H 273.655 3.03238 -2.98206 0
M  V30 2689 N 271.97 1.30982 0.876444 0
M  V30 2690 C 273.195 1.23373 1.66715 0
M  V30 2691 C 273.62 -0.19885 1.87046 0
M  V30 2692 O 272.978 -1.1427 1.40756 0
M  V30 2693 C 273.026 1.97644 3.01611 0
M  V30 2694 O 272.13 1.30935 3.91062 0
M  V30 2695 H 271.471 0.426279 0.509099 0
M  V30 2696 H 274.001 1.72944 1.09323 0
M  V30 2697 H 274.011 2.06992 3.51594 0
M  V30 2698 H 272.686 3.01829 2.86133 0
M  V30 2699 H 271.263 1.29996 3.49507 0
M  V30 2700 N 273.449 -1.08991 1.13837 0
M  V30 2701 C 274.359 -2.19301 0.833333 0
M  V30 2702 C 275.375 -1.73026 -0.183847 0
M  V30 2703 O 276.551 -2.01395 -0.0138092 0
M  V30 2704 C 273.616 -3.45323 0.308651 0
M  V30 2705 C 272.677 -4.06255 1.38764 0
M  V30 2706 C 271.91 -5.26262 0.887896 0
M  V30 2707 O 272.133 -5.69747 -0.27287 0
M  V30 2708 O 271.067 -5.78435 1.66421 0
M  V30 2709 H 274.893 -2.47854 1.75506 0
M  V30 2710 H 272.478 -1.18012 0.916166 0
M  V30 2711 H 274.36 -4.21394 0.0216739 0
M  V30 2712 H 273.035 -3.18362 -0.585431 0
M  V30 2713 H 271.942 -3.318 1.72799 0
M  V30 2714 H 273.275 -4.37452 2.25602 0
M  V30 2715 N 274.927 -0.932562 -1.27047 0
M  V30 2716 C 275.875 -0.42603 -2.28665 0
M  V30 2717 C 276.869 0.49219 -1.62092 0
M  V30 2718 O 278.075 0.371355 -1.76128 0
M  V30 2719 H 274.45 -0.119213 -0.742491 0
M  V30 2720 H 276.421 -1.29579 -2.68797 0
M  V30 2721 C 275.17 0.301426 -3.46391 0
M  V30 2722 H 274.493 -0.39595 -3.97834 0
M  V30 2723 H 275.933 0.6202 -4.1944 0
M  V30 2724 C 274.392 1.51616 -3.00856 0
M  V30 2725 O 274.922 2.61476 -3.04948 0
M  V30 2726 N 273.128 1.36969 -2.56296 0
M  V30 2727 H 272.675 0.475873 -2.53166 0
M  V30 2728 H 272.633 2.18368 -2.26192 0
M  V30 2729 N 276.405 1.4127 -0.698611 0
M  V30 2730 C 277.651 2.01478 -0.231207 0
M  V30 2731 C 277.984 1.55215 1.16713 0
M  V30 2732 O 277.259 0.764672 1.78838 0
M  V30 2733 C 277.542 3.58912 -0.292281 0
M  V30 2734 C 277.395 4.15293 -1.72778 0
M  V30 2735 C 278.714 4.38736 0.346194 0
M  V30 2736 H 275.833 0.732025 -0.0854878 0
M  V30 2737 H 278.475 1.67977 -0.887906 0
M  V30 2738 H 276.625 3.87582 0.26686 0
M  V30 2739 H 278.297 3.97486 -2.341 0
M  V30 2740 H 276.54 3.7022 -2.26096 0
M  V30 2741 H 277.211 5.24452 -1.72202 0
M  V30 2742 H 279.687 4.15897 -0.130035 0
M  V30 2743 H 278.563 5.48221 0.272932 0
M  V30 2744 H 278.824 4.18425 1.42734 0
M  V30 2745 N 277.883 0.443576 1.51229 0
M  V30 2746 C 278.846 -0.353132 2.26463 0
M  V30 2747 C 279.846 -0.944338 1.3015 0
M  V30 2748 O 281.036 -0.817813 1.5381 0
M  V30 2749 C 278.168 -1.50023 3.06114 0
M  V30 2750 H 279.361 0.3063 2.98332 0
M  V30 2751 H 276.914 0.196902 1.55055 0
M  V30 2752 H 277.649 -2.19553 2.38677 0
M  V30 2753 H 277.434 -1.08241 3.76864 0
M  V30 2754 H 278.924 -2.06296 3.63087 0
M  V30 2755 N 279.361 -1.56624 0.175154 0
M  V30 2756 C 280.271 -2.21741 -0.766042 0
M  V30 2757 C 281.287 -1.21023 -1.25018 0
M  V30 2758 O 282.463 -1.53697 -1.3015 0
M  V30 2759 C 279.528 -2.84839 -1.97655 0
M  V30 2760 C 278.589 -4.00769 -1.53892 0
M  V30 2761 C 277.822 -4.60849 -2.69173 0
M  V30 2762 O 278.045 -4.19823 -3.86141 0
M  V30 2763 O 276.979 -5.50655 -2.43028 0
M  V30 2764 H 280.805 -3.02738 -0.241585 0
M  V30 2765 H 278.39 -1.49305 -0.053222 0
M  V30 2766 H 280.272 -3.24834 -2.68442 0
M  V30 2767 H 278.947 -2.06836 -2.48999 0
M  V30 2768 H 277.854 -3.65436 -0.80044 0
M  V30 2769 H 279.187 -4.80376 -1.07236 0
M  V30 2770 N 280.839 0.0985539 -1.57292 0
M  V30 2771 C 282.255 0.45267 -1.53046 0
M  V30 2772 C 282.455 1.80713 -0.891342 0
M  V30 2773 O 281.511 2.4785 -0.482375 0
M  V30 2774 C 282.824 0.418341 -2.97776 0
M  V30 2775 C 284.372 0.500443 -3.08973 0
M  V30 2776 C 284.847 0.496297 -4.55303 0
M  V30 2777 N 286.338 0.557151 -4.59837 0
M  V30 2778 C 287.073 0.575726 -5.70502 0
M  V30 2779 N 286.569 0.550714 -6.90608 0
M  V30 2780 N 288.362 0.620277 -5.58667 0
M  V30 2781 H 280.513 -0.788673 -1.97215 0
M  V30 2782 H 282.776 -0.293188 -0.901524 0
M  V30 2783 H 282.482 -0.509659 -3.47988 0
M  V30 2784 H 282.356 1.2386 -3.56284 0
M  V30 2785 H 284.743 1.41886 -2.58751 0
M  V30 2786 H 284.824 -0.347894 -2.53423 0
M  V30 2787 H 284.468 -0.418162 -5.06176 0
M  V30 2788 H 284.398 1.3618 -5.08687 0
M  V30 2789 H 286.889 0.581816 -3.73394 0
M  V30 2790 H 287.202 0.568075 -7.70709 0
M  V30 2791 H 285.547 0.517816 -6.93068 0
M  V30 2792 H 288.738 0.637322 -4.63741 0
M  V30 2793 H 288.911 0.631283 -6.44918 0
M  V30 2794 N 282.317 1.53212 0.369288 0
M  V30 2795 C 283.564 1.69215 1.11232 0
M  V30 2796 C 283.892 0.442048 1.8941 0
M  V30 2797 O 283.147 -0.575944 1.87033 0
M  V30 2798 C 283.446 2.89101 2.10132 0
M  V30 2799 C 283.112 4.25758 1.48463 0
M  V30 2800 C 281.774 4.6292 1.31372 0
M  V30 2801 C 284.126 5.10757 1.03811 0
M  V30 2802 C 281.454 5.82722 0.68207 0
M  V30 2803 C 283.806 6.31201 0.420487 0
M  V30 2804 C 282.47 6.67079 0.237038 0
M  V30 2805 H 281.74 0.619201 0.407027 0
M  V30 2806 H 284.387 1.87391 0.394552 0
M  V30 2807 H 282.692 2.65421 2.88199 0
M  V30 2808 H 284.389 2.98676 2.6757 0
M  V30 2809 H 280.979 3.96494 1.62758 0
M  V30 2810 H 285.163 4.82599 1.1581 0
M  V30 2811 H 280.419 6.09113 0.528316 0
M  V30 2812 H 284.593 6.96368 0.0662874 0
M  V30 2813 H 282.22 7.59774 -0.254477 0
M  V30 2814 N 283.795 -0.628877 1.44509 0
M  V30 2815 C 285.043 -1.38565 1.4712 0
M  V30 2816 C 285.364 -1.94712 0.105899 0
M  V30 2817 O 284.634 -1.75912 -0.862079 0
M  V30 2818 H 283.214 -0.514333 0.541729 0
M  V30 2819 H 285.876 -0.740018 1.80305 0
M  V30 2820 H 284.972 -2.21583 2.19789 0
M  V30 2821 N 285.273 -1.31445 -0.869486 0
M  V30 2822 C 286.522 -1.20517 -1.61736 0
M  V30 2823 C 286.835 0.235341 -1.94179 0
M  V30 2824 O 288.041 0.466312 -2.67465 0
M  V30 2825 C 286.497 -2.10982 -2.91573 0
M  V30 2826 C 286.105 -3.60032 -2.66611 0
M  V30 2827 C 287.849 -2.08856 -3.69567 0
M  V30 2828 C 285.756 -4.42503 -3.92358 0
M  V30 2829 H 284.686 -0.447493 -0.606849 0
M  V30 2830 H 287.337 -1.56303 -0.96133 0
M  V30 2831 H 285.719 -1.68095 -3.58553 0
M  V30 2832 H 286.893 -4.11167 -2.08035 0
M  V30 2833 H 285.208 -3.64139 -2.0197 0
M  V30 2834 H 287.805 -2.67716 -4.62852 0
M  V30 2835 H 288.148 -1.07582 -4.02159 0
M  V30 2836 H 288.681 -2.49945 -3.09471 0
M  V30 2837 H 285.42 -5.44533 -3.64916 0
M  V30 2838 H 284.94 -3.96125 -4.50383 0
M  V30 2839 H 286.619 -4.54741 -4.60238 0
M  V30 2840 N 286.751 1.08385 -1.14413 0
M  V30 2841 C 287.976 1.85057 -0.936413 0
M  V30 2842 C 288.401 1.81055 0.509971 0
M  V30 2843 O 287.759 1.1958 1.36273 0
M  V30 2844 C 287.807 3.30505 -1.44217 0
M  V30 2845 O 286.911 4.07491 -0.634409 0
M  V30 2846 H 286.252 0.573425 -0.334784 0
M  V30 2847 H 288.782 1.36799 -1.52142 0
M  V30 2848 H 288.792 3.81348 -1.45043 0
M  V30 2849 H 287.467 3.32734 -2.49522 0
M  V30 2850 H 286.044 3.66368 -0.694902 0
M  V30 2851 N 288.23 0.939286 1.26551 0
M  V30 2852 C 289.646 0.641304 1.46149 0
M  V30 2853 C 289.846 -0.805964 1.84679 0
M  V30 2854 O 288.902 -1.58278 1.96734 0
M  V30 2855 C 290.215 1.6011 2.54529 0
M  V30 2856 C 291.763 1.6106 2.68382 0
M  V30 2857 C 292.238 2.55765 3.79932 0
M  V30 2858 N 293.729 2.5404 3.87322 0
M  V30 2859 C 294.464 3.24004 4.73085 0
M  V30 2860 N 293.96 4.03388 5.63249 0
M  V30 2861 N 295.753 3.12965 4.66914 0
M  V30 2862 H 287.904 1.87478 0.998285 0
M  V30 2863 H 290.167 0.805559 0.499779 0
M  V30 2864 H 289.873 2.63412 2.33039 0
M  V30 2865 H 289.747 1.35171 3.52149 0
M  V30 2866 H 292.134 0.584835 2.89247 0
M  V30 2867 H 292.215 1.90053 1.71212 0
M  V30 2868 H 291.859 3.58458 3.5982 0
M  V30 2869 H 291.789 2.24063 4.76554 0
M  V30 2870 H 294.28 1.96396 3.22858 0
M  V30 2871 H 294.593 4.5373 6.25579 0
M  V30 2872 H 292.938 4.07489 5.63008 0
M  V30 2873 H 296.129 2.50432 3.95476 0
M  V30 2874 H 296.302 3.67759 5.33533 0
M  V30 2875 N 289.708 -1.40897 0.706093 0
M  V30 2876 C 290.618 -2.3455 0.0482286 0
M  V30 2877 C 291.634 -1.56796 -0.754396 0
M  V30 2878 O 292.81 -1.89228 -0.689538 0
M  V30 2879 C 289.875 -3.35625 -0.869303 0
M  V30 2880 C 288.936 -4.29261 -0.0576994 0
M  V30 2881 C 288.169 -5.25508 -0.931531 0
M  V30 2882 O 288.392 -5.27472 -2.17092 0
M  V30 2883 O 287.326 -6.00727 -0.375587 0
M  V30 2884 H 291.152 -2.92407 0.820476 0
M  V30 2885 H 288.737 -1.4193 0.4665 0
M  V30 2886 H 290.619 -3.97635 -1.39514 0
M  V30 2887 H 289.294 -2.80196 -1.62086 0
M  V30 2888 H 288.201 -3.70566 0.512988 0
M  V30 2889 H 289.534 -4.87817 0.655426 0
M  V30 2890 N 291.186 -0.45159 -1.50991 0
M  V30 2891 C 292.133 0.352625 -2.2809 0
M  V30 2892 C 293.103 1.0044 -1.32291 0
M  V30 2893 O 294.288 1.02058 -1.6121 0
M  V30 2894 C 291.428 1.43983 -3.13629 0
M  V30 2895 C 290.541 0.804772 -4.24438 0
M  V30 2896 C 289.676 1.86822 -4.97263 0
M  V30 2897 C 288.715 1.21236 -5.99973 0
M  V30 2898 N 287.852 2.2178 -6.66152 0
M  V30 2899 H 292.692 -0.311186 -2.96371 0
M  V30 2900 H 290.229 -0.165308 -1.46168 0
M  V30 2901 H 292.187 2.08161 -3.61559 0
M  V30 2902 H 290.817 2.07307 -2.47434 0
M  V30 2903 H 289.869 0.0509129 -3.80366 0
M  V30 2904 H 291.181 0.286076 -4.97979 0
M  V30 2905 H 290.335 2.58628 -5.48813 0
M  V30 2906 H 289.074 2.42068 -4.23385 0
M  V30 2907 H 288.079 0.479828 -5.47702 0
M  V30 2908 H 289.304 0.667051 -6.75816 0
M  V30 2909 H 287.25 2.76079 -5.95077 0
M  V30 2910 H 287.167 1.74841 -7.35504 0
M  V30 2911 H 288.435 2.93026 -7.22327 0
M  V30 2912 N 292.664 1.56529 -0.183458 0
M  V30 2913 C 293.596 2.15747 0.773697 0
M  V30 2914 C 294.609 1.1162 1.1851 0
M  V30 2915 O 295.798 1.3876 1.12285 0
M  V30 2916 C 292.898 2.6952 2.05456 0
M  V30 2917 C 292.071 3.98429 1.8048 0
M  V30 2918 C 291.13 4.37145 2.92901 0
M  V30 2919 O 290.156 5.04791 2.6301 0
M  V30 2920 N 291.358 3.99695 4.2098 0
M  V30 2921 H 294.123 2.98505 0.26736 0
M  V30 2922 H 291.684 1.619 -0.0010878 0
M  V30 2923 H 293.676 2.92412 2.79781 0
M  V30 2924 H 292.246 1.91282 2.47245 0
M  V30 2925 H 291.466 3.8379 0.899947 0
M  V30 2926 H 292.754 4.82597 1.61175 0
M  V30 2927 H 292.152 3.4526 4.48121 0
M  V30 2928 H 290.709 4.27562 4.9197 0
M  V30 2929 N 294.142 -0.090211 1.57342 0
M  V30 2930 C 295.419 -0.824761 1.77361 0
M  V30 2931 C 295.799 -1.96698 0.76637 0
M  V30 2932 O 295.147 -2.27586 -0.204179 0
M  V30 2933 C 295.357 -1.31481 3.23286 0
M  V30 2934 C 296.705 -1.75563 3.86604 0
M  V30 2935 O 297.729 -1.41093 3.27065 0
M  V30 2936 O 296.588 -2.39317 4.91314 0
M  V30 2937 H 293.682 -0.393776 0.727234 0
M  V30 2938 H 296.228 -0.0717138 1.69548 0
M  V30 2939 H 295 -0.496671 3.88135 0
M  V30 2940 H 294.623 -2.12973 3.35751 0
M  V30 2941 N 295.62 -1.53406 -0.361157 0
M  V30 2942 C 296.848 -1.73717 -1.12383 0
M  V30 2943 C 297.263 -0.468161 -1.82904 0
M  V30 2944 O 296.62 0.559198 -1.73722 0
M  V30 2945 C 296.671 -2.90558 -2.15078 0
M  V30 2946 O 296.392 -4.12549 -1.47428 0
M  V30 2947 C 297.893 -3.22777 -3.03858 0
M  V30 2948 H 295.113 -0.580896 -0.335858 0
M  V30 2949 H 297.657 -2.00167 -0.418728 0
M  V30 2950 H 295.812 -2.66489 -2.8118 0
M  V30 2951 H 296.226 -4.78009 -2.15887 0
M  V30 2952 H 297.7 -4.07927 -3.71887 0
M  V30 2953 H 298.177 -2.38329 -3.68912 0
M  V30 2954 H 298.783 -3.48787 -2.43367 0
M  V30 2955 N 297.098 0.621204 -1.44841 0
M  V30 2956 C 298.345 1.38055 -1.48145 0
M  V30 2957 C 298.673 1.94143 -0.117867 0
M  V30 2958 O 297.928 1.74713 0.881694 0
M  V30 2959 C 298.227 2.55675 -2.4973 0
M  V30 2960 C 297.893 2.17817 -3.94799 0
M  V30 2961 C 296.555 2.07205 -4.34303 0
M  V30 2962 C 298.907 1.88065 -4.86087 0
M  V30 2963 C 296.235 1.65045 -5.63007 0
M  V30 2964 C 298.587 1.47394 -6.15189 0
M  V30 2965 C 297.251 1.35331 -6.53637 0
M  V30 2966 H 296.521 0.505181 -0.542101 0
M  V30 2967 H 299.168 0.703477 -1.78111 0
M  V30 2968 H 297.473 3.2866 -2.13284 0
M  V30 2969 H 299.17 3.13904 -2.4953 0
M  V30 2970 H 295.76 2.26998 -3.63552 0
M  V30 2971 H 299.944 1.95168 -4.56315 0
M  V30 2972 H 295.2 1.54317 -5.91605 0
M  V30 2973 H 299.374 1.23415 -6.85377 0
M  V30 2974 H 297.001 1.02435 -7.53267 0
M  V30 2975 N 298.576 1.31904 0.862503 0
M  V30 2976 C 299.539 1.20131 1.95195 0
M  V30 2977 C 300.539 0.126409 1.60302 0
M  V30 2978 O 301.729 0.376234 1.70089 0
M  V30 2979 C 298.861 0.845691 3.30244 0
M  V30 2980 H 300.054 2.16943 2.07064 0
M  V30 2981 H 297.607 1.15622 1.05172 0
M  V30 2982 H 298.342 -0.120957 3.24074 0
M  V30 2983 H 298.127 1.62276 3.56944 0
M  V30 2984 H 299.617 0.787418 4.10109 0
M  V30 2985 N 300.054 -1.07777 1.14986 0
M  V30 2986 C 300.984 -2.16865 0.865557 0
M  V30 2987 C 301.965 -1.69123 -0.182083 0
M  V30 2988 O 303.15 -1.94164 -0.0373815 0
M  V30 2989 C 300.28 -3.45539 0.349313 0
M  V30 2990 C 299.234 -4.06708 1.33313 0
M  V30 2991 C 298.56 -5.30411 0.675918 0
M  V30 2992 C 299.86 -4.47241 2.69764 0
M  V30 2993 H 301.554 -2.40905 1.77778 0
M  V30 2994 H 299.1 -1.15781 0.856203 0
M  V30 2995 H 301.053 -4.21174 0.137983 0
M  V30 2996 H 299.777 -3.21072 -0.598362 0
M  V30 2997 H 298.436 -3.33112 1.53075 0
M  V30 2998 H 298.084 -5.02232 -0.277767 0
M  V30 2999 H 297.784 -5.72293 1.33244 0
M  V30 3000 H 299.308 -6.08755 0.474262 0
M  V30 3001 H 300.722 -5.14025 2.53873 0
M  V30 3002 H 299.119 -5.00062 3.3175 0
M  V30 3003 H 300.189 -3.58818 3.26156 0
M  V30 3004 N 301.532 -0.945985 -1.26051 0
M  V30 3005 C 302.495 -0.463897 -2.24456 0
M  V30 3006 C 303.495 0.427655 -1.55009 0
M  V30 3007 O 304.685 0.226157 -1.72726 0
M  V30 3008 C 301.817 0.330812 -3.39291 0
M  V30 3009 H 303.01 -1.33357 -2.68619 0
M  V30 3010 H 300.563 -0.728416 -1.38289 0
M  V30 3011 H 301.298 1.21852 -3.00537 0
M  V30 3012 H 301.083 -0.308679 -3.90883 0
M  V30 3013 H 302.573 0.657865 -4.12386 0
M  V30 3014 N 303.011 1.40521 -0.713556 0
M  V30 3015 C 304.236 2.05759 -0.26035 0
M  V30 3016 C 304.661 1.53403 1.08854 0
M  V30 3017 O 304.019 0.668535 1.68524 0
M  V30 3018 C 304.067 3.59745 -0.248122 0
M  V30 3019 O 303.171 4.05123 0.77131 0
M  V30 3020 H 302.512 0.652564 -0.122703 0
M  V30 3021 H 305.042 1.79958 -0.973467 0
M  V30 3022 H 305.052 4.07911 -0.0851129 0
M  V30 3023 H 303.727 3.97218 -1.2325 0
M  V30 3024 H 302.304 3.68422 0.57619 0
M  V30 3025 N 304.489 0.459591 1.5075 0
M  V30 3026 C 305.421 -0.37665 2.26084 0
M  V30 3027 C 306.434 -0.967109 1.30961 0
M  V30 3028 O 307.623 -0.857468 1.56556 0
M  V30 3029 C 304.723 -1.54112 3.01832 0
M  V30 3030 C 303.896 -1.06553 4.24223 0
M  V30 3031 C 302.955 -2.1027 4.82362 0
M  V30 3032 O 301.981 -1.68798 5.43595 0
M  V30 3033 N 303.183 -3.42974 4.68347 0
M  V30 3034 H 305.948 0.269124 2.98489 0
M  V30 3035 H 303.509 0.28972 1.59287 0
M  V30 3036 H 305.501 -2.23165 3.37608 0
M  V30 3037 H 304.071 -2.0918 2.32298 0
M  V30 3038 H 303.291 -0.201274 3.93686 0
M  V30 3039 H 304.579 -0.725516 5.03601 0
M  V30 3040 H 303.977 -3.79385 4.19623 0
M  V30 3041 H 302.534 -4.07858 5.08424 0
M  V30 3042 N 305.967 -1.56429 0.191757 0
M  V30 3043 C 306.899 -2.16154 -0.762245 0
M  V30 3044 C 307.912 -1.12247 -1.17917 0
M  V30 3045 O 309.101 -1.39353 -1.11548 0
M  V30 3046 C 306.201 -2.70606 -2.04024 0
M  V30 3047 C 305.374 -3.99381 -1.78364 0
M  V30 3048 C 304.433 -4.38692 -2.90578 0
M  V30 3049 O 303.459 -5.06179 -2.6033 0
M  V30 3050 N 304.661 -4.01922 -4.18854 0
M  V30 3051 H 307.426 -2.98643 -0.251526 0
M  V30 3052 H 304.987 -1.61897 0.00967373 0
M  V30 3053 H 306.979 -2.93891 -2.78227 0
M  V30 3054 H 305.549 -1.9259 -2.46227 0
M  V30 3055 H 304.769 -3.84262 -0.879581 0
M  V30 3056 H 306.057 -4.83445 -1.58614 0
M  V30 3057 H 305.455 -3.47631 -4.46283 0
M  V30 3058 H 304.012 -4.30165 -4.89695 0
M  V30 3059 N 307.445 0.0818655 -1.57387 0
M  V30 3060 C 308.392 1.09834 -2.0299 0
M  V30 3061 C 309.362 1.39043 -0.908639 0
M  V30 3062 O 310.547 1.50282 -1.17559 0
M  V30 3063 C 307.687 2.40971 -2.47037 0
M  V30 3064 C 306.8 2.18379 -3.7274 0
M  V30 3065 C 305.935 3.43008 -4.0561 0
M  V30 3066 C 304.974 3.15736 -5.24383 0
M  V30 3067 N 304.111 4.32667 -5.52941 0
M  V30 3068 H 308.951 0.702472 -2.89602 0
M  V30 3069 H 306.488 0.33531 -1.43227 0
M  V30 3070 H 308.446 3.1752 -2.70623 0
M  V30 3071 H 307.076 2.78379 -1.63417 0
M  V30 3072 H 306.128 1.32569 -3.56552 0
M  V30 3073 H 307.44 1.94227 -4.59431 0
M  V30 3074 H 306.594 4.27958 -4.30043 0
M  V30 3075 H 305.333 3.70225 -3.17466 0
M  V30 3076 H 304.338 2.2918 -4.99757 0
M  V30 3077 H 305.563 2.8985 -6.14136 0
M  V30 3078 H 303.509 4.59935 -4.67756 0
M  V30 3079 H 303.426 4.11753 -6.34031 0
M  V30 3080 H 304.694 5.18644 -5.81918 0
M  V30 3081 N 308.923 1.53595 0.353017 0
M  V30 3082 C 309.886 1.80232 1.41594 0
M  V30 3083 C 310.886 0.673081 1.46035 0
M  V30 3084 O 312.076 0.941335 1.46576 0
M  V30 3085 C 309.208 1.93578 2.80607 0
M  V30 3086 H 310.401 2.75174 1.19244 0
M  V30 3087 H 307.954 1.44864 0.586872 0
M  V30 3088 H 308.689 1.00746 3.08254 0
M  V30 3089 H 308.474 2.75724 2.78781 0
M  V30 3090 H 309.964 2.15735 3.57558 0
M  V30 3091 N 310.401 -0.613514 1.45168 0
M  V30 3092 C 311.364 -1.7065 1.53007 0
M  V30 3093 C 312.364 -1.5548 0.410184 0
M  V30 3094 O 313.554 -1.60656 0.673455 0
M  V30 3095 C 310.686 -3.09875 1.42093 0
M  V30 3096 H 311.879 -1.65068 2.50385 0
M  V30 3097 H 309.432 -0.828728 1.32521 0
M  V30 3098 H 310.167 -3.21039 0.458769 0
M  V30 3099 H 309.952 -3.22293 2.23315 0
M  V30 3100 H 311.442 -3.895 1.50598 0
M  V30 3101 N 311.879 -1.3236 -0.855495 0
M  V30 3102 C 313.295 -1.11332 -1.14356 0
M  V30 3103 C 313.495 0.106751 -2.01217 0
M  V30 3104 O 312.551 0.791891 -2.39761 0
M  V30 3105 C 313.864 -2.39237 -1.82171 0
M  V30 3106 C 315.412 -2.44986 -1.9481 0
M  V30 3107 C 315.887 -3.7281 -2.66039 0
M  V30 3108 N 317.378 -3.73787 -2.73565 0
M  V30 3109 C 318.113 -4.69394 -3.29327 0
M  V30 3110 N 317.609 -5.75367 -3.85907 0
M  V30 3111 N 319.402 -4.56893 -3.27423 0
M  V30 3112 H 311.553 -2.10586 -0.277027 0
M  V30 3113 H 313.816 -0.929701 -0.185364 0
M  V30 3114 H 313.522 -3.28431 -1.25802 0
M  V30 3115 H 313.396 -2.50134 -2.82335 0
M  V30 3116 H 315.783 -1.56252 -2.50338 0
M  V30 3117 H 315.864 -2.38043 -0.936448 0
M  V30 3118 H 315.508 -4.61918 -2.11174 0
M  V30 3119 H 315.438 -3.77024 -3.67642 0
M  V30 3120 H 317.929 -2.97189 -2.33424 0
M  V30 3121 H 318.242 -6.44378 -4.26611 0
M  V30 3122 H 316.587 -5.79123 -3.84242 0
M  V30 3123 H 319.778 -3.73269 -2.82467 0
M  V30 3124 H 319.951 -5.31577 -3.7058 0
M  V30 3125 N 313.357 1.07166 -1.15556 0
M  V30 3126 C 314.32 2.12589 -0.856644 0
M  V30 3127 C 315.32 1.6015 0.14444 0
M  V30 3128 O 316.51 1.7399 -0.0854163 0
M  V30 3129 C 313.642 3.39753 -0.279405 0
M  V30 3130 H 314.835 2.40539 -1.79112 0
M  V30 3131 H 312.388 1.23086 -0.963298 0
M  V30 3132 H 313.123 3.17447 0.663174 0
M  V30 3133 H 312.908 3.79117 -1.00063 0
M  V30 3134 H 314.398 4.17507 -0.0879113 0
M  V30 3135 N 314.835 0.952656 1.25548 0
M  V30 3136 C 315.767 0.428609 2.25157 0
M  V30 3137 C 316.78 -0.454428 1.56329 0
M  V30 3138 O 317.969 -0.263023 1.76552 0
M  V30 3139 C 315.069 -0.401972 3.36508 0
M  V30 3140 C 314.242 0.467601 4.34893 0
M  V30 3141 C 313.301 -0.30445 5.25319 0
M  V30 3142 O 312.327 0.296473 5.68427 0
M  V30 3143 N 313.529 -1.59805 5.5807 0
M  V30 3144 H 316.294 1.28497 2.70756 0
M  V30 3145 H 313.855 0.822798 1.39433 0
M  V30 3146 H 315.847 -0.926134 3.9396 0
M  V30 3147 H 314.417 -1.15918 2.90313 0
M  V30 3148 H 313.637 1.17288 3.76347 0
M  V30 3149 H 314.925 1.06119 4.97611 0
M  V30 3150 H 314.323 -2.10823 5.24948 0
M  V30 3151 H 312.88 -2.06822 6.18116 0
M  V30 3152 N 316.313 -1.40141 0.720998 0
M  V30 3153 C 317.538 -2.05618 0.271258 0
M  V30 3154 C 317.963 -1.53978 -1.08039 0
M  V30 3155 O 317.321 -0.677463 -1.68167 0
M  V30 3156 C 317.369 -3.59609 0.267197 0
M  V30 3157 O 316.473 -4.05526 -0.749814 0
M  V30 3158 H 315.814 -0.651904 0.126162 0
M  V30 3159 H 318.344 -1.79439 0.982997 0
M  V30 3160 H 318.354 -4.0786 0.106744 0
M  V30 3161 H 317.029 -3.96559 1.25354 0
M  V30 3162 H 315.606 -3.68722 -0.556644 0
M  V30 3163 N 317.792 -0.46758 -1.50504 0
M  V30 3164 C 318.739 0.328413 -2.28452 0
M  V30 3165 C 319.709 0.990313 -1.33349 0
M  V30 3166 O 320.894 1.00343 -1.62284 0
M  V30 3167 C 318.034 1.40648 -3.15138 0
M  V30 3168 C 317.147 0.759709 -4.25267 0
M  V30 3169 C 316.282 1.81537 -4.99217 0
M  V30 3170 C 315.321 1.14866 -6.01226 0
M  V30 3171 N 314.458 2.14702 -6.68467 0
M  V30 3172 H 319.298 -0.342603 -2.96024 0
M  V30 3173 H 316.835 -0.180801 -1.45985 0
M  V30 3174 H 318.793 2.04315 -3.63746 0
M  V30 3175 H 317.423 2.04671 -2.49619 0
M  V30 3176 H 316.475 0.0105671 -3.80399 0
M  V30 3177 H 317.787 0.233243 -4.98254 0
M  V30 3178 H 316.941 2.52793 -5.51526 0
M  V30 3179 H 315.68 2.37564 -4.25928 0
M  V30 3180 H 314.685 0.42171 -5.4818 0
M  V30 3181 H 315.91 0.595334 -6.76485 0
M  V30 3182 H 313.856 2.69752 -5.97972 0
M  V30 3183 H 313.773 1.6703 -7.37317 0
M  V30 3184 H 315.041 2.85348 -7.25394 0
M  V30 3185 N 319.27 1.56325 -0.20005 0
M  V30 3186 C 320.518 1.97329 0.436547 0
M  V30 3187 C 320.839 1.08826 1.61808 0
M  V30 3188 O 320.109 0.160604 1.95241 0
M  V30 3189 H 318.689 0.728714 0.164272 0
M  V30 3190 H 321.351 1.92761 -0.287937 0
M  V30 3191 H 320.447 3.02264 0.777353 0
M  V30 3192 N 320.748 -0.0735177 1.57428 0
M  V30 3193 C 321.988 -0.778363 1.89 0
M  V30 3194 C 322.352 -1.7483 0.793634 0
M  V30 3195 O 323.553 -2.49811 0.992367 0
M  V30 3196 C 321.824 -1.46929 3.25802 0
M  V30 3197 S 323.383 -2.20943 3.79117 0
M  V30 3198 H 320.201 -0.258874 0.662197 0
M  V30 3199 H 322.803 -0.0345338 1.95469 0
M  V30 3200 H 321.507 -0.749532 4.03497 0
M  V30 3201 H 321.038 -2.25258 3.22525 0
M  V30 3202 H 323.053 -3.47435 3.54265 0
M  V30 3203 N 322.226 -1.5378 -0.344866 0
M  V30 3204 C 323.473 -1.70963 -1.08526 0
M  V30 3205 C 323.801 -0.472126 -1.88683 0
M  V30 3206 O 323.056 0.546116 -1.87926 0
M  V30 3207 C 323.355 -2.92407 -2.05506 0
M  V30 3208 C 323.021 -4.28066 -1.41671 0
M  V30 3209 C 321.683 -4.64951 -1.2399 0
M  V30 3210 C 324.035 -5.12344 -0.956726 0
M  V30 3211 C 321.363 -5.83733 -0.589277 0
M  V30 3212 C 323.715 -6.3179 -0.320015 0
M  V30 3213 C 322.379 -6.67372 -0.130881 0
M  V30 3214 H 321.649 -0.625598 -0.397124 0
M  V30 3215 H 324.296 -1.87995 -0.36469 0
M  V30 3216 H 322.601 -2.69973 -2.8394 0
M  V30 3217 H 324.298 -3.02895 -2.62784 0
M  V30 3218 H 320.888 -3.99034 -1.56429 0
M  V30 3219 H 325.072 -4.8438 -1.08118 0
M  V30 3220 H 320.328 -6.09877 -0.431344 0
M  V30 3221 H 324.502 -6.96386 0.0445072 0
M  V30 3222 H 322.129 -7.59273 0.375318 0
M  V30 3223 N 323.704 0.605807 -1.45491 0
M  V30 3224 C 324.636 1.73031 -1.5031 0
M  V30 3225 C 325.649 1.57968 -0.393687 0
M  V30 3226 O 326.838 1.65817 -0.660839 0
M  V30 3227 C 323.938 3.11049 -1.34543 0
M  V30 3228 C 323.111 3.52334 -2.59189 0
M  V30 3229 C 322.17 4.69323 -2.37954 0
M  V30 3230 O 321.196 4.7635 -3.11575 0
M  V30 3231 N 322.398 5.62705 -1.4263 0
M  V30 3232 H 325.163 1.6936 -2.4726 0
M  V30 3233 H 322.724 0.79114 -1.41254 0
M  V30 3234 H 324.716 3.87071 -1.18144 0
M  V30 3235 H 323.286 3.09217 -0.458623 0
M  V30 3236 H 322.506 2.66256 -2.90691 0
M  V30 3237 H 323.794 3.76677 -3.42041 0
M  V30 3238 H 323.192 5.59744 -0.818758 0
M  V30 3239 H 321.749 6.38252 -1.32202 0
M  V30 3240 N 325.182 1.32811 0.848464 0
M  V30 3241 C 326.145 1.22194 1.9391 0
M  V30 3242 C 327.145 0.143404 1.60159 0
M  V30 3243 O 328.335 0.394253 1.6968 0
M  V30 3244 C 325.467 0.88067 3.29328 0
M  V30 3245 H 326.66 2.19127 2.04752 0
M  V30 3246 H 324.213 1.16731 1.0394 0
M  V30 3247 H 324.948 -0.0865776 3.24184 0
M  V30 3248 H 324.733 1.66052 3.55203 0
M  V30 3249 H 326.223 0.830871 4.09251 0
M  V30 3250 N 326.66 -1.06551 1.16123 0
M  V30 3251 C 327.57 -2.17484 0.879662 0
M  V30 3252 C 328.586 -1.73377 -0.147104 0
M  V30 3253 O 329.762 -2.01379 0.0289128 0
M  V30 3254 C 326.827 -3.44591 0.381829 0
M  V30 3255 C 325.888 -4.0322 1.4735 0
M  V30 3256 C 325.121 -5.24261 0.999324 0
M  V30 3257 O 325.344 -5.70198 -0.151957 0
M  V30 3258 O 324.278 -5.74775 1.78653 0
M  V30 3259 H 328.104 -2.44075 1.80724 0
M  V30 3260 H 325.689 -1.16042 0.940992 0
M  V30 3261 H 327.571 -4.21254 0.111053 0
M  V30 3262 H 326.246 -3.19532 -0.51777 0
M  V30 3263 H 325.153 -3.2806 1.79798 0
M  V30 3264 H 326.486 -4.32568 2.34831 0
M  V30 3265 N 328.138 -0.959301 -1.25041 0
M  V30 3266 C 329.387 -0.612254 -1.92183 0
M  V30 3267 C 329.7 0.855347 -1.75907 0
M  V30 3268 O 330.906 1.31256 -2.37664 0
M  V30 3269 C 329.362 -1.04435 -3.44414 0
M  V30 3270 C 328.97 -2.53482 -3.69393 0
M  V30 3271 C 330.714 -0.770055 -4.17457 0
M  V30 3272 C 328.621 -2.90468 -5.15153 0
M  V30 3273 H 327.551 -0.225279 -0.719559 0
M  V30 3274 H 330.202 -1.16438 -1.41825 0
M  V30 3275 H 328.584 -0.4206 -3.9376 0
M  V30 3276 H 329.758 -3.20916 -3.30681 0
M  V30 3277 H 328.073 -2.78432 -3.0962 0
M  V30 3278 H 330.67 -1.02249 -5.24832 0
M  V30 3279 H 331.013 0.293611 -4.15263 0
M  V30 3280 H 331.546 -1.35437 -3.74034 0
M  V30 3281 H 328.285 -3.95871 -5.22462 0
M  V30 3282 H 327.805 -2.27711 -5.54894 0
M  V30 3283 H 329.484 -2.79914 -5.83315 0
M  V30 3284 N 329.616 1.39756 -0.72842 0
M  V30 3285 C 330.862 2.00942 -0.273892 0
M  V30 3286 C 331.195 1.57656 1.13394 0
M  V30 3287 O 330.47 0.802434 1.77176 0
M  V30 3288 C 330.753 3.58211 -0.368346 0
M  V30 3289 C 330.606 4.11534 -1.81548 0
M  V30 3290 C 331.925 4.39372 0.253054 0
M  V30 3291 H 329.044 0.730047 -0.100996 0
M  V30 3292 H 331.686 1.66056 -0.923337 0
M  V30 3293 H 329.836 3.88061 0.184588 0
M  V30 3294 H 331.508 3.92431 -2.42478 0
M  V30 3295 H 329.751 3.65341 -2.33898 0
M  V30 3296 H 330.422 5.20682 -1.83288 0
M  V30 3297 H 332.898 4.15527 -0.218224 0
M  V30 3298 H 331.774 5.48677 0.156585 0
M  V30 3299 H 332.035 4.21358 1.33826 0
M  V30 3300 N 331.094 0.475555 1.50254 0
M  V30 3301 C 332.505 0.0215174 1.86688 0
M  V30 3302 C 332.856 -1.38467 1.39001 0
M  V30 3303 O 331.981 -2.02732 0.756894 0
M  V30 3304 C 332.576 0.0322715 3.38785 0
M  V30 3305 C 331.135 -0.366314 3.74613 0
M  V30 3306 C 330.282 0.415832 2.74164 0
M  V30 3307 H 333.233 0.689612 1.42934 0
M  V30 3308 H 333.254 -0.76889 3.7265 0
M  V30 3309 H 332.766 1.05584 3.73462 0
M  V30 3310 H 330.867 -1.39406 3.45538 0
M  V30 3311 H 330.98 -0.064555 4.79057 0
M  V30 3312 H 329.344 -0.131048 2.54363 0
M  V30 3313 H 330.127 1.43899 3.11686 0
M  V30 3314 N 332.573 -1.56217 0.208337 0
M  V30 3315 C 333.819 -1.98242 -0.427552 0
M  V30 3316 C 334.152 -1.09554 -1.60348 0
M  V30 3317 O 333.427 -0.15035 -1.93918 0
M  V30 3318 C 333.71 -3.4931 -0.874907 0
M  V30 3319 C 333.563 -4.48773 0.303751 0
M  V30 3320 C 334.882 -4.04424 -1.73577 0
M  V30 3321 H 332.001 -0.720744 -0.153936 0
M  V30 3322 H 334.643 -1.87586 0.30192 0
M  V30 3323 H 332.793 -3.58522 -1.49648 0
M  V30 3324 H 334.465 -4.51586 0.941682 0
M  V30 3325 H 332.708 -4.23194 0.953375 0
M  V30 3326 H 333.379 -5.51976 -0.0519883 0
M  V30 3327 H 335.855 -3.98075 -1.21143 0
M  V30 3328 H 334.731 -5.1047 -2.01771 0
M  V30 3329 H 334.992 -3.50494 -2.69456 0
M  V30 3330 N 334.051 0.0651679 -1.57465 0
M  V30 3331 C 335.279 0.775808 -1.91804 0
M  V30 3332 C 335.694 1.70782 -0.804916 0
M  V30 3333 O 335.051 1.81153 0.221311 0
M  V30 3334 C 335.102 1.56381 -3.25925 0
M  V30 3335 O 334.823 0.669248 -4.32958 0
M  V30 3336 C 336.324 2.37485 -3.7432 0
M  V30 3337 H 333.544 0.2202 -0.63384 0
M  V30 3338 H 336.088 0.0334587 -2.04473 0
M  V30 3339 H 334.243 2.25837 -3.14764 0
M  V30 3340 H 334.657 1.21801 -5.10162 0
M  V30 3341 H 336.131 2.88223 -4.70778 0
M  V30 3342 H 336.608 3.17307 -3.03666 0
M  V30 3343 H 337.214 1.73173 -3.88447 0
M  V30 3344 N 335.529 1.53961 0.336706 0
M  V30 3345 C 336.757 1.75483 1.09605 0
M  V30 3346 C 337.172 0.4972 1.82136 0
M  V30 3347 O 336.529 -0.53149 1.74589 0
M  V30 3348 C 336.58 2.93943 2.10428 0
M  V30 3349 O 336.301 4.14842 1.40846 0
M  V30 3350 C 337.802 3.27571 2.98684 0
M  V30 3351 H 335.022 0.586166 0.326574 0
M  V30 3352 H 337.566 2.00808 0.38683 0
M  V30 3353 H 335.721 2.70929 2.76905 0
M  V30 3354 H 336.135 4.81383 2.08255 0
M  V30 3355 H 337.609 4.13791 3.6535 0
M  V30 3356 H 338.086 2.44168 3.65074 0
M  V30 3357 H 338.692 3.52615 2.37787 0
M  V30 3358 N 337.007 -0.598083 1.45811 0
M  V30 3359 C 338.235 -1.38322 1.53866 0
M  V30 3360 C 338.65 -1.87992 0.174479 0
M  V30 3361 O 338.007 -1.62756 -0.825627 0
M  V30 3362 C 338.058 -2.58125 2.53089 0
M  V30 3363 O 337.779 -2.10516 3.84206 0
M  V30 3364 C 339.28 -3.50869 2.70935 0
M  V30 3365 H 336.5 -0.423093 0.520801 0
M  V30 3366 H 339.044 -0.728527 1.91083 0
M  V30 3367 H 337.199 -3.19615 2.18917 0
M  V30 3368 H 337.613 -2.88425 4.38077 0
M  V30 3369 H 339.087 -4.31451 3.44317 0
M  V30 3370 H 339.564 -4.01822 1.77301 0
M  V30 3371 H 340.17 -2.95225 3.06141 0
M  V30 3372 N 338.485 -1.33259 -0.841409 0
M  V30 3373 C 339.731 -1.24757 -1.59886 0
M  V30 3374 C 340.064 0.186913 -1.93298 0
M  V30 3375 O 339.339 1.12757 -1.5848 0
M  V30 3376 C 339.622 -2.12036 -2.91055 0
M  V30 3377 C 339.475 -3.63929 -2.6434 0
M  V30 3378 C 340.794 -1.9916 -3.92458 0
M  V30 3379 H 337.913 -0.454542 -0.580138 0
M  V30 3380 H 340.555 -1.63335 -0.970647 0
M  V30 3381 H 338.705 -1.79265 -3.44669 0
M  V30 3382 H 340.377 -4.06978 -2.17178 0
M  V30 3383 H 338.62 -3.85935 -1.98082 0
M  V30 3384 H 339.291 -4.20341 -3.57796 0
M  V30 3385 H 341.767 -2.27895 -3.48143 0
M  V30 3386 H 340.643 -2.62484 -4.82072 0
M  V30 3387 H 340.904 -0.963082 -4.31482 0
M  V30 3388 N 339.963 1.05934 -1.16686 0
M  V30 3389 C 340.913 2.11764 -0.844978 0
M  V30 3390 C 341.897 1.59922 0.177178 0
M  V30 3391 O 343.089 1.76983 -0.0241768 0
M  V30 3392 C 340.218 3.41493 -0.351812 0
M  V30 3393 C 339.304 4.00152 -1.40496 0
M  V30 3394 N 339.695 4.32874 -2.61636 0
M  V30 3395 C 337.993 4.278 -1.26106 0
M  V30 3396 C 338.694 4.79552 -3.29249 0
M  V30 3397 N 337.67 4.79211 -2.56628 0
M  V30 3398 H 341.472 2.34916 -1.76612 0
M  V30 3399 H 338.986 1.23511 -1.05446 0
M  V30 3400 H 340.983 4.16773 -0.102796 0
M  V30 3401 H 339.643 3.19778 0.56322 0
M  V30 3402 H 340.654 4.23109 -2.98663 0
M  V30 3403 H 337.331 4.15511 -0.407081 0
M  V30 3404 H 338.721 5.14045 -4.32675 0
M  V30 3405 N 341.441 0.965919 1.2453 0
M  V30 3406 C 342.718 0.543777 1.87889 0
M  V30 3407 C 343.098 -0.97909 1.87021 0
M  V30 3408 O 342.446 -1.84969 1.3416 0
M  V30 3409 C 342.656 1.13327 3.30088 0
M  V30 3410 C 344.004 1.21707 4.06783 0
M  V30 3411 O 345.028 1.08566 3.39252 0
M  V30 3412 O 343.887 1.42456 5.27606 0
M  V30 3413 H 340.981 0.181054 0.806938 0
M  V30 3414 H 343.527 1.06007 1.32516 0
M  V30 3415 H 342.299 2.17612 3.25209 0
M  V30 3416 H 341.922 0.600911 3.93033 0
M  V30 3417 N 342.919 -1.39368 0.735821 0
M  V30 3418 C 344.196 -1.94465 0.210395 0
M  V30 3419 C 344.576 -1.67254 -1.28799 0
M  V30 3420 O 343.924 -1.00123 -2.05396 0
M  V30 3421 C 344.134 -3.4472 0.544897 0
M  V30 3422 C 345.482 -4.21708 0.494689 0
M  V30 3423 O 346.506 -3.52922 0.482136 0
M  V30 3424 O 345.365 -5.44299 0.489947 0
M  V30 3425 H 342.459 -0.826096 0.0386666 0
M  V30 3426 H 345.005 -1.48863 0.814735 0
M  V30 3427 H 343.777 -3.57963 1.58045 0
M  V30 3428 H 343.4 -3.97502 -0.08837 0
M  V30 3429 N 344.397 -0.483516 -1.5 0
M  V30 3430 C 345.344 0.304164 -2.28787 0
M  V30 3431 C 346.314 0.976114 -1.34392 0
M  V30 3432 O 347.499 0.986156 -1.63339 0
M  V30 3433 C 344.639 1.37298 -3.16612 0
M  V30 3434 C 343.752 0.714561 -4.26049 0
M  V30 3435 C 342.887 1.76232 -5.01114 0
M  V30 3436 C 341.926 1.08483 -6.0241 0
M  V30 3437 N 341.063 2.076 -6.70706 0
M  V30 3438 H 345.903 -0.373981 -2.95644 0
M  V30 3439 H 343.44 -0.196275 -1.45785 0
M  V30 3440 H 345.398 2.00445 -3.65893 0
M  V30 3441 H 344.028 2.02012 -2.51776 0
M  V30 3442 H 343.08 -0.0297798 -3.80388 0
M  V30 3443 H 344.392 0.180383 -4.98474 0
M  V30 3444 H 343.546 2.46929 -5.54176 0
M  V30 3445 H 342.285 2.33033 -4.28424 0
M  V30 3446 H 341.29 0.363545 -5.48597 0
M  V30 3447 H 342.515 0.523551 -6.77079 0
M  V30 3448 H 340.461 2.63394 -6.00799 0
M  V30 3449 H 340.378 1.59201 -7.39047 0
M  V30 3450 H 341.646 2.77639 -7.2838 0
M  V30 3451 N 345.875 1.56104 -0.216619 0
M  V30 3452 C 347.123 1.97781 0.415593 0
M  V30 3453 C 347.444 1.10536 1.60645 0
M  V30 3454 O 346.714 0.181303 1.95059 0
M  V30 3455 H 345.294 0.730415 0.156534 0
M  V30 3456 H 347.956 1.92445 -0.308366 0
M  V30 3457 H 347.052 3.03072 0.74525 0
M  V30 3458 N 347.353 -0.0568162 1.57498 0
M  V30 3459 C 348.581 -0.765626 1.92213 0
M  V30 3460 C 348.996 -1.70353 0.813961 0
M  V30 3461 O 348.353 -1.81268 -0.211701 0
M  V30 3462 C 348.404 -1.5465 3.2675 0
M  V30 3463 O 348.125 -0.646278 4.33307 0
M  V30 3464 C 349.626 -2.35497 3.75574 0
M  V30 3465 H 346.846 -0.216835 0.634999 0
M  V30 3466 H 349.39 -0.0226146 2.04487 0
M  V30 3467 H 347.545 -2.24165 3.15957 0
M  V30 3468 H 347.959 -1.19093 5.108 0
M  V30 3469 H 349.433 -2.85722 4.72299 0
M  V30 3470 H 349.91 -3.15692 3.05344 0
M  V30 3471 H 350.516 -1.7111 3.8936 0
M  V30 3472 N 348.832 -1.54138 -0.328536 0
M  V30 3473 C 349.779 -1.83176 -1.40411 0
M  V30 3474 C 350.749 -0.678494 -1.5161 0
M  V30 3475 O 351.934 -0.92443 -1.6691 0
M  V30 3476 C 349.074 -2.06035 -2.76846 0
M  V30 3477 C 348.187 -3.33727 -2.74318 0
M  V30 3478 C 347.322 -3.46574 -4.02567 0
M  V30 3479 C 346.361 -4.68159 -3.94327 0
M  V30 3480 N 345.498 -4.77959 -5.14296 0
M  V30 3481 H 350.338 -2.74938 -1.14948 0
M  V30 3482 H 347.875 -1.36166 -0.556538 0
M  V30 3483 H 349.833 -2.1728 -3.56153 0
M  V30 3484 H 348.463 -1.1757 -3.00628 0
M  V30 3485 H 347.515 -3.31246 -1.8703 0
M  V30 3486 H 348.827 -4.23139 -2.64111 0
M  V30 3487 H 347.981 -3.57333 -4.90304 0
M  V30 3488 H 346.72 -2.55245 -4.15574 0
M  V30 3489 H 345.725 -4.57461 -3.04974 0
M  V30 3490 H 346.95 -5.60868 -3.82889 0
M  V30 3491 H 344.896 -3.89544 -5.27818 0
M  V30 3492 H 344.813 -5.6133 -5.06404 0
M  V30 3493 H 346.081 -4.93044 -6.03761 0
M  V30 3494 N 350.31 0.590341 -1.46126 0
M  V30 3495 C 351.726 0.912917 -1.30912 0
M  V30 3496 C 351.926 1.99616 -0.274893 0
M  V30 3497 O 350.982 2.50397 0.325197 0
M  V30 3498 C 352.295 1.3375 -2.69317 0
M  V30 3499 C 353.843 1.45077 -2.77348 0
M  V30 3500 C 354.318 1.90904 -4.16317 0
M  V30 3501 N 355.809 1.9811 -4.18696 0
M  V30 3502 C 356.544 2.34828 -5.23109 0
M  V30 3503 N 356.04 2.70393 -6.37856 0
M  V30 3504 N 357.833 2.35317 -5.10473 0
M  V30 3505 H 349.984 -0.125358 -2.1203 0
M  V30 3506 H 352.247 0.00658481 -0.947977 0
M  V30 3507 H 351.953 0.615614 -3.4627 0
M  V30 3508 H 351.827 2.30058 -2.9892 0
M  V30 3509 H 354.214 2.16353 -2.00687 0
M  V30 3510 H 354.295 0.4704 -2.51438 0
M  V30 3511 H 353.939 1.20209 -4.9347 0
M  V30 3512 H 353.869 2.89886 -4.39629 0
M  V30 3513 H 356.36 1.73146 -3.359 0
M  V30 3514 H 356.673 2.97341 -7.13308 0
M  V30 3515 H 355.018 2.68048 -6.41229 0
M  V30 3516 H 358.209 2.0695 -4.19868 0
M  V30 3517 H 358.382 2.63605 -5.9196 0
M  V30 3518 N 351.788 1.33704 0.83433 0
M  V30 3519 C 353.013 1.28615 1.62705 0
M  V30 3520 C 353.438 -0.139242 1.87584 0
M  V30 3521 O 352.796 -1.09734 1.4432 0
M  V30 3522 C 352.844 2.07139 2.95171 0
M  V30 3523 O 351.948 1.4331 3.86699 0
M  V30 3524 H 351.289 0.44226 0.49528 0
M  V30 3525 H 353.819 1.76335 1.03766 0
M  V30 3526 H 353.829 2.18073 3.44831 0
M  V30 3527 H 352.504 3.10779 2.76386 0
M  V30 3528 H 351.081 1.4105 3.45195 0
M  V30 3529 N 353.266 -1.05314 1.17247 0
M  V30 3530 C 354.515 -1.77685 0.954521 0
M  V30 3531 C 354.828 -1.88616 -0.518025 0
M  V30 3532 O 356.034 -2.57714 -0.854144 0
M  V30 3533 C 354.49 -3.19402 1.65863 0
M  V30 3534 C 354.098 -3.16605 3.16963 0
M  V30 3535 C 355.842 -3.96237 1.52303 0
M  V30 3536 C 353.749 -4.53103 3.80068 0
M  V30 3537 H 352.679 -0.666 0.353496 0
M  V30 3538 H 355.33 -1.1805 1.40486 0
M  V30 3539 H 353.712 -3.79355 1.13602 0
M  V30 3540 H 354.886 -2.66176 3.76148 0
M  V30 3541 H 353.201 -2.53268 3.30521 0
M  V30 3542 H 355.798 -4.97157 1.96822 0
M  V30 3543 H 356.141 -4.136 0.473401 0
M  V30 3544 H 356.674 -3.42829 2.01775 0
M  V30 3545 H 353.413 -4.40946 4.85023 0
M  V30 3546 H 352.933 -5.03686 3.2567 0
M  V30 3547 H 354.612 -5.22045 3.82202 0
M  V30 3548 N 354.744 -0.972509 -1.24016 0
M  V30 3549 C 355.972 -0.654803 -1.96265 0
M  V30 3550 C 356.387 0.776708 -1.72083 0
M  V30 3551 O 355.744 1.52171 -1.00748 0
M  V30 3552 C 355.795 -0.92592 -3.49441 0
M  V30 3553 O 355.516 -2.30116 -3.72798 0
M  V30 3554 C 357.017 -0.623068 -4.38899 0
M  V30 3555 H 354.237 -0.243907 -0.6251 0
M  V30 3556 H 356.781 -1.30175 -1.57717 0
M  V30 3557 H 354.936 -0.325108 -3.86033 0
M  V30 3558 H 355.35 -2.38483 -4.67147 0
M  V30 3559 H 356.824 -0.863189 -5.45209 0
M  V30 3560 H 357.301 0.442754 -4.36963 0
M  V30 3561 H 357.907 -1.204 -4.07902 0
M  V30 3562 N 356.222 1.38976 -0.743202 0
M  V30 3563 C 357.468 2.0064 -0.295189 0
M  V30 3564 C 357.801 1.5885 1.11716 0
M  V30 3565 O 357.076 0.821181 1.76315 0
M  V30 3566 C 357.359 3.578 -0.406318 0
M  V30 3567 C 357.212 4.09586 -1.85903 0
M  V30 3568 C 358.531 4.39616 0.206439 0
M  V30 3569 H 355.65 0.728935 -0.108733 0
M  V30 3570 H 358.292 1.65067 -0.940897 0
M  V30 3571 H 356.442 3.88235 0.143419 0
M  V30 3572 H 358.114 3.89837 -2.46627 0
M  V30 3573 H 356.357 3.6284 -2.3776 0
M  V30 3574 H 357.028 5.18708 -1.888 0
M  V30 3575 H 359.504 4.15273 -0.262283 0
M  V30 3576 H 358.38 5.48812 0.0983819 0
M  V30 3577 H 358.641 4.22754 1.2935 0
M  V30 3578 N 357.7 0.491464 1.49741 0
M  V30 3579 C 358.928 -0.0535151 2.06831 0
M  V30 3580 C 359.343 -1.31683 1.35296 0
M  V30 3581 O 358.7 -1.77402 0.42836 0
M  V30 3582 C 358.751 -0.320835 3.60073 0
M  V30 3583 O 358.472 0.892394 4.28915 0
M  V30 3584 C 359.973 -0.910519 4.33848 0
M  V30 3585 H 357.193 0.0161909 0.670805 0
M  V30 3586 H 359.737 0.68609 1.92647 0
M  V30 3587 H 357.892 -1.0104 3.73991 0
M  V30 3588 H 358.306 0.649401 5.20464 0
M  V30 3589 H 359.78 -1.04721 5.41976 0
M  V30 3590 H 360.257 -1.90589 3.95692 0
M  V30 3591 H 360.863 -0.258712 4.24512 0
M  V30 3592 N 359.178 -1.55987 0.224894 0
M  V30 3593 C 360.11 -2.17722 -0.716224 0
M  V30 3594 C 361.123 -1.14723 -1.15509 0
M  V30 3595 O 362.312 -1.41688 -1.08567 0
M  V30 3596 C 359.412 -2.74873 -1.98238 0
M  V30 3597 C 358.585 -4.03074 -1.69853 0
M  V30 3598 C 357.644 -4.44757 -2.81208 0
M  V30 3599 O 356.67 -5.11587 -2.49534 0
M  V30 3600 N 357.872 -4.10716 -4.10235 0
M  V30 3601 H 360.637 -2.99109 -0.188123 0
M  V30 3602 H 358.198 -1.6184 0.0440123 0
M  V30 3603 H 360.19 -2.99727 -2.7193 0
M  V30 3604 H 358.76 -1.9777 -2.42086 0
M  V30 3605 H 357.98 -3.86041 -0.797875 0
M  V30 3606 H 359.268 -4.86701 -1.48324 0
M  V30 3607 H 358.666 -3.57019 -4.38809 0
M  V30 3608 H 357.223 -4.40455 -4.80461 0
M  V30 3609 N 360.656 0.0484629 -1.57525 0
M  V30 3610 C 361.933 0.777447 -1.79486 0
M  V30 3611 C 362.313 1.94597 -0.818251 0
M  V30 3612 O 361.661 2.28047 0.143767 0
M  V30 3613 C 361.871 1.22864 -3.26658 0
M  V30 3614 C 363.219 1.65251 -3.91123 0
M  V30 3615 O 364.243 1.32372 -3.3069 0
M  V30 3616 O 363.102 2.26207 -4.97486 0
M  V30 3617 H 360.196 0.374357 -0.737419 0
M  V30 3618 H 362.742 0.0267359 -1.69679 0
M  V30 3619 H 361.514 0.393589 -3.89316 0
M  V30 3620 H 361.137 2.03996 -3.41279 0
M  V30 3621 N 362.134 1.5431 0.320358 0
M  V30 3622 C 363.044 1.86946 1.41734 0
M  V30 3623 C 364.06 0.761689 1.56443 0
M  V30 3624 O 365.236 1.05629 1.71477 0
M  V30 3625 C 362.301 2.09293 2.76401 0
M  V30 3626 C 361.362 3.33082 2.70841 0
M  V30 3627 C 360.595 3.54353 3.99086 0
M  V30 3628 O 360.818 2.79002 4.97508 0
M  V30 3629 O 359.752 4.47838 4.0215 0
M  V30 3630 H 363.578 2.80232 1.17062 0
M  V30 3631 H 361.163 1.40255 0.514673 0
M  V30 3632 H 363.045 2.25303 3.56113 0
M  V30 3633 H 361.72 1.19194 3.00956 0
M  V30 3634 H 360.627 3.22454 1.89668 0
M  V30 3635 H 361.96 4.23249 2.5124 0
M  V30 3636 N 363.613 -0.582584 1.46437 0
M  V30 3637 C 364.861 -1.33814 1.51453 0
M  V30 3638 C 365.182 -1.94277 0.167792 0
M  V30 3639 O 364.452 -1.78566 -0.805677 0
M  V30 3640 H 363.032 -0.496838 0.557818 0
M  V30 3641 H 365.694 -0.682281 1.82568 0
M  V30 3642 H 364.79 -2.14479 2.26728 0
M  V30 3643 N 365.091 -1.34144 -0.827227 0
M  V30 3644 C 366.34 -1.25602 -1.5782 0
M  V30 3645 C 366.653 0.173445 -1.94829 0
M  V30 3646 O 367.859 0.380984 -2.68814 0
M  V30 3647 C 366.315 -2.20151 -2.84713 0
M  V30 3648 C 365.923 -3.68331 -2.55021 0
M  V30 3649 C 367.667 -2.20508 -3.62735 0
M  V30 3650 C 365.574 -4.54762 -3.78082 0
M  V30 3651 H 364.504 -0.466573 -0.592306 0
M  V30 3652 H 367.155 -1.59283 -0.911116 0
M  V30 3653 H 365.537 -1.79417 -3.53023 0
M  V30 3654 H 366.711 -4.17577 -1.94849 0
M  V30 3655 H 365.026 -3.7038 -1.90283 0
M  V30 3656 H 367.623 -2.82306 -4.54101 0
M  V30 3657 H 367.966 -1.20322 -3.98533 0
M  V30 3658 H 368.499 -2.59664 -3.01362 0
M  V30 3659 H 365.238 -5.55867 -3.47407 0
M  V30 3660 H 364.758 -4.10254 -4.37552 0
M  V30 3661 H 366.437 -4.69153 -4.45538 0
M  V30 3662 N 366.569 1.04691 -1.17803 0
M  V30 3663 C 367.985 1.29963 -0.926379 0
M  V30 3664 C 368.185 1.97251 0.411635 0
M  V30 3665 O 367.241 2.24922 1.14744 0
M  V30 3666 C 368.554 2.16447 -2.08737 0
M  V30 3667 C 370.102 2.29814 -2.12496 0
M  V30 3668 C 370.577 3.19661 -3.27995 0
M  V30 3669 N 372.068 3.27247 -3.27816 0
M  V30 3670 C 372.803 3.96906 -4.13827 0
M  V30 3671 N 372.299 4.6895 -5.09959 0
M  V30 3672 N 374.092 3.93122 -4.01761 0
M  V30 3673 H 366.243 0.594182 -2.0392 0
M  V30 3674 H 368.506 0.324649 -0.890678 0
M  V30 3675 H 368.212 1.74304 -3.05469 0
M  V30 3676 H 368.086 3.17103 -2.04268 0
M  V30 3677 H 370.473 2.71196 -1.16347 0
M  V30 3678 H 370.554 1.2877 -2.21025 0
M  V30 3679 H 370.198 2.78991 -4.24413 0
M  V30 3680 H 370.128 4.20722 -3.16703 0
M  V30 3681 H 372.619 2.75921 -2.58217 0
M  V30 3682 H 372.932 5.19679 -5.71974 0
M  V30 3683 H 371.277 4.67875 -5.13924 0
M  V30 3684 H 374.468 3.35967 -3.2595 0
M  V30 3685 H 374.641 4.47139 -4.6901 0
M  V30 3686 N 368.047 0.979072 1.23499 0
M  V30 3687 C 369.458 0.684391 1.73704 0
M  V30 3688 C 369.809 -0.799448 1.79174 0
M  V30 3689 O 368.934 -1.62531 1.42873 0
M  V30 3690 C 369.529 1.23564 3.15464 0
M  V30 3691 C 368.088 0.99063 3.6313 0
M  V30 3692 C 367.235 1.36416 2.41425 0
M  V30 3693 H 370.186 1.15307 1.09041 0
M  V30 3694 H 370.207 0.607417 3.7562 0
M  V30 3695 H 369.719 2.31561 3.1145 0
M  V30 3696 H 367.82 -0.0733136 3.72528 0
M  V30 3697 H 367.933 1.64427 4.5 0
M  V30 3698 H 366.297 0.782616 2.42378 0
M  V30 3699 H 367.08 2.45387 2.40083 0
M  V30 3700 N 369.525 -1.3858 0.750561 0
M  V30 3701 C 370.75 -2.04997 0.314812 0
M  V30 3702 C 371.175 -1.56235 -1.04749 0
M  V30 3703 O 370.533 -0.712981 -1.66692 0
M  V30 3704 C 370.581 -3.58961 0.343415 0
M  V30 3705 O 369.685 -4.07025 -0.663628 0
M  V30 3706 H 369.026 -0.649081 0.139962 0
M  V30 3707 H 371.556 -1.77313 1.02084 0
M  V30 3708 H 371.566 -4.07542 0.193233 0
M  V30 3709 H 370.241 -3.93811 1.33738 0
M  V30 3710 H 368.818 -3.6982 -0.478307 0
M  V30 3711 N 371.003 -0.499398 -1.49478 0
M  V30 3712 C 372.231 0.0425456 -2.06856 0
M  V30 3713 C 372.646 1.30964 -1.35992 0
M  V30 3714 O 372.003 1.77172 -0.437762 0
M  V30 3715 C 372.054 0.301735 -3.60239 0
M  V30 3716 O 371.775 -0.915127 -4.28436 0
M  V30 3717 C 373.276 0.887499 -4.34325 0
M  V30 3718 H 370.496 -0.0197482 -0.670709 0
M  V30 3719 H 373.04 -0.696297 -1.92281 0
M  V30 3720 H 371.195 0.990556 -3.74522 0
M  V30 3721 H 371.609 -0.676993 -5.20113 0
M  V30 3722 H 373.083 1.01845 -5.42523 0
M  V30 3723 H 373.56 1.88488 -3.96698 0
M  V30 3724 H 374.166 0.236196 -4.24644 0
M  V30 3725 N 372.481 1.55866 -0.233164 0
M  V30 3726 C 373.709 2.02998 0.399905 0
M  V30 3727 C 374.124 1.11274 1.52524 0
M  V30 3728 O 373.481 0.124528 1.82075 0
M  V30 3729 C 373.532 3.4958 0.920639 0
M  V30 3730 O 373.253 4.37808 -0.159834 0
M  V30 3731 C 374.754 4.12411 1.62578 0
M  V30 3732 H 371.974 0.664006 0.0966281 0
M  V30 3733 H 374.518 2.0143 -0.353013 0
M  V30 3734 H 372.673 3.51727 1.62379 0
M  V30 3735 H 373.087 5.23981 0.23337 0
M  V30 3736 H 374.561 5.16711 1.94201 0
M  V30 3737 H 375.038 3.5809 2.54299 0
M  V30 3738 H 375.644 4.14148 0.967553 0
M  V30 3739 N 373.959 -0.0401083 1.57549 0
M  V30 3740 C 374.892 -1.07689 2.01192 0
M  V30 3741 C 375.87 -1.358 0.894273 0
M  V30 3742 O 377.054 -1.48642 1.15921 0
M  V30 3743 C 374.181 -2.41418 2.3756 0
M  V30 3744 C 373.227 -2.29237 3.59656 0
M  V30 3745 S 374.06 -1.65628 5.09242 0
M  V30 3746 C 375.216 -3.0087 5.48843 0
M  V30 3747 H 375.449 -0.705108 2.88817 0
M  V30 3748 H 372.982 -0.249724 1.52367 0
M  V30 3749 H 374.94 -3.18329 2.59186 0
M  V30 3750 H 373.601 -2.75747 1.50407 0
M  V30 3751 H 372.794 -3.27932 3.82722 0
M  V30 3752 H 372.396 -1.60469 3.37825 0
M  V30 3753 H 374.688 -3.97201 5.48851 0
M  V30 3754 H 375.631 -2.82549 6.49286 0
M  V30 3755 H 376.039 -3.02934 4.76331 0
M  V30 3756 N 375.437 -1.54477 -0.31217 0
M  V30 3757 C 376.347 -1.87695 -1.4074 0
M  V30 3758 C 377.363 -0.769975 -1.56036 0
M  V30 3759 O 378.539 -1.06537 -1.70915 0
M  V30 3760 C 375.604 -2.10755 -2.75287 0
M  V30 3761 C 374.665 -3.34514 -2.69071 0
M  V30 3762 C 373.898 -3.56465 -3.97201 0
M  V30 3763 O 374.121 -2.81637 -4.96021 0
M  V30 3764 O 373.055 -4.49964 -3.9977 0
M  V30 3765 H 376.881 -2.80849 -1.15574 0
M  V30 3766 H 374.466 -1.40526 -0.507228 0
M  V30 3767 H 376.348 -2.27188 -3.54913 0
M  V30 3768 H 375.023 -1.20788 -3.0032 0
M  V30 3769 H 373.93 -3.23456 -1.87955 0
M  V30 3770 H 375.263 -4.24575 -2.48992 0
M  V30 3771 N 376.915 0.57481 -1.46744 0
M  V30 3772 C 378.163 1.33009 -1.52161 0
M  V30 3773 C 378.484 1.94185 -0.178092 0
M  V30 3774 O 377.754 1.7899 0.796196 0
M  V30 3775 H 376.334 0.493873 -0.560445 0
M  V30 3776 H 378.996 0.672589 -1.82927 0
M  V30 3777 H 378.092 2.13273 -2.27862 0
M  V30 3778 N 378.394 1.34581 0.820102 0
M  V30 3779 C 379.324 1.29038 1.94606 0
M  V30 3780 C 380.305 0.1673 1.69275 0
M  V30 3781 O 381.49 0.360112 1.90832 0
M  V30 3782 C 378.62 1.04793 3.31113 0
M  V30 3783 C 377.574 2.13597 3.70891 0
M  V30 3784 C 376.9 1.74537 5.05412 0
M  V30 3785 C 378.2 3.55451 3.8269 0
M  V30 3786 H 379.894 2.23248 1.99501 0
M  V30 3787 H 377.44 1.0747 0.958449 0
M  V30 3788 H 379.393 0.995592 4.0947 0
M  V30 3789 H 378.117 0.0702565 3.26524 0
M  V30 3790 H 376.776 2.17905 2.9481 0
M  V30 3791 H 376.424 0.754226 4.97313 0
M  V30 3792 H 376.124 2.47361 5.32997 0
M  V30 3793 H 377.648 1.70803 5.86224 0
M  V30 3794 H 379.062 3.5354 4.51312 0
M  V30 3795 H 377.459 4.26922 4.21732 0
M  V30 3796 H 378.529 3.92587 2.84611 0
M  V30 3797 N 379.872 -1.04064 1.18357 0
M  V30 3798 C 380.835 -2.10243 0.912707 0
M  V30 3799 C 381.835 -1.60477 -0.101928 0
M  V30 3800 O 383.025 -1.73703 0.131517 0
M  V30 3801 C 380.157 -3.38893 0.369387 0
M  V30 3802 H 381.35 -2.35706 1.85426 0
M  V30 3803 H 378.903 -1.20489 0.995594 0
M  V30 3804 H 379.638 -3.19094 -0.578776 0
M  V30 3805 H 379.423 -3.76331 1.1008 0
M  V30 3806 H 380.913 -4.17128 0.198575 0
M  V30 3807 N 381.35 -0.985608 -1.22978 0
M  V30 3808 C 382.297 -0.529825 -2.24636 0
M  V30 3809 C 383.267 0.434028 -1.60329 0
M  V30 3810 O 384.452 0.340414 -1.87739 0
M  V30 3811 C 381.592 0.156533 -3.44745 0
M  V30 3812 C 380.705 -0.848197 -4.23591 0
M  V30 3813 C 379.84 -0.136109 -5.31026 0
M  V30 3814 C 378.879 -1.1297 -6.01585 0
M  V30 3815 N 378.016 -0.446415 -7.00679 0
M  V30 3816 H 382.856 -1.40148 -2.62988 0
M  V30 3817 H 380.393 -0.702168 -1.29259 0
M  V30 3818 H 382.351 0.571324 -4.1327 0
M  V30 3819 H 380.981 0.992025 -3.07179 0
M  V30 3820 H 380.033 -1.38135 -3.54433 0
M  V30 3821 H 381.345 -1.60512 -4.72268 0
M  V30 3822 H 380.499 0.335784 -6.0577 0
M  V30 3823 H 379.238 0.653373 -4.83304 0
M  V30 3824 H 378.243 -1.6123 -5.25628 0
M  V30 3825 H 379.468 -1.91993 -6.51395 0
M  V30 3826 H 377.414 0.323763 -6.55201 0
M  V30 3827 H 377.331 -1.1419 -7.47326 0
M  V30 3828 H 378.599 0.00291697 -7.795 0
M  V30 3829 N 382.828 1.3818 -0.7579 0
M  V30 3830 C 383.758 2.33027 -0.148597 0
M  V30 3831 C 384.739 1.55085 0.69875 0
M  V30 3832 O 385.924 1.83384 0.639053 0
M  V30 3833 C 383.054 3.3928 0.742034 0
M  V30 3834 C 382.008 4.28 -0.00291946 0
M  V30 3835 C 381.334 5.25146 1.00625 0
M  V30 3836 C 382.634 5.08938 -1.17385 0
M  V30 3837 H 384.328 2.84231 -0.940909 0
M  V30 3838 H 381.874 1.36659 -0.453908 0
M  V30 3839 H 383.827 4.046 1.17799 0
M  V30 3840 H 382.551 2.86569 1.56671 0
M  V30 3841 H 381.21 3.64192 -0.419504 0
M  V30 3842 H 380.858 4.68721 1.8251 0
M  V30 3843 H 380.558 5.85361 0.512428 0
M  V30 3844 H 382.082 5.93342 1.44143 0
M  V30 3845 H 383.496 5.67474 -0.815224 0
M  V30 3846 H 381.893 5.7841 -1.59882 0
M  V30 3847 H 382.963 4.42424 -1.98468 0
M  V30 3848 N 384.306 0.507319 1.49211 0
M  V30 3849 C 385.253 -0.267728 2.29242 0
M  V30 3850 C 386.223 -0.954609 1.35928 0
M  V30 3851 O 387.408 -0.960046 1.64887 0
M  V30 3852 C 384.548 -1.32243 3.18756 0
M  V30 3853 C 383.661 -0.64669 4.27132 0
M  V30 3854 C 382.796 -1.68238 5.03855 0
M  V30 3855 C 381.835 -0.98885 6.0406 0
M  V30 3856 N 380.972 -1.96903 6.73924 0
M  V30 3857 H 385.812 0.420968 2.95012 0
M  V30 3858 H 383.349 0.219443 1.45454 0
M  V30 3859 H 385.307 -1.94599 3.69036 0
M  V30 3860 H 383.937 -1.97981 2.54958 0
M  V30 3861 H 382.989 0.0902926 3.80293 0
M  V30 3862 H 384.301 -0.101058 4.98698 0
M  V30 3863 H 383.455 -2.38081 5.58034 0
M  V30 3864 H 382.194 -2.26187 4.32077 0
M  V30 3865 H 381.199 -0.276222 5.49106 0
M  V30 3866 H 382.424 -0.415767 6.77826 0
M  V30 3867 H 380.37 -2.53803 6.04913 0
M  V30 3868 H 380.287 -1.47423 7.41487 0
M  V30 3869 H 381.555 -2.66015 7.32705 0
M  V30 3870 N 385.784 -1.5574 0.241426 0
M  V30 3871 C 387.195 -1.84842 -0.262755 0
M  V30 3872 C 387.546 -1.16317 -1.58003 0
M  V30 3873 O 386.671 -0.439653 -2.11887 0
M  V30 3874 C 387.266 -3.35332 -0.483523 0
M  V30 3875 C 385.825 -3.6468 -0.931977 0
M  V30 3876 C 384.972 -2.77299 -0.0061151 0
M  V30 3877 H 387.923 -1.51761 0.464129 0
M  V30 3878 H 387.944 -3.56615 -1.32688 0
M  V30 3879 H 387.456 -3.85178 0.47537 0
M  V30 3880 H 385.557 -3.20307 -1.90353 0
M  V30 3881 H 385.67 -4.72498 -0.792628 0
M  V30 3882 H 384.034 -2.49408 -0.516503 0
M  V30 3883 H 384.817 -3.2995 0.948052 0
M  V30 3884 N 387.262 0.0317525 -1.57568 0
M  V30 3885 C 388.225 1.01783 -2.0536 0
M  V30 3886 C 389.225 1.29203 -0.957253 0
M  V30 3887 O 390.415 1.24251 -1.22095 0
M  V30 3888 C 387.547 2.35137 -2.46827 0
M  V30 3889 H 388.74 0.605062 -2.93733 0
M  V30 3890 H 386.293 0.278514 -1.53799 0
M  V30 3891 H 387.028 2.81168 -1.61602 0
M  V30 3892 H 386.813 2.16566 -3.26866 0
M  V30 3893 H 388.303 3.05938 -2.84239 0
M  V30 3894 N 388.74 1.54641 0.303973 0
M  V30 3895 C 389.987 1.7378 1.03955 0
M  V30 3896 C 390.315 0.521986 1.87365 0
M  V30 3897 O 389.57 -0.496099 1.89308 0
M  V30 3898 C 389.869 2.97753 1.97681 0
M  V30 3899 C 389.535 4.31671 1.30271 0
M  V30 3900 C 388.197 4.68075 1.11619 0
M  V30 3901 C 390.549 5.147 0.82055 0
M  V30 3902 C 387.877 5.8509 0.434304 0
M  V30 3903 C 390.229 6.32416 0.152395 0
M  V30 3904 C 388.893 6.67484 -0.0461067 0
M  V30 3905 H 388.163 0.635908 0.380398 0
M  V30 3906 H 390.81 1.88896 0.314718 0
M  V30 3907 H 389.115 2.77406 2.76682 0
M  V30 3908 H 390.812 3.09756 2.54661 0
M  V30 3909 H 387.402 4.03041 1.45795 0
M  V30 3910 H 391.586 4.87077 0.952374 0
M  V30 3911 H 386.842 6.10806 0.269495 0
M  V30 3912 H 391.016 6.96023 -0.229126 0
M  V30 3913 H 388.643 7.58011 -0.576494 0
M  V30 3914 N 390.218 -0.567019 1.47046 0
M  V30 3915 C 391.165 -1.67489 1.58796 0
M  V30 3916 C 392.135 -1.60399 0.43144 0
M  V30 3917 O 393.32 -1.79378 0.650233 0
M  V30 3918 C 390.46 -3.05821 1.59899 0
M  V30 3919 C 389.573 -3.2342 2.86397 0
M  V30 3920 C 388.708 -4.52093 2.789 0
M  V30 3921 C 387.747 -4.6309 4.00267 0
M  V30 3922 N 386.884 -5.83106 3.91064 0
M  V30 3923 H 391.724 -1.56785 2.53422 0
M  V30 3924 H 389.261 -0.763896 1.2571 0
M  V30 3925 H 391.219 -3.8591 1.58522 0
M  V30 3926 H 389.849 -3.15384 0.687929 0
M  V30 3927 H 388.901 -2.3683 2.97684 0
M  V30 3928 H 390.213 -3.27412 3.76301 0
M  V30 3929 H 389.367 -5.4043 2.75718 0
M  V30 3930 H 388.106 -4.50565 1.86662 0
M  V30 3931 H 387.111 -3.73168 4.03765 0
M  V30 3932 H 388.336 -4.66386 4.93621 0
M  V30 3933 H 386.282 -5.82546 3.01623 0
M  V30 3934 H 386.199 -5.88434 4.74638 0
M  V30 3935 H 387.467 -6.73831 3.91882 0
M  V30 3936 N 391.696 -1.35014 -0.812953 0
M  V30 3937 C 392.643 -1.27412 -1.92444 0
M  V30 3938 C 393.613 -0.14733 -1.65445 0
M  V30 3939 O 394.798 -0.329974 -1.87925 0
M  V30 3940 C 391.938 -1.04558 -3.28879 0
M  V30 3941 C 391.051 -2.26101 -3.68106 0
M  V30 3942 C 390.186 -1.96449 -4.9354 0
M  V30 3943 C 389.225 -3.14081 -5.25376 0
M  V30 3944 N 388.362 -2.84246 -6.41988 0
M  V30 3945 H 393.202 -2.22463 -1.98278 0
M  V30 3946 H 390.739 -1.10593 -0.969933 0
M  V30 3947 H 392.697 -0.893413 -4.07522 0
M  V30 3948 H 391.327 -0.131719 -3.22531 0
M  V30 3949 H 390.379 -2.52204 -2.84775 0
M  V30 3950 H 391.691 -3.13959 -3.87597 0
M  V30 3951 H 390.845 -1.78026 -5.79993 0
M  V30 3952 H 389.584 -1.05867 -4.76071 0
M  V30 3953 H 388.589 -3.33089 -4.37415 0
M  V30 3954 H 389.814 -4.05455 -5.44778 0
M  V30 3955 H 387.76 -1.96252 -6.25956 0
M  V30 3956 H 387.677 -3.65637 -6.61699 0
M  V30 3957 H 388.945 -2.6935 -7.31485 0
M  V30 3958 N 393.175 1.03435 -1.18907 0
M  V30 3959 C 394.452 1.73778 -0.89781 0
M  V30 3960 C 394.832 2.02458 0.597832 0
M  V30 3961 O 394.18 1.67482 1.55441 0
M  V30 3962 C 394.39 3.01845 -1.75187 0
M  V30 3963 C 395.738 3.7546 -1.9828 0
M  V30 3964 O 396.762 3.11759 -1.72293 0
M  V30 3965 O 395.621 4.89966 -2.42065 0
M  V30 3966 H 392.715 0.75651 -0.334098 0
M  V30 3967 H 395.261 1.09444 -1.29693 0
M  V30 3968 H 394.033 2.76836 -2.76545 0
M  V30 3969 H 393.656 3.73919 -1.35167 0
M  V30 3970 N 394.653 0.992116 1.22453 0
M  V30 3971 C 395.901 0.666215 1.90804 0
M  V30 3972 C 396.222 -0.804152 1.77647 0
M  V30 3973 O 395.492 -1.57629 1.16318 0
M  V30 3974 H 394.072 0.243423 0.706225 0
M  V30 3975 H 396.734 1.25845 1.48825 0
M  V30 3976 H 395.83 0.928069 2.97982 0
M  V30 3977 N 396.131 -1.37776 0.765217 0
M  V30 3978 C 397.356 -2.04651 0.336537 0
M  V30 3979 C 397.781 -1.57337 -1.03086 0
M  V30 3980 O 397.139 -0.730621 -1.65927 0
M  V30 3981 C 397.187 -3.58577 0.381468 0
M  V30 3982 O 396.291 -4.07706 -0.62042 0
M  V30 3983 H 395.632 -0.64756 0.146838 0
M  V30 3984 H 398.162 -1.76221 1.03959 0
M  V30 3985 H 398.172 -4.07314 0.236448 0
M  V30 3986 H 396.847 -3.9237 1.37907 0
M  V30 3987 H 395.424 -3.70306 -0.439056 0
M  V30 3988 N 397.609 -0.515225 -1.4894 0
M  V30 3989 C 398.837 0.0206034 -2.0689 0
M  V30 3990 C 399.252 1.29514 -1.37374 0
M  V30 3991 O 398.609 1.76698 -0.456529 0
M  V30 3992 C 398.66 0.26351 -3.60538 0
M  V30 3993 O 398.381 -0.960517 -4.27441 0
M  V30 3994 C 399.882 0.841383 -4.35242 0
M  V30 3995 H 397.102 -0.0268608 -0.670462 0
M  V30 3996 H 399.646 -0.716651 -1.91532 0
M  V30 3997 H 397.801 0.950777 -3.75552 0
M  V30 3998 H 398.215 -0.73212 -5.19365 0
M  V30 3999 H 399.689 0.96085 -5.43573 0
M  V30 4000 H 400.166 1.8427 -3.98674 0
M  V30 4001 H 400.772 0.191143 -4.2487 0
M  V30 4002 N 399.087 1.5561 -0.249682 0
M  V30 4003 C 400.315 2.03411 0.378352 0
M  V30 4004 C 400.73 1.12886 1.51335 0
M  V30 4005 O 400.087 0.143833 1.81932 0
M  V30 4006 C 400.138 3.50537 0.88351 0
M  V30 4007 O 399.859 4.37614 -0.20626 0
M  V30 4008 C 401.36 4.14113 1.58195 0
M  V30 4009 H 398.58 0.664994 0.08958 0
M  V30 4010 H 401.124 2.01044 -0.374357 0
M  V30 4011 H 399.279 3.5343 1.58639 0
M  V30 4012 H 399.693 5.24199 0.177782 0
M  V30 4013 H 401.167 5.18741 1.8871 0
M  V30 4014 H 401.644 3.60767 2.50487 0
M  V30 4015 H 402.25 4.15151 0.923573 0
M  V30 4016 N 400.565 -0.0233959 1.57583 0
M  V30 4017 C 401.528 -1.00693 2.05897 0
M  V30 4018 C 402.528 -1.28693 0.964092 0
M  V30 4019 O 403.718 -1.23602 1.22753 0
M  V30 4020 C 400.85 -2.33825 2.4807 0
M  V30 4021 H 402.043 -0.589476 2.9405 0
M  V30 4022 H 399.596 -0.270354 1.53944 0
M  V30 4023 H 400.331 -2.80307 1.6309 0
M  V30 4024 H 400.116 -2.1483 3.2801 0
M  V30 4025 H 401.606 -3.04426 2.85857 0
M  V30 4026 N 402.043 -1.548 -0.295768 0
M  V30 4027 C 403.291 -1.73985 -1.02828 0
M  V30 4028 C 403.612 -0.531406 -1.87619 0
M  V30 4029 O 402.882 0.454221 -1.90561 0
M  V30 4030 H 401.462 -0.641556 -0.382642 0
M  V30 4031 H 404.124 -1.92163 -0.325489 0
M  V30 4032 H 403.22 -2.63129 -1.67838 0
M  V30 4033 N 403.521 0.559213 -1.47345 0
M  V30 4034 C 404.469 1.68747 -1.60085 0
M  V30 4035 C 405.463 1.628 -0.46825 0
M  V30 4036 O 406.669 1.68009 -0.645977 0
M  V30 4037 H 403.044 0.558329 -0.503759 0
M  V30 4038 H 405.015 1.55138 -2.54902 0
M  V30 4039 C 403.764 3.07103 -1.63042 0
M  V30 4040 H 403.087 3.12361 -2.49541 0
M  V30 4041 H 404.527 3.85743 -1.76006 0
M  V30 4042 C 402.986 3.34935 -0.363357 0
M  V30 4043 O 403.516 3.98102 0.536416 0
M  V30 4044 N 401.722 2.89574 -0.244 0
M  V30 4045 H 401.269 2.38348 -0.977133 0
M  V30 4046 H 401.227 3.08566 0.602836 0
M  V30 4047 N 404.999 1.35443 0.805782 0
M  V30 4048 C 406.224 1.32037 1.59941 0
M  V30 4049 C 406.649 -0.0994215 1.87837 0
M  V30 4050 O 406.007 -1.06648 1.46615 0
M  V30 4051 C 406.055 2.13354 2.90711 0
M  V30 4052 O 405.159 1.5148 3.83572 0
M  V30 4053 H 404.5 0.452666 0.485787 0
M  V30 4054 H 407.03 1.78496 1.00002 0
M  V30 4055 H 407.04 2.25338 3.40128 0
M  V30 4056 H 405.715 3.16572 2.69732 0
M  V30 4057 H 404.292 1.4834 3.42125 0
M  V30 4058 N 406.477 -1.02803 1.19454 0
M  V30 4059 C 407.702 -1.80378 1.02364 0
M  V30 4060 C 408.127 -1.83282 -0.423007 0
M  V30 4061 O 407.485 -1.25945 -1.30413 0
M  V30 4062 C 407.533 -3.23248 1.59821 0
M  V30 4063 O 406.637 -4.04 0.828105 0
M  V30 4064 H 405.978 -0.556799 0.361761 0
M  V30 4065 H 408.508 -1.29385 1.58495 0
M  V30 4066 H 408.518 -3.73994 1.63073 0
M  V30 4067 H 407.193 -3.2045 2.65113 0
M  V30 4068 H 405.77 -3.62635 0.86891 0
M  V30 4069 N 407.956 -0.998596 -1.21925 0
M  V30 4070 C 408.888 -0.511879 -2.23411 0
M  V30 4071 C 409.901 0.396094 -1.57908 0
M  V30 4072 O 411.09 0.197316 -1.77406 0
M  V30 4073 C 408.19 0.276802 -3.37768 0
M  V30 4074 C 407.363 -0.628687 -4.32858 0
M  V30 4075 C 406.422 0.109272 -5.26087 0
M  V30 4076 O 405.448 -0.507237 -5.66935 0
M  V30 4077 N 406.65 1.38983 -5.63617 0
M  V30 4078 H 409.415 -1.38457 -2.658 0
M  V30 4079 H 406.976 -0.873981 -1.36283 0
M  V30 4080 H 408.968 0.77928 -3.97126 0
M  V30 4081 H 407.538 1.05063 -2.94415 0
M  V30 4082 H 406.758 -1.31175 -3.71735 0
M  V30 4083 H 408.046 -1.24514 -4.93329 0
M  V30 4084 H 407.444 1.91194 -5.32411 0
M  V30 4085 H 406.001 1.83739 -6.25367 0
M  V30 4086 N 409.434 1.37368 -0.772513 0
M  V30 4087 C 410.68 1.99969 -0.337681 0
M  V30 4088 C 411.013 1.61184 1.08321 0
M  V30 4089 O 410.288 0.858395 1.74533 0
M  V30 4090 C 410.571 3.56858 -0.482121 0
M  V30 4091 C 410.424 4.0555 -1.94549 0
M  V30 4092 C 411.743 4.39955 0.113143 0
M  V30 4093 H 408.862 0.726464 -0.124171 0
M  V30 4094 H 411.504 1.63034 -0.975699 0
M  V30 4095 H 409.654 3.88452 0.0610361 0
M  V30 4096 H 411.326 3.84518 -2.54841 0
M  V30 4097 H 409.569 3.57715 -2.45403 0
M  V30 4098 H 410.24 5.14587 -1.9976 0
M  V30 4099 H 412.716 4.14623 -0.35031 0
M  V30 4100 H 411.592 5.48897 -0.0180514 0
M  V30 4101 H 411.853 4.25403 1.20354 0
M  V30 4102 N 410.912 0.523116 1.48665 0
M  V30 4103 C 412.137 -0.0117284 2.07397 0
M  V30 4104 C 412.562 -1.28031 1.37803 0
M  V30 4105 O 411.92 -1.75836 0.441762 0
M  V30 4106 C 411.968 -0.225786 3.59892 0
M  V30 4107 O 411.072 -1.29592 3.91509 0
M  V30 4108 H 410.413 0.0360673 0.66302 0
M  V30 4109 H 412.943 0.729066 1.9117 0
M  V30 4110 H 412.953 -0.450552 4.05505 0
M  V30 4111 H 411.628 0.700944 4.09951 0
M  V30 4112 H 410.205 -1.05436 3.57684 0
M  V30 4113 N 412.39 -1.55475 0.257931 0
M  V30 4114 C 413.667 -1.91155 -0.414629 0
M  V30 4115 C 414.047 -1.18008 -1.75035 0
M  V30 4116 O 413.395 -0.301193 -2.26506 0
M  V30 4117 C 413.605 -3.44283 -0.571859 0
M  V30 4118 C 414.953 -4.15744 -0.862678 0
M  V30 4119 O 415.977 -3.50083 -0.657314 0
M  V30 4120 O 414.836 -5.31909 -1.2544 0
M  V30 4121 H 411.93 -0.796016 -0.22425 0
M  V30 4122 H 414.476 -1.66976 0.302814 0
M  V30 4123 H 413.248 -3.89558 0.368844 0
M  V30 4124 H 412.871 -3.7436 -1.33943 0
M  V30 4125 N 413.868 0.0150385 -1.57593 0
M  V30 4126 C 415.116 0.701613 -1.8953 0
M  V30 4127 C 415.437 1.75139 -0.857396 0
M  V30 4128 O 414.707 1.95607 0.107194 0
M  V30 4129 H 413.287 0.26213 -0.699498 0
M  V30 4130 H 415.949 -0.0223304 -1.94887 0
M  V30 4131 H 415.045 1.18236 -2.88837 0
M  V30 4132 N 415.346 1.54954 0.287554 0
M  V30 4133 C 416.309 1.86076 1.33823 0
M  V30 4134 C 417.309 0.734414 1.43049 0
M  V30 4135 O 418.499 1.00266 1.42452 0
M  V30 4136 C 415.631 2.05305 2.72144 0
M  V30 4137 H 416.824 2.79984 1.07465 0
M  V30 4138 H 414.377 1.47223 0.524902 0
M  V30 4139 H 415.112 1.1373 3.03704 0
M  V30 4140 H 414.897 2.873 2.66836 0
M  V30 4141 H 416.387 2.30706 3.48087 0
M  V30 4142 N 416.824 -0.551391 1.4764 0
M  V30 4143 C 417.787 -1.64007 1.60107 0
M  V30 4144 C 418.787 -1.53601 0.47576 0
M  V30 4145 O 419.977 -1.57655 0.740988 0
M  V30 4146 C 417.109 -3.03569 1.55108 0
M  V30 4147 H 418.302 -1.543 2.57161 0
M  V30 4148 H 415.855 -0.771776 1.35917 0
M  V30 4149 H 416.59 -3.18804 0.594519 0
M  V30 4150 H 416.375 -3.12532 2.36783 0
M  V30 4151 H 417.865 -3.82762 1.66982 0
M  V30 4152 N 418.302 -1.35869 -0.798587 0
M  V30 4153 C 419.265 -1.29307 -1.89242 0
M  V30 4154 C 420.265 -0.202747 -1.59517 0
M  V30 4155 O 421.455 -0.456957 -1.681 0
M  V30 4156 C 418.587 -1.00229 -3.25833 0
M  V30 4157 H 419.78 -2.26576 -1.96478 0
M  V30 4158 H 417.333 -1.20509 -0.995358 0
M  V30 4159 H 418.068 -0.033801 -3.24282 0
M  V30 4160 H 417.853 -1.79121 -3.48795 0
M  V30 4161 H 419.343 -0.98219 -4.05885 0
M  V30 4162 N 419.78 1.02168 -1.19998 0
M  V30 4163 C 421.029 1.75091 -1.0013 0
M  V30 4164 C 421.342 1.89923 0.467835 0
M  V30 4165 O 422.548 2.59888 0.785515 0
M  V30 4166 C 421.004 3.14892 -1.74273 0
M  V30 4167 C 420.612 3.0809 -3.25245 0
M  V30 4168 C 422.356 3.9206 -1.62755 0
M  V30 4169 C 420.263 4.42867 -3.91948 0
M  V30 4170 H 419.193 0.656394 -0.37103 0
M  V30 4171 H 421.844 1.14284 -1.43567 0
M  V30 4172 H 420.226 3.7621 -1.2362 0
M  V30 4173 H 421.4 2.5611 -3.83072 0
M  V30 4174 H 419.715 2.44416 -3.3712 0
M  V30 4175 H 422.312 4.91764 -2.09934 0
M  V30 4176 H 422.655 4.12199 -0.582894 0
M  V30 4177 H 423.188 3.37359 -2.10793 0
M  V30 4178 H 419.927 4.27931 -4.96543 0
M  V30 4179 H 419.447 4.94874 -3.3891 0
M  V30 4180 H 421.126 5.11728 -3.95909 0
M  V30 4181 N 421.258 1.00505 1.21394 0
M  V30 4182 C 422.188 0.585684 2.26035 0
M  V30 4183 C 423.169 -0.393525 1.65485 0
M  V30 4184 O 424.354 -0.281497 1.92149 0
M  V30 4185 C 421.484 -0.0884283 3.47187 0
M  V30 4186 C 420.438 0.810567 4.20254 0
M  V30 4187 C 419.764 0.00286382 5.347 0
M  V30 4188 C 421.064 2.1132 4.77641 0
M  V30 4189 H 422.758 1.46039 2.61368 0
M  V30 4190 H 420.304 0.703648 1.25638 0
M  V30 4191 H 422.257 -0.393286 4.19561 0
M  V30 4192 H 420.981 -0.997766 3.10986 0
M  V30 4193 H 419.64 1.09925 3.49731 0
M  V30 4194 H 419.288 -0.907765 4.94741 0
M  V30 4195 H 418.988 0.601444 5.84514 0
M  V30 4196 H 420.512 -0.295808 6.09883 0
M  V30 4197 H 421.926 1.87148 5.41893 0
M  V30 4198 H 420.323 2.66164 5.37845 0
M  V30 4199 H 421.393 2.78393 3.9702 0
M  V30 4200 N 422.737 -1.36956 0.779787 0
M  V30 4201 C 423.667 -2.32761 0.185651 0
M  V30 4202 C 424.648 -1.56177 -0.673989 0
M  V30 4203 O 425.833 -1.84378 -0.609797 0
M  V30 4204 C 422.963 -3.40418 -0.687964 0
M  V30 4205 C 421.917 -4.27941 0.0710102 0
M  V30 4206 C 421.243 -5.26681 -0.922573 0
M  V30 4207 C 422.543 -5.07006 1.25467 0
M  V30 4208 H 424.237 -2.82698 0.986008 0
M  V30 4209 H 421.783 -1.3592 0.475592 0
M  V30 4210 H 423.736 -4.06423 -1.11348 0
M  V30 4211 H 422.46 -2.89025 -1.52093 0
M  V30 4212 H 421.119 -3.63478 0.47739 0
M  V30 4213 H 420.767 -4.71565 -1.7503 0
M  V30 4214 H 420.467 -5.86103 -0.419237 0
M  V30 4215 H 421.991 -5.9556 -1.34686 0
M  V30 4216 H 423.405 -5.66105 0.905401 0
M  V30 4217 H 421.802 -5.75793 1.69063 0
M  V30 4218 H 422.872 -4.3921 2.05481 0
M  V30 4219 N 424.215 -0.530993 -1.48385 0
M  V30 4220 C 425.178 0.220497 -2.28137 0
M  V30 4221 C 426.178 0.866851 -1.35434 0
M  V30 4222 O 427.368 0.726746 -1.58316 0
M  V30 4223 C 424.5 1.31921 -3.1434 0
M  V30 4224 H 425.693 -0.479714 -2.96038 0
M  V30 4225 H 423.246 -0.286968 -1.53643 0
M  V30 4226 H 423.981 2.05264 -2.51072 0
M  V30 4227 H 423.766 0.86085 -3.82533 0
M  V30 4228 H 425.256 1.84776 -3.74497 0
M  V30 4229 N 425.693 1.55336 -0.266172 0
M  V30 4230 C 427.109 1.59356 0.0882065 0
M  V30 4231 C 427.309 1.2834 1.55342 0
M  V30 4232 O 426.365 1.03996 2.30089 0
M  V30 4233 C 427.678 2.99409 -0.278364 0
M  V30 4234 C 429.226 3.12196 -0.224243 0
M  V30 4235 C 429.701 4.545 -0.565123 0
M  V30 4236 N 431.192 4.60313 -0.51634 0
M  V30 4237 C 431.927 5.68434 -0.753013 0
M  V30 4238 N 431.423 6.84738 -1.05383 0
M  V30 4239 N 433.216 5.57942 -0.682414 0
M  V30 4240 H 425.367 1.73764 -1.22147 0
M  V30 4241 H 427.63 0.809822 -0.492841 0
M  V30 4242 H 427.336 3.2691 -1.29703 0
M  V30 4243 H 427.21 3.75228 0.385186 0
M  V30 4244 H 429.597 2.84464 0.78512 0
M  V30 4245 H 429.678 2.38609 -0.921922 0
M  V30 4246 H 429.322 4.82956 -1.57213 0
M  V30 4247 H 429.252 5.26374 0.154248 0
M  V30 4248 H 431.743 3.7676 -0.29335 0
M  V30 4249 H 432.056 7.63088 -1.22133 0
M  V30 4250 H 430.401 6.86375 -1.09151 0
M  V30 4251 H 433.592 4.65958 -0.44731 0
M  V30 4252 H 433.765 6.4213 -0.870248 0
M  V30 4253 N 427.171 -0.0066808 1.57599 0
M  V30 4254 C 428.587 -0.36267 1.55425 0
M  V30 4255 C 428.787 -1.75209 0.995187 0
M  V30 4256 O 427.843 -2.44616 0.626058 0
M  V30 4257 C 429.156 -0.244017 2.99708 0
M  V30 4258 C 430.704 -0.319451 3.11366 0
M  V30 4259 C 431.179 -0.229998 4.57422 0
M  V30 4260 N 432.67 -0.288105 4.62303 0
M  V30 4261 C 433.405 -0.242127 5.72889 0
M  V30 4262 N 432.901 -0.147133 6.92644 0
M  V30 4263 N 434.694 -0.293502 5.61333 0
M  V30 4264 H 426.845 0.902314 1.92281 0
M  V30 4265 H 429.108 0.34525 0.882896 0
M  V30 4266 H 428.814 0.711678 3.44424 0
M  V30 4267 H 428.688 -1.02877 3.629 0
M  V30 4268 H 431.075 -1.26559 2.66584 0
M  V30 4269 H 431.156 0.495055 2.50964 0
M  V30 4270 H 430.8 0.712566 5.02877 0
M  V30 4271 H 430.73 -1.0629 5.15761 0
M  V30 4272 H 433.221 -0.363126 3.76151 0
M  V30 4273 H 433.534 -0.117763 7.7271 0
M  V30 4274 H 431.879 -0.112857 6.94908 0
M  V30 4275 H 435.07 -0.365864 4.66668 0
M  V30 4276 H 435.243 -0.254204 6.47501 0
M  V30 4277 N 428.649 -1.55105 -0.279332 0
M  V30 4278 C 429.874 -1.7976 -1.03446 0
M  V30 4279 C 430.299 -0.565952 -1.79384 0
M  V30 4280 O 429.657 0.484259 -1.74713 0
M  V30 4281 C 429.705 -3.0179 -1.97371 0
M  V30 4282 O 428.809 -2.76432 -3.06038 0
M  V30 4283 H 428.15 -0.594334 -0.29608 0
M  V30 4284 H 430.68 -2.02235 -0.310165 0
M  V30 4285 H 430.69 -3.30351 -2.39441 0
M  V30 4286 H 429.365 -3.91085 -1.4151 0
M  V30 4287 H 427.942 -2.58949 -2.68328 0
M  V30 4288 N 430.127 0.543554 -1.4793 0
M  V30 4289 C 431.074 1.64942 -1.6144 0
M  V30 4290 C 432.044 1.59692 -0.456903 0
M  V30 4291 O 433.229 1.78321 -0.678688 0
M  V30 4292 C 430.369 3.03238 -1.64744 0
M  V30 4293 C 429.482 3.18823 -2.91506 0
M  V30 4294 C 428.617 4.47599 -2.86057 0
M  V30 4295 C 427.656 4.56664 -4.07584 0
M  V30 4296 N 426.793 5.76811 -4.00292 0
M  V30 4297 H 431.633 1.52733 -2.55884 0
M  V30 4298 H 429.17 0.7438 -1.2691 0
M  V30 4299 H 431.128 3.83339 -1.64641 0
M  V30 4300 H 429.758 3.1425 -0.738017 0
M  V30 4301 H 428.81 2.32064 -3.01414 0
M  V30 4302 H 430.122 3.21384 -3.81463 0
M  V30 4303 H 429.276 5.35975 -2.84281 0
M  V30 4304 H 428.015 4.47538 -1.93807 0
M  V30 4305 H 427.02 3.66697 -4.09651 0
M  V30 4306 H 428.245 4.58474 -5.00978 0
M  V30 4307 H 426.191 5.77673 -3.10853 0
M  V30 4308 H 426.108 5.80808 -4.8394 0
M  V30 4309 H 427.376 6.67512 -4.02553 0
M  V30 4310 N 431.605 1.3629 0.791371 0
M  V30 4311 C 432.568 1.30309 1.88553 0
M  V30 4312 C 433.568 0.211204 1.59407 0
M  V30 4313 O 434.758 0.465865 1.67855 0
M  V30 4314 C 431.89 1.01956 3.25297 0
M  V30 4315 H 433.083 2.27614 1.95273 0
M  V30 4316 H 430.636 1.21035 0.988953 0
M  V30 4317 H 431.371 0.050998 3.2426 0
M  V30 4318 H 431.156 1.80968 3.4784 0
M  V30 4319 H 432.646 1.0037 4.05359 0
M  V30 4320 N 433.083 -1.0153 1.20538 0
M  V30 4321 C 433.993 -2.13557 0.971113 0
M  V30 4322 C 435.009 -1.73845 -0.0734366 0
M  V30 4323 O 436.185 -2.01075 0.114299 0
M  V30 4324 C 433.25 -3.42661 0.527639 0
M  V30 4325 C 432.311 -3.96608 1.64319 0
M  V30 4326 C 431.544 -5.1955 1.22078 0
M  V30 4327 O 431.767 -5.70329 0.0900198 0
M  V30 4328 O 430.701 -5.66681 2.02871 0
M  V30 4329 H 434.527 -2.3619 1.90913 0
M  V30 4330 H 432.112 -1.11946 0.989362 0
M  V30 4331 H 433.994 -4.20404 0.289621 0
M  V30 4332 H 432.669 -3.21441 -0.381779 0
M  V30 4333 H 431.576 -3.20139 1.93551 0
M  V30 4334 H 432.909 -4.22219 2.52966 0
M  V30 4335 N 434.561 -1.01147 -1.20859 0
M  V30 4336 C 435.471 -0.58686 -2.27141 0
M  V30 4337 C 436.487 0.373198 -1.69951 0
M  V30 4338 O 437.663 0.235423 -2.00019 0
M  V30 4339 C 434.728 0.0733602 -3.46622 0
M  V30 4340 C 433.789 -0.931995 -4.19061 0
M  V30 4341 C 433.022 -0.303186 -5.32838 0
M  V30 4342 O 433.245 0.898395 -5.63281 0
M  V30 4343 O 432.179 -1.01735 -5.9324 0
M  V30 4344 H 436.005 -1.47155 -2.65667 0
M  V30 4345 H 433.59 -0.780689 -1.2738 0
M  V30 4346 H 435.472 0.442333 -4.19072 0
M  V30 4347 H 434.147 0.932329 -3.09983 0
M  V30 4348 H 433.054 -1.35224 -3.48805 0
M  V30 4349 H 434.387 -1.76076 -4.59628 0
M  V30 4350 N 436.039 1.36541 -0.78704 0
M  V30 4351 C 436.969 2.32659 -0.197992 0
M  V30 4352 C 437.95 1.56533 0.665697 0
M  V30 4353 O 439.135 1.84698 0.60001 0
M  V30 4354 C 436.265 3.40778 0.669901 0
M  V30 4355 C 435.219 4.27897 -0.0937039 0
M  V30 4356 C 434.545 5.27163 0.894629 0
M  V30 4357 C 435.845 5.06334 -1.28154 0
M  V30 4358 H 437.539 2.82171 -1.00099 0
M  V30 4359 H 435.085 1.35665 -0.482793 0
M  V30 4360 H 437.038 4.07008 1.09191 0
M  V30 4361 H 435.762 2.89827 1.50558 0
M  V30 4362 H 434.421 3.6322 -0.49666 0
M  V30 4363 H 434.069 4.72486 1.72527 0
M  V30 4364 H 433.769 5.86317 0.388149 0
M  V30 4365 H 435.293 5.96266 1.31525 0
M  V30 4366 H 436.707 5.65617 -0.93541 0
M  V30 4367 H 435.104 5.74888 -1.72115 0
M  V30 4368 H 436.174 4.38114 -2.07807 0
M  V30 4369 N 437.518 0.538854 1.48102 0
M  V30 4370 C 438.766 0.00798599 2.02098 0
M  V30 4371 C 439.087 -1.33922 1.41739 0
M  V30 4372 O 438.357 -1.86932 0.585934 0
M  V30 4373 H 436.937 -3.62179e-05 0.747 0
M  V30 4374 H 439.599 0.7047 1.81714 0
M  V30 4375 H 438.695 -0.0937672 3.11959 0
M  V30 4376 N 438.996 -1.55193 0.274407 0
M  V30 4377 C 439.926 -2.25471 -0.607032 0
M  V30 4378 C 440.907 -1.24461 -1.15946 0
M  V30 4379 O 442.092 -1.53179 -1.19373 0
M  V30 4380 C 439.222 -2.97526 -1.79153 0
M  V30 4381 C 438.176 -4.05459 -1.37067 0
M  V30 4382 C 437.502 -4.65084 -2.6382 0
M  V30 4383 C 438.802 -5.19691 -0.521389 0
M  V30 4384 H 440.496 -2.99393 -0.0209343 0
M  V30 4385 H 438.042 -1.43997 -0.00862866 0
M  V30 4386 H 439.995 -3.45402 -2.41404 0
M  V30 4387 H 438.719 -2.21138 -2.40344 0
M  V30 4388 H 437.378 -3.58393 -0.771355 0
M  V30 4389 H 437.026 -3.85365 -3.23268 0
M  V30 4390 H 436.726 -5.37961 -2.36372 0
M  V30 4391 H 438.25 -5.15708 -3.26921 0
M  V30 4392 H 439.664 -5.63623 -1.04889 0
M  V30 4393 H 438.061 -5.99126 -0.341825 0
M  V30 4394 H 439.131 -4.82713 0.46 0
M  V30 4395 N 440.474 -0.00167713 -1.576 0
M  V30 4396 C 441.885 0.54091 -1.78693 0
M  V30 4397 C 442.236 1.7386 -0.909247 0
M  V30 4398 O 441.361 2.16109 -0.112176 0
M  V30 4399 C 441.956 0.98806 -3.24072 0
M  V30 4400 C 440.515 1.47594 -3.46256 0
M  V30 4401 C 439.662 0.42792 -2.73978 0
M  V30 4402 H 442.613 -0.22784 -1.57056 0
M  V30 4403 H 442.634 1.85398 -3.32277 0
M  V30 4404 H 442.146 0.116164 -3.87926 0
M  V30 4405 H 440.247 2.36868 -2.87618 0
M  V30 4406 H 440.36 1.50225 -4.54939 0
M  V30 4407 H 438.724 0.889934 -2.38647 0
M  V30 4408 H 439.507 -0.435038 -3.40532 0
M  V30 4409 N 441.952 1.55251 0.271103 0
M  V30 4410 C 443.201 1.75151 1.00025 0
M  V30 4411 C 443.514 0.561041 1.87381 0
M  V30 4412 O 444.72 0.642506 2.63788 0
M  V30 4413 C 443.176 3.09999 1.82835 0
M  V30 4414 C 442.784 4.3662 1.00336 0
M  V30 4415 C 444.528 3.39249 2.55168 0
M  V30 4416 C 442.435 5.62506 1.82595 0
M  V30 4417 H 441.365 0.652877 0.377183 0
M  V30 4418 H 444.016 1.81708 0.255843 0
M  V30 4419 H 442.398 2.97485 2.61378 0
M  V30 4420 H 443.572 4.60055 0.261959 0
M  V30 4421 H 441.887 4.14527 0.394486 0
M  V30 4422 H 444.484 4.3051 3.1712 0
M  V30 4423 H 444.827 2.59467 3.2555 0
M  V30 4424 H 445.36 3.52869 1.83653 0
M  V30 4425 H 442.099 6.45041 1.16631 0
M  V30 4426 H 441.619 5.43211 2.54327 0
M  V30 4427 H 443.298 6.00875 2.39913 0
M  V30 4428 N 443.43 -0.535701 1.48216 0
M  V30 4429 C 444.36 -1.65014 1.65204 0
M  V30 4430 C 445.341 -1.62554 0.501011 0
M  V30 4431 O 446.526 -1.7984 0.732886 0
M  V30 4432 C 443.656 -3.03616 1.68626 0
M  V30 4433 C 442.61 -3.20932 2.83172 0
M  V30 4434 C 441.936 -4.60537 2.71679 0
M  V30 4435 C 443.236 -3.04249 4.24535 0
M  V30 4436 H 444.93 -1.51053 2.58502 0
M  V30 4437 H 442.476 -0.725262 1.24402 0
M  V30 4438 H 444.429 -3.81446 1.79099 0
M  V30 4439 H 443.153 -3.18587 0.719026 0
M  V30 4440 H 441.812 -2.45517 2.72244 0
M  V30 4441 H 441.46 -4.72336 1.72937 0
M  V30 4442 H 441.16 -4.73069 3.48538 0
M  V30 4443 H 442.684 -5.40475 2.84112 0
M  V30 4444 H 444.098 -3.71877 4.36326 0
M  V30 4445 H 442.495 -3.28278 5.02348 0
M  V30 4446 H 443.565 -2.00739 4.41397 0
M  V30 4447 N 444.908 -1.36708 -0.784132 0
M  V30 4448 C 446.156 -1.30972 -1.53918 0
M  V30 4449 C 446.477 0.109086 -1.94695 0
M  V30 4450 O 445.747 1.05048 -1.65353 0
M  V30 4451 H 444.327 -0.481819 -0.570841 0
M  V30 4452 H 446.989 -1.71063 -0.934002 0
M  V30 4453 H 446.085 -1.94061 -2.44431 0
M  V30 4454 N 446.386 1.0089 -1.21074 0
M  V30 4455 C 447.632 1.74866 -1.02712 0
M  V30 4456 C 447.965 1.89178 0.438787 0
M  V30 4457 O 447.24 1.42325 1.32567 0
M  V30 4458 C 447.523 3.16347 -1.72036 0
M  V30 4459 C 447.376 3.09782 -3.26121 0
M  V30 4460 C 448.695 4.15187 -1.45973 0
M  V30 4461 H 445.814 0.634736 -0.374539 0
M  V30 4462 H 448.456 1.17646 -1.49196 0
M  V30 4463 H 446.606 3.65201 -1.32517 0
M  V30 4464 H 448.278 2.68673 -3.74983 0
M  V30 4465 H 446.521 2.46982 -3.56626 0
M  V30 4466 H 447.192 4.09829 -3.6979 0
M  V30 4467 H 449.668 3.75022 -1.80272 0
M  V30 4468 H 448.544 5.12331 -1.96999 0
M  V30 4469 H 448.805 4.40386 -0.388924 0
M  V30 4470 N 447.864 1.01787 1.20321 0
M  V30 4471 C 448.794 0.609625 2.25401 0
M  V30 4472 C 449.775 -0.375951 1.65893 0
M  V30 4473 O 450.96 -0.261101 1.92437 0
M  V30 4474 C 448.09 -0.0515995 3.47262 0
M  V30 4475 C 447.044 0.855095 4.19371 0
M  V30 4476 C 446.37 0.0595757 5.34667 0
M  V30 4477 C 447.67 2.16374 4.75373 0
M  V30 4478 H 449.364 1.48803 2.59804 0
M  V30 4479 H 446.91 0.716934 1.24884 0
M  V30 4480 H 448.863 -0.348764 4.19954 0
M  V30 4481 H 447.587 -0.964726 3.12027 0
M  V30 4482 H 446.246 1.13628 3.48546 0
M  V30 4483 H 445.894 -0.85524 4.95676 0
M  V30 4484 H 445.594 0.663406 5.83843 0
M  V30 4485 H 447.118 -0.231105 6.10162 0
M  V30 4486 H 448.532 1.92885 5.39878 0
M  V30 4487 H 446.929 2.71853 5.34991 0
M  V30 4488 H 447.999 2.82589 3.94045 0
M  V30 4489 N 449.342 -1.36122 0.79427 0
M  V30 4490 C 450.758 -1.5232 0.476525 0
M  V30 4491 C 450.958 -1.74685 -1.00436 0
M  V30 4492 O 450.014 -1.78115 -1.78973 0
M  V30 4493 C 451.327 -2.70607 1.31119 0
M  V30 4494 C 452.875 -2.8448 1.30537 0
M  V30 4495 C 453.35 -4.05778 2.12387 0
M  V30 4496 N 454.841 -4.12933 2.09859 0
M  V30 4497 C 455.576 -5.05876 2.69957 0
M  V30 4498 N 455.072 -6.04232 3.38934 0
M  V30 4499 N 456.865 -4.98528 2.59665 0
M  V30 4500 H 449.016 -1.1986 1.75349 0
M  V30 4501 H 451.279 -0.585418 0.745647 0
M  V30 4502 H 450.985 -2.60619 2.36158 0
M  V30 4503 H 450.859 -3.64888 0.955843 0
M  V30 4504 H 453.246 -2.93927 0.262876 0
M  V30 4505 H 453.327 -1.91093 1.70051 0
M  V30 4506 H 452.971 -3.97092 3.1667 0
M  V30 4507 H 452.901 -4.98323 1.70242 0
M  V30 4508 H 455.392 -3.42515 1.59662 0
M  V30 4509 H 455.705 -6.71724 3.82109 0
M  V30 4510 H 454.05 -6.04443 3.43036 0
M  V30 4511 H 457.241 -4.20641 2.05375 0
M  V30 4512 H 457.414 -5.70773 3.06793 0
M  V30 4513 N 450.82 -0.546701 -1.47814 0
M  V30 4514 C 452.045 -0.021268 -2.07389 0
M  V30 4515 C 452.47 1.25822 -1.39822 0
M  V30 4516 O 451.828 1.75111 -0.46968 0
M  V30 4517 C 451.876 0.168502 -3.60206 0
M  V30 4518 O 450.98 1.23347 -3.93522 0
M  V30 4519 H 450.321 -0.0466108 -0.662362 0
M  V30 4520 H 452.851 -0.759387 -1.89985 0
M  V30 4521 H 452.861 0.385982 -4.0617 0
M  V30 4522 H 451.536 -0.766075 -4.08784 0
M  V30 4523 H 450.113 0.997319 -3.59316 0
M  V30 4524 N 452.299 1.55045 -0.282633 0
M  V30 4525 C 453.529 2.03872 0.334635 0
M  V30 4526 C 453.937 1.16018 1.49454 0
M  V30 4527 O 453.28 0.174449 1.8287 0
M  V30 4528 C 453.342 3.48791 0.870905 0
M  V30 4529 C 453.006 4.56715 -0.161338 0
M  V30 4530 C 454.003 5.10513 -0.983466 0
M  V30 4531 C 451.688 5.01417 -0.297745 0
M  V30 4532 C 453.682 6.07538 -1.92811 0
M  V30 4533 C 451.369 5.98265 -1.24586 0
M  V30 4534 C 452.367 6.51208 -2.05954 0
M  V30 4535 O 452.055 7.46162 -2.99162 0
M  V30 4536 H 451.787 0.671324 0.0793742 0
M  V30 4537 H 454.341 2.01169 -0.41473 0
M  V30 4538 H 452.571 3.48758 1.67047 0
M  V30 4539 H 454.26 3.80916 1.40207 0
M  V30 4540 H 455.026 4.76785 -0.888856 0
M  V30 4541 H 450.905 4.59849 0.325604 0
M  V30 4542 H 454.449 6.48787 -2.56363 0
M  V30 4543 H 450.346 6.31412 -1.34126 0
M  V30 4544 H 451.114 7.63903 -2.93929 0
M  V30 4545 N 453.777 0.010035 1.57597 0
M  V30 4546 C 454.74 -0.963029 2.07986 0
M  V30 4547 C 455.74 -1.26619 0.991173 0
M  V30 4548 O 456.93 -1.2097 1.25347 0
M  V30 4549 C 454.062 -2.2851 2.52974 0
M  V30 4550 H 455.255 -0.526971 2.95234 0
M  V30 4551 H 452.808 -0.237639 1.54483 0
M  V30 4552 H 453.543 -2.76784 1.69 0
M  V30 4553 H 453.328 -2.07824 3.32493 0
M  V30 4554 H 454.818 -2.98294 2.9225 0
M  V30 4555 N 455.255 -1.55392 -0.262866 0
M  V30 4556 C 456.501 -1.76737 -0.99458 0
M  V30 4557 C 456.834 -0.572453 -1.85571 0
M  V30 4558 O 456.109 0.429732 -1.89693 0
M  V30 4559 C 456.392 -3.07824 -1.8686 0
M  V30 4560 C 456.245 -4.3769 -1.03672 0
M  V30 4561 C 457.564 -3.35021 -2.85393 0
M  V30 4562 H 454.683 -0.643005 -0.360157 0
M  V30 4563 H 457.325 -1.88126 -0.266216 0
M  V30 4564 H 455.475 -2.98245 -2.48962 0
M  V30 4565 H 457.147 -4.59238 -0.43563 0
M  V30 4566 H 455.39 -4.32461 -0.340513 0
M  V30 4567 H 456.061 -5.25759 -1.6817 0
M  V30 4568 H 458.537 -3.44458 -2.33426 0
M  V30 4569 H 457.413 -4.27989 -3.43681 0
M  V30 4570 H 457.674 -2.55153 -3.61039 0
M  V30 4571 N 456.733 0.527833 -1.48498 0
M  V30 4572 C 457.979 1.28545 -1.56857 0
M  V30 4573 C 458.312 1.92678 -0.242651 0
M  V30 4574 O 457.587 1.79394 0.751545 0
M  V30 4575 C 457.87 2.37314 -2.70839 0
M  V30 4576 C 457.723 1.77858 -4.13142 0
M  V30 4577 C 459.042 3.39068 -2.80573 0
M  V30 4578 H 456.161 0.466006 -0.570971 0
M  V30 4579 H 458.803 0.587784 -1.8068 0
M  V30 4580 H 456.953 2.96821 -2.50658 0
M  V30 4581 H 458.625 1.22385 -4.44769 0
M  V30 4582 H 456.868 1.08383 -4.20042 0
M  V30 4583 H 457.539 2.56624 -4.88721 0
M  V30 4584 H 460.015 2.89518 -2.98862 0
M  V30 4585 H 458.891 4.12566 -3.6205 0
M  V30 4586 H 459.152 3.9975 -1.88818 0
M  V30 4587 N 458.211 1.37122 0.776871 0
M  V30 4588 C 459.459 1.31787 1.53221 0
M  V30 4589 C 459.78 -0.0987589 1.9475 0
M  V30 4590 O 459.05 -1.0417 1.65908 0
M  V30 4591 H 457.63 0.484839 0.568278 0
M  V30 4592 H 460.292 1.71556 0.924917 0
M  V30 4593 H 459.388 1.95355 2.43398 0
M  V30 4594 N 459.689 -1.00246 1.21608 0
M  V30 4595 C 460.935 -1.74319 1.03638 0
M  V30 4596 C 461.268 -1.89408 -0.428749 0
M  V30 4597 O 460.543 -1.43026 -1.3181 0
M  V30 4598 C 460.826 -3.15431 1.73711 0
M  V30 4599 C 460.679 -3.08049 3.27759 0
M  V30 4600 C 461.998 -4.14407 1.48173 0
M  V30 4601 H 459.117 -0.632741 0.377899 0
M  V30 4602 H 461.759 -1.16853 1.49818 0
M  V30 4603 H 459.909 -3.64493 1.34452 0
M  V30 4604 H 461.581 -2.66681 3.76403 0
M  V30 4605 H 459.824 -2.45088 3.57931 0
M  V30 4606 H 460.495 -4.07862 3.71958 0
M  V30 4607 H 462.971 -3.74061 1.82258 0
M  V30 4608 H 461.847 -5.11279 1.99713 0
M  V30 4609 H 462.108 -4.40174 0.412273 0
M  V30 4610 N 461.167 -1.02423 -1.1978 0
M  V30 4611 C 462.578 -0.748389 -1.71044 0
M  V30 4612 C 462.929 0.732398 -1.82017 0
M  V30 4613 O 462.054 1.57116 -1.48807 0
M  V30 4614 C 462.649 -1.35187 -3.1066 0
M  V30 4615 C 461.208 -1.12472 -3.59203 0
M  V30 4616 C 460.355 -1.45283 -2.36195 0
M  V30 4617 H 463.306 -1.19275 -1.04686 0
M  V30 4618 H 463.327 -0.746408 -3.73107 0
M  V30 4619 H 462.839 -2.4296 -3.02642 0
M  V30 4620 H 460.94 -0.0649983 -3.72543 0
M  V30 4621 H 461.053 -1.81016 -4.43588 0
M  V30 4622 H 459.417 -0.872034 -2.39307 0
M  V30 4623 H 460.2 -2.54129 -2.30811 0
M  V30 4624 N 462.645 1.35699 -0.801477 0
M  V30 4625 C 464.056 1.81415 -0.441073 0
M  V30 4626 C 464.407 1.66595 1.03636 0
M  V30 4627 O 463.532 1.19369 1.80499 0
M  V30 4628 C 464.127 3.29369 -0.793819 0
M  V30 4629 C 462.686 3.73248 -0.486083 0
M  V30 4630 C 461.833 2.57775 -1.02213 0
M  V30 4631 H 464.784 1.23749 -0.993572 0
M  V30 4632 H 464.805 3.80395 -0.0894158 0
M  V30 4633 H 464.317 3.40123 -1.86917 0
M  V30 4634 H 462.418 3.68046 0.580735 0
M  V30 4635 H 462.531 4.68222 -1.01513 0
M  V30 4636 H 460.895 2.50788 -0.444712 0
M  V30 4637 H 461.678 2.71309 -2.10348 0
M  V30 4638 N 464.123 0.554532 1.47522 0
M  V30 4639 C 465.4 -0.0360704 1.95567 0
M  V30 4640 C 465.78 -1.48828 1.49711 0
M  V30 4641 O 465.128 -2.16366 0.734717 0
M  V30 4642 C 465.338 0.106631 3.48837 0
M  V30 4643 C 466.686 -0.0400899 4.24581 0
M  V30 4644 O 467.71 0.0340453 3.56184 0
M  V30 4645 O 466.569 -0.199111 5.46137 0
M  V30 4646 H 463.663 -0.0656294 0.824392 0
M  V30 4647 H 466.209 0.620867 1.57935 0
M  V30 4648 H 464.981 1.11727 3.7501 0
M  V30 4649 H 464.604 -0.58804 3.93227 0
M  V30 4650 N 465.601 -1.54893 0.290851 0
M  V30 4651 C 466.85 -1.99111 -0.322113 0
M  V30 4652 C 467.163 -1.18283 -1.55784 0
M  V30 4653 O 468.369 -1.5272 -2.24475 0
M  V30 4654 C 466.825 -3.54442 -0.624438 0
M  V30 4655 C 466.433 -4.44066 0.592373 0
M  V30 4656 C 468.177 -4.07211 -1.19916 0
M  V30 4657 C 466.084 -5.90812 0.263762 0
M  V30 4658 H 465.014 -0.743712 -0.124133 0
M  V30 4659 H 467.665 -1.79132 0.39797 0
M  V30 4660 H 466.047 -3.70281 -1.40384 0
M  V30 4661 H 467.221 -4.39999 1.36886 0
M  V30 4662 H 465.536 -4.02015 1.08502 0
M  V30 4663 H 468.133 -5.14407 -1.45909 0
M  V30 4664 H 468.476 -3.57196 -2.13815 0
M  V30 4665 H 469.009 -3.94873 -0.481687 0
M  V30 4666 H 465.748 -6.44955 1.17105 0
M  V30 4667 H 465.268 -5.97911 -0.475655 0
M  V30 4668 H 466.947 -6.46852 -0.138354 0
M  V30 4669 N 467.08 -0.0183926 -1.57589 0
M  V30 4670 C 468.013 1.00148 -2.0505 0
M  V30 4671 C 468.991 1.32387 -0.944058 0
M  V30 4672 O 470.175 1.44237 -1.21358 0
M  V30 4673 C 467.302 2.32435 -2.46357 0
M  V30 4674 C 466.348 2.15731 -3.67916 0
M  V30 4675 S 467.181 1.46613 -5.15039 0
M  V30 4676 C 468.337 2.80293 -5.59631 0
M  V30 4677 H 468.57 0.597429 -2.91235 0
M  V30 4678 H 466.103 0.193002 -1.53189 0
M  V30 4679 H 468.061 3.0849 -2.70822 0
M  V30 4680 H 466.722 2.69975 -1.60537 0
M  V30 4681 H 465.915 3.13502 -3.9463 0
M  V30 4682 H 465.517 1.4782 -3.43548 0
M  V30 4683 H 467.809 3.76557 -5.63215 0
M  V30 4684 H 468.752 2.58256 -6.59325 0
M  V30 4685 H 469.16 2.85047 -4.87246 0
M  V30 4686 N 468.558 1.5553 0.254621 0
M  V30 4687 C 469.806 1.7665 0.981793 0
M  V30 4688 C 470.127 0.580963 1.86145 0
M  V30 4689 O 469.397 -0.403537 1.91699 0
M  V30 4690 H 467.977 0.651475 0.365498 0
M  V30 4691 H 470.639 1.92958 0.274426 0
M  V30 4692 H 469.735 2.67486 1.60802 0
M  V30 4693 N 470.036 -0.519951 1.48776 0
M  V30 4694 C 471.285 -1.27175 1.56555 0
M  V30 4695 C 471.598 -1.9401 0.248869 0
M  V30 4696 O 472.804 -2.70725 0.205004 0
M  V30 4697 C 471.26 -2.30811 2.76142 0
M  V30 4698 C 470.868 -1.7 4.14493 0
M  V30 4699 C 472.612 -3.06937 2.9324 0
M  V30 4700 C 470.519 -2.71635 5.25327 0
M  V30 4701 H 469.449 -0.478329 0.582853 0
M  V30 4702 H 472.1 -0.547916 1.75129 0
M  V30 4703 H 470.482 -3.06274 2.51023 0
M  V30 4704 H 471.656 -1.00658 4.49672 0
M  V30 4705 H 469.971 -1.06331 4.02595 0
M  V30 4706 H 472.568 -3.82905 3.73213 0
M  V30 4707 H 472.911 -3.63409 2.03075 0
M  V30 4708 H 473.444 -2.38589 3.18308 0
M  V30 4709 H 470.183 -2.1997 6.1749 0
M  V30 4710 H 469.703 -3.39275 4.94624 0
M  V30 4711 H 471.382 -3.34429 5.53865 0
M  V30 4712 N 471.514 -1.37532 -0.769588 0
M  V30 4713 C 472.762 -1.32597 -1.5252 0
M  V30 4714 C 473.083 0.0884294 -1.94799 0
M  V30 4715 O 472.353 1.03289 -1.66458 0
M  V30 4716 H 470.933 -0.487846 -0.565699 0
M  V30 4717 H 473.595 -1.72044 -0.915806 0
M  V30 4718 H 472.691 -1.96643 -2.42359 0
M  V30 4719 N 472.992 0.995999 -1.22138 0
M  V30 4720 C 474.403 1.54961 -1.04135 0
M  V30 4721 C 474.754 1.92159 0.396147 0
M  V30 4722 O 473.879 1.74435 1.28069 0
M  V30 4723 C 474.474 2.81581 -1.88408 0
M  V30 4724 C 473.033 3.33396 -1.74712 0
M  V30 4725 C 472.18 2.06509 -1.85066 0
M  V30 4726 H 475.131 0.817436 -1.36028 0
M  V30 4727 H 475.152 3.53822 -1.39966 0
M  V30 4728 H 474.664 2.54476 -2.93025 0
M  V30 4729 H 472.765 3.65416 -0.728159 0
M  V30 4730 H 472.878 4.04208 -2.57202 0
M  V30 4731 H 471.242 2.19925 -1.28472 0
M  V30 4732 H 472.025 1.81804 -2.91208 0
M  V30 4733 N 474.47 1.03057 1.19235 0
M  V30 4734 C 475.433 0.617418 2.20727 0
M  V30 4735 C 476.433 -0.319856 1.57587 0
M  V30 4736 O 477.623 -0.106633 1.73873 0
M  V30 4737 C 474.755 -0.096296 3.40764 0
M  V30 4738 H 475.948 1.51544 2.58794 0
M  V30 4739 H 473.501 0.821949 1.32942 0
M  V30 4740 H 474.236 -1.00859 3.08217 0
M  V30 4741 H 474.021 0.577217 3.87828 0
M  V30 4742 H 475.511 -0.372219 4.15938 0
M  V30 4743 N 475.948 -1.35272 0.808662 0
M  V30 4744 C 477.178 -2.02652 0.401953 0
M  V30 4745 C 477.586 -1.6108 -0.992462 0
M  V30 4746 O 476.929 -0.804984 -1.65123 0
M  V30 4747 C 476.991 -3.57174 0.408246 0
M  V30 4748 C 476.655 -4.22019 1.75353 0
M  V30 4749 C 477.652 -4.43552 2.71215 0
M  V30 4750 C 475.337 -4.59093 2.03811 0
M  V30 4751 C 477.331 -5.01264 3.93717 0
M  V30 4752 C 475.018 -5.16519 3.26576 0
M  V30 4753 C 476.016 -5.37546 4.21347 0
M  V30 4754 O 475.704 -5.93761 5.41944 0
M  V30 4755 H 475.436 -0.656495 0.161216 0
M  V30 4756 H 477.99 -1.73829 1.0942 0
M  V30 4757 H 476.22 -3.85197 -0.340608 0
M  V30 4758 H 477.909 -4.05893 0.0235623 0
M  V30 4759 H 478.675 -4.15288 2.50522 0
M  V30 4760 H 474.554 -4.42039 1.30854 0
M  V30 4761 H 478.098 -5.17592 4.67701 0
M  V30 4762 H 473.995 -5.4421 3.47139 0
M  V30 4763 H 474.763 -6.1221 5.43269 0
M  V30 4764 N 477.426 -0.562348 -1.47226 0
M  V30 4765 C 478.389 0.172056 -2.28553 0
M  V30 4766 C 479.389 0.837928 -1.37242 0
M  V30 4767 O 480.579 0.693001 -1.59822 0
M  V30 4768 C 477.711 1.25223 -3.17068 0
M  V30 4769 H 478.904 -0.542401 -2.94954 0
M  V30 4770 H 476.457 -0.319493 -1.53 0
M  V30 4771 H 477.192 1.99892 -2.55369 0
M  V30 4772 H 476.977 0.779515 -3.84273 0
M  V30 4773 H 478.467 1.76791 -3.78332 0
M  V30 4774 N 478.904 1.54736 -0.299062 0
M  V30 4775 C 480.153 1.99279 0.311549 0
M  V30 4776 C 480.466 1.19107 1.55154 0
M  V30 4777 O 481.672 1.53908 2.23662 0
M  V30 4778 C 480.128 3.54768 0.605632 0
M  V30 4779 C 479.736 4.43746 -0.615914 0
M  V30 4780 C 481.48 4.07841 1.17754 0
M  V30 4781 C 479.387 5.90663 -0.29509 0
M  V30 4782 H 478.317 0.744359 0.120187 0
M  V30 4783 H 480.968 1.78919 -0.407464 0
M  V30 4784 H 479.35 3.71021 1.38419 0
M  V30 4785 H 480.524 4.39267 -1.39218 0
M  V30 4786 H 478.839 4.01434 -1.10633 0
M  V30 4787 H 481.436 5.15174 1.43179 0
M  V30 4788 H 481.779 3.58324 2.11918 0
M  V30 4789 H 482.312 3.95123 0.460739 0
M  V30 4790 H 479.051 6.44325 -1.20524 0
M  V30 4791 H 478.571 5.98155 0.44394 0
M  V30 4792 H 480.25 6.46916 0.104048 0
M  V30 4793 N 480.382 0.0267497 1.57577 0
M  V30 4794 C 481.793 -0.512413 1.79531 0
M  V30 4795 C 482.144 -1.72391 0.936791 0
M  V30 4796 O 481.269 -2.15903 0.146543 0
M  V30 4797 C 481.864 -0.936378 3.25603 0
M  V30 4798 C 480.423 -1.42067 3.4856 0
M  V30 4799 C 479.57 -0.384278 2.74624 0
M  V30 4800 H 482.521 0.252797 1.56674 0
M  V30 4801 H 482.542 -1.80088 3.35184 0
M  V30 4802 H 482.054 -0.0544332 3.88062 0
M  V30 4803 H 480.155 -2.32262 2.9135 0
M  V30 4804 H 480.268 -1.42968 4.57271 0
M  V30 4805 H 478.632 -0.851855 2.40032 0
M  V30 4806 H 479.415 0.489159 3.39797 0
M  V30 4807 N 481.861 -1.55662 -0.24637 0
M  V30 4808 C 483.107 -1.77782 -0.975779 0
M  V30 4809 C 483.44 -0.592103 -1.84953 0
M  V30 4810 O 482.715 0.409588 -1.90138 0
M  V30 4811 C 482.998 -3.09788 -1.83584 0
M  V30 4812 C 482.851 -4.38764 -0.990241 0
M  V30 4813 C 484.17 -3.38029 -2.81823 0
M  V30 4814 H 481.289 -0.646789 -0.353317 0
M  V30 4815 H 483.931 -1.88398 -0.246248 0
M  V30 4816 H 482.081 -3.00869 -2.45784 0
M  V30 4817 H 483.753 -4.59675 -0.386897 0
M  V30 4818 H 481.996 -4.32798 -0.294626 0
M  V30 4819 H 482.667 -5.27514 -1.62584 0
M  V30 4820 H 485.143 -3.46915 -2.2976 0
M  V30 4821 H 484.019 -4.3161 -3.39122 0
M  V30 4822 H 484.28 -2.58968 -3.58313 0
M  V30 4823 N 483.339 0.512053 -1.4905 0
M  V30 4824 C 484.302 1.59704 -1.64399 0
M  V30 4825 C 485.302 1.52285 -0.516317 0
M  V30 4826 O 486.492 1.55635 -0.782527 0
M  V30 4827 C 483.624 2.9935 -1.63102 0
M  V30 4828 H 484.817 1.47428 -2.61161 0
M  V30 4829 H 482.37 0.735469 -1.37915 0
M  V30 4830 H 483.105 3.17116 -0.678836 0
M  V30 4831 H 482.89 3.06144 -2.44986 0
M  V30 4832 H 484.38 3.782 -1.77072 0
M  V30 4833 N 484.817 1.37938 0.762283 0
M  V30 4834 C 485.747 1.37176 1.88958 0
M  V30 4835 C 486.728 0.238945 1.68413 0
M  V30 4836 O 487.913 0.440726 1.89133 0
M  V30 4837 C 485.043 1.18742 3.2637 0
M  V30 4838 C 483.997 2.29136 3.61498 0
M  V30 4839 C 483.323 1.95816 4.97554 0
M  V30 4840 C 484.623 3.71363 3.6727 0
M  V30 4841 H 486.317 2.31509 1.89853 0
M  V30 4842 H 483.863 1.11438 0.912005 0
M  V30 4843 H 485.816 1.16837 4.04879 0
M  V30 4844 H 484.54 0.208683 3.25933 0
M  V30 4845 H 483.199 2.30213 2.85303 0
M  V30 4846 H 482.847 0.964475 4.93667 0
M  V30 4847 H 482.547 2.69745 5.22026 0
M  V30 4848 H 484.071 1.95513 5.78452 0
M  V30 4849 H 485.485 3.72364 4.35911 0
M  V30 4850 H 483.882 4.44425 4.03245 0
M  V30 4851 H 484.952 4.04305 2.67704 0
M  V30 4852 N 486.295 -0.989507 1.22664 0
M  V30 4853 C 487.227 -2.0824 0.957542 0
M  V30 4854 C 488.24 -1.6267 -0.0651098 0
M  V30 4855 O 489.429 -1.77695 0.169312 0
M  V30 4856 C 486.529 -3.36298 0.419145 0
M  V30 4857 C 485.702 -4.10882 1.49982 0
M  V30 4858 C 484.761 -5.17221 0.967904 0
M  V30 4859 O 483.787 -5.44613 1.65487 0
M  V30 4860 N 484.989 -5.80124 -0.20896 0
M  V30 4861 H 487.754 -2.31904 1.89843 0
M  V30 4862 H 485.315 -1.15552 1.13399 0
M  V30 4863 H 487.307 -4.04671 0.0485451 0
M  V30 4864 H 485.877 -3.09671 -0.426937 0
M  V30 4865 H 485.097 -3.37092 2.04359 0
M  V30 4866 H 486.385 -4.57482 2.22682 0
M  V30 4867 H 485.783 -5.60244 -0.783818 0
M  V30 4868 H 484.34 -6.49715 -0.520913 0
M  V30 4869 N 487.773 -1.03688 -1.18687 0
M  V30 4870 C 488.72 -0.624624 -2.22187 0
M  V30 4871 C 489.69 0.365636 -1.62026 0
M  V30 4872 O 490.875 0.260481 -1.89014 0
M  V30 4873 C 488.015 0.0101738 -3.45099 0
M  V30 4874 C 487.128 -1.02709 -4.19613 0
M  V30 4875 C 486.263 -0.361213 -5.2997 0
M  V30 4876 C 485.302 -1.38384 -5.96252 0
M  V30 4877 N 484.439 -0.743196 -6.98155 0
M  V30 4878 H 489.279 -1.51176 -2.56807 0
M  V30 4879 H 486.816 -0.75636 -1.26165 0
M  V30 4880 H 488.774 0.395528 -4.15321 0
M  V30 4881 H 487.404 0.860848 -3.1111 0
M  V30 4882 H 486.456 -1.53043 -3.48256 0
M  V30 4883 H 487.768 -1.80398 -4.65036 0
M  V30 4884 H 486.922 0.0785537 -6.06649 0
M  V30 4885 H 485.661 0.447799 -4.8564 0
M  V30 4886 H 484.666 -1.83378 -5.18317 0
M  V30 4887 H 485.891 -2.19448 -6.42666 0
M  V30 4888 H 483.837 0.0455789 -6.55984 0
M  V30 4889 H 483.754 -1.45784 -7.41811 0
M  V30 4890 H 485.022 -0.327698 -7.78811 0
M  V30 4891 N 489.251 1.34841 -0.815825 0
M  V30 4892 C 490.214 2.27959 -0.238185 0
M  V30 4893 C 491.214 1.49983 0.579816 0
M  V30 4894 O 492.404 1.69617 0.396953 0
M  V30 4895 C 489.536 3.34314 0.666876 0
M  V30 4896 H 490.729 2.80558 -1.05958 0
M  V30 4897 H 488.282 1.44852 -0.587156 0
M  V30 4898 H 489.017 2.86916 1.5116 0
M  V30 4899 H 488.802 3.92014 0.0819106 0
M  V30 4900 H 490.292 4.0379 1.06506 0
M  V30 4901 N 490.729 0.570148 1.46925 0
M  V30 4902 C 491.977 0.0508523 2.02036 0
M  V30 4903 C 492.298 -1.30885 1.44548 0
M  V30 4904 O 491.568 -1.85647 0.625453 0
M  V30 4905 H 490.148 0.0158088 0.746833 0
M  V30 4906 H 492.81 0.743086 1.80178 0
M  V30 4907 H 491.906 -0.027575 3.12088 0
M  V30 4908 N 492.207 -1.54576 0.307264 0
M  V30 4909 C 493.137 -2.26708 -0.55907 0
M  V30 4910 C 494.118 -1.26893 -1.1328 0
M  V30 4911 O 495.303 -1.55677 -1.16097 0
M  V30 4912 C 492.433 -3.01259 -1.72801 0
M  V30 4913 C 491.387 -4.08275 -1.28435 0
M  V30 4914 C 490.713 -4.70575 -2.53895 0
M  V30 4915 C 492.013 -5.2068 -0.411038 0
M  V30 4916 H 493.707 -2.9937 0.042576 0
M  V30 4917 H 491.253 -1.43983 0.0219173 0
M  V30 4918 H 493.206 -3.50444 -2.34023 0
M  V30 4919 H 491.93 -2.26187 -2.356 0
M  V30 4920 H 490.589 -3.59949 -0.695161 0
M  V30 4921 H 490.237 -3.92136 -3.15021 0
M  V30 4922 H 489.937 -5.42854 -2.24908 0
M  V30 4923 H 491.461 -5.22527 -3.15908 0
M  V30 4924 H 492.875 -5.65721 -0.929097 0
M  V30 4925 H 491.272 -5.99716 -0.214664 0
M  V30 4926 H 492.342 -4.81629 0.562287 0
M  V30 4927 N 493.685 -0.035106 -1.57561 0
M  V30 4928 C 494.913 0.652258 -1.9635 0
M  V30 4929 C 495.328 1.65317 -0.911897 0
M  V30 4930 O 494.685 1.82194 0.105657 0
M  V30 4931 C 494.736 1.35337 -3.35211 0
M  V30 4932 O 494.457 0.392548 -4.36338 0
M  V30 4933 C 495.958 2.13199 -3.88666 0
M  V30 4934 H 493.178 0.179444 -0.646561 0
M  V30 4935 H 495.722 -0.0966459 -2.04271 0
M  V30 4936 H 493.877 2.05362 -3.28489 0
M  V30 4937 H 494.291 0.891097 -5.16875 0
M  V30 4938 H 495.765 2.577 -4.88154 0
M  V30 4939 H 496.242 2.97353 -3.23231 0
M  V30 4940 H 496.848 1.48118 -3.98674 0
M  V30 4941 N 495.163 1.55791 0.238111 0
M  V30 4942 C 496.409 1.78297 0.966337 0
M  V30 4943 C 496.742 0.601903 1.84637 0
M  V30 4944 O 496.017 -0.399499 1.90353 0
M  V30 4945 C 496.3 3.10758 1.81939 0
M  V30 4946 C 496.153 4.39283 0.966958 0
M  V30 4947 C 497.472 3.39519 2.80027 0
M  V30 4948 H 494.591 0.648654 0.349882 0
M  V30 4949 H 497.233 1.88525 0.236253 0
M  V30 4950 H 495.383 3.02168 2.44185 0
M  V30 4951 H 497.055 4.59873 0.362514 0
M  V30 4952 H 495.298 4.32948 0.271669 0
M  V30 4953 H 495.969 5.28368 1.59784 0
M  V30 4954 H 498.445 3.48128 2.27917 0
M  V30 4955 H 497.321 4.33402 3.36829 0
M  V30 4956 H 497.582 2.60864 3.56934 0
M  V30 4957 N 496.642 -0.504142 1.49319 0
M  V30 4958 C 497.867 -1.28729 1.62615 0
M  V30 4959 C 498.292 -1.85752 0.296309 0
M  V30 4960 O 497.65 -1.65704 -0.735649 0
M  V30 4961 C 497.698 -2.39561 2.69524 0
M  V30 4962 O 496.802 -3.43324 2.28478 0
M  V30 4963 H 496.143 -0.380172 0.544395 0
M  V30 4964 H 498.673 -0.603872 1.95485 0
M  V30 4965 H 498.683 -2.8537 2.91595 0
M  V30 4966 H 497.358 -1.97423 3.66056 0
M  V30 4967 H 495.935 -3.03455 2.16725 0
M  V30 4968 N 498.12 -1.38341 -0.754957 0
M  V30 4969 C 499.397 -1.24995 -1.50451 0
M  V30 4970 C 499.777 0.149244 -2.10572 0
M  V30 4971 O 499.125 1.15861 -1.96948 0
M  V30 4972 C 499.335 -2.35904 -2.57197 0
M  V30 4973 C 500.683 -2.74262 -3.24138 0
M  V30 4974 O 501.707 -2.35205 -2.67501 0
M  V30 4975 O 500.566 -3.4161 -4.26574 0
M  V30 4976 H 497.66 -0.48872 -0.667144 0
M  V30 4977 H 500.206 -1.50165 -0.790486 0
M  V30 4978 H 498.978 -3.2953 -2.11011 0
M  V30 4979 H 498.601 -2.12291 -3.36182 0
M  V30 4980 N 499.598 0.982988 -1.23187 0
M  V30 4981 C 500.844 1.72648 -1.06398 0
M  V30 4982 C 501.177 1.90066 0.398561 0
M  V30 4983 O 500.452 1.45105 1.29518 0
M  V30 4984 C 500.735 3.12627 -1.78707 0
M  V30 4985 C 500.588 3.02795 -3.32618 0
M  V30 4986 C 501.907 4.11997 -1.54747 0
M  V30 4987 H 499.026 0.626649 -0.387918 0
M  V30 4988 H 501.668 1.14455 -1.51658 0
M  V30 4989 H 499.818 3.62308 -1.40234 0
M  V30 4990 H 501.49 2.60659 -3.80598 0
M  V30 4991 H 499.733 2.39362 -3.61785 0
M  V30 4992 H 500.404 4.01893 -3.78399 0
M  V30 4993 H 502.88 3.71114 -1.88186 0
M  V30 4994 H 501.756 5.08037 -2.07821 0
M  V30 4995 H 502.017 4.39462 -0.482249 0
M  V30 4996 N 501.076 1.04316 1.18135 0
M  V30 4997 C 502.353 0.662166 1.84051 0
M  V30 4998 C 502.733 -0.858169 1.9287 0
M  V30 4999 O 502.081 -1.76062 1.45652 0
M  V30 5000 C 502.291 1.3409 3.22212 0
M  V30 5001 C 503.639 1.4733 3.9822 0
M  V30 5002 O 504.663 1.29921 3.31661 0
M  V30 5003 O 503.522 1.75722 5.17479 0
M  V30 5004 H 500.616 0.232005 0.79379 0
M  V30 5005 H 503.162 1.1422 1.25506 0
M  V30 5006 H 501.934 2.37853 3.10711 0
M  V30 5007 H 501.557 0.849649 3.88416 0
M  V30 5008 N 502.554 -1.34406 0.822964 0
M  V30 5009 C 503.803 -1.97542 0.407458 0
M  V30 5010 C 504.116 -1.65973 -1.035 0
M  V30 5011 O 505.322 -2.22598 -1.55442 0
M  V30 5012 C 503.778 -3.53463 0.677623 0
M  V30 5013 C 503.386 -3.93925 2.1337 0
M  V30 5014 C 505.13 -4.23229 0.328284 0
M  V30 5015 C 503.037 -5.42759 2.34876 0
M  V30 5016 H 501.967 -0.739207 0.148623 0
M  V30 5017 H 504.618 -1.53248 1.00932 0
M  V30 5018 H 503 -3.96 0.00558965 0
M  V30 5019 H 504.174 -3.62494 2.8449 0
M  V30 5020 H 502.489 -3.37097 2.44448 0
M  V30 5021 H 505.086 -5.32659 0.466794 0
M  V30 5022 H 505.429 -4.09899 -0.727224 0
M  V30 5023 H 505.962 -3.86169 0.954896 0
M  V30 5024 H 502.701 -5.61075 3.38932 0
M  V30 5025 H 502.221 -5.75704 1.68299 0
M  V30 5026 H 503.9 -6.0944 2.17236 0
M  V30 5027 N 504.032 -0.577932 -1.46621 0
M  V30 5028 C 505.279 -0.0616879 -2.02406 0
M  V30 5029 C 505.607 1.29638 -1.44997 0
M  V30 5030 O 504.862 1.86176 -0.60308 0
M  V30 5031 C 505.161 0.0590832 -3.57351 0
M  V30 5032 C 504.827 -1.23077 -4.33777 0
M  V30 5033 C 503.489 -1.58416 -4.54376 0
M  V30 5034 C 505.841 -2.08457 -4.77698 0
M  V30 5035 C 503.169 -2.78943 -5.16147 0
M  V30 5036 C 505.521 -3.28204 -5.408 0
M  V30 5037 C 504.185 -3.63832 -5.59627 0
M  V30 5038 H 503.455 -0.0225732 -0.740656 0
M  V30 5039 H 506.102 -0.753609 -1.76048 0
M  V30 5040 H 504.407 0.834104 -3.82818 0
M  V30 5041 H 506.104 0.474202 -3.98186 0
M  V30 5042 H 502.694 -0.945652 -4.18038 0
M  V30 5043 H 506.878 -1.82459 -4.61544 0
M  V30 5044 H 502.134 -3.06689 -5.28916 0
M  V30 5045 H 506.308 -3.94634 -5.73792 0
M  V30 5046 H 503.935 -4.57315 -6.07262 0
M  V30 5047 N 505.51 1.54411 -0.315457 0
M  V30 5048 C 506.42 2.27737 0.56329 0
M  V30 5049 C 507.436 1.31787 1.13614 0
M  V30 5050 O 508.612 1.64791 1.15784 0
M  V30 5051 C 505.677 3.01478 1.71207 0
M  V30 5052 C 504.738 4.12997 1.17185 0
M  V30 5053 C 503.971 4.83212 2.26588 0
M  V30 5054 O 504.194 4.52884 3.46775 0
M  V30 5055 O 503.128 5.70299 1.92463 0
M  V30 5056 H 506.954 3.03683 -0.0319614 0
M  V30 5057 H 504.539 1.49178 -0.0814188 0
M  V30 5058 H 506.421 3.47683 2.38106 0
M  V30 5059 H 505.096 2.28414 2.29366 0
M  V30 5060 H 504.003 3.71159 0.468174 0
M  V30 5061 H 505.336 4.8808 0.635501 0
M  V30 5062 N 506.988 0.0434614 1.5754 0
M  V30 5063 C 508.237 -0.631454 1.91561 0
M  V30 5064 C 508.55 -1.72457 0.92292 0
M  V30 5065 O 509.756 -2.45712 1.15489 0
M  V30 5066 C 508.212 -1.17447 3.40197 0
M  V30 5067 C 507.82 -0.113867 4.47855 0
M  V30 5068 C 509.564 -1.82507 3.83264 0
M  V30 5069 C 507.471 -0.669326 5.876 0
M  V30 5070 H 506.401 -0.239629 0.714908 0
M  V30 5071 H 509.052 0.111097 1.83163 0
M  V30 5072 H 507.434 -1.96909 3.43574 0
M  V30 5073 H 508.608 0.659348 4.56058 0
M  V30 5074 H 506.923 0.438821 4.14081 0
M  V30 5075 H 509.52 -2.25047 4.85034 0
M  V30 5076 H 509.863 -2.67365 3.19095 0
M  V30 5077 H 510.396 -1.09712 3.82372 0
M  V30 5078 H 507.135 0.141449 6.55347 0
M  V30 5079 H 506.655 -1.4107 5.82974 0
M  V30 5080 H 508.334 -1.15463 6.36614 0
M  V30 5081 N 508.466 -1.55915 -0.229846 0
M  V30 5082 C 509.414 -1.9258 -1.30444 0
M  V30 5083 C 510.408 -0.806839 -1.48951 0
M  V30 5084 O 511.614 -0.991606 -1.50224 0
M  V30 5085 H 507.989 -0.611878 -0.437161 0
M  V30 5086 H 509.96 -2.82264 -0.96797 0
M  V30 5087 C 508.709 -2.25171 -2.6494 0
M  V30 5088 H 508.032 -3.10782 -2.51504 0
M  V30 5089 H 509.472 -2.54716 -3.38963 0
M  V30 5090 C 507.931 -1.07394 -3.19324 0
M  V30 5091 O 508.461 -0.330759 -4.00336 0
M  V30 5092 N 506.667 -0.859984 -2.77584 0
M  V30 5093 H 506.214 -1.46605 -2.11813 0
M  V30 5094 H 506.172 -0.0736671 -3.14314 0
M  V30 5095 N 509.944 0.496216 -1.49584 0
M  V30 5096 C 510.854 1.62352 -1.69349 0
M  V30 5097 C 511.87 1.64184 -0.576147 0
M  V30 5098 O 513.046 1.82517 -0.85144 0
M  V30 5099 C 510.111 2.98698 -1.76013 0
M  V30 5100 C 509.172 3.07454 -2.99617 0
M  V30 5101 C 508.405 4.37296 -3.05953 0
M  V30 5102 O 508.628 5.2637 -2.19752 0
M  V30 5103 O 507.562 4.51124 -3.9846 0
M  V30 5104 H 511.388 1.48606 -2.64859 0
M  V30 5105 H 508.973 0.673022 -1.33382 0
M  V30 5106 H 510.855 3.79725 -1.82721 0
M  V30 5107 H 509.53 3.12696 -0.836828 0
M  V30 5108 H 508.437 2.25597 -2.98424 0
M  V30 5109 H 509.77 2.98385 -3.91443 0
M  V30 5110 N 511.423 1.38739 0.74761 0
M  V30 5111 C 512.386 1.36241 1.84312 0
M  V30 5112 C 513.386 0.261811 1.58654 0
M  V30 5113 O 514.576 0.519031 1.66288 0
M  V30 5114 C 511.708 1.12253 3.21888 0
M  V30 5115 H 512.901 2.33712 1.87933 0
M  V30 5116 H 510.454 1.2412 0.949946 0
M  V30 5117 H 511.189 0.154133 3.23934 0
M  V30 5118 H 510.974 1.91943 3.41907 0
M  V30 5119 H 512.464 1.13215 4.0196 0
M  V30 5120 N 512.901 -0.976442 1.23707 0
M  V30 5121 C 514.148 -1.71827 1.07153 0
M  V30 5122 C 514.476 -1.9053 -0.390982 0
M  V30 5123 O 513.731 -1.45779 -1.30564 0
M  V30 5124 C 514.03 -3.11814 1.74662 0
M  V30 5125 C 513.696 -3.12978 3.24585 0
M  V30 5126 C 512.358 -3.13003 3.6549 0
M  V30 5127 C 514.71 -3.07986 4.20469 0
M  V30 5128 C 512.038 -3.05757 5.00729 0
M  V30 5129 C 514.39 -3.02282 5.55705 0
M  V30 5130 C 513.054 -3.00631 5.95968 0
M  V30 5131 H 512.324 -0.628758 0.392102 0
M  V30 5132 H 514.971 -1.14239 1.53693 0
M  V30 5133 H 513.276 -3.72812 1.20492 0
M  V30 5134 H 514.973 -3.67989 1.59328 0
M  V30 5135 H 511.563 -3.13718 2.92026 0
M  V30 5136 H 515.747 -3.07103 3.89874 0
M  V30 5137 H 511.003 -3.02834 5.31132 0
M  V30 5138 H 515.177 -2.97376 6.29714 0
M  V30 5139 H 512.804 -2.94771 7.00724 0
M  V30 5140 N 514.379 -1.04941 -1.1758 0
M  V30 5141 C 515.342 -0.652456 -2.19717 0
M  V30 5142 C 516.342 0.294745 -1.58076 0
M  V30 5143 O 517.532 0.0789579 -1.74021 0
M  V30 5144 C 514.664 0.0420712 -3.40874 0
M  V30 5145 H 515.857 -1.55642 -2.5635 0
M  V30 5146 H 513.41 -0.842995 -1.31618 0
M  V30 5147 H 514.145 0.95943 -3.09783 0
M  V30 5148 H 513.93 -0.638844 -3.86861 0
M  V30 5149 H 515.42 0.306 -4.16477 0
M  V30 5150 N 515.857 1.33968 -0.830081 0
M  V30 5151 C 517.082 2.02813 -0.433796 0
M  V30 5152 C 517.507 1.62076 0.954614 0
M  V30 5153 O 516.865 0.808955 1.62252 0
M  V30 5154 C 516.913 3.56348 -0.552115 0
M  V30 5155 O 516.017 4.10202 0.425191 0
M  V30 5156 H 515.358 0.639817 -0.177567 0
M  V30 5157 H 517.888 1.7106 -1.12248 0
M  V30 5158 H 517.898 4.05722 -0.430513 0
M  V30 5159 H 516.573 3.85344 -1.56471 0
M  V30 5160 H 515.15 3.71979 0.261878 0
M  V30 5161 N 517.335 0.585699 1.46312 0
M  V30 5162 C 518.267 -0.183687 2.28463 0
M  V30 5163 C 519.28 -0.85264 1.38686 0
M  V30 5164 O 520.469 -0.721701 1.6326 0
M  V30 5165 C 517.569 -1.27977 3.13808 0
M  V30 5166 C 516.742 -0.702164 4.31727 0
M  V30 5167 C 515.801 -1.68633 4.98447 0
M  V30 5168 O 514.827 -1.22121 5.55945 0
M  V30 5169 N 516.029 -3.02047 4.95729 0
M  V30 5170 H 518.794 0.521127 2.95134 0
M  V30 5171 H 516.355 0.423673 1.56258 0
M  V30 5172 H 518.347 -1.9375 3.55307 0
M  V30 5173 H 516.917 -1.8874 2.4919 0
M  V30 5174 H 516.137 0.1331 3.93975 0
M  V30 5175 H 517.425 -0.296101 5.07938 0
M  V30 5176 H 516.823 -3.42457 4.50266 0
M  V30 5177 H 515.38 -3.63301 5.41161 0
M  V30 5178 N 518.813 -1.54241 0.323641 0
M  V30 5179 C 519.776 -2.22997 -0.529602 0
M  V30 5180 C 520.776 -1.22345 -1.04347 0
M  V30 5181 O 521.966 -1.46924 -0.935889 0
M  V30 5182 C 519.098 -2.93409 -1.73562 0
M  V30 5183 H 520.291 -2.99815 0.0714518 0
M  V30 5184 H 517.844 -1.56121 0.0747258 0
M  V30 5185 H 518.579 -2.20729 -2.37591 0
M  V30 5186 H 518.364 -3.67217 -1.37456 0
M  V30 5187 H 519.854 -3.45794 -2.34128 0
M  V30 5188 N 520.291 -0.0518155 -1.57515 0
M  V30 5189 C 521.254 0.907547 -2.10467 0
M  V30 5190 C 522.254 1.23947 -1.02439 0
M  V30 5191 O 523.444 1.17604 -1.2851 0
M  V30 5192 C 520.576 2.21723 -2.58944 0
M  V30 5193 H 521.769 0.44851 -2.96527 0
M  V30 5194 H 519.322 0.196598 -1.55059 0
M  V30 5195 H 520.057 2.72206 -1.76279 0
M  V30 5196 H 519.842 1.98935 -3.37886 0
M  V30 5197 H 521.332 2.90441 -3.00056 0
M  V30 5198 N 521.769 1.56035 0.221574 0
M  V30 5199 C 522.999 1.82864 0.961468 0
M  V30 5200 C 523.407 0.628703 1.78449 0
M  V30 5201 O 522.75 -0.412109 1.79018 0
M  V30 5202 C 522.812 3.03425 1.92804 0
M  V30 5203 C 522.476 4.38429 1.28954 0
M  V30 5204 C 523.473 5.15441 0.679431 0
M  V30 5205 C 521.158 4.85151 1.30131 0
M  V30 5206 C 523.152 6.37337 0.0896148 0
M  V30 5207 C 520.839 6.06989 0.707651 0
M  V30 5208 C 521.837 6.82923 0.102855 0
M  V30 5209 O 521.525 8.02456 -0.48157 0
M  V30 5210 H 521.257 0.611883 0.28736 0
M  V30 5211 H 523.811 2.0397 0.241932 0
M  V30 5212 H 522.041 2.78138 2.68656 0
M  V30 5213 H 523.73 3.17127 2.53348 0
M  V30 5214 H 524.496 4.80452 0.662661 0
M  V30 5215 H 520.375 4.26021 1.76145 0
M  V30 5216 H 523.919 6.96547 -0.383069 0
M  V30 5217 H 519.816 6.41451 0.721834 0
M  V30 5218 H 520.584 8.17636 -0.375887 0
M  V30 5219 N 523.247 -0.488276 1.49845 0
M  V30 5220 C 524.487 -1.2516 1.61599 0
M  V30 5221 C 524.851 -1.89615 0.301706 0
M  V30 5222 O 526.052 -2.67182 0.29453 0
M  V30 5223 C 524.323 -2.2805 2.75187 0
M  V30 5224 S 525.882 -3.13552 3.0697 0
M  V30 5225 H 522.7 -0.425178 0.569864 0
M  V30 5226 H 525.302 -0.551545 1.87559 0
M  V30 5227 H 524.006 -1.7925 3.69185 0
M  V30 5228 H 523.537 -3.02708 2.5126 0
M  V30 5229 H 525.552 -4.28927 2.49471 0
M  V30 5230 N 524.725 -1.39134 -0.740242 0
M  V30 5231 C 525.971 -1.36273 -1.50192 0
M  V30 5232 C 526.304 0.0430136 -1.94152 0
M  V30 5233 O 525.579 1.00691 -1.66408 0
M  V30 5234 C 525.862 -2.33041 -2.74525 0
M  V30 5235 C 525.715 -3.82535 -2.36617 0
M  V30 5236 C 527.034 -2.27723 -3.76604 0
M  V30 5237 H 524.153 -0.496323 -0.544823 0
M  V30 5238 H 526.795 -1.70085 -0.846815 0
M  V30 5239 H 524.945 -2.04337 -3.30422 0
M  V30 5240 H 526.617 -4.21967 -1.86391 0
M  V30 5241 H 524.86 -3.99565 -1.68909 0
M  V30 5242 H 525.531 -4.45723 -3.2563 0
M  V30 5243 H 528.007 -2.53091 -3.30279 0
M  V30 5244 H 526.883 -2.97519 -4.61274 0
M  V30 5245 H 527.144 -1.28049 -4.2315 0
M  V30 5246 N 526.204 0.969867 -1.24223 0
M  V30 5247 C 527.114 2.09806 -1.0497 0
M  V30 5248 C 528.13 1.73998 0.00886455 0
M  V30 5249 O 529.306 2.00513 -0.188848 0
M  V30 5250 C 526.371 3.40467 -0.654452 0
M  V30 5251 C 525.432 3.90236 -1.78926 0
M  V30 5252 C 524.665 5.14662 -1.41277 0
M  V30 5253 O 524.888 5.69602 -0.301632 0
M  V30 5254 O 523.822 5.58761 -2.23763 0
M  V30 5255 H 527.648 2.28942 -1.99548 0
M  V30 5256 H 525.233 1.08197 -1.03023 0
M  V30 5257 H 527.115 4.19039 -0.445452 0
M  V30 5258 H 525.79 3.22636 0.262216 0
M  V30 5259 H 524.697 3.12735 -2.05299 0
M  V30 5260 H 526.03 4.1254 -2.68462 0
M  V30 5261 N 527.682 1.05563 1.17022 0
M  V30 5262 C 528.629 0.659893 2.21165 0
M  V30 5263 C 529.599 -0.339813 1.62587 0
M  V30 5264 O 530.784 -0.230378 1.89404 0
M  V30 5265 C 527.924 0.0447297 3.45071 0
M  V30 5266 C 527.037 1.09372 4.17926 0
M  V30 5267 C 526.172 0.445481 5.29329 0
M  V30 5268 C 525.211 1.47852 5.93975 0
M  V30 5269 N 524.348 0.854172 6.96885 0
M  V30 5270 H 529.188 1.55243 2.54369 0
M  V30 5271 H 526.725 0.776336 1.24946 0
M  V30 5272 H 528.683 -0.329404 4.15898 0
M  V30 5273 H 527.313 -0.811244 3.1244 0
M  V30 5274 H 526.365 1.58564 3.45777 0
M  V30 5275 H 527.677 1.87773 4.62107 0
M  V30 5276 H 526.831 0.0179688 6.06697 0
M  V30 5277 H 525.57 -0.370481 4.86291 0
M  V30 5278 H 524.575 1.91601 5.15334 0
M  V30 5279 H 525.8 2.29645 6.39093 0
M  V30 5280 H 523.746 0.0587882 6.55974 0
M  V30 5281 H 523.663 1.57567 7.39397 0
M  V30 5282 H 524.931 0.451559 7.78191 0
M  V30 5283 N 529.16 -1.33526 0.837174 0
M  V30 5284 C 530.09 -2.31764 0.284206 0
M  V30 5285 C 531.071 -1.58896 -0.607142 0
M  V30 5286 O 532.256 -1.86798 -0.531047 0
M  V30 5287 C 529.386 -3.43029 -0.542962 0
M  V30 5288 C 528.34 -4.27255 0.252451 0
M  V30 5289 C 527.666 -5.3012 -0.69836 0
M  V30 5290 C 528.966 -5.01229 1.46858 0
M  V30 5291 H 530.66 -2.78262 1.10502 0
M  V30 5292 H 528.206 -1.3378 0.532812 0
M  V30 5293 H 530.159 -4.1078 -0.940096 0
M  V30 5294 H 528.883 -2.95216 -1.39697 0
M  V30 5295 H 527.542 -3.61127 0.631124 0
M  V30 5296 H 527.19 -4.78564 -1.54872 0
M  V30 5297 H 526.89 -5.87353 -0.170274 0
M  V30 5298 H 528.414 -6.00737 -1.09305 0
M  V30 5299 H 529.828 -5.61756 1.14469 0
M  V30 5300 H 528.225 -5.68104 1.93333 0
M  V30 5301 H 529.295 -4.301 2.23924 0
M  V30 5302 N 530.638 -0.59345 -1.46 0
M  V30 5303 C 532.054 -0.255965 -1.57534 0
M  V30 5304 C 532.254 1.24167 -1.58697 0
M  V30 5305 O 531.31 2.02398 -1.50968 0
M  V30 5306 C 532.623 -0.91466 -2.86451 0
M  V30 5307 C 534.171 -0.889253 -3.00102 0
M  V30 5308 C 534.646 -1.52769 -4.3177 0
M  V30 5309 N 536.137 -1.49253 -4.38495 0
M  V30 5310 C 536.872 -1.9558 -5.39014 0
M  V30 5311 N 536.368 -2.49929 -6.46148 0
M  V30 5312 N 538.161 -1.86432 -5.30282 0
M  V30 5313 H 530.312 -1.56604 -1.43489 0
M  V30 5314 H 532.575 -0.655207 -0.685133 0
M  V30 5315 H 532.281 -1.96861 -2.91442 0
M  V30 5316 H 532.155 -0.429356 -3.74748 0
M  V30 5317 H 534.542 0.156111 -2.94687 0
M  V30 5318 H 534.623 -1.41268 -2.13253 0
M  V30 5319 H 534.267 -2.57231 -4.37944 0
M  V30 5320 H 534.197 -0.979398 -5.17412 0
M  V30 5321 H 536.688 -1.09536 -3.61677 0
M  V30 5322 H 537.001 -2.83109 -7.19075 0
M  V30 5323 H 535.346 -2.53961 -6.46938 0
M  V30 5324 H 538.537 -1.43722 -4.4549 0
M  V30 5325 H 538.71 -2.22852 -6.08474 0
M  V30 5326 N 532.116 1.54067 -0.331816 0
M  V30 5327 C 533.046 2.27569 0.522932 0
M  V30 5328 C 534.027 1.28679 1.11247 0
M  V30 5329 O 535.212 1.57504 1.13605 0
M  V30 5330 C 532.342 3.0397 1.67987 0
M  V30 5331 C 531.296 4.10267 1.21924 0
M  V30 5332 C 530.622 4.74555 2.46377 0
M  V30 5333 C 531.922 5.21268 0.32815 0
M  V30 5334 H 533.616 2.99264 -0.0901977 0
M  V30 5335 H 531.162 1.4393 -0.044821 0
M  V30 5336 H 533.115 3.54123 2.28418 0
M  V30 5337 H 531.839 2.29906 2.31971 0
M  V30 5338 H 530.498 3.61009 0.637809 0
M  V30 5339 H 530.146 3.97098 3.08743 0
M  V30 5340 H 529.846 5.46363 2.16243 0
M  V30 5341 H 531.37 5.27487 3.07555 0
M  V30 5342 H 532.784 5.67128 0.838978 0
M  V30 5343 H 531.181 5.99982 0.119228 0
M  V30 5344 H 532.251 4.80673 -0.638839 0
M  V30 5345 N 533.594 0.0601682 1.57485 0
M  V30 5346 C 535.005 -0.474217 1.80577 0
M  V30 5347 C 535.356 -1.70365 0.973147 0
M  V30 5348 O 534.481 -2.15544 0.192306 0
M  V30 5349 C 535.076 -0.867102 3.27516 0
M  V30 5350 C 533.635 -1.34642 3.51495 0
M  V30 5351 C 532.782 -0.32594 2.75378 0
M  V30 5352 H 535.733 0.285973 1.56102 0
M  V30 5353 H 535.754 -1.72938 3.38929 0
M  V30 5354 H 535.266 0.0278927 3.8809 0
M  V30 5355 H 533.367 -2.2603 2.96212 0
M  V30 5356 H 533.48 -1.33237 4.60201 0
M  V30 5357 H 531.844 -0.800749 2.41785 0
M  V30 5358 H 532.627 0.561125 3.38683 0
M  V30 5359 N 535.072 -1.5615 -0.213296 0
M  V30 5360 C 536.483 -1.69645 -0.779582 0
M  V30 5361 C 536.834 -0.663615 -1.84636 0
M  V30 5362 O 535.959 0.183633 -2.15619 0
M  V30 5363 C 536.554 -3.07567 -1.42084 0
M  V30 5364 C 535.113 -3.22889 -1.93442 0
M  V30 5365 C 534.26 -2.65581 -0.797612 0
M  V30 5366 H 537.211 -1.58696 0.0114951 0
M  V30 5367 H 537.232 -3.03884 -2.28986 0
M  V30 5368 H 536.744 -3.82716 -0.644187 0
M  V30 5369 H 534.845 -2.52623 -2.73884 0
M  V30 5370 H 534.958 -4.30197 -2.10872 0
M  V30 5371 H 533.322 -2.24278 -1.20712 0
M  V30 5372 H 534.105 -3.43284 -0.033494 0
M  V30 5373 N 536.55 0.480323 -1.50102 0
M  V30 5374 C 537.46 1.60547 -1.71061 0
M  V30 5375 C 538.476 1.63564 -0.593529 0
M  V30 5376 O 539.652 1.81604 -0.870751 0
M  V30 5377 C 536.717 2.96814 -1.79171 0
M  V30 5378 C 535.778 3.04259 -3.02861 0
M  V30 5379 C 535.011 4.34027 -3.10574 0
M  V30 5380 O 535.234 5.24009 -2.25323 0
M  V30 5381 O 534.168 4.46873 -4.03223 0
M  V30 5382 H 537.994 1.45788 -2.6642 0
M  V30 5383 H 535.579 0.658838 -1.34088 0
M  V30 5384 H 537.461 3.77765 -1.86738 0
M  V30 5385 H 536.136 3.11791 -0.869947 0
M  V30 5386 H 535.043 2.22419 -3.008 0
M  V30 5387 H 536.376 2.94216 -3.94586 0
M  V30 5388 N 538.028 1.39524 0.732853 0
M  V30 5389 C 538.975 1.38416 1.84688 0
M  V30 5390 C 539.945 0.243539 1.64305 0
M  V30 5391 O 541.13 0.438979 1.85681 0
M  V30 5392 C 538.27 1.23555 3.22224 0
M  V30 5393 C 537.383 2.47179 3.54298 0
M  V30 5394 C 536.518 2.2489 4.81246 0
M  V30 5395 C 535.557 3.44178 5.0617 0
M  V30 5396 N 534.694 3.21192 6.24323 0
M  V30 5397 H 539.534 2.33645 1.84971 0
M  V30 5398 H 537.071 1.16059 0.903804 0
M  V30 5399 H 539.029 1.12949 4.0162 0
M  V30 5400 H 537.659 0.31954 3.21215 0
M  V30 5401 H 536.711 2.68379 2.69587 0
M  V30 5402 H 538.023 3.36022 3.68633 0
M  V30 5403 H 537.177 2.11538 5.68627 0
M  V30 5404 H 535.916 1.33443 4.69089 0
M  V30 5405 H 534.921 3.58025 4.17251 0
M  V30 5406 H 536.146 4.36528 5.20212 0
M  V30 5407 H 534.092 2.32413 6.1345 0
M  V30 5408 H 534.009 4.03594 6.39256 0
M  V30 5409 H 535.277 3.1154 7.14537 0
M  V30 5410 N 539.506 -0.963266 1.24736 0
M  V30 5411 C 540.752 -1.70933 1.09131 0
M  V30 5412 C 541.085 -1.90676 -0.368273 0
M  V30 5413 O 540.36 -1.47147 -1.27193 0
M  V30 5414 C 540.643 -3.09744 1.83658 0
M  V30 5415 C 540.496 -2.97465 3.37394 0
M  V30 5416 C 541.815 -4.09483 1.61282 0
M  V30 5417 H 538.934 -0.620398 0.397838 0
M  V30 5418 H 541.576 -1.12028 1.53459 0
M  V30 5419 H 539.726 -3.60031 1.4598 0
M  V30 5420 H 541.398 -2.54571 3.84696 0
M  V30 5421 H 539.641 -2.33576 3.65547 0
M  V30 5422 H 540.312 -3.95822 3.84745 0
M  V30 5423 H 542.788 -3.68073 1.94066 0
M  V30 5424 H 541.664 -5.04666 2.15878 0
M  V30 5425 H 541.925 -4.38639 0.552102 0
M  V30 5426 N 540.985 -1.06182 -1.16461 0
M  V30 5427 C 541.933 -0.665716 -2.2287 0
M  V30 5428 C 542.927 0.317822 -1.66392 0
M  V30 5429 O 544.133 0.182807 -1.79069 0
M  V30 5430 H 540.508 -0.197148 -0.725697 0
M  V30 5431 H 542.479 -1.57307 -2.53569 0
M  V30 5432 C 541.228 -0.0669803 -3.47635 0
M  V30 5433 H 540.551 -0.814899 -3.91407 0
M  V30 5434 H 541.991 0.172669 -4.23648 0
M  V30 5435 C 540.45 1.18913 -3.15216 0
M  V30 5436 O 540.98 2.27723 -3.30916 0
M  V30 5437 N 539.186 1.09066 -2.69357 0
M  V30 5438 H 538.733 0.20518 -2.56782 0
M  V30 5439 H 538.691 1.93195 -2.48039 0
M  V30 5440 N 542.463 1.3308 -0.844243 0
M  V30 5441 C 543.874 1.7992 -0.498566 0
M  V30 5442 C 544.225 1.69808 0.982834 0
M  V30 5443 O 543.35 1.25051 1.7661 0
M  V30 5444 C 543.945 3.26677 -0.898204 0
M  V30 5445 C 542.504 3.71513 -0.604583 0
M  V30 5446 C 541.651 2.54393 -1.10362 0
M  V30 5447 H 544.602 1.20526 -1.03244 0
M  V30 5448 H 544.623 3.79918 -0.21039 0
M  V30 5449 H 544.135 3.34004 -1.97643 0
M  V30 5450 H 542.236 3.69708 0.46335 0
M  V30 5451 H 542.349 4.64755 -1.16358 0
M  V30 5452 H 540.713 2.49246 -0.524273 0
M  V30 5453 H 541.496 2.6448 -2.18873 0
M  V30 5454 N 543.941 0.601185 1.45683 0
M  V30 5455 C 544.871 -0.108824 2.33246 0
M  V30 5456 C 545.852 -0.865223 1.46451 0
M  V30 5457 O 547.037 -0.83704 1.75235 0
M  V30 5458 C 544.167 -1.11101 3.2905 0
M  V30 5459 C 543.121 -0.468244 4.25431 0
M  V30 5460 C 542.447 -1.57822 5.10878 0
M  V30 5461 C 543.747 0.606469 5.18767 0
M  V30 5462 H 545.441 0.622306 2.92861 0
M  V30 5463 H 542.987 0.300714 1.40825 0
M  V30 5464 H 544.94 -1.61622 3.89174 0
M  V30 5465 H 543.664 -1.87265 2.67581 0
M  V30 5466 H 542.323 0.0160484 3.66596 0
M  V30 5467 H 541.971 -2.32998 4.45781 0
M  V30 5468 H 541.671 -1.15369 5.76163 0
M  V30 5469 H 543.195 -2.08583 5.73869 0
M  V30 5470 H 544.609 0.185589 5.73 0
M  V30 5471 H 543.006 0.952381 5.92494 0
M  V30 5472 H 544.076 1.48559 4.61582 0
M  V30 5473 N 545.419 -1.53889 0.339982 0
M  V30 5474 C 546.667 -2.00458 -0.257112 0
M  V30 5475 C 546.988 -1.22953 -1.51353 0
M  V30 5476 O 546.258 -0.335734 -1.93002 0
M  V30 5477 H 544.838 -0.740544 -0.0979965 0
M  V30 5478 H 547.5 -1.89386 0.460317 0
M  V30 5479 H 546.596 -3.08035 -0.502057 0
M  V30 5480 N 546.897 -0.0685191 -1.57451 0
M  V30 5481 C 548.145 0.60016 -1.92983 0
M  V30 5482 C 548.466 1.70348 -0.949028 0
M  V30 5483 O 547.736 1.959 0.00335647 0
M  V30 5484 H 546.316 0.224682 -0.712409 0
M  V30 5485 H 548.978 -0.125605 -1.94495 0
M  V30 5486 H 548.074 1.02759 -2.94698 0
M  V30 5487 N 548.375 1.56261 0.205012 0
M  V30 5488 C 549.338 1.92908 1.23771 0
M  V30 5489 C 550.338 0.809208 1.38955 0
M  V30 5490 O 551.528 1.07676 1.36936 0
M  V30 5491 C 548.66 2.19442 2.60879 0
M  V30 5492 H 549.853 2.85287 0.924728 0
M  V30 5493 H 547.406 1.49798 0.446125 0
M  V30 5494 H 548.141 1.29668 2.97248 0
M  V30 5495 H 547.926 3.0104 2.51232 0
M  V30 5496 H 549.416 2.48833 3.35368 0
M  V30 5497 N 549.853 -0.472356 1.50355 0
M  V30 5498 C 551.099 -1.22634 1.6152 0
M  V30 5499 C 551.432 -1.91645 0.313995 0
M  V30 5500 O 550.707 -1.82059 -0.684446 0
M  V30 5501 C 550.99 -2.27099 2.7946 0
M  V30 5502 C 550.843 -1.62402 4.19459 0
M  V30 5503 C 552.162 -3.28421 2.92964 0
M  V30 5504 H 549.281 -0.444494 0.587873 0
M  V30 5505 H 551.923 -0.520321 1.82737 0
M  V30 5506 H 550.073 -2.87314 2.61501 0
M  V30 5507 H 551.745 -1.05793 4.49005 0
M  V30 5508 H 549.988 -0.927184 4.23776 0
M  V30 5509 H 550.659 -2.38309 4.97909 0
M  V30 5510 H 553.135 -2.78227 3.09401 0
M  V30 5511 H 552.011 -3.98845 3.77113 0
M  V30 5512 H 552.272 -3.92467 2.03525 0
M  V30 5513 N 551.331 -1.39911 -0.725443 0
M  V30 5514 C 552.294 -1.39156 -1.82121 0
M  V30 5515 C 553.294 -0.287018 -1.58218 0
M  V30 5516 O 554.484 -0.545421 -1.65441 0
M  V30 5517 C 551.616 -1.1736 -3.20062 0
M  V30 5518 H 552.809 -2.36672 -1.84191 0
M  V30 5519 H 550.362 -1.25615 -0.930079 0
M  V30 5520 H 551.097 -0.205648 -3.23647 0
M  V30 5521 H 550.882 -1.97358 -3.3881 0
M  V30 5522 H 552.372 -1.19596 -4.00108 0
M  V30 5523 N 552.809 0.956637 -1.25245 0
M  V30 5524 C 553.739 2.07058 -1.07931 0
M  V30 5525 C 554.72 1.70096 0.0110361 0
M  V30 5526 O 555.905 1.93555 -0.158121 0
M  V30 5527 C 553.035 3.40272 -0.695124 0
M  V30 5528 C 551.989 3.91235 -1.73549 0
M  V30 5529 C 551.315 5.20921 -1.20604 0
M  V30 5530 C 552.615 4.17837 -3.13385 0
M  V30 5531 H 554.309 2.218 -2.01109 0
M  V30 5532 H 551.855 1.06581 -0.968326 0
M  V30 5533 H 553.808 4.1765 -0.560949 0
M  V30 5534 H 552.532 3.25462 0.272355 0
M  V30 5535 H 551.191 3.16025 -1.85807 0
M  V30 5536 H 550.839 5.02479 -0.228846 0
M  V30 5537 H 550.539 5.55987 -1.90136 0
M  V30 5538 H 552.063 6.00897 -1.08421 0
M  V30 5539 H 553.477 4.8588 -3.04292 0
M  V30 5540 H 551.874 4.64154 -3.80369 0
M  V30 5541 H 552.944 3.2419 -3.60595 0
M  V30 5542 N 554.287 1.06798 1.15896 0
M  V30 5543 C 555.535 0.786211 1.8618 0
M  V30 5544 C 555.856 -0.689547 1.82401 0
M  V30 5545 O 555.126 -1.49913 1.26107 0
M  V30 5546 H 553.706 0.287843 0.689315 0
M  V30 5547 H 556.368 1.35055 1.40521 0
M  V30 5548 H 555.464 1.1157 2.91477 0
M  V30 5549 N 555.766 -1.3263 0.851289 0
M  V30 5550 C 556.716 -2.26451 0.265302 0
M  V30 5551 C 557.7 -1.49814 -0.586899 0
M  V30 5552 O 558.892 -1.71525 -0.436834 0
M  V30 5553 C 556.021 -3.38895 -0.548212 0
M  V30 5554 C 555.107 -4.2292 0.316189 0
M  V30 5555 N 555.498 -4.86014 1.40084 0
M  V30 5556 C 553.796 -4.45876 0.105356 0
M  V30 5557 C 554.497 -5.48667 1.93235 0
M  V30 5558 N 553.473 -5.29455 1.232 0
M  V30 5559 H 557.275 -2.72757 1.09457 0
M  V30 5560 H 554.789 -1.4668 0.697047 0
M  V30 5561 H 556.786 -4.05111 -0.984402 0
M  V30 5562 H 555.446 -2.94135 -1.37531 0
M  V30 5563 H 556.457 -4.86212 1.78377 0
M  V30 5564 H 553.134 -4.11804 -0.687299 0
M  V30 5565 H 554.524 -6.08865 2.84135 0
M  V30 5566 N 557.244 -0.608902 -1.45362 0
M  V30 5567 C 558.655 -0.189511 -1.85736 0
M  V30 5568 C 559.006 1.2539 -1.50903 0
M  V30 5569 O 558.131 1.95094 -0.936347 0
M  V30 5570 C 558.726 -0.33716 -3.37118 0
M  V30 5571 C 557.285 0.0275487 -3.7639 0
M  V30 5572 C 556.432 -0.660983 -2.69307 0
M  V30 5573 H 559.383 -0.815499 -1.36144 0
M  V30 5574 H 559.404 0.430257 -3.7806 0
M  V30 5575 H 558.916 -1.38779 -3.62439 0
M  V30 5576 H 557.017 1.0773 -3.56686 0
M  V30 5577 H 557.13 -0.367018 -4.77692 0
M  V30 5578 H 555.494 -0.0984958 -2.54509 0
M  V30 5579 H 556.277 -1.71377 -2.97464 0
M  V30 5580 N 558.722 1.53707 -0.348139 0
M  V30 5581 C 559.652 2.28111 0.498766 0
M  V30 5582 C 560.633 1.29851 1.09876 0
M  V30 5583 O 561.818 1.587 1.11928 0
M  V30 5584 C 558.948 3.05735 1.64753 0
M  V30 5585 C 557.902 4.11537 1.17565 0
M  V30 5586 C 557.228 4.77142 2.4133 0
M  V30 5587 C 558.528 5.21587 0.272844 0
M  V30 5588 H 560.222 2.99152 -0.121934 0
M  V30 5589 H 557.768 1.43875 -0.0600842 0
M  V30 5590 H 559.721 3.56526 2.24649 0
M  V30 5591 H 558.445 2.32354 2.2952 0
M  V30 5592 H 557.104 3.61665 0.599483 0
M  V30 5593 H 556.752 4.0035 3.04514 0
M  V30 5594 H 556.452 5.48626 2.10436 0
M  V30 5595 H 557.976 5.30719 3.01943 0
M  V30 5596 H 559.39 5.67986 0.778779 0
M  V30 5597 H 557.787 6.00074 0.0555849 0
M  V30 5598 H 558.857 4.79969 -0.689785 0
M  V30 5599 N 560.2 0.0768682 1.57412 0
M  V30 5600 C 561.448 -0.589918 1.93299 0
M  V30 5601 C 561.769 -1.69842 0.958049 0
M  V30 5602 O 561.039 -1.95899 0.00703261 0
M  V30 5603 H 559.619 -0.220901 0.713591 0
M  V30 5604 H 562.281 0.135917 1.94425 0
M  V30 5605 H 561.377 -1.01195 2.95239 0
M  V30 5606 N 561.678 -1.56367 -0.196722 0
M  V30 5607 C 562.918 -1.82315 -0.92415 0
M  V30 5608 C 563.282 -0.654117 -1.80514 0
M  V30 5609 O 564.483 -0.79345 -2.56823 0
M  V30 5610 C 562.754 -3.13279 -1.72021 0
M  V30 5611 S 564.313 -3.60627 -2.49988 0
M  V30 5612 H 561.131 -0.639862 -0.309997 0
M  V30 5613 H 563.733 -1.94597 -0.187684 0
M  V30 5614 H 562.437 -3.96379 -1.06358 0
M  V30 5615 H 561.968 -3.03871 -2.49852 0
M  V30 5616 H 563.983 -3.25934 -3.74141 0
M  V30 5617 N 563.156 0.464375 -1.50603 0
M  V30 5618 C 564.384 1.23907 -1.65695 0
M  V30 5619 C 564.799 1.85658 -0.343027 0
M  V30 5620 O 564.156 1.69529 0.675739 0
M  V30 5621 C 564.207 2.3429 -2.75301 0
M  V30 5622 O 563.928 1.7507 -4.01599 0
M  V30 5623 C 565.429 3.25051 -3.01424 0
M  V30 5624 H 562.649 0.374485 -0.556778 0
M  V30 5625 H 565.193 0.55353 -1.96866 0
M  V30 5626 H 563.348 2.98607 -2.46804 0
M  V30 5627 H 563.762 2.47812 -4.62266 0
M  V30 5628 H 565.236 3.98699 -3.81763 0
M  V30 5629 H 565.713 3.84227 -2.12758 0
M  V30 5630 H 566.319 2.66463 -3.31477 0
M  V30 5631 N 564.634 1.40294 0.718013 0
M  V30 5632 C 565.882 1.38167 1.47494 0
M  V30 5633 C 566.203 -0.01607 1.94993 0
M  V30 5634 O 565.473 -0.970396 1.70177 0
M  V30 5635 H 564.053 0.508505 0.547203 0
M  V30 5636 H 566.715 1.75324 0.851322 0
M  V30 5637 H 565.811 2.05503 2.34894 0
M  V30 5638 N 566.112 -0.949982 1.2575 0
M  V30 5639 C 567.075 -2.02894 1.06615 0
M  V30 5640 C 568.075 -1.60791 0.0173905 0
M  V30 5641 O 569.265 -1.72249 0.260003 0
M  V30 5642 C 566.397 -3.35219 0.619751 0
M  V30 5643 H 567.59 -2.21302 2.02399 0
M  V30 5644 H 565.143 -1.12772 1.08223 0
M  V30 5645 H 565.878 -3.22508 -0.340486 0
M  V30 5646 H 565.663 -3.67129 1.37692 0
M  V30 5647 H 567.153 -4.14505 0.507443 0
M  V30 5648 N 567.59 -1.07411 -1.15328 0
M  V30 5649 C 569.006 -0.799759 -1.38116 0
M  V30 5650 C 569.206 0.59572 -1.92493 0
M  V30 5651 O 568.262 1.35433 -2.13106 0
M  V30 5652 C 569.575 -1.87407 -2.35158 0
M  V30 5653 C 571.123 -1.89889 -2.48819 0
M  V30 5654 C 571.598 -2.96406 -3.49153 0
M  V30 5655 N 573.089 -2.95512 -3.56689 0
M  V30 5656 C 573.824 -3.74575 -4.34144 0
M  V30 5657 N 573.32 -4.63488 -5.14928 0
M  V30 5658 N 575.113 -3.62919 -4.29239 0
M  V30 5659 H 567.264 -1.97411 -0.78374 0
M  V30 5660 H 569.527 -0.856113 -0.407154 0
M  V30 5661 H 569.233 -2.8768 -2.0232 0
M  V30 5662 H 569.107 -1.73471 -3.34944 0
M  V30 5663 H 571.494 -0.902677 -2.80955 0
M  V30 5664 H 571.575 -2.07904 -1.49029 0
M  V30 5665 H 571.219 -3.96227 -3.17752 0
M  V30 5666 H 571.149 -2.75638 -4.48699 0
M  V30 5667 H 573.64 -2.31061 -2.99031 0
M  V30 5668 H 573.953 -5.20445 -5.71276 0
M  V30 5669 H 572.298 -4.67537 -5.14232 0
M  V30 5670 H 575.489 -2.92833 -3.65194 0
M  V30 5671 H 575.662 -4.24777 -4.89355 0
M  V30 5672 N 569.068 1.32177 -0.85831 0
M  V30 5673 C 570 2.27688 -0.262835 0
M  V30 5674 C 571.013 1.52588 0.567513 0
M  V30 5675 O 572.202 1.74156 0.391407 0
M  V30 5676 C 569.302 3.32668 0.646937 0
M  V30 5677 C 568.475 4.37148 -0.148372 0
M  V30 5678 C 567.534 5.21686 0.687728 0
M  V30 5679 O 566.56 5.69074 0.119934 0
M  V30 5680 N 567.762 5.44892 2.00182 0
M  V30 5681 H 570.527 2.79426 -1.08356 0
M  V30 5682 H 568.088 1.45076 -0.718647 0
M  V30 5683 H 570.08 3.86134 1.2117 0
M  V30 5684 H 568.65 2.81061 1.36834 0
M  V30 5685 H 567.87 3.83915 -0.894572 0
M  V30 5686 H 569.158 5.04038 -0.694514 0
M  V30 5687 H 568.556 5.08128 2.4864 0
M  V30 5688 H 567.113 6.0134 2.51463 0
M  V30 5689 N 570.547 0.616602 1.45037 0
M  V30 5690 C 571.793 0.115501 2.02471 0
M  V30 5691 C 572.126 -1.25406 1.4828 0
M  V30 5692 O 571.401 -1.82922 0.661051 0
M  V30 5693 C 571.684 0.0863588 3.59996 0
M  V30 5694 C 571.537 1.48723 4.24501 0
M  V30 5695 C 572.856 -0.596762 4.36035 0
M  V30 5696 H 569.975 0.0434461 0.735718 0
M  V30 5697 H 572.617 0.7903 1.72784 0
M  V30 5698 H 570.767 -0.488277 3.85419 0
M  V30 5699 H 572.439 2.10964 4.10234 0
M  V30 5700 H 570.682 2.04534 3.82555 0
M  V30 5701 H 571.353 1.419 5.3345 0
M  V30 5702 H 573.829 -0.10824 4.15959 0
M  V30 5703 H 572.705 -0.586289 5.4576 0
M  V30 5704 H 572.966 -1.66451 4.09569 0
M  V30 5705 N 572.025 -1.5352 0.356285 0
M  V30 5706 C 573.274 -2.00298 -0.237373 0
M  V30 5707 C 573.587 -1.24784 -1.50627 0
M  V30 5708 O 574.793 -1.62103 -2.17795 0
M  V30 5709 C 573.249 -3.56771 -0.473545 0
M  V30 5710 C 572.857 -4.41154 0.780183 0
M  V30 5711 C 574.601 -4.1193 -1.02537 0
M  V30 5712 C 572.508 -5.89161 0.514108 0
M  V30 5713 H 571.438 -0.748307 -0.092478 0
M  V30 5714 H 574.089 -1.77283 0.473588 0
M  V30 5715 H 572.471 -3.75902 -1.24553 0
M  V30 5716 H 573.645 -4.33797 1.55425 0
M  V30 5717 H 571.96 -3.97052 1.25455 0
M  V30 5718 H 574.557 -5.20133 -1.2396 0
M  V30 5719 H 574.9 -3.65943 -1.98473 0
M  V30 5720 H 575.433 -3.96561 -0.313775 0
M  V30 5721 H 572.172 -6.39408 1.44355 0
M  V30 5722 H 571.692 -5.9939 -0.221632 0
M  V30 5723 H 573.371 -6.46857 0.136122 0
M  V30 5724 N 573.503 -0.0852151 -1.57369 0
M  V30 5725 C 574.731 0.58946 -1.98325 0
M  V30 5726 C 575.146 1.62333 -0.96403 0
M  V30 5727 O 574.503 1.82438 0.0476395 0
M  V30 5728 C 574.554 1.24604 -3.39347 0
M  V30 5729 O 574.275 0.253532 -4.37366 0
M  V30 5730 C 575.776 2.00726 -3.95252 0
M  V30 5731 H 572.996 0.158783 -0.651942 0
M  V30 5732 H 575.54 -0.161584 -2.03861 0
M  V30 5733 H 573.695 1.94808 -3.34856 0
M  V30 5734 H 574.109 0.726207 -5.19448 0
M  V30 5735 H 575.583 2.42039 -4.96106 0
M  V30 5736 H 576.06 2.86919 -3.32527 0
M  V30 5737 H 576.666 1.3536 -4.03185 0
M  V30 5738 N 574.981 1.5647 0.188427 0
M  V30 5739 C 575.911 1.98101 1.23606 0
M  V30 5740 C 576.892 0.853961 1.47111 0
M  V30 5741 O 578.077 1.11879 1.58735 0
M  V30 5742 C 575.207 2.32624 2.57882 0
M  V30 5743 C 574.161 3.48129 2.48978 0
M  V30 5744 C 573.487 3.68347 3.87588 0
M  V30 5745 C 574.787 4.82112 2.00911 0
M  V30 5746 H 576.481 2.85864 0.890068 0
M  V30 5747 H 574.027 1.37532 0.426714 0
M  V30 5748 H 575.98 2.60343 3.3136 0
M  V30 5749 H 574.704 1.41751 2.94235 0
M  V30 5750 H 573.363 3.20511 1.77956 0
M  V30 5751 H 573.011 2.74793 4.21305 0
M  V30 5752 H 572.711 4.46055 3.82503 0
M  V30 5753 H 574.235 3.98449 4.62678 0
M  V30 5754 H 575.649 5.08819 2.64151 0
M  V30 5755 H 574.046 5.63337 2.06814 0
M  V30 5756 H 575.116 4.75249 0.96262 0
M  V30 5757 N 576.459 -0.456382 1.50847 0
M  V30 5758 C 577.389 -1.56025 1.73719 0
M  V30 5759 C 578.37 -1.5967 0.586473 0
M  V30 5760 O 579.555 -1.75702 0.827185 0
M  V30 5761 C 576.685 -2.94251 1.84483 0
M  V30 5762 C 575.639 -3.05471 2.99786 0
M  V30 5763 C 574.965 -4.45489 2.95709 0
M  V30 5764 C 576.265 -2.81318 4.40065 0
M  V30 5765 H 577.959 -1.37138 2.66146 0
M  V30 5766 H 575.505 -0.658299 1.28072 0
M  V30 5767 H 577.458 -3.71417 1.99067 0
M  V30 5768 H 576.182 -3.14328 0.886891 0
M  V30 5769 H 574.841 -2.30741 2.84876 0
M  V30 5770 H 574.489 -4.62505 1.97732 0
M  V30 5771 H 574.189 -4.53929 3.73125 0
M  V30 5772 H 575.713 -5.24655 3.12362 0
M  V30 5773 H 577.127 -3.48226 4.55425 0
M  V30 5774 H 575.524 -3.01188 5.19043 0
M  V30 5775 H 576.594 -1.7706 4.51418 0
M  V30 5776 N 577.937 -1.40673 -0.710563 0
M  V30 5777 C 578.885 -1.41517 -1.84596 0
M  V30 5778 C 579.879 -0.295043 -1.66811 0
M  V30 5779 O 581.085 -0.466331 -1.73854 0
M  V30 5780 H 577.46 -0.442467 -0.608052 0
M  V30 5781 H 579.431 -2.37238 -1.80999 0
M  V30 5782 C 578.18 -1.29957 -3.225 0
M  V30 5783 H 577.503 -2.15429 -3.36794 0
M  V30 5784 H 578.943 -1.34608 -4.02066 0
M  V30 5785 C 577.402 -0.0103164 -3.36898 0
M  V30 5786 O 577.932 0.950707 -3.90288 0
M  V30 5787 N 576.138 0.0608409 -2.90536 0
M  V30 5788 H 575.685 -0.721943 -2.47277 0
M  V30 5789 H 575.643 0.92292 -3.00549 0
M  V30 5790 N 579.415 0.9433 -1.26252 0
M  V30 5791 C 580.325 2.07532 -1.09397 0
M  V30 5792 C 581.341 1.73977 -0.0280449 0
M  V30 5793 O 582.517 2.00067 -0.231337 0
M  V30 5794 C 579.582 3.39002 -0.726523 0
M  V30 5795 C 578.643 3.86353 -1.87163 0
M  V30 5796 C 577.876 5.11549 -1.52162 0
M  V30 5797 O 578.099 5.68834 -0.422385 0
M  V30 5798 O 577.033 5.53889 -2.35565 0
M  V30 5799 H 580.859 2.24658 -2.04359 0
M  V30 5800 H 578.444 1.05988 -1.05295 0
M  V30 5801 H 580.326 4.18 -0.534236 0
M  V30 5802 H 579.001 3.2312 0.193721 0
M  V30 5803 H 577.908 3.0831 -2.11886 0
M  V30 5804 H 579.241 4.06752 -2.77152 0
M  V30 5805 N 580.893 1.08022 1.14757 0
M  V30 5806 C 581.823 0.728248 2.21853 0
M  V30 5807 C 582.804 -0.287486 1.67653 0
M  V30 5808 O 583.989 -0.158727 1.9355 0
M  V30 5809 C 581.119 0.132549 3.47047 0
M  V30 5810 C 580.073 1.07619 4.14249 0
M  V30 5811 C 579.399 0.342907 5.33599 0
M  V30 5812 C 580.699 2.41268 4.63235 0
M  V30 5813 H 582.393 1.62365 2.51551 0
M  V30 5814 H 579.939 0.782125 1.20908 0
M  V30 5815 H 581.892 -0.125665 4.21213 0
M  V30 5816 H 580.616 -0.797971 3.16702 0
M  V30 5817 H 579.275 1.31944 3.42033 0
M  V30 5818 H 578.923 -0.59129 4.99513 0
M  V30 5819 H 578.623 0.971955 5.79506 0
M  V30 5820 H 580.147 0.0926538 6.1053 0
M  V30 5821 H 581.561 2.21232 5.28894 0
M  V30 5822 H 579.958 2.9983 5.19829 0
M  V30 5823 H 581.028 3.03079 3.78512 0
M  V30 5824 N 582.371 -1.3172 0.865308 0
M  V30 5825 C 583.318 -2.2863 0.315736 0
M  V30 5826 C 584.288 -1.55524 -0.583213 0
M  V30 5827 O 585.473 -1.83694 -0.51585 0
M  V30 5828 C 582.613 -3.41735 -0.480773 0
M  V30 5829 C 581.726 -4.297 0.445167 0
M  V30 5830 C 580.861 -5.29944 -0.365012 0
M  V30 5831 C 579.9 -6.09554 0.557651 0
M  V30 5832 N 579.037 -7.01768 -0.215994 0
M  V30 5833 H 583.877 -2.75026 1.14736 0
M  V30 5834 H 581.414 -1.35302 0.577209 0
M  V30 5835 H 583.372 -4.06045 -0.958306 0
M  V30 5836 H 582.002 -2.96461 -1.27714 0
M  V30 5837 H 581.054 -3.65875 1.04113 0
M  V30 5838 H 582.366 -4.85295 1.15284 0
M  V30 5839 H 581.52 -5.99908 -0.905255 0
M  V30 5840 H 580.259 -4.74994 -1.106 0
M  V30 5841 H 579.264 -5.38485 1.10969 0
M  V30 5842 H 580.489 -6.66591 1.29742 0
M  V30 5843 H 578.435 -6.49232 -0.939878 0
M  V30 5844 H 578.352 -7.54762 0.432431 0
M  V30 5845 H 579.62 -7.76002 -0.737618 0
M  V30 5846 N 583.85 -0.624285 -1.44708 0
M  V30 5847 C 585.266 -0.289322 -1.56956 0
M  V30 5848 C 585.466 1.20773 -1.61295 0
M  V30 5849 O 584.522 1.9915 -1.55227 0
M  V30 5850 C 585.835 -0.975215 -2.84447 0
M  V30 5851 C 587.383 -0.952709 -2.98148 0
M  V30 5852 C 587.858 -1.61893 -4.28433 0
M  V30 5853 N 589.349 -1.5852 -4.35231 0
M  V30 5854 C 590.084 -2.06969 -5.34744 0
M  V30 5855 N 589.58 -2.63579 -6.40701 0
M  V30 5856 N 591.373 -1.97638 -5.26209 0
M  V30 5857 H 583.524 -1.59612 -1.40135 0
M  V30 5858 H 585.787 -0.669592 -0.671081 0
M  V30 5859 H 585.493 -2.02999 -2.87201 0
M  V30 5860 H 585.367 -0.508749 -3.73753 0
M  V30 5861 H 587.754 0.093568 -2.94952 0
M  V30 5862 H 587.835 -1.4576 -2.10209 0
M  V30 5863 H 587.479 -2.66463 -4.32389 0
M  V30 5864 H 587.409 -1.08893 -5.15218 0
M  V30 5865 H 589.899 -1.17183 -3.59272 0
M  V30 5866 H 590.213 -2.98298 -7.12908 0
M  V30 5867 H 588.558 -2.67626 -6.41406 0
M  V30 5868 H 591.749 -1.5314 -4.42341 0
M  V30 5869 H 591.922 -2.35708 -6.03611 0
M  V30 5870 N 585.328 1.53329 -0.364422 0
M  V30 5871 C 586.744 1.59594 -0.0133165 0
M  V30 5872 C 586.944 1.37959 1.46865 0
M  V30 5873 O 586 1.18418 2.2301 0
M  V30 5874 C 587.313 2.97032 -0.468213 0
M  V30 5875 C 588.861 3.10138 -0.422334 0
M  V30 5876 C 589.336 4.49986 -0.853024 0
M  V30 5877 N 590.827 4.56098 -0.808037 0
M  V30 5878 C 591.562 5.62495 -1.11299 0
M  V30 5879 N 591.058 6.7665 -1.48717 0
M  V30 5880 N 592.851 5.52473 -1.03586 0
M  V30 5881 H 585.002 1.65644 -1.32951 0
M  V30 5882 H 587.265 0.77684 -0.543345 0
M  V30 5883 H 586.971 3.18 -1.5023 0
M  V30 5884 H 586.845 3.76918 0.145775 0
M  V30 5885 H 589.232 2.88881 0.602622 0
M  V30 5886 H 589.313 2.32263 -1.0718 0
M  V30 5887 H 588.957 4.7198 -1.87609 0
M  V30 5888 H 588.887 5.26289 -0.180819 0
M  V30 5889 H 591.378 3.74131 -0.532361 0
M  V30 5890 H 591.691 7.53776 -1.70415 0
M  V30 5891 H 590.036 6.78044 -1.52581 0
M  V30 5892 H 593.227 4.6217 -0.742736 0
M  V30 5893 H 593.4 6.35295 -1.27686 0
M  V30 5894 N 586.806 0.0935595 1.57322 0
M  V30 5895 C 588.054 -0.569383 1.93913 0
M  V30 5896 C 588.375 -1.68817 0.976009 0
M  V30 5897 O 587.645 -1.9588 0.0278099 0
M  V30 5898 H 586.225 -0.21332 0.715894 0
M  V30 5899 H 588.887 0.156531 1.9427 0
M  V30 5900 H 587.983 -0.980577 2.96296 0
M  V30 5901 N 588.284 -1.56567 -0.180126 0
M  V30 5902 C 589.231 -1.95725 -1.22313 0
M  V30 5903 C 590.201 -0.819911 -1.44453 0
M  V30 5904 O 591.386 -1.07931 -1.57339 0
M  V30 5905 C 588.526 -2.31484 -2.55947 0
M  V30 5906 C 587.639 -3.58354 -2.4126 0
M  V30 5907 C 586.774 -3.83366 -3.67701 0
M  V30 5908 C 585.813 -5.03612 -3.47909 0
M  V30 5909 N 584.95 -5.24802 -4.66398 0
M  V30 5910 H 589.79 -2.84642 -0.882198 0
M  V30 5911 H 587.327 -1.4085 -0.42422 0
M  V30 5912 H 589.285 -2.50237 -3.33822 0
M  V30 5913 H 587.915 -1.45689 -2.88053 0
M  V30 5914 H 586.967 -3.47565 -1.54606 0
M  V30 5915 H 588.279 -4.46386 -2.22577 0
M  V30 5916 H 587.433 -4.02439 -4.54013 0
M  V30 5917 H 586.172 -2.93692 -3.89353 0
M  V30 5918 H 585.177 -4.84447 -2.59983 0
M  V30 5919 H 586.402 -5.94809 -3.27688 0
M  V30 5920 H 584.348 -4.38079 -4.88286 0
M  V30 5921 H 584.265 -6.07041 -4.50596 0
M  V30 5922 H 585.533 -5.48346 -5.54019 0
M  V30 5923 N 589.762 0.448376 -1.51087 0
M  V30 5924 C 591.178 0.783984 -1.39017 0
M  V30 5925 C 591.378 1.96087 -0.463904 0
M  V30 5926 O 590.434 2.52357 0.0850534 0
M  V30 5927 C 591.747 1.07471 -2.80839 0
M  V30 5928 C 593.295 1.17981 -2.89913 0
M  V30 5929 C 593.77 1.50354 -4.32617 0
M  V30 5930 N 595.261 1.57301 -4.35673 0
M  V30 5931 C 595.996 1.839 -5.4311 0
M  V30 5932 N 595.492 2.08365 -6.60724 0
M  V30 5933 N 597.285 1.8559 -5.30578 0
M  V30 5934 H 589.436 -0.326881 -2.0987 0
M  V30 5935 H 591.699 -0.0838006 -0.944289 0
M  V30 5936 H 591.405 0.282768 -3.50561 0
M  V30 5937 H 591.279 2.00519 -3.19487 0
M  V30 5938 H 593.666 1.9624 -2.20395 0
M  V30 5939 H 593.747 0.228603 -2.54776 0
M  V30 5940 H 593.391 0.726273 -5.0268 0
M  V30 5941 H 593.321 2.46663 -4.65258 0
M  V30 5942 H 595.812 1.40342 -3.50874 0
M  V30 5943 H 596.125 2.27999 -7.38401 0
M  V30 5944 H 594.47 2.0571 -6.63859 0
M  V30 5945 H 597.661 1.65989 -4.37682 0
M  V30 5946 H 597.834 2.05983 -6.1439 0
M  V30 5947 N 591.24 1.41047 0.703093 0
M  V30 5948 C 592.203 1.42036 1.79884 0
M  V30 5949 C 593.203 0.312153 1.57741 0
M  V30 5950 O 594.393 0.571672 1.64553 0
M  V30 5951 C 591.525 1.22437 3.18154 0
M  V30 5952 H 592.718 2.39572 1.80403 0
M  V30 5953 H 590.271 1.27079 0.909977 0
M  V30 5954 H 591.006 0.257112 3.23279 0
M  V30 5955 H 590.791 2.02723 3.35627 0
M  V30 5956 H 592.281 1.25946 3.98155 0
M  V30 5957 N 592.718 -0.936591 1.26751 0
M  V30 5958 C 593.948 -1.71509 1.15188 0
M  V30 5959 C 594.356 -1.86885 -0.295037 0
M  V30 5960 O 593.699 -1.37915 -1.21347 0
M  V30 5961 C 593.761 -3.13853 1.75318 0
M  V30 5962 C 593.425 -3.21845 3.24445 0
M  V30 5963 C 594.422 -3.04771 4.21201 0
M  V30 5964 C 592.107 -3.45088 3.64992 0
M  V30 5965 C 594.101 -3.10816 5.56482 0
M  V30 5966 C 591.788 -3.50767 5.00405 0
M  V30 5967 C 592.786 -3.33648 5.9596 0
M  V30 5968 O 592.474 -3.39045 7.28906 0
M  V30 5969 H 592.206 -0.543658 0.401761 0
M  V30 5970 H 594.76 -1.18234 1.67958 0
M  V30 5971 H 592.99 -3.6857 1.17016 0
M  V30 5972 H 594.679 -3.73634 1.58596 0
M  V30 5973 H 595.445 -2.86665 3.91214 0
M  V30 5974 H 591.324 -3.57467 2.91098 0
M  V30 5975 H 594.868 -2.97372 6.31043 0
M  V30 5976 H 590.765 -3.68396 5.30052 0
M  V30 5977 H 591.533 -3.55558 7.37238 0
M  V30 5978 N 594.196 -1.08629 -1.14182 0
M  V30 5979 C 595.444 -0.815731 -1.84906 0
M  V30 5980 C 595.765 0.660441 -1.83475 0
M  V30 5981 O 595.035 1.47888 -1.28476 0
M  V30 5982 H 593.615 -0.298773 -0.684648 0
M  V30 5983 H 596.277 -1.37274 -1.38354 0
M  V30 5984 H 595.373 -1.16193 -2.89665 0
M  V30 5985 N 595.674 1.31259 -0.872281 0
M  V30 5986 C 596.92 1.96913 -0.485083 0
M  V30 5987 C 597.253 1.68774 0.960667 0
M  V30 5988 O 596.528 0.985495 1.67685 0
M  V30 5989 C 596.811 3.52299 -0.745502 0
M  V30 5990 C 596.664 3.90002 -2.24095 0
M  V30 5991 C 597.983 4.39582 -0.213516 0
M  V30 5992 H 595.102 0.715252 -0.177716 0
M  V30 5993 H 597.744 1.55347 -1.09395 0
M  V30 5994 H 595.894 3.87835 -0.227276 0
M  V30 5995 H 597.566 3.64555 -2.82661 0
M  V30 5996 H 595.809 3.38526 -2.71261 0
M  V30 5997 H 596.48 4.98352 -2.37381 0
M  V30 5998 H 598.956 4.10882 -0.656902 0
M  V30 5999 H 597.832 5.47251 -0.42516 0
M  V30 6000 H 598.093 4.33158 0.884666 0
M  V30 6001 N 597.152 0.631951 1.44375 0
M  V30 6002 C 598.398 0.13697 2.02337 0
M  V30 6003 C 598.731 -1.23826 1.49602 0
M  V30 6004 O 598.006 -1.8221 0.680415 0
M  V30 6005 C 598.289 0.124536 3.59885 0
M  V30 6006 C 598.142 1.53217 4.229 0
M  V30 6007 C 599.461 -0.550481 4.36644 0
M  V30 6008 H 596.58 0.051247 0.735216 0
M  V30 6009 H 599.222 0.808581 1.71936 0
M  V30 6010 H 597.372 -0.44737 3.85916 0
M  V30 6011 H 599.044 2.15303 4.07973 0
M  V30 6012 H 597.287 2.0858 3.80364 0
M  V30 6013 H 597.958 1.4755 5.31914 0
M  V30 6014 H 600.434 -0.0641154 4.16051 0
M  V30 6015 H 599.31 -0.528371 5.46351 0
M  V30 6016 H 599.571 -1.62097 4.11311 0
M  V30 6017 N 598.631 -1.53133 0.372548 0
M  V30 6018 C 599.856 -2.0625 -0.218098 0
M  V30 6019 C 600.281 -1.24375 -1.41111 0
M  V30 6020 O 599.639 -0.264554 -1.79359 0
M  V30 6021 C 599.687 -3.55858 -0.582876 0
M  V30 6022 O 598.791 -3.76667 -1.67917 0
M  V30 6023 H 598.132 -0.663317 -0.030104 0
M  V30 6024 H 600.662 -1.97477 0.535169 0
M  V30 6025 H 600.672 -3.99007 -0.851925 0
M  V30 6026 H 599.347 -4.14892 0.289428 0
M  V30 6027 H 597.924 -3.45413 -1.40513 0
M  V30 6028 N 600.109 -0.101901 -1.5727 0
M  V30 6029 C 601.042 0.891377 -2.10071 0
M  V30 6030 C 602.02 1.27197 -1.01291 0
M  V30 6031 O 603.204 1.37602 -1.28833 0
M  V30 6032 C 600.331 2.19049 -2.58331 0
M  V30 6033 C 599.377 1.95925 -3.78834 0
M  V30 6034 S 600.21 1.19106 -5.22086 0
M  V30 6035 C 601.366 2.50234 -5.73702 0
M  V30 6036 H 601.599 0.442212 -2.93993 0
M  V30 6037 H 599.132 0.111529 -1.53997 0
M  V30 6038 H 601.09 2.937 -2.86793 0
M  V30 6039 H 599.751 2.61086 -1.74622 0
M  V30 6040 H 598.944 2.92143 -4.10693 0
M  V30 6041 H 598.546 1.29401 -3.50901 0
M  V30 6042 H 600.838 3.46173 -5.82384 0
M  V30 6043 H 601.781 2.22944 -6.72088 0
M  V30 6044 H 602.189 2.58818 -5.01671 0
M  V30 6045 N 601.587 1.56661 0.17182 0
M  V30 6046 C 602.827 1.83762 0.895029 0
M  V30 6047 C 603.191 0.682752 1.79451 0
M  V30 6048 O 604.392 0.834208 2.55528 0
M  V30 6049 C 602.663 3.15976 1.67015 0
M  V30 6050 S 604.222 3.64558 2.44219 0
M  V30 6051 H 601.04 0.644713 0.299778 0
M  V30 6052 H 603.642 1.94871 0.156701 0
M  V30 6053 H 602.346 3.98021 1.00039 0
M  V30 6054 H 601.877 3.07807 2.44986 0
M  V30 6055 H 603.892 3.31845 3.68909 0
M  V30 6056 N 603.065 -0.440357 1.51323 0
M  V30 6057 C 604.314 -1.18697 1.63076 0
M  V30 6058 C 604.627 -1.92418 0.35136 0
M  V30 6059 O 605.833 -2.69258 0.348221 0
M  V30 6060 C 604.289 -2.15849 2.87988 0
M  V30 6061 C 603.897 -1.47789 4.22921 0
M  V30 6062 C 605.641 -2.90962 3.09098 0
M  V30 6063 C 603.548 -2.43407 5.38987 0
M  V30 6064 H 602.478 -0.44676 0.607389 0
M  V30 6065 H 605.129 -0.454313 1.77787 0
M  V30 6066 H 603.511 -2.92537 2.66905 0
M  V30 6067 H 604.685 -0.7668 4.54375 0
M  V30 6068 H 603 -0.848404 4.07665 0
M  V30 6069 H 605.597 -3.62584 3.92985 0
M  V30 6070 H 605.94 -3.52133 2.22053 0
M  V30 6071 H 606.473 -2.21381 3.30507 0
M  V30 6072 H 603.212 -1.86929 6.28282 0
M  V30 6073 H 602.732 -3.12579 5.11913 0
M  V30 6074 H 604.411 -3.046 5.70813 0
M  V30 6075 N 604.543 -1.41418 -0.695603 0
M  V30 6076 C 605.791 -1.40496 -1.45277 0
M  V30 6077 C 606.112 -0.0149538 -1.94994 0
M  V30 6078 O 605.382 0.9432 -1.71699 0
M  V30 6079 H 603.962 -0.517147 -0.539044 0
M  V30 6080 H 606.624 -1.76656 -0.823321 0
M  V30 6081 H 605.72 -2.09214 -2.31595 0
M  V30 6082 N 606.021 0.929856 -1.27246 0
M  V30 6083 C 607.249 1.71144 -1.16265 0
M  V30 6084 C 607.664 1.867 0.280786 0
M  V30 6085 O 607.021 1.38249 1.19136 0
M  V30 6086 C 607.072 3.11222 -1.83911 0
M  V30 6087 O 606.793 2.96398 -3.22614 0
M  V30 6088 C 608.294 4.05541 -1.79028 0
M  V30 6089 H 605.514 0.535499 -0.404328 0
M  V30 6090 H 608.058 1.16492 -1.68077 0
M  V30 6091 H 606.213 3.6274 -1.36009 0
M  V30 6092 H 606.627 3.8494 -3.56261 0
M  V30 6093 H 608.101 5.01351 -2.30978 0
M  V30 6094 H 608.578 4.32589 -0.759168 0
M  V30 6095 H 609.184 3.59947 -2.26535 0
M  V30 6096 N 607.499 1.09233 1.13605 0
M  V30 6097 C 608.747 0.825525 1.84471 0
M  V30 6098 C 609.068 -0.650702 1.83823 0
M  V30 6099 O 608.338 -1.47204 1.29259 0
M  V30 6100 H 606.918 0.3024 0.683054 0
M  V30 6101 H 609.58 1.38006 1.37624 0
M  V30 6102 H 608.676 1.17727 2.89045 0
M  V30 6103 N 608.977 -1.30795 0.87923 0
M  V30 6104 C 609.91 -2.26396 0.286404 0
M  V30 6105 C 610.888 -1.51528 -0.589748 0
M  V30 6106 O 612.072 -1.80566 -0.541119 0
M  V30 6107 C 609.199 -3.33458 -0.593581 0
M  V30 6108 C 608.245 -4.2597 0.21247 0
M  V30 6109 S 609.078 -5.11132 1.59702 0
M  V30 6110 C 610.234 -6.21705 0.723408 0
M  V30 6111 H 610.467 -2.7633 1.09677 0
M  V30 6112 H 608 -1.38703 0.678305 0
M  V30 6113 H 609.958 -3.9561 -1.09557 0
M  V30 6114 H 608.619 -2.82259 -1.37799 0
M  V30 6115 H 607.812 -5.01907 -0.458822 0
M  V30 6116 H 607.414 -3.68363 0.646883 0
M  V30 6117 H 609.706 -6.77472 -0.0620739 0
M  V30 6118 H 610.649 -6.93007 1.4542 0
M  V30 6119 H 611.057 -5.63771 0.286855 0
M  V30 6120 N 610.455 -0.639598 -1.44038 0
M  V30 6121 C 611.703 -0.147188 -2.01563 0
M  V30 6122 C 612.024 1.2384 -1.50628 0
M  V30 6123 O 611.294 1.82452 -0.713316 0
M  V30 6124 H 609.874 -0.0514231 -0.745228 0
M  V30 6125 H 612.536 -0.828205 -1.76428 0
M  V30 6126 H 611.632 -0.121358 -3.11864 0
M  V30 6127 N 611.933 1.52934 -0.380664 0
M  V30 6128 C 612.896 2.24809 0.446473 0
M  V30 6129 C 613.896 1.26133 0.997347 0
M  V30 6130 O 615.086 1.50297 0.880714 0
M  V30 6131 C 612.218 2.99649 1.62553 0
M  V30 6132 H 613.411 2.99343 -0.182677 0
M  V30 6133 H 610.964 1.55736 -0.132618 0
M  V30 6134 H 611.699 2.29395 2.29235 0
M  V30 6135 H 611.484 3.72066 1.23732 0
M  V30 6136 H 612.974 3.54246 2.21133 0
M  V30 6137 N 613.412 0.11024 1.57214 0
M  V30 6138 C 614.375 -0.828808 2.1369 0
M  V30 6139 C 615.375 -1.20059 1.06969 0
M  V30 6140 O 616.565 -1.12754 1.32786 0
M  V30 6141 C 613.697 -2.11959 2.66994 0
M  V30 6142 H 614.89 -0.338146 2.97988 0
M  V30 6143 H 612.443 -0.138913 1.55681 0
M  V30 6144 H 613.178 -2.65476 1.8626 0
M  V30 6145 H 612.963 -1.86258 3.45037 0
M  V30 6146 H 614.453 -2.79105 3.10629 0
M  V30 6147 N 614.89 -1.56749 -0.16351 0
M  V30 6148 C 615.853 -1.96121 -1.18613 0
M  V30 6149 C 616.853 -0.845765 -1.36761 0
M  V30 6150 O 618.043 -1.11268 -1.34033 0
M  V30 6151 C 615.175 -2.26282 -2.54969 0
M  V30 6152 H 616.368 -2.87639 -0.848764 0
M  V30 6153 H 613.921 -1.50928 -0.406251 0
M  V30 6154 H 614.656 -1.37504 -2.93706 0
M  V30 6155 H 614.441 -3.07595 -2.43162 0
M  V30 6156 H 615.931 -2.57638 -3.28653 0
M  V30 6157 N 616.368 0.432326 -1.51554 0
M  V30 6158 C 617.614 1.18309 -1.64714 0
M  V30 6159 C 617.947 1.90745 -0.364696 0
M  V30 6160 O 617.222 1.8381 0.635936 0
M  V30 6161 C 617.505 2.1961 -2.85383 0
M  V30 6162 C 617.358 1.51223 -4.23617 0
M  V30 6163 C 618.677 3.20538 -3.01569 0
M  V30 6164 H 615.796 0.428751 -0.599451 0
M  V30 6165 H 618.438 0.471689 -1.84052 0
M  V30 6166 H 616.588 2.8028 -2.69027 0
M  V30 6167 H 618.26 0.938516 -4.51652 0
M  V30 6168 H 616.503 0.814501 -4.26085 0
M  V30 6169 H 617.174 2.25024 -5.04052 0
M  V30 6170 H 619.65 2.69926 -3.16669 0
M  V30 6171 H 618.526 3.88706 -3.87555 0
M  V30 6172 H 618.787 3.86933 -2.13859 0
M  V30 6173 N 617.846 1.41785 0.688094 0
M  V30 6174 C 619.093 1.41544 1.44816 0
M  V30 6175 C 619.421 0.0271746 1.94481 0
M  V30 6176 O 618.676 -0.962235 1.7041 0
M  V30 6177 C 618.975 2.37532 2.67046 0
M  V30 6178 C 618.641 3.84209 2.35996 0
M  V30 6179 C 617.303 4.24165 2.27239 0
M  V30 6180 C 619.655 4.76785 2.10536 0
M  V30 6181 C 616.983 5.54695 1.91128 0
M  V30 6182 C 619.335 6.07644 1.75931 0
M  V30 6183 C 617.999 6.46613 1.65675 0
M  V30 6184 H 617.269 0.517945 0.529919 0
M  V30 6185 H 619.916 1.74635 0.785797 0
M  V30 6186 H 618.221 1.9772 3.38251 0
M  V30 6187 H 619.918 2.34615 3.25203 0
M  V30 6188 H 616.508 3.52567 2.4371 0
M  V30 6189 H 620.692 4.46714 2.16242 0
M  V30 6190 H 615.948 5.83762 1.81746 0
M  V30 6191 H 620.122 6.78874 1.55252 0
M  V30 6192 H 617.749 7.47668 1.37463 0
M  V30 6193 N 619.324 -0.923095 1.27737 0
M  V30 6194 C 620.234 -2.05765 1.12685 0
M  V30 6195 C 621.25 -1.73911 0.0557197 0
M  V30 6196 O 622.426 -1.99674 0.263137 0
M  V30 6197 C 619.491 -3.37804 0.780363 0
M  V30 6198 C 618.552 -3.83326 1.93286 0
M  V30 6199 C 617.785 -5.09064 1.60281 0
M  V30 6200 O 618.008 -5.6809 0.512828 0
M  V30 6201 O 616.942 -5.50071 2.44347 0
M  V30 6202 H 620.768 -2.21378 2.07907 0
M  V30 6203 H 618.353 -1.04299 1.06968 0
M  V30 6204 H 620.235 -4.17097 0.600668 0
M  V30 6205 H 618.91 -3.23387 -0.142291 0
M  V30 6206 H 617.817 -3.049 2.16764 0
M  V30 6207 H 619.15 -4.02292 2.83588 0
M  V30 6208 N 620.802 -1.09834 -1.13024 0
M  V30 6209 C 622.032 -0.857657 -1.87957 0
M  V30 6210 C 622.44 0.595008 -1.796 0
M  V30 6211 O 621.783 1.42158 -1.16347 0
M  V30 6212 C 621.845 -1.21949 -3.38185 0
M  V30 6213 C 621.509 -2.67791 -3.7032 0
M  V30 6214 C 622.506 -3.66036 -3.69207 0
M  V30 6215 C 620.191 -3.04019 -3.99847 0
M  V30 6216 C 622.185 -4.98533 -3.9717 0
M  V30 6217 C 619.872 -4.36706 -4.27471 0
M  V30 6218 C 620.87 -5.33772 -4.26118 0
M  V30 6219 O 620.558 -6.64072 -4.53061 0
M  V30 6220 H 620.29 -0.308009 -0.601753 0
M  V30 6221 H 622.844 -1.46496 -1.43973 0
M  V30 6222 H 621.074 -0.555249 -3.82693 0
M  V30 6223 H 622.763 -0.957281 -3.9445 0
M  V30 6224 H 623.529 -3.39392 -3.46465 0
M  V30 6225 H 619.408 -2.29096 -4.00045 0
M  V30 6226 H 622.952 -5.74288 -3.96029 0
M  V30 6227 H 618.849 -4.63091 -4.49685 0
M  V30 6228 H 619.617 -6.69608 -4.7071 0
M  V30 6229 N 622.28 1.30327 -0.886154 0
M  V30 6230 C 623.691 1.78243 -0.555554 0
M  V30 6231 C 624.042 1.72849 0.928314 0
M  V30 6232 O 623.167 1.30607 1.72542 0
M  V30 6233 C 623.762 3.23654 -1.00168 0
M  V30 6234 C 622.321 3.69401 -0.722471 0
M  V30 6235 C 621.468 2.50753 -1.18399 0
M  V30 6236 H 624.419 1.1718 -1.07026 0
M  V30 6237 H 624.44 3.79056 -0.331152 0
M  V30 6238 H 623.952 3.27548 -2.08169 0
M  V30 6239 H 622.053 3.70995 0.345496 0
M  V30 6240 H 622.166 4.60818 -1.31085 0
M  V30 6241 H 620.53 2.47452 -0.603303 0
M  V30 6242 H 621.313 2.57383 -2.27176 0
M  V30 6243 N 623.758 0.647228 1.43697 0
M  V30 6244 C 625.006 0.157876 2.01482 0
M  V30 6245 C 625.327 -1.23039 1.51282 0
M  V30 6246 O 624.597 -1.82071 0.722982 0
M  V30 6247 H 623.177 0.0553745 0.744945 0
M  V30 6248 H 625.839 0.83755 1.75986 0
M  V30 6249 H 624.935 0.137895 3.11795 0
M  V30 6250 N 625.236 -1.5273 0.388769 0
M  V30 6251 C 626.184 -2.27975 -0.461527 0
M  V30 6252 C 627.178 -1.31854 -1.06352 0
M  V30 6253 O 628.384 -1.49394 -1.00406 0
M  V30 6254 H 624.759 -0.733088 -0.16759 0
M  V30 6255 H 626.73 -2.97765 0.194579 0
M  V30 6256 C 625.479 -3.09881 -1.577 0
M  V30 6257 H 624.802 -3.83701 -1.12309 0
M  V30 6258 H 626.242 -3.6567 -2.14619 0
M  V30 6259 C 624.701 -2.22159 -2.53272 0
M  V30 6260 O 625.231 -1.84802 -3.56667 0
M  V30 6261 N 623.437 -1.8633 -2.23001 0
M  V30 6262 H 622.984 -2.16909 -1.38954 0
M  V30 6263 H 622.942 -1.27927 -2.87197 0
M  V30 6264 O 626.753 -0.258973 -1.5941 0
M  V30 6265 H 627.444 0.314239 -1.91134 0
M  V30 END ATOM
M  V30 BEGIN BOND
M  V30 END BOND
M  V30 END CTAB
M  END
$$$$
