drugbank_target|P09142 Non-fluorescent flavoprotein (DB08231)
 OpenBabel12092120493D

  0  0  0     0  0            999 V3000
M  V30 BEGIN CTAB
M  V30 COUNTS 3648 3688 0 0 0
M  V30 BEGIN ATOM
M  V30 1 H -0.908 1.98254 -0.117106 0
M  V30 2 N 0 1.576 0 0
M  V30 3 C 0.933 2.03868 1.02534 0
M  V30 4 C 1.911 0.928543 1.3348 0
M  V30 5 O 3.095 1.19667 1.45644 0
M  V30 6 C 0.222 2.43627 2.35294 0
M  V30 7 C -0.732 3.65373 2.2001 0
M  V30 8 S 0.101 5.13292 1.52614 0
M  V30 9 C 1.257 5.56322 2.86805 0
M  V30 10 H 1.49 2.90518 0.631377 0
M  V30 11 H -0.977 1.52953 0.210867 0
M  V30 12 H 0.981 2.67203 3.11629 0
M  V30 13 H -0.358 1.57376 2.7183 0
M  V30 14 H -1.165 3.90944 3.18086 0
M  V30 15 H -1.563 3.418 1.51819 0
M  V30 16 H 0.729 5.58782 3.83104 0
M  V30 17 H 1.672 6.56266 2.65933 0
M  V30 18 H 2.08 4.83886 2.90714 0
M  V30 19 N 1.4781 -0.272755 1.55222 0
M  V30 20 C 2.7061 -1.02255 1.79865 0
M  V30 21 C 3.1211 -1.79924 0.572088 0
M  V30 22 O 2.4781 -1.76638 -0.458842 0
M  V30 23 C 2.5291 -1.98094 3.02392 0
M  V30 24 O 2.2501 -1.23572 4.20311 0
M  V30 25 C 3.7511 -2.84884 3.39641 0
M  V30 26 H 0.9711 -0.302057 0.599168 0
M  V30 27 H 3.5151 -0.303465 2.02236 0
M  V30 28 H 1.6701 -2.65465 2.82147 0
M  V30 29 H 2.0841 -1.88172 4.89583 0
M  V30 30 H 3.5581 -3.47927 4.28545 0
M  V30 31 H 4.0351 -3.54665 2.59055 0
M  V30 32 H 4.6411 -2.23003 3.62146 0
M  V30 33 N 2.9562 -1.48159 -0.537278 0
M  V30 34 C 3.9032 -1.62138 -1.64256 0
M  V30 35 C 4.8732 -0.463668 -1.59497 0
M  V30 36 O 6.0582 -0.686241 -1.78032 0
M  V30 37 C 3.1982 -1.66028 -3.02537 0
M  V30 38 C 2.3112 -2.92855 -3.17585 0
M  V30 39 C 1.4462 -2.87952 -4.46382 0
M  V30 40 C 0.4852 -4.09516 -4.54932 0
M  V30 41 N -0.3778 -4.02733 -5.75109 0
M  V30 42 H 4.4622 -2.56529 -1.51647 0
M  V30 43 H 1.9992 -1.27224 -0.738414 0
M  V30 44 H 3.9572 -1.66265 -3.82638 0
M  V30 45 H 2.5872 -0.751331 -3.13934 0
M  V30 46 H 1.6392 -3.02395 -2.30784 0
M  V30 47 H 2.9512 -3.82822 -3.19764 0
M  V30 48 H 2.1052 -2.8655 -5.34765 0
M  V30 49 H 0.8442 -1.95702 -4.46712 0
M  V30 50 H -0.1508 -4.11201 -3.64957 0
M  V30 51 H 1.0742 -5.02917 -4.56346 0
M  V30 52 H -0.9798 -3.13299 -5.76351 0
M  V30 53 H -1.0628 -4.86397 -5.78752 0
M  V30 54 H 0.2052 -4.05379 -6.65799 0
M  V30 55 N 4.4343 0.785586 -1.36625 0
M  V30 56 C 5.6803 1.5452 -1.32269 0
M  V30 57 C 6.0353 1.92159 0.0962266 0
M  V30 58 O 5.3283 1.60158 1.05167 0
M  V30 59 C 5.5223 2.83007 -2.1827 0
M  V30 60 C 5.3513 2.57925 -3.68382 0
M  V30 61 C 4.1213 2.52752 -4.37544 0
M  V30 62 C 6.3193 2.26861 -4.61561 0
M  V30 63 N 4.3013 2.19608 -5.73276 0
M  V30 64 C 5.6723 2.03738 -5.85569 0
M  V30 65 C 7.7273 2.129 -4.50087 0
M  V30 66 C 6.4303 1.68065 -6.9939 0
M  V30 67 C 8.4563 1.78626 -5.63779 0
M  V30 68 C 7.8183 1.56353 -6.86828 0
M  V30 69 H 3.9173 0.566301 -0.539283 0
M  V30 70 H 6.5013 0.917736 -1.71714 0
M  V30 71 H 4.6723 3.43614 -1.81063 0
M  V30 72 H 6.4043 3.48775 -2.05275 0
M  V30 73 H 3.1593 2.6813 -3.90389 0
M  V30 74 H 3.5833 2.05771 -6.44971 0
M  V30 75 H 8.2253 2.28808 -3.55537 0
M  V30 76 H 5.9433 1.50895 -7.93887 0
M  V30 77 H 9.5293 1.68502 -5.56865 0
M  V30 78 H 8.4093 1.30223 -7.73312 0
M  V30 79 N 5.9124 1.20967 1.01018 0
M  V30 80 C 6.8604 0.961223 2.1181 0
M  V30 81 C 7.8544 -0.0897034 1.69162 0
M  V30 82 O 9.0604 0.0612271 1.79896 0
M  V30 83 H 5.4354 0.29355 0.692338 0
M  V30 84 H 7.4064 1.90178 2.29946 0
M  V30 85 C 6.1554 0.536854 3.4353 0
M  V30 86 H 5.4784 1.33713 3.76777 0
M  V30 87 H 6.9184 0.402286 4.22087 0
M  V30 88 C 5.3774 -0.751574 3.2841 0
M  V30 89 O 5.9074 -1.80841 3.58691 0
M  V30 90 N 4.1134 -0.716079 2.81639 0
M  V30 91 H 3.6604 0.144236 2.57196 0
M  V30 92 H 3.6184 -1.57847 2.71904 0
M  V30 93 N 7.3905 -1.2043 1.01659 0
M  V30 94 C 8.6205 -1.93496 0.724081 0
M  V30 95 C 9.0285 -1.74998 -0.71918 0
M  V30 96 O 8.3715 -1.06118 -1.49949 0
M  V30 97 C 8.4335 -3.45886 0.97994 0
M  V30 98 C 8.0975 -3.88145 2.41232 0
M  V30 99 C 9.0945 -3.93907 3.39313 0
M  V30 100 C 6.7795 -4.20134 2.75305 0
M  V30 101 C 8.7735 -4.31069 4.6953 0
M  V30 102 C 6.4605 -4.56971 4.05735 0
M  V30 103 C 7.4585 -4.62411 5.02658 0
M  V30 104 O 7.1465 -4.98403 6.30754 0
M  V30 105 H 6.8785 -0.621824 0.265162 0
M  V30 106 H 9.4325 -1.53867 1.36066 0
M  V30 107 H 7.6625 -3.85639 0.286198 0
M  V30 108 H 9.3515 -4.0018 0.679021 0
M  V30 109 H 10.1175 -3.69357 3.14325 0
M  V30 110 H 5.9965 -4.1509 2.00551 0
M  V30 111 H 9.5405 -4.3523 5.45179 0
M  V30 112 H 5.4375 -4.80977 4.30502 0
M  V30 113 H 6.2055 -5.16395 6.35042 0
M  V30 114 N 8.8686 -0.792821 -1.36206 0
M  V30 115 C 10.1166 -0.366062 -1.98757 0
M  V30 116 C 10.4376 1.0668 -1.63231 0
M  V30 117 O 9.7076 1.73587 -0.907978 0
M  V30 118 H 8.2876 -0.132364 -0.735179 0
M  V30 119 H 10.9496 -1.01562 -1.66347 0
M  V30 120 H 10.0456 -0.460638 -3.08682 0
M  V30 121 N 10.3467 1.47872 -0.545128 0
M  V30 122 C 11.5927 2.02793 -0.0166104 0
M  V30 123 C 11.9257 1.41987 1.32489 0
M  V30 124 O 11.2007 0.571045 1.85928 0
M  V30 125 C 11.4837 3.59989 0.0893294 0
M  V30 126 C 11.3367 4.3125 -1.27841 0
M  V30 127 C 12.6557 4.32606 0.808724 0
M  V30 128 H 9.7747 0.736962 -0.00751035 0
M  V30 129 H 12.4167 1.76433 -0.705085 0
M  V30 130 H 10.5667 3.82579 0.675681 0
M  V30 131 H 12.2387 4.20035 -1.90704 0
M  V30 132 H 10.4817 3.92076 -1.85632 0
M  V30 133 H 11.1527 5.39736 -1.15713 0
M  V30 134 H 13.6287 4.14936 0.310992 0
M  V30 135 H 12.5047 5.42251 0.851782 0
M  V30 136 H 12.7657 4.00963 1.86229 0
M  V30 137 N 11.8248 0.280983 1.55075 0
M  V30 138 C 13.0718 -0.334115 1.99725 0
M  V30 139 C 13.3998 -1.5542 1.1694 0
M  V30 140 O 12.6548 -1.94361 0.228531 0
M  V30 141 C 12.9538 -0.754656 3.49342 0
M  V30 142 C 12.6198 0.361445 4.49449 0
M  V30 143 C 11.2818 0.667893 4.76542 0
M  V30 144 C 13.6338 1.11322 5.09173 0
M  V30 145 C 10.9618 1.7296 5.60626 0
M  V30 146 C 13.3138 2.1647 5.9441 0
M  V30 147 C 11.9778 2.47742 6.19822 0
M  V30 148 H 11.2478 -0.122261 0.730844 0
M  V30 149 H 13.8948 0.395917 1.87363 0
M  V30 150 H 12.1998 -1.56446 3.5921 0
M  V30 151 H 13.8968 -1.24142 3.813 0
M  V30 152 H 10.4868 0.112481 4.28452 0
M  V30 153 H 14.6708 0.88973 4.8826 0
M  V30 154 H 9.9268 1.97684 5.78559 0
M  V30 155 H 14.1008 2.75193 6.3972 0
M  V30 156 H 11.7278 3.30145 6.84769 0
M  V30 157 N 13.3029 -1.57598 0.00835791 0
M  V30 158 C 14.5499 -1.90928 -0.674732 0
M  V30 159 C 14.8779 -0.88277 -1.73313 0
M  V30 160 O 14.1329 0.111294 -1.95383 0
M  V30 161 C 14.4319 -3.3101 -1.34787 0
M  V30 162 C 14.0979 -4.48922 -0.421861 0
M  V30 163 C 12.7599 -4.8091 -0.166927 0
M  V30 164 C 15.1119 -5.20755 0.215211 0
M  V30 165 C 12.4399 -5.821 0.733232 0
M  V30 166 C 14.7919 -6.22905 1.1033 0
M  V30 167 C 13.4559 -6.53346 1.36733 0
M  V30 168 H 12.7259 -0.698656 -0.246902 0
M  V30 169 H 15.3729 -1.91387 0.0656779 0
M  V30 170 H 13.6779 -3.26714 -2.16253 0
M  V30 171 H 15.3749 -3.54061 -1.8826 0
M  V30 172 H 11.9649 -4.23934 -0.630729 0
M  V30 173 H 16.1489 -4.9629 0.0312829 0
M  V30 174 H 11.4049 -6.04042 0.945712 0
M  V30 175 H 15.5789 -6.77694 1.60325 0
M  V30 176 H 13.2059 -7.31573 2.06652 0
M  V30 177 N 14.781 0.264519 -1.55364 0
M  V30 178 C 15.711 1.33121 -1.91836 0
M  V30 179 C 16.692 1.51101 -0.781192 0
M  V30 180 O 17.877 1.64003 -1.04003 0
M  V30 181 C 15.007 2.68921 -2.19769 0
M  V30 182 C 13.961 2.65661 -3.35571 0
M  V30 183 C 13.287 4.05093 -3.49004 0
M  V30 184 C 14.587 2.24187 -4.71739 0
M  V30 185 H 16.281 1.02844 -2.81182 0
M  V30 186 H 13.827 0.493286 -1.35287 0
M  V30 187 H 15.78 3.43663 -2.43872 0
M  V30 188 H 14.504 3.00799 -1.27231 0
M  V30 189 H 13.163 1.93377 -3.1145 0
M  V30 190 H 12.811 4.34206 -2.53917 0
M  V30 191 H 12.511 4.03804 -4.26868 0
M  V30 192 H 14.035 4.81561 -3.75408 0
M  V30 193 H 15.449 2.88654 -4.9533 0
M  V30 194 H 13.846 2.34044 -5.52579 0
M  V30 195 H 14.916 1.19327 -4.69988 0
M  V30 196 N 16.2591 1.48442 0.529413 0
M  V30 197 C 17.2071 1.63452 1.65487 0
M  V30 198 C 18.2011 0.500955 1.61823 0
M  V30 199 O 19.4071 0.679695 1.66674 0
M  V30 200 H 15.7821 0.514905 0.548066 0
M  V30 201 H 17.7531 2.57975 1.49971 0
M  V30 202 C 16.5021 1.69196 3.03756 0
M  V30 203 H 15.8251 2.55784 3.07269 0
M  V30 204 H 17.2651 1.83743 3.82119 0
M  V30 205 C 15.7241 0.430765 3.34135 0
M  V30 206 O 16.2541 -0.4561 3.99102 0
M  V30 207 N 14.4601 0.302293 2.89023 0
M  V30 208 H 14.0071 1.02496 2.36331 0
M  V30 209 H 13.9651 -0.540546 3.09718 0
M  V30 210 N 17.7372 -0.778329 1.37039 0
M  V30 211 C 18.9842 -1.53665 1.31884 0
M  V30 212 C 19.3122 -1.9425 -0.0986303 0
M  V30 213 O 18.5672 -1.63832 -1.07041 0
M  V30 214 C 18.8662 -2.81845 2.19768 0
M  V30 215 C 18.5322 -2.60345 3.68146 0
M  V30 216 C 17.1942 -2.5419 4.08584 0
M  V30 217 C 19.5462 -2.40923 4.62175 0
M  V30 218 C 16.8742 -2.26594 5.41177 0
M  V30 219 C 19.2262 -2.14852 5.94997 0
M  V30 220 C 17.8902 -2.07137 6.34547 0
M  V30 221 H 17.1602 -0.562299 0.482598 0
M  V30 222 H 19.8072 -0.897069 1.69189 0
M  V30 223 H 18.1122 -3.50328 1.75436 0
M  V30 224 H 19.8092 -3.39692 2.13097 0
M  V30 225 H 16.3992 -2.65996 3.36072 0
M  V30 226 H 20.5832 -2.44673 4.31797 0
M  V30 227 H 15.8392 -2.19111 5.70789 0
M  V30 228 H 20.0132 -1.98822 6.67415 0
M  V30 229 H 17.6402 -1.85518 7.37216 0
M  V30 230 N 19.2153 -1.21501 -1.00376 0
M  V30 231 C 20.4453 -1.05746 -1.77486 0
M  V30 232 C 20.8533 0.395655 -1.85017 0
M  V30 233 O 20.1963 1.28626 -1.31152 0
M  V30 234 C 20.2583 -1.58092 -3.22873 0
M  V30 235 C 19.9223 -3.06568 -3.38917 0
M  V30 236 C 20.9193 -4.04106 -3.271 0
M  V30 237 C 18.6043 -3.45799 -3.64319 0
M  V30 238 C 20.5983 -5.38862 -3.40451 0
M  V30 239 C 18.2853 -4.80707 -3.77311 0
M  V30 240 C 19.2833 -5.77047 -3.65384 0
M  V30 241 O 18.9713 -7.09507 -3.77961 0
M  V30 242 H 18.7033 -0.371778 -0.564586 0
M  V30 243 H 21.2573 -1.61319 -1.27143 0
M  V30 244 H 19.4873 -0.969163 -3.74358 0
M  V30 245 H 21.1763 -1.38162 -3.81662 0
M  V30 246 H 21.9423 -3.75141 -3.07399 0
M  V30 247 H 17.8213 -2.71344 -3.72684 0
M  V30 248 H 21.3653 -6.14041 -3.31058 0
M  V30 249 H 17.2623 -5.09357 -3.96517 0
M  V30 250 H 18.0303 -7.16935 -3.94901 0
M  V30 251 N 20.6934 1.19889 -1.02296 0
M  V30 252 C 21.6434 2.20777 -0.56934 0
M  V30 253 C 22.6274 1.56379 0.378741 0
M  V30 254 O 23.8194 1.75859 0.200673 0
M  V30 255 C 20.9484 3.43196 0.0845077 0
M  V30 256 C 20.0344 4.14749 -0.88566 0
M  V30 257 N 20.4254 4.62584 -2.04573 0
M  V30 258 C 18.7234 4.40347 -0.707835 0
M  V30 259 C 19.4244 5.17466 -2.65714 0
M  V30 260 N 18.4004 5.0791 -1.93723 0
M  V30 261 H 22.2024 2.55434 -1.45365 0
M  V30 262 H 19.7164 1.35897 -0.88915 0
M  V30 263 H 21.7134 4.14707 0.427067 0
M  V30 264 H 20.3734 3.10042 0.964574 0
M  V30 265 H 21.3844 4.57597 -2.4254 0
M  V30 266 H 18.0614 4.17317 0.12364 0
M  V30 267 H 19.4514 5.64808 -3.63925 0
M  V30 268 N 22.1715 0.800033 1.35784 0
M  V30 269 C 23.4175 0.377901 1.99248 0
M  V30 270 C 23.7505 -1.05052 1.63333 0
M  V30 271 O 23.0255 -1.72768 0.893385 0
M  V30 272 C 23.3085 0.553922 3.55814 0
M  V30 273 C 23.1615 2.0268 4.01548 0
M  V30 274 C 24.4805 -0.0244802 4.40093 0
M  V30 275 H 21.5995 0.138782 0.723815 0
M  V30 276 H 24.2415 1.00835 1.61035 0
M  V30 277 H 22.3915 0.0172398 3.88496 0
M  V30 278 H 24.0635 2.62536 3.79305 0
M  V30 279 H 22.3065 2.5256 3.52698 0
M  V30 280 H 22.9775 2.10087 5.10458 0
M  V30 281 H 25.4535 0.433775 4.13833 0
M  V30 282 H 24.3295 0.128637 5.48749 0
M  V30 283 H 24.5905 -1.11758 4.27741 0
M  V30 284 N 23.6496 -1.47581 0.552962 0
M  V30 285 C 24.8976 -2.02082 0.0272703 0
M  V30 286 C 25.2186 -1.4301 -1.32563 0
M  V30 287 O 24.4886 -0.603745 -1.86365 0
M  V30 288 H 23.0686 -0.746966 0.00709182 0
M  V30 289 H 25.7306 -1.81033 0.722008 0
M  V30 290 H 24.8266 -3.12034 -0.0639951 0
M  V30 291 N 25.1277 -0.289203 -1.54924 0
M  V30 292 C 26.0597 0.625583 -2.20497 0
M  V30 293 C 27.0727 1.10667 -1.19402 0
M  V30 294 O 28.2617 1.02615 -1.46056 0
M  V30 295 C 25.3617 1.86702 -2.82835 0
M  V30 296 C 24.5347 1.5304 -4.09753 0
M  V30 297 C 23.5937 2.62576 -4.56005 0
M  V30 298 O 22.6197 2.28167 -5.21468 0
M  V30 299 N 23.8217 3.92901 -4.27328 0
M  V30 300 H 26.5867 0.0642801 -2.99631 0
M  V30 301 H 24.1477 -0.110896 -1.6152 0
M  V30 302 H 26.1397 2.59304 -3.10715 0
M  V30 303 H 24.7097 2.33702 -2.07611 0
M  V30 304 H 23.9297 0.637564 -3.8901 0
M  V30 305 H 25.2177 1.28072 -4.92418 0
M  V30 306 H 24.6157 4.23671 -3.74859 0
M  V30 307 H 23.1727 4.61837 -4.59946 0
M  V30 308 N 26.6058 1.57591 -0.0167156 0
M  V30 309 C 27.5378 2.06343 0.997753 0
M  V30 310 C 28.5508 0.984469 1.29661 0
M  V30 311 O 29.7398 1.26093 1.26344 0
M  V30 312 C 26.8398 2.46255 2.32834 0
M  V30 313 C 26.0128 3.77083 2.21646 0
M  V30 314 C 25.0718 4.0368 3.37534 0
M  V30 315 O 24.0978 4.7411 3.14973 0
M  V30 316 N 25.2998 3.52881 4.60929 0
M  V30 317 H 28.0648 2.93997 0.581875 0
M  V30 318 H 25.6258 1.61002 0.170316 0
M  V30 319 H 27.6178 2.61149 3.09166 0
M  V30 320 H 26.1878 1.64032 2.66106 0
M  V30 321 H 25.4078 3.72106 1.30119 0
M  V30 322 H 26.6958 4.62822 2.11361 0
M  V30 323 H 26.0938 2.95878 4.82154 0
M  V30 324 H 24.6508 3.73076 5.34469 0
M  V30 325 N 28.0839 -0.256276 1.55502 0
M  V30 326 C 28.9939 -1.33882 1.92647 0
M  V30 327 C 30.0099 -1.53159 0.825727 0
M  V30 328 O 31.1859 -1.66963 1.12629 0
M  V30 329 C 28.2509 -2.6751 2.20543 0
M  V30 330 C 27.3119 -2.56836 3.43997 0
M  V30 331 C 26.5449 -3.84092 3.70553 0
M  V30 332 O 26.7679 -4.85545 2.99336 0
M  V30 333 O 25.7019 -3.83288 4.64084 0
M  V30 334 H 29.5279 -1.05374 2.84833 0
M  V30 335 H 27.1129 -0.456237 1.42263 0
M  V30 336 H 28.9949 -3.46492 2.39835 0
M  V30 337 H 27.6699 -2.9577 1.31536 0
M  V30 338 H 26.5769 -1.76172 3.30021 0
M  V30 339 H 27.9099 -2.33523 4.33275 0
M  V30 340 N 29.562 -1.4872 -0.521534 0
M  V30 341 C 30.973 -1.50607 -1.10337 0
M  V30 342 C 31.324 -0.280612 -1.94183 0
M  V30 343 O 30.449 0.611507 -2.0758 0
M  V30 344 C 31.044 -2.72903 -2.00772 0
M  V30 345 C 29.603 -2.77634 -2.54158 0
M  V30 346 C 28.75 -2.44241 -1.31307 0
M  V30 347 H 31.701 -1.55714 -0.306388 0
M  V30 348 H 31.722 -2.519 -2.85178 0
M  V30 349 H 31.234 -3.62077 -1.39721 0
M  V30 350 H 29.335 -1.92689 -3.18907 0
M  V30 351 H 29.448 -3.79283 -2.92714 0
M  V30 352 H 27.812 -1.95577 -1.63161 0
M  V30 353 H 28.595 -3.35666 -0.719943 0
M  V30 354 N 31.0401 0.771051 -1.3745 0
M  V30 355 C 32.2651 1.56529 -1.36065 0
M  V30 356 C 32.6901 1.88029 0.0515859 0
M  V30 357 O 32.0481 1.49282 1.02882 0
M  V30 358 C 32.0961 2.85187 -2.20683 0
M  V30 359 O 31.2001 3.79593 -1.61193 0
M  V30 360 H 30.5411 0.47411 -0.464883 0
M  V30 361 H 33.0711 0.954269 -1.80983 0
M  V30 362 H 33.0811 3.34283 -2.33921 0
M  V30 363 H 31.7561 2.61588 -3.23334 0
M  V30 364 H 30.3331 3.38239 -1.56999 0
M  V30 365 N 32.5182 1.22032 0.997298 0
M  V30 366 C 33.4482 1.01065 2.10495 0
M  V30 367 C 34.4292 -0.0669542 1.69968 0
M  V30 368 O 35.6142 0.0943987 1.9397 0
M  V30 369 C 32.7442 0.582874 3.42374 0
M  V30 370 C 31.6982 1.60592 3.96729 0
M  V30 371 C 31.0242 1.03412 5.24605 0
M  V30 372 C 32.3242 2.99478 4.27914 0
M  V30 373 H 34.0182 1.93708 2.28292 0
M  V30 374 H 31.5642 0.932761 1.09707 0
M  V30 375 H 33.5172 0.423332 4.19268 0
M  V30 376 H 32.2412 -0.379213 3.24391 0
M  V30 377 H 30.9002 1.75316 3.21963 0
M  V30 378 H 30.5482 0.063518 5.0296 0
M  V30 379 H 30.2482 1.71754 5.61938 0
M  V30 380 H 31.7722 0.886066 6.04137 0
M  V30 381 H 33.1862 2.88153 4.95622 0
M  V30 382 H 31.5832 3.64903 4.76409 0
M  V30 383 H 32.6532 3.49742 3.3587 0
M  V30 384 N 33.9963 -1.19345 1.0293 0
M  V30 385 C 35.2243 -1.92997 0.745644 0
M  V30 386 C 35.6393 -1.75519 -0.695589 0
M  V30 387 O 34.9963 -1.07737 -1.47306 0
M  V30 388 C 35.0473 -3.44741 1.08792 0
M  V30 389 O 34.7683 -3.61658 2.47256 0
M  V30 390 C 36.2693 -4.35515 0.827129 0
M  V30 391 H 33.4893 -0.613042 0.272801 0
M  V30 392 H 36.0333 -1.51473 1.3739 0
M  V30 393 H 34.1883 -3.84097 0.504832 0
M  V30 394 H 34.6023 -4.55514 2.60015 0
M  V30 395 H 36.0763 -5.40589 1.11658 0
M  V30 396 H 36.5533 -4.38552 -0.238436 0
M  V30 397 H 37.1593 -4.01841 1.39297 0
M  V30 398 N 35.4744 -0.807222 -1.35358 0
M  V30 399 C 36.4074 -0.163572 -2.27613 0
M  V30 400 C 37.3854 0.670817 -1.48118 0
M  V30 401 O 38.5694 0.63796 -1.77376 0
M  V30 402 C 35.6964 0.773015 -3.29761 0
M  V30 403 C 34.7424 0.0181653 -4.26496 0
M  V30 404 S 35.5754 -1.31831 -5.19019 0
M  V30 405 C 36.7314 -0.38619 -6.24707 0
M  V30 406 H 36.9644 -0.945757 -2.81856 0
M  V30 407 H 34.4974 -0.602315 -1.42167 0
M  V30 408 H 36.4554 1.30788 -3.89108 0
M  V30 409 H 35.1164 1.52859 -2.74396 0
M  V30 410 H 34.3094 0.729534 -4.98692 0
M  V30 411 H 33.9114 -0.446761 -3.71322 0
M  V30 412 H 36.2034 0.428295 -6.76145 0
M  V30 413 H 37.1464 -1.07736 -6.99856 0
M  V30 414 H 37.5544 0.018398 -5.64497 0
M  V30 415 N 36.9525 1.47285 -0.560781 0
M  V30 416 C 38.1775 2.07359 -0.0410566 0
M  V30 417 C 38.6025 1.41017 1.24483 0
M  V30 418 O 37.9605 0.486368 1.74654 0
M  V30 419 C 38.0085 3.6035 0.134123 0
M  V30 420 O 37.1125 3.94681 1.19587 0
M  V30 421 H 36.4535 0.661887 -0.0529291 0
M  V30 422 H 38.9835 1.89252 -0.777482 0
M  V30 423 H 38.9935 4.0652 0.347207 0
M  V30 424 H 37.6685 4.08034 -0.805047 0
M  V30 425 H 36.2455 3.60251 0.962987 0
M  V30 426 N 38.4306 0.297415 1.54768 0
M  V30 427 C 39.3786 -0.596051 2.24833 0
M  V30 428 C 40.3726 -1.13992 1.25308 0
M  V30 429 O 41.5786 -1.09098 1.4317 0
M  V30 430 H 37.9536 -0.210814 0.721846 0
M  V30 431 H 39.9246 0.0174667 2.98395 0
M  V30 432 C 38.6736 -1.75818 2.99972 0
M  V30 433 H 37.9966 -1.3489 3.76357 0
M  V30 434 H 39.4366 -2.35949 3.52284 0
M  V30 435 C 37.8956 -2.66014 2.06732 0
M  V30 436 O 38.4256 -3.67009 1.63302 0
M  V30 437 N 36.6316 -2.33669 1.72763 0
M  V30 438 H 36.1786 -1.51586 2.08277 0
M  V30 439 H 36.1366 -2.94285 1.10652 0
M  V30 440 N 39.9087 -1.5758 0.0250728 0
M  V30 441 C 40.8717 -2.08896 -0.943139 0
M  V30 442 C 41.8717 -1.00321 -1.25668 0
M  V30 443 O 43.0617 -1.26495 -1.19769 0
M  V30 444 C 40.1937 -2.55143 -2.26086 0
M  V30 445 H 41.3867 -2.95723 -0.498775 0
M  V30 446 H 38.9397 -1.54703 -0.222888 0
M  V30 447 H 39.6747 -1.71633 -2.75159 0
M  V30 448 H 39.4597 -3.34461 -2.04641 0
M  V30 449 H 40.9497 -2.95083 -2.95492 0
M  V30 450 N 41.3868 0.248026 -1.55636 0
M  V30 451 C 42.3168 1.31079 -1.93237 0
M  V30 452 C 43.2978 1.50264 -0.797174 0
M  V30 453 O 44.4828 1.62891 -1.05737 0
M  V30 454 C 41.6128 2.66575 -2.22609 0
M  V30 455 C 40.5668 2.62087 -3.3837 0
M  V30 456 C 39.8928 4.01369 -3.53281 0
M  V30 457 C 41.1928 2.19171 -4.7409 0
M  V30 458 H 42.8868 0.998556 -2.82257 0
M  V30 459 H 40.4328 0.47891 -1.35803 0
M  V30 460 H 42.3858 3.41057 -2.47503 0
M  V30 461 H 41.1098 2.99432 -1.30414 0
M  V30 462 H 39.7688 1.90063 -3.13483 0
M  V30 463 H 39.4168 4.31489 -2.58508 0
M  V30 464 H 39.1168 3.99254 -4.31127 0
M  V30 465 H 40.6408 4.77552 -3.80495 0
M  V30 466 H 42.0548 2.83384 -4.98363 0
M  V30 467 H 40.4518 2.2817 -5.5503 0
M  V30 468 H 41.5218 1.14336 -4.71227 0
M  V30 469 N 42.8649 1.48995 0.513639 0
M  V30 470 C 43.7749 1.67443 1.64317 0
M  V30 471 C 44.7909 0.556947 1.64846 0
M  V30 472 O 45.9669 0.830082 1.83498 0
M  V30 473 C 43.0319 1.72515 3.00732 0
M  V30 474 C 42.0929 2.96009 3.1093 0
M  V30 475 C 41.3259 3.00829 4.40837 0
M  V30 476 O 41.5489 2.13594 5.28898 0
M  V30 477 O 40.4829 3.93168 4.55744 0
M  V30 478 H 44.3089 2.63106 1.51687 0
M  V30 479 H 41.8939 1.32588 0.688543 0
M  V30 480 H 43.7759 1.78277 3.81831 0
M  V30 481 H 42.4509 0.800278 3.13651 0
M  V30 482 H 41.3579 2.9577 2.29065 0
M  V30 483 H 42.6909 3.87934 3.02933 0
M  V30 484 N 44.343 -0.763751 1.37857 0
M  V30 485 C 45.571 -1.55293 1.36718 0
M  V30 486 C 45.986 -1.88745 -0.0455434 0
M  V30 487 O 45.343 -1.52039 -1.00947 0
M  V30 488 C 45.394 -2.85831 2.2132 0
M  V30 489 O 45.115 -2.5381 3.57089 0
M  V30 490 C 46.616 -3.80023 2.28249 0
M  V30 491 H 43.836 -0.480841 0.468009 0
M  V30 492 H 46.38 -0.946009 1.81303 0
M  V30 493 H 44.535 -3.42926 1.80223 0
M  V30 494 H 44.949 -3.37459 4.01524 0
M  V30 495 H 46.423 -4.68599 2.91752 0
M  V30 496 H 46.9 -4.1973 1.2932 0
M  V30 497 H 47.506 -3.28855 2.69693 0
M  V30 498 N 45.8211 -1.22559 -0.990812 0
M  V30 499 C 46.7511 -1.0218 -2.09956 0
M  V30 500 C 47.7321 0.0579394 -1.70001 0
M  V30 501 O 48.9171 -0.104684 -1.93918 0
M  V30 502 C 46.0471 -0.601023 -3.4206 0
M  V30 503 C 45.0011 -1.62694 -3.95872 0
M  V30 504 C 44.3271 -1.06193 -5.24049 0
M  V30 505 C 45.6271 -3.01743 -4.2632 0
M  V30 506 H 47.3211 -1.94916 -2.27262 0
M  V30 507 H 44.8671 -0.938566 -1.09211 0
M  V30 508 H 46.8201 -0.445561 -4.19038 0
M  V30 509 H 45.5441 0.362005 -3.24588 0
M  V30 510 H 44.2031 -1.77021 -3.21028 0
M  V30 511 H 43.8511 -0.0901903 -5.02919 0
M  V30 512 H 43.5511 -1.74732 -5.61019 0
M  V30 513 H 45.0751 -0.918092 -6.03658 0
M  V30 514 H 46.4891 -2.90777 -4.94087 0
M  V30 515 H 44.8861 -3.67425 -4.74467 0
M  V30 516 H 45.9561 -3.51518 -3.34011 0
M  V30 517 N 47.2992 1.18797 -1.03562 0
M  V30 518 C 48.7152 1.40671 -0.753917 0
M  V30 519 C 48.9152 1.9043 0.658686 0
M  V30 520 O 47.9712 2.08538 1.42366 0
M  V30 521 C 49.2842 2.41192 -1.79574 0
M  V30 522 C 50.8322 2.54928 -1.81606 0
M  V30 523 C 51.3072 3.58709 -2.84766 0
M  V30 524 N 52.7982 3.66212 -2.83625 0
M  V30 525 C 53.5332 4.46225 -3.60098 0
M  V30 526 N 53.0292 5.29888 -4.46308 0
M  V30 527 N 54.8222 4.40939 -3.4861 0
M  V30 528 H 46.9732 0.848221 -1.94728 0
M  V30 529 H 49.2362 0.435081 -0.842264 0
M  V30 530 H 48.9422 2.11669 -2.80872 0
M  V30 531 H 48.8162 3.40467 -1.62365 0
M  V30 532 H 51.2032 2.83771 -0.809817 0
M  V30 533 H 51.2842 1.55784 -2.02891 0
M  V30 534 H 50.9282 3.30607 -3.85566 0
M  V30 535 H 50.8582 4.57519 -2.60737 0
M  V30 536 H 53.3492 3.06466 -2.21105 0
M  V30 537 H 53.6622 5.88078 -5.01382 0
M  V30 538 H 52.0072 5.29326 -4.50377 0
M  V30 539 H 55.1982 3.74624 -2.80668 0
M  V30 540 H 55.3712 5.03056 -4.08459 0
M  V30 541 N 48.7773 0.814389 1.34928 0
M  V30 542 C 50.0263 0.394871 1.97797 0
M  V30 543 C 50.3393 -1.04555 1.65311 0
M  V30 544 O 51.5453 -1.56856 2.21604 0
M  V30 545 C 50.0013 0.655103 3.53888 0
M  V30 546 C 49.6093 2.10858 3.95276 0
M  V30 547 C 51.3533 0.301329 4.23429 0
M  V30 548 C 49.2603 2.31415 5.44244 0
M  V30 549 H 48.1903 0.143913 0.740139 0
M  V30 550 H 50.8413 0.999544 1.53888 0
M  V30 551 H 49.2233 -0.0196253 3.95995 0
M  V30 552 H 50.3973 2.82176 3.64298 0
M  V30 553 H 48.7123 2.42297 3.38646 0
M  V30 554 H 51.3093 0.432869 5.32945 0
M  V30 555 H 51.6523 -0.75331 4.09428 0
M  V30 556 H 52.1853 0.930288 3.86769 0
M  V30 557 H 48.9243 3.35353 5.63222 0
M  V30 558 H 48.4443 1.6463 5.76764 0
M  V30 559 H 50.1233 2.13352 6.10811 0
M  V30 560 N 50.2554 -1.46986 0.568584 0
M  V30 561 C 51.5044 -2.01646 0.0465894 0
M  V30 562 C 51.8174 -1.44721 -1.31587 0
M  V30 563 O 53.0234 -1.91113 -1.92842 0
M  V30 564 C 51.4794 -3.59885 0.032752 0
M  V30 565 C 51.0874 -4.25804 1.39266 0
M  V30 566 C 52.8314 -4.22255 -0.436038 0
M  V30 567 C 50.7384 -5.76081 1.33732 0
M  V30 568 H 49.6684 -0.753876 0.013647 0
M  V30 569 H 52.3194 -1.68864 0.718131 0
M  V30 570 H 50.7014 -3.8968 -0.704669 0
M  V30 571 H 51.8754 -4.07637 2.1487 0
M  V30 572 H 50.1904 -3.7547 1.80032 0
M  V30 573 H 52.7874 -5.32394 -0.49602 0
M  V30 574 H 53.1304 -3.90212 -1.45053 0
M  V30 575 H 53.6634 -3.97033 0.246877 0
M  V30 576 H 50.4024 -6.12761 2.32817 0
M  V30 577 H 49.9224 -5.96553 0.623267 0
M  V30 578 H 51.6014 -6.38518 1.0442 0
M  V30 579 N 51.7335 -0.305618 -1.54608 0
M  V30 580 C 53.0105 0.355652 -1.92339 0
M  V30 581 C 53.3905 1.71324 -1.23335 0
M  V30 582 O 52.7385 2.25473 -0.370702 0
M  V30 583 C 52.9485 0.46572 -3.45879 0
M  V30 584 C 54.2965 0.734426 -4.182 0
M  V30 585 O 55.3205 0.54935 -3.51938 0
M  V30 586 O 54.1795 1.09024 -5.35515 0
M  V30 587 H 51.2735 0.199666 -0.802535 0
M  V30 588 H 53.8195 -0.354017 -1.65966 0
M  V30 589 H 52.5915 -0.488461 -3.88239 0
M  V30 590 H 52.2145 1.22367 -3.78301 0
M  V30 591 N 53.2116 1.57565 -0.0334293 0
M  V30 592 C 54.1216 2.13943 0.962572 0
M  V30 593 C 55.1376 1.09276 1.35406 0
M  V30 594 O 56.3136 1.41355 1.4346 0
M  V30 595 C 53.3786 2.65887 2.22497 0
M  V30 596 C 52.4396 3.85286 1.8935 0
M  V30 597 C 51.6726 4.34743 3.09571 0
M  V30 598 O 51.8956 3.83352 4.22371 0
M  V30 599 O 50.8296 5.26538 2.91618 0
M  V30 600 H 54.6556 2.99333 0.513169 0
M  V30 601 H 52.2406 1.4822 0.18743 0
M  V30 602 H 54.1226 2.99346 2.96598 0
M  V30 603 H 52.7976 1.83578 2.6661 0
M  V30 604 H 51.7046 3.56746 1.1262 0
M  V30 605 H 53.0376 4.68771 1.5005 0
M  V30 606 N 54.6897 -0.239769 1.55765 0
M  V30 607 C 55.9667 -0.990056 1.68693 0
M  V30 608 C 56.3467 -2.03107 0.5754 0
M  V30 609 O 55.6947 -2.24604 -0.42017 0
M  V30 610 C 55.9047 -1.61696 3.09282 0
M  V30 611 C 57.2527 -2.11613 3.6811 0
M  V30 612 O 58.2767 -1.71624 3.12127 0
M  V30 613 O 57.1357 -2.85057 4.66267 0
M  V30 614 H 54.2297 -0.461299 0.686391 0
M  V30 615 H 56.7757 -0.232991 1.68093 0
M  V30 616 H 55.5477 -0.864357 3.81634 0
M  V30 617 H 55.1707 -2.44005 3.13923 0
M  V30 618 N 56.1678 -1.49265 -0.50573 0
M  V30 619 C 57.3958 -1.62215 -1.28429 0
M  V30 620 C 57.8108 -0.291697 -1.86533 0
M  V30 621 O 57.1678 0.722233 -1.67601 0
M  V30 622 C 57.2188 -2.68735 -2.41793 0
M  V30 623 O 56.9398 -3.96619 -1.86078 0
M  V30 624 C 58.4408 -2.92346 -3.3324 0
M  V30 625 H 55.6608 -0.546239 -0.389697 0
M  V30 626 H 58.2048 -1.95265 -0.607609 0
M  V30 627 H 56.3598 -2.38476 -3.053 0
M  V30 628 H 56.7738 -4.55256 -2.60465 0
M  V30 629 H 58.2478 -3.70623 -4.09075 0
M  V30 630 H 58.7248 -2.02081 -3.89948 0
M  V30 631 H 59.3308 -3.24003 -2.75503 0
M  V30 632 N 57.6459 0.756429 -1.3826 0
M  V30 633 C 58.8709 1.55077 -1.37717 0
M  V30 634 C 59.2959 1.88073 0.03164 0
M  V30 635 O 58.6539 1.50364 1.01293 0
M  V30 636 C 58.7019 2.8283 -2.23695 0
M  V30 637 O 57.8059 3.77862 -1.6521 0
M  V30 638 H 57.1469 0.469152 -0.469885 0
M  V30 639 H 59.6769 0.935019 -1.81985 0
M  V30 640 H 59.6869 3.31783 -2.37453 0
M  V30 641 H 58.3619 2.58144 -3.2609 0
M  V30 642 H 56.9389 3.36555 -1.60578 0
M  V30 643 N 59.124 1.23083 0.984299 0
M  V30 644 C 60.373 1.05466 1.71929 0
M  V30 645 C 60.686 -0.409211 1.91272 0
M  V30 646 O 61.892 -0.705226 2.62181 0
M  V30 647 C 60.348 1.83874 3.09384 0
M  V30 648 C 59.956 3.34566 2.97943 0
M  V30 649 C 61.7 1.74734 3.8687 0
M  V30 650 C 59.607 4.05381 4.30605 0
M  V30 651 H 58.537 0.391039 0.644674 0
M  V30 652 H 61.188 1.47013 1.09815 0
M  V30 653 H 59.57 1.35131 3.72231 0
M  V30 654 H 60.744 3.90767 2.44209 0
M  V30 655 H 59.059 3.44476 2.33934 0
M  V30 656 H 61.656 2.24957 4.85076 0
M  V30 657 H 61.999 0.709372 4.10212 0
M  V30 658 H 62.532 2.21067 3.30717 0
M  V30 659 H 59.271 5.09467 4.1246 0
M  V30 660 H 58.791 3.53967 4.84218 0
M  V30 661 H 60.47 4.11458 4.99311 0
M  V30 662 N 60.6021 -1.18246 1.0419 0
M  V30 663 C 61.8321 -1.91916 0.764961 0
M  V30 664 C 62.2401 -1.76485 -0.681898 0
M  V30 665 O 61.5831 -1.09275 -1.47664 0
M  V30 666 C 61.6451 -3.4373 1.05309 0
M  V30 667 C 61.3091 -3.8294 2.4941 0
M  V30 668 C 62.3061 -3.86621 3.47592 0
M  V30 669 C 59.9911 -4.142 2.84155 0
M  V30 670 C 61.9851 -4.21013 4.78568 0
M  V30 671 C 59.6721 -4.48262 4.15337 0
M  V30 672 C 60.6701 -4.51645 5.12353 0
M  V30 673 O 60.3581 -4.84911 6.41183 0
M  V30 674 H 60.0901 -0.61606 0.278292 0
M  V30 675 H 62.6441 -1.50947 1.39299 0
M  V30 676 H 60.8741 -3.84946 0.367933 0
M  V30 677 H 62.5631 -3.9865 0.763752 0
M  V30 678 H 63.3291 -3.62607 3.22089 0
M  V30 679 H 59.2081 -4.10743 2.09311 0
M  V30 680 H 62.7521 -4.23568 5.54289 0
M  V30 681 H 58.6491 -4.71737 4.40607 0
M  V30 682 H 59.4171 -5.02809 6.45852 0
M  V30 683 N 62.0802 -0.821533 -1.34494 0
M  V30 684 C 63.3572 -0.33159 -1.92769 0
M  V30 685 C 63.7372 1.18088 -1.74981 0
M  V30 686 O 63.0852 1.98733 -1.12772 0
M  V30 687 C 63.2952 -0.759398 -3.40638 0
M  V30 688 C 64.6432 -0.757433 -4.1779 0
M  V30 689 O 65.6672 -0.70189 -3.49216 0
M  V30 690 O 64.5262 -0.829361 -5.4017 0
M  V30 691 H 61.6202 -0.0902502 -0.822061 0
M  V30 692 H 64.1662 -0.906231 -1.43477 0
M  V30 693 H 62.9382 -1.8012 -3.47379 0
M  V30 694 H 62.5612 -0.160378 -3.97276 0
M  V30 695 N 63.5583 1.46682 -0.576371 0
M  V30 696 C 64.8043 2.02712 -0.0596221 0
M  V30 697 C 65.1373 1.44765 1.29448 0
M  V30 698 O 64.4123 0.610355 1.84675 0
M  V30 699 C 64.6953 3.60098 0.0129503 0
M  V30 700 C 64.5483 4.28441 -1.3696 0
M  V30 701 C 65.8673 4.34224 0.71678 0
M  V30 702 H 62.9863 0.736637 -0.0231407 0
M  V30 703 H 65.6283 1.74898 -0.742351 0
M  V30 704 H 63.7783 3.83926 0.594378 0
M  V30 705 H 65.4503 4.15896 -1.9957 0
M  V30 706 H 63.6933 3.8805 -1.93907 0
M  V30 707 H 64.3643 5.3716 -1.27135 0
M  V30 708 H 66.8403 4.15503 0.222908 0
M  V30 709 H 65.7163 5.43936 0.73657 0
M  V30 710 H 65.9773 4.04823 1.77682 0
M  V30 711 N 65.0364 0.313813 1.54444 0
M  V30 712 C 66.2824 -0.292108 2.00685 0
M  V30 713 C 66.6154 -1.52548 1.20177 0
M  V30 714 O 65.8904 -1.92452 0.281531 0
M  V30 715 C 66.1734 -0.635968 3.5444 0
M  V30 716 C 66.0264 0.607437 4.4568 0
M  V30 717 C 67.3454 -1.45747 4.15266 0
M  V30 718 H 64.4644 -0.104697 0.729526 0
M  V30 719 H 67.1064 0.428457 1.85106 0
M  V30 720 H 65.2564 -1.24986 3.67846 0
M  V30 721 H 66.9284 1.24581 4.44159 0
M  V30 722 H 65.1714 1.23822 4.15753 0
M  V30 723 H 65.8424 0.322515 5.51057 0
M  V30 724 H 68.3184 -0.938645 4.05375 0
M  V30 725 H 67.1944 -1.66683 5.2298 0
M  V30 726 H 67.4554 -2.45063 3.67963 0
M  V30 727 N 66.5145 -1.57545 0.0417849 0
M  V30 728 C 67.4775 -2.09885 -0.92093 0
M  V30 729 C 68.4775 -1.01648 -1.24596 0
M  V30 730 O 69.6675 -1.27759 -1.1842 0
M  V30 731 C 66.7995 -2.57527 -2.23367 0
M  V30 732 H 67.9925 -2.96236 -0.467382 0
M  V30 733 H 65.5455 -1.5493 -0.206467 0
M  V30 734 H 66.2805 -1.74542 -2.73323 0
M  V30 735 H 66.0655 -3.36613 -2.01083 0
M  V30 736 H 67.5555 -2.98201 -2.92346 0
M  V30 737 N 67.9926 0.231505 -1.5589 0
M  V30 738 C 69.2396 0.957352 -1.78441 0
M  V30 739 C 69.5676 1.84726 -0.60882 0
M  V30 740 O 68.8226 1.91416 0.40725 0
M  V30 741 C 69.1216 1.83577 -3.0665 0
M  V30 742 C 68.7876 1.09993 -4.37278 0
M  V30 743 C 67.4496 0.896629 -4.72773 0
M  V30 744 C 69.8016 0.579558 -5.17968 0
M  V30 745 C 67.1296 0.160896 -5.86479 0
M  V30 746 C 69.4816 -0.142783 -6.32439 0
M  V30 747 C 68.1456 -0.357427 -6.66542 0
M  V30 748 H 67.4156 0.35032 -0.65296 0
M  V30 749 H 70.0626 0.226259 -1.90159 0
M  V30 750 H 68.3676 2.63441 -2.90011 0
M  V30 751 H 70.0646 2.39934 -3.21298 0
M  V30 752 H 66.6546 1.26835 -4.09403 0
M  V30 753 H 70.8386 0.724125 -4.90989 0
M  V30 754 H 66.0946 -0.0157293 -6.11398 0
M  V30 755 H 70.2686 -0.553559 -6.94196 0
M  V30 756 H 67.8956 -0.929466 -7.54497 0
M  V30 757 N 69.4707 1.49531 0.497807 0
M  V30 758 C 70.6957 1.63159 1.28039 0
M  V30 759 C 71.1207 0.30418 1.85624 0
M  V30 760 O 70.4787 -0.728618 1.66015 0
M  V30 761 C 70.5267 2.70537 2.38416 0
M  V30 762 O 69.6307 2.29931 3.42353 0
M  V30 763 H 68.9717 0.546001 0.377861 0
M  V30 764 H 71.5017 1.9574 0.59558 0
M  V30 765 H 71.5117 2.92802 2.84132 0
M  V30 766 H 70.1867 3.6689 1.95869 0
M  V30 767 H 68.7637 2.18009 3.02533 0
M  V30 768 N 70.9488 -0.749086 1.3866 0
M  V30 769 C 71.8588 -1.89358 1.38494 0
M  V30 770 C 72.8748 -1.71708 0.281476 0
M  V30 771 O 74.0508 -1.94554 0.520643 0
M  V30 772 C 71.1158 -3.24782 1.21316 0
M  V30 773 C 70.1768 -3.54926 2.41508 0
M  V30 774 C 69.4098 -4.83888 2.2514 0
M  V30 775 O 69.6328 -5.56592 1.24746 0
M  V30 776 O 68.5668 -5.13612 3.13826 0
M  V30 777 H 72.3928 -1.92452 2.34938 0
M  V30 778 H 69.9778 -0.894981 1.19626 0
M  V30 779 H 71.8598 -4.05739 1.13814 0
M  V30 780 H 70.5348 -3.2249 0.279592 0
M  V30 781 H 69.4418 -2.74112 2.54585 0
M  V30 782 H 70.7748 -3.61983 3.3351 0
M  V30 783 N 72.4269 -1.23603 -0.977757 0
M  V30 784 C 73.3769 -0.986664 -2.05545 0
M  V30 785 C 74.3609 0.0683009 -1.60755 0
M  V30 786 O 75.5529 -0.144162 -1.76412 0
M  V30 787 C 72.6819 -0.582623 -3.3832 0
M  V30 788 C 71.7679 -1.67313 -3.89701 0
M  V30 789 N 72.1589 -2.90394 -4.14132 0
M  V30 790 C 70.4569 -1.54832 -4.18262 0
M  V30 791 C 71.1579 -3.61017 -4.56116 0
M  V30 792 N 70.1339 -2.8854 -4.60701 0
M  V30 793 H 73.9359 -1.92139 -2.22396 0
M  V30 794 H 71.4499 -1.1358 -1.16074 0
M  V30 795 H 73.4469 -0.38524 -4.15116 0
M  V30 796 H 72.1069 0.34503 -3.22862 0
M  V30 797 H 73.1179 -3.26673 -4.01877 0
M  V30 798 H 69.7949 -0.687969 -4.11793 0
M  V30 799 H 71.1849 -4.66544 -4.83514 0
M  V30 800 N 73.905 1.17692 -1.04816 0
M  V30 801 C 74.855 2.1952 -0.616042 0
M  V30 802 C 75.839 1.57147 0.345485 0
M  V30 803 O 77.031 1.76245 0.163325 0
M  V30 804 C 74.16 3.43298 0.0116917 0
M  V30 805 C 73.246 4.12777 -0.973435 0
M  V30 806 N 73.637 4.5814 -2.14339 0
M  V30 807 C 71.935 4.38747 -0.80108 0
M  V30 808 C 72.636 5.11713 -2.7663 0
M  V30 809 N 71.612 5.03686 -2.04453 0
M  V30 810 H 75.414 2.52293 -1.5075 0
M  V30 811 H 72.928 1.3398 -0.917776 0
M  V30 812 H 74.925 4.15519 0.339006 0
M  V30 813 H 73.585 3.12018 0.898593 0
M  V30 814 H 74.596 4.52349 -2.52191 0
M  V30 815 H 71.273 4.17485 0.0350934 0
M  V30 816 H 72.663 5.56962 -3.75823 0
M  V30 817 N 75.3831 0.828654 1.34056 0
M  V30 818 C 76.6321 0.415828 1.97367 0
M  V30 819 C 76.9451 -1.02796 1.6641 0
M  V30 820 O 78.1511 -1.54497 2.23255 0
M  V30 821 C 76.6071 0.692601 3.53173 0
M  V30 822 C 76.2151 2.15038 3.93017 0
M  V30 823 C 77.9591 0.346222 4.23086 0
M  V30 824 C 75.8661 2.37174 5.41758 0
M  V30 825 H 74.7961 0.151755 0.738571 0
M  V30 826 H 77.4471 1.01581 1.52819 0
M  V30 827 H 75.8291 0.0223764 3.95994 0
M  V30 828 H 77.0031 2.86024 3.61285 0
M  V30 829 H 75.3181 2.45875 3.36057 0
M  V30 830 H 77.9151 0.48937 5.32456 0
M  V30 831 H 78.2581 -0.709842 4.10204 0
M  V30 832 H 78.7911 0.971258 3.85761 0
M  V30 833 H 75.5301 3.41308 5.59633 0
M  V30 834 H 75.0501 1.70738 5.74986 0
M  V30 835 H 76.7291 2.19818 6.08514 0
M  V30 836 N 76.8612 -1.46375 0.584142 0
M  V30 837 C 78.1382 -1.956 0.0033388 0
M  V30 838 C 78.5182 -1.52679 -1.45782 0
M  V30 839 O 77.8662 -0.77816 -2.14842 0
M  V30 840 C 78.0762 -3.48551 0.176891 0
M  V30 841 C 79.4242 -4.24576 0.0454609 0
M  V30 842 O 80.4482 -3.56043 0.105801 0
M  V30 843 O 79.3072 -5.46427 -0.0890376 0
M  V30 844 H 76.4012 -0.825547 -0.0490066 0
M  V30 845 H 78.9472 -1.56652 0.65256 0
M  V30 846 H 77.7192 -3.72683 1.1926 0
M  V30 847 H 77.3422 -3.94332 -0.508695 0
M  V30 848 N 78.3393 -0.321999 -1.54275 0
M  V30 849 C 79.2863 0.544664 -2.24281 0
M  V30 850 C 80.2563 1.1129 -1.23303 0
M  V30 851 O 81.4413 1.15354 -1.51981 0
M  V30 852 C 78.5813 1.70045 -3.00298 0
M  V30 853 C 77.6943 1.16159 -4.1609 0
M  V30 854 C 76.8293 2.28293 -4.79641 0
M  V30 855 C 75.8683 1.71648 -5.8754 0
M  V30 856 N 75.0053 2.77438 -6.44959 0
M  V30 857 H 79.8453 -0.0588907 -2.97942 0
M  V30 858 H 77.3823 -0.0408345 -1.47043 0
M  V30 859 H 79.3403 2.38054 -3.42616 0
M  V30 860 H 77.9703 2.27531 -2.28975 0
M  V30 861 H 77.0223 0.373092 -3.78566 0
M  V30 862 H 78.3343 0.707087 -4.93763 0
M  V30 863 H 77.4883 3.0421 -5.2492 0
M  V30 864 H 76.2273 2.77079 -4.01346 0
M  V30 865 H 75.2323 0.942282 -5.41665 0
M  V30 866 H 76.4573 1.23741 -6.67731 0
M  V30 867 H 74.4033 3.25519 -5.69538 0
M  V30 868 H 74.3203 2.36547 -7.1804 0
M  V30 869 H 75.5883 3.53189 -6.94894 0
M  V30 870 N 79.8174 1.5752 -0.0501392 0
M  V30 871 C 81.0424 1.97376 0.636997 0
M  V30 872 C 81.4674 0.927466 1.63645 0
M  V30 873 O 80.8254 -0.10941 1.8097 0
M  V30 874 C 80.8734 3.36304 1.30123 0
M  V30 875 O 79.9774 3.34156 2.41689 0
M  V30 876 H 79.3184 0.642998 0.165679 0
M  V30 877 H 81.8484 2.04258 -0.118233 0
M  V30 878 H 81.8584 3.73008 1.65315 0
M  V30 879 H 80.5334 4.11993 0.568746 0
M  V30 880 H 79.1104 3.09196 2.08451 0
M  V30 881 N 81.2955 -0.223234 1.56011 0
M  V30 882 C 82.5255 -0.963413 1.82762 0
M  V30 883 C 82.9335 -1.78516 0.626804 0
M  V30 884 O 82.2765 -1.78974 -0.414014 0
M  V30 885 C 82.3385 -1.93126 3.0322 0
M  V30 886 C 82.0025 -1.2942 4.38291 0
M  V30 887 C 82.9995 -0.684916 5.15369 0
M  V30 888 C 80.6845 -1.30647 4.85012 0
M  V30 889 C 82.6785 -0.0963971 6.37327 0
M  V30 890 C 80.3655 -0.71411 6.06913 0
M  V30 891 C 81.3635 -0.110123 6.82911 0
M  V30 892 O 81.0515 0.47303 8.02507 0
M  V30 893 H 80.7835 -0.288011 0.611576 0
M  V30 894 H 83.3375 -0.244103 2.03944 0
M  V30 895 H 81.5675 -2.68952 2.77852 0
M  V30 896 H 83.2565 -2.53685 3.16857 0
M  V30 897 H 84.0225 -0.667774 4.80381 0
M  V30 898 H 79.9015 -1.76598 4.25833 0
M  V30 899 H 83.4455 0.375657 6.96588 0
M  V30 900 H 79.3425 -0.728659 6.41374 0
M  V30 901 H 80.1105 0.367186 8.17676 0
M  V30 902 N 82.7736 -1.49793 -0.48987 0
M  V30 903 C 83.7216 -1.67783 -1.61095 0
M  V30 904 C 84.7156 -0.543683 -1.60438 0
M  V30 905 O 85.9216 -0.723647 -1.64813 0
M  V30 906 H 82.2966 -0.529255 -0.534222 0
M  V30 907 H 84.2676 -2.61861 -1.43078 0
M  V30 908 C 83.0166 -1.77191 -2.99164 0
M  V30 909 H 82.3396 -2.63841 -3.0038 0
M  V30 910 H 83.7796 -1.93809 -3.77113 0
M  V30 911 C 82.2386 -0.519203 -3.32875 0
M  V30 912 O 82.7686 0.350124 -4.00171 0
M  V30 913 N 80.9746 -0.378816 -2.8812 0
M  V30 914 H 80.5216 -1.08725 -2.33531 0
M  V30 915 H 80.4796 0.458239 -3.11043 0
M  V30 916 N 84.2517 0.741722 -1.39055 0
M  V30 917 C 85.5287 1.49252 -1.26425 0
M  V30 918 C 85.9087 2.10705 0.129144 0
M  V30 919 O 85.2567 1.98045 1.13976 0
M  V30 920 C 85.4667 2.54934 -2.38347 0
M  V30 921 C 86.8147 3.21506 -2.77343 0
M  V30 922 O 87.8387 2.65245 -2.37747 0
M  V30 923 O 86.6977 4.23294 -3.45665 0
M  V30 924 H 83.7917 0.662451 -0.495064 0
M  V30 925 H 86.3377 0.776121 -1.50912 0
M  V30 926 H 85.1097 2.07857 -3.31529 0
M  V30 927 H 84.7327 3.34141 -2.15489 0
M  V30 928 N 85.7298 1.2412 0.971189 0
M  V30 929 C 86.6398 1.04747 2.09917 0
M  V30 930 C 87.6558 -0.0107162 1.73997 0
M  V30 931 O 88.8318 0.186714 2.00533 0
M  V30 932 C 85.8968 0.650828 3.40537 0
M  V30 933 C 84.9578 1.7851 3.90426 0
M  V30 934 C 84.1908 1.40729 5.14812 0
M  V30 935 O 84.4138 0.29557 5.69634 0
M  V30 936 O 83.3478 2.23168 5.58999 0
M  V30 937 H 87.1738 1.99304 2.29154 0
M  V30 938 H 84.7588 1.02908 1.08307 0
M  V30 939 H 86.6408 0.440992 4.19086 0
M  V30 940 H 85.3158 -0.265649 3.22608 0
M  V30 941 H 84.2228 2.04966 3.12953 0
M  V30 942 H 85.5558 2.68023 4.12825 0
M  V30 943 N 87.2079 -1.17134 1.05439 0
M  V30 944 C 88.4359 -1.91372 0.786414 0
M  V30 945 C 88.8509 -1.76955 -0.658202 0
M  V30 946 O 88.2079 -1.10838 -1.44987 0
M  V30 947 C 88.2589 -3.42356 1.1608 0
M  V30 948 O 87.9799 -3.56332 2.54871 0
M  V30 949 C 89.4809 -4.33663 0.919322 0
M  V30 950 H 86.7009 -0.607118 0.285743 0
M  V30 951 H 89.2449 -1.48525 1.40572 0
M  V30 952 H 87.3999 -3.82939 0.586191 0
M  V30 953 H 87.8139 -4.49896 2.69618 0
M  V30 954 H 89.2879 -5.38099 1.231 0
M  V30 955 H 89.7649 -4.38959 -0.145359 0
M  V30 956 H 90.3709 -3.98796 1.47789 0
M  V30 957 N 88.686 -0.835752 -1.33615 0
M  V30 958 C 89.633 -0.26473 -2.29277 0
M  V30 959 C 90.603 0.617712 -1.54187 0
M  V30 960 O 91.788 0.556641 -1.825 0
M  V30 961 C 88.928 0.556777 -3.40579 0
M  V30 962 C 88.041 -0.349339 -4.30585 0
M  V30 963 C 87.176 0.482969 -5.29 0
M  V30 964 C 86.215 -0.421732 -6.10645 0
M  V30 965 N 85.352 0.372262 -7.01112 0
M  V30 966 H 90.192 -1.08582 -2.77514 0
M  V30 967 H 87.729 -0.546927 -1.36554 0
M  V30 968 H 89.687 1.04852 -4.03809 0
M  V30 969 H 88.317 1.34286 -2.93542 0
M  V30 970 H 87.369 -0.959372 -3.68104 0
M  V30 971 H 88.681 -1.04445 -4.87742 0
M  V30 972 H 87.835 1.03866 -5.97743 0
M  V30 973 H 86.574 1.21153 -4.72412 0
M  V30 974 H 85.579 -0.989464 -5.40823 0
M  V30 975 H 86.804 -1.14861 -6.69316 0
M  V30 976 H 84.75 1.08426 -6.46977 0
M  V30 977 H 84.667 -0.264198 -7.55538 0
M  V30 978 H 85.935 0.910293 -7.74167 0
M  V30 979 N 90.1641 1.46063 -0.591896 0
M  V30 980 C 91.0941 2.33172 0.123673 0
M  V30 981 C 92.0751 1.45897 0.87453 0
M  V30 982 O 93.2601 1.74698 0.848181 0
M  V30 983 C 90.3901 3.28336 1.13194 0
M  V30 984 C 89.3441 4.25124 0.495324 0
M  V30 985 C 88.6701 5.09863 1.61071 0
M  V30 986 C 89.9701 5.19143 -0.573425 0
M  V30 987 H 91.6641 2.93252 -0.603646 0
M  V30 988 H 89.2101 1.41014 -0.291741 0
M  V30 989 H 91.1631 3.88137 1.64097 0
M  V30 990 H 89.8871 2.66383 1.88965 0
M  V30 991 H 88.5461 3.66599 0.00729452 0
M  V30 992 H 88.1941 4.44288 2.35832 0
M  V30 993 H 87.8941 5.75417 1.19035 0
M  V30 994 H 89.4181 5.72529 2.12233 0
M  V30 995 H 90.8321 5.73106 -0.1491 0
M  V30 996 H 89.2291 5.93089 -0.914636 0
M  V30 997 H 90.2991 4.62519 -1.45617 0
M  V30 998 N 91.6422 0.330177 1.54103 0
M  V30 999 C 92.6052 -0.520144 2.2322 0
M  V30 1000 C 93.6052 -1.03828 1.22786 0
M  V30 1001 O 94.7952 -0.929652 1.4732 0
M  V30 1002 C 91.9272 -1.72317 2.94142 0
M  V30 1003 H 93.1202 0.0841605 2.99782 0
M  V30 1004 H 90.6732 0.0813433 1.56088 0
M  V30 1005 H 91.4082 -2.36653 2.21734 0
M  V30 1006 H 91.1932 -1.35898 3.67796 0
M  V30 1007 H 92.6832 -2.3266 3.46784 0
M  V30 1008 N 93.1203 -1.57491 0.0584922 0
M  V30 1009 C 94.5313 -1.80526 -0.476138 0
M  V30 1010 C 94.8823 -0.971334 -1.70469 0
M  V30 1011 O 94.0073 -0.190012 -2.15564 0
M  V30 1012 C 94.6023 -3.27424 -0.870587 0
M  V30 1013 C 93.1613 -3.51351 -1.35015 0
M  V30 1014 C 92.3083 -2.75343 -0.32887 0
M  V30 1015 H 95.2593 -1.56133 0.284312 0
M  V30 1016 H 95.2803 -3.38745 -1.73299 0
M  V30 1017 H 94.7923 -3.88093 0.0237627 0
M  V30 1018 H 92.8933 -2.95971 -2.26345 0
M  V30 1019 H 93.0063 -4.60059 -1.33726 0
M  V30 1020 H 91.3703 -2.417 -0.803321 0
M  V30 1021 H 92.1533 -3.38743 0.557521 0
M  V30 1022 N 94.5984 0.214957 -1.56127 0
M  V30 1023 C 95.8454 0.938372 -1.79446 0
M  V30 1024 C 96.1734 1.8407 -0.628378 0
M  V30 1025 O 95.4284 1.91837 0.386925 0
M  V30 1026 C 95.7274 1.80314 -3.0858 0
M  V30 1027 C 95.3934 1.05349 -4.3842 0
M  V30 1028 C 94.0554 0.846435 -4.73697 0
M  V30 1029 C 96.4074 0.524588 -5.18553 0
M  V30 1030 C 93.7354 0.098683 -5.86617 0
M  V30 1031 C 96.0874 -0.209853 -6.32252 0
M  V30 1032 C 94.7514 -0.428102 -6.66126 0
M  V30 1033 H 94.0214 0.343375 -0.656639 0
M  V30 1034 H 96.6684 0.206077 -1.90388 0
M  V30 1035 H 94.9734 2.6035 -2.92789 0
M  V30 1036 H 96.6704 2.36513 -3.23825 0
M  V30 1037 H 93.2604 1.22486 -4.10725 0
M  V30 1038 H 97.4444 0.672008 -4.91729 0
M  V30 1039 H 92.7004 -0.0805753 -6.11347 0
M  V30 1040 H 96.8744 -0.627157 -6.9357 0
M  V30 1041 H 94.5014 -1.00944 -7.53468 0
M  V30 1042 N 96.0765 1.50051 0.48192 0
M  V30 1043 C 97.3225 1.60736 1.2366 0
M  V30 1044 C 97.6555 0.301786 1.91841 0
M  V30 1045 O 96.9305 -0.696025 1.8162 0
M  V30 1046 C 97.2135 2.78009 2.28874 0
M  V30 1047 C 97.0665 4.18416 1.65069 0
M  V30 1048 C 98.3855 2.90867 3.30279 0
M  V30 1049 H 95.5045 0.585031 0.448228 0
M  V30 1050 H 98.1465 1.82402 0.531946 0
M  V30 1051 H 96.2965 2.59667 2.88973 0
M  V30 1052 H 97.9685 4.48322 1.0865 0
M  V30 1053 H 96.2115 4.23177 0.954148 0
M  V30 1054 H 96.8825 4.96381 2.41474 0
M  V30 1055 H 99.3585 3.07623 2.80191 0
M  V30 1056 H 98.2345 3.74566 4.01238 0
M  V30 1057 H 98.4955 2.01021 3.93755 0
M  V30 1058 N 97.5546 -0.734337 1.39446 0
M  V30 1059 C 98.7796 -1.52866 1.40167 0
M  V30 1060 C 99.2046 -1.881 -0.00171513 0
M  V30 1061 O 98.5626 -1.51957 -0.988879 0
M  V30 1062 C 98.6106 -2.79235 2.28167 0
M  V30 1063 O 97.7146 -3.75185 1.71201 0
M  V30 1064 H 97.0556 -0.461618 0.477289 0
M  V30 1065 H 99.5856 -0.905949 1.8345 0
M  V30 1066 H 99.5956 -3.27963 2.42702 0
M  V30 1067 H 98.2706 -2.52923 3.30156 0
M  V30 1068 H 96.8476 -3.33958 1.65912 0
M  V30 1069 N 99.0327 -1.24633 -0.964593 0
M  V30 1070 C 99.9627 -1.06611 -2.07741 0
M  V30 1071 C 100.944 0.0218666 -1.70086 0
M  V30 1072 O 102.129 -0.145793 -1.93652 0
M  V30 1073 C 99.2587 -0.673444 -3.40708 0
M  V30 1074 C 98.2127 -1.71054 -3.92332 0
M  V30 1075 C 97.5387 -1.17285 -5.21678 0
M  V30 1076 C 98.8387 -3.10718 -4.19824 0
M  V30 1077 H 100.533 -1.99693 -2.23076 0
M  V30 1078 H 98.0787 -0.96152 -1.07195 0
M  V30 1079 H 100.032 -0.534345 -4.17998 0
M  V30 1080 H 98.7557 0.293073 -3.25282 0
M  V30 1081 H 97.4147 -1.83791 -3.17201 0
M  V30 1082 H 97.0627 -0.196847 -5.02615 0
M  V30 1083 H 96.7627 -1.86592 -5.57187 0
M  V30 1084 H 98.2867 -1.04593 -6.01575 0
M  V30 1085 H 99.7007 -3.01192 -4.87808 0
M  V30 1086 H 98.0977 -3.77406 -4.66567 0
M  V30 1087 H 99.1677 -3.58524 -3.26479 0
M  V30 1088 N 100.511 1.16574 -1.06058 0
M  V30 1089 C 101.759 1.86677 -0.77434 0
M  V30 1090 C 102.08 1.81959 0.701147 0
M  V30 1091 O 101.35 1.2515 1.50713 0
M  V30 1092 H 99.9298 0.691134 -0.283449 0
M  V30 1093 H 102.592 1.41378 -1.34158 0
M  V30 1094 H 101.688 2.92181 -1.09711 0
M  V30 1095 N 101.989 0.842826 1.3317 0
M  V30 1096 C 102.936 0.276885 2.29133 0
M  V30 1097 C 103.906 -0.609527 1.54512 0
M  V30 1098 O 105.091 -0.546955 1.82792 0
M  V30 1099 C 102.231 -0.538707 3.40869 0
M  V30 1100 C 101.344 0.372169 4.30394 0
M  V30 1101 C 100.479 -0.454908 5.29249 0
M  V30 1102 C 99.5179 0.45411 6.10413 0
M  V30 1103 N 98.6549 -0.335075 7.013 0
M  V30 1104 H 103.495 1.10052 2.76934 0
M  V30 1105 H 101.032 0.554161 1.36262 0
M  V30 1106 H 102.99 -1.02709 4.0436 0
M  V30 1107 H 101.62 -1.32727 2.9425 0
M  V30 1108 H 100.672 0.97888 3.6759 0
M  V30 1109 H 101.984 1.0703 4.87182 0
M  V30 1110 H 101.138 -1.00695 5.98285 0
M  V30 1111 H 99.8769 -1.18646 4.73048 0
M  V30 1112 H 98.8819 1.01813 5.40291 0
M  V30 1113 H 100.107 1.18409 6.68697 0
M  V30 1114 H 98.0529 -1.04994 6.47543 0
M  V30 1115 H 97.9699 0.304262 7.55387 0
M  V30 1116 H 99.2379 -0.869224 7.74638 0
M  V30 1117 N 103.467 -1.45747 0.599634 0
M  V30 1118 C 104.399 -2.28628 -0.161879 0
M  V30 1119 C 105.412 -1.39494 -0.839367 0
M  V30 1120 O 106.601 -1.63941 -0.706089 0
M  V30 1121 C 103.701 -3.15014 -1.24976 0
M  V30 1122 C 102.874 -4.32378 -0.660935 0
M  V30 1123 C 101.933 -5.00033 -1.63869 0
M  V30 1124 O 100.959 -5.57085 -1.1681 0
M  V30 1125 N 102.161 -4.98589 -2.97303 0
M  V30 1126 H 104.926 -2.94624 0.549265 0
M  V30 1127 H 102.487 -1.55847 0.438565 0
M  V30 1128 H 104.479 -3.5714 -1.9035 0
M  V30 1129 H 103.049 -2.5098 -1.86354 0
M  V30 1130 H 102.269 -3.9383 0.170688 0
M  V30 1131 H 103.557 -5.08197 -0.247619 0
M  V30 1132 H 102.955 -4.53514 -3.38145 0
M  V30 1133 H 101.512 -5.44603 -3.58121 0
M  V30 1134 N 104.945 -0.338344 -1.53925 0
M  V30 1135 C 106.194 0.260732 -2.00008 0
M  V30 1136 C 106.507 1.52073 -1.23017 0
M  V30 1137 O 107.713 2.19672 -1.5955 0
M  V30 1138 C 106.169 0.51515 -3.56194 0
M  V30 1139 C 105.777 -0.728645 -4.42035 0
M  V30 1140 C 107.521 1.07337 -4.10706 0
M  V30 1141 C 105.428 -0.445315 -5.89721 0
M  V30 1142 H 104.358 0.101205 -0.747177 0
M  V30 1143 H 107.009 -0.452866 -1.77824 0
M  V30 1144 H 105.391 1.28932 -3.74423 0
M  V30 1145 H 106.565 -1.50352 -4.35581 0
M  V30 1146 H 104.88 -1.20813 -3.98489 0
M  V30 1147 H 107.477 1.30022 -5.18651 0
M  V30 1148 H 107.82 2.0273 -3.63602 0
M  V30 1149 H 108.353 0.360034 -3.96167 0
M  V30 1150 H 105.092 -1.36883 -6.41049 0
M  V30 1151 H 104.612 0.291569 -5.99091 0
M  V30 1152 H 106.291 -0.0606218 -6.46972 0
M  V30 1153 N 106.423 1.57458 -0.0668435 0
M  V30 1154 C 107.373 2.0896 0.912119 0
M  V30 1155 C 108.357 0.998186 1.26195 0
M  V30 1156 O 109.549 1.26133 1.24175 0
M  V30 1157 C 106.678 2.6508 2.18145 0
M  V30 1158 C 105.764 3.81218 1.85832 0
M  V30 1159 N 106.155 4.90378 1.23948 0
M  V30 1160 C 104.453 3.9042 2.15612 0
M  V30 1161 C 105.154 5.71279 1.09616 0
M  V30 1162 N 104.13 5.19389 1.60423 0
M  V30 1163 H 107.932 2.90749 0.42924 0
M  V30 1164 H 105.446 1.6182 0.137184 0
M  V30 1165 H 107.443 3.0029 2.89192 0
M  V30 1166 H 106.103 1.84736 2.67025 0
M  V30 1167 H 107.114 5.09847 0.909731 0
M  V30 1168 H 103.791 3.21043 2.66903 0
M  V30 1169 H 105.181 6.69085 0.614425 0
M  V30 1170 N 107.901 -0.206675 1.56239 0
M  V30 1171 C 109.15 -0.926964 1.79138 0
M  V30 1172 C 109.463 -1.84901 0.638043 0
M  V30 1173 O 110.669 -2.60906 0.751033 0
M  V30 1174 C 109.125 -1.6986 3.17294 0
M  V30 1175 C 108.733 -0.821956 4.40395 0
M  V30 1176 C 110.477 -2.40922 3.4951 0
M  V30 1177 C 108.384 -1.59179 5.69575 0
M  V30 1178 H 107.314 -0.349864 0.667915 0
M  V30 1179 H 109.965 -0.180487 1.8261 0
M  V30 1180 H 108.347 -2.48853 3.08039 0
M  V30 1181 H 109.521 -0.0715019 4.60745 0
M  V30 1182 H 107.836 -0.222741 4.15804 0
M  V30 1183 H 110.433 -2.99047 4.43255 0
M  V30 1184 H 110.776 -3.14542 2.72707 0
M  V30 1185 H 111.309 -1.68905 3.60161 0
M  V30 1186 H 108.048 -0.898589 6.49312 0
M  V30 1187 H 107.568 -2.31648 5.53262 0
M  V30 1188 H 109.247 -2.14862 6.10281 0
M  V30 1189 N 109.379 -1.50304 -0.473955 0
M  V30 1190 C 110.309 -1.71886 -1.58042 0
M  V30 1191 C 111.29 -0.567799 -1.60344 0
M  V30 1192 O 112.475 -0.806623 -1.76656 0
M  V30 1193 C 109.605 -1.81036 -2.96384 0
M  V30 1194 C 108.559 -2.962 -3.08949 0
M  V30 1195 C 107.885 -2.9049 -4.48909 0
M  V30 1196 C 109.185 -4.36752 -2.86434 0
M  V30 1197 H 110.879 -2.64527 -1.40234 0
M  V30 1198 H 108.425 -1.27295 -0.673201 0
M  V30 1199 H 110.378 -1.94719 -3.73714 0
M  V30 1200 H 109.102 -0.850147 -3.15341 0
M  V30 1201 H 107.761 -2.82164 -2.3405 0
M  V30 1202 H 107.409 -1.92321 -4.64781 0
M  V30 1203 H 107.109 -3.67802 -4.58253 0
M  V30 1204 H 108.633 -3.06218 -5.28264 0
M  V30 1205 H 110.047 -4.5133 -3.53517 0
M  V30 1206 H 108.444 -5.15493 -3.07225 0
M  V30 1207 H 109.514 -4.49321 -1.82316 0
M  V30 1208 N 110.857 0.726932 -1.39834 0
M  V30 1209 C 111.82 1.82269 -1.38962 0
M  V30 1210 C 112.82 1.58248 -0.285334 0
M  V30 1211 O 114.01 1.65499 -0.54366 0
M  V30 1212 C 111.142 3.20186 -1.17019 0
M  V30 1213 H 112.335 1.84443 -2.36476 0
M  V30 1214 H 109.888 0.931416 -1.25516 0
M  V30 1215 H 110.623 3.23669 -0.202204 0
M  V30 1216 H 110.408 3.3902 -1.96998 0
M  V30 1217 H 111.898 4.00235 -1.1917 0
M  V30 1218 N 112.336 1.25143 0.95797 0
M  V30 1219 C 113.564 1.12424 1.73691 0
M  V30 1220 C 113.979 -0.322304 1.86029 0
M  V30 1221 O 113.336 -1.22186 1.35561 0
M  V30 1222 C 113.387 1.76933 3.15241 0
M  V30 1223 O 113.108 3.15932 3.03511 0
M  V30 1224 C 114.609 1.6995 4.09429 0
M  V30 1225 H 111.829 0.3923 0.544373 0
M  V30 1226 H 114.373 1.6544 1.20207 0
M  V30 1227 H 112.528 1.27895 3.6568 0
M  V30 1228 H 112.942 3.47598 3.9278 0
M  V30 1229 H 114.416 2.19753 5.06372 0
M  V30 1230 H 114.893 0.662619 4.34173 0
M  V30 1231 H 115.499 2.18461 3.64904 0
M  V30 1232 N 113.814 -1.1601 1.06675 0
M  V30 1233 C 115.039 -1.91068 0.806706 0
M  V30 1234 C 115.464 -1.77112 -0.633485 0
M  V30 1235 O 114.822 -1.09908 -1.44187 0
M  V30 1236 C 114.87 -3.39655 1.21106 0
M  V30 1237 O 113.974 -4.10893 0.352189 0
M  V30 1238 H 113.315 -0.595125 0.294486 0
M  V30 1239 H 115.845 -1.46955 1.42356 0
M  V30 1240 H 115.855 -3.90434 1.18428 0
M  V30 1241 H 114.53 -3.49132 2.26008 0
M  V30 1242 H 113.107 -3.70285 0.440868 0
M  V30 1243 N 115.292 -0.849877 -1.32721 0
M  V30 1244 C 116.703 -0.506188 -1.79707 0
M  V30 1245 C 117.054 0.975627 -1.70223 0
M  V30 1246 O 116.179 1.76078 -1.25799 0
M  V30 1247 C 116.774 -0.912044 -3.26293 0
M  V30 1248 C 115.333 -0.620326 -3.71253 0
M  V30 1249 C 114.48 -1.11439 -2.53922 0
M  V30 1250 H 117.431 -1.03754 -1.20087 0
M  V30 1251 H 117.452 -0.226493 -3.79825 0
M  V30 1252 H 116.964 -1.99057 -3.33164 0
M  V30 1253 H 115.065 0.447674 -3.69901 0
M  V30 1254 H 115.178 -1.18327 -4.64258 0
M  V30 1255 H 113.542 -0.534834 -2.49021 0
M  V30 1256 H 114.325 -2.19992 -2.6355 0
M  V30 1257 N 116.77 1.45427 -0.607355 0
M  V30 1258 C 117.68 2.34325 0.113463 0
M  V30 1259 C 118.696 1.51226 0.860617 0
M  V30 1260 O 119.872 1.84029 0.818255 0
M  V30 1261 C 116.937 3.28839 1.09844 0
M  V30 1262 C 115.998 4.27844 0.353271 0
M  V30 1263 C 115.231 5.17842 1.29133 0
M  V30 1264 O 115.454 5.11264 2.52913 0
M  V30 1265 O 114.388 5.96713 0.788523 0
M  V30 1266 H 118.214 2.97364 -0.617094 0
M  V30 1267 H 115.799 1.44807 -0.367619 0
M  V30 1268 H 117.681 3.8708 1.66575 0
M  V30 1269 H 116.356 2.68365 1.81003 0
M  V30 1270 H 115.263 3.7322 -0.256494 0
M  V30 1271 H 116.596 4.91173 -0.317822 0
M  V30 1272 N 118.248 0.346503 1.53744 0
M  V30 1273 C 119.476 -0.25041 2.05379 0
M  V30 1274 C 119.891 -1.43979 1.22129 0
M  V30 1275 O 119.248 -1.80677 0.257321 0
M  V30 1276 C 119.299 -0.662575 3.55376 0
M  V30 1277 O 119.02 0.479515 4.35468 0
M  V30 1278 C 120.521 -1.31989 4.23195 0
M  V30 1279 H 117.741 -0.0478198 0.669294 0
M  V30 1280 H 120.285 0.499346 1.9831 0
M  V30 1281 H 118.44 -1.36227 3.62658 0
M  V30 1282 H 118.854 0.15037 5.24284 0
M  V30 1283 H 120.328 -1.55902 5.29527 0
M  V30 1284 H 120.805 -2.27436 3.75725 0
M  V30 1285 H 121.411 -0.662154 4.20114 0
M  V30 1286 N 119.726 -1.57421 0.075193 0
M  V30 1287 C 120.972 -1.93905 -0.594025 0
M  V30 1288 C 121.305 -0.955701 -1.69056 0
M  V30 1289 O 120.58 0.0145373 -1.94495 0
M  V30 1290 C 120.863 -3.40638 -1.1678 0
M  V30 1291 C 120.716 -4.49733 -0.0776792 0
M  V30 1292 C 122.035 -3.88259 -2.07228 0
M  V30 1293 H 119.154 -0.705105 -0.214466 0
M  V30 1294 H 121.796 -1.8947 0.141854 0
M  V30 1295 H 119.946 -3.44549 -1.79494 0
M  V30 1296 H 121.618 -4.57942 0.555573 0
M  V30 1297 H 119.861 -4.29751 0.591286 0
M  V30 1298 H 120.532 -5.49549 -0.519603 0
M  V30 1299 H 123.008 -3.86376 -1.54445 0
M  V30 1300 H 121.884 -4.91533 -2.44308 0
M  V30 1301 H 122.145 -3.26396 -2.98191 0
M  V30 1302 N 121.204 0.198386 -1.56346 0
M  V30 1303 C 122.45 0.920648 -1.80698 0
M  V30 1304 C 122.783 1.83045 -0.648697 0
M  V30 1305 O 122.058 1.91308 0.350925 0
M  V30 1306 C 122.341 1.73971 -3.15287 0
M  V30 1307 C 122.194 0.85485 -4.41602 0
M  V30 1308 C 123.513 2.71296 -3.46535 0
M  V30 1309 H 120.632 0.333261 -0.657348 0
M  V30 1310 H 123.274 0.188198 -1.89066 0
M  V30 1311 H 121.424 2.36416 -3.08285 0
M  V30 1312 H 123.096 0.245362 -4.60647 0
M  V30 1313 H 121.339 0.161398 -4.335 0
M  V30 1314 H 122.01 1.46286 -5.32264 0
M  V30 1315 H 124.486 2.18983 -3.53816 0
M  V30 1316 H 123.362 3.2569 -4.41834 0
M  V30 1317 H 123.623 3.5018 -2.69864 0
M  V30 1318 N 122.682 1.50554 0.465978 0
M  V30 1319 C 123.629 1.6979 1.56333 0
M  V30 1320 C 124.599 0.539239 1.57103 0
M  V30 1321 O 125.784 0.770401 1.74555 0
M  V30 1322 C 122.924 1.80273 2.94271 0
M  V30 1323 C 122.037 3.07674 3.0325 0
M  V30 1324 C 121.172 3.08922 4.32135 0
M  V30 1325 C 120.211 4.30755 4.34875 0
M  V30 1326 N 119.348 4.29714 5.55239 0
M  V30 1327 H 124.188 2.63472 1.39235 0
M  V30 1328 H 121.725 1.30602 0.676873 0
M  V30 1329 H 123.683 1.84332 3.74269 0
M  V30 1330 H 122.313 0.900258 3.09992 0
M  V30 1331 H 121.365 3.13062 2.16094 0
M  V30 1332 H 122.677 3.97642 3.01135 0
M  V30 1333 H 121.831 3.11738 5.20485 0
M  V30 1334 H 120.57 2.16792 4.36866 0
M  V30 1335 H 119.575 4.28146 3.44922 0
M  V30 1336 H 120.8 5.24117 4.31831 0
M  V30 1337 H 118.746 3.4044 5.60746 0
M  V30 1338 H 118.663 5.13456 5.54886 0
M  V30 1339 H 119.931 4.36683 6.457 0
M  V30 1340 N 124.16 -0.719506 1.40217 0
M  V30 1341 C 125.123 -1.8153 1.39927 0
M  V30 1342 C 126.123 -1.58095 0.293723 0
M  V30 1343 O 127.313 -1.65209 0.552429 0
M  V30 1344 C 124.445 -3.19561 1.18716 0
M  V30 1345 H 125.638 -1.83186 2.37451 0
M  V30 1346 H 123.191 -0.924746 1.26008 0
M  V30 1347 H 123.926 -3.23557 0.219366 0
M  V30 1348 H 123.711 -3.3797 1.98793 0
M  V30 1349 H 125.201 -3.99598 1.21291 0
M  V30 1350 N 125.638 -1.25649 -0.95132 0
M  V30 1351 C 126.601 -1.06399 -2.03007 0
M  V30 1352 C 127.601 -0.0156794 -1.60792 0
M  V30 1353 O 128.791 -0.25817 -1.72276 0
M  V30 1354 C 125.923 -0.616184 -3.35285 0
M  V30 1355 H 127.116 -2.02164 -2.21517 0
M  V30 1356 H 124.669 -1.08103 -1.12887 0
M  V30 1357 H 125.404 0.343917 -3.22471 0
M  V30 1358 H 125.189 -1.37301 -3.67275 0
M  V30 1359 H 126.679 -0.503032 -4.14559 0
M  V30 1360 N 127.117 1.15442 -1.07289 0
M  V30 1361 C 128.064 2.20161 -0.692653 0
M  V30 1362 C 129.034 1.63073 0.31564 0
M  V30 1363 O 130.219 1.89725 0.202235 0
M  V30 1364 C 127.359 3.44967 -0.0959509 0
M  V30 1365 C 126.472 4.16256 -1.15564 0
M  V30 1366 C 125.607 5.28609 -0.524011 0
M  V30 1367 C 124.646 5.91715 -1.56653 0
M  V30 1368 N 123.783 6.9554 -0.957531 0
M  V30 1369 H 128.623 2.52037 -1.59002 0
M  V30 1370 H 126.16 1.2378 -0.794798 0
M  V30 1371 H 128.118 4.16341 0.267628 0
M  V30 1372 H 126.748 3.1361 0.764772 0
M  V30 1373 H 125.8 3.43385 -1.6368 0
M  V30 1374 H 127.112 4.59268 -1.94613 0
M  V30 1375 H 126.266 6.06604 -0.108032 0
M  V30 1376 H 125.005 4.86787 0.29825 0
M  V30 1377 H 124.01 5.12433 -1.9923 0
M  V30 1378 H 125.235 6.35614 -2.39107 0
M  V30 1379 H 123.181 6.55814 -0.156162 0
M  V30 1380 H 123.098 7.36977 -1.68526 0
M  V30 1381 H 124.366 7.77435 -0.567032 0
M  V30 1382 N 128.595 0.856903 1.32268 0
M  V30 1383 C 129.825 0.47475 2.01071 0
M  V30 1384 C 130.233 -0.933746 1.64553 0
M  V30 1385 O 129.576 -1.62114 0.863989 0
M  V30 1386 C 129.638 0.536746 3.55471 0
M  V30 1387 C 129.302 1.90453 4.15423 0
M  V30 1388 C 130.299 2.87029 4.33486 0
M  V30 1389 C 127.984 2.20229 4.51447 0
M  V30 1390 C 129.978 4.11532 4.86744 0
M  V30 1391 C 127.665 3.44984 5.0441 0
M  V30 1392 C 128.663 4.40452 5.22007 0
M  V30 1393 O 128.351 5.62998 5.73837 0
M  V30 1394 H 128.083 0.184778 0.650256 0
M  V30 1395 H 130.637 1.15615 1.69771 0
M  V30 1396 H 128.867 -0.20152 3.86175 0
M  V30 1397 H 130.556 0.169875 4.05544 0
M  V30 1398 H 131.322 2.6533 4.05986 0
M  V30 1399 H 127.201 1.46705 4.37034 0
M  V30 1400 H 130.745 4.86056 5.00395 0
M  V30 1401 H 126.642 3.66532 5.31342 0
M  V30 1402 H 127.41 5.64987 5.92226 0
M  V30 1403 N 130.073 -1.45103 0.615059 0
M  V30 1404 C 131.321 -2.01784 0.112955 0
M  V30 1405 C 131.642 -1.48504 -1.26378 0
M  V30 1406 O 130.912 -0.682245 -1.83636 0
M  V30 1407 H 129.492 -0.745993 0.0387668 0
M  V30 1408 H 132.154 -1.77808 0.798141 0
M  V30 1409 H 131.25 -3.12025 0.0684069 0
M  V30 1410 N 131.551 -0.354651 -1.53558 0
M  V30 1411 C 132.484 0.540273 -2.21712 0
M  V30 1412 C 133.462 1.09161 -1.2051 0
M  V30 1413 O 134.646 1.14979 -1.49372 0
M  V30 1414 C 131.773 1.74435 -2.90328 0
M  V30 1415 C 130.819 1.32146 -4.05512 0
M  V30 1416 S 131.652 0.331924 -5.3447 0
M  V30 1417 C 132.808 1.54258 -6.06593 0
M  V30 1418 H 133.041 -0.0385776 -2.97275 0
M  V30 1419 H 130.574 -0.138736 -1.53775 0
M  V30 1420 H 132.532 2.43507 -3.30476 0
M  V30 1421 H 131.193 2.29444 -2.1451 0
M  V30 1422 H 130.386 2.21952 -4.52497 0
M  V30 1423 H 129.988 0.710091 -3.67197 0
M  V30 1424 H 132.28 2.47534 -6.30661 0
M  V30 1425 H 133.223 1.11431 -6.99277 0
M  V30 1426 H 133.631 1.74367 -5.36895 0
M  V30 1427 N 133.029 1.57378 -0.0835403 0
M  V30 1428 C 134.44 1.81261 0.447358 0
M  V30 1429 C 134.791 0.998331 1.68902 0
M  V30 1430 O 133.916 0.224282 2.15235 0
M  V30 1431 C 134.511 3.28767 0.818386 0
M  V30 1432 C 133.07 3.53455 1.29409 0
M  V30 1433 C 132.217 2.75831 0.285024 0
M  V30 1434 H 135.168 1.5566 -0.309115 0
M  V30 1435 H 135.189 3.41459 1.67887 0
M  V30 1436 H 134.701 3.88006 -0.0855019 0
M  V30 1437 H 132.802 2.99534 2.21608 0
M  V30 1438 H 132.915 4.62128 1.2639 0
M  V30 1439 H 131.279 2.42947 0.764767 0
M  V30 1440 H 132.062 3.37813 -0.611341 0
M  V30 1441 N 134.507 -0.190092 1.56449 0
M  V30 1442 C 135.437 -1.23816 1.97969 0
M  V30 1443 C 136.418 -1.47201 0.852395 0
M  V30 1444 O 137.603 -1.58854 1.1171 0
M  V30 1445 C 134.733 -2.5813 2.3235 0
M  V30 1446 C 133.687 -2.49348 3.47864 0
M  V30 1447 C 133.013 -3.8798 3.67934 0
M  V30 1448 C 134.313 -2.01424 4.81898 0
M  V30 1449 H 136.007 -0.89311 2.85769 0
M  V30 1450 H 133.553 -0.428177 1.37487 0
M  V30 1451 H 135.506 -3.31637 2.59991 0
M  V30 1452 H 134.23 -2.94386 1.41438 0
M  V30 1453 H 132.889 -1.78297 3.20321 0
M  V30 1454 H 132.537 -4.21597 2.74344 0
M  V30 1455 H 132.237 -3.82978 4.45648 0
M  V30 1456 H 133.761 -4.63101 3.97957 0
M  V30 1457 H 135.175 -2.64693 5.08538 0
M  V30 1458 H 133.572 -2.07413 5.63116 0
M  V30 1459 H 134.642 -0.967677 4.75146 0
M  V30 1460 N 135.985 -1.50799 -0.457987 0
M  V30 1461 C 136.915 -1.73553 -1.5621 0
M  V30 1462 C 137.896 -0.584774 -1.59732 0
M  V30 1463 O 139.081 -0.825314 -1.7579 0
M  V30 1464 C 136.211 -1.84169 -2.94447 0
M  V30 1465 C 135.165 -2.99461 -3.0579 0
M  V30 1466 C 134.491 -2.95235 -4.45803 0
M  V30 1467 C 135.791 -4.39766 -2.81786 0
M  V30 1468 H 137.485 -2.66 -1.37421 0
M  V30 1469 H 135.031 -1.28002 -0.659662 0
M  V30 1470 H 136.984 -1.98672 -3.71628 0
M  V30 1471 H 135.708 -0.883545 -3.14422 0
M  V30 1472 H 134.367 -2.8463 -2.31044 0
M  V30 1473 H 134.015 -1.97239 -4.62715 0
M  V30 1474 H 133.715 -3.72642 -4.54326 0
M  V30 1475 H 135.239 -3.11803 -5.24987 0
M  V30 1476 H 136.653 -4.55054 -3.4871 0
M  V30 1477 H 135.05 -5.18722 -3.0174 0
M  V30 1478 H 136.12 -4.51229 -1.7754 0
M  V30 1479 N 137.463 0.71206 -1.40597 0
M  V30 1480 C 138.71 1.47197 -1.39065 0
M  V30 1481 C 139.038 1.94499 0.00583891 0
M  V30 1482 O 138.293 1.68752 0.99102 0
M  V30 1483 C 138.592 2.71039 -2.32965 0
M  V30 1484 C 138.258 2.42484 -3.80148 0
M  V30 1485 C 136.92 2.34406 -4.20247 0
M  V30 1486 C 139.272 2.18598 -4.73143 0
M  V30 1487 C 136.6 2.00516 -5.51371 0
M  V30 1488 C 138.952 1.8622 -6.0457 0
M  V30 1489 C 137.616 1.76626 -6.43708 0
M  V30 1490 H 136.886 0.538634 -0.508876 0
M  V30 1491 H 139.533 0.815325 -1.73276 0
M  V30 1492 H 137.838 3.41558 -1.91951 0
M  V30 1493 H 139.535 3.29138 -2.29061 0
M  V30 1494 H 136.125 2.49659 -3.4838 0
M  V30 1495 H 140.309 2.23793 -4.42979 0
M  V30 1496 H 135.565 1.91628 -5.80593 0
M  V30 1497 H 139.739 1.66752 -6.76141 0
M  V30 1498 H 137.366 1.50133 -7.45228 0
M  V30 1499 N 138.941 1.26152 0.944643 0
M  V30 1500 C 139.888 1.07408 2.04285 0
M  V30 1501 C 140.858 -0.0198413 1.66088 0
M  V30 1502 O 142.043 0.139264 1.90291 0
M  V30 1503 C 139.183 0.70945 3.37729 0
M  V30 1504 C 138.296 1.87926 3.88983 0
M  V30 1505 C 137.431 1.45807 5.10797 0
M  V30 1506 C 136.47 2.5964 5.54305 0
M  V30 1507 N 135.607 2.18226 6.67324 0
M  V30 1508 H 140.447 2.01389 2.1965 0
M  V30 1509 H 137.984 1.00275 1.07626 0
M  V30 1510 H 139.942 0.478948 4.14442 0
M  V30 1511 H 138.572 -0.193389 3.2222 0
M  V30 1512 H 137.624 2.22279 3.08701 0
M  V30 1513 H 138.936 2.73377 4.17213 0
M  V30 1514 H 138.09 1.18781 5.94959 0
M  V30 1515 H 136.829 0.574414 4.84305 0
M  V30 1516 H 135.834 2.87399 4.68702 0
M  V30 1517 H 137.059 3.48599 5.828 0
M  V30 1518 H 135.005 1.3229 6.42523 0
M  V30 1519 H 134.922 2.97221 6.95123 0
M  V30 1520 H 136.19 1.94403 7.54869 0
M  V30 1521 N 140.419 -1.14872 1.07899 0
M  V30 1522 C 141.665 -1.86289 0.81657 0
M  V30 1523 C 142.02 -1.8107 -0.65049 0
M  V30 1524 O 141.313 -1.22684 -1.47171 0
M  V30 1525 C 141.507 -3.34223 1.26609 0
M  V30 1526 C 141.336 -3.53846 2.77531 0
M  V30 1527 C 140.106 -3.68995 3.45212 0
M  V30 1528 C 142.304 -3.51201 3.75716 0
M  V30 1529 N 140.286 -3.76725 4.84718 0
M  V30 1530 C 141.657 -3.65112 5.01092 0
M  V30 1531 C 143.712 -3.34507 3.68794 0
M  V30 1532 C 142.415 -3.64056 6.20368 0
M  V30 1533 C 144.441 -3.34752 4.8754 0
M  V30 1534 C 143.803 -3.49199 6.11751 0
M  V30 1535 H 139.902 -0.698579 0.351443 0
M  V30 1536 H 142.486 -1.37713 1.37634 0
M  V30 1537 H 140.657 -3.81402 0.73395 0
M  V30 1538 H 142.389 -3.93377 0.95062 0
M  V30 1539 H 139.144 -3.70006 2.95622 0
M  V30 1540 H 139.568 -3.8432 5.5734 0
M  V30 1541 H 144.21 -3.22253 2.73702 0
M  V30 1542 H 141.928 -3.75087 7.15776 0
M  V30 1543 H 145.514 -3.23055 4.83866 0
M  V30 1544 H 144.394 -3.49328 7.02097 0
M  V30 1545 N 141.898 -0.863906 -1.31812 0
M  V30 1546 C 143.175 -0.39275 -1.91616 0
M  V30 1547 C 143.555 1.12461 -1.7865 0
M  V30 1548 O 142.903 1.95045 -1.19037 0
M  V30 1549 C 143.113 -0.867385 -3.38049 0
M  V30 1550 C 144.461 -0.889966 -4.15168 0
M  V30 1551 O 145.485 -0.812635 -3.46806 0
M  V30 1552 O 144.344 -1.00079 -5.37258 0
M  V30 1553 H 141.438 -0.116358 -0.818773 0
M  V30 1554 H 143.984 -0.951418 -1.40521 0
M  V30 1555 H 142.756 -1.91081 -3.41473 0
M  V30 1556 H 142.379 -0.286687 -3.96565 0
M  V30 1557 N 143.376 1.44774 -0.622745 0
M  V30 1558 C 144.653 1.95522 -0.0551974 0
M  V30 1559 C 145.033 1.5649 1.41683 0
M  V30 1560 O 144.381 0.834848 2.12703 0
M  V30 1561 C 144.591 3.4796 -0.269242 0
M  V30 1562 C 145.939 4.24306 -0.158014 0
M  V30 1563 O 146.963 3.55637 -0.200162 0
M  V30 1564 O 145.822 5.46471 -0.0558693 0
M  V30 1565 H 142.916 0.826556 0.0271015 0
M  V30 1566 H 145.462 1.54866 -0.693864 0
M  V30 1567 H 144.234 3.6939 -1.29099 0
M  V30 1568 H 143.857 3.95543 0.403966 0
M  V30 1569 N 144.854 0.36279 1.53368 0
M  V30 1570 C 146.079 -0.231226 2.06107 0
M  V30 1571 C 146.504 -1.419 1.23474 0
M  V30 1572 O 145.862 -1.79524 0.253128 0
M  V30 1573 C 145.91 -0.605523 3.5548 0
M  V30 1574 O 145.014 -1.70312 3.7559 0
M  V30 1575 H 144.355 -0.034327 0.663112 0
M  V30 1576 H 146.885 0.522584 1.97814 0
M  V30 1577 H 146.895 -0.877314 3.98456 0
M  V30 1578 H 145.57 0.263004 4.15068 0
M  V30 1579 H 144.147 -1.4271 3.44512 0
M  V30 1580 N 146.332 -1.57332 0.0918853 0
M  V30 1581 C 147.264 -2.10869 -0.898168 0
M  V30 1582 C 148.277 -1.04521 -1.24817 0
M  V30 1583 O 149.466 -1.31977 -1.20184 0
M  V30 1584 C 146.566 -2.57083 -2.2082 0
M  V30 1585 C 145.739 -3.87229 -2.03402 0
M  V30 1586 C 144.798 -4.19324 -3.17889 0
M  V30 1587 O 143.824 -4.88598 -2.91994 0
M  V30 1588 N 145.026 -3.74471 -4.43567 0
M  V30 1589 H 147.791 -2.96439 -0.440943 0
M  V30 1590 H 145.352 -1.61631 -0.0933064 0
M  V30 1591 H 147.344 -2.75602 -2.96354 0
M  V30 1592 H 145.914 -1.76541 -2.57977 0
M  V30 1593 H 145.134 -3.7789 -1.12218 0
M  V30 1594 H 146.422 -4.72379 -1.89038 0
M  V30 1595 H 145.82 -3.18546 -4.67488 0
M  V30 1596 H 144.377 -3.98151 -5.16061 0
M  V30 1597 N 147.81 0.181792 -1.56548 0
M  V30 1598 C 148.742 1.24956 -1.92142 0
M  V30 1599 C 149.755 1.41022 -0.813422 0
M  V30 1600 O 150.944 1.41212 -1.09186 0
M  V30 1601 C 148.044 2.61981 -2.14987 0
M  V30 1602 C 147.217 2.6735 -3.46183 0
M  V30 1603 C 146.276 3.85664 -3.5798 0
M  V30 1604 O 145.302 3.72148 -4.30691 0
M  V30 1605 N 146.504 5.01683 -2.92053 0
M  V30 1606 H 149.269 0.947329 -2.84334 0
M  V30 1607 H 146.83 0.371629 -1.57577 0
M  V30 1608 H 148.822 3.3958 -2.20154 0
M  V30 1609 H 147.392 2.84637 -1.2923 0
M  V30 1610 H 146.612 1.75925 -3.52766 0
M  V30 1611 H 147.9 2.67939 -4.32534 0
M  V30 1612 H 147.298 5.15564 -2.32832 0
M  V30 1613 H 145.855 5.77181 -3.0283 0
M  V30 1614 N 149.288 1.51039 0.449983 0
M  V30 1615 C 150.235 1.71439 1.54523 0
M  V30 1616 C 151.205 0.555871 1.56522 0
M  V30 1617 O 152.39 0.788871 1.73728 0
M  V30 1618 C 149.53 1.83384 2.92343 0
M  V30 1619 C 148.643 3.10873 2.9997 0
M  V30 1620 C 147.778 3.13488 4.28834 0
M  V30 1621 C 146.817 4.35343 4.30282 0
M  V30 1622 N 145.954 4.35579 5.5065 0
M  V30 1623 H 150.794 2.64934 1.36433 0
M  V30 1624 H 148.331 1.31312 0.662982 0
M  V30 1625 H 150.289 1.88291 3.72293 0
M  V30 1626 H 148.919 0.933086 3.0902 0
M  V30 1627 H 147.971 3.15336 2.12761 0
M  V30 1628 H 149.283 4.00814 2.96901 0
M  V30 1629 H 148.437 3.17241 5.17149 0
M  V30 1630 H 147.176 2.21414 4.34543 0
M  V30 1631 H 146.181 4.3178 3.40362 0
M  V30 1632 H 147.406 5.28668 4.26248 0
M  V30 1633 H 145.352 3.46369 5.57104 0
M  V30 1634 H 145.269 5.19313 5.49409 0
M  V30 1635 H 146.537 4.43507 6.41032 0
M  V30 1636 N 150.766 -0.704594 1.40972 0
M  V30 1637 C 152.182 -1.01406 1.23244 0
M  V30 1638 C 152.382 -2.01169 0.115399 0
M  V30 1639 O 151.438 -2.47021 -0.523147 0
M  V30 1640 C 152.751 -1.54728 2.57836 0
M  V30 1641 C 154.299 -1.66658 2.64942 0
M  V30 1642 C 154.774 -2.23383 3.9983 0
M  V30 1643 N 156.265 -2.30756 4.01629 0
M  V30 1644 C 157 -2.75655 5.02794 0
M  V30 1645 N 156.496 -3.20225 6.14352 0
M  V30 1646 N 158.289 -2.75138 4.90159 0
M  V30 1647 H 150.44 -0.0435285 2.12355 0
M  V30 1648 H 152.703 -0.0818951 0.944456 0
M  V30 1649 H 152.409 -0.888832 3.40283 0
M  V30 1650 H 152.283 -2.53084 2.79693 0
M  V30 1651 H 154.67 -2.31617 1.8286 0
M  V30 1652 H 154.751 -0.668717 2.46904 0
M  V30 1653 H 154.395 -1.59043 4.82357 0
M  V30 1654 H 154.325 -3.23904 4.15203 0
M  V30 1655 H 156.816 -1.99291 3.21079 0
M  V30 1656 H 157.129 -3.53084 6.87424 0
M  V30 1657 H 155.474 -3.18156 6.17901 0
M  V30 1658 H 158.665 -2.39661 4.02095 0
M  V30 1659 H 158.838 -3.09812 5.6914 0
M  V30 1660 N 152.244 -1.26651 -0.937939 0
M  V30 1661 C 153.493 -1.11775 -1.67897 0
M  V30 1662 C 153.806 0.33794 -1.92659 0
M  V30 1663 O 155.012 0.607434 -2.64618 0
M  V30 1664 C 153.468 -1.9523 -3.02346 0
M  V30 1665 C 153.076 -3.45393 -2.8532 0
M  V30 1666 C 154.82 -1.88972 -3.80118 0
M  V30 1667 C 152.727 -4.21083 -4.15263 0
M  V30 1668 H 151.657 -0.414696 -0.629717 0
M  V30 1669 H 154.308 -1.50988 -1.04283 0
M  V30 1670 H 152.69 -1.48853 -3.66959 0
M  V30 1671 H 153.864 -3.99561 -2.29537 0
M  V30 1672 H 152.179 -3.52921 -2.20988 0
M  V30 1673 H 154.776 -2.42805 -4.76392 0
M  V30 1674 H 155.119 -0.86113 -4.07296 0
M  V30 1675 H 155.652 -2.33189 -3.22285 0
M  V30 1676 H 152.391 -5.24425 -3.93267 0
M  V30 1677 H 151.911 -3.71695 -4.70747 0
M  V30 1678 H 153.59 -4.29706 -4.83696 0
M  V30 1679 N 153.722 1.14298 -1.08507 0
M  V30 1680 C 154.632 2.23027 -0.727753 0
M  V30 1681 C 155.648 1.71952 0.26619 0
M  V30 1682 O 156.824 2.011 0.109882 0
M  V30 1683 C 153.889 3.46403 -0.143541 0
M  V30 1684 C 152.95 4.12413 -1.19223 0
M  V30 1685 C 152.183 5.29899 -0.635798 0
M  V30 1686 O 152.406 5.67796 0.544393 0
M  V30 1687 O 151.34 5.85717 -1.38634 0
M  V30 1688 H 155.166 2.55945 -1.63481 0
M  V30 1689 H 152.751 1.22248 -0.858817 0
M  V30 1690 H 154.633 4.21018 0.179404 0
M  V30 1691 H 153.308 3.15206 0.736659 0
M  V30 1692 H 152.215 3.39667 -1.56772 0
M  V30 1693 H 153.548 4.47718 -2.04474 0
M  V30 1694 N 155.201 0.870884 1.31352 0
M  V30 1695 C 156.131 0.343096 2.30966 0
M  V30 1696 C 157.112 -0.566507 1.60389 0
M  V30 1697 O 158.297 -0.483336 1.88089 0
M  V30 1698 C 155.427 -0.455487 3.443 0
M  V30 1699 C 154.381 0.361103 4.26474 0
M  V30 1700 C 153.707 -0.563221 5.31725 0
M  V30 1701 C 155.007 1.59566 4.97329 0
M  V30 1702 H 156.701 1.17548 2.75359 0
M  V30 1703 H 154.247 0.566686 1.32381 0
M  V30 1704 H 156.2 -0.83525 4.13039 0
M  V30 1705 H 154.924 -1.32139 2.98675 0
M  V30 1706 H 153.583 0.722825 3.59403 0
M  V30 1707 H 153.231 -1.42643 4.82351 0
M  V30 1708 H 152.931 -0.0207409 5.87596 0
M  V30 1709 H 154.455 -0.939808 6.03324 0
M  V30 1710 H 155.869 1.28728 5.58661 0
M  V30 1711 H 154.266 2.07728 5.63 0
M  V30 1712 H 155.336 2.34798 4.24262 0
M  V30 1713 N 156.679 -1.44442 0.630414 0
M  V30 1714 C 157.609 -2.33418 -0.0618083 0
M  V30 1715 C 158.59 -1.48165 -0.835541 0
M  V30 1716 O 159.775 -1.76886 -0.801564 0
M  V30 1717 C 156.905 -3.31222 -1.04449 0
M  V30 1718 C 155.859 -4.26288 -0.382436 0
M  V30 1719 C 155.185 -5.13954 -1.47497 0
M  V30 1720 C 156.485 -5.1744 0.710865 0
M  V30 1721 H 158.179 -2.91548 0.681184 0
M  V30 1722 H 155.725 -1.40191 0.329026 0
M  V30 1723 H 157.678 -3.92351 -1.53748 0
M  V30 1724 H 156.402 -2.71299 -1.81836 0
M  V30 1725 H 155.061 -3.6649 0.0899054 0
M  V30 1726 H 154.709 -4.50385 -2.2397 0
M  V30 1727 H 154.409 -5.7837 -1.03737 0
M  V30 1728 H 155.933 -5.77955 -1.96979 0
M  V30 1729 H 157.347 -5.72509 0.300996 0
M  V30 1730 H 155.744 -5.90455 1.07156 0
M  V30 1731 H 156.814 -4.58496 1.57829 0
M  V30 1732 N 158.157 -0.370918 -1.53173 0
M  V30 1733 C 159.105 0.488101 -2.27421 0
M  V30 1734 C 160.099 1.07884 -1.30604 0
M  V30 1735 O 161.305 1.02143 -1.48212 0
M  V30 1736 H 157.68 0.176134 -0.731082 0
M  V30 1737 H 159.651 -0.159815 -2.97972 0
M  V30 1738 C 158.4 1.61306 -3.08019 0
M  V30 1739 H 157.723 1.1678 -3.82364 0
M  V30 1740 H 159.163 2.18872 -3.63141 0
M  V30 1741 C 157.622 2.55848 -2.19188 0
M  V30 1742 O 158.152 3.58799 -1.80626 0
M  V30 1743 N 156.358 2.2516 -1.83715 0
M  V30 1744 H 155.905 1.41476 -2.15273 0
M  V30 1745 H 155.863 2.8867 -1.24567 0
M  V30 1746 N 159.635 1.57281 -0.100228 0
M  V30 1747 C 160.585 2.10848 0.86759 0
M  V30 1748 C 161.569 1.02473 1.24049 0
M  V30 1749 O 162.761 1.28739 1.21471 0
M  V30 1750 C 159.89 2.69648 2.12474 0
M  V30 1751 C 158.976 3.85074 1.77704 0
M  V30 1752 N 159.367 4.92897 1.13518 0
M  V30 1753 C 157.665 3.94905 2.07282 0
M  V30 1754 C 158.366 5.73475 0.974735 0
M  V30 1755 N 157.342 5.22675 1.4937 0
M  V30 1756 H 161.144 2.91594 0.367471 0
M  V30 1757 H 158.658 1.62074 0.102829 0
M  V30 1758 H 160.655 3.06356 2.82757 0
M  V30 1759 H 159.315 1.90359 2.63047 0
M  V30 1760 H 160.326 5.11662 0.801381 0
M  V30 1761 H 157.003 3.26633 2.60033 0
M  V30 1762 H 158.393 6.70238 0.472364 0
M  V30 1763 N 161.113 -0.173488 1.56642 0
M  V30 1764 C 162.343 -0.904781 1.85734 0
M  V30 1765 C 162.751 -1.76431 0.68328 0
M  V30 1766 O 162.094 -1.802 -0.356865 0
M  V30 1767 C 162.156 -1.83382 3.09211 0
M  V30 1768 C 161.82 -1.15411 4.42187 0
M  V30 1769 C 162.817 -0.520609 5.17287 0
M  V30 1770 C 160.502 -1.15151 4.88923 0
M  V30 1771 C 162.496 0.106412 6.37311 0
M  V30 1772 C 160.183 -0.520664 6.08878 0
M  V30 1773 C 161.181 0.107196 6.82916 0
M  V30 1774 O 160.869 0.728102 8.00596 0
M  V30 1775 H 160.601 -0.268408 0.62043 0
M  V30 1776 H 163.155 -0.179096 2.04618 0
M  V30 1777 H 161.385 -2.59976 2.86268 0
M  V30 1778 H 163.074 -2.43476 3.24768 0
M  V30 1779 H 163.84 -0.514606 4.82262 0
M  V30 1780 H 159.719 -1.62961 4.31236 0
M  V30 1781 H 163.263 0.597081 6.9504 0
M  V30 1782 H 159.16 -0.524242 6.43368 0
M  V30 1783 H 159.928 0.627138 8.16094 0
M  V30 1784 N 162.591 -1.51276 -0.441967 0
M  V30 1785 C 163.523 -1.68444 -1.55433 0
M  V30 1786 C 164.536 -0.565187 -1.52674 0
M  V30 1787 O 165.725 -0.839356 -1.57534 0
M  V30 1788 C 162.825 -1.67966 -2.94348 0
M  V30 1789 C 161.998 -2.964 -3.21661 0
M  V30 1790 C 161.057 -2.88171 -4.40277 0
M  V30 1791 O 160.083 -3.62119 -4.39157 0
M  V30 1792 N 161.285 -2.03706 -5.43584 0
M  V30 1793 H 164.05 -2.644 -1.41112 0
M  V30 1794 H 161.611 -1.49104 -0.630838 0
M  V30 1795 H 163.603 -1.60035 -3.71713 0
M  V30 1796 H 162.173 -0.796225 -3.0229 0
M  V30 1797 H 161.393 -3.18234 -2.32638 0
M  V30 1798 H 162.681 -3.81427 -3.36736 0
M  V30 1799 H 162.079 -1.42995 -5.47329 0
M  V30 1800 H 160.636 -2.01658 -6.1982 0
M  V30 1801 N 164.069 0.697108 -1.41344 0
M  V30 1802 C 165.032 1.79281 -1.42797 0
M  V30 1803 C 166.032 1.57607 -0.318837 0
M  V30 1804 O 167.222 1.64309 -0.578642 0
M  V30 1805 C 164.354 3.17632 -1.23785 0
M  V30 1806 H 165.547 1.79385 -2.40335 0
M  V30 1807 H 163.1 0.904582 -1.27464 0
M  V30 1808 H 163.835 3.23167 -0.270814 0
M  V30 1809 H 163.62 3.34765 -2.04144 0
M  V30 1810 H 165.11 3.97617 -1.27633 0
M  V30 1811 N 165.547 1.27147 0.931209 0
M  V30 1812 C 166.51 1.09615 2.01289 0
M  V30 1813 C 167.51 0.0412581 1.60747 0
M  V30 1814 O 168.7 0.285545 1.71844 0
M  V30 1815 C 165.832 0.669447 3.34262 0
M  V30 1816 H 167.025 2.05662 2.18273 0
M  V30 1817 H 164.578 1.09885 1.11153 0
M  V30 1818 H 165.313 -0.292572 3.22978 0
M  V30 1819 H 165.098 1.43127 3.65044 0
M  V30 1820 H 166.588 0.568921 4.13706 0
M  V30 1821 N 167.025 -1.13721 1.09112 0
M  V30 1822 C 167.988 -2.17222 0.731241 0
M  V30 1823 C 168.988 -1.59035 -0.237566 0
M  V30 1824 O 170.178 -1.74192 -0.0161704 0
M  V30 1825 C 167.31 -3.40804 0.0808443 0
M  V30 1826 H 168.503 -2.50573 1.64783 0
M  V30 1827 H 166.056 -1.28493 0.889897 0
M  V30 1828 H 166.791 -3.1304 -0.847127 0
M  V30 1829 H 166.576 -3.84306 0.777896 0
M  V30 1830 H 168.066 -4.1731 -0.155657 0
M  V30 1831 N 168.503 -0.877838 -1.30888 0
M  V30 1832 C 169.466 -0.344265 -2.266 0
M  V30 1833 C 170.466 0.50922 -1.52524 0
M  V30 1834 O 171.656 0.317398 -1.71284 0
M  V30 1835 C 168.788 0.510198 -3.37061 0
M  V30 1836 H 169.981 -1.1893 -2.7531 0
M  V30 1837 H 167.534 -0.654088 -1.41956 0
M  V30 1838 H 168.269 1.37612 -2.93655 0
M  V30 1839 H 168.054 -0.101047 -3.9197 0
M  V30 1840 H 169.544 0.875537 -4.08319 0
M  V30 1841 N 169.982 1.44106 -0.638065 0
M  V30 1842 C 170.929 2.30715 0.062701 0
M  V30 1843 C 171.899 1.43882 0.829883 0
M  V30 1844 O 173.084 1.72775 0.809532 0
M  V30 1845 C 170.224 3.29258 1.03358 0
M  V30 1846 C 169.337 4.31192 0.26409 0
M  V30 1847 C 168.472 5.16825 1.22741 0
M  V30 1848 C 167.511 6.10462 0.447475 0
M  V30 1849 N 166.648 6.8877 1.36161 0
M  V30 1850 H 171.488 2.90096 -0.681781 0
M  V30 1851 H 169.025 1.42925 -0.347988 0
M  V30 1852 H 170.983 3.84886 1.60992 0
M  V30 1853 H 169.613 2.71562 1.74511 0
M  V30 1854 H 168.665 3.77981 -0.428295 0
M  V30 1855 H 169.977 4.97619 -0.343052 0
M  V30 1856 H 169.131 5.77004 1.87487 0
M  V30 1857 H 167.87 4.50488 1.86847 0
M  V30 1858 H 166.875 5.49386 -0.213433 0
M  V30 1859 H 168.1 6.78837 -0.188968 0
M  V30 1860 H 166.046 6.25096 1.98975 0
M  V30 1861 H 165.963 7.51663 0.808656 0
M  V30 1862 H 167.231 7.53467 1.99769 0
M  V30 1863 N 171.46 0.379036 1.52974 0
M  V30 1864 C 172.707 -0.206421 2.01445 0
M  V30 1865 C 173.035 -1.47668 1.26587 0
M  V30 1866 O 172.29 -1.92514 0.351675 0
M  V30 1867 C 172.589 -0.53096 3.53434 0
M  V30 1868 C 172.255 0.646546 4.46241 0
M  V30 1869 C 170.917 0.969604 4.7133 0
M  V30 1870 C 173.269 1.43479 5.01062 0
M  V30 1871 C 170.597 2.08263 5.48492 0
M  V30 1872 C 172.949 2.53834 5.7944 0
M  V30 1873 C 171.613 2.86659 6.02812 0
M  V30 1874 H 170.883 -0.0755349 0.73714 0
M  V30 1875 H 173.53 0.514271 1.84465 0
M  V30 1876 H 171.835 -1.33285 3.68432 0
M  V30 1877 H 173.532 -0.996417 3.88423 0
M  V30 1878 H 170.122 0.384734 4.2687 0
M  V30 1879 H 174.306 1.19844 4.81613 0
M  V30 1880 H 169.562 2.34078 5.64816 0
M  V30 1881 H 173.736 3.15319 6.20924 0
M  V30 1882 H 171.363 3.73026 6.62387 0
M  V30 1883 N 172.938 -1.57226 0.108567 0
M  V30 1884 C 173.886 -2.16002 -0.862885 0
M  V30 1885 C 174.88 -1.10644 -1.28274 0
M  V30 1886 O 176.086 -1.28966 -1.2557 0
M  V30 1887 H 172.461 -0.691148 -0.296342 0
M  V30 1888 H 174.432 -2.96427 -0.342575 0
M  V30 1889 C 173.181 -2.76576 -2.10716 0
M  V30 1890 H 172.504 -3.5734 -1.793 0
M  V30 1891 H 173.944 -3.21253 -2.76717 0
M  V30 1892 C 172.403 -1.73137 -2.89007 0
M  V30 1893 O 172.933 -1.17842 -3.84026 0
M  V30 1894 N 171.139 -1.43317 -2.52801 0
M  V30 1895 H 170.686 -1.88473 -1.75601 0
M  V30 1896 H 170.644 -0.743485 -3.05483 0
M  V30 1897 N 174.416 0.165178 -1.56732 0
M  V30 1898 C 175.662 0.882112 -1.82611 0
M  V30 1899 C 175.995 1.81628 -0.687378 0
M  V30 1900 O 175.27 1.92009 0.310267 0
M  V30 1901 C 175.553 1.67245 -3.18906 0
M  V30 1902 C 175.406 0.760987 -4.43316 0
M  V30 1903 C 176.725 2.63884 -3.52212 0
M  V30 1904 H 173.844 0.319242 -0.664269 0
M  V30 1905 H 176.486 0.148052 -1.89422 0
M  V30 1906 H 174.636 2.29824 -3.1323 0
M  V30 1907 H 176.308 0.147596 -4.61064 0
M  V30 1908 H 174.551 0.0694102 -4.33744 0
M  V30 1909 H 175.222 1.34962 -5.35247 0
M  V30 1910 H 177.698 2.11429 -3.58381 0
M  V30 1911 H 176.574 3.16245 -4.48643 0
M  V30 1912 H 176.835 3.44377 -2.77231 0
M  V30 1913 N 175.894 1.51508 0.433938 0
M  V30 1914 C 177.171 1.54888 1.19453 0
M  V30 1915 C 177.551 0.315154 2.08734 0
M  V30 1916 O 176.899 -0.699558 2.17528 0
M  V30 1917 C 177.109 2.86467 1.99342 0
M  V30 1918 C 178.457 3.38545 2.56267 0
M  V30 1919 O 179.481 2.88041 2.0955 0
M  V30 1920 O 178.34 4.26675 3.41483 0
M  V30 1921 H 175.434 0.622863 0.544032 0
M  V30 1922 H 177.98 1.63823 0.442732 0
M  V30 1923 H 176.752 3.67718 1.33788 0
M  V30 1924 H 176.375 2.8071 2.8158 0
M  V30 1925 N 177.372 -0.689602 1.41712 0
M  V30 1926 C 178.621 -1.44534 1.40686 0
M  V30 1927 C 178.934 -1.95588 0.0213352 0
M  V30 1928 O 180.14 -2.71271 -0.111534 0
M  V30 1929 C 178.596 -2.61387 2.47396 0
M  V30 1930 C 178.204 -2.17094 3.91885 0
M  V30 1931 C 179.948 -3.38986 2.55517 0
M  V30 1932 C 177.855 -3.3094 4.90135 0
M  V30 1933 H 176.785 -0.542925 0.52321 0
M  V30 1934 H 179.436 -0.748054 1.6756 0
M  V30 1935 H 177.818 -3.33412 2.13664 0
M  V30 1936 H 178.992 -1.52318 4.34897 0
M  V30 1937 H 177.307 -1.52473 3.8748 0
M  V30 1938 H 179.904 -4.23747 3.26102 0
M  V30 1939 H 180.247 -3.84578 1.59391 0
M  V30 1940 H 180.78 -2.74021 2.8837 0
M  V30 1941 H 177.519 -2.90355 5.87685 0
M  V30 1942 H 177.039 -3.94546 4.51767 0
M  V30 1943 H 178.718 -3.9663 5.11169 0
M  V30 1944 N 178.85 -1.27639 -0.924453 0
M  V30 1945 C 179.813 -1.10681 -2.00705 0
M  V30 1946 C 180.813 -0.0497823 -1.60723 0
M  V30 1947 O 182.003 -0.294654 -1.7169 0
M  V30 1948 C 179.135 -0.687164 -3.33902 0
M  V30 1949 H 180.328 -2.06817 -2.17179 0
M  V30 1950 H 177.881 -1.10473 -1.10569 0
M  V30 1951 H 178.616 0.275439 -3.23128 0
M  V30 1952 H 178.401 -1.45061 -3.6428 0
M  V30 1953 H 179.891 -0.590853 -4.13399 0
M  V30 1954 N 180.328 1.1314 -1.09713 0
M  V30 1955 C 181.576 1.84119 -0.833338 0
M  V30 1956 C 181.897 1.84097 0.642904 0
M  V30 1957 O 181.167 1.29881 1.46655 0
M  V30 1958 H 179.747 0.681766 -0.305293 0
M  V30 1959 H 182.409 1.37038 -1.38588 0
M  V30 1960 H 181.505 2.88543 -1.18951 0
M  V30 1961 N 181.806 0.884767 1.30421 0
M  V30 1962 C 183.052 0.503851 1.96441 0
M  V30 1963 C 183.385 -0.944518 1.69684 0
M  V30 1964 O 182.66 -1.66737 1.00145 0
M  V30 1965 C 182.943 0.779085 3.51571 0
M  V30 1966 C 182.796 2.27807 3.87846 0
M  V30 1967 C 184.115 0.255452 4.39358 0
M  V30 1968 H 181.234 0.184533 0.713524 0
M  V30 1969 H 183.876 1.10872 1.54297 0
M  V30 1970 H 182.026 0.264274 3.876 0
M  V30 1971 H 183.698 2.86127 3.61841 0
M  V30 1972 H 181.941 2.74479 3.35922 0
M  V30 1973 H 182.612 2.42125 4.96064 0
M  V30 1974 H 185.088 0.696079 4.10236 0
M  V30 1975 H 183.964 0.477361 5.4682 0
M  V30 1976 H 184.225 -0.843293 4.33983 0
M  V30 1977 N 183.284 -1.43765 0.645699 0
M  V30 1978 C 184.7 -1.56509 0.312591 0
M  V30 1979 C 184.9 -1.6307 -1.18365 0
M  V30 1980 O 183.956 -1.58167 -1.96824 0
M  V30 1981 C 185.269 -2.82968 1.01733 0
M  V30 1982 C 186.817 -2.96701 0.996865 0
M  V30 1983 C 187.292 -4.25982 1.68236 0
M  V30 1984 N 188.783 -4.32829 1.64964 0
M  V30 1985 C 189.518 -5.31613 2.14885 0
M  V30 1986 N 189.014 -6.36718 2.73061 0
M  V30 1987 N 190.807 -5.23217 2.05428 0
M  V30 1988 H 182.958 -1.3775 1.61675 0
M  V30 1989 H 185.221 -0.661067 0.679481 0
M  V30 1990 H 184.927 -2.84156 2.0724 0
M  V30 1991 H 184.801 -3.72957 0.564177 0
M  V30 1992 H 187.188 -2.95058 -0.0497719 0
M  V30 1993 H 187.269 -2.08022 1.48865 0
M  V30 1994 H 186.913 -4.28386 2.72852 0
M  V30 1995 H 186.843 -5.13545 1.16529 0
M  V30 1996 H 189.334 -3.57493 1.22503 0
M  V30 1997 H 189.647 -7.08401 3.08848 0
M  V30 1998 H 187.992 -6.37362 2.77118 0
M  V30 1999 H 191.183 -4.40019 1.59689 0
M  V30 2000 H 191.356 -6.00045 2.44643 0
M  V30 2001 N 184.763 -0.387143 -1.52771 0
M  V30 2002 C 185.713 0.465942 -2.23188 0
M  V30 2003 C 186.697 1.03138 -1.23496 0
M  V30 2004 O 187.889 0.957845 -1.48843 0
M  V30 2005 C 185.018 1.59384 -3.04059 0
M  V30 2006 C 184.104 1.04024 -4.11144 0
M  V30 2007 N 184.495 0.211416 -5.05358 0
M  V30 2008 C 182.793 1.31295 -4.26237 0
M  V30 2009 C 183.494 -0.0941698 -5.81624 0
M  V30 2010 N 182.47 0.509207 -5.4121 0
M  V30 2011 H 186.272 -0.173856 -2.93385 0
M  V30 2012 H 183.786 -0.19633 -1.61209 0
M  V30 2013 H 185.783 2.21738 -3.53041 0
M  V30 2014 H 184.443 2.23648 -2.35397 0
M  V30 2015 H 185.454 -0.151151 -5.17679 0
M  V30 2016 H 182.131 1.95679 -3.68803 0
M  V30 2017 H 183.521 -0.765572 -6.67524 0
M  V30 2018 N 186.241 1.57166 -0.116904 0
M  V30 2019 C 187.657 1.5779 0.239693 0
M  V30 2020 C 187.857 1.1295 1.66867 0
M  V30 2021 O 186.913 0.81592 2.38954 0
M  V30 2022 C 188.226 3.00699 0.00828202 0
M  V30 2023 C 189.774 3.12912 0.0743438 0
M  V30 2024 C 190.249 4.57817 -0.129348 0
M  V30 2025 N 191.74 4.63139 -0.075247 0
M  V30 2026 C 192.475 5.73023 -0.207788 0
M  V30 2027 N 191.971 6.91665 -0.396382 0
M  V30 2028 N 193.764 5.61906 -0.14751 0
M  V30 2029 H 185.915 1.84615 -1.05029 0
M  V30 2030 H 188.178 0.85311 -0.41341 0
M  V30 2031 H 187.884 3.37784 -0.979531 0
M  V30 2032 H 187.758 3.69848 0.741077 0
M  V30 2033 H 190.145 2.75686 1.05268 0
M  V30 2034 H 190.226 2.4631 -0.690297 0
M  V30 2035 H 189.87 4.95742 -1.10465 0
M  V30 2036 H 189.8 5.22507 0.655253 0
M  V30 2037 H 192.291 3.7784 0.0670898 0
M  V30 2038 H 192.604 7.71255 -0.488437 0
M  V30 2039 H 190.949 6.93654 -0.432329 0
M  V30 2040 H 194.14 4.681 -0.00115036 0
M  V30 2041 H 194.313 6.47501 -0.254247 0
M  V30 2042 N 187.719 -0.156864 1.56817 0
M  V30 2043 C 188.649 -1.19589 2.00551 0
M  V30 2044 C 189.63 -1.4536 0.883426 0
M  V30 2045 O 190.815 -1.56449 1.15054 0
M  V30 2046 C 187.945 -2.53143 2.37773 0
M  V30 2047 C 186.899 -2.41913 3.53075 0
M  V30 2048 C 186.225 -3.80088 3.76081 0
M  V30 2049 C 187.525 -1.91157 4.86062 0
M  V30 2050 H 189.219 -0.832293 2.87599 0
M  V30 2051 H 186.765 -0.398918 1.38364 0
M  V30 2052 H 188.718 -3.26047 2.66967 0
M  V30 2053 H 187.442 -2.91319 1.4765 0
M  V30 2054 H 186.101 -1.71462 3.24031 0
M  V30 2055 H 185.749 -4.15683 2.83225 0
M  V30 2056 H 185.449 -3.73439 4.53671 0
M  V30 2057 H 186.973 -4.54556 4.0769 0
M  V30 2058 H 188.387 -2.53846 5.14038 0
M  V30 2059 H 186.784 -1.95422 5.67389 0
M  V30 2060 H 187.854 -0.866673 4.77092 0
M  V30 2061 N 189.197 -1.51736 -0.425897 0
M  V30 2062 C 190.13 -1.68574 -1.53812 0
M  V30 2063 C 191.108 -0.53328 -1.53606 0
M  V30 2064 O 192.292 -0.758555 -1.72564 0
M  V30 2065 C 189.419 -1.70977 -2.92377 0
M  V30 2066 C 188.465 -2.92324 -3.10563 0
M  V30 2067 S 189.298 -4.52952 -2.85648 0
M  V30 2068 C 190.454 -4.58117 -4.26474 0
M  V30 2069 H 190.687 -2.62647 -1.39298 0
M  V30 2070 H 188.22 -1.41564 -0.616361 0
M  V30 2071 H 190.178 -1.73047 -3.72243 0
M  V30 2072 H 188.839 -0.78061 -3.04245 0
M  V30 2073 H 188.032 -2.90439 -4.11899 0
M  V30 2074 H 187.634 -2.88055 -2.38538 0
M  V30 2075 H 189.926 -4.34462 -5.19855 0
M  V30 2076 H 190.869 -5.59983 -4.33388 0
M  V30 2077 H 191.277 -3.8732 -4.10662 0
M  V30 2078 N 190.675 0.682077 -1.42076 0
M  V30 2079 C 191.605 1.80796 -1.47767 0
M  V30 2080 C 192.586 1.6677 -0.334954 0
M  V30 2081 O 193.771 1.863 -0.548264 0
M  V30 2082 C 190.901 3.19038 -1.37229 0
M  V30 2083 C 189.855 3.47789 -2.49453 0
M  V30 2084 C 189.181 4.8553 -2.23975 0
M  V30 2085 C 190.481 3.45411 -3.91776 0
M  V30 2086 H 192.175 1.7629 -2.41997 0
M  V30 2087 H 189.721 0.846721 -1.16476 0
M  V30 2088 H 191.674 3.97528 -1.39821 0
M  V30 2089 H 190.398 3.24204 -0.394907 0
M  V30 2090 H 189.057 2.71657 -2.46166 0
M  V30 2091 H 188.705 4.87337 -1.24547 0
M  V30 2092 H 188.405 5.0573 -2.99184 0
M  V30 2093 H 189.929 5.66312 -2.28304 0
M  V30 2094 H 191.343 4.13882 -3.96705 0
M  V30 2095 H 189.74 3.77145 -4.66778 0
M  V30 2096 H 190.81 2.44122 -4.18966 0
M  V30 2097 N 192.153 1.28127 0.917671 0
M  V30 2098 C 193.4 1.15052 1.66641 0
M  V30 2099 C 193.728 -0.301677 1.92146 0
M  V30 2100 O 192.983 -1.23622 1.51711 0
M  V30 2101 C 193.282 1.89018 3.03327 0
M  V30 2102 C 192.948 3.38832 2.97496 0
M  V30 2103 C 191.61 3.79693 2.95613 0
M  V30 2104 C 193.962 4.34378 2.88036 0
M  V30 2105 C 191.29 5.14447 2.82066 0
M  V30 2106 C 193.642 5.69201 2.7603 0
M  V30 2107 C 192.306 6.09343 2.72502 0
M  V30 2108 H 191.576 0.421006 0.609783 0
M  V30 2109 H 194.223 1.58855 1.06945 0
M  V30 2110 H 192.528 1.37752 3.66785 0
M  V30 2111 H 194.225 1.76321 3.60156 0
M  V30 2112 H 190.815 3.06342 2.99754 0
M  V30 2113 H 194.999 4.03775 2.88581 0
M  V30 2114 H 190.255 5.44681 2.77728 0
M  V30 2115 H 194.429 6.42901 2.67678 0
M  V30 2116 H 192.056 7.13712 2.61762 0
M  V30 2117 N 193.631 -1.12557 1.10312 0
M  V30 2118 C 194.877 -1.84311 0.846011 0
M  V30 2119 C 195.21 -1.83805 -0.626859 0
M  V30 2120 O 194.485 -1.28268 -1.46211 0
M  V30 2121 C 194.768 -3.32048 1.39341 0
M  V30 2122 C 194.621 -3.41016 2.93305 0
M  V30 2123 C 195.94 -4.27764 1.03468 0
M  V30 2124 H 193.059 -0.669192 0.30879 0
M  V30 2125 H 195.701 -1.32057 1.36605 0
M  V30 2126 H 193.851 -3.76678 0.951087 0
M  V30 2127 H 195.523 -3.05031 3.46055 0
M  V30 2128 H 193.766 -2.81603 3.29973 0
M  V30 2129 H 194.437 -4.44948 3.26689 0
M  V30 2130 H 196.913 -3.91253 1.41633 0
M  V30 2131 H 195.789 -5.29549 1.44463 0
M  V30 2132 H 196.05 -4.42064 -0.0560404 0
M  V30 2133 N 195.109 -0.891671 -1.2995 0
M  V30 2134 C 196.057 -0.353066 -2.29905 0
M  V30 2135 C 197.051 0.543509 -1.60444 0
M  V30 2136 O 198.257 0.4272 -1.74857 0
M  V30 2137 H 194.632 -0.095531 -0.745907 0
M  V30 2138 H 196.603 -1.20961 -2.72784 0
M  V30 2139 C 195.352 0.411475 -3.45257 0
M  V30 2140 H 194.675 -0.269182 -3.98893 0
M  V30 2141 H 196.115 0.753328 -4.17254 0
M  V30 2142 C 194.574 1.6111 -2.9588 0
M  V30 2143 O 195.104 2.71045 -2.96475 0
M  V30 2144 N 193.31 1.45054 -2.51809 0
M  V30 2145 H 192.857 0.556175 -2.51524 0
M  V30 2146 H 192.815 2.25453 -2.1913 0
M  V30 2147 N 196.587 1.43421 -0.653314 0
M  V30 2148 C 197.833 2.02111 -0.166992 0
M  V30 2149 C 198.166 1.51423 1.21592 0
M  V30 2150 O 197.441 0.707389 1.8118 0
M  V30 2151 C 197.724 3.5966 -0.177948 0
M  V30 2152 C 197.577 4.20579 -1.59478 0
M  V30 2153 C 198.896 4.37413 0.4856 0
M  V30 2154 H 196.015 0.734374 -0.0621557 0
M  V30 2155 H 198.657 1.70717 -0.834016 0
M  V30 2156 H 196.807 3.86537 0.390032 0
M  V30 2157 H 198.479 4.04732 -2.21336 0
M  V30 2158 H 196.722 3.77226 -2.14204 0
M  V30 2159 H 197.393 5.29665 -1.5543 0
M  V30 2160 H 199.869 4.161 0.00234528 0
M  V30 2161 H 198.745 5.47075 0.447207 0
M  V30 2162 H 199.006 4.13672 1.55974 0
M  V30 2163 N 198.065 0.39524 1.52563 0
M  V30 2164 C 199.013 -0.451859 2.28169 0
M  V30 2165 C 200.007 -1.05792 1.32304 0
M  V30 2166 O 201.213 -0.997718 1.49818 0
M  V30 2167 H 197.588 -0.164481 0.733792 0
M  V30 2168 H 199.559 0.207199 2.9768 0
M  V30 2169 C 198.308 -1.56385 3.10546 0
M  V30 2170 H 197.631 -1.10682 3.84174 0
M  V30 2171 H 199.071 -2.13067 3.66577 0
M  V30 2172 C 197.53 -2.52328 2.23231 0
M  V30 2173 O 198.06 -3.5588 1.86312 0
M  V30 2174 N 196.266 -2.22209 1.87274 0
M  V30 2175 H 195.813 -1.38033 2.17496 0
M  V30 2176 H 195.771 -2.86652 1.29143 0
M  V30 2177 N 199.544 -1.57102 0.125237 0
M  V30 2178 C 200.821 -1.86953 -0.575142 0
M  V30 2179 C 201.201 -1.02749 -1.84407 0
M  V30 2180 O 200.549 -0.108144 -2.28244 0
M  V30 2181 C 200.759 -3.38198 -0.861583 0
M  V30 2182 C 202.107 -4.06937 -1.21192 0
M  V30 2183 O 203.131 -3.43252 -0.951645 0
M  V30 2184 O 201.99 -5.19364 -1.70068 0
M  V30 2185 H 199.084 -0.774147 -0.290906 0
M  V30 2186 H 201.63 -1.68942 0.160211 0
M  V30 2187 H 200.402 -3.91282 0.0373647 0
M  V30 2188 H 200.025 -3.61661 -1.65188 0
M  V30 2189 N 201.022 0.148545 -1.56898 0
M  V30 2190 C 201.97 1.20265 -1.99096 0
M  V30 2191 C 202.964 1.44559 -0.883123 0
M  V30 2192 O 204.17 1.4487 -1.0683 0
M  V30 2193 H 200.545 0.404786 -0.63376 0
M  V30 2194 H 202.516 0.82004 -2.86911 0
M  V30 2195 C 201.265 2.52886 -2.3863 0
M  V30 2196 H 200.588 2.35021 -3.23427 0
M  V30 2197 H 202.028 3.25274 -2.7198 0
M  V30 2198 C 200.487 3.13315 -1.23837 0
M  V30 2199 O 201.017 3.98077 -0.538268 0
M  V30 2200 N 199.223 2.72742 -1.00301 0
M  V30 2201 H 198.77 2.03912 -1.5741 0
M  V30 2202 H 198.728 3.13507 -0.236838 0
M  V30 2203 N 202.5 1.5196 0.417844 0
M  V30 2204 C 203.911 1.57851 0.997 0
M  V30 2205 C 204.262 0.413714 1.91789 0
M  V30 2206 O 203.387 -0.467057 2.113 0
M  V30 2207 C 203.982 2.86085 1.81496 0
M  V30 2208 C 202.541 2.94483 2.34428 0
M  V30 2209 C 201.688 2.52707 1.14169 0
M  V30 2210 H 204.639 1.57455 0.198392 0
M  V30 2211 H 204.66 2.70947 2.67148 0
M  V30 2212 H 204.172 3.70842 1.14446 0
M  V30 2213 H 202.273 2.142 3.04875 0
M  V30 2214 H 202.386 3.98546 2.65891 0
M  V30 2215 H 200.75 2.06353 1.49301 0
M  V30 2216 H 201.533 3.39828 0.486999 0
M  V30 2217 N 203.978 -0.674533 1.42435 0
M  V30 2218 C 205.206 -1.46283 1.46317 0
M  V30 2219 C 205.621 -1.88653 0.0745836 0
M  V30 2220 O 204.978 -1.58151 -0.91074 0
M  V30 2221 C 205.029 -2.71178 2.3905 0
M  V30 2222 O 204.75 -2.30586 3.72507 0
M  V30 2223 C 206.251 -3.64738 2.51955 0
M  V30 2224 H 203.471 -0.450104 0.497642 0
M  V30 2225 H 206.015 -0.828792 1.86953 0
M  V30 2226 H 204.17 -3.3077 2.01667 0
M  V30 2227 H 204.584 -3.11241 4.22172 0
M  V30 2228 H 206.058 -4.49096 3.20962 0
M  V30 2229 H 206.535 -4.10656 1.55752 0
M  V30 2230 H 207.141 -3.11038 2.90061 0
M  V30 2231 N 205.456 -1.28612 -0.910864 0
M  V30 2232 C 206.388 -1.08589 -2.01844 0
M  V30 2233 C 207.401 -0.0367419 -1.62759 0
M  V30 2234 O 208.59 -0.280101 -1.76289 0
M  V30 2235 C 205.69 -0.628626 -3.33019 0
M  V30 2236 C 204.863 -1.75382 -4.00699 0
M  V30 2237 C 203.922 -1.28945 -5.10156 0
M  V30 2238 O 202.948 -1.9922 -5.33198 0
M  V30 2239 N 204.15 -0.154224 -5.80295 0
M  V30 2240 H 206.915 -2.03973 -2.19579 0
M  V30 2241 H 204.476 -1.20403 -1.08234 0
M  V30 2242 H 206.468 -0.301508 -4.03575 0
M  V30 2243 H 205.038 0.232451 -3.11735 0
M  V30 2244 H 204.258 -2.25039 -3.23653 0
M  V30 2245 H 205.546 -2.50854 -4.42662 0
M  V30 2246 H 204.944 0.43194 -5.64049 0
M  V30 2247 H 203.501 0.113599 -6.51701 0
M  V30 2248 N 206.934 1.1197 -1.10907 0
M  V30 2249 C 207.897 2.16031 -0.765707 0
M  V30 2250 C 208.897 1.59393 0.212235 0
M  V30 2251 O 210.087 1.74196 -0.0115441 0
M  V30 2252 C 207.219 3.40632 -0.135053 0
M  V30 2253 H 208.412 2.47919 -1.68748 0
M  V30 2254 H 205.965 1.27061 -0.910226 0
M  V30 2255 H 206.7 3.14348 0.797218 0
M  V30 2256 H 206.485 3.8302 -0.838937 0
M  V30 2257 H 207.975 4.17505 0.0892469 0
M  V30 2258 N 208.412 0.89855 1.29475 0
M  V30 2259 C 209.359 0.373819 2.27753 0
M  V30 2260 C 210.329 -0.543444 1.56958 0
M  V30 2261 O 211.514 -0.468934 1.84948 0
M  V30 2262 C 208.654 -0.393648 3.42848 0
M  V30 2263 C 207.767 0.554379 4.28428 0
M  V30 2264 C 206.902 -0.230026 5.30702 0
M  V30 2265 C 205.941 0.712599 6.07938 0
M  V30 2266 N 205.078 -0.0373283 7.0209 0
M  V30 2267 H 209.918 1.21699 2.72017 0
M  V30 2268 H 207.455 0.611456 1.33789 0
M  V30 2269 H 209.413 -0.85466 4.08352 0
M  V30 2270 H 208.043 -1.20128 2.99615 0
M  V30 2271 H 207.095 1.13391 3.63107 0
M  V30 2272 H 208.407 1.27597 4.82204 0
M  V30 2273 H 207.561 -0.752288 6.02018 0
M  V30 2274 H 206.3 -0.984758 4.77654 0
M  V30 2275 H 205.305 1.24637 5.35486 0
M  V30 2276 H 206.53 1.46664 6.63074 0
M  V30 2277 H 204.476 -0.774348 6.51414 0
M  V30 2278 H 204.393 0.624374 7.53417 0
M  V30 2279 H 205.661 -0.539891 7.77628 0
M  V30 2280 N 209.89 -1.43072 0.660911 0
M  V30 2281 C 210.853 -2.29194 -0.0166406 0
M  V30 2282 C 211.853 -1.42609 -0.742912 0
M  V30 2283 O 213.043 -1.64155 -0.583004 0
M  V30 2284 C 210.175 -3.24831 -1.0343 0
M  V30 2285 H 211.368 -2.90596 0.741208 0
M  V30 2286 H 208.921 -1.5048 0.422532 0
M  V30 2287 H 209.656 -2.68339 -1.82111 0
M  V30 2288 H 209.441 -3.88676 -0.517082 0
M  V30 2289 H 210.931 -3.89451 -1.50723 0
M  V30 2290 N 211.368 -0.403325 -1.52352 0
M  V30 2291 C 212.278 0.432009 -2.30588 0
M  V30 2292 C 213.294 1.05884 -1.38075 0
M  V30 2293 O 214.47 1.06161 -1.71148 0
M  V30 2294 C 211.535 1.53669 -3.10784 0
M  V30 2295 C 210.596 0.933525 -4.19027 0
M  V30 2296 C 209.829 1.98557 -4.9539 0
M  V30 2297 O 210.052 3.20283 -4.71991 0
M  V30 2298 O 208.986 1.59504 -5.80381 0
M  V30 2299 H 212.812 -0.205739 -3.03002 0
M  V30 2300 H 210.397 -0.166675 -1.48467 0
M  V30 2301 H 212.279 2.17814 -3.60742 0
M  V30 2302 H 210.954 2.15915 -2.41169 0
M  V30 2303 H 209.861 0.254954 -3.7323 0
M  V30 2304 H 211.194 0.35508 -4.90918 0
M  V30 2305 N 212.846 1.57033 -0.133567 0
M  V30 2306 C 213.776 2.1909 0.807567 0
M  V30 2307 C 214.757 1.13517 1.26681 0
M  V30 2308 O 215.942 1.41809 1.32679 0
M  V30 2309 C 213.072 2.80188 2.05212 0
M  V30 2310 C 212.026 3.91471 1.73015 0
M  V30 2311 C 211.352 4.39443 3.04622 0
M  V30 2312 C 212.652 5.12886 0.987168 0
M  V30 2313 H 214.346 2.97988 0.290403 0
M  V30 2314 H 211.892 1.43335 0.138239 0
M  V30 2315 H 213.845 3.22264 2.71521 0
M  V30 2316 H 212.569 1.98601 2.59278 0
M  V30 2317 H 211.228 3.49993 1.0909 0
M  V30 2318 H 210.876 3.54695 3.56651 0
M  V30 2319 H 210.576 5.14495 2.83847 0
M  V30 2320 H 212.1 4.8418 3.72024 0
M  V30 2321 H 213.514 5.51891 1.55208 0
M  V30 2322 H 211.911 5.93615 0.87985 0
M  V30 2323 H 212.981 4.84894 -0.0235286 0
M  V30 2324 N 214.325 -0.140222 1.56975 0
M  V30 2325 C 215.55 -0.870414 1.88251 0
M  V30 2326 C 215.975 -1.73637 0.723312 0
M  V30 2327 O 215.333 -1.78329 -0.32689 0
M  V30 2328 C 215.381 -1.69737 3.18154 0
M  V30 2329 O 214.485 -2.80229 3.02565 0
M  V30 2330 H 213.826 -0.242025 0.61832 0
M  V30 2331 H 216.356 -0.128999 2.04193 0
M  V30 2332 H 216.366 -2.09099 3.50345 0
M  V30 2333 H 215.041 -1.06152 4.02125 0
M  V30 2334 H 213.618 -2.44224 2.81796 0
M  V30 2335 N 215.803 -1.52179 -0.40978 0
M  V30 2336 C 217.052 -1.65434 -1.15388 0
M  V30 2337 C 217.365 -0.390056 -1.91671 0
M  V30 2338 O 218.571 -0.402399 -2.68501 0
M  V30 2339 C 217.027 -2.92279 -2.10003 0
M  V30 2340 C 216.635 -4.25813 -1.39239 0
M  V30 2341 C 218.379 -3.14897 -2.84675 0
M  V30 2342 C 216.286 -5.43782 -2.32498 0
M  V30 2343 H 215.216 -0.616267 -0.434432 0
M  V30 2344 H 217.867 -1.78666 -0.418401 0
M  V30 2345 H 216.249 -2.72744 -2.871 0
M  V30 2346 H 217.423 -4.55828 -0.675099 0
M  V30 2347 H 215.738 -4.09292 -0.766097 0
M  V30 2348 H 218.335 -4.0021 -3.54593 0
M  V30 2349 H 218.678 -2.29103 -3.47588 0
M  V30 2350 H 219.211 -3.34901 -2.14677 0
M  V30 2351 H 215.95 -6.3192 -1.74233 0
M  V30 2352 H 215.47 -5.18106 -3.02201 0
M  V30 2353 H 217.149 -5.76834 -2.93038 0
M  V30 2354 N 217.281 0.66697 -1.42791 0
M  V30 2355 C 218.511 1.45294 -1.46878 0
M  V30 2356 C 218.919 1.89027 -0.0809861 0
M  V30 2357 O 218.262 1.59219 0.916246 0
M  V30 2358 C 218.324 2.72908 -2.34012 0
M  V30 2359 C 217.988 2.51203 -3.81767 0
M  V30 2360 C 218.985 2.15302 -4.73224 0
M  V30 2361 C 216.67 2.65954 -4.26115 0
M  V30 2362 C 218.664 1.94431 -6.07022 0
M  V30 2363 C 216.351 2.44699 -5.59969 0
M  V30 2364 C 217.349 2.08992 -6.5024 0
M  V30 2365 O 217.037 1.87948 -7.81621 0
M  V30 2366 H 216.769 0.453306 -0.501487 0
M  V30 2367 H 219.323 0.826232 -1.88049 0
M  V30 2368 H 217.553 3.38089 -1.87703 0
M  V30 2369 H 219.242 3.34816 -2.29462 0
M  V30 2370 H 220.008 2.03495 -4.40244 0
M  V30 2371 H 215.887 2.92724 -3.56137 0
M  V30 2372 H 219.431 1.66484 -6.77443 0
M  V30 2373 H 215.328 2.56105 -5.9252 0
M  V30 2374 H 216.096 2.02483 -7.93059 0
M  V30 2375 N 218.759 1.29093 0.90403 0
M  V30 2376 C 219.689 1.16401 2.02418 0
M  V30 2377 C 220.67 0.0593085 1.69997 0
M  V30 2378 O 221.855 0.238021 1.92736 0
M  V30 2379 C 218.985 0.835233 3.37107 0
M  V30 2380 C 217.939 1.89578 3.83724 0
M  V30 2381 C 217.265 1.42041 5.15489 0
M  V30 2382 C 218.565 3.30394 4.04521 0
M  V30 2383 H 220.259 2.10109 2.13295 0
M  V30 2384 H 217.805 1.01157 1.02486 0
M  V30 2385 H 219.758 0.733169 4.14973 0
M  V30 2386 H 218.482 -0.137543 3.2631 0
M  V30 2387 H 217.141 1.98715 3.08071 0
M  V30 2388 H 216.789 0.436426 5.01103 0
M  V30 2389 H 216.489 2.12964 5.4765 0
M  V30 2390 H 218.013 1.33176 5.959 0
M  V30 2391 H 219.427 3.24123 4.72882 0
M  V30 2392 H 217.824 3.99237 4.48029 0
M  V30 2393 H 218.894 3.73692 3.09002 0
M  V30 2394 N 220.237 -1.11381 1.11499 0
M  V30 2395 C 221.147 -2.21019 0.786628 0
M  V30 2396 C 222.163 -1.72597 -0.220507 0
M  V30 2397 O 223.339 -2.01321 -0.0565251 0
M  V30 2398 C 220.404 -3.459 0.235333 0
M  V30 2399 C 219.465 -4.09107 1.30115 0
M  V30 2400 C 218.698 -5.28027 0.776068 0
M  V30 2401 O 218.921 -5.6904 -0.393661 0
M  V30 2402 O 217.855 -5.81835 1.54114 0
M  V30 2403 H 221.681 -2.51521 1.70209 0
M  V30 2404 H 219.266 -1.19928 0.890928 0
M  V30 2405 H 221.148 -4.21346 -0.067715 0
M  V30 2406 H 219.823 -3.17049 -0.652828 0
M  V30 2407 H 218.73 -3.35391 1.65722 0
M  V30 2408 H 220.063 -4.42139 2.16273 0
M  V30 2409 N 221.715 -0.905404 -1.28997 0
M  V30 2410 C 222.992 -0.453513 -1.9027 0
M  V30 2411 C 223.372 1.06721 -1.82137 0
M  V30 2412 O 222.72 1.91159 -1.25182 0
M  V30 2413 C 222.93 -0.974494 -3.35119 0
M  V30 2414 C 224.278 -1.0216 -4.12127 0
M  V30 2415 O 225.302 -0.922557 -3.44046 0
M  V30 2416 O 224.161 -1.17121 -5.33802 0
M  V30 2417 H 221.255 -0.142347 -0.814657 0
M  V30 2418 H 223.801 -0.995642 -1.37423 0
M  V30 2419 H 222.573 -2.01848 -3.35221 0
M  V30 2420 H 222.196 -0.412706 -3.95452 0
M  V30 2421 N 223.193 1.4272 -0.668489 0
M  V30 2422 C 224.423 2.05668 -0.196063 0
M  V30 2423 C 224.831 1.5028 1.14946 0
M  V30 2424 O 224.174 0.6348 1.72383 0
M  V30 2425 C 224.236 3.59469 -0.0468879 0
M  V30 2426 C 223.9 4.37518 -1.32012 0
M  V30 2427 C 224.897 4.68584 -2.25222 0
M  V30 2428 C 222.582 4.77266 -1.56596 0
M  V30 2429 C 224.576 5.38326 -3.41297 0
M  V30 2430 C 222.263 5.4675 -2.72962 0
M  V30 2431 C 223.261 5.77204 -3.65137 0
M  V30 2432 O 222.949 6.45264 -4.79468 0
M  V30 2433 H 222.681 0.669382 -0.0943599 0
M  V30 2434 H 225.235 1.83954 -0.913788 0
M  V30 2435 H 223.465 3.79817 0.726357 0
M  V30 2436 H 225.154 4.04071 0.384852 0
M  V30 2437 H 225.92 4.38382 -2.07477 0
M  V30 2438 H 221.799 4.52959 -0.857249 0
M  V30 2439 H 225.343 5.62014 -4.13263 0
M  V30 2440 H 221.24 5.76369 -2.90635 0
M  V30 2441 H 222.008 6.63753 -4.78931 0
M  V30 2442 N 224.671 0.411399 1.52136 0
M  V30 2443 C 225.601 -0.404015 2.29978 0
M  V30 2444 C 226.582 -1.04412 1.34284 0
M  V30 2445 O 227.767 -1.0527 1.63192 0
M  V30 2446 C 224.897 -1.5197 3.12286 0
M  V30 2447 C 223.851 -1.00448 4.16046 0
M  V30 2448 C 223.177 -2.21393 4.86712 0
M  V30 2449 C 224.477 -0.0569336 5.22269 0
M  V30 2450 H 226.171 0.245529 2.98392 0
M  V30 2451 H 223.717 0.119525 1.43503 0
M  V30 2452 H 225.67 -2.09715 3.6551 0
M  V30 2453 H 224.394 -2.19716 2.41646 0
M  V30 2454 H 223.053 -0.449421 3.63835 0
M  V30 2455 H 222.701 -2.87699 4.12599 0
M  V30 2456 H 222.401 -1.87571 5.56858 0
M  V30 2457 H 223.925 -2.7974 5.4275 0
M  V30 2458 H 225.339 -0.54325 5.7072 0
M  V30 2459 H 223.736 0.192594 5.99791 0
M  V30 2460 H 224.806 0.887663 4.76706 0
M  V30 2461 N 226.149 -1.5696 0.141893 0
M  V30 2462 C 227.374 -2.00754 -0.520838 0
M  V30 2463 C 227.799 -1.0213 -1.57959 0
M  V30 2464 O 227.157 0.00371324 -1.813 0
M  V30 2465 C 227.205 -3.43318 -1.10294 0
M  V30 2466 O 226.309 -3.47679 -2.21795 0
M  V30 2467 H 225.65 -0.651564 -0.127908 0
M  V30 2468 H 228.18 -2.03221 0.23712 0
M  V30 2469 H 228.19 -3.82012 -1.43287 0
M  V30 2470 H 226.865 -4.14608 -0.327574 0
M  V30 2471 H 225.442 -3.20824 -1.9007 0
M  V30 2472 N 227.627 0.131896 -1.57047 0
M  V30 2473 C 228.857 0.855219 -1.88068 0
M  V30 2474 C 229.265 1.74557 -0.729817 0
M  V30 2475 O 228.608 1.81083 0.308962 0
M  V30 2476 C 228.67 1.75119 -3.13964 0
M  V30 2477 C 228.334 1.03646 -4.45091 0
M  V30 2478 C 229.331 0.383276 -5.18485 0
M  V30 2479 C 227.016 1.02148 -4.91804 0
M  V30 2480 C 229.01 -0.275347 -6.36805 0
M  V30 2481 C 226.697 0.359047 -6.10044 0
M  V30 2482 C 227.695 -0.288222 -6.82392 0
M  V30 2483 O 227.383 -0.94011 -7.98384 0
M  V30 2484 H 227.115 0.251864 -0.627328 0
M  V30 2485 H 229.669 0.124782 -2.05021 0
M  V30 2486 H 227.899 2.52295 -2.9306 0
M  V30 2487 H 229.588 2.3478 -3.31109 0
M  V30 2488 H 230.354 0.386562 -4.83457 0
M  V30 2489 H 226.233 1.5147 -4.35405 0
M  V30 2490 H 229.777 -0.781148 -6.93213 0
M  V30 2491 H 225.674 0.35348 -6.44531 0
M  V30 2492 H 226.442 -0.84329 -8.14144 0
M  V30 2493 N 229.106 1.52395 0.401703 0
M  V30 2494 C 230.334 1.70676 1.16949 0
M  V30 2495 C 230.749 0.419503 1.8408 0
M  V30 2496 O 230.106 -0.605061 1.72178 0
M  V30 2497 C 230.157 2.84753 2.22706 0
M  V30 2498 O 229.878 4.08495 1.58314 0
M  V30 2499 C 231.379 3.14608 3.12309 0
M  V30 2500 H 228.599 0.571787 0.351142 0
M  V30 2501 H 231.143 1.98987 0.471652 0
M  V30 2502 H 229.298 2.58941 2.88147 0
M  V30 2503 H 229.712 4.72117 2.28485 0
M  V30 2504 H 231.186 3.97923 3.82572 0
M  V30 2505 H 231.663 2.28464 3.75101 0
M  V30 2506 H 232.269 3.42212 2.52529 0
M  V30 2507 N 230.584 -0.659388 1.43143 0
M  V30 2508 C 231.516 -1.7849 1.43784 0
M  V30 2509 C 232.529 -1.5932 0.334787 0
M  V30 2510 O 233.718 -1.68155 0.598842 0
M  V30 2511 C 230.818 -3.15828 1.22906 0
M  V30 2512 C 229.991 -3.61711 2.45934 0
M  V30 2513 C 229.05 -4.77831 2.20371 0
M  V30 2514 O 228.076 -4.87586 2.93681 0
M  V30 2515 N 229.278 -5.67611 1.21647 0
M  V30 2516 H 232.043 -1.7842 2.40803 0
M  V30 2517 H 229.604 -0.84302 1.3822 0
M  V30 2518 H 231.596 -3.91189 1.03697 0
M  V30 2519 H 230.166 -3.10707 0.343542 0
M  V30 2520 H 229.386 -2.76861 2.80609 0
M  V30 2521 H 230.674 -3.89112 3.27825 0
M  V30 2522 H 230.072 -5.62397 0.610449 0
M  V30 2523 H 228.629 -6.42719 1.08423 0
M  V30 2524 N 232.062 -1.29571 -0.897171 0
M  V30 2525 C 233.025 -1.14913 -1.98312 0
M  V30 2526 C 234.025 -0.0838629 -1.60581 0
M  V30 2527 O 235.215 -0.331006 -1.71026 0
M  V30 2528 C 232.347 -0.757835 -3.3237 0
M  V30 2529 H 233.54 -2.11377 -2.12743 0
M  V30 2530 H 231.093 -1.12793 -1.08201 0
M  V30 2531 H 231.828 0.206837 -3.2364 0
M  V30 2532 H 231.613 -1.52755 -3.61121 0
M  V30 2533 H 233.103 -0.678408 -4.12053 0
M  V30 2534 N 233.54 1.10788 -1.12088 0
M  V30 2535 C 234.45 2.20599 -0.798338 0
M  V30 2536 C 235.466 1.72712 0.21135 0
M  V30 2537 O 236.642 2.01348 0.0458477 0
M  V30 2538 C 233.707 3.45771 -0.253674 0
M  V30 2539 C 232.768 4.08411 -1.32283 0
M  V30 2540 C 232.001 5.27608 -0.80406 0
M  V30 2541 O 232.224 5.69241 0.363478 0
M  V30 2542 O 231.158 5.8101 -1.57198 0
M  V30 2543 H 234.984 2.50614 -1.7154 0
M  V30 2544 H 232.569 1.19454 -0.897275 0
M  V30 2545 H 234.451 4.21376 0.0453691 0
M  V30 2546 H 233.126 3.1739 0.636005 0
M  V30 2547 H 232.033 3.34507 -1.67499 0
M  V30 2548 H 233.366 4.40986 -2.18614 0
M  V30 2549 N 235.018 0.912232 1.28515 0
M  V30 2550 C 236.246 0.560416 1.99166 0
M  V30 2551 C 236.661 -0.857927 1.68182 0
M  V30 2552 O 236.018 -1.56805 0.933733 0
M  V30 2553 C 236.069 0.758142 3.53461 0
M  V30 2554 O 235.79 2.12067 3.83352 0
M  V30 2555 C 237.291 0.412954 4.41372 0
M  V30 2556 H 234.511 0.213805 0.636026 0
M  V30 2557 H 237.055 1.22502 1.63749 0
M  V30 2558 H 235.21 0.140556 3.87145 0
M  V30 2559 H 235.624 2.15923 4.77993 0
M  V30 2560 H 237.098 0.60208 5.48707 0
M  V30 2561 H 237.575 -0.65073 4.34353 0
M  V30 2562 H 238.181 1.00802 4.13182 0
M  V30 2563 N 236.496 -1.42363 0.676048 0
M  V30 2564 C 237.721 -2.06377 0.205705 0
M  V30 2565 C 238.146 -1.50463 -1.12883 0
M  V30 2566 O 237.504 -0.623619 -1.70237 0
M  V30 2567 C 237.552 -3.60277 0.152655 0
M  V30 2568 O 236.656 -4.02935 -0.87845 0
M  V30 2569 H 235.997 -0.655588 0.105359 0
M  V30 2570 H 238.527 -1.82475 0.925412 0
M  V30 2571 H 238.537 -4.07993 -0.0230675 0
M  V30 2572 H 237.212 -4.00346 1.12675 0
M  V30 2573 H 235.789 -3.66764 -0.673668 0
M  V30 2574 N 237.974 -0.419461 -1.51915 0
M  V30 2575 C 239.223 0.154346 -2.01109 0
M  V30 2576 C 239.536 1.45338 -1.30905 0
M  V30 2577 O 240.742 2.10906 -1.7097 0
M  V30 2578 C 239.198 0.325615 -3.58424 0
M  V30 2579 C 238.806 -0.961934 -4.37551 0
M  V30 2580 C 240.55 0.854155 -4.15818 0
M  V30 2581 C 238.457 -0.757287 -5.86531 0
M  V30 2582 H 237.387 0.0614563 -0.751491 0
M  V30 2583 H 240.038 -0.54649 -1.75173 0
M  V30 2584 H 238.42 1.08903 -3.80731 0
M  V30 2585 H 239.594 -1.7323 -4.26999 0
M  V30 2586 H 237.909 -1.41766 -3.91524 0
M  V30 2587 H 240.506 1.02346 -5.24814 0
M  V30 2588 H 240.849 1.83172 -3.73837 0
M  V30 2589 H 241.382 0.149528 -3.97519 0
M  V30 2590 H 238.121 -1.70671 -6.32892 0
M  V30 2591 H 237.641 -0.0264061 -5.99794 0
M  V30 2592 H 239.32 -0.403482 -6.45741 0
M  V30 2593 N 239.452 1.56882 -0.150215 0
M  V30 2594 C 240.729 1.87844 0.545327 0
M  V30 2595 C 241.109 1.0567 1.82749 0
M  V30 2596 O 240.457 0.144442 2.28043 0
M  V30 2597 C 240.667 3.39526 0.80767 0
M  V30 2598 C 242.015 4.08814 1.14703 0
M  V30 2599 O 243.039 3.44723 0.896917 0
M  V30 2600 O 241.898 5.22004 1.61784 0
M  V30 2601 H 238.992 0.778677 0.278553 0
M  V30 2602 H 241.538 1.68666 -0.187068 0
M  V30 2603 H 240.31 3.91173 -0.0996096 0
M  V30 2604 H 239.933 3.64243 1.59413 0
M  V30 2605 N 240.93 -0.123565 1.57115 0
M  V30 2606 C 241.84 -1.17074 2.033 0
M  V30 2607 C 242.856 -1.4561 0.952559 0
M  V30 2608 O 244.032 -1.56817 1.26374 0
M  V30 2609 C 241.097 -2.47857 2.42421 0
M  V30 2610 C 240.158 -2.26758 3.64526 0
M  V30 2611 C 239.391 -3.51305 4.01771 0
M  V30 2612 O 239.614 -4.5843 3.39409 0
M  V30 2613 O 238.548 -3.42578 4.94898 0
M  V30 2614 H 242.374 -0.808555 2.92739 0
M  V30 2615 H 239.959 -0.334027 1.45618 0
M  V30 2616 H 241.841 -3.2492 2.68338 0
M  V30 2617 H 240.516 -2.83558 1.5613 0
M  V30 2618 H 239.423 -1.47569 3.43765 0
M  V30 2619 H 240.756 -1.95963 4.51508 0
M  V30 2620 N 242.408 -1.52605 -0.393616 0
M  V30 2621 C 243.657 -1.66649 -1.13627 0
M  V30 2622 C 243.97 -0.410364 -1.91247 0
M  V30 2623 O 245.176 -0.430854 -2.68059 0
M  V30 2624 C 243.632 -2.9449 -2.06891 0
M  V30 2625 C 243.24 -4.27266 -1.34714 0
M  V30 2626 C 244.984 -3.17899 -2.81319 0
M  V30 2627 C 242.891 -5.46217 -2.26717 0
M  V30 2628 H 241.821 -0.62084 -0.427871 0
M  V30 2629 H 244.472 -1.791 -0.399428 0
M  V30 2630 H 242.854 -2.75774 -2.84191 0
M  V30 2631 H 244.028 -4.56518 -0.626714 0
M  V30 2632 H 242.343 -4.10081 -0.722643 0
M  V30 2633 H 244.94 -4.03949 -3.50328 0
M  V30 2634 H 245.283 -2.32777 -3.45139 0
M  V30 2635 H 245.816 -3.37159 -2.11113 0
M  V30 2636 H 242.555 -6.33733 -1.67521 0
M  V30 2637 H 242.075 -5.21283 -2.96689 0
M  V30 2638 H 243.754 -5.7991 -2.86903 0
M  V30 2639 N 243.887 0.651787 -1.4349 0
M  V30 2640 C 245.136 1.40754 -1.44469 0
M  V30 2641 C 245.449 1.95463 -0.0731845 0
M  V30 2642 O 246.655 2.71471 0.0395721 0
M  V30 2643 C 245.111 2.54735 -2.5424 0
M  V30 2644 C 244.719 2.06628 -3.97504 0
M  V30 2645 C 246.463 3.32092 -2.64414 0
M  V30 2646 C 244.37 3.17829 -4.98737 0
M  V30 2647 H 243.3 0.528862 -0.53742 0
M  V30 2648 H 245.951 0.703365 -1.69485 0
M  V30 2649 H 244.333 3.2763 -2.22428 0
M  V30 2650 H 245.507 1.40734 -4.38783 0
M  V30 2651 H 243.822 1.42146 -3.91387 0
M  V30 2652 H 246.419 4.14952 -3.37223 0
M  V30 2653 H 246.762 3.80217 -1.69532 0
M  V30 2654 H 247.295 2.66279 -2.95534 0
M  V30 2655 H 244.034 2.74671 -5.95177 0
M  V30 2656 H 243.554 3.82429 -4.62069 0
M  V30 2657 H 245.233 3.82937 -5.21505 0
M  V30 2658 N 245.365 1.30045 0.890287 0
M  V30 2659 C 246.313 1.15873 2.01683 0
M  V30 2660 C 247.307 0.0719403 1.69247 0
M  V30 2661 O 248.513 0.232414 1.78493 0
M  V30 2662 H 244.888 0.358203 0.661207 0
M  V30 2663 H 246.859 2.11229 2.10772 0
M  V30 2664 C 245.608 0.861842 3.36849 0
M  V30 2665 H 244.931 1.69016 3.62317 0
M  V30 2666 H 246.371 0.802762 4.16331 0
M  V30 2667 C 244.83 -0.435132 3.34078 0
M  V30 2668 O 245.36 -1.4583 3.74295 0
M  V30 2669 N 243.566 -0.444377 2.87182 0
M  V30 2670 H 243.113 0.388723 2.5465 0
M  V30 2671 H 243.071 -1.31213 2.85711 0
M  V30 2672 N 246.843 -1.10192 1.12674 0
M  V30 2673 C 248.068 -1.86523 0.906853 0
M  V30 2674 C 248.493 -1.80221 -0.538711 0
M  V30 2675 O 247.851 -1.17396 -1.38158 0
M  V30 2676 C 247.899 -3.32758 1.3894 0
M  V30 2677 O 247.003 -4.08449 0.5695 0
M  V30 2678 H 246.344 -0.578678 0.325619 0
M  V30 2679 H 248.874 -1.39203 1.49946 0
M  V30 2680 H 248.884 -3.83608 1.38958 0
M  V30 2681 H 247.559 -3.36661 2.44197 0
M  V30 2682 H 246.136 -3.67427 0.636528 0
M  V30 2683 N 248.321 -0.919034 -1.28029 0
M  V30 2684 C 249.269 -0.401753 -2.29104 0
M  V30 2685 C 250.263 0.509354 -1.61561 0
M  V30 2686 O 251.469 0.390014 -1.75724 0
M  V30 2687 H 247.844 -0.111331 -0.743713 0
M  V30 2688 H 249.815 -1.2672 -2.70156 0
M  V30 2689 C 248.564 0.338148 -3.46052 0
M  V30 2690 H 247.887 -0.353732 -3.98232 0
M  V30 2691 H 249.327 0.664653 -4.18758 0
M  V30 2692 C 247.786 1.54798 -2.99231 0
M  V30 2693 O 248.316 2.64696 -3.02157 0
M  V30 2694 N 246.522 1.3968 -2.54829 0
M  V30 2695 H 246.069 0.502698 -2.52647 0
M  V30 2696 H 246.027 2.20755 -2.23863 0
M  V30 2697 N 249.799 1.42003 -0.683588 0
M  V30 2698 C 250.762 2.29191 -0.0198243 0
M  V30 2699 C 251.762 1.43773 0.72013 0
M  V30 2700 O 252.952 1.65061 0.556815 0
M  V30 2701 C 250.084 3.26435 0.982487 0
M  V30 2702 H 251.277 2.8938 -0.787345 0
M  V30 2703 H 248.83 1.49789 -0.446418 0
M  V30 2704 H 249.565 2.71203 1.77819 0
M  V30 2705 H 249.35 3.89449 0.455182 0
M  V30 2706 H 250.84 3.918 1.44508 0
M  V30 2707 N 251.277 0.427512 1.51691 0
M  V30 2708 C 252.24 -0.377132 2.26076 0
M  V30 2709 C 253.24 -0.958089 1.29141 0
M  V30 2710 O 254.43 -0.83408 1.52934 0
M  V30 2711 C 251.562 -1.53262 3.04506 0
M  V30 2712 H 252.755 0.27464 2.9864 0
M  V30 2713 H 250.308 0.180445 1.55255 0
M  V30 2714 H 251.043 -2.22072 2.36335 0
M  V30 2715 H 250.828 -1.12232 3.75694 0
M  V30 2716 H 252.318 -2.10135 3.60878 0
M  V30 2717 N 252.755 -1.56801 0.158532 0
M  V30 2718 C 254.003 -1.96102 -0.488712 0
M  V30 2719 C 254.324 -1.04498 -1.64636 0
M  V30 2720 O 253.594 -0.108783 -1.95598 0
M  V30 2721 H 252.174 -0.724102 -0.183535 0
M  V30 2722 H 254.836 -1.93457 0.236728 0
M  V30 2723 H 253.932 -3.00097 -0.857219 0
M  V30 2724 N 254.233 0.115231 -1.57178 0
M  V30 2725 C 255.181 1.16014 -2.01602 0
M  V30 2726 C 256.175 1.42653 -0.913587 0
M  V30 2727 O 257.381 1.42571 -1.09879 0
M  V30 2728 H 253.756 0.391252 -0.642204 0
M  V30 2729 H 255.727 0.758998 -2.88586 0
M  V30 2730 C 254.476 2.47767 -2.4394 0
M  V30 2731 H 253.799 2.28108 -3.28339 0
M  V30 2732 H 255.239 3.19432 -2.78818 0
M  V30 2733 C 253.698 3.10617 -1.30455 0
M  V30 2734 O 254.228 3.96846 -0.622585 0
M  V30 2735 N 252.434 2.70553 -1.06064 0
M  V30 2736 H 251.981 2.00527 -1.61699 0
M  V30 2737 H 251.939 3.12934 -0.303284 0
M  V30 2738 N 255.711 1.52812 0.385517 0
M  V30 2739 C 256.958 1.68026 1.1302 0
M  V30 2740 C 257.286 0.421934 1.89868 0
M  V30 2741 O 256.541 -0.595749 1.86412 0
M  V30 2742 C 256.84 2.86856 2.13187 0
M  V30 2743 C 256.506 4.24159 1.5297 0
M  V30 2744 C 255.168 4.61501 1.36274 0
M  V30 2745 C 257.52 5.09627 1.09223 0
M  V30 2746 C 254.848 5.81966 0.743837 0
M  V30 2747 C 257.2 6.30719 0.487411 0
M  V30 2748 C 255.864 6.6679 0.307777 0
M  V30 2749 H 255.134 0.614849 0.413571 0
M  V30 2750 H 257.781 1.86962 0.414405 0
M  V30 2751 H 256.086 2.6235 2.90998 0
M  V30 2752 H 257.783 2.95821 2.70722 0
M  V30 2753 H 254.373 3.94746 1.66954 0
M  V30 2754 H 258.557 4.81343 1.20922 0
M  V30 2755 H 253.813 6.08519 0.592891 0
M  V30 2756 H 257.987 6.96259 0.140143 0
M  V30 2757 H 255.614 7.60001 -0.173879 0
M  V30 2758 N 257.189 -0.644168 1.43834 0
M  V30 2759 C 258.466 -1.40188 1.36406 0
M  V30 2760 C 258.846 -2.11094 0.0163124 0
M  V30 2761 O 258.194 -2.05426 -1.00062 0
M  V30 2762 C 258.404 -2.3791 2.55343 0
M  V30 2763 C 259.752 -3.01637 2.98832 0
M  V30 2764 O 260.776 -2.48237 2.55455 0
M  V30 2765 O 259.635 -3.98477 3.74003 0
M  V30 2766 H 256.729 -0.626773 0.539523 0
M  V30 2767 H 259.275 -0.670317 1.559 0
M  V30 2768 H 258.047 -1.84525 3.4506 0
M  V30 2769 H 257.67 -3.18503 2.37995 0
M  V30 2770 N 258.668 -1.30515 -0.883378 0
M  V30 2771 C 259.896 -1.22359 -1.66841 0
M  V30 2772 C 260.311 0.213296 -1.87591 0
M  V30 2773 O 259.668 1.14075 -1.42454 0
M  V30 2774 C 259.719 -1.95011 -3.04389 0
M  V30 2775 O 259.44 -3.3309 -2.84575 0
M  V30 2776 C 260.941 -1.93532 -3.98824 0
M  V30 2777 H 258.161 -0.423371 -0.520575 0
M  V30 2778 H 260.705 -1.72167 -1.10357 0
M  V30 2779 H 258.86 -1.48997 -3.57601 0
M  V30 2780 H 259.274 -3.69907 -3.71846 0
M  V30 2781 H 260.748 -2.48902 -4.92699 0
M  V30 2782 H 261.225 -0.914627 -4.29571 0
M  V30 2783 H 261.831 -2.39364 -3.51547 0
M  V30 2784 N 260.146 1.09593 -1.13257 0
M  V30 2785 C 261.386 1.83349 -0.903472 0
M  V30 2786 C 261.75 1.83641 0.560351 0
M  V30 2787 O 262.951 2.53037 0.906947 0
M  V30 2788 C 261.222 3.25629 -1.47311 0
M  V30 2789 S 262.781 4.16408 -1.38382 0
M  V30 2790 H 259.599 0.632014 -0.325699 0
M  V30 2791 H 262.201 1.31817 -1.44376 0
M  V30 2792 H 260.905 3.22991 -2.53189 0
M  V30 2793 H 260.436 3.82233 -0.930689 0
M  V30 2794 H 262.451 4.94884 -0.361113 0
M  V30 2795 N 261.624 0.925811 1.2754 0
M  V30 2796 C 262.554 0.440748 2.29303 0
M  V30 2797 C 263.535 -0.497971 1.62648 0
M  V30 2798 O 264.72 -0.403126 1.8997 0
M  V30 2799 C 261.85 -0.309048 3.45922 0
M  V30 2800 C 260.804 0.54166 4.24559 0
M  V30 2801 C 260.13 -0.337191 5.33636 0
M  V30 2802 C 261.43 1.80516 4.90114 0
M  V30 2803 H 263.124 1.29121 2.70126 0
M  V30 2804 H 260.67 0.622323 1.29858 0
M  V30 2805 H 262.623 -0.659315 4.1621 0
M  V30 2806 H 261.347 -1.19352 3.04011 0
M  V30 2807 H 260.006 0.874609 3.56014 0
M  V30 2808 H 259.654 -1.22056 4.87966 0
M  V30 2809 H 259.354 0.228497 5.87156 0
M  V30 2810 H 260.878 -0.683072 6.06767 0
M  V30 2811 H 262.292 1.52307 5.52698 0
M  V30 2812 H 260.689 2.3142 5.53683 0
M  V30 2813 H 261.759 2.52581 4.13921 0
M  V30 2814 N 263.102 -1.41638 0.69111 0
M  V30 2815 C 264.052 -2.28 -0.000107832 0
M  V30 2816 C 265.036 -1.41964 -0.757304 0
M  V30 2817 O 266.228 -1.65274 -0.633532 0
M  V30 2818 C 263.357 -3.30209 -0.938983 0
M  V30 2819 C 262.443 -4.23725 -0.17827 0
M  V30 2820 N 262.834 -4.99017 0.825563 0
M  V30 2821 C 261.132 -4.44071 -0.414392 0
M  V30 2822 C 261.833 -5.67431 1.28052 0
M  V30 2823 N 260.809 -5.40197 0.607304 0
M  V30 2824 H 264.611 -2.83644 0.769617 0
M  V30 2825 H 262.125 -1.53797 0.521562 0
M  V30 2826 H 264.122 -3.90898 -1.44929 0
M  V30 2827 H 262.782 -2.76126 -1.70836 0
M  V30 2828 H 263.793 -5.03671 1.20566 0
M  V30 2829 H 260.47 -4.01004 -1.162 0
M  V30 2830 H 261.86 -6.37801 2.11327 0
M  V30 2831 N 264.58 -0.43555 -1.51462 0
M  V30 2832 C 265.53 0.394701 -2.24558 0
M  V30 2833 C 266.514 0.99157 -1.26715 0
M  V30 2834 O 267.706 0.910007 -1.51815 0
M  V30 2835 C 264.835 1.4963 -3.08975 0
M  V30 2836 C 263.921 0.908912 -4.14246 0
M  V30 2837 N 264.312 0.0505335 -5.05775 0
M  V30 2838 C 262.61 1.17668 -4.30198 0
M  V30 2839 C 263.311 -0.279161 -5.8103 0
M  V30 2840 N 262.287 0.336767 -5.42556 0
M  V30 2841 H 266.089 -0.267106 -2.92684 0
M  V30 2842 H 263.603 -0.247518 -1.60503 0
M  V30 2843 H 265.6 2.10394 -3.59917 0
M  V30 2844 H 264.26 2.16046 -2.42393 0
M  V30 2845 H 265.271 -0.31577 -5.16936 0
M  V30 2846 H 261.948 1.83847 -3.74842 0
M  V30 2847 H 263.338 -0.977553 -6.64751 0
M  V30 2848 N 266.058 1.56714 -0.166846 0
M  V30 2849 C 267.304 1.97039 0.479962 0
M  V30 2850 C 267.637 1.05264 1.63197 0
M  V30 2851 O 266.912 0.0988833 1.94248 0
M  V30 2852 C 267.195 3.46867 0.967212 0
M  V30 2853 C 267.048 4.49421 -0.18466 0
M  V30 2854 C 268.367 3.9968 1.84238 0
M  V30 2855 H 265.486 0.71641 0.172992 0
M  V30 2856 H 268.128 1.8832 -0.252079 0
M  V30 2857 H 266.278 3.54428 1.59101 0
M  V30 2858 H 267.95 4.53924 -0.821621 0
M  V30 2859 H 266.193 4.25573 -0.840837 0
M  V30 2860 H 266.864 5.51644 0.198317 0
M  V30 2861 H 269.34 3.94723 1.31655 0
M  V30 2862 H 268.216 5.04941 2.15234 0
M  V30 2863 H 268.477 3.43226 2.78654 0
M  V30 2864 N 267.536 -0.106894 1.57237 0
M  V30 2865 C 268.499 -1.11466 2.0027 0
M  V30 2866 C 269.499 -1.33623 0.894519 0
M  V30 2867 O 270.689 -1.29935 1.16028 0
M  V30 2868 C 267.821 -2.46646 2.35327 0
M  V30 2869 H 269.014 -0.744516 2.90512 0
M  V30 2870 H 266.567 -0.351576 1.52295 0
M  V30 2871 H 267.302 -2.88558 1.48003 0
M  V30 2872 H 267.087 -2.31915 3.16161 0
M  V30 2873 H 268.577 -3.19151 2.69318 0
M  V30 2874 N 269.014 -1.53014 -0.377408 0
M  V30 2875 C 269.924 -1.81557 -1.48574 0
M  V30 2876 C 270.94 -0.703102 -1.59162 0
M  V30 2877 O 272.116 -0.99192 -1.75279 0
M  V30 2878 C 269.181 -1.9889 -2.83978 0
M  V30 2879 C 268.242 -3.22801 -2.83016 0
M  V30 2880 C 267.475 -3.39298 -4.11962 0
M  V30 2881 O 267.698 -2.60345 -5.0752 0
M  V30 2882 O 266.632 -4.32604 -4.18494 0
M  V30 2883 H 270.458 -2.75695 -1.27382 0
M  V30 2884 H 268.043 -1.38248 -0.566373 0
M  V30 2885 H 269.925 -2.11931 -3.6423 0
M  V30 2886 H 268.6 -1.07942 -3.05172 0
M  V30 2887 H 267.507 -3.15193 -2.01505 0
M  V30 2888 H 268.84 -4.13632 -2.66775 0
M  V30 2889 N 270.492 0.636531 -1.44174 0
M  V30 2890 C 271.425 1.76139 -1.45087 0
M  V30 2891 C 272.403 1.59611 -0.310326 0
M  V30 2892 O 273.587 1.81568 -0.506477 0
M  V30 2893 C 270.714 3.13648 -1.27839 0
M  V30 2894 C 269.76 3.48838 -2.45386 0
M  V30 2895 S 270.593 3.46927 -4.07924 0
M  V30 2896 C 271.749 4.87064 -3.9309 0
M  V30 2897 H 271.982 1.75096 -2.40268 0
M  V30 2898 H 269.515 0.810666 -1.31406 0
M  V30 2899 H 271.473 3.93002 -1.18575 0
M  V30 2900 H 270.134 3.12235 -0.341787 0
M  V30 2901 H 269.327 4.48886 -2.29167 0
M  V30 2902 H 268.929 2.76935 -2.51362 0
M  V30 2903 H 271.221 5.76153 -3.56446 0
M  V30 2904 H 272.164 5.08337 -4.92949 0
M  V30 2905 H 272.572 4.61384 -3.25246 0
M  V30 2906 N 271.97 1.30982 0.876444 0
M  V30 2907 C 272.933 1.18054 1.96459 0
M  V30 2908 C 273.933 0.109399 1.60427 0
M  V30 2909 O 275.123 0.358173 1.70478 0
M  V30 2910 C 272.255 0.810616 3.31122 0
M  V30 2911 H 273.448 2.14735 2.09354 0
M  V30 2912 H 271.001 1.145 1.06392 0
M  V30 2913 H 271.736 -0.155322 3.23928 0
M  V30 2914 H 271.521 1.58481 3.58645 0
M  V30 2915 H 273.011 0.743876 4.10921 0
M  V30 2916 N 273.449 -1.08991 1.13837 0
M  V30 2917 C 274.381 -2.15606 0.777612 0
M  V30 2918 C 275.394 -1.61533 -0.202739 0
M  V30 2919 O 276.583 -1.78491 0.0181055 0
M  V30 2920 C 273.683 -3.3864 0.132623 0
M  V30 2921 C 272.856 -4.22115 1.1462 0
M  V30 2922 C 271.915 -5.23564 0.526074 0
M  V30 2923 O 270.941 -5.56678 1.18735 0
M  V30 2924 N 272.143 -5.76266 -0.699866 0
M  V30 2925 H 274.908 -2.47159 1.69506 0
M  V30 2926 H 272.469 -1.24747 1.03198 0
M  V30 2927 H 274.461 -4.03626 -0.29459 0
M  V30 2928 H 273.031 -3.04938 -0.687849 0
M  V30 2929 H 272.251 -3.53199 1.75055 0
M  V30 2930 H 273.539 -4.74709 1.83109 0
M  V30 2931 H 272.937 -5.51585 -1.25581 0
M  V30 2932 H 271.494 -6.42963 -1.06968 0
M  V30 2933 N 274.927 -0.932562 -1.27047 0
M  V30 2934 C 276.175 -0.574422 -1.93765 0
M  V30 2935 C 276.496 0.887993 -1.73608 0
M  V30 2936 O 275.766 1.62999 -1.08665 0
M  V30 2937 H 274.346 -0.209451 -0.717035 0
M  V30 2938 H 277.008 -1.18601 -1.5466 0
M  V30 2939 H 276.104 -0.784841 -3.02071 0
M  V30 2940 N 276.405 1.4127 -0.698611 0
M  V30 2941 C 277.335 2.33447 -0.049629 0
M  V30 2942 C 278.316 1.51982 0.763898 0
M  V30 2943 O 279.501 1.80509 0.716257 0
M  V30 2944 C 276.631 3.35828 0.885267 0
M  V30 2945 C 275.585 4.27627 0.178613 0
M  V30 2946 C 274.911 5.20406 1.22807 0
M  V30 2947 C 276.211 5.13459 -0.956933 0
M  V30 2948 H 277.905 2.87966 -0.81951 0
M  V30 2949 H 275.451 1.38461 -0.395538 0
M  V30 2950 H 277.404 3.9924 1.34854 0
M  V30 2951 H 276.128 2.79666 1.68685 0
M  V30 2952 H 274.787 3.65643 -0.26466 0
M  V30 2953 H 274.435 4.60558 2.02226 0
M  V30 2954 H 274.135 5.82661 0.760239 0
M  V30 2955 H 275.659 5.86695 1.69179 0
M  V30 2956 H 277.073 5.70421 -0.573805 0
M  V30 2957 H 275.47 5.8467 -1.35205 0
M  V30 2958 H 276.54 4.50443 -1.79524 0
M  V30 2959 N 277.883 0.443576 1.51229 0
M  V30 2960 C 278.831 -0.37904 2.29491 0
M  V30 2961 C 279.825 -1.0153 1.35603 0
M  V30 2962 O 281.031 -0.94955 1.52917 0
M  V30 2963 H 277.406 -0.141053 0.738653 0
M  V30 2964 H 279.377 0.301799 2.9687 0
M  V30 2965 C 278.126 -1.46426 3.15364 0
M  V30 2966 H 277.449 -0.984037 3.87501 0
M  V30 2967 H 278.889 -2.01297 3.7317 0
M  V30 2968 C 277.348 -2.45099 2.31146 0
M  V30 2969 O 277.878 -3.49773 1.9754 0
M  V30 2970 N 276.084 -2.16139 1.94249 0
M  V30 2971 H 275.631 -1.31044 2.21777 0
M  V30 2972 H 275.589 -2.82398 1.38198 0
M  V30 2973 N 279.361 -1.56624 0.175154 0
M  V30 2974 C 280.309 -2.19468 -0.770495 0
M  V30 2975 C 281.303 -1.15985 -1.23466 0
M  V30 2976 O 282.509 -1.34176 -1.19987 0
M  V30 2977 H 278.884 -0.703095 -0.266761 0
M  V30 2978 H 280.855 -2.97613 -0.216542 0
M  V30 2979 C 279.604 -2.85264 -1.98796 0
M  V30 2980 H 278.927 -3.64623 -1.63983 0
M  V30 2981 H 280.367 -3.327 -2.62843 0
M  V30 2982 C 278.826 -1.85239 -2.81404 0
M  V30 2983 O 279.356 -1.34024 -3.78682 0
M  V30 2984 N 277.562 -1.53911 -2.46495 0
M  V30 2985 H 277.109 -1.95751 -1.67449 0
M  V30 2986 H 277.067 -0.872382 -3.02054 0
M  V30 2987 N 280.839 0.0985539 -1.57292 0
M  V30 2988 C 281.786 1.11981 -2.01814 0
M  V30 2989 C 282.756 1.39999 -0.89384 0
M  V30 2990 O 283.941 1.5152 -1.15958 0
M  V30 2991 C 281.081 2.43577 -2.44467 0
M  V30 2992 C 280.194 2.2232 -3.70402 0
M  V30 2993 C 279.329 3.4729 -4.01949 0
M  V30 2994 C 278.368 3.2128 -5.21005 0
M  V30 2995 N 277.505 4.38507 -5.48321 0
M  V30 2996 H 282.345 0.733149 -2.88841 0
M  V30 2997 H 279.882 0.350482 -1.42864 0
M  V30 2998 H 281.84 3.20373 -2.6724 0
M  V30 2999 H 280.47 2.80097 -1.60455 0
M  V30 3000 H 279.522 1.36343 -3.55126 0
M  V30 3001 H 280.834 1.99089 -4.57345 0
M  V30 3002 H 279.988 4.32495 -4.25479 0
M  V30 3003 H 278.727 3.73572 -3.13521 0
M  V30 3004 H 277.732 2.34468 -4.97298 0
M  V30 3005 H 278.957 2.96348 -6.11028 0
M  V30 3006 H 276.903 4.64871 -4.62851 0
M  V30 3007 H 276.82 4.18455 -6.29628 0
M  V30 3008 H 278.088 5.24787 -5.76385 0
M  V30 3009 N 282.317 1.53212 0.369288 0
M  V30 3010 C 283.563 1.69466 1.11397 0
M  V30 3011 C 283.896 0.443257 1.89074 0
M  V30 3012 O 283.171 -0.559386 1.86282 0
M  V30 3013 C 283.454 2.9422 2.07621 0
M  V30 3014 C 283.307 4.29508 1.33577 0
M  V30 3015 C 284.626 3.14565 3.07794 0
M  V30 3016 H 281.745 0.616667 0.403597 0
M  V30 3017 H 284.387 1.85845 0.395179 0
M  V30 3018 H 282.537 2.80387 2.68916 0
M  V30 3019 H 284.209 4.55147 0.750955 0
M  V30 3020 H 282.452 4.29088 0.637618 0
M  V30 3021 H 283.123 5.12926 2.03989 0
M  V30 3022 H 285.599 3.2756 2.56601 0
M  V30 3023 H 284.475 4.03297 3.72348 0
M  V30 3024 H 284.736 2.29675 3.77759 0
M  V30 3025 N 283.795 -0.628877 1.44509 0
M  V30 3026 C 285.072 -1.38733 1.37886 0
M  V30 3027 C 285.452 -2.11065 0.0387008 0
M  V30 3028 O 284.8 -2.06476 -0.97878 0
M  V30 3029 C 285.01 -2.35188 2.57852 0
M  V30 3030 C 286.358 -2.9845 3.02014 0
M  V30 3031 O 287.382 -2.45513 2.58073 0
M  V30 3032 O 286.241 -3.94487 3.78209 0
M  V30 3033 H 283.335 -0.621015 0.54614 0
M  V30 3034 H 285.881 -0.653744 1.56602 0
M  V30 3035 H 284.653 -1.80855 3.46998 0
M  V30 3036 H 284.276 -3.1596 2.4136 0
M  V30 3037 N 285.273 -1.31445 -0.869486 0
M  V30 3038 C 286.52 -1.21158 -1.62256 0
M  V30 3039 C 286.848 0.230155 -1.93133 0
M  V30 3040 O 286.103 1.17906 -1.56194 0
M  V30 3041 C 286.402 -2.00145 -2.96102 0
M  V30 3042 C 286.068 -3.4964 -2.84715 0
M  V30 3043 C 284.73 -3.90403 -2.81317 0
M  V30 3044 C 287.082 -4.44769 -2.71716 0
M  V30 3045 C 284.41 -5.24561 -2.62778 0
M  V30 3046 C 286.762 -5.79054 -2.54714 0
M  V30 3047 C 285.426 -6.19037 -2.49699 0
M  V30 3048 H 284.696 -0.443348 -0.593737 0
M  V30 3049 H 287.343 -1.62715 -1.00976 0
M  V30 3050 H 285.648 -1.5127 -3.6142 0
M  V30 3051 H 287.345 -1.89566 -3.53363 0
M  V30 3052 H 283.935 -3.17256 -2.88178 0
M  V30 3053 H 288.119 -4.14208 -2.73397 0
M  V30 3054 H 283.375 -5.54613 -2.57321 0
M  V30 3055 H 287.549 -6.52393 -2.43632 0
M  V30 3056 H 285.176 -7.22935 -2.35093 0
M  V30 3057 N 286.751 1.08385 -1.14413 0
M  V30 3058 C 287.681 2.17321 -0.854044 0
M  V30 3059 C 288.662 1.69024 0.191049 0
M  V30 3060 O 289.847 1.94141 0.0476779 0
M  V30 3061 C 286.977 3.45719 -0.330983 0
M  V30 3062 C 285.931 4.07409 -1.31155 0
M  V30 3063 C 285.257 5.30762 -0.64778 0
M  V30 3064 C 286.557 4.48665 -2.67388 0
M  V30 3065 H 288.251 2.41845 -1.76498 0
M  V30 3066 H 285.797 1.16233 -0.850051 0
M  V30 3067 H 287.75 4.21241 -0.115645 0
M  V30 3068 H 286.474 3.2075 0.615381 0
M  V30 3069 H 285.133 3.33919 -1.51306 0
M  V30 3070 H 284.781 5.02078 0.304398 0
M  V30 3071 H 284.481 5.72992 -1.30207 0
M  V30 3072 H 286.005 6.08998 -0.441972 0
M  V30 3073 H 287.419 5.15364 -2.51143 0
M  V30 3074 H 285.816 5.01814 -3.29093 0
M  V30 3075 H 286.886 3.60543 -3.24248 0
M  V30 3076 N 288.23 0.939286 1.26551 0
M  V30 3077 C 289.477 0.585847 1.9384 0
M  V30 3078 C 289.805 -0.874784 1.73718 0
M  V30 3079 O 289.06 -1.64092 1.06642 0
M  V30 3080 C 289.359 0.872106 3.46596 0
M  V30 3081 C 289.025 2.31632 3.86856 0
M  V30 3082 C 287.687 2.71111 3.97558 0
M  V30 3083 C 290.039 3.25494 4.07066 0
M  V30 3084 C 287.367 4.03553 4.25866 0
M  V30 3085 C 289.719 4.57531 4.36862 0
M  V30 3086 C 288.383 4.96828 4.45778 0
M  V30 3087 H 287.653 0.214377 0.709312 0
M  V30 3088 H 290.3 1.18544 1.50398 0
M  V30 3089 H 288.605 0.18996 3.91339 0
M  V30 3090 H 290.302 0.577442 3.96821 0
M  V30 3091 H 286.892 2.00008 3.79071 0
M  V30 3092 H 291.076 2.9619 3.98227 0
M  V30 3093 H 286.332 4.33665 4.30981 0
M  V30 3094 H 290.506 5.30254 4.51446 0
M  V30 3095 H 288.133 5.99482 4.67468 0
M  V30 3096 N 289.708 -1.40897 0.706093 0
M  V30 3097 C 290.948 -2.02916 0.245827 0
M  V30 3098 C 291.312 -1.54751 -1.13649 0
M  V30 3099 O 292.513 -2.08768 -1.69321 0
M  V30 3100 C 290.784 -3.56031 0.312537 0
M  V30 3101 S 292.343 -4.38741 -0.0721388 0
M  V30 3102 H 289.161 -0.704186 0.0982007 0
M  V30 3103 H 291.763 -1.72168 0.926207 0
M  V30 3104 H 290.467 -3.88579 1.32039 0
M  V30 3105 H 289.998 -3.91495 -0.386641 0
M  V30 3106 H 292.013 -4.78952 -1.29692 0
M  V30 3107 N 291.186 -0.45159 -1.50991 0
M  V30 3108 C 292.433 0.110074 -2.02201 0
M  V30 3109 C 292.761 1.4146 -1.33489 0
M  V30 3110 O 292.016 1.90617 -0.443125 0
M  V30 3111 C 292.315 0.361728 -3.55565 0
M  V30 3112 C 291.981 -0.858717 -4.42648 0
M  V30 3113 C 290.643 -1.19338 -4.66167 0
M  V30 3114 C 292.995 -1.67221 -4.93646 0
M  V30 3115 C 290.323 -2.34195 -5.37931 0
M  V30 3116 C 292.675 -2.8119 -5.6667 0
M  V30 3117 C 291.339 -3.15094 -5.88449 0
M  V30 3118 H 290.609 0.040279 -0.739904 0
M  V30 3119 H 293.256 -0.601696 -1.81802 0
M  V30 3120 H 291.561 1.15554 -3.74372 0
M  V30 3121 H 293.258 0.80996 -3.92735 0
M  V30 3122 H 289.848 -0.58796 -4.24548 0
M  V30 3123 H 294.032 -1.42686 -4.75347 0
M  V30 3124 H 289.288 -2.6076 -5.53005 0
M  V30 3125 H 293.462 -3.44585 -6.05173 0
M  V30 3126 H 291.089 -4.04204 -6.43835 0
M  V30 3127 N 292.664 1.56529 -0.183458 0
M  V30 3128 C 293.574 2.22144 0.754272 0
M  V30 3129 C 294.59 1.21684 1.24374 0
M  V30 3130 O 295.766 1.54385 1.29333 0
M  V30 3131 C 292.831 2.85884 1.96141 0
M  V30 3132 C 291.892 4.01579 1.51765 0
M  V30 3133 C 291.125 4.6227 2.66725 0
M  V30 3134 O 291.348 4.21865 3.83909 0
M  V30 3135 O 290.282 5.51936 2.40104 0
M  V30 3136 H 294.108 3.02861 0.225527 0
M  V30 3137 H 291.693 1.49331 0.0453032 0
M  V30 3138 H 293.575 3.26253 2.66715 0
M  V30 3139 H 292.25 2.08154 2.47899 0
M  V30 3140 H 291.157 3.65856 0.781049 0
M  V30 3141 H 292.49 4.80938 1.04686 0
M  V30 3142 N 294.142 -0.090211 1.57342 0
M  V30 3143 C 295.367 -0.810082 1.90925 0
M  V30 3144 C 295.792 -1.71248 0.778187 0
M  V30 3145 O 295.15 -1.79278 -0.269991 0
M  V30 3146 C 295.198 -1.59529 3.23393 0
M  V30 3147 O 294.302 -2.70461 3.11327 0
M  V30 3148 H 293.643 -0.222231 0.625707 0
M  V30 3149 H 296.173 -0.0639716 2.045 0
M  V30 3150 H 296.183 -1.97847 3.5682 0
M  V30 3151 H 294.858 -0.933055 4.05299 0
M  V30 3152 H 293.435 -2.35135 2.89423 0
M  V30 3153 N 295.62 -1.53406 -0.361157 0
M  V30 3154 C 296.553 -1.74946 -1.46524 0
M  V30 3155 C 297.531 -0.59795 -1.51206 0
M  V30 3156 O 298.715 -0.831062 -1.69191 0
M  V30 3157 C 295.842 -1.83224 -2.84863 0
M  V30 3158 C 294.888 -3.05233 -2.97885 0
M  V30 3159 S 295.721 -4.6466 -2.66179 0
M  V30 3160 C 296.877 -4.75793 -4.06659 0
M  V30 3161 H 297.11 -2.68319 -1.28033 0
M  V30 3162 H 294.643 -1.44051 -0.555764 0
M  V30 3163 H 296.601 -1.88679 -3.64569 0
M  V30 3164 H 295.262 -0.908948 -3.00661 0
M  V30 3165 H 294.455 -3.07648 -3.9921 0
M  V30 3166 H 294.057 -2.97913 -2.26106 0
M  V30 3167 H 296.349 -4.5612 -5.0096 0
M  V30 3168 H 297.292 -5.7786 -4.09247 0
M  V30 3169 H 297.7 -4.04389 -3.93865 0
M  V30 3170 N 297.098 0.621204 -1.44841 0
M  V30 3171 C 298.045 1.73267 -1.5247 0
M  V30 3172 C 299.015 1.6189 -0.371611 0
M  V30 3173 O 300.2 1.81668 -0.58321 0
M  V30 3174 C 297.34 3.11545 -1.48438 0
M  V30 3175 C 296.453 3.33827 -2.74196 0
M  V30 3176 C 295.588 4.62133 -2.61929 0
M  V30 3177 C 294.627 4.77627 -3.82804 0
M  V30 3178 N 293.764 5.97219 -3.69153 0
M  V30 3179 H 298.604 1.66082 -2.47428 0
M  V30 3180 H 296.141 0.810026 -1.22788 0
M  V30 3181 H 298.099 3.91528 -1.4409 0
M  V30 3182 H 296.729 3.1772 -0.570402 0
M  V30 3183 H 295.781 2.47715 -2.88689 0
M  V30 3184 H 297.093 3.41153 -3.6389 0
M  V30 3185 H 296.247 5.50291 -2.5547 0
M  V30 3186 H 294.986 4.57182 -1.69811 0
M  V30 3187 H 293.991 3.87896 -3.89637 0
M  V30 3188 H 295.216 4.84385 -4.75971 0
M  V30 3189 H 293.162 5.93339 -2.79794 0
M  V30 3190 H 293.079 6.05644 -4.52472 0
M  V30 3191 H 294.347 6.87912 -3.66603 0
M  V30 3192 N 298.576 1.31904 0.862503 0
M  V30 3193 C 299.853 1.12644 1.59908 0
M  V30 3194 C 300.233 -0.316104 2.0872 0
M  V30 3195 O 299.581 -1.31145 1.87118 0
M  V30 3196 C 299.791 2.1472 2.7513 0
M  V30 3197 C 301.139 2.47637 3.44907 0
M  V30 3198 O 302.163 2.13205 2.85346 0
M  V30 3199 O 301.022 3.06632 4.52371 0
M  V30 3200 H 298.116 0.43416 0.703871 0
M  V30 3201 H 300.662 1.43408 0.907314 0
M  V30 3202 H 299.434 3.1172 2.3653 0
M  V30 3203 H 299.057 1.84905 3.51989 0
M  V30 3204 N 300.054 -1.07777 1.14986 0
M  V30 3205 C 300.986 -2.14769 0.800436 0
M  V30 3206 C 301.999 -1.61739 -0.185595 0
M  V30 3207 O 303.188 -1.78462 0.0370358 0
M  V30 3208 C 300.288 -3.38481 0.168533 0
M  V30 3209 C 299.461 -4.20876 1.1909 0
M  V30 3210 C 298.52 -5.22976 0.581575 0
M  V30 3211 O 297.546 -5.55388 1.24633 0
M  V30 3212 N 298.748 -5.76976 -0.638706 0
M  V30 3213 H 301.513 -2.45348 1.72118 0
M  V30 3214 H 299.074 -1.23645 1.04515 0
M  V30 3215 H 301.066 -4.03916 -0.251764 0
M  V30 3216 H 299.636 -3.05651 -0.655467 0
M  V30 3217 H 298.856 -3.51322 1.78791 0
M  V30 3218 H 300.144 -4.7274 1.88133 0
M  V30 3219 H 299.542 -5.52886 -1.19723 0
M  V30 3220 H 298.099 -6.44061 -1.00142 0
M  V30 3221 N 301.532 -0.945985 -1.26051 0
M  V30 3222 C 302.442 -0.465633 -2.29933 0
M  V30 3223 C 303.458 0.462761 -1.67733 0
M  V30 3224 O 304.634 0.341118 -1.9849 0
M  V30 3225 C 301.699 0.256994 -3.45746 0
M  V30 3226 C 300.76 -0.708549 -4.23412 0
M  V30 3227 C 299.993 -0.0203135 -5.33696 0
M  V30 3228 O 300.216 1.19571 -5.57726 0
M  V30 3229 O 299.15 -0.701459 -5.97799 0
M  V30 3230 H 302.976 -1.32866 -2.73094 0
M  V30 3231 H 300.561 -0.712071 -1.31339 0
M  V30 3232 H 302.443 0.663852 -4.16138 0
M  V30 3233 H 301.118 1.09533 -3.04605 0
M  V30 3234 H 300.025 -1.16545 -3.55483 0
M  V30 3235 H 301.358 -1.51465 -4.68315 0
M  V30 3236 N 303.011 1.40521 -0.713556 0
M  V30 3237 C 303.959 2.32549 -0.0485227 0
M  V30 3238 C 304.953 1.51931 0.74922 0
M  V30 3239 O 306.159 1.67745 0.652816 0
M  V30 3240 H 302.534 0.751994 0.00311138 0
M  V30 3241 H 304.505 2.86291 -0.841443 0
M  V30 3242 C 303.254 3.36879 0.860687 0
M  V30 3243 H 302.577 3.98978 0.256246 0
M  V30 3244 H 304.017 4.03772 1.294 0
M  V30 3245 C 302.476 2.72197 1.9852 0
M  V30 3246 O 303.006 2.5837 3.07584 0
M  V30 3247 N 301.212 2.30612 1.76823 0
M  V30 3248 H 300.759 2.42059 0.881217 0
M  V30 3249 H 300.717 1.87672 2.52243 0
M  V30 3250 N 304.489 0.459591 1.5075 0
M  V30 3251 C 305.436 -0.340524 2.28274 0
M  V30 3252 C 306.406 -0.997371 1.32822 0
M  V30 3253 O 307.591 -1.01202 1.61749 0
M  V30 3254 C 304.731 -1.42317 3.14388 0
M  V30 3255 C 303.844 -0.782251 4.24859 0
M  V30 3256 C 302.979 -1.84182 4.98247 0
M  V30 3257 C 302.018 -1.18053 6.00608 0
M  V30 3258 N 301.155 -2.18244 6.67319 0
M  V30 3259 H 305.995 0.326899 2.96202 0
M  V30 3260 H 303.532 0.173057 1.46078 0
M  V30 3261 H 305.49 -2.06241 3.62658 0
M  V30 3262 H 304.12 -2.05992 2.4853 0
M  V30 3263 H 303.172 -0.0307404 3.80388 0
M  V30 3264 H 304.484 -0.259663 4.98124 0
M  V30 3265 H 303.638 -2.55714 5.50177 0
M  V30 3266 H 302.377 -2.39819 4.24662 0
M  V30 3267 H 301.382 -0.450776 5.47949 0
M  V30 3268 H 302.607 -0.631202 6.7616 0
M  V30 3269 H 300.553 -2.72919 5.96533 0
M  V30 3270 H 300.47 -1.70938 7.36421 0
M  V30 3271 H 301.738 -2.89191 7.23871 0
M  V30 3272 N 305.967 -1.56429 0.191757 0
M  V30 3273 C 306.914 -2.18936 -0.730454 0
M  V30 3274 C 307.884 -1.13557 -1.21219 0
M  V30 3275 O 309.069 -1.41794 -1.27668 0
M  V30 3276 C 306.209 -2.85013 -1.9458 0
M  V30 3277 C 305.322 -4.04909 -1.50574 0
M  V30 3278 C 304.457 -4.58853 -2.67634 0
M  V30 3279 C 303.496 -5.71114 -2.20217 0
M  V30 3280 N 302.633 -6.19478 -3.30442 0
M  V30 3281 H 307.473 -2.97389 -0.190664 0
M  V30 3282 H 305.01 -1.46869 -0.0823694 0
M  V30 3283 H 306.968 -3.21492 -2.65893 0
M  V30 3284 H 305.598 -2.09129 -2.45896 0
M  V30 3285 H 304.65 -3.74115 -0.688605 0
M  V30 3286 H 305.962 -4.86113 -1.11784 0
M  V30 3287 H 305.116 -4.97619 -3.47074 0
M  V30 3288 H 303.855 -3.76749 -3.09696 0
M  V30 3289 H 302.86 -5.31879 -1.3923 0
M  V30 3290 H 304.085 -6.55033 -1.79189 0
M  V30 3291 H 302.031 -5.40297 -3.72041 0
M  V30 3292 H 301.948 -6.95725 -2.9581 0
M  V30 3293 H 303.216 -6.62898 -4.10106 0
M  V30 3294 N 307.445 0.0818655 -1.57387 0
M  V30 3295 C 308.67 0.799946 -1.91352 0
M  V30 3296 C 309.095 1.70833 -0.787258 0
M  V30 3297 O 308.453 1.79419 0.26048 0
M  V30 3298 C 308.501 1.57812 -3.24234 0
M  V30 3299 O 307.605 2.68806 -3.12757 0
M  V30 3300 H 306.946 0.21891 -0.626877 0
M  V30 3301 H 309.476 0.0531256 -2.04531 0
M  V30 3302 H 309.486 1.95952 -3.57864 0
M  V30 3303 H 308.161 0.911548 -4.05788 0
M  V30 3304 H 306.738 2.33597 -2.90666 0
M  V30 3305 N 308.923 1.53595 0.353017 0
M  V30 3306 C 309.853 1.83902 1.43883 0
M  V30 3307 C 310.834 0.693421 1.55324 0
M  V30 3308 O 312.019 0.944452 1.69687 0
M  V30 3309 C 309.149 2.04016 2.8106 0
M  V30 3310 C 308.103 3.19814 2.84434 0
M  V30 3311 C 307.429 3.25244 4.24406 0
M  V30 3312 C 308.729 4.58133 2.50822 0
M  V30 3313 H 310.423 2.74835 1.1877 0
M  V30 3314 H 307.969 1.32242 0.569917 0
M  V30 3315 H 309.922 2.238 3.57059 0
M  V30 3316 H 308.646 1.09804 3.07588 0
M  V30 3317 H 307.305 2.9987 2.10887 0
M  V30 3318 H 306.953 2.28646 4.48029 0
M  V30 3319 H 306.653 4.03054 4.27576 0
M  V30 3320 H 308.177 3.47228 5.0226 0
M  V30 3321 H 309.591 4.77995 3.16534 0
M  V30 3322 H 307.988 5.38276 2.6529 0
M  V30 3323 H 309.058 4.62387 1.46034 0
M  V30 3324 N 310.401 -0.613514 1.45168 0
M  V30 3325 C 311.334 -1.73809 1.47871 0
M  V30 3326 C 312.312 -1.59097 0.33568 0
M  V30 3327 O 313.496 -1.8074 0.535299 0
M  V30 3328 C 310.623 -3.11574 1.32813 0
M  V30 3329 C 309.669 -3.4489 2.50905 0
M  V30 3330 S 310.502 -3.40393 4.13392 0
M  V30 3331 C 311.658 -4.80749 4.00789 0
M  V30 3332 H 311.891 -1.71252 2.43023 0
M  V30 3333 H 309.424 -0.789658 1.32679 0
M  V30 3334 H 311.382 -3.91065 1.24812 0
M  V30 3335 H 310.043 -3.11652 0.391418 0
M  V30 3336 H 309.236 -4.45183 2.36279 0
M  V30 3337 H 308.838 -2.72901 2.55736 0
M  V30 3338 H 311.13 -5.7041 3.65567 0
M  V30 3339 H 312.073 -5.00431 5.00974 0
M  V30 3340 H 312.481 -4.56151 3.32545 0
M  V30 3341 N 311.879 -1.3236 -0.855495 0
M  V30 3342 C 313.128 -1.22226 -1.60448 0
M  V30 3343 C 313.441 0.214733 -1.94418 0
M  V30 3344 O 314.647 0.437917 -2.67945 0
M  V30 3345 C 313.103 -2.14063 -2.89318 0
M  V30 3346 C 312.711 -3.62839 -2.62777 0
M  V30 3347 C 314.455 -2.12764 -3.67331 0
M  V30 3348 C 312.362 -4.4664 -3.87643 0
M  V30 3349 H 311.292 -0.453904 -0.602069 0
M  V30 3350 H 313.943 -1.57314 -0.944698 0
M  V30 3351 H 312.325 -1.71889 -3.5675 0
M  V30 3352 H 313.499 -4.1335 -2.03662 0
M  V30 3353 H 311.814 -3.66261 -1.98096 0
M  V30 3354 H 314.411 -2.72611 -4.59987 0
M  V30 3355 H 314.754 -1.11841 -4.00995 0
M  V30 3356 H 315.287 -2.53214 -3.06802 0
M  V30 3357 H 312.026 -5.48373 -3.5912 0
M  V30 3358 H 311.546 -4.0088 -4.46156 0
M  V30 3359 H 313.225 -4.59597 -4.55389 0
M  V30 3360 N 313.357 1.07166 -1.15556 0
M  V30 3361 C 314.305 2.16517 -0.8499 0
M  V30 3362 C 315.299 1.68468 0.177454 0
M  V30 3363 O 316.505 1.79971 0.0323026 0
M  V30 3364 H 312.88 0.706652 -0.25719 0
M  V30 3365 H 314.851 2.39514 -1.77976 0
M  V30 3366 C 313.6 3.45855 -0.357682 0
M  V30 3367 H 312.923 3.83214 -1.13961 0
M  V30 3368 H 314.363 4.23607 -0.182489 0
M  V30 3369 C 312.822 3.24062 0.921152 0
M  V30 3370 O 313.352 3.48813 1.9923 0
M  V30 3371 N 311.558 2.77539 0.86141 0
M  V30 3372 H 311.105 2.57598 -0.0104408 0
M  V30 3373 H 311.063 2.63337 1.71758 0
M  V30 3374 N 314.835 0.952656 1.25548 0
M  V30 3375 C 316.082 0.606373 1.93208 0
M  V30 3376 C 316.41 -0.85631 1.74636 0
M  V30 3377 O 315.665 -1.62951 1.08376 0
M  V30 3378 C 315.964 0.908818 3.45652 0
M  V30 3379 C 315.63 2.35722 3.84378 0
M  V30 3380 C 314.292 2.75312 3.9466 0
M  V30 3381 C 316.644 3.29793 4.03591 0
M  V30 3382 C 313.972 4.08047 4.21562 0
M  V30 3383 C 316.324 4.62138 4.31985 0
M  V30 3384 C 314.988 5.01528 4.40484 0
M  V30 3385 H 314.258 0.221888 0.706998 0
M  V30 3386 H 316.905 1.20132 1.49133 0
M  V30 3387 H 315.21 0.231456 3.91116 0
M  V30 3388 H 316.907 0.619498 3.96186 0
M  V30 3389 H 313.497 2.04017 3.76928 0
M  V30 3390 H 317.681 3.00397 3.95064 0
M  V30 3391 H 312.937 4.38212 4.26357 0
M  V30 3392 H 317.111 5.35012 4.45797 0
M  V30 3393 H 314.738 6.04406 4.61083 0
M  V30 3394 N 316.313 -1.40141 0.720998 0
M  V30 3395 C 317.59 -1.94677 0.189757 0
M  V30 3396 C 317.97 -1.65879 -1.30566 0
M  V30 3397 O 317.318 -0.979391 -2.06447 0
M  V30 3398 C 317.528 -3.45279 0.508304 0
M  V30 3399 C 318.876 -4.22209 0.449934 0
M  V30 3400 O 319.9 -3.53413 0.444677 0
M  V30 3401 O 318.759 -5.44788 0.432189 0
M  V30 3402 H 315.853 -0.826459 0.0299026 0
M  V30 3403 H 318.399 -1.49719 0.7989 0
M  V30 3404 H 317.171 -3.59619 1.54239 0
M  V30 3405 H 316.794 -3.97386 -0.130525 0
M  V30 3406 N 317.792 -0.46758 -1.50504 0
M  V30 3407 C 318.739 0.328413 -2.28452 0
M  V30 3408 C 319.709 0.990313 -1.33349 0
M  V30 3409 O 320.894 1.00343 -1.62284 0
M  V30 3410 C 318.034 1.40648 -3.15138 0
M  V30 3411 C 317.147 0.759709 -4.25267 0
M  V30 3412 C 316.282 1.81537 -4.99217 0
M  V30 3413 C 315.321 1.14866 -6.01226 0
M  V30 3414 N 314.458 2.14702 -6.68467 0
M  V30 3415 H 319.298 -0.342603 -2.96024 0
M  V30 3416 H 316.835 -0.180801 -1.45985 0
M  V30 3417 H 318.793 2.04315 -3.63746 0
M  V30 3418 H 317.423 2.04671 -2.49619 0
M  V30 3419 H 316.475 0.0105671 -3.80399 0
M  V30 3420 H 317.787 0.233243 -4.98254 0
M  V30 3421 H 316.941 2.52793 -5.51526 0
M  V30 3422 H 315.68 2.37564 -4.25928 0
M  V30 3423 H 314.685 0.42171 -5.4818 0
M  V30 3424 H 315.91 0.595334 -6.76485 0
M  V30 3425 H 313.856 2.69752 -5.97972 0
M  V30 3426 H 313.773 1.6703 -7.37317 0
M  V30 3427 H 315.041 2.85348 -7.25394 0
M  V30 3428 N 319.27 1.56325 -0.20005 0
M  V30 3429 C 320.686 1.58839 0.155716 0
M  V30 3430 C 320.886 1.21636 1.60645 0
M  V30 3431 O 319.942 0.941437 2.34293 0
M  V30 3432 C 321.255 3.0032 -0.151124 0
M  V30 3433 C 322.803 3.12866 -0.0916284 0
M  V30 3434 C 323.278 4.56488 -0.371845 0
M  V30 3435 N 324.769 4.62089 -0.320641 0
M  V30 3436 C 325.504 5.71116 -0.511243 0
M  V30 3437 N 325 6.88592 -0.762461 0
M  V30 3438 N 326.793 5.60335 -0.445157 0
M  V30 3439 H 318.944 1.78788 -1.14668 0
M  V30 3440 H 321.207 0.829996 -0.458051 0
M  V30 3441 H 320.913 3.32117 -1.15721 0
M  V30 3442 H 320.787 3.73257 0.543986 0
M  V30 3443 H 323.174 2.80878 0.905065 0
M  V30 3444 H 323.255 2.42304 -0.81989 0
M  V30 3445 H 322.899 4.89189 -1.36588 0
M  V30 3446 H 322.829 5.25246 0.377362 0
M  V30 3447 H 325.32 3.77665 -0.13329 0
M  V30 3448 H 325.633 7.67581 -0.896576 0
M  V30 3449 H 323.978 6.90387 -0.799412 0
M  V30 3450 H 327.169 4.67436 -0.249278 0
M  V30 3451 H 327.342 6.45243 -0.597116 0
M  V30 3452 N 320.748 -0.0735177 1.57428 0
M  V30 3453 C 321.994 -0.774145 1.87443 0
M  V30 3454 C 322.327 -1.77311 0.792103 0
M  V30 3455 O 321.602 -1.93492 -0.197793 0
M  V30 3456 C 321.885 -1.48367 3.28115 0
M  V30 3457 C 321.738 -0.501227 4.46999 0
M  V30 3458 C 323.057 -2.429 3.66998 0
M  V30 3459 H 320.176 -0.279971 0.681752 0
M  V30 3460 H 322.818 -0.0373616 1.89963 0
M  V30 3461 H 320.968 -2.11171 3.26097 0
M  V30 3462 H 322.64 0.121468 4.6114 0
M  V30 3463 H 320.883 0.183593 4.33411 0
M  V30 3464 H 321.554 -1.03526 5.42205 0
M  V30 3465 H 324.03 -1.90175 3.70098 0
M  V30 3466 H 322.906 -2.89549 4.66318 0
M  V30 3467 H 323.167 -3.27628 2.96837 0
M  V30 3468 N 322.226 -1.5378 -0.344866 0
M  V30 3469 C 323.475 -1.7018 -1.08267 0
M  V30 3470 C 323.788 -0.471 -1.89845 0
M  V30 3471 O 324.994 -0.515917 -2.66553 0
M  V30 3472 C 323.45 -3.00923 -1.97417 0
M  V30 3473 C 323.058 -4.31335 -1.21053 0
M  V30 3474 C 324.802 -3.26688 -2.71063 0
M  V30 3475 C 322.709 -5.53153 -2.09225 0
M  V30 3476 H 321.639 -0.634138 -0.407903 0
M  V30 3477 H 324.29 -1.8028 -0.342246 0
M  V30 3478 H 322.672 -2.84676 -2.75274 0
M  V30 3479 H 323.846 -4.58281 -0.481159 0
M  V30 3480 H 322.161 -4.12173 -0.591813 0
M  V30 3481 H 324.758 -4.1489 -3.37299 0
M  V30 3482 H 325.101 -2.43639 -3.37558 0
M  V30 3483 H 325.634 -3.43705 -2.0028 0
M  V30 3484 H 322.373 -6.38741 -1.47274 0
M  V30 3485 H 321.893 -5.30458 -2.79955 0
M  V30 3486 H 323.572 -5.88744 -2.68308 0
M  V30 3487 N 323.704 0.605807 -1.45491 0
M  V30 3488 C 324.652 1.73754 -1.54636 0
M  V30 3489 C 325.646 1.64207 -0.416219 0
M  V30 3490 O 326.852 1.69979 -0.592199 0
M  V30 3491 H 323.227 0.574073 -0.485741 0
M  V30 3492 H 325.198 1.63169 -2.49837 0
M  V30 3493 C 323.947 3.12135 -1.53189 0
M  V30 3494 H 323.27 3.20141 -2.39478 0
M  V30 3495 H 324.71 3.91147 -1.63645 0
M  V30 3496 C 323.169 3.35921 -0.256616 0
M  V30 3497 O 323.699 3.96194 0.662798 0
M  V30 3498 N 321.905 2.90204 -0.151751 0
M  V30 3499 H 321.452 2.41336 -0.90081 0
M  V30 3500 H 321.41 3.06492 0.700699 0
M  V30 3501 N 325.182 1.32811 0.848464 0
M  V30 3502 C 326.412 1.26556 1.63301 0
M  V30 3503 C 326.82 -0.1676 1.88456 0
M  V30 3504 O 326.163 -1.11713 1.45828 0
M  V30 3505 C 326.225 1.96202 3.01239 0
M  V30 3506 C 325.889 3.45528 2.99098 0
M  V30 3507 C 326.886 4.40903 2.75501 0
M  V30 3508 C 324.571 3.87558 3.19537 0
M  V30 3509 C 326.565 5.76282 2.72356 0
M  V30 3510 C 324.252 5.23044 3.16019 0
M  V30 3511 C 325.25 6.17217 2.92458 0
M  V30 3512 O 324.938 7.50223 2.88825 0
M  V30 3513 H 324.67 0.43771 0.515156 0
M  V30 3514 H 327.224 1.7559 1.0657 0
M  V30 3515 H 325.454 1.41746 3.59785 0
M  V30 3516 H 327.143 1.83573 3.62016 0
M  V30 3517 H 327.909 4.09756 2.5947 0
M  V30 3518 H 323.788 3.14674 3.369 0
M  V30 3519 H 327.332 6.4976 2.53886 0
M  V30 3520 H 323.229 5.53818 3.31596 0
M  V30 3521 H 323.997 7.59657 3.04735 0
M  V30 3522 N 326.66 -1.06551 1.16123 0
M  V30 3523 C 328.076 -1.3142 0.905585 0
M  V30 3524 C 328.276 -1.96571 -0.442964 0
M  V30 3525 O 327.332 -2.23068 -1.18308 0
M  V30 3526 C 328.645 -2.19741 2.05267 0
M  V30 3527 C 330.193 -2.33165 2.08813 0
M  V30 3528 C 330.668 -3.24838 3.22868 0
M  V30 3529 N 332.159 -3.32421 3.22568 0
M  V30 3530 C 332.894 -4.0344 4.0746 0
M  V30 3531 N 332.39 -4.77003 5.02434 0
M  V30 3532 N 334.183 -3.99464 3.95456 0
M  V30 3533 H 326.334 -0.626548 2.02949 0
M  V30 3534 H 328.597 -0.338777 0.8854 0
M  V30 3535 H 328.303 -1.79142 3.02657 0
M  V30 3536 H 328.177 -3.20313 1.99198 0
M  V30 3537 H 330.564 -2.73013 1.12018 0
M  V30 3538 H 330.645 -1.3227 2.18948 0
M  V30 3539 H 330.289 -2.85708 4.19921 0
M  V30 3540 H 330.219 -4.25707 3.0997 0
M  V30 3541 H 332.71 -2.79994 2.53795 0
M  V30 3542 H 333.023 -5.28712 5.63634 0
M  V30 3543 H 331.368 -4.75992 5.06415 0
M  V30 3544 H 334.559 -3.4111 3.20564 0
M  V30 3545 H 334.732 -4.54544 4.61837 0
M  V30 3546 N 328.138 -0.959301 -1.25041 0
M  V30 3547 C 329.085 -0.482057 -2.2571 0
M  V30 3548 C 330.055 0.467939 -1.59372 0
M  V30 3549 O 331.24 0.380159 -1.86974 0
M  V30 3550 C 328.38 0.229623 -3.44335 0
M  V30 3551 C 327.493 -0.758156 -4.25295 0
M  V30 3552 C 326.628 -0.0234403 -5.31195 0
M  V30 3553 C 325.667 -1.00184 -6.03846 0
M  V30 3554 N 324.804 -0.29769 -7.01469 0
M  V30 3555 H 329.644 -1.34538 -2.65901 0
M  V30 3556 H 327.181 -0.674592 -1.3072 0
M  V30 3557 H 329.139 0.658856 -4.11965 0
M  V30 3558 H 327.769 1.05696 -3.05005 0
M  V30 3559 H 326.821 -1.30586 -3.57284 0
M  V30 3560 H 328.133 -1.50458 -4.75567 0
M  V30 3561 H 327.287 0.464201 -6.04922 0
M  V30 3562 H 326.026 0.755741 -4.81809 0
M  V30 3563 H 325.031 -1.50044 -5.2893 0
M  V30 3564 H 326.256 -1.78133 -6.55321 0
M  V30 3565 H 324.202 0.462668 -6.54366 0
M  V30 3566 H 324.119 -0.983128 -7.4958 0
M  V30 3567 H 325.387 0.16826 -7.79318 0
M  V30 3568 N 329.616 1.39756 -0.72842 0
M  V30 3569 C 330.526 2.34444 -0.0855374 0
M  V30 3570 C 331.542 1.57976 0.729356 0
M  V30 3571 O 332.718 1.90301 0.659346 0
M  V30 3572 C 329.783 3.36965 0.815798 0
M  V30 3573 C 328.844 4.29299 -0.0105996 0
M  V30 3574 C 328.077 5.26923 0.84781 0
M  V30 3575 O 328.3 5.30859 2.08673 0
M  V30 3576 O 327.234 6.01249 0.279969 0
M  V30 3577 H 331.06 2.91065 -0.866892 0
M  V30 3578 H 328.645 1.4117 -0.48902 0
M  V30 3579 H 330.527 3.99804 1.33171 0
M  V30 3580 H 329.202 2.82739 1.57608 0
M  V30 3581 H 328.109 3.69703 -0.571877 0
M  V30 3582 H 329.442 4.86712 -0.73295 0
M  V30 3583 N 331.094 0.475555 1.50254 0
M  V30 3584 C 332.044 -0.335025 2.25525 0
M  V30 3585 C 333.028 -0.957625 1.29299 0
M  V30 3586 O 334.22 -0.869436 1.54175 0
M  V30 3587 C 331.349 -1.41385 3.12834 0
M  V30 3588 C 330.435 -0.798762 4.1651 0
M  V30 3589 N 330.826 0.0835815 5.05731 0
M  V30 3590 C 329.124 -1.06221 4.33166 0
M  V30 3591 C 329.825 0.433113 5.80085 0
M  V30 3592 N 328.801 -0.1928 5.43258 0
M  V30 3593 H 332.603 0.344612 2.91873 0
M  V30 3594 H 330.117 0.289986 1.5979 0
M  V30 3595 H 332.114 -2.00777 3.65368 0
M  V30 3596 H 330.774 -2.09543 2.48036 0
M  V30 3597 H 331.785 0.452715 5.15918 0
M  V30 3598 H 328.462 -1.73844 3.79585 0
M  V30 3599 H 329.852 1.15346 6.61925 0
M  V30 3600 N 332.573 -1.56217 0.208337 0
M  V30 3601 C 333.521 -2.21053 -0.723769 0
M  V30 3602 C 334.515 -1.18578 -1.20978 0
M  V30 3603 O 335.721 -1.36691 -1.17114 0
M  V30 3604 H 332.096 -0.708595 -0.251788 0
M  V30 3605 H 334.067 -2.98006 -0.153365 0
M  V30 3606 C 332.816 -2.89417 -1.927 0
M  V30 3607 H 332.139 -3.68019 -1.56212 0
M  V30 3608 H 333.579 -3.38201 -2.55727 0
M  V30 3609 C 332.038 -1.91166 -2.77411 0
M  V30 3610 O 332.568 -1.42026 -3.75754 0
M  V30 3611 N 330.774 -1.59105 -2.43175 0
M  V30 3612 H 330.321 -1.99259 -1.63259 0
M  V30 3613 H 330.279 -0.936255 -3.00136 0
M  V30 3614 N 334.051 0.0651679 -1.57465 0
M  V30 3615 C 334.981 1.07693 -2.07182 0
M  V30 3616 C 335.962 1.39962 -0.966673 0
M  V30 3617 O 337.147 1.49475 -1.2398 0
M  V30 3618 C 334.277 2.3885 -2.52127 0
M  V30 3619 C 333.231 2.20917 -3.66579 0
M  V30 3620 C 332.557 3.57515 -3.97601 0
M  V30 3621 C 333.857 1.62493 -4.9638 0
M  V30 3622 H 335.551 0.663199 -2.91962 0
M  V30 3623 H 333.097 0.317569 -1.40455 0
M  V30 3624 H 335.05 3.09928 -2.85522 0
M  V30 3625 H 333.774 2.82215 -1.64384 0
M  V30 3626 H 332.433 1.52279 -3.33477 0
M  V30 3627 H 332.081 3.98463 -3.06979 0
M  V30 3628 H 331.781 3.46353 -4.74672 0
M  V30 3629 H 333.305 4.30013 -4.33499 0
M  V30 3630 H 334.719 2.23445 -5.27963 0
M  V30 3631 H 333.116 1.62009 -5.77818 0
M  V30 3632 H 334.186 0.587041 -4.81333 0
M  V30 3633 N 335.529 1.53961 0.336706 0
M  V30 3634 C 336.477 1.83136 1.43401 0
M  V30 3635 C 337.471 0.702313 1.54156 0
M  V30 3636 O 338.677 0.885765 1.56698 0
M  V30 3637 H 335.052 0.580309 0.478273 0
M  V30 3638 H 337.023 2.74925 1.16012 0
M  V30 3639 C 335.772 2.06385 2.79822 0
M  V30 3640 H 335.095 2.92718 2.72316 0
M  V30 3641 H 336.535 2.30761 3.55704 0
M  V30 3642 C 334.994 0.851414 3.25964 0
M  V30 3643 O 335.524 0.0541904 4.01663 0
M  V30 3644 N 333.73 0.66672 2.82848 0
M  V30 3645 H 333.277 1.31665 2.21409 0
M  V30 3646 H 333.235 -0.143032 3.14074 0
M  V30 3647 O 337.046 -0.482677 1.54118 0
M  V30 3648 H 337.737 -1.13727 1.56799 0
M  V30 END ATOM
M  V30 BEGIN BOND
M  V30 END BOND
M  V30 END CTAB
M  END
$$$$
