drugbank_target|P09250 Thymidine kinase (DB00194)
 OpenBabel12092120543D

  0  0  0     0  0            999 V3000
M  V30 BEGIN CTAB
M  V30 COUNTS 5335 5397 0 0 0
M  V30 BEGIN ATOM
M  V30 1 H -0.908 1.98254 -0.117106 0
M  V30 2 N 0 1.576 0 0
M  V30 3 C 0.933 2.03868 1.02534 0
M  V30 4 C 1.911 0.928543 1.3348 0
M  V30 5 O 3.095 1.19667 1.45644 0
M  V30 6 C 0.222 2.43627 2.35294 0
M  V30 7 C -0.732 3.65373 2.2001 0
M  V30 8 S 0.101 5.13292 1.52614 0
M  V30 9 C 1.257 5.56322 2.86805 0
M  V30 10 H 1.49 2.90518 0.631377 0
M  V30 11 H -0.977 1.52953 0.210867 0
M  V30 12 H 0.981 2.67203 3.11629 0
M  V30 13 H -0.358 1.57376 2.7183 0
M  V30 14 H -1.165 3.90944 3.18086 0
M  V30 15 H -1.563 3.418 1.51819 0
M  V30 16 H 0.729 5.58782 3.83104 0
M  V30 17 H 1.672 6.56266 2.65933 0
M  V30 18 H 2.08 4.83886 2.90714 0
M  V30 19 N 1.4781 -0.272755 1.55222 0
M  V30 20 C 2.7031 -1.02683 1.80197 0
M  V30 21 C 3.1281 -1.79142 0.573551 0
M  V30 22 O 2.4861 -1.74917 -0.476849 0
M  V30 23 C 2.5341 -1.9609 3.02624 0
M  V30 24 O 1.6381 -3.04863 2.77727 0
M  V30 25 H 0.9791 -0.293557 0.595584 0
M  V30 26 H 3.5091 -0.30159 2.02365 0
M  V30 27 H 3.5191 -2.38039 3.31363 0
M  V30 28 H 2.1941 -1.39851 3.91682 0
M  V30 29 H 0.7711 -2.67228 2.60084 0
M  V30 30 N 2.9562 -1.48159 -0.537278 0
M  V30 31 C 4.1842 -1.59454 -1.31841 0
M  V30 32 C 4.5992 -0.252065 -1.8711 0
M  V30 33 O 3.9562 0.757621 -1.66031 0
M  V30 34 C 4.0072 -2.63546 -2.47439 0
M  V30 35 O 3.7282 -3.92583 -1.94449 0
M  V30 36 C 5.2292 -2.85212 -3.39366 0
M  V30 37 H 2.4492 -0.53785 -0.401196 0
M  V30 38 H 4.9932 -1.93932 -0.648891 0
M  V30 39 H 3.1482 -2.31946 -3.1029 0
M  V30 40 H 3.5622 -4.49629 -2.70063 0
M  V30 41 H 5.0362 -3.61863 -4.16844 0
M  V30 42 H 5.5132 -1.93765 -3.94147 0
M  V30 43 H 6.1192 -3.18086 -2.82314 0
M  V30 44 N 4.4343 0.785586 -1.36625 0
M  V30 45 C 5.7113 1.53198 -1.21613 0
M  V30 46 C 6.0913 2.10187 0.196113 0
M  V30 47 O 5.4393 1.94318 1.20219 0
M  V30 48 C 5.6493 2.62388 -2.30116 0
M  V30 49 C 6.9973 3.30167 -2.66974 0
M  V30 50 O 8.0213 2.72674 -2.29188 0
M  V30 51 O 6.8803 4.34077 -3.32023 0
M  V30 52 H 3.9743 0.677865 -0.473738 0
M  V30 53 H 6.5203 0.823739 -1.48367 0
M  V30 54 H 5.2923 2.18299 -3.24748 0
M  V30 55 H 4.9153 3.40827 -2.0475 0
M  V30 56 N 5.9124 1.20967 1.01018 0
M  V30 57 C 6.8594 0.964281 2.09691 0
M  V30 58 C 7.8294 -0.107853 1.65749 0
M  V30 59 O 9.0144 0.0381987 1.90762 0
M  V30 60 C 6.1544 0.52943 3.41015 0
M  V30 61 C 5.2674 1.67043 3.98398 0
M  V30 62 C 4.4024 1.18525 5.17808 0
M  V30 63 C 3.4414 2.29892 5.67288 0
M  V30 64 N 2.5784 1.82546 6.77954 0
M  V30 65 H 7.4184 1.89463 2.30017 0
M  V30 66 H 4.9554 0.944289 1.1279 0
M  V30 67 H 6.9134 0.258588 4.16398 0
M  V30 68 H 5.5434 -0.363919 3.20742 0
M  V30 69 H 4.5954 2.05603 3.20049 0
M  V30 70 H 5.9074 2.50877 4.31117 0
M  V30 71 H 5.0614 0.870762 6.00419 0
M  V30 72 H 3.8004 0.316887 4.86669 0
M  V30 73 H 2.8054 2.6215 4.83278 0
M  V30 74 H 4.0304 3.17216 6.00459 0
M  V30 75 H 1.9764 0.980454 6.48632 0
M  V30 76 H 1.8934 2.59956 7.09901 0
M  V30 77 H 3.1614 1.54115 7.64113 0
M  V30 78 N 7.3905 -1.2043 1.01659 0
M  V30 79 C 8.6185 -1.93777 0.725132 0
M  V30 80 C 9.0335 -1.74772 -0.714166 0
M  V30 81 O 8.3905 -1.06169 -1.4844 0
M  V30 82 C 8.4415 -3.45876 1.05129 0
M  V30 83 O 8.1625 -3.6426 2.43406 0
M  V30 84 C 9.6635 -4.36368 0.780891 0
M  V30 85 H 6.8835 -0.615901 0.266284 0
M  V30 86 H 9.4275 -1.52922 1.35776 0
M  V30 87 H 7.5825 -3.8461 0.464065 0
M  V30 88 H 7.9965 -4.58246 2.55169 0
M  V30 89 H 9.4705 -5.41743 1.05918 0
M  V30 90 H 9.9475 -4.38275 -0.284937 0
M  V30 91 H 10.5535 -4.03296 1.35027 0
M  V30 92 N 8.8686 -0.792821 -1.36206 0
M  V30 93 C 10.1456 -0.290627 -1.93429 0
M  V30 94 C 10.5256 1.21773 -1.72437 0
M  V30 95 O 9.8736 2.0108 -1.08531 0
M  V30 96 C 10.0836 -0.686973 -3.42172 0
M  V30 97 C 11.4316 -0.668643 -4.19302 0
M  V30 98 O 12.4556 -0.627658 -3.50626 0
M  V30 99 O 11.3146 -0.714597 -5.41808 0
M  V30 100 H 8.4086 -0.0727927 -0.82379 0
M  V30 101 H 10.9546 -0.875593 -1.45367 0
M  V30 102 H 9.7266 -1.72711 -3.51122 0
M  V30 103 H 9.3496 -0.0760733 -3.97527 0
M  V30 104 N 10.3467 1.47872 -0.545128 0
M  V30 105 C 11.5927 2.02793 -0.0166104 0
M  V30 106 C 11.9257 1.41987 1.32489 0
M  V30 107 O 11.2007 0.571045 1.85928 0
M  V30 108 C 11.4837 3.59989 0.0893294 0
M  V30 109 C 11.3367 4.3125 -1.27841 0
M  V30 110 C 12.6557 4.32606 0.808724 0
M  V30 111 H 9.7747 0.736962 -0.00751035 0
M  V30 112 H 12.4167 1.76433 -0.705085 0
M  V30 113 H 10.5667 3.82579 0.675681 0
M  V30 114 H 12.2387 4.20035 -1.90704 0
M  V30 115 H 10.4817 3.92076 -1.85632 0
M  V30 116 H 11.1527 5.39736 -1.15713 0
M  V30 117 H 13.6287 4.14936 0.310992 0
M  V30 118 H 12.5047 5.42251 0.851782 0
M  V30 119 H 12.7657 4.00963 1.86229 0
M  V30 120 N 11.8248 0.280983 1.55075 0
M  V30 121 C 12.7718 -0.603937 2.22758 0
M  V30 122 C 13.7418 -1.1452 1.20309 0
M  V30 123 O 14.9268 -1.19343 1.48869 0
M  V30 124 C 12.0668 -1.77947 2.95684 0
M  V30 125 C 11.1798 -1.2715 4.12864 0
M  V30 126 C 10.3148 -2.4093 4.7342 0
M  V30 127 C 9.3538 -1.87165 5.82783 0
M  V30 128 N 8.4908 -2.94441 6.37377 0
M  V30 129 H 13.3308 -0.020124 2.97993 0
M  V30 130 H 10.8678 0.00183425 1.471 0
M  V30 131 H 12.8258 -2.47055 3.36184 0
M  V30 132 H 11.4558 -2.33522 2.22861 0
M  V30 133 H 10.5078 -0.473331 3.77444 0
M  V30 134 H 11.8198 -0.837751 4.91715 0
M  V30 135 H 10.9738 -3.18021 5.1667 0
M  V30 136 H 9.7128 -2.87623 3.93859 0
M  V30 137 H 8.7178 -1.08556 5.38976 0
M  V30 138 H 9.9428 -1.41401 6.64216 0
M  V30 139 H 7.8888 -3.40505 5.60707 0
M  V30 140 H 7.8058 -2.55501 7.11516 0
M  V30 141 H 9.0738 -3.71489 6.85285 0
M  V30 142 N 13.3029 -1.57598 0.00835791 0
M  V30 143 C 14.2359 -2.04409 -1.01451 0
M  V30 144 C 15.2139 -0.935609 -1.32985 0
M  V30 145 O 16.3979 -1.20437 -1.45007 0
M  V30 146 C 13.5249 -2.44872 -2.33999 0
M  V30 147 C 12.5709 -3.66535 -2.18069 0
M  V30 148 S 13.4039 -5.14095 -1.4989 0
M  V30 149 C 14.5599 -5.57835 -2.8385 0
M  V30 150 H 14.7929 -2.90849 -0.615961 0
M  V30 151 H 12.3259 -1.53063 -0.202752 0
M  V30 152 H 14.2839 -2.68852 -3.10208 0
M  V30 153 H 12.9449 -1.58815 -2.70992 0
M  V30 154 H 12.1379 -3.92626 -3.16008 0
M  V30 155 H 11.7399 -3.426 -1.50004 0
M  V30 156 H 14.0319 -5.60806 -3.80136 0
M  V30 157 H 14.9749 -6.57667 -2.62449 0
M  V30 158 H 15.3829 -4.85421 -2.88144 0
M  V30 159 N 14.781 0.264519 -1.55364 0
M  V30 160 C 16.029 0.993021 -1.76021 0
M  V30 161 C 16.35 1.86511 -0.569099 0
M  V30 162 O 15.62 1.91438 0.415735 0
M  V30 163 H 14.2 0.369639 -0.649135 0
M  V30 164 H 16.862 0.286707 -1.9278 0
M  V30 165 H 15.958 1.62502 -2.66457 0
M  V30 166 N 16.2591 1.48442 0.529413 0
M  V30 167 C 17.5051 1.5672 1.28711 0
M  V30 168 C 17.8381 0.2406 1.92704 0
M  V30 169 O 17.1131 -0.753454 1.79313 0
M  V30 170 C 17.3961 2.70587 2.37603 0
M  V30 171 C 17.2491 4.12953 1.78297 0
M  V30 172 C 18.5681 2.80212 3.39366 0
M  V30 173 H 15.6871 0.570474 0.466613 0
M  V30 174 H 18.3291 1.80617 0.589706 0
M  V30 175 H 16.4791 2.50342 2.97088 0
M  V30 176 H 18.1511 4.44639 1.22858 0
M  V30 177 H 16.3941 4.19927 1.0883 0
M  V30 178 H 17.0651 4.88448 2.57144 0
M  V30 179 H 19.5411 2.98553 2.89836 0
M  V30 180 H 18.4171 3.61611 4.12951 0
M  V30 181 H 18.6781 1.88393 3.99951 0
M  V30 182 N 17.7372 -0.778329 1.37039 0
M  V30 183 C 18.6672 -1.90546 1.34962 0
M  V30 184 C 19.6482 -1.68681 0.219274 0
M  V30 185 O 20.8332 -1.89634 0.418624 0
M  V30 186 C 17.9632 -3.27734 1.14925 0
M  V30 187 C 16.9172 -3.64147 2.24902 0
M  V30 188 C 16.2432 -4.99806 1.89996 0
M  V30 189 C 17.5432 -3.71579 3.67051 0
M  V30 190 H 19.2372 -1.92541 2.29277 0
M  V30 191 H 16.7832 -0.924948 1.10366 0
M  V30 192 H 18.7362 -4.06215 1.12104 0
M  V30 193 H 17.4602 -3.26154 0.170631 0
M  V30 194 H 16.1192 -2.8797 2.26868 0
M  V30 195 H 15.7672 -4.94759 0.906796 0
M  V30 196 H 15.4672 -5.25139 2.63634 0
M  V30 197 H 16.9912 -5.80694 1.88749 0
M  V30 198 H 18.4052 -4.40227 3.67251 0
M  V30 199 H 16.8022 -4.08405 4.39688 0
M  V30 200 H 17.8722 -2.72404 4.01154 0
M  V30 201 N 19.2153 -1.21501 -1.00376 0
M  V30 202 C 20.6313 -0.972629 -1.26539 0
M  V30 203 C 20.8313 0.340257 -1.98606 0
M  V30 204 O 19.8873 1.06561 -2.28913 0
M  V30 205 C 21.2003 -2.16404 -2.08781 0
M  V30 206 C 22.7483 -2.20643 -2.22004 0
M  V30 207 C 23.2233 -3.39306 -3.07629 0
M  V30 208 N 24.7143 -3.39401 -3.15217 0
M  V30 209 C 25.4493 -4.27867 -3.81729 0
M  V30 210 N 24.9453 -5.26533 -4.5026 0
M  V30 211 N 26.7383 -4.15672 -3.78382 0
M  V30 212 H 18.8893 -2.05929 -0.520281 0
M  V30 213 H 21.1523 -0.901803 -0.292328 0
M  V30 214 H 20.8583 -3.11554 -1.63178 0
M  V30 215 H 20.7323 -2.15567 -3.09533 0
M  V30 216 H 23.1193 -1.26048 -2.66825 0
M  V30 217 H 23.2003 -2.25523 -1.20718 0
M  V30 218 H 22.8443 -4.34195 -2.63509 0
M  V30 219 H 22.7743 -3.31665 -4.09031 0
M  V30 220 H 25.2653 -2.67997 -2.66432 0
M  V30 221 H 25.5783 -5.90337 -4.98721 0
M  V30 222 H 23.9233 -5.30457 -4.49044 0
M  V30 223 H 27.1143 -3.3785 -3.23998 0
M  V30 224 H 27.2873 -4.84825 -4.2994 0
M  V30 225 N 20.6934 1.19889 -1.02296 0
M  V30 226 C 21.9424 1.88743 -0.711257 0
M  V30 227 C 22.2554 1.80112 0.762817 0
M  V30 228 O 23.4614 2.44161 1.18733 0
M  V30 229 C 21.9174 3.38525 -1.22185 0
M  V30 230 C 21.5254 3.55727 -2.72328 0
M  V30 231 C 23.2694 4.12893 -0.985864 0
M  V30 232 C 21.1764 4.99369 -3.16835 0
M  V30 233 H 20.1064 0.706885 -0.262353 0
M  V30 234 H 22.7574 1.35586 -1.23648 0
M  V30 235 H 21.1394 3.91044 -0.624571 0
M  V30 236 H 22.3134 3.13564 -3.3766 0
M  V30 237 H 20.6284 2.94739 -2.9414 0
M  V30 238 H 23.2254 5.18813 -1.29374 0
M  V30 239 H 23.5684 4.16228 0.0775055 0
M  V30 240 H 24.1014 3.66494 -1.54684 0
M  V30 241 H 20.8404 5.01193 -4.22476 0
M  V30 242 H 20.3604 5.42317 -2.56228 0
M  V30 243 H 22.0394 5.67988 -3.09837 0
M  V30 244 N 22.1715 0.800033 1.35784 0
M  V30 245 C 23.4015 0.389041 2.02904 0
M  V30 246 C 23.8095 -1.0027 1.60445 0
M  V30 247 O 23.1525 -1.65633 0.794453 0
M  V30 248 C 23.2145 0.385495 3.57427 0
M  V30 249 C 22.8785 1.72662 4.23127 0
M  V30 250 C 23.8755 2.68385 4.4527 0
M  V30 251 C 21.5605 2.00883 4.60381 0
M  V30 252 C 23.5545 3.90517 5.03761 0
M  V30 253 C 21.2415 3.2328 5.18588 0
M  V30 254 C 22.2395 4.17915 5.40218 0
M  V30 255 O 21.9275 5.38153 5.97199 0
M  V30 256 H 21.6595 0.157032 0.657508 0
M  V30 257 H 24.2135 1.08311 1.74522 0
M  V30 258 H 22.4435 -0.365128 3.84972 0
M  V30 259 H 24.1325 -0.00228296 4.059 0
M  V30 260 H 24.8985 2.47872 4.16874 0
M  V30 261 H 20.7775 1.28037 4.42863 0
M  V30 262 H 24.3215 4.64395 5.2056 0
M  V30 263 H 20.2185 3.43667 5.4641 0
M  V30 264 H 20.9865 5.3936 6.15656 0
M  V30 265 N 23.6496 -1.47581 0.552962 0
M  V30 266 C 24.5796 -2.32762 -0.185451 0
M  V30 267 C 25.5606 -1.43527 -0.912905 0
M  V30 268 O 26.7456 -1.72388 -0.894201 0
M  V30 269 C 23.8756 -3.25219 -1.21859 0
M  V30 270 C 22.8296 -4.23661 -0.607864 0
M  V30 271 C 22.1556 -5.05413 -1.74533 0
M  V30 272 C 23.4556 -5.20481 0.435582 0
M  V30 273 H 25.1496 -2.94749 0.525684 0
M  V30 274 H 22.6956 -1.41738 0.254251 0
M  V30 275 H 24.6486 -3.8365 -1.7433 0
M  V30 276 H 23.3726 -2.61279 -1.95961 0
M  V30 277 H 22.0316 -3.66451 -0.104489 0
M  V30 278 H 21.6796 -4.3788 -2.47529 0
M  V30 279 H 21.3796 -5.72059 -1.34249 0
M  V30 280 H 22.9036 -5.66701 -2.27338 0
M  V30 281 H 24.3176 -5.733 -0.00290157 0
M  V30 282 H 22.7146 -5.95305 0.757067 0
M  V30 283 H 23.7846 -4.66217 1.33303 0
M  V30 284 N 25.1277 -0.289203 -1.54924 0
M  V30 285 C 26.4047 0.376032 -1.91951 0
M  V30 286 C 26.7847 1.72622 -1.21511 0
M  V30 287 O 26.1327 2.25853 -0.346767 0
M  V30 288 C 26.3427 0.502378 -3.45365 0
M  V30 289 C 27.6907 0.778741 -4.17398 0
M  V30 290 O 28.7147 0.586647 -3.51336 0
M  V30 291 O 27.5737 1.14698 -5.34328 0
M  V30 292 H 24.6677 0.208167 -0.800372 0
M  V30 293 H 27.2137 -0.336394 -1.66332 0
M  V30 294 H 25.9857 -0.447255 -3.88736 0
M  V30 295 H 25.6087 1.26373 -3.76982 0
M  V30 296 N 26.6058 1.57591 -0.0167156 0
M  V30 297 C 27.8538 1.90906 0.663285 0
M  V30 298 C 28.1748 0.892509 1.73376 0
M  V30 299 O 27.4448 -0.0677623 1.95783 0
M  V30 300 H 26.0248 0.704637 0.247983 0
M  V30 301 H 28.6868 1.94803 -0.0615909 0
M  V30 302 H 27.7828 2.9116 1.12393 0
M  V30 303 N 28.0839 -0.256276 1.55502 0
M  V30 304 C 29.0469 -1.30047 1.88734 0
M  V30 305 C 30.0469 -1.4154 0.763086 0
M  V30 306 O 31.2369 -1.40403 1.03115 0
M  V30 307 C 28.3689 -2.67953 2.10747 0
M  V30 308 H 29.5619 -1.01802 2.82093 0
M  V30 309 H 27.1149 -0.495134 1.4825 0
M  V30 310 H 27.8499 -3.01351 1.19825 0
M  V30 311 H 27.6349 -2.60993 2.92617 0
M  V30 312 H 29.1249 -3.43368 2.37673 0
M  V30 313 N 29.562 -1.4872 -0.521534 0
M  V30 314 C 30.792 -1.6061 -1.29954 0
M  V30 315 C 31.2 -0.268728 -1.87282 0
M  V30 316 O 30.543 0.753221 -1.67548 0
M  V30 317 C 30.605 -2.60013 -2.48261 0
M  V30 318 C 30.269 -4.04874 -2.11957 0
M  V30 319 C 31.266 -4.92304 -1.67132 0
M  V30 320 C 28.951 -4.5047 -2.22221 0
M  V30 321 C 30.945 -6.2336 -1.33047 0
M  V30 322 C 28.632 -5.81544 -1.87748 0
M  V30 323 C 29.63 -6.67812 -1.43234 0
M  V30 324 O 29.318 -7.96446 -1.09217 0
M  V30 325 H 29.05 -0.544116 -0.401141 0
M  V30 326 H 31.604 -1.95339 -0.634958 0
M  V30 327 H 29.834 -2.20422 -3.17728 0
M  V30 328 H 31.523 -2.61648 -3.10315 0
M  V30 329 H 32.289 -4.58312 -1.58665 0
M  V30 330 H 28.168 -3.83504 -2.55823 0
M  V30 331 H 31.712 -6.90649 -0.982299 0
M  V30 332 H 27.609 -6.15069 -1.95858 0
M  V30 333 H 28.377 -8.09275 -1.22542 0
M  V30 334 N 31.0401 0.771051 -1.3745 0
M  V30 335 C 32.2881 1.52661 -1.32435 0
M  V30 336 C 32.6091 1.9479 0.0905024 0
M  V30 337 O 31.8791 1.66348 1.03466 0
M  V30 338 H 30.4591 0.566218 -0.487244 0
M  V30 339 H 33.1211 0.917636 -1.71946 0
M  V30 340 H 32.2171 2.42568 -1.96385 0
M  V30 341 N 32.5182 1.22032 0.997298 0
M  V30 342 C 33.7672 1.03637 1.73038 0
M  V30 343 C 34.0802 -0.429475 1.90827 0
M  V30 344 O 35.2862 -0.732995 2.61418 0
M  V30 345 C 33.7422 1.80582 3.11317 0
M  V30 346 C 33.3502 3.31387 3.01474 0
M  V30 347 C 35.0942 1.70621 3.88701 0
M  V30 348 C 33.0012 4.00791 4.3488 0
M  V30 349 H 31.9312 0.384179 0.648785 0
M  V30 350 H 34.5822 1.4584 1.11368 0
M  V30 351 H 32.9642 1.31175 3.73643 0
M  V30 352 H 34.1382 3.88155 2.4834 0
M  V30 353 H 32.4532 3.41976 2.37575 0
M  V30 354 H 35.0502 2.19799 4.87434 0
M  V30 355 H 35.3932 0.665823 4.10941 0
M  V30 356 H 35.9262 2.17547 3.33044 0
M  V30 357 H 32.6652 5.05064 4.1784 0
M  V30 358 H 32.1852 3.48811 4.87945 0
M  V30 359 H 33.8642 4.06139 5.03647 0
M  V30 360 N 33.9963 -1.19345 1.0293 0
M  V30 361 C 35.2443 -1.88665 0.724574 0
M  V30 362 C 35.5653 -1.80036 -0.749144 0
M  V30 363 O 34.8353 -1.2111 -1.53978 0
M  V30 364 H 33.4153 -0.698406 0.265025 0
M  V30 365 H 36.0773 -1.44885 1.30362 0
M  V30 366 H 35.1733 -2.94987 1.01926 0
M  V30 367 N 35.4744 -0.807222 -1.35358 0
M  V30 368 C 36.4214 -0.216037 -2.29787 0
M  V30 369 C 37.3914 0.650278 -1.52842 0
M  V30 370 O 38.5764 0.595227 -1.81278 0
M  V30 371 C 35.7164 0.628893 -3.39321 0
M  V30 372 C 34.8294 -0.257927 -4.31229 0
M  V30 373 C 33.9644 0.595069 -5.27856 0
M  V30 374 C 33.0034 -0.292111 -6.11403 0
M  V30 375 N 32.1404 0.520895 -7.00165 0
M  V30 376 H 36.9804 -1.02671 -2.79755 0
M  V30 377 H 34.5174 -0.517839 -1.37684 0
M  V30 378 H 36.4754 1.13393 -4.01494 0
M  V30 379 H 35.1054 1.40482 -2.90628 0
M  V30 380 H 34.1574 -0.881076 -3.70056 0
M  V30 381 H 35.4694 -0.940759 -4.89848 0
M  V30 382 H 34.6234 1.16522 -5.95405 0
M  V30 383 H 33.3624 1.31146 -4.69736 0
M  V30 384 H 32.3674 -0.874525 -5.428 0
M  V30 385 H 33.5924 -1.00638 -6.71602 0
M  V30 386 H 31.5384 1.22125 -6.44532 0
M  V30 387 H 31.4554 -0.103877 -7.55929 0
M  V30 388 H 32.7234 1.0743 -7.72062 0
M  V30 389 N 36.9525 1.47285 -0.560781 0
M  V30 390 C 38.1805 2.06855 -0.0430262 0
M  V30 391 C 38.5955 1.41291 1.25229 0
M  V30 392 O 37.9525 0.510648 1.7521 0
M  V30 393 C 38.0035 3.61178 0.152518 0
M  V30 394 O 37.7245 4.24285 -1.0915 0
M  V30 395 C 39.2255 4.37624 0.707145 0
M  V30 396 H 36.4455 0.669319 -0.0474652 0
M  V30 397 H 38.9895 1.89237 -0.77521 0
M  V30 398 H 37.1445 3.78298 0.834843 0
M  V30 399 H 37.5585 5.16868 -0.891482 0
M  V30 400 H 39.0325 5.46271 0.793244 0
M  V30 401 H 39.5095 4.04152 1.71923 0
M  V30 402 H 40.1155 4.25257 0.0604027 0
M  V30 403 N 38.4306 0.297415 1.54768 0
M  V30 404 C 39.6586 -0.315623 2.04478 0
M  V30 405 C 40.0736 -1.47792 1.17486 0
M  V30 406 O 39.4306 -1.81404 0.19971 0
M  V30 407 C 39.4816 -0.7753 3.53088 0
M  V30 408 O 39.2026 0.340732 4.36773 0
M  V30 409 C 40.7036 -1.45386 4.18781 0
M  V30 410 H 37.9236 -0.0690887 0.667434 0
M  V30 411 H 40.4676 0.436003 1.99798 0
M  V30 412 H 38.6226 -1.47696 3.58141 0
M  V30 413 H 39.0366 -0.0165035 5.24497 0
M  V30 414 H 40.5106 -1.72669 5.24299 0
M  V30 415 H 40.9876 -2.39275 3.68299 0
M  V30 416 H 41.5936 -0.795475 4.17795 0
M  V30 417 N 39.9087 -1.5758 0.0250728 0
M  V30 418 C 40.8717 -2.08896 -0.943139 0
M  V30 419 C 41.8717 -1.00321 -1.25668 0
M  V30 420 O 43.0617 -1.26495 -1.19769 0
M  V30 421 C 40.1937 -2.55143 -2.26086 0
M  V30 422 H 41.3867 -2.95723 -0.498775 0
M  V30 423 H 38.9397 -1.54703 -0.222888 0
M  V30 424 H 39.6747 -1.71633 -2.75159 0
M  V30 425 H 39.4597 -3.34461 -2.04641 0
M  V30 426 H 40.9497 -2.95083 -2.95492 0
M  V30 427 N 41.3868 0.248026 -1.55636 0
M  V30 428 C 42.3498 1.29044 -1.89421 0
M  V30 429 C 43.3498 1.41134 -0.770581 0
M  V30 430 O 44.5398 1.39854 -1.03858 0
M  V30 431 C 41.6718 2.66831 -2.12165 0
M  V30 432 H 42.8648 1.00305 -2.82629 0
M  V30 433 H 40.4178 0.487265 -1.48511 0
M  V30 434 H 41.1528 3.00711 -1.21422 0
M  V30 435 H 40.9378 2.59438 -2.93997 0
M  V30 436 H 42.4278 3.42103 -2.3949 0
M  V30 437 N 42.8649 1.48995 0.513639 0
M  V30 438 C 43.7749 1.67443 1.64317 0
M  V30 439 C 44.7909 0.556947 1.64846 0
M  V30 440 O 45.9669 0.830082 1.83498 0
M  V30 441 C 43.0319 1.72515 3.00732 0
M  V30 442 C 42.0929 2.96009 3.1093 0
M  V30 443 C 41.3259 3.00829 4.40837 0
M  V30 444 O 41.5489 2.13594 5.28898 0
M  V30 445 O 40.4829 3.93168 4.55744 0
M  V30 446 H 44.3089 2.63106 1.51687 0
M  V30 447 H 41.8939 1.32588 0.688543 0
M  V30 448 H 43.7759 1.78277 3.81831 0
M  V30 449 H 42.4509 0.800278 3.13651 0
M  V30 450 H 41.3579 2.9577 2.29065 0
M  V30 451 H 42.6909 3.87934 3.02933 0
M  V30 452 N 44.343 -0.763751 1.37857 0
M  V30 453 C 45.253 -1.90817 1.36478 0
M  V30 454 C 46.269 -1.71997 0.263248 0
M  V30 455 O 47.445 -1.95095 0.499979 0
M  V30 456 C 44.51 -3.2605 1.17864 0
M  V30 457 C 43.571 -3.57467 2.3773 0
M  V30 458 C 42.804 -4.86249 2.19995 0
M  V30 459 O 43.027 -5.57884 1.18836 0
M  V30 460 O 41.961 -5.16911 3.08361 0
M  V30 461 H 45.787 -1.94933 2.32884 0
M  V30 462 H 43.372 -0.907619 1.1867 0
M  V30 463 H 45.254 -4.06924 1.09504 0
M  V30 464 H 43.929 -3.22769 0.245372 0
M  V30 465 H 42.836 -2.76796 2.51664 0
M  V30 466 H 44.169 -3.655 3.29652 0
M  V30 467 N 45.8211 -1.22559 -0.990812 0
M  V30 468 C 47.0681 -1.05141 -1.73065 0
M  V30 469 C 47.3961 0.413191 -1.9006 0
M  V30 470 O 46.6511 1.32257 -1.44245 0
M  V30 471 C 46.9501 -1.71011 -3.13831 0
M  V30 472 C 46.6161 -3.20911 -3.16745 0
M  V30 473 C 45.2781 -3.61812 -3.17247 0
M  V30 474 C 47.6301 -4.16846 -3.12872 0
M  V30 475 C 44.9581 -4.97127 -3.1158 0
M  V30 476 C 47.3101 -5.5214 -3.08746 0
M  V30 477 C 45.9741 -5.92419 -3.07565 0
M  V30 478 H 45.2441 -0.384738 -0.633291 0
M  V30 479 H 47.8911 -1.5235 -1.16025 0
M  V30 480 H 46.1961 -1.16133 -3.74193 0
M  V30 481 H 47.8931 -1.55023 -3.69823 0
M  V30 482 H 44.4831 -2.88344 -3.17105 0
M  V30 483 H 48.6671 -3.86263 -3.11632 0
M  V30 484 H 43.9231 -5.27562 -3.09012 0
M  V30 485 H 48.0971 -6.26201 -3.04705 0
M  V30 486 H 45.7241 -6.97236 -3.02929 0
M  V30 487 N 47.2992 1.18797 -1.03562 0
M  V30 488 C 48.2292 2.24472 -0.643019 0
M  V30 489 C 49.2102 1.66433 0.351283 0
M  V30 490 O 50.3952 1.92803 0.232505 0
M  V30 491 C 47.5252 3.473 4.24935e-05 0
M  V30 492 C 46.4792 4.18055 -0.917257 0
M  V30 493 C 45.8052 5.34519 -0.138941 0
M  V30 494 C 47.1052 4.72109 -2.23407 0
M  V30 495 H 48.7992 2.57566 -1.52643 0
M  V30 496 H 46.3452 1.23806 -0.735394 0
M  V30 497 H 48.2982 4.20426 0.286383 0
M  V30 498 H 47.0222 3.13424 0.918299 0
M  V30 499 H 45.6812 3.46821 -1.1879 0
M  V30 500 H 45.3292 4.96891 0.781562 0
M  V30 501 H 45.0292 5.82794 -0.750005 0
M  V30 502 H 46.5532 6.10438 0.1405 0
M  V30 503 H 47.9672 5.36955 -2.00879 0
M  V30 504 H 46.3642 5.30897 -2.79765 0
M  V30 505 H 47.4342 3.89807 -2.88407 0
M  V30 506 N 48.7773 0.814389 1.34928 0
M  V30 507 C 49.7273 0.202752 2.27097 0
M  V30 508 C 50.7113 -0.62799 1.48139 0
M  V30 509 O 51.9033 -0.483969 1.70255 0
M  V30 510 C 49.0323 -0.64146 3.37254 0
M  V30 511 C 48.1183 0.19944 4.23631 0
M  V30 512 N 48.5093 1.26628 4.89693 0
M  V30 513 C 46.8073 -0.0176433 4.45997 0
M  V30 514 C 47.5083 1.78031 5.53787 0
M  V30 515 N 46.4843 1.08553 5.32651 0
M  V30 516 H 50.2863 1.01893 2.75672 0
M  V30 517 H 47.8003 0.656332 1.48546 0
M  V30 518 H 49.7973 -1.09575 4.02243 0
M  V30 519 H 48.4573 -1.4559 2.9023 0
M  V30 520 H 49.4683 1.64901 4.90946 0
M  V30 521 H 46.1453 -0.800601 4.09752 0
M  V30 522 H 47.5353 2.67236 6.16469 0
M  V30 523 N 50.2554 -1.46986 0.568584 0
M  V30 524 C 51.2054 -2.27179 -0.193339 0
M  V30 525 C 52.1894 -1.35035 -0.874895 0
M  V30 526 O 53.3814 -1.5931 -0.771322 0
M  V30 527 C 50.5104 -3.21063 -1.21546 0
M  V30 528 C 49.5964 -4.2069 -0.536738 0
M  V30 529 N 49.9874 -5.04218 0.399673 0
M  V30 530 C 48.2854 -4.38961 -0.789254 0
M  V30 531 C 48.9864 -5.76242 0.795017 0
M  V30 532 N 47.9624 -5.434 0.1473 0
M  V30 533 H 51.7644 -2.89146 0.526458 0
M  V30 534 H 49.2784 -1.57664 0.389342 0
M  V30 535 H 51.2754 -3.77209 -1.77536 0
M  V30 536 H 49.9354 -2.60654 -1.93623 0
M  V30 537 H 50.9464 -5.12077 0.774454 0
M  V30 538 H 47.6234 -3.89713 -1.49767 0
M  V30 539 H 49.0134 -6.53417 1.56513 0
M  V30 540 N 51.7335 -0.305618 -1.54608 0
M  V30 541 C 52.9805 0.302298 -2.00231 0
M  V30 542 C 53.3085 1.5354 -1.19398 0
M  V30 543 O 52.5635 1.93973 -0.259423 0
M  V30 544 C 52.8625 0.698983 -3.50498 0
M  V30 545 C 52.5285 -0.432903 -4.48817 0
M  V30 546 C 51.1905 -0.743622 -4.75419 0
M  V30 547 C 53.5425 -1.19409 -5.07337 0
M  V30 548 C 50.8705 -1.81857 -5.57804 0
M  V30 549 C 53.2225 -2.25899 -5.90891 0
M  V30 550 C 51.8865 -2.57572 -6.15803 0
M  V30 551 H 51.1565 0.110619 -0.732697 0
M  V30 552 H 53.8035 -0.425674 -1.86709 0
M  V30 553 H 52.1085 1.50711 -3.61654 0
M  V30 554 H 53.8055 1.1806 -3.83227 0
M  V30 555 H 50.3955 -0.18063 -4.28219 0
M  V30 556 H 54.5795 -0.967295 -4.86782 0
M  V30 557 H 49.8355 -2.06864 -5.75341 0
M  V30 558 H 54.0095 -2.85335 -6.35261 0
M  V30 559 H 51.6365 -3.40998 -6.7943 0
M  V30 560 N 53.2116 1.57565 -0.0334293 0
M  V30 561 C 54.1746 2.09393 0.932048 0
M  V30 562 C 55.1746 1.00986 1.25134 0
M  V30 563 O 56.3646 1.27129 1.19096 0
M  V30 564 C 53.4966 2.56338 2.2473 0
M  V30 565 H 54.6896 2.95984 0.483085 0
M  V30 566 H 52.2426 1.54819 0.21468 0
M  V30 567 H 52.9776 1.7309 2.74245 0
M  V30 568 H 52.7626 3.35542 2.02865 0
M  V30 569 H 54.2526 2.96646 2.93923 0
M  V30 570 N 54.6897 -0.239769 1.55765 0
M  V30 571 C 55.9387 -0.964754 1.77131 0
M  V30 572 C 56.2517 -1.86213 0.59868 0
M  V30 573 O 57.4577 -2.6244 0.695522 0
M  V30 574 C 55.9137 -1.76552 3.1362 0
M  V30 575 C 55.5217 -0.915185 4.38553 0
M  V30 576 C 57.2657 -2.48281 3.44321 0
M  V30 577 C 55.1727 -1.71225 5.66071 0
M  V30 578 H 54.1027 -0.363953 0.660344 0
M  V30 579 H 56.7537 -0.219181 1.82186 0
M  V30 580 H 55.1357 -2.55331 3.02691 0
M  V30 581 H 56.3097 -0.169217 4.60489 0
M  V30 582 H 54.6247 -0.310889 4.15238 0
M  V30 583 H 57.2217 -3.08382 4.36812 0
M  V30 584 H 57.5647 -3.20256 2.65973 0
M  V30 585 H 58.0977 -1.76507 3.56497 0
M  V30 586 H 54.8367 -1.03612 6.4726 0
M  V30 587 H 54.3567 -2.43331 5.48224 0
M  V30 588 H 56.0357 -2.27758 6.05587 0
M  V30 589 N 56.1678 -1.49265 -0.50573 0
M  V30 590 C 57.3958 -1.62215 -1.28429 0
M  V30 591 C 57.8108 -0.291697 -1.86533 0
M  V30 592 O 57.1678 0.722233 -1.67601 0
M  V30 593 C 57.2188 -2.68735 -2.41793 0
M  V30 594 O 56.9398 -3.96619 -1.86078 0
M  V30 595 C 58.4408 -2.92346 -3.3324 0
M  V30 596 H 55.6608 -0.546239 -0.389697 0
M  V30 597 H 58.2048 -1.95265 -0.607609 0
M  V30 598 H 56.3598 -2.38476 -3.053 0
M  V30 599 H 56.7738 -4.55256 -2.60465 0
M  V30 600 H 58.2478 -3.70623 -4.09075 0
M  V30 601 H 58.7248 -2.02081 -3.89948 0
M  V30 602 H 59.3308 -3.24003 -2.75503 0
M  V30 603 N 57.6459 0.756429 -1.3826 0
M  V30 604 C 59.0569 1.33359 -1.30661 0
M  V30 605 C 59.4079 1.96161 0.0388875 0
M  V30 606 O 58.5329 1.94874 0.940918 0
M  V30 607 C 59.1279 2.42477 -2.36622 0
M  V30 608 C 57.6869 2.95922 -2.3261 0
M  V30 609 C 56.8339 1.69275 -2.19639 0
M  V30 610 H 59.7849 0.55552 -1.4866 0
M  V30 611 H 59.8059 3.22345 -2.02174 0
M  V30 612 H 59.3179 1.96739 -3.34538 0
M  V30 613 H 57.4189 3.45996 -1.38267 0
M  V30 614 H 57.5319 3.50494 -3.26636 0
M  V30 615 H 55.8959 1.92793 -1.66442 0
M  V30 616 H 56.6789 1.25619 -3.19491 0
M  V30 617 N 59.124 1.23083 0.984299 0
M  V30 618 C 60.072 1.00593 2.09723 0
M  V30 619 C 61.066 -0.0538014 1.69315 0
M  V30 620 O 62.272 0.0993719 1.79725 0
M  V30 621 H 58.647 0.30817 0.685956 0
M  V30 622 H 60.618 1.95012 2.2586 0
M  V30 623 C 59.367 0.609601 3.42314 0
M  V30 624 H 58.69 1.41675 3.73856 0
M  V30 625 H 60.13 0.491726 4.21139 0
M  V30 626 C 58.589 -0.681745 3.2993 0
M  V30 627 O 59.119 -1.73192 3.62446 0
M  V30 628 N 57.325 -0.656178 2.83095 0
M  V30 629 H 56.872 0.198759 2.56832 0
M  V30 630 H 56.83 -1.52044 2.75191 0
M  V30 631 N 60.6021 -1.18246 1.0419 0
M  V30 632 C 62.0181 -1.40269 0.761366 0
M  V30 633 C 62.2181 -1.90777 -0.648578 0
M  V30 634 O 61.2741 -2.0929 -1.41258 0
M  V30 635 C 62.5871 -2.40237 1.8085 0
M  V30 636 C 64.1351 -2.53961 1.82955 0
M  V30 637 C 64.6101 -3.57194 2.86664 0
M  V30 638 N 66.1011 -3.64702 2.85563 0
M  V30 639 C 66.8361 -4.44309 3.6246 0
M  V30 640 N 66.3321 -5.27514 4.49111 0
M  V30 641 N 68.1251 -4.39084 3.50944 0
M  V30 642 H 60.2761 -0.837882 1.95175 0
M  V30 643 H 62.5391 -0.430608 0.84456 0
M  V30 644 H 62.2451 -2.10176 2.81991 0
M  V30 645 H 62.1191 -3.39601 1.64168 0
M  V30 646 H 64.5061 -2.83338 0.824855 0
M  V30 647 H 64.5871 -1.54706 2.03715 0
M  V30 648 H 64.2311 -3.28558 3.87314 0
M  V30 649 H 64.1611 -4.5613 2.6316 0
M  V30 650 H 66.6521 -3.05289 2.22727 0
M  V30 651 H 66.9651 -5.85411 5.04493 0
M  V30 652 H 65.3101 -5.2693 4.53178 0
M  V30 653 H 68.5011 -3.7313 2.82651 0
M  V30 654 H 68.6741 -5.00883 4.11121 0
M  V30 655 N 62.0802 -0.821533 -1.34494 0
M  V30 656 C 63.3292 -0.405355 -1.97585 0
M  V30 657 C 63.6422 1.03677 -1.65863 0
M  V30 658 O 64.8482 1.55679 -2.22433 0
M  V30 659 C 63.3042 -0.673861 -3.53535 0
M  V30 660 C 62.9122 -2.12951 -3.94152 0
M  V30 661 C 64.6562 -0.32378 -4.23263 0
M  V30 662 C 62.5632 -2.34298 -5.43009 0
M  V30 663 H 61.4932 -0.147836 -0.739365 0
M  V30 664 H 64.1442 -1.00769 -1.53355 0
M  V30 665 H 62.5262 -0.00137554 -3.96 0
M  V30 666 H 63.7002 -2.84104 -3.62797 0
M  V30 667 H 62.0152 -2.44089 -3.37356 0
M  V30 668 H 64.6122 -0.461126 -5.32708 0
M  V30 669 H 64.9552 0.731586 -4.09821 0
M  V30 670 H 65.4882 -0.950786 -3.8627 0
M  V30 671 H 62.2272 -3.38335 -5.61435 0
M  V30 672 H 61.7472 -1.67687 -5.75883 0
M  V30 673 H 63.4262 -2.16588 -6.09671 0
M  V30 674 N 63.5583 1.46682 -0.576371 0
M  V30 675 C 64.4883 2.33028 0.148397 0
M  V30 676 C 65.4693 1.44961 0.889956 0
M  V30 677 O 66.6543 1.73789 0.866662 0
M  V30 678 C 63.7843 3.27117 1.1667 0
M  V30 679 C 62.7383 4.24575 0.540386 0
M  V30 680 C 62.0643 5.08126 1.6647 0
M  V30 681 C 63.3643 5.19722 -0.518331 0
M  V30 682 H 65.0583 2.93875 -0.572509 0
M  V30 683 H 62.6043 1.41315 -0.276768 0
M  V30 684 H 64.5573 3.86374 1.68204 0
M  V30 685 H 63.2813 2.64364 1.9178 0
M  V30 686 H 61.9403 3.66571 0.0461769 0
M  V30 687 H 61.5883 4.41762 2.40531 0
M  V30 688 H 61.2883 5.74122 1.25131 0
M  V30 689 H 62.8123 5.70246 2.18293 0
M  V30 690 H 64.2263 5.73232 -0.0883058 0
M  V30 691 H 62.6233 5.94026 -0.851679 0
M  V30 692 H 63.6933 4.64037 -1.40703 0
M  V30 693 N 65.0364 0.313813 1.54444 0
M  V30 694 C 65.9664 -0.549454 2.26943 0
M  V30 695 C 66.9474 -1.12741 1.27372 0
M  V30 696 O 68.1324 -1.15436 1.56167 0
M  V30 697 C 65.2624 -1.71523 3.01989 0
M  V30 698 C 64.2164 -1.26703 4.08816 0
M  V30 699 C 63.5424 -2.51898 4.71647 0
M  V30 700 C 64.8424 -0.388962 5.2085 0
M  V30 701 H 66.5364 0.0552661 2.99349 0
M  V30 702 H 64.0824 0.0280207 1.43973 0
M  V30 703 H 66.0354 -2.32535 3.51433 0
M  V30 704 H 64.7594 -2.34639 2.27183 0
M  V30 705 H 63.4184 -0.679896 3.6024 0
M  V30 706 H 63.0664 -3.13356 3.93468 0
M  V30 707 H 62.7664 -2.22605 5.43802 0
M  V30 708 H 64.2904 -3.1369 5.23861 0
M  V30 709 H 65.7044 -0.905107 5.6611 0
M  V30 710 H 64.1014 -0.18924 5.99802 0
M  V30 711 H 65.1714 0.582699 4.81386 0
M  V30 712 N 66.5145 -1.57545 0.0417849 0
M  V30 713 C 67.7635 -1.91494 -0.633492 0
M  V30 714 C 68.0765 -0.921084 -1.72556 0
M  V30 715 O 69.2825 -1.15228 -2.45835 0
M  V30 716 C 67.7385 -3.40072 -1.17808 0
M  V30 717 C 67.3465 -4.47843 -0.118633 0
M  V30 718 C 69.0905 -3.8307 -1.82915 0
M  V30 719 C 66.9975 -5.87529 -0.675578 0
M  V30 720 H 65.9275 -0.714653 -0.24039 0
M  V30 721 H 68.5785 -1.83175 0.109148 0
M  V30 722 H 66.9605 -3.43364 -1.97274 0
M  V30 723 H 68.1345 -4.56128 0.654494 0
M  V30 724 H 66.4495 -4.14128 0.434414 0
M  V30 725 H 69.0465 -4.84794 -2.25563 0
M  V30 726 H 69.3895 -3.1881 -2.67705 0
M  V30 727 H 69.9225 -3.82255 -1.10119 0
M  V30 728 H 66.6615 -6.55362 0.134475 0
M  V30 729 H 66.1815 -5.82824 -1.4169 0
M  V30 730 H 67.8605 -6.36491 -1.1614 0
M  V30 731 N 67.9926 0.231505 -1.5589 0
M  V30 732 C 69.2406 0.955461 -1.78088 0
M  V30 733 C 69.5616 1.85262 -0.608533 0
M  V30 734 O 68.8316 1.92277 0.375035 0
M  V30 735 H 67.4116 0.355787 -0.656829 0
M  V30 736 H 70.0736 0.245751 -1.93344 0
M  V30 737 H 69.1696 1.56814 -2.69844 0
M  V30 738 N 69.4707 1.49531 0.497807 0
M  V30 739 C 70.3807 1.69176 1.62532 0
M  V30 740 C 71.3967 0.5744 1.64246 0
M  V30 741 O 72.5727 0.849497 1.82608 0
M  V30 742 C 69.6377 1.75695 2.98885 0
M  V30 743 C 68.6987 2.9929 3.07773 0
M  V30 744 C 67.9317 3.05488 4.37622 0
M  V30 745 O 68.1547 2.19192 5.26603 0
M  V30 746 O 67.0887 3.9798 4.51548 0
M  V30 747 H 70.9147 2.647 1.48887 0
M  V30 748 H 68.4997 1.3331 0.674441 0
M  V30 749 H 70.3817 1.82317 3.79919 0
M  V30 750 H 69.0567 0.8335 3.12785 0
M  V30 751 H 67.9637 2.98183 2.25915 0
M  V30 752 H 69.2967 3.91125 2.98801 0
M  V30 753 N 70.9488 -0.749086 1.3866 0
M  V30 754 C 72.3598 -1.32664 1.31366 0
M  V30 755 C 72.7108 -1.96179 -0.028484 0
M  V30 756 O 71.8358 -1.9537 -0.93057 0
M  V30 757 C 72.4308 -2.41219 2.37905 0
M  V30 758 C 70.9898 -2.94684 2.34176 0
M  V30 759 C 70.1368 -1.68108 2.20533 0
M  V30 760 H 73.0878 -0.547628 1.48952 0
M  V30 761 H 73.1088 -3.21268 2.0388 0
M  V30 762 H 72.6208 -1.94962 3.35576 0
M  V30 763 H 70.7218 -3.45258 1.401 0
M  V30 764 H 70.8348 -3.48757 3.2849 0
M  V30 765 H 69.1988 -1.91907 1.67463 0
M  V30 766 H 69.9818 -1.23923 3.20153 0
M  V30 767 N 72.4269 -1.23603 -0.977757 0
M  V30 768 C 73.3569 -1.04401 -2.0886 0
M  V30 769 C 74.3379 0.0399052 -1.70053 0
M  V30 770 O 75.5229 -0.125246 -1.93796 0
M  V30 771 C 72.6529 -0.637269 -3.41403 0
M  V30 772 C 71.6069 -1.66883 -3.94124 0
M  V30 773 C 70.9329 -1.11745 -5.22893 0
M  V30 774 C 72.2329 -3.06247 -4.23096 0
M  V30 775 H 73.9269 -1.97316 -2.25182 0
M  V30 776 H 71.4729 -0.950096 -1.08209 0
M  V30 777 H 73.4259 -0.48998 -4.18542 0
M  V30 778 H 72.1499 0.327557 -3.24953 0
M  V30 779 H 70.8089 -1.80416 -3.19133 0
M  V30 780 H 70.4569 -0.143527 -5.02795 0
M  V30 781 H 70.1569 -1.80672 -5.59134 0
M  V30 782 H 71.6809 -0.982067 -6.02651 0
M  V30 783 H 73.0949 -2.96001 -4.90975 0
M  V30 784 H 71.4919 -3.72436 -4.70544 0
M  V30 785 H 72.5619 -3.55041 -3.30263 0
M  V30 786 N 73.905 1.17692 -1.04816 0
M  V30 787 C 75.13 1.92327 -0.776207 0
M  V30 788 C 75.555 1.76082 0.661581 0
M  V30 789 O 74.913 1.076 1.45917 0
M  V30 790 C 74.961 3.41539 -1.15687 0
M  V30 791 O 74.065 4.11402 -0.286775 0
M  V30 792 H 73.406 0.599735 -0.284981 0
M  V30 793 H 75.936 1.49201 -1.4 0
M  V30 794 H 75.946 3.92269 -1.12202 0
M  V30 795 H 74.621 3.52684 -2.20425 0
M  V30 796 H 73.198 3.70939 -0.381903 0
M  V30 797 N 75.3831 0.828654 1.34056 0
M  V30 798 C 76.6131 0.431993 2.02033 0
M  V30 799 C 77.0211 -0.96844 1.62536 0
M  V30 800 O 76.3641 -1.6391 0.829408 0
M  V30 801 C 76.4261 0.461224 3.56529 0
M  V30 802 C 76.0901 1.81599 4.1937 0
M  V30 803 C 77.0871 2.7777 4.39477 0
M  V30 804 C 74.7721 2.10604 4.56017 0
M  V30 805 C 76.7661 4.01115 4.95364 0
M  V30 806 C 74.4531 3.34207 5.11614 0
M  V30 807 C 75.4511 4.2928 5.31232 0
M  V30 808 O 75.1391 5.50699 5.8565 0
M  V30 809 H 74.8711 0.170943 0.654029 0
M  V30 810 H 77.4251 1.11988 1.72185 0
M  V30 811 H 75.6551 -0.283388 3.8566 0
M  V30 812 H 77.3441 0.0838149 4.05813 0
M  V30 813 H 78.1101 2.56659 4.11523 0
M  V30 814 H 73.9891 1.37402 4.40047 0
M  V30 815 H 77.5331 4.75333 5.10592 0
M  V30 816 H 73.4301 3.55179 5.38997 0
M  V30 817 H 74.1981 5.52298 6.04077 0
M  V30 818 N 76.8612 -1.46375 0.584142 0
M  V30 819 C 78.1072 -2.03248 0.0787103 0
M  V30 820 C 78.4622 -1.44737 -1.26763 0
M  V30 821 O 77.7552 -0.603625 -1.81843 0
M  V30 822 C 77.9492 -3.57373 -0.0439342 0
M  V30 823 C 77.7782 -4.30831 1.28897 0
M  V30 824 C 76.5482 -4.69683 1.8635 0
M  V30 825 C 78.7462 -4.64278 2.21248 0
M  V30 826 N 76.7282 -5.27898 3.13365 0
M  V30 827 C 78.0992 -5.23078 3.32851 0
M  V30 828 C 80.1542 -4.46209 2.20911 0
M  V30 829 C 78.8572 -5.65715 4.44251 0
M  V30 830 C 80.8832 -4.89864 3.31341 0
M  V30 831 C 80.2452 -5.48736 4.41665 0
M  V30 832 H 76.3442 -0.778714 0.0716144 0
M  V30 833 H 78.9282 -1.78509 0.777355 0
M  V30 834 H 77.0992 -3.81823 -0.711749 0
M  V30 835 H 78.8312 -4.00892 -0.553881 0
M  V30 836 H 75.5862 -4.52488 1.39826 0
M  V30 837 H 76.0102 -5.61525 3.78178 0
M  V30 838 H 80.6522 -4.00027 1.36888 0
M  V30 839 H 78.3702 -6.10875 5.29015 0
M  V30 840 H 81.9562 -4.77634 3.322 0
M  V30 841 H 80.8362 -5.81898 5.25704 0
M  V30 842 N 78.3393 -0.321999 -1.54275 0
M  V30 843 C 79.7553 0.0306999 -1.5957 0
M  V30 844 C 79.9553 1.50614 -1.33857 0
M  V30 845 O 79.0113 2.2619 -1.12223 0
M  V30 846 C 80.3243 -0.386122 -2.98211 0
M  V30 847 C 81.8723 -0.336647 -3.11184 0
M  V30 848 C 82.3473 -0.728607 -4.52167 0
M  V30 849 N 83.8383 -0.681952 -4.58152 0
M  V30 850 C 84.5733 -0.957449 -5.6535 0
M  V30 851 N 84.0693 -1.3 -6.80494 0
M  V30 852 N 85.8623 -0.883113 -5.55119 0
M  V30 853 H 78.0133 -1.28332 -1.69247 0
M  V30 854 H 80.2763 -0.521716 -0.791528 0
M  V30 855 H 79.9823 -1.41404 -3.22022 0
M  V30 856 H 79.8563 0.249662 -3.76373 0
M  V30 857 H 82.2433 0.682058 -2.8711 0
M  V30 858 H 82.3243 -1.00734 -2.3513 0
M  V30 859 H 81.9683 -1.74522 -4.76974 0
M  V30 860 H 81.8983 -0.0356152 -5.26588 0
M  V30 861 H 84.3893 -0.428985 -3.75457 0
M  V30 862 H 84.7023 -1.49563 -7.58189 0
M  V30 863 H 83.0473 -1.33824 -6.81994 0
M  V30 864 H 86.2383 -0.615001 -4.64042 0
M  V30 865 H 86.4113 -1.10118 -6.38575 0
M  V30 866 N 79.8174 1.5752 -0.0501392 0
M  V30 867 C 80.7654 2.12651 0.942459 0
M  V30 868 C 81.7594 1.05807 1.32292 0
M  V30 869 O 82.9654 1.24217 1.3027 0
M  V30 870 H 79.3404 0.679673 0.321789 0
M  V30 871 H 81.3114 2.94951 0.452356 0
M  V30 872 C 80.0604 2.68565 2.20836 0
M  V30 873 H 79.3834 3.50439 1.92439 0
M  V30 874 H 80.8234 3.10761 2.8845 0
M  V30 875 C 79.2824 1.62291 2.95234 0
M  V30 876 O 79.8124 1.03508 3.88135 0
M  V30 877 N 78.0184 1.33836 2.57946 0
M  V30 878 H 77.5654 1.81826 1.82475 0
M  V30 879 H 77.5234 0.629595 3.08032 0
M  V30 880 N 81.2955 -0.223234 1.56011 0
M  V30 881 C 82.2255 -1.27988 1.95298 0
M  V30 882 C 83.2065 -1.48976 0.820979 0
M  V30 883 O 84.3915 -1.61188 1.08315 0
M  V30 884 C 81.5215 -2.63 2.26822 0
M  V30 885 C 80.4755 -2.56671 3.42497 0
M  V30 886 C 79.8015 -3.95697 3.59622 0
M  V30 887 C 81.1015 -2.11601 4.77517 0
M  V30 888 H 82.7955 -0.953525 2.8381 0
M  V30 889 H 80.3415 -0.457244 1.36548 0
M  V30 890 H 82.2945 -3.37077 2.52898 0
M  V30 891 H 81.0185 -2.9732 1.35161 0
M  V30 892 H 79.6775 -1.85051 3.16467 0
M  V30 893 H 79.3255 -4.27322 2.6534 0
M  V30 894 H 79.0255 -3.92345 4.37424 0
M  V30 895 H 80.5495 -4.71438 3.88044 0
M  V30 896 H 81.9635 -2.7542 5.02809 0
M  V30 897 H 80.3605 -2.19311 5.5859 0
M  V30 898 H 81.4305 -1.06824 4.72987 0
M  V30 899 N 82.7736 -1.49793 -0.48987 0
M  V30 900 C 83.7366 -1.66752 -1.57246 0
M  V30 901 C 84.7366 -0.538867 -1.51502 0
M  V30 902 O 85.9266 -0.805545 -1.54456 0
M  V30 903 C 83.0586 -1.67528 -2.96896 0
M  V30 904 H 84.2516 -2.63321 -1.43534 0
M  V30 905 H 81.8046 -1.38992 -0.714914 0
M  V30 906 H 82.5396 -0.725837 -3.16073 0
M  V30 907 H 82.3246 -2.49504 -3.02473 0
M  V30 908 H 83.8146 -1.82667 -3.7553 0
M  V30 909 N 84.2517 0.741722 -1.39055 0
M  V30 910 C 85.4997 1.49818 -1.35643 0
M  V30 911 C 85.8207 1.94938 0.0491642 0
M  V30 912 O 85.0907 1.68505 0.999141 0
M  V30 913 H 83.6707 0.555755 -0.499144 0
M  V30 914 H 86.3327 0.880957 -1.73854 0
M  V30 915 H 85.4287 2.38348 -2.01486 0
M  V30 916 N 85.7298 1.2412 0.971189 0
M  V30 917 C 86.6398 1.04747 2.09917 0
M  V30 918 C 87.6558 -0.0107162 1.73997 0
M  V30 919 O 88.8318 0.186714 2.00533 0
M  V30 920 C 85.8968 0.650828 3.40537 0
M  V30 921 C 84.9578 1.7851 3.90426 0
M  V30 922 C 84.1908 1.40729 5.14812 0
M  V30 923 O 84.4138 0.29557 5.69634 0
M  V30 924 O 83.3478 2.23168 5.58999 0
M  V30 925 H 87.1738 1.99304 2.29154 0
M  V30 926 H 84.7588 1.02908 1.08307 0
M  V30 927 H 86.6408 0.440992 4.19086 0
M  V30 928 H 85.3158 -0.265649 3.22608 0
M  V30 929 H 84.2228 2.04966 3.12953 0
M  V30 930 H 85.5558 2.68023 4.12825 0
M  V30 931 N 87.2079 -1.17134 1.05439 0
M  V30 932 C 88.4849 -1.83411 0.679699 0
M  V30 933 C 88.8649 -1.9368 -0.839726 0
M  V30 934 O 88.2129 -1.47325 -1.74664 0
M  V30 935 C 88.4229 -3.20918 1.37159 0
M  V30 936 C 89.7709 -3.96796 1.51123 0
M  V30 937 O 90.7949 -3.30406 1.3308 0
M  V30 938 O 89.6539 -5.15778 1.80651 0
M  V30 939 H 86.7479 -0.79154 0.239569 0
M  V30 940 H 89.2939 -1.24411 1.15413 0
M  V30 941 H 88.0659 -3.08428 2.40807 0
M  V30 942 H 87.6889 -3.87587 0.886674 0
M  V30 943 N 88.686 -0.835752 -1.33615 0
M  V30 944 C 89.649 -0.272 -2.2758 0
M  V30 945 C 90.649 0.557487 -1.50827 0
M  V30 946 O 91.839 0.37173 -1.70188 0
M  V30 947 C 88.971 0.617173 -3.35267 0
M  V30 948 H 90.164 -1.10111 -2.78954 0
M  V30 949 H 87.717 -0.608594 -1.43965 0
M  V30 950 H 88.452 1.46884 -2.89129 0
M  V30 951 H 88.237 0.0237066 -3.92093 0
M  V30 952 H 89.727 1.005 -4.05326 0
M  V30 953 N 90.1641 1.46063 -0.591896 0
M  V30 954 C 91.4131 2.01547 -0.0786637 0
M  V30 955 C 91.7261 1.46796 1.29268 0
M  V30 956 O 92.9321 1.94157 1.89777 0
M  V30 957 C 91.3881 3.59787 -0.0900024 0
M  V30 958 C 90.9961 4.23534 -1.46023 0
M  V30 959 C 92.7401 4.22895 0.368806 0
M  V30 960 C 90.6471 5.73881 -1.4288 0
M  V30 961 H 89.5771 0.753564 -0.0256388 0
M  V30 962 H 92.2281 1.677 -0.744905 0
M  V30 963 H 90.6101 3.90752 0.642586 0
M  V30 964 H 91.7841 4.04167 -2.21328 0
M  V30 965 H 90.0991 3.72558 -1.85982 0
M  V30 966 H 92.6961 5.33116 0.411258 0
M  V30 967 H 93.0391 3.9247 1.38827 0
M  V30 968 H 93.5721 3.9659 -0.31001 0
M  V30 969 H 90.3111 6.0898 -2.42536 0
M  V30 970 H 89.8311 5.95486 -0.718095 0
M  V30 971 H 91.5101 6.36776 -1.14565 0
M  V30 972 N 91.6422 0.330177 1.54103 0
M  V30 973 C 92.8822 -0.270916 2.02597 0
M  V30 974 C 93.2462 -1.48826 1.21304 0
M  V30 975 O 94.4472 -2.16266 1.59633 0
M  V30 976 C 92.7182 -0.590328 3.52491 0
M  V30 977 S 94.2772 -1.17014 4.2291 0
M  V30 978 H 91.0952 -0.0815379 0.706309 0
M  V30 979 H 93.6972 0.464835 1.89893 0
M  V30 980 H 92.4012 0.303691 4.09275 0
M  V30 981 H 91.9322 -1.3561 3.69288 0
M  V30 982 H 93.9472 -2.45662 4.3112 0
M  V30 983 N 93.1203 -1.57491 0.0584922 0
M  V30 984 C 94.3683 -1.92597 -0.612436 0
M  V30 985 C 94.6893 -0.938162 -1.70949 0
M  V30 986 O 93.9593 0.0158301 -1.95894 0
M  V30 987 H 92.5393 -0.710964 -0.229214 0
M  V30 988 H 95.2013 -1.94571 0.113218 0
M  V30 989 H 94.2973 -2.94038 -1.04633 0
M  V30 990 N 94.5984 0.214957 -1.56127 0
M  V30 991 C 95.8474 0.936451 -1.78643 0
M  V30 992 C 96.1604 1.85237 -0.628229 0
M  V30 993 O 97.3664 2.613 -0.737186 0
M  V30 994 C 95.8224 1.7154 -3.16389 0
M  V30 995 C 95.4304 0.845299 -4.39953 0
M  V30 996 C 97.1744 2.42772 -3.48227 0
M  V30 997 C 95.0814 1.62198 -5.68723 0
M  V30 998 H 94.0114 0.353401 -0.666051 0
M  V30 999 H 96.6624 0.190169 -1.82512 0
M  V30 1000 H 95.0444 2.50484 -3.06715 0
M  V30 1001 H 96.2184 0.0959353 -4.607 0
M  V30 1002 H 94.5334 0.244789 -4.1568 0
M  V30 1003 H 97.1304 3.01394 -4.41663 0
M  V30 1004 H 97.4734 3.15984 -2.71035 0
M  V30 1005 H 98.0064 1.70813 -3.5926 0
M  V30 1006 H 94.7454 0.933011 -6.48826 0
M  V30 1007 H 94.2654 2.34579 -5.52026 0
M  V30 1008 H 95.9444 2.18095 -6.09133 0
M  V30 1009 N 96.0765 1.50051 0.48192 0
M  V30 1010 C 97.3065 1.63999 1.2565 0
M  V30 1011 C 97.7145 0.318288 1.86504 0
M  V30 1012 O 97.0575 -0.708534 1.69486 0
M  V30 1013 C 97.1195 2.66504 2.4128 0
M  V30 1014 C 96.7835 4.10352 2.01148 0
M  V30 1015 C 97.7805 4.96562 1.54021 0
M  V30 1016 C 95.4655 4.56203 2.10199 0
M  V30 1017 C 97.4595 6.26668 1.16473 0
M  V30 1018 C 95.1465 5.86318 1.72264 0
M  V30 1019 C 96.1445 6.71375 1.25477 0
M  V30 1020 O 95.8325 7.99062 0.880626 0
M  V30 1021 H 95.5645 0.55456 0.386574 0
M  V30 1022 H 98.1185 1.96954 0.582944 0
M  V30 1023 H 96.3485 2.28769 3.11772 0
M  V30 1024 H 98.0375 2.69783 3.03268 0
M  V30 1025 H 98.8035 4.62358 1.46458 0
M  V30 1026 H 94.6825 3.90152 2.45566 0
M  V30 1027 H 98.2265 6.93011 0.798841 0
M  V30 1028 H 94.1235 6.20046 1.79482 0
M  V30 1029 H 94.8915 8.12239 1.01043 0
M  V30 1030 N 97.5546 -0.734337 1.39446 0
M  V30 1031 C 98.8026 -1.49096 1.36436 0
M  V30 1032 C 99.1236 -1.94961 -0.0388255 0
M  V30 1033 O 98.3936 -1.69033 -0.990191 0
M  V30 1034 H 96.9736 -0.5531 0.502085 0
M  V30 1035 H 99.6356 -0.871725 1.74319 0
M  V30 1036 H 98.7316 -2.37276 2.02747 0
M  V30 1037 N 99.0327 -1.24633 -0.964593 0
M  V30 1038 C 100.261 -1.11501 -1.74285 0
M  V30 1039 C 100.676 0.332165 -1.85855 0
M  V30 1040 O 100.033 1.22903 -1.34911 0
M  V30 1041 C 100.084 -1.75258 -3.16175 0
M  V30 1042 O 99.8047 -3.14318 -3.05182 0
M  V30 1043 C 101.306 -1.67776 -4.10324 0
M  V30 1044 H 98.5257 -0.389407 -0.546446 0
M  V30 1045 H 101.07 -1.64801 -1.21083 0
M  V30 1046 H 99.2247 -1.25954 -3.66353 0
M  V30 1047 H 99.6387 -3.4551 -3.94618 0
M  V30 1048 H 101.113 -2.17064 -5.0753 0
M  V30 1049 H 101.59 -0.639584 -4.34518 0
M  V30 1050 H 102.196 -2.16522 -3.66058 0
M  V30 1051 N 100.511 1.16574 -1.06058 0
M  V30 1052 C 101.443 2.2045 -0.627239 0
M  V30 1053 C 102.456 1.59752 0.313534 0
M  V30 1054 O 103.645 1.78192 0.104896 0
M  V30 1055 C 100.745 3.3875 0.100974 0
M  V30 1056 C 99.9178 4.29008 -0.852687 0
M  V30 1057 C 98.9768 5.25944 -0.164152 0
M  V30 1058 O 98.0028 5.63535 -0.801047 0
M  V30 1059 N 99.2048 5.70075 1.09518 0
M  V30 1060 H 101.97 2.58249 -1.52077 0
M  V30 1061 H 99.5308 1.3156 -0.943594 0
M  V30 1062 H 101.523 4.00638 0.57194 0
M  V30 1063 H 100.093 2.99476 0.89628 0
M  V30 1064 H 99.3128 3.64419 -1.50308 0
M  V30 1065 H 100.601 4.86195 -1.49972 0
M  V30 1066 H 99.9988 5.41624 1.6328 0
M  V30 1067 H 98.5558 6.34067 1.51006 0
M  V30 1068 N 101.989 0.842826 1.3317 0
M  V30 1069 C 103.217 0.454055 2.01856 0
M  V30 1070 C 103.632 -0.94587 1.63397 0
M  V30 1071 O 102.989 -1.61534 0.849302 0
M  V30 1072 C 103.04 0.569715 3.56982 0
M  V30 1073 O 102.761 1.91448 3.94055 0
M  V30 1074 C 104.262 0.178412 4.42941 0
M  V30 1075 H 101.482 0.17979 0.646465 0
M  V30 1076 H 104.026 1.1365 1.70012 0
M  V30 1077 H 102.181 -0.0648587 3.87346 0
M  V30 1078 H 102.595 1.90282 4.88767 0
M  V30 1079 H 104.069 0.310376 5.51127 0
M  V30 1080 H 104.546 -0.880056 4.30293 0
M  V30 1081 H 105.152 0.787579 4.17944 0
M  V30 1082 N 103.467 -1.45747 0.599634 0
M  V30 1083 C 104.883 -1.57424 0.26264 0
M  V30 1084 C 105.083 -1.59222 -1.23493 0
M  V30 1085 O 104.139 -1.51825 -2.01756 0
M  V30 1086 C 105.452 -2.86061 0.926795 0
M  V30 1087 C 107 -2.99722 0.901967 0
M  V30 1088 C 107.475 -4.31119 1.54598 0
M  V30 1089 N 108.966 -4.37858 1.5111 0
M  V30 1090 C 109.701 -5.3818 1.97863 0
M  V30 1091 N 109.197 -6.45083 2.52666 0
M  V30 1092 N 110.99 -5.29487 1.88679 0
M  V30 1093 H 103.141 -1.42823 1.57211 0
M  V30 1094 H 105.404 -0.68235 0.658105 0
M  V30 1095 H 105.11 -2.90605 1.98095 0
M  V30 1096 H 104.984 -3.74563 0.445238 0
M  V30 1097 H 107.371 -2.9475 -0.143617 0
M  V30 1098 H 107.452 -2.12652 1.42171 0
M  V30 1099 H 107.096 -4.36849 2.59085 0
M  V30 1100 H 107.026 -5.16992 1.00132 0
M  V30 1101 H 109.517 -3.61209 1.11068 0
M  V30 1102 H 109.83 -7.17869 2.86155 0
M  V30 1103 H 108.175 -6.45856 2.56701 0
M  V30 1104 H 111.366 -4.44877 1.4561 0
M  V30 1105 H 111.539 -6.07524 2.25429 0
M  V30 1106 N 104.945 -0.338344 -1.53925 0
M  V30 1107 C 106.361 0.0137736 -1.59594 0
M  V30 1108 C 106.561 1.49186 -1.35447 0
M  V30 1109 O 105.617 2.24987 -1.14616 0
M  V30 1110 C 106.93 -0.41773 -2.97784 0
M  V30 1111 C 108.478 -0.369633 -3.1081 0
M  V30 1112 C 108.953 -0.776524 -4.51369 0
M  V30 1113 N 110.444 -0.730506 -4.57403 0
M  V30 1114 C 111.179 -1.01736 -5.64303 0
M  V30 1115 N 110.675 -1.3721 -6.79077 0
M  V30 1116 N 112.468 -0.941942 -5.54151 0
M  V30 1117 H 104.619 -1.3012 -1.67876 0
M  V30 1118 H 106.882 -0.530082 -0.78595 0
M  V30 1119 H 106.588 -1.44811 -3.20504 0
M  V30 1120 H 106.462 0.209729 -3.76616 0
M  V30 1121 H 108.849 0.651568 -2.87817 0
M  V30 1122 H 108.93 -1.03223 -2.34049 0
M  V30 1123 H 108.574 -1.79571 -4.75096 0
M  V30 1124 H 108.504 -0.0914649 -5.26521 0
M  V30 1125 H 110.995 -0.468783 -3.74981 0
M  V30 1126 H 111.308 -1.57597 -7.5656 0
M  V30 1127 H 109.653 -1.4105 -6.80536 0
M  V30 1128 H 112.844 -0.664184 -4.63364 0
M  V30 1129 H 113.017 -1.16884 -6.37371 0
M  V30 1130 N 106.423 1.57458 -0.0668435 0
M  V30 1131 C 107.353 2.15468 0.899764 0
M  V30 1132 C 108.334 1.08042 1.31381 0
M  V30 1133 O 109.519 1.36054 1.38574 0
M  V30 1134 C 106.649 2.71232 2.16911 0
M  V30 1135 C 105.603 3.83781 1.89463 0
M  V30 1136 C 104.929 4.26127 3.22986 0
M  V30 1137 C 106.229 5.08238 1.20381 0
M  V30 1138 H 107.923 2.96488 0.416529 0
M  V30 1139 H 105.469 1.4262 0.198908 0
M  V30 1140 H 107.422 3.10458 2.84945 0
M  V30 1141 H 106.146 1.87426 2.67468 0
M  V30 1142 H 104.805 3.45051 1.23836 0
M  V30 1143 H 104.453 3.39249 3.71374 0
M  V30 1144 H 104.153 5.01993 3.05413 0
M  V30 1145 H 105.677 4.67966 3.92225 0
M  V30 1146 H 107.091 5.44811 1.78475 0
M  V30 1147 H 105.488 5.89349 1.13083 0
M  V30 1148 H 106.558 4.84558 0.182153 0
M  V30 1149 N 107.901 -0.206675 1.56239 0
M  V30 1150 C 108.849 -1.27571 1.94495 0
M  V30 1151 C 109.843 -1.47737 0.828862 0
M  V30 1152 O 111.049 -1.48735 1.0138 0
M  V30 1153 H 107.424 -0.428029 0.6183 0
M  V30 1154 H 109.395 -0.925961 2.8367 0
M  V30 1155 C 108.144 -2.61568 2.29079 0
M  V30 1156 H 107.467 -2.46863 3.14482 0
M  V30 1157 H 108.907 -3.35144 2.5972 0
M  V30 1158 C 107.366 -3.17695 1.12123 0
M  V30 1159 O 107.896 -3.99801 0.390153 0
M  V30 1160 N 106.102 -2.76276 0.901097 0
M  V30 1161 H 105.649 -2.09613 1.49733 0
M  V30 1162 H 105.607 -3.1417 0.120319 0
M  V30 1163 N 109.379 -1.50304 -0.473955 0
M  V30 1164 C 110.627 -1.60832 -1.22382 0
M  V30 1165 C 110.948 -0.30939 -1.9253 0
M  V30 1166 O 110.218 0.67296 -1.83978 0
M  V30 1167 H 108.798 -0.592652 -0.454723 0
M  V30 1168 H 111.46 -1.87068 -0.546968 0
M  V30 1169 H 110.556 -2.41803 -1.97327 0
M  V30 1170 N 110.857 0.726932 -1.39834 0
M  V30 1171 C 112.134 1.47902 -1.28001 0
M  V30 1172 C 112.514 2.1083 0.106789 0
M  V30 1173 O 111.862 1.99242 1.11869 0
M  V30 1174 C 112.072 2.52392 -2.41038 0
M  V30 1175 C 113.42 3.18546 -2.80737 0
M  V30 1176 O 114.444 2.62708 -2.40547 0
M  V30 1177 O 113.303 4.19604 -3.50135 0
M  V30 1178 H 110.397 0.657163 -0.502062 0
M  V30 1179 H 112.943 0.760071 -1.51727 0
M  V30 1180 H 111.715 2.04329 -3.33715 0
M  V30 1181 H 111.338 3.31837 -2.19021 0
M  V30 1182 N 112.336 1.25143 0.95797 0
M  V30 1183 C 113.582 1.09855 1.70469 0
M  V30 1184 C 113.915 -0.360187 1.90831 0
M  V30 1185 O 113.19 -1.26568 1.47685 0
M  V30 1186 C 113.473 1.8497 3.08963 0
M  V30 1187 C 113.326 3.38652 2.96032 0
M  V30 1188 C 114.645 1.63016 4.08795 0
M  V30 1189 H 111.764 0.400465 0.618706 0
M  V30 1190 H 114.406 1.53933 1.11376 0
M  V30 1191 H 112.556 1.47505 3.59409 0
M  V30 1192 H 114.228 3.85772 2.52938 0
M  V30 1193 H 112.471 3.66534 2.32025 0
M  V30 1194 H 113.142 3.8642 3.94187 0
M  V30 1195 H 115.618 1.95625 3.67247 0
M  V30 1196 H 114.494 2.18015 5.03747 0
M  V30 1197 H 114.755 0.570692 4.38401 0
M  V30 1198 N 113.814 -1.1601 1.06675 0
M  V30 1199 C 115.039 -1.91068 0.806706 0
M  V30 1200 C 115.464 -1.77112 -0.633485 0
M  V30 1201 O 114.822 -1.09908 -1.44187 0
M  V30 1202 C 114.87 -3.39655 1.21106 0
M  V30 1203 O 113.974 -4.10893 0.352189 0
M  V30 1204 H 113.315 -0.595125 0.294486 0
M  V30 1205 H 115.845 -1.46955 1.42356 0
M  V30 1206 H 115.855 -3.90434 1.18428 0
M  V30 1207 H 114.53 -3.49132 2.26008 0
M  V30 1208 H 113.107 -3.70285 0.440868 0
M  V30 1209 N 115.292 -0.849877 -1.32721 0
M  V30 1210 C 116.703 -0.506188 -1.79707 0
M  V30 1211 C 117.054 0.975627 -1.70223 0
M  V30 1212 O 116.179 1.76078 -1.25799 0
M  V30 1213 C 116.774 -0.912044 -3.26293 0
M  V30 1214 C 115.333 -0.620326 -3.71253 0
M  V30 1215 C 114.48 -1.11439 -2.53922 0
M  V30 1216 H 117.431 -1.03754 -1.20087 0
M  V30 1217 H 117.452 -0.226493 -3.79825 0
M  V30 1218 H 116.964 -1.99057 -3.33164 0
M  V30 1219 H 115.065 0.447674 -3.69901 0
M  V30 1220 H 115.178 -1.18327 -4.64258 0
M  V30 1221 H 113.542 -0.534834 -2.49021 0
M  V30 1222 H 114.325 -2.19992 -2.6355 0
M  V30 1223 N 116.77 1.45427 -0.607355 0
M  V30 1224 C 117.68 2.34325 0.113463 0
M  V30 1225 C 118.696 1.51226 0.860617 0
M  V30 1226 O 119.872 1.84029 0.818255 0
M  V30 1227 C 116.937 3.28839 1.09844 0
M  V30 1228 C 115.998 4.27844 0.353271 0
M  V30 1229 C 115.231 5.17842 1.29133 0
M  V30 1230 O 115.454 5.11264 2.52913 0
M  V30 1231 O 114.388 5.96713 0.788523 0
M  V30 1232 H 118.214 2.97364 -0.617094 0
M  V30 1233 H 115.799 1.44807 -0.367619 0
M  V30 1234 H 117.681 3.8708 1.66575 0
M  V30 1235 H 116.356 2.68365 1.81003 0
M  V30 1236 H 115.263 3.7322 -0.256494 0
M  V30 1237 H 116.596 4.91173 -0.317822 0
M  V30 1238 N 118.248 0.346503 1.53744 0
M  V30 1239 C 119.525 -0.304532 1.93215 0
M  V30 1240 C 119.905 -1.67993 1.27834 0
M  V30 1241 O 119.253 -2.24411 0.430352 0
M  V30 1242 C 119.463 -0.373852 3.46992 0
M  V30 1243 C 120.811 -0.62329 4.2 0
M  V30 1244 O 121.835 -0.455847 3.53271 0
M  V30 1245 O 120.694 -0.947879 5.38217 0
M  V30 1246 H 117.788 -0.178318 0.807547 0
M  V30 1247 H 120.334 0.397895 1.64969 0
M  V30 1248 H 119.106 0.591224 3.86808 0
M  V30 1249 H 118.729 -1.12294 3.81413 0
M  V30 1250 N 119.726 -1.57421 0.075193 0
M  V30 1251 C 120.689 -2.11791 -0.876203 0
M  V30 1252 C 121.689 -1.04268 -1.22412 0
M  V30 1253 O 122.879 -1.30242 -1.15684 0
M  V30 1254 C 120.011 -2.62207 -2.17854 0
M  V30 1255 H 121.204 -2.9716 -0.40444 0
M  V30 1256 H 118.757 -1.55333 -0.173557 0
M  V30 1257 H 119.492 -1.803 -2.6956 0
M  V30 1258 H 119.277 -3.40802 -1.93897 0
M  V30 1259 H 120.767 -3.04335 -2.85955 0
M  V30 1260 N 121.204 0.198386 -1.56346 0
M  V30 1261 C 122.136 1.26987 -1.90806 0
M  V30 1262 C 123.149 1.41877 -0.798419 0
M  V30 1263 O 124.338 1.42362 -1.07682 0
M  V30 1264 C 121.438 2.64246 -2.12196 0
M  V30 1265 C 120.611 2.71007 -3.43328 0
M  V30 1266 C 119.67 3.89439 -3.5387 0
M  V30 1267 O 118.696 3.76695 -4.26719 0
M  V30 1268 N 119.898 5.04752 -2.86715 0
M  V30 1269 H 122.663 0.977433 -2.83313 0
M  V30 1270 H 120.224 0.388322 -1.57174 0
M  V30 1271 H 122.216 3.41896 -2.1654 0
M  V30 1272 H 120.786 2.85992 -1.26204 0
M  V30 1273 H 120.006 1.79657 -3.50881 0
M  V30 1274 H 121.294 2.72512 -4.29668 0
M  V30 1275 H 120.692 5.18004 -2.2735 0
M  V30 1276 H 119.249 5.8036 -2.96691 0
M  V30 1277 N 122.682 1.50554 0.465978 0
M  V30 1278 C 124.098 1.38093 0.800154 0
M  V30 1279 C 124.298 0.440988 1.96615 0
M  V30 1280 O 123.354 -0.114499 2.5224 0
M  V30 1281 C 124.667 2.79565 1.10742 0
M  V30 1282 C 126.215 2.88516 1.21357 0
M  V30 1283 C 126.69 4.30833 1.55393 0
M  V30 1284 N 128.181 4.33807 1.62375 0
M  V30 1285 C 128.916 5.40927 1.90225 0
M  V30 1286 N 128.412 6.58247 2.16062 0
M  V30 1287 N 130.205 5.28376 1.9177 0
M  V30 1288 H 122.356 2.10237 -0.302366 0
M  V30 1289 H 124.619 0.945203 -0.0727746 0
M  V30 1290 H 124.325 3.50208 0.323661 0
M  V30 1291 H 124.199 3.17125 2.04234 0
M  V30 1292 H 126.586 2.1809 1.98799 0
M  V30 1293 H 126.667 2.54492 0.258321 0
M  V30 1294 H 126.311 5.01799 0.784889 0
M  V30 1295 H 126.241 4.62347 2.52076 0
M  V30 1296 H 128.732 3.49212 1.44427 0
M  V30 1297 H 129.045 7.3569 2.36601 0
M  V30 1298 H 127.39 6.61413 2.13444 0
M  V30 1299 H 130.581 4.35715 1.71085 0
M  V30 1300 H 130.754 6.11944 2.13139 0
M  V30 1301 N 124.16 -0.719506 1.40217 0
M  V30 1302 C 125.09 -1.8465 1.42922 0
M  V30 1303 C 126.071 -1.67599 0.29062 0
M  V30 1304 O 127.256 -1.87688 0.498677 0
M  V30 1305 C 124.386 -3.22565 1.28722 0
M  V30 1306 C 123.34 -3.54281 2.40144 0
M  V30 1307 C 122.666 -4.91298 2.11023 0
M  V30 1308 C 123.966 -3.55676 3.82481 0
M  V30 1309 H 125.66 -1.82644 2.37237 0
M  V30 1310 H 123.206 -0.877305 1.1419 0
M  V30 1311 H 125.159 -4.01095 1.29232 0
M  V30 1312 H 123.883 -3.25137 0.308811 0
M  V30 1313 H 122.542 -2.78088 2.38877 0
M  V30 1314 H 122.19 -4.90468 1.11582 0
M  V30 1315 H 121.89 -5.13485 2.8567 0
M  V30 1316 H 123.414 -5.72166 2.13209 0
M  V30 1317 H 124.828 -4.24254 3.85592 0
M  V30 1318 H 123.225 -3.89388 4.56614 0
M  V30 1319 H 124.295 -2.55144 4.12346 0
M  V30 1320 N 125.638 -1.25649 -0.95132 0
M  V30 1321 C 126.866 -1.13343 -1.73092 0
M  V30 1322 C 127.281 0.312434 -1.86197 0
M  V30 1323 O 126.638 1.21465 -1.36207 0
M  V30 1324 C 126.689 -1.78602 -3.14299 0
M  V30 1325 O 126.41 -3.17537 -3.01831 0
M  V30 1326 C 127.911 -1.72119 -4.08522 0
M  V30 1327 H 125.131 -0.395181 -0.542285 0
M  V30 1328 H 127.675 -1.66076 -1.19328 0
M  V30 1329 H 125.83 -1.29832 -3.64996 0
M  V30 1330 H 126.244 -3.49676 -3.90931 0
M  V30 1331 H 127.718 -2.22435 -5.052 0
M  V30 1332 H 128.195 -0.685635 -4.33815 0
M  V30 1333 H 128.801 -2.20393 -3.63741 0
M  V30 1334 N 127.117 1.15442 -1.07289 0
M  V30 1335 C 128.08 2.18358 -0.696591 0
M  V30 1336 C 129.08 1.58637 0.262837 0
M  V30 1337 O 130.27 1.74145 0.0438809 0
M  V30 1338 C 127.402 3.4089 -0.0266151 0
M  V30 1339 H 128.595 2.53162 -1.60776 0
M  V30 1340 H 126.148 1.29893 -0.869342 0
M  V30 1341 H 126.883 3.11653 0.896822 0
M  V30 1342 H 126.668 3.85495 -0.716657 0
M  V30 1343 H 128.158 4.17009 0.222028 0
M  V30 1344 N 128.595 0.856903 1.32268 0
M  V30 1345 C 129.545 0.274899 2.26337 0
M  V30 1346 C 130.529 -0.580543 1.50062 0
M  V30 1347 O 131.721 -0.429559 1.71708 0
M  V30 1348 C 128.85 -0.533841 3.39124 0
M  V30 1349 C 127.936 0.334114 4.22782 0
M  V30 1350 N 128.327 1.42143 4.85416 0
M  V30 1351 C 126.625 0.124256 4.45827 0
M  V30 1352 C 127.326 1.95559 5.47843 0
M  V30 1353 N 126.302 1.25444 5.28928 0
M  V30 1354 H 130.104 1.10612 2.72291 0
M  V30 1355 H 127.618 0.703258 1.46383 0
M  V30 1356 H 129.615 -0.96722 4.05525 0
M  V30 1357 H 128.275 -1.36283 2.94715 0
M  V30 1358 H 129.286 1.80436 4.85451 0
M  V30 1359 H 125.963 -0.669837 4.12092 0
M  V30 1360 H 127.353 2.86714 6.07655 0
M  V30 1361 N 130.073 -1.45103 0.615059 0
M  V30 1362 C 131.32 -2.02183 0.113179 0
M  V30 1363 C 131.648 -1.48249 -1.25906 0
M  V30 1364 O 130.903 -0.650265 -1.84581 0
M  V30 1365 C 131.202 -3.57386 0.0318797 0
M  V30 1366 C 130.868 -4.30505 1.34077 0
M  V30 1367 C 129.53 -4.50197 1.69929 0
M  V30 1368 C 131.882 -4.72238 2.20546 0
M  V30 1369 C 129.21 -5.08881 2.91988 0
M  V30 1370 C 131.562 -5.32272 3.41861 0
M  V30 1371 C 130.226 -5.50187 3.77956 0
M  V30 1372 H 129.496 -0.739842 0.0414151 0
M  V30 1373 H 132.143 -1.74073 0.798168 0
M  V30 1374 H 130.448 -3.84817 -0.736409 0
M  V30 1375 H 132.145 -3.99264 -0.372712 0
M  V30 1376 H 128.735 -4.15496 1.05173 0
M  V30 1377 H 132.919 -4.56751 1.94146 0
M  V30 1378 H 128.175 -5.20939 3.2005 0
M  V30 1379 H 132.349 -5.63563 4.09109 0
M  V30 1380 H 129.976 -5.95427 4.72622 0
M  V30 1381 N 131.551 -0.354651 -1.53558 0
M  V30 1382 C 132.483 0.5315 -2.22952 0
M  V30 1383 C 133.496 1.05503 -1.23988 0
M  V30 1384 O 134.685 0.963279 -1.50277 0
M  V30 1385 C 131.785 1.74538 -2.90499 0
M  V30 1386 C 130.958 1.35524 -4.15875 0
M  V30 1387 C 130.017 2.42999 -4.66731 0
M  V30 1388 O 129.043 2.05844 -5.30676 0
M  V30 1389 N 130.245 3.74423 -4.43608 0
M  V30 1390 H 133.01 -0.0628615 -2.99634 0
M  V30 1391 H 130.571 -0.179302 -1.60904 0
M  V30 1392 H 132.563 2.45892 -3.21433 0
M  V30 1393 H 131.133 2.24686 -2.17336 0
M  V30 1394 H 130.353 0.471998 -3.91364 0
M  V30 1395 H 131.641 1.07071 -4.97406 0
M  V30 1396 H 131.039 4.07391 -3.92491 0
M  V30 1397 H 129.596 4.41913 -4.7912 0
M  V30 1398 N 133.029 1.57378 -0.0835403 0
M  V30 1399 C 134.254 1.98682 0.594987 0
M  V30 1400 C 134.679 0.961969 1.61641 0
M  V30 1401 O 134.037 -0.0709989 1.81161 0
M  V30 1402 C 134.085 3.38988 1.2296 0
M  V30 1403 O 133.189 3.39208 2.34546 0
M  V30 1404 H 132.53 0.646368 0.152002 0
M  V30 1405 H 135.06 2.03961 -0.161533 0
M  V30 1406 H 135.07 3.76431 1.57366 0
M  V30 1407 H 133.745 4.13107 0.481228 0
M  V30 1408 H 132.322 3.13548 2.01846 0
M  V30 1409 N 134.507 -0.190092 1.56449 0
M  V30 1410 C 135.437 -1.23816 1.97969 0
M  V30 1411 C 136.418 -1.47201 0.852395 0
M  V30 1412 O 137.603 -1.58854 1.1171 0
M  V30 1413 C 134.733 -2.5813 2.3235 0
M  V30 1414 C 133.687 -2.49348 3.47864 0
M  V30 1415 C 133.013 -3.8798 3.67934 0
M  V30 1416 C 134.313 -2.01424 4.81898 0
M  V30 1417 H 136.007 -0.89311 2.85769 0
M  V30 1418 H 133.553 -0.428177 1.37487 0
M  V30 1419 H 135.506 -3.31637 2.59991 0
M  V30 1420 H 134.23 -2.94386 1.41438 0
M  V30 1421 H 132.889 -1.78297 3.20321 0
M  V30 1422 H 132.537 -4.21597 2.74344 0
M  V30 1423 H 132.237 -3.82978 4.45648 0
M  V30 1424 H 133.761 -4.63101 3.97957 0
M  V30 1425 H 135.175 -2.64693 5.08538 0
M  V30 1426 H 133.572 -2.07413 5.63116 0
M  V30 1427 H 134.642 -0.967677 4.75146 0
M  V30 1428 N 135.985 -1.50799 -0.457987 0
M  V30 1429 C 137.232 -1.62442 -1.20908 0
M  V30 1430 C 137.56 -0.330865 -1.91665 0
M  V30 1431 O 136.815 0.68401 -1.83357 0
M  V30 1432 C 137.114 -2.76358 -2.2663 0
M  V30 1433 C 136.78 -4.16378 -1.73033 0
M  V30 1434 C 135.442 -4.54473 -1.58138 0
M  V30 1435 C 137.794 -5.03836 -1.33413 0
M  V30 1436 C 135.122 -5.77754 -1.02065 0
M  V30 1437 C 137.474 -6.27676 -0.78778 0
M  V30 1438 C 136.138 -6.64562 -0.625561 0
M  V30 1439 H 135.408 -0.594417 -0.442435 0
M  V30 1440 H 138.055 -1.84772 -0.503136 0
M  V30 1441 H 136.36 -2.48167 -3.03184 0
M  V30 1442 H 138.057 -2.82568 -2.84528 0
M  V30 1443 H 134.647 -3.86331 -1.85598 0
M  V30 1444 H 138.831 -4.75026 -1.4375 0
M  V30 1445 H 134.087 -6.04997 -0.882547 0
M  V30 1446 H 138.261 -6.94797 -0.472177 0
M  V30 1447 H 135.888 -7.59965 -0.188926 0
M  V30 1448 N 137.463 0.71206 -1.40597 0
M  V30 1449 C 138.703 1.48438 -1.40519 0
M  V30 1450 C 139.067 1.91998 -0.00767611 0
M  V30 1451 O 140.268 2.6854 0.118239 0
M  V30 1452 C 138.539 2.67514 -2.37004 0
M  V30 1453 S 140.098 3.56875 -2.55315 0
M  V30 1454 H 136.916 0.507457 -0.498005 0
M  V30 1455 H 139.518 0.832355 -1.76896 0
M  V30 1456 H 138.222 2.33689 -3.37368 0
M  V30 1457 H 137.753 3.37625 -2.01923 0
M  V30 1458 H 139.768 4.62081 -1.8082 0
M  V30 1459 N 138.941 1.26152 0.944643 0
M  V30 1460 C 140.166 1.14363 1.7302 0
M  V30 1461 C 140.591 -0.29772 1.85729 0
M  V30 1462 O 139.949 -1.2157 1.34501 0
M  V30 1463 C 139.997 1.81378 3.11664 0
M  V30 1464 O 139.101 1.10022 3.97453 0
M  V30 1465 H 138.442 0.398694 0.53098 0
M  V30 1466 H 140.972 1.66906 1.18337 0
M  V30 1467 H 140.982 1.88064 3.62072 0
M  V30 1468 H 139.657 2.86237 3.0173 0
M  V30 1469 H 138.234 1.11287 3.55907 0
M  V30 1470 N 140.419 -1.14872 1.07899 0
M  V30 1471 C 141.83 -1.67367 0.827363 0
M  V30 1472 C 142.181 -1.85236 -0.646693 0
M  V30 1473 O 141.306 -1.55974 -1.50004 0
M  V30 1474 C 141.901 -3.04016 1.49532 0
M  V30 1475 C 140.46 -3.53566 1.29106 0
M  V30 1476 C 139.607 -2.29161 1.56143 0
M  V30 1477 H 142.558 -0.990083 1.24028 0
M  V30 1478 H 142.579 -3.69219 0.919643 0
M  V30 1479 H 142.091 -2.90978 2.56814 0
M  V30 1480 H 140.192 -3.71835 0.238713 0
M  V30 1481 H 140.305 -4.34661 2.01511 0
M  V30 1482 H 138.669 -2.34978 0.982717 0
M  V30 1483 H 139.452 -2.18705 2.64619 0
M  V30 1484 N 141.898 -0.863906 -1.31812 0
M  V30 1485 C 142.848 -0.286898 -2.26188 0
M  V30 1486 C 143.832 0.572577 -1.50367 0
M  V30 1487 O 145.024 0.420447 -1.71934 0
M  V30 1488 C 142.153 0.515849 -3.39402 0
M  V30 1489 C 141.239 -0.356531 -4.22599 0
M  V30 1490 N 141.63 -1.44716 -4.84656 0
M  V30 1491 C 139.928 -0.147898 -4.45755 0
M  V30 1492 C 140.629 -1.98462 -5.46798 0
M  V30 1493 N 139.605 -1.28247 -5.28255 0
M  V30 1494 H 143.407 -1.12055 -2.717 0
M  V30 1495 H 140.921 -0.711012 -1.46008 0
M  V30 1496 H 142.918 0.945701 -4.06032 0
M  V30 1497 H 141.578 1.34718 -2.95434 0
M  V30 1498 H 142.589 -1.83008 -4.84488 0
M  V30 1499 H 139.266 0.647973 -4.12441 0
M  V30 1500 H 140.656 -2.89932 -6.06126 0
M  V30 1501 N 143.376 1.44774 -0.622745 0
M  V30 1502 C 144.339 2.29069 0.0774015 0
M  V30 1503 C 145.339 1.4059 0.780461 0
M  V30 1504 O 146.529 1.62551 0.626322 0
M  V30 1505 C 143.661 3.21974 1.12006 0
M  V30 1506 H 144.854 2.92459 -0.663901 0
M  V30 1507 H 142.407 1.51548 -0.382486 0
M  V30 1508 H 143.142 2.63417 1.89162 0
M  V30 1509 H 142.927 3.87168 0.619951 0
M  V30 1510 H 144.417 3.85318 1.60995 0
M  V30 1511 N 144.854 0.36279 1.53368 0
M  V30 1512 C 146.103 -0.22888 2.00397 0
M  V30 1513 C 146.416 -1.50096 1.25421 0
M  V30 1514 O 147.622 -2.17106 1.63025 0
M  V30 1515 C 146.078 -0.458417 3.56969 0
M  V30 1516 C 145.686 0.798877 4.4082 0
M  V30 1517 C 147.43 -1.00789 4.12361 0
M  V30 1518 C 145.337 0.539078 5.88938 0
M  V30 1519 H 144.267 -0.089305 0.748693 0
M  V30 1520 H 146.918 0.481099 1.77081 0
M  V30 1521 H 145.3 -1.22959 3.76427 0
M  V30 1522 H 146.474 1.57262 4.33134 0
M  V30 1523 H 144.789 1.27137 3.96516 0
M  V30 1524 H 147.386 -1.21754 5.20653 0
M  V30 1525 H 147.729 -1.9692 3.66781 0
M  V30 1526 H 148.262 -0.296961 3.9669 0
M  V30 1527 H 145.001 1.47064 6.3879 0
M  V30 1528 H 144.521 -0.196222 5.99479 0
M  V30 1529 H 146.2 0.163542 6.46793 0
M  V30 1530 N 146.332 -1.57332 0.0918853 0
M  V30 1531 C 147.265 -2.09499 -0.904735 0
M  V30 1532 C 148.243 -1.00479 -1.27839 0
M  V30 1533 O 149.427 -1.27954 -1.38419 0
M  V30 1534 C 146.554 -2.56931 -2.2069 0
M  V30 1535 C 145.6 -3.77579 -1.98334 0
M  V30 1536 S 146.433 -5.21317 -1.22428 0
M  V30 1537 C 147.589 -5.72097 -2.53882 0
M  V30 1538 H 147.822 -2.93705 -0.460922 0
M  V30 1539 H 145.355 -1.53923 -0.121332 0
M  V30 1540 H 147.313 -2.84917 -2.95521 0
M  V30 1541 H 145.974 -1.72956 -2.62192 0
M  V30 1542 H 145.167 -4.08824 -2.94752 0
M  V30 1543 H 144.769 -3.5007 -1.31633 0
M  V30 1544 H 147.061 -5.80168 -3.49874 0
M  V30 1545 H 148.004 -6.70654 -2.27219 0
M  V30 1546 H 148.412 -5.00012 -2.62007 0
M  V30 1547 N 147.81 0.181792 -1.56548 0
M  V30 1548 C 148.76 1.22961 -1.92002 0
M  V30 1549 C 149.744 1.40331 -0.787146 0
M  V30 1550 O 150.936 1.42478 -1.05019 0
M  V30 1551 C 148.065 2.57144 -2.27446 0
M  V30 1552 C 147.151 2.43512 -3.47222 0
M  V30 1553 N 147.542 1.99577 -4.64761 0
M  V30 1554 C 145.84 2.74368 -3.51622 0
M  V30 1555 C 146.541 1.98156 -5.46909 0
M  V30 1556 N 145.517 2.40164 -4.8767 0
M  V30 1557 H 149.319 0.881462 -2.8037 0
M  V30 1558 H 146.833 0.390141 -1.57644 0
M  V30 1559 H 148.83 3.32847 -2.51035 0
M  V30 1560 H 147.49 2.92771 -1.40411 0
M  V30 1561 H 148.501 1.70078 -4.89177 0
M  V30 1562 H 145.178 3.14102 -2.75038 0
M  V30 1563 H 146.568 1.65975 -6.51077 0
M  V30 1564 N 149.288 1.51039 0.449983 0
M  V30 1565 C 150.251 1.70863 1.5277 0
M  V30 1566 C 151.251 0.578846 1.5002 0
M  V30 1567 O 152.441 0.846213 1.52266 0
M  V30 1568 C 149.573 1.75341 2.9235 0
M  V30 1569 H 150.766 2.67034 1.36502 0
M  V30 1570 H 148.319 1.40838 0.677812 0
M  V30 1571 H 149.054 0.809383 3.14037 0
M  V30 1572 H 148.839 2.57436 2.95752 0
M  V30 1573 H 150.329 1.92559 3.70555 0
M  V30 1574 N 150.766 -0.704594 1.40972 0
M  V30 1575 C 151.713 -1.81862 1.42109 0
M  V30 1576 C 152.683 -1.63781 0.276593 0
M  V30 1577 O 153.868 -1.84759 0.4763 0
M  V30 1578 C 151.008 -3.19669 1.30022 0
M  V30 1579 C 150.121 -3.49246 2.54267 0
M  V30 1580 C 149.256 -4.76618 2.3454 0
M  V30 1581 C 148.295 -4.99133 3.54306 0
M  V30 1582 N 147.432 -6.17726 3.33706 0
M  V30 1583 H 152.272 -1.80226 2.37324 0
M  V30 1584 H 149.809 -0.880238 1.17857 0
M  V30 1585 H 151.767 -3.99263 1.21018 0
M  V30 1586 H 150.397 -3.20506 0.384192 0
M  V30 1587 H 149.449 -2.64125 2.73756 0
M  V30 1588 H 150.761 -3.61788 3.43381 0
M  V30 1589 H 149.915 -5.64249 2.22952 0
M  V30 1590 H 148.654 -4.66305 1.42867 0
M  V30 1591 H 147.659 -4.09953 3.66359 0
M  V30 1592 H 148.884 -5.11311 4.4692 0
M  V30 1593 H 146.83 -6.08642 2.44725 0
M  V30 1594 H 146.747 -6.30995 4.16391 0
M  V30 1595 H 148.015 -7.08115 3.25873 0
M  V30 1596 N 152.244 -1.26651 -0.937939 0
M  V30 1597 C 153.493 -1.11775 -1.67897 0
M  V30 1598 C 153.806 0.33794 -1.92659 0
M  V30 1599 O 155.012 0.607434 -2.64618 0
M  V30 1600 C 153.468 -1.9523 -3.02346 0
M  V30 1601 C 153.076 -3.45393 -2.8532 0
M  V30 1602 C 154.82 -1.88972 -3.80118 0
M  V30 1603 C 152.727 -4.21083 -4.15263 0
M  V30 1604 H 151.657 -0.414696 -0.629717 0
M  V30 1605 H 154.308 -1.50988 -1.04283 0
M  V30 1606 H 152.69 -1.48853 -3.66959 0
M  V30 1607 H 153.864 -3.99561 -2.29537 0
M  V30 1608 H 152.179 -3.52921 -2.20988 0
M  V30 1609 H 154.776 -2.42805 -4.76392 0
M  V30 1610 H 155.119 -0.86113 -4.07296 0
M  V30 1611 H 155.652 -2.33189 -3.22285 0
M  V30 1612 H 152.391 -5.24425 -3.93267 0
M  V30 1613 H 151.911 -3.71695 -4.70747 0
M  V30 1614 H 153.59 -4.29706 -4.83696 0
M  V30 1615 N 153.722 1.14298 -1.08507 0
M  V30 1616 C 154.947 1.8976 -0.837001 0
M  V30 1617 C 155.372 1.78097 0.605228 0
M  V30 1618 O 154.73 1.12188 1.4242 0
M  V30 1619 C 154.778 3.37685 -1.26495 0
M  V30 1620 O 153.882 4.10281 -0.417514 0
M  V30 1621 H 153.223 0.590365 -0.303917 0
M  V30 1622 H 155.753 1.44672 -1.44676 0
M  V30 1623 H 155.763 3.88501 -1.24625 0
M  V30 1624 H 154.438 3.45492 -2.31534 0
M  V30 1625 H 153.015 3.69536 -0.499722 0
M  V30 1626 N 155.201 0.870884 1.31352 0
M  V30 1627 C 156.164 0.332243 2.26779 0
M  V30 1628 C 157.164 -0.517302 1.52252 0
M  V30 1629 O 158.354 -0.326477 1.71113 0
M  V30 1630 C 155.486 -0.528066 3.36785 0
M  V30 1631 H 156.679 1.17469 2.75937 0
M  V30 1632 H 154.232 0.64655 1.423 0
M  V30 1633 H 154.967 -1.39167 2.92922 0
M  V30 1634 H 154.752 0.0802582 3.92018 0
M  V30 1635 H 156.242 -0.897179 4.07849 0
M  V30 1636 N 156.679 -1.44442 0.630414 0
M  V30 1637 C 157.609 -2.33418 -0.0618083 0
M  V30 1638 C 158.59 -1.48165 -0.835541 0
M  V30 1639 O 159.775 -1.76886 -0.801564 0
M  V30 1640 C 156.905 -3.31222 -1.04449 0
M  V30 1641 C 155.859 -4.26288 -0.382436 0
M  V30 1642 C 155.185 -5.13954 -1.47497 0
M  V30 1643 C 156.485 -5.1744 0.710865 0
M  V30 1644 H 158.179 -2.91548 0.681184 0
M  V30 1645 H 155.725 -1.40191 0.329026 0
M  V30 1646 H 157.678 -3.92351 -1.53748 0
M  V30 1647 H 156.402 -2.71299 -1.81836 0
M  V30 1648 H 155.061 -3.6649 0.0899054 0
M  V30 1649 H 154.709 -4.50385 -2.2397 0
M  V30 1650 H 154.409 -5.7837 -1.03737 0
M  V30 1651 H 155.933 -5.77955 -1.96979 0
M  V30 1652 H 157.347 -5.72509 0.300996 0
M  V30 1653 H 155.744 -5.90455 1.07156 0
M  V30 1654 H 156.814 -4.58496 1.57829 0
M  V30 1655 N 158.157 -0.370918 -1.53173 0
M  V30 1656 C 159.09 0.516727 -2.22273 0
M  V30 1657 C 160.068 1.07877 -1.21661 0
M  V30 1658 O 161.252 1.13389 -1.50583 0
M  V30 1659 C 158.379 1.71346 -2.92161 0
M  V30 1660 C 157.425 1.27838 -4.0689 0
M  V30 1661 S 158.258 0.275217 -5.34792 0
M  V30 1662 C 159.414 1.47816 -6.08195 0
M  V30 1663 H 159.647 -0.0701054 -2.97217 0
M  V30 1664 H 157.18 -0.155038 -1.5362 0
M  V30 1665 H 159.138 2.39988 -3.3304 0
M  V30 1666 H 157.799 2.27156 -2.16931 0
M  V30 1667 H 156.992 2.17141 -4.54825 0
M  V30 1668 H 156.594 0.671105 -3.6793 0
M  V30 1669 H 158.886 2.40831 -6.33251 0
M  V30 1670 H 159.829 1.04008 -7.0042 0
M  V30 1671 H 160.237 1.68663 -5.38714 0
M  V30 1672 N 159.635 1.57281 -0.100228 0
M  V30 1673 C 160.912 1.86014 0.604812 0
M  V30 1674 C 161.292 0.998025 1.86018 0
M  V30 1675 O 160.64 0.0718184 2.28387 0
M  V30 1676 C 160.85 3.36784 0.915278 0
M  V30 1677 C 162.198 4.04957 1.27651 0
M  V30 1678 O 163.222 3.41695 1.00613 0
M  V30 1679 O 162.081 5.16593 1.7831 0
M  V30 1680 H 159.175 0.76942 0.303185 0
M  V30 1681 H 161.721 1.69176 -0.133313 0
M  V30 1682 H 160.493 3.91292 0.0248896 0
M  V30 1683 H 160.116 3.58987 1.70921 0
M  V30 1684 N 161.113 -0.173488 1.56642 0
M  V30 1685 C 162.341 -0.906095 1.86004 0
M  V30 1686 C 162.756 -1.75921 0.685355 0
M  V30 1687 O 162.113 -1.79198 -0.345578 0
M  V30 1688 C 162.164 -1.78462 3.14378 0
M  V30 1689 O 161.885 -0.965914 4.27319 0
M  V30 1690 C 163.386 -2.62707 3.57071 0
M  V30 1691 H 160.606 -0.263341 0.617165 0
M  V30 1692 H 163.15 -0.174236 2.03756 0
M  V30 1693 H 161.305 -2.46984 2.98459 0
M  V30 1694 H 161.719 -1.56655 5.00559 0
M  V30 1695 H 163.193 -3.19969 4.49804 0
M  V30 1696 H 163.67 -3.37472 2.81086 0
M  V30 1697 H 164.276 -1.99521 3.75595 0
M  V30 1698 N 162.591 -1.51276 -0.441967 0
M  V30 1699 C 163.816 -1.67799 -1.21895 0
M  V30 1700 C 164.241 -0.372864 -1.84367 0
M  V30 1701 O 163.599 0.666501 -1.68604 0
M  V30 1702 C 163.647 -2.79199 -2.28211 0
M  V30 1703 O 162.751 -2.42479 -3.33583 0
M  V30 1704 H 162.092 -0.559649 -0.357336 0
M  V30 1705 H 164.622 -1.97815 -0.522522 0
M  V30 1706 H 164.632 -3.03146 -2.73069 0
M  V30 1707 H 163.307 -3.73906 -1.82118 0
M  V30 1708 H 161.884 -2.29087 -2.94234 0
M  V30 1709 N 164.069 0.697108 -1.41344 0
M  V30 1710 C 165.297 1.48593 -1.43972 0
M  V30 1711 C 165.712 1.88747 -0.0445612 0
M  V30 1712 O 165.069 1.56682 0.935785 0
M  V30 1713 C 165.12 2.74946 -2.34706 0
M  V30 1714 O 164.841 2.36484 -3.68791 0
M  V30 1715 C 166.342 3.687 -2.46121 0
M  V30 1716 H 163.562 0.457964 -0.490418 0
M  V30 1717 H 166.106 0.858429 -1.8561 0
M  V30 1718 H 164.261 3.33937 -1.9638 0
M  V30 1719 H 164.675 3.17918 -4.17167 0
M  V30 1720 H 166.149 4.54145 -3.13777 0
M  V30 1721 H 166.626 4.13081 -1.49199 0
M  V30 1722 H 167.232 3.15613 -2.85076 0
M  V30 1723 N 165.547 1.27147 0.931209 0
M  V30 1724 C 166.772 1.16191 1.71797 0
M  V30 1725 C 167.197 -0.278004 1.86034 0
M  V30 1726 O 166.555 -1.20137 1.35782 0
M  V30 1727 C 166.603 1.84673 3.09723 0
M  V30 1728 O 165.707 1.14231 3.96264 0
M  V30 1729 H 165.048 0.404303 0.526721 0
M  V30 1730 H 167.578 1.68152 1.1656 0
M  V30 1731 H 167.588 1.91893 3.60057 0
M  V30 1732 H 166.263 2.89421 2.98677 0
M  V30 1733 H 164.84 1.15056 3.54706 0
M  V30 1734 N 167.025 -1.13721 1.09112 0
M  V30 1735 C 168.302 -1.81155 0.737706 0
M  V30 1736 C 168.682 -1.96253 -0.777683 0
M  V30 1737 O 168.03 -1.52807 -1.69889 0
M  V30 1738 C 168.24 -3.16392 1.47299 0
M  V30 1739 C 169.588 -3.91787 1.63671 0
M  V30 1740 O 170.612 -3.26005 1.43524 0
M  V30 1741 O 169.471 -5.0977 1.96969 0
M  V30 1742 H 166.565 -0.783518 0.26463 0
M  V30 1743 H 169.111 -1.20676 1.19312 0
M  V30 1744 H 167.883 -3.0061 2.50498 0
M  V30 1745 H 167.506 -3.8457 1.00953 0
M  V30 1746 N 168.503 -0.877838 -1.30888 0
M  V30 1747 C 169.433 -0.35534 -2.3078 0
M  V30 1748 C 170.414 0.557994 -1.60687 0
M  V30 1749 O 171.599 0.473355 -1.88343 0
M  V30 1750 C 168.729 0.437221 -3.44537 0
M  V30 1751 C 167.683 -0.383715 -4.26276 0
M  V30 1752 C 167.009 0.535014 -5.32017 0
M  V30 1753 C 168.309 -1.62201 -4.96476 0
M  V30 1754 H 170.003 -1.19007 -2.74732 0
M  V30 1755 H 167.549 -0.573698 -1.32078 0
M  V30 1756 H 169.502 0.813334 -4.13477 0
M  V30 1757 H 168.226 1.30553 -2.99372 0
M  V30 1758 H 166.885 -0.741874 -3.59015 0
M  V30 1759 H 166.533 1.40083 -4.831 0
M  V30 1760 H 166.233 -0.0104211 -5.87599 0
M  V30 1761 H 167.757 0.907799 -6.03814 0
M  V30 1762 H 169.171 -1.31689 -5.5797 0
M  V30 1763 H 167.568 -2.10711 -5.61891 0
M  V30 1764 H 168.638 -2.37044 -4.23011 0
M  V30 1765 N 169.982 1.44106 -0.638065 0
M  V30 1766 C 171.228 2.02277 -0.145546 0
M  V30 1767 C 171.561 1.50125 1.23191 0
M  V30 1768 O 170.836 0.688133 1.8192 0
M  V30 1769 C 171.119 3.59829 -0.139791 0
M  V30 1770 C 170.972 4.22247 -1.55008 0
M  V30 1771 C 172.291 4.36873 0.531966 0
M  V30 1772 H 169.41 0.734992 -0.0543632 0
M  V30 1773 H 172.052 1.71592 -0.815863 0
M  V30 1774 H 170.202 3.86102 0.431007 0
M  V30 1775 H 171.874 4.07057 -2.1703 0
M  V30 1776 H 170.117 3.79476 -2.10191 0
M  V30 1777 H 170.788 5.31284 -1.49804 0
M  V30 1778 H 173.264 4.16074 0.0464781 0
M  V30 1779 H 172.14 5.4657 0.505206 0
M  V30 1780 H 172.401 4.11995 1.60352 0
M  V30 1781 N 171.46 0.379036 1.52974 0
M  V30 1782 C 172.392 -0.495963 2.2377 0
M  V30 1783 C 173.405 -1.03517 1.25651 0
M  V30 1784 O 174.594 -0.939249 1.51791 0
M  V30 1785 C 171.694 -1.69894 2.93239 0
M  V30 1786 C 170.867 -1.2889 4.17979 0
M  V30 1787 C 169.926 -2.35543 4.70538 0
M  V30 1788 O 168.952 -1.97375 5.33883 0
M  V30 1789 N 170.154 -3.67318 4.49508 0
M  V30 1790 H 172.919 0.110523 2.99496 0
M  V30 1791 H 170.48 0.204878 1.60598 0
M  V30 1792 H 172.472 -2.40747 3.25304 0
M  V30 1793 H 171.042 -2.212 2.20883 0
M  V30 1794 H 170.262 -0.409676 3.92065 0
M  V30 1795 H 171.55 -0.991443 4.99047 0
M  V30 1796 H 170.948 -4.01095 3.98923 0
M  V30 1797 H 169.505 -4.34235 4.8609 0
M  V30 1798 N 172.938 -1.57226 0.108567 0
M  V30 1799 C 174.184 -1.95121 -0.552761 0
M  V30 1800 C 174.517 -0.991345 -1.66991 0
M  V30 1801 O 173.792 -0.0267211 -1.94482 0
M  V30 1802 C 174.075 -3.43039 -1.09528 0
M  V30 1803 C 173.928 -4.49797 0.0177332 0
M  V30 1804 C 175.247 -3.92567 -1.98945 0
M  V30 1805 H 172.366 -0.709496 -0.199461 0
M  V30 1806 H 175.008 -1.89126 0.182011 0
M  V30 1807 H 173.158 -3.48279 -1.72146 0
M  V30 1808 H 174.83 -4.56661 0.652584 0
M  V30 1809 H 173.073 -4.284 0.682309 0
M  V30 1810 H 173.744 -5.50528 -0.402919 0
M  V30 1811 H 176.22 -3.89565 -1.46214 0
M  V30 1812 H 175.096 -4.96605 -2.33827 0
M  V30 1813 H 175.357 -3.32648 -2.91201 0
M  V30 1814 N 174.416 0.165178 -1.56732 0
M  V30 1815 C 175.364 1.22369 -1.97809 0
M  V30 1816 C 176.358 1.45488 -0.867741 0
M  V30 1817 O 177.564 1.45995 -1.05288 0
M  V30 1818 H 173.939 0.411486 -0.629431 0
M  V30 1819 H 175.91 0.850425 -2.86025 0
M  V30 1820 C 174.659 2.55403 -2.35934 0
M  V30 1821 H 173.982 2.38438 -3.20916 0
M  V30 1822 H 175.422 3.2814 -2.68514 0
M  V30 1823 C 173.881 3.14611 -1.20506 0
M  V30 1824 O 174.411 3.98626 -0.496016 0
M  V30 1825 N 172.617 2.7379 -0.97403 0
M  V30 1826 H 172.164 2.0557 -1.55238 0
M  V30 1827 H 172.122 3.1374 -0.203573 0
M  V30 1828 N 175.894 1.51508 0.433938 0
M  V30 1829 C 176.841 1.73068 1.52696 0
M  V30 1830 C 177.811 0.572441 1.55924 0
M  V30 1831 O 178.996 0.807253 1.72882 0
M  V30 1832 C 176.136 1.86474 2.90381 0
M  V30 1833 C 175.249 3.14037 2.96656 0
M  V30 1834 C 174.384 3.18019 4.25485 0
M  V30 1835 C 173.423 4.39882 4.2564 0
M  V30 1836 N 172.56 4.41394 5.45999 0
M  V30 1837 H 177.4 2.66366 1.33615 0
M  V30 1838 H 174.937 1.32008 0.649018 0
M  V30 1839 H 176.895 1.92229 3.70275 0
M  V30 1840 H 175.525 0.965809 3.08013 0
M  V30 1841 H 174.577 3.17575 2.09404 0
M  V30 1842 H 175.889 4.0394 2.92633 0
M  V30 1843 H 175.043 3.22708 5.13755 0
M  V30 1844 H 173.782 2.2601 4.3217 0
M  V30 1845 H 172.787 4.35366 3.35763 0
M  V30 1846 H 174.012 5.33159 4.20617 0
M  V30 1847 H 171.958 3.52258 5.53399 0
M  V30 1848 H 171.875 5.25111 5.4387 0
M  V30 1849 H 173.143 4.50281 6.36292 0
M  V30 1850 N 177.372 -0.689602 1.41712 0
M  V30 1851 C 178.282 -1.83314 1.46401 0
M  V30 1852 C 179.298 -1.7036 0.35405 0
M  V30 1853 O 180.474 -1.92171 0.602692 0
M  V30 1854 C 177.539 -3.19344 1.34982 0
M  V30 1855 C 176.6 -3.44363 2.56344 0
M  V30 1856 C 175.833 -4.73904 2.45461 0
M  V30 1857 O 176.056 -5.508 1.48241 0
M  V30 1858 O 174.99 -4.99839 3.35328 0
M  V30 1859 H 178.816 -1.82314 2.42889 0
M  V30 1860 H 176.401 -0.843438 1.23315 0
M  V30 1861 H 178.283 -4.00547 1.3092 0
M  V30 1862 H 176.958 -3.21014 0.41612 0
M  V30 1863 H 175.865 -2.63067 2.65982 0
M  V30 1864 H 177.198 -3.47512 3.48563 0
M  V30 1865 N 178.85 -1.27639 -0.924453 0
M  V30 1866 C 180.261 -1.12834 -1.48746 0
M  V30 1867 C 180.612 0.285505 -1.94112 0
M  V30 1868 O 179.737 1.17874 -1.81479 0
M  V30 1869 C 180.332 -2.04217 -2.70334 0
M  V30 1870 C 178.891 -1.93509 -3.22848 0
M  V30 1871 C 178.038 -1.96583 -1.95577 0
M  V30 1872 H 180.989 -1.40484 -0.738233 0
M  V30 1873 H 181.01 -1.59989 -3.4523 0
M  V30 1874 H 180.522 -3.07111 -2.37285 0
M  V30 1875 H 178.623 -0.936131 -3.60649 0
M  V30 1876 H 178.736 -2.79917 -3.88823 0
M  V30 1877 H 177.1 -1.4085 -2.12211 0
M  V30 1878 H 177.883 -3.01137 -1.64837 0
M  V30 1879 N 180.328 1.1314 -1.09713 0
M  V30 1880 C 181.558 1.88048 -0.855656 0
M  V30 1881 C 181.966 1.79537 0.596919 0
M  V30 1882 O 181.309 1.16196 1.42282 0
M  V30 1883 C 181.371 3.38314 -1.21589 0
M  V30 1884 C 181.035 3.70605 -2.67397 0
M  V30 1885 C 182.032 3.69596 -3.65643 0
M  V30 1886 C 179.717 4.0017 -3.03593 0
M  V30 1887 C 181.711 3.977 -4.9811 0
M  V30 1888 C 179.398 4.27935 -4.36251 0
M  V30 1889 C 180.396 4.26685 -5.33318 0
M  V30 1890 O 180.084 4.53767 -6.63589 0
M  V30 1891 H 179.816 0.60208 -0.307368 0
M  V30 1892 H 182.37 1.44128 -1.46343 0
M  V30 1893 H 180.6 3.82752 -0.551177 0
M  V30 1894 H 182.289 3.94552 -0.953083 0
M  V30 1895 H 183.055 3.46826 -3.39023 0
M  V30 1896 H 178.934 4.00289 -2.2867 0
M  V30 1897 H 182.478 3.9664 -5.73866 0
M  V30 1898 H 178.375 4.50178 -4.62613 0
M  V30 1899 H 179.143 4.71422 -6.69107 0
M  V30 1900 N 181.806 0.884767 1.30421 0
M  V30 1901 C 182.753 0.349642 2.28136 0
M  V30 1902 C 183.723 -0.560061 1.56373 0
M  V30 1903 O 184.908 -0.488524 1.8444 0
M  V30 1904 C 182.048 -0.42999 3.42411 0
M  V30 1905 C 181.161 0.508907 4.28992 0
M  V30 1906 C 180.296 -0.286301 5.30428 0
M  V30 1907 C 179.335 0.648079 6.08659 0
M  V30 1908 N 178.472 -0.111792 7.02011 0
M  V30 1909 H 183.312 1.18807 2.73293 0
M  V30 1910 H 180.849 0.597231 1.3443 0
M  V30 1911 H 182.807 -0.897923 4.07423 0
M  V30 1912 H 181.437 -1.23299 2.98324 0
M  V30 1913 H 180.489 1.09533 3.64289 0
M  V30 1914 H 181.801 1.22475 4.8353 0
M  V30 1915 H 180.955 -0.816098 6.01186 0
M  V30 1916 H 179.694 -1.03536 4.76583 0
M  V30 1917 H 178.699 1.18951 5.36778 0
M  V30 1918 H 179.924 1.39623 6.64592 0
M  V30 1919 H 177.87 -0.843395 6.50556 0
M  V30 1920 H 177.787 0.544429 7.54037 0
M  V30 1921 H 179.055 -0.622339 7.77012 0
M  V30 1922 N 183.284 -1.43765 0.645699 0
M  V30 1923 C 184.533 -2.01116 0.153412 0
M  V30 1924 C 184.846 -1.51493 -1.23731 0
M  V30 1925 O 186.052 -2.01067 -1.8244 0
M  V30 1926 C 184.508 -3.59206 0.223473 0
M  V30 1927 C 184.116 -4.17823 1.61642 0
M  V30 1928 C 185.86 -4.23972 -0.211597 0
M  V30 1929 C 183.767 -5.68183 1.64081 0
M  V30 1930 H 182.697 -0.752093 0.0535891 0
M  V30 1931 H 185.348 -1.6482 0.806633 0
M  V30 1932 H 183.73 -3.92867 -0.497118 0
M  V30 1933 H 184.904 -3.95674 2.36176 0
M  V30 1934 H 183.219 -3.65399 1.99681 0
M  V30 1935 H 185.816 -5.34275 -0.213112 0
M  V30 1936 H 186.159 -3.97352 -1.24165 0
M  V30 1937 H 186.692 -3.95166 0.456988 0
M  V30 1938 H 183.431 -5.99559 2.64971 0
M  V30 1939 H 182.951 -5.9241 0.938611 0
M  V30 1940 H 184.63 -6.32085 1.3812 0
M  V30 1941 N 184.763 -0.387143 -1.52771 0
M  V30 1942 C 185.696 0.493123 -2.22808 0
M  V30 1943 C 186.674 1.0658 -1.22798 0
M  V30 1944 O 187.858 1.11785 -1.51777 0
M  V30 1945 C 184.985 1.68238 -2.93962 0
M  V30 1946 C 184.031 1.23515 -4.08223 0
M  V30 1947 S 184.864 0.21848 -5.35054 0
M  V30 1948 C 186.02 1.41357 -6.09729 0
M  V30 1949 H 186.253 -0.101625 -2.97126 0
M  V30 1950 H 183.786 -0.171323 -1.53447 0
M  V30 1951 H 185.744 2.36443 -3.35567 0
M  V30 1952 H 184.405 2.24842 -2.19328 0
M  V30 1953 H 183.598 2.12304 -4.57103 0
M  V30 1954 H 183.2 0.632044 -3.68621 0
M  V30 1955 H 185.492 2.34101 -6.3577 0
M  V30 1956 H 186.435 0.965736 -7.01484 0
M  V30 1957 H 186.843 1.6294 -5.40473 0
M  V30 1958 N 186.241 1.57166 -0.116904 0
M  V30 1959 C 187.171 2.18222 0.830759 0
M  V30 1960 C 188.152 1.12167 1.27877 0
M  V30 1961 O 189.337 1.40394 1.34176 0
M  V30 1962 C 186.467 2.77996 2.08172 0
M  V30 1963 C 185.421 3.89614 1.77157 0
M  V30 1964 C 184.747 4.36187 3.09265 0
M  V30 1965 C 186.047 5.1181 1.04151 0
M  V30 1966 H 187.741 2.97664 0.321992 0
M  V30 1967 H 185.287 1.4318 0.153434 0
M  V30 1968 H 187.24 3.19366 2.74924 0
M  V30 1969 H 185.964 1.9584 2.6137 0
M  V30 1970 H 184.623 3.48816 1.12796 0
M  V30 1971 H 184.271 3.50893 3.60393 0
M  V30 1972 H 183.971 5.11455 2.89288 0
M  V30 1973 H 185.495 4.80207 3.77139 0
M  V30 1974 H 186.909 5.50214 1.61052 0
M  V30 1975 H 185.306 5.92648 0.942762 0
M  V30 1976 H 186.376 4.84892 0.0279022 0
M  V30 1977 N 187.719 -0.156864 1.56817 0
M  V30 1978 C 188.944 -0.890331 1.87318 0
M  V30 1979 C 189.369 -1.74394 0.704855 0
M  V30 1980 O 188.727 -1.77972 -0.345786 0
M  V30 1981 C 188.775 -1.73102 3.16336 0
M  V30 1982 O 187.879 -2.83422 2.99576 0
M  V30 1983 H 187.22 -0.24857 0.615718 0
M  V30 1984 H 189.75 -0.150649 2.04045 0
M  V30 1985 H 189.76 -2.12803 3.48107 0
M  V30 1986 H 188.435 -1.10412 4.00976 0
M  V30 1987 H 187.012 -2.47199 2.7919 0
M  V30 1988 N 189.197 -1.51736 -0.425897 0
M  V30 1989 C 190.474 -1.55519 -1.1863 0
M  V30 1990 C 190.854 -0.326219 -2.08564 0
M  V30 1991 O 190.202 0.688012 -2.17896 0
M  V30 1992 C 190.412 -2.87521 -1.9782 0
M  V30 1993 C 191.76 -3.39899 -2.54468 0
M  V30 1994 O 192.784 -2.89148 -2.08019 0
M  V30 1995 O 191.643 -4.2848 -3.39215 0
M  V30 1996 H 188.737 -0.625739 -0.540721 0
M  V30 1997 H 191.283 -1.64055 -0.434038 0
M  V30 1998 H 190.055 -3.68422 -1.31836 0
M  V30 1999 H 189.678 -2.822 -2.80088 0
M  V30 2000 N 190.675 0.682077 -1.42076 0
M  V30 2001 C 192.091 0.994324 -1.24841 0
M  V30 2002 C 192.291 2.0096 -0.147389 0
M  V30 2003 O 191.347 2.47822 0.483782 0
M  V30 2004 C 192.66 1.50607 -2.60265 0
M  V30 2005 C 194.208 1.62421 -2.6756 0
M  V30 2006 C 194.683 2.16994 -4.03333 0
M  V30 2007 N 196.174 2.24337 -4.0525 0
M  V30 2008 C 196.909 2.67621 -5.07116 0
M  V30 2009 N 196.405 3.1041 -6.19368 0
M  V30 2010 N 198.198 2.67305 -4.94474 0
M  V30 2011 H 190.349 0.00973908 -2.12398 0
M  V30 2012 H 192.612 0.0668593 -0.945639 0
M  V30 2013 H 192.318 0.834583 -3.41654 0
M  V30 2014 H 192.192 2.48602 -2.83684 0
M  V30 2015 H 194.579 2.28678 -1.86521 0
M  V30 2016 H 194.66 0.629352 -2.47937 0
M  V30 2017 H 194.304 1.51349 -4.84826 0
M  V30 2018 H 194.234 3.17258 -4.20304 0
M  V30 2019 H 196.725 1.94158 -3.24209 0
M  V30 2020 H 197.038 3.42103 -6.92954 0
M  V30 2021 H 195.383 3.08286 -6.22884 0
M  V30 2022 H 198.574 2.33233 -4.05857 0
M  V30 2023 H 198.747 3.00718 -5.73997 0
M  V30 2024 N 192.153 1.28127 0.917671 0
M  V30 2025 C 193.103 1.08361 2.00604 0
M  V30 2026 C 194.087 0.00847518 1.60898 0
M  V30 2027 O 195.279 0.228167 1.75523 0
M  V30 2028 C 192.408 0.743376 3.35155 0
M  V30 2029 C 191.494 1.85716 3.81275 0
M  V30 2030 N 191.885 3.09822 3.99805 0
M  V30 2031 C 190.183 1.74612 4.10398 0
M  V30 2032 C 190.884 3.82368 4.38372 0
M  V30 2033 N 189.86 3.10192 4.4641 0
M  V30 2034 H 193.662 2.02531 2.12975 0
M  V30 2035 H 191.176 1.18989 1.10523 0
M  V30 2036 H 193.173 0.582859 4.12805 0
M  V30 2037 H 191.833 -0.190595 3.2414 0
M  V30 2038 H 192.844 3.45475 3.85833 0
M  V30 2039 H 189.521 0.883657 4.08041 0
M  V30 2040 H 190.911 4.89082 4.60704 0
M  V30 2041 N 193.631 -1.12557 1.10312 0
M  V30 2042 C 195.042 -1.65574 0.862678 0
M  V30 2043 C 195.393 -1.86566 -0.607256 0
M  V30 2044 O 194.518 -1.59121 -1.46662 0
M  V30 2045 C 195.113 -3.00776 1.55947 0
M  V30 2046 C 193.672 -3.50748 1.36576 0
M  V30 2047 C 192.819 -2.25797 1.60968 0
M  V30 2048 H 195.77 -0.963552 1.26101 0
M  V30 2049 H 195.791 -3.67185 0.997753 0
M  V30 2050 H 195.303 -2.85465 2.62928 0
M  V30 2051 H 193.404 -3.71245 0.317531 0
M  V30 2052 H 193.517 -4.30289 2.10686 0
M  V30 2053 H 191.881 -2.32841 1.03234 0
M  V30 2054 H 192.664 -2.13043 2.69198 0
M  V30 2055 N 195.109 -0.891671 -1.2995 0
M  V30 2056 C 196.358 -0.509521 -1.95158 0
M  V30 2057 C 196.671 0.947388 -1.71125 0
M  V30 2058 O 197.877 1.43669 -2.30372 0
M  V30 2059 C 196.333 -0.860315 -3.49466 0
M  V30 2060 C 195.941 -2.33545 -3.8231 0
M  V30 2061 C 197.685 -0.547687 -4.20952 0
M  V30 2062 C 195.592 -2.62752 -5.29826 0
M  V30 2063 H 194.522 -0.18682 -0.730489 0
M  V30 2064 H 197.173 -1.08756 -1.47798 0
M  V30 2065 H 195.555 -0.211285 -3.95436 0
M  V30 2066 H 196.729 -3.02936 -3.47227 0
M  V30 2067 H 195.044 -2.61629 -3.23944 0
M  V30 2068 H 197.641 -0.742854 -5.29515 0
M  V30 2069 H 197.984 0.51332 -4.13123 0
M  V30 2070 H 198.517 -1.1542 -3.80688 0
M  V30 2071 H 195.256 -3.6762 -5.42712 0
M  V30 2072 H 194.776 -1.97977 -5.66185 0
M  V30 2073 H 196.455 -2.48601 -5.97333 0
M  V30 2074 N 196.587 1.43421 -0.653314 0
M  V30 2075 C 197.55 2.29182 0.0287951 0
M  V30 2076 C 198.55 1.42213 0.750465 0
M  V30 2077 O 199.74 1.63843 0.591701 0
M  V30 2078 C 196.872 3.24278 1.05151 0
M  V30 2079 H 198.065 2.90985 -0.725786 0
M  V30 2080 H 195.618 1.50702 -0.414545 0
M  V30 2081 H 196.353 2.6737 1.83532 0
M  V30 2082 H 196.138 3.88396 0.537687 0
M  V30 2083 H 197.628 3.88647 1.52786 0
M  V30 2084 N 198.065 0.39524 1.52563 0
M  V30 2085 C 199.29 -0.187456 2.06551 0
M  V30 2086 C 199.715 -1.39249 1.26457 0
M  V30 2087 O 199.073 -1.78947 0.291151 0
M  V30 2088 C 199.121 -0.529985 3.56684 0
M  V30 2089 O 198.225 -1.62307 3.79118 0
M  V30 2090 H 197.566 -0.0202537 0.663691 0
M  V30 2091 H 200.096 0.564426 1.96661 0
M  V30 2092 H 200.106 -0.792598 4.00227 0
M  V30 2093 H 198.781 0.350987 4.14416 0
M  V30 2094 H 197.358 -1.3537 3.47461 0
M  V30 2095 N 199.544 -1.57102 0.125237 0
M  V30 2096 C 200.772 -1.99761 -0.538797 0
M  V30 2097 C 201.187 -1.00503 -1.59827 0
M  V30 2098 O 200.544 0.00119474 -1.825 0
M  V30 2099 C 200.595 -3.42408 -1.15927 0
M  V30 2100 O 200.316 -4.37869 -0.142143 0
M  V30 2101 C 201.817 -4.00232 -1.90602 0
M  V30 2102 H 199.037 -0.655772 -0.14214 0
M  V30 2103 H 201.581 -2.03383 0.213413 0
M  V30 2104 H 199.736 -3.39706 -1.86223 0
M  V30 2105 H 200.15 -5.21128 -0.593775 0
M  V30 2106 H 201.624 -5.02105 -2.29335 0
M  V30 2107 H 202.101 -3.39721 -2.78363 0
M  V30 2108 H 202.707 -4.06499 -1.25055 0
M  V30 2109 N 201.022 0.148545 -1.56898 0
M  V30 2110 C 202.271 0.85984 -1.82454 0
M  V30 2111 C 202.584 1.82406 -0.706229 0
M  V30 2112 O 203.79 2.57938 -0.847349 0
M  V30 2113 C 202.246 1.57967 -3.2338 0
M  V30 2114 C 201.854 0.65794 -4.43142 0
M  V30 2115 C 203.598 2.27784 -3.58211 0
M  V30 2116 C 201.505 1.3793 -5.75091 0
M  V30 2117 H 200.435 0.324834 -0.68044 0
M  V30 2118 H 203.086 0.112588 -1.83154 0
M  V30 2119 H 201.468 2.37249 -3.17063 0
M  V30 2120 H 202.642 -0.0995497 -4.60692 0
M  V30 2121 H 200.957 0.0682643 -4.16344 0
M  V30 2122 H 203.554 2.8239 -4.54048 0
M  V30 2123 H 203.897 3.04204 -2.84193 0
M  V30 2124 H 204.43 1.55421 -3.66182 0
M  V30 2125 H 201.169 0.656982 -6.52199 0
M  V30 2126 H 200.689 2.10954 -5.61479 0
M  V30 2127 H 202.368 1.92063 -6.17835 0
M  V30 2128 N 202.5 1.5196 0.417844 0
M  V30 2129 C 203.74 1.67262 1.17486 0
M  V30 2130 C 204.104 0.38983 1.88001 0
M  V30 2131 O 205.305 0.418845 2.65517 0
M  V30 2132 C 203.576 2.85526 2.14965 0
M  V30 2133 S 205.135 3.21263 2.98891 0
M  V30 2134 H 201.953 0.589077 0.398132 0
M  V30 2135 H 204.555 1.89927 0.463452 0
M  V30 2136 H 203.259 3.77145 1.61833 0
M  V30 2137 H 202.79 2.65107 2.90657 0
M  V30 2138 H 204.805 2.69208 4.16823 0
M  V30 2139 N 203.978 -0.674533 1.42435 0
M  V30 2140 C 205.225 -1.43459 1.42919 0
M  V30 2141 C 205.553 -1.94446 0.0457312 0
M  V30 2142 O 204.808 -1.7132 -0.94593 0
M  V30 2143 C 205.107 -2.64767 2.40069 0
M  V30 2144 C 204.773 -2.3232 3.86443 0
M  V30 2145 C 203.435 -2.23182 4.26314 0
M  V30 2146 C 205.787 -2.05977 4.78773 0
M  V30 2147 C 203.115 -1.85827 5.56494 0
M  V30 2148 C 205.467 -1.70125 6.09295 0
M  V30 2149 C 204.131 -1.59498 6.48164 0
M  V30 2150 H 203.401 -0.524952 0.522978 0
M  V30 2151 H 206.048 -0.769097 1.75377 0
M  V30 2152 H 204.353 -3.36349 2.00939 0
M  V30 2153 H 206.05 -3.22949 2.37707 0
M  V30 2154 H 202.64 -2.40334 3.54877 0
M  V30 2155 H 206.824 -2.11969 4.48757 0
M  V30 2156 H 202.08 -1.76168 5.8547 0
M  V30 2157 H 206.254 -1.48767 6.80324 0
M  V30 2158 H 203.881 -1.30322 7.48946 0
M  V30 2159 N 205.456 -1.28612 -0.910864 0
M  V30 2160 C 206.867 -1.14406 -1.47541 0
M  V30 2161 C 207.218 0.264901 -1.94403 0
M  V30 2162 O 206.343 1.15942 -1.82719 0
M  V30 2163 C 206.938 -2.07073 -2.68153 0
M  V30 2164 C 205.497 -1.96923 -3.20778 0
M  V30 2165 C 204.644 -1.98646 -1.93481 0
M  V30 2166 H 207.595 -1.41259 -0.723291 0
M  V30 2167 H 207.616 -1.63642 -3.43514 0
M  V30 2168 H 207.128 -3.09611 -2.34015 0
M  V30 2169 H 205.229 -0.97433 -3.59635 0
M  V30 2170 H 205.342 -2.84026 -3.85832 0
M  V30 2171 H 203.706 -1.43093 -2.10705 0
M  V30 2172 H 204.489 -3.02868 -1.61634 0
M  V30 2173 N 206.934 1.1197 -1.10907 0
M  V30 2174 C 207.864 2.19928 -0.784473 0
M  V30 2175 C 208.845 1.6833 0.244726 0
M  V30 2176 O 210.03 1.93892 0.109418 0
M  V30 2177 C 207.16 3.46597 -0.220827 0
M  V30 2178 C 206.114 4.11376 -1.18127 0
M  V30 2179 C 205.44 5.32554 -0.478594 0
M  V30 2180 C 206.74 4.56945 -2.52979 0
M  V30 2181 H 208.434 2.47337 -1.68715 0
M  V30 2182 H 205.98 1.18879 -0.812642 0
M  V30 2183 H 207.933 4.21396 0.0184278 0
M  V30 2184 H 206.657 3.1863 0.717113 0
M  V30 2185 H 205.316 3.38564 -1.40606 0
M  V30 2186 H 204.964 5.00856 0.463976 0
M  V30 2187 H 204.664 5.76844 -1.11912 0
M  V30 2188 H 206.188 6.10096 -0.248 0
M  V30 2189 H 207.602 5.23093 -2.3462 0
M  V30 2190 H 205.999 5.1203 -3.12962 0
M  V30 2191 H 207.069 3.70676 -3.12614 0
M  V30 2192 N 208.412 0.89855 1.29475 0
M  V30 2193 C 209.637 0.538561 2.00285 0
M  V30 2194 C 210.062 -0.869135 1.66816 0
M  V30 2195 O 209.42 -1.57831 0.892145 0
M  V30 2196 C 209.468 0.736475 3.52999 0
M  V30 2197 O 208.572 -0.211537 4.11857 0
M  V30 2198 H 207.913 0.210563 0.62973 0
M  V30 2199 H 210.443 1.20982 1.64998 0
M  V30 2200 H 210.453 0.640685 4.02938 0
M  V30 2201 H 209.128 1.76276 3.76696 0
M  V30 2202 H 207.705 -0.0682991 3.72837 0
M  V30 2203 N 209.89 -1.43072 0.660911 0
M  V30 2204 C 211.306 -1.56169 0.329173 0
M  V30 2205 C 211.506 -1.64317 -1.16629 0
M  V30 2206 O 210.562 -1.60245 -1.95135 0
M  V30 2207 C 211.875 -2.81873 1.04729 0
M  V30 2208 C 213.423 -2.95627 1.02828 0
M  V30 2209 C 213.898 -4.24174 1.72744 0
M  V30 2210 N 215.389 -4.31055 1.69545 0
M  V30 2211 C 216.124 -5.29304 2.20511 0
M  V30 2212 N 215.62 -6.33786 2.79799 0
M  V30 2213 N 217.413 -5.21008 2.10966 0
M  V30 2214 H 209.564 -1.36027 1.63127 0
M  V30 2215 H 211.827 -0.653823 0.686454 0
M  V30 2216 H 211.533 -2.81942 2.10242 0
M  V30 2217 H 211.407 -3.72338 0.603702 0
M  V30 2218 H 213.794 -2.95094 -0.0184742 0
M  V30 2219 H 213.875 -2.06431 1.51063 0
M  V30 2220 H 213.519 -4.25467 2.7738 0
M  V30 2221 H 213.449 -5.1228 1.2197 0
M  V30 2222 H 215.94 -3.56174 1.26288 0
M  V30 2223 H 216.253 -7.05086 3.16344 0
M  V30 2224 H 214.598 -6.34387 2.83863 0
M  V30 2225 H 217.789 -4.38301 1.64347 0
M  V30 2226 H 217.962 -5.97416 2.50993 0
M  V30 2227 N 211.368 -0.403325 -1.52352 0
M  V30 2228 C 212.598 0.17376 -2.05868 0
M  V30 2229 C 213.006 1.39898 -1.27378 0
M  V30 2230 O 212.349 1.80939 -0.31729 0
M  V30 2231 C 212.411 0.594756 -3.54546 0
M  V30 2232 C 212.075 -0.518926 -4.54044 0
M  V30 2233 C 213.072 -1.3807 -5.01231 0
M  V30 2234 C 210.757 -0.689961 -4.97539 0
M  V30 2235 C 212.751 -2.39852 -5.90551 0
M  V30 2236 C 210.438 -1.71109 -5.86656 0
M  V30 2237 C 211.436 -2.56378 -6.33056 0
M  V30 2238 O 211.124 -3.56743 -7.20409 0
M  V30 2239 H 210.856 0.0264951 -0.675481 0
M  V30 2240 H 213.41 -0.571179 -1.97299 0
M  V30 2241 H 211.64 1.39189 -3.60782 0
M  V30 2242 H 213.329 1.0991 -3.90736 0
M  V30 2243 H 214.095 -1.25994 -4.68349 0
M  V30 2244 H 209.974 -0.035939 -4.60986 0
M  V30 2245 H 213.518 -3.06441 -6.26689 0
M  V30 2246 H 209.415 -1.83218 -6.18952 0
M  V30 2247 H 210.183 -3.52918 -7.38506 0
M  V30 2248 N 212.846 1.57033 -0.133567 0
M  V30 2249 C 213.776 2.1909 0.807567 0
M  V30 2250 C 214.757 1.13517 1.26681 0
M  V30 2251 O 215.942 1.41809 1.32679 0
M  V30 2252 C 213.072 2.80188 2.05212 0
M  V30 2253 C 212.026 3.91471 1.73015 0
M  V30 2254 C 211.352 4.39443 3.04622 0
M  V30 2255 C 212.652 5.12886 0.987168 0
M  V30 2256 H 214.346 2.97988 0.290403 0
M  V30 2257 H 211.892 1.43335 0.138239 0
M  V30 2258 H 213.845 3.22264 2.71521 0
M  V30 2259 H 212.569 1.98601 2.59278 0
M  V30 2260 H 211.228 3.49993 1.0909 0
M  V30 2261 H 210.876 3.54695 3.56651 0
M  V30 2262 H 210.576 5.14495 2.83847 0
M  V30 2263 H 212.1 4.8418 3.72024 0
M  V30 2264 H 213.514 5.51891 1.55208 0
M  V30 2265 H 211.911 5.93615 0.87985 0
M  V30 2266 H 212.981 4.84894 -0.0235286 0
M  V30 2267 N 214.325 -0.140222 1.56975 0
M  V30 2268 C 215.571 -0.852949 1.83991 0
M  V30 2269 C 215.904 -1.80512 0.716187 0
M  V30 2270 O 215.179 -1.92479 -0.279681 0
M  V30 2271 C 215.462 -1.6215 3.21527 0
M  V30 2272 C 215.315 -0.690363 4.4447 0
M  V30 2273 C 216.634 -2.58247 3.56366 0
M  V30 2274 H 213.753 -0.308634 0.669264 0
M  V30 2275 H 216.395 -0.117898 1.89634 0
M  V30 2276 H 214.545 -2.24812 3.16847 0
M  V30 2277 H 216.217 -0.0742264 4.6124 0
M  V30 2278 H 214.46 -0.000396433 4.338 0
M  V30 2279 H 215.131 -1.2643 5.37326 0
M  V30 2280 H 217.607 -2.05701 3.61699 0
M  V30 2281 H 216.483 -3.09067 4.53617 0
M  V30 2282 H 216.744 -3.39923 2.82674 0
M  V30 2283 N 215.803 -1.52179 -0.40978 0
M  V30 2284 C 217.051 -1.65878 -1.15451 0
M  V30 2285 C 217.372 -0.390771 -1.91044 0
M  V30 2286 O 216.642 0.594323 -1.86667 0
M  V30 2287 H 215.222 -0.611405 -0.429177 0
M  V30 2288 H 217.884 -1.89219 -0.467134 0
M  V30 2289 H 216.98 -2.49954 -1.86894 0
M  V30 2290 N 217.281 0.66697 -1.42791 0
M  V30 2291 C 218.558 1.4234 -1.34159 0
M  V30 2292 C 218.938 2.11093 0.0172729 0
M  V30 2293 O 218.286 2.03808 1.03318 0
M  V30 2294 C 218.496 2.41942 -2.51526 0
M  V30 2295 C 219.844 3.06353 -2.93995 0
M  V30 2296 O 220.868 2.52269 -2.51473 0
M  V30 2297 O 219.727 4.04376 -3.67617 0
M  V30 2298 H 216.821 0.635277 -0.529483 0
M  V30 2299 H 219.367 0.695034 -1.54814 0
M  V30 2300 H 218.139 1.89991 -3.42081 0
M  V30 2301 H 217.762 3.22249 -2.32898 0
M  V30 2302 N 218.759 1.29093 0.90403 0
M  V30 2303 C 219.692 1.08176 2.00931 0
M  V30 2304 C 220.67 -0.005083 1.62599 0
M  V30 2305 O 221.854 0.144765 1.87943 0
M  V30 2306 C 218.981 0.645897 3.32484 0
M  V30 2307 C 218.027 1.73081 3.89801 0
M  V30 2308 S 218.86 3.32905 4.19446 0
M  V30 2309 C 220.016 2.91176 5.54046 0
M  V30 2310 H 220.249 2.01752 2.18365 0
M  V30 2311 H 217.782 1.13191 1.0501 0
M  V30 2312 H 219.74 0.401131 4.08535 0
M  V30 2313 H 218.401 -0.270188 3.12936 0
M  V30 2314 H 217.594 1.37768 4.84805 0
M  V30 2315 H 217.196 1.92888 3.20422 0
M  V30 2316 H 219.488 2.37952 6.34338 0
M  V30 2317 H 220.431 3.85014 5.94281 0
M  V30 2318 H 220.839 2.296 5.15698 0
M  V30 2319 N 220.237 -1.11381 1.11499 0
M  V30 2320 C 221.462 -1.87475 0.887019 0
M  V30 2321 C 221.887 -1.79639 -0.557796 0
M  V30 2322 O 221.245 -1.15924 -1.39396 0
M  V30 2323 C 221.293 -3.34213 1.35403 0
M  V30 2324 O 220.397 -4.0903 0.526146 0
M  V30 2325 H 219.738 -0.582099 0.319463 0
M  V30 2326 H 222.268 -1.40785 1.48461 0
M  V30 2327 H 222.278 -3.8506 1.34881 0
M  V30 2328 H 220.953 -3.39232 2.40612 0
M  V30 2329 H 219.53 -3.68082 0.597522 0
M  V30 2330 N 221.715 -0.905404 -1.28997 0
M  V30 2331 C 223.126 -0.581953 -1.77398 0
M  V30 2332 C 223.477 0.902552 -1.74208 0
M  V30 2333 O 222.602 1.70584 -1.33154 0
M  V30 2334 C 223.197 -1.04961 -3.22131 0
M  V30 2335 C 221.756 -0.777229 -3.68288 0
M  V30 2336 C 220.903 -1.22109 -2.48967 0
M  V30 2337 H 223.854 -1.08754 -1.15578 0
M  V30 2338 H 223.875 -0.387387 -3.78523 0
M  V30 2339 H 223.387 -2.13008 -3.24421 0
M  V30 2340 H 221.488 0.290383 -3.71467 0
M  V30 2341 H 221.601 -1.37911 -4.58822 0
M  V30 2342 H 219.965 -0.639971 -2.46529 0
M  V30 2343 H 220.748 -2.30972 -2.53982 0
M  V30 2344 N 223.193 1.4272 -0.668489 0
M  V30 2345 C 224.156 2.292 0.00448567 0
M  V30 2346 C 225.156 1.43001 0.735339 0
M  V30 2347 O 226.346 1.64461 0.57429 0
M  V30 2348 C 223.478 3.25375 1.01705 0
M  V30 2349 H 224.671 2.90199 -0.756608 0
M  V30 2350 H 222.224 1.50254 -0.430506 0
M  V30 2351 H 222.959 2.69301 1.80686 0
M  V30 2352 H 222.744 3.88944 0.496463 0
M  V30 2353 H 224.234 3.90245 1.48655 0
M  V30 2354 N 224.671 0.411399 1.52136 0
M  V30 2355 C 225.634 -0.401089 2.25663 0
M  V30 2356 C 226.634 -0.971732 1.28117 0
M  V30 2357 O 227.824 -0.850254 1.52041 0
M  V30 2358 C 224.956 -1.56483 3.02863 0
M  V30 2359 H 226.149 0.24295 2.98914 0
M  V30 2360 H 223.702 0.163968 1.55438 0
M  V30 2361 H 224.437 -2.24567 2.33967 0
M  V30 2362 H 224.222 -1.16211 3.74483 0
M  V30 2363 H 225.712 -2.13951 3.58629 0
M  V30 2364 N 226.149 -1.5696 0.141893 0
M  V30 2365 C 227.079 -2.19516 -0.795936 0
M  V30 2366 C 228.06 -1.14187 -1.26077 0
M  V30 2367 O 229.245 -1.42511 -1.31925 0
M  V30 2368 C 226.375 -2.81272 -2.03723 0
M  V30 2369 C 225.329 -3.92384 -1.70936 0
M  V30 2370 C 224.655 -4.41052 -3.02287 0
M  V30 2371 C 225.955 -5.13403 -0.959954 0
M  V30 2372 H 227.649 -2.98138 -0.274596 0
M  V30 2373 H 225.195 -1.43406 -0.130636 0
M  V30 2374 H 227.148 -3.237 -2.69808 0
M  V30 2375 H 225.872 -1.99973 -2.58221 0
M  V30 2376 H 224.531 -3.50566 -1.07232 0
M  V30 2377 H 224.179 -3.56582 -3.54765 0
M  V30 2378 H 223.879 -5.15993 -2.81114 0
M  V30 2379 H 225.403 -4.86146 -3.69451 0
M  V30 2380 H 226.817 -5.52706 -1.52279 0
M  V30 2381 H 225.214 -5.94073 -0.848357 0
M  V30 2382 H 226.284 -4.84875 0.0492434 0
M  V30 2383 N 227.627 0.131896 -1.57047 0
M  V30 2384 C 229.038 0.690407 -1.73465 0
M  V30 2385 C 229.389 1.8094 -0.758629 0
M  V30 2386 O 228.514 2.16282 0.0713813 0
M  V30 2387 C 229.109 1.25916 -3.14532 0
M  V30 2388 C 227.668 1.76409 -3.32501 0
M  V30 2389 C 226.815 0.658579 -2.69366 0
M  V30 2390 H 229.766 -0.0939144 -1.58422 0
M  V30 2391 H 229.787 2.12892 -3.15369 0
M  V30 2392 H 229.299 0.444515 -3.85546 0
M  V30 2393 H 227.4 2.60391 -2.66509 0
M  V30 2394 H 227.513 1.88241 -4.4057 0
M  V30 2395 H 225.877 1.08899 -2.30246 0
M  V30 2396 H 226.66 -0.14487 -3.42994 0
M  V30 2397 N 229.106 1.52395 0.401703 0
M  V30 2398 C 230.354 1.66488 1.14569 0
M  V30 2399 C 230.675 0.400897 1.90835 0
M  V30 2400 O 229.945 -0.584415 1.8698 0
M  V30 2401 H 228.525 0.613672 0.425929 0
M  V30 2402 H 231.187 1.89464 0.457093 0
M  V30 2403 H 230.283 2.50942 1.85566 0
M  V30 2404 N 230.584 -0.659388 1.43143 0
M  V30 2405 C 231.514 -1.78422 1.50625 0
M  V30 2406 C 232.495 -1.66216 0.361443 0
M  V30 2407 O 233.68 -1.85404 0.577834 0
M  V30 2408 C 230.81 -3.16815 1.42287 0
M  V30 2409 C 229.764 -3.43777 2.54954 0
M  V30 2410 C 229.09 -4.81905 2.31671 0
M  V30 2411 C 230.39 -3.39134 3.97222 0
M  V30 2412 H 232.084 -1.72417 2.44771 0
M  V30 2413 H 229.63 -0.828084 1.17808 0
M  V30 2414 H 231.583 -3.95253 1.46127 0
M  V30 2415 H 230.307 -3.23534 0.446435 0
M  V30 2416 H 228.966 -2.67707 2.50457 0
M  V30 2417 H 228.614 -4.85294 1.32284 0
M  V30 2418 H 228.314 -5.00906 3.07192 0
M  V30 2419 H 229.838 -5.62609 2.37284 0
M  V30 2420 H 231.252 -4.07518 4.03239 0
M  V30 2421 H 229.649 -3.69671 4.72719 0
M  V30 2422 H 230.719 -2.37426 4.22797 0
M  V30 2423 N 232.062 -1.29571 -0.897171 0
M  V30 2424 C 232.992 -1.17473 -2.01798 0
M  V30 2425 C 233.973 -0.068323 -1.69963 0
M  V30 2426 O 235.158 -0.248239 -1.92607 0
M  V30 2427 C 232.288 -0.853099 -3.36659 0
M  V30 2428 C 231.242 -1.9161 -3.82713 0
M  V30 2429 C 230.568 -1.44773 -5.14728 0
M  V30 2430 C 231.868 -3.32535 -4.02763 0
M  V30 2431 H 233.562 -2.11237 -2.12177 0
M  V30 2432 H 231.108 -1.01699 -1.01948 0
M  V30 2433 H 233.061 -0.755165 -4.14578 0
M  V30 2434 H 231.785 0.120236 -3.26379 0
M  V30 2435 H 230.444 -2.00346 -3.07013 0
M  V30 2436 H 230.092 -0.462995 -5.00865 0
M  V30 2437 H 229.792 -2.15865 -5.46513 0
M  V30 2438 H 231.316 -1.36334 -5.95185 0
M  V30 2439 H 232.73 -3.26626 -4.71156 0
M  V30 2440 H 231.127 -4.01607 -4.45905 0
M  V30 2441 H 232.197 -3.75326 -3.07016 0
M  V30 2442 N 233.54 1.10788 -1.12088 0
M  V30 2443 C 234.787 1.82671 -0.873931 0
M  V30 2444 C 235.115 1.85004 0.600311 0
M  V30 2445 O 234.37 1.30365 1.45957 0
M  V30 2446 C 234.669 3.29294 -1.38926 0
M  V30 2447 C 234.335 3.47113 -2.87791 0
M  V30 2448 C 232.997 3.51684 -3.28439 0
M  V30 2449 C 235.349 3.52808 -3.83635 0
M  V30 2450 C 232.677 3.59513 -4.63646 0
M  V30 2451 C 235.029 3.62169 -5.18668 0
M  V30 2452 C 233.693 3.65003 -5.58864 0
M  V30 2453 H 232.963 0.668441 -0.319794 0
M  V30 2454 H 235.61 1.30613 -1.40045 0
M  V30 2455 H 233.915 3.83894 -0.783122 0
M  V30 2456 H 235.612 3.83416 -1.17443 0
M  V30 2457 H 232.202 3.4423 -2.5535 0
M  V30 2458 H 236.386 3.4853 -3.53328 0
M  V30 2459 H 231.642 3.59987 -4.94185 0
M  V30 2460 H 235.816 3.6552 -5.92763 0
M  V30 2461 H 233.443 3.70822 -6.63623 0
M  V30 2462 N 235.018 0.912232 1.28515 0
M  V30 2463 C 236.246 0.560416 1.99166 0
M  V30 2464 C 236.661 -0.857927 1.68182 0
M  V30 2465 O 236.018 -1.56805 0.933733 0
M  V30 2466 C 236.069 0.758142 3.53461 0
M  V30 2467 O 235.79 2.12067 3.83352 0
M  V30 2468 C 237.291 0.412954 4.41372 0
M  V30 2469 H 234.511 0.213805 0.636026 0
M  V30 2470 H 237.055 1.22502 1.63749 0
M  V30 2471 H 235.21 0.140556 3.87145 0
M  V30 2472 H 235.624 2.15923 4.77993 0
M  V30 2473 H 237.098 0.60208 5.48707 0
M  V30 2474 H 237.575 -0.65073 4.34353 0
M  V30 2475 H 238.181 1.00802 4.13182 0
M  V30 2476 N 236.496 -1.42363 0.676048 0
M  V30 2477 C 237.426 -2.33497 0.0124832 0
M  V30 2478 C 238.407 -1.50748 -0.787981 0
M  V30 2479 O 239.592 -1.79346 -0.744884 0
M  V30 2480 C 236.722 -3.34377 -0.938582 0
M  V30 2481 C 235.676 -4.27289 -0.246622 0
M  V30 2482 C 235.002 -5.18386 -1.31071 0
M  V30 2483 C 236.302 -5.14916 0.875125 0
M  V30 2484 H 237.996 -2.89233 0.773593 0
M  V30 2485 H 235.542 -1.39073 0.37346 0
M  V30 2486 H 237.495 -3.97044 -1.41188 0
M  V30 2487 H 236.219 -2.76947 -1.73113 0
M  V30 2488 H 234.878 -3.66018 0.206456 0
M  V30 2489 H 234.526 -4.57282 -2.09528 0
M  V30 2490 H 234.226 -5.81378 -0.852839 0
M  V30 2491 H 235.75 -5.83929 -1.78492 0
M  V30 2492 H 237.164 -5.71262 0.482983 0
M  V30 2493 H 235.561 -5.86747 1.25887 0
M  V30 2494 H 236.631 -4.53242 1.72335 0
M  V30 2495 N 237.974 -0.419461 -1.51915 0
M  V30 2496 C 239.385 0.0477853 -1.86639 0
M  V30 2497 C 239.736 1.43531 -1.33766 0
M  V30 2498 O 238.861 2.05401 -0.68113 0
M  V30 2499 C 239.456 0.0934885 -3.38671 0
M  V30 2500 C 238.015 0.505097 -3.72996 0
M  V30 2501 C 237.162 -0.313792 -2.75519 0
M  V30 2502 H 240.113 -0.636088 -1.45395 0
M  V30 2503 H 240.134 0.906667 -3.6954 0
M  V30 2504 H 239.646 -0.916501 -3.77123 0
M  V30 2505 H 237.747 1.52135 -3.40126 0
M  V30 2506 H 237.86 0.242309 -4.78487 0
M  V30 2507 H 236.224 0.225363 -2.53701 0
M  V30 2508 H 237.007 -1.32232 -3.16812 0
M  V30 2509 N 239.452 1.56882 -0.150215 0
M  V30 2510 C 240.415 2.1573 0.774157 0
M  V30 2511 C 241.415 1.0999 1.17298 0
M  V30 2512 O 242.605 1.35613 1.09338 0
M  V30 2513 C 239.737 2.72302 2.05096 0
M  V30 2514 H 240.93 2.98752 0.262201 0
M  V30 2515 H 238.483 1.55985 0.099248 0
M  V30 2516 H 239.218 1.92956 2.6065 0
M  V30 2517 H 239.003 3.49665 1.77416 0
M  V30 2518 H 240.493 3.17632 2.71109 0
M  V30 2519 N 240.93 -0.123565 1.57115 0
M  V30 2520 C 241.84 -1.17074 2.033 0
M  V30 2521 C 242.856 -1.4561 0.952559 0
M  V30 2522 O 244.032 -1.56817 1.26374 0
M  V30 2523 C 241.097 -2.47857 2.42421 0
M  V30 2524 C 240.158 -2.26758 3.64526 0
M  V30 2525 C 239.391 -3.51305 4.01771 0
M  V30 2526 O 239.614 -4.5843 3.39409 0
M  V30 2527 O 238.548 -3.42578 4.94898 0
M  V30 2528 H 242.374 -0.808555 2.92739 0
M  V30 2529 H 239.959 -0.334027 1.45618 0
M  V30 2530 H 241.841 -3.2492 2.68338 0
M  V30 2531 H 240.516 -2.83558 1.5613 0
M  V30 2532 H 239.423 -1.47569 3.43765 0
M  V30 2533 H 240.756 -1.95963 4.51508 0
M  V30 2534 N 242.408 -1.52605 -0.393616 0
M  V30 2535 C 243.819 -1.59417 -0.971761 0
M  V30 2536 C 244.17 -0.444173 -1.91106 0
M  V30 2537 O 243.295 0.433382 -2.12016 0
M  V30 2538 C 243.89 -2.88936 -1.76921 0
M  V30 2539 C 242.449 -2.98175 -2.29714 0
M  V30 2540 C 241.596 -2.54491 -1.10135 0
M  V30 2541 H 244.547 -1.57751 -0.173317 0
M  V30 2542 H 244.568 -2.75163 -2.62804 0
M  V30 2543 H 244.08 -3.72616 -1.08532 0
M  V30 2544 H 242.181 -2.19024 -3.01429 0
M  V30 2545 H 242.294 -4.02726 -2.59517 0
M  V30 2546 H 240.658 -2.08702 -1.45999 0
M  V30 2547 H 241.441 -3.4056 -0.432874 0
M  V30 2548 N 243.887 0.651787 -1.4349 0
M  V30 2549 C 245.298 1.233 -1.40193 0
M  V30 2550 C 245.649 1.9591 -0.106727 0
M  V30 2551 O 244.774 2.01316 0.793773 0
M  V30 2552 C 245.369 2.24257 -2.53957 0
M  V30 2553 C 243.928 2.77852 -2.5392 0
M  V30 2554 C 243.075 1.52517 -2.3159 0
M  V30 2555 H 246.026 0.443717 -1.52371 0
M  V30 2556 H 246.047 3.0646 -2.25528 0
M  V30 2557 H 245.559 1.71382 -3.4821 0
M  V30 2558 H 243.66 3.34786 -1.63551 0
M  V30 2559 H 243.773 3.25299 -3.51735 0
M  V30 2560 H 242.137 1.79915 -1.80285 0
M  V30 2561 H 242.92 1.01574 -3.27929 0
M  V30 2562 N 245.365 1.30045 0.890287 0
M  V30 2563 C 246.613 1.18327 1.63839 0
M  V30 2564 C 246.934 -0.263455 1.93212 0
M  V30 2565 O 246.204 -1.17856 1.56482 0
M  V30 2566 H 244.784 0.434933 0.607324 0
M  V30 2567 H 247.446 1.631 1.06698 0
M  V30 2568 H 246.542 1.74024 2.59079 0
M  V30 2569 N 246.843 -1.10192 1.12674 0
M  V30 2570 C 248.071 -1.85983 0.906527 0
M  V30 2571 C 248.486 -1.80783 -0.544333 0
M  V30 2572 O 247.843 -1.19834 -1.37645 0
M  V30 2573 C 247.894 -3.34281 1.37618 0
M  V30 2574 O 247.615 -3.39401 2.77017 0
M  V30 2575 C 249.116 -4.26938 1.19325 0
M  V30 2576 H 246.336 -0.587716 0.323775 0
M  V30 2577 H 248.88 -1.39284 1.49734 0
M  V30 2578 H 247.035 -3.78436 0.828539 0
M  V30 2579 H 247.449 -4.31838 2.97684 0
M  V30 2580 H 248.923 -5.29181 1.57071 0
M  V30 2581 H 249.4 -4.38995 0.134097 0
M  V30 2582 H 250.006 -3.8859 1.72852 0
M  V30 2583 N 248.321 -0.919034 -1.28029 0
M  V30 2584 C 249.269 -0.401753 -2.29104 0
M  V30 2585 C 250.263 0.509354 -1.61561 0
M  V30 2586 O 251.469 0.390014 -1.75724 0
M  V30 2587 H 247.844 -0.111331 -0.743713 0
M  V30 2588 H 249.815 -1.2672 -2.70156 0
M  V30 2589 C 248.564 0.338148 -3.46052 0
M  V30 2590 H 247.887 -0.353732 -3.98232 0
M  V30 2591 H 249.327 0.664653 -4.18758 0
M  V30 2592 C 247.786 1.54798 -2.99231 0
M  V30 2593 O 248.316 2.64696 -3.02157 0
M  V30 2594 N 246.522 1.3968 -2.54829 0
M  V30 2595 H 246.069 0.502698 -2.52647 0
M  V30 2596 H 246.027 2.20755 -2.23863 0
M  V30 2597 N 249.799 1.42003 -0.683588 0
M  V30 2598 C 250.729 2.33487 -0.024866 0
M  V30 2599 C 251.71 1.51163 0.779975 0
M  V30 2600 O 252.895 1.79739 0.735362 0
M  V30 2601 C 250.025 3.3487 0.920836 0
M  V30 2602 C 248.979 4.27414 0.223958 0
M  V30 2603 C 248.305 5.19074 1.2832 0
M  V30 2604 C 249.605 5.14445 -0.90242 0
M  V30 2605 H 251.299 2.88819 -0.788921 0
M  V30 2606 H 248.845 1.38873 -0.38083 0
M  V30 2607 H 250.798 3.97787 1.39081 0
M  V30 2608 H 249.522 2.77861 1.71642 0
M  V30 2609 H 248.181 3.65904 -0.225864 0
M  V30 2610 H 247.829 4.58387 2.071 0
M  V30 2611 H 247.529 5.81822 0.821995 0
M  V30 2612 H 249.053 5.84867 1.75392 0
M  V30 2613 H 250.467 5.70998 -0.513272 0
M  V30 2614 H 248.864 5.86072 -1.28997 0
M  V30 2615 H 249.934 4.52322 -1.74737 0
M  V30 2616 N 251.277 0.427512 1.51691 0
M  V30 2617 C 252.523 -0.142439 2.02299 0
M  V30 2618 C 252.856 -1.43214 1.31162 0
M  V30 2619 O 252.131 -1.89833 0.423511 0
M  V30 2620 C 252.414 -0.371301 3.58181 0
M  V30 2621 C 252.267 0.936358 4.39946 0
M  V30 2622 C 253.586 -1.14542 4.24933 0
M  V30 2623 H 250.705 -0.0502937 0.735282 0
M  V30 2624 H 253.347 0.564584 1.81418 0
M  V30 2625 H 251.497 -0.973559 3.76104 0
M  V30 2626 H 253.169 1.57184 4.33694 0
M  V30 2627 H 251.412 1.5432 4.05423 0
M  V30 2628 H 252.083 0.730388 5.47147 0
M  V30 2629 H 254.559 -0.635362 4.11221 0
M  V30 2630 H 253.435 -1.27431 5.33903 0
M  V30 2631 H 253.696 -2.17093 3.85127 0
M  V30 2632 N 252.755 -1.56801 0.158532 0
M  V30 2633 C 254.001 -1.96781 -0.490405 0
M  V30 2634 C 254.334 -1.04397 -1.63753 0
M  V30 2635 O 253.609 -0.0885805 -1.94298 0
M  V30 2636 C 253.892 -3.4635 -0.985594 0
M  V30 2637 C 253.745 -4.49512 0.160824 0
M  V30 2638 C 255.064 -3.98697 -1.86355 0
M  V30 2639 H 252.183 -0.715482 -0.176788 0
M  V30 2640 H 254.825 -1.88451 0.242088 0
M  V30 2641 H 252.975 -3.53579 -1.60978 0
M  V30 2642 H 254.647 -4.54353 0.797537 0
M  V30 2643 H 252.89 -4.26013 0.818256 0
M  V30 2644 H 253.561 -5.51531 -0.227569 0
M  V30 2645 H 256.037 -3.94019 -1.33746 0
M  V30 2646 H 254.913 -5.03792 -2.17909 0
M  V30 2647 H 255.174 -3.41744 -2.8047 0
M  V30 2648 N 254.233 0.115231 -1.57178 0
M  V30 2649 C 255.473 0.828199 -1.8687 0
M  V30 2650 C 255.837 1.76873 -0.747002 0
M  V30 2651 O 257.038 2.52354 -0.925785 0
M  V30 2652 C 255.309 1.55515 -3.21792 0
M  V30 2653 S 256.868 2.30917 -3.73125 0
M  V30 2654 H 253.686 0.27634 -0.655101 0
M  V30 2655 H 256.288 0.0863469 -1.95309 0
M  V30 2656 H 254.992 0.856248 -4.01368 0
M  V30 2657 H 254.523 2.3373 -3.16439 0
M  V30 2658 H 256.538 3.56705 -3.44929 0
M  V30 2659 N 255.711 1.52812 0.385517 0
M  V30 2660 C 256.939 1.71907 1.15133 0
M  V30 2661 C 257.354 0.439004 1.83625 0
M  V30 2662 O 256.711 -0.586765 1.7281 0
M  V30 2663 C 256.762 2.87099 2.19673 0
M  V30 2664 O 256.483 4.10151 1.53973 0
M  V30 2665 C 257.984 3.17902 3.08955 0
M  V30 2666 H 255.204 0.575479 0.345057 0
M  V30 2667 H 257.748 1.99476 0.45052 0
M  V30 2668 H 255.903 2.61982 2.85384 0
M  V30 2669 H 256.317 4.74514 2.23465 0
M  V30 2670 H 257.791 4.01959 3.7833 0
M  V30 2671 H 258.268 2.3243 3.72657 0
M  V30 2672 H 258.874 3.44871 2.48885 0
M  V30 2673 N 257.189 -0.644168 1.43834 0
M  V30 2674 C 258.435 -1.40603 1.46146 0
M  V30 2675 C 258.768 -1.93997 0.0887717 0
M  V30 2676 O 258.043 -1.72854 -0.891724 0
M  V30 2677 C 258.326 -2.58086 2.51124 0
M  V30 2678 C 258.179 -2.10126 3.97702 0
M  V30 2679 C 259.498 -3.60291 2.52742 0
M  V30 2680 H 256.617 -0.509905 0.532134 0
M  V30 2681 H 259.259 -0.729502 1.75437 0
M  V30 2682 H 257.409 -3.15801 2.26278 0
M  V30 2683 H 259.081 -1.57342 4.33637 0
M  V30 2684 H 257.324 -1.41419 4.10101 0
M  V30 2685 H 257.995 -2.94649 4.66783 0
M  V30 2686 H 260.471 -3.12352 2.7491 0
M  V30 2687 H 259.347 -4.40032 3.28121 0
M  V30 2688 H 259.608 -4.1349 1.56455 0
M  V30 2689 N 258.668 -1.30515 -0.883378 0
M  V30 2690 C 259.893 -1.22487 -1.67367 0
M  V30 2691 C 260.318 0.208767 -1.86938 0
M  V30 2692 O 259.676 1.15015 -1.40148 0
M  V30 2693 C 259.724 -1.96041 -3.02655 0
M  V30 2694 O 258.828 -1.28859 -3.91751 0
M  V30 2695 H 258.169 -0.423573 -0.511353 0
M  V30 2696 H 260.699 -1.72362 -1.10239 0
M  V30 2697 H 260.709 -2.05124 -3.52687 0
M  V30 2698 H 259.384 -3.00307 -2.8773 0
M  V30 2699 H 257.961 -1.28141 -3.50192 0
M  V30 2700 N 260.146 1.09593 -1.13257 0
M  V30 2701 C 261.076 2.18214 -0.830946 0
M  V30 2702 C 262.057 1.68812 0.208966 0
M  V30 2703 O 263.242 1.9408 0.0682666 0
M  V30 2704 C 260.372 3.46051 -0.294296 0
M  V30 2705 C 259.326 4.08778 -1.26826 0
M  V30 2706 C 258.652 5.31419 -0.591449 0
M  V30 2707 C 259.952 4.51476 -2.62615 0
M  V30 2708 H 261.646 2.43703 -1.73923 0
M  V30 2709 H 259.192 1.17128 -0.837675 0
M  V30 2710 H 261.145 4.2134 -0.0709606 0
M  V30 2711 H 259.869 3.20079 0.649366 0
M  V30 2712 H 258.528 3.35505 -1.47756 0
M  V30 2713 H 258.176 5.01727 0.357633 0
M  V30 2714 H 257.876 5.74341 -1.24123 0
M  V30 2715 H 259.4 6.09433 -0.377355 0
M  V30 2716 H 260.814 5.17999 -2.45663 0
M  V30 2717 H 259.211 5.05277 -3.23752 0
M  V30 2718 H 260.281 3.63962 -3.20406 0
M  V30 2719 N 261.624 0.925811 1.2754 0
M  V30 2720 C 263.035 0.610102 1.7645 0
M  V30 2721 C 263.386 -0.874723 1.75622 0
M  V30 2722 O 262.511 -1.68444 1.35851 0
M  V30 2723 C 263.106 1.10073 3.20421 0
M  V30 2724 C 261.665 0.835723 3.67005 0
M  V30 2725 C 260.812 1.26054 2.46993 0
M  V30 2726 H 263.763 1.10579 1.13833 0
M  V30 2727 H 263.784 0.447557 3.77859 0
M  V30 2728 H 263.296 2.18143 3.20991 0
M  V30 2729 H 261.397 -0.231249 3.71882 0
M  V30 2730 H 261.51 1.45193 4.56569 0
M  V30 2731 H 259.874 0.679111 2.45479 0
M  V30 2732 H 260.657 2.34984 2.50275 0
M  V30 2733 N 263.102 -1.41638 0.69111 0
M  V30 2734 C 264.327 -2.06148 0.227583 0
M  V30 2735 C 264.752 -1.51652 -1.11281 0
M  V30 2736 O 264.11 -0.64164 -1.69566 0
M  V30 2737 C 264.158 -3.60095 0.190858 0
M  V30 2738 O 263.262 -4.03845 -0.835664 0
M  V30 2739 H 262.603 -0.654434 0.112306 0
M  V30 2740 H 265.133 -1.81484 0.944714 0
M  V30 2741 H 265.143 -4.07995 0.020207 0
M  V30 2742 H 263.818 -3.99129 1.16915 0
M  V30 2743 H 262.395 -3.67458 -0.63473 0
M  V30 2744 N 264.58 -0.43555 -1.51462 0
M  V30 2745 C 265.53 0.394701 -2.24558 0
M  V30 2746 C 266.514 0.99157 -1.26715 0
M  V30 2747 O 267.706 0.910007 -1.51815 0
M  V30 2748 C 264.835 1.4963 -3.08975 0
M  V30 2749 C 263.921 0.908912 -4.14246 0
M  V30 2750 N 264.312 0.0505335 -5.05775 0
M  V30 2751 C 262.61 1.17668 -4.30198 0
M  V30 2752 C 263.311 -0.279161 -5.8103 0
M  V30 2753 N 262.287 0.336767 -5.42556 0
M  V30 2754 H 266.089 -0.267106 -2.92684 0
M  V30 2755 H 263.603 -0.247518 -1.60503 0
M  V30 2756 H 265.6 2.10394 -3.59917 0
M  V30 2757 H 264.26 2.16046 -2.42393 0
M  V30 2758 H 265.271 -0.31577 -5.16936 0
M  V30 2759 H 261.948 1.83847 -3.74842 0
M  V30 2760 H 263.338 -0.977553 -6.64751 0
M  V30 2761 N 266.058 1.56714 -0.166846 0
M  V30 2762 C 266.988 2.20754 0.760913 0
M  V30 2763 C 267.969 1.16178 1.24244 0
M  V30 2764 O 269.154 1.44592 1.29641 0
M  V30 2765 C 266.284 2.84478 1.99223 0
M  V30 2766 C 265.238 3.95053 1.64672 0
M  V30 2767 C 264.564 4.45805 2.95232 0
M  V30 2768 C 265.864 5.14865 0.878155 0
M  V30 2769 H 267.558 2.98537 0.22713 0
M  V30 2770 H 265.104 1.43596 0.107805 0
M  V30 2771 H 267.057 3.27951 2.64624 0
M  V30 2772 H 265.781 2.04056 2.55007 0
M  V30 2773 H 264.44 3.52228 1.01641 0
M  V30 2774 H 264.088 3.62181 3.49047 0
M  V30 2775 H 263.788 5.204 2.7287 0
M  V30 2776 H 265.312 4.91962 3.6167 0
M  V30 2777 H 266.726 5.55059 1.43466 0
M  V30 2778 H 265.123 5.95348 0.753738 0
M  V30 2779 H 266.193 4.84735 -0.126377 0
M  V30 2780 N 267.536 -0.106894 1.57237 0
M  V30 2781 C 268.761 -0.830287 1.90055 0
M  V30 2782 C 269.186 -1.72064 0.75998 0
M  V30 2783 O 268.544 -1.78982 -0.288991 0
M  V30 2784 C 268.592 -1.6295 3.21683 0
M  V30 2785 O 267.696 -2.73748 3.08441 0
M  V30 2786 H 267.037 -0.228855 0.623315 0
M  V30 2787 H 269.567 -0.085658 2.04421 0
M  V30 2788 H 269.577 -2.01621 3.54701 0
M  V30 2789 H 268.252 -0.975989 4.04286 0
M  V30 2790 H 266.829 -2.38192 2.86913 0
M  V30 2791 N 269.014 -1.53014 -0.377408 0
M  V30 2792 C 270.43 -1.42523 -0.718281 0
M  V30 2793 C 270.63 -0.55487 -1.9371 0
M  V30 2794 O 269.686 -0.0327593 -2.52479 0
M  V30 2795 C 270.999 -2.85546 -0.942539 0
M  V30 2796 C 272.547 -2.95101 -1.04329 0
M  V30 2797 C 273.022 -4.3916 -1.3001 0
M  V30 2798 N 274.513 -4.42536 -1.36806 0
M  V30 2799 C 275.248 -5.51097 -1.58364 0
M  V30 2800 N 274.744 -6.69724 -1.77317 0
M  V30 2801 N 276.537 -5.38657 -1.60638 0
M  V30 2802 H 268.688 -2.08116 0.424426 0
M  V30 2803 H 270.951 -0.939352 0.127759 0
M  V30 2804 H 270.657 -3.51499 -0.118929 0
M  V30 2805 H 270.531 -3.28493 -1.85397 0
M  V30 2806 H 272.918 -2.29309 -1.85745 0
M  V30 2807 H 272.999 -2.55566 -0.109505 0
M  V30 2808 H 272.643 -5.05521 -0.490991 0
M  V30 2809 H 272.573 -4.76258 -2.24691 0
M  V30 2810 H 275.064 -3.57039 -1.23821 0
M  V30 2811 H 275.377 -7.48233 -1.93306 0
M  V30 2812 H 273.722 -6.72732 -1.74518 0
M  V30 2813 H 276.913 -4.44948 -1.45391 0
M  V30 2814 H 277.086 -6.2333 -1.77098 0
M  V30 2815 N 270.492 0.636531 -1.44174 0
M  V30 2816 C 271.738 1.39826 -1.4689 0
M  V30 2817 C 272.071 1.93947 -0.0990585 0
M  V30 2818 O 271.346 1.73325 0.882544 0
M  V30 2819 C 271.629 2.56751 -2.5249 0
M  V30 2820 C 271.482 2.08014 -3.98811 0
M  V30 2821 C 272.801 3.58946 -2.54649 0
M  V30 2822 H 269.92 0.507075 -0.53483 0
M  V30 2823 H 272.562 0.720188 -1.75822 0
M  V30 2824 H 270.712 3.14597 -2.2795 0
M  V30 2825 H 272.384 1.5504 -4.34466 0
M  V30 2826 H 270.627 1.39242 -4.10846 0
M  V30 2827 H 271.298 2.92169 -4.68339 0
M  V30 2828 H 273.774 3.1089 -2.76563 0
M  V30 2829 H 272.65 4.38286 -3.3045 0
M  V30 2830 H 272.911 4.12655 -1.58646 0
M  V30 2831 N 271.97 1.30982 0.876444 0
M  V30 2832 C 273.195 1.23373 1.66715 0
M  V30 2833 C 273.62 -0.19885 1.87046 0
M  V30 2834 O 272.978 -1.1427 1.40756 0
M  V30 2835 C 273.026 1.97644 3.01611 0
M  V30 2836 O 272.13 1.30935 3.91062 0
M  V30 2837 H 271.471 0.426279 0.509099 0
M  V30 2838 H 274.001 1.72944 1.09323 0
M  V30 2839 H 274.011 2.06992 3.51594 0
M  V30 2840 H 272.686 3.01829 2.86133 0
M  V30 2841 H 271.263 1.29996 3.49507 0
M  V30 2842 N 273.449 -1.08991 1.13837 0
M  V30 2843 C 274.396 -2.15748 0.819835 0
M  V30 2844 C 275.366 -1.64636 -0.220026 0
M  V30 2845 O 276.551 -1.90582 -0.0912757 0
M  V30 2846 C 273.691 -3.4382 0.296913 0
M  V30 2847 C 272.804 -4.0881 1.39636 0
M  V30 2848 C 271.939 -5.24655 0.831314 0
M  V30 2849 C 270.978 -5.81575 1.90886 0
M  V30 2850 N 270.115 -6.88774 1.36142 0
M  V30 2851 H 274.955 -2.42338 1.73426 0
M  V30 2852 H 272.492 -1.18935 0.865613 0
M  V30 2853 H 274.45 -4.17193 -0.0244339 0
M  V30 2854 H 273.08 -3.17535 -0.580628 0
M  V30 2855 H 272.132 -3.33258 1.83422 0
M  V30 2856 H 273.444 -4.47141 2.21058 0
M  V30 2857 H 272.598 -6.04942 0.461515 0
M  V30 2858 H 271.337 -4.87698 -0.013932 0
M  V30 2859 H 270.342 -4.99946 2.28767 0
M  V30 2860 H 271.567 -6.20592 2.75758 0
M  V30 2861 H 269.513 -6.53788 0.538254 0
M  V30 2862 H 269.43 -7.25898 2.11208 0
M  V30 2863 H 270.698 -7.72806 1.01933 0
M  V30 2864 N 274.927 -0.932562 -1.27047 0
M  V30 2865 C 276.343 -0.633544 -1.46487 0
M  V30 2866 C 276.543 0.815746 -1.84249 0
M  V30 2867 O 275.599 1.59319 -1.95892 0
M  V30 2868 C 276.912 -1.58758 -2.55375 0
M  V30 2869 C 278.46 -1.59634 -2.69232 0
M  V30 2870 C 278.935 -2.53747 -3.81283 0
M  V30 2871 N 280.426 -2.51982 -3.88664 0
M  V30 2872 C 281.161 -3.21491 -4.74796 0
M  V30 2873 N 280.657 -4.00395 -5.65381 0
M  V30 2874 N 282.45 -3.10485 -4.68568 0
M  V30 2875 H 274.601 -1.86946 -1.00821 0
M  V30 2876 H 276.864 -0.802897 -0.504044 0
M  V30 2877 H 276.57 -2.62172 -2.34432 0
M  V30 2878 H 276.444 -1.33301 -3.52861 0
M  V30 2879 H 278.831 -0.569488 -2.89553 0
M  V30 2880 H 278.912 -1.89142 -1.72218 0
M  V30 2881 H 278.556 -3.56545 -3.61715 0
M  V30 2882 H 278.486 -2.21532 -4.77735 0
M  V30 2883 H 280.977 -1.94681 -3.23895 0
M  V30 2884 H 281.29 -4.50406 -6.27976 0
M  V30 2885 H 279.635 -4.04498 -5.65161 0
M  V30 2886 H 282.826 -2.48331 -3.96799 0
M  V30 2887 H 282.999 -3.64925 -5.35475 0
M  V30 2888 N 276.405 1.4127 -0.698611 0
M  V30 2889 C 277.368 2.29158 -0.044132 0
M  V30 2890 C 278.368 1.44529 0.704841 0
M  V30 2891 O 279.558 1.65643 0.539276 0
M  V30 2892 C 276.69 3.27459 0.947809 0
M  V30 2893 H 277.883 2.88529 -0.817994 0
M  V30 2894 H 275.436 1.49307 -0.46228 0
M  V30 2895 H 276.171 2.73073 1.74933 0
M  V30 2896 H 275.956 3.8991 0.41385 0
M  V30 2897 H 277.446 3.93311 1.40344 0
M  V30 2898 N 277.883 0.443576 1.51229 0
M  V30 2899 C 279.299 0.0962001 1.5931 0
M  V30 2900 C 279.499 -1.39501 1.45402 0
M  V30 2901 O 278.555 -2.16557 1.29843 0
M  V30 2902 C 279.868 0.621875 2.94199 0
M  V30 2903 C 281.416 0.582865 3.07525 0
M  V30 2904 C 281.891 1.08562 4.44948 0
M  V30 2905 N 283.382 1.04387 4.51284 0
M  V30 2906 C 284.117 1.40368 5.55954 0
M  V30 2907 N 283.613 1.83664 6.68011 0
M  V30 2908 N 285.406 1.32145 5.46346 0
M  V30 2909 H 277.557 1.41376 1.58514 0
M  V30 2910 H 279.82 0.582965 0.747567 0
M  V30 2911 H 279.526 1.66546 3.09767 0
M  V30 2912 H 279.4 0.0502125 3.77167 0
M  V30 2913 H 281.787 -0.451749 2.91622 0
M  V30 2914 H 281.868 1.191 2.26382 0
M  V30 2915 H 281.512 2.11873 4.61598 0
M  V30 2916 H 281.442 0.453956 5.2464 0
M  V30 2917 H 283.933 0.725986 3.70861 0
M  V30 2918 H 284.246 2.0934 7.43906 0
M  V30 2919 H 282.591 1.87596 6.69203 0
M  V30 2920 H 285.782 0.981808 4.57688 0
M  V30 2921 H 285.955 1.60514 6.27805 0
M  V30 2922 N 279.361 -1.56624 0.175154 0
M  V30 2923 C 280.772 -1.83561 -0.340916 0
M  V30 2924 C 281.123 -1.09511 -1.62794 0
M  V30 2925 O 280.248 -0.349389 -2.13561 0
M  V30 2926 C 280.843 -3.32979 -0.625313 0
M  V30 2927 C 279.402 -3.60399 -1.08581 0
M  V30 2928 C 278.549 -2.77024 -0.123722 0
M  V30 2929 H 281.5 -1.53593 0.399344 0
M  V30 2930 H 281.521 -3.50666 -1.47694 0
M  V30 2931 H 281.033 -3.86847 0.311575 0
M  V30 2932 H 279.134 -3.11945 -2.03767 0
M  V30 2933 H 279.247 -4.68711 -0.992317 0
M  V30 2934 H 277.611 -2.46993 -0.621821 0
M  V30 2935 H 278.394 -3.33674 0.807256 0
M  V30 2936 N 280.839 0.0985539 -1.57292 0
M  V30 2937 C 282.087 0.801092 -1.85545 0
M  V30 2938 C 282.408 1.79438 -0.763353 0
M  V30 2939 O 281.678 1.94763 0.21073 0
M  V30 2940 H 280.258 0.29884 -0.684619 0
M  V30 2941 H 282.92 0.0810064 -1.94732 0
M  V30 2942 H 282.016 1.3338 -2.82163 0
M  V30 2943 N 282.317 1.53212 0.369288 0
M  V30 2944 C 283.227 1.82342 1.47609 0
M  V30 2945 C 284.243 0.711532 1.58787 0
M  V30 2946 O 285.419 1.0012 1.74751 0
M  V30 2947 C 282.484 2.00393 2.8292 0
M  V30 2948 C 281.545 3.24297 2.81301 0
M  V30 2949 C 280.778 3.41478 4.10157 0
M  V30 2950 O 281.001 2.63033 5.06132 0
M  V30 2951 O 279.935 4.34817 4.16194 0
M  V30 2952 H 283.761 2.76366 1.25918 0
M  V30 2953 H 281.346 1.38547 0.559034 0
M  V30 2954 H 283.228 2.13859 3.63101 0
M  V30 2955 H 281.903 1.09559 3.04596 0
M  V30 2956 H 280.81 3.16257 1.99831 0
M  V30 2957 H 282.143 4.15041 2.64578 0
M  V30 2958 N 283.795 -0.628877 1.44509 0
M  V30 2959 C 285.023 -1.41554 1.50897 0
M  V30 2960 C 285.438 -1.8832 0.134564 0
M  V30 2961 O 284.795 -1.60969 -0.859965 0
M  V30 2962 C 284.846 -2.63435 2.47556 0
M  V30 2963 O 284.567 -2.18619 3.79654 0
M  V30 2964 C 286.068 -3.56537 2.63431 0
M  V30 2965 H 283.288 -0.434044 0.511709 0
M  V30 2966 H 285.832 -0.768895 1.89495 0
M  V30 2967 H 283.987 -3.24187 2.12089 0
M  V30 2968 H 284.401 -2.97652 4.31861 0
M  V30 2969 H 285.875 -4.38657 3.35088 0
M  V30 2970 H 286.352 -4.05493 1.68738 0
M  V30 2971 H 286.958 -3.01653 2.9981 0
M  V30 2972 N 285.273 -1.31445 -0.869486 0
M  V30 2973 C 286.519 -1.21337 -1.62496 0
M  V30 2974 C 286.852 0.227872 -1.92858 0
M  V30 2975 O 286.127 1.16094 -1.56053 0
M  V30 2976 C 286.41 -2.05814 -2.95487 0
M  V30 2977 C 286.263 -3.5824 -2.72 0
M  V30 2978 C 287.582 -1.9079 -3.96594 0
M  V30 2979 H 284.701 -0.442135 -0.589649 0
M  V30 2980 H 287.343 -1.6124 -1.00507 0
M  V30 2981 H 285.493 -1.71913 -3.48394 0
M  V30 2982 H 287.165 -4.0228 -2.25762 0
M  V30 2983 H 285.408 -3.81647 -2.06224 0
M  V30 2984 H 286.079 -4.12657 -3.66631 0
M  V30 2985 H 288.555 -2.20459 -3.52898 0
M  V30 2986 H 287.431 -2.52199 -4.87531 0
M  V30 2987 H 287.692 -0.871341 -4.33428 0
M  V30 2988 N 286.751 1.08385 -1.14413 0
M  V30 2989 C 287.699 2.17406 -0.826888 0
M  V30 2990 C 288.693 1.6827 0.195312 0
M  V30 2991 O 289.899 1.79927 0.0513892 0
M  V30 2992 H 286.274 0.70934 -0.249681 0
M  V30 2993 H 288.245 2.41388 -1.75426 0
M  V30 2994 C 286.994 3.46215 -0.320979 0
M  V30 2995 H 286.317 3.84401 -1.0989 0
M  V30 2996 H 287.757 4.23777 -0.137549 0
M  V30 2997 C 286.216 3.23067 0.955472 0
M  V30 2998 O 286.746 3.4668 2.02918 0
M  V30 2999 N 284.952 2.7661 0.890798 0
M  V30 3000 H 284.499 2.57594 0.0168815 0
M  V30 3001 H 284.457 2.61501 1.74542 0
M  V30 3002 N 288.23 0.939286 1.26551 0
M  V30 3003 C 289.16 0.465044 2.28822 0
M  V30 3004 C 290.141 -0.480692 1.63167 0
M  V30 3005 O 291.326 -0.382955 1.90387 0
M  V30 3006 C 288.456 -0.27234 3.46231 0
M  V30 3007 C 287.41 0.58666 4.2396 0
M  V30 3008 C 286.736 -0.280573 5.33963 0
M  V30 3009 C 288.036 1.85704 4.88171 0
M  V30 3010 H 289.73 1.31979 2.68741 0
M  V30 3011 H 287.276 0.636061 1.29191 0
M  V30 3012 H 289.229 -0.615133 4.16886 0
M  V30 3013 H 287.953 -1.16121 3.0526 0
M  V30 3014 H 286.612 0.91232 3.55067 0
M  V30 3015 H 286.26 -1.16874 4.89234 0
M  V30 3016 H 285.96 0.29076 5.8688 0
M  V30 3017 H 287.484 -0.618678 6.07458 0
M  V30 3018 H 288.898 1.58161 5.51052 0
M  V30 3019 H 287.295 2.37279 5.51197 0
M  V30 3020 H 288.365 2.56957 4.11219 0
M  V30 3021 N 289.708 -1.40897 0.706093 0
M  V30 3022 C 291.119 -1.84023 0.315052 0
M  V30 3023 C 291.47 -1.5906 -1.14866 0
M  V30 3024 O 290.595 -1.06651 -1.88293 0
M  V30 3025 C 291.19 -3.34055 0.565038 0
M  V30 3026 C 289.749 -3.7571 0.227806 0
M  V30 3027 C 288.896 -2.64204 0.842122 0
M  V30 3028 H 291.847 -1.303 0.905963 0
M  V30 3029 H 291.868 -3.80107 -0.172843 0
M  V30 3030 H 291.38 -3.52192 1.63042 0
M  V30 3031 H 289.481 -3.63172 -0.832895 0
M  V30 3032 H 289.594 -4.74103 0.690174 0
M  V30 3033 H 287.958 -2.53255 0.270893 0
M  V30 3034 H 288.741 -2.85155 1.91158 0
M  V30 3035 N 291.186 -0.45159 -1.50991 0
M  V30 3036 C 292.433 0.110074 -2.02201 0
M  V30 3037 C 292.761 1.4146 -1.33489 0
M  V30 3038 O 292.016 1.90617 -0.443125 0
M  V30 3039 C 292.315 0.361728 -3.55565 0
M  V30 3040 C 291.981 -0.858717 -4.42648 0
M  V30 3041 C 290.643 -1.19338 -4.66167 0
M  V30 3042 C 292.995 -1.67221 -4.93646 0
M  V30 3043 C 290.323 -2.34195 -5.37931 0
M  V30 3044 C 292.675 -2.8119 -5.6667 0
M  V30 3045 C 291.339 -3.15094 -5.88449 0
M  V30 3046 H 290.609 0.040279 -0.739904 0
M  V30 3047 H 293.256 -0.601696 -1.81802 0
M  V30 3048 H 291.561 1.15554 -3.74372 0
M  V30 3049 H 293.258 0.80996 -3.92735 0
M  V30 3050 H 289.848 -0.58796 -4.24548 0
M  V30 3051 H 294.032 -1.42686 -4.75347 0
M  V30 3052 H 289.288 -2.6076 -5.53005 0
M  V30 3053 H 293.462 -3.44585 -6.05173 0
M  V30 3054 H 291.089 -4.04204 -6.43835 0
M  V30 3055 N 292.664 1.56529 -0.183458 0
M  V30 3056 C 293.91 1.97537 0.459036 0
M  V30 3057 C 294.243 1.06989 1.62071 0
M  V30 3058 O 293.518 0.11948 1.94133 0
M  V30 3059 C 293.801 3.47874 0.930368 0
M  V30 3060 C 293.654 4.492 -0.232317 0
M  V30 3061 C 294.973 4.01612 1.79989 0
M  V30 3062 H 292.092 0.718204 0.165383 0
M  V30 3063 H 294.734 1.88042 -0.272038 0
M  V30 3064 H 292.884 3.56095 1.55333 0
M  V30 3065 H 294.556 4.53027 -0.86972 0
M  V30 3066 H 292.799 4.24657 -0.885928 0
M  V30 3067 H 293.47 5.51823 0.139796 0
M  V30 3068 H 295.946 3.96097 1.27461 0
M  V30 3069 H 294.822 5.07195 2.09867 0
M  V30 3070 H 295.083 3.46163 2.74998 0
M  V30 3071 N 294.142 -0.090211 1.57342 0
M  V30 3072 C 295.075 -1.14035 1.97664 0
M  V30 3073 C 296.053 -1.38576 0.850616 0
M  V30 3074 O 297.237 -1.52255 1.11134 0
M  V30 3075 C 294.364 -2.48854 2.2976 0
M  V30 3076 C 293.41 -2.40564 3.52181 0
M  V30 3077 S 294.243 -1.81745 5.03715 0
M  V30 3078 C 295.399 -3.18178 5.38993 0
M  V30 3079 H 295.632 -0.796636 2.86428 0
M  V30 3080 H 293.165 -0.298072 1.51496 0
M  V30 3081 H 295.123 -3.26413 2.48927 0
M  V30 3082 H 293.784 -2.80393 1.41558 0
M  V30 3083 H 292.977 -3.39942 3.72096 0
M  V30 3084 H 292.579 -1.71135 3.32549 0
M  V30 3085 H 294.871 -4.14461 5.35937 0
M  V30 3086 H 295.814 -3.03062 6.39968 0
M  V30 3087 H 296.222 -3.17935 4.66452 0
M  V30 3088 N 295.62 -1.53406 -0.361157 0
M  V30 3089 C 296.866 -1.70054 -1.10496 0
M  V30 3090 C 297.199 -0.453278 -1.88836 0
M  V30 3091 O 296.474 0.5495 -1.86576 0
M  V30 3092 C 296.757 -2.95317 -2.06058 0
M  V30 3093 C 296.61 -4.3021 -1.31298 0
M  V30 3094 C 297.929 -3.16193 -3.06121 0
M  V30 3095 H 295.048 -0.618799 -0.400321 0
M  V30 3096 H 297.69 -1.86052 -0.385318 0
M  V30 3097 H 295.84 -2.81809 -2.67425 0
M  V30 3098 H 297.512 -4.55538 -0.726807 0
M  V30 3099 H 295.755 -4.29421 -0.614853 0
M  V30 3100 H 296.426 -5.14 -2.01265 0
M  V30 3101 H 298.902 -3.28916 -2.5486 0
M  V30 3102 H 297.778 -4.05266 -3.70204 0
M  V30 3103 H 298.039 -2.31676 -3.76535 0
M  V30 3104 N 297.098 0.621204 -1.44841 0
M  V30 3105 C 298.028 1.74366 -1.55303 0
M  V30 3106 C 299.009 1.65199 -0.405385 0
M  V30 3107 O 300.194 1.83807 -0.626787 0
M  V30 3108 C 297.324 3.12931 -1.50637 0
M  V30 3109 C 296.278 3.36896 -2.63979 0
M  V30 3110 C 295.604 4.75594 -2.44366 0
M  V30 3111 C 296.904 3.28483 -4.06074 0
M  V30 3112 H 298.598 1.65867 -2.49256 0
M  V30 3113 H 296.144 0.796558 -1.19962 0
M  V30 3114 H 298.097 3.9124 -1.56555 0
M  V30 3115 H 296.821 3.22237 -0.532057 0
M  V30 3116 H 295.48 2.60972 -2.57467 0
M  V30 3117 H 295.128 4.81616 -1.45105 0
M  V30 3118 H 294.828 4.92586 -3.20364 0
M  V30 3119 H 296.352 5.5612 -2.52117 0
M  V30 3120 H 297.766 3.96684 -4.13902 0
M  V30 3121 H 296.163 3.57008 -4.82354 0
M  V30 3122 H 297.233 2.26133 -4.28943 0
M  V30 3123 N 298.576 1.31904 0.862503 0
M  V30 3124 C 299.992 1.10724 1.14945 0
M  V30 3125 C 300.192 -0.117421 2.01158 0
M  V30 3126 O 299.248 -0.804595 2.39338 0
M  V30 3127 C 300.561 2.38267 1.83437 0
M  V30 3128 C 302.109 2.43949 1.96106 0
M  V30 3129 C 302.584 3.71394 2.68013 0
M  V30 3130 N 304.075 3.72331 2.75543 0
M  V30 3131 C 304.81 4.67641 3.31812 0
M  V30 3132 N 304.306 5.73313 3.88953 0
M  V30 3133 N 306.099 4.5515 3.29841 0
M  V30 3134 H 298.25 2.10436 0.288191 0
M  V30 3135 H 300.513 0.928705 0.190292 0
M  V30 3136 H 300.219 3.27759 1.27542 0
M  V30 3137 H 300.093 2.48633 2.83657 0
M  V30 3138 H 302.48 1.54922 2.51164 0
M  V30 3139 H 302.561 2.37543 0.949059 0
M  V30 3140 H 302.205 4.60791 2.13621 0
M  V30 3141 H 302.135 3.75069 3.69636 0
M  V30 3142 H 304.626 2.95947 2.34997 0
M  V30 3143 H 304.939 6.42107 4.30022 0
M  V30 3144 H 303.284 5.77077 3.87308 0
M  V30 3145 H 306.475 3.71766 2.84443 0
M  V30 3146 H 306.648 5.29604 3.73394 0
M  V30 3147 N 300.054 -1.07777 1.14986 0
M  V30 3148 C 301.002 -2.16964 0.838406 0
M  V30 3149 C 301.996 -1.68372 -0.186386 0
M  V30 3150 O 303.202 -1.79951 -0.0418465 0
M  V30 3151 H 299.577 -0.708006 0.253439 0
M  V30 3152 H 301.548 -2.40454 1.76704 0
M  V30 3153 C 300.297 -3.4604 0.339335 0
M  V30 3154 H 299.62 -3.83813 1.11927 0
M  V30 3155 H 301.06 -4.23698 0.160021 0
M  V30 3156 C 299.519 -3.23569 -0.938325 0
M  V30 3157 O 300.049 -3.47752 -2.01077 0
M  V30 3158 N 298.255 -2.77079 -0.876117 0
M  V30 3159 H 297.802 -2.576 -0.00322037 0
M  V30 3160 H 297.76 -2.62422 -1.73153 0
M  V30 3161 N 301.532 -0.945985 -1.26051 0
M  V30 3162 C 302.778 -0.597002 -1.93814 0
M  V30 3163 C 303.111 0.862484 -1.73997 0
M  V30 3164 O 302.386 1.61769 -1.07986 0
M  V30 3165 C 302.669 -0.945937 -3.47454 0
M  V30 3166 C 302.522 -2.46052 -3.76535 0
M  V30 3167 C 303.841 -0.464785 -4.37639 0
M  V30 3168 H 300.96 -0.218366 -0.703907 0
M  V30 3169 H 303.602 -1.18107 -1.48831 0
M  V30 3170 H 301.752 -0.448902 -3.85898 0
M  V30 3171 H 303.424 -3.03065 -3.47778 0
M  V30 3172 H 301.667 -2.90194 -3.22444 0
M  V30 3173 H 302.338 -2.65517 -4.83947 0
M  V30 3174 H 304.814 -0.891016 -4.06448 0
M  V30 3175 H 303.69 -0.737712 -5.4392 0
M  V30 3176 H 303.951 0.635274 -4.37512 0
M  V30 3177 N 303.011 1.40521 -0.713556 0
M  V30 3178 C 304.241 2.0494 -0.261395 0
M  V30 3179 C 304.649 1.53861 1.10107 0
M  V30 3180 O 303.992 0.689321 1.70276 0
M  V30 3181 C 304.054 3.59138 -0.161227 0
M  V30 3182 C 303.718 4.33096 -1.45865 0
M  V30 3183 C 304.715 4.61182 -2.40016 0
M  V30 3184 C 302.4 4.72043 -1.71701 0
M  V30 3185 C 304.394 5.27196 -3.58251 0
M  V30 3186 C 302.081 5.37789 -2.90218 0
M  V30 3187 C 303.079 5.65295 -3.83315 0
M  V30 3188 O 302.767 6.29683 -4.99754 0
M  V30 3189 H 302.499 0.666041 -0.115608 0
M  V30 3190 H 305.053 1.80954 -0.971849 0
M  V30 3191 H 303.283 3.81936 0.605153 0
M  V30 3192 H 304.972 4.05091 0.256105 0
M  V30 3193 H 305.738 4.31559 -2.21318 0
M  V30 3194 H 301.617 4.50003 -1.00092 0
M  V30 3195 H 305.161 5.48582 -4.30934 0
M  V30 3196 H 301.058 5.66831 -3.08825 0
M  V30 3197 H 301.826 6.4818 -4.99805 0
M  V30 3198 N 304.489 0.459591 1.5075 0
M  V30 3199 C 305.738 -0.100971 2.01447 0
M  V30 3200 C 306.051 -1.41816 1.34713 0
M  V30 3201 O 307.257 -2.06299 1.76502 0
M  V30 3202 C 305.713 -0.23047 3.59161 0
M  V30 3203 C 305.321 1.0776 4.34847 0
M  V30 3204 C 307.065 -0.743608 4.17936 0
M  V30 3205 C 304.972 0.91253 5.84317 0
M  V30 3206 H 303.902 -0.0415102 0.752856 0
M  V30 3207 H 306.553 0.592742 1.73663 0
M  V30 3208 H 304.935 -0.987703 3.83485 0
M  V30 3209 H 306.109 1.8449 4.22256 0
M  V30 3210 H 304.424 1.52097 3.87628 0
M  V30 3211 H 307.021 -0.883959 5.27343 0
M  V30 3212 H 307.364 -1.73196 3.78562 0
M  V30 3213 H 307.897 -0.04408 3.97776 0
M  V30 3214 H 304.636 1.87391 6.28144 0
M  V30 3215 H 304.156 0.185422 5.99513 0
M  V30 3216 H 305.835 0.574547 6.44444 0
M  V30 3217 N 305.967 -1.56429 0.191757 0
M  V30 3218 C 306.9 -2.14829 -0.76967 0
M  V30 3219 C 307.878 -1.08405 -1.2119 0
M  V30 3220 O 309.062 -1.36498 -1.30002 0
M  V30 3221 C 306.189 -2.70446 -2.03903 0
M  V30 3222 C 305.235 -3.89428 -1.7392 0
M  V30 3223 S 306.068 -5.28048 -0.890265 0
M  V30 3224 C 307.224 -5.87085 -2.16984 0
M  V30 3225 H 307.457 -2.96042 -0.273204 0
M  V30 3226 H 304.99 -1.54383 -0.0231975 0
M  V30 3227 H 306.948 -3.03134 -2.76803 0
M  V30 3228 H 305.609 -1.89281 -2.50662 0
M  V30 3229 H 304.802 -4.26742 -2.68155 0
M  V30 3230 H 304.404 -3.57732 -1.09103 0
M  V30 3231 H 306.696 -6.01244 -3.12269 0
M  V30 3232 H 307.639 -6.83747 -1.84108 0
M  V30 3233 H 308.047 -5.15663 -2.29678 0
M  V30 3234 N 307.445 0.0818655 -1.57387 0
M  V30 3235 C 308.375 1.09885 -2.06028 0
M  V30 3236 C 309.356 1.4098 -0.951774 0
M  V30 3237 O 310.541 1.50781 -1.22387 0
M  V30 3238 C 307.671 2.4151 -2.4958 0
M  V30 3239 C 306.625 2.24792 -3.64215 0
M  V30 3240 C 305.951 3.61712 -3.93787 0
M  V30 3241 C 307.251 1.67749 -4.94629 0
M  V30 3242 H 308.945 0.694128 -2.91243 0
M  V30 3243 H 306.491 0.332448 -1.4011 0
M  V30 3244 H 308.444 3.12939 -2.82219 0
M  V30 3245 H 307.168 2.83943 -1.61381 0
M  V30 3246 H 305.827 1.55807 -3.31843 0
M  V30 3247 H 305.475 4.01697 -3.02735 0
M  V30 3248 H 305.175 3.51368 -4.70971 0
M  V30 3249 H 306.699 4.34587 -4.28913 0
M  V30 3250 H 308.113 2.29032 -5.25564 0
M  V30 3251 H 306.51 1.68128 -5.76067 0
M  V30 3252 H 307.58 0.638059 -4.80684 0
M  V30 3253 N 308.923 1.53595 0.353017 0
M  V30 3254 C 310.172 1.69603 1.09168 0
M  V30 3255 C 310.485 0.460925 1.90092 0
M  V30 3256 O 311.691 0.501774 2.66823 0
M  V30 3257 C 310.147 2.99872 1.9901 0
M  V30 3258 C 309.755 4.30687 1.23339 0
M  V30 3259 C 311.499 3.25246 2.72792 0
M  V30 3260 C 309.406 5.52036 2.12156 0
M  V30 3261 H 308.336 0.631966 0.411261 0
M  V30 3262 H 310.987 1.80096 0.351802 0
M  V30 3263 H 309.369 2.83212 2.7678 0
M  V30 3264 H 310.543 4.58019 0.505456 0
M  V30 3265 H 308.858 4.11853 0.613663 0
M  V30 3266 H 311.455 4.13095 3.39495 0
M  V30 3267 H 311.798 2.41846 3.38846 0
M  V30 3268 H 312.331 3.42638 2.021 0
M  V30 3269 H 309.07 6.37951 1.50659 0
M  V30 3270 H 308.59 5.28966 2.82764 0
M  V30 3271 H 310.269 5.87313 2.71427 0
M  V30 3272 N 310.401 -0.613514 1.45168 0
M  V30 3273 C 311.349 -1.74572 1.53712 0
M  V30 3274 C 312.343 -1.64426 0.407505 0
M  V30 3275 O 313.549 -1.70291 0.583176 0
M  V30 3276 H 309.924 -0.576641 0.48269 0
M  V30 3277 H 311.895 -1.64492 2.48968 0
M  V30 3278 C 310.644 -3.12943 1.51532 0
M  V30 3279 H 309.967 -3.21407 2.37776 0
M  V30 3280 H 311.407 -3.9201 1.61569 0
M  V30 3281 C 309.866 -3.36053 0.238798 0
M  V30 3282 O 310.396 -3.95837 -0.6838 0
M  V30 3283 N 308.602 -2.9028 0.136359 0
M  V30 3284 H 308.149 -2.41811 0.887999 0
M  V30 3285 H 308.107 -3.06116 -0.716944 0
M  V30 3286 N 311.879 -1.3236 -0.855495 0
M  V30 3287 C 313.107 -1.2587 -1.64208 0
M  V30 3288 C 313.522 0.173457 -1.88002 0
M  V30 3289 O 312.879 1.11027 -1.44842 0
M  V30 3290 C 312.93 -2.01424 -3.00184 0
M  V30 3291 O 312.651 -3.39051 -2.77445 0
M  V30 3292 C 314.152 -2.01948 -3.94629 0
M  V30 3293 H 311.372 -0.434318 -0.511477 0
M  V30 3294 H 313.916 -1.74469 -1.0668 0
M  V30 3295 H 312.071 -1.56549 -3.5436 0
M  V30 3296 H 312.485 -3.77711 -3.63916 0
M  V30 3297 H 313.959 -2.59297 -4.87308 0
M  V30 3298 H 314.436 -1.00554 -4.27534 0
M  V30 3299 H 315.042 -2.46767 -3.4639 0
M  V30 3300 N 313.357 1.07166 -1.15556 0
M  V30 3301 C 314.606 1.79181 -0.926132 0
M  V30 3302 C 314.919 1.87768 0.547967 0
M  V30 3303 O 316.125 2.56323 0.895036 0
M  V30 3304 C 314.581 3.22 -1.60761 0
M  V30 3305 C 314.189 3.21607 -3.11886 0
M  V30 3306 C 315.933 3.9861 -1.4598 0
M  V30 3307 C 313.84 4.59092 -3.72812 0
M  V30 3308 H 312.77 0.67154 -0.342856 0
M  V30 3309 H 315.421 1.2027 -1.3859 0
M  V30 3310 H 313.803 3.81115 -1.07553 0
M  V30 3311 H 314.977 2.72127 -3.71865 0
M  V30 3312 H 313.292 2.58495 -3.2645 0
M  V30 3313 H 315.889 5.00225 -1.88888 0
M  V30 3314 H 316.232 4.143 -0.407541 0
M  V30 3315 H 316.765 3.45996 -1.96295 0
M  V30 3316 H 313.504 4.48606 -4.77946 0
M  V30 3317 H 313.024 5.08803 -3.17616 0
M  V30 3318 H 314.703 5.28059 -3.73848 0
M  V30 3319 N 314.835 0.952656 1.25548 0
M  V30 3320 C 316.084 0.602053 1.92505 0
M  V30 3321 C 316.397 -0.864663 1.75451 0
M  V30 3322 O 317.603 -1.32514 2.36965 0
M  V30 3323 C 316.059 1.02607 3.44963 0
M  V30 3324 C 315.667 2.51519 3.70732 0
M  V30 3325 C 317.411 0.747905 4.1786 0
M  V30 3326 C 315.318 2.87732 5.16686 0
M  V30 3327 H 314.248 0.22146 0.720744 0
M  V30 3328 H 316.899 1.15684 1.42441 0
M  V30 3329 H 315.281 0.399712 3.93978 0
M  V30 3330 H 316.455 3.19157 3.32378 0
M  V30 3331 H 314.77 2.76786 3.11092 0
M  V30 3332 H 317.367 0.994647 5.25367 0
M  V30 3333 H 317.71 -0.315629 4.15102 0
M  V30 3334 H 318.243 1.33452 3.74747 0
M  V30 3335 H 314.982 3.93095 5.24554 0
M  V30 3336 H 314.502 2.24765 5.56094 0
M  V30 3337 H 316.181 2.76817 5.84792 0
M  V30 3338 N 316.313 -1.40141 0.720998 0
M  V30 3339 C 317.56 -2.00787 0.262842 0
M  V30 3340 C 317.888 -1.5718 -1.14563 0
M  V30 3341 O 317.143 -0.785391 -1.79249 0
M  V30 3342 C 317.442 -3.56165 0.296892 0
M  V30 3343 C 317.108 -4.19373 1.65641 0
M  V30 3344 C 315.77 -4.36352 2.02855 0
M  V30 3345 C 318.122 -4.54578 2.54968 0
M  V30 3346 C 315.45 -4.8582 3.28931 0
M  V30 3347 C 317.802 -5.05447 3.80402 0
M  V30 3348 C 316.466 -5.20635 4.17726 0
M  V30 3349 H 315.736 -0.734731 0.0961807 0
M  V30 3350 H 318.383 -1.67673 0.925093 0
M  V30 3351 H 316.688 -3.8922 -0.448932 0
M  V30 3352 H 318.385 -4.00929 -0.0755208 0
M  V30 3353 H 314.975 -4.06549 1.35704 0
M  V30 3354 H 319.159 -4.41091 2.27491 0
M  V30 3355 H 314.415 -4.95764 3.57811 0
M  V30 3356 H 318.589 -5.31663 4.49786 0
M  V30 3357 H 316.216 -5.58728 5.15487 0
M  V30 3358 N 317.792 -0.46758 -1.50504 0
M  V30 3359 C 318.722 0.318381 -2.31319 0
M  V30 3360 C 319.703 0.993564 -1.38066 0
M  V30 3361 O 320.888 0.991411 -1.66987 0
M  V30 3362 C 318.018 1.40275 -3.17711 0
M  V30 3363 C 316.972 0.849373 -4.19487 0
M  V30 3364 C 316.298 2.03177 -4.94594 0
M  V30 3365 C 317.598 -0.136942 -5.2212 0
M  V30 3366 H 319.292 -0.356106 -2.97275 0
M  V30 3367 H 316.838 -0.172703 -1.42961 0
M  V30 3368 H 318.791 1.96004 -3.73042 0
M  V30 3369 H 317.515 2.10596 -2.49634 0
M  V30 3370 H 316.174 0.314076 -3.65252 0
M  V30 3371 H 315.822 2.72187 -4.22993 0
M  V30 3372 H 315.522 1.66774 -5.63436 0
M  V30 3373 H 317.046 2.59403 -5.52759 0
M  V30 3374 H 318.46 0.331056 -5.72343 0
M  V30 3375 H 316.857 -0.41507 -5.98663 0
M  V30 3376 H 317.927 -1.06398 -4.73083 0
M  V30 3377 N 319.27 1.56325 -0.20005 0
M  V30 3378 C 320.217 2.1932 0.718833 0
M  V30 3379 C 321.187 1.14198 1.20615 0
M  V30 3380 O 322.372 1.42469 1.26914 0
M  V30 3381 C 319.512 2.86041 1.93066 0
M  V30 3382 C 318.625 4.05702 1.48425 0
M  V30 3383 C 317.76 4.60266 2.65196 0
M  V30 3384 C 316.799 5.72273 2.17185 0
M  V30 3385 N 315.936 6.21221 3.27152 0
M  V30 3386 H 320.776 2.97486 0.17489 0
M  V30 3387 H 318.313 1.46911 0.0745794 0
M  V30 3388 H 320.271 3.22897 2.64184 0
M  V30 3389 H 318.901 2.1043 2.44783 0
M  V30 3390 H 317.953 3.74475 0.668755 0
M  V30 3391 H 319.265 4.86699 1.09204 0
M  V30 3392 H 318.419 4.99453 3.4443 0
M  V30 3393 H 317.158 3.78386 3.07693 0
M  V30 3394 H 316.163 5.3261 1.36407 0
M  V30 3395 H 317.388 6.55974 1.75713 0
M  V30 3396 H 315.334 5.42263 3.69171 0
M  V30 3397 H 315.251 6.97284 2.92116 0
M  V30 3398 H 316.519 6.65063 4.06585 0
M  V30 3399 N 320.748 -0.0735177 1.57428 0
M  V30 3400 C 321.976 -0.785969 1.9139 0
M  V30 3401 C 322.391 -1.71207 0.795847 0
M  V30 3402 O 321.748 -1.81033 -0.230915 0
M  V30 3403 C 321.799 -1.58107 3.25091 0
M  V30 3404 O 321.52 -0.6922 4.32597 0
M  V30 3405 C 323.021 -2.39467 3.73055 0
M  V30 3406 H 320.241 -0.223558 0.632663 0
M  V30 3407 H 322.785 -0.044302 2.04452 0
M  V30 3408 H 320.94 -2.27503 3.13562 0
M  V30 3409 H 321.354 -1.24504 5.09508 0
M  V30 3410 H 322.828 -2.90716 4.69242 0
M  V30 3411 H 323.305 -3.18913 3.01979 0
M  V30 3412 H 323.911 -1.7523 3.87523 0
M  V30 3413 N 322.226 -1.5378 -0.344866 0
M  V30 3414 C 323.174 -1.82373 -1.4437 0
M  V30 3415 C 324.168 -0.694128 -1.54526 0
M  V30 3416 O 325.374 -0.877442 -1.57165 0
M  V30 3417 H 321.749 -0.577765 -0.481344 0
M  V30 3418 H 323.72 -2.74306 -1.17468 0
M  V30 3419 C 322.469 -2.04898 -2.80913 0
M  V30 3420 H 321.792 -2.9127 -2.73865 0
M  V30 3421 H 323.232 -2.28871 -3.56923 0
M  V30 3422 C 321.691 -0.834116 -3.26411 0
M  V30 3423 O 322.221 -0.0328885 -4.01687 0
M  V30 3424 N 320.427 -0.65171 -2.83198 0
M  V30 3425 H 319.974 -1.30489 -2.22104 0
M  V30 3426 H 319.932 0.159686 -3.13994 0
M  V30 3427 N 323.704 0.605807 -1.45491 0
M  V30 3428 C 324.652 1.73754 -1.54636 0
M  V30 3429 C 325.646 1.64207 -0.416219 0
M  V30 3430 O 326.852 1.69979 -0.592199 0
M  V30 3431 H 323.227 0.574073 -0.485741 0
M  V30 3432 H 325.198 1.63169 -2.49837 0
M  V30 3433 C 323.947 3.12135 -1.53189 0
M  V30 3434 H 323.27 3.20141 -2.39478 0
M  V30 3435 H 324.71 3.91147 -1.63645 0
M  V30 3436 C 323.169 3.35921 -0.256616 0
M  V30 3437 O 323.699 3.96194 0.662798 0
M  V30 3438 N 321.905 2.90204 -0.151751 0
M  V30 3439 H 321.452 2.41336 -0.90081 0
M  V30 3440 H 321.41 3.06492 0.700699 0
M  V30 3441 N 325.182 1.32811 0.848464 0
M  V30 3442 C 326.428 1.24917 1.60522 0
M  V30 3443 C 326.783 -0.185761 1.91501 0
M  V30 3444 O 326.076 -1.12524 1.55077 0
M  V30 3445 C 326.27 2.04831 2.92881 0
M  V30 3446 C 326.099 3.55949 2.74828 0
M  V30 3447 C 324.869 4.25277 2.72887 0
M  V30 3448 C 327.067 4.50476 2.48145 0
M  V30 3449 N 325.049 5.62408 2.46111 0
M  V30 3450 C 326.42 5.75427 2.30832 0
M  V30 3451 C 328.475 4.39665 2.33664 0
M  V30 3452 C 327.178 6.90789 2.00508 0
M  V30 3453 C 329.204 5.54833 2.04731 0
M  V30 3454 C 328.566 6.78787 1.88223 0
M  V30 3455 H 324.665 0.512279 0.590842 0
M  V30 3456 H 327.249 1.67246 0.996839 0
M  V30 3457 H 325.42 1.64837 3.51686 0
M  V30 3458 H 327.152 1.88782 3.57971 0
M  V30 3459 H 323.907 3.77456 2.86049 0
M  V30 3460 H 324.331 6.3467 2.35634 0
M  V30 3461 H 328.973 3.44477 2.45144 0
M  V30 3462 H 326.691 7.85984 1.87765 0
M  V30 3463 H 330.277 5.48398 1.94295 0
M  V30 3464 H 329.157 7.66396 1.66155 0
M  V30 3465 N 326.66 -1.06551 1.16123 0
M  V30 3466 C 327.61 -2.12209 0.833736 0
M  V30 3467 C 328.594 -1.59825 -0.185656 0
M  V30 3468 O 329.786 -1.76994 0.0147906 0
M  V30 3469 C 326.915 -3.41674 0.333697 0
M  V30 3470 C 326.001 -4.00892 1.38372 0
M  V30 3471 N 326.392 -4.34256 2.59337 0
M  V30 3472 C 324.69 -4.28463 1.23836 0
M  V30 3473 C 325.391 -4.81291 3.26701 0
M  V30 3474 N 324.367 -4.80565 2.54083 0
M  V30 3475 H 328.169 -2.35849 1.75364 0
M  V30 3476 H 325.683 -1.24068 1.04789 0
M  V30 3477 H 327.68 -4.16822 0.0806918 0
M  V30 3478 H 326.34 -3.19475 -0.58017 0
M  V30 3479 H 327.351 -4.24687 2.96415 0
M  V30 3480 H 324.028 -4.15721 0.38504 0
M  V30 3481 H 325.418 -5.16332 4.29943 0
M  V30 3482 N 328.138 -0.959301 -1.25041 0
M  V30 3483 C 329.101 -0.487677 -2.23952 0
M  V30 3484 C 330.101 0.41119 -1.55454 0
M  V30 3485 O 331.291 0.207825 -1.72956 0
M  V30 3486 C 328.423 0.294807 -3.39623 0
M  V30 3487 H 329.616 -1.36198 -2.67189 0
M  V30 3488 H 327.169 -0.743042 -1.37508 0
M  V30 3489 H 327.904 1.18658 -3.01813 0
M  V30 3490 H 327.689 -0.35012 -3.90534 0
M  V30 3491 H 329.179 0.614089 -4.1306 0
M  V30 3492 N 329.616 1.39756 -0.72842 0
M  V30 3493 C 330.864 2.00248 -0.272946 0
M  V30 3494 C 331.185 1.58077 1.14178 0
M  V30 3495 O 330.455 0.826014 1.77634 0
M  V30 3496 H 329.035 0.740554 -0.0979247 0
M  V30 3497 H 331.697 1.70903 -0.936912 0
M  V30 3498 H 330.793 3.10495 -0.316142 0
M  V30 3499 N 331.094 0.475555 1.50254 0
M  V30 3500 C 332.34 -0.0701075 2.03279 0
M  V30 3501 C 332.695 -1.37007 1.35081 0
M  V30 3502 O 331.988 -1.8577 0.469052 0
M  V30 3503 C 332.182 -0.305114 3.56095 0
M  V30 3504 C 332.011 0.970515 4.39103 0
M  V30 3505 C 330.781 1.51509 4.82051 0
M  V30 3506 C 332.979 1.8671 4.79212 0
M  V30 3507 N 330.961 2.73928 5.49397 0
M  V30 3508 C 332.332 2.93715 5.46014 0
M  V30 3509 C 334.387 1.87695 4.61167 0
M  V30 3510 C 333.09 4.01699 5.96683 0
M  V30 3511 C 335.116 2.94637 5.12779 0
M  V30 3512 C 334.478 4.00361 5.79561 0
M  V30 3513 H 330.577 0.014486 0.781866 0
M  V30 3514 H 333.161 0.644755 1.83714 0
M  V30 3515 H 331.332 -0.989019 3.75597 0
M  V30 3516 H 333.064 -0.845516 3.95769 0
M  V30 3517 H 329.819 1.06367 4.61501 0
M  V30 3518 H 330.243 3.36109 5.87673 0
M  V30 3519 H 334.885 1.07273 4.08965 0
M  V30 3520 H 332.603 4.82934 6.4792 0
M  V30 3521 H 336.189 2.96388 5.00645 0
M  V30 3522 H 335.069 4.81751 6.18778 0
M  V30 3523 N 332.573 -1.56217 0.208337 0
M  V30 3524 C 333.521 -2.21053 -0.723769 0
M  V30 3525 C 334.515 -1.18578 -1.20978 0
M  V30 3526 O 335.721 -1.36691 -1.17114 0
M  V30 3527 H 332.096 -0.708595 -0.251788 0
M  V30 3528 H 334.067 -2.98006 -0.153365 0
M  V30 3529 C 332.816 -2.89417 -1.927 0
M  V30 3530 H 332.139 -3.68019 -1.56212 0
M  V30 3531 H 333.579 -3.38201 -2.55727 0
M  V30 3532 C 332.038 -1.91166 -2.77411 0
M  V30 3533 O 332.568 -1.42026 -3.75754 0
M  V30 3534 N 330.774 -1.59105 -2.43175 0
M  V30 3535 H 330.321 -1.99259 -1.63259 0
M  V30 3536 H 330.279 -0.936255 -3.00136 0
M  V30 3537 N 334.051 0.0651679 -1.57465 0
M  V30 3538 C 335.279 0.775808 -1.91804 0
M  V30 3539 C 335.694 1.70782 -0.804916 0
M  V30 3540 O 335.051 1.81153 0.221311 0
M  V30 3541 C 335.102 1.56381 -3.25925 0
M  V30 3542 O 334.823 0.669248 -4.32958 0
M  V30 3543 C 336.324 2.37485 -3.7432 0
M  V30 3544 H 333.544 0.2202 -0.63384 0
M  V30 3545 H 336.088 0.0334587 -2.04473 0
M  V30 3546 H 334.243 2.25837 -3.14764 0
M  V30 3547 H 334.657 1.21801 -5.10162 0
M  V30 3548 H 336.131 2.88223 -4.70778 0
M  V30 3549 H 336.608 3.17307 -3.03666 0
M  V30 3550 H 337.214 1.73173 -3.88447 0
M  V30 3551 N 335.529 1.53961 0.336706 0
M  V30 3552 C 336.459 1.85417 1.41925 0
M  V30 3553 C 337.44 0.709856 1.5458 0
M  V30 3554 O 338.625 0.962396 1.68676 0
M  V30 3555 C 335.755 2.06985 2.78881 0
M  V30 3556 C 334.709 3.22813 2.81026 0
M  V30 3557 C 334.035 3.29727 4.20932 0
M  V30 3558 C 335.335 4.60767 2.45949 0
M  V30 3559 H 337.029 2.76079 1.15848 0
M  V30 3560 H 334.575 1.32839 0.555859 0
M  V30 3561 H 336.528 2.27575 3.54665 0
M  V30 3562 H 335.252 1.13061 3.06406 0
M  V30 3563 H 333.911 3.0209 2.07695 0
M  V30 3564 H 333.559 2.33385 4.45579 0
M  V30 3565 H 333.259 4.07566 4.23277 0
M  V30 3566 H 334.783 3.52536 4.98549 0
M  V30 3567 H 336.197 4.81325 3.11446 0
M  V30 3568 H 334.594 5.4106 2.59566 0
M  V30 3569 H 335.664 4.6391 1.41122 0
M  V30 3570 N 337.007 -0.598083 1.45811 0
M  V30 3571 C 338.232 -1.3881 1.54099 0
M  V30 3572 C 338.657 -1.8726 0.177578 0
M  V30 3573 O 338.015 -1.6069 -0.839541 0
M  V30 3574 C 338.063 -2.56217 2.53743 0
M  V30 3575 O 337.167 -3.5716 2.06182 0
M  V30 3576 H 336.508 -0.414024 0.519115 0
M  V30 3577 H 339.038 -0.726971 1.91249 0
M  V30 3578 H 339.048 -3.03337 2.72856 0
M  V30 3579 H 337.723 -2.20303 3.5276 0
M  V30 3580 H 336.3 -3.16624 1.96987 0
M  V30 3581 N 338.485 -1.33259 -0.841409 0
M  V30 3582 C 339.732 -1.24572 -1.5965 0
M  V30 3583 C 340.06 0.189137 -1.93578 0
M  V30 3584 O 339.315 1.14566 -1.5866 0
M  V30 3585 C 339.614 -2.06381 -2.9179 0
M  V30 3586 C 339.28 -3.556 -2.77235 0
M  V30 3587 C 337.942 -3.96282 -2.72973 0
M  V30 3588 C 340.294 -4.50433 -2.62221 0
M  V30 3589 C 337.622 -5.30017 -2.51592 0
M  V30 3590 C 339.974 -5.84327 -2.42374 0
M  V30 3591 C 338.638 -6.24194 -2.36512 0
M  V30 3592 H 337.908 -0.455842 -0.5842 0
M  V30 3593 H 340.555 -1.6482 -0.975016 0
M  V30 3594 H 338.86 -1.58903 -3.5813 0
M  V30 3595 H 340.557 -1.97019 -3.49263 0
M  V30 3596 H 337.147 -3.23298 -2.81384 0
M  V30 3597 H 341.331 -4.19914 -2.64549 0
M  V30 3598 H 336.587 -5.59947 -2.45499 0
M  V30 3599 H 340.761 -6.57414 -2.29739 0
M  V30 3600 H 338.388 -7.27759 -2.19706 0
M  V30 3601 N 339.963 1.05934 -1.16686 0
M  V30 3602 C 341.203 1.80382 -0.961345 0
M  V30 3603 C 341.567 1.85331 0.501643 0
M  V30 3604 O 342.768 2.55795 0.825986 0
M  V30 3605 C 341.039 3.20777 -1.57596 0
M  V30 3606 S 342.598 4.11795 -1.51559 0
M  V30 3607 H 339.416 0.621332 -0.345641 0
M  V30 3608 H 342.018 1.27157 -1.48497 0
M  V30 3609 H 340.722 3.14773 -2.63337 0
M  V30 3610 H 340.253 3.79078 -1.05182 0
M  V30 3611 H 342.268 4.93485 -0.518374 0
M  V30 3612 N 341.441 0.965919 1.2453 0
M  V30 3613 C 342.389 0.486506 2.27455 0
M  V30 3614 C 343.383 -0.449041 1.6334 0
M  V30 3615 O 344.589 -0.324527 1.7705 0
M  V30 3616 H 340.964 0.138857 0.739069 0
M  V30 3617 H 342.935 1.3666 2.65267 0
M  V30 3618 C 341.684 -0.209481 3.47068 0
M  V30 3619 H 341.007 0.50129 3.96645 0
M  V30 3620 H 342.447 -0.508775 4.20936 0
M  V30 3621 C 340.906 -1.43586 3.0477 0
M  V30 3622 O 341.436 -2.53299 3.11773 0
M  V30 3623 N 339.642 -1.30126 2.59838 0
M  V30 3624 H 339.189 -0.408583 2.54339 0
M  V30 3625 H 339.147 -2.12294 2.31902 0
M  V30 3626 N 342.919 -1.39368 0.735821 0
M  V30 3627 C 344.196 -1.94465 0.210395 0
M  V30 3628 C 344.576 -1.67254 -1.28799 0
M  V30 3629 O 343.924 -1.00123 -2.05396 0
M  V30 3630 C 344.134 -3.4472 0.544897 0
M  V30 3631 C 345.482 -4.21708 0.494689 0
M  V30 3632 O 346.506 -3.52922 0.482136 0
M  V30 3633 O 345.365 -5.44299 0.489947 0
M  V30 3634 H 342.459 -0.826096 0.0386666 0
M  V30 3635 H 345.005 -1.48863 0.814735 0
M  V30 3636 H 343.777 -3.57963 1.58045 0
M  V30 3637 H 343.4 -3.97502 -0.08837 0
M  V30 3638 N 344.397 -0.483516 -1.5 0
M  V30 3639 C 345.643 0.0672592 -2.02688 0
M  V30 3640 C 345.976 1.38247 -1.36387 0
M  V30 3641 O 345.251 1.88131 -0.493675 0
M  V30 3642 C 345.534 0.238109 -3.59312 0
M  V30 3643 C 345.387 -1.099 -4.36168 0
M  V30 3644 C 346.706 0.986916 -4.28892 0
M  V30 3645 H 343.825 0.0229696 -0.736642 0
M  V30 3646 H 346.467 -0.631527 -1.79197 0
M  V30 3647 H 344.617 0.8333 -3.79458 0
M  V30 3648 H 346.289 -1.73172 -4.27562 0
M  V30 3649 H 344.532 -1.69261 -3.99416 0
M  V30 3650 H 345.203 -0.932954 -5.44059 0
M  V30 3651 H 347.679 0.482302 -4.13295 0
M  V30 3652 H 346.555 1.07527 -5.38265 0
M  V30 3653 H 346.816 2.0265 -3.92919 0
M  V30 3654 N 345.875 1.56104 -0.216619 0
M  V30 3655 C 347.122 1.98172 0.416416 0
M  V30 3656 C 347.45 1.10413 1.60122 0
M  V30 3657 O 346.705 0.147967 1.9514 0
M  V30 3658 C 347.004 3.45923 0.898464 0
M  V30 3659 C 346.67 4.50559 -0.175288 0
M  V30 3660 C 345.332 4.78897 -0.470271 0
M  V30 3661 C 347.684 5.1334 -0.901728 0
M  V30 3662 C 345.012 5.67299 -1.4963 0
M  V30 3663 C 347.364 6.02853 -1.91705 0
M  V30 3664 C 346.028 6.29537 -2.21901 0
M  V30 3665 H 345.298 0.725164 0.152377 0
M  V30 3666 H 347.945 1.88839 -0.318103 0
M  V30 3667 H 346.25 3.52434 1.71165 0
M  V30 3668 H 347.947 3.75841 1.39803 0
M  V30 3669 H 344.537 4.28551 0.0647806 0
M  V30 3670 H 348.721 4.91521 -0.687072 0
M  V30 3671 H 343.977 5.86239 -1.73592 0
M  V30 3672 H 348.151 6.50552 -2.48505 0
M  V30 3673 H 345.778 6.97835 -3.01548 0
M  V30 3674 N 347.353 -0.0568162 1.57498 0
M  V30 3675 C 348.3 -1.06591 2.04712 0
M  V30 3676 C 349.27 -1.3758 0.930644 0
M  V30 3677 O 350.455 -1.48392 1.19935 0
M  V30 3678 C 347.595 -2.3701 2.50839 0
M  V30 3679 C 346.708 -2.12421 3.76167 0
M  V30 3680 C 345.843 -3.36511 4.11015 0
M  V30 3681 C 344.882 -3.07353 5.2934 0
M  V30 3682 N 344.019 -4.23816 5.59754 0
M  V30 3683 H 348.859 -0.65631 2.90683 0
M  V30 3684 H 346.396 -0.312481 1.43743 0
M  V30 3685 H 348.354 -3.13175 2.7564 0
M  V30 3686 H 346.984 -2.75744 1.67825 0
M  V30 3687 H 346.036 -1.2688 3.58616 0
M  V30 3688 H 347.348 -1.86894 4.62463 0
M  V30 3689 H 346.502 -4.21062 4.36797 0
M  V30 3690 H 345.241 -3.65128 3.23315 0
M  V30 3691 H 344.246 -2.212 5.03339 0
M  V30 3692 H 345.471 -2.80043 6.1867 0
M  V30 3693 H 343.417 -4.52436 4.75014 0
M  V30 3694 H 343.334 -4.01614 6.40501 0
M  V30 3695 H 344.602 -5.0932 5.90096 0
M  V30 3696 N 348.832 -1.54138 -0.328536 0
M  V30 3697 C 349.764 -1.79509 -1.4251 0
M  V30 3698 C 350.777 -0.67688 -1.48061 0
M  V30 3699 O 351.966 -0.953898 -1.50874 0
M  V30 3700 C 349.066 -1.89337 -2.81078 0
M  V30 3701 C 348.239 -3.19443 -2.98789 0
M  V30 3702 C 347.298 -3.20036 -4.17688 0
M  V30 3703 O 346.324 -3.93697 -4.11086 0
M  V30 3704 N 347.526 -2.43467 -5.26976 0
M  V30 3705 H 350.291 -2.74139 -1.21111 0
M  V30 3706 H 347.852 -1.53373 -0.518499 0
M  V30 3707 H 349.844 -1.87167 -3.58818 0
M  V30 3708 H 348.414 -1.01826 -2.95551 0
M  V30 3709 H 347.634 -3.34614 -2.08391 0
M  V30 3710 H 348.922 -4.05354 -3.07515 0
M  V30 3711 H 348.32 -1.83201 -5.35214 0
M  V30 3712 H 346.877 -2.4708 -6.03154 0
M  V30 3713 N 350.31 0.590341 -1.46126 0
M  V30 3714 C 351.257 1.69994 -1.56111 0
M  V30 3715 C 352.227 1.61065 -0.405867 0
M  V30 3716 O 353.412 1.8039 -0.621613 0
M  V30 3717 C 350.552 3.08326 -1.55013 0
M  V30 3718 C 349.665 3.27936 -2.81215 0
M  V30 3719 C 348.8 4.56473 -2.71673 0
M  V30 3720 C 347.839 4.694 -3.92849 0
M  V30 3721 N 346.976 5.89254 -3.81738 0
M  V30 3722 H 351.816 1.60797 -2.50895 0
M  V30 3723 H 349.353 0.783799 -1.24479 0
M  V30 3724 H 351.311 3.88383 -1.52362 0
M  V30 3725 H 349.941 3.16439 -0.637667 0
M  V30 3726 H 348.993 2.41536 -2.93879 0
M  V30 3727 H 350.305 3.33357 -3.71045 0
M  V30 3728 H 349.459 5.44748 -2.67085 0
M  V30 3729 H 348.198 4.53477 -1.7947 0
M  V30 3730 H 347.203 3.79544 -3.97777 0
M  V30 3731 H 348.428 4.7418 -4.86138 0
M  V30 3732 H 346.374 5.87271 -2.92317 0
M  V30 3733 H 346.291 5.95911 -4.65217 0
M  V30 3734 H 347.559 6.79981 -3.81112 0
M  V30 3735 N 351.788 1.33704 0.83433 0
M  V30 3736 C 352.718 1.26967 1.95963 0
M  V30 3737 C 353.699 0.149337 1.69443 0
M  V30 3738 O 354.884 0.339852 1.91203 0
M  V30 3739 C 352.014 1.01275 3.32206 0
M  V30 3740 C 350.968 2.09652 3.73136 0
M  V30 3741 C 350.294 1.69166 5.07235 0
M  V30 3742 C 351.594 3.51372 3.86439 0
M  V30 3743 H 353.288 2.2112 2.01857 0
M  V30 3744 H 350.834 1.06447 0.969793 0
M  V30 3745 H 352.787 0.952106 4.10503 0
M  V30 3746 H 351.511 0.0356203 3.26581 0
M  V30 3747 H 350.17 2.14766 2.97104 0
M  V30 3748 H 349.818 0.701437 4.98085 0
M  V30 3749 H 349.518 2.41694 5.35591 0
M  V30 3750 H 351.042 1.64576 5.88003 0
M  V30 3751 H 352.456 3.48734 4.55036 0
M  V30 3752 H 350.853 4.22425 4.26236 0
M  V30 3753 H 351.923 3.89546 2.88759 0
M  V30 3754 N 353.266 -1.05314 1.17247 0
M  V30 3755 C 354.198 -2.13023 0.845812 0
M  V30 3756 C 355.211 -1.62096 -0.151246 0
M  V30 3757 O 356.4 -1.78343 0.0748818 0
M  V30 3758 C 353.5 -3.38047 0.240292 0
M  V30 3759 C 352.673 -4.18255 1.27991 0
M  V30 3760 C 351.732 -5.21625 0.692375 0
M  V30 3761 O 350.758 -5.52619 1.36385 0
M  V30 3762 N 351.96 -5.78201 -0.516178 0
M  V30 3763 H 354.725 -2.41642 1.77283 0
M  V30 3764 H 352.286 -1.21401 1.07115 0
M  V30 3765 H 354.278 -4.04359 -0.16603 0
M  V30 3766 H 352.848 -3.06972 -0.590487 0
M  V30 3767 H 352.068 -3.47451 1.86203 0
M  V30 3768 H 353.356 -4.68643 1.98119 0
M  V30 3769 H 352.754 -5.55301 -1.07969 0
M  V30 3770 H 351.311 -6.4604 -0.86458 0
M  V30 3771 N 354.744 -0.972509 -1.24016 0
M  V30 3772 C 355.691 -0.505969 -2.25186 0
M  V30 3773 C 356.661 0.451009 -1.5986 0
M  V30 3774 O 357.846 0.360307 -1.87367 0
M  V30 3775 C 354.986 0.193089 -3.44559 0
M  V30 3776 C 354.099 -0.803222 -4.24467 0
M  V30 3777 C 353.234 -0.0797793 -5.3114 0
M  V30 3778 C 352.273 -1.06583 -6.02749 0
M  V30 3779 N 351.41 -0.372074 -7.01113 0
M  V30 3780 H 356.25 -1.37351 -2.64459 0
M  V30 3781 H 353.787 -0.688419 -1.29997 0
M  V30 3782 H 355.745 0.615125 -4.1264 0
M  V30 3783 H 354.375 1.02455 -3.06109 0
M  V30 3784 H 353.427 -1.34368 -3.55878 0
M  V30 3785 H 354.739 -1.55494 -4.73944 0
M  V30 3786 H 353.893 0.400015 -6.0538 0
M  V30 3787 H 352.632 0.704597 -4.82583 0
M  V30 3788 H 351.637 -1.55645 -5.27309 0
M  V30 3789 H 352.862 -1.85074 -6.53395 0
M  V30 3790 H 350.808 0.393238 -6.5482 0
M  V30 3791 H 350.725 -1.06258 -7.48495 0
M  V30 3792 H 351.993 0.0855932 -7.79453 0
M  V30 3793 N 356.222 1.38976 -0.743202 0
M  V30 3794 C 357.447 2.05161 -0.303936 0
M  V30 3795 C 357.872 1.55677 1.05576 0
M  V30 3796 O 357.23 0.704131 1.67068 0
M  V30 3797 C 357.278 3.59138 -0.324373 0
M  V30 3798 O 356.382 4.06668 0.685204 0
M  V30 3799 H 355.723 0.649815 -0.136518 0
M  V30 3800 H 358.253 1.77852 -1.01142 0
M  V30 3801 H 358.263 4.07639 -0.171618 0
M  V30 3802 H 356.938 3.94515 -1.31647 0
M  V30 3803 H 355.515 3.69561 0.497913 0
M  V30 3804 N 357.7 0.491464 1.49741 0
M  V30 3805 C 358.61 -0.296835 2.32715 0
M  V30 3806 C 359.626 -0.976536 1.44013 0
M  V30 3807 O 360.802 -0.960023 1.77047 0
M  V30 3808 C 357.867 -1.35288 3.19215 0
M  V30 3809 C 356.928 -0.687632 4.23757 0
M  V30 3810 C 356.161 -1.69336 5.06123 0
M  V30 3811 O 356.384 -2.92219 4.89861 0
M  V30 3812 O 355.318 -1.25394 5.88693 0
M  V30 3813 H 359.144 0.382048 3.01287 0
M  V30 3814 H 356.729 0.252953 1.47243 0
M  V30 3815 H 358.611 -1.96411 3.72828 0
M  V30 3816 H 357.286 -2.01487 2.53347 0
M  V30 3817 H 356.193 -0.0369159 3.74082 0
M  V30 3818 H 357.526 -0.0682566 4.92153 0
M  V30 3819 N 359.178 -1.55987 0.224894 0
M  V30 3820 C 360.418 -2.00293 -0.407706 0
M  V30 3821 C 360.782 -1.1093 -1.56711 0
M  V30 3822 O 361.983 -1.44597 -2.26595 0
M  V30 3823 C 360.254 -3.47675 -0.82805 0
M  V30 3824 S 361.813 -4.14 -1.45429 0
M  V30 3825 H 358.631 -0.699152 -0.129256 0
M  V30 3826 H 361.233 -1.92609 0.334967 0
M  V30 3827 H 359.937 -4.10392 0.0253964 0
M  V30 3828 H 359.468 -3.59239 -1.60345 0
M  V30 3829 H 361.483 -4.13465 -2.74337 0
M  V30 3830 N 360.656 0.0484629 -1.57525 0
M  V30 3831 C 361.905 0.742065 -1.87553 0
M  V30 3832 C 362.218 1.77545 -0.820802 0
M  V30 3833 O 363.424 2.52027 -1.00967 0
M  V30 3834 C 361.88 1.37081 -3.32771 0
M  V30 3835 C 361.488 0.374786 -4.4643 0
M  V30 3836 C 363.232 2.04542 -3.71972 0
M  V30 3837 C 361.139 1.01077 -5.82698 0
M  V30 3838 H 360.069 0.280903 -0.699721 0
M  V30 3839 H 362.72 -0.00411877 -1.835 0
M  V30 3840 H 361.102 2.16605 -3.31509 0
M  V30 3841 H 362.276 -0.392331 -4.59127 0
M  V30 3842 H 360.591 -0.196653 -4.15935 0
M  V30 3843 H 363.188 2.52943 -4.71088 0
M  V30 3844 H 363.531 2.85515 -3.02964 0
M  V30 3845 H 364.064 1.31819 -3.75325 0
M  V30 3846 H 360.803 0.240878 -6.55057 0
M  V30 3847 H 360.323 1.74819 -5.73758 0
M  V30 3848 H 362.002 1.52383 -6.28799 0
M  V30 3849 N 362.134 1.5431 0.320358 0
M  V30 3850 C 363.081 1.83918 1.39438 0
M  V30 3851 C 364.051 0.686525 1.51248 0
M  V30 3852 O 365.236 0.933269 1.66417 0
M  V30 3853 C 362.376 2.075 2.75749 0
M  V30 3854 C 361.489 3.35177 2.72544 0
M  V30 3855 C 360.624 3.48704 4.00723 0
M  V30 3856 C 359.663 4.70244 3.91838 0
M  V30 3857 N 358.8 4.80679 5.11754 0
M  V30 3858 H 363.64 2.75544 1.13489 0
M  V30 3859 H 361.177 1.36459 0.549309 0
M  V30 3860 H 363.135 2.19166 3.54996 0
M  V30 3861 H 361.765 1.19163 3 0
M  V30 3862 H 360.817 3.32233 1.85271 0
M  V30 3863 H 362.129 4.24534 2.61863 0
M  V30 3864 H 361.283 3.59928 4.88402 0
M  V30 3865 H 360.022 2.57445 4.14214 0
M  V30 3866 H 359.027 4.59072 3.02544 0
M  V30 3867 H 360.252 5.6289 3.7991 0
M  V30 3868 H 358.198 3.92337 5.25745 0
M  V30 3869 H 358.115 5.64007 5.0342 0
M  V30 3870 H 359.383 4.96239 6.01138 0
M  V30 3871 N 363.613 -0.582584 1.46437 0
M  V30 3872 C 364.543 -1.70187 1.59871 0
M  V30 3873 C 365.524 -1.64066 0.449042 0
M  V30 3874 O 366.709 -1.82081 0.6753 0
M  V30 3875 C 363.839 -3.08827 1.58881 0
M  V30 3876 C 362.793 -3.29779 2.72819 0
M  V30 3877 C 362.119 -4.68947 2.5689 0
M  V30 3878 C 363.419 -3.17601 4.1464 0
M  V30 3879 H 365.113 -1.592 2.53566 0
M  V30 3880 H 362.659 -0.764472 1.22032 0
M  V30 3881 H 364.612 -3.86951 1.66873 0
M  V30 3882 H 363.336 -3.20713 0.617306 0
M  V30 3883 H 361.995 -2.54054 2.64296 0
M  V30 3884 H 361.643 -4.77599 1.57823 0
M  V30 3885 H 361.343 -4.83919 3.33312 0
M  V30 3886 H 362.867 -5.4924 2.66773 0
M  V30 3887 H 364.281 -3.8557 4.24274 0
M  V30 3888 H 362.678 -3.44094 4.9165 0
M  V30 3889 H 363.748 -2.14681 4.34788 0
M  V30 3890 N 365.091 -1.34144 -0.827227 0
M  V30 3891 C 366.507 -1.13732 -1.11969 0
M  V30 3892 C 366.707 0.0640463 -2.01398 0
M  V30 3893 O 365.763 0.740856 -2.41387 0
M  V30 3894 C 367.076 -2.43047 -1.77055 0
M  V30 3895 C 368.624 -2.49063 -1.89569 0
M  V30 3896 C 369.099 -3.78369 -2.58072 0
M  V30 3897 N 370.59 -3.79505 -2.65575 0
M  V30 3898 C 371.325 -4.76274 -3.19297 0
M  V30 3899 N 370.821 -5.83424 -3.73616 0
M  V30 3900 N 372.614 -4.63735 -3.17658 0
M  V30 3901 H 364.765 -2.11126 -0.232296 0
M  V30 3902 H 367.028 -0.933424 -0.165602 0
M  V30 3903 H 366.734 -3.31025 -1.18807 0
M  V30 3904 H 366.608 -2.56066 -2.76966 0
M  V30 3905 H 368.995 -1.61527 -2.46968 0
M  V30 3906 H 369.076 -2.39975 -0.885745 0
M  V30 3907 H 368.72 -4.66293 -2.01329 0
M  V30 3908 H 368.65 -3.84737 -3.59562 0
M  V30 3909 H 371.141 -3.02074 -2.27068 0
M  V30 3910 H 371.454 -6.53282 -4.12846 0
M  V30 3911 H 369.799 -5.87143 -3.71871 0
M  V30 3912 H 372.99 -3.79177 -2.74486 0
M  V30 3913 H 373.163 -5.39318 -3.59221 0
M  V30 3914 N 366.569 1.04691 -1.17803 0
M  V30 3915 C 367.479 2.16057 -0.914151 0
M  V30 3916 C 368.495 1.73589 0.119503 0
M  V30 3917 O 369.671 2.01308 -0.0609468 0
M  V30 3918 C 366.736 3.4394 -0.436603 0
M  V30 3919 C 365.797 4.00825 -1.53746 0
M  V30 3920 C 365.03 5.22604 -1.0826 0
M  V30 3921 O 365.253 5.70367 0.0612244 0
M  V30 3922 O 364.187 5.7186 -1.87775 0
M  V30 3923 H 368.013 2.41169 -1.84584 0
M  V30 3924 H 365.598 1.1453 -0.959334 0
M  V30 3925 H 367.48 4.21024 -0.178057 0
M  V30 3926 H 366.155 3.20316 0.466869 0
M  V30 3927 H 365.062 3.25158 -1.84995 0
M  V30 3928 H 366.395 4.28778 -2.41683 0
M  V30 3929 N 368.047 0.979072 1.23499 0
M  V30 3930 C 369.293 0.648178 1.92163 0
M  V30 3931 C 369.626 -0.816049 1.76222 0
M  V30 3932 O 368.901 -1.58849 1.12237 0
M  V30 3933 C 369.184 1.03773 3.44824 0
M  V30 3934 C 369.037 2.55948 3.69879 0
M  V30 3935 C 370.356 0.580653 4.36253 0
M  V30 3936 H 367.475 0.236952 0.69787 0
M  V30 3937 H 370.117 1.22012 1.45647 0
M  V30 3938 H 368.267 0.551058 3.84572 0
M  V30 3939 H 369.939 3.12179 3.3962 0
M  V30 3940 H 368.182 2.98641 3.14636 0
M  V30 3941 H 368.853 2.78255 4.76737 0
M  V30 3942 H 371.329 0.998465 4.03943 0
M  V30 3943 H 370.205 0.881663 5.41773 0
M  V30 3944 H 370.466 -0.519052 4.39042 0
M  V30 3945 N 369.525 -1.3858 0.750561 0
M  V30 3946 C 370.936 -1.82927 0.373438 0
M  V30 3947 C 371.287 -1.62634 -1.09748 0
M  V30 3948 O 370.412 -1.12588 -1.84805 0
M  V30 3949 C 371.007 -3.32088 0.671029 0
M  V30 3950 C 369.566 -3.74795 0.34722 0
M  V30 3951 C 368.713 -2.61391 0.92575 0
M  V30 3952 H 371.664 -1.27351 0.946958 0
M  V30 3953 H 371.685 -3.80465 -0.0518269 0
M  V30 3954 H 371.197 -3.46826 1.74164 0
M  V30 3955 H 369.298 -3.65638 -0.716933 0
M  V30 3956 H 369.411 -4.71667 0.840656 0
M  V30 3957 H 367.775 -2.52265 0.351327 0
M  V30 3958 H 368.558 -2.78929 2.00133 0
M  V30 3959 N 371.003 -0.499398 -1.49478 0
M  V30 3960 C 372.251 0.0455996 -2.02049 0
M  V30 3961 C 372.572 1.37633 -1.38138 0
M  V30 3962 O 371.842 1.8842 -0.536166 0
M  V30 3963 H 370.422 0.0198416 -0.746736 0
M  V30 3964 H 373.084 -0.656274 -1.83519 0
M  V30 3965 H 372.18 0.176445 -3.11601 0
M  V30 3966 N 372.481 1.55866 -0.233164 0
M  V30 3967 C 373.73 1.97779 0.39579 0
M  V30 3968 C 374.043 1.12419 1.60066 0
M  V30 3969 O 375.249 1.44283 2.29988 0
M  V30 3970 C 373.705 3.5188 0.755556 0
M  V30 3971 C 373.313 4.45959 -0.427152 0
M  V30 3972 C 375.057 4.02479 1.34946 0
M  V30 3973 C 372.964 5.91383 -0.0443043 0
M  V30 3974 H 371.894 0.738592 0.15165 0
M  V30 3975 H 374.545 1.80486 -0.331212 0
M  V30 3976 H 372.927 3.64816 1.5403 0
M  V30 3977 H 374.101 4.44776 -1.20462 0
M  V30 3978 H 372.416 4.05765 -0.935068 0
M  V30 3979 H 375.013 5.08637 1.649 0
M  V30 3980 H 375.356 3.49014 2.26925 0
M  V30 3981 H 375.889 3.92813 0.62791 0
M  V30 3982 H 372.628 6.48857 -0.930874 0
M  V30 3983 H 372.148 5.95734 0.697238 0
M  V30 3984 H 373.827 6.45893 0.378334 0
M  V30 3985 N 373.959 -0.0401083 1.57549 0
M  V30 3986 C 374.869 -1.06133 2.0922 0
M  V30 3987 C 375.885 -1.40356 1.0284 0
M  V30 3988 O 377.061 -1.49897 1.34509 0
M  V30 3989 C 374.126 -2.34658 2.55218 0
M  V30 3990 C 373.187 -2.07117 3.76033 0
M  V30 3991 C 372.42 -3.29514 4.19829 0
M  V30 3992 O 372.643 -4.39794 3.63232 0
M  V30 3993 O 371.577 -3.15863 5.12362 0
M  V30 3994 H 375.403 -0.652244 2.96613 0
M  V30 3995 H 372.988 -0.256368 1.47184 0
M  V30 3996 H 374.87 -3.10239 2.85184 0
M  V30 3997 H 373.545 -2.74883 1.70941 0
M  V30 3998 H 372.452 -1.29139 3.51104 0
M  V30 3999 H 373.785 -1.71754 4.61261 0
M  V30 4000 N 375.437 -1.54477 -0.31217 0
M  V30 4001 C 376.714 -1.63891 -1.06767 0
M  V30 4002 C 377.094 -0.480028 -2.0557 0
M  V30 4003 O 376.442 0.524487 -2.22399 0
M  V30 4004 C 376.652 -3.01402 -1.75948 0
M  V30 4005 C 378 -3.57838 -2.28554 0
M  V30 4006 O 379.024 -3.03782 -1.85998 0
M  V30 4007 O 377.883 -4.52462 -3.06497 0
M  V30 4008 H 374.977 -0.664125 -0.492816 0
M  V30 4009 H 377.523 -1.66823 -0.311149 0
M  V30 4010 H 376.295 -3.77187 -1.04144 0
M  V30 4011 H 375.918 -3.02199 -2.58383 0
M  V30 4012 N 376.915 0.57481 -1.46744 0
M  V30 4013 C 378.143 1.35856 -1.56047 0
M  V30 4014 C 378.558 1.87691 -0.204365 0
M  V30 4015 O 377.915 1.64049 0.79963 0
M  V30 4016 C 377.966 2.54066 -2.57163 0
M  V30 4017 O 377.687 2.04377 -3.87507 0
M  V30 4018 C 379.188 3.46514 -2.76483 0
M  V30 4019 H 376.408 0.414754 -0.527466 0
M  V30 4020 H 378.952 0.698035 -1.92218 0
M  V30 4021 H 377.107 3.16092 -2.23974 0
M  V30 4022 H 377.521 2.81419 -4.4261 0
M  V30 4023 H 378.995 4.25919 -3.51137 0
M  V30 4024 H 379.472 3.98951 -1.83671 0
M  V30 4025 H 380.078 2.90318 -3.10799 0
M  V30 4026 N 378.394 1.34581 0.820102 0
M  V30 4027 C 379.324 1.29038 1.94606 0
M  V30 4028 C 380.305 0.1673 1.69275 0
M  V30 4029 O 381.49 0.360112 1.90832 0
M  V30 4030 C 378.62 1.04793 3.31113 0
M  V30 4031 C 377.574 2.13597 3.70891 0
M  V30 4032 C 376.9 1.74537 5.05412 0
M  V30 4033 C 378.2 3.55451 3.8269 0
M  V30 4034 H 379.894 2.23248 1.99501 0
M  V30 4035 H 377.44 1.0747 0.958449 0
M  V30 4036 H 379.393 0.995592 4.0947 0
M  V30 4037 H 378.117 0.0702565 3.26524 0
M  V30 4038 H 376.776 2.17905 2.9481 0
M  V30 4039 H 376.424 0.754226 4.97313 0
M  V30 4040 H 376.124 2.47361 5.32997 0
M  V30 4041 H 377.648 1.70803 5.86224 0
M  V30 4042 H 379.062 3.5354 4.51312 0
M  V30 4043 H 377.459 4.26922 4.21732 0
M  V30 4044 H 378.529 3.92587 2.84611 0
M  V30 4045 N 379.872 -1.04064 1.18357 0
M  V30 4046 C 381.119 -1.77265 0.978947 0
M  V30 4047 C 381.447 -1.88189 -0.491428 0
M  V30 4048 O 380.702 -1.38653 -1.38108 0
M  V30 4049 C 381.001 -3.20634 1.57888 0
M  V30 4050 C 380.667 -3.29743 3.07539 0
M  V30 4051 C 379.329 -3.31937 3.48384 0
M  V30 4052 C 381.681 -3.29841 4.03552 0
M  V30 4053 C 379.009 -3.3187 4.83818 0
M  V30 4054 C 381.361 -3.31313 5.38901 0
M  V30 4055 C 380.025 -3.31799 5.79194 0
M  V30 4056 H 379.295 -0.648659 0.358222 0
M  V30 4057 H 381.942 -1.22225 1.47422 0
M  V30 4058 H 380.247 -3.78675 1.00561 0
M  V30 4059 H 381.944 -3.75917 1.39598 0
M  V30 4060 H 378.534 -3.28757 2.74986 0
M  V30 4061 H 382.718 -3.27337 3.73047 0
M  V30 4062 H 377.974 -3.30562 5.14333 0
M  V30 4063 H 382.148 -3.30338 6.13066 0
M  V30 4064 H 379.775 -3.315 6.84114 0
M  V30 4065 N 381.35 -0.985608 -1.22978 0
M  V30 4066 C 382.313 -0.535071 -2.22867 0
M  V30 4067 C 383.313 0.378123 -1.56291 0
M  V30 4068 O 384.503 0.171092 -1.73358 0
M  V30 4069 C 381.635 0.222702 -3.40172 0
M  V30 4070 H 382.828 -1.41835 -2.6424 0
M  V30 4071 H 380.381 -0.772042 -1.35901 0
M  V30 4072 H 381.116 1.12229 -3.04262 0
M  V30 4073 H 380.901 -0.43288 -3.89703 0
M  V30 4074 H 382.391 0.526335 -4.1427 0
M  V30 4075 N 382.828 1.3818 -0.7579 0
M  V30 4076 C 384.074 2.00316 -0.316453 0
M  V30 4077 C 384.407 1.60026 1.10025 0
M  V30 4078 O 383.682 0.839835 1.75434 0
M  V30 4079 C 383.965 3.57349 -0.444245 0
M  V30 4080 C 383.818 4.07591 -1.90236 0
M  V30 4081 C 385.137 4.3981 0.1598 0
M  V30 4082 H 382.256 0.727741 -0.116459 0
M  V30 4083 H 384.898 1.6406 -0.958352 0
M  V30 4084 H 383.048 3.88365 0.102233 0
M  V30 4085 H 384.72 3.87199 -2.50748 0
M  V30 4086 H 382.963 3.60297 -2.41595 0
M  V30 4087 H 383.634 5.16677 -1.94291 0
M  V30 4088 H 386.11 4.14971 -0.306314 0
M  V30 4089 H 384.986 5.48885 0.0401675 0
M  V30 4090 H 385.247 4.24102 1.24859 0
M  V30 4091 N 384.306 0.507319 1.49211 0
M  V30 4092 C 385.236 -0.256939 2.32082 0
M  V30 4093 C 386.217 -0.956609 1.40652 0
M  V30 4094 O 387.402 -0.946788 1.69557 0
M  V30 4095 C 384.532 -1.31802 3.21318 0
M  V30 4096 C 383.486 -0.737855 4.21592 0
M  V30 4097 C 382.812 -1.89992 4.99807 0
M  V30 4098 C 384.112 0.275325 5.21574 0
M  V30 4099 H 385.806 0.434798 2.96226 0
M  V30 4100 H 383.352 0.210546 1.42452 0
M  V30 4101 H 385.305 -1.86045 3.78107 0
M  V30 4102 H 384.029 -2.03903 2.5513 0
M  V30 4103 H 382.688 -0.217126 3.65956 0
M  V30 4104 H 382.336 -2.60877 4.30061 0
M  V30 4105 H 382.036 -1.51777 5.6766 0
M  V30 4106 H 383.56 -2.44657 5.59442 0
M  V30 4107 H 384.974 -0.179193 5.7302 0
M  V30 4108 H 383.371 0.573649 5.97352 0
M  V30 4109 H 384.441 1.18903 4.70096 0
M  V30 4110 N 385.784 -1.5574 0.241426 0
M  V30 4111 C 386.731 -2.21149 -0.660432 0
M  V30 4112 C 387.701 -1.17356 -1.17545 0
M  V30 4113 O 388.886 -1.45784 -1.23093 0
M  V30 4114 C 386.026 -2.91059 -1.85414 0
M  V30 4115 C 385.139 -4.09495 -1.37616 0
M  V30 4116 C 384.274 -4.67135 -2.529 0
M  V30 4117 C 383.313 -5.77831 -2.01936 0
M  V30 4118 N 382.45 -6.29677 -3.10566 0
M  V30 4119 H 387.29 -2.97845 -0.095955 0
M  V30 4120 H 384.827 -1.47057 -0.0356024 0
M  V30 4121 H 386.785 -3.29788 -2.5553 0
M  V30 4122 H 385.415 -2.16846 -2.39118 0
M  V30 4123 H 384.467 -3.76117 -0.569235 0
M  V30 4124 H 385.779 -4.89423 -0.962618 0
M  V30 4125 H 384.933 -5.08409 -3.31067 0
M  V30 4126 H 383.672 -3.86411 -2.97553 0
M  V30 4127 H 382.677 -5.36039 -1.22238 0
M  V30 4128 H 383.902 -6.60402 -1.58259 0
M  V30 4129 H 381.848 -5.5186 -3.54664 0
M  V30 4130 H 381.765 -7.04783 -2.73526 0
M  V30 4131 H 383.033 -6.75609 -3.88809 0
M  V30 4132 N 387.262 0.0317525 -1.57568 0
M  V30 4133 C 388.192 1.03274 -2.0942 0
M  V30 4134 C 389.173 1.3788 -0.996143 0
M  V30 4135 O 390.358 1.46811 -1.27122 0
M  V30 4136 C 387.488 2.33448 -2.57137 0
M  V30 4137 C 386.442 2.13091 -3.71182 0
M  V30 4138 C 385.768 3.49001 -4.05095 0
M  V30 4139 C 387.068 1.51928 -4.99715 0
M  V30 4140 H 388.762 0.60112 -2.93303 0
M  V30 4141 H 386.308 0.287705 -1.41097 0
M  V30 4142 H 388.261 3.03802 -2.92032 0
M  V30 4143 H 386.985 2.78665 -1.70333 0
M  V30 4144 H 385.644 1.45171 -3.36632 0
M  V30 4145 H 385.292 3.91862 -3.15362 0
M  V30 4146 H 384.992 3.36207 -4.81911 0
M  V30 4147 H 386.516 4.20721 -4.42522 0
M  V30 4148 H 387.93 2.12196 -5.32584 0
M  V30 4149 H 386.327 1.49716 -5.81124 0
M  V30 4150 H 387.397 0.484811 -4.8247 0
M  V30 4151 N 388.74 1.54641 0.303973 0
M  V30 4152 C 390.151 1.64811 0.877163 0
M  V30 4153 C 390.502 0.554838 1.88191 0
M  V30 4154 O 389.627 -0.309033 2.14182 0
M  V30 4155 C 390.222 2.9876 1.59775 0
M  V30 4156 C 388.781 3.11061 2.11938 0
M  V30 4157 C 387.928 2.60479 0.951097 0
M  V30 4158 H 390.879 1.58493 0.0810486 0
M  V30 4159 H 390.9 2.90017 2.46314 0
M  V30 4160 H 390.412 3.7831 0.866226 0
M  V30 4161 H 388.513 2.36225 2.88146 0
M  V30 4162 H 388.626 4.17171 2.35595 0
M  V30 4163 H 386.99 2.16859 1.33583 0
M  V30 4164 H 387.773 3.42504 0.233581 0
M  V30 4165 N 390.218 -0.567019 1.47046 0
M  V30 4166 C 391.128 -1.70247 1.6141 0
M  V30 4167 C 392.144 -1.66746 0.497157 0
M  V30 4168 O 393.32 -1.86371 0.763389 0
M  V30 4169 C 390.385 -3.06756 1.61561 0
M  V30 4170 C 389.446 -3.21399 2.84607 0
M  V30 4171 C 388.679 -4.51396 2.84741 0
M  V30 4172 O 388.902 -5.36255 1.94388 0
M  V30 4173 O 387.836 -4.69621 3.76483 0
M  V30 4174 H 391.662 -1.61073 2.57467 0
M  V30 4175 H 389.247 -0.735894 1.30019 0
M  V30 4176 H 391.129 -3.8801 1.64396 0
M  V30 4177 H 389.804 -3.16333 0.686684 0
M  V30 4178 H 388.711 -2.39579 2.8732 0
M  V30 4179 H 390.044 -3.16721 3.76761 0
M  V30 4180 N 391.696 -1.35014 -0.812953 0
M  V30 4181 C 392.626 -1.30069 -1.93919 0
M  V30 4182 C 393.607 -0.176275 -1.69184 0
M  V30 4183 O 394.792 -0.370227 -1.90638 0
M  V30 4184 C 391.922 -1.06547 -3.30552 0
M  V30 4185 C 390.876 -2.15561 -3.69753 0
M  V30 4186 C 390.202 -1.77214 -5.04479 0
M  V30 4187 C 391.502 -3.57476 -3.808 0
M  V30 4188 H 393.196 -2.24303 -1.98314 0
M  V30 4189 H 390.742 -1.07977 -0.952736 0
M  V30 4190 H 392.695 -1.01729 -4.08937 0
M  V30 4191 H 391.419 -0.0875719 -3.26483 0
M  V30 4192 H 390.078 -2.19466 -2.9365 0
M  V30 4193 H 389.726 -0.780589 -4.96906 0
M  V30 4194 H 389.426 -2.50184 -5.31678 0
M  V30 4195 H 390.95 -1.7391 -5.8531 0
M  V30 4196 H 392.364 -3.55929 -4.4943 0
M  V30 4197 H 390.761 -4.29152 -4.19462 0
M  V30 4198 H 391.831 -3.94091 -2.82525 0
M  V30 4199 N 393.175 1.03435 -1.18907 0
M  V30 4200 C 394.415 1.78302 -0.999391 0
M  V30 4201 C 394.779 1.86353 0.462219 0
M  V30 4202 O 395.98 2.57489 0.771543 0
M  V30 4203 C 394.251 3.17362 -1.64365 0
M  V30 4204 S 395.81 4.08488 -1.6026 0
M  V30 4205 H 392.628 0.613861 -0.358742 0
M  V30 4206 H 395.23 1.23979 -1.51161 0
M  V30 4207 H 393.934 3.09116 -2.69955 0
M  V30 4208 H 393.465 3.76762 -1.13199 0
M  V30 4209 H 395.48 4.92274 -0.622932 0
M  V30 4210 N 394.653 0.992116 1.22453 0
M  V30 4211 C 395.901 0.666215 1.90804 0
M  V30 4212 C 396.222 -0.804152 1.77647 0
M  V30 4213 O 395.492 -1.57629 1.16318 0
M  V30 4214 H 394.072 0.243423 0.706225 0
M  V30 4215 H 396.734 1.25845 1.48825 0
M  V30 4216 H 395.83 0.928069 2.97982 0
M  V30 4217 N 396.131 -1.37776 0.765217 0
M  V30 4218 C 397.041 -2.34135 0.147666 0
M  V30 4219 C 398.057 -1.59854 -0.687215 0
M  V30 4220 O 399.233 -1.91983 -0.608659 0
M  V30 4221 C 396.298 -3.3901 -0.72617 0
M  V30 4222 C 395.359 -4.2912 0.124417 0
M  V30 4223 C 394.592 -5.28986 -0.707807 0
M  V30 4224 O 394.815 -5.36205 -1.94525 0
M  V30 4225 O 393.749 -6.01779 -0.12046 0
M  V30 4226 H 397.575 -2.88664 0.943758 0
M  V30 4227 H 395.16 -1.39824 0.526277 0
M  V30 4228 H 397.042 -4.03195 -1.22524 0
M  V30 4229 H 395.717 -2.86819 -1.50056 0
M  V30 4230 H 394.624 -3.68057 0.669696 0
M  V30 4231 H 395.957 -4.84598 0.861736 0
M  V30 4232 N 397.609 -0.515225 -1.4894 0
M  V30 4233 C 398.856 0.024215 -2.02486 0
M  V30 4234 C 399.184 1.35671 -1.39368 0
M  V30 4235 O 398.439 1.88566 -0.523574 0
M  V30 4236 C 398.738 0.210595 -3.56779 0
M  V30 4237 C 398.404 -1.04569 -4.38607 0
M  V30 4238 C 397.066 -1.39002 -4.60686 0
M  V30 4239 C 399.418 -1.88008 -4.86109 0
M  V30 4240 C 396.746 -2.568 -5.27514 0
M  V30 4241 C 399.098 -3.04972 -5.54234 0
M  V30 4242 C 397.762 -3.39768 -5.74555 0
M  V30 4243 H 397.032 0.00886088 -0.740947 0
M  V30 4244 H 399.679 -0.678263 -1.79086 0
M  V30 4245 H 397.984 0.99572 -3.78936 0
M  V30 4246 H 399.681 0.642659 -3.95817 0
M  V30 4247 H 396.271 -0.767497 -4.21672 0
M  V30 4248 H 400.455 -1.62719 -4.68867 0
M  V30 4249 H 395.711 -2.8398 -5.41447 0
M  V30 4250 H 399.885 -3.69943 -5.90013 0
M  V30 4251 H 397.512 -4.31148 -6.26112 0
M  V30 4252 N 399.087 1.5561 -0.249682 0
M  V30 4253 C 400.335 1.98618 0.373548 0
M  V30 4254 C 400.656 1.13919 1.58264 0
M  V30 4255 O 399.926 0.222637 1.94631 0
M  V30 4256 H 398.506 0.733571 0.141006 0
M  V30 4257 H 401.168 1.91748 -0.349117 0
M  V30 4258 H 400.264 3.04584 0.680796 0
M  V30 4259 N 400.565 -0.0233959 1.57583 0
M  V30 4260 C 401.513 -1.04063 2.08023 0
M  V30 4261 C 402.507 -1.37084 0.995204 0
M  V30 4262 O 403.713 -1.35923 1.18004 0
M  V30 4263 H 400.088 -0.353144 0.663922 0
M  V30 4264 H 402.059 -0.589453 2.9252 0
M  V30 4265 C 400.808 -2.33123 2.57971 0
M  V30 4266 H 400.131 -2.08577 3.4108 0
M  V30 4267 H 401.571 -3.02632 2.96967 0
M  V30 4268 C 400.03 -3.02483 1.48342 0
M  V30 4269 O 400.56 -3.92541 0.852898 0
M  V30 4270 N 398.766 -2.63909 1.21658 0
M  V30 4271 H 398.313 -1.90758 1.73116 0
M  V30 4272 H 398.271 -3.10633 0.485218 0
M  V30 4273 N 402.043 -1.548 -0.295768 0
M  V30 4274 C 403.292 -1.73538 -1.02798 0
M  V30 4275 C 403.605 -0.531159 -1.8825 0
M  V30 4276 O 404.811 -0.600458 -2.64777 0
M  V30 4277 C 403.267 -3.07051 -1.87744 0
M  V30 4278 C 402.875 -4.34968 -1.07269 0
M  V30 4279 C 404.619 -3.35146 -2.60533 0
M  V30 4280 C 402.526 -5.5953 -1.91521 0
M  V30 4281 H 401.456 -0.646794 -0.387522 0
M  V30 4282 H 404.107 -1.81278 -0.284718 0
M  V30 4283 H 402.489 -2.93289 -2.66078 0
M  V30 4284 H 403.663 -4.5958 -0.335117 0
M  V30 4285 H 401.978 -4.13847 -0.460384 0
M  V30 4286 H 404.575 -4.2541 -3.23929 0
M  V30 4287 H 404.918 -2.54255 -3.29636 0
M  V30 4288 H 405.451 -3.49902 -1.89244 0
M  V30 4289 H 402.19 -6.43103 -1.26878 0
M  V30 4290 H 401.71 -5.39096 -2.62937 0
M  V30 4291 H 403.389 -5.96982 -2.49442 0
M  V30 4292 N 403.521 0.559213 -1.47345 0
M  V30 4293 C 404.451 1.67622 -1.62558 0
M  V30 4294 C 405.432 1.63331 -0.475087 0
M  V30 4295 O 406.617 1.80983 -0.704182 0
M  V30 4296 C 403.747 3.0626 -1.63774 0
M  V30 4297 C 402.701 3.25397 -2.7803 0
M  V30 4298 C 402.027 4.64801 -2.64318 0
M  V30 4299 C 403.327 3.10965 -4.19641 0
M  V30 4300 H 405.021 1.55146 -2.56067 0
M  V30 4301 H 402.567 0.744961 -1.23233 0
M  V30 4302 H 404.52 3.84247 -1.73008 0
M  V30 4303 H 403.244 3.1969 -0.66825 0
M  V30 4304 H 401.903 2.49817 -2.68304 0
M  V30 4305 H 401.551 4.75028 -1.65401 0
M  V30 4306 H 401.251 4.78555 -3.40968 0
M  V30 4307 H 402.775 5.44926 -2.75478 0
M  V30 4308 H 404.189 3.78772 -4.30354 0
M  V30 4309 H 402.586 3.36229 -4.97062 0
M  V30 4310 H 403.656 2.07736 -4.38148 0
M  V30 4311 N 404.999 1.35443 0.805782 0
M  V30 4312 C 406.41 1.25768 1.37983 0
M  V30 4313 C 406.761 -0.10958 1.95894 0
M  V30 4314 O 405.886 -1.01056 1.91355 0
M  V30 4315 C 406.481 2.27727 2.5085 0
M  V30 4316 C 405.04 2.2179 3.04115 0
M  V30 4317 C 404.187 2.13393 1.77084 0
M  V30 4318 H 407.138 1.4656 0.608752 0
M  V30 4319 H 407.159 1.90422 3.29424 0
M  V30 4320 H 406.671 3.27227 2.08671 0
M  V30 4321 H 404.772 1.25703 3.50756 0
M  V30 4322 H 404.885 3.13788 3.62042 0
M  V30 4323 H 403.249 1.59384 1.98668 0
M  V30 4324 H 404.032 3.14755 1.37056 0
M  V30 4325 N 406.477 -1.02803 1.19454 0
M  V30 4326 C 407.407 -2.12999 0.956758 0
M  V30 4327 C 408.388 -1.69743 -0.110188 0
M  V30 4328 O 409.573 -1.94148 0.0450038 0
M  V30 4329 C 406.703 -3.43746 0.495553 0
M  V30 4330 C 405.657 -4.00688 1.50443 0
M  V30 4331 C 404.983 -5.27067 0.900275 0
M  V30 4332 C 406.283 -4.35397 2.8849 0
M  V30 4333 H 407.977 -2.33148 1.87836 0
M  V30 4334 H 405.523 -1.12045 0.904539 0
M  V30 4335 H 407.476 -4.2021 0.316493 0
M  V30 4336 H 406.2 -3.23321 -0.461646 0
M  V30 4337 H 404.859 -3.2632 1.67065 0
M  V30 4338 H 404.507 -5.02959 -0.064503 0
M  V30 4339 H 404.207 -5.66127 1.57397 0
M  V30 4340 H 405.731 -6.06196 0.73203 0
M  V30 4341 H 407.145 -5.02795 2.75446 0
M  V30 4342 H 405.542 -4.85541 3.52661 0
M  V30 4343 H 406.612 -3.44662 3.41081 0
M  V30 4344 N 407.956 -0.998596 -1.21925 0
M  V30 4345 C 409.202 -0.688337 -1.91399 0
M  V30 4346 C 409.557 0.771805 -1.76241 0
M  V30 4347 O 408.85 1.55153 -1.1242 0
M  V30 4348 C 409.044 -1.03648 -3.42041 0
M  V30 4349 C 408.873 -2.52892 -3.71855 0
M  V30 4350 C 407.643 -3.19389 -3.91559 0
M  V30 4351 C 409.841 -3.5103 -3.75875 0
M  V30 4352 N 407.823 -4.5805 -4.08734 0
M  V30 4353 C 409.194 -4.75174 -3.98259 0
M  V30 4354 C 411.249 -3.45257 -3.58751 0
M  V30 4355 C 409.952 -5.94247 -4.05294 0
M  V30 4356 C 411.978 -4.63712 -3.67049 0
M  V30 4357 C 411.34 -5.86658 -3.89887 0
M  V30 4358 H 407.439 -0.303251 -0.720807 0
M  V30 4359 H 410.023 -1.27977 -1.46731 0
M  V30 4360 H 408.194 -0.473569 -3.85502 0
M  V30 4361 H 409.926 -0.681619 -3.98919 0
M  V30 4362 H 406.681 -2.69846 -3.89205 0
M  V30 4363 H 407.105 -5.29989 -4.21237 0
M  V30 4364 H 411.747 -2.51215 -3.40075 0
M  V30 4365 H 409.465 -6.88687 -4.22772 0
M  V30 4366 H 413.051 -4.6084 -3.5513 0
M  V30 4367 H 411.931 -6.76786 -3.96144 0
M  V30 4368 N 409.434 1.37368 -0.772513 0
M  V30 4369 C 410.397 2.28601 -0.165541 0
M  V30 4370 C 411.397 1.48062 0.627238 0
M  V30 4371 O 412.587 1.68268 0.450715 0
M  V30 4372 C 409.719 3.32023 0.772897 0
M  V30 4373 H 410.912 2.83787 -0.969787 0
M  V30 4374 H 408.465 1.46647 -0.540775 0
M  V30 4375 H 409.2 2.81962 1.60212 0
M  V30 4376 H 408.985 3.91555 0.206585 0
M  V30 4377 H 410.475 4.00197 1.19298 0
M  V30 4378 N 410.912 0.523116 1.48665 0
M  V30 4379 C 412.158 -0.00540031 2.03399 0
M  V30 4380 C 412.513 -1.3264 1.39372 0
M  V30 4381 O 411.806 -1.84184 0.527916 0
M  V30 4382 C 412 -0.191671 3.56886 0
M  V30 4383 C 411.829 1.10972 4.35793 0
M  V30 4384 C 410.599 1.66769 4.76987 0
M  V30 4385 C 412.797 2.01861 4.73029 0
M  V30 4386 N 410.779 2.91268 5.40404 0
M  V30 4387 C 412.15 3.10937 5.36394 0
M  V30 4388 C 414.205 2.02271 4.54962 0
M  V30 4389 C 412.908 4.20478 5.83601 0
M  V30 4390 C 414.934 3.10802 5.03146 0
M  V30 4391 C 414.296 4.18597 5.6653 0
M  V30 4392 H 410.395 0.0393531 0.781009 0
M  V30 4393 H 412.979 0.702876 1.8157 0
M  V30 4394 H 411.15 -0.869025 3.78553 0
M  V30 4395 H 412.882 -0.719177 3.98259 0
M  V30 4396 H 409.637 1.20996 4.57883 0
M  V30 4397 H 410.061 3.54635 5.76683 0
M  V30 4398 H 414.703 1.2023 4.05345 0
M  V30 4399 H 412.421 5.03303 6.32228 0
M  V30 4400 H 416.007 3.12166 4.90962 0
M  V30 4401 H 414.887 5.01193 6.03138 0
M  V30 4402 N 412.39 -1.55475 0.257931 0
M  V30 4403 C 413.638 -1.98813 -0.363009 0
M  V30 4404 C 413.959 -1.14757 -1.57657 0
M  V30 4405 O 413.229 -0.232956 -1.9451 0
M  V30 4406 H 411.809 -0.734308 -0.137113 0
M  V30 4407 H 414.471 -1.9156 0.359281 0
M  V30 4408 H 413.567 -3.04941 -0.664634 0
M  V30 4409 N 413.868 0.0150385 -1.57593 0
M  V30 4410 C 414.801 1.04475 -2.0288 0
M  V30 4411 C 415.779 1.3436 -0.915764 0
M  V30 4412 O 416.963 1.46779 -1.18271 0
M  V30 4413 C 414.09 2.37608 -2.41371 0
M  V30 4414 C 413.136 2.23487 -3.63257 0
M  V30 4415 S 413.969 1.57505 -5.11813 0
M  V30 4416 C 415.125 2.921 -5.5356 0
M  V30 4417 H 415.358 0.65907 -2.89903 0
M  V30 4418 H 412.891 0.225452 -1.52745 0
M  V30 4419 H 414.849 3.14165 -2.64217 0
M  V30 4420 H 413.51 2.7332 -1.54775 0
M  V30 4421 H 412.703 3.21802 -3.87891 0
M  V30 4422 H 412.305 1.55074 -3.40335 0
M  V30 4423 H 414.597 3.88419 -5.55101 0
M  V30 4424 H 415.54 2.72184 -6.53698 0
M  V30 4425 H 415.948 2.95318 -4.8109 0
M  V30 4426 N 415.346 1.54954 0.287554 0
M  V30 4427 C 416.256 1.8991 1.37736 0
M  V30 4428 C 417.272 0.794701 1.54792 0
M  V30 4429 O 418.448 1.09243 1.69198 0
M  V30 4430 C 415.513 2.15108 2.71899 0
M  V30 4431 C 414.574 3.38752 2.63715 0
M  V30 4432 C 413.807 3.62739 3.91479 0
M  V30 4433 O 414.03 2.89492 4.91478 0
M  V30 4434 O 412.964 4.56267 3.92561 0
M  V30 4435 H 416.79 2.82652 1.11092 0
M  V30 4436 H 414.375 1.41315 0.484807 0
M  V30 4437 H 416.257 2.32806 3.51254 0
M  V30 4438 H 414.932 1.25551 2.9836 0
M  V30 4439 H 413.839 3.26405 1.82786 0
M  V30 4440 H 415.172 4.28483 2.42205 0
M  V30 4441 N 416.824 -0.551391 1.4764 0
M  V30 4442 C 418.052 -1.33357 1.58189 0
M  V30 4443 C 418.467 -1.87342 0.234199 0
M  V30 4444 O 417.824 -1.65301 -0.77343 0
M  V30 4445 C 417.875 -2.49942 2.61173 0
M  V30 4446 O 417.596 -1.98187 3.90709 0
M  V30 4447 C 419.097 -3.42072 2.8196 0
M  V30 4448 H 416.317 -0.40631 0.533998 0
M  V30 4449 H 418.861 -0.667367 1.93304 0
M  V30 4450 H 417.016 -3.12489 2.28975 0
M  V30 4451 H 417.43 -2.74342 4.47031 0
M  V30 4452 H 418.904 -4.20278 3.57869 0
M  V30 4453 H 419.381 -3.95978 1.89995 0
M  V30 4454 H 419.987 -2.85336 3.15378 0
M  V30 4455 N 418.302 -1.35869 -0.798587 0
M  V30 4456 C 419.232 -1.32118 -1.92528 0
M  V30 4457 C 420.213 -0.194209 -1.68988 0
M  V30 4458 O 421.398 -0.390426 -1.90235 0
M  V30 4459 C 418.528 -1.10047 -3.29404 0
M  V30 4460 C 417.482 -2.19471 -3.67446 0
M  V30 4461 C 416.808 -1.82555 -5.02571 0
M  V30 4462 C 418.108 -3.61495 -3.76987 0
M  V30 4463 H 419.802 -2.26394 -1.95924 0
M  V30 4464 H 417.348 -1.08981 -0.94123 0
M  V30 4465 H 419.301 -1.06061 -4.07835 0
M  V30 4466 H 418.025 -0.122195 -3.26371 0
M  V30 4467 H 416.684 -2.22568 -2.91306 0
M  V30 4468 H 416.332 -0.833249 -4.9605 0
M  V30 4469 H 416.032 -2.5581 -5.28995 0
M  V30 4470 H 417.556 -1.80108 -5.83432 0
M  V30 4471 H 418.97 -3.60676 -4.4563 0
M  V30 4472 H 417.367 -4.33577 -4.14887 0
M  V30 4473 H 418.437 -3.97065 -2.78329 0
M  V30 4474 N 419.78 1.02168 -1.19998 0
M  V30 4475 C 421.005 1.79833 -1.03319 0
M  V30 4476 C 421.43 1.83504 0.413281 0
M  V30 4477 O 420.788 1.26635 1.29743 0
M  V30 4478 C 420.836 3.22396 -1.61533 0
M  V30 4479 O 419.94 4.03555 -0.849519 0
M  V30 4480 H 419.281 0.554872 -0.364709 0
M  V30 4481 H 421.811 1.28542 -1.59179 0
M  V30 4482 H 421.821 3.73124 -1.65054 0
M  V30 4483 H 420.496 3.19039 -2.66809 0
M  V30 4484 H 419.073 3.62169 -0.888129 0
M  V30 4485 N 421.258 1.00505 1.21394 0
M  V30 4486 C 422.206 0.558623 2.25792 0
M  V30 4487 C 423.2 -0.396848 1.64686 0
M  V30 4488 O 424.406 -0.268035 1.77993 0
M  V30 4489 H 420.781 0.1623 0.734277 0
M  V30 4490 H 422.752 1.4503 2.60785 0
M  V30 4491 C 421.501 -0.0989574 3.47559 0
M  V30 4492 H 420.824 0.627225 3.94849 0
M  V30 4493 H 422.264 -0.3746 4.22342 0
M  V30 4494 C 420.723 -1.33817 3.09184 0
M  V30 4495 O 421.253 -2.43252 3.19674 0
M  V30 4496 N 419.459 -1.21793 2.63846 0
M  V30 4497 H 419.006 -0.32746 2.5551 0
M  V30 4498 H 418.964 -2.04809 2.38539 0
M  V30 4499 N 422.737 -1.36956 0.779787 0
M  V30 4500 C 423.977 -2.01328 0.353043 0
M  V30 4501 C 424.341 -1.60558 -1.05286 0
M  V30 4502 O 425.542 -2.1745 -1.58016 0
M  V30 4503 C 423.813 -3.53874 0.500822 0
M  V30 4504 S 425.372 -4.38506 0.16053 0
M  V30 4505 H 422.19 -0.69799 0.13539 0
M  V30 4506 H 424.792 -1.67016 1.01617 0
M  V30 4507 H 423.496 -3.81034 1.52451 0
M  V30 4508 H 423.027 -3.92994 -0.178574 0
M  V30 4509 H 425.042 -4.85153 -1.04121 0
M  V30 4510 N 424.215 -0.530993 -1.48385 0
M  V30 4511 C 425.44 0.000729535 -2.074 0
M  V30 4512 C 425.865 1.27298 -1.3848 0
M  V30 4513 O 425.223 1.75599 -0.451081 0
M  V30 4514 C 425.271 0.206697 -3.60007 0
M  V30 4515 O 424.375 1.27514 -3.92191 0
M  V30 4516 H 423.716 -0.039583 -0.662819 0
M  V30 4517 H 426.246 -0.739194 -1.9078 0
M  V30 4518 H 426.256 0.42904 -4.05738 0
M  V30 4519 H 424.931 -0.722675 -4.09573 0
M  V30 4520 H 423.508 1.03537 -3.58238 0
M  V30 4521 N 425.693 1.55336 -0.266172 0
M  V30 4522 C 427.109 1.59356 0.0882065 0
M  V30 4523 C 427.309 1.2834 1.55342 0
M  V30 4524 O 426.365 1.03996 2.30089 0
M  V30 4525 C 427.678 2.99409 -0.278364 0
M  V30 4526 C 429.226 3.12196 -0.224243 0
M  V30 4527 C 429.701 4.545 -0.565123 0
M  V30 4528 N 431.192 4.60313 -0.51634 0
M  V30 4529 C 431.927 5.68434 -0.753013 0
M  V30 4530 N 431.423 6.84738 -1.05383 0
M  V30 4531 N 433.216 5.57942 -0.682414 0
M  V30 4532 H 425.367 1.73764 -1.22147 0
M  V30 4533 H 427.63 0.809822 -0.492841 0
M  V30 4534 H 427.336 3.2691 -1.29703 0
M  V30 4535 H 427.21 3.75228 0.385186 0
M  V30 4536 H 429.597 2.84464 0.78512 0
M  V30 4537 H 429.678 2.38609 -0.921922 0
M  V30 4538 H 429.322 4.82956 -1.57213 0
M  V30 4539 H 429.252 5.26374 0.154248 0
M  V30 4540 H 431.743 3.7676 -0.29335 0
M  V30 4541 H 432.056 7.63088 -1.22133 0
M  V30 4542 H 430.401 6.86375 -1.09151 0
M  V30 4543 H 433.592 4.65958 -0.44731 0
M  V30 4544 H 433.765 6.4213 -0.870248 0
M  V30 4545 N 427.171 -0.0066808 1.57599 0
M  V30 4546 C 428.396 -0.707738 1.94951 0
M  V30 4547 C 428.821 -1.66882 0.867868 0
M  V30 4548 O 428.179 -1.80457 -0.17458 0
M  V30 4549 C 428.227 -1.42162 3.31394 0
M  V30 4550 O 427.331 -2.53578 3.25226 0
M  V30 4551 H 426.672 -0.188752 0.636607 0
M  V30 4552 H 429.202 0.0445193 2.04552 0
M  V30 4553 H 429.212 -1.78655 3.66806 0
M  V30 4554 H 427.887 -0.716903 4.09675 0
M  V30 4555 H 426.464 -2.19463 3.01481 0
M  V30 4556 N 428.649 -1.55105 -0.279332 0
M  V30 4557 C 429.582 -1.82467 -1.37044 0
M  V30 4558 C 430.56 -0.677261 -1.47824 0
M  V30 4559 O 431.744 -0.919578 -1.64548 0
M  V30 4560 C 428.871 -1.98066 -2.7475 0
M  V30 4561 C 427.917 -3.20594 -2.81286 0
M  V30 4562 S 428.75 -4.78116 -2.41175 0
M  V30 4563 C 429.906 -4.9668 -3.80867 0
M  V30 4564 H 430.139 -2.74728 -1.1363 0
M  V30 4565 H 427.672 -1.46794 -0.478625 0
M  V30 4566 H 429.63 -2.07739 -3.54055 0
M  V30 4567 H 428.291 -1.06704 -2.9542 0
M  V30 4568 H 427.484 -3.28376 -3.82341 0
M  V30 4569 H 427.086 -3.09479 -2.09996 0
M  V30 4570 H 429.378 -4.82033 -4.76078 0
M  V30 4571 H 430.321 -5.98741 -3.78041 0
M  V30 4572 H 430.729 -4.24698 -3.71876 0
M  V30 4573 N 430.127 0.543554 -1.4793 0
M  V30 4574 C 431.352 1.32995 -1.59145 0
M  V30 4575 C 431.777 1.86472 -0.246956 0
M  V30 4576 O 431.135 1.63696 0.779324 0
M  V30 4577 C 431.183 2.46623 -2.63077 0
M  V30 4578 O 430.287 3.49261 -2.19295 0
M  V30 4579 H 429.628 0.394472 -0.534124 0
M  V30 4580 H 432.158 0.655489 -1.93816 0
M  V30 4581 H 432.168 2.93001 -2.83926 0
M  V30 4582 H 430.843 2.07059 -3.60693 0
M  V30 4583 H 429.42 3.09094 -2.08603 0
M  V30 4584 N 431.605 1.3629 0.791371 0
M  V30 4585 C 433.016 1.27225 1.36641 0
M  V30 4586 C 433.367 -0.0887968 1.95999 0
M  V30 4587 O 432.492 -0.990207 1.92416 0
M  V30 4588 C 433.087 2.30375 2.48421 0
M  V30 4589 C 431.646 2.25004 3.01746 0
M  V30 4590 C 430.793 2.15259 1.7481 0
M  V30 4591 H 433.744 1.47198 0.593173 0
M  V30 4592 H 433.765 1.93905 3.27385 0
M  V30 4593 H 433.277 3.29422 2.05189 0
M  V30 4594 H 431.378 1.29417 3.49403 0
M  V30 4595 H 431.491 3.1761 3.58693 0
M  V30 4596 H 429.855 1.61482 1.96966 0
M  V30 4597 H 430.638 3.16191 1.33709 0
M  V30 4598 N 433.083 -1.0153 1.20538 0
M  V30 4599 C 434.33 -1.75149 1.01633 0
M  V30 4600 C 434.658 -1.89189 -0.451399 0
M  V30 4601 O 433.913 -1.41551 -1.35136 0
M  V30 4602 C 434.212 -3.17213 1.64654 0
M  V30 4603 C 433.878 -3.23146 3.14464 0
M  V30 4604 C 432.54 -3.24472 3.55347 0
M  V30 4605 C 434.892 -3.21207 4.10458 0
M  V30 4606 C 432.22 -3.21532 4.90748 0
M  V30 4607 C 434.572 -3.19808 5.45807 0
M  V30 4608 C 433.236 -3.19439 5.86102 0
M  V30 4609 H 432.506 -0.640914 0.3719 0
M  V30 4610 H 435.153 -1.19071 1.49981 0
M  V30 4611 H 433.458 -3.76457 1.08571 0
M  V30 4612 H 435.155 -3.72871 1.4754 0
M  V30 4613 H 431.745 -3.2285 2.81897 0
M  V30 4614 H 435.929 -3.19351 3.79906 0
M  V30 4615 H 431.185 -3.19578 5.21229 0
M  V30 4616 H 435.359 -3.1726 6.19935 0
M  V30 4617 H 432.986 -3.16915 6.90991 0
M  V30 4618 N 434.561 -1.01147 -1.20859 0
M  V30 4619 C 435.807 -0.698899 -1.90377 0
M  V30 4620 C 436.14 0.76904 -1.78324 0
M  V30 4621 O 435.415 1.55817 -1.16409 0
M  V30 4622 C 435.698 -1.12878 -3.41951 0
M  V30 4623 C 435.551 -2.65665 -3.62963 0
M  V30 4624 C 436.87 -0.696114 -4.3456 0
M  V30 4625 H 433.989 -0.255372 -0.691342 0
M  V30 4626 H 436.631 -1.25831 -1.42361 0
M  V30 4627 H 434.781 -0.652827 -3.82976 0
M  V30 4628 H 436.453 -3.21074 -3.31224 0
M  V30 4629 H 434.696 -3.06878 -3.06608 0
M  V30 4630 H 435.367 -2.90797 -4.69192 0
M  V30 4631 H 437.843 -1.10521 -4.01154 0
M  V30 4632 H 436.719 -1.025 -5.39245 0
M  V30 4633 H 436.98 0.402465 -4.40264 0
M  V30 4634 N 436.039 1.36541 -0.78704 0
M  V30 4635 C 436.969 2.32659 -0.197992 0
M  V30 4636 C 437.95 1.56533 0.665697 0
M  V30 4637 O 439.135 1.84698 0.60001 0
M  V30 4638 C 436.265 3.40778 0.669901 0
M  V30 4639 C 435.219 4.27897 -0.0937039 0
M  V30 4640 C 434.545 5.27163 0.894629 0
M  V30 4641 C 435.845 5.06334 -1.28154 0
M  V30 4642 H 437.539 2.82171 -1.00099 0
M  V30 4643 H 435.085 1.35665 -0.482793 0
M  V30 4644 H 437.038 4.07008 1.09191 0
M  V30 4645 H 435.762 2.89827 1.50558 0
M  V30 4646 H 434.421 3.6322 -0.49666 0
M  V30 4647 H 434.069 4.72486 1.72527 0
M  V30 4648 H 433.769 5.86317 0.388149 0
M  V30 4649 H 435.293 5.96266 1.31525 0
M  V30 4650 H 436.707 5.65617 -0.93541 0
M  V30 4651 H 435.104 5.74888 -1.72115 0
M  V30 4652 H 436.174 4.38114 -2.07807 0
M  V30 4653 N 437.518 0.538854 1.48102 0
M  V30 4654 C 438.743 0.0102694 2.07397 0
M  V30 4655 C 439.168 -1.26562 1.39153 0
M  V30 4656 O 438.526 -1.75357 0.460387 0
M  V30 4657 C 438.574 -0.187602 3.60112 0
M  V30 4658 O 437.678 -1.25432 3.92862 0
M  V30 4659 H 437.019 0.0430975 0.6626 0
M  V30 4660 H 439.549 0.749301 1.90385 0
M  V30 4661 H 439.559 -0.407517 4.0596 0
M  V30 4662 H 438.234 0.744386 4.09184 0
M  V30 4663 H 436.811 -1.01636 3.58782 0
M  V30 4664 N 438.996 -1.55193 0.274407 0
M  V30 4665 C 439.926 -2.25471 -0.607032 0
M  V30 4666 C 440.907 -1.24461 -1.15946 0
M  V30 4667 O 442.092 -1.53179 -1.19373 0
M  V30 4668 C 439.222 -2.97526 -1.79153 0
M  V30 4669 C 438.176 -4.05459 -1.37067 0
M  V30 4670 C 437.502 -4.65084 -2.6382 0
M  V30 4671 C 438.802 -5.19691 -0.521389 0
M  V30 4672 H 440.496 -2.99393 -0.0209343 0
M  V30 4673 H 438.042 -1.43997 -0.00862866 0
M  V30 4674 H 439.995 -3.45402 -2.41404 0
M  V30 4675 H 438.719 -2.21138 -2.40344 0
M  V30 4676 H 437.378 -3.58393 -0.771355 0
M  V30 4677 H 437.026 -3.85365 -3.23268 0
M  V30 4678 H 436.726 -5.37961 -2.36372 0
M  V30 4679 H 438.25 -5.15708 -3.26921 0
M  V30 4680 H 439.664 -5.63623 -1.04889 0
M  V30 4681 H 438.061 -5.99126 -0.341825 0
M  V30 4682 H 439.131 -4.82713 0.46 0
M  V30 4683 N 440.474 -0.00167713 -1.576 0
M  V30 4684 C 441.384 1.00548 -2.1196 0
M  V30 4685 C 442.4 1.3758 -1.06526 0
M  V30 4686 O 443.576 1.46278 -1.38436 0
M  V30 4687 C 440.641 2.27809 -2.6135 0
M  V30 4688 C 439.702 1.97074 -3.81393 0
M  V30 4689 C 438.935 3.18267 -4.28417 0
M  V30 4690 O 439.158 4.30009 -3.74765 0
M  V30 4691 O 438.092 3.02167 -5.20556 0
M  V30 4692 H 441.918 0.573373 -2.98238 0
M  V30 4693 H 439.503 0.217255 -1.47812 0
M  V30 4694 H 441.385 3.02568 -2.93309 0
M  V30 4695 H 440.06 2.70254 -1.78169 0
M  V30 4696 H 438.967 1.19785 -3.54404 0
M  V30 4697 H 440.3 1.59464 -4.65652 0
M  V30 4698 N 441.952 1.55251 0.271103 0
M  V30 4699 C 442.884 1.84675 1.35749 0
M  V30 4700 C 443.897 0.731366 1.45447 0
M  V30 4701 O 445.086 1.00924 1.4723 0
M  V30 4702 C 442.186 1.99638 2.73857 0
M  V30 4703 C 441.359 3.30312 2.86727 0
M  V30 4704 C 440.418 3.35318 4.05522 0
M  V30 4705 O 439.444 4.08682 3.96191 0
M  V30 4706 N 440.646 2.62857 5.17577 0
M  V30 4707 H 443.411 2.78445 1.10853 0
M  V30 4708 H 440.972 1.55191 0.461218 0
M  V30 4709 H 442.964 2.00355 3.51625 0
M  V30 4710 H 441.534 1.12725 2.91568 0
M  V30 4711 H 440.754 3.42118 1.95829 0
M  V30 4712 H 442.042 4.16488 2.92258 0
M  V30 4713 H 441.44 2.02939 5.28046 0
M  V30 4714 H 439.997 2.69295 5.93568 0
M  V30 4715 N 443.43 -0.535701 1.48216 0
M  V30 4716 C 444.658 -1.31671 1.59594 0
M  V30 4717 C 445.073 -1.87083 0.254056 0
M  V30 4718 O 444.43 -1.66112 -0.755854 0
M  V30 4719 C 444.481 -2.47158 2.63809 0
M  V30 4720 O 444.202 -1.94032 3.92789 0
M  V30 4721 C 445.703 -3.39062 2.85573 0
M  V30 4722 H 442.923 -0.400623 0.538277 0
M  V30 4723 H 445.467 -0.646827 1.94001 0
M  V30 4724 H 443.622 -3.10043 2.32276 0
M  V30 4725 H 444.036 -2.69585 4.49916 0
M  V30 4726 H 445.51 -4.16459 3.62306 0
M  V30 4727 H 445.987 -3.93941 1.94184 0
M  V30 4728 H 446.593 -2.81975 3.18387 0
M  V30 4729 N 444.908 -1.36708 -0.784132 0
M  V30 4730 C 446.319 -1.27947 -1.35965 0
M  V30 4731 C 446.67 0.0784013 -1.96043 0
M  V30 4732 O 445.795 0.979989 -1.92938 0
M  V30 4733 C 446.39 -2.31689 -2.47195 0
M  V30 4734 C 444.949 -2.26601 -3.00548 0
M  V30 4735 C 444.096 -2.16184 -1.73666 0
M  V30 4736 H 447.047 -1.4751 -0.585358 0
M  V30 4737 H 447.068 -1.95638 -3.26352 0
M  V30 4738 H 446.58 -3.30506 -2.03439 0
M  V30 4739 H 444.681 -1.31268 -3.48711 0
M  V30 4740 H 444.794 -3.19508 -3.57004 0
M  V30 4741 H 443.158 -1.62524 -1.96107 0
M  V30 4742 H 443.941 -3.16896 -1.32031 0
M  V30 4743 N 446.386 1.0089 -1.21074 0
M  V30 4744 C 447.318 2.09737 -0.924291 0
M  V30 4745 C 448.331 1.62546 0.0909809 0
M  V30 4746 O 449.52 1.77942 -0.141021 0
M  V30 4747 C 446.62 3.36922 -0.36559 0
M  V30 4748 C 445.793 4.13216 -1.43426 0
M  V30 4749 C 444.852 5.18696 -0.885496 0
M  V30 4750 O 443.878 5.47176 -1.56801 0
M  V30 4751 N 445.08 5.79718 0.301227 0
M  V30 4752 H 447.845 2.34895 -1.8613 0
M  V30 4753 H 445.406 1.17341 -1.11546 0
M  V30 4754 H 447.398 4.04697 0.0158407 0
M  V30 4755 H 445.968 3.08952 0.476149 0
M  V30 4756 H 445.188 3.40301 -1.9897 0
M  V30 4757 H 446.476 4.60967 -2.15376 0
M  V30 4758 H 445.874 5.58926 0.872849 0
M  V30 4759 H 444.431 6.48804 0.624211 0
M  V30 4760 N 447.864 1.01787 1.20321 0
M  V30 4761 C 448.814 0.559976 2.21016 0
M  V30 4762 C 449.798 -0.385366 1.56217 0
M  V30 4763 O 450.99 -0.208126 1.75772 0
M  V30 4764 C 448.119 -0.0990553 3.43157 0
M  V30 4765 C 447.205 0.86807 4.15121 0
M  V30 4766 N 447.596 2.0261 4.63447 0
M  V30 4767 C 445.894 0.689162 4.40643 0
M  V30 4768 C 446.595 2.63518 5.18588 0
M  V30 4769 N 445.571 1.91569 5.08726 0
M  V30 4770 H 449.373 1.44281 2.56048 0
M  V30 4771 H 446.887 0.883381 1.36272 0
M  V30 4772 H 448.884 -0.444643 4.14522 0
M  V30 4773 H 447.544 -0.977709 3.0963 0
M  V30 4774 H 448.555 2.40598 4.58621 0
M  V30 4775 H 445.232 -0.14133 4.17261 0
M  V30 4776 H 446.622 3.61527 5.66346 0
M  V30 4777 N 449.342 -1.36122 0.79427 0
M  V30 4778 C 450.305 -2.28309 0.201889 0
M  V30 4779 C 451.305 -1.49041 -0.603603 0
M  V30 4780 O 452.495 -1.68964 -0.423888 0
M  V30 4781 C 449.627 -3.3321 -0.719978 0
M  V30 4782 H 450.82 -2.82208 1.01481 0
M  V30 4783 H 448.373 -1.45768 0.564037 0
M  V30 4784 H 449.108 -2.84475 -1.55706 0
M  V30 4785 H 448.893 -3.91835 -0.144266 0
M  V30 4786 H 450.383 -4.02044 -1.12916 0
M  V30 4787 N 450.82 -0.546701 -1.47814 0
M  V30 4788 C 451.783 0.196287 -2.28358 0
M  V30 4789 C 452.783 0.852437 -1.36346 0
M  V30 4790 O 453.973 0.709913 -1.59078 0
M  V30 4791 C 451.105 1.28579 -3.15722 0
M  V30 4792 H 452.298 -0.511086 -2.95513 0
M  V30 4793 H 449.851 -0.303248 -1.5333 0
M  V30 4794 H 450.586 2.0259 -2.53235 0
M  V30 4795 H 450.371 0.820229 -3.83425 0
M  V30 4796 H 451.861 1.80793 -3.76435 0
M  V30 4797 N 452.299 1.55045 -0.282633 0
M  V30 4798 C 453.231 2.2023 0.634924 0
M  V30 4799 C 454.244 1.18931 1.11172 0
M  V30 4800 O 455.433 1.4562 1.03233 0
M  V30 4801 C 452.533 2.82041 1.87899 0
M  V30 4802 C 451.706 4.091 1.54776 0
M  V30 4803 C 450.765 4.54887 2.64507 0
M  V30 4804 O 449.791 5.20496 2.30375 0
M  V30 4805 N 450.993 4.25659 3.94709 0
M  V30 4806 H 453.758 2.99601 0.0769811 0
M  V30 4807 H 451.319 1.61565 -0.104048 0
M  V30 4808 H 453.311 3.09613 2.60619 0
M  V30 4809 H 451.881 2.06618 2.3458 0
M  V30 4810 H 451.101 3.88736 0.654049 0
M  V30 4811 H 452.389 4.9187 1.30158 0
M  V30 4812 H 451.787 3.7306 4.25256 0
M  V30 4813 H 450.344 4.57984 4.63782 0
M  V30 4814 N 453.777 0.010035 1.57597 0
M  V30 4815 C 454.687 -0.994226 2.12491 0
M  V30 4816 C 455.703 -1.37013 1.07254 0
M  V30 4817 O 456.879 -1.45542 1.3921 0
M  V30 4818 C 453.944 -2.2642 2.62555 0
M  V30 4819 C 453.005 -1.95049 3.82432 0
M  V30 4820 C 452.238 -3.15991 4.30099 0
M  V30 4821 O 452.461 -4.28015 3.7704 0
M  V30 4822 O 451.395 -2.99403 5.22151 0
M  V30 4823 H 455.221 -0.557549 2.98538 0
M  V30 4824 H 452.806 -0.209413 1.47925 0
M  V30 4825 H 454.688 -3.01009 2.9491 0
M  V30 4826 H 453.363 -2.69306 1.796 0
M  V30 4827 H 452.27 -1.17904 3.55034 0
M  V30 4828 H 453.603 -1.56992 4.66491 0
M  V30 4829 N 455.255 -1.55392 -0.262866 0
M  V30 4830 C 456.185 -1.91978 -1.32917 0
M  V30 4831 C 457.166 -0.7828 -1.51017 0
M  V30 4832 O 458.351 -1.04178 -1.63892 0
M  V30 4833 C 455.481 -2.20055 -2.68687 0
M  V30 4834 C 454.435 -3.35854 -2.65304 0
M  V30 4835 C 453.761 -3.49435 -4.04721 0
M  V30 4836 C 455.061 -4.71977 -2.23685 0
M  V30 4837 H 456.755 -2.81292 -1.02544 0
M  V30 4838 H 454.301 -1.3534 -0.491846 0
M  V30 4839 H 456.254 -2.44237 -3.43404 0
M  V30 4840 H 454.978 -1.27551 -3.00663 0
M  V30 4841 H 453.637 -3.11655 -1.93045 0
M  V30 4842 H 453.285 -2.54379 -4.33936 0
M  V30 4843 H 452.985 -4.27297 -4.0335 0
M  V30 4844 H 454.509 -3.7592 -4.81161 0
M  V30 4845 H 455.923 -4.95637 -2.88127 0
M  V30 4846 H 454.32 -5.52828 -2.33456 0
M  V30 4847 H 455.39 -4.70115 -1.18827 0
M  V30 4848 N 456.733 0.527833 -1.48498 0
M  V30 4849 C 457.68 1.6322 -1.6318 0
M  V30 4850 C 458.65 1.59199 -0.473815 0
M  V30 4851 O 459.835 1.77591 -0.697563 0
M  V30 4852 C 456.975 3.01474 -1.67951 0
M  V30 4853 C 456.088 3.15713 -2.94871 0
M  V30 4854 C 455.223 4.44539 -2.90789 0
M  V30 4855 C 454.262 4.52315 -4.12404 0
M  V30 4856 N 453.399 5.72533 -4.06387 0
M  V30 4857 H 458.239 1.50011 -2.57489 0
M  V30 4858 H 455.776 0.730298 -1.27691 0
M  V30 4859 H 457.734 3.81572 -1.68698 0
M  V30 4860 H 456.364 3.1345 -0.771306 0
M  V30 4861 H 455.416 2.28854 -3.03859 0
M  V30 4862 H 456.728 3.1732 -3.8485 0
M  V30 4863 H 455.882 5.3293 -2.89949 0
M  V30 4864 H 454.621 4.45457 -1.98542 0
M  V30 4865 H 453.626 3.62331 -4.13517 0
M  V30 4866 H 454.851 4.53134 -5.05812 0
M  V30 4867 H 452.797 5.74344 -3.16962 0
M  V30 4868 H 452.714 5.75643 -4.90073 0
M  V30 4869 H 453.982 6.63204 -4.0961 0
M  V30 4870 N 458.211 1.37122 0.776871 0
M  V30 4871 C 459.439 1.3523 1.5659 0
M  V30 4872 C 459.854 -0.0635518 1.88693 0
M  V30 4873 O 459.211 -1.02394 1.51069 0
M  V30 4874 C 459.262 2.18583 2.8793 0
M  V30 4875 O 458.983 3.5465 2.57206 0
M  V30 4876 C 460.484 2.24612 3.82183 0
M  V30 4877 H 457.704 0.4634 0.485285 0
M  V30 4878 H 460.248 1.80392 0.963266 0
M  V30 4879 H 458.403 1.76943 3.4463 0
M  V30 4880 H 458.817 3.98286 3.41275 0
M  V30 4881 H 460.291 2.87267 4.71361 0
M  V30 4882 H 460.768 1.25309 4.20944 0
M  V30 4883 H 461.374 2.66543 3.31414 0
M  V30 4884 N 459.689 -1.00246 1.21608 0
M  V30 4885 C 460.619 -2.10921 1.00172 0
M  V30 4886 C 461.6 -1.69938 -0.0741587 0
M  V30 4887 O 462.785 -1.94009 0.0861753 0
M  V30 4888 C 459.915 -3.42618 0.568355 0
M  V30 4889 C 458.869 -3.97407 1.58909 0
M  V30 4890 C 458.195 -5.25038 1.01187 0
M  V30 4891 C 459.495 -4.2918 2.97661 0
M  V30 4892 H 461.189 -2.29112 1.92739 0
M  V30 4893 H 458.735 -1.10101 0.928102 0
M  V30 4894 H 460.688 -4.19444 0.405555 0
M  V30 4895 H 459.412 -3.24227 -0.392961 0
M  V30 4896 H 458.071 -3.22703 1.73949 0
M  V30 4897 H 457.719 -5.02982 0.0421965 0
M  V30 4898 H 457.419 -5.62661 1.6937 0
M  V30 4899 H 458.943 -6.04507 0.860448 0
M  V30 4900 H 460.357 -4.96839 2.86049 0
M  V30 4901 H 458.754 -4.77952 3.6288 0
M  V30 4902 H 459.824 -3.3735 3.48315 0
M  V30 4903 N 461.167 -1.02423 -1.1978 0
M  V30 4904 C 462.097 -0.62157 -2.25075 0
M  V30 4905 C 463.078 0.367148 -1.6609 0
M  V30 4906 O 464.263 0.250892 -1.92573 0
M  V30 4907 C 461.393 0.0331826 -3.47284 0
M  V30 4908 C 460.347 -0.877323 -4.18912 0
M  V30 4909 C 459.673 -0.0879296 -5.34628 0
M  V30 4910 C 460.973 -2.18892 -4.74219 0
M  V30 4911 H 462.667 -1.50179 -2.59011 0
M  V30 4912 H 460.213 -0.723547 -1.24502 0
M  V30 4913 H 462.166 0.326488 -4.20133 0
M  V30 4914 H 460.89 0.948164 -3.12534 0
M  V30 4915 H 459.549 -1.15475 -3.47938 0
M  V30 4916 H 459.197 0.828941 -4.96123 0
M  V30 4917 H 458.897 -0.694359 -5.83483 0
M  V30 4918 H 460.421 0.198743 -6.10276 0
M  V30 4919 H 461.835 -1.95746 -5.38847 0
M  V30 4920 H 460.232 -2.74686 -5.33542 0
M  V30 4921 H 461.302 -2.84674 -3.92541 0
M  V30 4922 N 462.645 1.35699 -0.801477 0
M  V30 4923 C 464.056 1.81415 -0.441073 0
M  V30 4924 C 464.407 1.66595 1.03636 0
M  V30 4925 O 463.532 1.19369 1.80499 0
M  V30 4926 C 464.127 3.29369 -0.793819 0
M  V30 4927 C 462.686 3.73248 -0.486083 0
M  V30 4928 C 461.833 2.57775 -1.02213 0
M  V30 4929 H 464.784 1.23749 -0.993572 0
M  V30 4930 H 464.805 3.80395 -0.0894158 0
M  V30 4931 H 464.317 3.40123 -1.86917 0
M  V30 4932 H 462.418 3.68046 0.580735 0
M  V30 4933 H 462.531 4.68222 -1.01513 0
M  V30 4934 H 460.895 2.50788 -0.444712 0
M  V30 4935 H 461.678 2.71309 -2.10348 0
M  V30 4936 N 464.123 0.554532 1.47522 0
M  V30 4937 C 465.055 -0.232106 2.28022 0
M  V30 4938 C 466.068 -0.881865 1.36847 0
M  V30 4939 O 467.257 -0.756168 1.61692 0
M  V30 4940 C 464.357 -1.34604 3.11022 0
M  V30 4941 C 463.53 -0.793582 4.30141 0
M  V30 4942 C 462.589 -1.79168 4.94758 0
M  V30 4943 O 461.615 -1.33886 5.5323 0
M  V30 4944 N 462.817 -3.12495 4.89211 0
M  V30 4945 H 465.582 0.458407 2.96173 0
M  V30 4946 H 463.143 0.390433 1.57122 0
M  V30 4947 H 465.135 -2.01243 3.51118 0
M  V30 4948 H 463.705 -1.93983 2.45131 0
M  V30 4949 H 462.925 0.0495025 3.94169 0
M  V30 4950 H 464.213 -0.403776 5.07195 0
M  V30 4951 H 463.611 -3.51931 4.42901 0
M  V30 4952 H 462.168 -3.74698 5.33333 0
M  V30 4953 N 465.601 -1.54893 0.290851 0
M  V30 4954 C 466.534 -2.19289 -0.631489 0
M  V30 4955 C 467.512 -1.15893 -1.14051 0
M  V30 4956 O 468.696 -1.4449 -1.21058 0
M  V30 4957 C 465.823 -2.82866 -1.86291 0
M  V30 4958 C 464.869 -3.997 -1.48801 0
M  V30 4959 S 465.702 -5.32641 -0.552644 0
M  V30 4960 C 466.858 -5.99696 -1.79209 0
M  V30 4961 H 467.091 -2.9718 -0.0843791 0
M  V30 4962 H 464.624 -1.54218 0.075031 0
M  V30 4963 H 466.582 -3.20124 -2.56964 0
M  V30 4964 H 465.243 -2.04839 -2.38117 0
M  V30 4965 H 464.436 -4.42932 -2.40473 0
M  V30 4966 H 464.038 -3.63947 -0.861321 0
M  V30 4967 H 466.33 -6.19886 -2.734 0
M  V30 4968 H 467.273 -6.94071 -1.40251 0
M  V30 4969 H 467.681 -5.29226 -1.96419 0
M  V30 4970 N 467.08 -0.0183926 -1.57589 0
M  V30 4971 C 468.308 0.673046 -1.95647 0
M  V30 4972 C 468.723 1.66275 -0.894312 0
M  V30 4973 O 468.08 1.82072 0.124975 0
M  V30 4974 C 468.131 1.38884 -3.33756 0
M  V30 4975 O 467.852 0.438806 -4.35897 0
M  V30 4976 C 469.353 2.1731 -3.86383 0
M  V30 4977 H 466.573 0.186292 -0.644621 0
M  V30 4978 H 469.117 -0.0749748 -2.04363 0
M  V30 4979 H 467.272 2.08835 -3.26293 0
M  V30 4980 H 467.686 0.945869 -5.15901 0
M  V30 4981 H 469.16 2.62863 -4.85394 0
M  V30 4982 H 469.637 3.00764 -3.20059 0
M  V30 4983 H 470.243 1.52339 -3.97081 0
M  V30 4984 N 468.558 1.5553 0.254621 0
M  V30 4985 C 469.969 1.67518 0.824286 0
M  V30 4986 C 470.32 0.614429 1.86331 0
M  V30 4987 O 469.445 -0.240736 2.15057 0
M  V30 4988 C 470.04 3.03692 1.50189 0
M  V30 4989 C 468.599 3.17646 2.01935 0
M  V30 4990 C 467.746 2.63373 0.867746 0
M  V30 4991 H 470.697 1.58671 0.0305843 0
M  V30 4992 H 470.718 2.97706 2.36962 0
M  V30 4993 H 470.23 3.80874 0.745431 0
M  V30 4994 H 468.331 2.45273 2.80485 0
M  V30 4995 H 468.444 4.24455 2.22204 0
M  V30 4996 H 466.808 2.20999 1.26616 0
M  V30 4997 H 467.591 3.43074 0.124498 0
M  V30 4998 N 470.036 -0.519951 1.48776 0
M  V30 4999 C 470.999 -1.60574 1.6355 0
M  V30 5000 C 471.999 -1.52557 0.508234 0
M  V30 5001 O 473.189 -1.56047 0.774262 0
M  V30 5002 C 470.321 -3.00211 1.61512 0
M  V30 5003 H 471.514 -1.4881 2.60376 0
M  V30 5004 H 469.067 -0.742772 1.37523 0
M  V30 5005 H 469.802 -3.17471 0.662009 0
M  V30 5006 H 469.587 -3.07439 2.43359 0
M  V30 5007 H 471.077 -3.79134 1.75064 0
M  V30 5008 N 471.514 -1.37532 -0.769588 0
M  V30 5009 C 472.462 -1.33561 -1.90432 0
M  V30 5010 C 473.456 -0.224027 -1.67912 0
M  V30 5011 O 474.662 -0.392174 -1.75676 0
M  V30 5012 H 471.037 -0.416279 -0.626271 0
M  V30 5013 H 473.008 -2.29348 -1.90899 0
M  V30 5014 C 471.757 -1.16162 -3.27722 0
M  V30 5015 H 471.08 -2.00951 -3.45628 0
M  V30 5016 H 472.52 -1.17434 -4.07413 0
M  V30 5017 C 470.979 0.132583 -3.36639 0
M  V30 5018 O 471.509 1.11539 -3.85904 0
M  V30 5019 N 469.715 0.184013 -2.90017 0
M  V30 5020 H 469.262 -0.616415 -2.50116 0
M  V30 5021 H 469.22 1.04956 -2.96364 0
M  V30 5022 N 472.992 0.995999 -1.22138 0
M  V30 5023 C 473.925 2.08302 -0.931952 0
M  V30 5024 C 474.903 1.62127 0.123956 0
M  V30 5025 O 476.087 1.88499 -0.00696004 0
M  V30 5026 C 473.214 3.36317 -0.401068 0
M  V30 5027 C 472.26 4.01413 -1.44117 0
M  V30 5028 S 473.093 4.42664 -3.01345 0
M  V30 5029 C 474.249 5.73853 -2.49887 0
M  V30 5030 H 474.482 2.32532 -1.85246 0
M  V30 5031 H 472.015 1.13005 -1.0521 0
M  V30 5032 H 473.973 4.10375 -0.101352 0
M  V30 5033 H 472.634 3.10123 0.498272 0
M  V30 5034 H 471.827 4.9358 -1.01952 0
M  V30 5035 H 471.429 3.33668 -1.68943 0
M  V30 5036 H 473.721 6.50039 -1.90934 0
M  V30 5037 H 474.664 6.20841 -3.40532 0
M  V30 5038 H 475.072 5.31105 -1.9128 0
M  V30 5039 N 474.47 1.03057 1.19235 0
M  V30 5040 C 475.695 0.74757 1.93458 0
M  V30 5041 C 476.12 -0.687648 1.7508 0
M  V30 5042 O 475.478 -1.47499 1.05422 0
M  V30 5043 C 475.526 1.10604 3.43219 0
M  V30 5044 O 474.63 0.225671 4.11782 0
M  V30 5045 H 473.971 0.276047 0.603899 0
M  V30 5046 H 476.501 1.3777 1.51263 0
M  V30 5047 H 476.511 1.06366 3.93891 0
M  V30 5048 H 475.186 2.15165 3.55917 0
M  V30 5049 H 473.763 0.326795 3.71465 0
M  V30 5050 N 475.948 -1.35272 0.808662 0
M  V30 5051 C 477.173 -2.03477 0.401475 0
M  V30 5052 C 477.598 -1.60537 -0.980279 0
M  V30 5053 O 476.956 -0.78304 -1.63518 0
M  V30 5054 C 477.004 -3.57181 0.495354 0
M  V30 5055 O 476.108 -4.09474 -0.490397 0
M  V30 5056 H 475.449 -0.642561 0.167366 0
M  V30 5057 H 477.979 -1.72824 1.09512 0
M  V30 5058 H 477.989 -4.06356 0.365912 0
M  V30 5059 H 476.664 -3.87784 1.5032 0
M  V30 5060 H 475.241 -3.71516 -0.321023 0
M  V30 5061 N 477.426 -0.562348 -1.47226 0
M  V30 5062 C 478.674 -0.0401371 -2.0206 0
M  V30 5063 C 478.995 1.3165 -1.43852 0
M  V30 5064 O 478.265 1.85976 -0.615599 0
M  V30 5065 H 476.845 -0.0118479 -0.746906 0
M  V30 5066 H 479.507 -0.73352 -1.8057 0
M  V30 5067 H 478.603 0.0441254 -3.12069 0
M  V30 5068 N 478.904 1.54736 -0.299062 0
M  V30 5069 C 479.867 2.22127 0.565012 0
M  V30 5070 C 480.867 1.20669 1.06281 0
M  V30 5071 O 482.057 1.45417 0.959145 0
M  V30 5072 C 479.189 2.90611 1.78208 0
M  V30 5073 H 480.382 2.99891 -0.0237448 0
M  V30 5074 H 477.935 1.5622 -0.0498788 0
M  V30 5075 H 478.67 2.16921 2.41072 0
M  V30 5076 H 478.455 3.64984 1.43281 0
M  V30 5077 H 479.945 3.42026 2.396 0
M  V30 5078 N 480.382 0.0267497 1.57577 0
M  V30 5079 C 481.628 -0.647596 1.92815 0
M  V30 5080 C 481.983 -1.69872 0.903396 0
M  V30 5081 O 481.276 -1.91429 -0.0808881 0
M  V30 5082 C 481.47 -1.30914 3.3256 0
M  V30 5083 C 481.299 -0.323621 4.48534 0
M  V30 5084 C 480.069 0.0756607 5.05243 0
M  V30 5085 C 482.267 0.42112 5.12573 0
M  V30 5086 N 480.249 1.0566 6.04739 0
M  V30 5087 C 481.62 1.25589 6.07147 0
M  V30 5088 C 483.675 0.482077 4.95561 0
M  V30 5089 C 482.378 2.1461 6.86538 0
M  V30 5090 C 484.404 1.35962 5.75559 0
M  V30 5091 C 483.766 2.18217 6.69747 0
M  V30 5092 H 479.865 -0.209357 0.753454 0
M  V30 5093 H 482.449 0.0933695 1.94476 0
M  V30 5094 H 480.62 -2.02026 3.31723 0
M  V30 5095 H 482.352 -1.94033 3.55153 0
M  V30 5096 H 479.107 -0.298294 4.7266 0
M  V30 5097 H 479.531 1.54324 6.59176 0
M  V30 5098 H 484.173 -0.139609 4.22569 0
M  V30 5099 H 481.891 2.77835 7.58837 0
M  V30 5100 H 485.477 1.41105 5.6443 0
M  V30 5101 H 484.357 2.85022 7.3057 0
M  V30 5102 N 481.861 -1.55662 -0.24637 0
M  V30 5103 C 482.809 -1.91186 -1.3248 0
M  V30 5104 C 483.803 -0.790996 -1.49799 0
M  V30 5105 O 485.009 -0.975617 -1.51267 0
M  V30 5106 H 481.384 -0.607207 -0.443626 0
M  V30 5107 H 483.355 -2.81221 -0.997853 0
M  V30 5108 C 482.104 -2.22349 -2.67313 0
M  V30 5109 H 481.427 -3.08097 -2.54786 0
M  V30 5110 H 482.867 -2.51107 -3.41645 0
M  V30 5111 C 481.326 -1.04001 -3.20446 0
M  V30 5112 O 481.856 -0.28828 -4.00664 0
M  V30 5113 N 480.062 -0.830494 -2.7848 0
M  V30 5114 H 479.609 -1.4435 -2.13356 0
M  V30 5115 H 479.567 -0.0403258 -3.14374 0
M  V30 5116 N 483.339 0.512053 -1.4905 0
M  V30 5117 C 484.588 1.26343 -1.57227 0
M  V30 5118 C 484.901 1.93876 -0.259155 0
M  V30 5119 O 486.107 2.70612 -0.219358 0
M  V30 5120 C 484.563 2.29343 -2.77362 0
M  V30 5121 C 484.171 1.67799 -4.15388 0
M  V30 5122 C 485.915 3.05378 -2.94864 0
M  V30 5123 C 483.822 2.68845 -5.2676 0
M  V30 5124 H 482.752 0.475231 -0.585382 0
M  V30 5125 H 485.403 0.53862 -1.75417 0
M  V30 5126 H 483.785 3.04938 -2.52643 0
M  V30 5127 H 484.959 0.982715 -4.50199 0
M  V30 5128 H 483.274 1.04194 -4.03153 0
M  V30 5129 H 485.871 3.80921 -3.75238 0
M  V30 5130 H 486.214 3.62327 -2.05 0
M  V30 5131 H 486.747 2.36898 -3.19569 0
M  V30 5132 H 483.486 2.16692 -6.18647 0
M  V30 5133 H 483.006 3.36647 -4.96416 0
M  V30 5134 H 484.685 3.31487 -5.5563 0
M  V30 5135 N 484.817 1.37938 0.762283 0
M  V30 5136 C 485.747 1.37176 1.88958 0
M  V30 5137 C 486.728 0.238945 1.68413 0
M  V30 5138 O 487.913 0.440726 1.89133 0
M  V30 5139 C 485.043 1.18742 3.2637 0
M  V30 5140 C 483.997 2.29136 3.61498 0
M  V30 5141 C 483.323 1.95816 4.97554 0
M  V30 5142 C 484.623 3.71363 3.6727 0
M  V30 5143 H 486.317 2.31509 1.89853 0
M  V30 5144 H 483.863 1.11438 0.912005 0
M  V30 5145 H 485.816 1.16837 4.04879 0
M  V30 5146 H 484.54 0.208683 3.25933 0
M  V30 5147 H 483.199 2.30213 2.85303 0
M  V30 5148 H 482.847 0.964475 4.93667 0
M  V30 5149 H 482.547 2.69745 5.22026 0
M  V30 5150 H 484.071 1.95513 5.78452 0
M  V30 5151 H 485.485 3.72364 4.35911 0
M  V30 5152 H 483.882 4.44425 4.03245 0
M  V30 5153 H 484.952 4.04305 2.67704 0
M  V30 5154 N 486.295 -0.989507 1.22664 0
M  V30 5155 C 487.242 -2.08024 0.999733 0
M  V30 5156 C 488.212 -1.65909 -0.0797047 0
M  V30 5157 O 489.397 -1.90669 0.0705715 0
M  V30 5158 C 486.537 -3.40067 0.587234 0
M  V30 5159 C 485.65 -3.95505 1.73781 0
M  V30 5160 C 484.785 -5.15722 1.27297 0
M  V30 5161 C 483.824 -5.63305 2.39488 0
M  V30 5162 N 482.961 -6.74758 1.94026 0
M  V30 5163 H 487.801 -2.26768 1.9334 0
M  V30 5164 H 485.338 -1.11171 0.963297 0
M  V30 5165 H 487.296 -4.15899 0.329227 0
M  V30 5166 H 485.926 -3.21314 -0.309426 0
M  V30 5167 H 484.978 -3.16513 2.11006 0
M  V30 5168 H 486.29 -4.26797 2.58158 0
M  V30 5169 H 485.444 -5.98854 0.972546 0
M  V30 5170 H 484.183 -4.86061 0.399445 0
M  V30 5171 H 483.188 -4.78759 2.70315 0
M  V30 5172 H 484.413 -5.94988 3.27362 0
M  V30 5173 H 482.359 -6.46874 1.09041 0
M  V30 5174 H 482.276 -7.05386 2.71968 0
M  V30 5175 H 483.544 -7.61387 1.67062 0
M  V30 5176 N 487.773 -1.03688 -1.18687 0
M  V30 5177 C 488.683 -0.634908 -2.25845 0
M  V30 5178 C 489.699 0.337065 -1.70704 0
M  V30 5179 O 490.875 0.192943 -2.00474 0
M  V30 5180 C 487.94 -0.000180054 -3.467 0
M  V30 5181 C 487.001 -1.02067 -4.1699 0
M  V30 5182 C 486.234 -0.41614 -5.32075 0
M  V30 5183 O 486.457 0.778712 -5.65059 0
M  V30 5184 O 485.391 -1.14296 -5.90948 0
M  V30 5185 H 489.217 -1.52757 -2.62486 0
M  V30 5186 H 486.802 -0.807533 -1.25695 0
M  V30 5187 H 488.684 0.353342 -4.19916 0
M  V30 5188 H 487.359 0.866367 -3.11891 0
M  V30 5189 H 486.266 -1.42592 -3.45859 0
M  V30 5190 H 487.599 -1.85786 -4.5579 0
M  V30 5191 N 489.251 1.34841 -0.815825 0
M  V30 5192 C 490.181 2.32187 -0.247298 0
M  V30 5193 C 491.162 1.5791 0.632344 0
M  V30 5194 O 492.347 1.8593 0.560698 0
M  V30 5195 C 489.477 3.42122 0.597466 0
M  V30 5196 C 488.431 4.27602 -0.184446 0
M  V30 5197 C 487.757 5.28942 0.782609 0
M  V30 5198 C 489.057 5.03502 -1.38865 0
M  V30 5199 H 490.751 2.79985 -1.06061 0
M  V30 5200 H 488.297 1.34611 -0.511461 0
M  V30 5201 H 490.25 4.09232 1.00533 0
M  V30 5202 H 488.974 2.92956 1.44376 0
M  V30 5203 H 487.633 3.62085 -0.573592 0
M  V30 5204 H 487.281 4.7604 1.62466 0
M  V30 5205 H 486.981 5.87008 0.263695 0
M  V30 5206 H 488.505 5.98922 1.18848 0
M  V30 5207 H 489.919 5.63506 -1.05518 0
M  V30 5208 H 488.316 5.71108 -1.8427 0
M  V30 5209 H 489.386 4.33608 -2.17054 0
M  V30 5210 N 490.729 0.570148 1.46925 0
M  V30 5211 C 491.975 0.0510284 2.02736 0
M  V30 5212 C 492.308 -1.3006 1.44215 0
M  V30 5213 O 491.583 -1.84932 0.602521 0
M  V30 5214 C 491.866 -0.028215 3.60089 0
M  V30 5215 C 491.719 1.35142 4.29018 0
M  V30 5216 C 493.038 -0.735181 4.33916 0
M  V30 5217 H 490.157 0.0200178 0.736728 0
M  V30 5218 H 492.799 0.73493 1.75211 0
M  V30 5219 H 490.949 -0.610648 3.83671 0
M  V30 5220 H 492.621 1.97806 4.16738 0
M  V30 5221 H 490.864 1.9226 3.88868 0
M  V30 5222 H 491.535 1.24857 5.37694 0
M  V30 5223 H 494.011 -0.240519 4.15404 0
M  V30 5224 H 492.887 -0.759622 5.43618 0
M  V30 5225 H 493.148 -1.79397 4.04066 0
M  V30 5226 N 492.207 -1.54576 0.307264 0
M  V30 5227 C 493.155 -2.25208 -0.581723 0
M  V30 5228 C 494.149 -1.26031 -1.13192 0
M  V30 5229 O 495.355 -1.43862 -1.08184 0
M  V30 5230 H 491.73 -0.723173 -0.206214 0
M  V30 5231 H 493.701 -2.98378 0.0364663 0
M  V30 5232 C 492.45 -3.01086 -1.73904 0
M  V30 5233 H 491.773 -3.77208 -1.32491 0
M  V30 5234 H 493.213 -3.5378 -2.33701 0
M  V30 5235 C 491.672 -2.08422 -2.64692 0
M  V30 5236 O 492.202 -1.65636 -3.65961 0
M  V30 5237 N 490.408 -1.74247 -2.32564 0
M  V30 5238 H 489.955 -2.09238 -1.50257 0
M  V30 5239 H 489.913 -1.12524 -2.93574 0
M  V30 5240 N 493.685 -0.035106 -1.57561 0
M  V30 5241 C 494.648 0.929819 -2.09492 0
M  V30 5242 C 495.648 1.25026 -1.01119 0
M  V30 5243 O 496.838 1.18961 -1.27255 0
M  V30 5244 C 493.97 2.24457 -2.56577 0
M  V30 5245 H 495.163 0.479935 -2.96035 0
M  V30 5246 H 492.716 0.213033 -1.54841 0
M  V30 5247 H 493.451 2.74061 -1.73382 0
M  V30 5248 H 493.236 2.02508 -3.35757 0
M  V30 5249 H 494.726 2.93607 -2.96959 0
M  V30 5250 N 495.163 1.55791 0.238111 0
M  V30 5251 C 496.409 1.78297 0.966337 0
M  V30 5252 C 496.742 0.601903 1.84637 0
M  V30 5253 O 496.017 -0.399499 1.90353 0
M  V30 5254 C 496.3 3.10758 1.81939 0
M  V30 5255 C 496.153 4.39283 0.966958 0
M  V30 5256 C 497.472 3.39519 2.80027 0
M  V30 5257 H 494.591 0.648654 0.349882 0
M  V30 5258 H 497.233 1.88525 0.236253 0
M  V30 5259 H 495.383 3.02168 2.44185 0
M  V30 5260 H 497.055 4.59873 0.362514 0
M  V30 5261 H 495.298 4.32948 0.271669 0
M  V30 5262 H 495.969 5.28368 1.59784 0
M  V30 5263 H 498.445 3.48128 2.27917 0
M  V30 5264 H 497.321 4.33402 3.36829 0
M  V30 5265 H 497.582 2.60864 3.56934 0
M  V30 5266 N 496.642 -0.504142 1.49319 0
M  V30 5267 C 497.574 -1.62265 1.61872 0
M  V30 5268 C 498.587 -1.54881 0.501573 0
M  V30 5269 O 499.776 -1.6087 0.773497 0
M  V30 5270 C 496.876 -3.01042 1.55651 0
M  V30 5271 C 496.049 -3.33642 2.82845 0
M  V30 5272 C 495.108 -4.51816 2.69719 0
M  V30 5273 O 494.134 -4.53755 3.4365 0
M  V30 5274 N 495.336 -5.51543 1.81055 0
M  V30 5275 H 498.101 -1.51924 2.58339 0
M  V30 5276 H 495.662 -0.691954 1.46368 0
M  V30 5277 H 497.654 -3.78013 1.44528 0
M  V30 5278 H 496.224 -3.05323 0.670546 0
M  V30 5279 H 495.444 -2.45598 3.08343 0
M  V30 5280 H 496.732 -3.5222 3.67177 0
M  V30 5281 H 496.13 -5.52774 1.20241 0
M  V30 5282 H 494.687 -6.27629 1.75856 0
M  V30 5283 N 498.12 -1.38341 -0.754957 0
M  V30 5284 C 499.397 -1.24995 -1.50451 0
M  V30 5285 C 499.777 0.149244 -2.10572 0
M  V30 5286 O 499.125 1.15861 -1.96948 0
M  V30 5287 C 499.335 -2.35904 -2.57197 0
M  V30 5288 C 500.683 -2.74262 -3.24138 0
M  V30 5289 O 501.707 -2.35205 -2.67501 0
M  V30 5290 O 500.566 -3.4161 -4.26574 0
M  V30 5291 H 497.66 -0.48872 -0.667144 0
M  V30 5292 H 500.206 -1.50165 -0.790486 0
M  V30 5293 H 498.978 -3.2953 -2.11011 0
M  V30 5294 H 498.601 -2.12291 -3.36182 0
M  V30 5295 N 499.598 0.982988 -1.23187 0
M  V30 5296 C 500.546 2.09616 -1.00817 0
M  V30 5297 C 501.54 1.6932 0.0519995 0
M  V30 5298 O 502.746 1.79715 -0.101284 0
M  V30 5299 H 499.121 0.685628 -0.308899 0
M  V30 5300 H 501.092 2.25652 -1.95253 0
M  V30 5301 C 499.841 3.42249 -0.613243 0
M  V30 5302 H 499.164 3.73705 -1.42073 0
M  V30 5303 H 500.604 4.21086 -0.496208 0
M  V30 5304 C 499.063 3.30002 0.678233 0
M  V30 5305 O 499.593 3.6263 1.72807 0
M  V30 5306 N 497.799 2.83164 0.653165 0
M  V30 5307 H 497.346 2.56811 -0.201492 0
M  V30 5308 H 497.304 2.75352 1.51752 0
M  V30 5309 N 501.076 1.04316 1.18135 0
M  V30 5310 C 502.304 0.768117 1.92113 0
M  V30 5311 C 502.719 -0.675057 1.76319 0
M  V30 5312 O 502.076 -1.46038 1.09449 0
M  V30 5313 C 502.127 1.12808 3.43448 0
M  V30 5314 O 501.848 2.5146 3.58747 0
M  V30 5315 C 503.349 0.8779 4.3452 0
M  V30 5316 H 500.569 0.279937 0.609817 0
M  V30 5317 H 503.113 1.39149 1.49859 0
M  V30 5318 H 501.268 0.549623 3.83481 0
M  V30 5319 H 501.682 2.65313 4.52448 0
M  V30 5320 H 503.156 1.17959 5.39249 0
M  V30 5321 H 503.633 -0.187239 4.38801 0
M  V30 5322 H 504.239 1.43977 4.00188 0
M  V30 5323 N 502.554 -1.34406 0.822964 0
M  V30 5324 C 503.779 -2.0304 0.423034 0
M  V30 5325 C 504.204 -1.61568 -0.963196 0
M  V30 5326 O 503.562 -0.800339 -1.62678 0
M  V30 5327 C 503.61 -3.56636 0.53321 0
M  V30 5328 O 502.714 -4.09971 -0.446939 0
M  V30 5329 H 502.055 -0.64075 0.174171 0
M  V30 5330 H 504.585 -1.71653 1.11339 0
M  V30 5331 H 504.595 -4.05945 0.408991 0
M  V30 5332 H 503.27 -3.86168 1.54425 0
M  V30 5333 H 501.847 -3.71835 -0.281601 0
M  V30 5334 O 504.071 -0.718724 -1.44626 0
M  V30 5335 H 504.762 -0.264938 -1.9188 0
M  V30 END ATOM
M  V30 BEGIN BOND
M  V30 END BOND
M  V30 END CTAB
M  END
$$$$
